# Generated by pormake.
# Topology zzz, (3,6)-cn, num edge types: 1
# Building blocks:
#     Node 0, Type 0, BuildingBlock: BETDAH_clean_linker_0, # of connection points: 3
#     Node 1, Type 0, BuildingBlock: BETDAH_clean_linker_0, # of connection points: 3
#     Node 2, Type 0, BuildingBlock: BETDAH_clean_linker_0, # of connection points: 3
#     Node 3, Type 0, BuildingBlock: BETDAH_clean_linker_0, # of connection points: 3
#     Node 4, Type 0, BuildingBlock: BETDAH_clean_linker_0, # of connection points: 3
#     Node 5, Type 0, BuildingBlock: BETDAH_clean_linker_0, # of connection points: 3
#     Node 6, Type 0, BuildingBlock: BETDAH_clean_linker_0, # of connection points: 3
#     Node 7, Type 0, BuildingBlock: BETDAH_clean_linker_0, # of connection points: 3
#     Node 8, Type 1, BuildingBlock: MIFKUJ_clean_sbu_0, # of connection points: 6
#     Node 9, Type 1, BuildingBlock: MIFKUJ_clean_sbu_0, # of connection points: 6
#     Node 10, Type 1, BuildingBlock: MIFKUJ_clean_sbu_0, # of connection points: 6
#     Node 11, Type 1, BuildingBlock: MIFKUJ_clean_sbu_0, # of connection points: 6
#     Edge 12, Type (0, 1), BuildingBlock: UVAHIK_clean_linker_0, # of connection points: 2
#     Edge 13, Type (0, 1), BuildingBlock: UVAHIK_clean_linker_0, # of connection points: 2
#     Edge 14, Type (0, 1), BuildingBlock: UVAHIK_clean_linker_0, # of connection points: 2
#     Edge 15, Type (0, 1), BuildingBlock: UVAHIK_clean_linker_0, # of connection points: 2
#     Edge 16, Type (0, 1), BuildingBlock: UVAHIK_clean_linker_0, # of connection points: 2
#     Edge 17, Type (0, 1), BuildingBlock: UVAHIK_clean_linker_0, # of connection points: 2
#     Edge 18, Type (0, 1), BuildingBlock: UVAHIK_clean_linker_0, # of connection points: 2
#     Edge 19, Type (0, 1), BuildingBlock: UVAHIK_clean_linker_0, # of connection points: 2
#     Edge 20, Type (0, 1), BuildingBlock: UVAHIK_clean_linker_0, # of connection points: 2
#     Edge 21, Type (0, 1), BuildingBlock: UVAHIK_clean_linker_0, # of connection points: 2
#     Edge 22, Type (0, 1), BuildingBlock: UVAHIK_clean_linker_0, # of connection points: 2
#     Edge 23, Type (0, 1), BuildingBlock: UVAHIK_clean_linker_0, # of connection points: 2
#     Edge 24, Type (0, 1), BuildingBlock: UVAHIK_clean_linker_0, # of connection points: 2
#     Edge 25, Type (0, 1), BuildingBlock: UVAHIK_clean_linker_0, # of connection points: 2
#     Edge 26, Type (0, 1), BuildingBlock: UVAHIK_clean_linker_0, # of connection points: 2
#     Edge 27, Type (0, 1), BuildingBlock: UVAHIK_clean_linker_0, # of connection points: 2
#     Edge 28, Type (0, 1), BuildingBlock: UVAHIK_clean_linker_0, # of connection points: 2
#     Edge 29, Type (0, 1), BuildingBlock: UVAHIK_clean_linker_0, # of connection points: 2
#     Edge 30, Type (0, 1), BuildingBlock: UVAHIK_clean_linker_0, # of connection points: 2
#     Edge 31, Type (0, 1), BuildingBlock: UVAHIK_clean_linker_0, # of connection points: 2
#     Edge 32, Type (0, 1), BuildingBlock: UVAHIK_clean_linker_0, # of connection points: 2
#     Edge 33, Type (0, 1), BuildingBlock: UVAHIK_clean_linker_0, # of connection points: 2
#     Edge 34, Type (0, 1), BuildingBlock: UVAHIK_clean_linker_0, # of connection points: 2
#     Edge 35, Type (0, 1), BuildingBlock: UVAHIK_clean_linker_0, # of connection points: 2
# Relax obj value: 0.115
# Max RMSD: 0.115
# Mean RMSD: 0.087
data_MOF--net-zzz--node1-MIFKUJ_clean_sbu_0--node2-BETDAH_clean_linker_0--edge1-UVAHIK_clean_linker_0
_symmetry_space_group_name_H-M    P1
_symmetry_Int_Tables_number       1
_symmetry_cell_setting            triclinic
loop_
_symmetry_equiv_pos_as_xyz
'x, y, z'
_cell_length_a     65.662849
_cell_length_b     65.662893
_cell_length_c     20.459135
_cell_angle_alpha  89.987203
_cell_angle_beta   90.016101
_cell_angle_gamma 90.026312
loop_
_atom_site_label
_atom_site_type_symbol
_atom_site_fract_x
_atom_site_fract_y
_atom_site_fract_z
_atom_type_partial_charge
H0 H 0.79732 0.49718 0.0864 0.0
H1 H 0.7391 0.51144 0.00329 0.0
H2 H 0.75203 0.52664 0.20433 0.0
C3 C 0.7819 0.50284 0.09208 0.0
C4 C 0.77608 0.5113 0.15199 0.0
C5 C 0.76875 0.50295 0.03818 0.0
C6 C 0.74918 0.51123 0.0451 0.0
C7 C 0.74295 0.51958 0.10543 0.0
C8 C 0.75663 0.51989 0.15831 0.0
N9 N 0.72324 0.52809 0.11406 0.0
C10 C 0.70766 0.52623 0.06836 0.0
H11 H 0.97476 0.80219 0.09654 0.0
H12 H 0.99009 0.74293 0.02308 0.0
H13 H 0.98259 0.75241 0.2303 0.0
C14 C 0.97734 0.78609 0.1051 0.0
C15 C 0.97761 0.77876 0.16931 0.0
C16 C 0.98204 0.77333 0.05232 0.0
C17 C 0.98636 0.75272 0.06392 0.0
C18 C 0.98616 0.745 0.12828 0.0
C19 C 0.98214 0.75819 0.18069 0.0
N20 N 0.99039 0.72424 0.14216 0.0
C21 C 0.99218 0.70927 0.09451 0.0
H22 H 0.70892 0.00934 0.0911 0.0
H23 H 0.76631 0.99568 0.00113 0.0
H24 H 0.75405 0.97613 0.19867 0.0
C25 C 0.72421 0.00318 0.0942 0.0
C26 C 0.73016 0.99326 0.15161 0.0
C27 C 0.73707 0.0041 0.0396 0.0
C28 C 0.75641 0.99509 0.04328 0.0
C29 C 0.76271 0.98509 0.10096 0.0
C30 C 0.74937 0.98401 0.1546 0.0
N31 N 0.78215 0.97575 0.10635 0.0
C32 C 0.79727 0.97715 0.05895 0.0
H33 H 0.53221 0.70706 0.10825 0.0
H34 H 0.51696 0.76555 0.02859 0.0
H35 H 0.52362 0.75796 0.23703 0.0
C36 C 0.52951 0.72322 0.11522 0.0
C37 C 0.52895 0.7311 0.1787 0.0
C38 C 0.525 0.73547 0.06107 0.0
C39 C 0.52054 0.75615 0.07054 0.0
C40 C 0.52045 0.76445 0.13416 0.0
C41 C 0.52428 0.75175 0.188 0.0
N42 N 0.51615 0.78535 0.14571 0.0
C43 C 0.51455 0.79974 0.09616 0.0
H44 H 0.20509 0.47738 0.10601 0.0
H45 H 0.26356 0.4928 0.18547 0.0
H46 H 0.25607 0.48557 0.9772 0.0
C47 C 0.22125 0.48005 0.09907 0.0
C48 C 0.22918 0.4804 0.03561 0.0
C49 C 0.23348 0.48474 0.15311 0.0
C50 C 0.25417 0.48912 0.14356 0.0
C51 C 0.26252 0.48903 0.08002 0.0
C52 C 0.24984 0.48505 0.02623 0.0
N53 N 0.28344 0.49329 0.06865 0.0
C54 C 0.29766 0.49514 0.11864 0.0
H55 H 0.99546 0.21047 0.11022 0.0
H56 H 0.01052 0.26811 0.19642 0.0
H57 H 0.0237 0.25671 0.99292 0.0
C58 C 0.00105 0.22595 0.10523 0.0
C59 C 0.00896 0.23223 0.04505 0.0
C60 C 0.00169 0.23867 0.1601 0.0
C61 C 0.00986 0.25833 0.15386 0.0
C62 C 0.01753 0.26506 0.09308 0.0
C63 C 0.01741 0.25176 0.03926 0.0
N64 N 0.02575 0.28491 0.08486 0.0
C65 C 0.02383 0.30022 0.13134 0.0
H66 H 0.30168 0.03081 0.10834 0.0
H67 H 0.24287 0.01539 0.1852 0.0
H68 H 0.25096 0.02386 0.97765 0.0
C69 C 0.28552 0.0283 0.10076 0.0
C70 C 0.27775 0.0284 0.03707 0.0
C71 C 0.2731 0.02339 0.15416 0.0
C72 C 0.2524 0.01924 0.1438 0.0
C73 C 0.24422 0.01981 0.08004 0.0
C74 C 0.25708 0.024 0.02686 0.0
N75 N 0.22329 0.01588 0.06779 0.0
C76 C 0.20883 0.01415 0.1171 0.0
H77 H 0.4806 0.29726 0.09952 0.0
H78 H 0.49489 0.23842 0.17788 0.0
H79 H 0.48963 0.24678 0.96917 0.0
C80 C 0.48325 0.28112 0.09176 0.0
C81 C 0.48418 0.27349 0.02806 0.0
C82 C 0.48733 0.26863 0.14551 0.0
C83 C 0.49157 0.24794 0.13598 0.0
C84 C 0.49193 0.23985 0.07205 0.0
C85 C 0.48865 0.25281 0.01838 0.0
N86 N 0.49604 0.21897 0.0598 0.0
C87 C 0.49689 0.20416 0.10825 0.0
Zn88 Zn 0.99879 0.02449 0.57609 0.0
Zn89 Zn 0.01324 0.98347 0.63011 0.0
C90 C 0.99437 0.04788 0.68765 0.0
O91 O 0.97572 0.04662 0.66468 0.0
C92 C 0.01574 0.95945 0.52003 0.0
O93 O 0.03445 0.95954 0.5429 0.0
O94 O 0.99059 0.04966 0.52576 0.0
O95 O 0.02259 0.0129 0.52617 0.0
O96 O 0.03859 0.99966 0.61045 0.0
C97 C 0.00494 0.06272 0.52585 0.0
O98 O 0.02262 0.05755 0.55098 0.0
O99 O 0.00828 0.0374 0.66049 0.0
C100 C 0.00596 0.94462 0.67477 0.0
O101 O 0.98873 0.94997 0.64702 0.0
O102 O 0.0203 0.95762 0.67909 0.0
O103 O 0.99041 0.99584 0.68184 0.0
O104 O 0.97398 0.00715 0.59588 0.0
O105 O 0.0029 0.97169 0.54499 0.0
C106 C 0.03909 0.00753 0.55369 0.0
C107 C 0.97369 0.99981 0.65337 0.0
Zn108 Zn 0.48327 0.99437 0.57622 0.0
Zn109 Zn 0.52391 0.00959 0.63327 0.0
C110 C 0.45837 0.99318 0.68439 0.0
O111 O 0.45889 0.97421 0.66393 0.0
C112 C 0.54963 0.01147 0.52641 0.0
O113 O 0.54829 0.03052 0.54559 0.0
O114 O 0.45786 0.98614 0.52677 0.0
O115 O 0.49599 0.01623 0.52099 0.0
O116 O 0.5073 0.03394 0.60429 0.0
C117 C 0.44482 1.00048 0.52764 0.0
O118 O 0.45002 0.01825 0.55197 0.0
O119 O 0.4706 0.00591 0.65865 0.0
C120 C 0.5595 0.00557 0.70548 0.0
O121 O 0.55407 0.98653 0.69622 0.0
O122 O 0.54776 0.01969 0.68584 0.0
O123 O 0.51114 0.98682 0.68565 0.0
O124 O 0.49959 0.96959 0.60134 0.0
O125 O 0.53869 0.99816 0.55487 0.0
C126 C 0.50074 0.03328 0.5459 0.0
C127 C 0.50649 0.96989 0.65939 0.0
Zn128 Zn 0.50686 0.48491 0.56973 0.0
Zn129 Zn 0.49337 0.52436 0.63675 0.0
C130 C 0.51202 0.45649 0.66631 0.0
O131 O 0.52989 0.45802 0.63777 0.0
C132 C 0.49097 0.55104 0.53304 0.0
O133 O 0.4725 0.55109 0.55784 0.0
O134 O 0.51313 0.46166 0.50791 0.0
O135 O 0.48328 0.49931 0.52634 0.0
O136 O 0.46738 0.50951 0.6148 0.0
C137 C 0.49721 0.45076 0.50119 0.0
O138 O 0.48027 0.45679 0.52935 0.0
O139 O 0.498 0.46878 0.64925 0.0
C140 C 0.50242 0.5616 0.69001 0.0
O141 O 0.51944 0.55587 0.66176 0.0
O142 O 0.48747 0.54925 0.69187 0.0
O143 O 0.51584 0.50966 0.68388 0.0
O144 O 0.5323 0.50058 0.59517 0.0
O145 O 0.50365 0.53794 0.55412 0.0
C146 C 0.46677 0.50341 0.55591 0.0
C147 C 0.53253 0.5058 0.65506 0.0
Zn148 Zn 0.02336 0.51399 0.57722 0.0
Zn149 Zn 0.98197 0.49918 0.62803 0.0
C150 C 0.04785 0.51611 0.68636 0.0
O151 O 0.04731 0.53496 0.66482 0.0
C152 C 0.95936 0.49638 0.5141 0.0
O153 O 0.96014 0.47748 0.53506 0.0
O154 O 0.04894 0.52179 0.52807 0.0
O155 O 0.01118 0.49138 0.52365 0.0
O156 O 0.99898 0.47435 0.60715 0.0
C157 C 0.06195 0.50744 0.53059 0.0
O158 O 0.05665 0.48991 0.55645 0.0
O159 O 0.03572 0.5032 0.66107 0.0
C160 C 0.94327 0.50502 0.6751 0.0
O161 O 0.9486 0.52291 0.6519 0.0
O162 O 0.95637 0.49074 0.67543 0.0
O163 O 0.99377 0.52197 0.68182 0.0
O164 O 0.00698 0.53904 0.59979 0.0
O165 O 0.96983 0.50983 0.5437 0.0
C166 C 0.00652 0.47448 0.54994 0.0
C167 C 0.99931 0.5388 0.65683 0.0
C168 C 0.19269 0.02865 0.21498 0.0
C169 C 0.19388 0.01307 0.16846 0.0
C170 C 0.17769 0.0281 0.26342 0.0
C171 C 0.14107 0.99384 0.3468 0.0
H172 H 0.11141 0.04386 0.37978 0.0
C173 C 0.07623 0.99928 0.53883 0.0
C174 C 0.05849 0.00921 0.51719 0.0
C175 C 0.09415 1.00017 0.5018 0.0
C176 C 0.11955 0.02976 0.37113 0.0
H177 H 0.18096 0.98458 0.13551 0.0
H178 H 0.15451 0.98357 0.21993 0.0
H179 H 0.14011 0.04407 0.30429 0.0
H180 H 0.04582 0.02822 0.44052 0.0
H181 H 0.07691 0.02973 0.37631 0.0
H182 H 0.12004 0.97944 0.41225 0.0
C183 C 0.16522 0.99612 0.21978 0.0
C184 C 0.13612 0.02992 0.32837 0.0
C185 C 0.18022 0.99672 0.17129 0.0
C186 C 0.05918 0.02036 0.45857 0.0
C187 C 0.07707 0.02135 0.42193 0.0
C188 C 0.12451 0.9937 0.38984 0.0
C189 C 0.16365 0.01191 0.26605 0.0
C190 C 0.14691 0.01191 0.31498 0.0
C191 C 0.09472 0.01116 0.44278 0.0
C192 C 0.11337 0.01161 0.40167 0.0
H193 H 0.20324 0.04134 0.2135 0.0
H194 H 0.17705 0.04036 0.29876 0.0
H195 H 0.14921 0.97976 0.33807 0.0
H196 H 0.07618 0.99055 0.58374 0.0
H197 H 0.10756 0.99229 0.51936 0.0
C198 C 0.48947 0.16879 0.13851 0.0
C199 C 0.49734 0.18787 0.15539 0.0
C200 C 0.49015 0.15272 0.18317 0.0
C201 C 0.49534 0.1408 0.35882 0.0
H202 H 0.50965 0.08724 0.29367 0.0
C203 C 0.50787 0.07052 0.5276 0.0
C204 C 0.49996 0.0519 0.50505 0.0
C205 C 0.50784 0.08774 0.48714 0.0
C206 C 0.50543 0.10205 0.3126 0.0
H207 H 0.51194 0.20559 0.2312 0.0
H208 H 0.51331 0.17737 0.30988 0.0
H209 H 0.50913 0.11609 0.21908 0.0
H210 H 0.48527 0.03695 0.42298 0.0
H211 H 0.48503 0.06686 0.35315 0.0
H212 H 0.49156 0.12662 0.45246 0.0
C213 C 0.50644 0.1748 0.26247 0.0
C214 C 0.50513 0.1186 0.2698 0.0
C215 C 0.50576 0.19089 0.21755 0.0
C216 C 0.49167 0.05098 0.44177 0.0
C217 C 0.49163 0.06813 0.40151 0.0
C218 C 0.49563 0.12419 0.40177 0.0
C219 C 0.49876 0.15548 0.24556 0.0
C220 C 0.49986 0.13813 0.29217 0.0
C221 C 0.49991 0.08665 0.42333 0.0
C222 C 0.50045 0.10458 0.37892 0.0
H223 H 0.48283 0.16627 0.09067 0.0
H224 H 0.48381 0.13815 0.16896 0.0
H225 H 0.49106 0.15563 0.37748 0.0
H226 H 0.5144 0.07173 0.57608 0.0
H227 H 0.51444 0.10176 0.50526 0.0
C228 C 0.31399 0.48024 0.21559 0.0
C229 C 0.31226 0.49632 0.17104 0.0
C230 C 0.32866 0.48094 0.26507 0.0
C231 C 0.36327 0.51576 0.35488 0.0
H232 H 0.39553 0.46694 0.38026 0.0
C233 C 0.4292 0.51038 0.54449 0.0
C234 C 0.44728 0.50189 0.5198 0.0
C235 C 0.41111 0.50932 0.50817 0.0
C236 C 0.38663 0.48069 0.37385 0.0
H237 H 0.32379 0.52588 0.14281 0.0
H238 H 0.34968 0.52715 0.22904 0.0
H239 H 0.36682 0.46634 0.30487 0.0
H240 H 0.46046 0.48538 0.43817 0.0
H241 H 0.42914 0.48352 0.37556 0.0
H242 H 0.3836 0.53026 0.42248 0.0
C243 C 0.33965 0.51408 0.22655 0.0
C244 C 0.37006 0.48029 0.3311 0.0
C245 C 0.32498 0.51333 0.17699 0.0
C246 C 0.44683 0.4921 0.45872 0.0
C247 C 0.42882 0.49089 0.42292 0.0
C248 C 0.37983 0.51613 0.39797 0.0
C249 C 0.34181 0.49778 0.27074 0.0
C250 C 0.35838 0.49791 0.32026 0.0
C251 C 0.41076 0.49954 0.44699 0.0
C252 C 0.39192 0.49869 0.40692 0.0
H253 H 0.30414 0.46704 0.21173 0.0
H254 H 0.32977 0.46826 0.29875 0.0
H255 H 0.35443 0.52952 0.34813 0.0
H256 H 0.42907 0.51805 0.59134 0.0
H257 H 0.39739 0.51604 0.52806 0.0
C258 C 0.03626 0.32038 0.2248 0.0
C259 C 0.02116 0.31634 0.17824 0.0
C260 C 0.03386 0.3365 0.26889 0.0
C261 C 0.00678 0.38525 0.28655 0.0
H262 H 0.02344 0.38136 0.46804 0.0
C263 C 0.0161 0.45617 0.44745 0.0
C264 C 0.00833 0.45546 0.51145 0.0
C265 C 0.01724 0.43856 0.40953 0.0
C266 C 0.01858 0.38262 0.41762 0.0
H267 H 0.99165 0.3252 0.14106 0.0
H268 H 0.98728 0.35336 0.21824 0.0
H269 H 0.02568 0.35138 0.39738 0.0
H270 H 0.99601 0.43553 0.5862 0.0
H271 H 0.99801 0.40463 0.51954 0.0
H272 H 0.99959 0.41638 0.30656 0.0
C273 C 0.00109 0.34436 0.22054 0.0
C274 C 0.02005 0.36552 0.377 0.0
C275 C 0.00351 0.32825 0.17663 0.0
C276 C 0.00206 0.43659 0.53707 0.0
C277 C 0.00328 0.41889 0.49902 0.0
C278 C 0.0054 0.40231 0.32697 0.0
C279 C 0.01632 0.34881 0.26681 0.0
C280 C 0.01425 0.36668 0.3109 0.0
C281 C 0.01069 0.41975 0.43457 0.0
C282 C 0.01143 0.40126 0.39281 0.0
H283 H 0.05 0.31127 0.22656 0.0
H284 H 0.04596 0.33964 0.30342 0.0
H285 H 0.00238 0.38674 0.23575 0.0
H286 H 0.02122 0.47039 0.42624 0.0
H287 H 0.02337 0.43968 0.3605 0.0
C288 C 0.81051 0.98574 0.94926 0.0
C289 C 0.81379 0.9784 0.01271 0.0
C290 C 0.82676 0.98724 0.90524 0.0
C291 C 0.87867 0.96765 0.87455 0.0
H292 H 0.88527 0.01671 0.77104 0.0
C293 C 0.95449 0.98781 0.75147 0.0
C294 C 0.95427 0.99661 0.68881 0.0
C295 C 0.93644 0.98485 0.78603 0.0
C296 C 0.88348 0.00278 0.79881 0.0
H297 H 0.83616 0.96679 0.08069 0.0
H298 H 0.86465 0.96943 0.00412 0.0
H299 H 0.85534 0.01282 0.84081 0.0
H300 H 0.93479 0.00912 0.6132 0.0
H301 H 0.90307 0.00379 0.67376 0.0
H302 H 0.90686 0.95766 0.83324 0.0
C303 C 0.8496 0.97385 0.98777 0.0
C304 C 0.86634 1.00056 0.83884 0.0
C305 C 0.83337 0.97244 0.03171 0.0
C306 C 0.93548 0.00232 0.6614 0.0
C307 C 0.91733 0.99936 0.69619 0.0
C308 C 0.89575 0.96985 0.83451 0.0
C309 C 0.8465 0.9813 0.92403 0.0
C310 C 0.86392 0.98311 0.87799 0.0
C311 C 0.91762 0.99056 0.75892 0.0
C312 C 0.89856 0.98758 0.79702 0.0
H313 H 0.79545 0.99035 0.93362 0.0
H314 H 0.82384 0.99285 0.85635 0.0
H315 H 0.87705 0.95385 0.90305 0.0
H316 H 0.96867 0.98325 0.77421 0.0
H317 H 0.93728 0.97836 0.83464 0.0
C318 C 0.49606 0.8269 0.0382 0.0
C319 C 0.5135 0.81486 0.04531 0.0
C320 C 0.49542 0.84218 0.9906 0.0
C321 C 0.52928 0.87526 0.89444 0.0
H322 H 0.48024 0.88693 0.79558 0.0
C323 C 0.51714 0.95126 0.76036 0.0
C324 C 0.50802 0.9509 0.69818 0.0
C325 C 0.5183 0.9336 0.79812 0.0
C326 C 0.49411 0.88373 0.8223 0.0
H327 H 0.54375 0.80865 0.00875 0.0
H328 H 0.54272 0.83533 0.92502 0.0
H329 H 0.48112 0.85752 0.86874 0.0
H330 H 0.49303 0.9316 0.62682 0.0
H331 H 0.49506 0.90065 0.69309 0.0
H332 H 0.54228 0.90145 0.84819 0.0
C333 C 0.5296 0.83322 0.95637 0.0
C334 C 0.49455 0.86702 0.86472 0.0
C335 C 0.53019 0.81793 0.0039 0.0
C336 C 0.50016 0.9324 0.6745 0.0
C337 C 0.50122 0.9147 0.71256 0.0
C338 C 0.52881 0.89199 0.85229 0.0
C339 C 0.51227 0.84566 0.94955 0.0
C340 C 0.51208 0.86271 0.90174 0.0
C341 C 0.5103 0.91513 0.77484 0.0
C342 C 0.51116 0.89656 0.81628 0.0
H343 H 0.48306 0.8247 0.07005 0.0
H344 H 0.48195 0.85164 0.98718 0.0
H345 H 0.54296 0.87249 0.92265 0.0
H346 H 0.52334 0.96524 0.78021 0.0
H347 H 0.52513 0.93453 0.84623 0.0
C348 C 0.67106 0.52267 0.04648 0.0
C349 C 0.69104 0.52377 0.02302 0.0
C350 C 0.65486 0.51975 0.0032 0.0
C351 C 0.64023 0.5242 0.82892 0.0
H352 H 0.59569 0.48926 0.88307 0.0
C353 C 0.57085 0.50462 0.66221 0.0
C354 C 0.55177 0.50651 0.69283 0.0
C355 C 0.58884 0.50563 0.69909 0.0
C356 C 0.60798 0.49912 0.86734 0.0
H357 H 0.7101 0.52295 0.93684 0.0
H358 H 0.6818 0.51751 0.86072 0.0
H359 H 0.62522 0.49326 0.95393 0.0
H360 H 0.53668 0.51086 0.78625 0.0
H361 H 0.56781 0.51251 0.8499 0.0
H362 H 0.62279 0.53005 0.74222 0.0
C363 C 0.67852 0.51911 0.91233 0.0
C364 C 0.62488 0.50148 0.90805 0.0
C365 C 0.69473 0.5221 0.95579 0.0
C366 C 0.55108 0.5093 0.76094 0.0
C367 C 0.56894 0.51013 0.79762 0.0
C368 C 0.62331 0.52175 0.78795 0.0
C369 C 0.65839 0.51778 0.93559 0.0
C370 C 0.64105 0.51434 0.88997 0.0
C371 C 0.58802 0.5083 0.76727 0.0
C372 C 0.60685 0.50947 0.80733 0.0
H373 H 0.66797 0.52402 0.09834 0.0
H374 H 0.63955 0.5192 0.02274 0.0
H375 H 0.65235 0.53433 0.81366 0.0
H376 H 0.5719 0.50248 0.60982 0.0
H377 H 0.60335 0.5041 0.67444 0.0
C378 C 0.9856 0.67385 0.06302 0.0
C379 C 0.9935 0.69303 0.04745 0.0
C380 C 0.98694 0.65789 0.01816 0.0
C381 C 0.994 0.6465 0.84291 0.0
H382 H 0.00722 0.59268 0.90833 0.0
C383 C 0.00705 0.57595 0.67508 0.0
C384 C 0.99839 0.55758 0.69688 0.0
C385 C 0.007 0.59322 0.71533 0.0
C386 C 0.00334 0.60758 0.88932 0.0
H387 H 0.00885 0.71102 0.97384 0.0
H388 H 0.01137 0.68298 0.89485 0.0
H389 H 0.00633 0.6214 0.98341 0.0
H390 H 0.98229 0.54316 0.77724 0.0
H391 H 0.98209 0.57313 0.84666 0.0
H392 H 0.99093 0.63252 0.74866 0.0
C393 C 0.00399 0.68025 0.94136 0.0
C394 C 0.00282 0.62404 0.93238 0.0
C395 C 0.00265 0.69623 0.98646 0.0
C396 C 0.98929 0.55698 0.75904 0.0
C397 C 0.98927 0.57416 0.7991 0.0
C398 C 0.99453 0.62998 0.79967 0.0
C399 C 0.99624 0.66085 0.9569 0.0
C400 C 0.99786 0.64365 0.90994 0.0
C401 C 0.99834 0.5924 0.77816 0.0
C402 C 0.99892 0.61028 0.82266 0.0
H403 H 0.97839 0.6712 0.10991 0.0
H404 H 0.98052 0.64325 0.03127 0.0
H405 H 0.98998 0.6614 0.82415 0.0
H406 H 0.0142 0.57691 0.62746 0.0
H407 H 0.01418 0.60705 0.69794 0.0
C408 C 0.01022 0.23022 0.27584 0.0
C409 C 0.99609 0.22992 0.22437 0.0
C410 C 0.00831 0.21648 0.32771 0.0
C411 C 0.97595 0.17473 0.39719 0.0
H412 H 0.02792 0.14702 0.40936 0.0
C413 C 0.98453 0.08947 0.46694 0.0
C414 C 0.00176 0.08387 0.50346 0.0
C415 C 0.98219 0.10958 0.44521 0.0
C416 C 0.01334 0.1547 0.40777 0.0
H417 H 0.96747 0.21721 0.19103 0.0
H418 H 0.96431 0.19304 0.28051 0.0
H419 H 0.02606 0.17987 0.3563 0.0
H420 H 0.02945 0.09515 0.54887 0.0
H421 H 0.02521 0.12998 0.51211 0.0
H422 H 0.9632 0.14893 0.44688 0.0
C423 C 0.97687 0.20373 0.28135 0.0
C424 C 0.01228 0.17368 0.37752 0.0
C425 C 0.97872 0.21751 0.22978 0.0
C426 C 0.01619 0.09885 0.51968 0.0
C427 C 0.01377 0.11886 0.49859 0.0
C428 C 0.97702 0.15566 0.42764 0.0
C429 C 0.9923 0.20221 0.32868 0.0
C430 C 0.99354 0.1838 0.37077 0.0
C431 C 0.99696 0.12443 0.46009 0.0
C432 C 0.9957 0.1453 0.4323 0.0
H433 H 0.02373 0.23965 0.27304 0.0
H434 H 0.02019 0.21602 0.36443 0.0
H435 H 0.96129 0.18219 0.39308 0.0
H436 H 0.9731 0.07827 0.45405 0.0
H437 H 0.96915 0.11334 0.41513 0.0
C438 C 0.29636 0.03567 0.24192 0.0
C439 C 0.28268 0.02088 0.21909 0.0
C440 C 0.30923 0.03142 0.29432 0.0
C441 C 0.33486 0.98748 0.36586 0.0
H442 H 0.35771 0.02923 0.47771 0.0
C443 C 0.4183 0.98661 0.45191 0.0
C444 C 0.42347 0.99708 0.50916 0.0
C445 C 0.39803 0.98623 0.43062 0.0
C446 C 0.35136 0.01714 0.44809 0.0
H447 H 0.2705 0.99068 0.23608 0.0
H448 H 0.29287 0.9833 0.3289 0.0
H449 H 0.32603 0.0357 0.4207 0.0
H450 H 0.41169 0.01358 0.59269 0.0
H451 H 0.37632 0.0121 0.55752 0.0
H452 H 0.36029 0.96894 0.39307 0.0
C453 C 0.29384 0.99807 0.30555 0.0
C454 C 0.33325 0.02099 0.41471 0.0
C455 C 0.28089 0.00237 0.253 0.0
C456 C 0.40804 0.00579 0.54745 0.0
C457 C 0.3878 0.00501 0.52712 0.0
C458 C 0.35292 0.98353 0.39982 0.0
C459 C 0.30869 0.01227 0.32511 0.0
C460 C 0.32521 0.00654 0.37121 0.0
C461 C 0.38261 0.99596 0.4671 0.0
C462 C 0.36179 0.9986 0.43953 0.0
H463 H 0.29795 0.05009 0.21664 0.0
H464 H 0.32056 0.04268 0.30752 0.0
H465 H 0.32917 0.97602 0.33248 0.0
H466 H 0.43002 0.97979 0.42179 0.0
H467 H 0.39469 0.97926 0.38388 0.0
C468 C 0.47144 0.28634 0.23918 0.0
C469 C 0.48902 0.27849 0.20978 0.0
C470 C 0.47293 0.30218 0.28437 0.0
C471 C 0.50844 0.33558 0.37773 0.0
H472 H 0.47091 0.37754 0.32036 0.0
C473 C 0.51587 0.4212 0.45034 0.0
C474 C 0.49754 0.43078 0.46798 0.0
C475 C 0.51564 0.40156 0.42339 0.0
C476 C 0.48136 0.36596 0.33759 0.0
H477 H 0.52193 0.2796 0.20768 0.0
H478 H 0.52463 0.30744 0.28647 0.0
H479 H 0.46836 0.34359 0.27472 0.0
H480 H 0.46465 0.42737 0.4707 0.0
H481 H 0.4643 0.39346 0.42455 0.0
H482 H 0.52156 0.35836 0.44021 0.0
C483 C 0.50972 0.30125 0.27567 0.0
C484 C 0.47981 0.34642 0.31173 0.0
C485 C 0.50821 0.28525 0.23084 0.0
C486 C 0.47906 0.4205 0.45749 0.0
C487 C 0.47883 0.40103 0.43071 0.0
C488 C 0.50997 0.35525 0.4039 0.0
C489 C 0.49203 0.31066 0.29984 0.0
C490 C 0.49323 0.33094 0.33166 0.0
C491 C 0.49707 0.3913 0.41335 0.0
C492 C 0.49634 0.37061 0.38425 0.0
H493 H 0.45651 0.28147 0.22288 0.0
H494 H 0.45905 0.30884 0.30334 0.0
H495 H 0.51906 0.32399 0.39378 0.0
H496 H 0.53035 0.42871 0.45828 0.0
H497 H 0.52993 0.39447 0.40996 0.0
C498 C 0.22562 0.50514 0.25318 0.0
C499 C 0.22373 0.48689 0.21789 0.0
C500 C 0.21261 0.50917 0.30577 0.0
C501 C 0.17291 0.48585 0.41274 0.0
H502 H 0.14645 0.53835 0.39492 0.0
C503 C 0.09872 0.50141 0.54862 0.0
C504 C 0.08327 0.5105 0.51127 0.0
C505 C 0.11888 0.50194 0.52751 0.0
C506 C 0.15366 0.52363 0.40059 0.0
H507 H 0.20822 0.45783 0.21308 0.0
H508 H 0.18549 0.4648 0.30399 0.0
H509 H 0.17745 0.53134 0.33365 0.0
H510 H 0.07667 0.52823 0.42478 0.0
H511 H 0.11186 0.52838 0.3856 0.0
H512 H 0.14841 0.47748 0.47545 0.0
C513 C 0.19695 0.47605 0.2918 0.0
C514 C 0.17164 0.51971 0.36624 0.0
C515 C 0.20988 0.47206 0.23937 0.0
C516 C 0.08839 0.5211 0.45418 0.0
C517 C 0.10858 0.52126 0.43216 0.0
C518 C 0.15488 0.48969 0.44655 0.0
C519 C 0.1976 0.49496 0.32398 0.0
C520 C 0.18109 0.50052 0.37027 0.0
C521 C 0.12398 0.51116 0.46769 0.0
C522 C 0.14468 0.50841 0.43942 0.0
H523 H 0.23614 0.51686 0.23736 0.0
H524 H 0.21368 0.52376 0.33022 0.0
H525 H 0.17997 0.47102 0.41768 0.0
H526 H 0.09514 0.49353 0.59374 0.0
H527 H 0.13037 0.49456 0.55718 0.0
C528 C 0.9694 0.79607 0.96375 0.0
C529 C 0.9843 0.78256 0.98677 0.0
C530 C 0.97354 0.80894 0.91126 0.0
C531 C 0.01744 0.83484 0.83999 0.0
H532 H 0.97565 0.85781 0.72857 0.0
C533 C 0.01902 0.91816 0.75229 0.0
C534 C 0.00872 0.92328 0.69462 0.0
C535 C 0.01903 0.89798 0.77444 0.0
C536 C 0.98774 0.85143 0.75812 0.0
H537 H 0.01457 0.77059 0.96978 0.0
H538 H 0.02175 0.7929 0.8767 0.0
H539 H 0.96916 0.82609 0.78543 0.0
H540 H 0.99209 0.9114 0.61146 0.0
H541 H 0.99287 0.87618 0.64826 0.0
H542 H 0.03602 0.86024 0.81274 0.0
C543 C 0.00698 0.79379 0.90005 0.0
C544 C 0.98388 0.83329 0.79142 0.0
C545 C 0.00279 0.78085 0.95273 0.0
C546 C 0.99974 0.90784 0.65701 0.0
C547 C 1.00012 0.88767 0.67826 0.0
C548 C 0.0214 0.85291 0.80611 0.0
C549 C 0.99269 0.80856 0.88052 0.0
C550 C 0.99837 0.82519 0.83467 0.0
C551 C 0.00909 0.88257 0.73848 0.0
C552 C 0.00633 0.86181 0.7665 0.0
H553 H 0.955 0.79761 0.98915 0.0
H554 H 0.96221 0.8202 0.89808 0.0
H555 H 0.02893 0.82911 0.87321 0.0
H556 H 0.02607 0.92988 0.78194 0.0
H557 H 0.02594 0.89471 0.82133 0.0
C558 C 0.73029 0.00142 0.91932 0.0
C559 C 0.72882 0.01256 0.97769 0.0
C560 C 0.71708 0.00559 0.86733 0.0
C561 C 0.67165 0.03812 0.82124 0.0
H562 H 0.65051 0.98572 0.76687 0.0
C563 C 0.59052 0.02779 0.71041 0.0
C564 C 0.58015 0.01006 0.72976 0.0
C565 C 0.61108 0.03047 0.72648 0.0
C566 C 0.6561 1.0005 0.782 0.0
H567 H 0.71494 0.03889 0.02332 0.0
H568 H 0.69127 0.04538 0.9355 0.0
H569 H 0.68403 0.98768 0.81431 0.0
H570 H 0.58271 0.98176 0.78351 0.0
H571 H 0.61804 0.98682 0.81433 0.0
H572 H 0.6427 0.05049 0.79416 0.0
C573 C 0.70247 0.03351 0.92846 0.0
C574 C 0.67568 0.00175 0.808 0.0
C575 C 0.71596 0.02964 0.97959 0.0
C576 C 0.59039 0.9955 0.76752 0.0
C577 C 0.61076 0.9983 0.78439 0.0
C578 C 0.65183 0.03679 0.79635 0.0
C579 C 0.70189 0.02064 0.87347 0.0
C580 C 0.68346 0.02044 0.83066 0.0
C581 C 0.62155 0.01556 0.76277 0.0
C582 C 0.64353 0.01779 0.77911 0.0
H583 H 0.74027 0.98834 0.9159 0.0
H584 H 0.71774 0.99591 0.82455 0.0
H585 H 0.67727 0.0529 0.83619 0.0
H586 H 0.583 0.03916 0.68056 0.0
H587 H 0.6189 0.04392 0.70888 0.0
C588 C 0.53824 0.71206 0.97531 0.0
C589 C 0.52313 0.72566 0.99629 0.0
C590 C 0.53447 0.69872 0.92378 0.0
C591 C 0.4911 0.67199 0.85196 0.0
H592 H 0.53366 0.64844 0.74493 0.0
C593 C 0.48973 0.58827 0.76749 0.0
C594 C 0.50026 0.58295 0.71047 0.0
C595 C 0.48985 0.60848 0.78936 0.0
C596 C 0.52137 0.65497 0.77326 0.0
H597 H 0.49287 0.73726 0.9766 0.0
H598 H 0.48633 0.71412 0.88511 0.0
H599 H 0.53969 0.68056 0.79994 0.0
H600 H 0.51751 0.59453 0.62816 0.0
H601 H 0.51697 0.62978 0.6644 0.0
H602 H 0.47276 0.64636 0.82517 0.0
C603 C 0.50098 0.71353 0.90937 0.0
C604 C 0.52496 0.67334 0.80551 0.0
C605 C 0.5048 0.72694 0.96111 0.0
C606 C 0.50971 0.59823 0.67331 0.0
C607 C 0.50945 0.61842 0.69423 0.0
C608 C 0.48742 0.65369 0.81909 0.0
C609 C 0.51547 0.69871 0.89195 0.0
C610 C 0.51016 0.68169 0.84716 0.0
C611 C 0.50014 0.62373 0.7537 0.0
C612 C 0.50275 0.64459 0.78104 0.0
H613 H 0.55252 0.71085 0.00162 0.0
H614 H 0.54594 0.68744 0.91224 0.0
H615 H 0.47938 0.6779 0.88397 0.0
H616 H 0.48229 0.57669 0.7967 0.0
H617 H 0.48268 0.61192 0.83569 0.0
C618 C 0.77593 0.51019 0.92061 0.0
C619 C 0.77694 0.49671 0.97376 0.0
C620 C 0.78914 0.50782 0.8676 0.0
C621 C 0.83097 0.47537 0.79901 0.0
H622 H 0.85786 0.52762 0.7805 0.0
C623 C 0.91626 0.48452 0.73225 0.0
C624 C 0.92194 0.50155 0.69496 0.0
C625 C 0.89601 0.48201 0.75223 0.0
C626 C 0.8504 0.51294 0.78375 0.0
H627 H 0.79028 0.46862 0.00911 0.0
H628 H 0.81359 0.46471 0.91773 0.0
H629 H 0.82513 0.52583 0.83408 0.0
H630 H 0.91068 0.52861 0.64582 0.0
H631 H 0.87555 0.52406 0.67947 0.0
H632 H 0.85693 0.46247 0.75069 0.0
C633 C 0.80274 0.47711 0.91642 0.0
C634 C 0.83148 0.51192 0.81433 0.0
C635 C 0.78946 0.47941 0.96913 0.0
C636 C 0.90689 0.51554 0.67579 0.0
C637 C 0.88672 0.51294 0.69506 0.0
C638 C 0.84999 0.4764 0.76822 0.0
C639 C 0.80362 0.49201 0.86717 0.0
C640 C 0.82171 0.4931 0.82369 0.0
C641 C 0.88108 0.49641 0.73469 0.0
C642 C 0.86009 0.49517 0.76147 0.0
H643 H 0.76636 0.52361 0.92272 0.0
H644 H 0.7891 0.51926 0.82946 0.0
H645 H 0.82377 0.46065 0.80507 0.0
H646 H 0.92753 0.47343 0.74736 0.0
H647 H 0.8922 0.4692 0.78325 0.0
C648 C 0.02777 0.2103 0.96533 0.0
C649 C 0.00921 0.21735 0.9909 0.0
C650 C 0.02835 0.19231 0.92845 0.0
C651 C 1.00036 0.14464 0.92183 0.0
H652 H 0.02891 0.13328 0.76013 0.0
C653 C 0.98361 0.07384 0.76895 0.0
C654 C 0.99937 0.06436 0.73404 0.0
C655 C 0.98724 0.0917 0.80379 0.0
C656 C 0.02119 0.13613 0.80599 0.0
H657 H 0.97663 0.21244 0.99342 0.0
H658 H 0.97757 0.18131 0.92847 0.0
H659 H 0.03031 0.16758 0.80737 0.0
H660 H 0.03153 0.0657 0.71032 0.0
H661 H 0.03797 0.09697 0.77232 0.0
H662 H 0.99123 0.11343 0.92118 0.0
C663 C 0.99169 0.18935 0.93777 0.0
C664 C 0.0219 0.15578 0.83267 0.0
C665 C 0.99111 0.20722 0.97435 0.0
C666 C 0.01911 0.0726 0.73723 0.0
C667 C 0.02274 0.09062 0.77201 0.0
C668 C 0.99979 0.12507 0.89562 0.0
C669 C 0.01038 0.18121 0.91708 0.0
C670 C 0.01103 0.1603 0.88995 0.0
C671 C 0.00673 0.10057 0.80462 0.0
C672 C 0.00975 0.12068 0.83656 0.0
H673 H 0.04193 0.21778 0.97809 0.0
H674 H 0.04295 0.18637 0.91286 0.0
H675 H 0.99229 0.14758 0.96705 0.0
H676 H 0.96823 0.06788 0.7673 0.0
H677 H 0.97449 0.09906 0.82764 0.0
C678 C 0.29476 0.01549 0.93633 0.0
C679 C 0.29213 0.03114 0.98214 0.0
C680 C 0.31162 0.01556 0.89463 0.0
C681 C 0.36412 0.03584 0.89192 0.0
H682 H 0.36593 0.00768 0.72555 0.0
C683 C 0.43821 0.02079 0.74016 0.0
C684 C 0.44054 1.00023 0.72238 0.0
C685 C 0.41992 0.02763 0.76787 0.0
C686 C 0.3656 0.01567 0.77188 0.0
H687 H 0.30388 0.05997 0.01688 0.0
H688 H 0.33287 0.06063 0.94219 0.0
H689 H 0.33305 0.01541 0.77531 0.0
H690 H 0.42564 0.97067 0.72144 0.0
H691 H 0.39393 0.98265 0.76875 0.0
H692 H 0.39677 0.03591 0.88817 0.0
C693 C 0.32239 0.04792 0.93975 0.0
C694 C 0.3468 0.02003 0.80056 0.0
C695 C 0.30568 0.04769 0.98201 0.0
C696 C 0.42445 0.9866 0.73453 0.0
C697 C 0.40617 0.99347 0.76104 0.0
C698 C 0.38292 0.03172 0.86273 0.0
C699 C 0.32607 0.03142 0.89749 0.0
C700 C 0.3458 0.02963 0.86193 0.0
C701 C 0.4036 0.01407 0.77706 0.0
C702 C 0.38382 0.02106 0.80346 0.0
H703 H 0.28465 0.00244 0.93614 0.0
H704 H 0.31399 0.00248 0.86336 0.0
H705 H 0.36406 0.04298 0.9396 0.0
H706 H 0.45029 0.03168 0.73112 0.0
H707 H 0.4183 0.04358 0.7802 0.0
C708 C 0.46669 0.30214 0.97064 0.0
C709 C 0.48279 0.28805 0.97312 0.0
C710 C 0.46794 0.31925 0.93021 0.0
C711 C 0.50696 0.35332 0.87304 0.0
H712 H 0.46535 0.37753 0.76329 0.0
C713 C 0.52332 0.42435 0.71955 0.0
C714 C 0.50777 0.4386 0.70815 0.0
C715 C 0.51923 0.40611 0.75169 0.0
C716 C 0.47699 0.37114 0.79466 0.0
H717 H 0.51212 0.27998 0.93241 0.0
H718 H 0.51437 0.30999 0.86178 0.0
H719 H 0.45949 0.34404 0.81258 0.0
H720 H 0.47578 0.44516 0.72367 0.0
H721 H 0.46872 0.41342 0.78232 0.0
H722 H 0.5242 0.38044 0.85784 0.0
C723 C 0.50081 0.30777 0.8911 0.0
C724 C 0.47369 0.35189 0.82226 0.0
C725 C 0.49944 0.29052 0.9309 0.0
C726 C 0.4881 0.43449 0.73183 0.0
C727 C 0.48402 0.4162 0.76474 0.0
C728 C 0.51012 0.37261 0.84643 0.0
C729 C 0.48543 0.32267 0.89236 0.0
C730 C 0.48878 0.34272 0.86102 0.0
C731 C 0.49951 0.40167 0.7743 0.0
C732 C 0.49532 0.3817 0.80616 0.0
H733 H 0.45373 0.30054 0.00301 0.0
H734 H 0.4559 0.33052 0.9322 0.0
H735 H 0.51862 0.34684 0.90421 0.0
H736 H 0.53864 0.42693 0.70175 0.0
H737 H 0.53149 0.39522 0.75691 0.0
C738 C 0.21211 0.49402 0.93595 0.0
C739 C 0.21494 0.47796 0.98018 0.0
C740 C 0.19521 0.49418 0.89438 0.0
C741 C 0.1429 0.47349 0.89071 0.0
H742 H 0.14043 0.50315 0.7271 0.0
C743 C 0.06835 0.48868 0.74173 0.0
C744 C 0.06573 0.50926 0.72455 0.0
C745 C 0.08677 0.48201 0.769 0.0
C746 C 0.14095 0.49477 0.77269 0.0
H747 H 0.20352 0.44868 0.0121 0.0
H748 H 0.17448 0.44845 0.93756 0.0
H749 H 0.1735 0.49532 0.77547 0.0
H750 H 0.0802 0.53904 0.72452 0.0
H751 H 0.11213 0.52733 0.77121 0.0
H752 H 0.11025 0.47311 0.88765 0.0
C753 C 0.18483 0.46129 0.93629 0.0
C754 C 0.15986 0.49034 0.80055 0.0
C755 C 0.20157 0.46127 0.97842 0.0
C756 C 0.08163 0.52308 0.7371 0.0
C757 C 0.10004 0.51637 0.76325 0.0
C758 C 0.12399 0.47771 0.86234 0.0
C759 C 0.18092 0.47816 0.89583 0.0
C760 C 0.16109 0.48015 0.86091 0.0
C761 C 0.10292 0.49575 0.77845 0.0
C762 C 0.12285 0.48889 0.8041 0.0
H763 H 0.22207 0.50718 0.93705 0.0
H764 H 0.19267 0.50755 0.86448 0.0
H765 H 0.14314 0.4659 0.93768 0.0
H766 H 0.05644 0.47765 0.73237 0.0
H767 H 0.08863 0.46603 0.78067 0.0
C768 C 0.95899 0.80735 0.22326 0.0
C769 C 0.97526 0.79348 0.22349 0.0
C770 C 0.95914 0.82419 0.26494 0.0
C771 C 0.98754 0.84842 0.40334 0.0
H772 H 0.97289 0.89846 0.3139 0.0
C773 C 0.0222 0.92558 0.46938 0.0
C774 C 0.00875 0.94186 0.48083 0.0
C775 C 0.01517 0.90741 0.44246 0.0
C776 C 0.97676 0.8846 0.33981 0.0
H777 H 0.00383 0.78559 0.26965 0.0
H778 H 0.00444 0.81514 0.34143 0.0
H779 H 0.96512 0.86575 0.26344 0.0
H780 H 0.97752 0.9521 0.47013 0.0
H781 H 0.96537 0.92031 0.42049 0.0
H782 H 1.00021 0.86751 0.47793 0.0
C783 C 0.9913 0.81294 0.31027 0.0
C784 C 0.97222 0.86581 0.3112 0.0
C785 C 0.991 0.79595 0.26914 0.0
C786 C 0.98827 0.93987 0.46167 0.0
C787 C 0.98129 0.92169 0.43364 0.0
C788 C 0.9923 0.86721 0.43146 0.0
C789 C 0.97573 0.82767 0.307 0.0
C790 C 0.97797 0.84746 0.3419 0.0
C791 C 0.99461 0.90515 0.42538 0.0
C792 C 0.98736 0.88544 0.39921 0.0
H793 H 0.94663 0.80566 0.1886 0.0
H794 H 0.94665 0.83492 0.26223 0.0
H795 H 0.9918 0.83466 0.42908 0.0
H796 H 0.03806 0.92653 0.48351 0.0
H797 H 0.02582 0.895 0.43546 0.0
C798 C 0.70577 0.01014 0.22683 0.0
C799 C 0.71533 0.99217 0.20595 0.0
C800 C 0.68811 0.00928 0.26435 0.0
C801 C 0.65487 0.97904 0.36861 0.0
H802 H 0.61241 0.01112 0.28608 0.0
C803 C 0.57315 0.98555 0.4765 0.0
C804 C 0.56586 0.00565 0.47998 0.0
C805 C 0.59056 0.981 0.43958 0.0
C806 C 0.62408 0.00215 0.30995 0.0
H807 H 0.71496 0.95926 0.21212 0.0
H808 H 0.68394 0.95773 0.27942 0.0
H809 H 0.64589 0.00903 0.23562 0.0
H810 H 0.57049 0.03652 0.44536 0.0
H811 H 0.60058 0.0287 0.38162 0.0
H812 H 0.63316 0.9728 0.4444 0.0
C813 C 0.69016 0.97245 0.26618 0.0
C814 C 0.64325 0.00095 0.28104 0.0
C815 C 0.70792 0.97331 0.22813 0.0
C816 C 0.57571 0.02088 0.44369 0.0
C817 C 0.59294 0.01635 0.40677 0.0
C818 C 0.63563 0.9804 0.39808 0.0
C819 C 0.67965 0.99043 0.28198 0.0
C820 C 0.65898 0.98985 0.31087 0.0
C821 C 0.60081 0.99645 0.40507 0.0
C822 C 0.6202 0.99242 0.36983 0.0
H823 H 0.71127 0.02486 0.21059 0.0
H824 H 0.68049 0.02337 0.27701 0.0
H825 H 0.66675 0.9703 0.39231 0.0
H826 H 0.56592 0.97351 0.5043 0.0
H827 H 0.59615 0.96549 0.43877 0.0
C828 C 0.54763 0.70315 0.23573 0.0
C829 C 0.53121 0.71684 0.2342 0.0
C830 C 0.54739 0.68649 0.27814 0.0
C831 C 0.51855 0.66248 0.4158 0.0
H832 H 0.53379 0.61229 0.32845 0.0
C833 C 0.48449 0.58528 0.48492 0.0
C834 C 0.49791 0.56888 0.49488 0.0
C835 C 0.49143 0.6035 0.45807 0.0
C836 C 0.52976 0.62619 0.35385 0.0
H837 H 0.5023 0.72466 0.27818 0.0
H838 H 0.50158 0.69542 0.35144 0.0
H839 H 0.54151 0.6449 0.27726 0.0
H840 H 0.52902 0.55854 0.48199 0.0
H841 H 0.54103 0.59044 0.43274 0.0
H842 H 0.50585 0.64355 0.49074 0.0
C843 C 0.51488 0.69763 0.32098 0.0
C844 C 0.53426 0.64493 0.32478 0.0
C845 C 0.51525 0.71443 0.27903 0.0
C846 C 0.51829 0.57085 0.47466 0.0
C847 C 0.52519 0.5891 0.44681 0.0
C848 C 0.51386 0.64374 0.44445 0.0
C849 C 0.53058 0.68302 0.31927 0.0
C850 C 0.52831 0.66332 0.3547 0.0
C851 C 0.51188 0.60572 0.4397 0.0
C852 C 0.51902 0.62544 0.413 0.0
H853 H 0.56017 0.70479 0.20169 0.0
H854 H 0.55999 0.67585 0.27666 0.0
H855 H 0.51411 0.6763 0.4409 0.0
H856 H 0.4687 0.58433 0.49985 0.0
H857 H 0.48077 0.61594 0.45193 0.0
C858 C 0.79796 0.53061 0.23113 0.0
C859 C 0.79134 0.51192 0.20519 0.0
C860 C 0.816 0.53158 0.26779 0.0
C861 C 0.86445 0.50514 0.27328 0.0
H862 H 0.87451 0.5315 0.43966 0.0
C863 C 0.93434 0.48688 0.42828 0.0
C864 C 0.94336 0.50208 0.46681 0.0
C865 C 0.91678 0.49096 0.39238 0.0
C866 C 0.87203 0.52444 0.3925 0.0
H867 H 0.79712 0.47948 0.20191 0.0
H868 H 0.82839 0.48114 0.26603 0.0
H869 H 0.84039 0.5329 0.39091 0.0
H870 H 0.94155 0.53378 0.49595 0.0
H871 H 0.9108 0.54104 0.43215 0.0
H872 H 0.89583 0.49662 0.27419 0.0
C873 C 0.81995 0.49505 0.25724 0.0
C874 C 0.85249 0.52514 0.36493 0.0
C875 C 0.80201 0.49407 0.22105 0.0
C876 C 0.93501 0.5218 0.4662 0.0
C877 C 0.91728 0.52588 0.43037 0.0
C878 C 0.88392 0.50459 0.30034 0.0
C879 C 0.82759 0.51389 0.2785 0.0
C880 C 0.84843 0.51497 0.30599 0.0
C881 C 0.90775 0.51037 0.3941 0.0
C882 C 0.88783 0.51371 0.36116 0.0
H883 H 0.79007 0.54459 0.21904 0.0
H884 H 0.82156 0.54628 0.2839 0.0
H885 H 0.86184 0.4976 0.2269 0.0
H886 H 0.94039 0.47153 0.4279 0.0
H887 H 0.90974 0.47857 0.36572 0.0
loop_
_geom_bond_atom_site_label_1
_geom_bond_atom_site_label_2
_geom_bond_distance
_geom_bond_site_symmetry_2
_ccdc_geom_bond_type
H0 C3 0.929 . S
H1 C6 0.929 . S
H2 C8 0.930 . S
C3 H0 0.929 . S
C3 C4 1.398 . S
C3 C5 1.396 1_554 S
C4 C3 1.398 . S
C4 C8 1.407 . S
C5 C3 1.396 1_556 S
C5 C6 1.394 . S
C6 H1 0.929 . S
C6 C5 1.394 . S
C6 C7 1.382 1_556 S
C7 C6 1.382 1_554 S
C7 C8 1.392 . S
C7 N9 1.420 . S
C8 H2 0.930 . S
C8 C4 1.407 . S
C8 C7 1.392 . S
N9 C7 1.420 . S
N9 C10 1.244 1_554 S
C10 N9 1.244 1_556 S
H11 C14 0.929 . S
H12 C17 0.929 . S
H13 C19 0.930 . S
C14 H11 0.929 . S
C14 C15 1.398 . S
C14 C16 1.396 1_554 S
C15 C14 1.398 . S
C15 C19 1.407 . S
C16 C14 1.396 1_556 S
C16 C17 1.394 . S
C17 H12 0.929 . S
C17 C16 1.394 . S
C17 C18 1.382 1_556 S
C18 C17 1.382 1_554 S
C18 C19 1.392 . S
C18 N20 1.420 . S
C19 H13 0.930 . S
C19 C15 1.407 . S
C19 C18 1.392 . S
N20 C18 1.420 . S
N20 C21 1.244 1_554 S
C21 N20 1.244 1_556 S
H22 C25 0.929 . S
H23 C28 0.929 . S
H24 C30 0.930 . S
C25 H22 0.929 . S
C25 C26 1.398 . S
C25 C27 1.396 1_554 S
C26 C25 1.398 . S
C26 C30 1.407 . S
C27 C25 1.396 1_556 S
C27 C28 1.394 . S
C28 H23 0.929 . S
C28 C27 1.394 . S
C28 C29 1.382 1_556 S
C29 C28 1.382 1_554 S
C29 C30 1.392 . S
C29 N31 1.420 . S
C30 H24 0.930 . S
C30 C26 1.407 . S
C30 C29 1.392 . S
N31 C29 1.420 . S
N31 C32 1.244 1_554 S
C32 N31 1.244 1_556 S
H33 C36 0.929 . S
H34 C39 0.929 . S
H35 C41 0.930 . S
C36 H33 0.929 . S
C36 C37 1.398 . S
C36 C38 1.396 1_554 S
C37 C36 1.398 . S
C37 C41 1.407 . S
C38 C36 1.396 1_556 S
C38 C39 1.394 . S
C39 H34 0.929 . S
C39 C38 1.394 . S
C39 C40 1.382 1_556 S
C40 C39 1.382 1_554 S
C40 C41 1.392 . S
C40 N42 1.420 . S
C41 H35 0.930 . S
C41 C37 1.407 . S
C41 C40 1.392 . S
N42 C40 1.420 . S
N42 C43 1.244 1_554 S
C43 N42 1.244 1_556 S
H44 C47 0.929 . S
H45 C50 0.929 . S
H46 C52 0.930 . S
C47 H44 0.929 . S
C47 C48 1.398 . S
C47 C49 1.396 . S
C48 C47 1.398 . S
C48 C52 1.407 . S
C49 C47 1.396 . S
C49 C50 1.394 . S
C50 H45 0.929 . S
C50 C49 1.394 . S
C50 C51 1.382 . S
C51 C50 1.382 . S
C51 C52 1.392 . S
C51 N53 1.420 . S
C52 H46 0.930 . S
C52 C48 1.407 . S
C52 C51 1.392 . S
N53 C51 1.420 . S
N53 C54 1.244 . S
C54 N53 1.244 . S
H55 C58 0.929 . S
H56 C61 0.929 . S
H57 C63 0.930 . S
C58 H55 0.929 . S
C58 C59 1.398 . S
C58 C60 1.396 . S
C59 C58 1.398 . S
C59 C63 1.407 . S
C60 C58 1.396 . S
C60 C61 1.394 . S
C61 H56 0.929 . S
C61 C60 1.394 . S
C61 C62 1.382 . S
C62 C61 1.382 . S
C62 C63 1.392 . S
C62 N64 1.420 . S
C63 H57 0.930 . S
C63 C59 1.407 . S
C63 C62 1.392 . S
N64 C62 1.420 . S
N64 C65 1.244 . S
C65 N64 1.244 . S
H66 C69 0.929 . S
H67 C72 0.929 . S
H68 C74 0.930 . S
C69 H66 0.929 . S
C69 C70 1.398 . S
C69 C71 1.396 . S
C70 C69 1.398 . S
C70 C74 1.407 . S
C71 C69 1.396 . S
C71 C72 1.394 . S
C72 H67 0.929 . S
C72 C71 1.394 . S
C72 C73 1.382 . S
C73 C72 1.382 . S
C73 C74 1.392 . S
C73 N75 1.420 . S
C74 H68 0.930 . S
C74 C70 1.407 . S
C74 C73 1.392 . S
N75 C73 1.420 . S
N75 C76 1.244 . S
C76 N75 1.244 . S
H77 C80 0.929 . S
H78 C83 0.929 . S
H79 C85 0.930 . S
C80 H77 0.929 . S
C80 C81 1.398 . S
C80 C82 1.396 . S
C81 C80 1.398 . S
C81 C85 1.407 . S
C82 C80 1.396 . S
C82 C83 1.394 . S
C83 H78 0.929 . S
C83 C82 1.394 . S
C83 C84 1.382 . S
C84 C83 1.382 . S
C84 C85 1.392 . S
C84 N86 1.420 . S
C85 H79 0.930 . S
C85 C81 1.407 . S
C85 C84 1.392 . S
N86 C84 1.420 . S
N86 C87 1.244 . S
C87 N86 1.244 . S
Zn88 O94 1.969 1_455 S
Zn88 O95 1.965 . S
Zn88 O99 2.024 . S
Zn88 O104 1.969 1_455 S
Zn89 O96 1.969 . S
Zn89 O102 1.969 . S
Zn89 O103 1.965 1_455 S
Zn89 O105 2.024 1_455 S
C90 O91 1.229 1_455 S
C90 O99 1.058 . S
O91 C90 1.229 1_655 S
C92 O93 1.229 1_655 S
C92 O105 1.058 . S
O93 C92 1.229 1_455 S
O94 Zn88 1.969 1_655 S
O94 C97 1.267 1_655 S
O95 Zn88 1.965 . S
O95 C106 1.260 . S
O96 Zn89 1.969 . S
O96 C106 1.258 1_565 S
C97 O94 1.267 1_455 S
C97 O98 1.228 . S
O98 C97 1.228 . S
O99 Zn88 2.024 . S
O99 C90 1.058 . S
C100 O101 1.228 1_455 S
C100 O102 1.267 . S
O101 C100 1.228 1_655 S
O102 Zn89 1.969 . S
O102 C100 1.267 . S
O103 Zn89 1.965 1_655 S
O103 C107 1.260 1_565 S
O104 Zn88 1.969 1_655 S
O104 C107 1.258 . S
O105 Zn89 2.024 1_655 S
O105 C92 1.058 . S
C106 O95 1.260 . S
C106 O96 1.258 1_545 S
C107 O103 1.260 1_545 S
C107 O104 1.258 . S
Zn108 O114 1.969 1_545 S
Zn108 O115 1.965 . S
Zn108 O119 2.024 . S
Zn108 O124 1.969 1_545 S
Zn109 O116 1.969 . S
Zn109 O122 1.969 . S
Zn109 O123 1.965 1_545 S
Zn109 O125 2.024 1_545 S
C110 O111 1.229 1_545 S
C110 O119 1.058 . S
O111 C110 1.229 1_565 S
C112 O113 1.229 1_565 S
C112 O125 1.058 . S
O113 C112 1.229 1_545 S
O114 Zn108 1.969 1_565 S
O114 C117 1.267 1_565 S
O115 Zn108 1.965 . S
O115 C126 1.260 . S
O116 Zn109 1.969 . S
O116 C126 1.258 . S
C117 O114 1.267 1_545 S
C117 O118 1.228 . S
O118 C117 1.228 . S
O119 Zn108 2.024 . S
O119 C110 1.058 . S
C120 O121 1.228 1_545 S
C120 O122 1.267 . S
O121 C120 1.228 1_565 S
O122 Zn109 1.969 . S
O122 C120 1.267 . S
O123 Zn109 1.965 1_565 S
O123 C127 1.260 . S
O124 Zn108 1.969 1_565 S
O124 C127 1.258 . S
O125 Zn109 2.024 1_565 S
O125 C112 1.058 . S
C126 O115 1.260 . S
C126 O116 1.258 . S
C127 O123 1.260 . S
C127 O124 1.258 . S
Zn128 O134 1.969 . S
Zn128 O135 1.965 . S
Zn128 O139 2.024 . S
Zn128 O144 1.969 . S
Zn129 O136 1.969 . S
Zn129 O142 1.969 . S
Zn129 O143 1.965 . S
Zn129 O145 2.024 . S
C130 O131 1.229 . S
C130 O139 1.058 . S
O131 C130 1.229 . S
C132 O133 1.229 . S
C132 O145 1.058 . S
O133 C132 1.229 . S
O134 Zn128 1.969 . S
O134 C137 1.267 . S
O135 Zn128 1.965 . S
O135 C146 1.260 . S
O136 Zn129 1.969 . S
O136 C146 1.258 . S
C137 O134 1.267 . S
C137 O138 1.228 . S
O138 C137 1.228 . S
O139 Zn128 2.024 . S
O139 C130 1.058 . S
C140 O141 1.228 . S
C140 O142 1.267 . S
O141 C140 1.228 . S
O142 Zn129 1.969 . S
O142 C140 1.267 . S
O143 Zn129 1.965 . S
O143 C147 1.260 . S
O144 Zn128 1.969 . S
O144 C147 1.258 . S
O145 Zn129 2.024 . S
O145 C132 1.058 . S
C146 O135 1.260 . S
C146 O136 1.258 . S
C147 O143 1.260 . S
C147 O144 1.258 . S
Zn148 O154 1.969 . S
Zn148 O155 1.965 . S
Zn148 O159 2.024 . S
Zn148 O164 1.969 . S
Zn149 O156 1.969 . S
Zn149 O162 1.969 . S
Zn149 O163 1.965 . S
Zn149 O165 2.024 . S
C150 O151 1.229 . S
C150 O159 1.058 . S
O151 C150 1.229 . S
C152 O153 1.229 . S
C152 O165 1.058 . S
O153 C152 1.229 . S
O154 Zn148 1.969 . S
O154 C157 1.267 . S
O155 Zn148 1.965 . S
O155 C166 1.296 . S
O156 Zn149 1.969 . S
O156 C166 1.207 1_655 S
C157 O154 1.267 . S
C157 O158 1.228 . S
O158 C157 1.228 . S
O159 Zn148 2.024 . S
O159 C150 1.058 . S
C160 O161 1.228 . S
C160 O162 1.267 . S
O161 C160 1.228 . S
O162 Zn149 1.969 . S
O162 C160 1.267 . S
O163 Zn149 1.965 . S
O163 C167 1.260 1_655 S
O164 Zn148 1.969 . S
O164 C167 1.258 . S
O165 Zn149 2.024 . S
O165 C152 1.058 . S
C166 O155 1.296 . S
C166 O156 1.207 1_455 S
C167 O163 1.260 1_455 S
C167 O164 1.258 . S
C168 C169 1.349 . S
C168 C170 1.327 . S
C168 H193 0.950 . S
C169 C168 1.349 . S
C169 C185 1.349 . S
C170 C168 1.327 . S
C170 C189 1.429 . S
C170 H194 0.950 . S
C171 C188 1.574 . S
C171 C190 1.368 1_565 S
C171 H195 0.949 . S
H172 C176 0.949 . S
C173 C174 1.349 1_565 S
C173 C175 1.327 . S
C173 H196 0.950 . S
C174 C173 1.349 1_545 S
C174 C186 1.349 . S
C175 C173 1.327 . S
C175 C191 1.429 1_565 S
C175 H197 0.950 . S
C176 H172 0.949 . S
C176 C184 1.574 . S
C176 C192 1.368 . S
H177 C185 0.950 1_565 S
H178 C183 0.950 1_565 S
H179 C184 0.949 . S
H180 C186 0.950 . S
H181 C187 0.950 . S
H182 C188 0.949 . S
C183 H178 0.950 1_545 S
C183 C185 1.327 . S
C183 C189 1.429 . S
C184 C176 1.574 . S
C184 H179 0.949 . S
C184 C190 1.368 . S
C185 C169 1.349 . S
C185 H177 0.950 1_545 S
C185 C183 1.327 . S
C186 C174 1.349 . S
C186 H180 0.950 . S
C186 C187 1.327 . S
C187 H181 0.950 . S
C187 C186 1.327 . S
C187 C191 1.429 . S
C188 C171 1.574 . S
C188 H182 0.949 . S
C188 C192 1.368 1_565 S
C189 C170 1.429 . S
C189 C183 1.429 . S
C189 C190 1.523 . S
C190 C171 1.368 1_545 S
C190 C184 1.368 . S
C190 C189 1.523 . S
C191 C175 1.429 1_545 S
C191 C187 1.429 . S
C191 C192 1.523 . S
C192 C176 1.368 . S
C192 C188 1.368 1_545 S
C192 C191 1.523 . S
H193 C168 0.950 . S
H194 C170 0.950 . S
H195 C171 0.949 . S
H196 C173 0.950 . S
H197 C175 0.950 . S
C198 C199 1.349 . S
C198 C200 1.327 . S
C198 H223 0.950 . S
C199 C198 1.349 . S
C199 C215 1.349 . S
C200 C198 1.327 . S
C200 C219 1.429 . S
C200 H224 0.950 . S
C201 C218 1.574 . S
C201 C220 1.368 . S
C201 H225 0.949 . S
H202 C206 0.949 . S
C203 C204 1.349 . S
C203 C205 1.327 . S
C203 H226 0.950 . S
C204 C203 1.349 . S
C204 C216 1.349 . S
C205 C203 1.327 . S
C205 C221 1.429 . S
C205 H227 0.950 . S
C206 H202 0.949 . S
C206 C214 1.574 . S
C206 C222 1.368 . S
H207 C215 0.950 . S
H208 C213 0.950 . S
H209 C214 0.949 . S
H210 C216 0.950 . S
H211 C217 0.950 . S
H212 C218 0.949 . S
C213 H208 0.950 . S
C213 C215 1.327 . S
C213 C219 1.429 . S
C214 C206 1.574 . S
C214 H209 0.949 . S
C214 C220 1.368 . S
C215 C199 1.349 . S
C215 H207 0.950 . S
C215 C213 1.327 . S
C216 C204 1.349 . S
C216 H210 0.950 . S
C216 C217 1.327 . S
C217 H211 0.950 . S
C217 C216 1.327 . S
C217 C221 1.429 . S
C218 C201 1.574 . S
C218 H212 0.949 . S
C218 C222 1.368 . S
C219 C200 1.429 . S
C219 C213 1.429 . S
C219 C220 1.523 . S
C220 C201 1.368 . S
C220 C214 1.368 . S
C220 C219 1.523 . S
C221 C205 1.429 . S
C221 C217 1.429 . S
C221 C222 1.523 . S
C222 C206 1.368 . S
C222 C218 1.368 . S
C222 C221 1.523 . S
H223 C198 0.950 . S
H224 C200 0.950 . S
H225 C201 0.949 . S
H226 C203 0.950 . S
H227 C205 0.950 . S
C228 C229 1.349 . S
C228 C230 1.327 . S
C228 H253 0.950 . S
C229 C228 1.349 . S
C229 C245 1.349 . S
C230 C228 1.327 . S
C230 C249 1.429 . S
C230 H254 0.950 . S
C231 C248 1.574 . S
C231 C250 1.368 . S
C231 H255 0.949 . S
H232 C236 0.949 . S
C233 C234 1.349 . S
C233 C235 1.327 . S
C233 H256 0.950 . S
C234 C233 1.349 . S
C234 C246 1.349 . S
C235 C233 1.327 . S
C235 C251 1.429 . S
C235 H257 0.950 . S
C236 H232 0.949 . S
C236 C244 1.574 . S
C236 C252 1.368 . S
H237 C245 0.950 . S
H238 C243 0.950 . S
H239 C244 0.949 . S
H240 C246 0.950 . S
H241 C247 0.950 . S
H242 C248 0.949 . S
C243 H238 0.950 . S
C243 C245 1.327 . S
C243 C249 1.429 . S
C244 C236 1.574 . S
C244 H239 0.949 . S
C244 C250 1.368 . S
C245 C229 1.349 . S
C245 H237 0.950 . S
C245 C243 1.327 . S
C246 C234 1.349 . S
C246 H240 0.950 . S
C246 C247 1.327 . S
C247 H241 0.950 . S
C247 C246 1.327 . S
C247 C251 1.429 . S
C248 C231 1.574 . S
C248 H242 0.949 . S
C248 C252 1.368 . S
C249 C230 1.429 . S
C249 C243 1.429 . S
C249 C250 1.523 . S
C250 C231 1.368 . S
C250 C244 1.368 . S
C250 C249 1.523 . S
C251 C235 1.429 . S
C251 C247 1.429 . S
C251 C252 1.523 . S
C252 C236 1.368 . S
C252 C248 1.368 . S
C252 C251 1.523 . S
H253 C228 0.950 . S
H254 C230 0.950 . S
H255 C231 0.949 . S
H256 C233 0.950 . S
H257 C235 0.950 . S
C258 C259 1.349 . S
C258 C260 1.327 . S
C258 H283 0.950 . S
C259 C258 1.349 . S
C259 C275 1.349 . S
C260 C258 1.327 . S
C260 C279 1.429 . S
C260 H284 0.950 . S
C261 C278 1.569 1_455 S
C261 C280 1.368 . S
C261 H285 0.949 1_455 S
H262 C266 0.949 . S
C263 C264 1.349 1_655 S
C263 C265 1.327 . S
C263 H286 0.950 . S
C264 C263 1.349 1_455 S
C264 C276 1.349 . S
C265 C263 1.327 . S
C265 C281 1.429 1_655 S
C265 H287 0.950 . S
C266 H262 0.949 . S
C266 C274 1.574 . S
C266 C282 1.368 . S
H267 C275 0.974 . S
H268 C273 0.950 1_655 S
H269 C274 0.949 . S
H270 C276 0.950 . S
H271 C277 0.950 . S
H272 C278 0.987 . S
C273 H268 0.950 1_455 S
C273 C275 1.327 . S
C273 C279 1.429 . S
C274 C266 1.574 . S
C274 H269 0.949 . S
C274 C280 1.368 . S
C275 C259 1.349 . S
C275 H267 0.974 . S
C275 C273 1.327 . S
C276 C264 1.349 . S
C276 H270 0.950 . S
C276 C277 1.327 . S
C277 H271 0.950 . S
C277 C276 1.327 . S
C277 C281 1.429 . S
C278 C261 1.569 1_655 S
C278 H272 0.987 . S
C278 C282 1.334 1_655 S
C279 C260 1.429 . S
C279 C273 1.429 . S
C279 C280 1.523 . S
C280 C261 1.368 . S
C280 C274 1.368 . S
C280 C279 1.523 . S
C281 C265 1.429 1_455 S
C281 C277 1.429 . S
C281 C282 1.523 . S
C282 C266 1.368 . S
C282 C278 1.334 1_455 S
C282 C281 1.523 . S
H283 C258 0.950 . S
H284 C260 0.950 . S
H285 C261 0.949 1_655 S
H286 C263 0.950 . S
H287 C265 0.950 . S
C288 C289 1.349 . S
C288 C290 1.327 . S
C288 H313 0.950 . S
C289 C288 1.349 . S
C289 C305 1.349 . S
C290 C288 1.327 . S
C290 C309 1.429 . S
C290 H314 0.950 . S
C291 C308 1.574 . S
C291 C310 1.368 1_545 S
C291 H315 0.949 . S
H292 C296 0.949 . S
C293 C294 1.349 1_545 S
C293 C295 1.327 . S
C293 H316 0.950 . S
C294 C293 1.349 1_565 S
C294 C306 1.349 . S
C295 C293 1.327 . S
C295 C311 1.429 1_545 S
C295 H317 0.950 . S
C296 H292 0.949 . S
C296 C304 1.574 . S
C296 C312 1.368 . S
H297 C305 0.950 1_544 S
H298 C303 0.942 1_545 S
H299 C304 0.949 . S
H300 C306 0.950 . S
H301 C307 0.950 . S
H302 C308 0.949 . S
C303 H298 0.942 1_565 S
C303 C305 1.328 . S
C303 C309 1.434 . S
C304 C296 1.574 . S
C304 H299 0.949 . S
C304 C310 1.368 . S
C305 C289 1.349 . S
C305 H297 0.950 1_566 S
C305 C303 1.328 . S
C306 C294 1.349 . S
C306 H300 0.950 . S
C306 C307 1.327 . S
C307 H301 0.950 . S
C307 C306 1.327 . S
C307 C311 1.429 . S
C308 C291 1.574 . S
C308 H302 0.949 . S
C308 C312 1.368 1_545 S
C309 C290 1.429 . S
C309 C303 1.434 . S
C309 C310 1.523 . S
C310 C291 1.368 1_565 S
C310 C304 1.368 . S
C310 C309 1.523 . S
C311 C295 1.429 1_565 S
C311 C307 1.429 . S
C311 C312 1.523 . S
C312 C296 1.368 . S
C312 C308 1.368 1_565 S
C312 C311 1.523 . S
H313 C288 0.950 . S
H314 C290 0.950 . S
H315 C291 0.949 . S
H316 C293 0.950 . S
H317 C295 0.950 . S
C318 C319 1.349 . S
C318 C320 1.327 . S
C318 H343 0.950 . S
C319 C318 1.349 . S
C319 C335 1.349 . S
C320 C318 1.327 . S
C320 C339 1.429 . S
C320 H344 0.950 . S
C321 C338 1.574 . S
C321 C340 1.368 . S
C321 H345 0.949 . S
H322 C326 0.949 . S
C323 C324 1.349 . S
C323 C325 1.327 . S
C323 H346 0.950 . S
C324 C323 1.349 . S
C324 C336 1.349 . S
C325 C323 1.327 . S
C325 C341 1.429 . S
C325 H347 0.950 . S
C326 H322 0.949 . S
C326 C334 1.574 . S
C326 C342 1.368 . S
H327 C335 0.950 1_554 S
H328 C333 0.950 . S
H329 C334 0.949 . S
H330 C336 0.950 . S
H331 C337 0.950 . S
H332 C338 0.949 . S
C333 H328 0.950 . S
C333 C335 1.327 . S
C333 C339 1.429 . S
C334 C326 1.574 . S
C334 H329 0.949 . S
C334 C340 1.368 . S
C335 C319 1.349 . S
C335 H327 0.950 1_556 S
C335 C333 1.327 . S
C336 C324 1.349 . S
C336 H330 0.950 . S
C336 C337 1.327 . S
C337 H331 0.950 . S
C337 C336 1.327 . S
C337 C341 1.429 . S
C338 C321 1.574 . S
C338 H332 0.949 . S
C338 C342 1.368 . S
C339 C320 1.429 . S
C339 C333 1.429 . S
C339 C340 1.523 . S
C340 C321 1.368 . S
C340 C334 1.368 . S
C340 C339 1.523 . S
C341 C325 1.429 . S
C341 C337 1.429 . S
C341 C342 1.523 . S
C342 C326 1.368 . S
C342 C338 1.368 . S
C342 C341 1.523 . S
H343 C318 0.950 . S
H344 C320 0.950 . S
H345 C321 0.949 . S
H346 C323 0.950 . S
H347 C325 0.950 . S
C348 C349 1.349 . S
C348 C350 1.327 . S
C348 H373 0.950 1_556 S
C349 C348 1.349 . S
C349 C365 1.349 . S
C350 C348 1.327 . S
C350 C369 1.429 . S
C350 H374 0.950 . S
C351 C368 1.574 . S
C351 C370 1.368 . S
C351 H375 0.949 . S
H352 C356 0.949 . S
C353 C354 1.349 . S
C353 C355 1.327 . S
C353 H376 0.950 . S
C354 C353 1.349 . S
C354 C366 1.349 . S
C355 C353 1.327 . S
C355 C371 1.429 . S
C355 H377 0.950 . S
C356 H352 0.949 . S
C356 C364 1.574 . S
C356 C372 1.368 . S
H357 C365 0.950 . S
H358 C363 0.950 . S
H359 C364 0.949 . S
H360 C366 0.950 . S
H361 C367 0.950 . S
H362 C368 0.949 . S
C363 H358 0.950 . S
C363 C365 1.327 . S
C363 C369 1.429 . S
C364 C356 1.574 . S
C364 H359 0.949 . S
C364 C370 1.368 . S
C365 C349 1.349 . S
C365 H357 0.950 . S
C365 C363 1.327 . S
C366 C354 1.349 . S
C366 H360 0.950 . S
C366 C367 1.327 . S
C367 H361 0.950 . S
C367 C366 1.327 . S
C367 C371 1.429 . S
C368 C351 1.574 . S
C368 H362 0.949 . S
C368 C372 1.368 . S
C369 C350 1.429 . S
C369 C363 1.429 . S
C369 C370 1.523 . S
C370 C351 1.368 . S
C370 C364 1.368 . S
C370 C369 1.523 . S
C371 C355 1.429 . S
C371 C367 1.429 . S
C371 C372 1.523 . S
C372 C356 1.368 . S
C372 C368 1.368 . S
C372 C371 1.523 . S
H373 C348 0.950 1_554 S
H374 C350 0.950 . S
H375 C351 0.949 . S
H376 C353 0.950 . S
H377 C355 0.950 . S
C378 C379 1.349 . S
C378 C380 1.327 . S
C378 H403 0.950 1_556 S
C379 C378 1.349 . S
C379 C395 1.349 . S
C380 C378 1.327 . S
C380 C399 1.429 . S
C380 H404 0.950 . S
C381 C398 1.573 1_655 S
C381 C400 1.368 . S
C381 H405 0.949 1_655 S
H382 C386 0.949 . S
C383 C384 1.349 1_455 S
C383 C385 1.327 . S
C383 H406 0.950 . S
C384 C383 1.349 1_655 S
C384 C396 1.349 . S
C385 C383 1.327 . S
C385 C401 1.429 1_455 S
C385 H407 0.950 . S
C386 H382 0.949 . S
C386 C394 1.574 . S
C386 C402 1.368 . S
H387 C395 0.950 . S
H388 C393 0.961 . S
H389 C394 0.949 . S
H390 C396 0.950 . S
H391 C397 0.950 . S
H392 C398 0.951 . S
C393 H388 0.961 . S
C393 C395 1.327 . S
C393 C399 1.429 . S
C394 C386 1.574 . S
C394 H389 0.949 . S
C394 C400 1.368 . S
C395 C379 1.349 . S
C395 H387 0.950 . S
C395 C393 1.327 . S
C396 C384 1.349 . S
C396 H390 0.950 . S
C396 C397 1.327 . S
C397 H391 0.950 . S
C397 C396 1.327 . S
C397 C401 1.429 . S
C398 C381 1.573 1_455 S
C398 H392 0.951 . S
C398 C402 1.367 1_455 S
C399 C380 1.429 . S
C399 C393 1.429 . S
C399 C400 1.523 . S
C400 C381 1.368 . S
C400 C394 1.368 . S
C400 C399 1.523 . S
C401 C385 1.429 1_655 S
C401 C397 1.429 . S
C401 C402 1.523 . S
C402 C386 1.368 . S
C402 C398 1.367 1_655 S
C402 C401 1.523 . S
H403 C378 0.950 1_554 S
H404 C380 0.950 . S
H405 C381 0.949 1_455 S
H406 C383 0.950 . S
H407 C385 0.950 . S
C408 C409 1.349 . S
C408 C410 1.327 . S
C408 H433 0.950 . S
C409 C408 1.349 . S
C409 C425 1.349 . S
C410 C408 1.327 . S
C410 C429 1.429 . S
C410 H434 0.950 . S
C411 C428 1.574 . S
C411 C430 1.368 . S
C411 H435 0.949 . S
H412 C416 0.949 . S
C413 C414 1.349 . S
C413 C415 1.327 . S
C413 H436 0.950 . S
C414 C413 1.349 . S
C414 C426 1.349 1_655 S
C415 C413 1.327 . S
C415 C431 1.429 1_655 S
C415 H437 0.950 . S
C416 H412 0.949 . S
C416 C424 1.574 . S
C416 C432 1.368 . S
H417 C425 0.950 . S
H418 C423 0.950 . S
H419 C424 0.949 . S
H420 C426 0.950 . S
H421 C427 0.950 . S
H422 C428 0.962 . S
C423 H418 0.950 . S
C423 C425 1.327 . S
C423 C429 1.429 . S
C424 C416 1.574 . S
C424 H419 0.949 . S
C424 C430 1.368 . S
C425 C409 1.349 . S
C425 H417 0.950 . S
C425 C423 1.327 . S
C426 C414 1.349 1_455 S
C426 H420 0.950 . S
C426 C427 1.327 . S
C427 H421 0.950 . S
C427 C426 1.327 . S
C427 C431 1.429 . S
C428 C411 1.574 . S
C428 H422 0.962 . S
C428 C432 1.368 . S
C429 C410 1.429 . S
C429 C423 1.429 . S
C429 C430 1.523 . S
C430 C411 1.368 . S
C430 C424 1.368 . S
C430 C429 1.523 . S
C431 C415 1.429 1_455 S
C431 C427 1.429 . S
C431 C432 1.523 . S
C432 C416 1.368 . S
C432 C428 1.368 . S
C432 C431 1.523 . S
H433 C408 0.950 . S
H434 C410 0.950 . S
H435 C411 0.949 . S
H436 C413 0.950 . S
H437 C415 0.950 . S
C438 C439 1.349 . S
C438 C440 1.327 . S
C438 H463 0.950 . S
C439 C438 1.349 . S
C439 C455 1.349 . S
C440 C438 1.327 . S
C440 C459 1.429 . S
C440 H464 0.950 . S
C441 C458 1.575 . S
C441 C460 1.368 . S
C441 H465 0.949 1_545 S
H442 C446 0.949 . S
C443 C444 1.356 . S
C443 C445 1.327 . S
C443 H466 0.950 . S
C444 C443 1.356 . S
C444 C456 1.339 1_565 S
C445 C443 1.327 . S
C445 C461 1.429 1_565 S
C445 H467 0.950 . S
C446 H442 0.949 . S
C446 C454 1.574 . S
C446 C462 1.368 . S
H447 C455 0.950 . S
H448 C453 0.950 . S
H449 C454 0.949 . S
H450 C456 0.950 . S
H451 C457 0.950 . S
H452 C458 0.944 1_565 S
C453 H448 0.950 . S
C453 C455 1.327 . S
C453 C459 1.429 . S
C454 C446 1.574 . S
C454 H449 0.949 . S
C454 C460 1.368 . S
C455 C439 1.349 . S
C455 H447 0.950 . S
C455 C453 1.327 . S
C456 C444 1.339 1_545 S
C456 H450 0.950 . S
C456 C457 1.327 . S
C457 H451 0.950 . S
C457 C456 1.327 . S
C457 C461 1.429 . S
C458 C441 1.575 . S
C458 H452 0.944 1_545 S
C458 C462 1.372 . S
C459 C440 1.429 . S
C459 C453 1.429 . S
C459 C460 1.523 . S
C460 C441 1.368 . S
C460 C454 1.368 . S
C460 C459 1.523 . S
C461 C445 1.429 1_545 S
C461 C457 1.429 . S
C461 C462 1.523 . S
C462 C446 1.368 . S
C462 C458 1.372 . S
C462 C461 1.523 . S
H463 C438 0.950 . S
H464 C440 0.950 . S
H465 C441 0.949 1_565 S
H466 C443 0.950 . S
H467 C445 0.950 . S
C468 C469 1.349 . S
C468 C470 1.327 . S
C468 H493 0.950 . S
C469 C468 1.349 . S
C469 C485 1.349 . S
C470 C468 1.327 . S
C470 C489 1.429 . S
C470 H494 0.950 . S
C471 C488 1.574 . S
C471 C490 1.368 . S
C471 H495 0.949 . S
H472 C476 0.949 . S
C473 C474 1.349 . S
C473 C475 1.327 . S
C473 H496 0.950 . S
C474 C473 1.349 . S
C474 C486 1.349 . S
C475 C473 1.327 . S
C475 C491 1.429 . S
C475 H497 0.950 . S
C476 H472 0.949 . S
C476 C484 1.574 . S
C476 C492 1.368 . S
H477 C485 0.950 . S
H478 C483 0.950 . S
H479 C484 0.949 . S
H480 C486 0.950 . S
H481 C487 0.950 . S
H482 C488 0.949 . S
C483 H478 0.950 . S
C483 C485 1.327 . S
C483 C489 1.429 . S
C484 C476 1.574 . S
C484 H479 0.949 . S
C484 C490 1.368 . S
C485 C469 1.349 . S
C485 H477 0.950 . S
C485 C483 1.327 . S
C486 C474 1.349 . S
C486 H480 0.950 . S
C486 C487 1.327 . S
C487 H481 0.950 . S
C487 C486 1.327 . S
C487 C491 1.429 . S
C488 C471 1.574 . S
C488 H482 0.949 . S
C488 C492 1.368 . S
C489 C470 1.429 . S
C489 C483 1.429 . S
C489 C490 1.523 . S
C490 C471 1.368 . S
C490 C484 1.368 . S
C490 C489 1.523 . S
C491 C475 1.429 . S
C491 C487 1.429 . S
C491 C492 1.523 . S
C492 C476 1.368 . S
C492 C488 1.368 . S
C492 C491 1.523 . S
H493 C468 0.950 . S
H494 C470 0.950 . S
H495 C471 0.949 . S
H496 C473 0.950 . S
H497 C475 0.950 . S
C498 C499 1.349 . S
C498 C500 1.327 . S
C498 H523 0.950 . S
C499 C498 1.349 . S
C499 C515 1.349 . S
C500 C498 1.327 . S
C500 C519 1.429 . S
C500 H524 0.950 . S
C501 C518 1.574 . S
C501 C520 1.368 . S
C501 H525 0.949 . S
H502 C506 0.949 . S
C503 C504 1.349 . S
C503 C505 1.327 . S
C503 H526 0.950 . S
C504 C503 1.349 . S
C504 C516 1.349 . S
C505 C503 1.327 . S
C505 C521 1.429 . S
C505 H527 0.950 . S
C506 H502 0.949 . S
C506 C514 1.574 . S
C506 C522 1.368 . S
H507 C515 0.950 . S
H508 C513 0.950 . S
H509 C514 0.949 . S
H510 C516 0.950 . S
H511 C517 0.950 . S
H512 C518 0.949 . S
C513 H508 0.950 . S
C513 C515 1.327 . S
C513 C519 1.429 . S
C514 C506 1.574 . S
C514 H509 0.949 . S
C514 C520 1.368 . S
C515 C499 1.349 . S
C515 H507 0.950 . S
C515 C513 1.327 . S
C516 C504 1.349 . S
C516 H510 0.950 . S
C516 C517 1.327 . S
C517 H511 0.950 . S
C517 C516 1.327 . S
C517 C521 1.429 . S
C518 C501 1.574 . S
C518 H512 0.949 . S
C518 C522 1.368 . S
C519 C500 1.429 . S
C519 C513 1.429 . S
C519 C520 1.523 . S
C520 C501 1.368 . S
C520 C514 1.368 . S
C520 C519 1.523 . S
C521 C505 1.429 . S
C521 C517 1.429 . S
C521 C522 1.523 . S
C522 C506 1.368 . S
C522 C518 1.368 . S
C522 C521 1.523 . S
H523 C498 0.950 . S
H524 C500 0.950 . S
H525 C501 0.949 . S
H526 C503 0.950 . S
H527 C505 0.950 . S
C528 C529 1.349 . S
C528 C530 1.327 . S
C528 H553 0.950 . S
C529 C528 1.349 . S
C529 C545 1.349 . S
C530 C528 1.327 . S
C530 C549 1.429 . S
C530 H554 0.950 . S
C531 C548 1.574 . S
C531 C550 1.368 1_455 S
C531 H555 0.949 . S
H532 C536 0.949 . S
C533 C534 1.349 . S
C533 C535 1.327 . S
C533 H556 0.950 . S
C534 C533 1.349 . S
C534 C546 1.349 1_455 S
C535 C533 1.327 . S
C535 C551 1.394 1_455 S
C535 H557 0.950 . S
C536 H532 0.949 . S
C536 C544 1.574 . S
C536 C552 1.368 . S
H537 C545 0.950 1_454 S
H538 C543 0.935 1_455 S
H539 C544 0.949 . S
H540 C546 0.950 . S
H541 C547 0.950 . S
H542 C548 0.949 . S
C543 H538 0.935 1_655 S
C543 C545 1.330 . S
C543 C549 1.440 . S
C544 C536 1.574 . S
C544 H539 0.949 . S
C544 C550 1.368 . S
C545 C529 1.349 . S
C545 H537 0.950 1_656 S
C545 C543 1.330 . S
C546 C534 1.349 1_655 S
C546 H540 0.950 . S
C546 C547 1.327 . S
C547 H541 0.950 . S
C547 C546 1.327 . S
C547 C551 1.456 . S
C548 C531 1.574 . S
C548 H542 0.949 . S
C548 C552 1.368 1_455 S
C549 C530 1.429 . S
C549 C543 1.440 . S
C549 C550 1.523 . S
C550 C531 1.368 1_655 S
C550 C544 1.368 . S
C550 C549 1.523 . S
C551 C535 1.394 1_655 S
C551 C547 1.456 . S
C551 C552 1.530 . S
C552 C536 1.368 . S
C552 C548 1.368 1_655 S
C552 C551 1.530 . S
H553 C528 0.950 . S
H554 C530 0.950 . S
H555 C531 0.949 . S
H556 C533 0.950 . S
H557 C535 0.950 . S
C558 C559 1.349 . S
C558 C560 1.327 . S
C558 H583 0.950 . S
C559 C558 1.349 . S
C559 C575 1.392 . S
C560 C558 1.327 . S
C560 C579 1.429 . S
C560 H584 0.950 . S
C561 C578 1.574 . S
C561 C580 1.368 1_545 S
C561 H585 0.949 . S
H562 C566 0.949 . S
C563 C564 1.349 . S
C563 C565 1.327 . S
C563 H586 0.950 . S
C564 C563 1.349 . S
C564 C576 1.349 1_545 S
C565 C563 1.327 . S
C565 C581 1.456 . S
C565 H587 0.950 . S
C566 H562 0.949 . S
C566 C574 1.574 . S
C566 C582 1.368 . S
H567 C575 0.916 1_545 S
H568 C573 0.950 . S
H569 C574 0.949 . S
H570 C576 0.950 . S
H571 C577 0.950 . S
H572 C578 0.949 . S
C573 H568 0.950 . S
C573 C575 1.320 1_545 S
C573 C579 1.429 1_545 S
C574 C566 1.574 . S
C574 H569 0.949 . S
C574 C580 1.368 . S
C575 C559 1.392 . S
C575 H567 0.916 1_565 S
C575 C573 1.320 1_565 S
C576 C564 1.349 1_565 S
C576 H570 0.950 . S
C576 C577 1.327 . S
C577 H571 0.950 . S
C577 C576 1.327 . S
C577 C581 1.407 1_565 S
C578 C561 1.574 . S
C578 H572 0.949 . S
C578 C582 1.368 1_545 S
C579 C560 1.429 . S
C579 C573 1.429 1_565 S
C579 C580 1.523 . S
C580 C561 1.368 1_565 S
C580 C574 1.368 . S
C580 C579 1.523 . S
C581 C565 1.456 . S
C581 C577 1.407 1_545 S
C581 C582 1.518 1_545 S
C582 C566 1.368 . S
C582 C578 1.368 1_565 S
C582 C581 1.518 1_565 S
H583 C558 0.950 . S
H584 C560 0.950 . S
H585 C561 0.949 . S
H586 C563 0.950 . S
H587 C565 0.950 . S
C588 C589 1.349 . S
C588 C590 1.327 . S
C588 H613 0.950 . S
C589 C588 1.349 . S
C589 C605 1.349 . S
C590 C588 1.327 . S
C590 C609 1.429 . S
C590 H614 0.950 . S
C591 C608 1.574 . S
C591 C610 1.368 . S
C591 H615 0.949 . S
H592 C596 0.949 . S
C593 C594 1.349 . S
C593 C595 1.327 . S
C593 H616 0.950 . S
C594 C593 1.349 . S
C594 C606 1.349 . S
C595 C593 1.327 . S
C595 C611 1.429 . S
C595 H617 0.950 . S
C596 H592 0.949 . S
C596 C604 1.574 . S
C596 C612 1.368 . S
H597 C605 0.950 1_554 S
H598 C603 0.950 . S
H599 C604 0.949 . S
H600 C606 0.950 . S
H601 C607 0.950 . S
H602 C608 0.949 . S
C603 H598 0.950 . S
C603 C605 1.327 . S
C603 C609 1.429 . S
C604 C596 1.574 . S
C604 H599 0.949 . S
C604 C610 1.368 . S
C605 C589 1.349 . S
C605 H597 0.950 1_556 S
C605 C603 1.327 . S
C606 C594 1.349 . S
C606 H600 0.950 . S
C606 C607 1.327 . S
C607 H601 0.950 . S
C607 C606 1.327 . S
C607 C611 1.429 . S
C608 C591 1.574 . S
C608 H602 0.949 . S
C608 C612 1.368 . S
C609 C590 1.429 . S
C609 C603 1.429 . S
C609 C610 1.523 . S
C610 C591 1.368 . S
C610 C604 1.368 . S
C610 C609 1.523 . S
C611 C595 1.429 . S
C611 C607 1.429 . S
C611 C612 1.523 . S
C612 C596 1.368 . S
C612 C608 1.368 . S
C612 C611 1.523 . S
H613 C588 0.950 . S
H614 C590 0.950 . S
H615 C591 0.949 . S
H616 C593 0.950 . S
H617 C595 0.950 . S
C618 C619 1.349 . S
C618 C620 1.327 . S
C618 H643 0.950 1_556 S
C619 C618 1.349 . S
C619 C635 1.349 . S
C620 C618 1.327 . S
C620 C639 1.429 . S
C620 H644 0.950 . S
C621 C638 1.574 . S
C621 C640 1.368 . S
C621 H645 0.949 . S
H622 C626 0.949 . S
C623 C624 1.349 . S
C623 C625 1.327 . S
C623 H646 0.950 . S
C624 C623 1.349 . S
C624 C636 1.349 . S
C625 C623 1.327 . S
C625 C641 1.429 . S
C625 H647 0.950 . S
C626 H622 0.949 . S
C626 C634 1.574 . S
C626 C642 1.368 . S
H627 C635 0.950 . S
H628 C633 0.950 . S
H629 C634 0.949 . S
H630 C636 0.950 . S
H631 C637 0.950 . S
H632 C638 0.949 . S
C633 H628 0.950 . S
C633 C635 1.327 . S
C633 C639 1.429 . S
C634 C626 1.574 . S
C634 H629 0.949 . S
C634 C640 1.368 . S
C635 C619 1.349 . S
C635 H627 0.950 . S
C635 C633 1.327 . S
C636 C624 1.349 . S
C636 H630 0.950 . S
C636 C637 1.327 . S
C637 H631 0.950 . S
C637 C636 1.327 . S
C637 C641 1.429 . S
C638 C621 1.574 . S
C638 H632 0.949 . S
C638 C642 1.368 . S
C639 C620 1.429 . S
C639 C633 1.429 . S
C639 C640 1.523 . S
C640 C621 1.368 . S
C640 C634 1.368 . S
C640 C639 1.523 . S
C641 C625 1.429 . S
C641 C637 1.429 . S
C641 C642 1.523 . S
C642 C626 1.368 . S
C642 C638 1.368 . S
C642 C641 1.523 . S
H643 C618 0.950 1_554 S
H644 C620 0.950 . S
H645 C621 0.949 . S
H646 C623 0.950 . S
H647 C625 0.950 . S
C648 C649 1.349 1_556 S
C648 C650 1.327 . S
C648 H673 0.950 . S
C649 C648 1.349 1_554 S
C649 C665 1.349 . S
C650 C648 1.327 . S
C650 C669 1.429 . S
C650 H674 0.950 . S
C651 C668 1.574 . S
C651 C670 1.368 . S
C651 H675 0.940 1_556 S
H652 C656 0.949 . S
C653 C654 1.349 . S
C653 C655 1.327 . S
C653 H676 0.950 1_455 S
C654 C653 1.349 . S
C654 C666 1.349 . S
C655 C653 1.327 . S
C655 C671 1.429 . S
C655 H677 0.950 1_455 S
C656 H652 0.949 . S
C656 C664 1.574 . S
C656 C672 1.368 . S
H657 C665 0.950 . S
H658 C663 0.950 . S
H659 C664 0.949 . S
H660 C666 0.950 . S
H661 C667 0.950 . S
H662 C668 0.952 . S
C663 H658 0.950 . S
C663 C665 1.327 . S
C663 C669 1.429 1_554 S
C664 C656 1.574 . S
C664 H659 0.949 . S
C664 C670 1.368 . S
C665 C649 1.349 . S
C665 H657 0.950 . S
C665 C663 1.327 . S
C666 C654 1.349 . S
C666 H660 0.950 . S
C666 C667 1.327 . S
C667 H661 0.950 . S
C667 C666 1.327 . S
C667 C671 1.429 . S
C668 C651 1.574 . S
C668 H662 0.952 . S
C668 C672 1.368 . S
C669 C650 1.429 . S
C669 C663 1.429 1_556 S
C669 C670 1.523 . S
C670 C651 1.368 . S
C670 C664 1.368 . S
C670 C669 1.523 . S
C671 C655 1.429 . S
C671 C667 1.429 . S
C671 C672 1.523 . S
C672 C656 1.368 . S
C672 C668 1.368 . S
C672 C671 1.523 . S
H673 C648 0.950 . S
H674 C650 0.950 . S
H675 C651 0.940 1_554 S
H676 C653 0.950 1_655 S
H677 C655 0.950 1_655 S
C678 C679 1.349 1_556 S
C678 C680 1.327 . S
C678 H703 0.950 1_545 S
C679 C678 1.349 1_554 S
C679 C695 1.349 . S
C680 C678 1.327 . S
C680 C699 1.429 . S
C680 H704 0.950 1_545 S
C681 C698 1.574 . S
C681 C700 1.368 . S
C681 H705 0.949 . S
H682 C686 0.949 1_565 S
C683 C684 1.349 . S
C683 C685 1.327 . S
C683 H706 0.950 . S
C684 C683 1.349 . S
C684 C696 1.391 . S
C685 C683 1.327 . S
C685 C701 1.429 . S
C685 H707 0.950 . S
C686 H682 0.949 1_545 S
C686 C694 1.574 . S
C686 C702 1.368 . S
H687 C695 0.950 . S
H688 C693 0.950 . S
H689 C694 0.949 1_565 S
H690 C696 0.906 1_565 S
H691 C697 0.950 1_565 S
H692 C698 0.949 . S
C693 H688 0.950 . S
C693 C695 1.327 . S
C693 C699 1.429 1_554 S
C694 C686 1.574 . S
C694 H689 0.949 1_545 S
C694 C700 1.368 . S
C695 C679 1.349 . S
C695 H687 0.950 . S
C695 C693 1.327 . S
C696 C684 1.391 . S
C696 H690 0.906 1_545 S
C696 C697 1.330 . S
C697 H691 0.950 1_545 S
C697 C696 1.330 . S
C697 C701 1.429 . S
C698 C681 1.574 . S
C698 H692 0.949 . S
C698 C702 1.368 . S
C699 C680 1.429 . S
C699 C693 1.429 1_556 S
C699 C700 1.523 . S
C700 C681 1.368 . S
C700 C694 1.368 . S
C700 C699 1.523 . S
C701 C685 1.429 . S
C701 C697 1.429 . S
C701 C702 1.523 . S
C702 C686 1.368 . S
C702 C698 1.368 . S
C702 C701 1.523 . S
H703 C678 0.950 1_565 S
H704 C680 0.950 1_565 S
H705 C681 0.949 . S
H706 C683 0.950 . S
H707 C685 0.950 . S
C708 C709 1.357 . S
C708 C710 1.320 1_554 S
C708 H733 0.949 1_554 S
C709 C708 1.357 . S
C709 C725 1.349 . S
C710 C708 1.320 1_556 S
C710 C729 1.429 . S
C710 H734 0.950 . S
C711 C728 1.574 . S
C711 C730 1.368 . S
C711 H735 0.949 . S
H712 C716 0.949 . S
C713 C714 1.349 . S
C713 C715 1.327 . S
C713 H736 0.950 . S
C714 C713 1.349 . S
C714 C726 1.349 . S
C715 C713 1.327 . S
C715 C731 1.429 . S
C715 H737 0.950 . S
C716 H712 0.949 . S
C716 C724 1.574 . S
C716 C732 1.368 . S
H717 C725 0.950 . S
H718 C723 0.950 . S
H719 C724 0.949 . S
H720 C726 0.950 . S
H721 C727 0.950 . S
H722 C728 0.949 . S
C723 H718 0.950 . S
C723 C725 1.327 . S
C723 C729 1.429 1_554 S
C724 C716 1.574 . S
C724 H719 0.949 . S
C724 C730 1.368 . S
C725 C709 1.349 . S
C725 H717 0.950 . S
C725 C723 1.327 . S
C726 C714 1.349 . S
C726 H720 0.950 . S
C726 C727 1.327 . S
C727 H721 0.950 . S
C727 C726 1.327 . S
C727 C731 1.429 . S
C728 C711 1.574 . S
C728 H722 0.949 . S
C728 C732 1.368 . S
C729 C710 1.429 . S
C729 C723 1.429 1_556 S
C729 C730 1.523 . S
C730 C711 1.368 . S
C730 C724 1.368 . S
C730 C729 1.523 . S
C731 C715 1.429 . S
C731 C727 1.429 . S
C731 C732 1.523 . S
C732 C716 1.368 . S
C732 C728 1.368 . S
C732 C731 1.523 . S
H733 C708 0.949 1_556 S
H734 C710 0.950 . S
H735 C711 0.949 . S
H736 C713 0.950 . S
H737 C715 0.950 . S
C738 C739 1.349 . S
C738 C740 1.327 1_554 S
C738 H763 0.950 . S
C739 C738 1.349 . S
C739 C755 1.349 . S
C740 C738 1.327 1_556 S
C740 C759 1.429 . S
C740 H764 0.950 . S
C741 C758 1.574 . S
C741 C760 1.368 . S
C741 H765 0.949 . S
H742 C746 0.949 . S
C743 C744 1.349 . S
C743 C745 1.327 . S
C743 H766 0.950 . S
C744 C743 1.349 . S
C744 C756 1.349 . S
C745 C743 1.327 . S
C745 C761 1.429 . S
C745 H767 0.950 . S
C746 H742 0.949 . S
C746 C754 1.574 . S
C746 C762 1.368 . S
H747 C755 0.950 . S
H748 C753 0.950 . S
H749 C754 0.949 . S
H750 C756 0.950 . S
H751 C757 0.950 . S
H752 C758 0.949 . S
C753 H748 0.950 . S
C753 C755 1.327 1_556 S
C753 C759 1.429 . S
C754 C746 1.574 . S
C754 H749 0.949 . S
C754 C760 1.368 . S
C755 C739 1.349 . S
C755 H747 0.950 . S
C755 C753 1.327 1_554 S
C756 C744 1.349 . S
C756 H750 0.950 . S
C756 C757 1.327 . S
C757 H751 0.950 . S
C757 C756 1.327 . S
C757 C761 1.429 . S
C758 C741 1.574 . S
C758 H752 0.949 . S
C758 C762 1.368 . S
C759 C740 1.429 . S
C759 C753 1.429 . S
C759 C760 1.523 . S
C760 C741 1.368 . S
C760 C754 1.368 . S
C760 C759 1.523 . S
C761 C745 1.429 . S
C761 C757 1.429 . S
C761 C762 1.523 . S
C762 C746 1.368 . S
C762 C758 1.368 . S
C762 C761 1.523 . S
H763 C738 0.950 . S
H764 C740 0.950 . S
H765 C741 0.949 . S
H766 C743 0.950 . S
H767 C745 0.950 . S
C768 C769 1.349 . S
C768 C770 1.327 . S
C768 H793 0.950 . S
C769 C768 1.349 . S
C769 C785 1.349 . S
C770 C768 1.327 . S
C770 C789 1.429 . S
C770 H794 0.950 . S
C771 C788 1.574 . S
C771 C790 1.368 1_455 S
C771 H795 0.949 . S
H772 C776 0.949 . S
C773 C774 1.349 1_455 S
C773 C775 1.327 . S
C773 H796 0.950 . S
C774 C773 1.349 1_655 S
C774 C786 1.349 . S
C775 C773 1.327 . S
C775 C791 1.429 1_455 S
C775 H797 0.950 . S
C776 H772 0.949 . S
C776 C784 1.574 . S
C776 C792 1.368 . S
H777 C785 0.950 1_455 S
H778 C783 0.950 1_455 S
H779 C784 0.949 . S
H780 C786 0.950 . S
H781 C787 0.950 . S
H782 C788 0.949 . S
C783 H778 0.950 1_655 S
C783 C785 1.327 . S
C783 C789 1.429 . S
C784 C776 1.574 . S
C784 H779 0.949 . S
C784 C790 1.368 . S
C785 C769 1.349 . S
C785 H777 0.950 1_655 S
C785 C783 1.327 . S
C786 C774 1.349 . S
C786 H780 0.950 . S
C786 C787 1.327 . S
C787 H781 0.950 . S
C787 C786 1.327 . S
C787 C791 1.429 . S
C788 C771 1.574 . S
C788 H782 0.949 . S
C788 C792 1.368 1_455 S
C789 C770 1.429 . S
C789 C783 1.429 . S
C789 C790 1.523 . S
C790 C771 1.368 1_655 S
C790 C784 1.368 . S
C790 C789 1.523 . S
C791 C775 1.429 1_655 S
C791 C787 1.429 . S
C791 C792 1.523 . S
C792 C776 1.368 . S
C792 C788 1.368 1_655 S
C792 C791 1.523 . S
H793 C768 0.950 . S
H794 C770 0.950 . S
H795 C771 0.949 . S
H796 C773 0.950 . S
H797 C775 0.950 . S
C798 C799 1.349 . S
C798 C800 1.327 . S
C798 H823 0.950 1_565 S
C799 C798 1.349 . S
C799 C815 1.349 . S
C800 C798 1.327 . S
C800 C819 1.429 . S
C800 H824 0.950 1_565 S
C801 C818 1.574 . S
C801 C820 1.368 . S
C801 H825 0.949 . S
H802 C806 0.954 . S
C803 C804 1.349 . S
C803 C805 1.327 . S
C803 H826 0.950 . S
C804 C803 1.349 . S
C804 C816 1.349 1_565 S
C805 C803 1.327 . S
C805 C821 1.429 . S
C805 H827 0.950 . S
C806 H802 0.954 . S
C806 C814 1.572 1_545 S
C806 C822 1.363 1_545 S
H807 C815 0.950 . S
H808 C813 0.950 . S
H809 C814 0.919 1_545 S
H810 C816 0.950 . S
H811 C817 0.950 . S
H812 C818 0.949 . S
C813 H808 0.950 . S
C813 C815 1.327 . S
C813 C819 1.429 . S
C814 C806 1.572 1_565 S
C814 H809 0.919 1_565 S
C814 C820 1.406 . S
C815 C799 1.349 . S
C815 H807 0.950 . S
C815 C813 1.327 . S
C816 C804 1.349 1_545 S
C816 H810 0.950 . S
C816 C817 1.327 . S
C817 H811 0.950 . S
C817 C816 1.327 . S
C817 C821 1.429 1_545 S
C818 C801 1.574 . S
C818 H812 0.949 . S
C818 C822 1.368 . S
C819 C800 1.429 . S
C819 C813 1.429 . S
C819 C820 1.523 . S
C820 C801 1.368 . S
C820 C814 1.406 . S
C820 C819 1.523 . S
C821 C805 1.429 . S
C821 C817 1.429 1_565 S
C821 C822 1.523 . S
C822 C806 1.363 1_565 S
C822 C818 1.368 . S
C822 C821 1.523 . S
H823 C798 0.950 1_545 S
H824 C800 0.950 1_545 S
H825 C801 0.949 . S
H826 C803 0.950 . S
H827 C805 0.950 . S
C828 C829 1.349 . S
C828 C830 1.327 . S
C828 H853 0.950 . S
C829 C828 1.349 . S
C829 C845 1.349 . S
C830 C828 1.327 . S
C830 C849 1.429 . S
C830 H854 0.950 . S
C831 C848 1.574 . S
C831 C850 1.368 . S
C831 H855 0.949 . S
H832 C836 0.949 . S
C833 C834 1.349 . S
C833 C835 1.327 . S
C833 H856 0.950 . S
C834 C833 1.349 . S
C834 C846 1.349 . S
C835 C833 1.327 . S
C835 C851 1.429 . S
C835 H857 0.950 . S
C836 H832 0.949 . S
C836 C844 1.574 . S
C836 C852 1.368 . S
H837 C845 0.950 . S
H838 C843 0.950 . S
H839 C844 0.949 . S
H840 C846 0.950 . S
H841 C847 0.950 . S
H842 C848 0.949 . S
C843 H838 0.950 . S
C843 C845 1.327 . S
C843 C849 1.429 . S
C844 C836 1.574 . S
C844 H839 0.949 . S
C844 C850 1.368 . S
C845 C829 1.349 . S
C845 H837 0.950 . S
C845 C843 1.327 . S
C846 C834 1.349 . S
C846 H840 0.950 . S
C846 C847 1.327 . S
C847 H841 0.950 . S
C847 C846 1.327 . S
C847 C851 1.429 . S
C848 C831 1.574 . S
C848 H842 0.949 . S
C848 C852 1.368 . S
C849 C830 1.429 . S
C849 C843 1.429 . S
C849 C850 1.523 . S
C850 C831 1.368 . S
C850 C844 1.368 . S
C850 C849 1.523 . S
C851 C835 1.429 . S
C851 C847 1.429 . S
C851 C852 1.523 . S
C852 C836 1.368 . S
C852 C848 1.368 . S
C852 C851 1.523 . S
H853 C828 0.950 . S
H854 C830 0.950 . S
H855 C831 0.949 . S
H856 C833 0.950 . S
H857 C835 0.950 . S
C858 C859 1.349 . S
C858 C860 1.327 . S
C858 H883 0.950 . S
C859 C858 1.349 . S
C859 C875 1.349 . S
C860 C858 1.327 . S
C860 C879 1.429 . S
C860 H884 0.950 . S
C861 C878 1.574 . S
C861 C880 1.368 . S
C861 H885 0.949 . S
H862 C866 0.949 . S
C863 C864 1.349 . S
C863 C865 1.327 . S
C863 H886 0.950 . S
C864 C863 1.349 . S
C864 C876 1.349 . S
C865 C863 1.327 . S
C865 C881 1.429 . S
C865 H887 0.950 . S
C866 H862 0.949 . S
C866 C874 1.574 . S
C866 C882 1.368 . S
H867 C875 0.950 . S
H868 C873 0.950 . S
H869 C874 0.949 . S
H870 C876 0.950 . S
H871 C877 0.950 . S
H872 C878 0.949 . S
C873 H868 0.950 . S
C873 C875 1.327 . S
C873 C879 1.429 . S
C874 C866 1.574 . S
C874 H869 0.949 . S
C874 C880 1.368 . S
C875 C859 1.349 . S
C875 H867 0.950 . S
C875 C873 1.327 . S
C876 C864 1.349 . S
C876 H870 0.950 . S
C876 C877 1.327 . S
C877 H871 0.950 . S
C877 C876 1.327 . S
C877 C881 1.429 . S
C878 C861 1.574 . S
C878 H872 0.949 . S
C878 C882 1.368 . S
C879 C860 1.429 . S
C879 C873 1.429 . S
C879 C880 1.523 . S
C880 C861 1.368 . S
C880 C874 1.368 . S
C880 C879 1.523 . S
C881 C865 1.429 . S
C881 C877 1.429 . S
C881 C882 1.523 . S
C882 C866 1.368 . S
C882 C878 1.368 . S
C882 C881 1.523 . S
H883 C858 0.950 . S
H884 C860 0.950 . S
H885 C861 0.949 . S
H886 C863 0.950 . S
H887 C865 0.950 . S
C169 C76 1.457 . S
C174 C106 1.462 . S
C204 C126 1.463 . S
C199 C87 1.458 . S
C234 C146 1.462 . S
C229 C54 1.457 . S
C264 C166 1.475 . S
C259 C65 1.458 . S
C294 C107 1.462 1_565 S
C289 C32 1.460 . S
C319 C43 1.461 . S
C324 C127 1.463 . S
C349 C10 1.460 . S
C354 C147 1.462 . S
C379 C21 1.461 . S
C384 C167 1.463 1_655 S
C414 C97 0.691 1_655 S
C409 C60 0.685 . S
C444 C117 0.684 1_565 S
C439 C71 0.684 . S
C474 C137 0.691 . S
C469 C82 0.685 . S
C499 C49 0.684 . S
C504 C157 0.690 . S
C529 C16 0.686 . S
C534 C100 0.691 . S
C564 C120 0.690 . S
C559 C27 0.685 . S
C594 C140 0.691 . S
C589 C38 0.685 . S
C619 C5 0.685 . S
C624 C160 0.691 . S
C649 C59 1.499 . S
C654 C90 1.452 . S
C679 C70 1.498 . S
C684 C110 1.452 . S
C714 C130 1.452 . S
C709 C81 1.499 . S
C744 C150 1.452 . S
C739 C48 1.498 . S
C769 C15 1.496 . S
C774 C92 1.452 . S
C804 C112 1.452 . S
C799 C26 1.496 . S
C834 C132 1.452 . S
C829 C37 1.496 . S
C859 C4 1.496 . S
C864 C152 1.451 . S
