# Generated by pormake.
# Topology zzz, (3,6)-cn, num edge types: 1
# Building blocks:
#     Node 0, Type 0, BuildingBlock: CUQRIR_clean_linker_1, # of connection points: 3
#     Node 1, Type 0, BuildingBlock: CUQRIR_clean_linker_1, # of connection points: 3
#     Node 2, Type 0, BuildingBlock: CUQRIR_clean_linker_1, # of connection points: 3
#     Node 3, Type 0, BuildingBlock: CUQRIR_clean_linker_1, # of connection points: 3
#     Node 4, Type 0, BuildingBlock: CUQRIR_clean_linker_1, # of connection points: 3
#     Node 5, Type 0, BuildingBlock: CUQRIR_clean_linker_1, # of connection points: 3
#     Node 6, Type 0, BuildingBlock: CUQRIR_clean_linker_1, # of connection points: 3
#     Node 7, Type 0, BuildingBlock: CUQRIR_clean_linker_1, # of connection points: 3
#     Node 8, Type 1, BuildingBlock: CUWYAW_clean_sbu_0, # of connection points: 6
#     Node 9, Type 1, BuildingBlock: CUWYAW_clean_sbu_0, # of connection points: 6
#     Node 10, Type 1, BuildingBlock: CUWYAW_clean_sbu_0, # of connection points: 6
#     Node 11, Type 1, BuildingBlock: CUWYAW_clean_sbu_0, # of connection points: 6
#     Edge 12, Type (0, 1), BuildingBlock: EZIPEK_clean_linker_0, # of connection points: 2
#     Edge 13, Type (0, 1), BuildingBlock: EZIPEK_clean_linker_0, # of connection points: 2
#     Edge 14, Type (0, 1), BuildingBlock: EZIPEK_clean_linker_0, # of connection points: 2
#     Edge 15, Type (0, 1), BuildingBlock: EZIPEK_clean_linker_0, # of connection points: 2
#     Edge 16, Type (0, 1), BuildingBlock: EZIPEK_clean_linker_0, # of connection points: 2
#     Edge 17, Type (0, 1), BuildingBlock: EZIPEK_clean_linker_0, # of connection points: 2
#     Edge 18, Type (0, 1), BuildingBlock: EZIPEK_clean_linker_0, # of connection points: 2
#     Edge 19, Type (0, 1), BuildingBlock: EZIPEK_clean_linker_0, # of connection points: 2
#     Edge 20, Type (0, 1), BuildingBlock: EZIPEK_clean_linker_0, # of connection points: 2
#     Edge 21, Type (0, 1), BuildingBlock: EZIPEK_clean_linker_0, # of connection points: 2
#     Edge 22, Type (0, 1), BuildingBlock: EZIPEK_clean_linker_0, # of connection points: 2
#     Edge 23, Type (0, 1), BuildingBlock: EZIPEK_clean_linker_0, # of connection points: 2
#     Edge 24, Type (0, 1), BuildingBlock: EZIPEK_clean_linker_0, # of connection points: 2
#     Edge 25, Type (0, 1), BuildingBlock: EZIPEK_clean_linker_0, # of connection points: 2
#     Edge 26, Type (0, 1), BuildingBlock: EZIPEK_clean_linker_0, # of connection points: 2
#     Edge 27, Type (0, 1), BuildingBlock: EZIPEK_clean_linker_0, # of connection points: 2
#     Edge 28, Type (0, 1), BuildingBlock: EZIPEK_clean_linker_0, # of connection points: 2
#     Edge 29, Type (0, 1), BuildingBlock: EZIPEK_clean_linker_0, # of connection points: 2
#     Edge 30, Type (0, 1), BuildingBlock: EZIPEK_clean_linker_0, # of connection points: 2
#     Edge 31, Type (0, 1), BuildingBlock: EZIPEK_clean_linker_0, # of connection points: 2
#     Edge 32, Type (0, 1), BuildingBlock: EZIPEK_clean_linker_0, # of connection points: 2
#     Edge 33, Type (0, 1), BuildingBlock: EZIPEK_clean_linker_0, # of connection points: 2
#     Edge 34, Type (0, 1), BuildingBlock: EZIPEK_clean_linker_0, # of connection points: 2
#     Edge 35, Type (0, 1), BuildingBlock: EZIPEK_clean_linker_0, # of connection points: 2
# Relax obj value: 0.446
# Max RMSD: 0.198
# Mean RMSD: 0.135
data_MOF--net-zzz--node1-CUWYAW_clean_sbu_0--node2-CUQRIR_clean_linker_1--edge1-EZIPEK_clean_linker_0
_symmetry_space_group_name_H-M    P1
_symmetry_Int_Tables_number       1
_symmetry_cell_setting            triclinic
loop_
_symmetry_equiv_pos_as_xyz
'x, y, z'
_cell_length_a     34.545878
_cell_length_b     34.518187
_cell_length_c     9.498538
_cell_angle_alpha  90.355696
_cell_angle_beta   89.83678
_cell_angle_gamma 89.803481
loop_
_atom_site_label
_atom_site_type_symbol
_atom_site_fract_x
_atom_site_fract_y
_atom_site_fract_z
_atom_type_partial_charge
C0 C 0.75703 0.53416 0.42444 0.0
N1 N 0.79443 0.51923 0.42145 0.0
N2 N 0.73731 0.52819 0.29793 0.0
C3 C 0.73912 0.55151 0.55385 0.0
C4 C 0.76505 0.51042 0.21946 0.0
N5 N 0.79716 0.50286 0.29507 0.0
C6 C 0.7617 0.50082 0.0644 0.0
H7 H 0.70709 0.55228 0.54542 0.0
H8 H 0.75011 0.58144 0.56795 0.0
H9 H 0.74784 0.53462 0.64771 0.0
H10 H 0.78915 0.50772 1.00948 0.0
H11 H 0.73815 0.51739 1.01304 0.0
H12 H 0.75676 0.46929 0.05048 0.0
C13 C 1.0063 0.75957 0.40522 0.0
N14 N 0.03265 0.78831 0.43805 0.0
N15 N 0.02265 0.73027 0.3245 0.0
C16 C 0.96434 0.76128 0.44478 0.0
C17 C 0.05947 0.74263 0.30855 0.0
N18 N 0.0656 0.7768 0.37631 0.0
C19 C 0.08767 0.72449 0.20447 0.0
H20 H 0.95006 0.73294 0.42734 0.0
H21 H 0.94952 0.78327 0.37939 0.0
H22 H 0.96134 0.77035 0.5566 0.0
H23 H 0.07928 0.73236 0.09582 0.0
H24 H 0.08676 0.69248 0.21133 0.0
H25 H 0.11771 0.73481 0.21927 0.0
C26 C 0.77542 1.00725 0.39745 0.0
N27 N 0.74082 0.02755 0.39911 0.0
N28 N 0.79856 1.01745 0.28457 0.0
C29 C 0.78766 0.97937 0.5097 0.0
C30 C 0.77605 0.04358 0.21651 0.0
N31 N 0.74283 0.05099 0.28814 0.0
C32 C 0.78806 0.06448 0.08318 0.0
H33 H 0.80601 0.95586 0.4661 0.0
H34 H 0.76214 0.96674 0.56337 0.0
H35 H 0.80546 0.99504 0.58847 0.0
H36 H 0.81347 0.05093 0.03113 0.0
H37 H 0.79405 0.09536 0.10754 0.0
H38 H 0.76496 0.06415 1.00408 0.0
C39 C 0.51643 0.7893 0.41979 0.0
N40 N 0.50216 0.75241 0.44002 0.0
N41 N 0.50757 0.80365 0.28724 0.0
C42 C 0.53488 0.81239 0.53541 0.0
C43 C 0.48828 0.77295 0.23048 0.0
N44 N 0.48219 0.74427 0.32475 0.0
C45 C 0.47808 0.76844 0.0771 0.0
H46 H 0.53326 0.8439 0.51383 0.0
H47 H 0.56564 0.80357 0.54566 0.0
H48 H 0.52031 0.80611 0.63703 0.0
H49 H 0.49408 0.7892 1.01013 0.0
H50 H 0.44647 0.77234 0.06236 0.0
H51 H 0.48531 0.73855 0.04194 0.0
C52 C 0.29048 0.49536 0.28702 0.0
N53 N 0.25823 0.5183 0.2645 0.0
N54 N 0.31011 0.50587 0.40783 0.0
C55 C 0.30408 0.46408 0.18866 0.0
C56 C 0.28873 0.53592 0.45669 0.0
N57 N 0.25897 0.54445 0.36878 0.0
C58 C 0.29785 0.55769 0.59063 0.0
H59 H 0.30305 0.43586 0.24385 0.0
H60 H 0.3347 0.46937 0.15904 0.0
H61 H 0.28597 0.46271 0.09248 0.0
H62 H 0.32394 0.57579 0.57405 0.0
H63 H 0.30466 0.53701 0.67598 0.0
H64 H 0.27337 0.57635 0.62521 0.0
C65 C 0.04578 0.30138 0.1965 0.0
N66 N 0.03505 0.26263 0.19648 0.0
N67 N 0.04227 0.31843 0.32987 0.0
C68 C 0.0579 0.32271 0.06702 0.0
C69 C 0.03064 0.28799 0.40818 0.0
N70 N 0.02421 0.25649 0.32786 0.0
C71 C 0.02464 0.28865 0.56621 0.0
H72 H 0.0889 0.31649 0.04576 0.0
H73 H 0.05405 0.35442 0.08154 0.0
H74 H 0.04128 0.31257 0.9743 0.0
H75 H 0.99324 0.29009 0.59057 0.0
H76 H 0.03978 0.31325 0.61726 0.0
H77 H 0.03573 0.26166 0.61393 0.0
C78 C 0.23976 0.03092 0.25166 0.0
N79 N 0.27669 1.01525 0.2453 0.0
N80 N 0.22223 0.02514 0.38199 0.0
C81 C 0.2202 0.04921 0.12835 0.0
C82 C 0.25082 1.00699 0.45338 0.0
N83 N 0.28141 0.99879 0.36982 0.0
C84 C 0.24929 0.99664 0.60782 0.0
H85 H 0.23144 0.07904 0.11526 0.0
H86 H 0.18837 0.05047 0.14409 0.0
H87 H 0.22716 0.03273 0.03078 0.0
H88 H 0.24521 0.96494 0.61922 0.0
H89 H 0.22594 1.01241 0.66462 0.0
H90 H 0.27713 1.00395 0.65903 0.0
C91 C 0.50744 0.25548 0.28063 0.0
N92 N 0.52313 0.2924 0.28319 0.0
N93 N 0.51333 0.23568 0.40634 0.0
C94 C 0.48929 0.23806 0.15234 0.0
C95 C 0.53176 0.26297 0.48419 0.0
N96 N 0.53988 0.2949 0.40837 0.0
C97 C 0.54194 0.25917 0.63815 0.0
H98 H 0.45947 0.24967 0.14142 0.0
H99 H 0.48811 0.20602 0.15998 0.0
H100 H 0.50582 0.24655 0.0571 0.0
H101 H 0.52574 0.23545 0.68961 0.0
H102 H 0.5351 0.28657 0.69462 0.0
H103 H 0.57353 0.25417 0.64929 0.0
C104 C 0.92498 0.04012 0.65912 0.0
Eu105 Eu 0.98844 0.02606 0.79919 0.0
C106 C 0.9128 0.0629 0.54086 0.0
C107 C 0.88658 0.09298 0.57155 0.0
C108 C 0.89282 0.12911 0.51293 0.0
C109 C 0.92348 0.13351 0.41824 0.0
C110 C 0.94316 0.10127 0.36338 0.0
C111 C 0.93823 0.06574 0.42661 0.0
C112 C 0.95563 1.001 0.04665 0.0
C113 C 0.0217 0.10492 0.94835 0.0
C114 C 0.08732 0.99338 0.15847 0.0
Eu115 Eu 0.0417 1.0153 0.95511 0.0
C116 C 0.11145 0.96095 0.20282 0.0
C117 C 0.14536 0.95019 0.13015 0.0
C118 C 0.16431 0.91574 0.16418 0.0
C119 C 0.14944 0.89196 0.27071 0.0
C120 C 0.1172 0.90472 0.34984 0.0
C121 C 0.09876 0.93908 0.31719 0.0
C122 C 0.07776 0.0402 0.70929 0.0
C123 C 1.02099 0.94286 0.73658 0.0
O124 O 0.94725 1.01048 0.63402 0.0
O125 O 0.93804 0.06126 0.76199 0.0
O126 O 0.95655 0.98118 0.93158 0.0
O127 O 0.98112 0.0271 0.03379 0.0
O128 O 1.00715 0.09154 0.82763 0.0
O129 O 0.03303 0.07775 0.03532 0.0
O130 O 0.05022 0.98664 0.15499 0.0
O131 O 0.09891 1.01377 0.05179 0.0
O132 O 0.08431 0.05299 0.83492 0.0
O133 O 0.0494 1.01672 0.71624 0.0
O134 O 0.03305 0.95109 0.86686 0.0
O135 O 1.00681 0.97288 0.6701 0.0
H136 H 0.86657 0.09067 0.65923 0.0
H137 H 0.87758 0.15412 0.55514 0.0
H138 H 0.96673 0.10482 0.28893 0.0
H139 H 0.95827 0.04256 0.40026 0.0
H140 H 0.15608 0.96717 0.04291 0.0
H141 H 0.18888 0.90648 0.10146 0.0
H142 H 0.10446 0.8869 0.4311 0.0
H143 H 0.07317 0.94741 0.37659 0.0
C144 C 0.4843 0.94922 0.51668 0.0
Eu145 Eu 0.50163 0.99217 0.73459 0.0
C146 C 0.45944 0.9185 0.46416 0.0
C147 C 0.44867 0.88709 0.549 0.0
C148 C 0.41283 0.86955 0.52619 0.0
C149 C 0.38821 0.88563 0.42489 0.0
C150 C 0.40479 0.90707 0.31515 0.0
C151 C 0.43996 0.92518 0.33812 0.0
C152 C 0.52515 0.95137 0.97316 0.0
C153 C 0.42845 1.01591 0.94528 0.0
C154 C 0.53805 0.08554 0.13771 0.0
Eu155 Eu 0.51719 0.04231 0.92472 0.0
C156 C 0.56526 0.1153 0.18334 0.0
C157 C 0.57707 0.14574 0.09628 0.0
C158 C 0.61073 0.16627 0.12937 0.0
C159 C 0.63428 0.15377 0.24147 0.0
C160 C 0.61846 0.12762 0.33905 0.0
C161 C 0.58338 0.1099 0.31227 0.0
C162 C 0.49487 0.08389 0.6877 0.0
C163 C 0.58939 1.0182 0.70588 0.0
O164 O 0.46757 0.9825 0.54469 0.0
O165 O 0.50978 0.93969 0.61068 0.0
O166 O 0.53925 0.94764 0.8481 0.0
O167 O 0.50134 0.97963 0.96865 0.0
O168 O 0.4376 1.00134 0.81882 0.0
O169 O 0.4574 0.02983 0.01903 0.0
O170 O 0.55275 0.05133 0.11046 0.0
O171 O 0.51156 0.09551 0.04791 0.0
O172 O 0.48017 0.08746 0.81217 0.0
O173 O 0.51791 0.05489 0.69123 0.0
O174 O 0.581 0.03434 0.83097 0.0
O175 O 0.5607 1.00136 0.64198 0.0
H176 H 0.46476 0.87999 0.64301 0.0
H177 H 0.40125 0.85079 0.6069 0.0
H178 H 0.38697 0.91764 0.23005 0.0
H179 H 0.44904 0.948 0.26749 0.0
H180 H 0.56211 0.15179 0.99879 0.0
H181 H 0.62078 0.18807 0.05687 0.0
H182 H 0.63461 0.11783 0.42978 0.0
H183 H 0.57212 0.08948 0.38707 0.0
C184 C 0.58986 0.49614 0.5556 0.0
Eu185 Eu 0.54533 0.51672 0.76575 0.0
C186 C 0.62206 0.4721 0.50918 0.0
C187 C 0.6517 0.46107 0.60163 0.0
C188 C 0.66896 0.42465 0.58411 0.0
C189 C 0.65397 0.39976 0.48056 0.0
C190 C 0.63467 0.4162 0.36561 0.0
C191 C 0.61714 0.45206 0.38258 0.0
C192 C 0.58675 0.54301 1.00237 0.0
C193 C 0.52172 0.44641 0.99286 0.0
C194 C 0.44812 0.57254 0.08513 0.0
Eu195 Eu 0.49698 0.53301 0.93946 0.0
C196 C 0.4223 0.60471 0.04429 0.0
C197 C 0.38189 0.60037 0.05186 0.0
C198 C 0.35904 0.63287 0.08294 0.0
C199 C 0.37739 0.66855 0.10381 0.0
C200 C 0.41219 0.67385 0.02893 0.0
C201 C 0.43696 0.64189 0.01779 0.0
C202 C 0.456 0.49996 0.71887 0.0
C203 C 0.51855 0.60316 0.72864 0.0
O204 O 0.55828 0.47778 0.59096 0.0
O205 O 0.59737 0.525 0.63938 0.0
O206 O 0.58914 0.55658 0.87628 0.0
O207 O 0.55889 0.51894 1.00106 0.0
O208 O 0.53641 0.45401 0.865 0.0
O209 O 0.50732 0.47666 0.06138 0.0
O210 O 0.48526 0.57931 0.09032 0.0
O211 O 0.43986 0.53831 0.03577 0.0
O212 O 0.45465 0.48976 0.84895 0.0
O213 O 0.48239 0.52586 0.70855 0.0
O214 O 0.50982 0.5953 0.85985 0.0
O215 O 0.52894 0.57316 0.65297 0.0
H216 H 0.65733 0.47754 0.69655 0.0
H217 H 0.68627 0.41312 0.66913 0.0
H218 H 0.62506 0.39813 0.27917 0.0
H219 H 0.59556 0.46117 0.30681 0.0
H220 H 0.36879 0.57204 0.05021 0.0
H221 H 0.32915 0.62903 0.11254 0.0
H222 H 0.42502 0.70233 0.02391 0.0
H223 H 0.46756 0.64677 1.00135 0.0
C224 C 0.06921 0.59876 0.56437 0.0
Eu225 Eu 0.03821 0.55025 0.73904 0.0
C226 C 0.09968 0.62768 0.58597 0.0
C227 C 0.09865 0.66299 0.51409 0.0
C228 C 0.13364 0.68197 0.48675 0.0
C229 C 0.16822 0.66351 0.5226 0.0
C230 C 0.16709 0.63894 0.63964 0.0
C231 C 0.13319 0.61809 0.66149 0.0
C232 C 1.01198 0.59132 0.97346 0.0
C233 C 0.11031 0.52416 0.94827 0.0
C234 C 1.00507 0.4561 0.12446 0.0
Eu235 Eu 0.02338 0.50097 0.91517 0.0
C236 C 0.97993 0.42543 0.17352 0.0
C237 C 0.96838 0.39489 0.08487 0.0
C238 C 0.9321 0.3781 0.10651 0.0
C239 C 0.90801 0.39406 0.21101 0.0
C240 C 0.92496 0.41469 0.32246 0.0
C241 C 0.96037 0.43225 0.30008 0.0
C242 C 0.04774 0.46203 0.66896 0.0
C243 C 0.95022 0.52387 0.70285 0.0
O244 O 0.07979 0.56248 0.57218 0.0
O245 O 0.03688 0.60535 0.62941 0.0
O246 O 0.9975 0.59291 0.84865 0.0
O247 O 0.0368 0.56374 0.97347 0.0
O248 O 0.10167 0.53583 0.81913 0.0
O249 O 0.08064 0.51375 0.0238 0.0
O250 O 0.98816 0.48931 0.09952 0.0
O251 O 0.0312 0.44723 0.03081 0.0
O252 O 0.06216 0.45787 0.79324 0.0
O253 O 0.023 0.48917 0.67856 0.0
O254 O 0.9593 0.50961 0.82935 0.0
O255 O 0.97957 0.53832 0.63129 0.0
H256 H 0.07247 0.67268 0.46338 0.0
H257 H 0.13452 0.70524 0.41268 0.0
H258 H 0.19375 0.62687 0.68076 0.0
H259 H 0.13498 0.59156 0.7195 0.0
H260 H 0.98415 0.38823 0.98902 0.0
H261 H 0.91995 0.36026 0.02359 0.0
H262 H 0.90739 0.42517 0.40944 0.0
H263 H 0.96983 0.45467 0.37255 0.0
C264 C 0.1629 0.06508 0.45396 0.0
C265 C 0.18177 0.02858 0.4358 0.0
C266 C 0.13283 1.00025 0.59956 0.0
C267 C 0.11174 0.03564 0.60621 0.0
N268 N 0.10449 0.10077 0.52195 0.0
N269 N 0.17886 0.95989 0.47383 0.0
C270 C 0.12607 0.06766 0.52702 0.0
C271 C 0.16422 0.99576 0.50163 0.0
N272 N 0.18139 0.09779 0.41097 0.0
N273 N 0.12454 0.97142 0.69301 0.0
H274 H 0.19904 0.95534 0.39471 0.0
H275 H 0.16947 0.9345 0.5208 0.0
H276 H 0.10326 0.97391 0.77027 0.0
H277 H 0.14144 0.94671 0.70589 0.0
H278 H 0.17139 0.12565 0.43345 0.0
H279 H 0.20859 0.09698 0.36338 0.0
H280 H 0.11105 0.12386 0.45602 0.0
H281 H 0.07817 0.10359 0.5753 0.0
C282 C 0.54134 0.175 0.51499 0.0
C283 C 0.50918 0.19435 0.45077 0.0
C284 C 0.46937 0.13697 0.51894 0.0
C285 C 0.50064 0.12033 0.59685 0.0
N286 N 0.56431 0.13026 0.69348 0.0
N287 N 0.44021 0.19528 0.41963 0.0
C288 C 0.53602 0.14134 0.60158 0.0
C289 C 0.47257 0.17546 0.45907 0.0
N290 N 0.57752 0.18942 0.49403 0.0
N291 N 0.43629 0.11597 0.50203 0.0
H292 H 0.44136 0.22361 0.38266 0.0
H293 H 0.41223 0.18508 0.43587 0.0
H294 H 0.43283 0.08848 0.54545 0.0
H295 H 0.41388 0.12434 0.43552 0.0
H296 H 0.60255 0.17877 0.54056 0.0
H297 H 0.58283 0.21018 0.41813 0.0
H298 H 0.58889 0.1466 0.71473 0.0
H299 H 0.56154 0.10678 0.76086 0.0
C300 C 0.38228 0.51434 0.41387 0.0
C301 C 0.34871 0.49522 0.4635 0.0
C302 C 0.38905 0.46924 0.65845 0.0
C303 C 0.42124 0.49317 0.61882 0.0
N304 N 0.45223 0.52291 0.42131 0.0
N305 N 0.31986 0.45528 0.63918 0.0
C306 C 0.41891 0.51127 0.48551 0.0
C307 C 0.35228 0.47254 0.58697 0.0
N308 N 0.37846 0.53812 0.30218 0.0
N309 N 0.39442 0.44083 0.75593 0.0
H310 H 0.29352 0.45598 0.58554 0.0
H311 H 0.31847 0.44257 0.73819 0.0
H312 H 0.42168 0.43333 0.79377 0.0
H313 H 0.37322 0.42086 0.78333 0.0
H314 H 0.39957 0.55803 0.2776 0.0
H315 H 0.35285 0.54042 0.24531 0.0
H316 H 0.45329 0.53247 0.31815 0.0
H317 H 0.47959 0.51754 0.46279 0.0
C318 C 1.00953 0.37154 0.46906 0.0
C319 C 0.04183 0.35897 0.38544 0.0
C320 C 0.0754 0.41902 0.46717 0.0
C321 C 0.04516 0.42776 0.56553 0.0
N322 N 0.98743 0.40504 0.68009 0.0
N323 N 0.10872 0.36941 0.32759 0.0
C324 C 1.01337 0.40191 0.57179 0.0
C325 C 0.07556 0.38269 0.38934 0.0
N326 N 0.97476 0.3537 0.45139 0.0
N327 N 0.10419 0.44541 0.44801 0.0
H328 H 0.11015 0.3427 0.27615 0.0
H329 H 0.13532 0.38321 0.33838 0.0
H330 H 0.10533 0.47142 0.50451 0.0
H331 H 0.12469 0.44295 0.36792 0.0
H332 H 0.94979 0.3609 0.50744 0.0
H333 H 0.97017 0.33438 0.36911 0.0
H334 H 0.96629 0.38437 0.70051 0.0
H335 H 0.98939 0.42624 0.75836 0.0
C336 C 0.86386 0.04456 0.23127 0.0
C337 C 0.8403 1.01148 0.25391 0.0
C338 C 0.89592 0.97164 0.16957 0.0
C339 C 0.91717 1.00529 0.12793 0.0
N340 N 0.9118 0.0743 0.08148 0.0
N341 N 0.832 0.94365 0.2052 0.0
C342 C 0.89842 0.04195 0.14766 0.0
C343 C 0.85593 0.97488 0.21343 0.0
N344 N 0.85155 0.07938 0.28329 0.0
N345 N 0.91371 0.9363 0.16655 0.0
H346 H 0.80244 0.94576 0.22669 0.0
H347 H 0.84074 0.91701 0.16356 0.0
H348 H 0.94261 0.93273 0.13685 0.0
H349 H 0.90082 0.91139 0.20641 0.0
H350 H 0.86486 0.10558 0.26169 0.0
H351 H 0.82873 0.08158 0.35513 0.0
H352 H 0.89614 0.10009 0.07652 0.0
H353 H 0.93663 0.07518 0.02038 0.0
C354 C 0.54758 0.86356 0.21943 0.0
C355 C 0.51184 0.84274 0.22062 0.0
C356 C 0.48735 0.8911 0.04668 0.0
C357 C 0.52013 0.9152 0.06465 0.0
N358 N 0.58069 0.92521 0.18348 0.0
N359 N 0.44437 0.84529 0.15372 0.0
C360 C 0.54986 0.90174 0.15672 0.0
C361 C 0.48091 0.85916 0.13928 0.0
N362 N 0.58028 0.84577 0.26672 0.0
N363 N 0.46254 0.89768 0.93772 0.0
H364 H 0.43729 0.82658 0.23386 0.0
H365 H 0.42045 0.85621 0.1002 0.0
H366 H 0.46584 0.92049 0.86735 0.0
H367 H 0.44089 0.87825 0.90883 0.0
H368 H 0.60772 0.85795 0.25805 0.0
H369 H 0.58043 0.81696 0.29873 0.0
H370 H 0.60148 0.91889 0.25935 0.0
H371 H 0.58349 0.9525 0.13787 0.0
C372 C 0.67586 0.56791 0.24431 0.0
C373 C 0.69602 0.53173 0.25131 0.0
C374 C 0.64629 0.50501 0.0869 0.0
C375 C 0.62337 0.53914 0.09432 0.0
N376 N 0.61523 0.60246 0.1977 0.0
N377 N 0.69222 0.46331 0.20315 0.0
C378 C 0.63778 0.5703 0.17938 0.0
C379 C 0.67817 0.49961 0.18115 0.0
N380 N 0.69399 0.60059 0.29031 0.0
N381 N 0.63936 0.47834 0.98353 0.0
H382 H 0.71205 0.45791 0.28225 0.0
H383 H 0.68127 0.43851 0.15496 0.0
H384 H 0.61723 0.48138 0.91005 0.0
H385 H 0.65804 0.45532 0.96137 0.0
H386 H 0.68275 0.62833 0.27633 0.0
H387 H 0.72196 0.60003 0.33096 0.0
H388 H 0.622 0.6246 0.26839 0.0
H389 H 0.58816 0.60528 0.15016 0.0
C390 C 1.00745 0.699 0.09501 0.0
C391 C 1.00681 0.69715 0.24345 0.0
C392 C 1.00315 0.62501 0.21927 0.0
C393 C 1.01135 0.62727 0.07162 0.0
N394 N 0.03182 0.6691 0.88285 0.0
N395 N 0.99376 0.65887 0.44569 0.0
C396 C 1.01559 0.66508 1.01281 0.0
C397 C 1.0017 0.66007 0.30534 0.0
N398 N 1.0018 0.73402 0.03282 0.0
N399 N 0.99816 0.58933 0.27763 0.0
H400 H 0.99464 0.68368 0.50891 0.0
H401 H 0.98316 0.63456 0.49648 0.0
H402 H 0.99885 0.56393 0.21767 0.0
H403 H 0.9941 0.58452 0.38453 0.0
H404 H 0.99935 0.73739 0.9242 0.0
H405 H 0.99518 0.75867 0.09255 0.0
H406 H 0.03814 0.69586 0.8382 0.0
H407 H 0.04491 0.6459 0.83127 0.0
C408 C 1.00789 0.19762 0.45119 0.0
C409 C 0.99657 0.22798 0.3636 0.0
C410 C 0.93298 0.19972 0.32725 0.0
C411 C 0.94435 0.16971 0.41734 0.0
N412 N 0.98641 0.14646 0.60157 0.0
N413 N 0.94619 0.26419 0.24609 0.0
C414 C 0.9798 0.17091 0.49209 0.0
C415 C 0.95823 0.2312 0.31108 0.0
N416 N 0.04566 0.1938 0.49086 0.0
N417 N 0.89932 0.1972 0.25267 0.0
H418 H 0.96479 0.28688 0.22354 0.0
H419 H 0.91739 0.26971 0.22051 0.0
H420 H 0.87955 0.17477 0.26675 0.0
H421 H 0.89209 0.21614 0.17185 0.0
H422 H 0.0563 0.16988 0.54469 0.0
H423 H 0.06693 0.21362 0.46189 0.0
H424 H 1.01055 0.14889 0.66621 0.0
H425 H 0.96571 0.12689 0.63676 0.0
C426 C 0.29571 0.92861 0.34855 0.0
C427 C 0.3062 0.96642 0.39604 0.0
C428 C 0.35487 0.938 0.54538 0.0
C429 C 0.35107 0.90237 0.47181 0.0
N430 N 0.31281 0.86117 0.32477 0.0
N431 N 0.348 1.00769 0.52988 0.0
C432 C 0.31928 0.89676 0.38259 0.0
C433 C 0.33661 0.97128 0.49175 0.0
N434 N 0.264 0.92212 0.26802 0.0
N435 N 0.377 0.94008 0.66297 0.0
H436 H 0.33419 0.03248 0.49228 0.0
H437 H 0.37283 1.01332 0.5884 0.0
H438 H 0.38742 0.9154 0.71296 0.0
H439 H 0.38049 0.9657 0.71893 0.0
H440 H 0.2452 0.94392 0.23567 0.0
H441 H 0.2452 0.94392 0.23567 0.0
H442 H 0.29027 0.85586 0.25429 0.0
H443 H 0.32995 0.83736 0.35106 0.0
C444 C 0.61027 0.30754 0.39477 0.0
C445 C 0.57247 0.31892 0.43993 0.0
C446 C 0.60068 0.36677 0.59475 0.0
C447 C 0.63654 0.36263 0.52321 0.0
N448 N 0.67782 0.32615 0.36995 0.0
N449 N 0.53106 0.3606 0.57554 0.0
C450 C 0.64236 0.33103 0.43125 0.0
C451 C 0.56751 0.34905 0.5379 0.0
N452 N 0.61528 0.27464 0.31682 0.0
N453 N 0.59826 0.38875 0.71356 0.0
H454 H 0.50635 0.34708 0.53616 0.0
H455 H 0.5253 0.38529 0.63575 0.0
H456 H 0.62279 0.39874 0.76567 0.0
H457 H 0.57249 0.39271 0.7682 0.0
H458 H 0.64225 0.26263 0.2936 0.0
H459 H 0.59209 0.25846 0.27986 0.0
H460 H 0.68341 0.30669 0.28816 0.0
H461 H 0.7014 0.34318 0.4 0.0
C462 C 0.25451 0.61666 0.37845 0.0
C463 C 0.23626 0.5796 0.37419 0.0
C464 C 0.17512 0.61213 0.34821 0.0
C465 C 0.19107 0.64656 0.40492 0.0
N466 N 0.24765 0.68365 0.45652 0.0
N467 N 0.1767 0.54385 0.39439 0.0
C468 C 0.23162 0.6498 0.41125 0.0
C469 C 0.19565 0.57765 0.36968 0.0
N470 N 0.29306 0.62003 0.35196 0.0
N471 N 0.13954 0.61192 0.28739 0.0
H472 H 0.19143 0.51889 0.42537 0.0
H473 H 0.14655 0.54227 0.39828 0.0
H474 H 0.12546 0.63763 0.26164 0.0
H475 H 0.12703 0.58662 0.24789 0.0
H476 H 0.30716 0.64663 0.34899 0.0
H477 H 0.30983 0.59649 0.31932 0.0
H478 H 0.27703 0.68674 0.47825 0.0
H479 H 0.23051 0.70808 0.47677 0.0
C480 C 0.10229 0.81442 0.2032 0.0
C481 C 0.09797 0.80118 0.34335 0.0
C482 C 0.15879 0.83257 0.40527 0.0
C483 C 0.15813 0.85018 0.27162 0.0
N484 N 0.14993 0.83281 0.0292 0.0
N485 N 0.13252 0.78168 0.55196 0.0
C486 C 0.13761 0.83135 0.16496 0.0
C487 C 0.12965 0.80498 0.43758 0.0
N488 N 0.07282 0.81173 0.10892 0.0
N489 N 0.18412 0.84582 0.50366 0.0
H490 H 0.11304 0.7592 0.56859 0.0
H491 H 0.15622 0.78207 0.61956 0.0
H492 H 0.20488 0.86656 0.47748 0.0
H493 H 0.18328 0.83743 0.60884 0.0
H494 H 0.07491 0.82268 1.0074 0.0
H495 H 0.04557 0.80154 0.13677 0.0
H496 H 0.13653 0.81683 0.94962 0.0
H497 H 0.17598 0.8462 1.00258 0.0
C498 C 0.70175 0.09282 0.141 0.0
C499 C 0.72063 0.08614 0.27015 0.0
C500 C 0.69901 0.15034 0.35084 0.0
C501 C 0.67707 0.15334 0.22582 0.0
N502 N 0.68428 0.14286 0.97687 0.0
N503 N 0.74889 0.11522 0.478 0.0
C504 C 0.68861 0.13029 0.11137 0.0
C505 C 0.72328 0.11718 0.36949 0.0
N506 N 0.69502 0.06347 0.04908 0.0
N507 N 0.69277 0.17673 0.45563 0.0
H508 H 0.75355 0.13804 0.54809 0.0
H509 H 0.76788 0.09197 0.4898 0.0
H510 H 0.67447 0.20049 0.43972 0.0
H511 H 0.70417 0.17413 0.55655 0.0
H512 H 0.67811 0.06762 0.95969 0.0
H513 H 0.70469 0.03539 0.06815 0.0
H514 H 0.69319 0.12631 0.89021 0.0
H515 H 0.67623 0.17138 0.95558 0.0
C516 C 0.44577 0.68191 0.33406 0.0
C517 C 0.44637 0.72272 0.32772 0.0
C518 C 0.3776 0.72319 0.26968 0.0
C519 C 0.38004 0.6829 0.25164 0.0
N520 N 0.40331 0.62781 0.38059 0.0
N521 N 0.40692 0.7788 0.38165 0.0
C522 C 0.40921 0.66388 0.32967 0.0
C523 C 0.41021 0.74271 0.32558 0.0
N524 N 0.47893 0.66062 0.33001 0.0
N525 N 0.34608 0.7426 0.22123 0.0
H526 H 0.43031 0.79231 0.43045 0.0
H527 H 0.38041 0.79305 0.3913 0.0
H528 H 0.32248 0.72759 0.17949 0.0
H529 H 0.34456 0.77276 0.21859 0.0
H530 H 0.4787 0.6304 0.3287 0.0
H531 H 0.50579 0.6735 0.31347 0.0
H532 H 0.42445 0.61301 0.43746 0.0
H533 H 0.37588 0.61535 0.37576 0.0
C534 C 0.85292 0.47932 0.16303 0.0
C535 C 0.82292 0.47188 0.25871 0.0
C536 C 0.83898 0.40276 0.25731 0.0
C537 C 0.8706 0.41091 0.16979 0.0
N538 N 0.89645 0.45236 0.99001 0.0
N539 N 0.78263 0.42428 0.37757 0.0
C540 C 0.87331 0.44768 0.10447 0.0
C541 C 0.81406 0.4331 0.29814 0.0
N542 N 0.862 0.51668 0.13018 0.0
N543 N 0.83403 0.3662 0.30747 0.0
H544 H 0.76297 0.44486 0.41484 0.0
H545 H 0.76297 0.44486 0.41484 0.0
H546 H 0.85234 0.34348 0.27683 0.0
H547 H 0.81163 0.35904 0.37655 0.0
H548 H 0.88647 0.5244 0.07268 0.0
H549 H 0.84644 0.54025 0.17028 0.0
H550 H 0.89884 0.47854 0.9376 0.0
H551 H 0.90911 0.42891 0.93796 0.0
C552 C 1.00499 0.21831 1.01004 0.0
C553 C 0.03746 0.22933 0.09402 0.0
C554 C 0.06332 0.16206 0.04965 0.0
C555 C 0.02782 0.149 0.98683 0.0
N556 N 0.96255 0.16685 0.92495 0.0
N557 N 0.09744 0.20942 0.19575 0.0
C558 C 0.99829 0.178 0.9701 0.0
C559 C 0.06658 0.20041 0.11266 0.0
N560 N 0.98043 0.24672 0.96659 0.0
N561 N 0.09497 0.13829 0.04486 0.0
H562 H 0.10183 0.23742 0.23464 0.0
H563 H 0.11714 0.18896 0.23247 0.0
H564 H 0.09469 0.11125 0.99596 0.0
H565 H 0.12255 0.14691 0.07555 0.0
H566 H 0.95818 0.24204 0.89476 0.0
H567 H 0.98513 0.27574 0.99229 0.0
H568 H 0.93858 0.18523 0.92544 0.0
H569 H 0.95601 0.13827 0.89888 0.0
C570 C 0.33614 0.05124 0.15799 0.0
C571 C 0.3095 1.01995 0.1438 0.0
C572 C 0.36094 0.98512 1.0079 0.0
C573 C 0.38642 1.01768 1.00795 0.0
N574 N 0.39197 0.08578 0.06439 0.0
N575 N 0.29405 0.96366 1.00693 0.0
C576 C 0.37205 0.05192 0.07777 0.0
C577 C 0.32124 0.98894 0.054 0.0
N578 N 0.32759 0.08024 0.25122 0.0
N579 N 0.37513 0.94942 0.97509 0.0
H580 H 0.26467 0.96877 0.02495 0.0
H581 H 0.30031 0.94167 0.93446 0.0
H582 H 0.40419 0.94505 0.95064 0.0
H583 H 0.35879 0.92422 0.98508 0.0
H584 H 0.34739 0.1015 0.28053 0.0
H585 H 0.3014 0.08133 0.3061 0.0
H586 H 0.38158 0.11228 0.10184 0.0
H587 H 0.41684 0.08818 1.00277 0.0
C588 C 0.55023 0.33927 0.10259 0.0
C589 C 0.5189 0.3267 0.1881 0.0
C590 C 0.48638 0.38976 0.12707 0.0
C591 C 0.52045 0.4046 0.05894 0.0
N592 N 0.58871 0.39375 0.02605 0.0
N593 N 0.45806 0.34387 0.29358 0.0
C594 C 0.55333 0.3792 0.05842 0.0
C595 C 0.48726 0.3532 0.20322 0.0
N596 N 0.57673 0.31261 0.05831 0.0
N597 N 0.45241 0.40978 0.11553 0.0
H598 H 0.45717 0.31732 0.34543 0.0
H599 H 0.43643 0.36332 0.32395 0.0
H600 H 0.44994 0.43533 0.05851 0.0
H601 H 0.42594 0.39905 0.15036 0.0
H602 H 0.59894 0.31915 0.98788 0.0
H603 H 0.57274 0.28316 0.0769 0.0
H604 H 0.61427 0.37782 0.03555 0.0
H605 H 0.59241 0.42275 1.00124 0.0
C606 C 0.19962 0.4839 0.15839 0.0
C607 C 0.22647 0.51533 0.15783 0.0
C608 C 0.17845 0.55226 1.01414 0.0
C609 C 0.1521 0.52043 1.00902 0.0
N610 N 0.14383 0.45216 0.0513 0.0
N611 N 0.24489 0.57457 0.0465 0.0
C612 C 0.1648 0.4851 0.0732 0.0
C613 C 0.21702 0.54759 0.07115 0.0
N614 N 0.20595 0.4537 0.24754 0.0
N615 N 0.16557 0.5882 0.97821 0.0
H616 H 0.27284 0.57156 0.08684 0.0
H617 H 0.24127 0.59733 0.97614 0.0
H618 H 0.13661 0.59355 0.95441 0.0
H619 H 0.18211 0.61317 0.99056 0.0
H620 H 0.1863 0.4314 0.26339 0.0
H621 H 0.22972 0.45239 0.31444 0.0
H622 H 0.15304 0.4248 0.08266 0.0
H623 H 0.11909 0.45157 0.9888 0.0
C624 C 1.00457 0.85689 0.4631 0.0
C625 C 0.02714 0.82575 0.51679 0.0
C626 C 0.04926 0.87183 0.70476 0.0
C627 C 0.02282 0.90174 0.66328 0.0
N628 N 0.96581 0.91354 0.52021 0.0
N629 N 0.06191 0.80355 0.72101 0.0
C630 C 0.99795 0.89172 0.54656 0.0
C631 C 0.04668 0.83325 0.64615 0.0
N632 N 0.98962 0.8538 0.33098 0.0
N633 N 0.07808 0.87954 0.79814 0.0
H634 H 0.05787 0.77453 0.69326 0.0
H635 H 0.05787 0.77453 0.69326 0.0
H636 H 0.0835 0.9069 0.83963 0.0
H637 H 0.09922 0.85895 0.82088 0.0
H638 H 0.97634 0.87695 0.28002 0.0
H639 H 0.99376 0.8292 0.26847 0.0
H640 H 0.94557 0.90606 0.44364 0.0
H641 H 0.95607 0.93522 0.58814 0.0
C642 C 0.66989 1.0136 0.40954 0.0
C643 C 0.70452 1.02172 0.48193 0.0
C644 C 0.66553 1.01685 0.70285 0.0
C645 C 0.62956 1.01907 0.62913 0.0
N646 N 0.60057 1.02103 0.3947 0.0
N647 N 0.73373 0.03441 0.70674 0.0
C648 C 0.63261 1.01746 0.47736 0.0
C649 C 0.70194 0.02423 0.63139 0.0
N650 N 0.67373 1.00036 0.27513 0.0
N651 N 0.66577 1.00343 0.83719 0.0
H652 H 0.75968 0.0422 0.65869 0.0
H653 H 0.73288 0.03806 0.81541 0.0
H654 H 0.64053 0.99642 0.89174 0.0
H655 H 0.69137 0.99475 0.88578 0.0
H656 H 0.65104 0.98979 0.21389 0.0
H657 H 0.65104 0.98979 0.21389 0.0
H658 H 0.60222 0.02396 0.28595 0.0
H659 H 0.5728 0.02642 0.43167 0.0
C660 C 0.54598 0.69967 0.53466 0.0
C661 C 0.51124 0.72216 0.54607 0.0
C662 C 0.48171 0.6667 0.67329 0.0
C663 C 0.51663 0.64464 0.66811 0.0
N664 N 0.58484 0.64483 0.61491 0.0
N665 N 0.44938 0.72824 0.66197 0.0
C666 C 0.54964 0.66269 0.60544 0.0
C667 C 0.48085 0.70633 0.62902 0.0
N668 N 0.57464 0.71222 0.44725 0.0
N669 N 0.44797 0.64931 0.71131 0.0
H670 H 0.44741 0.75762 0.63765 0.0
H671 H 0.44741 0.75762 0.63765 0.0
H672 H 0.44624 0.61977 0.73323 0.0
H673 H 0.42153 0.66407 0.71138 0.0
H674 H 0.59841 0.69529 0.41836 0.0
H675 H 0.57332 0.73884 0.39633 0.0
H676 H 0.61067 0.65785 0.58447 0.0
H677 H 0.58862 0.61823 0.66459 0.0
C678 C 0.84341 0.49298 0.59847 0.0
C679 C 0.82893 0.52426 0.51624 0.0
C680 C 0.89159 0.55806 0.57466 0.0
C681 C 0.90792 0.52421 0.63986 0.0
N682 N 0.89828 0.45594 0.67853 0.0
N683 N 0.84349 0.58596 0.41495 0.0
C684 C 0.8834 0.49088 0.64121 0.0
C685 C 0.85441 0.5566 0.50173 0.0
N686 N 0.81912 0.46479 0.64285 0.0
N687 N 0.91074 0.59242 0.58676 0.0
H688 H 0.81649 0.58649 0.36599 0.0
H689 H 0.86202 0.60814 0.38451 0.0
H690 H 0.93646 0.59526 0.64281 0.0
H691 H 0.8992 0.61876 0.55394 0.0
H692 H 0.78918 0.46654 0.63021 0.0
H693 H 0.78918 0.46654 0.63021 0.0
H694 H 0.88173 0.43067 0.67757 0.0
H695 H 0.92743 0.45231 0.70238 0.0
loop_
_geom_bond_atom_site_label_1
_geom_bond_atom_site_label_2
_geom_bond_distance
_geom_bond_site_symmetry_2
_ccdc_geom_bond_type
C0 N1 1.317 . S
C0 N2 1.348 . S
C0 C3 1.485 . S
N1 C0 1.317 . S
N1 N5 1.370 . S
N2 C0 1.348 . S
N2 C4 1.346 . S
C3 C0 1.485 . S
C3 H7 0.960 . S
C3 H8 0.961 . S
C3 H9 0.960 . S
C4 N2 1.346 . S
C4 N5 1.307 . S
C4 C6 1.486 . S
N5 N1 1.370 . S
N5 C4 1.307 . S
C6 C4 1.486 . S
C6 H10 0.960 . S
C6 H11 0.960 . S
C6 H12 0.959 . S
H7 C3 0.960 . S
H8 C3 0.961 . S
H9 C3 0.960 . S
H10 C6 0.960 . S
H11 C6 0.960 . S
H12 C6 0.959 . S
C13 N14 1.317 . S
C13 N15 1.348 . S
C13 C16 1.485 . S
N14 C13 1.317 . S
N14 N18 1.371 . S
N15 C13 1.348 . S
N15 C17 1.346 1_655 S
C16 C13 1.485 . S
C16 H20 0.960 1_655 S
C16 H21 0.961 . S
C16 H22 0.960 . S
C17 N15 1.346 1_455 S
C17 N18 1.307 1_455 S
C17 C19 1.486 . S
N18 N14 1.371 . S
N18 C17 1.307 1_655 S
C19 C17 1.486 . S
C19 H23 0.960 1_455 S
C19 H24 0.960 . S
C19 H25 0.959 . S
H20 C16 0.960 1_455 S
H21 C16 0.961 . S
H22 C16 0.960 . S
H23 C19 0.960 1_655 S
H24 C19 0.960 . S
H25 C19 0.959 . S
C26 N27 1.317 . S
C26 N28 1.348 . S
C26 C29 1.485 . S
N27 C26 1.317 . S
N27 N31 1.371 . S
N28 C26 1.348 . S
N28 C30 1.346 1_565 S
C29 C26 1.485 . S
C29 H33 0.960 1_565 S
C29 H34 0.961 . S
C29 H35 0.960 . S
C30 N28 1.346 1_545 S
C30 N31 1.307 1_545 S
C30 C32 1.486 . S
N31 N27 1.371 . S
N31 C30 1.307 1_565 S
C32 C30 1.486 . S
C32 H36 0.960 1_545 S
C32 H37 0.960 . S
C32 H38 0.959 . S
H33 C29 0.960 1_545 S
H34 C29 0.961 . S
H35 C29 0.960 . S
H36 C32 0.960 1_565 S
H37 C32 0.960 . S
H38 C32 0.959 . S
C39 N40 1.317 . S
C39 N41 1.348 . S
C39 C42 1.485 . S
N40 C39 1.317 . S
N40 N44 1.370 . S
N41 C39 1.348 . S
N41 C43 1.346 . S
C42 C39 1.485 . S
C42 H46 0.960 . S
C42 H47 0.961 . S
C42 H48 0.960 . S
C43 N41 1.346 . S
C43 N44 1.307 . S
C43 C45 1.486 . S
N44 N40 1.370 . S
N44 C43 1.307 . S
C45 C43 1.486 . S
C45 H49 0.960 . S
C45 H50 0.960 . S
C45 H51 0.959 . S
H46 C42 0.960 . S
H47 C42 0.961 . S
H48 C42 0.960 . S
H49 C45 0.960 . S
H50 C45 0.960 . S
H51 C45 0.959 . S
C52 N53 1.317 . S
C52 N54 1.348 1_556 S
C52 C55 1.485 . S
N53 C52 1.317 . S
N53 N57 1.370 1_556 S
N54 C52 1.348 1_554 S
N54 C56 1.346 . S
C55 C52 1.485 . S
C55 H59 0.960 . S
C55 H60 0.961 . S
C55 H61 0.960 . S
C56 N54 1.346 . S
C56 N57 1.307 . S
C56 C58 1.486 . S
N57 N53 1.370 1_554 S
N57 C56 1.307 . S
C58 C56 1.486 . S
C58 H62 0.960 . S
C58 H63 0.960 . S
C58 H64 0.959 . S
H59 C55 0.960 . S
H60 C55 0.961 . S
H61 C55 0.960 . S
H62 C58 0.960 . S
H63 C58 0.960 . S
H64 C58 0.959 . S
C65 N66 1.317 . S
C65 N67 1.350 1_556 S
C65 C68 1.485 . S
N66 C65 1.317 . S
N66 N70 1.371 1_556 S
N67 C65 1.350 1_554 S
N67 C69 1.345 1_655 S
C68 C65 1.485 . S
C68 H72 0.960 1_655 S
C68 H73 0.961 . S
C68 H74 0.960 . S
C69 N67 1.345 1_455 S
C69 N70 1.307 1_455 S
C69 C71 1.487 . S
N70 N66 1.371 1_554 S
N70 C69 1.307 1_655 S
C71 C69 1.487 . S
C71 H75 0.960 1_455 S
C71 H76 0.960 . S
C71 H77 0.959 . S
H72 C68 0.960 1_455 S
H73 C68 0.961 . S
H74 C68 0.960 . S
H75 C71 0.960 1_655 S
H76 C71 0.960 . S
H77 C71 0.959 . S
C78 N79 1.317 . S
C78 N80 1.350 1_556 S
C78 C81 1.485 . S
N79 C78 1.317 . S
N79 N83 1.371 1_556 S
N80 C78 1.350 1_554 S
N80 C82 1.345 1_565 S
C81 C78 1.485 . S
C81 H85 0.960 1_565 S
C81 H86 0.961 . S
C81 H87 0.960 . S
C82 N80 1.345 1_545 S
C82 N83 1.307 1_545 S
C82 C84 1.487 . S
N83 N79 1.371 1_554 S
N83 C82 1.307 1_565 S
C84 C82 1.487 . S
C84 H88 0.960 1_545 S
C84 H89 0.960 . S
C84 H90 0.959 . S
H85 C81 0.960 1_545 S
H86 C81 0.961 . S
H87 C81 0.960 . S
H88 C84 0.960 1_565 S
H89 C84 0.960 . S
H90 C84 0.959 . S
C91 N92 1.317 . S
C91 N93 1.348 1_556 S
C91 C94 1.485 . S
N92 C91 1.317 . S
N92 N96 1.370 1_556 S
N93 C91 1.348 1_554 S
N93 C95 1.346 . S
C94 C91 1.485 . S
C94 H98 0.960 . S
C94 H99 0.961 . S
C94 H100 0.960 . S
C95 N93 1.346 . S
C95 N96 1.307 . S
C95 C97 1.486 . S
N96 N92 1.370 1_554 S
N96 C95 1.307 . S
C97 C95 1.486 . S
C97 H101 0.960 . S
C97 H102 0.960 . S
C97 H103 0.959 . S
H98 C94 0.960 . S
H99 C94 0.961 . S
H100 C94 0.960 . S
H101 C97 0.960 . S
H102 C97 0.960 . S
H103 C97 0.959 . S
C104 Eu105 2.835 . S
C104 C106 1.500 . S
C104 O124 1.257 . S
C104 O125 1.260 . S
Eu105 C104 2.835 . S
Eu105 O124 2.473 . S
Eu105 O125 2.480 . S
Eu105 O126 2.430 . S
Eu105 O127 2.670 1_545 S
Eu105 O128 2.394 . S
Eu105 O133 2.355 1_655 S
Eu105 O135 2.374 1_545 S
C106 C104 1.500 . S
C106 C107 1.377 . S
C106 C111 1.377 . S
C107 C106 1.377 . S
C107 C108 1.395 . S
C107 H136 0.931 . S
C108 C107 1.395 . S
C108 C109 1.383 . S
C108 H137 0.931 . S
C109 C108 1.383 . S
C109 C110 1.394 . S
C110 C109 1.394 . S
C110 C111 1.378 . S
C110 H138 0.931 1_655 S
C111 C106 1.377 . S
C111 C110 1.378 . S
C111 H139 0.931 1_655 S
C112 O126 1.259 . S
C112 O127 1.270 1_545 S
C113 O128 1.251 1_455 S
C113 O129 1.251 . S
C114 Eu115 2.835 1_554 S
C114 C116 1.500 . S
C114 O130 1.257 . S
C114 O131 1.260 . S
Eu115 C114 2.835 1_556 S
Eu115 O127 2.355 1_455 S
Eu115 O129 2.374 1_565 S
Eu115 O130 2.473 1_556 S
Eu115 O131 2.480 1_556 S
Eu115 O132 2.430 . S
Eu115 O133 2.670 1_565 S
Eu115 O134 2.394 . S
C116 C114 1.500 . S
C116 C117 1.377 . S
C116 C121 1.377 . S
C117 C116 1.377 . S
C117 C118 1.395 . S
C117 H140 0.931 . S
C118 C117 1.395 . S
C118 C119 1.383 . S
C118 H141 0.931 . S
C119 C118 1.383 . S
C119 C120 1.394 . S
C120 C119 1.394 . S
C120 C121 1.378 . S
C120 H142 0.931 1_455 S
C121 C116 1.377 . S
C121 C120 1.378 . S
C121 H143 0.931 1_455 S
C122 O132 1.259 . S
C122 O133 1.270 1_565 S
C123 O134 1.251 1_655 S
C123 O135 1.251 . S
O124 C104 1.257 . S
O124 Eu105 2.473 . S
O125 C104 1.260 . S
O125 Eu105 2.480 . S
O126 Eu105 2.430 . S
O126 C112 1.259 . S
O127 Eu105 2.670 1_565 S
O127 C112 1.270 1_565 S
O127 Eu115 2.355 1_655 S
O128 Eu105 2.394 . S
O128 C113 1.251 1_655 S
O129 C113 1.251 . S
O129 Eu115 2.374 1_545 S
O130 C114 1.257 . S
O130 Eu115 2.473 1_554 S
O131 C114 1.260 . S
O131 Eu115 2.480 1_554 S
O132 Eu115 2.430 . S
O132 C122 1.259 . S
O133 Eu105 2.355 1_455 S
O133 Eu115 2.670 1_545 S
O133 C122 1.270 1_545 S
O134 Eu115 2.394 . S
O134 C123 1.251 1_455 S
O135 Eu105 2.374 1_565 S
O135 C123 1.251 . S
H136 C107 0.931 . S
H137 C108 0.931 . S
H138 C110 0.931 1_455 S
H139 C111 0.931 1_455 S
H140 C117 0.931 . S
H141 C118 0.931 . S
H142 C120 0.931 1_655 S
H143 C121 0.931 1_655 S
C144 Eu145 2.835 . S
C144 C146 1.500 . S
C144 O164 1.257 . S
C144 O165 1.260 . S
Eu145 C144 2.835 . S
Eu145 O164 2.473 . S
Eu145 O165 2.480 . S
Eu145 O166 2.430 . S
Eu145 O167 2.670 . S
Eu145 O168 2.394 . S
Eu145 O173 2.355 1_565 S
Eu145 O175 2.374 . S
C146 C144 1.500 . S
C146 C147 1.377 . S
C146 C151 1.377 . S
C147 C146 1.377 . S
C147 C148 1.395 . S
C147 H176 0.931 . S
C148 C147 1.395 . S
C148 C149 1.383 . S
C148 H177 0.931 . S
C149 C148 1.383 . S
C149 C150 1.394 . S
C150 C149 1.394 . S
C150 C151 1.378 . S
C150 H178 0.931 1_565 S
C151 C146 1.377 . S
C151 C150 1.378 . S
C151 H179 0.931 1_565 S
C152 O166 1.259 . S
C152 O167 1.270 . S
C153 O168 1.251 1_545 S
C153 O169 1.251 . S
C154 Eu155 2.835 1_554 S
C154 C156 1.500 . S
C154 O170 1.257 . S
C154 O171 1.260 . S
Eu155 C154 2.835 1_556 S
Eu155 O167 2.355 1_545 S
Eu155 O169 2.374 . S
Eu155 O170 2.473 1_556 S
Eu155 O171 2.480 1_556 S
Eu155 O172 2.430 . S
Eu155 O173 2.670 . S
Eu155 O174 2.394 . S
C156 C154 1.500 . S
C156 C157 1.377 . S
C156 C161 1.377 . S
C157 C156 1.377 . S
C157 C158 1.395 . S
C157 H180 0.931 . S
C158 C157 1.395 . S
C158 C159 1.383 . S
C158 H181 0.931 . S
C159 C158 1.383 . S
C159 C160 1.394 . S
C160 C159 1.394 . S
C160 C161 1.378 . S
C160 H182 0.931 1_545 S
C161 C156 1.377 . S
C161 C160 1.378 . S
C161 H183 0.931 1_545 S
C162 O172 1.259 . S
C162 O173 1.270 . S
C163 O174 1.251 1_565 S
C163 O175 1.251 . S
O164 C144 1.257 . S
O164 Eu145 2.473 . S
O165 C144 1.260 . S
O165 Eu145 2.480 . S
O166 Eu145 2.430 . S
O166 C152 1.259 . S
O167 Eu145 2.670 . S
O167 C152 1.270 . S
O167 Eu155 2.355 1_565 S
O168 Eu145 2.394 . S
O168 C153 1.251 1_565 S
O169 C153 1.251 . S
O169 Eu155 2.374 . S
O170 C154 1.257 . S
O170 Eu155 2.473 1_554 S
O171 C154 1.260 . S
O171 Eu155 2.480 1_554 S
O172 Eu155 2.430 . S
O172 C162 1.259 . S
O173 Eu145 2.355 1_545 S
O173 Eu155 2.670 . S
O173 C162 1.270 . S
O174 Eu155 2.394 . S
O174 C163 1.251 1_545 S
O175 Eu145 2.374 . S
O175 C163 1.251 . S
H176 C147 0.931 . S
H177 C148 0.931 . S
H178 C150 0.931 1_545 S
H179 C151 0.931 1_545 S
H180 C157 0.931 . S
H181 C158 0.931 . S
H182 C160 0.931 1_565 S
H183 C161 0.931 1_565 S
C184 Eu185 2.835 . S
C184 C186 1.500 . S
C184 O204 1.257 . S
C184 O205 1.260 . S
Eu185 C184 2.835 . S
Eu185 O204 2.473 . S
Eu185 O205 2.480 . S
Eu185 O206 2.430 . S
Eu185 O207 2.670 . S
Eu185 O208 2.394 . S
Eu185 O213 2.355 . S
Eu185 O215 2.374 . S
C186 C184 1.500 . S
C186 C187 1.377 . S
C186 C191 1.377 . S
C187 C186 1.377 . S
C187 C188 1.395 . S
C187 H216 0.931 . S
C188 C187 1.395 . S
C188 C189 1.383 . S
C188 H217 0.931 . S
C189 C188 1.383 . S
C189 C190 1.394 . S
C190 C189 1.394 . S
C190 C191 1.378 . S
C190 H218 0.931 . S
C191 C186 1.377 . S
C191 C190 1.378 . S
C191 H219 0.931 . S
C192 O206 1.259 . S
C192 O207 1.270 . S
C193 O208 1.251 . S
C193 O209 1.251 . S
C194 Eu195 2.835 1_554 S
C194 C196 1.500 . S
C194 O210 1.257 . S
C194 O211 1.260 . S
Eu195 C194 2.835 1_556 S
Eu195 O207 2.355 . S
Eu195 O209 2.374 . S
Eu195 O210 2.473 1_556 S
Eu195 O211 2.480 1_556 S
Eu195 O212 2.430 . S
Eu195 O213 2.670 . S
Eu195 O214 2.394 . S
C196 C194 1.500 . S
C196 C197 1.377 . S
C196 C201 1.377 . S
C197 C196 1.377 . S
C197 C198 1.395 . S
C197 H220 0.931 . S
C198 C197 1.395 . S
C198 C199 1.383 . S
C198 H221 0.931 . S
C199 C198 1.383 . S
C199 C200 1.394 . S
C200 C199 1.394 . S
C200 C201 1.378 . S
C200 H222 0.931 . S
C201 C196 1.377 . S
C201 C200 1.378 . S
C201 H223 0.931 . S
C202 O212 1.259 . S
C202 O213 1.270 . S
C203 O214 1.251 . S
C203 O215 1.251 . S
O204 C184 1.257 . S
O204 Eu185 2.473 . S
O205 C184 1.260 . S
O205 Eu185 2.480 . S
O206 Eu185 2.430 . S
O206 C192 1.259 . S
O207 Eu185 2.670 . S
O207 C192 1.270 . S
O207 Eu195 2.355 . S
O208 Eu185 2.394 . S
O208 C193 1.251 . S
O209 C193 1.251 . S
O209 Eu195 2.374 . S
O210 C194 1.257 . S
O210 Eu195 2.473 1_554 S
O211 C194 1.260 . S
O211 Eu195 2.480 1_554 S
O212 Eu195 2.430 . S
O212 C202 1.259 . S
O213 Eu185 2.355 . S
O213 Eu195 2.670 . S
O213 C202 1.270 . S
O214 Eu195 2.394 . S
O214 C203 1.251 . S
O215 Eu185 2.374 . S
O215 C203 1.251 . S
H216 C187 0.931 . S
H217 C188 0.931 . S
H218 C190 0.931 . S
H219 C191 0.931 . S
H220 C197 0.931 . S
H221 C198 0.931 . S
H222 C200 0.931 . S
H223 C201 0.931 . S
C224 Eu225 2.835 . S
C224 C226 1.500 . S
C224 O244 1.257 . S
C224 O245 1.260 . S
Eu225 C224 2.835 . S
Eu225 O244 2.473 . S
Eu225 O245 2.480 . S
Eu225 O246 2.430 . S
Eu225 O247 2.670 1_455 S
Eu225 O248 2.394 . S
Eu225 O253 2.355 . S
Eu225 O255 2.374 1_455 S
C226 C224 1.500 . S
C226 C227 1.377 . S
C226 C231 1.377 . S
C227 C226 1.377 . S
C227 C228 1.395 . S
C227 H256 0.931 . S
C228 C227 1.395 . S
C228 C229 1.383 . S
C228 H257 0.931 . S
C229 C228 1.383 . S
C229 C230 1.394 . S
C230 C229 1.394 . S
C230 C231 1.378 . S
C230 H258 0.931 . S
C231 C226 1.377 . S
C231 C230 1.378 . S
C231 H259 0.931 . S
C232 O246 1.263 . S
C232 O247 1.267 1_455 S
C233 O248 1.251 . S
C233 O249 1.251 . S
C234 Eu235 2.835 1_554 S
C234 C236 1.500 . S
C234 O250 1.257 . S
C234 O251 1.260 . S
Eu235 C234 2.835 1_556 S
Eu235 O247 2.355 . S
Eu235 O249 2.374 1_655 S
Eu235 O250 2.473 1_556 S
Eu235 O251 2.480 1_556 S
Eu235 O252 2.430 . S
Eu235 O253 2.670 1_655 S
Eu235 O254 2.394 . S
C236 C234 1.500 . S
C236 C237 1.377 . S
C236 C241 1.377 . S
C237 C236 1.377 . S
C237 C238 1.395 . S
C237 H260 0.931 . S
C238 C237 1.395 . S
C238 C239 1.383 . S
C238 H261 0.931 . S
C239 C238 1.383 . S
C239 C240 1.394 . S
C240 C239 1.394 . S
C240 C241 1.378 . S
C240 H262 0.931 . S
C241 C236 1.377 . S
C241 C240 1.378 . S
C241 H263 0.931 . S
C242 O252 1.260 . S
C242 O253 1.269 1_655 S
C243 O254 1.251 . S
C243 O255 1.251 . S
O244 C224 1.257 . S
O244 Eu225 2.473 . S
O245 C224 1.260 . S
O245 Eu225 2.480 . S
O246 Eu225 2.430 . S
O246 C232 1.263 . S
O247 Eu225 2.670 1_655 S
O247 C232 1.267 1_655 S
O247 Eu235 2.355 . S
O248 Eu225 2.394 . S
O248 C233 1.251 . S
O249 C233 1.251 . S
O249 Eu235 2.374 1_455 S
O250 C234 1.257 . S
O250 Eu235 2.473 1_554 S
O251 C234 1.260 . S
O251 Eu235 2.480 1_554 S
O252 Eu235 2.430 . S
O252 C242 1.260 . S
O253 Eu225 2.355 . S
O253 Eu235 2.670 1_455 S
O253 C242 1.269 1_455 S
O254 Eu235 2.394 . S
O254 C243 1.251 . S
O255 Eu225 2.374 1_655 S
O255 C243 1.251 . S
H256 C227 0.931 . S
H257 C228 0.931 . S
H258 C230 0.931 . S
H259 C231 0.931 . S
H260 C237 0.931 . S
H261 C238 0.931 . S
H262 C240 0.931 . S
H263 C241 0.931 . S
C264 C265 1.360 1_545 S
C264 C270 1.379 . S
C264 N272 1.356 . S
C265 C264 1.360 1_565 S
C265 C271 1.366 . S
C266 C267 1.381 . S
C266 C271 1.379 . S
C266 N273 1.356 . S
C267 C266 1.381 . S
C267 C270 1.345 1_565 S
N268 C270 1.356 . S
N268 H280 0.984 . S
N268 H281 0.985 . S
N269 C271 1.356 . S
N269 H274 0.984 . S
N269 H275 0.985 . S
C270 C264 1.379 . S
C270 C267 1.345 1_545 S
C270 N268 1.356 . S
C271 C265 1.366 . S
C271 C266 1.379 . S
C271 N269 1.356 . S
N272 C264 1.356 . S
N272 H278 0.984 . S
N272 H279 0.984 . S
N273 C266 1.356 . S
N273 H276 0.984 . S
N273 H277 0.985 . S
H274 N269 0.984 . S
H275 N269 0.985 . S
H276 N273 0.984 . S
H277 N273 0.985 . S
H278 N272 0.984 . S
H279 N272 0.984 . S
H280 N268 0.984 . S
H281 N268 0.985 . S
C282 C283 1.363 . S
C282 C288 1.379 . S
C282 N290 1.356 . S
C283 C282 1.363 . S
C283 C289 1.363 . S
C284 C285 1.363 . S
C284 C289 1.379 . S
C284 N291 1.356 . S
C285 C284 1.363 . S
C285 C288 1.363 . S
N286 C288 1.356 . S
N286 H298 0.984 . S
N286 H299 0.985 . S
N287 C289 1.356 . S
N287 H292 0.984 . S
N287 H293 0.985 . S
C288 C282 1.379 . S
C288 C285 1.363 . S
C288 N286 1.356 . S
C289 C283 1.363 . S
C289 C284 1.379 . S
C289 N287 1.356 . S
N290 C282 1.356 . S
N290 H296 0.984 . S
N290 H297 0.984 . S
N291 C284 1.356 . S
N291 H294 0.984 . S
N291 H295 0.985 . S
H292 N287 0.984 . S
H293 N287 0.985 . S
H294 N291 0.984 . S
H295 N291 0.985 . S
H296 N290 0.984 . S
H297 N290 0.984 . S
H298 N286 0.984 . S
H299 N286 0.985 . S
C300 C301 1.363 . S
C300 C306 1.379 . S
C300 N308 1.356 . S
C301 C300 1.363 . S
C301 C307 1.363 . S
C302 C303 1.363 . S
C302 C307 1.379 . S
C302 N309 1.356 . S
C303 C302 1.363 . S
C303 C306 1.363 . S
N304 C306 1.356 . S
N304 H316 0.984 . S
N304 H317 0.985 . S
N305 C307 1.356 . S
N305 H310 0.984 . S
N305 H311 0.985 . S
C306 C300 1.379 . S
C306 C303 1.363 . S
C306 N304 1.356 . S
C307 C301 1.363 . S
C307 C302 1.379 . S
C307 N305 1.356 . S
N308 C300 1.356 . S
N308 H314 0.984 . S
N308 H315 0.984 . S
N309 C302 1.356 . S
N309 H312 0.984 . S
N309 H313 0.985 . S
H310 N305 0.984 . S
H311 N305 0.985 . S
H312 N309 0.984 . S
H313 N309 0.985 . S
H314 N308 0.984 . S
H315 N308 0.984 . S
H316 N304 0.984 . S
H317 N304 0.985 . S
C318 C319 1.356 1_655 S
C318 C324 1.379 . S
C318 N326 1.356 . S
C319 C318 1.356 1_455 S
C319 C325 1.371 . S
C320 C321 1.386 . S
C320 C325 1.379 . S
C320 N327 1.356 . S
C321 C320 1.386 . S
C321 C324 1.340 1_455 S
N322 C324 1.356 . S
N322 H334 0.984 . S
N322 H335 0.985 . S
N323 C325 1.356 . S
N323 H328 0.984 . S
N323 H329 0.985 . S
C324 C318 1.379 . S
C324 C321 1.340 1_655 S
C324 N322 1.356 . S
C325 C319 1.371 . S
C325 C320 1.379 . S
C325 N323 1.356 . S
N326 C318 1.356 . S
N326 H332 0.984 . S
N326 H333 0.984 . S
N327 C320 1.356 . S
N327 H330 0.984 . S
N327 H331 0.985 . S
H328 N323 0.984 . S
H329 N323 0.985 . S
H330 N327 0.984 . S
H331 N327 0.985 . S
H332 N326 0.984 . S
H333 N326 0.984 . S
H334 N322 0.984 . S
H335 N322 0.985 . S
C336 C337 1.371 . S
C336 C342 1.379 . S
C336 N344 1.356 . S
C337 C336 1.371 . S
C337 C343 1.355 1_545 S
C338 C339 1.363 1_565 S
C338 C343 1.379 . S
C338 N345 1.356 . S
C339 C338 1.363 1_545 S
C339 C342 1.363 . S
N340 C342 1.356 . S
N340 H352 0.984 . S
N340 H353 0.985 1_554 S
N341 C343 1.356 . S
N341 H346 0.984 . S
N341 H347 0.985 . S
C342 C336 1.379 . S
C342 C339 1.363 . S
C342 N340 1.356 . S
C343 C337 1.355 1_565 S
C343 C338 1.379 . S
C343 N341 1.356 . S
N344 C336 1.356 . S
N344 H350 0.984 . S
N344 H351 0.984 . S
N345 C338 1.356 . S
N345 H348 0.984 . S
N345 H349 0.985 . S
H346 N341 0.984 . S
H347 N341 0.985 . S
H348 N345 0.984 . S
H349 N345 0.985 . S
H350 N344 0.984 . S
H351 N344 0.984 . S
H352 N340 0.984 . S
H353 N340 0.985 1_556 S
C354 C355 1.363 . S
C354 C360 1.379 . S
C354 N362 1.356 . S
C355 C354 1.363 . S
C355 C361 1.363 . S
C356 C357 1.363 . S
C356 C361 1.379 . S
C356 N363 1.356 . S
C357 C356 1.363 . S
C357 C360 1.363 . S
N358 C360 1.356 . S
N358 H370 0.984 . S
N358 H371 0.985 1_554 S
N359 C361 1.356 . S
N359 H364 0.984 . S
N359 H365 0.985 . S
C360 C354 1.379 . S
C360 C357 1.363 . S
C360 N358 1.356 . S
C361 C355 1.363 . S
C361 C356 1.379 . S
C361 N359 1.356 . S
N362 C354 1.356 . S
N362 H368 0.984 . S
N362 H369 0.984 . S
N363 C356 1.356 . S
N363 H366 0.984 . S
N363 H367 0.985 . S
H364 N359 0.984 . S
H365 N359 0.985 . S
H366 N363 0.984 . S
H367 N363 0.985 . S
H368 N362 0.984 . S
H369 N362 0.984 . S
H370 N358 0.984 . S
H371 N358 0.985 1_556 S
C372 C373 1.363 . S
C372 C378 1.379 . S
C372 N380 1.356 . S
C373 C372 1.363 . S
C373 C379 1.363 . S
C374 C375 1.363 . S
C374 C379 1.379 . S
C374 N381 1.356 . S
C375 C374 1.363 . S
C375 C378 1.363 . S
N376 C378 1.356 . S
N376 H388 0.984 . S
N376 H389 0.985 . S
N377 C379 1.356 . S
N377 H382 0.984 . S
N377 H383 0.985 . S
C378 C372 1.379 . S
C378 C375 1.363 . S
C378 N376 1.356 . S
C379 C373 1.363 . S
C379 C374 1.379 . S
C379 N377 1.356 . S
N380 C372 1.356 . S
N380 H386 0.984 . S
N380 H387 0.984 . S
N381 C374 1.356 . S
N381 H384 0.984 1_554 S
N381 H385 0.985 . S
H382 N377 0.984 . S
H383 N377 0.985 . S
H384 N381 0.984 1_556 S
H385 N381 0.985 . S
H386 N380 0.984 . S
H387 N380 0.984 . S
H388 N376 0.984 . S
H389 N376 0.985 . S
C390 C391 1.370 . S
C390 C396 1.379 . S
C390 N398 1.356 . S
C391 C390 1.370 . S
C391 C397 1.356 1_655 S
C392 C393 1.343 1_455 S
C392 C397 1.379 . S
C392 N399 1.356 . S
C393 C392 1.343 1_655 S
C393 C396 1.383 . S
N394 C396 1.356 . S
N394 H406 0.984 . S
N394 H407 0.985 1_554 S
N395 C397 1.356 . S
N395 H400 0.984 . S
N395 H401 0.985 . S
C396 C390 1.379 . S
C396 C393 1.383 . S
C396 N394 1.356 . S
C397 C391 1.356 1_455 S
C397 C392 1.379 . S
C397 N395 1.356 . S
N398 C390 1.356 . S
N398 H404 0.984 . S
N398 H405 0.984 . S
N399 C392 1.356 . S
N399 H402 0.984 . S
N399 H403 0.985 . S
H400 N395 0.984 . S
H401 N395 0.985 . S
H402 N399 0.984 . S
H403 N399 0.985 . S
H404 N398 0.984 . S
H405 N398 0.984 . S
H406 N394 0.984 . S
H407 N394 0.985 1_556 S
C408 C409 1.360 1_455 S
C408 C414 1.379 1_455 S
C408 N416 1.356 . S
C409 C408 1.360 1_655 S
C409 C415 1.390 . S
C410 C411 1.363 . S
C410 C415 1.379 . S
C410 N417 1.356 . S
C411 C410 1.363 . S
C411 C414 1.363 . S
N412 C414 1.356 . S
N412 H424 0.984 . S
N412 H425 0.985 . S
N413 C415 1.356 1_556 S
N413 H418 0.984 . S
N413 H419 0.985 . S
C414 C408 1.379 1_655 S
C414 C411 1.363 . S
C414 N412 1.356 . S
C415 C409 1.390 . S
C415 C410 1.379 . S
C415 N413 1.356 1_554 S
N416 C408 1.356 . S
N416 H422 0.984 . S
N416 H423 0.984 . S
N417 C410 1.356 . S
N417 H420 0.984 . S
N417 H421 0.985 . S
H418 N413 0.984 . S
H419 N413 0.985 . S
H420 N417 0.984 . S
H421 N417 0.985 . S
H422 N416 0.984 . S
H423 N416 0.984 . S
H424 N412 0.984 . S
H425 N412 0.985 . S
C426 C427 1.385 . S
C426 C432 1.379 . S
C426 N434 1.356 . S
C427 C426 1.385 . S
C427 C433 1.357 1_565 S
C428 C429 1.363 . S
C428 C433 1.379 1_565 S
C428 N435 1.356 . S
C429 C428 1.363 . S
C429 C432 1.363 . S
N430 C432 1.356 . S
N430 H442 0.984 . S
N430 H443 0.985 . S
N431 C433 1.356 . S
N431 H436 0.984 . S
N431 H437 0.985 . S
C432 C426 1.379 . S
C432 C429 1.363 . S
C432 N430 1.356 . S
C433 C427 1.357 1_545 S
C433 C428 1.379 1_545 S
C433 N431 1.356 . S
N434 C426 1.356 . S
N434 H440 0.984 . S
N434 H441 0.984 . S
N435 C428 1.356 . S
N435 H438 0.984 . S
N435 H439 0.985 1_565 S
H436 N431 0.984 . S
H437 N431 0.985 . S
H438 N435 0.984 . S
H439 N435 0.985 1_545 S
H440 N434 0.984 . S
H441 N434 0.984 . S
H442 N430 0.984 . S
H443 N430 0.985 . S
C444 C445 1.363 . S
C444 C450 1.379 . S
C444 N452 1.356 1_554 S
C445 C444 1.363 . S
C445 C451 1.363 . S
C446 C447 1.363 . S
C446 C451 1.379 . S
C446 N453 1.356 . S
C447 C446 1.363 . S
C447 C450 1.363 . S
N448 C450 1.356 . S
N448 H460 0.984 1_554 S
N448 H461 0.985 . S
N449 C451 1.356 . S
N449 H454 0.984 . S
N449 H455 0.985 . S
C450 C444 1.379 . S
C450 C447 1.363 . S
C450 N448 1.356 . S
C451 C445 1.363 . S
C451 C446 1.379 . S
C451 N449 1.356 . S
N452 C444 1.356 1_556 S
N452 H458 0.984 . S
N452 H459 0.984 . S
N453 C446 1.356 . S
N453 H456 0.984 . S
N453 H457 0.985 . S
H454 N449 0.984 . S
H455 N449 0.985 . S
H456 N453 0.984 . S
H457 N453 0.985 . S
H458 N452 0.984 . S
H459 N452 0.984 . S
H460 N448 0.984 1_556 S
H461 N448 0.985 . S
C462 C463 1.363 . S
C462 C468 1.379 . S
C462 N470 1.356 . S
C463 C462 1.363 . S
C463 C469 1.363 . S
C464 C465 1.363 . S
C464 C469 1.379 . S
C464 N471 1.356 . S
C465 C464 1.363 . S
C465 C468 1.363 . S
N466 C468 1.356 . S
N466 H478 0.984 . S
N466 H479 0.985 . S
N467 C469 1.356 . S
N467 H472 0.984 . S
N467 H473 0.985 . S
C468 C462 1.379 . S
C468 C465 1.363 . S
C468 N466 1.356 . S
C469 C463 1.363 . S
C469 C464 1.379 . S
C469 N467 1.356 . S
N470 C462 1.356 . S
N470 H476 0.984 . S
N470 H477 0.984 . S
N471 C464 1.356 . S
N471 H474 0.984 . S
N471 H475 0.985 . S
H472 N467 0.984 . S
H473 N467 0.985 . S
H474 N471 0.984 . S
H475 N471 0.985 . S
H476 N470 0.984 . S
H477 N470 0.984 . S
H478 N466 0.984 . S
H479 N466 0.985 . S
C480 C481 1.378 . S
C480 C486 1.379 . S
C480 N488 1.356 . S
C481 C480 1.378 . S
C481 C487 1.372 . S
C482 C483 1.363 . S
C482 C487 1.379 . S
C482 N489 1.356 . S
C483 C482 1.363 . S
C483 C486 1.363 . S
N484 C486 1.356 . S
N484 H496 0.984 . S
N484 H497 0.985 . S
N485 C487 1.356 1_655 S
N485 H490 0.984 . S
N485 H491 0.985 . S
C486 C480 1.379 . S
C486 C483 1.363 . S
C486 N484 1.356 . S
C487 C481 1.372 . S
C487 C482 1.379 . S
C487 N485 1.356 1_455 S
N488 C480 1.356 . S
N488 H494 0.984 . S
N488 H495 0.984 1_455 S
N489 C482 1.356 . S
N489 H492 0.984 . S
N489 H493 0.985 . S
H490 N485 0.984 . S
H491 N485 0.985 . S
H492 N489 0.984 . S
H493 N489 0.985 . S
H494 N488 0.984 . S
H495 N488 0.984 1_655 S
H496 N484 0.984 . S
H497 N484 0.985 . S
C498 C499 1.375 . S
C498 C504 1.379 . S
C498 N506 1.356 1_545 S
C499 C498 1.375 . S
C499 C505 1.373 . S
C500 C501 1.363 . S
C500 C505 1.379 . S
C500 N507 1.356 . S
C501 C500 1.363 . S
C501 C504 1.363 . S
N502 C504 1.356 . S
N502 H514 0.984 . S
N502 H515 0.985 . S
N503 C505 1.356 1_565 S
N503 H508 0.984 . S
N503 H509 0.985 . S
C504 C498 1.379 . S
C504 C501 1.363 . S
C504 N502 1.356 . S
C505 C499 1.373 . S
C505 C500 1.379 . S
C505 N503 1.356 1_545 S
N506 C498 1.356 1_565 S
N506 H512 0.984 1_565 S
N506 H513 0.984 . S
N507 C500 1.356 . S
N507 H510 0.984 . S
N507 H511 0.985 . S
H508 N503 0.984 . S
H509 N503 0.985 . S
H510 N507 0.984 . S
H511 N507 0.985 . S
H512 N506 0.984 1_545 S
H513 N506 0.984 . S
H514 N502 0.984 . S
H515 N502 0.985 . S
C516 C517 1.363 . S
C516 C522 1.379 . S
C516 N524 1.356 . S
C517 C516 1.363 . S
C517 C523 1.363 . S
C518 C519 1.363 . S
C518 C523 1.379 . S
C518 N525 1.356 . S
C519 C518 1.363 . S
C519 C522 1.363 . S
N520 C522 1.356 . S
N520 H532 0.984 . S
N520 H533 0.985 . S
N521 C523 1.356 . S
N521 H526 0.984 . S
N521 H527 0.985 . S
C522 C516 1.379 . S
C522 C519 1.363 . S
C522 N520 1.356 . S
C523 C517 1.363 . S
C523 C518 1.379 . S
C523 N521 1.356 . S
N524 C516 1.356 . S
N524 H530 0.984 . S
N524 H531 0.984 . S
N525 C518 1.356 . S
N525 H528 0.984 . S
N525 H529 0.985 . S
H526 N521 0.984 . S
H527 N521 0.985 . S
H528 N525 0.984 . S
H529 N525 0.985 . S
H530 N524 0.984 . S
H531 N524 0.984 . S
H532 N520 0.984 . S
H533 N520 0.985 . S
C534 C535 1.363 . S
C534 C540 1.379 . S
C534 N542 1.356 . S
C535 C534 1.363 . S
C535 C541 1.363 . S
C536 C537 1.363 . S
C536 C541 1.379 . S
C536 N543 1.356 . S
C537 C536 1.363 . S
C537 C540 1.363 . S
N538 C540 1.356 . S
N538 H550 0.984 . S
N538 H551 0.985 . S
N539 C541 1.356 . S
N539 H544 0.984 . S
N539 H545 0.985 . S
C540 C534 1.379 . S
C540 C537 1.363 . S
C540 N538 1.356 . S
C541 C535 1.363 . S
C541 C536 1.379 . S
C541 N539 1.356 . S
N542 C534 1.356 . S
N542 H548 0.984 . S
N542 H549 0.984 . S
N543 C536 1.356 . S
N543 H546 0.984 . S
N543 H547 0.985 . S
H544 N539 0.984 . S
H545 N539 0.985 . S
H546 N543 0.984 . S
H547 N543 0.985 . S
H548 N542 0.984 . S
H549 N542 0.984 . S
H550 N538 0.984 . S
H551 N538 0.985 . S
C552 C553 1.363 1_655 S
C552 C558 1.379 . S
C552 N560 1.356 . S
C553 C552 1.363 1_455 S
C553 C559 1.363 1_556 S
C554 C555 1.363 1_554 S
C554 C559 1.379 . S
C554 N561 1.356 . S
C555 C554 1.363 1_556 S
C555 C558 1.363 1_455 S
N556 C558 1.356 . S
N556 H568 0.984 . S
N556 H569 0.985 . S
N557 C559 1.356 . S
N557 H562 0.984 . S
N557 H563 0.985 . S
C558 C552 1.379 . S
C558 C555 1.363 1_655 S
C558 N556 1.356 . S
C559 C553 1.363 1_554 S
C559 C554 1.379 . S
C559 N557 1.356 . S
N560 C552 1.356 . S
N560 H566 0.984 . S
N560 H567 0.984 . S
N561 C554 1.356 . S
N561 H564 0.984 . S
N561 H565 0.985 . S
H562 N557 0.984 . S
H563 N557 0.985 . S
H564 N561 0.984 . S
H565 N561 0.985 . S
H566 N560 0.984 . S
H567 N560 0.984 . S
H568 N556 0.984 . S
H569 N556 0.985 . S
C570 C571 1.363 1_554 S
C570 C576 1.379 . S
C570 N578 1.356 . S
C571 C570 1.363 1_556 S
C571 C577 1.363 1_545 S
C572 C573 1.363 1_565 S
C572 C577 1.379 . S
C572 N579 1.356 . S
C573 C572 1.363 1_545 S
C573 C576 1.363 1_556 S
N574 C576 1.356 . S
N574 H586 0.984 . S
N574 H587 0.985 . S
N575 C577 1.356 . S
N575 H580 0.984 . S
N575 H581 0.985 . S
C576 C570 1.379 . S
C576 C573 1.363 1_554 S
C576 N574 1.356 . S
C577 C571 1.363 1_565 S
C577 C572 1.379 . S
C577 N575 1.356 . S
N578 C570 1.356 . S
N578 H584 0.984 . S
N578 H585 0.984 . S
N579 C572 1.356 . S
N579 H582 0.984 . S
N579 H583 0.985 . S
H580 N575 0.984 . S
H581 N575 0.985 . S
H582 N579 0.984 . S
H583 N579 0.985 . S
H584 N578 0.984 . S
H585 N578 0.984 . S
H586 N574 0.984 . S
H587 N574 0.985 . S
C588 C589 1.363 . S
C588 C594 1.379 . S
C588 N596 1.356 . S
C589 C588 1.363 . S
C589 C595 1.363 1_556 S
C590 C591 1.363 1_554 S
C590 C595 1.379 . S
C590 N597 1.356 . S
C591 C590 1.363 1_556 S
C591 C594 1.363 . S
N592 C594 1.356 . S
N592 H604 0.984 . S
N592 H605 0.985 . S
N593 C595 1.356 . S
N593 H598 0.984 . S
N593 H599 0.985 . S
C594 C588 1.379 . S
C594 C591 1.363 . S
C594 N592 1.356 . S
C595 C589 1.363 1_554 S
C595 C590 1.379 . S
C595 N593 1.356 . S
N596 C588 1.356 . S
N596 H602 0.984 . S
N596 H603 0.984 . S
N597 C590 1.356 . S
N597 H600 0.984 . S
N597 H601 0.985 . S
H598 N593 0.984 . S
H599 N593 0.985 . S
H600 N597 0.984 . S
H601 N597 0.985 . S
H602 N596 0.984 . S
H603 N596 0.984 . S
H604 N592 0.984 . S
H605 N592 0.985 . S
C606 C607 1.363 . S
C606 C612 1.379 . S
C606 N614 1.356 1_556 S
C607 C606 1.363 . S
C607 C613 1.363 . S
C608 C609 1.363 . S
C608 C613 1.379 . S
C608 N615 1.356 . S
C609 C608 1.363 . S
C609 C612 1.363 . S
N610 C612 1.356 1_554 S
N610 H622 0.984 . S
N610 H623 0.985 . S
N611 C613 1.356 . S
N611 H616 0.984 . S
N611 H617 0.985 . S
C612 C606 1.379 . S
C612 C609 1.363 . S
C612 N610 1.356 1_556 S
C613 C607 1.363 . S
C613 C608 1.379 . S
C613 N611 1.356 . S
N614 C606 1.356 1_554 S
N614 H620 0.984 . S
N614 H621 0.984 . S
N615 C608 1.356 . S
N615 H618 0.984 . S
N615 H619 0.985 . S
H616 N611 0.984 . S
H617 N611 0.985 . S
H618 N615 0.984 . S
H619 N615 0.985 . S
H620 N614 0.984 . S
H621 N614 0.984 . S
H622 N610 0.984 . S
H623 N610 0.985 . S
C624 C625 1.363 . S
C624 C630 1.379 . S
C624 N632 1.356 . S
C625 C624 1.363 . S
C625 C631 1.363 1_655 S
C626 C627 1.363 1_455 S
C626 C631 1.379 . S
C626 N633 1.356 . S
C627 C626 1.363 1_655 S
C627 C630 1.363 . S
N628 C630 1.356 . S
N628 H640 0.984 . S
N628 H641 0.985 . S
N629 C631 1.356 . S
N629 H634 0.984 . S
N629 H635 0.985 . S
C630 C624 1.379 . S
C630 C627 1.363 . S
C630 N628 1.356 . S
C631 C625 1.363 1_455 S
C631 C626 1.379 . S
C631 N629 1.356 . S
N632 C624 1.356 . S
N632 H638 0.984 . S
N632 H639 0.984 . S
N633 C626 1.356 . S
N633 H636 0.984 . S
N633 H637 0.985 . S
H634 N629 0.984 . S
H635 N629 0.985 . S
H636 N633 0.984 . S
H637 N633 0.985 . S
H638 N632 0.984 . S
H639 N632 0.984 . S
H640 N628 0.984 . S
H641 N628 0.985 . S
C642 C643 1.363 1_545 S
C642 C648 1.377 1_545 S
C642 N650 1.356 . S
C643 C642 1.363 1_565 S
C643 C649 1.363 . S
C644 C645 1.363 . S
C644 C649 1.379 . S
C644 N651 1.356 . S
C645 C644 1.363 . S
C645 C648 1.369 . S
N646 C648 1.354 1_545 S
N646 H658 0.984 . S
N646 H659 0.981 1_545 S
N647 C649 1.356 . S
N647 H652 0.984 . S
N647 H653 0.985 1_556 S
C648 C642 1.377 1_565 S
C648 C645 1.369 . S
C648 N646 1.354 1_565 S
C649 C643 1.363 . S
C649 C644 1.379 . S
C649 N647 1.356 . S
N650 C642 1.356 . S
N650 H656 0.984 . S
N650 H657 0.984 . S
N651 C644 1.356 . S
N651 H654 0.984 . S
N651 H655 0.985 1_556 S
H652 N647 0.984 . S
H653 N647 0.985 1_554 S
H654 N651 0.984 . S
H655 N651 0.985 1_554 S
H656 N650 0.984 . S
H657 N650 0.984 . S
H658 N646 0.984 . S
H659 N646 0.981 1_565 S
C660 C661 1.363 . S
C660 C666 1.379 . S
C660 N668 1.356 . S
C661 C660 1.363 . S
C661 C667 1.363 . S
C662 C663 1.363 . S
C662 C667 1.379 . S
C662 N669 1.356 . S
C663 C662 1.363 . S
C663 C666 1.363 . S
N664 C666 1.356 . S
N664 H676 0.984 . S
N664 H677 0.985 . S
N665 C667 1.356 . S
N665 H670 0.984 . S
N665 H671 0.985 . S
C666 C660 1.379 . S
C666 C663 1.363 . S
C666 N664 1.356 . S
C667 C661 1.363 . S
C667 C662 1.379 . S
C667 N665 1.356 . S
N668 C660 1.356 . S
N668 H674 0.984 . S
N668 H675 0.984 . S
N669 C662 1.356 . S
N669 H672 0.984 . S
N669 H673 0.985 . S
H670 N665 0.984 . S
H671 N665 0.985 . S
H672 N669 0.984 . S
H673 N669 0.985 . S
H674 N668 0.984 . S
H675 N668 0.984 . S
H676 N664 0.984 . S
H677 N664 0.985 . S
C678 C679 1.363 . S
C678 C684 1.379 . S
C678 N686 1.356 . S
C679 C678 1.363 . S
C679 C685 1.363 . S
C680 C681 1.363 . S
C680 C685 1.379 . S
C680 N687 1.356 . S
C681 C680 1.363 . S
C681 C684 1.363 . S
N682 C684 1.356 . S
N682 H694 0.984 . S
N682 H695 0.985 . S
N683 C685 1.356 . S
N683 H688 0.984 . S
N683 H689 0.985 . S
C684 C678 1.379 . S
C684 C681 1.363 . S
C684 N682 1.356 . S
C685 C679 1.363 . S
C685 C680 1.379 . S
C685 N683 1.356 . S
N686 C678 1.356 . S
N686 H692 0.984 . S
N686 H693 0.984 . S
N687 C680 1.356 . S
N687 H690 0.984 . S
N687 H691 0.985 . S
H688 N683 0.984 . S
H689 N683 0.985 . S
H690 N687 0.984 . S
H691 N687 0.985 . S
H692 N686 0.984 . S
H693 N686 0.984 . S
H694 N682 0.984 . S
H695 N682 0.985 . S
C265 N80 2.017 . S
C267 C122 2.200 . S
C285 C162 2.222 . S
C283 N93 2.039 . S
C303 C202 2.237 . S
C301 N54 2.058 . S
C321 C242 2.217 1_455 S
C319 N67 2.035 1_455 S
C339 C112 2.202 1_554 S
C337 N28 2.021 1_545 S
C355 N41 2.037 . S
C357 C152 2.224 1_554 S
C373 N2 2.052 . S
C375 C192 2.236 1_554 S
C391 N15 2.035 . S
C393 C232 2.217 1_654 S
C411 C109 0.782 . S
C409 N70 0.785 . S
C429 C149 0.777 . S
C427 N83 0.782 . S
C447 C189 0.771 . S
C445 N96 0.775 . S
C463 N57 0.778 . S
C465 C229 0.770 . S
C481 N18 0.788 1_455 S
C483 C119 0.784 . S
C501 C159 0.777 . S
C499 N31 0.782 1_545 S
C519 C199 0.771 . S
C517 N44 0.776 . S
C535 N5 0.779 . S
C537 C239 0.774 . S
C553 N66 2.404 1_455 S
C555 C113 2.516 . S
C571 N79 2.355 1_545 S
C573 C153 2.468 . S
C591 C193 2.449 . S
C589 N92 2.342 . S
C609 C233 2.501 . S
C607 N53 2.388 . S
C625 N14 2.393 . S
C627 C123 2.524 . S
C645 C163 2.468 . S
C643 N27 2.344 . S
C663 C203 2.449 . S
C661 N40 2.323 . S
C679 N1 2.371 . S
C681 C243 2.503 . S
