# Generated by pormake.
# Topology ptr, (4,4)-cn, num edge types: 1
# Building blocks:
#     Node 0, Type 0, BuildingBlock: AZAVOO_clean_sbu_0, # of connection points: 4
#     Node 1, Type 0, BuildingBlock: AZAVOO_clean_sbu_0, # of connection points: 4
#     Node 2, Type 0, BuildingBlock: AZAVOO_clean_sbu_0, # of connection points: 4
#     Node 3, Type 0, BuildingBlock: AZAVOO_clean_sbu_0, # of connection points: 4
#     Node 4, Type 0, BuildingBlock: AZAVOO_clean_sbu_0, # of connection points: 4
#     Node 5, Type 0, BuildingBlock: AZAVOO_clean_sbu_0, # of connection points: 4
#     Node 6, Type 0, BuildingBlock: AZAVOO_clean_sbu_0, # of connection points: 4
#     Node 7, Type 0, BuildingBlock: AZAVOO_clean_sbu_0, # of connection points: 4
#     Node 8, Type 0, BuildingBlock: AZAVOO_clean_sbu_0, # of connection points: 4
#     Node 9, Type 0, BuildingBlock: AZAVOO_clean_sbu_0, # of connection points: 4
#     Node 10, Type 0, BuildingBlock: AZAVOO_clean_sbu_0, # of connection points: 4
#     Node 11, Type 0, BuildingBlock: AZAVOO_clean_sbu_0, # of connection points: 4
#     Node 12, Type 0, BuildingBlock: AZAVOO_clean_sbu_0, # of connection points: 4
#     Node 13, Type 0, BuildingBlock: AZAVOO_clean_sbu_0, # of connection points: 4
#     Node 14, Type 0, BuildingBlock: AZAVOO_clean_sbu_0, # of connection points: 4
#     Node 15, Type 0, BuildingBlock: AZAVOO_clean_sbu_0, # of connection points: 4
#     Node 16, Type 0, BuildingBlock: AZAVOO_clean_sbu_0, # of connection points: 4
#     Node 17, Type 0, BuildingBlock: AZAVOO_clean_sbu_0, # of connection points: 4
#     Node 18, Type 1, BuildingBlock: MIFKUJ_clean_linker_1, # of connection points: 4
#     Node 19, Type 1, BuildingBlock: MIFKUJ_clean_linker_1, # of connection points: 4
#     Node 20, Type 1, BuildingBlock: MIFKUJ_clean_linker_1, # of connection points: 4
#     Node 21, Type 1, BuildingBlock: MIFKUJ_clean_linker_1, # of connection points: 4
#     Node 22, Type 1, BuildingBlock: MIFKUJ_clean_linker_1, # of connection points: 4
#     Node 23, Type 1, BuildingBlock: MIFKUJ_clean_linker_1, # of connection points: 4
#     Node 24, Type 1, BuildingBlock: MIFKUJ_clean_linker_1, # of connection points: 4
#     Node 25, Type 1, BuildingBlock: MIFKUJ_clean_linker_1, # of connection points: 4
#     Node 26, Type 1, BuildingBlock: MIFKUJ_clean_linker_1, # of connection points: 4
#     Node 27, Type 1, BuildingBlock: MIFKUJ_clean_linker_1, # of connection points: 4
#     Node 28, Type 1, BuildingBlock: MIFKUJ_clean_linker_1, # of connection points: 4
#     Node 29, Type 1, BuildingBlock: MIFKUJ_clean_linker_1, # of connection points: 4
#     Node 30, Type 1, BuildingBlock: MIFKUJ_clean_linker_1, # of connection points: 4
#     Node 31, Type 1, BuildingBlock: MIFKUJ_clean_linker_1, # of connection points: 4
#     Node 32, Type 1, BuildingBlock: MIFKUJ_clean_linker_1, # of connection points: 4
#     Node 33, Type 1, BuildingBlock: MIFKUJ_clean_linker_1, # of connection points: 4
#     Node 34, Type 1, BuildingBlock: MIFKUJ_clean_linker_1, # of connection points: 4
#     Node 35, Type 1, BuildingBlock: MIFKUJ_clean_linker_1, # of connection points: 4
#     Edge 36, Type (0, 1), BuildingBlock: KIFKEQ_clean_linker_1, # of connection points: 2
#     Edge 37, Type (0, 1), BuildingBlock: KIFKEQ_clean_linker_1, # of connection points: 2
#     Edge 38, Type (0, 1), BuildingBlock: KIFKEQ_clean_linker_1, # of connection points: 2
#     Edge 39, Type (0, 1), BuildingBlock: KIFKEQ_clean_linker_1, # of connection points: 2
#     Edge 40, Type (0, 1), BuildingBlock: KIFKEQ_clean_linker_1, # of connection points: 2
#     Edge 41, Type (0, 1), BuildingBlock: KIFKEQ_clean_linker_1, # of connection points: 2
#     Edge 42, Type (0, 1), BuildingBlock: KIFKEQ_clean_linker_1, # of connection points: 2
#     Edge 43, Type (0, 1), BuildingBlock: KIFKEQ_clean_linker_1, # of connection points: 2
#     Edge 44, Type (0, 1), BuildingBlock: KIFKEQ_clean_linker_1, # of connection points: 2
#     Edge 45, Type (0, 1), BuildingBlock: KIFKEQ_clean_linker_1, # of connection points: 2
#     Edge 46, Type (0, 1), BuildingBlock: KIFKEQ_clean_linker_1, # of connection points: 2
#     Edge 47, Type (0, 1), BuildingBlock: KIFKEQ_clean_linker_1, # of connection points: 2
#     Edge 48, Type (0, 1), BuildingBlock: KIFKEQ_clean_linker_1, # of connection points: 2
#     Edge 49, Type (0, 1), BuildingBlock: KIFKEQ_clean_linker_1, # of connection points: 2
#     Edge 50, Type (0, 1), BuildingBlock: KIFKEQ_clean_linker_1, # of connection points: 2
#     Edge 51, Type (0, 1), BuildingBlock: KIFKEQ_clean_linker_1, # of connection points: 2
#     Edge 52, Type (0, 1), BuildingBlock: KIFKEQ_clean_linker_1, # of connection points: 2
#     Edge 53, Type (0, 1), BuildingBlock: KIFKEQ_clean_linker_1, # of connection points: 2
#     Edge 54, Type (0, 1), BuildingBlock: KIFKEQ_clean_linker_1, # of connection points: 2
#     Edge 55, Type (0, 1), BuildingBlock: KIFKEQ_clean_linker_1, # of connection points: 2
#     Edge 56, Type (0, 1), BuildingBlock: KIFKEQ_clean_linker_1, # of connection points: 2
#     Edge 57, Type (0, 1), BuildingBlock: KIFKEQ_clean_linker_1, # of connection points: 2
#     Edge 58, Type (0, 1), BuildingBlock: KIFKEQ_clean_linker_1, # of connection points: 2
#     Edge 59, Type (0, 1), BuildingBlock: KIFKEQ_clean_linker_1, # of connection points: 2
#     Edge 60, Type (0, 1), BuildingBlock: KIFKEQ_clean_linker_1, # of connection points: 2
#     Edge 61, Type (0, 1), BuildingBlock: KIFKEQ_clean_linker_1, # of connection points: 2
#     Edge 62, Type (0, 1), BuildingBlock: KIFKEQ_clean_linker_1, # of connection points: 2
#     Edge 63, Type (0, 1), BuildingBlock: KIFKEQ_clean_linker_1, # of connection points: 2
#     Edge 64, Type (0, 1), BuildingBlock: KIFKEQ_clean_linker_1, # of connection points: 2
#     Edge 65, Type (0, 1), BuildingBlock: KIFKEQ_clean_linker_1, # of connection points: 2
#     Edge 66, Type (0, 1), BuildingBlock: KIFKEQ_clean_linker_1, # of connection points: 2
#     Edge 67, Type (0, 1), BuildingBlock: KIFKEQ_clean_linker_1, # of connection points: 2
#     Edge 68, Type (0, 1), BuildingBlock: KIFKEQ_clean_linker_1, # of connection points: 2
#     Edge 69, Type (0, 1), BuildingBlock: KIFKEQ_clean_linker_1, # of connection points: 2
#     Edge 70, Type (0, 1), BuildingBlock: KIFKEQ_clean_linker_1, # of connection points: 2
#     Edge 71, Type (0, 1), BuildingBlock: KIFKEQ_clean_linker_1, # of connection points: 2
#     Edge 72, Type (0, 1), BuildingBlock: KIFKEQ_clean_linker_1, # of connection points: 2
#     Edge 73, Type (0, 1), BuildingBlock: KIFKEQ_clean_linker_1, # of connection points: 2
#     Edge 74, Type (0, 1), BuildingBlock: KIFKEQ_clean_linker_1, # of connection points: 2
#     Edge 75, Type (0, 1), BuildingBlock: KIFKEQ_clean_linker_1, # of connection points: 2
#     Edge 76, Type (0, 1), BuildingBlock: KIFKEQ_clean_linker_1, # of connection points: 2
#     Edge 77, Type (0, 1), BuildingBlock: KIFKEQ_clean_linker_1, # of connection points: 2
#     Edge 78, Type (0, 1), BuildingBlock: KIFKEQ_clean_linker_1, # of connection points: 2
#     Edge 79, Type (0, 1), BuildingBlock: KIFKEQ_clean_linker_1, # of connection points: 2
#     Edge 80, Type (0, 1), BuildingBlock: KIFKEQ_clean_linker_1, # of connection points: 2
#     Edge 81, Type (0, 1), BuildingBlock: KIFKEQ_clean_linker_1, # of connection points: 2
#     Edge 82, Type (0, 1), BuildingBlock: KIFKEQ_clean_linker_1, # of connection points: 2
#     Edge 83, Type (0, 1), BuildingBlock: KIFKEQ_clean_linker_1, # of connection points: 2
#     Edge 84, Type (0, 1), BuildingBlock: KIFKEQ_clean_linker_1, # of connection points: 2
#     Edge 85, Type (0, 1), BuildingBlock: KIFKEQ_clean_linker_1, # of connection points: 2
#     Edge 86, Type (0, 1), BuildingBlock: KIFKEQ_clean_linker_1, # of connection points: 2
#     Edge 87, Type (0, 1), BuildingBlock: KIFKEQ_clean_linker_1, # of connection points: 2
#     Edge 88, Type (0, 1), BuildingBlock: KIFKEQ_clean_linker_1, # of connection points: 2
#     Edge 89, Type (0, 1), BuildingBlock: KIFKEQ_clean_linker_1, # of connection points: 2
#     Edge 90, Type (0, 1), BuildingBlock: KIFKEQ_clean_linker_1, # of connection points: 2
#     Edge 91, Type (0, 1), BuildingBlock: KIFKEQ_clean_linker_1, # of connection points: 2
#     Edge 92, Type (0, 1), BuildingBlock: KIFKEQ_clean_linker_1, # of connection points: 2
#     Edge 93, Type (0, 1), BuildingBlock: KIFKEQ_clean_linker_1, # of connection points: 2
#     Edge 94, Type (0, 1), BuildingBlock: KIFKEQ_clean_linker_1, # of connection points: 2
#     Edge 95, Type (0, 1), BuildingBlock: KIFKEQ_clean_linker_1, # of connection points: 2
#     Edge 96, Type (0, 1), BuildingBlock: KIFKEQ_clean_linker_1, # of connection points: 2
#     Edge 97, Type (0, 1), BuildingBlock: KIFKEQ_clean_linker_1, # of connection points: 2
#     Edge 98, Type (0, 1), BuildingBlock: KIFKEQ_clean_linker_1, # of connection points: 2
#     Edge 99, Type (0, 1), BuildingBlock: KIFKEQ_clean_linker_1, # of connection points: 2
#     Edge 100, Type (0, 1), BuildingBlock: KIFKEQ_clean_linker_1, # of connection points: 2
#     Edge 101, Type (0, 1), BuildingBlock: KIFKEQ_clean_linker_1, # of connection points: 2
#     Edge 102, Type (0, 1), BuildingBlock: KIFKEQ_clean_linker_1, # of connection points: 2
#     Edge 103, Type (0, 1), BuildingBlock: KIFKEQ_clean_linker_1, # of connection points: 2
#     Edge 104, Type (0, 1), BuildingBlock: KIFKEQ_clean_linker_1, # of connection points: 2
#     Edge 105, Type (0, 1), BuildingBlock: KIFKEQ_clean_linker_1, # of connection points: 2
#     Edge 106, Type (0, 1), BuildingBlock: KIFKEQ_clean_linker_1, # of connection points: 2
#     Edge 107, Type (0, 1), BuildingBlock: KIFKEQ_clean_linker_1, # of connection points: 2
# Relax obj value: 0.079
# Max RMSD: 0.278
# Mean RMSD: 0.120
data_MOF--net-ptr--node1-AZAVOO_clean_sbu_0--node2-MIFKUJ_clean_linker_1--edge1-KIFKEQ_clean_linker_1
_symmetry_space_group_name_H-M    P1
_symmetry_Int_Tables_number       1
_symmetry_cell_setting            triclinic
loop_
_symmetry_equiv_pos_as_xyz
'x, y, z'
_cell_length_a     92.131337
_cell_length_b     90.634196
_cell_length_c     60.253013
_cell_angle_alpha  91.217835
_cell_angle_beta   90.963451
_cell_angle_gamma 120.05085
loop_
_atom_site_label
_atom_site_type_symbol
_atom_site_fract_x
_atom_site_fract_y
_atom_site_fract_z
_atom_type_partial_charge
Mg0 Mg 0.01257 0.34245 0.98762 0.0
O1 O 0.00071 0.35214 0.01378 0.0
O2 O 0.98138 0.35535 0.99494 0.0
Mg3 Mg 0.98026 0.34778 0.95844 0.0
C4 C 0.98942 0.35644 0.01294 0.0
C5 C 0.03998 0.33792 0.01027 0.0
O6 O 0.04669 0.34537 0.9917 0.0
O7 O 0.98946 0.31572 0.9862 0.0
O8 O 0.97087 0.31996 0.96725 0.0
O9 O 0.03133 0.36953 0.97989 0.0
O10 O 0.00644 0.35433 0.96307 0.0
C11 C 0.97497 0.31015 0.97702 0.0
C12 C 0.02004 0.36874 0.96607 0.0
O13 O 0.02529 0.33495 0.01448 0.0
Mg14 Mg 0.65548 0.64896 0.0449 0.0
O15 O 0.63503 0.64219 0.01774 0.0
O16 O 0.61207 0.63822 0.03487 0.0
Mg17 Mg 0.61718 0.6407 0.07246 0.0
C18 C 0.61979 0.63879 0.01721 0.0
C19 C 0.67511 0.64946 0.00296 0.0
O20 O 0.66204 0.63404 0.00035 0.0
O21 O 0.65877 0.67545 0.05099 0.0
O22 O 0.63619 0.66925 0.07071 0.0
O23 O 0.64738 0.62131 0.04765 0.0
O24 O 0.63728 0.63472 0.06742 0.0
C25 C 0.65011 0.68005 0.0625 0.0
C26 C 0.6369 0.6207 0.06217 0.0
O27 O 0.67577 0.6589 0.01929 0.0
Mg28 Mg 0.34444 0.98725 0.98363 0.0
O29 O 0.36599 0.00132 0.00945 0.0
O30 O 0.38838 0.02119 0.99234 0.0
Mg31 Mg 0.38067 0.02073 0.95596 0.0
C32 C 0.38131 0.01324 0.00976 0.0
C33 C 0.32057 0.96007 0.01695 0.0
O34 O 0.32542 0.95054 0.00637 0.0
O35 O 0.33952 0.00937 0.98335 0.0
O36 O 0.36177 0.02909 0.96576 0.0
O37 O 0.35419 0.96965 0.97485 0.0
O38 O 0.36124 0.99375 0.9583 0.0
C39 C 0.34785 0.02413 0.97528 0.0
C40 C 0.36309 0.9807 0.96034 0.0
O41 O 0.32635 0.97543 0.01153 0.0
Mg42 Mg 0.98808 0.65621 0.03835 0.0
O43 O -0.00086 0.64651 0.0113 0.0
O44 O 0.01947 0.64377 0.02801 0.0
Mg45 Mg 0.02163 0.65153 0.06468 0.0
C46 C 0.01064 0.64252 0.01075 0.0
C47 C 0.97134 0.67489 0.01704 0.0
O48 O 0.97691 0.68308 0.03633 0.0
O49 O 0.01097 0.68314 0.0387 0.0
O50 O 0.0304 0.67926 0.056 0.0
O51 O 0.9701 0.62915 0.04668 0.0
O52 O 0.99517 0.64487 0.06273 0.0
C53 C 0.02579 0.68891 0.04688 0.0
C54 C 0.98163 0.63029 0.06039 0.0
O55 O 0.97426 0.66293 0.01212 0.0
Mg56 Mg 0.34506 0.3533 0.98107 0.0
O57 O 0.36627 0.36149 0.00782 0.0
O58 O 0.38934 0.36698 0.98972 0.0
Mg59 Mg 0.38307 0.36154 0.95267 0.0
C60 C 0.38191 0.36631 0.00767 0.0
C61 C 0.31245 0.34523 0.00207 0.0
O62 O 0.31199 0.35154 0.9828 0.0
O63 O 0.34233 0.32698 0.97677 0.0
O64 O 0.36558 0.33307 0.95865 0.0
O65 O 0.3525 0.38061 0.97639 0.0
O66 O 0.36244 0.36673 0.95727 0.0
C67 C 0.35178 0.32239 0.96724 0.0
C68 C 0.36264 0.38079 0.96162 0.0
O69 O 0.32527 0.34412 0.00735 0.0
Mg70 Mg 0.65829 0.01412 0.03733 0.0
O71 O 0.63873 0.00297 0.00865 0.0
O72 O 0.61476 0.9823 0.02169 0.0
Mg73 Mg 0.61884 0.98069 0.05887 0.0
C74 C 0.62341 0.99132 0.00578 0.0
C75 C 0.68031 0.03894 0.00103 0.0
O76 O 0.67002 0.04482 0.00411 0.0
O77 O 0.66121 0.99069 0.03706 0.0
O78 O 0.63725 0.97118 0.05172 0.0
O79 O 0.65009 0.03292 0.04604 0.0
O80 O 0.6396 0.00738 0.0601 0.0
C81 C 0.65164 0.97571 0.04391 0.0
C82 C 0.63939 0.02142 0.05879 0.0
O83 O 0.6787 0.02655 0.01229 0.0
Mg84 Mg 0.67955 0.67827 0.32059 0.0
O85 O 0.66601 0.68758 0.34442 0.0
O86 O 0.64957 0.69323 0.3227 0.0
Mg87 Mg 0.65085 0.68606 0.28661 0.0
C88 C 0.65564 0.69297 0.34179 0.0
C89 C 0.69211 0.65729 0.34498 0.0
O90 O 0.68695 0.6494 0.32545 0.0
O91 O 0.65606 0.65184 0.31615 0.0
O92 O 0.63955 0.65787 0.29516 0.0
O93 O 0.69908 0.70557 0.31566 0.0
O94 O 0.67619 0.69097 0.29442 0.0
C95 C 0.64229 0.64727 0.30543 0.0
C96 C 0.68953 0.70523 0.29941 0.0
O97 O 0.69004 0.6699 0.34932 0.0
Mg98 Mg 0.32049 0.98165 0.37543 0.0
O99 O 0.29877 0.97336 0.34972 0.0
O100 O 0.27633 0.96955 0.36802 0.0
Mg101 Mg 0.28373 0.97612 0.4048 0.0
C102 C 0.28334 0.96924 0.35006 0.0
C103 C 0.33855 0.9771 0.33525 0.0
O104 O 0.327 0.96121 0.33839 0.0
O105 O 0.32446 0.0085 0.37843 0.0
O106 O 0.30211 0.00425 0.39743 0.0
O107 O 0.31218 0.95439 0.38159 0.0
O108 O 0.30355 0.96957 0.40043 0.0
C109 C 0.31587 0.01412 0.38808 0.0
C110 C 0.30264 0.9551 0.3966 0.0
O111 O 0.33899 0.98888 0.34755 0.0
Mg112 Mg 0.01516 0.31661 0.3222 0.0
O113 O 0.0358 0.32962 0.34949 0.0
O114 O 0.06017 0.34449 0.3326 0.0
Mg115 Mg 0.05548 0.33985 0.29501 0.0
C116 C 0.05169 0.33963 0.3502 0.0
C117 C 0.98167 0.31066 0.34044 0.0
O118 O 0.98019 0.3138 0.31958 0.0
O119 O 0.01746 0.34211 0.31413 0.0
O120 O 0.04101 0.35434 0.29496 0.0
O121 O 0.01803 0.29339 0.32146 0.0
O122 O 0.03234 0.31607 0.30125 0.0
C123 C 0.02808 0.35422 0.30252 0.0
C124 C 0.02973 0.3015 0.30747 0.0
O125 O 0.99507 0.31119 0.34715 0.0
Mg126 Mg 0.65581 0.98836 0.36482 0.0
O127 O 0.66762 0.97933 0.33795 0.0
O128 O 0.68771 0.97649 0.35524 0.0
Mg129 Mg 0.68877 0.98311 0.39212 0.0
C130 C 0.67932 0.97563 0.33769 0.0
C131 C 0.62837 0.98393 0.33002 0.0
O132 O 0.62257 0.96809 0.33574 0.0
O133 O 0.67872 0.01535 0.36637 0.0
O134 O 0.69771 0.01094 0.38403 0.0
O135 O 0.63765 0.96115 0.37227 0.0
O136 O 0.66238 0.97651 0.38921 0.0
C137 C 0.69339 0.02084 0.37498 0.0
C138 C 0.64883 0.962 0.38633 0.0
O139 O 0.64239 0.99548 0.33836 0.0
Mg140 Mg 0.01674 0.68574 0.31618 0.0
O141 O 0.03802 0.6953 0.34303 0.0
O142 O 0.0615 0.70175 0.32536 0.0
Mg143 Mg 0.05544 0.69576 0.2883 0.0
C144 C 0.0538 0.70085 0.34314 0.0
C145 C 0.9825 0.66387 0.33656 0.0
O146 O 0.98006 0.65741 0.31619 0.0
O147 O 0.01561 0.66011 0.31271 0.0
O148 O 0.03911 0.66715 0.29467 0.0
O149 O 0.02271 0.71254 0.31069 0.0
O150 O 0.03382 0.69948 0.29226 0.0
C151 C 0.02554 0.65609 0.30339 0.0
C152 C 0.03312 0.71313 0.29606 0.0
O153 O 0.99701 0.67595 0.34252 0.0
Mg154 Mg 0.32027 0.34577 0.36954 0.0
O155 O 0.30031 0.33245 0.34164 0.0
O156 O 0.27725 0.31169 0.35646 0.0
Mg157 Mg 0.28236 0.3121 0.39381 0.0
C158 C 0.28521 0.32011 0.33976 0.0
C159 C 0.35497 0.36145 0.35022 0.0
O160 O 0.35747 0.35794 0.37049 0.0
O161 O 0.32463 0.32339 0.37094 0.0
O162 O 0.30175 0.30367 0.38745 0.0
O163 O 0.31109 0.3639 0.37675 0.0
O164 O 0.30197 0.33918 0.39273 0.0
C165 C 0.31608 0.3087 0.37908 0.0
C166 C 0.30106 0.35278 0.39046 0.0
O167 O 0.34033 0.35808 0.34413 0.0
Mg168 Mg 0.3464 0.01346 0.65736 0.0
O169 O 0.33407 0.02215 0.68389 0.0
O170 O 0.31418 0.02507 0.66618 0.0
Mg171 Mg 0.31358 0.01851 0.62937 0.0
C172 C 0.32237 0.02585 0.6839 0.0
C173 C 0.36351 0.99532 0.6793 0.0
O174 O 0.35847 0.98719 0.6599 0.0
O175 O 0.32369 0.98635 0.65541 0.0
O176 O 0.30479 0.99071 0.63743 0.0
O177 O 0.36448 0.04074 0.65055 0.0
O178 O 0.34001 0.0253 0.63287 0.0
C179 C 0.3091 0.98083 0.64655 0.0
C180 C 0.35342 0.03987 0.63622 0.0
O181 O 0.35981 0.00675 0.68412 0.0
Mg182 Mg 0.9852 0.31566 0.7031 0.0
O183 O 0.96369 0.30675 0.67678 0.0
O184 O 0.9407 0.30141 0.69499 0.0
Mg185 Mg 0.9474 0.30745 0.73197 0.0
C186 C 0.94804 0.30184 0.67703 0.0
C187 C 0.01856 0.33813 0.68052 0.0
O188 O 0.02087 0.3464 0.69961 0.0
O189 O 0.9874 0.34172 0.70672 0.0
O190 O 0.96457 0.33603 0.72558 0.0
O191 O 0.97836 0.28865 0.70844 0.0
O192 O 0.9682 0.30242 0.72738 0.0
C193 C 0.97821 0.34654 0.71646 0.0
C194 C 0.9683 0.28846 0.72333 0.0
O195 O 0.00456 0.3247 0.67626 0.0
Mg196 Mg 0.68134 0.65317 0.65237 0.0
O197 O 0.70166 0.66778 0.67957 0.0
O198 O 0.72483 0.68669 0.66281 0.0
Mg199 Mg 0.71991 0.68341 0.62518 0.0
C200 C 0.71694 0.67983 0.68035 0.0
C201 C 0.65638 0.62896 0.68646 0.0
O202 O 0.66337 0.62008 0.68009 0.0
O203 O 0.67825 0.67624 0.64675 0.0
O204 O 0.70101 0.6927 0.62747 0.0
O205 O 0.68934 0.63351 0.64874 0.0
O206 O 0.69974 0.65725 0.63013 0.0
C207 C 0.68706 0.68952 0.63563 0.0
C208 C 0.70006 0.64367 0.63487 0.0
O209 O 0.66121 0.64342 0.67822 0.0
Mg210 Mg 0.32749 0.32524 0.69763 0.0
O211 O 0.33953 0.31709 0.67001 0.0
O212 O 0.35977 0.31423 0.68682 0.0
Mg213 Mg 0.36068 0.31997 0.72399 0.0
C214 C 0.35135 0.31356 0.6694 0.0
C215 C 0.29818 0.32609 0.67415 0.0
O216 O 0.29096 0.31457 0.68926 0.0
O217 O 0.35009 0.35233 0.70032 0.0
O218 O 0.36924 0.34804 0.71769 0.0
O219 O 0.30952 0.29772 0.7038 0.0
O220 O 0.33415 0.31293 0.72109 0.0
C221 C 0.36468 0.35795 0.70923 0.0
C222 C 0.32071 0.2984 0.71772 0.0
O223 O 0.31398 0.33311 0.6723 0.0
Mg224 Mg 0.68294 0.01838 0.64146 0.0
O225 O 0.70452 0.02753 0.66764 0.0
O226 O 0.72748 0.03229 0.64984 0.0
Mg227 Mg 0.72068 0.02574 0.61294 0.0
C228 C 0.72012 0.03222 0.66764 0.0
C229 C 0.65161 0.99608 0.6713 0.0
O230 O 0.64957 0.98347 0.658 0.0
O231 O 0.6804 0.99207 0.63883 0.0
O232 O 0.70325 0.9974 0.62022 0.0
O233 O 0.69014 0.0453 0.6351 0.0
O234 O 0.69992 0.03093 0.61674 0.0
C235 C 0.68959 0.98708 0.62944 0.0
C236 C 0.70003 0.04504 0.62026 0.0
O237 O 0.66401 0.01095 0.66887 0.0
Mg238 Mg 0.98402 0.67908 0.70145 0.0
O239 O 0.96525 0.66827 0.6717 0.0
O240 O 0.94004 0.65088 0.6853 0.0
Mg241 Mg 0.94222 0.65199 0.72323 0.0
C242 C 0.94954 0.65778 0.66897 0.0
C243 C 0.01706 0.70338 0.68042 0.0
O244 O 0.01519 0.71315 0.69516 0.0
O245 O 0.98243 0.65342 0.70589 0.0
O246 O 0.95768 0.63857 0.72189 0.0
O247 O 0.98013 0.70152 0.7054 0.0
O248 O 0.96516 0.67689 0.72156 0.0
C249 C 0.97138 0.64 0.71512 0.0
C250 C 0.96775 0.69191 0.71776 0.0
O251 O 0.00589 0.68773 0.67848 0.0
H252 H 0.14602 0.31309 0.20106 0.0
H253 H 0.12443 0.30823 0.22738 0.0
H254 H 0.08905 0.26262 0.18986 0.0
H255 H 0.11086 0.26769 0.16326 0.0
H256 H 0.15863 0.29325 0.19425 0.0
H257 H 0.13331 0.31721 0.15185 0.0
H258 H 0.11314 0.32187 0.13103 0.0
H259 H 0.10297 0.27974 0.08609 0.0
H260 H 0.12341 0.27528 0.10696 0.0
H261 H 0.17272 0.27769 0.10717 0.0
H262 H 0.19683 0.28381 0.08456 0.0
H263 H 0.22652 0.33171 0.12118 0.0
H264 H 0.20247 0.3254 0.14379 0.0
H265 H 0.15655 0.29699 0.11242 0.0
H266 H 0.18771 0.27784 0.16182 0.0
H267 H 0.21128 0.2813 0.18551 0.0
H268 H 0.21327 0.32503 0.21877 0.0
H269 H 0.19007 0.32164 0.19502 0.0
C270 C 0.13006 0.29072 0.18027 0.0
C271 C 0.1336 0.30208 0.19842 0.0
C272 C 0.12128 0.2992 0.21355 0.0
C273 C 0.10514 0.28484 0.21095 0.0
C274 C 0.10139 0.27377 0.19231 0.0
C275 C 0.1138 0.27667 0.17708 0.0
C276 C 0.14387 0.29293 0.16596 0.0
C277 C 0.15816 0.29413 0.17634 0.0
C278 C 0.14326 0.29413 0.14264 0.0
C279 C 0.12977 0.29576 0.13113 0.0
C280 C 0.12648 0.30872 0.13781 0.0
C281 C 0.11491 0.31138 0.12586 0.0
C282 C 0.1064 0.30119 0.10684 0.0
C283 C 0.10945 0.28796 0.10047 0.0
C284 C 0.12107 0.28533 0.11244 0.0
C285 C 0.18588 0.30099 0.12729 0.0
C286 C 0.18445 0.28948 0.11031 0.0
C287 C 0.19822 0.29302 0.0974 0.0
C288 C 0.21363 0.30822 0.10114 0.0
C289 C 0.21495 0.31974 0.11815 0.0
C290 C 0.2012 0.31618 0.13105 0.0
C291 C 0.17126 0.29734 0.14082 0.0
C292 C 0.15679 0.29577 0.13027 0.0
C293 C 0.172 0.29674 0.16419 0.0
C294 C 0.18717 0.29948 0.17672 0.0
C295 C 0.19346 0.28831 0.17398 0.0
C296 C 0.20683 0.29025 0.18758 0.0
C297 C 0.21415 0.30346 0.20398 0.0
C298 C 0.20811 0.3149 0.2061 0.0
C299 C 0.19475 0.31289 0.19266 0.0
H300 H 0.72754 0.89904 0.20634 0.0
H301 H 0.72336 0.91923 0.22894 0.0
H302 H 0.67461 0.90037 0.19697 0.0
H303 H 0.67854 0.87968 0.1753 0.0
H304 H 0.70921 0.8647 0.20724 0.0
H305 H 0.72162 0.90643 0.14763 0.0
H306 H 0.71417 0.9236 0.12399 0.0
H307 H 0.66778 0.87822 0.1039 0.0
H308 H 0.67518 0.86125 0.12743 0.0
H309 H 0.6772 0.82387 0.13111 0.0
H310 H 0.67176 0.79757 0.11167 0.0
H311 H 0.71972 0.80562 0.13548 0.0
H312 H 0.72557 0.83251 0.154 0.0
H313 H 0.70106 0.85588 0.12547 0.0
H314 H 0.67969 0.82358 0.19752 0.0
H315 H 0.67759 0.80072 0.22029 0.0
H316 H 0.73094 0.8205 0.21462 0.0
H317 H 0.73297 0.84407 0.19322 0.0
C318 C 0.70348 0.88799 0.18887 0.0
C319 C 0.71602 0.89937 0.20408 0.0
C320 C 0.71365 0.91101 0.21687 0.0
C321 C 0.69864 0.91149 0.21477 0.0
C322 C 0.68624 0.90028 0.19919 0.0
C323 C 0.68859 0.88858 0.18652 0.0
C324 C 0.70539 0.87461 0.1768 0.0
C325 C 0.70794 0.86312 0.18928 0.0
C326 C 0.70299 0.87196 0.15347 0.0
C327 C 0.69891 0.88261 0.13931 0.0
C328 C 0.70987 0.90024 0.1381 0.0
C329 C 0.70568 0.90998 0.12452 0.0
C330 C 0.6904 0.90219 0.1122 0.0
C331 C 0.67956 0.88454 0.11336 0.0
C332 C 0.68381 0.87484 0.1267 0.0
C333 C 0.70165 0.83001 0.14443 0.0
C334 C 0.68664 0.82008 0.13202 0.0
C335 C 0.68355 0.80511 0.12086 0.0
C336 C 0.69533 0.79964 0.12211 0.0
C337 C 0.7104 0.80956 0.13443 0.0
C338 C 0.71365 0.82478 0.14524 0.0
C339 C 0.70468 0.846 0.15589 0.0
C340 C 0.70307 0.85795 0.14334 0.0
C341 C 0.70723 0.84867 0.17916 0.0
C342 C 0.70642 0.83528 0.19348 0.0
C343 C 0.69093 0.82302 0.20141 0.0
C344 C 0.68976 0.80985 0.21423 0.0
C345 C 0.70405 0.80849 0.21907 0.0
C346 C 0.71968 0.82114 0.21147 0.0
C347 C 0.72087 0.83455 0.19903 0.0
H348 H 0.11999 0.85454 0.19081 0.0
H349 H 0.10042 0.83245 0.21528 0.0
H350 H 0.11509 0.79746 0.18833 0.0
H351 H 0.1349 0.81955 0.16477 0.0
H352 H 0.15326 0.86792 0.1935 0.0
H353 H 0.1118 0.84051 0.13365 0.0
H354 H 0.09073 0.81588 0.11146 0.0
H355 H 0.12838 0.80263 0.09487 0.0
H356 H 0.14935 0.82749 0.1164 0.0
H357 H 0.19201 0.86348 0.12554 0.0
H358 H 0.219 0.8798 0.10812 0.0
H359 H 0.21895 0.9265 0.12408 0.0
H360 H 0.19159 0.90997 0.14098 0.0
H361 H 0.1623 0.86029 0.11417 0.0
H362 H 0.19707 0.87613 0.18311 0.0
H363 H 0.21792 0.89499 0.21114 0.0
H364 H 0.1953 0.9269 0.21179 0.0
H365 H 0.17391 0.90727 0.18464 0.0
C366 C 0.12875 0.83864 0.17572 0.0
C367 C 0.11877 0.84201 0.18998 0.0
C368 C 0.10758 0.8294 0.20389 0.0
C369 C 0.10639 0.81331 0.20388 0.0
C370 C 0.11593 0.80982 0.18896 0.0
C371 C 0.12707 0.82237 0.17518 0.0
C372 C 0.14246 0.85249 0.16349 0.0
C373 C 0.15494 0.86657 0.17593 0.0
C374 C 0.14493 0.85045 0.14075 0.0
C375 C 0.13216 0.83586 0.12669 0.0
C376 C 0.1155 0.83233 0.12509 0.0
C377 C 0.10344 0.81818 0.11246 0.0
C378 C 0.10779 0.8072 0.10129 0.0
C379 C 0.12457 0.81094 0.10279 0.0
C380 C 0.13661 0.82514 0.11522 0.0
C381 C 0.1898 0.88551 0.13454 0.0
C382 C 0.19781 0.87724 0.12528 0.0
C383 C 0.21332 0.8866 0.11555 0.0
C384 C 0.22115 0.90445 0.11482 0.0
C385 C 0.21317 0.91275 0.12428 0.0
C386 C 0.19762 0.90335 0.13407 0.0
C387 C 0.17318 0.87528 0.14441 0.0
C388 C 0.16023 0.86199 0.13148 0.0
C389 C 0.17038 0.87778 0.16677 0.0
C390 C 0.18401 0.89035 0.18187 0.0
C391 C 0.19675 0.8873 0.1892 0.0
C392 C 0.20875 0.89821 0.20514 0.0
C393 C 0.20837 0.91255 0.21392 0.0
C394 C 0.19585 0.91584 0.20585 0.0
C395 C 0.18367 0.90473 0.19017 0.0
H396 H 0.2786 0.15587 0.81484 0.0
H397 H 0.28033 0.17898 0.79242 0.0
H398 H 0.33028 0.21273 0.81966 0.0
H399 H 0.32856 0.18967 0.8417 0.0
H400 H 0.29876 0.14102 0.8157 0.0
H401 H 0.28472 0.17373 0.87077 0.0
H402 H 0.29133 0.20045 0.89074 0.0
H403 H 0.33967 0.20762 0.91104 0.0
H404 H 0.33303 0.18103 0.89133 0.0
H405 H 0.33015 0.13855 0.89597 0.0
H406 H 0.33317 0.11903 0.92014 0.0
H407 H 0.28368 0.07866 0.89882 0.0
H408 H 0.28106 0.09831 0.87393 0.0
H409 H 0.30716 0.14848 0.89757 0.0
H410 H 0.32604 0.12165 0.84813 0.0
H411 H 0.32837 0.10018 0.82596 0.0
H412 H 0.28147 0.08639 0.79164 0.0
H413 H 0.27881 0.10737 0.81473 0.0
C414 C 0.3033 0.17116 0.8303 0.0
C415 C 0.28991 0.16825 0.81591 0.0
C416 C 0.29094 0.18143 0.80309 0.0
C417 C 0.30537 0.19771 0.8045 0.0
C418 C 0.31886 0.20044 0.81858 0.0
C419 C 0.31788 0.18727 0.83122 0.0
C420 C 0.30223 0.15735 0.84418 0.0
C421 C 0.30013 0.14238 0.83367 0.0
C422 C 0.30486 0.15955 0.86749 0.0
C423 C 0.30842 0.17547 0.87955 0.0
C424 C 0.2967 0.18107 0.87958 0.0
C425 C 0.30044 0.19623 0.89105 0.0
C426 C 0.31601 0.20605 0.90234 0.0
C427 C 0.32763 0.20033 0.90233 0.0
C428 C 0.32382 0.18513 0.89118 0.0
C429 C 0.30541 0.11984 0.88317 0.0
C430 C 0.31995 0.12548 0.89652 0.0
C431 C 0.32157 0.11433 0.91051 0.0
C432 C 0.30856 0.0973 0.91171 0.0
C433 C 0.29398 0.09165 0.89821 0.0
C434 C 0.29244 0.10283 0.88399 0.0
C435 C 0.30372 0.13213 0.86916 0.0
C436 C 0.30524 0.14678 0.87966 0.0
C437 C 0.30136 0.12993 0.8458 0.0
C438 C 0.30209 0.11596 0.8334 0.0
C439 C 0.316 0.11369 0.83629 0.0
C440 C 0.31745 0.10155 0.82333 0.0
C441 C 0.30515 0.09157 0.80692 0.0
C442 C 0.29107 0.09367 0.80432 0.0
C443 C 0.28958 0.10576 0.8174 0.0
H444 H 0.82702 0.0928 0.83598 0.0
H445 H 0.8057 0.07318 0.80868 0.0
H446 H 0.78468 0.10647 0.80648 0.0
H447 H 0.80549 0.12541 0.83451 0.0
H448 H 0.84849 0.1331 0.82557 0.0
H449 H 0.81172 0.09162 0.88359 0.0
H450 H 0.78498 0.07598 0.90227 0.0
H451 H 0.78109 0.12162 0.9047 0.0
H452 H 0.80804 0.13718 0.88697 0.0
H453 H 0.85212 0.17309 0.90295 0.0
H454 H 0.87288 0.19759 0.92521 0.0
H455 H 0.91062 0.18441 0.90883 0.0
H456 H 0.88976 0.16016 0.88586 0.0
H457 H 0.83918 0.14034 0.90492 0.0
H458 H 0.86652 0.18133 0.85515 0.0
H459 H 0.88623 0.20379 0.83196 0.0
H460 H 0.90113 0.16934 0.80372 0.0
H461 H 0.8817 0.14689 0.82789 0.0
C462 C 0.81773 0.11045 0.83723 0.0
C463 C 0.81761 0.09565 0.8298 0.0
C464 C 0.80549 0.08454 0.81405 0.0
C465 C 0.79345 0.08823 0.80515 0.0
C466 C 0.79348 0.10297 0.81313 0.0
C467 C 0.80546 0.11391 0.82907 0.0
C468 C 0.83137 0.12304 0.85227 0.0
C469 C 0.84679 0.13436 0.84315 0.0
C470 C 0.82852 0.1255 0.87458 0.0
C471 C 0.81184 0.11553 0.88417 0.0
C472 C 0.805 0.09814 0.8881 0.0
C473 C 0.78968 0.08924 0.89864 0.0
C474 C 0.78095 0.09759 0.90521 0.0
C475 C 0.78764 0.11489 0.90039 0.0
C476 C 0.80299 0.12378 0.89014 0.0
C477 C 0.86938 0.16479 0.89271 0.0
C478 C 0.86484 0.17538 0.90431 0.0
C479 C 0.87675 0.18937 0.91717 0.0
C480 C 0.89348 0.193 0.919 0.0
C481 C 0.89793 0.18217 0.90761 0.0
C482 C 0.88601 0.16826 0.89453 0.0
C483 C 0.8567 0.1503 0.87848 0.0
C484 C 0.84138 0.1387 0.88764 0.0
C485 C 0.85921 0.14844 0.8557 0.0
C486 C 0.87283 0.16248 0.84359 0.0
C487 C 0.87439 0.1787 0.84455 0.0
C488 C 0.88547 0.19147 0.83096 0.0
C489 C 0.89505 0.18825 0.81579 0.0
C490 C 0.89395 0.1722 0.81532 0.0
C491 C 0.88284 0.15937 0.82906 0.0
H492 H 0.81003 0.67348 0.82674 0.0
H493 H 0.78956 0.67233 0.79956 0.0
H494 H 0.78829 0.71345 0.8353 0.0
H495 H 0.80905 0.71466 0.86263 0.0
H496 H 0.84053 0.70058 0.83204 0.0
H497 H 0.79426 0.66689 0.87729 0.0
H498 H 0.76836 0.65984 0.89596 0.0
H499 H 0.7951 0.70604 0.93679 0.0
H500 H 0.82097 0.71326 0.91755 0.0
H501 H 0.87152 0.71814 0.92113 0.0
H502 H 0.8931 0.71589 0.94264 0.0
H503 H 0.88586 0.67397 0.89933 0.0
H504 H 0.86441 0.67629 0.87799 0.0
H505 H 0.83832 0.6951 0.91376 0.0
H506 H 0.88656 0.72578 0.86406 0.0
H507 H 0.90852 0.73028 0.83787 0.0
H508 H 0.87392 0.68279 0.80333 0.0
H509 H 0.85222 0.6785 0.82916 0.0
C510 C 0.81119 0.69426 0.84658 0.0
C511 C 0.80522 0.68213 0.82892 0.0
C512 C 0.79355 0.6815 0.81339 0.0
C513 C 0.78757 0.69298 0.81517 0.0
C514 C 0.79273 0.70446 0.83359 0.0
C515 C 0.80455 0.70515 0.84918 0.0
C516 C 0.82553 0.69641 0.86067 0.0
C517 C 0.84001 0.6993 0.84993 0.0
C518 C 0.82497 0.69511 0.88399 0.0
C519 C 0.80946 0.6907 0.89587 0.0
C520 C 0.79452 0.67556 0.89017 0.0
C521 C 0.77976 0.67147 0.90098 0.0
C522 C 0.77968 0.6824 0.91782 0.0
C523 C 0.79473 0.69749 0.92367 0.0
C524 C 0.80952 0.70156 0.91285 0.0
C525 C 0.86653 0.69759 0.89772 0.0
C526 C 0.87464 0.70851 0.91625 0.0
C527 C 0.88693 0.70717 0.92857 0.0
C528 C 0.89129 0.6948 0.92264 0.0
C529 C 0.88308 0.68386 0.9041 0.0
C530 C 0.8708 0.68518 0.89186 0.0
C531 C 0.85318 0.69865 0.88491 0.0
C532 C 0.83896 0.69663 0.89594 0.0
C533 C 0.85366 0.70012 0.8616 0.0
C534 C 0.86778 0.70187 0.84839 0.0
C535 C 0.88387 0.71625 0.85103 0.0
C536 C 0.89635 0.71883 0.83605 0.0
C537 C 0.89277 0.70708 0.81826 0.0
C538 C 0.87689 0.69231 0.81647 0.0
C539 C 0.86453 0.68976 0.83133 0.0
H540 H 0.81941 0.65545 0.52047 0.0
H541 H 0.79904 0.65571 0.54569 0.0
H542 H 0.7605 0.60764 0.51647 0.0
H543 H 0.78104 0.6075 0.49101 0.0
H544 H 0.82844 0.63037 0.51762 0.0
H545 H 0.80526 0.65692 0.47309 0.0
H546 H 0.78305 0.65968 0.45438 0.0
H547 H 0.76956 0.61424 0.41433 0.0
H548 H 0.79186 0.61159 0.43314 0.0
H549 H 0.85297 0.61085 0.46206 0.0
H550 H 0.87733 0.61468 0.44171 0.0
H551 H 0.88214 0.66036 0.41363 0.0
H552 H 0.85819 0.65678 0.43458 0.0
H553 H 0.82599 0.63337 0.43566 0.0
H554 H 0.84042 0.60911 0.51679 0.0
H555 H 0.86314 0.61276 0.54171 0.0
H556 H 0.89697 0.65995 0.51061 0.0
H557 H 0.87387 0.65656 0.48637 0.0
C558 C 0.80166 0.6315 0.50389 0.0
C559 C 0.80656 0.64501 0.51943 0.0
C560 C 0.79493 0.64517 0.53374 0.0
C561 C 0.77824 0.6317 0.53295 0.0
C562 C 0.77333 0.61811 0.51743 0.0
C563 C 0.78497 0.61807 0.50285 0.0
C564 C 0.81436 0.63131 0.48946 0.0
C565 C 0.82784 0.6308 0.49966 0.0
C566 C 0.81361 0.63227 0.46613 0.0
C567 C 0.8001 0.63392 0.45472 0.0
C568 C 0.79739 0.64743 0.46047 0.0
C569 C 0.78467 0.64898 0.44977 0.0
C570 C 0.77446 0.63714 0.43291 0.0
C571 C 0.77728 0.62368 0.42709 0.0
C572 C 0.79 0.62211 0.43785 0.0
C573 C 0.85389 0.63363 0.45002 0.0
C574 C 0.85928 0.62167 0.4515 0.0
C575 C 0.87312 0.62382 0.43975 0.0
C576 C 0.88176 0.63792 0.42622 0.0
C577 C 0.87595 0.64954 0.42423 0.0
C578 C 0.86215 0.6474 0.43599 0.0
C579 C 0.84018 0.63232 0.46386 0.0
C580 C 0.82645 0.63254 0.45356 0.0
C581 C 0.84088 0.6315 0.48726 0.0
C582 C 0.85542 0.63252 0.49967 0.0
C583 C 0.85279 0.62011 0.51512 0.0
C584 C 0.86588 0.62217 0.52925 0.0
C585 C 0.88193 0.63669 0.52825 0.0
C586 C 0.88473 0.64872 0.51203 0.0
C587 C 0.87157 0.6467 0.49796 0.0
H588 H 0.39213 0.22973 0.53836 0.0
H589 H 0.38985 0.251 0.56134 0.0
H590 H 0.34174 0.2358 0.52962 0.0
H591 H 0.34373 0.21406 0.50758 0.0
H592 H 0.3725 0.19578 0.5382 0.0
H593 H 0.38783 0.23814 0.47961 0.0
H594 H 0.3837 0.2572 0.45533 0.0
H595 H 0.33424 0.21565 0.43621 0.0
H596 H 0.33874 0.19675 0.45974 0.0
H597 H 0.3377 0.155 0.46296 0.0
H598 H 0.33198 0.12925 0.44219 0.0
H599 H 0.38159 0.13862 0.46044 0.0
H600 H 0.3869 0.16413 0.48211 0.0
H601 H 0.3626 0.18792 0.45655 0.0
H602 H 0.34316 0.14682 0.51198 0.0
H603 H 0.34176 0.12431 0.53475 0.0
H604 H 0.39125 0.15926 0.56263 0.0
H605 H 0.39286 0.18162 0.53887 0.0
C606 C 0.36823 0.22042 0.52099 0.0
C607 C 0.38115 0.23107 0.53627 0.0
C608 C 0.37988 0.24333 0.54927 0.0
C609 C 0.36561 0.24517 0.54733 0.0
C610 C 0.35283 0.23466 0.53174 0.0
C611 C 0.35407 0.22236 0.51885 0.0
C612 C 0.36896 0.20652 0.50839 0.0
C613 C 0.3708 0.19433 0.52027 0.0
C614 C 0.36611 0.20417 0.4851 0.0
C615 C 0.36359 0.21608 0.4714 0.0
C616 C 0.37613 0.23323 0.47015 0.0
C617 C 0.37373 0.24407 0.4563 0.0
C618 C 0.35871 0.23791 0.4436 0.0
C619 C 0.34614 0.22074 0.44522 0.0
C620 C 0.34862 0.20993 0.45884 0.0
C621 C 0.3627 0.16144 0.47406 0.0
C622 C 0.34735 0.1515 0.46247 0.0
C623 C 0.34417 0.13683 0.45041 0.0
C624 C 0.35639 0.13189 0.44934 0.0
C625 C 0.37182 0.14191 0.46104 0.0
C626 C 0.37491 0.15653 0.47338 0.0
C627 C 0.36586 0.17716 0.48636 0.0
C628 C 0.36483 0.18968 0.47442 0.0
C629 C 0.36889 0.17946 0.5096 0.0
C630 C 0.36825 0.16582 0.52339 0.0
C631 C 0.35384 0.14958 0.52269 0.0
C632 C 0.35296 0.13677 0.536 0.0
C633 C 0.36637 0.13999 0.55061 0.0
C634 C 0.38079 0.15631 0.55137 0.0
C635 C 0.38169 0.16912 0.53793 0.0
H636 H 0.7867 0.18718 0.51765 0.0
H637 H 0.76618 0.16366 0.53952 0.0
H638 H 0.78271 0.13058 0.51119 0.0
H639 H 0.80324 0.15405 0.48977 0.0
H640 H 0.82052 0.20161 0.51975 0.0
H641 H 0.7771 0.17195 0.46125 0.0
H642 H 0.75707 0.14549 0.44087 0.0
H643 H 0.79803 0.13868 0.42009 0.0
H644 H 0.81791 0.16494 0.44052 0.0
H645 H 0.85742 0.20508 0.44268 0.0
H646 H 0.88172 0.2249 0.422 0.0
H647 H 0.87768 0.26714 0.4491 0.0
H648 H 0.85297 0.24717 0.46943 0.0
H649 H 0.82665 0.1975 0.43861 0.0
H650 H 0.86493 0.21445 0.50412 0.0
H651 H 0.8857 0.23302 0.5324 0.0
H652 H 0.85884 0.26053 0.54067 0.0
H653 H 0.83755 0.24102 0.51337 0.0
C654 C 0.79625 0.17228 0.50173 0.0
C655 C 0.78578 0.17481 0.51607 0.0
C656 C 0.77413 0.16141 0.52858 0.0
C657 C 0.77277 0.14527 0.52691 0.0
C658 C 0.78323 0.14278 0.51248 0.0
C659 C 0.79494 0.15618 0.50017 0.0
C660 C 0.80938 0.18667 0.48953 0.0
C661 C 0.8216 0.20095 0.50189 0.0
C662 C 0.81113 0.18548 0.46636 0.0
C663 C 0.799 0.17036 0.45253 0.0
C664 C 0.78176 0.16482 0.45214 0.0
C665 C 0.77035 0.14978 0.44041 0.0
C666 C 0.776 0.13999 0.42902 0.0
C667 C 0.79331 0.14587 0.4289 0.0
C668 C 0.80468 0.16094 0.44043 0.0
C669 C 0.85336 0.22461 0.45765 0.0
C670 C 0.86171 0.2186 0.44418 0.0
C671 C 0.87558 0.22991 0.43236 0.0
C672 C 0.88147 0.24751 0.43387 0.0
C673 C 0.87342 0.25362 0.44779 0.0
C674 C 0.85937 0.24224 0.45946 0.0
C675 C 0.838 0.21225 0.46894 0.0
C676 C 0.8253 0.19843 0.45636 0.0
C677 C 0.83606 0.21353 0.49199 0.0
C678 C 0.84976 0.2264 0.50672 0.0
C679 C 0.86368 0.22463 0.5119 0.0
C680 C 0.87562 0.23539 0.52801 0.0
C681 C 0.87401 0.24833 0.5391 0.0
C682 C 0.86037 0.2505 0.53299 0.0
C683 C 0.84824 0.23949 0.51721 0.0
H684 H 0.95076 0.48915 0.1542 0.0
H685 H 0.94926 0.51155 0.13382 0.0
H686 H -6e-05 0.5478 0.15622 0.0
H687 H 0.00151 0.52543 0.17604 0.0
H688 H 0.97165 0.47599 0.15039 0.0
H689 H 0.96045 0.50688 0.21038 0.0
H690 H 0.9669 0.53317 0.23131 0.0
H691 H 0.0173 0.54324 0.2448 0.0
H692 H 0.01086 0.51714 0.22397 0.0
H693 H 0.01145 0.47786 0.22593 0.0
H694 H 0.01896 0.45993 0.24686 0.0
H695 H 0.97318 0.41522 0.22288 0.0
H696 H 0.96502 0.43347 0.20367 0.0
H697 H 0.98801 0.48436 0.2305 0.0
H698 H 0.00528 0.46493 0.16345 0.0
H699 H 0.00567 0.44338 0.13895 0.0
H700 H 0.9514 0.41406 0.13912 0.0
H701 H 0.95127 0.43643 0.16227 0.0
C702 C 0.9761 0.5057 0.16708 0.0
C703 C 0.96154 0.50192 0.15466 0.0
C704 C 0.9607 0.5147 0.14302 0.0
C705 C 0.9744 0.53146 0.14369 0.0
C706 C 0.98905 0.53509 0.1558 0.0
C707 C 0.98995 0.52232 0.16718 0.0
C708 C 0.97708 0.49229 0.17963 0.0
C709 C 0.97486 0.47764 0.16802 0.0
C710 C 0.98181 0.49464 0.20247 0.0
C711 C 0.9852 0.51013 0.21557 0.0
C712 C 0.97285 0.51475 0.21792 0.0
C713 C 0.97651 0.52967 0.22995 0.0
C714 C 0.99261 0.54021 0.23957 0.0
C715 C 0.00484 0.53541 0.23739 0.0
C716 C 0.00114 0.52047 0.22562 0.0
C717 C 0.98776 0.45703 0.21291 0.0
C718 C 0.00295 0.4642 0.2253 0.0
C719 C 0.00733 0.45387 0.23709 0.0
C720 C 0.99678 0.43605 0.23646 0.0
C721 C 0.98156 0.42889 0.224 0.0
C722 C 0.97701 0.4393 0.21257 0.0
C723 C 0.98309 0.46836 0.20117 0.0
C724 C 0.98444 0.48251 0.21297 0.0
C725 C 0.97818 0.46587 0.17841 0.0
C726 C 0.97825 0.45225 0.16455 0.0
C727 C 0.9935 0.45383 0.15813 0.0
C728 C 0.99367 0.44134 0.14429 0.0
C729 C 0.97856 0.42681 0.13688 0.0
C730 C 0.9633 0.42516 0.14394 0.0
C731 C 0.96316 0.43788 0.15734 0.0
H732 H 0.49333 0.4251 0.17006 0.0
H733 H 0.47113 0.40518 0.14402 0.0
H734 H 0.44653 0.43506 0.15028 0.0
H735 H 0.46819 0.4541 0.17731 0.0
H736 H 0.51194 0.46393 0.16106 0.0
H737 H 0.47896 0.42196 0.21537 0.0
H738 H 0.45433 0.40403 0.23716 0.0
H739 H 0.45211 0.44866 0.25836 0.0
H740 H 0.47644 0.46645 0.23635 0.0
H741 H 0.51641 0.50537 0.23565 0.0
H742 H 0.53674 0.532 0.25498 0.0
H743 H 0.57671 0.52245 0.23799 0.0
H744 H 0.55623 0.49568 0.2185 0.0
H745 H 0.50698 0.47283 0.24141 0.0
H746 H 0.52971 0.51258 0.18632 0.0
H747 H 0.54915 0.53439 0.16207 0.0
H748 H 0.56527 0.4999 0.13759 0.0
H749 H 0.5461 0.47817 0.16274 0.0
C750 C 0.48232 0.44097 0.17561 0.0
C751 C 0.48293 0.42708 0.16608 0.0
C752 C 0.47029 0.41581 0.15102 0.0
C753 C 0.45701 0.41852 0.1447 0.0
C754 C 0.45629 0.43227 0.15488 0.0
C755 C 0.46875 0.4433 0.17027 0.0
C756 C 0.49655 0.45404 0.18949 0.0
C757 C 0.51113 0.46559 0.1788 0.0
C758 C 0.49498 0.45671 0.21227 0.0
C759 C 0.47954 0.44554 0.22424 0.0
C760 C 0.47298 0.42783 0.22439 0.0
C761 C 0.45896 0.41761 0.23685 0.0
C762 C 0.45145 0.42502 0.24955 0.0
C763 C 0.45783 0.44268 0.24898 0.0
C764 C 0.47171 0.45283 0.23641 0.0
C765 C 0.5348 0.49855 0.22557 0.0
C766 C 0.52952 0.50889 0.23625 0.0
C767 C 0.54115 0.52415 0.24717 0.0
C768 C 0.55829 0.52929 0.24791 0.0
C769 C 0.56355 0.51872 0.23776 0.0
C770 C 0.5519 0.50351 0.22655 0.0
C771 C 0.52233 0.48286 0.21298 0.0
C772 C 0.5081 0.47085 0.22385 0.0
C773 C 0.52378 0.48028 0.19006 0.0
C774 C 0.53669 0.49386 0.17665 0.0
C775 C 0.53772 0.50982 0.17617 0.0
C776 C 0.54864 0.52219 0.16201 0.0
C777 C 0.5586 0.51879 0.14773 0.0
C778 C 0.55782 0.50291 0.1485 0.0
C779 C 0.54686 0.49049 0.16278 0.0
H780 H 0.53943 0.05611 0.17164 0.0
H781 H 0.56291 0.05894 0.14977 0.0
H782 H 0.54903 0.00707 0.16394 0.0
H783 H 0.52551 0.00416 0.18514 0.0
H784 H 0.50658 0.03498 0.16466 0.0
H785 H 0.54596 0.04449 0.22503 0.0
H786 H 0.56665 0.03899 0.24335 0.0
H787 H 0.52834 0.98642 0.25082 0.0
H788 H 0.50779 0.99193 0.23225 0.0
H789 H 0.46243 0.98819 0.22582 0.0
H790 H 0.43584 0.98006 0.2433 0.0
H791 H 0.44662 0.03226 0.24092 0.0
H792 H 0.47284 0.04006 0.22262 0.0
H793 H 0.49523 0.01244 0.24062 0.0
H794 H 0.46065 -0.00091 0.17362 0.0
H795 H 0.44082 -0.00078 0.14652 0.0
H796 H 0.46798 0.05444 0.1499 0.0
H797 H 0.48834 0.05403 0.17611 0.0
C798 C 0.53095 0.03005 0.18044 0.0
C799 C 0.54153 0.0454 0.17009 0.0
C800 C 0.55488 0.047 0.1576 0.0
C801 C 0.55787 0.03329 0.15542 0.0
C802 C 0.54724 0.01796 0.16576 0.0
C803 C 0.53382 0.0163 0.17795 0.0
C804 C 0.51629 0.02793 0.19279 0.0
C805 C 0.50437 0.03057 0.18154 0.0
C806 C 0.51308 0.0215 0.21448 0.0
C807 C 0.52535 0.0186 0.22717 0.0
C808 C 0.54202 0.0318 0.23071 0.0
C809 C 0.5538 0.02866 0.24126 0.0
C810 C 0.54915 0.01224 0.24839 0.0
C811 C 0.53236 -0.00085 0.24524 0.0
C812 C 0.52057 0.00232 0.23484 0.0
C813 C 0.46955 0.0147 0.22296 0.0
C814 C 0.459 0.99784 0.22905 0.0
C815 C 0.44384 0.99325 0.23914 0.0
C816 C 0.43907 0.00551 0.24365 0.0
C817 C 0.44971 0.02241 0.2374 0.0
C818 C 0.46477 0.02694 0.22707 0.0
C819 C 0.48564 0.01954 0.21242 0.0
C820 C 0.49776 0.01739 0.22403 0.0
C821 C 0.48898 0.02617 0.19095 0.0
C822 C 0.4759 0.02654 0.17682 0.0
C823 C 0.46217 0.0112 0.16869 0.0
C824 C 0.45076 0.01134 0.15326 0.0
C825 C 0.45273 0.02686 0.14582 0.0
C826 C 0.46621 0.04223 0.1548 0.0
C827 C 0.47779 0.04206 0.16995 0.0
H828 H 0.49361 0.99859 0.86267 0.0
H829 H 0.47198 0.99765 0.88631 0.0
H830 H 0.43394 0.95559 0.84585 0.0
H831 H 0.45582 0.95613 0.82275 0.0
H832 H 0.50252 0.97563 0.85581 0.0
H833 H 0.48008 0.00344 0.81091 0.0
H834 H 0.4579 0.0056 0.79096 0.0
H835 H 0.44827 0.96229 0.74876 0.0
H836 H 0.47043 0.96019 0.76878 0.0
H837 H 0.52375 0.95417 0.79634 0.0
H838 H 0.54719 0.9557 0.77563 0.0
H839 H 0.56323 0.00787 0.7602 0.0
H840 H 0.53959 0.00617 0.78049 0.0
H841 H 0.50364 0.98192 0.77418 0.0
H842 H 0.5135 0.95355 0.85443 0.0
H843 H 0.53515 0.955 0.8797 0.0
H844 H 0.57137 0.00288 0.85221 0.0
H845 H 0.5494 0.0017 0.82769 0.0
C846 C 0.47631 0.97754 0.84084 0.0
C847 C 0.48061 0.98912 0.85893 0.0
C848 C 0.46822 0.98865 0.87233 0.0
C849 C 0.45123 0.97661 0.86787 0.0
C850 C 0.44693 0.96492 0.84982 0.0
C851 C 0.45939 0.96534 0.83645 0.0
C852 C 0.48973 0.97805 0.82711 0.0
C853 C 0.5027 0.9769 0.83793 0.0
C854 C 0.49001 0.9799 0.80382 0.0
C855 C 0.47681 0.98154 0.79149 0.0
C856 C 0.47311 0.99434 0.79746 0.0
C857 C 0.4604 0.99554 0.78607 0.0
C858 C 0.45127 0.98409 0.7683 0.0
C859 C 0.45517 0.97143 0.7622 0.0
C860 C 0.46782 0.97019 0.77365 0.0
C861 C 0.53 0.98006 0.78987 0.0
C862 C 0.53226 0.96587 0.78834 0.0
C863 C 0.54559 0.96675 0.77655 0.0
C864 C 0.55698 0.98192 0.76648 0.0
C865 C 0.55465 0.99608 0.76799 0.0
C866 C 0.54114 0.99509 0.7794 0.0
C867 C 0.51631 0.9794 0.80298 0.0
C868 C 0.50331 0.98047 0.79203 0.0
C869 C 0.51604 0.97766 0.82622 0.0
C870 C 0.52982 0.97745 0.83907 0.0
C871 C 0.52616 0.96424 0.85364 0.0
C872 C 0.53862 0.96504 0.86797 0.0
C873 C 0.55504 0.97909 0.86805 0.0
C874 C 0.55883 0.99197 0.85277 0.0
C875 C 0.54632 0.99121 0.83851 0.0
H876 H 0.03898 0.56589 0.84494 0.0
H877 H 0.03728 0.58734 0.86833 0.0
H878 H -0.0011 0.54725 0.90624 0.0
H879 H 0.0002 0.52591 0.8823 0.0
H880 H 0.02386 0.51859 0.8751 0.0
H881 H 0.03641 0.55341 0.79275 0.0
H882 H 0.029 0.5719 0.77236 0.0
H883 H 0.98299 0.55192 0.80827 0.0
H884 H 0.99081 0.534 0.82902 0.0
H885 H 0.99322 0.48331 0.79513 0.0
H886 H 0.98919 0.45905 0.77227 0.0
H887 H 0.03953 0.47055 0.79037 0.0
H888 H 0.04311 0.49449 0.81415 0.0
H889 H 0.01658 0.51736 0.79322 0.0
H890 H 0.0006 0.47059 0.84026 0.0
H891 H 0.00215 0.44816 0.85942 0.0
H892 H 0.046 0.48621 0.89698 0.0
H893 H 0.0454 0.5085 0.87582 0.0
C894 C 0.01964 0.54426 0.86175 0.0
C895 C 0.03008 0.56172 0.85816 0.0
C896 C 0.02919 0.57398 0.87166 0.0
C897 C 0.0179 0.56904 0.88913 0.0
C898 C 0.00753 0.55153 0.89273 0.0
C899 C 0.00841 0.5393 0.87921 0.0
C900 C 0.02029 0.5311 0.8473 0.0
C901 C 0.02247 0.5184 0.85717 0.0
C902 C 0.01826 0.53071 0.82395 0.0
C903 C 0.01425 0.54255 0.81254 0.0
C904 C 0.02482 0.5532 0.79632 0.0
C905 C 0.02049 0.56363 0.78457 0.0
C906 C 0.00539 0.5634 0.78865 0.0
C907 C 0.99486 0.55268 0.80498 0.0
C908 C -0.00072 0.54239 0.81684 0.0
C909 C 0.01843 0.49064 0.80637 0.0
C910 C 0.00343 0.48067 0.79404 0.0
C911 C 0.00121 0.46684 0.78081 0.0
C912 C 0.01407 0.46282 0.77926 0.0
C913 C 0.02926 0.47309 0.79135 0.0
C914 C 0.03139 0.48684 0.80487 0.0
C915 C 0.02014 0.50482 0.82096 0.0
C916 C 0.01846 0.51777 0.81111 0.0
C917 C 0.02221 0.5051 0.84436 0.0
C918 C 0.02315 0.49129 0.85607 0.0
C919 C 0.0109 0.47412 0.85206 0.0
C920 C 0.01159 0.46125 0.86351 0.0
C921 C 0.02416 0.46523 0.88 0.0
C922 C 0.03631 0.4825 0.88416 0.0
C923 C 0.03587 0.49534 0.87223 0.0
H924 H 0.45564 0.52296 0.86095 0.0
H925 H 0.43554 0.50093 0.885 0.0
H926 H 0.4501 0.4656 0.85892 0.0
H927 H 0.47049 0.48768 0.83585 0.0
H928 H 0.48892 0.53637 0.86358 0.0
H929 H 0.44691 0.50758 0.80411 0.0
H930 H 0.42636 0.4829 0.78145 0.0
H931 H 0.46494 0.47091 0.76526 0.0
H932 H 0.48536 0.49577 0.78729 0.0
H933 H 0.52754 0.53251 0.79607 0.0
H934 H 0.5535 0.54862 0.77645 0.0
H935 H 0.55116 0.59467 0.78753 0.0
H936 H 0.52517 0.57836 0.80777 0.0
H937 H 0.49712 0.52843 0.78407 0.0
H938 H 0.5374 0.55189 0.8446 0.0
H939 H 0.55839 0.57187 0.87182 0.0
H940 H 0.52499 0.5903 0.89001 0.0
H941 H 0.50411 0.5705 0.86242 0.0
C942 C 0.46439 0.50691 0.84635 0.0
C943 C 0.45433 0.51039 0.86029 0.0
C944 C 0.44284 0.4978 0.87395 0.0
C945 C 0.44137 0.48159 0.874 0.0
C946 C 0.45113 0.47804 0.85954 0.0
C947 C 0.4626 0.49059 0.84603 0.0
C948 C 0.47804 0.52063 0.8339 0.0
C949 C 0.49049 0.53497 0.846 0.0
C950 C 0.48029 0.51844 0.81114 0.0
C951 C 0.46769 0.50355 0.79737 0.0
C952 C 0.4509 0.49963 0.7956 0.0
C953 C 0.43916 0.48547 0.78269 0.0
C954 C 0.44396 0.4749 0.77137 0.0
C955 C 0.46081 0.47893 0.77324 0.0
C956 C 0.47253 0.49312 0.78597 0.0
C957 C 0.5244 0.55423 0.8032 0.0
C958 C 0.53264 0.54609 0.79432 0.0
C959 C 0.54743 0.5553 0.78302 0.0
C960 C 0.55425 0.57287 0.78012 0.0
C961 C 0.54624 0.58115 0.78957 0.0
C962 C 0.5314 0.57188 0.80106 0.0
C963 C 0.5082 0.54385 0.81395 0.0
C964 C 0.49527 0.53021 0.80145 0.0
C965 C 0.50573 0.54647 0.83646 0.0
C966 C 0.51923 0.55984 0.85118 0.0
C967 C 0.53477 0.56058 0.85392 0.0
C968 C 0.54676 0.57197 0.86957 0.0
C969 C 0.54332 0.58263 0.88307 0.0
C970 C 0.52793 0.58215 0.87996 0.0
C971 C 0.51602 0.57088 0.86417 0.0
H972 H 0.6076 0.81921 0.48193 0.0
H973 H 0.60897 0.84266 0.46068 0.0
H974 H 0.65953 0.87589 0.48632 0.0
H975 H 0.6582 0.85246 0.50712 0.0
H976 H 0.62749 0.80425 0.47998 0.0
H977 H 0.61598 0.83683 0.53851 0.0
H978 H 0.62414 0.86381 0.55894 0.0
H979 H 0.67229 0.86909 0.57582 0.0
H980 H 0.66412 0.84226 0.55564 0.0
H981 H 0.65979 0.80111 0.56114 0.0
H982 H 0.66396 0.781 0.58272 0.0
H983 H 0.61871 0.73918 0.55278 0.0
H984 H 0.61407 0.75944 0.53181 0.0
H985 H 0.63819 0.81 0.56151 0.0
H986 H 0.65853 0.79006 0.50068 0.0
H987 H 0.66064 0.76987 0.47552 0.0
H988 H 0.60704 0.74449 0.462 0.0
H989 H 0.60541 0.76561 0.48611 0.0
C990 C 0.63265 0.83419 0.4965 0.0
C991 C 0.61896 0.83155 0.48294 0.0
C992 C 0.61978 0.84492 0.47078 0.0
C993 C 0.63429 0.86114 0.47204 0.0
C994 C 0.64805 0.86363 0.48538 0.0
C995 C 0.64729 0.85026 0.49732 0.0
C996 C 0.63188 0.82007 0.5094 0.0
C997 C 0.62942 0.8053 0.49789 0.0
C998 C 0.63519 0.82178 0.53261 0.0
C999 C 0.63947 0.8376 0.54553 0.0
C1000 C 0.62823 0.84378 0.54674 0.0
C1001 C 0.63286 0.8591 0.55847 0.0
C1002 C 0.64885 0.8685 0.56885 0.0
C1003 C 0.65994 0.86214 0.56783 0.0
C1004 C 0.65525 0.84679 0.55641 0.0
C1005 C 0.63668 0.78181 0.54466 0.0
C1006 C 0.65061 0.78764 0.55937 0.0
C1007 C 0.65297 0.77617 0.57176 0.0
C1008 C 0.64158 0.75861 0.56948 0.0
C1009 C 0.62766 0.7527 0.55476 0.0
C1010 C 0.62511 0.76424 0.54263 0.0
C1011 C 0.63419 0.79431 0.53209 0.0
C1012 C 0.63583 0.80869 0.54367 0.0
C1013 C 0.63108 0.79268 0.50884 0.0
C1014 C 0.63183 0.77931 0.49518 0.0
C1015 C 0.64725 0.78006 0.49235 0.0
C1016 C 0.64837 0.76835 0.47805 0.0
C1017 C 0.63402 0.75542 0.4665 0.0
C1018 C 0.61846 0.75443 0.47009 0.0
C1019 C 0.61743 0.7664 0.48403 0.0
H1020 H 0.16242 0.76003 0.50874 0.0
H1021 H 0.14081 0.74049 0.48178 0.0
H1022 H 0.11608 0.77029 0.4873 0.0
H1023 H 0.13718 0.78899 0.51521 0.0
H1024 H 0.18065 0.79968 0.5 0.0
H1025 H 0.14621 0.7557 0.55269 0.0
H1026 H 0.12099 0.73803 0.57379 0.0
H1027 H 0.12122 0.78345 0.59747 0.0
H1028 H 0.14594 0.80093 0.57604 0.0
H1029 H 0.18489 0.83798 0.57851 0.0
H1030 H 0.20511 0.86416 0.59871 0.0
H1031 H 0.24556 0.85683 0.57704 0.0
H1032 H 0.22517 0.8304 0.55686 0.0
H1033 H 0.17577 0.80587 0.58103 0.0
H1034 H 0.19826 0.84768 0.52876 0.0
H1035 H 0.21756 0.87059 0.50567 0.0
H1036 H 0.23334 0.83711 0.47648 0.0
H1037 H 0.21444 0.81435 0.50057 0.0
C1038 C 0.1513 0.77584 0.51397 0.0
C1039 C 0.15211 0.76206 0.50441 0.0
C1040 C 0.13981 0.75103 0.48882 0.0
C1041 C 0.1267 0.75385 0.48201 0.0
C1042 C 0.12574 0.76746 0.49225 0.0
C1043 C 0.13787 0.77827 0.50815 0.0
C1044 C 0.16533 0.78875 0.52825 0.0
C1045 C 0.17985 0.80078 0.51785 0.0
C1046 C 0.16369 0.79074 0.55121 0.0
C1047 C 0.14799 0.77966 0.56279 0.0
C1048 C 0.14064 0.76181 0.5621 0.0
C1049 C 0.12631 0.75175 0.5742 0.0
C1050 C 0.11935 0.75945 0.5874 0.0
C1051 C 0.12653 0.77724 0.58769 0.0
C1052 C 0.14064 0.78722 0.57546 0.0
C1053 C 0.20351 0.83224 0.56609 0.0
C1054 C 0.19808 0.84185 0.5783 0.0
C1055 C 0.20965 0.85688 0.58971 0.0
C1056 C 0.22691 0.86257 0.58933 0.0
C1057 C 0.23233 0.85268 0.5777 0.0
C1058 C 0.22072 0.83767 0.56607 0.0
C1059 C 0.19107 0.81694 0.5528 0.0
C1060 C 0.17688 0.80447 0.56331 0.0
C1061 C 0.19241 0.81522 0.52964 0.0
C1062 C 0.20515 0.82939 0.51673 0.0
C1063 C 0.20618 0.84538 0.51784 0.0
C1064 C 0.21703 0.85839 0.50432 0.0
C1065 C 0.22688 0.85563 0.48908 0.0
C1066 C 0.22603 0.83969 0.48819 0.0
C1067 C 0.2152 0.82666 0.50186 0.0
H1068 H 0.14582 0.34565 0.50236 0.0
H1069 H 0.12345 0.34171 0.47647 0.0
H1070 H 0.12609 0.38753 0.50365 0.0
H1071 H 0.14873 0.39146 0.52967 0.0
H1072 H 0.17821 0.37376 0.50449 0.0
H1073 H 0.12981 0.3444 0.55044 0.0
H1074 H 0.10519 0.34088 0.56972 0.0
H1075 H 0.13635 0.38818 0.60685 0.0
H1076 H 0.16095 0.39164 0.58745 0.0
H1077 H 0.2237 0.39235 0.56105 0.0
H1078 H 0.2438 0.38686 0.58114 0.0
H1079 H 0.2027 0.34101 0.60657 0.0
H1080 H 0.18277 0.34636 0.58629 0.0
H1081 H 0.17429 0.36985 0.58635 0.0
H1082 H 0.21216 0.39811 0.50843 0.0
H1083 H 0.23325 0.39744 0.48492 0.0
H1084 H 0.22038 0.34805 0.50963 0.0
H1085 H 0.19938 0.34883 0.53308 0.0
C1086 C 0.14893 0.36885 0.51786 0.0
C1087 C 0.14152 0.35479 0.50285 0.0
C1088 C 0.12863 0.35248 0.48821 0.0
C1089 C 0.12295 0.36427 0.48811 0.0
C1090 C 0.13026 0.37828 0.50334 0.0
C1091 C 0.14312 0.38051 0.51822 0.0
C1092 C 0.1631 0.3713 0.53249 0.0
C1093 C 0.17749 0.37319 0.52245 0.0
C1094 C 0.16211 0.37053 0.55583 0.0
C1095 C 0.14716 0.3684 0.56734 0.0
C1096 C 0.13129 0.35412 0.56253 0.0
C1097 C 0.11724 0.35213 0.57353 0.0
C1098 C 0.11883 0.36429 0.58973 0.0
C1099 C 0.13476 0.37853 0.59458 0.0
C1100 C 0.1488 0.38054 0.5835 0.0
C1101 C 0.20169 0.3697 0.572 0.0
C1102 C 0.21903 0.38113 0.57097 0.0
C1103 C 0.23051 0.37797 0.58242 0.0
C1104 C 0.22484 0.36349 0.59541 0.0
C1105 C 0.20748 0.35239 0.59693 0.0
C1106 C 0.19605 0.35545 0.58535 0.0
C1107 C 0.18931 0.37181 0.55827 0.0
C1108 C 0.17528 0.37093 0.56847 0.0
C1109 C 0.19052 0.37333 0.53495 0.0
C1110 C 0.20438 0.37361 0.52264 0.0
C1111 C 0.21407 0.38725 0.50895 0.0
C1112 C 0.22602 0.38682 0.49548 0.0
C1113 C 0.22843 0.37269 0.49543 0.0
C1114 C 0.21897 0.35922 0.50956 0.0
C1115 C 0.20698 0.35964 0.52297 0.0
H1116 H 0.99867 0.35651 0.05681 0.0
H1117 H 0.97368 0.37499 0.01379 0.0
H1118 H 0.99458 0.37118 0.08858 0.0
H1119 H 0.97041 0.39018 0.04481 0.0
H1120 H 0.95533 0.4077 0.10371 0.0
H1121 H 0.95627 0.38818 0.07667 0.0
H1122 H 0.00391 0.39831 0.1051 0.0
H1123 H 0.00213 0.41655 0.13375 0.0
C1124 C 0.99229 0.36366 0.05413 0.0
C1125 C 0.98641 0.36444 0.03276 0.0
C1126 C 0.99004 0.37218 0.07231 0.0
C1127 C 0.98206 0.38187 0.06943 0.0
C1128 C 0.97618 0.38253 0.04799 0.0
C1129 C 0.97818 0.37385 0.03003 0.0
C1130 C 0.96581 0.40546 0.10475 0.0
C1131 C 0.97872 0.41397 0.12101 0.0
C1132 C 0.96651 0.39443 0.08883 0.0
C1133 C 0.98036 0.39187 0.08825 0.0
C1134 C 0.993 0.39986 0.10496 0.0
C1135 C 0.99212 0.41064 0.12122 0.0
H1136 H 0.61354 0.61606 0.0925 0.0
H1137 H 0.63309 0.5889 0.05524 0.0
H1138 H 0.5941 0.58998 0.1102 0.0
H1139 H 0.61354 0.56256 0.07347 0.0
H1140 H 0.59097 0.52851 0.13716 0.0
H1141 H 0.60942 0.55191 0.11359 0.0
H1142 H 0.56896 0.56161 0.09901 0.0
H1143 H 0.55054 0.53822 0.1222 0.0
C1144 C 0.61355 0.60449 0.08781 0.0
C1145 C 0.62473 0.60455 0.07222 0.0
C1146 C 0.60238 0.58951 0.098 0.0
C1147 C 0.60223 0.57424 0.09305 0.0
C1148 C 0.61343 0.5742 0.07755 0.0
C1149 C 0.62454 0.58923 0.0671 0.0
C1150 C 0.58596 0.53545 0.12858 0.0
C1151 C 0.56941 0.53175 0.13185 0.0
C1152 C 0.59649 0.5488 0.11509 0.0
C1153 C 0.59063 0.55866 0.10474 0.0
C1154 C 0.57386 0.55439 0.10713 0.0
C1155 C 0.56336 0.54106 0.12049 0.0
H1156 H 0.37019 0.00686 0.05225 0.0
H1157 H 0.41533 0.02867 0.01452 0.0
H1158 H 0.38688 0.01225 0.08641 0.0
H1159 H 0.43193 0.03318 0.0483 0.0
H1160 H 0.46071 0.0496 0.11237 0.0
H1161 H 0.44301 0.04847 0.08144 0.0
H1162 H 0.40186 0.00211 0.10592 0.0
H1163 H 0.41908 0.00417 0.13801 0.0
C1164 C 0.38369 0.01278 0.05126 0.0
C1165 C 0.39144 0.01733 0.03068 0.0
C1166 C 0.39328 0.01577 0.07085 0.0
C1167 C 0.41083 0.02309 0.07027 0.0
C1168 C 0.41853 0.02785 0.04962 0.0
C1169 C 0.40898 0.02515 0.03014 0.0
C1170 C 0.44775 0.03942 0.11159 0.0
C1171 C 0.44145 0.0269 0.12777 0.0
C1172 C 0.43764 0.03859 0.09351 0.0
C1173 C 0.42102 0.02503 0.09081 0.0
C1174 C 0.41453 0.01283 0.10738 0.0
C1175 C 0.42455 0.01385 0.12569 0.0
H1176 H 0.37512 0.95863 0.96553 0.0
H1177 H 0.37898 -0.001 0.9247 0.0
H1178 H 0.39647 0.95705 0.94349 0.0
H1179 H 0.39983 0.99722 0.90268 0.0
H1180 H 0.44977 0.00412 0.88409 0.0
H1181 H 0.42863 0.00434 0.9074 0.0
H1182 H 0.40136 0.94923 0.90592 0.0
H1183 H 0.42306 0.94901 0.88331 0.0
C1184 C 0.38046 0.96709 0.95184 0.0
C1185 C 0.37556 0.9791 0.94704 0.0
C1186 C 0.3926 0.96614 0.93918 0.0
C1187 C 0.39997 0.97715 0.92151 0.0
C1188 C 0.39471 0.98884 0.9165 0.0
C1189 C 0.38271 0.98983 0.92912 0.0
C1190 C 0.4394 0.99203 0.88896 0.0
C1191 C 0.43811 0.97655 0.88187 0.0
C1192 C 0.42717 0.99215 0.90211 0.0
C1193 C 0.41326 0.97679 0.90838 0.0
C1194 C 0.412 0.96127 0.90148 0.0
C1195 C 0.4243 0.96115 0.88831 0.0
H1196 H 0.0461 0.39149 0.942 0.0
H1197 H 0.99812 0.38034 0.96658 0.0
H1198 H 0.0476 0.41506 0.92122 0.0
H1199 H -3e-05 0.40448 0.94745 0.0
H1200 H 0.9971 0.43518 0.89252 0.0
H1201 H 0.99704 0.41259 0.91297 0.0
H1202 H 0.05112 0.4421 0.92056 0.0
H1203 H 0.05132 0.46396 0.89779 0.0
C1204 C 0.03604 0.39435 0.94324 0.0
C1205 C 0.02189 0.38404 0.95554 0.0
C1206 C 0.03689 0.40791 0.93146 0.0
C1207 C 0.02378 0.41166 0.93227 0.0
C1208 C 0.01005 0.40172 0.94564 0.0
C1209 C 0.00901 0.38793 0.95683 0.0
C1210 C 0.00907 0.43677 0.89802 0.0
C1211 C 0.02423 0.4515 0.89321 0.0
C1212 C 0.009 0.42388 0.91031 0.0
C1213 C 0.02406 0.42546 0.91881 0.0
C1214 C 0.03925 0.44023 0.91416 0.0
C1215 C 0.03934 0.45299 0.90136 0.0
H1216 H 0.62681 0.62723 0.97881 0.0
H1217 H 0.59097 0.63914 0.00709 0.0
H1218 H 0.60894 0.61543 0.94543 0.0
H1219 H 0.57346 0.62808 0.97339 0.0
H1220 H 0.53598 0.58562 0.9259 0.0
H1221 H 0.55529 0.60122 0.95682 0.0
H1222 H 0.59697 0.61947 0.91274 0.0
H1223 H 0.57749 0.60328 0.88183 0.0
C1224 C 0.6153 0.62769 0.97769 0.0
C1225 C 0.61022 0.63394 0.99572 0.0
C1226 C 0.60504 0.62097 0.95848 0.0
C1227 C 0.58958 0.62055 0.95673 0.0
C1228 C 0.58502 0.62773 0.97432 0.0
C1229 C 0.59514 0.6342 0.99362 0.0
C1230 C 0.54925 0.59316 0.92275 0.0
C1231 C 0.55521 0.59325 0.90143 0.0
C1232 C 0.56037 0.60219 0.94049 0.0
C1233 C 0.57777 0.61173 0.93738 0.0
C1234 C 0.5837 0.61209 0.91589 0.0
C1235 C 0.57255 0.60287 0.89814 0.0
H1236 H 0.9912 0.63225 0.97218 0.0
H1237 H 0.03539 0.63509 0.0026 0.0
H1238 H 0.99351 0.61656 0.94023 0.0
H1239 H 0.03745 0.6192 0.97111 0.0
H1240 H 0.04412 0.5992 0.9059 0.0
H1241 H 0.04312 0.61943 0.93224 0.0
H1242 H 0.98916 0.58808 0.93319 0.0
H1243 H 0.9901 0.56825 0.90611 0.0
C1244 C 0.00151 0.62973 0.97197 0.0
C1245 C 0.01303 0.63485 0.99008 0.0
C1246 C 0.00276 0.62062 0.95372 0.0
C1247 C 0.0156 0.61651 0.95314 0.0
C1248 C 0.0275 0.62228 0.97083 0.0
C1249 C 0.02624 0.63132 0.98903 0.0
C1250 C 0.03201 0.59679 0.91136 0.0
C1251 C 0.0172 0.582 0.904 0.0
C1252 C 0.03145 0.60831 0.92666 0.0
C1253 C 0.01607 0.60533 0.935 0.0
C1254 C 0.00121 0.59087 0.92701 0.0
C1255 C 0.00177 0.57936 0.9117 0.0
H1256 H 0.36708 0.41293 0.96784 0.0
H1257 H 0.38448 0.38424 0.92958 0.0
H1258 H 0.38645 0.43875 0.94849 0.0
H1259 H 0.40374 0.40982 0.91076 0.0
H1260 H 0.44846 0.46099 0.8985 0.0
H1261 H 0.42963 0.43769 0.92147 0.0
H1262 H 0.39036 0.44943 0.90831 0.0
H1263 H 0.40924 0.47277 0.88492 0.0
C1264 C 0.37508 0.41214 0.95547 0.0
C1265 C 0.37442 0.39658 0.9505 0.0
C1266 C 0.38609 0.42688 0.94437 0.0
C1267 C 0.3967 0.42628 0.92833 0.0
C1268 C 0.39594 0.41072 0.92337 0.0
C1269 C 0.38489 0.39604 0.93422 0.0
C1270 C 0.4358 0.45859 0.90042 0.0
C1271 C 0.43022 0.46849 0.88954 0.0
C1272 C 0.42506 0.44531 0.91366 0.0
C1273 C 0.4085 0.44166 0.91643 0.0
C1274 C 0.4031 0.45205 0.9065 0.0
C1275 C 0.41388 0.46536 0.89311 0.0
H1276 H 0.63551 0.01136 0.96959 0.0
H1277 H 0.59256 0.96534 0.99163 0.0
H1278 H 0.62092 0.00808 0.93402 0.0
H1279 H 0.57804 0.9622 0.9562 0.0
H1280 H 0.5606 0.95417 0.88418 0.0
H1281 H 0.57873 0.95661 0.91574 0.0
H1282 H 0.59613 0.0105 0.92245 0.0
H1283 H 0.57786 0.00807 0.89126 0.0
C1284 C 0.62304 0.00046 0.9668 0.0
C1285 C 0.61516 0.98867 0.98355 0.0
C1286 C 0.61467 0.99864 0.94646 0.0
C1287 C 0.59833 0.98491 0.94234 0.0
C1288 C 0.59069 0.97281 0.95878 0.0
C1289 C 0.59899 0.9747 0.97916 0.0
C1290 C 0.56834 0.96655 0.89233 0.0
C1291 C 0.56765 0.98089 0.88525 0.0
C1292 C 0.57874 0.96794 0.91037 0.0
C1293 C 0.58878 0.98372 0.92165 0.0
C1294 C 0.5887 0.9982 0.91394 0.0
C1295 C 0.57823 0.9968 0.896 0.0
H1296 H 0.61688 -0.00014 0.08779 0.0
H1297 H 0.63509 0.04931 0.05953 0.0
H1298 H 0.59825 0.0046 0.11086 0.0
H1299 H 0.61656 0.05428 0.08337 0.0
H1300 H 0.56596 0.04536 0.11356 0.0
H1301 H 0.58637 0.04381 0.08955 0.0
H1302 H 0.6012 0.0226 0.14298 0.0
H1303 H 0.58071 0.02392 0.16671 0.0
C1304 C 0.61685 0.01173 0.08637 0.0
C1305 C 0.62744 0.02418 0.07174 0.0
C1306 C 0.60629 0.01453 0.09985 0.0
C1307 C 0.60612 0.02992 0.09919 0.0
C1308 C 0.61642 0.04228 0.08421 0.0
C1309 C 0.62703 0.03945 0.07061 0.0
C1310 C 0.57381 0.04065 0.12021 0.0
C1311 C 0.57164 0.03454 0.14185 0.0
C1312 C 0.58548 0.03977 0.1065 0.0
C1313 C 0.59517 0.03281 0.11426 0.0
C1314 C 0.59361 0.02762 0.13634 0.0
C1315 C 0.58193 0.02842 0.14995 0.0
H1316 H 0.00326 0.62955 0.09117 0.0
H1317 H 0.95565 0.59722 0.05686 0.0
H1318 H 0.00049 0.60526 0.11082 0.0
H1319 H 0.95253 0.57283 0.07733 0.0
H1320 H 0.98402 0.56351 0.15951 0.0
H1321 H 0.98462 0.58685 0.13952 0.0
H1322 H 0.96394 0.55396 0.08076 0.0
H1323 H 0.96304 0.53046 0.10107 0.0
C1324 C 0.99219 0.61724 0.08777 0.0
C1325 C 0.97974 0.61532 0.07229 0.0
C1326 C 0.99049 0.6033 0.09929 0.0
C1327 C 0.97622 0.58708 0.09581 0.0
C1328 C 0.96375 0.58511 0.08027 0.0
C1329 C 0.9655 0.5991 0.06863 0.0
C1330 C 0.97959 0.56127 0.14233 0.0
C1331 C 0.97363 0.54522 0.13179 0.0
C1332 C 0.97997 0.57466 0.13083 0.0
C1333 C 0.97454 0.57237 0.10841 0.0
C1334 C 0.9681 0.55614 0.09805 0.0
C1335 C 0.9676 0.54268 0.10965 0.0
H1336 H 0.3711 0.36058 0.05062 0.0
H1337 H 0.41588 0.38544 0.01228 0.0
H1338 H 0.38834 0.37074 0.08489 0.0
H1339 H 0.4329 0.3962 0.04611 0.0
H1340 H 0.46261 0.4041 0.10764 0.0
H1341 H 0.44363 0.38909 0.07644 0.0
H1342 H 0.40501 0.39533 0.10752 0.0
H1343 H 0.42354 0.40898 0.13983 0.0
C1344 C 0.3846 0.36824 0.04951 0.0
C1345 C 0.3921 0.3721 0.0287 0.0
C1346 C 0.3945 0.37416 0.06915 0.0
C1347 C 0.4121 0.38425 0.06841 0.0
C1348 C 0.41948 0.3881 0.04751 0.0
C1349 C 0.40966 0.38201 0.028 0.0
C1350 C 0.44994 0.40187 0.10827 0.0
C1351 C 0.44477 0.40797 0.12639 0.0
C1352 C 0.43908 0.3935 0.09004 0.0
C1353 C 0.42283 0.39127 0.0891 0.0
C1354 C 0.41739 0.39673 0.10757 0.0
C1355 C 0.42817 0.40486 0.12603 0.0
H1356 H 0.65866 0.68853 0.38643 0.0
H1357 H 0.64294 0.7143 0.34076 0.0
H1358 H 0.65181 0.70139 0.41767 0.0
H1359 H 0.63701 0.72775 0.37154 0.0
H1360 H 0.61555 0.74138 0.42763 0.0
H1361 H 0.61896 0.72403 0.39955 0.0
H1362 H 0.6604 0.72691 0.43799 0.0
H1363 H 0.65587 0.74287 0.46725 0.0
C1364 C 0.65379 0.69696 0.38306 0.0
C1365 C 0.65124 0.70027 0.36108 0.0
C1366 C 0.64995 0.70443 0.40097 0.0
C1367 C 0.64372 0.7156 0.39729 0.0
C1368 C 0.64129 0.71889 0.37523 0.0
C1369 C 0.64484 0.71123 0.35745 0.0
C1370 C 0.6251 0.73796 0.43054 0.0
C1371 C 0.6355 0.74377 0.44985 0.0
C1372 C 0.62729 0.72822 0.41409 0.0
C1373 C 0.64022 0.72429 0.41611 0.0
C1374 C 0.65026 0.72957 0.43574 0.0
C1375 C 0.64785 0.73905 0.45245 0.0
H1376 H 0.29761 0.92274 0.39192 0.0
H1377 H 0.28145 0.95301 0.42904 0.0
H1378 H 0.27889 0.89782 0.41302 0.0
H1379 H 0.26283 0.92822 0.44989 0.0
H1380 H 0.21905 0.87678 0.46689 0.0
H1381 H 0.23694 0.90013 0.44332 0.0
H1382 H 0.27667 0.88847 0.45253 0.0
H1383 H 0.25881 0.86515 0.47646 0.0
C1384 C 0.29001 0.92406 0.40445 0.0
C1385 C 0.29092 0.93983 0.40867 0.0
C1386 C 0.27937 0.90983 0.41658 0.0
C1387 C 0.26936 0.91108 0.43302 0.0
C1388 C 0.2702 0.92681 0.43709 0.0
C1389 C 0.2809 0.94103 0.42512 0.0
C1390 C 0.23164 0.87926 0.46405 0.0
C1391 C 0.23759 0.86925 0.4738 0.0
C1392 C 0.24186 0.89259 0.45048 0.0
C1393 C 0.25823 0.89618 0.44623 0.0
C1394 C 0.26404 0.88589 0.45539 0.0
C1395 C 0.25382 0.87255 0.46909 0.0
H1396 H 0.0849 0.36269 0.35849 0.0
H1397 H 0.03904 0.32931 0.39152 0.0
H1398 H 0.10033 0.37008 0.3939 0.0
H1399 H 0.05456 0.33695 0.4271 0.0
H1400 H 0.09391 0.33518 0.47567 0.0
H1401 H 0.07539 0.33082 0.44379 0.0
H1402 H 0.10446 0.38446 0.43037 0.0
H1403 H 0.12328 0.38873 0.462 0.0
C1404 C 0.07805 0.35707 0.37333 0.0
C1405 C 0.06073 0.34526 0.37208 0.0
C1406 C 0.0869 0.36144 0.39369 0.0
C1407 C 0.07868 0.35408 0.41332 0.0
C1408 C 0.06127 0.3427 0.41222 0.0
C1409 C 0.05238 0.33838 0.39183 0.0
C1410 C 0.09623 0.34607 0.46605 0.0
C1411 C 0.11015 0.36226 0.47117 0.0
C1412 C 0.08553 0.34361 0.4479 0.0
C1413 C 0.08854 0.35727 0.43442 0.0
C1414 C 0.10194 0.37365 0.44027 0.0
C1415 C 0.11262 0.37612 0.45851 0.0
H1416 H 0.01921 0.2701 0.28854 0.0
H1417 H 0.06351 0.31799 0.30672 0.0
H1418 H 0.03644 0.26141 0.26732 0.0
H1419 H 0.08067 0.3094 0.28593 0.0
H1420 H 0.1096 0.28775 0.25601 0.0
H1421 H 0.09029 0.28759 0.28333 0.0
H1422 H 0.05257 0.27451 0.23136 0.0
H1423 H 0.07199 0.27493 0.20387 0.0
C1424 C 0.03268 0.2785 0.28851 0.0
C1425 C 0.04012 0.29472 0.29901 0.0
C1426 C 0.04248 0.27361 0.27631 0.0
C1427 C 0.05984 0.28476 0.27496 0.0
C1428 C 0.06734 0.30048 0.28683 0.0
C1429 C 0.05753 0.30547 0.29859 0.0
C1430 C 0.09712 0.28467 0.25043 0.0
C1431 C 0.09242 0.28175 0.22774 0.0
C1432 C 0.08606 0.28446 0.26609 0.0
C1433 C 0.07003 0.28119 0.2594 0.0
C1434 C 0.06483 0.27693 0.23697 0.0
C1435 C 0.07595 0.27723 0.22124 0.0
H1436 H 0.67921 0.70688 0.25772 0.0
H1437 H 0.70756 0.73849 0.31474 0.0
H1438 H 0.68378 0.73195 0.2383 0.0
H1439 H 0.71134 0.76374 0.29586 0.0
H1440 H 0.7267 0.8076 0.24882 0.0
H1441 H 0.72433 0.78301 0.26757 0.0
H1442 H 0.67484 0.7515 0.23744 0.0
H1443 H 0.67787 0.77553 0.21718 0.0
C1444 C 0.68632 0.71925 0.26617 0.0
C1445 C 0.69297 0.72075 0.28775 0.0
C1446 C 0.68883 0.73366 0.25511 0.0
C1447 C 0.69772 0.74997 0.26556 0.0
C1448 C 0.70459 0.75147 0.28713 0.0
C1449 C 0.70237 0.73701 0.29804 0.0
C1450 C 0.71543 0.79536 0.24588 0.0
C1451 C 0.70249 0.79366 0.23138 0.0
C1452 C 0.71395 0.78127 0.25695 0.0
C1453 C 0.69941 0.76515 0.25404 0.0
C1454 C 0.6864 0.76356 0.23982 0.0
C1455 C 0.688 0.77752 0.22847 0.0
H1456 H 0.29384 0.97277 0.30712 0.0
H1457 H 0.2492 0.95134 0.34589 0.0
H1458 H 0.27648 0.96138 0.27317 0.0
H1459 H 0.23195 0.93928 0.31234 0.0
H1460 H 0.2026 0.92853 0.24911 0.0
H1461 H 0.22136 0.94455 0.28019 0.0
H1462 H 0.25963 0.93584 0.25288 0.0
H1463 H 0.24138 0.92112 0.22073 0.0
C1464 C 0.28033 0.96561 0.3084 0.0
C1465 C 0.27293 0.96301 0.32923 0.0
C1466 C 0.27035 0.95897 0.28894 0.0
C1467 C 0.25274 0.94935 0.28987 0.0
C1468 C 0.24541 0.94691 0.31076 0.0
C1469 C 0.25534 0.95375 0.33013 0.0
C1470 C 0.21516 0.93039 0.24933 0.0
C1471 C 0.22035 0.92336 0.2323 0.0
C1472 C 0.22587 0.93936 0.26747 0.0
C1473 C 0.24199 0.94131 0.26938 0.0
C1474 C 0.24738 0.93474 0.25203 0.0
C1475 C 0.23676 0.92601 0.23368 0.0
H1476 H 0.65934 0.96268 0.29981 0.0
H1477 H 0.70715 0.97361 0.3285 0.0
H1478 H 0.66404 0.94902 0.26739 0.0
H1479 H 0.71173 0.95995 0.29639 0.0
H1480 H 0.72098 0.9444 0.22895 0.0
H1481 H 0.71657 0.96202 0.25612 0.0
H1482 H 0.66498 0.9222 0.26143 0.0
H1483 H 0.6694 0.90448 0.23461 0.0
C1484 C 0.67094 0.9624 0.29907 0.0
C1485 C 0.68281 0.96914 0.31683 0.0
C1486 C 0.67358 0.95449 0.28058 0.0
C1487 C 0.68823 0.95335 0.27936 0.0
C1488 C 0.70039 0.96075 0.29668 0.0
C1489 C 0.69769 0.96848 0.3152 0.0
C1490 C 0.70869 0.9394 0.23589 0.0
C1491 C 0.6956 0.92294 0.22967 0.0
C1492 C 0.70615 0.94953 0.2514 0.0
C1493 C 0.69044 0.94349 0.26099 0.0
C1494 C 0.67717 0.92733 0.25414 0.0
C1495 C 0.67972 0.91716 0.23872 0.0
H1496 H 0.03573 0.74459 0.3011 0.0
H1497 H 0.05501 0.71717 0.26385 0.0
H1498 H 0.05373 0.77031 0.28065 0.0
H1499 H 0.07285 0.74262 0.24384 0.0
H1500 H 0.11527 0.79422 0.22862 0.0
H1501 H 0.09778 0.77119 0.2528 0.0
H1502 H 0.05663 0.78025 0.24048 0.0
H1503 H 0.07424 0.80344 0.21599 0.0
C1504 C 0.04385 0.74407 0.28871 0.0
C1505 C 0.04412 0.7289 0.28434 0.0
C1506 C 0.05407 0.75874 0.27697 0.0
C1507 C 0.0648 0.75848 0.26085 0.0
C1508 C 0.06496 0.7433 0.25649 0.0
C1509 C 0.05472 0.72869 0.26802 0.0
C1510 C 0.10248 0.7913 0.23101 0.0
C1511 C 0.096 0.80038 0.22006 0.0
C1512 C 0.0925 0.77816 0.24492 0.0
C1513 C 0.0758 0.7738 0.24825 0.0
C1514 C 0.0695 0.78341 0.23823 0.0
C1515 C 0.07954 0.79662 0.22421 0.0
H1516 H 0.25262 0.29589 0.32952 0.0
H1517 H 0.29771 0.33483 0.30004 0.0
H1518 H 0.23741 0.29079 0.29425 0.0
H1519 H 0.2825 0.32941 0.26455 0.0
H1520 H 0.24259 0.33224 0.21908 0.0
H1521 H 0.2611 0.33493 0.25012 0.0
H1522 H 0.23386 0.2802 0.25617 0.0
H1523 H 0.21491 0.2776 0.2256 0.0
C1524 C 0.25938 0.30321 0.31544 0.0
C1525 C 0.27638 0.31592 0.31773 0.0
C1526 C 0.25066 0.30017 0.29513 0.0
C1527 C 0.25871 0.30972 0.27656 0.0
C1528 C 0.27587 0.32198 0.27861 0.0
C1529 C 0.28461 0.32505 0.29895 0.0
C1530 C 0.24066 0.32077 0.22691 0.0
C1531 C 0.22716 0.30474 0.22007 0.0
C1532 C 0.25137 0.32229 0.24457 0.0
C1533 C 0.24886 0.30779 0.2558 0.0
C1534 C 0.23597 0.29164 0.2481 0.0
C1535 C 0.22523 0.29013 0.23041 0.0
H1536 H 0.29642 0.38039 0.39046 0.0
H1537 H 0.27984 0.33212 0.42136 0.0
H1538 H 0.2794 0.38641 0.41581 0.0
H1539 H 0.26271 0.33795 0.44612 0.0
H1540 H 0.25078 0.36196 0.50404 0.0
H1541 H 0.26826 0.35774 0.47768 0.0
H1542 H 0.24981 0.37639 0.42522 0.0
H1543 H 0.2323 0.38063 0.45162 0.0
C1544 C 0.28898 0.37097 0.40241 0.0
C1545 C 0.28949 0.35579 0.40391 0.0
C1546 C 0.27924 0.37441 0.41688 0.0
C1547 C 0.26992 0.36274 0.43313 0.0
C1548 C 0.27004 0.34734 0.43409 0.0
C1549 C 0.27972 0.34392 0.41968 0.0
C1550 C 0.25047 0.36516 0.48688 0.0
C1551 C 0.2401 0.37151 0.47986 0.0
C1552 C 0.26045 0.36273 0.47179 0.0
C1553 C 0.26023 0.36655 0.44933 0.0
C1554 C 0.2503 0.37345 0.44244 0.0
C1555 C 0.24031 0.37589 0.45757 0.0
H1556 H 0.66983 0.96034 0.4174 0.0
H1557 H 0.62221 0.92939 0.38244 0.0
H1558 H 0.66579 0.93568 0.43743 0.0
H1559 H 0.61783 0.90471 0.40322 0.0
H1560 H 0.64606 0.89387 0.48702 0.0
H1561 H 0.64895 0.91785 0.46611 0.0
H1562 H 0.62786 0.88484 0.40752 0.0
H1563 H 0.6247 0.86075 0.42868 0.0
C1564 C 0.65851 0.94826 0.41392 0.0
C1565 C 0.6464 0.94683 0.39819 0.0
C1566 C 0.65609 0.93413 0.42563 0.0
C1567 C 0.64142 0.91821 0.42208 0.0
C1568 C 0.62935 0.91673 0.40621 0.0
C1569 C 0.63182 0.9309 0.39439 0.0
C1570 C 0.64207 0.89176 0.46966 0.0
C1571 C 0.63526 0.87547 0.45945 0.0
C1572 C 0.64376 0.9055 0.45764 0.0
C1573 C 0.6388 0.90333 0.43505 0.0
C1574 C 0.63166 0.88694 0.42494 0.0
C1575 C 0.62986 0.87314 0.43704 0.0
H1576 H 0.08767 0.72108 0.34833 0.0
H1577 H 0.04259 0.69501 0.38586 0.0
H1578 H 0.10427 0.73233 0.38246 0.0
H1579 H 0.0594 0.70571 0.42041 0.0
H1580 H 0.09327 0.74412 0.47597 0.0
H1581 H 0.07534 0.73054 0.4431 0.0
H1582 H 0.11497 0.72541 0.41318 0.0
H1583 H 0.13331 0.74027 0.445 0.0
C1584 C 0.0813 0.71752 0.36392 0.0
C1585 C 0.06378 0.7071 0.36432 0.0
C1586 C 0.09088 0.7239 0.38361 0.0
C1587 C 0.08327 0.71984 0.40436 0.0
C1588 C 0.06571 0.70929 0.40479 0.0
C1589 C 0.05606 0.70307 0.38498 0.0
C1590 C 0.09824 0.74025 0.46231 0.0
C1591 C 0.1149 0.74356 0.4632 0.0
C1592 C 0.08782 0.73219 0.44353 0.0
C1593 C 0.09371 0.72702 0.42524 0.0
C1594 C 0.11008 0.72956 0.42664 0.0
C1595 C 0.12055 0.73785 0.44521 0.0
H1596 H 0.29532 0.02964 0.69187 0.0
H1597 H 0.34133 0.03716 0.72278 0.0
H1598 H 0.29092 0.04359 0.72381 0.0
H1599 H 0.33675 0.05101 0.75503 0.0
H1600 H 0.3342 0.09675 0.78835 0.0
H1601 H 0.33774 0.07854 0.76136 0.0
H1602 H 0.2849 0.04156 0.7635 0.0
H1603 H 0.28134 0.05973 0.79079 0.0
C1604 C 0.3044 0.03406 0.70563 0.0
C1605 C 0.31877 0.0324 0.70464 0.0
C1606 C 0.30179 0.04196 0.72404 0.0
C1607 C 0.31352 0.04849 0.74193 0.0
C1608 C 0.32758 0.04628 0.74138 0.0
C1609 C 0.33014 0.03824 0.72297 0.0
C1610 C 0.32338 0.08457 0.78348 0.0
C1611 C 0.30746 0.07976 0.79172 0.0
C1612 C 0.32542 0.07411 0.76798 0.0
C1613 C 0.3116 0.05861 0.76023 0.0
C1614 C 0.29576 0.05354 0.76893 0.0
C1615 C 0.29372 0.06398 0.78451 0.0
H1616 H 0.94653 0.28485 0.7556 0.0
H1617 H 0.96512 0.25681 0.71833 0.0
H1618 H 0.92865 0.25956 0.77597 0.0
H1619 H 0.9471 0.23129 0.73904 0.0
H1620 H 0.9271 0.19818 0.80316 0.0
H1621 H 0.94457 0.22149 0.77882 0.0
H1622 H 0.90359 0.23107 0.76806 0.0
H1623 H 0.88621 0.20788 0.79209 0.0
C1624 C 0.94666 0.27323 0.75152 0.0
C1625 C 0.95711 0.27281 0.73513 0.0
C1626 C 0.93639 0.25872 0.76324 0.0
C1627 C 0.93639 0.24343 0.75897 0.0
C1628 C 0.94691 0.24295 0.74269 0.0
C1629 C 0.95714 0.25751 0.73079 0.0
C1630 C 0.9218 0.20514 0.79534 0.0
C1631 C 0.90541 0.20143 0.79986 0.0
C1632 C 0.93177 0.21844 0.7814 0.0
C1633 C 0.92549 0.22821 0.77181 0.0
C1634 C 0.90888 0.22399 0.77561 0.0
C1635 C 0.89895 0.21075 0.78943 0.0
H1636 H 0.74914 0.70559 0.68887 0.0
H1637 H 0.70609 0.66581 0.72097 0.0
H1638 H 0.76589 0.71141 0.72299 0.0
H1639 H 0.72303 0.67156 0.75506 0.0
H1640 H 0.75784 0.69309 0.81751 0.0
H1641 H 0.7401 0.69262 0.78622 0.0
H1642 H 0.77627 0.69396 0.74038 0.0
H1643 H 0.79384 0.6946 0.77133 0.0
C1644 C 0.74316 0.69821 0.70326 0.0
C1645 C 0.72632 0.68502 0.70202 0.0
C1646 C 0.7528 0.70154 0.7228 0.0
C1647 C 0.74584 0.69177 0.74159 0.0
C1648 C 0.72872 0.67935 0.74087 0.0
C1649 C 0.71905 0.67599 0.72127 0.0
C1650 C 0.76199 0.69347 0.80071 0.0
C1651 C 0.7771 0.69371 0.79678 0.0
C1652 C 0.75185 0.69312 0.78285 0.0
C1653 C 0.75683 0.69331 0.76085 0.0
C1654 C 0.77217 0.69404 0.7571 0.0
C1655 C 0.78216 0.69421 0.77483 0.0
H1656 H 0.6944 0.61364 0.61604 0.0
H1657 H 0.73315 0.66569 0.63027 0.0
H1658 H 0.71336 0.60956 0.59196 0.0
H1659 H 0.75228 0.66161 0.60703 0.0
H1660 H 0.77242 0.65778 0.54093 0.0
H1661 H 0.75389 0.65936 0.56791 0.0
H1662 H 0.73862 0.6081 0.58751 0.0
H1663 H 0.75696 0.60643 0.5598 0.0
C1664 C 0.70714 0.62403 0.61446 0.0
C1665 C 0.7123 0.64006 0.62453 0.0
C1666 C 0.71799 0.62173 0.6007 0.0
C1667 C 0.7342 0.63541 0.59711 0.0
C1668 C 0.73969 0.651 0.60878 0.0
C1669 C 0.72879 0.65334 0.62218 0.0
C1670 C 0.76508 0.64686 0.55101 0.0
C1671 C 0.76615 0.63203 0.54843 0.0
C1672 C 0.75456 0.64779 0.5666 0.0
C1673 C 0.745 0.63397 0.58021 0.0
C1674 C 0.74578 0.61894 0.57726 0.0
C1675 C 0.75623 0.61797 0.56143 0.0
H1676 H 0.3327 0.04146 0.60467 0.0
H1677 H 0.37947 0.07276 0.64139 0.0
H1678 H 0.33632 0.06635 0.58554 0.0
H1679 H 0.38314 0.0978 0.62197 0.0
H1680 H 0.39084 0.13219 0.56097 0.0
H1681 H 0.38816 0.10867 0.58302 0.0
H1682 H 0.33644 0.09331 0.59464 0.0
H1683 H 0.33914 0.11688 0.57298 0.0
C1684 C 0.34367 0.05367 0.60887 0.0
C1685 C 0.35569 0.05513 0.62477 0.0
C1686 C 0.34574 0.06796 0.59788 0.0
C1687 C 0.35996 0.08404 0.60237 0.0
C1688 C 0.37209 0.08554 0.61811 0.0
C1689 C 0.36995 0.07122 0.62927 0.0
C1690 C 0.37898 0.12396 0.56851 0.0
C1691 C 0.36515 0.12632 0.56501 0.0
C1692 C 0.37745 0.11049 0.58112 0.0
C1693 C 0.36205 0.09908 0.59037 0.0
C1694 C 0.34838 0.10172 0.58737 0.0
C1695 C 0.34992 0.1152 0.5749 0.0
H1696 H 0.91418 0.28133 0.67262 0.0
H1697 H 0.95864 0.30806 0.63411 0.0
H1698 H 0.89717 0.26988 0.63881 0.0
H1699 H 0.94142 0.29728 0.59991 0.0
H1700 H 0.90777 0.25922 0.54437 0.0
H1701 H 0.92582 0.27286 0.57706 0.0
H1702 H 0.88553 0.27588 0.60857 0.0
H1703 H 0.86708 0.26083 0.57695 0.0
C1704 C 0.92031 0.28501 0.65687 0.0
C1705 C 0.93778 0.29564 0.65609 0.0
C1706 C 0.9105 0.27852 0.63737 0.0
C1707 C 0.91781 0.28271 0.61644 0.0
C1708 C 0.93532 0.29355 0.61566 0.0
C1709 C 0.94521 0.29983 0.63526 0.0
C1710 C 0.90267 0.2626 0.55836 0.0
C1711 C 0.8858 0.25863 0.55793 0.0
C1712 C 0.91316 0.27073 0.57705 0.0
C1713 C 0.90716 0.27536 0.59572 0.0
C1714 C 0.89055 0.27215 0.59482 0.0
C1715 C 0.87999 0.26376 0.57635 0.0
H1716 H 0.33134 0.30135 0.63144 0.0
H1717 H 0.37862 0.31054 0.65995 0.0
H1718 H 0.33513 0.28684 0.59927 0.0
H1719 H 0.38226 0.29594 0.62811 0.0
H1720 H 0.38969 0.27752 0.56143 0.0
H1721 H 0.38685 0.29647 0.58817 0.0
H1722 H 0.33433 0.25938 0.59384 0.0
H1723 H 0.33716 0.2404 0.56738 0.0
C1724 C 0.34266 0.30054 0.6307 0.0
C1725 C 0.3546 0.307 0.64839 0.0
C1726 C 0.34477 0.29211 0.61235 0.0
C1727 C 0.35894 0.29011 0.61119 0.0
C1728 C 0.37127 0.29736 0.62834 0.0
C1729 C 0.36911 0.30565 0.64671 0.0
C1730 C 0.37753 0.27341 0.56837 0.0
C1731 C 0.36369 0.25737 0.5623 0.0
C1732 C 0.3759 0.2843 0.58365 0.0
C1733 C 0.36036 0.27944 0.59317 0.0
C1734 C 0.34641 0.26365 0.58657 0.0
C1735 C 0.34805 0.25274 0.57137 0.0
H1736 H 0.70363 0.07686 0.62447 0.0
H1737 H 0.7211 0.04774 0.58736 0.0
H1738 H 0.72047 0.10149 0.6019 0.0
H1739 H 0.73822 0.07237 0.5654 0.0
H1740 H 0.75184 0.11209 0.51375 0.0
H1741 H 0.73407 0.08831 0.53686 0.0
H1742 H 0.74947 0.12266 0.5944 0.0
H1743 H 0.76714 0.14652 0.57114 0.0
C1744 C 0.7112 0.07577 0.61168 0.0
C1745 C 0.71104 0.06035 0.60773 0.0
C1746 C 0.72088 0.08989 0.59881 0.0
C1747 C 0.73058 0.08884 0.58174 0.0
C1748 C 0.73065 0.07351 0.57814 0.0
C1749 C 0.72097 0.05942 0.59093 0.0
C1750 C 0.7514 0.11455 0.53133 0.0
C1751 C 0.76095 0.13112 0.54068 0.0
C1752 C 0.74127 0.10093 0.54459 0.0
C1753 C 0.74052 0.10356 0.56752 0.0
C1754 C 0.74968 0.12023 0.57676 0.0
C1755 C 0.75978 0.13389 0.56346 0.0
H1756 H 0.91913 0.63104 0.6553 0.0
H1757 H 0.96244 0.67577 0.63132 0.0
H1758 H 0.90532 0.6258 0.61885 0.0
H1759 H 0.94849 0.67047 0.5947 0.0
H1760 H 0.90438 0.66712 0.54906 0.0
H1761 H 0.92299 0.67175 0.58086 0.0
H1762 H 0.90752 0.61822 0.57902 0.0
H1763 H 0.88916 0.61357 0.54675 0.0
C1764 C 0.92578 0.63968 0.6422 0.0
C1765 C 0.94185 0.65389 0.64627 0.0
C1766 C 0.91791 0.63658 0.62125 0.0
C1767 C 0.92583 0.64772 0.60394 0.0
C1768 C 0.94207 0.66172 0.6078 0.0
C1769 C 0.95006 0.6647 0.62872 0.0
C1770 C 0.90528 0.6564 0.55494 0.0
C1771 C 0.89511 0.63992 0.54543 0.0
C1772 C 0.91595 0.65907 0.57325 0.0
C1773 C 0.91657 0.64531 0.58255 0.0
C1774 C 0.90709 0.62901 0.57238 0.0
C1775 C 0.89654 0.62635 0.55395 0.0
H1776 H 0.97764 0.72304 0.73709 0.0
H1777 H 0.934 0.67403 0.72118 0.0
H1778 H 0.96042 0.73095 0.75963 0.0
H1779 H 0.91688 0.68185 0.74337 0.0
H1780 H 0.88745 0.703 0.77347 0.0
H1781 H 0.90643 0.70305 0.74573 0.0
H1782 H 0.94534 0.71815 0.79656 0.0
H1783 H 0.92622 0.71789 0.82451 0.0
C1784 C 0.9643 0.71417 0.738 0.0
C1785 C 0.9571 0.69788 0.7277 0.0
C1786 C 0.95452 0.71863 0.75096 0.0
C1787 C 0.93737 0.70698 0.75326 0.0
C1788 C 0.93005 0.69111 0.74176 0.0
C1789 C 0.93985 0.68657 0.72923 0.0
C1790 C 0.90011 0.70649 0.7787 0.0
C1791 C 0.90526 0.71004 0.80122 0.0
C1792 C 0.91097 0.70661 0.76281 0.0
C1793 C 0.92724 0.71042 0.76908 0.0
C1794 C 0.93286 0.71527 0.79129 0.0
C1795 C 0.92193 0.71508 0.80728 0.0
H1796 H 0.34168 0.2965 0.74856 0.0
H1797 H 0.29418 0.26571 0.71324 0.0
H1798 H 0.33747 0.27179 0.76859 0.0
H1799 H 0.28967 0.24095 0.73398 0.0
H1800 H 0.29637 0.197 0.76072 0.0
H1801 H 0.29976 0.22094 0.73894 0.0
H1802 H 0.32 0.2543 0.79733 0.0
H1803 H 0.31681 0.2305 0.81888 0.0
C1804 C 0.33036 0.28444 0.74496 0.0
C1805 C 0.3183 0.28309 0.7292 0.0
C1806 C 0.32784 0.27027 0.75667 0.0
C1807 C 0.31315 0.2544 0.75307 0.0
C1808 C 0.30118 0.25295 0.73704 0.0
C1809 C 0.30373 0.26716 0.72523 0.0
C1810 C 0.30139 0.20943 0.76889 0.0
C1811 C 0.30647 0.21192 0.79144 0.0
C1812 C 0.30333 0.22314 0.75644 0.0
C1813 C 0.31033 0.23959 0.76633 0.0
C1814 C 0.31495 0.24191 0.78905 0.0
C1815 C 0.31309 0.22826 0.80142 0.0
H1816 H 0.70901 0.02866 0.71029 0.0
H1817 H 0.75422 0.05015 0.67265 0.0
H1818 H 0.72592 0.03988 0.74462 0.0
H1819 H 0.77102 0.06194 0.70662 0.0
H1820 H 0.79927 0.07171 0.77073 0.0
H1821 H 0.78083 0.05593 0.73922 0.0
H1822 H 0.74279 0.06567 0.76495 0.0
H1823 H 0.76074 0.08027 0.79742 0.0
C1824 C 0.72255 0.0358 0.70933 0.0
C1825 C 0.73024 0.03848 0.6887 0.0
C1826 C 0.73226 0.04233 0.72902 0.0
C1827 C 0.7499 0.05185 0.72852 0.0
C1828 C 0.75753 0.05438 0.70784 0.0
C1829 C 0.74785 0.0477 0.68824 0.0
C1830 C 0.78682 0.07013 0.77005 0.0
C1831 C 0.78161 0.07743 0.78669 0.0
C1832 C 0.7763 0.06129 0.75169 0.0
C1833 C 0.76036 0.05971 0.74924 0.0
C1834 C 0.75491 0.0665 0.76624 0.0
C1835 C 0.76535 0.07514 0.78477 0.0
H1836 H 0.07188 0.3439 0.00631 0.0
H1837 H 0.02903 0.31958 0.04819 0.0
H1838 H 0.08698 0.33435 0.02992 0.0
H1839 H 0.0441 0.30965 0.07168 0.0
H1840 H 0.08406 0.31089 0.12083 0.0
H1841 H 0.06772 0.31966 0.09806 0.0
H1842 H 0.08669 0.30849 0.03879 0.0
H1843 H 0.10357 0.3005 0.06149 0.0
C1844 C 0.06564 0.33647 0.02054 0.0
C1845 C 0.04921 0.33247 0.0253 0.0
C1846 C 0.07428 0.33087 0.03401 0.0
C1847 C 0.06671 0.32107 0.05259 0.0
C1848 C 0.05035 0.31727 0.05758 0.0
C1849 C 0.04169 0.32291 0.04408 0.0
C1850 C 0.08479 0.31037 0.10294 0.0
C1851 C 0.09523 0.30507 0.09303 0.0
C1852 C 0.07527 0.31523 0.08987 0.0
C1853 C 0.07598 0.31492 0.06658 0.0
C1854 C 0.08605 0.30916 0.05669 0.0
C1855 C 0.09556 0.30433 0.06973 0.0
H1856 H 0.6408 0.69329 0.0966 0.0
H1857 H 0.67545 0.70811 0.04289 0.0
H1858 H 0.6538 0.72291 0.10957 0.0
H1859 H 0.68823 0.73807 0.05585 0.0
H1860 H 0.6853 0.78899 0.07902 0.0
H1861 H 0.67555 0.7604 0.06257 0.0
H1862 H 0.6861 0.74458 0.12492 0.0
H1863 H 0.69613 0.77318 0.14124 0.0
C1864 C 0.65104 0.70287 0.08735 0.0
C1865 C 0.6571 0.69831 0.06869 0.0
C1866 C 0.65854 0.71981 0.09492 0.0
C1867 C 0.67207 0.73263 0.08381 0.0
C1868 C 0.67782 0.72831 0.06469 0.0
C1869 C 0.67051 0.71122 0.05731 0.0
C1870 C 0.68578 0.77944 0.08903 0.0
C1871 C 0.69141 0.78319 0.11137 0.0
C1872 C 0.6803 0.76319 0.07962 0.0
C1873 C 0.68006 0.7504 0.09257 0.0
C1874 C 0.68618 0.7543 0.11467 0.0
C1875 C 0.69196 0.77062 0.12395 0.0
H1876 H 0.30368 0.92714 0.03045 0.0
H1877 H 0.30816 0.97653 0.04187 0.0
H1878 H 0.28078 0.91475 0.05626 0.0
H1879 H 0.28549 0.96419 0.06796 0.0
H1880 H 0.22996 0.93054 0.08651 0.0
H1881 H 0.25525 0.9448 0.06503 0.0
H1882 H 0.27385 0.91446 0.09537 0.0
H1883 H 0.2485 0.90017 0.1169 0.0
C1884 C 0.29992 0.93539 0.03866 0.0
C1885 C 0.30764 0.95278 0.03396 0.0
C1886 C 0.28686 0.92831 0.05355 0.0
C1887 C 0.28127 0.93848 0.06406 0.0
C1888 C 0.28935 0.95598 0.05987 0.0
C1889 C 0.30239 0.96305 0.04499 0.0
C1890 C 0.23958 0.92714 0.08891 0.0
C1891 C 0.2372 0.91417 0.10332 0.0
C1892 C 0.25408 0.9353 0.0766 0.0
C1893 C 0.26652 0.9307 0.07843 0.0
C1894 C 0.26437 0.91809 0.09334 0.0
C1895 C 0.24987 0.90992 0.10566 0.0
H1896 H 0.31454 0.01409 0.97416 0.0
H1897 H 0.36395 0.0587 0.97278 0.0
H1898 H 0.30208 0.03134 0.96354 0.0
H1899 H 0.35147 0.07591 0.96255 0.0
H1900 H 0.29857 0.06364 0.90334 0.0
H1901 H 0.30554 0.04559 0.92515 0.0
H1902 H 0.33096 0.08628 0.97464 0.0
H1903 H 0.32343 0.10422 0.95335 0.0
C1904 C 0.32269 0.02766 0.9723 0.0
C1905 C 0.34023 0.03505 0.97406 0.0
C1906 C 0.31556 0.03748 0.96612 0.0
C1907 C 0.32584 0.05488 0.96211 0.0
C1908 C 0.34327 0.06253 0.96568 0.0
C1909 C 0.35041 0.05267 0.97143 0.0
C1910 C 0.30516 0.0686 0.9192 0.0
C1911 C 0.31067 0.0855 0.92639 0.0
C1912 C 0.30915 0.05824 0.93169 0.0
C1913 C 0.31886 0.06462 0.95147 0.0
C1914 C 0.32358 0.08114 0.95932 0.0
C1915 C 0.31939 0.09142 0.94701 0.0
H1916 H 0.94092 0.29417 0.97292 0.0
H1917 H 0.98214 0.28428 0.97626 0.0
H1918 H 0.92167 0.26421 0.96298 0.0
H1919 H 0.96281 0.25423 0.96598 0.0
H1920 H 0.88952 0.20661 0.95809 0.0
H1921 H 0.90942 0.2337 0.97671 0.0
H1922 H 0.94648 0.24118 0.92861 0.0
H1923 H 0.92648 0.21449 0.90939 0.0
C1924 C 0.94581 0.28551 0.97196 0.0
C1925 C 0.96305 0.29158 0.97526 0.0
C1926 C 0.93477 0.26835 0.96636 0.0
C1927 C 0.94078 0.25694 0.96357 0.0
C1928 C 0.95789 0.2628 0.9679 0.0
C1929 C 0.96891 0.27995 0.97394 0.0
C1930 C 0.90189 0.21401 0.95141 0.0
C1931 C 0.90626 0.20841 0.93199 0.0
C1932 C 0.91331 0.22946 0.96221 0.0
C1933 C 0.92946 0.23953 0.95408 0.0
C1934 C 0.93417 0.23356 0.93541 0.0
C1935 C 0.92268 0.21822 0.92441 0.0
H1936 H 0.67823 0.63226 0.96722 0.0
H1937 H 0.70491 0.67955 0.00593 0.0
H1938 H 0.70302 0.64069 0.94528 0.0
H1939 H 0.72977 0.68778 0.98434 0.0
H1940 H 0.76746 0.70346 0.92906 0.0
H1941 H 0.74153 0.69603 0.9479 0.0
H1942 H 0.73056 0.64388 0.95141 0.0
H1943 H 0.75637 0.65129 0.93252 0.0
C1944 C 0.68934 0.64448 0.97099 0.0
C1945 C 0.68962 0.65518 0.98842 0.0
C1946 C 0.70358 0.64927 0.9585 0.0
C1947 C 0.71842 0.66484 0.96319 0.0
C1948 C 0.71851 0.67577 0.98016 0.0
C1949 C 0.70427 0.671 0.99262 0.0
C1950 C 0.75954 0.69044 0.93398 0.0
C1951 C 0.76395 0.67796 0.9293 0.0
C1952 C 0.74468 0.68618 0.94474 0.0
C1953 C 0.73394 0.66935 0.95109 0.0
C1954 C 0.73837 0.65688 0.94636 0.0
C1955 C 0.75319 0.66114 0.93558 0.0
H1956 H 0.96341 0.69997 0.02279 0.0
H1957 H 0.95556 0.65884 0.97747 0.0
H1958 H 0.94507 0.70568 0.99946 0.0
H1959 H 0.9369 0.66436 0.95432 0.0
H1960 H 0.91591 0.68886 0.90767 0.0
H1961 H 0.93607 0.68484 0.92967 0.0
H1962 H 0.91549 0.69244 0.98988 0.0
H1963 H 0.89539 0.69647 0.96791 0.0
C1964 C 0.95779 0.69215 0.00782 0.0
C1965 C 0.96091 0.67889 0.00206 0.0
C1966 C 0.94718 0.69536 0.99451 0.0
C1967 C 0.9394 0.68541 0.97509 0.0
C1968 C 0.94281 0.67239 0.96905 0.0
C1969 C 0.95345 0.66917 0.98238 0.0
C1970 C 0.91565 0.68961 0.92561 0.0
C1971 C 0.90401 0.69299 0.93602 0.0
C1972 C 0.92721 0.68729 0.93822 0.0
C1973 C 0.92742 0.6883 0.96156 0.0
C1974 C 0.91588 0.69185 0.97195 0.0
C1975 C 0.90434 0.69417 0.95934 0.0
H1976 H 0.37082 0.30734 0.96357 0.0
H1977 H 0.31945 0.29624 0.96189 0.0
H1978 H 0.36163 0.27825 0.95079 0.0
H1979 H 0.31023 0.26733 0.94792 0.0
H1980 H 0.2979 0.21256 0.93256 0.0
H1981 H 0.30622 0.23964 0.95239 0.0
H1982 H 0.35232 0.26359 0.91643 0.0
H1983 H 0.34425 0.23651 0.89754 0.0
C1984 C 0.35753 0.29859 0.96065 0.0
C1985 C 0.34587 0.30407 0.96353 0.0
C1986 C 0.35225 0.28196 0.95309 0.0
C1987 C 0.33522 0.27052 0.94772 0.0
C1988 C 0.32343 0.27572 0.95193 0.0
C1989 C 0.32871 0.29231 0.95994 0.0
C1990 C 0.30979 0.22369 0.92899 0.0
C1991 C 0.3205 0.22249 0.91368 0.0
C1992 C 0.31457 0.23919 0.9403 0.0
C1993 C 0.33006 0.25381 0.93627 0.0
C1994 C 0.34054 0.25254 0.92054 0.0
C1995 C 0.33588 0.23706 0.90953 0.0
H1996 H 0.70037 0.0269 0.98609 0.0
H1997 H 0.69112 0.06896 0.98006 0.0
H1998 H 0.72387 0.04073 0.96135 0.0
H1999 H 0.71467 0.08276 0.95529 0.0
H2000 H 0.7714 0.11038 0.93989 0.0
H2001 H 0.74605 0.09584 0.96108 0.0
H2002 H 0.72999 0.04976 0.92132 0.0
H2003 H 0.75522 0.06445 0.89952 0.0
C2004 C 0.70329 0.03905 0.97939 0.0
C2005 C 0.69397 0.04691 0.98514 0.0
C2006 C 0.71667 0.04689 0.96511 0.0
C2007 C 0.72108 0.06281 0.95648 0.0
C2008 C 0.71159 0.07053 0.96189 0.0
C2009 C 0.69809 0.06261 0.97599 0.0
C2010 C 0.76235 0.09725 0.93531 0.0
C2011 C 0.76532 0.08862 0.91788 0.0
C2012 C 0.74784 0.08892 0.94752 0.0
C2013 C 0.73605 0.07171 0.94276 0.0
C2014 C 0.73897 0.06302 0.9254 0.0
C2015 C 0.75343 0.07141 0.913 0.0
H2016 H 0.63387 0.941 0.04335 0.0
H2017 H 0.68425 0.98397 0.05019 0.0
H2018 H 0.64389 0.92212 0.05547 0.0
H2019 H 0.69419 0.9653 0.06345 0.0
H2020 H 0.70875 0.92606 0.08181 0.0
H2021 H 0.69984 0.94256 0.05948 0.0
H2022 H 0.65185 0.91801 0.09102 0.0
H2023 H 0.66059 0.90131 0.1125 0.0
C2024 C 0.64714 0.94635 0.04712 0.0
C2025 C 0.65824 0.96396 0.04612 0.0
C2026 C 0.65288 0.93557 0.05428 0.0
C2027 C 0.66977 0.94225 0.06109 0.0
C2028 C 0.68111 0.95968 0.05833 0.0
C2029 C 0.67541 0.97041 0.05074 0.0
C2030 C 0.6963 0.92425 0.08381 0.0
C2031 C 0.68531 0.91241 0.09877 0.0
C2032 C 0.69118 0.93365 0.07105 0.0
C2033 C 0.67505 0.93151 0.07323 0.0
C2034 C 0.66417 0.91967 0.08834 0.0
C2035 C 0.66921 0.91018 0.10083 0.0
H2036 H 0.01833 0.71461 0.04819 0.0
H2037 H 0.05991 0.70522 0.0495 0.0
H2038 H 0.03769 0.74481 0.05765 0.0
H2039 H 0.07916 0.73529 0.05868 0.0
H2040 H 0.07505 0.78578 0.11208 0.0
H2041 H 0.05481 0.75872 0.09388 0.0
H2042 H 0.091 0.76543 0.04478 0.0
H2043 H 0.11114 0.79285 0.06243 0.0
C2044 C 0.03163 0.71907 0.04992 0.0
C2045 C 0.0376 0.70754 0.04825 0.0
C2046 C 0.04268 0.7363 0.05549 0.0
C2047 C 0.0599 0.74236 0.05904 0.0
C2048 C 0.06597 0.73103 0.05592 0.0
C2049 C 0.05493 0.71379 0.05074 0.0
C2050 C 0.0786 0.78178 0.09706 0.0
C2051 C 0.09485 0.7915 0.08891 0.0
C2052 C 0.06697 0.76623 0.08665 0.0
C2053 C 0.07136 0.75994 0.06797 0.0
C2054 C 0.08735 0.7699 0.05929 0.0
C2055 C 0.09891 0.78555 0.06953 0.0
H2056 H 0.284 0.34692 0.99556 0.0
H2057 H 0.30848 0.33024 0.04229 0.0
H2058 H 0.26029 0.33725 0.01973 0.0
H2059 H 0.28447 0.3202 0.06636 0.0
H2060 H 0.24678 0.32269 0.11394 0.0
H2061 H 0.27072 0.33127 0.09022 0.0
H2062 H 0.23713 0.3111 0.03262 0.0
H2063 H 0.21328 0.30321 0.05618 0.0
C2064 C 0.2843 0.34111 0.01096 0.0
C2065 C 0.29813 0.33935 0.01699 0.0
C2066 C 0.27063 0.33545 0.02475 0.0
C2067 C 0.27043 0.32785 0.04491 0.0
C2068 C 0.28431 0.32613 0.05103 0.0
C2069 C 0.29802 0.33182 0.0372 0.0
C2070 C 0.24452 0.32017 0.0962 0.0
C2071 C 0.22812 0.31236 0.08694 0.0
C2072 C 0.25823 0.3249 0.08264 0.0
C2073 C 0.25585 0.32195 0.05952 0.0
C2074 C 0.23942 0.31378 0.05034 0.0
C2075 C 0.22572 0.30906 0.06388 0.0
H2076 H 0.70996 0.67455 0.383 0.0
H2077 H 0.69679 0.62993 0.34138 0.0
H2078 H 0.72894 0.66888 0.40522 0.0
H2079 H 0.71541 0.62407 0.36381 0.0
H2080 H 0.76646 0.63276 0.38844 0.0
H2081 H 0.74531 0.63657 0.36888 0.0
H2082 H 0.73127 0.64982 0.43102 0.0
H2083 H 0.75254 0.64604 0.45064 0.0
C2084 C 0.71089 0.66338 0.37882 0.0
C2085 C 0.70197 0.6528 0.36028 0.0
C2086 C 0.72174 0.66009 0.3916 0.0
C2087 C 0.72387 0.64613 0.38614 0.0
C2088 C 0.71436 0.63515 0.3682 0.0
C2089 C 0.70358 0.63845 0.35541 0.0
C2090 C 0.75872 0.63627 0.39799 0.0
C2091 C 0.7612 0.63907 0.42112 0.0
C2092 C 0.74657 0.63844 0.38677 0.0
C2093 C 0.73651 0.64344 0.39837 0.0
C2094 C 0.73892 0.64616 0.42153 0.0
C2095 C 0.75111 0.644 0.43278 0.0
H2096 H 0.34889 0.03901 0.38951 0.0
H2097 H 0.29876 0.03113 0.39415 0.0
H2098 H 0.36052 0.06898 0.40119 0.0
H2099 H 0.31042 0.0611 0.40538 0.0
H2100 H 0.33851 0.11941 0.40984 0.0
H2101 H 0.32978 0.09198 0.39111 0.0
H2102 H 0.35784 0.08148 0.44002 0.0
H2103 H 0.36599 0.10851 0.45949 0.0
C2104 C 0.34037 0.04378 0.39244 0.0
C2105 C 0.3229 0.03272 0.39102 0.0
C2106 C 0.34704 0.06087 0.39927 0.0
C2107 C 0.33635 0.06727 0.40427 0.0
C2108 C 0.31893 0.05649 0.40151 0.0
C2109 C 0.31226 0.03934 0.39514 0.0
C2110 C 0.34278 0.11126 0.41673 0.0
C2111 C 0.35276 0.11612 0.43645 0.0
C2112 C 0.33788 0.09562 0.40585 0.0
C2113 C 0.34312 0.08466 0.41416 0.0
C2114 C 0.35378 0.08982 0.43315 0.0
C2115 C 0.35847 0.10533 0.44427 0.0
H2116 H 0.95 0.30403 0.32969 0.0
H2117 H 0.98081 0.30405 0.38463 0.0
H2118 H 0.9255 0.29124 0.35291 0.0
H2119 H 0.95625 0.29116 0.40775 0.0
H2120 H 0.90954 0.27724 0.4476 0.0
H2121 H 0.93396 0.29542 0.42556 0.0
H2122 H 0.90979 0.26209 0.36802 0.0
H2123 H 0.88549 0.24414 0.38989 0.0
C2124 C 0.9516 0.30151 0.34679 0.0
C2125 C 0.9673 0.30485 0.35524 0.0
C2126 C 0.93756 0.29414 0.36004 0.0
C2127 C 0.93896 0.29009 0.38205 0.0
C2128 C 0.95482 0.29426 0.39088 0.0
C2129 C 0.96885 0.30153 0.37758 0.0
C2130 C 0.90942 0.274 0.43016 0.0
C2131 C 0.89574 0.25925 0.42044 0.0
C2132 C 0.92338 0.28431 0.41761 0.0
C2133 C 0.92375 0.28016 0.39509 0.0
C2134 C 0.9098 0.26572 0.38526 0.0
C2135 C 0.89597 0.25535 0.39782 0.0
H2136 H 0.04308 0.37695 0.27004 0.0
H2137 H 0.00514 0.36204 0.31943 0.0
H2138 H 0.0357 0.39716 0.25593 0.0
H2139 H 0.99826 0.38309 0.30594 0.0
H2140 H 0.97659 0.4063 0.2577 0.0
H2141 H 0.98475 0.38757 0.27535 0.0
H2142 H 0.0367 0.42299 0.26212 0.0
H2143 H 0.02841 0.44082 0.2427 0.0
C2144 C 0.03338 0.37825 0.27824 0.0
C2145 C 0.02467 0.36783 0.29585 0.0
C2146 C 0.0292 0.38997 0.2702 0.0
C2147 C 0.01637 0.39183 0.27977 0.0
C2148 C 0.00801 0.3818 0.2979 0.0
C2149 C 0.01204 0.36984 0.30577 0.0
C2150 C 0.98973 0.40998 0.25825 0.0
C2151 C 0.00179 0.42505 0.24852 0.0
C2152 C 0.99446 0.39937 0.26879 0.0
C2153 C 0.0114 0.40369 0.27013 0.0
C2154 C 0.0235 0.41905 0.26106 0.0
C2155 C 0.01875 0.42947 0.25019 0.0
H2156 H 0.6085 0.63333 0.30141 0.0
H2157 H 0.64742 0.62007 0.30263 0.0
H2158 H 0.58786 0.60407 0.29054 0.0
H2159 H 0.62695 0.59088 0.29047 0.0
H2160 H 0.58353 0.53629 0.27844 0.0
H2161 H 0.60325 0.56393 0.2963 0.0
H2162 H 0.5808 0.58755 0.25784 0.0
H2163 H 0.56086 0.55996 0.24094 0.0
C2164 C 0.6126 0.62406 0.2995 0.0
C2165 C 0.62957 0.62898 0.3027 0.0
C2166 C 0.6008 0.60731 0.29301 0.0
C2167 C 0.60574 0.59512 0.28899 0.0
C2168 C 0.62261 0.59984 0.29345 0.0
C2169 C 0.63438 0.61658 0.30042 0.0
C2170 C 0.58287 0.54745 0.27393 0.0
C2171 C 0.5706 0.546 0.25846 0.0
C2172 C 0.59418 0.5633 0.2841 0.0
C2173 C 0.59356 0.57804 0.27877 0.0
C2174 C 0.5814 0.57648 0.26296 0.0
C2175 C 0.57001 0.56067 0.25309 0.0
H2176 H 0.36224 0.00843 0.32127 0.0
H2177 H 0.345 0.95459 0.31295 0.0
H2178 H 0.38568 0.01487 0.29725 0.0
H2179 H 0.36845 0.9611 0.28906 0.0
H2180 H 0.4254 0.98323 0.27736 0.0
H2181 H 0.39995 0.97589 0.29709 0.0
H2182 H 0.3918 0.01019 0.25711 0.0
H2183 H 0.41701 0.01717 0.23667 0.0
C2184 C 0.36336 0.99797 0.31416 0.0
C2185 C 0.35184 0.98101 0.31913 0.0
C2186 C 0.37672 0.00167 0.30034 0.0
C2187 C 0.37891 0.98848 0.29145 0.0
C2188 C 0.36713 0.97151 0.2959 0.0
C2189 C 0.35367 0.9678 0.30949 0.0
C2190 C 0.41805 0.98898 0.2724 0.0
C2191 C 0.4233 0.00079 0.25535 0.0
C2192 C 0.40349 0.9848 0.28378 0.0
C2193 C 0.39392 0.99245 0.27858 0.0
C2194 C 0.39906 0.00421 0.26155 0.0
C2195 C 0.41354 0.00826 0.24995 0.0
H2196 H 0.63606 0.01536 0.31497 0.0
H2197 H 0.59679 0.96248 0.31307 0.0
H2198 H 0.61786 0.02262 0.29364 0.0
H2199 H 0.57851 0.96977 0.29245 0.0
H2200 H 0.55361 0.98507 0.23992 0.0
H2201 H 0.57374 0.97872 0.25761 0.0
H2202 H 0.59322 0.02492 0.2984 0.0
H2203 H 0.57325 0.03139 0.28033 0.0
C2204 C 0.62358 0.00528 0.30995 0.0
C2205 C 0.61789 0.98834 0.31577 0.0
C2206 C 0.61309 0.00946 0.29786 0.0
C2207 C 0.59666 0.9968 0.29137 0.0
C2208 C 0.59114 0.97983 0.29684 0.0
C2209 C 0.60163 0.97565 0.30882 0.0
C2210 C 0.56217 0.99384 0.25272 0.0
C2211 C 0.56176 0.00867 0.25884 0.0
C2212 C 0.57371 0.9902 0.26288 0.0
C2213 C 0.58508 0.00125 0.27956 0.0
C2214 C 0.58484 0.01624 0.28542 0.0
C2215 C 0.57335 0.01993 0.27512 0.0
H2216 H 0.04582 0.6425 0.29844 0.0
H2217 H 0.99371 0.62874 0.30019 0.0
H2218 H 0.03759 0.61353 0.28621 0.0
H2219 H 0.98541 0.59992 0.28686 0.0
H2220 H 0.97527 0.5459 0.27193 0.0
H2221 H 0.98319 0.57291 0.29166 0.0
H2222 H 0.02742 0.59823 0.25222 0.0
H2223 H 0.01977 0.57127 0.23331 0.0
C2224 C 0.03258 0.6332 0.29641 0.0
C2225 C 0.02042 0.63791 0.30005 0.0
C2226 C 0.02784 0.61663 0.28919 0.0
C2227 C 0.01084 0.60446 0.28496 0.0
C2228 C 0.99861 0.6089 0.28998 0.0
C2229 C 0.00336 0.62544 0.29761 0.0
C2230 C 0.98667 0.5573 0.26759 0.0
C2231 C 0.99697 0.55652 0.25123 0.0
C2232 C 0.99122 0.57276 0.27885 0.0
C2233 C 0.00606 0.58777 0.27376 0.0
C2234 C 0.01618 0.5869 0.25712 0.0
C2235 C 0.01174 0.57147 0.24611 0.0
H2236 H 0.35363 0.36777 0.30627 0.0
H2237 H 0.38808 0.37312 0.35964 0.0
H2238 H 0.37713 0.382 0.28153 0.0
H2239 H 0.41147 0.38724 0.33486 0.0
H2240 H 0.44833 0.4319 0.29271 0.0
H2241 H 0.4249 0.41541 0.31664 0.0
H2242 H 0.39953 0.37791 0.26332 0.0
H2243 H 0.42303 0.39462 0.23918 0.0
C2244 C 0.36619 0.3719 0.31268 0.0
C2245 C 0.36903 0.36945 0.33495 0.0
C2246 C 0.37961 0.37993 0.29848 0.0
C2247 C 0.3961 0.38576 0.30633 0.0
C2248 C 0.39889 0.38303 0.32846 0.0
C2249 C 0.38549 0.3749 0.34261 0.0
C2250 C 0.43773 0.42015 0.2861 0.0
C2251 C 0.43741 0.41456 0.26409 0.0
C2252 C 0.42441 0.41064 0.29984 0.0
C2253 C 0.41043 0.39539 0.29182 0.0
C2254 C 0.41013 0.38969 0.26985 0.0
C2255 C 0.42358 0.39916 0.25612 0.0
H2256 H 0.30029 0.27431 0.38407 0.0
H2257 H 0.34946 0.31905 0.38038 0.0
H2258 H 0.31321 0.25765 0.39512 0.0
H2259 H 0.36231 0.30236 0.3918 0.0
H2260 H 0.3427 0.23031 0.4027 0.0
H2261 H 0.33397 0.24756 0.38201 0.0
H2262 H 0.35964 0.28873 0.4308 0.0
H2263 H 0.36782 0.27133 0.45208 0.0
C2264 C 0.31385 0.28049 0.38518 0.0
C2265 C 0.32385 0.29799 0.38154 0.0
C2266 C 0.32124 0.27094 0.39139 0.0
C2267 C 0.33872 0.2788 0.39441 0.0
C2268 C 0.34879 0.29607 0.38965 0.0
C2269 C 0.34142 0.30556 0.38302 0.0
C2270 C 0.34652 0.24305 0.40903 0.0
C2271 C 0.3557 0.24932 0.42929 0.0
C2272 C 0.34163 0.25293 0.39707 0.0
C2273 C 0.3461 0.26939 0.4049 0.0
C2274 C 0.35619 0.27611 0.42432 0.0
C2275 C 0.36089 0.26614 0.43648 0.0
H2276 H 0.68675 0.04689 0.38067 0.0
H2277 H 0.72732 0.03644 0.37381 0.0
H2278 H 0.70691 0.0765 0.3915 0.0
H2279 H 0.74753 0.06611 0.3834 0.0
H2280 H 0.77569 0.11009 0.43318 0.0
H2281 H 0.75593 0.08233 0.41664 0.0
H2282 H 0.72929 0.10412 0.38378 0.0
H2283 H 0.74897 0.13199 0.40117 0.0
C2284 C 0.70002 0.05108 0.38079 0.0
C2285 C 0.70548 0.03935 0.37668 0.0
C2286 C 0.7116 0.06807 0.38699 0.0
C2287 C 0.72888 0.07367 0.38885 0.0
C2288 C 0.73432 0.06216 0.38292 0.0
C2289 C 0.72275 0.04518 0.37717 0.0
C2290 C 0.76571 0.10898 0.42225 0.0
C2291 C 0.76394 0.12322 0.41835 0.0
C2292 C 0.7544 0.09306 0.41261 0.0
C2293 C 0.74107 0.09093 0.39855 0.0
C2294 C 0.7393 0.10522 0.39463 0.0
C2295 C 0.75057 0.12119 0.40453 0.0
H2296 H 0.94972 0.6399 0.32768 0.0
H2297 H 0.98294 0.67527 0.37913 0.0
H2298 H 0.92577 0.63275 0.3507 0.0
H2299 H 0.95896 0.6678 0.40238 0.0
H2300 H 0.91101 0.66798 0.42205 0.0
H2301 H 0.93557 0.673 0.40169 0.0
H2302 H 0.91186 0.61919 0.38449 0.0
H2303 H 0.88694 0.61426 0.40418 0.0
C2304 C 0.95195 0.64598 0.34404 0.0
C2305 C 0.96823 0.65828 0.35149 0.0
C2306 C 0.93821 0.64179 0.35729 0.0
C2307 C 0.94044 0.64979 0.37832 0.0
C2308 C 0.9568 0.66163 0.3861 0.0
C2309 C 0.97055 0.66583 0.37283 0.0
C2310 C 0.91098 0.65723 0.41379 0.0
C2311 C 0.89696 0.64074 0.41455 0.0
C2312 C 0.92516 0.66007 0.40239 0.0
C2313 C 0.92569 0.64649 0.39149 0.0
C2314 C 0.91178 0.62994 0.39255 0.0
C2315 C 0.89757 0.6271 0.40399 0.0
H2316 H 0.37266 0.97111 0.67438 0.0
H2317 H 0.38004 0.01307 0.71769 0.0
H2318 H 0.39302 0.96779 0.69675 0.0
H2319 H 0.40075 0.01001 0.73982 0.0
H2320 H 0.42718 0.99005 0.78534 0.0
H2321 H 0.405 0.99191 0.76506 0.0
H2322 H 0.42296 0.98309 0.70321 0.0
H2323 H 0.44498 0.98114 0.72345 0.0
C2324 C 0.37858 0.9796 0.68873 0.0
C2325 C 0.37478 0.99242 0.69415 0.0
C2326 C 0.39036 0.97777 0.70148 0.0
C2327 C 0.39869 0.98877 0.71994 0.0
C2328 C 0.39449 0.00125 0.72581 0.0
C2329 C 0.38265 0.00304 0.71307 0.0
C2330 C 0.42644 0.98862 0.7674 0.0
C2331 C 0.43782 0.98539 0.75602 0.0
C2332 C 0.41372 0.98968 0.75577 0.0
C2333 C 0.41211 0.98755 0.7325 0.0
C2334 C 0.42358 0.98443 0.72115 0.0
C2335 C 0.43625 0.98334 0.73276 0.0
H2336 H 0.01071 0.37262 0.71717 0.0
H2337 H 0.95977 0.36204 0.72377 0.0
H2338 H 0.02117 0.40234 0.72901 0.0
H2339 H 0.97028 0.39182 0.73514 0.0
H2340 H 0.99622 0.45017 0.7397 0.0
H2341 H 0.98846 0.42311 0.72055 0.0
H2342 H 0.01815 0.41401 0.76849 0.0
H2343 H 0.02528 0.44057 0.78842 0.0
C2344 C 0.00175 0.37673 0.72059 0.0
C2345 C 0.98441 0.36499 0.71968 0.0
C2346 C 0.00775 0.39369 0.72747 0.0
C2347 C 0.99652 0.39929 0.73305 0.0
C2348 C 0.97919 0.38782 0.73081 0.0
C2349 C 0.97319 0.37079 0.72438 0.0
C2350 C 0.00107 0.44241 0.74627 0.0
C2351 C 0.0112 0.44752 0.76587 0.0
C2352 C 0.99672 0.42699 0.73516 0.0
C2353 C 0.00269 0.41652 0.74309 0.0
C2354 C 0.01353 0.42197 0.76192 0.0
C2355 C 0.01765 0.43725 0.77328 0.0
H2356 H 0.6407 0.59702 0.70285 0.0
H2357 H 0.64031 0.64453 0.70492 0.0
H2358 H 0.6164 0.58437 0.7263 0.0
H2359 H 0.61585 0.63173 0.72838 0.0
H2360 H 0.5815 0.60485 0.78831 0.0
H2361 H 0.60688 0.61932 0.76659 0.0
H2362 H 0.58637 0.57629 0.71996 0.0
H2363 H 0.56105 0.56203 0.74125 0.0
C2364 C 0.6355 0.6048 0.7084 0.0
C2365 C 0.64235 0.62174 0.70189 0.0
C2366 C 0.62153 0.59752 0.72174 0.0
C2367 C 0.61417 0.60704 0.72897 0.0
C2368 C 0.62133 0.62415 0.7231 0.0
C2369 C 0.63526 0.63142 0.7096 0.0
C2370 C 0.58237 0.5986 0.77329 0.0
C2371 C 0.56937 0.5822 0.76666 0.0
C2372 C 0.59688 0.60685 0.76091 0.0
C2373 C 0.59866 0.5988 0.7418 0.0
C2374 C 0.58549 0.58263 0.73492 0.0
C2375 C 0.57101 0.57446 0.74714 0.0
H2376 H 0.69856 0.71379 0.60446 0.0
H2377 H 0.6596 0.68988 0.65235 0.0
H2378 H 0.68515 0.72905 0.59025 0.0
H2379 H 0.64638 0.7057 0.63813 0.0
H2380 H 0.64851 0.75911 0.6138 0.0
H2381 H 0.65829 0.7417 0.6325 0.0
H2382 H 0.65275 0.71427 0.57063 0.0
H2383 H 0.64276 0.73141 0.55201 0.0
C2384 C 0.6873 0.71198 0.61225 0.0
C2385 C 0.68009 0.7005 0.62949 0.0
C2386 C 0.67959 0.72065 0.60396 0.0
C2387 C 0.66469 0.71829 0.61295 0.0
C2388 C 0.65785 0.70757 0.63093 0.0
C2389 C 0.66543 0.69859 0.63903 0.0
C2390 C 0.64908 0.74911 0.60437 0.0
C2391 C 0.64498 0.74658 0.58149 0.0
C2392 C 0.65457 0.73916 0.61505 0.0
C2393 C 0.65629 0.7268 0.60288 0.0
C2394 C 0.6515 0.72378 0.58026 0.0
C2395 C 0.64574 0.7335 0.56967 0.0
H2396 H 0.27518 0.96499 0.64762 0.0
H2397 H 0.31601 0.95502 0.64019 0.0
H2398 H 0.25516 0.93546 0.6371 0.0
H2399 H 0.29604 0.92555 0.62844 0.0
H2400 H 0.25387 0.87005 0.61705 0.0
H2401 H 0.27351 0.89761 0.63522 0.0
H2402 H 0.24731 0.92015 0.60307 0.0
H2403 H 0.2276 0.89269 0.58573 0.0
C2404 C 0.27984 0.95638 0.64396 0.0
C2405 C 0.29713 0.96231 0.64453 0.0
C2406 C 0.26839 0.93948 0.63768 0.0
C2407 C 0.27396 0.92817 0.63127 0.0
C2408 C 0.29125 0.93384 0.63327 0.0
C2409 C 0.30272 0.95074 0.64001 0.0
C2410 C 0.25238 0.88095 0.61398 0.0
C2411 C 0.23913 0.87921 0.60016 0.0
C2412 C 0.26362 0.89674 0.62435 0.0
C2413 C 0.26192 0.91113 0.62091 0.0
C2414 C 0.24877 0.90932 0.60674 0.0
C2415 C 0.23749 0.89357 0.59664 0.0
H2416 H 0.01955 0.32146 0.64268 0.0
H2417 H 0.04937 0.3669 0.6839 0.0
H2418 H 0.04368 0.32891 0.6198 0.0
H2419 H 0.07336 0.37456 0.66069 0.0
H2420 H 0.11693 0.36905 0.6342 0.0
H2421 H 0.09241 0.36397 0.65472 0.0
H2422 H 0.06263 0.3489 0.59353 0.0
H2423 H 0.08723 0.35387 0.57299 0.0
C2424 C 0.03118 0.33317 0.64666 0.0
C2425 C 0.0326 0.3435 0.66524 0.0
C2426 C 0.045 0.33748 0.63347 0.0
C2427 C 0.06049 0.35225 0.63854 0.0
C2428 C 0.06169 0.36292 0.6566 0.0
C2429 C 0.04791 0.35858 0.66983 0.0
C2430 C 0.10521 0.36487 0.62509 0.0
C2431 C 0.104 0.36185 0.60199 0.0
C2432 C 0.09115 0.36199 0.63684 0.0
C2433 C 0.07555 0.35606 0.62576 0.0
C2434 C 0.0744 0.35325 0.60259 0.0
C2435 C 0.08848 0.3561 0.59084 0.0
H2436 H 0.26418 0.31141 0.67205 0.0
H2437 H 0.30925 0.35313 0.6464 0.0
H2438 H 0.24737 0.32114 0.65264 0.0
H2439 H 0.29233 0.36317 0.62726 0.0
H2440 H 0.25328 0.36524 0.57918 0.0
H2441 H 0.2716 0.35648 0.59727 0.0
H2442 H 0.24181 0.34427 0.65586 0.0
H2443 H 0.22349 0.35282 0.63773 0.0
C2444 C 0.27052 0.32268 0.66225 0.0
C2445 C 0.28808 0.33154 0.6609 0.0
C2446 C 0.26087 0.32835 0.65124 0.0
C2447 C 0.26849 0.3431 0.63864 0.0
C2448 C 0.28604 0.35173 0.63675 0.0
C2449 C 0.29574 0.346 0.64775 0.0
C2450 C 0.25081 0.36089 0.59603 0.0
C2451 C 0.23685 0.35958 0.60696 0.0
C2452 C 0.26129 0.35586 0.60639 0.0
C2453 C 0.25806 0.34945 0.62792 0.0
C2454 C 0.24444 0.34873 0.63907 0.0
C2455 C 0.23395 0.35368 0.62871 0.0
H2456 H 0.70808 0.97143 0.62478 0.0
H2457 H 0.65704 0.96115 0.62691 0.0
H2458 H 0.69798 0.94186 0.6134 0.0
H2459 H 0.64687 0.93178 0.61431 0.0
H2460 H 0.63265 0.87649 0.60045 0.0
H2461 H 0.64249 0.90417 0.61947 0.0
H2462 H 0.68705 0.9259 0.58031 0.0
H2463 H 0.6775 0.89821 0.56227 0.0
C2464 C 0.69468 0.96277 0.623 0.0
C2465 C 0.68336 0.96862 0.62654 0.0
C2466 C 0.68886 0.94585 0.61624 0.0
C2467 C 0.6716 0.93446 0.61234 0.0
C2468 C 0.66023 0.94009 0.61721 0.0
C2469 C 0.66606 0.95697 0.62442 0.0
C2470 C 0.64455 0.88725 0.59604 0.0
C2471 C 0.65438 0.88525 0.58002 0.0
C2472 C 0.65019 0.90311 0.60688 0.0
C2473 C 0.66568 0.91732 0.60165 0.0
C2474 C 0.67532 0.91522 0.58534 0.0
C2475 C 0.6698 0.89938 0.5748 0.0
H2476 H 0.04117 0.73671 0.67802 0.0
H2477 H 0.02671 0.68639 0.65141 0.0
H2478 H 0.0659 0.74887 0.65557 0.0
H2479 H 0.05187 0.69858 0.62926 0.0
H2480 H 0.08935 0.73128 0.57513 0.0
H2481 H 0.06445 0.71665 0.59769 0.0
H2482 H 0.09233 0.74994 0.65393 0.0
H2483 H 0.11687 0.76471 0.63124 0.0
C2484 C 0.04333 0.72821 0.66747 0.0
C2485 C 0.03201 0.71058 0.66655 0.0
C2486 C 0.05759 0.73518 0.6547 0.0
C2487 C 0.06097 0.72467 0.6408 0.0
C2488 C 0.04957 0.70702 0.63969 0.0
C2489 C 0.0352 0.70004 0.65245 0.0
C2490 C 0.09012 0.73526 0.5924 0.0
C2491 C 0.10488 0.74924 0.60142 0.0
C2492 C 0.07592 0.7269 0.60532 0.0
C2493 C 0.07634 0.73232 0.62751 0.0
C2494 C 0.09144 0.74574 0.63674 0.0
C2495 C 0.10551 0.75416 0.62381 0.0
H2496 H 0.95128 0.61023 0.73559 0.0
H2497 H 0.00041 0.63929 0.70783 0.0
H2498 H 0.95938 0.59081 0.75124 0.0
H2499 H 0.00841 0.61963 0.72359 0.0
H2500 H 0.00974 0.57064 0.74436 0.0
H2501 H 0.00107 0.5879 0.72338 0.0
H2502 H 0.98088 0.5972 0.78274 0.0
H2503 H 0.98997 0.58055 0.80388 0.0
C2504 C 0.96372 0.61235 0.73247 0.0
C2505 C 0.9753 0.62652 0.72075 0.0
C2506 C 0.96835 0.60123 0.74155 0.0
C2507 C 0.98459 0.60394 0.73894 0.0
C2508 C 0.9958 0.61731 0.72585 0.0
C2509 C 0.99121 0.62856 0.71687 0.0
C2510 C 0.00365 0.57655 0.75301 0.0
C2511 C 0.00047 0.57413 0.77582 0.0
C2512 C 0.99862 0.58634 0.74095 0.0
C2513 C 0.99014 0.59367 0.7514 0.0
C2514 C 0.98709 0.59138 0.77418 0.0
C2515 C 0.99228 0.58181 0.78627 0.0
H2516 H 0.35663 0.38318 0.71223 0.0
H2517 H 0.39875 0.37465 0.71369 0.0
H2518 H 0.37535 0.41306 0.72393 0.0
H2519 H 0.41737 0.40442 0.72511 0.0
H2520 H 0.44845 0.46197 0.73209 0.0
H2521 H 0.42903 0.43496 0.71292 0.0
H2522 H 0.39157 0.42592 0.76109 0.0
H2523 H 0.41109 0.45261 0.78079 0.0
C2524 C 0.36993 0.38778 0.71449 0.0
C2525 C 0.37622 0.37655 0.71216 0.0
C2526 C 0.3806 0.40482 0.72135 0.0
C2527 C 0.39778 0.41101 0.72555 0.0
C2528 C 0.40421 0.40004 0.72186 0.0
C2529 C 0.39352 0.38297 0.7154 0.0
C2530 C 0.43609 0.45424 0.73867 0.0
C2531 C 0.43146 0.45942 0.75822 0.0
C2532 C 0.42495 0.43883 0.72757 0.0
C2533 C 0.40882 0.42834 0.73554 0.0
C2534 C 0.40386 0.43386 0.75441 0.0
C2535 C 0.41507 0.44918 0.76569 0.0
H2536 H 0.64788 0.02041 0.69351 0.0
H2537 H 0.62612 0.96582 0.68558 0.0
H2538 H 0.6254 0.01632 0.71754 0.0
H2539 H 0.60395 0.96165 0.71062 0.0
H2540 H 0.55613 0.96082 0.73303 0.0
H2541 H 0.57957 0.96375 0.71147 0.0
H2542 H 0.61363 0.00812 0.75221 0.0
H2543 H 0.58998 0.00556 0.77286 0.0
C2544 C 0.63844 0.00751 0.69724 0.0
C2545 C 0.63873 0.99344 0.68755 0.0
C2546 C 0.62556 0.00515 0.71118 0.0
C2547 C 0.61276 0.98864 0.71608 0.0
C2548 C 0.61338 0.97455 0.70691 0.0
C2549 C 0.62616 0.97692 0.69268 0.0
C2550 C 0.56868 0.97112 0.73735 0.0
C2551 C 0.57131 0.98305 0.75441 0.0
C2552 C 0.58214 0.97276 0.72513 0.0
C2553 C 0.59856 0.98623 0.72998 0.0
C2554 C 0.60116 0.99782 0.74762 0.0
C2555 C 0.58765 0.99634 0.75955 0.0
loop_
_geom_bond_atom_site_label_1
_geom_bond_atom_site_label_2
_geom_bond_distance
_geom_bond_site_symmetry_2
_ccdc_geom_bond_type
Mg0 O1 2.028 1_556 S
Mg0 O7 1.986 1_455 S
Mg0 O9 2.114 . S
Mg0 O10 2.251 1_455 S
Mg0 O13 2.010 1_556 S
O1 Mg0 2.028 1_554 S
O1 C4 1.250 1_455 S
O2 Mg3 2.028 1_554 S
O2 C4 1.248 . S
Mg3 O2 2.028 1_556 S
Mg3 O8 2.032 . S
Mg3 O10 2.079 . S
C4 O1 1.250 1_655 S
C4 O2 1.248 . S
C5 O6 1.264 . S
C5 O13 1.249 . S
O6 C5 1.264 . S
O7 Mg0 1.986 1_655 S
O7 C11 1.246 . S
O8 Mg3 2.032 . S
O8 C11 1.259 . S
O9 Mg0 2.114 . S
O9 C12 1.252 . S
O10 Mg0 2.251 1_655 S
O10 Mg3 2.079 . S
O10 C12 1.273 1_655 S
C11 O7 1.246 . S
C11 O8 1.259 . S
C12 O9 1.252 . S
C12 O10 1.273 1_455 S
O13 Mg0 2.010 1_554 S
O13 C5 1.249 . S
Mg14 O15 2.028 1_554 S
Mg14 O21 1.986 . S
Mg14 O23 2.114 . S
Mg14 O24 2.251 . S
Mg14 O27 2.010 . S
O15 Mg14 2.028 1_556 S
O15 C18 1.250 . S
O16 Mg17 2.022 1_556 S
O16 C18 1.252 . S
Mg17 O16 2.022 1_554 S
Mg17 O22 2.032 . S
Mg17 O24 2.079 . S
C18 O15 1.250 . S
C18 O16 1.252 . S
C19 O20 1.259 1_556 S
C19 O27 1.245 1_556 S
O20 C19 1.259 1_554 S
O21 Mg14 1.986 . S
O21 C25 1.246 . S
O22 Mg17 2.032 . S
O22 C25 1.259 . S
O23 Mg14 2.114 . S
O23 C26 1.252 . S
O24 Mg14 2.251 . S
O24 Mg17 2.079 . S
O24 C26 1.273 . S
C25 O21 1.246 . S
C25 O22 1.259 . S
C26 O23 1.252 . S
C26 O24 1.273 . S
O27 Mg14 2.010 . S
O27 C19 1.245 1_554 S
Mg28 O29 2.033 1_566 S
Mg28 O35 1.986 1_565 S
Mg28 O37 2.114 . S
Mg28 O38 2.251 1_565 S
Mg28 O41 2.010 1_556 S
O29 Mg28 2.033 1_544 S
O29 C32 1.258 . S
O30 Mg31 2.028 1_554 S
O30 C32 1.248 . S
Mg31 O30 2.028 1_556 S
Mg31 O36 2.032 . S
Mg31 O38 2.079 . S
C32 O29 1.258 . S
C32 O30 1.248 . S
C33 O34 1.264 . S
C33 O41 1.249 . S
O34 C33 1.264 . S
O35 Mg28 1.986 1_545 S
O35 C39 1.246 . S
O36 Mg31 2.032 . S
O36 C39 1.259 . S
O37 Mg28 2.114 . S
O37 C40 1.252 . S
O38 Mg28 2.251 1_545 S
O38 Mg31 2.079 . S
O38 C40 1.273 1_545 S
C39 O35 1.246 . S
C39 O36 1.259 . S
C40 O37 1.252 . S
C40 O38 1.273 1_565 S
O41 Mg28 2.010 1_554 S
O41 C33 1.249 . S
Mg42 O43 2.028 1_654 S
Mg42 O49 1.986 1_655 S
Mg42 O51 2.114 . S
Mg42 O52 2.251 1_655 S
Mg42 O55 2.010 . S
O43 Mg42 2.028 1_456 S
O43 C46 1.251 . S
O44 Mg45 2.028 1_556 S
O44 C46 1.248 . S
Mg45 O44 2.028 1_554 S
Mg45 O50 2.032 . S
Mg45 O52 2.079 . S
C46 O43 1.251 . S
C46 O44 1.248 . S
C47 O48 1.264 . S
C47 O55 1.249 . S
O48 C47 1.264 . S
O49 Mg42 1.986 1_455 S
O49 C53 1.246 . S
O50 Mg45 2.032 . S
O50 C53 1.259 . S
O51 Mg42 2.114 . S
O51 C54 1.252 . S
O52 Mg42 2.251 1_455 S
O52 Mg45 2.079 . S
O52 C54 1.273 1_455 S
C53 O49 1.246 . S
C53 O50 1.259 . S
C54 O51 1.252 . S
C54 O52 1.273 1_655 S
O55 Mg42 2.010 . S
O55 C47 1.249 . S
Mg56 O57 2.028 1_556 S
Mg56 O63 1.986 . S
Mg56 O65 2.114 . S
Mg56 O66 2.251 . S
Mg56 O69 2.010 1_556 S
O57 Mg56 2.028 1_554 S
O57 C60 1.250 . S
O58 Mg59 2.028 1_554 S
O58 C60 1.248 . S
Mg59 O58 2.028 1_556 S
Mg59 O64 2.032 . S
Mg59 O66 2.079 . S
C60 O57 1.250 . S
C60 O58 1.248 . S
C61 O62 1.264 . S
C61 O69 1.249 . S
O62 C61 1.264 . S
O63 Mg56 1.986 . S
O63 C67 1.246 . S
O64 Mg59 2.032 . S
O64 C67 1.259 . S
O65 Mg56 2.114 . S
O65 C68 1.252 . S
O66 Mg56 2.251 . S
O66 Mg59 2.079 . S
O66 C68 1.273 . S
C67 O63 1.246 . S
C67 O64 1.259 . S
C68 O65 1.252 . S
C68 O66 1.273 . S
O69 Mg56 2.010 1_554 S
O69 C61 1.249 . S
Mg70 O71 2.028 1_554 S
Mg70 O77 1.986 1_545 S
Mg70 O79 2.114 . S
Mg70 O80 2.251 1_545 S
Mg70 O83 2.010 . S
O71 Mg70 2.028 1_556 S
O71 C74 1.250 1_545 S
O72 Mg73 2.002 1_556 S
O72 C74 1.265 . S
Mg73 O72 2.002 1_554 S
Mg73 O78 2.032 . S
Mg73 O80 2.079 . S
C74 O71 1.250 1_565 S
C74 O72 1.265 . S
C75 O76 1.264 . S
C75 O83 1.249 . S
O76 C75 1.264 . S
O77 Mg70 1.986 1_565 S
O77 C81 1.246 . S
O78 Mg73 2.032 . S
O78 C81 1.259 . S
O79 Mg70 2.114 . S
O79 C82 1.252 . S
O80 Mg70 2.251 1_565 S
O80 Mg73 2.079 . S
O80 C82 1.273 1_565 S
C81 O77 1.246 . S
C81 O78 1.259 . S
C82 O79 1.252 . S
C82 O80 1.273 1_545 S
O83 Mg70 2.010 . S
O83 C75 1.249 . S
Mg84 O85 2.028 . S
Mg84 O91 1.986 . S
Mg84 O93 2.114 . S
Mg84 O94 2.251 . S
Mg84 O97 2.010 . S
O85 Mg84 2.028 . S
O85 C88 1.250 . S
O86 Mg87 2.028 . S
O86 C88 1.248 . S
Mg87 O86 2.028 . S
Mg87 O92 2.032 . S
Mg87 O94 2.079 . S
C88 O85 1.250 . S
C88 O86 1.248 . S
C89 O90 1.264 . S
C89 O97 1.249 . S
O90 C89 1.264 . S
O91 Mg84 1.986 . S
O91 C95 1.246 . S
O92 Mg87 2.032 . S
O92 C95 1.259 . S
O93 Mg84 2.114 . S
O93 C96 1.252 . S
O94 Mg84 2.251 . S
O94 Mg87 2.079 . S
O94 C96 1.273 . S
C95 O91 1.246 . S
C95 O92 1.259 . S
C96 O93 1.252 . S
C96 O94 1.273 . S
O97 Mg84 2.010 . S
O97 C89 1.249 . S
Mg98 O99 2.028 . S
Mg98 O105 1.986 1_565 S
Mg98 O107 2.114 . S
Mg98 O108 2.251 . S
Mg98 O111 2.010 . S
O99 Mg98 2.028 . S
O99 C102 1.250 . S
O100 Mg101 2.028 . S
O100 C102 1.248 . S
Mg101 O100 2.028 . S
Mg101 O106 2.032 1_565 S
Mg101 O108 2.079 . S
C102 O99 1.250 . S
C102 O100 1.248 . S
C103 O104 1.264 . S
C103 O111 1.249 . S
O104 C103 1.264 . S
O105 Mg98 1.986 1_545 S
O105 C109 1.246 . S
O106 Mg101 2.032 1_545 S
O106 C109 1.259 . S
O107 Mg98 2.114 . S
O107 C110 1.252 . S
O108 Mg98 2.251 . S
O108 Mg101 2.079 . S
O108 C110 1.273 . S
C109 O105 1.246 . S
C109 O106 1.259 . S
C110 O107 1.252 . S
C110 O108 1.273 . S
O111 Mg98 2.010 . S
O111 C103 1.249 . S
Mg112 O113 2.028 . S
Mg112 O119 1.986 . S
Mg112 O121 2.114 . S
Mg112 O122 2.251 . S
Mg112 O125 2.010 1_455 S
O113 Mg112 2.028 . S
O113 C116 1.250 . S
O114 Mg115 2.028 . S
O114 C116 1.248 . S
Mg115 O114 2.028 . S
Mg115 O120 2.032 . S
Mg115 O122 2.079 . S
C116 O113 1.250 . S
C116 O114 1.248 . S
C117 O118 1.264 . S
C117 O125 1.249 . S
O118 C117 1.264 . S
O119 Mg112 1.986 . S
O119 C123 1.246 . S
O120 Mg115 2.032 . S
O120 C123 1.259 . S
O121 Mg112 2.114 . S
O121 C124 1.252 . S
O122 Mg112 2.251 . S
O122 Mg115 2.079 . S
O122 C124 1.273 . S
C123 O119 1.246 . S
C123 O120 1.259 . S
C124 O121 1.252 . S
C124 O122 1.273 . S
O125 Mg112 2.010 1_655 S
O125 C117 1.249 . S
Mg126 O127 2.028 . S
Mg126 O133 1.986 1_565 S
Mg126 O135 2.114 . S
Mg126 O136 2.251 . S
Mg126 O139 2.010 . S
O127 Mg126 2.028 . S
O127 C130 1.250 . S
O128 Mg129 2.028 . S
O128 C130 1.248 . S
Mg129 O128 2.028 . S
Mg129 O134 2.032 1_565 S
Mg129 O136 2.079 . S
C130 O127 1.250 . S
C130 O128 1.248 . S
C131 O132 1.264 . S
C131 O139 1.249 . S
O132 C131 1.264 . S
O133 Mg126 1.986 1_545 S
O133 C137 1.246 . S
O134 Mg129 2.032 1_545 S
O134 C137 1.259 . S
O135 Mg126 2.114 . S
O135 C138 1.252 . S
O136 Mg126 2.251 . S
O136 Mg129 2.079 . S
O136 C138 1.273 . S
C137 O133 1.246 . S
C137 O134 1.259 . S
C138 O135 1.252 . S
C138 O136 1.273 . S
O139 Mg126 2.010 . S
O139 C131 1.249 . S
Mg140 O141 2.028 . S
Mg140 O147 1.986 . S
Mg140 O149 2.114 . S
Mg140 O150 2.251 . S
Mg140 O153 2.010 1_455 S
O141 Mg140 2.028 . S
O141 C144 1.250 . S
O142 Mg143 2.028 . S
O142 C144 1.248 . S
Mg143 O142 2.028 . S
Mg143 O148 2.032 . S
Mg143 O150 2.079 . S
C144 O141 1.250 . S
C144 O142 1.248 . S
C145 O146 1.264 . S
C145 O153 1.249 . S
O146 C145 1.264 . S
O147 Mg140 1.986 . S
O147 C151 1.246 . S
O148 Mg143 2.032 . S
O148 C151 1.259 . S
O149 Mg140 2.114 . S
O149 C152 1.252 . S
O150 Mg140 2.251 . S
O150 Mg143 2.079 . S
O150 C152 1.273 . S
C151 O147 1.246 . S
C151 O148 1.259 . S
C152 O149 1.252 . S
C152 O150 1.273 . S
O153 Mg140 2.010 1_655 S
O153 C145 1.249 . S
Mg154 O155 2.028 . S
Mg154 O161 1.986 . S
Mg154 O163 2.114 . S
Mg154 O164 2.251 . S
Mg154 O167 2.010 . S
O155 Mg154 2.028 . S
O155 C158 1.250 . S
O156 Mg157 2.028 . S
O156 C158 1.248 . S
Mg157 O156 2.028 . S
Mg157 O162 2.032 . S
Mg157 O164 2.079 . S
C158 O155 1.250 . S
C158 O156 1.248 . S
C159 O160 1.264 . S
C159 O167 1.249 . S
O160 C159 1.264 . S
O161 Mg154 1.986 . S
O161 C165 1.246 . S
O162 Mg157 2.032 . S
O162 C165 1.259 . S
O163 Mg154 2.114 . S
O163 C166 1.252 . S
O164 Mg154 2.251 . S
O164 Mg157 2.079 . S
O164 C166 1.273 . S
C165 O161 1.246 . S
C165 O162 1.259 . S
C166 O163 1.252 . S
C166 O164 1.273 . S
O167 Mg154 2.010 . S
O167 C159 1.249 . S
Mg168 O169 2.028 . S
Mg168 O175 1.986 1_545 S
Mg168 O177 2.114 . S
Mg168 O178 2.251 . S
Mg168 O181 2.010 . S
O169 Mg168 2.028 . S
O169 C172 1.250 . S
O170 Mg171 2.028 . S
O170 C172 1.248 . S
Mg171 O170 2.028 . S
Mg171 O176 2.032 1_545 S
Mg171 O178 2.079 . S
C172 O169 1.250 . S
C172 O170 1.248 . S
C173 O174 1.264 . S
C173 O181 1.249 . S
O174 C173 1.264 . S
O175 Mg168 1.986 1_565 S
O175 C179 1.246 . S
O176 Mg171 2.032 1_565 S
O176 C179 1.259 . S
O177 Mg168 2.114 . S
O177 C180 1.252 . S
O178 Mg168 2.251 . S
O178 Mg171 2.079 . S
O178 C180 1.273 . S
C179 O175 1.246 . S
C179 O176 1.259 . S
C180 O177 1.252 . S
C180 O178 1.273 . S
O181 Mg168 2.010 . S
O181 C173 1.249 . S
Mg182 O183 2.028 . S
Mg182 O189 1.986 . S
Mg182 O191 2.114 . S
Mg182 O192 2.251 . S
Mg182 O195 2.010 1_655 S
O183 Mg182 2.028 . S
O183 C186 1.250 . S
O184 Mg185 2.028 . S
O184 C186 1.248 . S
Mg185 O184 2.028 . S
Mg185 O190 2.032 . S
Mg185 O192 2.079 . S
C186 O183 1.250 . S
C186 O184 1.248 . S
C187 O188 1.264 . S
C187 O195 1.249 . S
O188 C187 1.264 . S
O189 Mg182 1.986 . S
O189 C193 1.246 . S
O190 Mg185 2.032 . S
O190 C193 1.259 . S
O191 Mg182 2.114 . S
O191 C194 1.252 . S
O192 Mg182 2.251 . S
O192 Mg185 2.079 . S
O192 C194 1.273 . S
C193 O189 1.246 . S
C193 O190 1.259 . S
C194 O191 1.252 . S
C194 O192 1.273 . S
O195 Mg182 2.010 1_455 S
O195 C187 1.249 . S
Mg196 O197 2.028 . S
Mg196 O203 1.986 . S
Mg196 O205 2.114 . S
Mg196 O206 2.251 . S
Mg196 O209 2.010 . S
O197 Mg196 2.028 . S
O197 C200 1.250 . S
O198 Mg199 2.028 . S
O198 C200 1.248 . S
Mg199 O198 2.028 . S
Mg199 O204 2.032 . S
Mg199 O206 2.079 . S
C200 O197 1.250 . S
C200 O198 1.248 . S
C201 O202 1.264 . S
C201 O209 1.249 . S
O202 C201 1.264 . S
O203 Mg196 1.986 . S
O203 C207 1.246 . S
O204 Mg199 2.032 . S
O204 C207 1.259 . S
O205 Mg196 2.114 . S
O205 C208 1.252 . S
O206 Mg196 2.251 . S
O206 Mg199 2.079 . S
O206 C208 1.273 . S
C207 O203 1.246 . S
C207 O204 1.259 . S
C208 O205 1.252 . S
C208 O206 1.273 . S
O209 Mg196 2.010 . S
O209 C201 1.249 . S
Mg210 O211 2.028 . S
Mg210 O217 1.986 . S
Mg210 O219 2.114 . S
Mg210 O220 2.251 . S
Mg210 O223 2.010 . S
O211 Mg210 2.028 . S
O211 C214 1.250 . S
O212 Mg213 2.028 . S
O212 C214 1.248 . S
Mg213 O212 2.028 . S
Mg213 O218 2.032 . S
Mg213 O220 2.079 . S
C214 O211 1.250 . S
C214 O212 1.248 . S
C215 O216 1.264 . S
C215 O223 1.249 . S
O216 C215 1.264 . S
O217 Mg210 1.986 . S
O217 C221 1.246 . S
O218 Mg213 2.032 . S
O218 C221 1.259 . S
O219 Mg210 2.114 . S
O219 C222 1.252 . S
O220 Mg210 2.251 . S
O220 Mg213 2.079 . S
O220 C222 1.273 . S
C221 O217 1.246 . S
C221 O218 1.259 . S
C222 O219 1.252 . S
C222 O220 1.273 . S
O223 Mg210 2.010 . S
O223 C215 1.249 . S
Mg224 O225 2.028 . S
Mg224 O231 1.986 1_545 S
Mg224 O233 2.114 . S
Mg224 O234 2.251 . S
Mg224 O237 2.010 . S
O225 Mg224 2.028 . S
O225 C228 1.250 . S
O226 Mg227 2.028 . S
O226 C228 1.248 . S
Mg227 O226 2.028 . S
Mg227 O232 2.032 1_545 S
Mg227 O234 2.079 . S
C228 O225 1.250 . S
C228 O226 1.248 . S
C229 O230 1.264 . S
C229 O237 1.249 . S
O230 C229 1.264 . S
O231 Mg224 1.986 1_565 S
O231 C235 1.246 . S
O232 Mg227 2.032 1_565 S
O232 C235 1.259 . S
O233 Mg224 2.114 . S
O233 C236 1.252 . S
O234 Mg224 2.251 . S
O234 Mg227 2.079 . S
O234 C236 1.273 . S
C235 O231 1.246 . S
C235 O232 1.259 . S
C236 O233 1.252 . S
C236 O234 1.273 . S
O237 Mg224 2.010 . S
O237 C229 1.249 . S
Mg238 O239 2.028 . S
Mg238 O245 1.986 . S
Mg238 O247 2.114 . S
Mg238 O248 2.251 . S
Mg238 O251 2.010 1_655 S
O239 Mg238 2.028 . S
O239 C242 1.250 . S
O240 Mg241 2.028 . S
O240 C242 1.248 . S
Mg241 O240 2.028 . S
Mg241 O246 2.032 . S
Mg241 O248 2.079 . S
C242 O239 1.250 . S
C242 O240 1.248 . S
C243 O244 1.264 . S
C243 O251 1.249 . S
O244 C243 1.264 . S
O245 Mg238 1.986 . S
O245 C249 1.246 . S
O246 Mg241 2.032 . S
O246 C249 1.259 . S
O247 Mg238 2.114 . S
O247 C250 1.252 . S
O248 Mg238 2.251 . S
O248 Mg241 2.079 . S
O248 C250 1.273 . S
C249 O245 1.246 . S
C249 O246 1.259 . S
C250 O247 1.252 . S
C250 O248 1.273 . S
O251 Mg238 2.010 1_455 S
O251 C243 1.249 . S
H252 C271 0.949 . S
H253 C272 0.950 . S
H254 C274 0.950 . S
H255 C275 0.950 . S
H256 C277 0.950 . S
H257 C280 0.950 . S
H258 C281 0.950 . S
H259 C283 0.951 . S
H260 C284 0.949 . S
H261 C286 0.949 . S
H262 C287 0.950 . S
H263 C289 0.950 . S
H264 C290 0.950 . S
H265 C292 0.950 . S
H266 C295 0.950 . S
H267 C296 0.950 . S
H268 C298 0.951 . S
H269 C299 0.949 . S
C270 C271 1.376 . S
C270 C275 1.386 . S
C270 C276 1.483 . S
C271 H252 0.949 . S
C271 C270 1.376 . S
C271 C272 1.397 . S
C272 H253 0.950 . S
C272 C271 1.397 . S
C272 C273 1.391 . S
C273 C272 1.391 . S
C273 C274 1.405 . S
C274 H254 0.950 . S
C274 C273 1.405 . S
C274 C275 1.367 . S
C275 H255 0.950 . S
C275 C270 1.386 . S
C275 C274 1.367 . S
C276 C270 1.483 . S
C276 C277 1.382 . S
C276 C278 1.403 . S
C277 H256 0.950 . S
C277 C276 1.382 . S
C277 C293 1.411 . S
C278 C276 1.403 . S
C278 C279 1.489 . S
C278 C292 1.411 . S
C279 C278 1.489 . S
C279 C280 1.383 . S
C279 C284 1.382 . S
C280 H257 0.950 . S
C280 C279 1.383 . S
C280 C281 1.395 . S
C281 H258 0.950 . S
C281 C280 1.395 . S
C281 C282 1.288 . S
C282 C281 1.288 . S
C282 C283 1.392 . S
C283 H259 0.951 . S
C283 C282 1.392 . S
C283 C284 1.392 . S
C284 H260 0.949 . S
C284 C279 1.382 . S
C284 C283 1.392 . S
C285 C286 1.376 . S
C285 C290 1.386 . S
C285 C291 1.483 . S
C286 H261 0.949 . S
C286 C285 1.376 . S
C286 C287 1.397 . S
C287 H262 0.950 . S
C287 C286 1.397 . S
C287 C288 1.391 . S
C288 C287 1.391 . S
C288 C289 1.405 . S
C289 H263 0.950 . S
C289 C288 1.405 . S
C289 C290 1.367 . S
C290 H264 0.950 . S
C290 C285 1.386 . S
C290 C289 1.367 . S
C291 C285 1.483 . S
C291 C292 1.382 . S
C291 C293 1.403 . S
C292 H265 0.950 . S
C292 C278 1.411 . S
C292 C291 1.382 . S
C293 C277 1.411 . S
C293 C291 1.403 . S
C293 C294 1.489 . S
C294 C293 1.489 . S
C294 C295 1.383 . S
C294 C299 1.382 . S
C295 H266 0.950 . S
C295 C294 1.383 . S
C295 C296 1.395 . S
C296 H267 0.950 . S
C296 C295 1.395 . S
C296 C297 1.288 . S
C297 C296 1.288 . S
C297 C298 1.392 . S
C298 H268 0.951 . S
C298 C297 1.392 . S
C298 C299 1.392 . S
C299 H269 0.949 . S
C299 C294 1.382 . S
C299 C298 1.392 . S
H300 C319 0.949 . S
H301 C320 0.950 . S
H302 C322 0.950 . S
H303 C323 0.950 . S
H304 C325 0.950 . S
H305 C328 0.950 . S
H306 C329 0.950 . S
H307 C331 0.951 . S
H308 C332 0.949 . S
H309 C334 0.949 . S
H310 C335 0.950 . S
H311 C337 0.950 . S
H312 C338 0.950 . S
H313 C340 0.950 . S
H314 C343 0.950 . S
H315 C344 0.950 . S
H316 C346 0.951 . S
H317 C347 0.949 . S
C318 C319 1.376 . S
C318 C323 1.386 . S
C318 C324 1.483 . S
C319 H300 0.949 . S
C319 C318 1.376 . S
C319 C320 1.397 . S
C320 H301 0.950 . S
C320 C319 1.397 . S
C320 C321 1.391 . S
C321 C320 1.391 . S
C321 C322 1.405 . S
C322 H302 0.950 . S
C322 C321 1.405 . S
C322 C323 1.367 . S
C323 H303 0.950 . S
C323 C318 1.386 . S
C323 C322 1.367 . S
C324 C318 1.483 . S
C324 C325 1.382 . S
C324 C326 1.403 . S
C325 H304 0.950 . S
C325 C324 1.382 . S
C325 C341 1.411 . S
C326 C324 1.403 . S
C326 C327 1.489 . S
C326 C340 1.411 . S
C327 C326 1.489 . S
C327 C328 1.383 . S
C327 C332 1.382 . S
C328 H305 0.950 . S
C328 C327 1.383 . S
C328 C329 1.395 . S
C329 H306 0.950 . S
C329 C328 1.395 . S
C329 C330 1.288 . S
C330 C329 1.288 . S
C330 C331 1.392 . S
C331 H307 0.951 . S
C331 C330 1.392 . S
C331 C332 1.392 . S
C332 H308 0.949 . S
C332 C327 1.382 . S
C332 C331 1.392 . S
C333 C334 1.376 . S
C333 C338 1.386 . S
C333 C339 1.483 . S
C334 H309 0.949 . S
C334 C333 1.376 . S
C334 C335 1.397 . S
C335 H310 0.950 . S
C335 C334 1.397 . S
C335 C336 1.391 . S
C336 C335 1.391 . S
C336 C337 1.405 . S
C337 H311 0.950 . S
C337 C336 1.405 . S
C337 C338 1.367 . S
C338 H312 0.950 . S
C338 C333 1.386 . S
C338 C337 1.367 . S
C339 C333 1.483 . S
C339 C340 1.382 . S
C339 C341 1.403 . S
C340 H313 0.950 . S
C340 C326 1.411 . S
C340 C339 1.382 . S
C341 C325 1.411 . S
C341 C339 1.403 . S
C341 C342 1.489 . S
C342 C341 1.489 . S
C342 C343 1.383 . S
C342 C347 1.382 . S
C343 H314 0.950 . S
C343 C342 1.383 . S
C343 C344 1.395 . S
C344 H315 0.950 . S
C344 C343 1.395 . S
C344 C345 1.288 . S
C345 C344 1.288 . S
C345 C346 1.392 . S
C346 H316 0.951 . S
C346 C345 1.392 . S
C346 C347 1.392 . S
C347 H317 0.949 . S
C347 C342 1.382 . S
C347 C346 1.392 . S
H348 C367 0.949 . S
H349 C368 0.950 . S
H350 C370 0.950 . S
H351 C371 0.950 . S
H352 C373 0.950 . S
H353 C376 0.950 . S
H354 C377 0.950 . S
H355 C379 0.951 . S
H356 C380 0.949 . S
H357 C382 0.949 . S
H358 C383 0.950 . S
H359 C385 0.950 . S
H360 C386 0.950 . S
H361 C388 0.950 . S
H362 C391 0.950 . S
H363 C392 0.950 . S
H364 C394 0.951 . S
H365 C395 0.949 . S
C366 C367 1.376 . S
C366 C371 1.386 . S
C366 C372 1.483 . S
C367 H348 0.949 . S
C367 C366 1.376 . S
C367 C368 1.397 . S
C368 H349 0.950 . S
C368 C367 1.397 . S
C368 C369 1.391 . S
C369 C368 1.391 . S
C369 C370 1.405 . S
C370 H350 0.950 . S
C370 C369 1.405 . S
C370 C371 1.367 . S
C371 H351 0.950 . S
C371 C366 1.386 . S
C371 C370 1.367 . S
C372 C366 1.483 . S
C372 C373 1.382 . S
C372 C374 1.403 . S
C373 H352 0.950 . S
C373 C372 1.382 . S
C373 C389 1.411 . S
C374 C372 1.403 . S
C374 C375 1.489 . S
C374 C388 1.411 . S
C375 C374 1.489 . S
C375 C376 1.383 . S
C375 C380 1.382 . S
C376 H353 0.950 . S
C376 C375 1.383 . S
C376 C377 1.395 . S
C377 H354 0.950 . S
C377 C376 1.395 . S
C377 C378 1.288 . S
C378 C377 1.288 . S
C378 C379 1.392 . S
C379 H355 0.951 . S
C379 C378 1.392 . S
C379 C380 1.392 . S
C380 H356 0.949 . S
C380 C375 1.382 . S
C380 C379 1.392 . S
C381 C382 1.376 . S
C381 C386 1.386 . S
C381 C387 1.483 . S
C382 H357 0.949 . S
C382 C381 1.376 . S
C382 C383 1.397 . S
C383 H358 0.950 . S
C383 C382 1.397 . S
C383 C384 1.391 . S
C384 C383 1.391 . S
C384 C385 1.405 . S
C385 H359 0.950 . S
C385 C384 1.405 . S
C385 C386 1.367 . S
C386 H360 0.950 . S
C386 C381 1.386 . S
C386 C385 1.367 . S
C387 C381 1.483 . S
C387 C388 1.382 . S
C387 C389 1.403 . S
C388 H361 0.950 . S
C388 C374 1.411 . S
C388 C387 1.382 . S
C389 C373 1.411 . S
C389 C387 1.403 . S
C389 C390 1.489 . S
C390 C389 1.489 . S
C390 C391 1.383 . S
C390 C395 1.382 . S
C391 H362 0.950 . S
C391 C390 1.383 . S
C391 C392 1.395 . S
C392 H363 0.950 . S
C392 C391 1.395 . S
C392 C393 1.288 . S
C393 C392 1.288 . S
C393 C394 1.392 . S
C394 H364 0.951 . S
C394 C393 1.392 . S
C394 C395 1.392 . S
C395 H365 0.949 . S
C395 C390 1.382 . S
C395 C394 1.392 . S
H396 C415 0.949 . S
H397 C416 0.950 . S
H398 C418 0.950 . S
H399 C419 0.950 . S
H400 C421 0.950 . S
H401 C424 0.950 . S
H402 C425 0.950 . S
H403 C427 0.951 . S
H404 C428 0.949 . S
H405 C430 0.949 . S
H406 C431 0.950 . S
H407 C433 0.950 . S
H408 C434 0.950 . S
H409 C436 0.950 . S
H410 C439 0.950 . S
H411 C440 0.950 . S
H412 C442 0.951 . S
H413 C443 0.949 . S
C414 C415 1.376 . S
C414 C419 1.386 . S
C414 C420 1.483 . S
C415 H396 0.949 . S
C415 C414 1.376 . S
C415 C416 1.397 . S
C416 H397 0.950 . S
C416 C415 1.397 . S
C416 C417 1.391 . S
C417 C416 1.391 . S
C417 C418 1.405 . S
C418 H398 0.950 . S
C418 C417 1.405 . S
C418 C419 1.367 . S
C419 H399 0.950 . S
C419 C414 1.386 . S
C419 C418 1.367 . S
C420 C414 1.483 . S
C420 C421 1.382 . S
C420 C422 1.403 . S
C421 H400 0.950 . S
C421 C420 1.382 . S
C421 C437 1.411 . S
C422 C420 1.403 . S
C422 C423 1.489 . S
C422 C436 1.411 . S
C423 C422 1.489 . S
C423 C424 1.383 . S
C423 C428 1.382 . S
C424 H401 0.950 . S
C424 C423 1.383 . S
C424 C425 1.395 . S
C425 H402 0.950 . S
C425 C424 1.395 . S
C425 C426 1.288 . S
C426 C425 1.288 . S
C426 C427 1.392 . S
C427 H403 0.951 . S
C427 C426 1.392 . S
C427 C428 1.392 . S
C428 H404 0.949 . S
C428 C423 1.382 . S
C428 C427 1.392 . S
C429 C430 1.376 . S
C429 C434 1.386 . S
C429 C435 1.483 . S
C430 H405 0.949 . S
C430 C429 1.376 . S
C430 C431 1.397 . S
C431 H406 0.950 . S
C431 C430 1.397 . S
C431 C432 1.391 . S
C432 C431 1.391 . S
C432 C433 1.405 . S
C433 H407 0.950 . S
C433 C432 1.405 . S
C433 C434 1.367 . S
C434 H408 0.950 . S
C434 C429 1.386 . S
C434 C433 1.367 . S
C435 C429 1.483 . S
C435 C436 1.382 . S
C435 C437 1.403 . S
C436 H409 0.950 . S
C436 C422 1.411 . S
C436 C435 1.382 . S
C437 C421 1.411 . S
C437 C435 1.403 . S
C437 C438 1.489 . S
C438 C437 1.489 . S
C438 C439 1.383 . S
C438 C443 1.382 . S
C439 H410 0.950 . S
C439 C438 1.383 . S
C439 C440 1.395 . S
C440 H411 0.950 . S
C440 C439 1.395 . S
C440 C441 1.288 . S
C441 C440 1.288 . S
C441 C442 1.392 . S
C442 H412 0.951 . S
C442 C441 1.392 . S
C442 C443 1.392 . S
C443 H413 0.949 . S
C443 C438 1.382 . S
C443 C442 1.392 . S
H444 C463 0.949 . S
H445 C464 0.950 . S
H446 C466 0.950 . S
H447 C467 0.950 . S
H448 C469 0.950 . S
H449 C472 0.950 . S
H450 C473 0.950 . S
H451 C475 0.951 . S
H452 C476 0.949 . S
H453 C478 0.949 . S
H454 C479 0.950 . S
H455 C481 0.950 . S
H456 C482 0.950 . S
H457 C484 0.950 . S
H458 C487 0.950 . S
H459 C488 0.950 . S
H460 C490 0.951 . S
H461 C491 0.949 . S
C462 C463 1.376 . S
C462 C467 1.386 . S
C462 C468 1.483 . S
C463 H444 0.949 . S
C463 C462 1.376 . S
C463 C464 1.397 . S
C464 H445 0.950 . S
C464 C463 1.397 . S
C464 C465 1.391 . S
C465 C464 1.391 . S
C465 C466 1.405 . S
C466 H446 0.950 . S
C466 C465 1.405 . S
C466 C467 1.367 . S
C467 H447 0.950 . S
C467 C462 1.386 . S
C467 C466 1.367 . S
C468 C462 1.483 . S
C468 C469 1.382 . S
C468 C470 1.403 . S
C469 H448 0.950 . S
C469 C468 1.382 . S
C469 C485 1.411 . S
C470 C468 1.403 . S
C470 C471 1.489 . S
C470 C484 1.411 . S
C471 C470 1.489 . S
C471 C472 1.383 . S
C471 C476 1.382 . S
C472 H449 0.950 . S
C472 C471 1.383 . S
C472 C473 1.395 . S
C473 H450 0.950 . S
C473 C472 1.395 . S
C473 C474 1.288 . S
C474 C473 1.288 . S
C474 C475 1.392 . S
C475 H451 0.951 . S
C475 C474 1.392 . S
C475 C476 1.392 . S
C476 H452 0.949 . S
C476 C471 1.382 . S
C476 C475 1.392 . S
C477 C478 1.376 . S
C477 C482 1.386 . S
C477 C483 1.483 . S
C478 H453 0.949 . S
C478 C477 1.376 . S
C478 C479 1.397 . S
C479 H454 0.950 . S
C479 C478 1.397 . S
C479 C480 1.391 . S
C480 C479 1.391 . S
C480 C481 1.405 . S
C481 H455 0.950 . S
C481 C480 1.405 . S
C481 C482 1.367 . S
C482 H456 0.950 . S
C482 C477 1.386 . S
C482 C481 1.367 . S
C483 C477 1.483 . S
C483 C484 1.382 . S
C483 C485 1.403 . S
C484 H457 0.950 . S
C484 C470 1.411 . S
C484 C483 1.382 . S
C485 C469 1.411 . S
C485 C483 1.403 . S
C485 C486 1.489 . S
C486 C485 1.489 . S
C486 C487 1.383 . S
C486 C491 1.382 . S
C487 H458 0.950 . S
C487 C486 1.383 . S
C487 C488 1.395 . S
C488 H459 0.950 . S
C488 C487 1.395 . S
C488 C489 1.288 . S
C489 C488 1.288 . S
C489 C490 1.392 . S
C490 H460 0.951 . S
C490 C489 1.392 . S
C490 C491 1.392 . S
C491 H461 0.949 . S
C491 C486 1.382 . S
C491 C490 1.392 . S
H492 C511 0.949 . S
H493 C512 0.950 . S
H494 C514 0.950 . S
H495 C515 0.950 . S
H496 C517 0.950 . S
H497 C520 0.950 . S
H498 C521 0.950 . S
H499 C523 0.951 . S
H500 C524 0.949 . S
H501 C526 0.949 . S
H502 C527 0.950 . S
H503 C529 0.950 . S
H504 C530 0.950 . S
H505 C532 0.950 . S
H506 C535 0.950 . S
H507 C536 0.950 . S
H508 C538 0.951 . S
H509 C539 0.949 . S
C510 C511 1.376 . S
C510 C515 1.386 . S
C510 C516 1.483 . S
C511 H492 0.949 . S
C511 C510 1.376 . S
C511 C512 1.397 . S
C512 H493 0.950 . S
C512 C511 1.397 . S
C512 C513 1.391 . S
C513 C512 1.391 . S
C513 C514 1.405 . S
C514 H494 0.950 . S
C514 C513 1.405 . S
C514 C515 1.367 . S
C515 H495 0.950 . S
C515 C510 1.386 . S
C515 C514 1.367 . S
C516 C510 1.483 . S
C516 C517 1.382 . S
C516 C518 1.403 . S
C517 H496 0.950 . S
C517 C516 1.382 . S
C517 C533 1.411 . S
C518 C516 1.403 . S
C518 C519 1.489 . S
C518 C532 1.411 . S
C519 C518 1.489 . S
C519 C520 1.383 . S
C519 C524 1.382 . S
C520 H497 0.950 . S
C520 C519 1.383 . S
C520 C521 1.395 . S
C521 H498 0.950 . S
C521 C520 1.395 . S
C521 C522 1.288 . S
C522 C521 1.288 . S
C522 C523 1.392 . S
C523 H499 0.951 . S
C523 C522 1.392 . S
C523 C524 1.392 . S
C524 H500 0.949 . S
C524 C519 1.382 . S
C524 C523 1.392 . S
C525 C526 1.376 . S
C525 C530 1.386 . S
C525 C531 1.483 . S
C526 H501 0.949 . S
C526 C525 1.376 . S
C526 C527 1.397 . S
C527 H502 0.950 . S
C527 C526 1.397 . S
C527 C528 1.391 . S
C528 C527 1.391 . S
C528 C529 1.405 . S
C529 H503 0.950 . S
C529 C528 1.405 . S
C529 C530 1.367 . S
C530 H504 0.950 . S
C530 C525 1.386 . S
C530 C529 1.367 . S
C531 C525 1.483 . S
C531 C532 1.382 . S
C531 C533 1.403 . S
C532 H505 0.950 . S
C532 C518 1.411 . S
C532 C531 1.382 . S
C533 C517 1.411 . S
C533 C531 1.403 . S
C533 C534 1.489 . S
C534 C533 1.489 . S
C534 C535 1.383 . S
C534 C539 1.382 . S
C535 H506 0.950 . S
C535 C534 1.383 . S
C535 C536 1.395 . S
C536 H507 0.950 . S
C536 C535 1.395 . S
C536 C537 1.288 . S
C537 C536 1.288 . S
C537 C538 1.392 . S
C538 H508 0.951 . S
C538 C537 1.392 . S
C538 C539 1.392 . S
C539 H509 0.949 . S
C539 C534 1.382 . S
C539 C538 1.392 . S
H540 C559 0.949 . S
H541 C560 0.950 . S
H542 C562 0.950 . S
H543 C563 0.950 . S
H544 C565 0.950 . S
H545 C568 0.950 . S
H546 C569 0.950 . S
H547 C571 0.951 . S
H548 C572 0.949 . S
H549 C574 0.949 . S
H550 C575 0.950 . S
H551 C577 0.950 . S
H552 C578 0.950 . S
H553 C580 0.950 . S
H554 C583 0.950 . S
H555 C584 0.950 . S
H556 C586 0.951 . S
H557 C587 0.949 . S
C558 C559 1.376 . S
C558 C563 1.386 . S
C558 C564 1.483 . S
C559 H540 0.949 . S
C559 C558 1.376 . S
C559 C560 1.397 . S
C560 H541 0.950 . S
C560 C559 1.397 . S
C560 C561 1.391 . S
C561 C560 1.391 . S
C561 C562 1.405 . S
C562 H542 0.950 . S
C562 C561 1.405 . S
C562 C563 1.367 . S
C563 H543 0.950 . S
C563 C558 1.386 . S
C563 C562 1.367 . S
C564 C558 1.483 . S
C564 C565 1.382 . S
C564 C566 1.403 . S
C565 H544 0.950 . S
C565 C564 1.382 . S
C565 C581 1.411 . S
C566 C564 1.403 . S
C566 C567 1.489 . S
C566 C580 1.411 . S
C567 C566 1.489 . S
C567 C568 1.383 . S
C567 C572 1.382 . S
C568 H545 0.950 . S
C568 C567 1.383 . S
C568 C569 1.395 . S
C569 H546 0.950 . S
C569 C568 1.395 . S
C569 C570 1.288 . S
C570 C569 1.288 . S
C570 C571 1.392 . S
C571 H547 0.951 . S
C571 C570 1.392 . S
C571 C572 1.392 . S
C572 H548 0.949 . S
C572 C567 1.382 . S
C572 C571 1.392 . S
C573 C574 1.376 . S
C573 C578 1.386 . S
C573 C579 1.483 . S
C574 H549 0.949 . S
C574 C573 1.376 . S
C574 C575 1.397 . S
C575 H550 0.950 . S
C575 C574 1.397 . S
C575 C576 1.391 . S
C576 C575 1.391 . S
C576 C577 1.405 . S
C577 H551 0.950 . S
C577 C576 1.405 . S
C577 C578 1.367 . S
C578 H552 0.950 . S
C578 C573 1.386 . S
C578 C577 1.367 . S
C579 C573 1.483 . S
C579 C580 1.382 . S
C579 C581 1.403 . S
C580 H553 0.950 . S
C580 C566 1.411 . S
C580 C579 1.382 . S
C581 C565 1.411 . S
C581 C579 1.403 . S
C581 C582 1.489 . S
C582 C581 1.489 . S
C582 C583 1.383 . S
C582 C587 1.382 . S
C583 H554 0.950 . S
C583 C582 1.383 . S
C583 C584 1.395 . S
C584 H555 0.950 . S
C584 C583 1.395 . S
C584 C585 1.288 . S
C585 C584 1.288 . S
C585 C586 1.392 . S
C586 H556 0.951 . S
C586 C585 1.392 . S
C586 C587 1.392 . S
C587 H557 0.949 . S
C587 C582 1.382 . S
C587 C586 1.392 . S
H588 C607 0.949 . S
H589 C608 0.950 . S
H590 C610 0.950 . S
H591 C611 0.950 . S
H592 C613 0.950 . S
H593 C616 0.950 . S
H594 C617 0.950 . S
H595 C619 0.951 . S
H596 C620 0.949 . S
H597 C622 0.949 . S
H598 C623 0.950 . S
H599 C625 0.950 . S
H600 C626 0.950 . S
H601 C628 0.950 . S
H602 C631 0.950 . S
H603 C632 0.950 . S
H604 C634 0.951 . S
H605 C635 0.949 . S
C606 C607 1.376 . S
C606 C611 1.386 . S
C606 C612 1.483 . S
C607 H588 0.949 . S
C607 C606 1.376 . S
C607 C608 1.397 . S
C608 H589 0.950 . S
C608 C607 1.397 . S
C608 C609 1.391 . S
C609 C608 1.391 . S
C609 C610 1.405 . S
C610 H590 0.950 . S
C610 C609 1.405 . S
C610 C611 1.367 . S
C611 H591 0.950 . S
C611 C606 1.386 . S
C611 C610 1.367 . S
C612 C606 1.483 . S
C612 C613 1.382 . S
C612 C614 1.403 . S
C613 H592 0.950 . S
C613 C612 1.382 . S
C613 C629 1.411 . S
C614 C612 1.403 . S
C614 C615 1.489 . S
C614 C628 1.411 . S
C615 C614 1.489 . S
C615 C616 1.383 . S
C615 C620 1.382 . S
C616 H593 0.950 . S
C616 C615 1.383 . S
C616 C617 1.395 . S
C617 H594 0.950 . S
C617 C616 1.395 . S
C617 C618 1.288 . S
C618 C617 1.288 . S
C618 C619 1.392 . S
C619 H595 0.951 . S
C619 C618 1.392 . S
C619 C620 1.392 . S
C620 H596 0.949 . S
C620 C615 1.382 . S
C620 C619 1.392 . S
C621 C622 1.376 . S
C621 C626 1.386 . S
C621 C627 1.483 . S
C622 H597 0.949 . S
C622 C621 1.376 . S
C622 C623 1.397 . S
C623 H598 0.950 . S
C623 C622 1.397 . S
C623 C624 1.391 . S
C624 C623 1.391 . S
C624 C625 1.405 . S
C625 H599 0.950 . S
C625 C624 1.405 . S
C625 C626 1.367 . S
C626 H600 0.950 . S
C626 C621 1.386 . S
C626 C625 1.367 . S
C627 C621 1.483 . S
C627 C628 1.382 . S
C627 C629 1.403 . S
C628 H601 0.950 . S
C628 C614 1.411 . S
C628 C627 1.382 . S
C629 C613 1.411 . S
C629 C627 1.403 . S
C629 C630 1.489 . S
C630 C629 1.489 . S
C630 C631 1.383 . S
C630 C635 1.382 . S
C631 H602 0.950 . S
C631 C630 1.383 . S
C631 C632 1.395 . S
C632 H603 0.950 . S
C632 C631 1.395 . S
C632 C633 1.288 . S
C633 C632 1.288 . S
C633 C634 1.392 . S
C634 H604 0.951 . S
C634 C633 1.392 . S
C634 C635 1.392 . S
C635 H605 0.949 . S
C635 C630 1.382 . S
C635 C634 1.392 . S
H636 C655 0.949 . S
H637 C656 0.950 . S
H638 C658 0.950 . S
H639 C659 0.950 . S
H640 C661 0.950 . S
H641 C664 0.950 . S
H642 C665 0.950 . S
H643 C667 0.951 . S
H644 C668 0.949 . S
H645 C670 0.949 . S
H646 C671 0.950 . S
H647 C673 0.950 . S
H648 C674 0.950 . S
H649 C676 0.950 . S
H650 C679 0.950 . S
H651 C680 0.950 . S
H652 C682 0.951 . S
H653 C683 0.949 . S
C654 C655 1.376 . S
C654 C659 1.386 . S
C654 C660 1.483 . S
C655 H636 0.949 . S
C655 C654 1.376 . S
C655 C656 1.397 . S
C656 H637 0.950 . S
C656 C655 1.397 . S
C656 C657 1.391 . S
C657 C656 1.391 . S
C657 C658 1.405 . S
C658 H638 0.950 . S
C658 C657 1.405 . S
C658 C659 1.367 . S
C659 H639 0.950 . S
C659 C654 1.386 . S
C659 C658 1.367 . S
C660 C654 1.483 . S
C660 C661 1.382 . S
C660 C662 1.403 . S
C661 H640 0.950 . S
C661 C660 1.382 . S
C661 C677 1.411 . S
C662 C660 1.403 . S
C662 C663 1.489 . S
C662 C676 1.411 . S
C663 C662 1.489 . S
C663 C664 1.383 . S
C663 C668 1.382 . S
C664 H641 0.950 . S
C664 C663 1.383 . S
C664 C665 1.395 . S
C665 H642 0.950 . S
C665 C664 1.395 . S
C665 C666 1.288 . S
C666 C665 1.288 . S
C666 C667 1.392 . S
C667 H643 0.951 . S
C667 C666 1.392 . S
C667 C668 1.392 . S
C668 H644 0.949 . S
C668 C663 1.382 . S
C668 C667 1.392 . S
C669 C670 1.376 . S
C669 C674 1.386 . S
C669 C675 1.483 . S
C670 H645 0.949 . S
C670 C669 1.376 . S
C670 C671 1.397 . S
C671 H646 0.950 . S
C671 C670 1.397 . S
C671 C672 1.391 . S
C672 C671 1.391 . S
C672 C673 1.405 . S
C673 H647 0.950 . S
C673 C672 1.405 . S
C673 C674 1.367 . S
C674 H648 0.950 . S
C674 C669 1.386 . S
C674 C673 1.367 . S
C675 C669 1.483 . S
C675 C676 1.382 . S
C675 C677 1.403 . S
C676 H649 0.950 . S
C676 C662 1.411 . S
C676 C675 1.382 . S
C677 C661 1.411 . S
C677 C675 1.403 . S
C677 C678 1.489 . S
C678 C677 1.489 . S
C678 C679 1.383 . S
C678 C683 1.382 . S
C679 H650 0.950 . S
C679 C678 1.383 . S
C679 C680 1.395 . S
C680 H651 0.950 . S
C680 C679 1.395 . S
C680 C681 1.288 . S
C681 C680 1.288 . S
C681 C682 1.392 . S
C682 H652 0.951 . S
C682 C681 1.392 . S
C682 C683 1.392 . S
C683 H653 0.949 . S
C683 C678 1.382 . S
C683 C682 1.392 . S
H684 C703 0.949 . S
H685 C704 0.950 . S
H686 C706 0.950 . S
H687 C707 0.950 . S
H688 C709 0.950 . S
H689 C712 0.950 . S
H690 C713 0.950 . S
H691 C715 0.951 . S
H692 C716 0.949 . S
H693 C718 0.949 . S
H694 C719 0.950 . S
H695 C721 0.950 . S
H696 C722 0.950 . S
H697 C724 0.950 . S
H698 C727 0.950 . S
H699 C728 0.950 . S
H700 C730 0.951 . S
H701 C731 0.949 . S
C702 C703 1.376 . S
C702 C707 1.386 1_655 S
C702 C708 1.483 . S
C703 H684 0.949 . S
C703 C702 1.376 . S
C703 C704 1.397 . S
C704 H685 0.950 . S
C704 C703 1.397 . S
C704 C705 1.391 . S
C705 C704 1.391 . S
C705 C706 1.405 1_655 S
C706 H686 0.950 . S
C706 C705 1.405 1_455 S
C706 C707 1.367 . S
C707 H687 0.950 . S
C707 C702 1.386 1_455 S
C707 C706 1.367 . S
C708 C702 1.483 . S
C708 C709 1.382 . S
C708 C710 1.403 1_655 S
C709 H688 0.950 . S
C709 C708 1.382 . S
C709 C725 1.411 . S
C710 C708 1.403 1_455 S
C710 C711 1.489 . S
C710 C724 1.411 . S
C711 C710 1.489 . S
C711 C712 1.383 1_455 S
C711 C716 1.382 . S
C712 H689 0.950 . S
C712 C711 1.383 1_655 S
C712 C713 1.395 . S
C713 H690 0.950 . S
C713 C712 1.395 . S
C713 C714 1.288 1_655 S
C714 C713 1.288 1_455 S
C714 C715 1.392 . S
C715 H691 0.951 . S
C715 C714 1.392 . S
C715 C716 1.392 . S
C716 H692 0.949 . S
C716 C711 1.382 . S
C716 C715 1.392 . S
C717 C718 1.376 . S
C717 C722 1.386 1_455 S
C717 C723 1.483 . S
C718 H693 0.949 . S
C718 C717 1.376 . S
C718 C719 1.397 . S
C719 H694 0.950 . S
C719 C718 1.397 . S
C719 C720 1.391 . S
C720 C719 1.391 . S
C720 C721 1.405 1_455 S
C721 H695 0.950 . S
C721 C720 1.405 1_655 S
C721 C722 1.367 . S
C722 H696 0.950 . S
C722 C717 1.386 1_655 S
C722 C721 1.367 . S
C723 C717 1.483 . S
C723 C724 1.382 . S
C723 C725 1.403 1_455 S
C724 H697 0.950 . S
C724 C710 1.411 . S
C724 C723 1.382 . S
C725 C709 1.411 . S
C725 C723 1.403 1_655 S
C725 C726 1.489 . S
C726 C725 1.489 . S
C726 C727 1.383 1_655 S
C726 C731 1.382 . S
C727 H698 0.950 . S
C727 C726 1.383 1_455 S
C727 C728 1.395 . S
C728 H699 0.950 . S
C728 C727 1.395 . S
C728 C729 1.288 1_455 S
C729 C728 1.288 1_655 S
C729 C730 1.392 . S
C730 H700 0.951 . S
C730 C729 1.392 . S
C730 C731 1.392 . S
C731 H701 0.949 . S
C731 C726 1.382 . S
C731 C730 1.392 . S
H732 C751 0.949 . S
H733 C752 0.950 . S
H734 C754 0.950 . S
H735 C755 0.950 . S
H736 C757 0.950 . S
H737 C760 0.950 . S
H738 C761 0.950 . S
H739 C763 0.951 . S
H740 C764 0.949 . S
H741 C766 0.949 . S
H742 C767 0.950 . S
H743 C769 0.950 . S
H744 C770 0.950 . S
H745 C772 0.950 . S
H746 C775 0.950 . S
H747 C776 0.950 . S
H748 C778 0.951 . S
H749 C779 0.949 . S
C750 C751 1.376 . S
C750 C755 1.386 . S
C750 C756 1.483 . S
C751 H732 0.949 . S
C751 C750 1.376 . S
C751 C752 1.397 . S
C752 H733 0.950 . S
C752 C751 1.397 . S
C752 C753 1.391 . S
C753 C752 1.391 . S
C753 C754 1.405 . S
C754 H734 0.950 . S
C754 C753 1.405 . S
C754 C755 1.367 . S
C755 H735 0.950 . S
C755 C750 1.386 . S
C755 C754 1.367 . S
C756 C750 1.483 . S
C756 C757 1.382 . S
C756 C758 1.403 . S
C757 H736 0.950 . S
C757 C756 1.382 . S
C757 C773 1.411 . S
C758 C756 1.403 . S
C758 C759 1.489 . S
C758 C772 1.411 . S
C759 C758 1.489 . S
C759 C760 1.383 . S
C759 C764 1.382 . S
C760 H737 0.950 . S
C760 C759 1.383 . S
C760 C761 1.395 . S
C761 H738 0.950 . S
C761 C760 1.395 . S
C761 C762 1.288 . S
C762 C761 1.288 . S
C762 C763 1.392 . S
C763 H739 0.951 . S
C763 C762 1.392 . S
C763 C764 1.392 . S
C764 H740 0.949 . S
C764 C759 1.382 . S
C764 C763 1.392 . S
C765 C766 1.376 . S
C765 C770 1.386 . S
C765 C771 1.483 . S
C766 H741 0.949 . S
C766 C765 1.376 . S
C766 C767 1.397 . S
C767 H742 0.950 . S
C767 C766 1.397 . S
C767 C768 1.391 . S
C768 C767 1.391 . S
C768 C769 1.405 . S
C769 H743 0.950 . S
C769 C768 1.405 . S
C769 C770 1.367 . S
C770 H744 0.950 . S
C770 C765 1.386 . S
C770 C769 1.367 . S
C771 C765 1.483 . S
C771 C772 1.382 . S
C771 C773 1.403 . S
C772 H745 0.950 . S
C772 C758 1.411 . S
C772 C771 1.382 . S
C773 C757 1.411 . S
C773 C771 1.403 . S
C773 C774 1.489 . S
C774 C773 1.489 . S
C774 C775 1.383 . S
C774 C779 1.382 . S
C775 H746 0.950 . S
C775 C774 1.383 . S
C775 C776 1.395 . S
C776 H747 0.950 . S
C776 C775 1.395 . S
C776 C777 1.288 . S
C777 C776 1.288 . S
C777 C778 1.392 . S
C778 H748 0.951 . S
C778 C777 1.392 . S
C778 C779 1.392 . S
C779 H749 0.949 . S
C779 C774 1.382 . S
C779 C778 1.392 . S
H780 C799 0.949 . S
H781 C800 0.950 . S
H782 C802 0.950 . S
H783 C803 0.950 . S
H784 C805 0.950 . S
H785 C808 0.950 . S
H786 C809 0.950 . S
H787 C811 0.951 . S
H788 C812 0.949 . S
H789 C814 0.949 . S
H790 C815 0.950 . S
H791 C817 0.950 . S
H792 C818 0.950 . S
H793 C820 0.950 . S
H794 C823 0.950 . S
H795 C824 0.950 . S
H796 C826 0.951 . S
H797 C827 0.949 . S
C798 C799 1.376 . S
C798 C803 1.386 1_545 S
C798 C804 1.483 . S
C799 H780 0.949 . S
C799 C798 1.376 . S
C799 C800 1.397 . S
C800 H781 0.950 . S
C800 C799 1.397 . S
C800 C801 1.391 . S
C801 C800 1.391 . S
C801 C802 1.405 1_545 S
C802 H782 0.950 . S
C802 C801 1.405 1_565 S
C802 C803 1.367 . S
C803 H783 0.950 . S
C803 C798 1.386 1_565 S
C803 C802 1.367 . S
C804 C798 1.483 . S
C804 C805 1.382 . S
C804 C806 1.403 1_545 S
C805 H784 0.950 . S
C805 C804 1.382 . S
C805 C821 1.411 . S
C806 C804 1.403 1_565 S
C806 C807 1.489 . S
C806 C820 1.411 . S
C807 C806 1.489 . S
C807 C808 1.383 1_565 S
C807 C812 1.382 . S
C808 H785 0.950 . S
C808 C807 1.383 1_545 S
C808 C809 1.395 . S
C809 H786 0.950 . S
C809 C808 1.395 . S
C809 C810 1.288 1_545 S
C810 C809 1.288 1_565 S
C810 C811 1.392 . S
C811 H787 0.951 . S
C811 C810 1.392 . S
C811 C812 1.392 . S
C812 H788 0.949 . S
C812 C807 1.382 . S
C812 C811 1.392 . S
C813 C814 1.376 . S
C813 C818 1.386 1_565 S
C813 C819 1.483 . S
C814 H789 0.949 . S
C814 C813 1.376 . S
C814 C815 1.397 . S
C815 H790 0.950 . S
C815 C814 1.397 . S
C815 C816 1.391 . S
C816 C815 1.391 . S
C816 C817 1.405 1_565 S
C817 H791 0.950 . S
C817 C816 1.405 1_545 S
C817 C818 1.367 . S
C818 H792 0.950 . S
C818 C813 1.386 1_545 S
C818 C817 1.367 . S
C819 C813 1.483 . S
C819 C820 1.382 . S
C819 C821 1.403 1_565 S
C820 H793 0.950 . S
C820 C806 1.411 . S
C820 C819 1.382 . S
C821 C805 1.411 . S
C821 C819 1.403 1_545 S
C821 C822 1.489 . S
C822 C821 1.489 . S
C822 C823 1.383 1_545 S
C822 C827 1.382 . S
C823 H794 0.950 . S
C823 C822 1.383 1_565 S
C823 C824 1.395 . S
C824 H795 0.950 . S
C824 C823 1.395 . S
C824 C825 1.288 1_565 S
C825 C824 1.288 1_545 S
C825 C826 1.392 . S
C826 H796 0.951 . S
C826 C825 1.392 . S
C826 C827 1.392 . S
C827 H797 0.949 . S
C827 C822 1.382 . S
C827 C826 1.392 . S
H828 C847 0.949 . S
H829 C848 0.950 . S
H830 C850 0.950 . S
H831 C851 0.950 . S
H832 C853 0.950 . S
H833 C856 0.950 . S
H834 C857 0.950 . S
H835 C859 0.951 . S
H836 C860 0.949 . S
H837 C862 0.949 . S
H838 C863 0.950 . S
H839 C865 0.950 . S
H840 C866 0.950 . S
H841 C868 0.950 . S
H842 C871 0.950 . S
H843 C872 0.950 . S
H844 C874 0.951 . S
H845 C875 0.949 . S
C846 C847 1.376 . S
C846 C851 1.386 1_545 S
C846 C852 1.506 . S
C847 H828 0.949 . S
C847 C846 1.376 . S
C847 C848 1.397 . S
C848 H829 0.950 . S
C848 C847 1.397 . S
C848 C849 1.391 1_545 S
C849 C848 1.391 1_565 S
C849 C850 1.405 . S
C850 H830 0.950 . S
C850 C849 1.405 . S
C850 C851 1.367 . S
C851 H831 0.950 . S
C851 C846 1.386 1_565 S
C851 C850 1.367 . S
C852 C846 1.506 . S
C852 C853 1.360 . S
C852 C854 1.400 1_545 S
C853 H832 0.950 . S
C853 C852 1.360 . S
C853 C869 1.446 . S
C854 C852 1.400 1_565 S
C854 C855 1.485 . S
C854 C868 1.437 . S
C855 C854 1.485 . S
C855 C856 1.342 1_565 S
C855 C860 1.404 . S
C856 H833 0.950 . S
C856 C855 1.342 1_545 S
C856 C857 1.395 . S
C857 H834 0.950 . S
C857 C856 1.395 . S
C857 C858 1.288 . S
C858 C857 1.288 . S
C858 C859 1.392 1_545 S
C859 H835 0.951 . S
C859 C858 1.392 1_565 S
C859 C860 1.392 . S
C860 H836 0.949 . S
C860 C855 1.404 . S
C860 C859 1.392 . S
C861 C862 1.376 1_545 S
C861 C866 1.386 . S
C861 C867 1.498 1_545 S
C862 H837 0.949 . S
C862 C861 1.376 1_565 S
C862 C863 1.397 . S
C863 H838 0.950 . S
C863 C862 1.397 . S
C863 C864 1.391 1_565 S
C864 C863 1.391 1_545 S
C864 C865 1.405 . S
C865 H839 0.950 . S
C865 C864 1.405 . S
C865 C866 1.367 . S
C866 H840 0.950 . S
C866 C861 1.386 . S
C866 C865 1.367 . S
C867 C861 1.498 1_565 S
C867 C868 1.366 . S
C867 C869 1.400 1_565 S
C868 H841 0.950 . S
C868 C854 1.437 . S
C868 C867 1.366 . S
C869 C853 1.446 . S
C869 C867 1.400 1_545 S
C869 C870 1.485 . S
C870 C869 1.485 . S
C870 C871 1.325 1_545 S
C870 C875 1.414 . S
C871 H842 0.950 . S
C871 C870 1.325 1_565 S
C871 C872 1.395 . S
C872 H843 0.950 . S
C872 C871 1.395 . S
C872 C873 1.324 . S
C873 C872 1.324 . S
C873 C874 1.322 1_565 S
C874 H844 0.951 . S
C874 C873 1.322 1_545 S
C874 C875 1.392 . S
C875 H845 0.949 . S
C875 C870 1.414 . S
C875 C874 1.392 . S
H876 C895 0.949 . S
H877 C896 0.950 . S
H878 C898 0.950 . S
H879 C899 0.950 . S
H880 C901 0.950 . S
H881 C904 0.950 . S
H882 C905 0.950 . S
H883 C907 0.951 . S
H884 C908 0.949 . S
H885 C910 0.949 . S
H886 C911 0.950 . S
H887 C913 0.950 . S
H888 C914 0.950 . S
H889 C916 0.950 . S
H890 C919 0.950 . S
H891 C920 0.950 . S
H892 C922 0.951 . S
H893 C923 0.949 . S
C894 C895 1.376 . S
C894 C899 1.386 1_455 S
C894 C900 1.483 . S
C895 H876 0.949 . S
C895 C894 1.376 . S
C895 C896 1.397 . S
C896 H877 0.950 . S
C896 C895 1.397 . S
C896 C897 1.391 . S
C897 C896 1.391 . S
C897 C898 1.405 1_455 S
C898 H878 0.950 . S
C898 C897 1.405 1_655 S
C898 C899 1.367 . S
C899 H879 0.950 . S
C899 C894 1.386 1_655 S
C899 C898 1.367 . S
C900 C894 1.483 . S
C900 C901 1.382 . S
C900 C902 1.403 1_455 S
C901 H880 0.950 . S
C901 C900 1.382 . S
C901 C917 1.411 . S
C902 C900 1.403 1_655 S
C902 C903 1.489 . S
C902 C916 1.411 . S
C903 C902 1.489 . S
C903 C904 1.383 1_655 S
C903 C908 1.382 . S
C904 H881 0.950 . S
C904 C903 1.383 1_455 S
C904 C905 1.395 . S
C905 H882 0.950 . S
C905 C904 1.395 . S
C905 C906 1.288 1_455 S
C906 C905 1.288 1_655 S
C906 C907 1.392 . S
C907 H883 0.951 . S
C907 C906 1.392 . S
C907 C908 1.392 . S
C908 H884 0.949 . S
C908 C903 1.382 . S
C908 C907 1.392 . S
C909 C910 1.376 . S
C909 C914 1.386 1_655 S
C909 C915 1.483 . S
C910 H885 0.949 . S
C910 C909 1.376 . S
C910 C911 1.397 . S
C911 H886 0.950 . S
C911 C910 1.397 . S
C911 C912 1.391 . S
C912 C911 1.391 . S
C912 C913 1.405 1_655 S
C913 H887 0.950 . S
C913 C912 1.405 1_455 S
C913 C914 1.367 . S
C914 H888 0.950 . S
C914 C909 1.386 1_455 S
C914 C913 1.367 . S
C915 C909 1.483 . S
C915 C916 1.382 . S
C915 C917 1.403 1_655 S
C916 H889 0.950 . S
C916 C902 1.411 . S
C916 C915 1.382 . S
C917 C901 1.411 . S
C917 C915 1.403 1_455 S
C917 C918 1.489 . S
C918 C917 1.489 . S
C918 C919 1.383 1_455 S
C918 C923 1.382 . S
C919 H890 0.950 . S
C919 C918 1.383 1_655 S
C919 C920 1.395 . S
C920 H891 0.950 . S
C920 C919 1.395 . S
C920 C921 1.288 1_655 S
C921 C920 1.288 1_455 S
C921 C922 1.392 . S
C922 H892 0.951 . S
C922 C921 1.392 . S
C922 C923 1.392 . S
C923 H893 0.949 . S
C923 C918 1.382 . S
C923 C922 1.392 . S
H924 C943 0.949 . S
H925 C944 0.950 . S
H926 C946 0.950 . S
H927 C947 0.950 . S
H928 C949 0.950 . S
H929 C952 0.950 . S
H930 C953 0.950 . S
H931 C955 0.951 . S
H932 C956 0.949 . S
H933 C958 0.949 . S
H934 C959 0.950 . S
H935 C961 0.950 . S
H936 C962 0.950 . S
H937 C964 0.950 . S
H938 C967 0.950 . S
H939 C968 0.950 . S
H940 C970 0.951 . S
H941 C971 0.949 . S
C942 C943 1.376 . S
C942 C947 1.386 . S
C942 C948 1.483 . S
C943 H924 0.949 . S
C943 C942 1.376 . S
C943 C944 1.397 . S
C944 H925 0.950 . S
C944 C943 1.397 . S
C944 C945 1.391 . S
C945 C944 1.391 . S
C945 C946 1.405 . S
C946 H926 0.950 . S
C946 C945 1.405 . S
C946 C947 1.367 . S
C947 H927 0.950 . S
C947 C942 1.386 . S
C947 C946 1.367 . S
C948 C942 1.483 . S
C948 C949 1.382 . S
C948 C950 1.403 . S
C949 H928 0.950 . S
C949 C948 1.382 . S
C949 C965 1.411 . S
C950 C948 1.403 . S
C950 C951 1.489 . S
C950 C964 1.411 . S
C951 C950 1.489 . S
C951 C952 1.383 . S
C951 C956 1.382 . S
C952 H929 0.950 . S
C952 C951 1.383 . S
C952 C953 1.395 . S
C953 H930 0.950 . S
C953 C952 1.395 . S
C953 C954 1.288 . S
C954 C953 1.288 . S
C954 C955 1.392 . S
C955 H931 0.951 . S
C955 C954 1.392 . S
C955 C956 1.392 . S
C956 H932 0.949 . S
C956 C951 1.382 . S
C956 C955 1.392 . S
C957 C958 1.376 . S
C957 C962 1.386 . S
C957 C963 1.483 . S
C958 H933 0.949 . S
C958 C957 1.376 . S
C958 C959 1.397 . S
C959 H934 0.950 . S
C959 C958 1.397 . S
C959 C960 1.391 . S
C960 C959 1.391 . S
C960 C961 1.405 . S
C961 H935 0.950 . S
C961 C960 1.405 . S
C961 C962 1.367 . S
C962 H936 0.950 . S
C962 C957 1.386 . S
C962 C961 1.367 . S
C963 C957 1.483 . S
C963 C964 1.382 . S
C963 C965 1.403 . S
C964 H937 0.950 . S
C964 C950 1.411 . S
C964 C963 1.382 . S
C965 C949 1.411 . S
C965 C963 1.403 . S
C965 C966 1.489 . S
C966 C965 1.489 . S
C966 C967 1.383 . S
C966 C971 1.382 . S
C967 H938 0.950 . S
C967 C966 1.383 . S
C967 C968 1.395 . S
C968 H939 0.950 . S
C968 C967 1.395 . S
C968 C969 1.288 . S
C969 C968 1.288 . S
C969 C970 1.392 . S
C970 H940 0.951 . S
C970 C969 1.392 . S
C970 C971 1.392 . S
C971 H941 0.949 . S
C971 C966 1.382 . S
C971 C970 1.392 . S
H972 C991 0.949 . S
H973 C992 0.950 . S
H974 C994 0.950 . S
H975 C995 0.950 . S
H976 C997 0.950 . S
H977 C1000 0.950 . S
H978 C1001 0.950 . S
H979 C1003 0.951 . S
H980 C1004 0.949 . S
H981 C1006 0.949 . S
H982 C1007 0.950 . S
H983 C1009 0.950 . S
H984 C1010 0.950 . S
H985 C1012 0.950 . S
H986 C1015 0.950 . S
H987 C1016 0.950 . S
H988 C1018 0.951 . S
H989 C1019 0.949 . S
C990 C991 1.376 . S
C990 C995 1.386 . S
C990 C996 1.483 . S
C991 H972 0.949 . S
C991 C990 1.376 . S
C991 C992 1.397 . S
C992 H973 0.950 . S
C992 C991 1.397 . S
C992 C993 1.391 . S
C993 C992 1.391 . S
C993 C994 1.405 . S
C994 H974 0.950 . S
C994 C993 1.405 . S
C994 C995 1.367 . S
C995 H975 0.950 . S
C995 C990 1.386 . S
C995 C994 1.367 . S
C996 C990 1.483 . S
C996 C997 1.382 . S
C996 C998 1.403 . S
C997 H976 0.950 . S
C997 C996 1.382 . S
C997 C1013 1.411 . S
C998 C996 1.403 . S
C998 C999 1.489 . S
C998 C1012 1.411 . S
C999 C998 1.489 . S
C999 C1000 1.383 . S
C999 C1004 1.382 . S
C1000 H977 0.950 . S
C1000 C999 1.383 . S
C1000 C1001 1.395 . S
C1001 H978 0.950 . S
C1001 C1000 1.395 . S
C1001 C1002 1.288 . S
C1002 C1001 1.288 . S
C1002 C1003 1.392 . S
C1003 H979 0.951 . S
C1003 C1002 1.392 . S
C1003 C1004 1.392 . S
C1004 H980 0.949 . S
C1004 C999 1.382 . S
C1004 C1003 1.392 . S
C1005 C1006 1.376 . S
C1005 C1010 1.386 . S
C1005 C1011 1.483 . S
C1006 H981 0.949 . S
C1006 C1005 1.376 . S
C1006 C1007 1.397 . S
C1007 H982 0.950 . S
C1007 C1006 1.397 . S
C1007 C1008 1.391 . S
C1008 C1007 1.391 . S
C1008 C1009 1.405 . S
C1009 H983 0.950 . S
C1009 C1008 1.405 . S
C1009 C1010 1.367 . S
C1010 H984 0.950 . S
C1010 C1005 1.386 . S
C1010 C1009 1.367 . S
C1011 C1005 1.483 . S
C1011 C1012 1.382 . S
C1011 C1013 1.403 . S
C1012 H985 0.950 . S
C1012 C998 1.411 . S
C1012 C1011 1.382 . S
C1013 C997 1.411 . S
C1013 C1011 1.403 . S
C1013 C1014 1.489 . S
C1014 C1013 1.489 . S
C1014 C1015 1.383 . S
C1014 C1019 1.382 . S
C1015 H986 0.950 . S
C1015 C1014 1.383 . S
C1015 C1016 1.395 . S
C1016 H987 0.950 . S
C1016 C1015 1.395 . S
C1016 C1017 1.288 . S
C1017 C1016 1.288 . S
C1017 C1018 1.392 . S
C1018 H988 0.951 . S
C1018 C1017 1.392 . S
C1018 C1019 1.392 . S
C1019 H989 0.949 . S
C1019 C1014 1.382 . S
C1019 C1018 1.392 . S
H1020 C1039 0.949 . S
H1021 C1040 0.950 . S
H1022 C1042 0.950 . S
H1023 C1043 0.950 . S
H1024 C1045 0.950 . S
H1025 C1048 0.950 . S
H1026 C1049 0.950 . S
H1027 C1051 0.951 . S
H1028 C1052 0.949 . S
H1029 C1054 0.949 . S
H1030 C1055 0.950 . S
H1031 C1057 0.950 . S
H1032 C1058 0.950 . S
H1033 C1060 0.950 . S
H1034 C1063 0.950 . S
H1035 C1064 0.950 . S
H1036 C1066 0.951 . S
H1037 C1067 0.949 . S
C1038 C1039 1.376 . S
C1038 C1043 1.386 . S
C1038 C1044 1.483 . S
C1039 H1020 0.949 . S
C1039 C1038 1.376 . S
C1039 C1040 1.397 . S
C1040 H1021 0.950 . S
C1040 C1039 1.397 . S
C1040 C1041 1.391 . S
C1041 C1040 1.391 . S
C1041 C1042 1.405 . S
C1042 H1022 0.950 . S
C1042 C1041 1.405 . S
C1042 C1043 1.367 . S
C1043 H1023 0.950 . S
C1043 C1038 1.386 . S
C1043 C1042 1.367 . S
C1044 C1038 1.483 . S
C1044 C1045 1.382 . S
C1044 C1046 1.403 . S
C1045 H1024 0.950 . S
C1045 C1044 1.382 . S
C1045 C1061 1.411 . S
C1046 C1044 1.403 . S
C1046 C1047 1.489 . S
C1046 C1060 1.411 . S
C1047 C1046 1.489 . S
C1047 C1048 1.383 . S
C1047 C1052 1.382 . S
C1048 H1025 0.950 . S
C1048 C1047 1.383 . S
C1048 C1049 1.395 . S
C1049 H1026 0.950 . S
C1049 C1048 1.395 . S
C1049 C1050 1.288 . S
C1050 C1049 1.288 . S
C1050 C1051 1.392 . S
C1051 H1027 0.951 . S
C1051 C1050 1.392 . S
C1051 C1052 1.392 . S
C1052 H1028 0.949 . S
C1052 C1047 1.382 . S
C1052 C1051 1.392 . S
C1053 C1054 1.376 . S
C1053 C1058 1.386 . S
C1053 C1059 1.483 . S
C1054 H1029 0.949 . S
C1054 C1053 1.376 . S
C1054 C1055 1.397 . S
C1055 H1030 0.950 . S
C1055 C1054 1.397 . S
C1055 C1056 1.391 . S
C1056 C1055 1.391 . S
C1056 C1057 1.405 . S
C1057 H1031 0.950 . S
C1057 C1056 1.405 . S
C1057 C1058 1.367 . S
C1058 H1032 0.950 . S
C1058 C1053 1.386 . S
C1058 C1057 1.367 . S
C1059 C1053 1.483 . S
C1059 C1060 1.382 . S
C1059 C1061 1.403 . S
C1060 H1033 0.950 . S
C1060 C1046 1.411 . S
C1060 C1059 1.382 . S
C1061 C1045 1.411 . S
C1061 C1059 1.403 . S
C1061 C1062 1.489 . S
C1062 C1061 1.489 . S
C1062 C1063 1.383 . S
C1062 C1067 1.382 . S
C1063 H1034 0.950 . S
C1063 C1062 1.383 . S
C1063 C1064 1.395 . S
C1064 H1035 0.950 . S
C1064 C1063 1.395 . S
C1064 C1065 1.288 . S
C1065 C1064 1.288 . S
C1065 C1066 1.392 . S
C1066 H1036 0.951 . S
C1066 C1065 1.392 . S
C1066 C1067 1.392 . S
C1067 H1037 0.949 . S
C1067 C1062 1.382 . S
C1067 C1066 1.392 . S
H1068 C1087 0.949 . S
H1069 C1088 0.950 . S
H1070 C1090 0.950 . S
H1071 C1091 0.950 . S
H1072 C1093 0.950 . S
H1073 C1096 0.950 . S
H1074 C1097 0.950 . S
H1075 C1099 0.951 . S
H1076 C1100 0.949 . S
H1077 C1102 0.949 . S
H1078 C1103 0.950 . S
H1079 C1105 0.950 . S
H1080 C1106 0.950 . S
H1081 C1108 0.950 . S
H1082 C1111 0.950 . S
H1083 C1112 0.950 . S
H1084 C1114 0.951 . S
H1085 C1115 0.949 . S
C1086 C1087 1.376 . S
C1086 C1091 1.386 . S
C1086 C1092 1.483 . S
C1087 H1068 0.949 . S
C1087 C1086 1.376 . S
C1087 C1088 1.397 . S
C1088 H1069 0.950 . S
C1088 C1087 1.397 . S
C1088 C1089 1.391 . S
C1089 C1088 1.391 . S
C1089 C1090 1.405 . S
C1090 H1070 0.950 . S
C1090 C1089 1.405 . S
C1090 C1091 1.367 . S
C1091 H1071 0.950 . S
C1091 C1086 1.386 . S
C1091 C1090 1.367 . S
C1092 C1086 1.483 . S
C1092 C1093 1.382 . S
C1092 C1094 1.403 . S
C1093 H1072 0.950 . S
C1093 C1092 1.382 . S
C1093 C1109 1.411 . S
C1094 C1092 1.403 . S
C1094 C1095 1.489 . S
C1094 C1108 1.411 . S
C1095 C1094 1.489 . S
C1095 C1096 1.383 . S
C1095 C1100 1.382 . S
C1096 H1073 0.950 . S
C1096 C1095 1.383 . S
C1096 C1097 1.395 . S
C1097 H1074 0.950 . S
C1097 C1096 1.395 . S
C1097 C1098 1.288 . S
C1098 C1097 1.288 . S
C1098 C1099 1.392 . S
C1099 H1075 0.951 . S
C1099 C1098 1.392 . S
C1099 C1100 1.392 . S
C1100 H1076 0.949 . S
C1100 C1095 1.382 . S
C1100 C1099 1.392 . S
C1101 C1102 1.376 . S
C1101 C1106 1.386 . S
C1101 C1107 1.483 . S
C1102 H1077 0.949 . S
C1102 C1101 1.376 . S
C1102 C1103 1.397 . S
C1103 H1078 0.950 . S
C1103 C1102 1.397 . S
C1103 C1104 1.391 . S
C1104 C1103 1.391 . S
C1104 C1105 1.405 . S
C1105 H1079 0.950 . S
C1105 C1104 1.405 . S
C1105 C1106 1.367 . S
C1106 H1080 0.950 . S
C1106 C1101 1.386 . S
C1106 C1105 1.367 . S
C1107 C1101 1.483 . S
C1107 C1108 1.382 . S
C1107 C1109 1.403 . S
C1108 H1081 0.950 . S
C1108 C1094 1.411 . S
C1108 C1107 1.382 . S
C1109 C1093 1.411 . S
C1109 C1107 1.403 . S
C1109 C1110 1.489 . S
C1110 C1109 1.489 . S
C1110 C1111 1.383 . S
C1110 C1115 1.382 . S
C1111 H1082 0.950 . S
C1111 C1110 1.383 . S
C1111 C1112 1.395 . S
C1112 H1083 0.950 . S
C1112 C1111 1.395 . S
C1112 C1113 1.288 . S
C1113 C1112 1.288 . S
C1113 C1114 1.392 . S
C1114 H1084 0.951 . S
C1114 C1113 1.392 . S
C1114 C1115 1.392 . S
C1115 H1085 0.949 . S
C1115 C1110 1.382 . S
C1115 C1114 1.392 . S
H1116 C1124 0.950 . S
H1117 C1129 0.954 1_455 S
H1118 C1126 0.950 . S
H1119 C1128 0.963 1_455 S
H1120 C1130 0.929 . S
H1121 C1132 0.950 . S
H1122 C1134 0.950 . S
H1123 C1135 0.950 . S
C1124 H1116 0.950 . S
C1124 C1125 1.386 . S
C1124 C1126 1.391 . S
C1125 C1124 1.386 . S
C1125 C1129 1.371 . S
C1126 H1118 0.950 . S
C1126 C1124 1.391 . S
C1126 C1127 1.400 . S
C1127 C1126 1.400 . S
C1127 C1128 1.400 . S
C1127 C1133 1.491 . S
C1128 H1119 0.963 1_655 S
C1128 C1127 1.400 . S
C1128 C1129 1.400 . S
C1129 H1117 0.954 1_655 S
C1129 C1125 1.371 . S
C1129 C1128 1.400 . S
C1130 H1120 0.929 . S
C1130 C1131 1.386 . S
C1130 C1132 1.391 . S
C1131 C1130 1.386 . S
C1131 C1135 1.393 . S
C1132 H1121 0.950 . S
C1132 C1130 1.391 . S
C1132 C1133 1.400 . S
C1133 C1127 1.491 . S
C1133 C1132 1.400 . S
C1133 C1134 1.398 . S
C1134 H1122 0.950 . S
C1134 C1133 1.398 . S
C1134 C1135 1.391 . S
C1135 H1123 0.950 . S
C1135 C1131 1.393 . S
C1135 C1134 1.391 . S
H1136 C1144 0.950 . S
H1137 C1149 0.950 . S
H1138 C1146 0.950 . S
H1139 C1148 0.950 . S
H1140 C1150 0.950 . S
H1141 C1152 0.950 . S
H1142 C1154 0.950 . S
H1143 C1155 0.950 . S
C1144 H1136 0.950 . S
C1144 C1145 1.386 . S
C1144 C1146 1.391 . S
C1145 C1144 1.386 . S
C1145 C1149 1.393 . S
C1146 H1138 0.950 . S
C1146 C1144 1.391 . S
C1146 C1147 1.400 . S
C1147 C1146 1.400 . S
C1147 C1148 1.398 . S
C1147 C1153 1.491 . S
C1148 H1139 0.950 . S
C1148 C1147 1.398 . S
C1148 C1149 1.391 . S
C1149 H1137 0.950 . S
C1149 C1145 1.393 . S
C1149 C1148 1.391 . S
C1150 H1140 0.950 . S
C1150 C1151 1.386 . S
C1150 C1152 1.391 . S
C1151 C1150 1.386 . S
C1151 C1155 1.393 . S
C1152 H1141 0.950 . S
C1152 C1150 1.391 . S
C1152 C1153 1.400 . S
C1153 C1147 1.491 . S
C1153 C1152 1.400 . S
C1153 C1154 1.398 . S
C1154 H1142 0.950 . S
C1154 C1153 1.398 . S
C1154 C1155 1.391 . S
C1155 H1143 0.950 . S
C1155 C1151 1.393 . S
C1155 C1154 1.391 . S
H1156 C1164 0.950 1_565 S
H1157 C1169 0.950 . S
H1158 C1166 0.950 1_565 S
H1159 C1168 0.950 . S
H1160 C1170 0.950 . S
H1161 C1172 0.950 . S
H1162 C1174 0.959 1_565 S
H1163 C1175 0.966 . S
C1164 H1156 0.950 1_545 S
C1164 C1165 1.386 . S
C1164 C1166 1.391 . S
C1165 C1164 1.386 . S
C1165 C1169 1.393 . S
C1166 H1158 0.950 1_545 S
C1166 C1164 1.391 . S
C1166 C1167 1.400 . S
C1167 C1166 1.400 . S
C1167 C1168 1.398 . S
C1167 C1173 1.491 . S
C1168 H1159 0.950 . S
C1168 C1167 1.398 . S
C1168 C1169 1.391 . S
C1169 H1157 0.950 . S
C1169 C1165 1.393 . S
C1169 C1168 1.391 . S
C1170 H1160 0.950 . S
C1170 C1171 1.386 . S
C1170 C1172 1.391 . S
C1171 C1170 1.386 . S
C1171 C1175 1.406 1_545 S
C1172 H1161 0.950 . S
C1172 C1170 1.391 . S
C1172 C1173 1.400 . S
C1173 C1167 1.491 . S
C1173 C1172 1.400 . S
C1173 C1174 1.407 . S
C1174 H1162 0.959 1_545 S
C1174 C1173 1.407 . S
C1174 C1175 1.350 1_545 S
C1175 H1163 0.966 . S
C1175 C1171 1.406 1_565 S
C1175 C1174 1.350 1_565 S
H1176 C1184 0.950 . S
H1177 C1189 0.950 . S
H1178 C1186 0.950 . S
H1179 C1188 0.950 . S
H1180 C1190 0.950 . S
H1181 C1192 0.950 . S
H1182 C1194 0.950 . S
H1183 C1195 0.950 . S
C1184 H1176 0.950 . S
C1184 C1185 1.386 . S
C1184 C1186 1.391 . S
C1185 C1184 1.386 . S
C1185 C1189 1.393 1_565 S
C1186 H1178 0.950 . S
C1186 C1184 1.391 . S
C1186 C1187 1.400 . S
C1187 C1186 1.400 . S
C1187 C1188 1.398 1_565 S
C1187 C1193 1.491 . S
C1188 H1179 0.950 . S
C1188 C1187 1.398 1_545 S
C1188 C1189 1.391 . S
C1189 H1177 0.950 . S
C1189 C1185 1.393 1_545 S
C1189 C1188 1.391 . S
C1190 H1180 0.950 . S
C1190 C1191 1.386 1_545 S
C1190 C1192 1.391 . S
C1191 C1190 1.386 1_565 S
C1191 C1195 1.393 . S
C1192 H1181 0.950 . S
C1192 C1190 1.391 . S
C1192 C1193 1.400 1_545 S
C1193 C1187 1.491 . S
C1193 C1192 1.400 1_565 S
C1193 C1194 1.398 . S
C1194 H1182 0.950 . S
C1194 C1193 1.398 . S
C1194 C1195 1.391 . S
C1195 H1183 0.950 . S
C1195 C1191 1.393 . S
C1195 C1194 1.391 . S
H1196 C1204 0.950 . S
H1197 C1209 0.950 1_655 S
H1198 C1206 0.950 . S
H1199 C1208 0.994 . S
H1200 C1210 0.950 . S
H1201 C1212 0.950 . S
H1202 C1214 0.950 . S
H1203 C1215 0.950 . S
C1204 H1196 0.950 . S
C1204 C1205 1.386 . S
C1204 C1206 1.391 . S
C1205 C1204 1.386 . S
C1205 C1209 1.393 . S
C1206 H1198 0.950 . S
C1206 C1204 1.391 . S
C1206 C1207 1.400 . S
C1207 C1206 1.400 . S
C1207 C1208 1.377 1_455 S
C1207 C1213 1.491 . S
C1208 H1199 0.994 . S
C1208 C1207 1.377 1_655 S
C1208 C1209 1.370 1_655 S
C1209 H1197 0.950 1_455 S
C1209 C1205 1.393 . S
C1209 C1208 1.370 1_455 S
C1210 H1200 0.950 . S
C1210 C1211 1.386 1_655 S
C1210 C1212 1.391 . S
C1211 C1210 1.386 1_455 S
C1211 C1215 1.393 . S
C1212 H1201 0.950 . S
C1212 C1210 1.391 . S
C1212 C1213 1.400 1_655 S
C1213 C1207 1.491 . S
C1213 C1212 1.400 1_455 S
C1213 C1214 1.398 . S
C1214 H1202 0.950 . S
C1214 C1213 1.398 . S
C1214 C1215 1.391 . S
C1215 H1203 0.950 . S
C1215 C1211 1.393 . S
C1215 C1214 1.391 . S
H1216 C1224 0.950 . S
H1217 C1229 0.950 . S
H1218 C1226 0.950 . S
H1219 C1228 0.950 . S
H1220 C1230 0.950 . S
H1221 C1232 0.950 . S
H1222 C1234 0.950 . S
H1223 C1235 0.950 . S
C1224 H1216 0.950 . S
C1224 C1225 1.386 . S
C1224 C1226 1.391 . S
C1225 C1224 1.386 . S
C1225 C1229 1.393 . S
C1226 H1218 0.950 . S
C1226 C1224 1.391 . S
C1226 C1227 1.400 . S
C1227 C1226 1.400 . S
C1227 C1228 1.398 . S
C1227 C1233 1.491 . S
C1228 H1219 0.950 . S
C1228 C1227 1.398 . S
C1228 C1229 1.391 . S
C1229 H1217 0.950 . S
C1229 C1225 1.393 . S
C1229 C1228 1.391 . S
C1230 H1220 0.950 . S
C1230 C1231 1.386 . S
C1230 C1232 1.391 . S
C1231 C1230 1.386 . S
C1231 C1235 1.393 . S
C1232 H1221 0.950 . S
C1232 C1230 1.391 . S
C1232 C1233 1.400 . S
C1233 C1227 1.491 . S
C1233 C1232 1.400 . S
C1233 C1234 1.398 . S
C1234 H1222 0.950 . S
C1234 C1233 1.398 . S
C1234 C1235 1.391 . S
C1235 H1223 0.950 . S
C1235 C1231 1.393 . S
C1235 C1234 1.391 . S
H1236 C1244 0.950 . S
H1237 C1249 0.950 . S
H1238 C1246 0.950 . S
H1239 C1248 0.950 . S
H1240 C1250 0.970 1_655 S
H1241 C1252 0.950 . S
H1242 C1254 0.950 . S
H1243 C1255 0.950 . S
C1244 H1236 0.950 . S
C1244 C1245 1.386 . S
C1244 C1246 1.391 . S
C1245 C1244 1.386 . S
C1245 C1249 1.393 . S
C1246 H1238 0.950 . S
C1246 C1244 1.391 . S
C1246 C1247 1.400 . S
C1247 C1246 1.400 . S
C1247 C1248 1.398 . S
C1247 C1253 1.491 . S
C1248 H1239 0.950 . S
C1248 C1247 1.398 . S
C1248 C1249 1.391 . S
C1249 H1237 0.950 . S
C1249 C1245 1.393 . S
C1249 C1248 1.391 . S
C1250 H1240 0.970 1_455 S
C1250 C1251 1.386 . S
C1250 C1252 1.391 . S
C1251 C1250 1.386 . S
C1251 C1255 1.393 . S
C1252 H1241 0.950 . S
C1252 C1250 1.391 . S
C1252 C1253 1.400 . S
C1253 C1247 1.491 . S
C1253 C1252 1.400 . S
C1253 C1254 1.398 . S
C1254 H1242 0.950 . S
C1254 C1253 1.398 . S
C1254 C1255 1.391 . S
C1255 H1243 0.950 . S
C1255 C1251 1.393 . S
C1255 C1254 1.391 . S
H1256 C1264 0.950 . S
H1257 C1269 0.950 . S
H1258 C1266 0.950 . S
H1259 C1268 0.950 . S
H1260 C1270 0.950 . S
H1261 C1272 0.950 . S
H1262 C1274 0.950 . S
H1263 C1275 0.950 . S
C1264 H1256 0.950 . S
C1264 C1265 1.386 . S
C1264 C1266 1.391 . S
C1265 C1264 1.386 . S
C1265 C1269 1.393 . S
C1266 H1258 0.950 . S
C1266 C1264 1.391 . S
C1266 C1267 1.400 . S
C1267 C1266 1.400 . S
C1267 C1268 1.398 . S
C1267 C1273 1.491 . S
C1268 H1259 0.950 . S
C1268 C1267 1.398 . S
C1268 C1269 1.391 . S
C1269 H1257 0.950 . S
C1269 C1265 1.393 . S
C1269 C1268 1.391 . S
C1270 H1260 0.950 . S
C1270 C1271 1.386 . S
C1270 C1272 1.391 . S
C1271 C1270 1.386 . S
C1271 C1275 1.393 . S
C1272 H1261 0.950 . S
C1272 C1270 1.391 . S
C1272 C1273 1.400 . S
C1273 C1267 1.491 . S
C1273 C1272 1.400 . S
C1273 C1274 1.398 . S
C1274 H1262 0.950 . S
C1274 C1273 1.398 . S
C1274 C1275 1.391 . S
C1275 H1263 0.950 . S
C1275 C1271 1.393 . S
C1275 C1274 1.391 . S
H1276 C1284 0.950 . S
H1277 C1289 0.950 . S
H1278 C1286 0.950 . S
H1279 C1288 0.950 . S
H1280 C1290 0.950 . S
H1281 C1292 0.950 . S
H1282 C1294 0.950 . S
H1283 C1295 0.950 . S
C1284 H1276 0.950 . S
C1284 C1285 1.386 1_545 S
C1284 C1286 1.391 . S
C1285 C1284 1.386 1_565 S
C1285 C1289 1.393 . S
C1286 H1278 0.950 . S
C1286 C1284 1.391 . S
C1286 C1287 1.400 1_545 S
C1287 C1286 1.400 1_565 S
C1287 C1288 1.398 . S
C1287 C1293 1.491 . S
C1288 H1279 0.950 . S
C1288 C1287 1.398 . S
C1288 C1289 1.391 . S
C1289 H1277 0.950 . S
C1289 C1285 1.393 . S
C1289 C1288 1.391 . S
C1290 H1280 0.950 . S
C1290 C1291 1.386 . S
C1290 C1292 1.391 . S
C1291 C1290 1.386 . S
C1291 C1295 1.393 1_565 S
C1292 H1281 0.950 . S
C1292 C1290 1.391 . S
C1292 C1293 1.400 . S
C1293 C1287 1.491 . S
C1293 C1292 1.400 . S
C1293 C1294 1.398 1_565 S
C1294 H1282 0.950 . S
C1294 C1293 1.398 1_545 S
C1294 C1295 1.391 . S
C1295 H1283 0.950 . S
C1295 C1291 1.393 1_545 S
C1295 C1294 1.391 . S
H1296 C1304 0.950 1_565 S
H1297 C1309 0.950 . S
H1298 C1306 0.943 1_565 S
H1299 C1308 0.950 . S
H1300 C1310 0.950 . S
H1301 C1312 0.950 . S
H1302 C1314 0.950 . S
H1303 C1315 0.950 . S
C1304 H1296 0.950 1_545 S
C1304 C1305 1.386 . S
C1304 C1306 1.388 . S
C1305 C1304 1.386 . S
C1305 C1309 1.393 . S
C1306 H1298 0.943 1_545 S
C1306 C1304 1.388 . S
C1306 C1307 1.411 . S
C1307 C1306 1.411 . S
C1307 C1308 1.398 . S
C1307 C1313 1.491 . S
C1308 H1299 0.950 . S
C1308 C1307 1.398 . S
C1308 C1309 1.391 . S
C1309 H1297 0.950 . S
C1309 C1305 1.393 . S
C1309 C1308 1.391 . S
C1310 H1300 0.950 . S
C1310 C1311 1.386 . S
C1310 C1312 1.391 . S
C1311 C1310 1.386 . S
C1311 C1315 1.393 1_545 S
C1312 H1301 0.950 . S
C1312 C1310 1.391 . S
C1312 C1313 1.400 . S
C1313 C1307 1.491 . S
C1313 C1312 1.400 . S
C1313 C1314 1.398 1_545 S
C1314 H1302 0.950 . S
C1314 C1313 1.398 1_565 S
C1314 C1315 1.391 . S
C1315 H1303 0.950 . S
C1315 C1311 1.393 1_565 S
C1315 C1314 1.391 . S
H1316 C1324 0.950 . S
H1317 C1329 0.950 . S
H1318 C1326 0.950 . S
H1319 C1328 0.950 . S
H1320 C1330 0.950 . S
H1321 C1332 0.950 . S
H1322 C1334 0.950 . S
H1323 C1335 0.986 . S
C1324 H1316 0.950 . S
C1324 C1325 1.386 . S
C1324 C1326 1.391 . S
C1325 C1324 1.386 . S
C1325 C1329 1.393 . S
C1326 H1318 0.950 . S
C1326 C1324 1.391 . S
C1326 C1327 1.400 . S
C1327 C1326 1.400 . S
C1327 C1328 1.398 . S
C1327 C1333 1.491 . S
C1328 H1319 0.950 . S
C1328 C1327 1.398 . S
C1328 C1329 1.391 . S
C1329 H1317 0.950 . S
C1329 C1325 1.393 . S
C1329 C1328 1.391 . S
C1330 H1320 0.950 . S
C1330 C1331 1.386 . S
C1330 C1332 1.391 . S
C1331 C1330 1.386 . S
C1331 C1335 1.393 . S
C1332 H1321 0.950 . S
C1332 C1330 1.391 . S
C1332 C1333 1.400 . S
C1333 C1327 1.491 . S
C1333 C1332 1.400 . S
C1333 C1334 1.398 . S
C1334 H1322 0.950 . S
C1334 C1333 1.398 . S
C1334 C1335 1.391 . S
C1335 H1323 0.986 . S
C1335 C1331 1.393 . S
C1335 C1334 1.391 . S
H1336 C1344 0.950 . S
H1337 C1349 0.950 . S
H1338 C1346 0.950 . S
H1339 C1348 0.950 . S
H1340 C1350 0.950 . S
H1341 C1352 0.950 . S
H1342 C1354 0.950 . S
H1343 C1355 0.950 . S
C1344 H1336 0.950 . S
C1344 C1345 1.386 . S
C1344 C1346 1.391 . S
C1345 C1344 1.386 . S
C1345 C1349 1.393 . S
C1346 H1338 0.950 . S
C1346 C1344 1.391 . S
C1346 C1347 1.400 . S
C1347 C1346 1.400 . S
C1347 C1348 1.398 . S
C1347 C1353 1.491 . S
C1348 H1339 0.950 . S
C1348 C1347 1.398 . S
C1348 C1349 1.391 . S
C1349 H1337 0.950 . S
C1349 C1345 1.393 . S
C1349 C1348 1.391 . S
C1350 H1340 0.950 . S
C1350 C1351 1.386 . S
C1350 C1352 1.391 . S
C1351 C1350 1.386 . S
C1351 C1355 1.393 . S
C1352 H1341 0.950 . S
C1352 C1350 1.391 . S
C1352 C1353 1.400 . S
C1353 C1347 1.491 . S
C1353 C1352 1.400 . S
C1353 C1354 1.398 . S
C1354 H1342 0.950 . S
C1354 C1353 1.398 . S
C1354 C1355 1.391 . S
C1355 H1343 0.950 . S
C1355 C1351 1.393 . S
C1355 C1354 1.391 . S
H1356 C1364 0.950 . S
H1357 C1369 0.950 . S
H1358 C1366 0.950 . S
H1359 C1368 0.950 . S
H1360 C1370 0.950 . S
H1361 C1372 0.950 . S
H1362 C1374 0.950 . S
H1363 C1375 0.950 . S
C1364 H1356 0.950 . S
C1364 C1365 1.386 . S
C1364 C1366 1.391 . S
C1365 C1364 1.386 . S
C1365 C1369 1.393 . S
C1366 H1358 0.950 . S
C1366 C1364 1.391 . S
C1366 C1367 1.400 . S
C1367 C1366 1.400 . S
C1367 C1368 1.398 . S
C1367 C1373 1.491 . S
C1368 H1359 0.950 . S
C1368 C1367 1.398 . S
C1368 C1369 1.391 . S
C1369 H1357 0.950 . S
C1369 C1365 1.393 . S
C1369 C1368 1.391 . S
C1370 H1360 0.950 . S
C1370 C1371 1.386 . S
C1370 C1372 1.391 . S
C1371 C1370 1.386 . S
C1371 C1375 1.393 . S
C1372 H1361 0.950 . S
C1372 C1370 1.391 . S
C1372 C1373 1.400 . S
C1373 C1367 1.491 . S
C1373 C1372 1.400 . S
C1373 C1374 1.398 . S
C1374 H1362 0.950 . S
C1374 C1373 1.398 . S
C1374 C1375 1.391 . S
C1375 H1363 0.950 . S
C1375 C1371 1.393 . S
C1375 C1374 1.391 . S
H1376 C1384 0.950 . S
H1377 C1389 0.950 . S
H1378 C1386 0.950 . S
H1379 C1388 0.950 . S
H1380 C1390 0.950 . S
H1381 C1392 0.950 . S
H1382 C1394 0.950 . S
H1383 C1395 0.950 . S
C1384 H1376 0.950 . S
C1384 C1385 1.386 . S
C1384 C1386 1.391 . S
C1385 C1384 1.386 . S
C1385 C1389 1.393 . S
C1386 H1378 0.950 . S
C1386 C1384 1.391 . S
C1386 C1387 1.400 . S
C1387 C1386 1.400 . S
C1387 C1388 1.398 . S
C1387 C1393 1.491 . S
C1388 H1379 0.950 . S
C1388 C1387 1.398 . S
C1388 C1389 1.391 . S
C1389 H1377 0.950 . S
C1389 C1385 1.393 . S
C1389 C1388 1.391 . S
C1390 H1380 0.950 . S
C1390 C1391 1.386 . S
C1390 C1392 1.391 . S
C1391 C1390 1.386 . S
C1391 C1395 1.393 . S
C1392 H1381 0.950 . S
C1392 C1390 1.391 . S
C1392 C1393 1.400 . S
C1393 C1387 1.491 . S
C1393 C1392 1.400 . S
C1393 C1394 1.398 . S
C1394 H1382 0.950 . S
C1394 C1393 1.398 . S
C1394 C1395 1.391 . S
C1395 H1383 0.950 . S
C1395 C1391 1.393 . S
C1395 C1394 1.391 . S
H1396 C1404 0.950 . S
H1397 C1409 0.950 . S
H1398 C1406 0.950 . S
H1399 C1408 0.950 . S
H1400 C1410 0.950 . S
H1401 C1412 0.950 . S
H1402 C1414 0.950 . S
H1403 C1415 0.950 . S
C1404 H1396 0.950 . S
C1404 C1405 1.386 . S
C1404 C1406 1.391 . S
C1405 C1404 1.386 . S
C1405 C1409 1.393 . S
C1406 H1398 0.950 . S
C1406 C1404 1.391 . S
C1406 C1407 1.400 . S
C1407 C1406 1.400 . S
C1407 C1408 1.398 . S
C1407 C1413 1.491 . S
C1408 H1399 0.950 . S
C1408 C1407 1.398 . S
C1408 C1409 1.391 . S
C1409 H1397 0.950 . S
C1409 C1405 1.393 . S
C1409 C1408 1.391 . S
C1410 H1400 0.950 . S
C1410 C1411 1.386 . S
C1410 C1412 1.391 . S
C1411 C1410 1.386 . S
C1411 C1415 1.393 . S
C1412 H1401 0.950 . S
C1412 C1410 1.391 . S
C1412 C1413 1.400 . S
C1413 C1407 1.491 . S
C1413 C1412 1.400 . S
C1413 C1414 1.398 . S
C1414 H1402 0.950 . S
C1414 C1413 1.398 . S
C1414 C1415 1.391 . S
C1415 H1403 0.950 . S
C1415 C1411 1.393 . S
C1415 C1414 1.391 . S
H1416 C1424 0.950 . S
H1417 C1429 0.950 . S
H1418 C1426 0.950 . S
H1419 C1428 0.950 . S
H1420 C1430 0.950 . S
H1421 C1432 0.950 . S
H1422 C1434 0.950 . S
H1423 C1435 0.950 . S
C1424 H1416 0.950 . S
C1424 C1425 1.386 . S
C1424 C1426 1.391 . S
C1425 C1424 1.386 . S
C1425 C1429 1.393 . S
C1426 H1418 0.950 . S
C1426 C1424 1.391 . S
C1426 C1427 1.400 . S
C1427 C1426 1.400 . S
C1427 C1428 1.398 . S
C1427 C1433 1.491 . S
C1428 H1419 0.950 . S
C1428 C1427 1.398 . S
C1428 C1429 1.391 . S
C1429 H1417 0.950 . S
C1429 C1425 1.393 . S
C1429 C1428 1.391 . S
C1430 H1420 0.950 . S
C1430 C1431 1.386 . S
C1430 C1432 1.391 . S
C1431 C1430 1.386 . S
C1431 C1435 1.393 . S
C1432 H1421 0.950 . S
C1432 C1430 1.391 . S
C1432 C1433 1.400 . S
C1433 C1427 1.491 . S
C1433 C1432 1.400 . S
C1433 C1434 1.398 . S
C1434 H1422 0.950 . S
C1434 C1433 1.398 . S
C1434 C1435 1.391 . S
C1435 H1423 0.950 . S
C1435 C1431 1.393 . S
C1435 C1434 1.391 . S
H1436 C1444 0.950 . S
H1437 C1449 0.950 . S
H1438 C1446 0.950 . S
H1439 C1448 0.950 . S
H1440 C1450 0.950 . S
H1441 C1452 0.950 . S
H1442 C1454 0.950 . S
H1443 C1455 0.950 . S
C1444 H1436 0.950 . S
C1444 C1445 1.386 . S
C1444 C1446 1.391 . S
C1445 C1444 1.386 . S
C1445 C1449 1.393 . S
C1446 H1438 0.950 . S
C1446 C1444 1.391 . S
C1446 C1447 1.400 . S
C1447 C1446 1.400 . S
C1447 C1448 1.398 . S
C1447 C1453 1.491 . S
C1448 H1439 0.950 . S
C1448 C1447 1.398 . S
C1448 C1449 1.391 . S
C1449 H1437 0.950 . S
C1449 C1445 1.393 . S
C1449 C1448 1.391 . S
C1450 H1440 0.950 . S
C1450 C1451 1.386 . S
C1450 C1452 1.391 . S
C1451 C1450 1.386 . S
C1451 C1455 1.393 . S
C1452 H1441 0.950 . S
C1452 C1450 1.391 . S
C1452 C1453 1.400 . S
C1453 C1447 1.491 . S
C1453 C1452 1.400 . S
C1453 C1454 1.398 . S
C1454 H1442 0.950 . S
C1454 C1453 1.398 . S
C1454 C1455 1.391 . S
C1455 H1443 0.950 . S
C1455 C1451 1.393 . S
C1455 C1454 1.391 . S
H1456 C1464 0.950 . S
H1457 C1469 0.950 . S
H1458 C1466 0.950 . S
H1459 C1468 0.950 . S
H1460 C1470 0.950 . S
H1461 C1472 0.950 . S
H1462 C1474 0.950 . S
H1463 C1475 0.950 . S
C1464 H1456 0.950 . S
C1464 C1465 1.386 . S
C1464 C1466 1.391 . S
C1465 C1464 1.386 . S
C1465 C1469 1.393 . S
C1466 H1458 0.950 . S
C1466 C1464 1.391 . S
C1466 C1467 1.400 . S
C1467 C1466 1.400 . S
C1467 C1468 1.398 . S
C1467 C1473 1.491 . S
C1468 H1459 0.950 . S
C1468 C1467 1.398 . S
C1468 C1469 1.391 . S
C1469 H1457 0.950 . S
C1469 C1465 1.393 . S
C1469 C1468 1.391 . S
C1470 H1460 0.950 . S
C1470 C1471 1.386 . S
C1470 C1472 1.391 . S
C1471 C1470 1.386 . S
C1471 C1475 1.393 . S
C1472 H1461 0.950 . S
C1472 C1470 1.391 . S
C1472 C1473 1.400 . S
C1473 C1467 1.491 . S
C1473 C1472 1.400 . S
C1473 C1474 1.398 . S
C1474 H1462 0.950 . S
C1474 C1473 1.398 . S
C1474 C1475 1.391 . S
C1475 H1463 0.950 . S
C1475 C1471 1.393 . S
C1475 C1474 1.391 . S
H1476 C1484 0.950 . S
H1477 C1489 0.950 . S
H1478 C1486 0.950 . S
H1479 C1488 0.950 . S
H1480 C1490 0.950 . S
H1481 C1492 0.950 . S
H1482 C1494 0.950 . S
H1483 C1495 0.950 . S
C1484 H1476 0.950 . S
C1484 C1485 1.386 . S
C1484 C1486 1.391 . S
C1485 C1484 1.386 . S
C1485 C1489 1.393 . S
C1486 H1478 0.950 . S
C1486 C1484 1.391 . S
C1486 C1487 1.400 . S
C1487 C1486 1.400 . S
C1487 C1488 1.398 . S
C1487 C1493 1.491 . S
C1488 H1479 0.950 . S
C1488 C1487 1.398 . S
C1488 C1489 1.391 . S
C1489 H1477 0.950 . S
C1489 C1485 1.393 . S
C1489 C1488 1.391 . S
C1490 H1480 0.950 . S
C1490 C1491 1.386 . S
C1490 C1492 1.391 . S
C1491 C1490 1.386 . S
C1491 C1495 1.393 . S
C1492 H1481 0.950 . S
C1492 C1490 1.391 . S
C1492 C1493 1.400 . S
C1493 C1487 1.491 . S
C1493 C1492 1.400 . S
C1493 C1494 1.398 . S
C1494 H1482 0.950 . S
C1494 C1493 1.398 . S
C1494 C1495 1.391 . S
C1495 H1483 0.950 . S
C1495 C1491 1.393 . S
C1495 C1494 1.391 . S
H1496 C1504 0.950 . S
H1497 C1509 0.950 . S
H1498 C1506 0.950 . S
H1499 C1508 0.950 . S
H1500 C1510 0.950 . S
H1501 C1512 0.950 . S
H1502 C1514 0.950 . S
H1503 C1515 0.950 . S
C1504 H1496 0.950 . S
C1504 C1505 1.386 . S
C1504 C1506 1.391 . S
C1505 C1504 1.386 . S
C1505 C1509 1.393 . S
C1506 H1498 0.950 . S
C1506 C1504 1.391 . S
C1506 C1507 1.400 . S
C1507 C1506 1.400 . S
C1507 C1508 1.398 . S
C1507 C1513 1.491 . S
C1508 H1499 0.950 . S
C1508 C1507 1.398 . S
C1508 C1509 1.391 . S
C1509 H1497 0.950 . S
C1509 C1505 1.393 . S
C1509 C1508 1.391 . S
C1510 H1500 0.950 . S
C1510 C1511 1.386 . S
C1510 C1512 1.391 . S
C1511 C1510 1.386 . S
C1511 C1515 1.393 . S
C1512 H1501 0.950 . S
C1512 C1510 1.391 . S
C1512 C1513 1.400 . S
C1513 C1507 1.491 . S
C1513 C1512 1.400 . S
C1513 C1514 1.398 . S
C1514 H1502 0.950 . S
C1514 C1513 1.398 . S
C1514 C1515 1.391 . S
C1515 H1503 0.950 . S
C1515 C1511 1.393 . S
C1515 C1514 1.391 . S
H1516 C1524 0.950 . S
H1517 C1529 0.950 . S
H1518 C1526 0.950 . S
H1519 C1528 0.950 . S
H1520 C1530 0.950 . S
H1521 C1532 0.950 . S
H1522 C1534 0.950 . S
H1523 C1535 0.950 . S
C1524 H1516 0.950 . S
C1524 C1525 1.386 . S
C1524 C1526 1.391 . S
C1525 C1524 1.386 . S
C1525 C1529 1.393 . S
C1526 H1518 0.950 . S
C1526 C1524 1.391 . S
C1526 C1527 1.400 . S
C1527 C1526 1.400 . S
C1527 C1528 1.398 . S
C1527 C1533 1.491 . S
C1528 H1519 0.950 . S
C1528 C1527 1.398 . S
C1528 C1529 1.391 . S
C1529 H1517 0.950 . S
C1529 C1525 1.393 . S
C1529 C1528 1.391 . S
C1530 H1520 0.950 . S
C1530 C1531 1.386 . S
C1530 C1532 1.391 . S
C1531 C1530 1.386 . S
C1531 C1535 1.393 . S
C1532 H1521 0.950 . S
C1532 C1530 1.391 . S
C1532 C1533 1.400 . S
C1533 C1527 1.491 . S
C1533 C1532 1.400 . S
C1533 C1534 1.398 . S
C1534 H1522 0.950 . S
C1534 C1533 1.398 . S
C1534 C1535 1.391 . S
C1535 H1523 0.950 . S
C1535 C1531 1.393 . S
C1535 C1534 1.391 . S
H1536 C1544 0.950 . S
H1537 C1549 0.950 . S
H1538 C1546 0.950 . S
H1539 C1548 0.950 . S
H1540 C1550 0.950 . S
H1541 C1552 0.950 . S
H1542 C1554 0.950 . S
H1543 C1555 0.950 . S
C1544 H1536 0.950 . S
C1544 C1545 1.386 . S
C1544 C1546 1.391 . S
C1545 C1544 1.386 . S
C1545 C1549 1.393 . S
C1546 H1538 0.950 . S
C1546 C1544 1.391 . S
C1546 C1547 1.400 . S
C1547 C1546 1.400 . S
C1547 C1548 1.398 . S
C1547 C1553 1.491 . S
C1548 H1539 0.950 . S
C1548 C1547 1.398 . S
C1548 C1549 1.391 . S
C1549 H1537 0.950 . S
C1549 C1545 1.393 . S
C1549 C1548 1.391 . S
C1550 H1540 0.950 . S
C1550 C1551 1.386 . S
C1550 C1552 1.391 . S
C1551 C1550 1.386 . S
C1551 C1555 1.393 . S
C1552 H1541 0.950 . S
C1552 C1550 1.391 . S
C1552 C1553 1.400 . S
C1553 C1547 1.491 . S
C1553 C1552 1.400 . S
C1553 C1554 1.398 . S
C1554 H1542 0.950 . S
C1554 C1553 1.398 . S
C1554 C1555 1.391 . S
C1555 H1543 0.950 . S
C1555 C1551 1.393 . S
C1555 C1554 1.391 . S
H1556 C1564 0.950 . S
H1557 C1569 0.950 . S
H1558 C1566 0.950 . S
H1559 C1568 0.950 . S
H1560 C1570 0.950 . S
H1561 C1572 0.950 . S
H1562 C1574 0.950 . S
H1563 C1575 0.950 . S
C1564 H1556 0.950 . S
C1564 C1565 1.386 . S
C1564 C1566 1.391 . S
C1565 C1564 1.386 . S
C1565 C1569 1.393 . S
C1566 H1558 0.950 . S
C1566 C1564 1.391 . S
C1566 C1567 1.400 . S
C1567 C1566 1.400 . S
C1567 C1568 1.398 . S
C1567 C1573 1.491 . S
C1568 H1559 0.950 . S
C1568 C1567 1.398 . S
C1568 C1569 1.391 . S
C1569 H1557 0.950 . S
C1569 C1565 1.393 . S
C1569 C1568 1.391 . S
C1570 H1560 0.950 . S
C1570 C1571 1.386 . S
C1570 C1572 1.391 . S
C1571 C1570 1.386 . S
C1571 C1575 1.393 . S
C1572 H1561 0.950 . S
C1572 C1570 1.391 . S
C1572 C1573 1.400 . S
C1573 C1567 1.491 . S
C1573 C1572 1.400 . S
C1573 C1574 1.398 . S
C1574 H1562 0.950 . S
C1574 C1573 1.398 . S
C1574 C1575 1.391 . S
C1575 H1563 0.950 . S
C1575 C1571 1.393 . S
C1575 C1574 1.391 . S
H1576 C1584 0.950 . S
H1577 C1589 0.950 . S
H1578 C1586 0.950 . S
H1579 C1588 0.950 . S
H1580 C1590 0.950 . S
H1581 C1592 0.950 . S
H1582 C1594 0.950 . S
H1583 C1595 0.950 . S
C1584 H1576 0.950 . S
C1584 C1585 1.386 . S
C1584 C1586 1.391 . S
C1585 C1584 1.386 . S
C1585 C1589 1.393 . S
C1586 H1578 0.950 . S
C1586 C1584 1.391 . S
C1586 C1587 1.400 . S
C1587 C1586 1.400 . S
C1587 C1588 1.398 . S
C1587 C1593 1.491 . S
C1588 H1579 0.950 . S
C1588 C1587 1.398 . S
C1588 C1589 1.391 . S
C1589 H1577 0.950 . S
C1589 C1585 1.393 . S
C1589 C1588 1.391 . S
C1590 H1580 0.950 . S
C1590 C1591 1.386 . S
C1590 C1592 1.391 . S
C1591 C1590 1.386 . S
C1591 C1595 1.393 . S
C1592 H1581 0.950 . S
C1592 C1590 1.391 . S
C1592 C1593 1.400 . S
C1593 C1587 1.491 . S
C1593 C1592 1.400 . S
C1593 C1594 1.398 . S
C1594 H1582 0.950 . S
C1594 C1593 1.398 . S
C1594 C1595 1.391 . S
C1595 H1583 0.950 . S
C1595 C1591 1.393 . S
C1595 C1594 1.391 . S
H1596 C1604 0.950 . S
H1597 C1609 0.950 . S
H1598 C1606 0.950 . S
H1599 C1608 0.950 . S
H1600 C1610 0.950 . S
H1601 C1612 0.950 . S
H1602 C1614 0.950 . S
H1603 C1615 0.950 . S
C1604 H1596 0.950 . S
C1604 C1605 1.386 . S
C1604 C1606 1.391 . S
C1605 C1604 1.386 . S
C1605 C1609 1.393 . S
C1606 H1598 0.950 . S
C1606 C1604 1.391 . S
C1606 C1607 1.400 . S
C1607 C1606 1.400 . S
C1607 C1608 1.398 . S
C1607 C1613 1.491 . S
C1608 H1599 0.950 . S
C1608 C1607 1.398 . S
C1608 C1609 1.391 . S
C1609 H1597 0.950 . S
C1609 C1605 1.393 . S
C1609 C1608 1.391 . S
C1610 H1600 0.950 . S
C1610 C1611 1.386 . S
C1610 C1612 1.391 . S
C1611 C1610 1.386 . S
C1611 C1615 1.393 . S
C1612 H1601 0.950 . S
C1612 C1610 1.391 . S
C1612 C1613 1.400 . S
C1613 C1607 1.491 . S
C1613 C1612 1.400 . S
C1613 C1614 1.398 . S
C1614 H1602 0.950 . S
C1614 C1613 1.398 . S
C1614 C1615 1.391 . S
C1615 H1603 0.950 . S
C1615 C1611 1.393 . S
C1615 C1614 1.391 . S
H1616 C1624 0.950 . S
H1617 C1629 0.950 . S
H1618 C1626 0.950 . S
H1619 C1628 0.950 . S
H1620 C1630 0.950 . S
H1621 C1632 0.950 . S
H1622 C1634 0.950 . S
H1623 C1635 0.950 . S
C1624 H1616 0.950 . S
C1624 C1625 1.386 . S
C1624 C1626 1.391 . S
C1625 C1624 1.386 . S
C1625 C1629 1.393 . S
C1626 H1618 0.950 . S
C1626 C1624 1.391 . S
C1626 C1627 1.400 . S
C1627 C1626 1.400 . S
C1627 C1628 1.398 . S
C1627 C1633 1.491 . S
C1628 H1619 0.950 . S
C1628 C1627 1.398 . S
C1628 C1629 1.391 . S
C1629 H1617 0.950 . S
C1629 C1625 1.393 . S
C1629 C1628 1.391 . S
C1630 H1620 0.950 . S
C1630 C1631 1.386 . S
C1630 C1632 1.391 . S
C1631 C1630 1.386 . S
C1631 C1635 1.393 . S
C1632 H1621 0.950 . S
C1632 C1630 1.391 . S
C1632 C1633 1.400 . S
C1633 C1627 1.491 . S
C1633 C1632 1.400 . S
C1633 C1634 1.398 . S
C1634 H1622 0.950 . S
C1634 C1633 1.398 . S
C1634 C1635 1.391 . S
C1635 H1623 0.950 . S
C1635 C1631 1.393 . S
C1635 C1634 1.391 . S
H1636 C1644 0.950 . S
H1637 C1649 0.950 . S
H1638 C1646 0.950 . S
H1639 C1648 0.950 . S
H1640 C1650 0.950 . S
H1641 C1652 0.950 . S
H1642 C1654 0.950 . S
H1643 C1655 0.950 . S
C1644 H1636 0.950 . S
C1644 C1645 1.386 . S
C1644 C1646 1.391 . S
C1645 C1644 1.386 . S
C1645 C1649 1.393 . S
C1646 H1638 0.950 . S
C1646 C1644 1.391 . S
C1646 C1647 1.400 . S
C1647 C1646 1.400 . S
C1647 C1648 1.398 . S
C1647 C1653 1.491 . S
C1648 H1639 0.950 . S
C1648 C1647 1.398 . S
C1648 C1649 1.391 . S
C1649 H1637 0.950 . S
C1649 C1645 1.393 . S
C1649 C1648 1.391 . S
C1650 H1640 0.950 . S
C1650 C1651 1.386 . S
C1650 C1652 1.391 . S
C1651 C1650 1.386 . S
C1651 C1655 1.393 . S
C1652 H1641 0.950 . S
C1652 C1650 1.391 . S
C1652 C1653 1.400 . S
C1653 C1647 1.491 . S
C1653 C1652 1.400 . S
C1653 C1654 1.398 . S
C1654 H1642 0.950 . S
C1654 C1653 1.398 . S
C1654 C1655 1.391 . S
C1655 H1643 0.950 . S
C1655 C1651 1.393 . S
C1655 C1654 1.391 . S
H1656 C1664 0.950 . S
H1657 C1669 0.950 . S
H1658 C1666 0.950 . S
H1659 C1668 0.950 . S
H1660 C1670 0.950 . S
H1661 C1672 0.950 . S
H1662 C1674 0.950 . S
H1663 C1675 0.950 . S
C1664 H1656 0.950 . S
C1664 C1665 1.386 . S
C1664 C1666 1.391 . S
C1665 C1664 1.386 . S
C1665 C1669 1.393 . S
C1666 H1658 0.950 . S
C1666 C1664 1.391 . S
C1666 C1667 1.400 . S
C1667 C1666 1.400 . S
C1667 C1668 1.398 . S
C1667 C1673 1.491 . S
C1668 H1659 0.950 . S
C1668 C1667 1.398 . S
C1668 C1669 1.391 . S
C1669 H1657 0.950 . S
C1669 C1665 1.393 . S
C1669 C1668 1.391 . S
C1670 H1660 0.950 . S
C1670 C1671 1.386 . S
C1670 C1672 1.391 . S
C1671 C1670 1.386 . S
C1671 C1675 1.393 . S
C1672 H1661 0.950 . S
C1672 C1670 1.391 . S
C1672 C1673 1.400 . S
C1673 C1667 1.491 . S
C1673 C1672 1.400 . S
C1673 C1674 1.398 . S
C1674 H1662 0.950 . S
C1674 C1673 1.398 . S
C1674 C1675 1.391 . S
C1675 H1663 0.950 . S
C1675 C1671 1.393 . S
C1675 C1674 1.391 . S
H1676 C1684 0.950 . S
H1677 C1689 0.950 . S
H1678 C1686 0.950 . S
H1679 C1688 0.950 . S
H1680 C1690 0.950 . S
H1681 C1692 0.950 . S
H1682 C1694 0.950 . S
H1683 C1695 0.950 . S
C1684 H1676 0.950 . S
C1684 C1685 1.386 . S
C1684 C1686 1.391 . S
C1685 C1684 1.386 . S
C1685 C1689 1.393 . S
C1686 H1678 0.950 . S
C1686 C1684 1.391 . S
C1686 C1687 1.400 . S
C1687 C1686 1.400 . S
C1687 C1688 1.398 . S
C1687 C1693 1.491 . S
C1688 H1679 0.950 . S
C1688 C1687 1.398 . S
C1688 C1689 1.391 . S
C1689 H1677 0.950 . S
C1689 C1685 1.393 . S
C1689 C1688 1.391 . S
C1690 H1680 0.950 . S
C1690 C1691 1.386 . S
C1690 C1692 1.391 . S
C1691 C1690 1.386 . S
C1691 C1695 1.393 . S
C1692 H1681 0.950 . S
C1692 C1690 1.391 . S
C1692 C1693 1.400 . S
C1693 C1687 1.491 . S
C1693 C1692 1.400 . S
C1693 C1694 1.398 . S
C1694 H1682 0.950 . S
C1694 C1693 1.398 . S
C1694 C1695 1.391 . S
C1695 H1683 0.950 . S
C1695 C1691 1.393 . S
C1695 C1694 1.391 . S
H1696 C1704 0.950 . S
H1697 C1709 0.950 . S
H1698 C1706 0.950 . S
H1699 C1708 0.950 . S
H1700 C1710 0.950 . S
H1701 C1712 0.950 . S
H1702 C1714 0.950 . S
H1703 C1715 0.950 . S
C1704 H1696 0.950 . S
C1704 C1705 1.386 . S
C1704 C1706 1.391 . S
C1705 C1704 1.386 . S
C1705 C1709 1.393 . S
C1706 H1698 0.950 . S
C1706 C1704 1.391 . S
C1706 C1707 1.400 . S
C1707 C1706 1.400 . S
C1707 C1708 1.398 . S
C1707 C1713 1.491 . S
C1708 H1699 0.950 . S
C1708 C1707 1.398 . S
C1708 C1709 1.391 . S
C1709 H1697 0.950 . S
C1709 C1705 1.393 . S
C1709 C1708 1.391 . S
C1710 H1700 0.950 . S
C1710 C1711 1.386 . S
C1710 C1712 1.391 . S
C1711 C1710 1.386 . S
C1711 C1715 1.393 . S
C1712 H1701 0.950 . S
C1712 C1710 1.391 . S
C1712 C1713 1.400 . S
C1713 C1707 1.491 . S
C1713 C1712 1.400 . S
C1713 C1714 1.398 . S
C1714 H1702 0.950 . S
C1714 C1713 1.398 . S
C1714 C1715 1.391 . S
C1715 H1703 0.950 . S
C1715 C1711 1.393 . S
C1715 C1714 1.391 . S
H1716 C1724 0.950 . S
H1717 C1729 0.950 . S
H1718 C1726 0.950 . S
H1719 C1728 0.950 . S
H1720 C1730 0.950 . S
H1721 C1732 0.950 . S
H1722 C1734 0.950 . S
H1723 C1735 0.950 . S
C1724 H1716 0.950 . S
C1724 C1725 1.386 . S
C1724 C1726 1.391 . S
C1725 C1724 1.386 . S
C1725 C1729 1.393 . S
C1726 H1718 0.950 . S
C1726 C1724 1.391 . S
C1726 C1727 1.400 . S
C1727 C1726 1.400 . S
C1727 C1728 1.398 . S
C1727 C1733 1.491 . S
C1728 H1719 0.950 . S
C1728 C1727 1.398 . S
C1728 C1729 1.391 . S
C1729 H1717 0.950 . S
C1729 C1725 1.393 . S
C1729 C1728 1.391 . S
C1730 H1720 0.950 . S
C1730 C1731 1.386 . S
C1730 C1732 1.391 . S
C1731 C1730 1.386 . S
C1731 C1735 1.393 . S
C1732 H1721 0.950 . S
C1732 C1730 1.391 . S
C1732 C1733 1.400 . S
C1733 C1727 1.491 . S
C1733 C1732 1.400 . S
C1733 C1734 1.398 . S
C1734 H1722 0.950 . S
C1734 C1733 1.398 . S
C1734 C1735 1.391 . S
C1735 H1723 0.950 . S
C1735 C1731 1.393 . S
C1735 C1734 1.391 . S
H1736 C1744 0.950 . S
H1737 C1749 0.950 . S
H1738 C1746 0.950 . S
H1739 C1748 0.950 . S
H1740 C1750 0.950 . S
H1741 C1752 0.950 . S
H1742 C1754 0.950 . S
H1743 C1755 0.950 . S
C1744 H1736 0.950 . S
C1744 C1745 1.386 . S
C1744 C1746 1.391 . S
C1745 C1744 1.386 . S
C1745 C1749 1.393 . S
C1746 H1738 0.950 . S
C1746 C1744 1.391 . S
C1746 C1747 1.400 . S
C1747 C1746 1.400 . S
C1747 C1748 1.398 . S
C1747 C1753 1.491 . S
C1748 H1739 0.950 . S
C1748 C1747 1.398 . S
C1748 C1749 1.391 . S
C1749 H1737 0.950 . S
C1749 C1745 1.393 . S
C1749 C1748 1.391 . S
C1750 H1740 0.950 . S
C1750 C1751 1.386 . S
C1750 C1752 1.391 . S
C1751 C1750 1.386 . S
C1751 C1755 1.393 . S
C1752 H1741 0.950 . S
C1752 C1750 1.391 . S
C1752 C1753 1.400 . S
C1753 C1747 1.491 . S
C1753 C1752 1.400 . S
C1753 C1754 1.398 . S
C1754 H1742 0.950 . S
C1754 C1753 1.398 . S
C1754 C1755 1.391 . S
C1755 H1743 0.950 . S
C1755 C1751 1.393 . S
C1755 C1754 1.391 . S
H1756 C1764 0.950 . S
H1757 C1769 0.950 . S
H1758 C1766 0.950 . S
H1759 C1768 0.950 . S
H1760 C1770 0.950 . S
H1761 C1772 0.950 . S
H1762 C1774 0.950 . S
H1763 C1775 0.950 . S
C1764 H1756 0.950 . S
C1764 C1765 1.386 . S
C1764 C1766 1.391 . S
C1765 C1764 1.386 . S
C1765 C1769 1.393 . S
C1766 H1758 0.950 . S
C1766 C1764 1.391 . S
C1766 C1767 1.400 . S
C1767 C1766 1.400 . S
C1767 C1768 1.398 . S
C1767 C1773 1.491 . S
C1768 H1759 0.950 . S
C1768 C1767 1.398 . S
C1768 C1769 1.391 . S
C1769 H1757 0.950 . S
C1769 C1765 1.393 . S
C1769 C1768 1.391 . S
C1770 H1760 0.950 . S
C1770 C1771 1.386 . S
C1770 C1772 1.391 . S
C1771 C1770 1.386 . S
C1771 C1775 1.393 . S
C1772 H1761 0.950 . S
C1772 C1770 1.391 . S
C1772 C1773 1.400 . S
C1773 C1767 1.491 . S
C1773 C1772 1.400 . S
C1773 C1774 1.398 . S
C1774 H1762 0.950 . S
C1774 C1773 1.398 . S
C1774 C1775 1.391 . S
C1775 H1763 0.950 . S
C1775 C1771 1.393 . S
C1775 C1774 1.391 . S
H1776 C1784 0.950 . S
H1777 C1789 0.950 . S
H1778 C1786 0.950 . S
H1779 C1788 0.950 . S
H1780 C1790 0.950 . S
H1781 C1792 0.950 . S
H1782 C1794 0.950 . S
H1783 C1795 0.950 . S
C1784 H1776 0.950 . S
C1784 C1785 1.386 . S
C1784 C1786 1.391 . S
C1785 C1784 1.386 . S
C1785 C1789 1.393 . S
C1786 H1778 0.950 . S
C1786 C1784 1.391 . S
C1786 C1787 1.400 . S
C1787 C1786 1.400 . S
C1787 C1788 1.398 . S
C1787 C1793 1.491 . S
C1788 H1779 0.950 . S
C1788 C1787 1.398 . S
C1788 C1789 1.391 . S
C1789 H1777 0.950 . S
C1789 C1785 1.393 . S
C1789 C1788 1.391 . S
C1790 H1780 0.950 . S
C1790 C1791 1.386 . S
C1790 C1792 1.391 . S
C1791 C1790 1.386 . S
C1791 C1795 1.393 . S
C1792 H1781 0.950 . S
C1792 C1790 1.391 . S
C1792 C1793 1.400 . S
C1793 C1787 1.491 . S
C1793 C1792 1.400 . S
C1793 C1794 1.398 . S
C1794 H1782 0.950 . S
C1794 C1793 1.398 . S
C1794 C1795 1.391 . S
C1795 H1783 0.950 . S
C1795 C1791 1.393 . S
C1795 C1794 1.391 . S
H1796 C1804 0.950 . S
H1797 C1809 0.950 . S
H1798 C1806 0.950 . S
H1799 C1808 0.950 . S
H1800 C1810 0.950 . S
H1801 C1812 0.950 . S
H1802 C1814 0.950 . S
H1803 C1815 0.950 . S
C1804 H1796 0.950 . S
C1804 C1805 1.386 . S
C1804 C1806 1.391 . S
C1805 C1804 1.386 . S
C1805 C1809 1.393 . S
C1806 H1798 0.950 . S
C1806 C1804 1.391 . S
C1806 C1807 1.400 . S
C1807 C1806 1.400 . S
C1807 C1808 1.398 . S
C1807 C1813 1.491 . S
C1808 H1799 0.950 . S
C1808 C1807 1.398 . S
C1808 C1809 1.391 . S
C1809 H1797 0.950 . S
C1809 C1805 1.393 . S
C1809 C1808 1.391 . S
C1810 H1800 0.950 . S
C1810 C1811 1.386 . S
C1810 C1812 1.391 . S
C1811 C1810 1.386 . S
C1811 C1815 1.393 . S
C1812 H1801 0.950 . S
C1812 C1810 1.391 . S
C1812 C1813 1.400 . S
C1813 C1807 1.491 . S
C1813 C1812 1.400 . S
C1813 C1814 1.398 . S
C1814 H1802 0.950 . S
C1814 C1813 1.398 . S
C1814 C1815 1.391 . S
C1815 H1803 0.950 . S
C1815 C1811 1.393 . S
C1815 C1814 1.391 . S
H1816 C1824 0.950 . S
H1817 C1829 0.950 . S
H1818 C1826 0.950 . S
H1819 C1828 0.950 . S
H1820 C1830 0.950 . S
H1821 C1832 0.950 . S
H1822 C1834 0.950 . S
H1823 C1835 0.950 . S
C1824 H1816 0.950 . S
C1824 C1825 1.386 . S
C1824 C1826 1.391 . S
C1825 C1824 1.386 . S
C1825 C1829 1.393 . S
C1826 H1818 0.950 . S
C1826 C1824 1.391 . S
C1826 C1827 1.400 . S
C1827 C1826 1.400 . S
C1827 C1828 1.398 . S
C1827 C1833 1.491 . S
C1828 H1819 0.950 . S
C1828 C1827 1.398 . S
C1828 C1829 1.391 . S
C1829 H1817 0.950 . S
C1829 C1825 1.393 . S
C1829 C1828 1.391 . S
C1830 H1820 0.950 . S
C1830 C1831 1.386 . S
C1830 C1832 1.391 . S
C1831 C1830 1.386 . S
C1831 C1835 1.393 . S
C1832 H1821 0.950 . S
C1832 C1830 1.391 . S
C1832 C1833 1.400 . S
C1833 C1827 1.491 . S
C1833 C1832 1.400 . S
C1833 C1834 1.398 . S
C1834 H1822 0.950 . S
C1834 C1833 1.398 . S
C1834 C1835 1.391 . S
C1835 H1823 0.950 . S
C1835 C1831 1.393 . S
C1835 C1834 1.391 . S
H1836 C1844 0.950 . S
H1837 C1849 0.950 . S
H1838 C1846 0.950 . S
H1839 C1848 0.950 . S
H1840 C1850 0.950 . S
H1841 C1852 0.950 . S
H1842 C1854 0.950 . S
H1843 C1855 0.950 . S
C1844 H1836 0.950 . S
C1844 C1845 1.386 . S
C1844 C1846 1.391 . S
C1845 C1844 1.386 . S
C1845 C1849 1.393 . S
C1846 H1838 0.950 . S
C1846 C1844 1.391 . S
C1846 C1847 1.400 . S
C1847 C1846 1.400 . S
C1847 C1848 1.398 . S
C1847 C1853 1.491 . S
C1848 H1839 0.950 . S
C1848 C1847 1.398 . S
C1848 C1849 1.391 . S
C1849 H1837 0.950 . S
C1849 C1845 1.393 . S
C1849 C1848 1.391 . S
C1850 H1840 0.950 . S
C1850 C1851 1.386 . S
C1850 C1852 1.391 . S
C1851 C1850 1.386 . S
C1851 C1855 1.393 . S
C1852 H1841 0.950 . S
C1852 C1850 1.391 . S
C1852 C1853 1.400 . S
C1853 C1847 1.491 . S
C1853 C1852 1.400 . S
C1853 C1854 1.398 . S
C1854 H1842 0.950 . S
C1854 C1853 1.398 . S
C1854 C1855 1.391 . S
C1855 H1843 0.950 . S
C1855 C1851 1.393 . S
C1855 C1854 1.391 . S
H1856 C1864 0.950 . S
H1857 C1869 0.950 . S
H1858 C1866 0.950 . S
H1859 C1868 0.950 . S
H1860 C1870 0.950 . S
H1861 C1872 0.950 . S
H1862 C1874 0.950 . S
H1863 C1875 0.950 . S
C1864 H1856 0.950 . S
C1864 C1865 1.386 . S
C1864 C1866 1.391 . S
C1865 C1864 1.386 . S
C1865 C1869 1.393 . S
C1866 H1858 0.950 . S
C1866 C1864 1.391 . S
C1866 C1867 1.400 . S
C1867 C1866 1.400 . S
C1867 C1868 1.398 . S
C1867 C1873 1.491 . S
C1868 H1859 0.950 . S
C1868 C1867 1.398 . S
C1868 C1869 1.391 . S
C1869 H1857 0.950 . S
C1869 C1865 1.393 . S
C1869 C1868 1.391 . S
C1870 H1860 0.950 . S
C1870 C1871 1.386 . S
C1870 C1872 1.391 . S
C1871 C1870 1.386 . S
C1871 C1875 1.393 . S
C1872 H1861 0.950 . S
C1872 C1870 1.391 . S
C1872 C1873 1.400 . S
C1873 C1867 1.491 . S
C1873 C1872 1.400 . S
C1873 C1874 1.398 . S
C1874 H1862 0.950 . S
C1874 C1873 1.398 . S
C1874 C1875 1.391 . S
C1875 H1863 0.950 . S
C1875 C1871 1.393 . S
C1875 C1874 1.391 . S
H1876 C1884 0.950 . S
H1877 C1889 0.950 . S
H1878 C1886 0.950 . S
H1879 C1888 0.950 . S
H1880 C1890 0.950 . S
H1881 C1892 0.950 . S
H1882 C1894 0.950 . S
H1883 C1895 0.950 . S
C1884 H1876 0.950 . S
C1884 C1885 1.386 . S
C1884 C1886 1.391 . S
C1885 C1884 1.386 . S
C1885 C1889 1.393 . S
C1886 H1878 0.950 . S
C1886 C1884 1.391 . S
C1886 C1887 1.400 . S
C1887 C1886 1.400 . S
C1887 C1888 1.398 . S
C1887 C1893 1.491 . S
C1888 H1879 0.950 . S
C1888 C1887 1.398 . S
C1888 C1889 1.391 . S
C1889 H1877 0.950 . S
C1889 C1885 1.393 . S
C1889 C1888 1.391 . S
C1890 H1880 0.950 . S
C1890 C1891 1.386 . S
C1890 C1892 1.391 . S
C1891 C1890 1.386 . S
C1891 C1895 1.393 . S
C1892 H1881 0.950 . S
C1892 C1890 1.391 . S
C1892 C1893 1.400 . S
C1893 C1887 1.491 . S
C1893 C1892 1.400 . S
C1893 C1894 1.398 . S
C1894 H1882 0.950 . S
C1894 C1893 1.398 . S
C1894 C1895 1.391 . S
C1895 H1883 0.950 . S
C1895 C1891 1.393 . S
C1895 C1894 1.391 . S
H1896 C1904 0.897 1_554 S
H1897 C1909 0.950 . S
H1898 C1906 0.950 . S
H1899 C1908 0.950 . S
H1900 C1910 0.950 . S
H1901 C1912 0.950 . S
H1902 C1914 0.950 . S
H1903 C1915 0.950 . S
C1904 H1896 0.897 1_556 S
C1904 C1905 1.415 . S
C1904 C1906 1.417 . S
C1905 C1904 1.415 . S
C1905 C1909 1.393 . S
C1906 H1898 0.950 . S
C1906 C1904 1.417 . S
C1906 C1907 1.400 . S
C1907 C1906 1.400 . S
C1907 C1908 1.398 . S
C1907 C1913 1.491 . S
C1908 H1899 0.950 . S
C1908 C1907 1.398 . S
C1908 C1909 1.391 . S
C1909 H1897 0.950 . S
C1909 C1905 1.393 . S
C1909 C1908 1.391 . S
C1910 H1900 0.950 . S
C1910 C1911 1.386 . S
C1910 C1912 1.391 . S
C1911 C1910 1.386 . S
C1911 C1915 1.393 . S
C1912 H1901 0.950 . S
C1912 C1910 1.391 . S
C1912 C1913 1.400 . S
C1913 C1907 1.491 . S
C1913 C1912 1.400 . S
C1913 C1914 1.398 . S
C1914 H1902 0.950 . S
C1914 C1913 1.398 . S
C1914 C1915 1.391 . S
C1915 H1903 0.950 . S
C1915 C1911 1.393 . S
C1915 C1914 1.391 . S
H1916 C1924 0.950 . S
H1917 C1929 0.950 1_554 S
H1918 C1926 0.950 . S
H1919 C1928 0.950 . S
H1920 C1930 0.950 . S
H1921 C1932 0.950 . S
H1922 C1934 0.950 . S
H1923 C1935 0.950 . S
C1924 H1916 0.950 . S
C1924 C1925 1.386 . S
C1924 C1926 1.391 . S
C1925 C1924 1.386 . S
C1925 C1929 1.393 . S
C1926 H1918 0.950 . S
C1926 C1924 1.391 . S
C1926 C1927 1.400 . S
C1927 C1926 1.400 . S
C1927 C1928 1.398 . S
C1927 C1933 1.491 . S
C1928 H1919 0.950 . S
C1928 C1927 1.398 . S
C1928 C1929 1.391 . S
C1929 H1917 0.950 1_556 S
C1929 C1925 1.393 . S
C1929 C1928 1.391 . S
C1930 H1920 0.950 . S
C1930 C1931 1.386 . S
C1930 C1932 1.391 . S
C1931 C1930 1.386 . S
C1931 C1935 1.393 . S
C1932 H1921 0.950 . S
C1932 C1930 1.391 . S
C1932 C1933 1.400 . S
C1933 C1927 1.491 . S
C1933 C1932 1.400 . S
C1933 C1934 1.398 . S
C1934 H1922 0.950 . S
C1934 C1933 1.398 . S
C1934 C1935 1.391 . S
C1935 H1923 0.950 . S
C1935 C1931 1.393 . S
C1935 C1934 1.391 . S
H1936 C1944 0.950 . S
H1937 C1949 0.950 . S
H1938 C1946 0.950 . S
H1939 C1948 0.950 . S
H1940 C1950 0.950 . S
H1941 C1952 0.950 . S
H1942 C1954 0.950 . S
H1943 C1955 0.950 . S
C1944 H1936 0.950 . S
C1944 C1945 1.386 . S
C1944 C1946 1.391 . S
C1945 C1944 1.386 . S
C1945 C1949 1.393 . S
C1946 H1938 0.950 . S
C1946 C1944 1.391 . S
C1946 C1947 1.400 . S
C1947 C1946 1.400 . S
C1947 C1948 1.398 . S
C1947 C1953 1.491 . S
C1948 H1939 0.950 . S
C1948 C1947 1.398 . S
C1948 C1949 1.391 . S
C1949 H1937 0.950 . S
C1949 C1945 1.393 . S
C1949 C1948 1.391 . S
C1950 H1940 0.950 . S
C1950 C1951 1.386 . S
C1950 C1952 1.391 . S
C1951 C1950 1.386 . S
C1951 C1955 1.393 . S
C1952 H1941 0.950 . S
C1952 C1950 1.391 . S
C1952 C1953 1.400 . S
C1953 C1947 1.491 . S
C1953 C1952 1.400 . S
C1953 C1954 1.398 . S
C1954 H1942 0.950 . S
C1954 C1953 1.398 . S
C1954 C1955 1.391 . S
C1955 H1943 0.950 . S
C1955 C1951 1.393 . S
C1955 C1954 1.391 . S
H1956 C1964 0.950 1_554 S
H1957 C1969 0.950 . S
H1958 C1966 0.950 . S
H1959 C1968 0.950 . S
H1960 C1970 0.950 . S
H1961 C1972 0.950 . S
H1962 C1974 0.950 . S
H1963 C1975 0.950 . S
C1964 H1956 0.950 1_556 S
C1964 C1965 1.386 . S
C1964 C1966 1.391 . S
C1965 C1964 1.386 . S
C1965 C1969 1.393 . S
C1966 H1958 0.950 . S
C1966 C1964 1.391 . S
C1966 C1967 1.400 . S
C1967 C1966 1.400 . S
C1967 C1968 1.398 . S
C1967 C1973 1.491 . S
C1968 H1959 0.950 . S
C1968 C1967 1.398 . S
C1968 C1969 1.391 . S
C1969 H1957 0.950 . S
C1969 C1965 1.393 . S
C1969 C1968 1.391 . S
C1970 H1960 0.950 . S
C1970 C1971 1.386 . S
C1970 C1972 1.391 . S
C1971 C1970 1.386 . S
C1971 C1975 1.393 . S
C1972 H1961 0.950 . S
C1972 C1970 1.391 . S
C1972 C1973 1.400 . S
C1973 C1967 1.491 . S
C1973 C1972 1.400 . S
C1973 C1974 1.398 . S
C1974 H1962 0.950 . S
C1974 C1973 1.398 . S
C1974 C1975 1.391 . S
C1975 H1963 0.950 . S
C1975 C1971 1.393 . S
C1975 C1974 1.391 . S
H1976 C1984 0.950 . S
H1977 C1989 0.950 . S
H1978 C1986 0.950 . S
H1979 C1988 0.950 . S
H1980 C1990 0.950 . S
H1981 C1992 0.950 . S
H1982 C1994 0.950 . S
H1983 C1995 0.950 . S
C1984 H1976 0.950 . S
C1984 C1985 1.386 . S
C1984 C1986 1.391 . S
C1985 C1984 1.386 . S
C1985 C1989 1.393 . S
C1986 H1978 0.950 . S
C1986 C1984 1.391 . S
C1986 C1987 1.400 . S
C1987 C1986 1.400 . S
C1987 C1988 1.398 . S
C1987 C1993 1.491 . S
C1988 H1979 0.950 . S
C1988 C1987 1.398 . S
C1988 C1989 1.391 . S
C1989 H1977 0.950 . S
C1989 C1985 1.393 . S
C1989 C1988 1.391 . S
C1990 H1980 0.950 . S
C1990 C1991 1.386 . S
C1990 C1992 1.391 . S
C1991 C1990 1.386 . S
C1991 C1995 1.393 . S
C1992 H1981 0.950 . S
C1992 C1990 1.391 . S
C1992 C1993 1.400 . S
C1993 C1987 1.491 . S
C1993 C1992 1.400 . S
C1993 C1994 1.398 . S
C1994 H1982 0.950 . S
C1994 C1993 1.398 . S
C1994 C1995 1.391 . S
C1995 H1983 0.950 . S
C1995 C1991 1.393 . S
C1995 C1994 1.391 . S
H1996 C2004 0.950 . S
H1997 C2009 0.964 . S
H1998 C2006 0.950 . S
H1999 C2008 0.950 . S
H2000 C2010 0.950 . S
H2001 C2012 0.950 . S
H2002 C2014 0.950 . S
H2003 C2015 0.950 . S
C2004 H1996 0.950 . S
C2004 C2005 1.386 . S
C2004 C2006 1.391 . S
C2005 C2004 1.386 . S
C2005 C2009 1.386 1_556 S
C2006 H1998 0.950 . S
C2006 C2004 1.391 . S
C2006 C2007 1.400 . S
C2007 C2006 1.400 . S
C2007 C2008 1.398 . S
C2007 C2013 1.491 . S
C2008 H1999 0.950 . S
C2008 C2007 1.398 . S
C2008 C2009 1.384 1_556 S
C2009 H1997 0.964 . S
C2009 C2005 1.386 1_554 S
C2009 C2008 1.384 1_554 S
C2010 H2000 0.950 . S
C2010 C2011 1.386 . S
C2010 C2012 1.391 . S
C2011 C2010 1.386 . S
C2011 C2015 1.393 . S
C2012 H2001 0.950 . S
C2012 C2010 1.391 . S
C2012 C2013 1.400 . S
C2013 C2007 1.491 . S
C2013 C2012 1.400 . S
C2013 C2014 1.398 . S
C2014 H2002 0.950 . S
C2014 C2013 1.398 . S
C2014 C2015 1.391 . S
C2015 H2003 0.950 . S
C2015 C2011 1.393 . S
C2015 C2014 1.391 . S
H2016 C2024 0.950 . S
H2017 C2029 0.950 . S
H2018 C2026 0.950 . S
H2019 C2028 0.950 . S
H2020 C2030 0.950 . S
H2021 C2032 0.950 . S
H2022 C2034 0.950 . S
H2023 C2035 0.950 . S
C2024 H2016 0.950 . S
C2024 C2025 1.386 . S
C2024 C2026 1.391 . S
C2025 C2024 1.386 . S
C2025 C2029 1.393 . S
C2026 H2018 0.950 . S
C2026 C2024 1.391 . S
C2026 C2027 1.400 . S
C2027 C2026 1.400 . S
C2027 C2028 1.398 . S
C2027 C2033 1.491 . S
C2028 H2019 0.950 . S
C2028 C2027 1.398 . S
C2028 C2029 1.391 . S
C2029 H2017 0.950 . S
C2029 C2025 1.393 . S
C2029 C2028 1.391 . S
C2030 H2020 0.950 . S
C2030 C2031 1.386 . S
C2030 C2032 1.391 . S
C2031 C2030 1.386 . S
C2031 C2035 1.393 . S
C2032 H2021 0.950 . S
C2032 C2030 1.391 . S
C2032 C2033 1.400 . S
C2033 C2027 1.491 . S
C2033 C2032 1.400 . S
C2033 C2034 1.398 . S
C2034 H2022 0.950 . S
C2034 C2033 1.398 . S
C2034 C2035 1.391 . S
C2035 H2023 0.950 . S
C2035 C2031 1.393 . S
C2035 C2034 1.391 . S
H2036 C2044 0.950 . S
H2037 C2049 0.950 . S
H2038 C2046 0.950 . S
H2039 C2048 0.950 . S
H2040 C2050 0.950 . S
H2041 C2052 0.950 . S
H2042 C2054 0.950 . S
H2043 C2055 0.950 . S
C2044 H2036 0.950 . S
C2044 C2045 1.386 . S
C2044 C2046 1.391 . S
C2045 C2044 1.386 . S
C2045 C2049 1.393 . S
C2046 H2038 0.950 . S
C2046 C2044 1.391 . S
C2046 C2047 1.400 . S
C2047 C2046 1.400 . S
C2047 C2048 1.398 . S
C2047 C2053 1.491 . S
C2048 H2039 0.950 . S
C2048 C2047 1.398 . S
C2048 C2049 1.391 . S
C2049 H2037 0.950 . S
C2049 C2045 1.393 . S
C2049 C2048 1.391 . S
C2050 H2040 0.950 . S
C2050 C2051 1.386 . S
C2050 C2052 1.391 . S
C2051 C2050 1.386 . S
C2051 C2055 1.393 . S
C2052 H2041 0.950 . S
C2052 C2050 1.391 . S
C2052 C2053 1.400 . S
C2053 C2047 1.491 . S
C2053 C2052 1.400 . S
C2053 C2054 1.398 . S
C2054 H2042 0.950 . S
C2054 C2053 1.398 . S
C2054 C2055 1.391 . S
C2055 H2043 0.950 . S
C2055 C2051 1.393 . S
C2055 C2054 1.391 . S
H2056 C2064 0.950 . S
H2057 C2069 0.950 . S
H2058 C2066 0.950 . S
H2059 C2068 0.950 . S
H2060 C2070 0.950 . S
H2061 C2072 0.950 . S
H2062 C2074 0.950 . S
H2063 C2075 0.950 . S
C2064 H2056 0.950 . S
C2064 C2065 1.386 . S
C2064 C2066 1.391 . S
C2065 C2064 1.386 . S
C2065 C2069 1.393 . S
C2066 H2058 0.950 . S
C2066 C2064 1.391 . S
C2066 C2067 1.400 . S
C2067 C2066 1.400 . S
C2067 C2068 1.398 . S
C2067 C2073 1.491 . S
C2068 H2059 0.950 . S
C2068 C2067 1.398 . S
C2068 C2069 1.391 . S
C2069 H2057 0.950 . S
C2069 C2065 1.393 . S
C2069 C2068 1.391 . S
C2070 H2060 0.950 . S
C2070 C2071 1.386 . S
C2070 C2072 1.391 . S
C2071 C2070 1.386 . S
C2071 C2075 1.393 . S
C2072 H2061 0.950 . S
C2072 C2070 1.391 . S
C2072 C2073 1.400 . S
C2073 C2067 1.491 . S
C2073 C2072 1.400 . S
C2073 C2074 1.398 . S
C2074 H2062 0.950 . S
C2074 C2073 1.398 . S
C2074 C2075 1.391 . S
C2075 H2063 0.950 . S
C2075 C2071 1.393 . S
C2075 C2074 1.391 . S
H2076 C2084 0.950 . S
H2077 C2089 0.950 . S
H2078 C2086 0.950 . S
H2079 C2088 0.950 . S
H2080 C2090 0.950 . S
H2081 C2092 0.950 . S
H2082 C2094 0.950 . S
H2083 C2095 0.950 . S
C2084 H2076 0.950 . S
C2084 C2085 1.386 . S
C2084 C2086 1.391 . S
C2085 C2084 1.386 . S
C2085 C2089 1.393 . S
C2086 H2078 0.950 . S
C2086 C2084 1.391 . S
C2086 C2087 1.400 . S
C2087 C2086 1.400 . S
C2087 C2088 1.398 . S
C2087 C2093 1.491 . S
C2088 H2079 0.950 . S
C2088 C2087 1.398 . S
C2088 C2089 1.391 . S
C2089 H2077 0.950 . S
C2089 C2085 1.393 . S
C2089 C2088 1.391 . S
C2090 H2080 0.950 . S
C2090 C2091 1.386 . S
C2090 C2092 1.391 . S
C2091 C2090 1.386 . S
C2091 C2095 1.393 . S
C2092 H2081 0.950 . S
C2092 C2090 1.391 . S
C2092 C2093 1.400 . S
C2093 C2087 1.491 . S
C2093 C2092 1.400 . S
C2093 C2094 1.398 . S
C2094 H2082 0.950 . S
C2094 C2093 1.398 . S
C2094 C2095 1.391 . S
C2095 H2083 0.950 . S
C2095 C2091 1.393 . S
C2095 C2094 1.391 . S
H2096 C2104 0.950 . S
H2097 C2109 0.950 . S
H2098 C2106 0.950 . S
H2099 C2108 0.950 . S
H2100 C2110 0.950 . S
H2101 C2112 0.950 . S
H2102 C2114 0.950 . S
H2103 C2115 0.950 . S
C2104 H2096 0.950 . S
C2104 C2105 1.386 . S
C2104 C2106 1.391 . S
C2105 C2104 1.386 . S
C2105 C2109 1.393 . S
C2106 H2098 0.950 . S
C2106 C2104 1.391 . S
C2106 C2107 1.400 . S
C2107 C2106 1.400 . S
C2107 C2108 1.398 . S
C2107 C2113 1.491 . S
C2108 H2099 0.950 . S
C2108 C2107 1.398 . S
C2108 C2109 1.391 . S
C2109 H2097 0.950 . S
C2109 C2105 1.393 . S
C2109 C2108 1.391 . S
C2110 H2100 0.950 . S
C2110 C2111 1.386 . S
C2110 C2112 1.391 . S
C2111 C2110 1.386 . S
C2111 C2115 1.393 . S
C2112 H2101 0.950 . S
C2112 C2110 1.391 . S
C2112 C2113 1.400 . S
C2113 C2107 1.491 . S
C2113 C2112 1.400 . S
C2113 C2114 1.398 . S
C2114 H2102 0.950 . S
C2114 C2113 1.398 . S
C2114 C2115 1.391 . S
C2115 H2103 0.950 . S
C2115 C2111 1.393 . S
C2115 C2114 1.391 . S
H2116 C2124 0.950 . S
H2117 C2129 0.950 . S
H2118 C2126 0.950 . S
H2119 C2128 0.950 . S
H2120 C2130 0.950 . S
H2121 C2132 0.950 . S
H2122 C2134 0.950 . S
H2123 C2135 0.950 . S
C2124 H2116 0.950 . S
C2124 C2125 1.386 . S
C2124 C2126 1.391 . S
C2125 C2124 1.386 . S
C2125 C2129 1.393 . S
C2126 H2118 0.950 . S
C2126 C2124 1.391 . S
C2126 C2127 1.400 . S
C2127 C2126 1.400 . S
C2127 C2128 1.398 . S
C2127 C2133 1.491 . S
C2128 H2119 0.950 . S
C2128 C2127 1.398 . S
C2128 C2129 1.391 . S
C2129 H2117 0.950 . S
C2129 C2125 1.393 . S
C2129 C2128 1.391 . S
C2130 H2120 0.950 . S
C2130 C2131 1.386 . S
C2130 C2132 1.391 . S
C2131 C2130 1.386 . S
C2131 C2135 1.393 . S
C2132 H2121 0.950 . S
C2132 C2130 1.391 . S
C2132 C2133 1.400 . S
C2133 C2127 1.491 . S
C2133 C2132 1.400 . S
C2133 C2134 1.398 . S
C2134 H2122 0.950 . S
C2134 C2133 1.398 . S
C2134 C2135 1.391 . S
C2135 H2123 0.950 . S
C2135 C2131 1.393 . S
C2135 C2134 1.391 . S
H2136 C2144 0.950 . S
H2137 C2149 0.976 . S
H2138 C2146 0.950 . S
H2139 C2148 0.950 1_655 S
H2140 C2150 0.950 . S
H2141 C2152 0.951 . S
H2142 C2154 0.950 . S
H2143 C2155 0.950 . S
C2144 H2136 0.950 . S
C2144 C2145 1.386 . S
C2144 C2146 1.391 . S
C2145 C2144 1.386 . S
C2145 C2149 1.393 . S
C2146 H2138 0.950 . S
C2146 C2144 1.391 . S
C2146 C2147 1.400 . S
C2147 C2146 1.400 . S
C2147 C2148 1.398 . S
C2147 C2153 1.491 . S
C2148 H2139 0.950 1_455 S
C2148 C2147 1.398 . S
C2148 C2149 1.391 . S
C2149 H2137 0.976 . S
C2149 C2145 1.393 . S
C2149 C2148 1.391 . S
C2150 H2140 0.950 . S
C2150 C2151 1.386 1_655 S
C2150 C2152 1.394 . S
C2151 C2150 1.386 1_455 S
C2151 C2155 1.393 . S
C2152 H2141 0.951 . S
C2152 C2150 1.394 . S
C2152 C2153 1.395 1_655 S
C2153 C2147 1.491 . S
C2153 C2152 1.395 1_455 S
C2153 C2154 1.398 . S
C2154 H2142 0.950 . S
C2154 C2153 1.398 . S
C2154 C2155 1.391 . S
C2155 H2143 0.950 . S
C2155 C2151 1.393 . S
C2155 C2154 1.391 . S
H2156 C2164 0.950 . S
H2157 C2169 0.950 . S
H2158 C2166 0.950 . S
H2159 C2168 0.950 . S
H2160 C2170 0.950 . S
H2161 C2172 0.950 . S
H2162 C2174 0.950 . S
H2163 C2175 0.950 . S
C2164 H2156 0.950 . S
C2164 C2165 1.386 . S
C2164 C2166 1.391 . S
C2165 C2164 1.386 . S
C2165 C2169 1.393 . S
C2166 H2158 0.950 . S
C2166 C2164 1.391 . S
C2166 C2167 1.400 . S
C2167 C2166 1.400 . S
C2167 C2168 1.398 . S
C2167 C2173 1.491 . S
C2168 H2159 0.950 . S
C2168 C2167 1.398 . S
C2168 C2169 1.391 . S
C2169 H2157 0.950 . S
C2169 C2165 1.393 . S
C2169 C2168 1.391 . S
C2170 H2160 0.950 . S
C2170 C2171 1.386 . S
C2170 C2172 1.391 . S
C2171 C2170 1.386 . S
C2171 C2175 1.393 . S
C2172 H2161 0.950 . S
C2172 C2170 1.391 . S
C2172 C2173 1.400 . S
C2173 C2167 1.491 . S
C2173 C2172 1.400 . S
C2173 C2174 1.398 . S
C2174 H2162 0.950 . S
C2174 C2173 1.398 . S
C2174 C2175 1.391 . S
C2175 H2163 0.950 . S
C2175 C2171 1.393 . S
C2175 C2174 1.391 . S
H2176 C2184 0.950 . S
H2177 C2189 0.950 . S
H2178 C2186 0.938 1_545 S
H2179 C2188 0.950 . S
H2180 C2190 0.950 . S
H2181 C2192 0.950 . S
H2182 C2194 0.950 1_545 S
H2183 C2195 0.953 . S
C2184 H2176 0.950 . S
C2184 C2185 1.386 . S
C2184 C2186 1.391 . S
C2185 C2184 1.386 . S
C2185 C2189 1.393 . S
C2186 H2178 0.938 1_565 S
C2186 C2184 1.391 . S
C2186 C2187 1.400 . S
C2187 C2186 1.400 . S
C2187 C2188 1.398 . S
C2187 C2193 1.491 . S
C2188 H2179 0.950 . S
C2188 C2187 1.398 . S
C2188 C2189 1.391 . S
C2189 H2177 0.950 . S
C2189 C2185 1.393 . S
C2189 C2188 1.391 . S
C2190 H2180 0.950 . S
C2190 C2191 1.386 . S
C2190 C2192 1.391 . S
C2191 C2190 1.386 . S
C2191 C2195 1.387 1_565 S
C2192 H2181 0.950 . S
C2192 C2190 1.391 . S
C2192 C2193 1.400 . S
C2193 C2187 1.491 . S
C2193 C2192 1.400 . S
C2193 C2194 1.398 . S
C2194 H2182 0.950 1_565 S
C2194 C2193 1.398 . S
C2194 C2195 1.393 1_565 S
C2195 H2183 0.953 . S
C2195 C2191 1.387 1_545 S
C2195 C2194 1.393 1_545 S
H2196 C2204 0.956 . S
H2197 C2209 0.950 . S
H2198 C2206 0.950 . S
H2199 C2208 0.950 . S
H2200 C2210 0.950 . S
H2201 C2212 0.950 . S
H2202 C2214 0.950 . S
H2203 C2215 0.950 . S
C2204 H2196 0.956 . S
C2204 C2205 1.370 1_545 S
C2204 C2206 1.400 . S
C2205 C2204 1.370 1_565 S
C2205 C2209 1.393 . S
C2206 H2198 0.950 . S
C2206 C2204 1.400 . S
C2206 C2207 1.400 1_545 S
C2207 C2206 1.400 1_565 S
C2207 C2208 1.398 . S
C2207 C2213 1.491 . S
C2208 H2199 0.950 . S
C2208 C2207 1.398 . S
C2208 C2209 1.391 . S
C2209 H2197 0.950 . S
C2209 C2205 1.393 . S
C2209 C2208 1.391 . S
C2210 H2200 0.950 . S
C2210 C2211 1.386 . S
C2210 C2212 1.391 . S
C2211 C2210 1.386 . S
C2211 C2215 1.393 1_565 S
C2212 H2201 0.950 . S
C2212 C2210 1.391 . S
C2212 C2213 1.400 . S
C2213 C2207 1.491 . S
C2213 C2212 1.400 . S
C2213 C2214 1.398 1_565 S
C2214 H2202 0.950 . S
C2214 C2213 1.398 1_545 S
C2214 C2215 1.391 . S
C2215 H2203 0.950 . S
C2215 C2211 1.393 1_545 S
C2215 C2214 1.391 . S
H2216 C2224 0.950 . S
H2217 C2229 0.950 1_655 S
H2218 C2226 0.950 . S
H2219 C2228 0.950 . S
H2220 C2230 0.950 . S
H2221 C2232 0.950 . S
H2222 C2234 0.950 . S
H2223 C2235 0.950 . S
C2224 H2216 0.950 . S
C2224 C2225 1.386 . S
C2224 C2226 1.391 . S
C2225 C2224 1.386 . S
C2225 C2229 1.393 . S
C2226 H2218 0.950 . S
C2226 C2224 1.391 . S
C2226 C2227 1.400 . S
C2227 C2226 1.400 . S
C2227 C2228 1.398 1_455 S
C2227 C2233 1.491 . S
C2228 H2219 0.950 . S
C2228 C2227 1.398 1_655 S
C2228 C2229 1.391 1_655 S
C2229 H2217 0.950 1_455 S
C2229 C2225 1.393 . S
C2229 C2228 1.391 1_455 S
C2230 H2220 0.950 . S
C2230 C2231 1.386 1_655 S
C2230 C2232 1.391 . S
C2231 C2230 1.386 1_455 S
C2231 C2235 1.393 . S
C2232 H2221 0.950 . S
C2232 C2230 1.391 . S
C2232 C2233 1.400 1_655 S
C2233 C2227 1.491 . S
C2233 C2232 1.400 1_455 S
C2233 C2234 1.398 . S
C2234 H2222 0.950 . S
C2234 C2233 1.398 . S
C2234 C2235 1.391 . S
C2235 H2223 0.950 . S
C2235 C2231 1.393 . S
C2235 C2234 1.391 . S
H2236 C2244 0.950 . S
H2237 C2249 0.950 . S
H2238 C2246 0.950 . S
H2239 C2248 0.950 . S
H2240 C2250 0.950 . S
H2241 C2252 0.950 . S
H2242 C2254 0.950 . S
H2243 C2255 0.950 . S
C2244 H2236 0.950 . S
C2244 C2245 1.386 . S
C2244 C2246 1.391 . S
C2245 C2244 1.386 . S
C2245 C2249 1.393 . S
C2246 H2238 0.950 . S
C2246 C2244 1.391 . S
C2246 C2247 1.400 . S
C2247 C2246 1.400 . S
C2247 C2248 1.398 . S
C2247 C2253 1.491 . S
C2248 H2239 0.950 . S
C2248 C2247 1.398 . S
C2248 C2249 1.391 . S
C2249 H2237 0.950 . S
C2249 C2245 1.393 . S
C2249 C2248 1.391 . S
C2250 H2240 0.950 . S
C2250 C2251 1.386 . S
C2250 C2252 1.391 . S
C2251 C2250 1.386 . S
C2251 C2255 1.393 . S
C2252 H2241 0.950 . S
C2252 C2250 1.391 . S
C2252 C2253 1.400 . S
C2253 C2247 1.491 . S
C2253 C2252 1.400 . S
C2253 C2254 1.398 . S
C2254 H2242 0.950 . S
C2254 C2253 1.398 . S
C2254 C2255 1.391 . S
C2255 H2243 0.950 . S
C2255 C2251 1.393 . S
C2255 C2254 1.391 . S
H2256 C2264 0.950 . S
H2257 C2269 0.950 . S
H2258 C2266 0.950 . S
H2259 C2268 0.950 . S
H2260 C2270 0.950 . S
H2261 C2272 0.950 . S
H2262 C2274 0.950 . S
H2263 C2275 0.950 . S
C2264 H2256 0.950 . S
C2264 C2265 1.386 . S
C2264 C2266 1.391 . S
C2265 C2264 1.386 . S
C2265 C2269 1.393 . S
C2266 H2258 0.950 . S
C2266 C2264 1.391 . S
C2266 C2267 1.400 . S
C2267 C2266 1.400 . S
C2267 C2268 1.398 . S
C2267 C2273 1.491 . S
C2268 H2259 0.950 . S
C2268 C2267 1.398 . S
C2268 C2269 1.391 . S
C2269 H2257 0.950 . S
C2269 C2265 1.393 . S
C2269 C2268 1.391 . S
C2270 H2260 0.950 . S
C2270 C2271 1.386 . S
C2270 C2272 1.391 . S
C2271 C2270 1.386 . S
C2271 C2275 1.393 . S
C2272 H2261 0.950 . S
C2272 C2270 1.391 . S
C2272 C2273 1.400 . S
C2273 C2267 1.491 . S
C2273 C2272 1.400 . S
C2273 C2274 1.398 . S
C2274 H2262 0.950 . S
C2274 C2273 1.398 . S
C2274 C2275 1.391 . S
C2275 H2263 0.950 . S
C2275 C2271 1.393 . S
C2275 C2274 1.391 . S
H2276 C2284 0.950 . S
H2277 C2289 0.950 . S
H2278 C2286 0.950 . S
H2279 C2288 0.950 . S
H2280 C2290 0.950 . S
H2281 C2292 0.950 . S
H2282 C2294 0.950 . S
H2283 C2295 0.950 . S
C2284 H2276 0.950 . S
C2284 C2285 1.386 . S
C2284 C2286 1.391 . S
C2285 C2284 1.386 . S
C2285 C2289 1.393 . S
C2286 H2278 0.950 . S
C2286 C2284 1.391 . S
C2286 C2287 1.400 . S
C2287 C2286 1.400 . S
C2287 C2288 1.398 . S
C2287 C2293 1.491 . S
C2288 H2279 0.950 . S
C2288 C2287 1.398 . S
C2288 C2289 1.391 . S
C2289 H2277 0.950 . S
C2289 C2285 1.393 . S
C2289 C2288 1.391 . S
C2290 H2280 0.950 . S
C2290 C2291 1.386 . S
C2290 C2292 1.391 . S
C2291 C2290 1.386 . S
C2291 C2295 1.393 . S
C2292 H2281 0.950 . S
C2292 C2290 1.391 . S
C2292 C2293 1.400 . S
C2293 C2287 1.491 . S
C2293 C2292 1.400 . S
C2293 C2294 1.398 . S
C2294 H2282 0.950 . S
C2294 C2293 1.398 . S
C2294 C2295 1.391 . S
C2295 H2283 0.950 . S
C2295 C2291 1.393 . S
C2295 C2294 1.391 . S
H2296 C2304 0.950 . S
H2297 C2309 0.950 . S
H2298 C2306 0.950 . S
H2299 C2308 0.950 . S
H2300 C2310 0.950 . S
H2301 C2312 0.950 . S
H2302 C2314 0.950 . S
H2303 C2315 0.950 . S
C2304 H2296 0.950 . S
C2304 C2305 1.386 . S
C2304 C2306 1.391 . S
C2305 C2304 1.386 . S
C2305 C2309 1.393 . S
C2306 H2298 0.950 . S
C2306 C2304 1.391 . S
C2306 C2307 1.400 . S
C2307 C2306 1.400 . S
C2307 C2308 1.398 . S
C2307 C2313 1.491 . S
C2308 H2299 0.950 . S
C2308 C2307 1.398 . S
C2308 C2309 1.391 . S
C2309 H2297 0.950 . S
C2309 C2305 1.393 . S
C2309 C2308 1.391 . S
C2310 H2300 0.950 . S
C2310 C2311 1.386 . S
C2310 C2312 1.391 . S
C2311 C2310 1.386 . S
C2311 C2315 1.393 . S
C2312 H2301 0.950 . S
C2312 C2310 1.391 . S
C2312 C2313 1.400 . S
C2313 C2307 1.491 . S
C2313 C2312 1.400 . S
C2313 C2314 1.398 . S
C2314 H2302 0.950 . S
C2314 C2313 1.398 . S
C2314 C2315 1.391 . S
C2315 H2303 0.950 . S
C2315 C2311 1.393 . S
C2315 C2314 1.391 . S
H2316 C2324 0.950 . S
H2317 C2329 0.950 . S
H2318 C2326 0.950 . S
H2319 C2328 0.950 . S
H2320 C2330 0.950 . S
H2321 C2332 0.950 . S
H2322 C2334 0.951 . S
H2323 C2335 0.939 1_565 S
C2324 H2316 0.950 . S
C2324 C2325 1.386 . S
C2324 C2326 1.391 . S
C2325 C2324 1.386 . S
C2325 C2329 1.393 . S
C2326 H2318 0.950 . S
C2326 C2324 1.391 . S
C2326 C2327 1.400 . S
C2327 C2326 1.400 . S
C2327 C2328 1.398 . S
C2327 C2333 1.491 . S
C2328 H2319 0.950 . S
C2328 C2327 1.398 . S
C2328 C2329 1.391 . S
C2329 H2317 0.950 . S
C2329 C2325 1.393 . S
C2329 C2328 1.391 . S
C2330 H2320 0.950 . S
C2330 C2331 1.386 . S
C2330 C2332 1.391 . S
C2331 C2330 1.386 . S
C2331 C2335 1.394 . S
C2332 H2321 0.950 . S
C2332 C2330 1.391 . S
C2332 C2333 1.400 . S
C2333 C2327 1.491 . S
C2333 C2332 1.400 . S
C2333 C2334 1.398 . S
C2334 H2322 0.951 . S
C2334 C2333 1.398 . S
C2334 C2335 1.400 . S
C2335 H2323 0.939 1_545 S
C2335 C2331 1.394 . S
C2335 C2334 1.400 . S
H2336 C2344 1.016 . S
H2337 C2349 0.950 . S
H2338 C2346 0.950 . S
H2339 C2348 0.950 . S
H2340 C2350 0.950 . S
H2341 C2352 0.950 . S
H2342 C2354 0.950 . S
H2343 C2355 0.950 . S
C2344 H2336 1.016 . S
C2344 C2345 1.345 1_455 S
C2344 C2346 1.368 . S
C2345 C2344 1.345 1_655 S
C2345 C2349 1.393 . S
C2346 H2338 0.950 . S
C2346 C2344 1.368 . S
C2346 C2347 1.400 1_455 S
C2347 C2346 1.400 1_655 S
C2347 C2348 1.398 . S
C2347 C2353 1.491 . S
C2348 H2339 0.950 . S
C2348 C2347 1.398 . S
C2348 C2349 1.391 . S
C2349 H2337 0.950 . S
C2349 C2345 1.393 . S
C2349 C2348 1.391 . S
C2350 H2340 0.950 . S
C2350 C2351 1.386 . S
C2350 C2352 1.391 . S
C2351 C2350 1.386 . S
C2351 C2355 1.393 1_655 S
C2352 H2341 0.950 . S
C2352 C2350 1.391 . S
C2352 C2353 1.400 . S
C2353 C2347 1.491 . S
C2353 C2352 1.400 . S
C2353 C2354 1.398 1_655 S
C2354 H2342 0.950 . S
C2354 C2353 1.398 1_455 S
C2354 C2355 1.391 . S
C2355 H2343 0.950 . S
C2355 C2351 1.393 1_455 S
C2355 C2354 1.391 . S
H2356 C2364 0.950 . S
H2357 C2369 0.950 . S
H2358 C2366 0.950 . S
H2359 C2368 0.950 . S
H2360 C2370 0.950 . S
H2361 C2372 0.950 . S
H2362 C2374 0.950 . S
H2363 C2375 0.950 . S
C2364 H2356 0.950 . S
C2364 C2365 1.386 . S
C2364 C2366 1.391 . S
C2365 C2364 1.386 . S
C2365 C2369 1.393 . S
C2366 H2358 0.950 . S
C2366 C2364 1.391 . S
C2366 C2367 1.400 . S
C2367 C2366 1.400 . S
C2367 C2368 1.398 . S
C2367 C2373 1.491 . S
C2368 H2359 0.950 . S
C2368 C2367 1.398 . S
C2368 C2369 1.391 . S
C2369 H2357 0.950 . S
C2369 C2365 1.393 . S
C2369 C2368 1.391 . S
C2370 H2360 0.950 . S
C2370 C2371 1.386 . S
C2370 C2372 1.391 . S
C2371 C2370 1.386 . S
C2371 C2375 1.393 . S
C2372 H2361 0.950 . S
C2372 C2370 1.391 . S
C2372 C2373 1.400 . S
C2373 C2367 1.491 . S
C2373 C2372 1.400 . S
C2373 C2374 1.398 . S
C2374 H2362 0.950 . S
C2374 C2373 1.398 . S
C2374 C2375 1.391 . S
C2375 H2363 0.950 . S
C2375 C2371 1.393 . S
C2375 C2374 1.391 . S
H2376 C2384 0.950 . S
H2377 C2389 0.950 . S
H2378 C2386 0.950 . S
H2379 C2388 0.950 . S
H2380 C2390 0.950 . S
H2381 C2392 0.950 . S
H2382 C2394 0.950 . S
H2383 C2395 0.950 . S
C2384 H2376 0.950 . S
C2384 C2385 1.386 . S
C2384 C2386 1.391 . S
C2385 C2384 1.386 . S
C2385 C2389 1.393 . S
C2386 H2378 0.950 . S
C2386 C2384 1.391 . S
C2386 C2387 1.400 . S
C2387 C2386 1.400 . S
C2387 C2388 1.398 . S
C2387 C2393 1.491 . S
C2388 H2379 0.950 . S
C2388 C2387 1.398 . S
C2388 C2389 1.391 . S
C2389 H2377 0.950 . S
C2389 C2385 1.393 . S
C2389 C2388 1.391 . S
C2390 H2380 0.950 . S
C2390 C2391 1.386 . S
C2390 C2392 1.391 . S
C2391 C2390 1.386 . S
C2391 C2395 1.393 . S
C2392 H2381 0.950 . S
C2392 C2390 1.391 . S
C2392 C2393 1.400 . S
C2393 C2387 1.491 . S
C2393 C2392 1.400 . S
C2393 C2394 1.398 . S
C2394 H2382 0.950 . S
C2394 C2393 1.398 . S
C2394 C2395 1.391 . S
C2395 H2383 0.950 . S
C2395 C2391 1.393 . S
C2395 C2394 1.391 . S
H2396 C2404 0.950 . S
H2397 C2409 0.950 . S
H2398 C2406 0.950 . S
H2399 C2408 0.950 . S
H2400 C2410 0.950 . S
H2401 C2412 0.950 . S
H2402 C2414 0.950 . S
H2403 C2415 0.950 . S
C2404 H2396 0.950 . S
C2404 C2405 1.386 . S
C2404 C2406 1.391 . S
C2405 C2404 1.386 . S
C2405 C2409 1.393 . S
C2406 H2398 0.950 . S
C2406 C2404 1.391 . S
C2406 C2407 1.400 . S
C2407 C2406 1.400 . S
C2407 C2408 1.398 . S
C2407 C2413 1.491 . S
C2408 H2399 0.950 . S
C2408 C2407 1.398 . S
C2408 C2409 1.391 . S
C2409 H2397 0.950 . S
C2409 C2405 1.393 . S
C2409 C2408 1.391 . S
C2410 H2400 0.950 . S
C2410 C2411 1.386 . S
C2410 C2412 1.391 . S
C2411 C2410 1.386 . S
C2411 C2415 1.393 . S
C2412 H2401 0.950 . S
C2412 C2410 1.391 . S
C2412 C2413 1.400 . S
C2413 C2407 1.491 . S
C2413 C2412 1.400 . S
C2413 C2414 1.398 . S
C2414 H2402 0.950 . S
C2414 C2413 1.398 . S
C2414 C2415 1.391 . S
C2415 H2403 0.950 . S
C2415 C2411 1.393 . S
C2415 C2414 1.391 . S
H2416 C2424 0.950 . S
H2417 C2429 0.950 . S
H2418 C2426 0.950 . S
H2419 C2428 0.950 . S
H2420 C2430 0.950 . S
H2421 C2432 0.950 . S
H2422 C2434 0.950 . S
H2423 C2435 0.950 . S
C2424 H2416 0.950 . S
C2424 C2425 1.386 . S
C2424 C2426 1.391 . S
C2425 C2424 1.386 . S
C2425 C2429 1.393 . S
C2426 H2418 0.950 . S
C2426 C2424 1.391 . S
C2426 C2427 1.400 . S
C2427 C2426 1.400 . S
C2427 C2428 1.398 . S
C2427 C2433 1.491 . S
C2428 H2419 0.950 . S
C2428 C2427 1.398 . S
C2428 C2429 1.391 . S
C2429 H2417 0.950 . S
C2429 C2425 1.393 . S
C2429 C2428 1.391 . S
C2430 H2420 0.950 . S
C2430 C2431 1.386 . S
C2430 C2432 1.391 . S
C2431 C2430 1.386 . S
C2431 C2435 1.393 . S
C2432 H2421 0.950 . S
C2432 C2430 1.391 . S
C2432 C2433 1.400 . S
C2433 C2427 1.491 . S
C2433 C2432 1.400 . S
C2433 C2434 1.398 . S
C2434 H2422 0.950 . S
C2434 C2433 1.398 . S
C2434 C2435 1.391 . S
C2435 H2423 0.950 . S
C2435 C2431 1.393 . S
C2435 C2434 1.391 . S
H2436 C2444 0.950 . S
H2437 C2449 0.950 . S
H2438 C2446 0.950 . S
H2439 C2448 0.950 . S
H2440 C2450 0.950 . S
H2441 C2452 0.950 . S
H2442 C2454 0.950 . S
H2443 C2455 0.950 . S
C2444 H2436 0.950 . S
C2444 C2445 1.386 . S
C2444 C2446 1.391 . S
C2445 C2444 1.386 . S
C2445 C2449 1.393 . S
C2446 H2438 0.950 . S
C2446 C2444 1.391 . S
C2446 C2447 1.400 . S
C2447 C2446 1.400 . S
C2447 C2448 1.398 . S
C2447 C2453 1.491 . S
C2448 H2439 0.950 . S
C2448 C2447 1.398 . S
C2448 C2449 1.391 . S
C2449 H2437 0.950 . S
C2449 C2445 1.393 . S
C2449 C2448 1.391 . S
C2450 H2440 0.950 . S
C2450 C2451 1.386 . S
C2450 C2452 1.391 . S
C2451 C2450 1.386 . S
C2451 C2455 1.393 . S
C2452 H2441 0.950 . S
C2452 C2450 1.391 . S
C2452 C2453 1.400 . S
C2453 C2447 1.491 . S
C2453 C2452 1.400 . S
C2453 C2454 1.398 . S
C2454 H2442 0.950 . S
C2454 C2453 1.398 . S
C2454 C2455 1.391 . S
C2455 H2443 0.950 . S
C2455 C2451 1.393 . S
C2455 C2454 1.391 . S
H2456 C2464 0.950 . S
H2457 C2469 0.950 . S
H2458 C2466 0.950 . S
H2459 C2468 0.950 . S
H2460 C2470 0.950 . S
H2461 C2472 0.950 . S
H2462 C2474 0.950 . S
H2463 C2475 0.950 . S
C2464 H2456 0.950 . S
C2464 C2465 1.386 . S
C2464 C2466 1.391 . S
C2465 C2464 1.386 . S
C2465 C2469 1.393 . S
C2466 H2458 0.950 . S
C2466 C2464 1.391 . S
C2466 C2467 1.400 . S
C2467 C2466 1.400 . S
C2467 C2468 1.398 . S
C2467 C2473 1.491 . S
C2468 H2459 0.950 . S
C2468 C2467 1.398 . S
C2468 C2469 1.391 . S
C2469 H2457 0.950 . S
C2469 C2465 1.393 . S
C2469 C2468 1.391 . S
C2470 H2460 0.950 . S
C2470 C2471 1.386 . S
C2470 C2472 1.391 . S
C2471 C2470 1.386 . S
C2471 C2475 1.393 . S
C2472 H2461 0.950 . S
C2472 C2470 1.391 . S
C2472 C2473 1.400 . S
C2473 C2467 1.491 . S
C2473 C2472 1.400 . S
C2473 C2474 1.398 . S
C2474 H2462 0.950 . S
C2474 C2473 1.398 . S
C2474 C2475 1.391 . S
C2475 H2463 0.950 . S
C2475 C2471 1.393 . S
C2475 C2474 1.391 . S
H2476 C2484 0.950 . S
H2477 C2489 0.950 . S
H2478 C2486 0.950 . S
H2479 C2488 0.950 . S
H2480 C2490 0.950 . S
H2481 C2492 0.950 . S
H2482 C2494 0.950 . S
H2483 C2495 0.950 . S
C2484 H2476 0.950 . S
C2484 C2485 1.386 . S
C2484 C2486 1.391 . S
C2485 C2484 1.386 . S
C2485 C2489 1.393 . S
C2486 H2478 0.950 . S
C2486 C2484 1.391 . S
C2486 C2487 1.400 . S
C2487 C2486 1.400 . S
C2487 C2488 1.398 . S
C2487 C2493 1.491 . S
C2488 H2479 0.950 . S
C2488 C2487 1.398 . S
C2488 C2489 1.391 . S
C2489 H2477 0.950 . S
C2489 C2485 1.393 . S
C2489 C2488 1.391 . S
C2490 H2480 0.950 . S
C2490 C2491 1.386 . S
C2490 C2492 1.391 . S
C2491 C2490 1.386 . S
C2491 C2495 1.393 . S
C2492 H2481 0.950 . S
C2492 C2490 1.391 . S
C2492 C2493 1.400 . S
C2493 C2487 1.491 . S
C2493 C2492 1.400 . S
C2493 C2494 1.398 . S
C2494 H2482 0.950 . S
C2494 C2493 1.398 . S
C2494 C2495 1.391 . S
C2495 H2483 0.950 . S
C2495 C2491 1.393 . S
C2495 C2494 1.391 . S
H2496 C2504 0.950 . S
H2497 C2509 0.950 . S
H2498 C2506 0.950 . S
H2499 C2508 0.950 . S
H2500 C2510 0.950 . S
H2501 C2512 0.950 . S
H2502 C2514 0.950 . S
H2503 C2515 0.950 . S
C2504 H2496 0.950 . S
C2504 C2505 1.386 . S
C2504 C2506 1.391 . S
C2505 C2504 1.386 . S
C2505 C2509 1.393 1_655 S
C2506 H2498 0.950 . S
C2506 C2504 1.391 . S
C2506 C2507 1.400 . S
C2507 C2506 1.400 . S
C2507 C2508 1.398 1_655 S
C2507 C2513 1.491 . S
C2508 H2499 0.950 . S
C2508 C2507 1.398 1_455 S
C2508 C2509 1.391 . S
C2509 H2497 0.950 . S
C2509 C2505 1.393 1_455 S
C2509 C2508 1.391 . S
C2510 H2500 0.950 . S
C2510 C2511 1.386 1_455 S
C2510 C2512 1.391 . S
C2511 C2510 1.386 1_655 S
C2511 C2515 1.393 . S
C2512 H2501 0.950 . S
C2512 C2510 1.391 . S
C2512 C2513 1.400 1_455 S
C2513 C2507 1.491 . S
C2513 C2512 1.400 1_655 S
C2513 C2514 1.398 . S
C2514 H2502 0.950 . S
C2514 C2513 1.398 . S
C2514 C2515 1.391 . S
C2515 H2503 0.950 . S
C2515 C2511 1.393 . S
C2515 C2514 1.391 . S
H2516 C2524 0.950 . S
H2517 C2529 0.950 . S
H2518 C2526 0.950 . S
H2519 C2528 0.950 . S
H2520 C2530 0.950 . S
H2521 C2532 0.950 . S
H2522 C2534 0.950 . S
H2523 C2535 0.950 . S
C2524 H2516 0.950 . S
C2524 C2525 1.386 . S
C2524 C2526 1.391 . S
C2525 C2524 1.386 . S
C2525 C2529 1.393 . S
C2526 H2518 0.950 . S
C2526 C2524 1.391 . S
C2526 C2527 1.400 . S
C2527 C2526 1.400 . S
C2527 C2528 1.398 . S
C2527 C2533 1.491 . S
C2528 H2519 0.950 . S
C2528 C2527 1.398 . S
C2528 C2529 1.391 . S
C2529 H2517 0.950 . S
C2529 C2525 1.393 . S
C2529 C2528 1.391 . S
C2530 H2520 0.950 . S
C2530 C2531 1.386 . S
C2530 C2532 1.391 . S
C2531 C2530 1.386 . S
C2531 C2535 1.393 . S
C2532 H2521 0.950 . S
C2532 C2530 1.391 . S
C2532 C2533 1.400 . S
C2533 C2527 1.491 . S
C2533 C2532 1.400 . S
C2533 C2534 1.398 . S
C2534 H2522 0.950 . S
C2534 C2533 1.398 . S
C2534 C2535 1.391 . S
C2535 H2523 0.950 . S
C2535 C2531 1.393 . S
C2535 C2534 1.391 . S
H2536 C2544 0.950 . S
H2537 C2549 0.950 1_565 S
H2538 C2546 0.950 . S
H2539 C2548 0.950 1_565 S
H2540 C2550 0.950 . S
H2541 C2552 0.950 . S
H2542 C2554 0.950 . S
H2543 C2555 0.950 . S
C2544 H2536 0.950 . S
C2544 C2545 1.386 . S
C2544 C2546 1.391 . S
C2545 C2544 1.386 . S
C2545 C2549 1.393 . S
C2546 H2538 0.950 . S
C2546 C2544 1.391 . S
C2546 C2547 1.400 . S
C2547 C2546 1.400 . S
C2547 C2548 1.398 . S
C2547 C2553 1.491 . S
C2548 H2539 0.950 1_545 S
C2548 C2547 1.398 . S
C2548 C2549 1.391 . S
C2549 H2537 0.950 1_545 S
C2549 C2545 1.393 . S
C2549 C2548 1.391 . S
C2550 H2540 0.950 . S
C2550 C2551 1.386 1_565 S
C2550 C2552 1.391 . S
C2551 C2550 1.386 1_545 S
C2551 C2555 1.393 . S
C2552 H2541 0.950 . S
C2552 C2550 1.391 . S
C2552 C2553 1.400 1_565 S
C2553 C2547 1.491 . S
C2553 C2552 1.400 1_545 S
C2553 C2554 1.398 . S
C2554 H2542 0.950 . S
C2554 C2553 1.398 . S
C2554 C2555 1.391 . S
C2555 H2543 0.950 . S
C2555 C2551 1.393 . S
C2555 C2554 1.391 . S
C1125 C4 1.465 . S
C1131 C729 1.496 . S
C1145 C26 1.544 . S
C1151 C777 1.555 . S
C1171 C825 1.446 . S
C1165 C32 1.408 . S
C1185 C40 1.435 . S
C1191 C849 1.449 . S
C1205 C12 1.473 . S
C1211 C921 1.483 . S
C1225 C18 1.472 . S
C1231 C969 1.531 . S
C1245 C46 1.447 . S
C1251 C897 1.493 . S
C1271 C945 1.550 . S
C1265 C68 1.544 . S
C1291 C873 1.500 . S
C1285 C74 1.433 . S
C1305 C82 1.427 . S
C1311 C801 1.441 . S
C1331 C705 1.507 . S
C1325 C54 1.488 . S
C1345 C60 1.475 . S
C1351 C753 1.525 . S
C1365 C88 1.602 . S
C1371 C1017 1.640 . S
C1385 C110 1.615 . S
C1391 C1065 1.608 . S
C1411 C1089 1.584 . S
C1405 C116 1.555 . S
C1425 C124 1.486 . S
C1431 C273 1.490 . S
C1445 C96 1.547 . S
C1451 C345 1.553 . S
C1465 C102 1.522 . S
C1471 C393 1.563 . S
C1485 C130 1.540 . S
C1491 C321 1.569 . S
C1505 C152 1.612 . S
C1511 C369 1.606 . S
C1531 C297 1.575 . S
C1525 C158 1.554 . S
C1551 C1113 1.531 . S
C1545 C166 1.545 . S
C1571 C993 1.543 . S
C1565 C138 1.539 . S
C1591 C1041 1.603 . S
C1585 C144 1.558 . S
C1605 C172 1.547 . S
C1611 C441 1.574 . S
C1625 C194 1.601 . S
C1631 C489 1.606 . S
C1645 C200 1.563 . S
C1651 C513 1.586 . S
C1665 C208 1.544 . S
C1671 C561 1.538 . S
C1691 C633 1.549 . S
C1685 C180 1.546 . S
C1711 C681 1.585 . S
C1705 C186 1.539 . S
C1731 C609 1.647 . S
C1725 C214 1.612 . S
C1751 C657 1.615 . S
C1745 C236 1.613 . S
C1765 C242 1.525 . S
C1771 C585 1.551 . S
C1791 C537 1.455 . S
C1785 C250 1.479 . S
C1805 C222 1.560 . S
C1811 C417 1.557 . S
C1831 C465 1.566 . S
C1825 C228 1.528 . S
C1851 C282 1.505 . S
C1845 C5 1.303 . S
C1865 C25 1.412 . S
C1871 C336 1.378 . S
C1891 C384 1.491 . S
C1885 C33 1.317 . S
C1911 C432 1.388 . S
C1905 C39 1.385 . S
C1931 C480 1.425 . S
C1925 C11 1.458 . S
C1951 C522 1.413 . S
C1945 C19 1.218 . S
C1965 C47 1.302 1_556 S
C1971 C528 1.516 . S
C1985 C67 1.417 . S
C1991 C426 1.371 . S
C2005 C75 1.311 1_556 S
C2011 C474 1.483 . S
C2025 C81 1.407 . S
C2031 C330 1.379 . S
C2051 C378 1.389 . S
C2045 C53 1.442 . S
C2065 C61 1.162 . S
C2071 C288 1.390 . S
C2091 C570 1.456 . S
C2085 C89 1.221 . S
C2105 C109 1.501 . S
C2111 C624 1.458 . S
C2125 C117 1.274 . S
C2131 C672 1.491 . S
C2151 C720 1.240 . S
C2145 C123 1.232 . S
C2165 C95 1.394 . S
C2171 C768 1.376 . S
C2185 C103 1.071 . S
C2191 C816 1.253 . S
C2205 C131 1.122 . S
C2211 C810 1.257 . S
C2225 C151 1.265 . S
C2231 C714 1.254 . S
C2251 C762 1.400 . S
C2245 C159 1.197 . S
C2265 C165 1.379 . S
C2271 C618 1.363 . S
C2285 C137 1.477 . S
C2291 C666 1.453 . S
C2311 C576 1.470 . S
C2305 C145 1.232 . S
C2331 C858 1.283 . S
C2325 C173 1.111 . S
C2345 C193 1.244 . S
C2351 C912 1.239 . S
C2365 C201 1.226 . S
C2371 C960 1.413 . S
C2391 C1008 1.345 . S
C2385 C207 1.375 . S
C2411 C1056 1.472 . S
C2405 C179 1.493 . S
C2425 C187 1.259 . S
C2431 C1098 1.488 . S
C2445 C215 1.211 . S
C2451 C1104 1.459 . S
C2465 C235 1.498 . S
C2471 C1002 1.450 . S
C2491 C1050 1.449 . S
C2485 C243 1.260 . S
C2511 C906 1.213 . S
C2505 C249 1.208 . S
C2531 C954 1.383 . S
C2525 C221 1.399 . S
C2545 C229 1.086 . S
C2551 C864 1.268 . S
