# Generated by pormake.
# Topology nom, (4,4)-cn, num edge types: 1
# Building blocks:
#     Node 0, Type 0, BuildingBlock: MUDLON_clean_linker_0, # of connection points: 4
#     Node 1, Type 0, BuildingBlock: MUDLON_clean_linker_0, # of connection points: 4
#     Node 2, Type 0, BuildingBlock: MUDLON_clean_linker_0, # of connection points: 4
#     Node 3, Type 0, BuildingBlock: MUDLON_clean_linker_0, # of connection points: 4
#     Node 4, Type 0, BuildingBlock: MUDLON_clean_linker_0, # of connection points: 4
#     Node 5, Type 0, BuildingBlock: MUDLON_clean_linker_0, # of connection points: 4
#     Node 6, Type 1, BuildingBlock: NAHDIM_clean_sbu_0, # of connection points: 4
#     Node 7, Type 1, BuildingBlock: NAHDIM_clean_sbu_0, # of connection points: 4
#     Node 8, Type 1, BuildingBlock: NAHDIM_clean_sbu_0, # of connection points: 4
#     Node 9, Type 1, BuildingBlock: NAHDIM_clean_sbu_0, # of connection points: 4
#     Node 10, Type 1, BuildingBlock: NAHDIM_clean_sbu_0, # of connection points: 4
#     Node 11, Type 1, BuildingBlock: NAHDIM_clean_sbu_0, # of connection points: 4
#     Edge 12, Type (0, 1), BuildingBlock: MIFKUJ_clean_linker_0, # of connection points: 2
#     Edge 13, Type (0, 1), BuildingBlock: MIFKUJ_clean_linker_0, # of connection points: 2
#     Edge 14, Type (0, 1), BuildingBlock: MIFKUJ_clean_linker_0, # of connection points: 2
#     Edge 15, Type (0, 1), BuildingBlock: MIFKUJ_clean_linker_0, # of connection points: 2
#     Edge 16, Type (0, 1), BuildingBlock: MIFKUJ_clean_linker_0, # of connection points: 2
#     Edge 17, Type (0, 1), BuildingBlock: MIFKUJ_clean_linker_0, # of connection points: 2
#     Edge 18, Type (0, 1), BuildingBlock: MIFKUJ_clean_linker_0, # of connection points: 2
#     Edge 19, Type (0, 1), BuildingBlock: MIFKUJ_clean_linker_0, # of connection points: 2
#     Edge 20, Type (0, 1), BuildingBlock: MIFKUJ_clean_linker_0, # of connection points: 2
#     Edge 21, Type (0, 1), BuildingBlock: MIFKUJ_clean_linker_0, # of connection points: 2
#     Edge 22, Type (0, 1), BuildingBlock: MIFKUJ_clean_linker_0, # of connection points: 2
#     Edge 23, Type (0, 1), BuildingBlock: MIFKUJ_clean_linker_0, # of connection points: 2
#     Edge 24, Type (0, 1), BuildingBlock: MIFKUJ_clean_linker_0, # of connection points: 2
#     Edge 25, Type (0, 1), BuildingBlock: MIFKUJ_clean_linker_0, # of connection points: 2
#     Edge 26, Type (0, 1), BuildingBlock: MIFKUJ_clean_linker_0, # of connection points: 2
#     Edge 27, Type (0, 1), BuildingBlock: MIFKUJ_clean_linker_0, # of connection points: 2
#     Edge 28, Type (0, 1), BuildingBlock: MIFKUJ_clean_linker_0, # of connection points: 2
#     Edge 29, Type (0, 1), BuildingBlock: MIFKUJ_clean_linker_0, # of connection points: 2
#     Edge 30, Type (0, 1), BuildingBlock: MIFKUJ_clean_linker_0, # of connection points: 2
#     Edge 31, Type (0, 1), BuildingBlock: MIFKUJ_clean_linker_0, # of connection points: 2
#     Edge 32, Type (0, 1), BuildingBlock: MIFKUJ_clean_linker_0, # of connection points: 2
#     Edge 33, Type (0, 1), BuildingBlock: MIFKUJ_clean_linker_0, # of connection points: 2
#     Edge 34, Type (0, 1), BuildingBlock: MIFKUJ_clean_linker_0, # of connection points: 2
#     Edge 35, Type (0, 1), BuildingBlock: MIFKUJ_clean_linker_0, # of connection points: 2
# Relax obj value: 0.024
# Max RMSD: 0.121
# Mean RMSD: 0.106
data_MOF--net-nom--node1-NAHDIM_clean_sbu_0--node2-MUDLON_clean_linker_0--edge1-MIFKUJ_clean_linker_0
_symmetry_space_group_name_H-M    P1
_symmetry_Int_Tables_number       1
_symmetry_cell_setting            triclinic
loop_
_symmetry_equiv_pos_as_xyz
'x, y, z'
_cell_length_a     72.783275
_cell_length_b     75.548491
_cell_length_c     74.094897
_cell_angle_alpha  90.324259
_cell_angle_beta   90.35624
_cell_angle_gamma 121.24805
loop_
_atom_site_label
_atom_site_type_symbol
_atom_site_fract_x
_atom_site_fract_y
_atom_site_fract_z
_atom_type_partial_charge
H0 H 0.10612 0.53678 0.29968 0.0
N1 N 0.08232 0.54053 0.32457 0.0
H2 H 0.13484 0.56437 0.28209 0.0
H3 H 0.09119 0.58044 0.32234 0.0
H4 H 0.11866 0.60776 0.30396 0.0
H5 H 0.07567 0.56323 0.34963 0.0
H6 H 0.09243 0.57346 0.37963 0.0
H7 H 0.10505 0.52701 0.34103 0.0
H8 H 0.12089 0.53607 0.37133 0.0
H9 H 0.05554 0.50056 0.32989 0.0
H10 H 0.057 0.55575 0.31282 0.0
H11 H 0.01666 0.48062 0.32563 0.0
H12 H 0.01854 0.53582 0.30739 0.0
H13 H 0.89321 0.42206 0.28805 0.0
H14 H 0.87797 0.41714 0.25771 0.0
H15 H 0.92178 0.48209 0.24699 0.0
H16 H 0.93606 0.48697 0.2777 0.0
H17 H 0.90802 0.48391 0.30202 0.0
H18 H 0.88017 0.48296 0.32076 0.0
H19 H 0.8791 0.43492 0.35303 0.0
H20 H 0.90635 0.43533 0.33352 0.0
H21 H 0.95122 0.44572 0.29905 0.0
H22 H 0.99008 0.46642 0.30347 0.0
H23 H 0.98467 0.51838 0.32054 0.0
N24 N 0.92281 0.45717 0.3037 0.0
H25 H 0.94611 0.49798 0.31488 0.0
C26 C 0.09632 0.55638 0.31215 0.0
C27 C 0.10857 0.55219 0.30036 0.0
C28 C 0.12494 0.56802 0.29026 0.0
C29 C 0.12926 0.58845 0.29162 0.0
C30 C 0.11616 0.59236 0.3028 0.0
C31 C 0.1001 0.5766 0.31315 0.0
C32 C 0.08949 0.54464 0.34308 0.0
C33 C 0.08554 0.5573 0.35433 0.0
C34 C 0.09497 0.56294 0.37155 0.0
C35 C 0.10829 0.55582 0.37784 0.0
C36 C 0.11122 0.54229 0.36679 0.0
C37 C 0.10202 0.5369 0.34956 0.0
C38 C 0.05939 0.52958 0.32154 0.0
C39 C 0.04749 0.50832 0.32502 0.0
C40 C 0.02525 0.49692 0.32241 0.0
C41 C 0.01432 0.50649 0.31594 0.0
C42 C 0.02627 0.52791 0.31259 0.0
C43 C 0.04852 0.53939 0.31553 0.0
C44 C 0.91584 0.45473 0.2851 0.0
C45 C 0.89962 0.43514 0.27904 0.0
C46 C 0.89105 0.43238 0.26164 0.0
C47 C 0.89866 0.44921 0.24979 0.0
C48 C 0.9153 0.46883 0.25579 0.0
C49 C 0.92369 0.47161 0.27331 0.0
C50 C 0.90896 0.45935 0.31621 0.0
C51 C 0.90194 0.4733 0.31321 0.0
C52 C 0.88612 0.47287 0.32409 0.0
C53 C 0.87715 0.45867 0.33831 0.0
C54 C 0.88528 0.44572 0.34196 0.0
C55 C 0.90096 0.44603 0.33095 0.0
C56 C 0.94566 0.47006 0.30687 0.0
C57 C 0.9585 0.4616 0.30373 0.0
C58 C 0.98071 0.47345 0.30642 0.0
C59 C 0.99064 0.49409 0.31261 0.0
C60 C 0.97772 0.50265 0.31561 0.0
C61 C 0.9555 0.49085 0.31258 0.0
H62 H 0.4997 0.91683 0.47704 0.0
N63 N 0.49561 0.94657 0.4626 0.0
H64 H 0.47424 0.88901 0.49648 0.0
H65 H 0.46111 0.94485 0.47914 0.0
H66 H 0.43567 0.91727 0.49892 0.0
H67 H 0.45642 0.93393 0.44686 0.0
H68 H 0.44313 0.91527 0.41828 0.0
H69 H 0.51807 0.94037 0.43795 0.0
H70 H 0.50475 0.92136 0.40929 0.0
H71 H 0.53111 0.97188 0.48096 0.0
H72 H 0.47897 0.9703 0.45158 0.0
H73 H 0.5467 0.00877 0.48712 0.0
H74 H 0.4949 0.00729 0.45687 0.0
H75 H 0.59875 0.12171 0.50579 0.0
H76 H 0.60411 0.134 0.53719 0.0
H77 H 0.53553 0.0978 0.5453 0.0
H78 H 0.53033 0.08542 0.51414 0.0
H79 H 0.52777 0.10417 0.4899 0.0
H80 H 0.52515 0.13102 0.47417 0.0
H81 H 0.58433 0.14906 0.44653 0.0
H82 H 0.58687 0.12203 0.46242 0.0
H83 H 0.58132 0.07786 0.47998 0.0
H84 H 0.56499 0.04111 0.47267 0.0
H85 H 0.50191 0.03258 0.47943 0.0
N86 N 0.56173 0.09794 0.48852 0.0
H87 H 0.51842 0.06948 0.48574 0.0
C88 C 0.48232 0.93282 0.47661 0.0
C89 C 0.48602 0.91725 0.48216 0.0
C90 C 0.47148 0.90143 0.49334 0.0
C91 C 0.45285 0.90086 0.49922 0.0
C92 C 0.44974 0.91714 0.49445 0.0
C93 C 0.46435 0.933 0.48323 0.0
C94 C 0.48835 0.93856 0.44457 0.0
C95 C 0.46727 0.9317 0.43862 0.0
C96 C 0.45961 0.92086 0.42231 0.0
C97 C 0.47282 0.91665 0.41163 0.0
C98 C 0.49423 0.9245 0.41714 0.0
C99 C 0.50187 0.93532 0.43349 0.0
C100 C 0.50409 0.96834 0.46567 0.0
C101 C 0.52317 0.97958 0.47569 0.0
C102 C 0.53211 0.00069 0.47906 0.0
C103 C 0.52221 0.01113 0.47231 0.0
C104 C 0.50289 0.99976 0.4624 0.0
C105 C 0.49383 0.97854 0.45919 0.0
C106 C 0.56424 0.1028 0.50754 0.0
C107 C 0.58495 0.11616 0.51448 0.0
C108 C 0.58796 0.12311 0.53238 0.0
C109 C 0.5702 0.11692 0.54362 0.0
C110 C 0.54948 0.10296 0.53685 0.0
C111 C 0.54651 0.09585 0.51901 0.0
C112 C 0.5577 0.11119 0.47742 0.0
C113 C 0.53999 0.11355 0.48024 0.0
C114 C 0.53854 0.12901 0.47128 0.0
C115 C 0.55463 0.14225 0.45925 0.0
C116 C 0.5716 0.139 0.45562 0.0
C117 C 0.57311 0.12363 0.46469 0.0
C118 C 0.5512 0.07639 0.48356 0.0
C119 C 0.56397 0.06802 0.47972 0.0
C120 C 0.55458 0.04698 0.47573 0.0
C121 C 0.53209 0.03375 0.47568 0.0
C122 C 0.51925 0.04229 0.4792 0.0
C123 C 0.52871 0.06344 0.48301 0.0
H124 H 0.49497 0.60912 0.65072 0.0
N125 N 0.48801 0.57211 0.65928 0.0
H126 H 0.47385 0.61698 0.63028 0.0
H127 H 0.45782 0.5449 0.63411 0.0
H128 H 0.43764 0.55282 0.61314 0.0
H129 H 0.44588 0.55222 0.66958 0.0
H130 H 0.43222 0.55739 0.69783 0.0
H131 H 0.51087 0.59451 0.68773 0.0
H132 H 0.49729 0.60026 0.71596 0.0
H133 H 0.52524 0.57555 0.65127 0.0
H134 H 0.45917 0.53044 0.66287 0.0
H135 H 0.53275 0.54778 0.64723 0.0
H136 H 0.46587 0.50268 0.65748 0.0
H137 H 0.54916 0.4683 0.62008 0.0
H138 H 0.55933 0.46421 0.58995 0.0
H139 H 0.49304 0.43547 0.57232 0.0
H140 H 0.48282 0.43844 0.6031 0.0
H141 H 0.48948 0.41362 0.64043 0.0
H142 H 0.50432 0.39708 0.65878 0.0
H143 H 0.5599 0.45714 0.67134 0.0
H144 H 0.54491 0.47351 0.65279 0.0
H145 H 0.53269 0.49356 0.61986 0.0
H146 H 0.52825 0.5222 0.6277 0.0
H147 H 0.48056 0.48407 0.66714 0.0
N148 N 0.50818 0.45335 0.63219 0.0
H149 H 0.48372 0.45477 0.65792 0.0
C150 C 0.47809 0.57647 0.64431 0.0
C151 C 0.48274 0.59684 0.64228 0.0
C152 C 0.47065 0.6013 0.6305 0.0
C153 C 0.45374 0.58547 0.62019 0.0
C154 C 0.45012 0.56531 0.62123 0.0
C155 C 0.46196 0.56079 0.63325 0.0
C156 C 0.4795 0.573 0.67658 0.0
C157 C 0.45725 0.56236 0.67978 0.0
C158 C 0.44944 0.56552 0.69588 0.0
C159 C 0.46366 0.57938 0.70908 0.0
C160 C 0.48591 0.58933 0.70615 0.0
C161 C 0.49371 0.58614 0.69003 0.0
C162 C 0.49168 0.55518 0.6571 0.0
C163 C 0.51232 0.55962 0.65276 0.0
C164 C 0.5165 0.54367 0.65032 0.0
C165 C 0.49991 0.52279 0.65185 0.0
C166 C 0.47924 0.51845 0.6565 0.0
C167 C 0.47526 0.53442 0.65939 0.0
C168 C 0.51504 0.45317 0.61397 0.0
C169 C 0.53675 0.461 0.60981 0.0
C170 C 0.54262 0.45893 0.59239 0.0
C171 C 0.52702 0.44936 0.57861 0.0
C172 C 0.50545 0.4425 0.58264 0.0
C173 C 0.49956 0.44431 0.60017 0.0
C174 C 0.51607 0.44468 0.64521 0.0
C175 C 0.50464 0.42319 0.64747 0.0
C176 C 0.51313 0.41381 0.658 0.0
C177 C 0.53334 0.4258 0.66646 0.0
C178 C 0.5444 0.44748 0.66483 0.0
C179 C 0.53581 0.45686 0.65434 0.0
C180 C 0.50811 0.47163 0.63803 0.0
C181 C 0.52117 0.49116 0.63014 0.0
C182 C 0.5188 0.50781 0.63485 0.0
C183 C 0.5038 0.50557 0.64793 0.0
C184 C 0.49177 0.48635 0.65658 0.0
C185 C 0.49372 0.46958 0.6515 0.0
H186 H 0.11274 0.59027 0.81125 0.0
N187 N 0.08204 0.55498 0.79659 0.0
H188 H 0.14264 0.59568 0.83052 0.0
H189 H 0.08728 0.52446 0.81124 0.0
H190 H 0.11656 0.52961 0.83096 0.0
H191 H 0.09979 0.53553 0.77881 0.0
H192 H 0.11574 0.54379 0.749 0.0
H193 H 0.08194 0.58146 0.77315 0.0
H194 H 0.09776 0.58972 0.74295 0.0
H195 H 0.05318 0.55696 0.81676 0.0
H196 H 0.06185 0.5149 0.78342 0.0
H197 H 0.01673 0.52888 0.82389 0.0
H198 H 0.02578 0.48698 0.79054 0.0
H199 H 0.92556 0.46313 0.84078 0.0
H200 H 0.90846 0.46179 0.86942 0.0
H201 H 0.91133 0.40809 0.88452 0.0
H202 H 0.92852 0.40962 0.85578 0.0
H203 H 0.9152 0.39627 0.8178 0.0
H204 H 0.88268 0.37894 0.7989 0.0
H205 H 0.88649 0.43742 0.79142 0.0
H206 H 0.91909 0.45463 0.81016 0.0
H207 H 0.96708 0.46712 0.85041 0.0
H208 H 0.0011 0.49644 0.84137 0.0
H209 H 0.98758 0.47519 0.78601 0.0
N210 N 0.9367 0.43558 0.82873 0.0
H211 H 0.95338 0.44556 0.79489 0.0
C212 C 0.09772 0.55707 0.80982 0.0
C213 C 0.11335 0.57697 0.81577 0.0
C214 C 0.13035 0.57999 0.82685 0.0
C215 C 0.13204 0.56306 0.83228 0.0
C216 C 0.11591 0.543 0.82684 0.0
C217 C 0.09898 0.54002 0.81567 0.0
C218 C 0.08961 0.55793 0.77825 0.0
C219 C 0.09895 0.54716 0.77104 0.0
C220 C 0.10802 0.55185 0.7539 0.0
C221 C 0.10804 0.56744 0.74361 0.0
C222 C 0.09818 0.57778 0.75063 0.0
C223 C 0.08902 0.573 0.76778 0.0
C224 C 0.06028 0.53823 0.79951 0.0
C225 C 0.04717 0.54175 0.81087 0.0
C226 C 0.02644 0.52569 0.81499 0.0
C227 C 0.01839 0.50572 0.80776 0.0
C228 C 0.0314 0.50226 0.7961 0.0
C229 C 0.05216 0.5183 0.79205 0.0
C230 C 0.92826 0.43636 0.84614 0.0
C231 C 0.92252 0.45108 0.85024 0.0
C232 C 0.91274 0.45029 0.86662 0.0
C233 C 0.90849 0.4348 0.87922 0.0
C234 C 0.91464 0.42038 0.87521 0.0
C235 C 0.92438 0.42116 0.85881 0.0
C236 C 0.91944 0.42661 0.81552 0.0
C237 C 0.90922 0.40536 0.81177 0.0
C238 C 0.89071 0.39554 0.80095 0.0
C239 C 0.88198 0.40683 0.7938 0.0
C240 C 0.89272 0.42831 0.79696 0.0
C241 C 0.91133 0.43814 0.80768 0.0
C242 C 0.95636 0.45436 0.82326 0.0
C243 C 0.97074 0.46888 0.83618 0.0
C244 C 0.99048 0.48577 0.83103 0.0
C245 C 0.99686 0.48836 0.81294 0.0
C246 C 0.98302 0.47371 0.80006 0.0
C247 C 0.9632 0.45685 0.80517 0.0
H248 H 0.50829 0.11956 0.98447 0.0
N249 N 0.51038 0.08771 0.97214 0.0
H250 H 0.53532 0.14886 0.00264 0.0
H251 H 0.54537 0.09008 0.98904 0.0
H252 H 0.57238 0.11928 0.00726 0.0
H253 H 0.54925 0.10215 0.95581 0.0
H254 H 0.55909 0.11688 0.92584 0.0
H255 H 0.48438 0.08796 0.94691 0.0
H256 H 0.49382 0.10188 0.91635 0.0
H257 H 0.47523 0.06238 0.99029 0.0
H258 H 0.52806 0.06463 0.9622 0.0
H259 H 0.4597 0.0254 0.99556 0.0
H260 H 0.51228 0.02757 0.96672 0.0
H261 H 0.40489 0.90727 0.00291 0.0
H262 H 0.39567 0.89189 0.03298 0.0
H263 H 0.46148 0.93258 0.05045 0.0
H264 H 0.47044 0.94796 0.02057 0.0
H265 H 0.47701 0.92931 0.99638 0.0
H266 H 0.48216 0.90369 0.98087 0.0
H267 H 0.4275 0.88761 0.94635 0.0
H268 H 0.42275 0.91368 0.96176 0.0
H269 H 0.42477 0.95657 0.98302 0.0
H270 H 0.44182 0.99386 0.97863 0.0
H271 H 0.50403 0.00124 0.98865 0.0
N272 N 0.44341 0.93546 0.99105 0.0
H273 H 0.48687 0.9639 0.99231 0.0
C274 C 0.52472 0.10264 0.9854 0.0
C275 C 0.522 0.1192 0.98977 0.0
C276 C 0.53748 0.13593 2e-05 0.0
C277 C 0.55599 0.13638 0.00621 0.0
C278 C 0.55818 0.11925 0.00275 0.0
C279 C 0.54272 0.10254 0.99233 0.0
C280 C 0.51605 0.09417 0.9537 0.0
C281 C 0.53699 0.10187 0.94729 0.0
C282 C 0.54256 0.11016 0.93 0.0
C283 C 0.52729 0.11071 0.91865 0.0
C284 C 0.5061 0.10208 0.92483 0.0
C285 C 0.5006 0.09396 0.9422 0.0
C286 C 0.50258 0.06623 0.97573 0.0
C287 C 0.48344 0.05485 0.98526 0.0
C288 C 0.47453 0.0337 0.9881 0.0
C289 C 0.48457 0.02341 0.98134 0.0
C290 C 0.50416 0.03499 0.9722 0.0
C291 C 0.51314 0.05622 0.96947 0.0
C292 C 0.43823 0.92875 0.00946 0.0
C293 C 0.41718 0.91308 0.01336 0.0
C294 C 0.41202 0.90424 0.03047 0.0
C295 C 0.42789 0.91095 0.04404 0.0
C296 C 0.44885 0.92723 0.04033 0.0
C297 C 0.45401 0.93602 0.02318 0.0
C298 C 0.4494 0.92341 0.98019 0.0
C299 C 0.46651 0.92075 0.98515 0.0
C300 C 0.46932 0.90592 0.97637 0.0
C301 C 0.45509 0.89344 0.96251 0.0
C302 C 0.43886 0.89707 0.95685 0.0
C303 C 0.43608 0.91191 0.96564 0.0
C304 C 0.45442 0.95742 0.98801 0.0
C305 C 0.4421 0.96628 0.98415 0.0
C306 C 0.45188 0.98761 0.98183 0.0
C307 C 0.47432 0.00063 0.98347 0.0
C308 C 0.48674 0.99168 0.98714 0.0
C309 C 0.4769 0.97026 0.98935 0.0
H310 H 0.51194 0.42444 0.12967 0.0
N311 N 0.51775 0.45143 0.15551 0.0
H312 H 0.53975 0.42338 0.11206 0.0
H313 H 0.56017 0.48253 0.15365 0.0
H314 H 0.58778 0.48181 0.13595 0.0
H315 H 0.54138 0.48334 0.17933 0.0
H316 H 0.55342 0.48029 0.2095 0.0
H317 H 0.50564 0.41688 0.17348 0.0
H318 H 0.51719 0.41368 0.20382 0.0
H319 H 0.47628 0.43696 0.15926 0.0
H320 H 0.53565 0.49207 0.14487 0.0
H321 H 0.45715 0.45532 0.15526 0.0
H322 H 0.51658 0.51019 0.13986 0.0
H323 H 0.40487 0.51996 0.11567 0.0
H324 H 0.40441 0.53274 0.08562 0.0
H325 H 0.47267 0.55702 0.08126 0.0
H326 H 0.47305 0.54511 0.11172 0.0
H327 H 0.46926 0.56694 0.13725 0.0
H328 H 0.46606 0.59272 0.15459 0.0
H329 H 0.40724 0.54404 0.17794 0.0
H330 H 0.41033 0.51833 0.16009 0.0
H331 H 0.42511 0.48622 0.12841 0.0
H332 H 0.44472 0.46842 0.13293 0.0
H333 H 0.49893 0.52511 0.15422 0.0
N334 N 0.43867 0.52567 0.13444 0.0
H335 H 0.47962 0.54296 0.14869 0.0
C336 C 0.53382 0.45346 0.14298 0.0
C337 C 0.5284 0.43725 0.13072 0.0
C338 C 0.54431 0.4367 0.12067 0.0
C339 C 0.56601 0.45242 0.12277 0.0
C340 C 0.57125 0.4693 0.13425 0.0
C341 C 0.55536 0.46981 0.1443 0.0
C342 C 0.52278 0.45025 0.17412 0.0
C343 C 0.53591 0.46809 0.18462 0.0
C344 C 0.54276 0.46635 0.20183 0.0
C345 C 0.53626 0.44676 0.20892 0.0
C346 C 0.52227 0.42896 0.19874 0.0
C347 C 0.51571 0.43073 0.18145 0.0
C348 C 0.50727 0.46289 0.15215 0.0
C349 C 0.48511 0.45294 0.15497 0.0
C350 C 0.47421 0.46346 0.15257 0.0
C351 C 0.48524 0.48425 0.14706 0.0
C352 C 0.50756 0.49428 0.1443 0.0
C353 C 0.51851 0.48379 0.14696 0.0
C354 C 0.43885 0.53141 0.11589 0.0
C355 C 0.41963 0.52782 0.10809 0.0
C356 C 0.41944 0.53505 0.09085 0.0
C357 C 0.43852 0.54592 0.08092 0.0
C358 C 0.45773 0.54898 0.08858 0.0
C359 C 0.45794 0.54196 0.10596 0.0
C360 C 0.43985 0.54065 0.1473 0.0
C361 C 0.45596 0.56174 0.14643 0.0
C362 C 0.45415 0.5765 0.15643 0.0
C363 C 0.43623 0.57046 0.16747 0.0
C364 C 0.42103 0.54922 0.16931 0.0
C365 C 0.42285 0.5345 0.15928 0.0
C366 C 0.45065 0.51577 0.13839 0.0
C367 C 0.4412 0.49472 0.13413 0.0
C368 C 0.45243 0.48457 0.13683 0.0
C369 C 0.47341 0.49524 0.14409 0.0
C370 C 0.48291 0.51642 0.14841 0.0
C371 C 0.47172 0.52664 0.14546 0.0
C372 C 0.60696 0.34636 0.41622 0.0
O373 O 0.61313 0.35854 0.43052 0.0
O374 O 0.65662 0.3965 0.39685 0.0
Zn375 Zn 0.62482 0.38527 0.39788 0.0
O376 O 0.61734 0.39748 0.41872 0.0
C377 C 0.62583 0.40082 0.36159 0.0
O378 O 0.64609 0.40608 0.36177 0.0
O379 O 0.61006 0.3543 0.40063 0.0
C380 C 0.59743 0.39023 0.42127 0.0
O381 O 0.58336 0.3755 0.41045 0.0
C382 C 0.67132 0.41548 0.39812 0.0
O383 O 0.66604 0.4295 0.40063 0.0
O384 O 0.61417 0.39171 0.37515 0.0
C385 C 0.30499 0.69105 0.54631 0.0
O386 O 0.30822 0.67776 0.53753 0.0
O387 O 0.29592 0.64503 0.56419 0.0
Zn388 Zn 0.27389 0.65347 0.56163 0.0
O389 O 0.25465 0.63963 0.54003 0.0
C390 C 0.24109 0.62721 0.58642 0.0
O391 O 0.23816 0.61322 0.57427 0.0
O392 O 0.29014 0.68428 0.55794 0.0
C393 C 0.2374 0.63993 0.53865 0.0
O394 O 0.23277 0.64921 0.55131 0.0
C395 C 0.29233 0.6268 0.56205 0.0
O396 O 0.27283 0.61162 0.55793 0.0
O397 O 0.25584 0.64595 0.58405 0.0
C398 C 0.61788 0.29962 0.7198 0.0
O399 O 0.63631 0.30368 0.71306 0.0
O400 O 0.65095 0.28269 0.73698 0.0
Zn401 Zn 0.61891 0.26467 0.73266 0.0
O402 O 0.61184 0.2464 0.71054 0.0
C403 C 0.61578 0.2404 0.76349 0.0
O404 O 0.63548 0.24623 0.75876 0.0
O405 O 0.60701 0.28329 0.729 0.0
C406 C 0.61594 0.23199 0.70954 0.0
O407 O 0.62554 0.22896 0.7232 0.0
C408 C 0.6655 0.28375 0.72681 0.0
O409 O 0.66005 0.2725 0.71197 0.0
O410 O 0.60536 0.24664 0.75443 0.0
C411 C 0.40534 0.68952 0.91931 0.0
O412 O 0.39932 0.67744 0.93346 0.0
O413 O 0.35549 0.63894 0.89791 0.0
Zn414 Zn 0.38731 0.65055 0.9001 0.0
O415 O 0.39317 0.63726 0.92096 0.0
C416 C 0.39079 0.64369 0.86202 0.0
O417 O 0.37587 0.64842 0.86012 0.0
O418 O 0.40211 0.68149 0.90362 0.0
C419 C 0.41237 0.64338 0.92574 0.0
O420 O 0.42832 0.65887 0.91718 0.0
C421 C 0.34264 0.62049 0.89251 0.0
O422 O 0.3503 0.6086 0.88843 0.0
O423 O 0.39811 0.64395 0.87768 0.0
C424 C 0.72002 0.39799 0.07654 0.0
O425 O 0.72674 0.39318 0.09115 0.0
O426 O 0.72401 0.35117 0.05527 0.0
Zn427 Zn 0.74369 0.38185 0.05918 0.0
O428 O 0.76203 0.38795 0.08156 0.0
C429 C 0.77933 0.39079 0.03739 0.0
O430 O 0.78244 0.38138 0.05088 0.0
O431 O 0.72542 0.39474 0.06116 0.0
C432 C 0.77519 0.4067 0.08601 0.0
O433 O 0.77614 0.42152 0.0761 0.0
C434 C 0.71957 0.33735 0.06702 0.0
O435 O 0.72833 0.34288 0.0832 0.0
O436 O 0.76327 0.39315 0.03778 0.0
C437 C 0.38269 0.72303 0.21291 0.0
O438 O 0.36359 0.71855 0.20724 0.0
O439 O 0.35053 0.7402 0.22974 0.0
Zn440 Zn 0.38247 0.75832 0.22622 0.0
O441 O 0.38759 0.77648 0.20471 0.0
C442 C 0.38966 0.77007 0.26422 0.0
O443 O 0.37332 0.75119 0.26662 0.0
O444 O 0.39447 0.73991 0.22149 0.0
C445 C 0.39387 0.79556 0.20648 0.0
O446 O 0.39735 0.80377 0.22274 0.0
C447 C 0.33877 0.7462 0.23676 0.0
O448 O 0.34753 0.76548 0.24234 0.0
O449 O 0.39646 0.77608 0.24835 0.0
H450 H 0.15586 0.6281 0.30433 0.0
H451 H 0.18877 0.65554 0.29093 0.0
H452 H 0.18021 0.61555 0.24587 0.0
H453 H 0.14647 0.58817 0.25865 0.0
H454 H 0.22111 0.63393 0.26484 0.0
H455 H 0.17458 0.65335 0.23702 0.0
H456 H 0.14635 0.66212 0.23632 0.0
H457 H 0.18437 0.71423 0.27149 0.0
H458 H 0.21272 0.70558 0.27263 0.0
H459 H 0.31418 0.70849 0.22044 0.0
H460 H 0.27666 0.68258 0.22629 0.0
H461 H 0.27377 0.72355 0.26545 0.0
H462 H 0.31117 0.74989 0.25915 0.0
H463 H 0.23734 0.70386 0.24724 0.0
H464 H 0.28171 0.68376 0.27802 0.0
H465 H 0.31009 0.67534 0.28097 0.0
H466 H 0.2764 0.6249 0.24327 0.0
H467 H 0.24793 0.63321 0.2399 0.0
C468 C 0.16048 0.62521 0.2913 0.0
C469 C 0.14836 0.60578 0.28262 0.0
C470 C 0.17945 0.64095 0.28372 0.0
C471 C 0.18685 0.63755 0.26743 0.0
C472 C 0.17471 0.61841 0.2585 0.0
C473 C 0.15552 0.60275 0.26591 0.0
C474 C 0.20811 0.65348 0.26055 0.0
C475 C 0.2246 0.64909 0.26062 0.0
C476 C 0.2127 0.67343 0.2557 0.0
C477 C 0.1957 0.6787 0.25504 0.0
C478 C 0.17684 0.66656 0.24474 0.0
C479 C 0.16084 0.67154 0.24424 0.0
C480 C 0.16354 0.68869 0.25389 0.0
C481 C 0.18229 0.70093 0.26403 0.0
C482 C 0.19834 0.69601 0.2646 0.0
C483 C 0.30551 0.71205 0.23021 0.0
C484 C 0.31568 0.73114 0.23948 0.0
C485 C 0.28408 0.69719 0.23358 0.0
C486 C 0.27251 0.70093 0.24659 0.0
C487 C 0.28239 0.72029 0.25539 0.0
C488 C 0.30377 0.73531 0.25182 0.0
C489 C 0.25046 0.68436 0.25155 0.0
C490 C 0.23384 0.68863 0.25124 0.0
C491 C 0.24578 0.66435 0.2565 0.0
C492 C 0.26282 0.65925 0.25856 0.0
C493 C 0.28043 0.67097 0.27026 0.0
C494 C 0.29652 0.66621 0.27202 0.0
C495 C 0.29508 0.64964 0.26227 0.0
C496 C 0.27751 0.63776 0.25078 0.0
C497 C 0.26139 0.64248 0.24895 0.0
H498 H 0.30755 0.64597 0.26365 0.0
H499 H 0.15113 0.69252 0.25347 0.0
H500 H 0.54781 0.16961 0.47752 0.0
H501 H 0.552 0.20183 0.46656 0.0
H502 H 0.56659 0.18893 0.41347 0.0
H503 H 0.56285 0.15672 0.42458 0.0
H504 H 0.59472 0.22667 0.42262 0.0
H505 H 0.51841 0.18735 0.4228 0.0
H506 H 0.48219 0.16397 0.43482 0.0
H507 H 0.494 0.20774 0.4772 0.0
H508 H 0.53042 0.23128 0.46559 0.0
H509 H 0.59957 0.31771 0.38992 0.0
H510 H 0.58622 0.28083 0.39388 0.0
H511 H 0.57971 0.28716 0.45099 0.0
H512 H 0.59307 0.324 0.4472 0.0
H513 H 0.54468 0.25117 0.43552 0.0
H514 H 0.62265 0.28792 0.43675 0.0
H515 H 0.65867 0.31111 0.42425 0.0
H516 H 0.64249 0.2712 0.37786 0.0
H517 H 0.60624 0.24791 0.38999 0.0
C518 C 0.55143 0.17339 0.46341 0.0
C519 C 0.55489 0.16059 0.45188 0.0
C520 C 0.5538 0.19183 0.45713 0.0
C521 C 0.5593 0.19772 0.43909 0.0
C522 C 0.56229 0.18471 0.42742 0.0
C523 C 0.56015 0.16633 0.43377 0.0
C524 C 0.56358 0.2182 0.43294 0.0
C525 C 0.58351 0.23181 0.42506 0.0
C526 C 0.54916 0.22511 0.43637 0.0
C527 C 0.52722 0.21103 0.44338 0.0
C528 C 0.51335 0.19194 0.43475 0.0
C529 C 0.49277 0.17866 0.44148 0.0
C530 C 0.48581 0.18435 0.45678 0.0
C531 C 0.49941 0.20335 0.46535 0.0
C532 C 0.52001 0.21669 0.45869 0.0
C533 C 0.59511 0.31122 0.4033 0.0
C534 C 0.59753 0.32381 0.41828 0.0
C535 C 0.58753 0.29017 0.40553 0.0
C536 C 0.58213 0.28134 0.42274 0.0
C537 C 0.58378 0.29369 0.4376 0.0
C538 C 0.59153 0.31476 0.43541 0.0
C539 C 0.57583 0.25952 0.42553 0.0
C540 C 0.5556 0.24576 0.4328 0.0
C541 C 0.58986 0.25239 0.42141 0.0
C542 C 0.61167 0.26633 0.41417 0.0
C543 C 0.62672 0.28419 0.42381 0.0
C544 C 0.64718 0.29733 0.41681 0.0
C545 C 0.65284 0.29267 0.40024 0.0
C546 C 0.63807 0.27481 0.39067 0.0
C547 C 0.61757 0.26164 0.39761 0.0
H548 H 0.66869 0.30285 0.39485 0.0
H549 H 0.46988 0.17404 0.46197 0.0
H550 H 0.41018 0.56003 0.6159 0.0
H551 H 0.38515 0.56783 0.60137 0.0
H552 H 0.43768 0.62836 0.58732 0.0
H553 H 0.46316 0.62042 0.60119 0.0
H554 H 0.40392 0.62838 0.60602 0.0
H555 H 0.41326 0.59537 0.55456 0.0
H556 H 0.41474 0.56765 0.53819 0.0
H557 H 0.34861 0.5247 0.55069 0.0
H558 H 0.34682 0.5521 0.56738 0.0
H559 H 0.33544 0.65488 0.56203 0.0
H560 H 0.3646 0.64855 0.5678 0.0
H561 H 0.31835 0.58347 0.57451 0.0
H562 H 0.28912 0.58961 0.56802 0.0
H563 H 0.35145 0.58765 0.55725 0.0
H564 H 0.34243 0.61792 0.61116 0.0
H565 H 0.33997 0.64411 0.62924 0.0
H566 H 0.40417 0.69031 0.61423 0.0
H567 H 0.40691 0.66443 0.59587 0.0
C568 C 0.41661 0.57479 0.60926 0.0
C569 C 0.4388 0.58958 0.60975 0.0
C570 C 0.40219 0.57925 0.60104 0.0
C571 C 0.40958 0.59863 0.59323 0.0
C572 C 0.43169 0.61331 0.5933 0.0
C573 C 0.44619 0.60877 0.60134 0.0
C574 C 0.39397 0.60398 0.58628 0.0
C575 C 0.39272 0.61979 0.59509 0.0
C576 C 0.37897 0.59228 0.57245 0.0
C577 C 0.37996 0.57577 0.56235 0.0
C578 C 0.39908 0.57998 0.55395 0.0
C579 C 0.39997 0.56433 0.54459 0.0
C580 C 0.3818 0.54442 0.54343 0.0
C581 C 0.36268 0.54013 0.55161 0.0
C582 C 0.36171 0.55572 0.561 0.0
C583 C 0.33148 0.6392 0.56465 0.0
C584 C 0.30997 0.62276 0.56475 0.0
C585 C 0.34817 0.63561 0.568 0.0
C586 C 0.34368 0.6156 0.57197 0.0
C587 C 0.32223 0.59906 0.57154 0.0
C588 C 0.30553 0.60259 0.56788 0.0
C589 C 0.36123 0.61198 0.5771 0.0
C590 C 0.3628 0.59645 0.56802 0.0
C591 C 0.37637 0.62372 0.59091 0.0
C592 C 0.37478 0.6393 0.60198 0.0
C593 C 0.35596 0.6337 0.61161 0.0
C594 C 0.35453 0.64848 0.62192 0.0
C595 C 0.37188 0.66888 0.62284 0.0
C596 C 0.39073 0.67452 0.61348 0.0
C597 C 0.39224 0.6598 0.60313 0.0
H598 H 0.37074 0.6803 0.63083 0.0
H599 H 0.38251 0.53232 0.53617 0.0
H600 H 0.86804 0.37665 0.76762 0.0
H601 H 0.8319 0.3566 0.75419 0.0
H602 H 0.81215 0.39211 0.78546 0.0
H603 H 0.84808 0.41205 0.79899 0.0
H604 H 0.78476 0.34944 0.78842 0.0
H605 H 0.81938 0.40023 0.74169 0.0
H606 H 0.8472 0.4198 0.71899 0.0
H607 H 0.8298 0.3632 0.69099 0.0
H608 H 0.80206 0.34326 0.71368 0.0
H609 H 0.6825 0.31486 0.75195 0.0
H610 H 0.72004 0.33649 0.7613 0.0
H611 H 0.73775 0.30466 0.72314 0.0
H612 H 0.70019 0.28337 0.71326 0.0
H613 H 0.76678 0.34446 0.72316 0.0
H614 H 0.73272 0.29333 0.76872 0.0
H615 H 0.70526 0.27249 0.7913 0.0
H616 H 0.72223 0.32761 0.82162 0.0
H617 H 0.74959 0.34883 0.79907 0.0
C618 C 0.85601 0.38026 0.7715 0.0
C619 C 0.86087 0.39593 0.78432 0.0
C620 C 0.83545 0.36889 0.76377 0.0
C621 C 0.81942 0.37294 0.76882 0.0
C622 C 0.82434 0.38879 0.78138 0.0
C623 C 0.8449 0.40027 0.78898 0.0
C624 C 0.79716 0.35996 0.7618 0.0
C625 C 0.78076 0.34854 0.77418 0.0
C626 C 0.79215 0.35825 0.74316 0.0
C627 C 0.8088 0.37023 0.72949 0.0
C628 C 0.82161 0.39194 0.73079 0.0
C629 C 0.83734 0.4031 0.7179 0.0
C630 C 0.84031 0.39274 0.70358 0.0
C631 C 0.82751 0.3712 0.7021 0.0
C632 C 0.81177 0.35996 0.71496 0.0
C633 C 0.69438 0.31248 0.74551 0.0
C634 C 0.68836 0.29729 0.73198 0.0
C635 C 0.71584 0.32482 0.75091 0.0
C636 C 0.73167 0.32191 0.74319 0.0
C637 C 0.7258 0.30711 0.72934 0.0
C638 C 0.70433 0.29494 0.72374 0.0
C639 C 0.75424 0.33412 0.74983 0.0
C640 C 0.77074 0.34531 0.73741 0.0
C641 C 0.75943 0.33541 0.76844 0.0
C642 C 0.74308 0.32268 0.78211 0.0
C643 C 0.7305 0.30102 0.78013 0.0
C644 C 0.71497 0.28914 0.79294 0.0
C645 C 0.71197 0.29872 0.80786 0.0
C646 C 0.72455 0.32021 0.81004 0.0
C647 C 0.74009 0.33217 0.79726 0.0
H648 H 0.69993 0.28949 0.81776 0.0
H649 H 0.85249 0.40142 0.69362 0.0
H650 H 0.46095 0.86595 0.98155 0.0
H651 H 0.45771 0.83398 0.97068 0.0
H652 H 0.44651 0.84728 0.91655 0.0
H653 H 0.4497 0.87948 0.92742 0.0
H654 H 0.4171 0.80917 0.92523 0.0
H655 H 0.49335 0.84858 0.92805 0.0
H656 H 0.52925 0.87213 0.94128 0.0
H657 H 0.51646 0.8288 0.98366 0.0
H658 H 0.48035 0.8051 0.97085 0.0
H659 H 0.41288 0.71796 0.89319 0.0
H660 H 0.426 0.75481 0.89744 0.0
H661 H 0.43193 0.74896 0.95473 0.0
H662 H 0.41881 0.71212 0.95065 0.0
H663 H 0.46688 0.7849 0.9404 0.0
H664 H 0.38907 0.74805 0.93921 0.0
H665 H 0.3532 0.72464 0.92585 0.0
H666 H 0.36978 0.76392 0.87963 0.0
H667 H 0.40588 0.78743 0.89263 0.0
C668 C 0.45837 0.8624 0.96724 0.0
C669 C 0.45567 0.87532 0.95533 0.0
C670 C 0.4565 0.84405 0.96104 0.0
C671 C 0.45209 0.8383 0.94275 0.0
C672 C 0.44994 0.85142 0.93071 0.0
C673 C 0.45173 0.86978 0.93694 0.0
C674 C 0.448 0.81778 0.93665 0.0
C675 C 0.42824 0.80407 0.92817 0.0
C676 C 0.46233 0.81093 0.94078 0.0
C677 C 0.48406 0.82512 0.94854 0.0
C678 C 0.49812 0.84413 0.94027 0.0
C679 C 0.51852 0.8575 0.94768 0.0
C680 C 0.52511 0.85198 0.96332 0.0
C681 C 0.51133 0.83306 0.97155 0.0
C682 C 0.4909 0.81964 0.9642 0.0
C683 C 0.41716 0.72454 0.90668 0.0
C684 C 0.41466 0.71208 0.92161 0.0
C685 C 0.42461 0.74559 0.90907 0.0
C686 C 0.42978 0.75455 0.92641 0.0
C687 C 0.42804 0.74233 0.94124 0.0
C688 C 0.42044 0.72126 0.93889 0.0
C689 C 0.43594 0.77638 0.92929 0.0
C690 C 0.456 0.79024 0.93719 0.0
C691 C 0.42196 0.78343 0.92457 0.0
C692 C 0.40025 0.76935 0.91678 0.0
C693 C 0.38513 0.75159 0.92612 0.0
C694 C 0.36475 0.73833 0.91863 0.0
C695 C 0.35924 0.74275 0.90187 0.0
C696 C 0.37408 0.76049 0.89259 0.0
C697 C 0.3945 0.77379 0.90002 0.0
H698 H 0.34345 0.73247 0.8961 0.0
H699 H 0.54092 0.86236 0.96903 0.0
H700 H 0.56748 0.43929 0.08841 0.0
H701 H 0.59483 0.43308 0.07601 0.0
H702 H 0.6304 0.45382 0.12625 0.0
H703 H 0.60336 0.46013 0.1386 0.0
H704 H 0.65721 0.46811 0.09887 0.0
H705 H 0.59639 0.402 0.11602 0.0
H706 H 0.55837 0.37377 0.11544 0.0
H707 H 0.56215 0.3652 0.05853 0.0
H708 H 0.60015 0.39359 0.05874 0.0
H709 H 0.71327 0.4151 0.10631 0.0
H710 H 0.68849 0.42762 0.10938 0.0
H711 H 0.6693 0.4121 0.05358 0.0
H712 H 0.69434 0.39974 0.0503 0.0
H713 H 0.6346 0.39692 0.0784 0.0
H714 H 0.69808 0.46049 0.06322 0.0
H715 H 0.73638 0.48782 0.0654 0.0
H716 H 0.72786 0.50032 0.12033 0.0
H717 H 0.68956 0.47284 0.11858 0.0
C718 C 0.58121 0.44262 0.09674 0.0
C719 C 0.58326 0.45021 0.11447 0.0
C720 C 0.59682 0.43907 0.08965 0.0
C721 C 0.61457 0.44279 0.10027 0.0
C722 C 0.61692 0.45094 0.11776 0.0
C723 C 0.60145 0.4546 0.12479 0.0
C724 C 0.63028 0.43736 0.09367 0.0
C725 C 0.65226 0.45253 0.09444 0.0
C726 C 0.62382 0.41715 0.08749 0.0
C727 C 0.60101 0.40008 0.08735 0.0
C728 C 0.58906 0.3942 0.10336 0.0
C729 C 0.56753 0.37816 0.1031 0.0
C730 C 0.55783 0.36774 0.08695 0.0
C731 C 0.56967 0.37331 0.07103 0.0
C732 C 0.5912 0.38937 0.07121 0.0
C733 C 0.7039 0.41447 0.09465 0.0
C734 C 0.70574 0.40642 0.07807 0.0
C735 C 0.68982 0.42171 0.0964 0.0
C736 C 0.67718 0.42088 0.08167 0.0
C737 C 0.67899 0.41292 0.06507 0.0
C738 C 0.69333 0.40593 0.06322 0.0
C739 C 0.66147 0.42755 0.08402 0.0
C740 C 0.63951 0.4126 0.08248 0.0
C741 C 0.66795 0.44788 0.08969 0.0
C742 C 0.69097 0.46449 0.0908 0.0
C743 C 0.7044 0.46895 0.07582 0.0
C744 C 0.72611 0.48449 0.07696 0.0
C745 C 0.73455 0.49577 0.093 0.0
C746 C 0.72129 0.49156 0.10792 0.0
C747 C 0.69958 0.47602 0.10684 0.0
H748 H 0.75136 0.5078 0.09386 0.0
H749 H 0.54116 0.35532 0.08677 0.0
H750 H 0.45768 0.8783 0.52569 0.0
H751 H 0.43035 0.84405 0.53635 0.0
H752 H 0.38211 0.84711 0.50476 0.0
H753 H 0.40942 0.88093 0.4935 0.0
H754 H 0.39232 0.82571 0.55378 0.0
H755 H 0.35116 0.80064 0.48364 0.0
H756 H 0.3598 0.81001 0.45164 0.0
H757 H 0.42644 0.83282 0.46281 0.0
H758 H 0.41814 0.82333 0.4948 0.0
H759 H 0.301 0.72278 0.55987 0.0
H760 H 0.32435 0.75987 0.55411 0.0
H761 H 0.36386 0.74702 0.51983 0.0
H762 H 0.34043 0.71009 0.52514 0.0
H763 H 0.35705 0.77389 0.50433 0.0
H764 H 0.37927 0.76608 0.56342 0.0
H765 H 0.37442 0.75602 0.59544 0.0
H766 H 0.35193 0.79743 0.60649 0.0
H767 H 0.35638 0.80754 0.57447 0.0
C768 C 0.4412 0.87177 0.52117 0.0
C769 C 0.4358 0.88222 0.50853 0.0
C770 C 0.42557 0.85228 0.5274 0.0
C771 C 0.40429 0.8429 0.5211 0.0
C772 C 0.39852 0.85398 0.50961 0.0
C773 C 0.41414 0.87341 0.5033 0.0
C774 C 0.38877 0.82082 0.52499 0.0
C775 C 0.38445 0.81438 0.543 0.0
C776 C 0.37891 0.80598 0.5109 0.0
C777 C 0.38404 0.8115 0.49164 0.0
C778 C 0.36764 0.8076 0.47924 0.0
C779 C 0.37248 0.81293 0.46111 0.0
C780 C 0.39367 0.82207 0.45521 0.0
C781 C 0.41005 0.82582 0.46741 0.0
C782 C 0.40528 0.82048 0.48554 0.0
C783 C 0.31466 0.72788 0.55109 0.0
C784 C 0.31886 0.71349 0.54296 0.0
C785 C 0.32804 0.74908 0.54788 0.0
C786 C 0.34597 0.75625 0.53665 0.0
C787 C 0.35009 0.74187 0.52849 0.0
C788 C 0.33669 0.72073 0.53158 0.0
C789 C 0.36045 0.77867 0.53316 0.0
C790 C 0.36462 0.78521 0.51517 0.0
C791 C 0.37061 0.79344 0.54727 0.0
C792 C 0.36793 0.78739 0.56652 0.0
C793 C 0.37312 0.77291 0.57265 0.0
C794 C 0.37048 0.76722 0.5908 0.0
C795 C 0.36281 0.77603 0.60298 0.0
C796 C 0.35783 0.79059 0.59703 0.0
C797 C 0.36042 0.79632 0.57889 0.0
H798 H 0.36078 0.77161 0.61703 0.0
H799 H 0.39739 0.8262 0.44117 0.0
H800 H 0.51462 0.39262 0.68922 0.0
H801 H 0.53026 0.37297 0.7008 0.0
H802 H 0.59054 0.4159 0.67579 0.0
H803 H 0.57488 0.4353 0.66381 0.0
H804 H 0.5773 0.3763 0.66715 0.0
H805 H 0.58557 0.41489 0.72133 0.0
H806 H 0.57371 0.42837 0.74617 0.0
H807 H 0.52904 0.36632 0.76317 0.0
H808 H 0.54042 0.35245 0.73827 0.0
H809 H 0.63863 0.33682 0.70272 0.0
H810 H 0.62507 0.35963 0.6961 0.0
H811 H 0.56536 0.31721 0.72215 0.0
H812 H 0.57899 0.2944 0.72916 0.0
H813 H 0.57843 0.35681 0.7308 0.0
H814 H 0.56885 0.31809 0.67645 0.0
H815 H 0.57984 0.30405 0.65143 0.0
H816 H 0.62584 0.36574 0.63448 0.0
H817 H 0.61531 0.38016 0.65956 0.0
C818 C 0.53127 0.39797 0.68633 0.0
C819 C 0.5435 0.41549 0.67556 0.0
C820 C 0.54023 0.38682 0.69307 0.0
C821 C 0.56159 0.39302 0.68921 0.0
C822 C 0.57403 0.41087 0.67895 0.0
C823 C 0.56511 0.42205 0.67225 0.0
C824 C 0.57048 0.38006 0.69468 0.0
C825 C 0.57789 0.37234 0.68111 0.0
C826 C 0.57057 0.37433 0.71282 0.0
C827 C 0.56371 0.38263 0.72782 0.0
C828 C 0.57309 0.40411 0.73027 0.0
C829 C 0.56647 0.41182 0.74438 0.0
C830 C 0.55059 0.39821 0.75621 0.0
C831 C 0.54132 0.37685 0.75398 0.0
C832 C 0.54787 0.36905 0.73988 0.0
C833 C 0.62262 0.33233 0.7071 0.0
C834 C 0.60982 0.3137 0.71634 0.0
C835 C 0.61488 0.34538 0.70326 0.0
C836 C 0.59408 0.33997 0.70839 0.0
C837 C 0.58144 0.32165 0.71803 0.0
C838 C 0.58923 0.30861 0.72197 0.0
C839 C 0.5854 0.35322 0.70328 0.0
C840 C 0.57793 0.36089 0.71687 0.0
C841 C 0.58512 0.35883 0.68513 0.0
C842 C 0.59144 0.3502 0.67 0.0
C843 C 0.58143 0.32866 0.66747 0.0
C844 C 0.58755 0.32063 0.65327 0.0
C845 C 0.60357 0.33399 0.6414 0.0
C846 C 0.61345 0.35541 0.6437 0.0
C847 C 0.6074 0.36352 0.6579 0.0
H848 H 0.60829 0.32775 0.63041 0.0
H849 H 0.5455 0.40421 0.76713 0.0
H850 H 0.15374 0.59092 0.85979 0.0
H851 H 0.18781 0.59918 0.8739 0.0
H852 H 0.188 0.55132 0.84207 0.0
H853 H 0.15426 0.54324 0.82761 0.0
H854 H 0.20176 0.55291 0.87774 0.0
H855 H 0.2157 0.59927 0.82794 0.0
H856 H 0.21165 0.62501 0.81089 0.0
H857 H 0.2359 0.6667 0.85638 0.0
H858 H 0.23979 0.64106 0.8738 0.0
H859 H 0.31208 0.58464 0.87589 0.0
H860 H 0.27459 0.5735 0.86969 0.0
H861 H 0.28336 0.62794 0.89716 0.0
H862 H 0.32103 0.63945 0.90297 0.0
H863 H 0.26399 0.62332 0.86636 0.0
H864 H 0.25328 0.57858 0.91553 0.0
H865 H 0.25702 0.55291 0.93298 0.0
H866 H 0.22669 0.50843 0.88993 0.0
H867 H 0.22303 0.53393 0.8721 0.0
C868 C 0.16099 0.58211 0.85582 0.0
C869 C 0.15134 0.56653 0.84245 0.0
C870 C 0.18039 0.58677 0.86397 0.0
C871 C 0.19049 0.57597 0.85889 0.0
C872 C 0.18041 0.55977 0.84622 0.0
C873 C 0.16107 0.55515 0.83801 0.0
C874 C 0.21228 0.58251 0.86575 0.0
C875 C 0.21544 0.56824 0.87519 0.0
C876 C 0.22996 0.60268 0.86275 0.0
C877 C 0.2278 0.61816 0.85223 0.0
C878 C 0.22001 0.61386 0.83435 0.0
C879 C 0.21776 0.62844 0.82461 0.0
C880 C 0.22345 0.64746 0.83257 0.0
C881 C 0.23146 0.65195 0.85026 0.0
C882 C 0.23369 0.63741 0.86006 0.0
C883 C 0.30598 0.59414 0.88076 0.0
C884 C 0.31955 0.61296 0.88987 0.0
C885 C 0.28449 0.58769 0.8773 0.0
C886 C 0.27606 0.59977 0.88313 0.0
C887 C 0.28949 0.61836 0.89254 0.0
C888 C 0.31103 0.62491 0.89586 0.0
C889 C 0.25367 0.5937 0.87838 0.0
C890 C 0.25037 0.60804 0.8692 0.0
C891 C 0.23588 0.57364 0.88173 0.0
C892 C 0.23805 0.55824 0.89241 0.0
C893 C 0.24756 0.56338 0.90972 0.0
C894 C 0.24964 0.54885 0.91969 0.0
C895 C 0.24214 0.52907 0.91255 0.0
C896 C 0.23251 0.52376 0.89544 0.0
C897 C 0.23041 0.53824 0.8854 0.0
H898 H 0.24376 0.51784 0.9203 0.0
H899 H 0.22171 0.65872 0.82501 0.0
H900 H 0.57371 0.17564 0.99405 0.0
H901 H 0.60369 0.20732 0.00718 0.0
H902 H 0.60874 0.17213 0.0505 0.0
H903 H 0.5786 0.1401 0.03726 0.0
H904 H 0.60971 0.21032 0.06105 0.0
H905 H 0.64489 0.18691 0.02191 0.0
H906 H 0.65057 0.17338 0.99348 0.0
H907 H 0.66133 0.22764 0.96571 0.0
H908 H 0.65538 0.24136 0.99392 0.0
H909 H 0.70682 0.30338 0.08836 0.0
H910 H 0.68113 0.26706 0.0806 0.0
H911 H 0.67198 0.28526 0.0278 0.0
H912 H 0.69779 0.32137 0.03528 0.0
H913 H 0.67567 0.25231 0.02518 0.0
H914 H 0.6356 0.27332 0.06214 0.0
H915 H 0.62813 0.287 0.08962 0.0
H916 H 0.62523 0.23777 0.12062 0.0
H917 H 0.63296 0.22394 0.09333 0.0
C918 C 0.58107 0.17465 0.00646 0.0
C919 C 0.57378 0.15546 0.01471 0.0
C920 C 0.59826 0.19272 0.01387 0.0
C921 C 0.60845 0.192 0.02973 0.0
C922 C 0.60105 0.17293 0.03822 0.0
C923 C 0.58396 0.15472 0.03064 0.0
C924 C 0.62688 0.21137 0.03715 0.0
C925 C 0.62438 0.21934 0.05347 0.0
C926 C 0.64576 0.2232 0.02701 0.0
C927 C 0.64954 0.2151 0.01002 0.0
C928 C 0.6483 0.19589 0.00971 0.0
C929 C 0.6516 0.18819 0.99364 0.0
C930 C 0.65627 0.19962 0.97779 0.0
C931 C 0.6577 0.2188 0.97799 0.0
C932 C 0.6544 0.22655 0.99403 0.0
C933 C 0.69937 0.29963 0.07509 0.0
C934 C 0.70432 0.31529 0.06246 0.0
C935 C 0.68464 0.27887 0.07069 0.0
C936 C 0.6745 0.27345 0.05366 0.0
C937 C 0.67964 0.28905 0.04101 0.0
C938 C 0.69437 0.30973 0.04534 0.0
C939 C 0.65832 0.25163 0.04888 0.0
C940 C 0.66123 0.24317 0.03301 0.0
C941 C 0.63974 0.23945 0.05936 0.0
C942 C 0.63513 0.24776 0.07576 0.0
C943 C 0.63356 0.26552 0.07485 0.0
C944 C 0.62924 0.27328 0.09038 0.0
C945 C 0.62628 0.2633 0.10687 0.0
C946 C 0.62758 0.24551 0.10785 0.0
C947 C 0.63192 0.2377 0.09235 0.0
H948 H 0.62293 0.26932 0.11888 0.0
H949 H 0.65881 0.19364 0.96536 0.0
H950 H 0.46507 0.60776 0.18367 0.0
H951 H 0.45853 0.6352 0.19306 0.0
H952 H 0.39171 0.59635 0.17798 0.0
H953 H 0.39816 0.56921 0.16823 0.0
H954 H 0.41007 0.63472 0.1633 0.0
H955 H 0.40703 0.60533 0.22188 0.0
H956 H 0.42124 0.59445 0.24699 0.0
H957 H 0.47453 0.65677 0.25337 0.0
H958 H 0.46078 0.66796 0.22812 0.0
H959 H 0.35938 0.68407 0.19866 0.0
H960 H 0.37132 0.65993 0.1925 0.0
H961 H 0.43468 0.70457 0.21274 0.0
H962 H 0.42265 0.7288 0.21938 0.0
H963 H 0.42247 0.66646 0.22436 0.0
H964 H 0.42518 0.69666 0.16745 0.0
H965 H 0.41196 0.70824 0.14214 0.0
H966 H 0.36109 0.64556 0.13195 0.0
H967 H 0.37382 0.63363 0.15738 0.0
C968 C 0.44897 0.60504 0.18249 0.0
C969 C 0.43213 0.58626 0.17525 0.0
C970 C 0.44523 0.62067 0.18795 0.0
C971 C 0.42462 0.61778 0.18623 0.0
C972 C 0.40773 0.59889 0.17943 0.0
C973 C 0.41142 0.58329 0.17404 0.0
C974 C 0.42067 0.63472 0.1905 0.0
C975 C 0.41258 0.64152 0.1767 0.0
C976 C 0.42477 0.64415 0.20779 0.0
C977 C 0.43301 0.63743 0.22298 0.0
C978 C 0.42188 0.61667 0.22853 0.0
C979 C 0.42983 0.61046 0.24281 0.0
C980 C 0.44881 0.6249 0.25173 0.0
C981 C 0.45985 0.64559 0.24643 0.0
C982 C 0.45198 0.65188 0.23214 0.0
C983 C 0.37587 0.68883 0.2018 0.0
C984 C 0.39012 0.70844 0.20938 0.0
C985 C 0.3827 0.675 0.19822 0.0
C986 C 0.40401 0.68057 0.20186 0.0
C987 C 0.4182 0.69999 0.20975 0.0
C988 C 0.41132 0.71383 0.21348 0.0
C989 C 0.41127 0.66602 0.19727 0.0
C990 C 0.42011 0.65977 0.21093 0.0
C991 C 0.40805 0.65718 0.17979 0.0
C992 C 0.40038 0.66427 0.16441 0.0
C993 C 0.41109 0.68536 0.15989 0.0
C994 C 0.40369 0.69199 0.14551 0.0
C995 C 0.38567 0.67765 0.13547 0.0
C996 C 0.37504 0.65665 0.13976 0.0
C997 C 0.38236 0.64994 0.15414 0.0
H998 H 0.37997 0.68281 0.12434 0.0
H999 H 0.45493 0.62006 0.26279 0.0
H1000 H 0.84202 0.42255 0.34941 0.0
H1001 H 0.80914 0.41768 0.36246 0.0
H1002 H 0.83527 0.48359 0.36146 0.0
H1003 H 0.86886 0.48878 0.34915 0.0
H1004 H 0.81148 0.46633 0.39169 0.0
H1005 H 0.8023 0.4536 0.32803 0.0
H1006 H 0.80359 0.43799 0.29911 0.0
H1007 H 0.75914 0.37736 0.31925 0.0
H1008 H 0.75783 0.39259 0.3484 0.0
H1009 H 0.7066 0.4547 0.39521 0.0
H1010 H 0.74332 0.46424 0.38762 0.0
H1011 H 0.72386 0.39971 0.38672 0.0
H1012 H 0.68724 0.39006 0.39406 0.0
H1013 H 0.74512 0.41895 0.35681 0.0
H1014 H 0.7551 0.43236 0.42101 0.0
H1015 H 0.75399 0.44864 0.4496 0.0
H1016 H 0.79668 0.50888 0.42784 0.0
H1017 H 0.79781 0.49296 0.39903 0.0
C1018 C 0.84111 0.43612 0.3524 0.0
C1019 C 0.85812 0.45608 0.3481 0.0
C1020 C 0.82215 0.43327 0.35968 0.0
C1021 C 0.81959 0.45023 0.36257 0.0
C1022 C 0.83686 0.47027 0.35919 0.0
C1023 C 0.85596 0.47318 0.352 0.0
C1024 C 0.79842 0.44678 0.36808 0.0
C1025 C 0.79699 0.45619 0.38396 0.0
C1026 C 0.77951 0.43345 0.35804 0.0
C1027 C 0.78011 0.42423 0.34046 0.0
C1028 C 0.79291 0.43693 0.32634 0.0
C1029 C 0.79363 0.42815 0.3099 0.0
C1030 C 0.78149 0.40669 0.30736 0.0
C1031 C 0.76855 0.39397 0.32124 0.0
C1032 C 0.7678 0.40267 0.33772 0.0
C1033 C 0.71021 0.44257 0.39359 0.0
C1034 C 0.69396 0.42161 0.39513 0.0
C1035 C 0.73122 0.44805 0.38931 0.0
C1036 C 0.73633 0.43268 0.38664 0.0
C1037 C 0.72025 0.41182 0.38866 0.0
C1038 C 0.69931 0.40633 0.39288 0.0
C1039 C 0.75803 0.43805 0.38069 0.0
C1040 C 0.75959 0.4291 0.36457 0.0
C1041 C 0.77699 0.45191 0.39047 0.0
C1042 C 0.77636 0.46148 0.4078 0.0
C1043 C 0.76411 0.44909 0.42227 0.0
C1044 C 0.7635 0.45825 0.43852 0.0
C1045 C 0.77521 0.47978 0.44052 0.0
C1046 C 0.78759 0.4922 0.42627 0.0
C1047 C 0.78824 0.48312 0.40998 0.0
H1048 H 0.77472 0.48684 0.45311 0.0
H1049 H 0.78207 0.39992 0.29462 0.0
H1050 H 0.0939 0.56303 0.40974 0.0
H1051 H 0.11388 0.57616 0.43824 0.0
H1052 H 0.16873 0.57802 0.41438 0.0
H1053 H 0.14929 0.56561 0.38579 0.0
H1054 H 0.15892 0.56015 0.44858 0.0
H1055 H 0.16888 0.62131 0.41876 0.0
H1056 H 0.15659 0.64263 0.40407 0.0
H1057 H 0.12322 0.64109 0.45218 0.0
H1058 H 0.13507 0.61949 0.46707 0.0
H1059 H 0.2445 0.62411 0.508 0.0
H1060 H 0.22042 0.60838 0.48201 0.0
H1061 H 0.17285 0.61718 0.50809 0.0
H1062 H 0.1971 0.63346 0.53393 0.0
H1063 H 0.17605 0.62793 0.47422 0.0
H1064 H 0.16741 0.56887 0.50503 0.0
H1065 H 0.17889 0.54714 0.52013 0.0
H1066 H 0.20815 0.54362 0.47117 0.0
H1067 H 0.19711 0.56559 0.45583 0.0
C1068 C 0.11027 0.56638 0.4105 0.0
C1069 C 0.11993 0.56317 0.39544 0.0
C1070 C 0.12161 0.57378 0.42682 0.0
C1071 C 0.14277 0.57806 0.42837 0.0
C1072 C 0.15235 0.57465 0.41348 0.0
C1073 C 0.14113 0.56744 0.39716 0.0
C1074 C 0.15521 0.58644 0.44539 0.0
C1075 C 0.16283 0.57504 0.45414 0.0
C1076 C 0.15973 0.60557 0.45287 0.0
C1077 C 0.15265 0.61859 0.44395 0.0
C1078 C 0.15876 0.62536 0.42615 0.0
C1079 C 0.15191 0.63752 0.4178 0.0
C1080 C 0.13907 0.64315 0.42717 0.0
C1081 C 0.13312 0.63668 0.44493 0.0
C1082 C 0.13991 0.62449 0.45333 0.0
C1083 C 0.22889 0.62264 0.50823 0.0
C1084 C 0.2227 0.63001 0.52304 0.0
C1085 C 0.21508 0.61354 0.4934 0.0
C1086 C 0.19468 0.61131 0.4932 0.0
C1087 C 0.18849 0.6187 0.50796 0.0
C1088 C 0.20237 0.62797 0.52273 0.0
C1089 C 0.18005 0.60176 0.47739 0.0
C1090 C 0.172 0.61293 0.46882 0.0
C1091 C 0.17497 0.58232 0.47017 0.0
C1092 C 0.18158 0.56903 0.47932 0.0
C1093 C 0.17643 0.56359 0.49752 0.0
C1094 C 0.18284 0.55121 0.50611 0.0
C1095 C 0.19428 0.54404 0.49663 0.0
C1096 C 0.1993 0.5492 0.47851 0.0
C1097 C 0.19295 0.5616 0.46985 0.0
H1098 H 0.19923 0.53445 0.50331 0.0
H1099 H 0.13379 0.65258 0.42069 0.0
H1100 H 0.5484 0.13363 0.55844 0.0
H1101 H 0.55523 0.1515 0.58759 0.0
H1102 H 0.60576 0.13926 0.59904 0.0
H1103 H 0.59905 0.12137 0.56979 0.0
H1104 H 0.57686 0.13266 0.62897 0.0
H1105 H 0.62098 0.18398 0.58494 0.0
H1106 H 0.62739 0.20248 0.55619 0.0
H1107 H 0.58346 0.22167 0.57147 0.0
H1108 H 0.57654 0.20299 0.60021 0.0
H1109 H 0.62914 0.2053 0.70031 0.0
H1110 H 0.62031 0.18429 0.67284 0.0
H1111 H 0.58075 0.20783 0.65429 0.0
H1112 H 0.59012 0.22942 0.68146 0.0
H1113 H 0.60377 0.20793 0.62784 0.0
H1114 H 0.55921 0.15774 0.67143 0.0
H1115 H 0.55064 0.13843 0.69991 0.0
H1116 H 0.5923 0.11618 0.68568 0.0
H1117 H 0.60135 0.13561 0.65721 0.0
C1118 C 0.56074 0.13446 0.5673 0.0
C1119 C 0.57323 0.12615 0.56188 0.0
C1120 C 0.56468 0.14474 0.58387 0.0
C1121 C 0.58106 0.14676 0.59535 0.0
C1122 C 0.59304 0.13783 0.59031 0.0
C1123 C 0.58929 0.12775 0.57361 0.0
C1124 C 0.58635 0.15913 0.61219 0.0
C1125 C 0.58301 0.14917 0.6288 0.0
C1126 C 0.59378 0.18052 0.61184 0.0
C1127 C 0.59808 0.19192 0.59464 0.0
C1128 C 0.61255 0.192 0.58211 0.0
C1129 C 0.6163 0.20254 0.56582 0.0
C1130 C 0.6058 0.2132 0.56198 0.0
C1131 C 0.59157 0.21338 0.57445 0.0
C1132 C 0.58773 0.20283 0.59074 0.0
C1133 C 0.61851 0.20596 0.6904 0.0
C1134 C 0.61031 0.219 0.69306 0.0
C1135 C 0.61337 0.19384 0.67474 0.0
C1136 C 0.5996 0.19422 0.66159 0.0
C1137 C 0.5914 0.20725 0.66424 0.0
C1138 C 0.59674 0.21957 0.67979 0.0
C1139 C 0.59423 0.18152 0.64484 0.0
C1140 C 0.59759 0.19142 0.62815 0.0
C1141 C 0.58654 0.16002 0.64516 0.0
C1142 C 0.58112 0.1483 0.66226 0.0
C1143 C 0.56668 0.14887 0.67444 0.0
C1144 C 0.56171 0.13787 0.69057 0.0
C1145 C 0.57096 0.12613 0.69463 0.0
C1146 C 0.58517 0.12531 0.68253 0.0
C1147 C 0.59021 0.13629 0.66639 0.0
H1148 H 0.56709 0.11762 0.70712 0.0
H1149 H 0.60872 0.22136 0.54937 0.0
H1150 H 0.43011 0.58586 0.71073 0.0
H1151 H 0.41737 0.59589 0.73699 0.0
H1152 H 0.46594 0.59534 0.77021 0.0
H1153 H 0.47841 0.58464 0.74404 0.0
H1154 H 0.42718 0.57763 0.78712 0.0
H1155 H 0.47328 0.64051 0.75524 0.0
H1156 H 0.48615 0.66323 0.72871 0.0
H1157 H 0.42519 0.65906 0.72391 0.0
H1158 H 0.41185 0.63607 0.75028 0.0
H1159 H 0.42269 0.63479 0.86121 0.0
H1160 H 0.43461 0.62332 0.83535 0.0
H1161 H 0.3879 0.62619 0.80135 0.0
H1162 H 0.37611 0.63805 0.82712 0.0
H1163 H 0.4257 0.64252 0.78485 0.0
H1164 H 0.37943 0.57982 0.81658 0.0
H1165 H 0.36618 0.55685 0.84293 0.0
H1166 H 0.42678 0.56031 0.84787 0.0
H1167 H 0.44051 0.58355 0.82168 0.0
C1168 C 0.43788 0.58753 0.72367 0.0
C1169 C 0.4553 0.58446 0.72529 0.0
C1170 C 0.43071 0.59348 0.73863 0.0
C1171 C 0.4409 0.59664 0.75548 0.0
C1172 C 0.45792 0.59307 0.75729 0.0
C1173 C 0.46512 0.58711 0.74231 0.0
C1174 C 0.43402 0.60403 0.77112 0.0
C1175 C 0.42712 0.59196 0.78674 0.0
C1176 C 0.43347 0.62248 0.77042 0.0
C1177 C 0.44151 0.63641 0.75463 0.0
C1178 C 0.46257 0.64431 0.74845 0.0
C1179 C 0.46995 0.65726 0.73346 0.0
C1180 C 0.45648 0.66254 0.72461 0.0
C1181 C 0.43561 0.65494 0.73077 0.0
C1182 C 0.42813 0.64196 0.74574 0.0
C1183 C 0.41495 0.63302 0.84823 0.0
C1184 C 0.39839 0.63727 0.84623 0.0
C1185 C 0.42173 0.62636 0.83348 0.0
C1186 C 0.41193 0.6236 0.81648 0.0
C1187 C 0.39564 0.62816 0.81437 0.0
C1188 C 0.3889 0.63491 0.82911 0.0
C1189 C 0.4188 0.61611 0.80088 0.0
C1190 C 0.42573 0.62819 0.78526 0.0
C1191 C 0.41931 0.59763 0.80157 0.0
C1192 C 0.41106 0.58359 0.81727 0.0
C1193 C 0.38999 0.57582 0.82337 0.0
C1194 C 0.38238 0.56272 0.83826 0.0
C1195 C 0.39564 0.55716 0.8471 0.0
C1196 C 0.41653 0.56465 0.84102 0.0
C1197 C 0.42423 0.57777 0.82615 0.0
H1198 H 0.38972 0.54702 0.85862 0.0
H1199 H 0.46223 0.67257 0.713 0.0
H1200 H 0.91729 0.42694 0.91319 0.0
H1201 H 0.89671 0.42187 0.94065 0.0
H1202 H 0.85306 0.43376 0.91105 0.0
H1203 H 0.87355 0.43884 0.88353 0.0
H1204 H 0.86257 0.45228 0.94412 0.0
H1205 H 0.8396 0.38469 0.91974 0.0
H1206 H 0.84466 0.35686 0.90813 0.0
H1207 H 0.87279 0.35543 0.9588 0.0
H1208 H 0.86817 0.38347 0.97063 0.0
H1209 H 0.77492 0.40626 0.00537 0.0
H1210 H 0.79835 0.41615 0.97913 0.0
H1211 H 0.84034 0.40144 0.00799 0.0
H1212 H 0.8168 0.39112 0.03409 0.0
H1213 H 0.83212 0.38499 0.97536 0.0
H1214 H 0.85425 0.45209 0.00012 0.0
H1215 H 0.84919 0.47995 0.01162 0.0
H1216 H 0.82258 0.48236 0.96045 0.0
H1217 H 0.82722 0.4543 0.94871 0.0
C1218 C 0.90331 0.42847 0.91253 0.0
C1219 C 0.89695 0.43314 0.89616 0.0
C1220 C 0.8916 0.42561 0.92823 0.0
C1221 C 0.87319 0.42717 0.92782 0.0
C1222 C 0.86722 0.43251 0.91166 0.0
C1223 C 0.87897 0.43544 0.89596 0.0
C1224 C 0.8597 0.42244 0.94408 0.0
C1225 C 0.85571 0.4375 0.95086 0.0
C1226 C 0.85109 0.40328 0.95304 0.0
C1227 C 0.85373 0.38631 0.946 0.0
C1228 C 0.847 0.37854 0.92836 0.0
C1229 C 0.84977 0.36272 0.92175 0.0
C1230 C 0.85909 0.35442 0.93271 0.0
C1231 C 0.8656 0.36189 0.95032 0.0
C1232 C 0.8629 0.37774 0.95699 0.0
C1233 C 0.78922 0.40527 0.00617 0.0
C1234 C 0.79397 0.39785 0.0218 0.0
C1235 C 0.80266 0.41102 0.99119 0.0
C1236 C 0.82122 0.40971 0.99164 0.0
C1237 C 0.8261 0.40256 0.00732 0.0
C1238 C 0.81263 0.39669 0.02224 0.0
C1239 C 0.83506 0.41489 0.97554 0.0
C1240 C 0.83905 0.39984 0.96871 0.0
C1241 C 0.84364 0.43405 0.96657 0.0
C1242 C 0.8409 0.45096 0.97359 0.0
C1243 C 0.84716 0.45845 0.99136 0.0
C1244 C 0.8444 0.4743 0.99792 0.0
C1245 C 0.83552 0.48288 0.98679 0.0
C1246 C 0.82944 0.47567 0.96906 0.0
C1247 C 0.83215 0.45982 0.96244 0.0
H1248 H 0.83339 0.49515 0.99189 0.0
H1249 H 0.86122 0.34217 0.92757 0.0
H1250 H 0.44011 0.92808 0.07794 0.0
H1251 H 0.43349 0.90985 0.10662 0.0
H1252 H 0.39834 0.85124 0.07833 0.0
H1253 H 0.40475 0.86932 0.04973 0.0
H1254 H 0.37818 0.85011 0.10832 0.0
H1255 H 0.45075 0.87158 0.09229 0.0
H1256 H 0.48824 0.89656 0.08393 0.0
H1257 H 0.49807 0.9297 0.1338 0.0
H1258 H 0.46052 0.90506 0.14234 0.0
H1259 H 0.38303 0.78251 0.17144 0.0
H1260 H 0.38797 0.80365 0.14498 0.0
H1261 H 0.4167 0.85856 0.17858 0.0
H1262 H 0.41181 0.83753 0.20518 0.0
H1263 H 0.43977 0.86329 0.14735 0.0
H1264 H 0.36713 0.83965 0.16397 0.0
H1265 H 0.32982 0.81375 0.172 0.0
H1266 H 0.32034 0.78362 0.12053 0.0
H1267 H 0.35772 0.80918 0.1123 0.0
C1268 C 0.43096 0.91131 0.07787 0.0
C1269 C 0.42297 0.90013 0.06159 0.0
C1270 C 0.4272 0.90092 0.09424 0.0
C1271 C 0.41563 0.87917 0.09459 0.0
C1272 C 0.40725 0.86802 0.07839 0.0
C1273 C 0.41088 0.87838 0.06206 0.0
C1274 C 0.41261 0.86793 0.11171 0.0
C1275 C 0.39167 0.85287 0.11677 0.0
C1276 C 0.43017 0.87183 0.12294 0.0
C1277 C 0.45276 0.88662 0.11786 0.0
C1278 C 0.46086 0.88429 0.10141 0.0
C1279 C 0.48212 0.89837 0.09665 0.0
C1280 C 0.49551 0.91474 0.10831 0.0
C1281 C 0.48767 0.91703 0.12477 0.0
C1282 C 0.4664 0.90301 0.12958 0.0
C1283 C 0.3904 0.79908 0.17322 0.0
C1284 C 0.39699 0.80834 0.19042 0.0
C1285 C 0.39313 0.81112 0.1581 0.0
C1286 C 0.40252 0.83263 0.15987 0.0
C1287 C 0.40937 0.84197 0.17696 0.0
C1288 C 0.4065 0.82992 0.19213 0.0
C1289 C 0.40539 0.84535 0.14381 0.0
C1290 C 0.42629 0.86067 0.13897 0.0
C1291 C 0.38782 0.84158 0.1327 0.0
C1292 C 0.3653 0.82623 0.13759 0.0
C1293 C 0.35715 0.8274 0.15442 0.0
C1294 C 0.33597 0.8128 0.159 0.0
C1295 C 0.32273 0.79702 0.1468 0.0
C1296 C 0.33062 0.79584 0.12998 0.0
C1297 C 0.3518 0.8104 0.12534 0.0
H1298 H 0.30634 0.78573 0.15037 0.0
H1299 H 0.51197 0.92562 0.1046 0.0
H1300 H 0.57832 0.46687 0.21922 0.0
H1301 H 0.59374 0.46072 0.24622 0.0
H1302 H 0.53011 0.41586 0.26442 0.0
H1303 H 0.51457 0.42183 0.23731 0.0
H1304 H 0.56 0.44437 0.2922 0.0
H1305 H 0.55438 0.39728 0.24504 0.0
H1306 H 0.56022 0.38845 0.21437 0.0
H1307 H 0.62851 0.42698 0.22211 0.0
H1308 H 0.62305 0.43631 0.25275 0.0
H1309 H 0.58407 0.38987 0.35594 0.0
H1310 H 0.56933 0.39936 0.33067 0.0
H1311 H 0.63233 0.43366 0.30708 0.0
H1312 H 0.64714 0.42384 0.33213 0.0
H1313 H 0.60332 0.41176 0.28202 0.0
H1314 H 0.61013 0.45831 0.32902 0.0
H1315 H 0.60546 0.46859 0.35949 0.0
H1316 H 0.53692 0.43339 0.35219 0.0
H1317 H 0.54117 0.42264 0.32175 0.0
C1318 C 0.56762 0.45599 0.22915 0.0
C1319 C 0.54527 0.44479 0.22622 0.0
C1320 C 0.57643 0.45243 0.24449 0.0
C1321 C 0.56303 0.43776 0.25719 0.0
C1322 C 0.54067 0.42725 0.25473 0.0
C1323 C 0.53185 0.43059 0.23925 0.0
C1324 C 0.57244 0.43245 0.27242 0.0
C1325 C 0.56928 0.43703 0.29006 0.0
C1326 C 0.58498 0.42339 0.26946 0.0
C1327 C 0.5883 0.41767 0.25111 0.0
C1328 C 0.57064 0.40402 0.24014 0.0
C1329 C 0.57388 0.3989 0.22278 0.0
C1330 C 0.59472 0.4072 0.21627 0.0
C1331 C 0.61237 0.42059 0.22715 0.0
C1332 C 0.60921 0.4258 0.24452 0.0
C1333 C 0.5948 0.39941 0.34537 0.0
C1334 C 0.6168 0.40616 0.34607 0.0
C1335 C 0.58637 0.40492 0.33098 0.0
C1336 C 0.59979 0.4175 0.31713 0.0
C1337 C 0.62169 0.424 0.31765 0.0
C1338 C 0.63013 0.41839 0.33199 0.0
C1339 C 0.5909 0.42362 0.30198 0.0
C1340 C 0.59413 0.41917 0.28427 0.0
C1341 C 0.57861 0.43301 0.3049 0.0
C1342 C 0.57597 0.43951 0.32317 0.0
C1343 C 0.59405 0.45263 0.33396 0.0
C1344 C 0.59148 0.45856 0.35122 0.0
C1345 C 0.5709 0.4516 0.35779 0.0
C1346 C 0.55285 0.43874 0.34709 0.0
C1347 C 0.55533 0.43274 0.32983 0.0
H1348 H 0.56895 0.45621 0.37116 0.0
H1349 H 0.5972 0.40321 0.20283 0.0
H1350 H 0.43419 0.88046 0.40878 0.0
H1351 H 0.42024 0.8562 0.38329 0.0
H1352 H 0.47728 0.8965 0.35306 0.0
H1353 H 0.49122 0.92115 0.37846 0.0
H1354 H 0.43937 0.88002 0.3325 0.0
H1355 H 0.47354 0.85569 0.37307 0.0
H1356 H 0.47993 0.84509 0.40273 0.0
H1357 H 0.41378 0.79605 0.40471 0.0
H1358 H 0.40693 0.80653 0.37514 0.0
H1359 H 0.42627 0.80833 0.26467 0.0
H1360 H 0.44066 0.83337 0.28957 0.0
H1361 H 0.3883 0.79053 0.32322 0.0
H1362 H 0.37417 0.76515 0.29851 0.0
H1363 H 0.42407 0.80866 0.34212 0.0
H1364 H 0.38889 0.83197 0.30263 0.0
H1365 H 0.38066 0.84245 0.27369 0.0
H1366 H 0.44599 0.89299 0.27032 0.0
H1367 H 0.45469 0.88262 0.29913 0.0
C1368 C 0.44362 0.88436 0.3966 0.0
C1369 C 0.46382 0.90273 0.39562 0.0
C1370 C 0.4357 0.87039 0.38211 0.0
C1371 C 0.44785 0.87445 0.3664 0.0
C1372 C 0.46771 0.89306 0.36512 0.0
C1373 C 0.4757 0.90704 0.37966 0.0
C1374 C 0.44007 0.85896 0.35153 0.0
C1375 C 0.4363 0.8645 0.33449 0.0
C1376 C 0.4355 0.83856 0.35435 0.0
C1377 C 0.43969 0.832 0.37196 0.0
C1378 C 0.46033 0.84272 0.37988 0.0
C1379 C 0.46404 0.83672 0.39667 0.0
C1380 C 0.44726 0.81994 0.40562 0.0
C1381 C 0.42676 0.80906 0.39776 0.0
C1382 C 0.42296 0.815 0.38098 0.0
C1383 C 0.41788 0.80419 0.2774 0.0
C1384 C 0.39902 0.78478 0.2796 0.0
C1385 C 0.42605 0.81857 0.2916 0.0
C1386 C 0.41534 0.814 0.30817 0.0
C1387 C 0.39681 0.79444 0.31054 0.0
C1388 C 0.38874 0.77994 0.2964 0.0
C1389 C 0.42335 0.82967 0.32297 0.0
C1390 C 0.42716 0.82417 0.34005 0.0
C1391 C 0.42769 0.85004 0.32024 0.0
C1392 C 0.42249 0.85639 0.30295 0.0
C1393 C 0.40154 0.84522 0.29565 0.0
C1394 C 0.39679 0.85116 0.27928 0.0
C1395 C 0.41281 0.86834 0.27015 0.0
C1396 C 0.4336 0.87966 0.2774 0.0
C1397 C 0.43845 0.87378 0.29376 0.0
H1398 H 0.4091 0.87291 0.25747 0.0
H1399 H 0.45016 0.81533 0.41863 0.0
H1400 H 0.50376 0.41561 0.55633 0.0
H1401 H 0.51503 0.40769 0.52812 0.0
H1402 H 0.57591 0.46525 0.53216 0.0
H1403 H 0.56414 0.47409 0.55974 0.0
H1404 H 0.56401 0.45774 0.49833 0.0
H1405 H 0.56959 0.41838 0.54609 0.0
H1406 H 0.55706 0.39459 0.5719 0.0
H1407 H 0.50892 0.34598 0.53819 0.0
H1408 H 0.52098 0.36958 0.51222 0.0
H1409 H 0.62152 0.42437 0.44284 0.0
H1410 H 0.60907 0.43616 0.46829 0.0
H1411 H 0.54448 0.38474 0.45952 0.0
H1412 H 0.55669 0.37294 0.43404 0.0
H1413 H 0.55907 0.38974 0.49552 0.0
H1414 H 0.55564 0.43063 0.44728 0.0
H1415 H 0.5704 0.45514 0.42204 0.0
H1416 H 0.61771 0.50181 0.45765 0.0
H1417 H 0.60343 0.47747 0.48306 0.0
C1418 C 0.51933 0.42691 0.55104 0.0
C1419 C 0.53311 0.44542 0.56052 0.0
C1420 C 0.52589 0.42218 0.53499 0.0
C1421 C 0.54656 0.4356 0.52828 0.0
C1422 C 0.55997 0.45454 0.53718 0.0
C1423 C 0.55329 0.45945 0.5531 0.0
C1424 C 0.55449 0.42942 0.51246 0.0
C1425 C 0.56315 0.44297 0.49782 0.0
C1426 C 0.55326 0.41009 0.51169 0.0
C1427 C 0.54606 0.39581 0.52725 0.0
C1428 C 0.55624 0.40266 0.54421 0.0
C1429 C 0.54924 0.3892 0.55887 0.0
C1430 C 0.53217 0.3688 0.5567 0.0
C1431 C 0.52212 0.3618 0.53985 0.0
C1432 C 0.52904 0.3752 0.52516 0.0
C1433 C 0.60466 0.41562 0.4463 0.0
C1434 C 0.59008 0.39772 0.43645 0.0
C1435 C 0.59757 0.42242 0.46077 0.0
C1436 C 0.57585 0.41135 0.46568 0.0
C1437 C 0.5613 0.39349 0.45589 0.0
C1438 C 0.56831 0.38681 0.44132 0.0
C1439 C 0.56834 0.41794 0.48141 0.0
C1440 C 0.55986 0.40448 0.49606 0.0
C1441 C 0.57009 0.43746 0.48228 0.0
C1442 C 0.5786 0.45215 0.46703 0.0
C1443 C 0.56931 0.44606 0.4497 0.0
C1444 C 0.57756 0.45993 0.43537 0.0
C1445 C 0.59502 0.48 0.43823 0.0
C1446 C 0.60421 0.48625 0.45544 0.0
C1447 C 0.59603 0.47243 0.46982 0.0
H1448 H 0.60139 0.49072 0.42712 0.0
H1449 H 0.52677 0.35841 0.56806 0.0
H1450 H 0.10751 0.5422 0.7167 0.0
H1451 H 0.12904 0.5525 0.68928 0.0
H1452 H 0.15598 0.61681 0.70362 0.0
H1453 H 0.13453 0.60662 0.73109 0.0
H1454 H 0.14694 0.61028 0.66786 0.0
H1455 H 0.1838 0.59331 0.71194 0.0
H1456 H 0.18746 0.57138 0.73445 0.0
H1457 H 0.17241 0.52497 0.69376 0.0
H1458 H 0.16835 0.5465 0.67105 0.0
H1459 H 0.23949 0.65259 0.61209 0.0
H1460 H 0.21568 0.64238 0.63812 0.0
H1461 H 0.18709 0.57814 0.62277 0.0
H1462 H 0.21083 0.58817 0.59678 0.0
H1463 H 0.19681 0.58472 0.65888 0.0
H1464 H 0.16053 0.6023 0.61466 0.0
H1465 H 0.15731 0.62464 0.59232 0.0
H1466 H 0.17196 0.67048 0.63347 0.0
H1467 H 0.17559 0.64853 0.65602 0.0
C1468 C 0.11798 0.55853 0.71399 0.0
C1469 C 0.11944 0.5736 0.72612 0.0
C1470 C 0.13025 0.5644 0.69832 0.0
C1471 C 0.14435 0.58542 0.69456 0.0
C1472 C 0.1452 0.6005 0.70627 0.0
C1473 C 0.13289 0.59465 0.72193 0.0
C1474 C 0.1588 0.59168 0.6788 0.0
C1475 C 0.15803 0.6049 0.66599 0.0
C1476 C 0.173 0.58437 0.67624 0.0
C1477 C 0.17556 0.57143 0.68984 0.0
C1478 C 0.18111 0.57835 0.70782 0.0
C1479 C 0.18328 0.56601 0.72061 0.0
C1480 C 0.18012 0.54677 0.71555 0.0
C1481 C 0.17483 0.53986 0.69767 0.0
C1482 C 0.1726 0.55214 0.68483 0.0
C1483 C 0.22815 0.63629 0.61426 0.0
C1484 C 0.22701 0.62119 0.60235 0.0
C1485 C 0.2145 0.63049 0.62909 0.0
C1486 C 0.1995 0.60952 0.63226 0.0
C1487 C 0.19853 0.59441 0.62054 0.0
C1488 C 0.21208 0.60019 0.60567 0.0
C1489 C 0.18491 0.60326 0.64791 0.0
C1490 C 0.18569 0.59007 0.66072 0.0
C1491 C 0.1708 0.61067 0.6505 0.0
C1492 C 0.16855 0.62386 0.63698 0.0
C1493 C 0.16325 0.61722 0.61891 0.0
C1494 C 0.16131 0.6298 0.60622 0.0
C1495 C 0.16448 0.64899 0.61146 0.0
C1496 C 0.16954 0.65562 0.62942 0.0
C1497 C 0.17152 0.64312 0.64217 0.0
H1498 H 0.16297 0.6587 0.60162 0.0
H1499 H 0.18181 0.53723 0.72546 0.0
H1500 H 0.55565 0.11082 0.89429 0.0
H1501 H 0.56928 0.13151 0.86697 0.0
H1502 H 0.5272 0.15505 0.87531 0.0
H1503 H 0.514 0.13504 0.90297 0.0
H1504 H 0.5292 0.14388 0.83864 0.0
H1505 H 0.57624 0.18414 0.88817 0.0
H1506 H 0.59993 0.19004 0.91433 0.0
H1507 H 0.64181 0.18033 0.88069 0.0
H1508 H 0.61817 0.17405 0.85437 0.0
H1509 H 0.57892 0.23103 0.78116 0.0
H1510 H 0.5626 0.20763 0.80661 0.0
H1511 H 0.61317 0.19381 0.80546 0.0
H1512 H 0.62996 0.21773 0.7805 0.0
H1513 H 0.60629 0.19923 0.83845 0.0
H1514 H 0.56075 0.15941 0.78886 0.0
H1515 H 0.53713 0.15212 0.76235 0.0
H1516 H 0.49277 0.15919 0.79501 0.0
H1517 H 0.51627 0.16679 0.82168 0.0
C1518 C 0.5493 0.12041 0.89037 0.0
C1519 C 0.53385 0.12138 0.90097 0.0
C1520 C 0.55701 0.13212 0.87469 0.0
C1521 C 0.54935 0.1449 0.86925 0.0
C1522 C 0.53325 0.14521 0.87928 0.0
C1523 C 0.52566 0.13366 0.89506 0.0
C1524 C 0.55897 0.15883 0.85368 0.0
C1525 C 0.54599 0.15614 0.83861 0.0
C1526 C 0.58098 0.17446 0.85357 0.0
C1527 C 0.59531 0.17842 0.86935 0.0
C1528 C 0.5904 0.18309 0.88638 0.0
C1529 C 0.60384 0.18653 0.90124 0.0
C1530 C 0.62233 0.1855 0.89919 0.0
C1531 C 0.62746 0.18109 0.88226 0.0
C1532 C 0.61406 0.1776 0.86737 0.0
C1533 C 0.58654 0.22298 0.78633 0.0
C1534 C 0.60572 0.22621 0.77882 0.0
C1535 C 0.57712 0.20951 0.80082 0.0
C1536 C 0.58646 0.19868 0.8078 0.0
C1537 C 0.60565 0.20196 0.80032 0.0
C1538 C 0.61522 0.21564 0.78603 0.0
C1539 C 0.57658 0.18431 0.82318 0.0
C1540 C 0.58951 0.18695 0.83832 0.0
C1541 C 0.55457 0.16847 0.82324 0.0
C1542 C 0.54038 0.16387 0.80723 0.0
C1543 C 0.54603 0.15956 0.79036 0.0
C1544 C 0.53266 0.15535 0.77531 0.0
C1545 C 0.51349 0.15525 0.77698 0.0
C1546 C 0.50763 0.1593 0.79373 0.0
C1547 C 0.52097 0.16355 0.80882 0.0
H1548 H 0.50316 0.15198 0.76531 0.0
H1549 H 0.63272 0.18817 0.9107 0.0
H1550 H 0.40726 0.52932 0.05447 0.0
H1551 H 0.40545 0.54584 0.02696 0.0
H1552 H 0.46823 0.59891 0.0388 0.0
H1553 H 0.46948 0.58315 0.06704 0.0
H1554 H 0.44319 0.61167 0.02956 0.0
H1555 H 0.45839 0.56277 0.00376 0.0
H1556 H 0.45408 0.52859 0.99825 0.0
H1557 H 0.39047 0.50558 0.97711 0.0
H1558 H 0.39429 0.53955 0.98273 0.0
H1559 H 0.45057 0.65649 0.94324 0.0
H1560 H 0.45741 0.63962 0.96831 0.0
H1561 H 0.39093 0.59026 0.967 0.0
H1562 H 0.38389 0.60704 0.94203 0.0
H1563 H 0.4206 0.57658 0.96977 0.0
H1564 H 0.40581 0.62587 0.99785 0.0
H1565 H 0.41144 0.66065 0.00289 0.0
H1566 H 0.47682 0.68355 0.01907 0.0
H1567 H 0.47166 0.64895 0.01387 0.0
C1568 C 0.42067 0.54455 0.0513 0.0
C1569 C 0.43846 0.55491 0.0631 0.0
C1570 C 0.41976 0.55386 0.03537 0.0
C1571 C 0.43683 0.57354 0.03064 0.0
C1572 C 0.45487 0.58369 0.04212 0.0
C1573 C 0.45567 0.57452 0.0582 0.0
C1574 C 0.43521 0.58409 0.01437 0.0
C1575 C 0.43868 0.6041 0.01643 0.0
C1576 C 0.42892 0.57414 0.99725 0.0
C1577 C 0.42657 0.55368 0.9938 0.0
C1578 C 0.44343 0.55039 0.99806 0.0
C1579 C 0.44108 0.53105 0.9949 0.0
C1580 C 0.42199 0.51491 0.98737 0.0
C1581 C 0.40524 0.51809 0.98295 0.0
C1582 C 0.4075 0.53739 0.9861 0.0
C1583 C 0.43741 0.64202 0.94826 0.0
C1584 C 0.41666 0.63314 0.94072 0.0
C1585 C 0.44135 0.63243 0.96257 0.0
C1586 C 0.42465 0.61376 0.9695 0.0
C1587 C 0.40403 0.60466 0.96179 0.0
C1588 C 0.40002 0.61433 0.94761 0.0
C1589 C 0.42848 0.60394 0.98512 0.0
C1590 C 0.42537 0.58412 0.98291 0.0
C1591 C 0.43535 0.61412 0.00205 0.0
C1592 C 0.43842 0.63489 0.00528 0.0
C1593 C 0.42144 0.63837 0.00233 0.0
C1594 C 0.42453 0.65804 0.00525 0.0
C1595 C 0.44449 0.67432 0.01125 0.0
C1596 C 0.46138 0.67094 0.01439 0.0
C1597 C 0.45838 0.6513 0.01148 0.0
H1598 H 0.44686 0.68954 0.0135 0.0
H1599 H 0.42021 0.49996 0.98493 0.0
H1600 H 0.8837 0.41581 0.22674 0.0
H1601 H 0.86444 0.40998 0.19824 0.0
H1602 H 0.87258 0.47065 0.20243 0.0
H1603 H 0.89052 0.47603 0.2316 0.0
H1604 H 0.83363 0.44462 0.19295 0.0
H1605 H 0.90154 0.45841 0.17175 0.0
H1606 H 0.9332 0.45471 0.16981 0.0
H1607 H 0.89278 0.39122 0.15311 0.0
H1608 H 0.86083 0.39446 0.15518 0.0
H1609 H 0.7998 0.44448 0.1024 0.0
H1610 H 0.8225 0.45281 0.12936 0.0
H1611 H 0.805 0.38899 0.13307 0.0
H1612 H 0.78213 0.38046 0.10615 0.0
H1613 H 0.84968 0.41795 0.13767 0.0
H1614 H 0.78166 0.40518 0.16007 0.0
H1615 H 0.75094 0.41042 0.1612 0.0
H1616 H 0.7936 0.4746 0.1747 0.0
H1617 H 0.82462 0.46981 0.17339 0.0
C1618 C 0.88129 0.4279 0.2217 0.0
C1619 C 0.88864 0.44638 0.23159 0.0
C1620 C 0.87053 0.42465 0.20522 0.0
C1621 C 0.86728 0.43998 0.19802 0.0
C1622 C 0.87494 0.4586 0.20767 0.0
C1623 C 0.88544 0.46175 0.22428 0.0
C1624 C 0.85495 0.43617 0.1809 0.0
C1625 C 0.83743 0.43914 0.1808 0.0
C1626 C 0.85958 0.42864 0.16507 0.0
C1627 C 0.87876 0.42663 0.16378 0.0
C1628 C 0.89938 0.44361 0.16779 0.0
C1629 C 0.91738 0.4416 0.16665 0.0
C1630 C 0.915 0.42273 0.16138 0.0
C1631 C 0.8946 0.40583 0.1572 0.0
C1632 C 0.87654 0.40775 0.15834 0.0
C1633 C 0.80079 0.43221 0.10892 0.0
C1634 C 0.7891 0.41179 0.10219 0.0
C1635 C 0.81375 0.437 0.12433 0.0
C1636 C 0.81532 0.42148 0.13322 0.0
C1637 C 0.80398 0.40116 0.12637 0.0
C1638 C 0.79086 0.39631 0.11106 0.0
C1639 C 0.82851 0.42639 0.14987 0.0
C1640 C 0.84609 0.42357 0.14985 0.0
C1641 C 0.82414 0.43433 0.16551 0.0
C1642 C 0.80548 0.43718 0.16645 0.0
C1643 C 0.78451 0.42045 0.16313 0.0
C1644 C 0.76704 0.42333 0.16383 0.0
C1645 C 0.77032 0.44284 0.16797 0.0
C1646 C 0.79108 0.4595 0.17147 0.0
C1647 C 0.80861 0.45671 0.17077 0.0
H1648 H 0.75678 0.44504 0.1685 0.0
H1649 H 0.92895 0.42121 0.1605 0.0
loop_
_geom_bond_atom_site_label_1
_geom_bond_atom_site_label_2
_geom_bond_distance
_geom_bond_site_symmetry_2
_ccdc_geom_bond_type
H0 C27 0.929 . S
N1 C26 1.433 . S
N1 C32 1.435 . S
N1 C38 1.423 . S
H2 C28 0.930 . S
H3 C31 0.931 . S
H4 C30 0.929 . S
H5 C33 0.930 . S
H6 C34 0.932 . S
H7 C37 0.929 . S
H8 C36 0.931 . S
H9 C39 0.929 . S
H10 C43 0.932 . S
H11 C40 0.931 . S
H12 C42 0.929 . S
H13 C45 0.929 . S
H14 C46 0.930 . S
H15 C48 0.929 . S
H16 C49 0.931 . S
H17 C51 0.930 . S
H18 C52 0.932 . S
H19 C54 0.931 . S
H20 C55 0.929 . S
H21 C57 0.929 . S
H22 C58 0.931 . S
H23 C60 0.929 . S
N24 C44 1.433 . S
N24 C50 1.435 . S
N24 C56 1.423 . S
H25 C61 0.932 . S
C26 N1 1.433 . S
C26 C27 1.363 . S
C26 C31 1.370 . S
C27 H0 0.929 . S
C27 C26 1.363 . S
C27 C28 1.385 . S
C28 H2 0.930 . S
C28 C27 1.385 . S
C28 C29 1.357 . S
C29 C28 1.357 . S
C29 C30 1.406 . S
C30 H4 0.929 . S
C30 C29 1.406 . S
C30 C31 1.391 . S
C31 H3 0.931 . S
C31 C26 1.370 . S
C31 C30 1.391 . S
C32 N1 1.435 . S
C32 C33 1.358 . S
C32 C37 1.371 . S
C33 H5 0.930 . S
C33 C32 1.358 . S
C33 C34 1.405 . S
C34 H6 0.932 . S
C34 C33 1.405 . S
C34 C35 1.383 . S
C35 C34 1.383 . S
C35 C36 1.393 . S
C36 H8 0.931 . S
C36 C35 1.393 . S
C36 C37 1.382 . S
C37 H7 0.929 . S
C37 C32 1.371 . S
C37 C36 1.382 . S
C38 N1 1.423 . S
C38 C39 1.362 . S
C38 C43 1.388 . S
C39 H9 0.929 . S
C39 C38 1.362 . S
C39 C40 1.376 . S
C40 H11 0.931 . S
C40 C39 1.376 . S
C40 C41 1.396 . S
C41 C40 1.396 . S
C41 C42 1.348 . S
C41 C59 1.472 1_455 S
C42 H12 0.929 . S
C42 C41 1.348 . S
C42 C43 1.443 . S
C43 H10 0.932 . S
C43 C38 1.388 . S
C43 C42 1.443 . S
C44 N24 1.433 . S
C44 C45 1.363 . S
C44 C49 1.370 . S
C45 H13 0.929 . S
C45 C44 1.363 . S
C45 C46 1.385 . S
C46 H14 0.930 . S
C46 C45 1.385 . S
C46 C47 1.357 . S
C47 C46 1.357 . S
C47 C48 1.406 . S
C48 H15 0.929 . S
C48 C47 1.406 . S
C48 C49 1.391 . S
C49 H16 0.931 . S
C49 C44 1.370 . S
C49 C48 1.391 . S
C50 N24 1.435 . S
C50 C51 1.358 . S
C50 C55 1.371 . S
C51 H17 0.930 . S
C51 C50 1.358 . S
C51 C52 1.405 . S
C52 H18 0.932 . S
C52 C51 1.405 . S
C52 C53 1.383 . S
C53 C52 1.383 . S
C53 C54 1.393 . S
C54 H19 0.931 . S
C54 C53 1.393 . S
C54 C55 1.382 . S
C55 H20 0.929 . S
C55 C50 1.371 . S
C55 C54 1.382 . S
C56 N24 1.423 . S
C56 C57 1.362 . S
C56 C61 1.388 . S
C57 H21 0.929 . S
C57 C56 1.362 . S
C57 C58 1.376 . S
C58 H22 0.931 . S
C58 C57 1.376 . S
C58 C59 1.396 . S
C59 C41 1.472 1_655 S
C59 C58 1.396 . S
C59 C60 1.348 . S
C60 H23 0.929 . S
C60 C59 1.348 . S
C60 C61 1.443 . S
C61 H25 0.932 . S
C61 C56 1.388 . S
C61 C60 1.443 . S
H62 C89 0.929 . S
N63 C88 1.433 . S
N63 C94 1.435 . S
N63 C100 1.423 . S
H64 C90 0.930 . S
H65 C93 0.931 . S
H66 C92 0.929 . S
H67 C95 0.930 . S
H68 C96 0.932 . S
H69 C99 0.929 . S
H70 C98 0.931 . S
H71 C101 0.929 . S
H72 C105 0.932 . S
H73 C102 0.930 . S
H74 C104 0.929 . S
H75 C107 0.929 . S
H76 C108 0.930 . S
H77 C110 0.929 . S
H78 C111 0.931 . S
H79 C113 0.930 . S
H80 C114 0.932 . S
H81 C116 0.931 . S
H82 C117 0.929 . S
H83 C119 0.929 . S
H84 C120 0.931 . S
H85 C122 0.929 . S
N86 C106 1.433 . S
N86 C112 1.435 . S
N86 C118 1.423 . S
H87 C123 0.932 . S
C88 N63 1.433 . S
C88 C89 1.363 . S
C88 C93 1.370 . S
C89 H62 0.929 . S
C89 C88 1.363 . S
C89 C90 1.385 . S
C90 H64 0.930 . S
C90 C89 1.385 . S
C90 C91 1.357 . S
C91 C90 1.357 . S
C91 C92 1.406 . S
C92 H66 0.929 . S
C92 C91 1.406 . S
C92 C93 1.391 . S
C93 H65 0.931 . S
C93 C88 1.370 . S
C93 C92 1.391 . S
C94 N63 1.435 . S
C94 C95 1.358 . S
C94 C99 1.371 . S
C95 H67 0.930 . S
C95 C94 1.358 . S
C95 C96 1.405 . S
C96 H68 0.932 . S
C96 C95 1.405 . S
C96 C97 1.383 . S
C97 C96 1.383 . S
C97 C98 1.393 . S
C98 H70 0.931 . S
C98 C97 1.393 . S
C98 C99 1.382 . S
C99 H69 0.929 . S
C99 C94 1.371 . S
C99 C98 1.382 . S
C100 N63 1.423 . S
C100 C101 1.362 . S
C100 C105 1.388 . S
C101 H71 0.929 . S
C101 C100 1.362 . S
C101 C102 1.376 . S
C102 H73 0.930 . S
C102 C101 1.376 . S
C102 C103 1.396 1_565 S
C103 C102 1.396 1_545 S
C103 C104 1.348 . S
C103 C121 1.472 . S
C104 H74 0.929 . S
C104 C103 1.348 . S
C104 C105 1.443 1_545 S
C105 H72 0.932 . S
C105 C100 1.388 . S
C105 C104 1.443 1_565 S
C106 N86 1.433 . S
C106 C107 1.363 . S
C106 C111 1.370 . S
C107 H75 0.929 . S
C107 C106 1.363 . S
C107 C108 1.385 . S
C108 H76 0.930 . S
C108 C107 1.385 . S
C108 C109 1.357 . S
C109 C108 1.357 . S
C109 C110 1.406 . S
C110 H77 0.929 . S
C110 C109 1.406 . S
C110 C111 1.391 . S
C111 H78 0.931 . S
C111 C106 1.370 . S
C111 C110 1.391 . S
C112 N86 1.435 . S
C112 C113 1.358 . S
C112 C117 1.371 . S
C113 H79 0.930 . S
C113 C112 1.358 . S
C113 C114 1.405 . S
C114 H80 0.932 . S
C114 C113 1.405 . S
C114 C115 1.383 . S
C115 C114 1.383 . S
C115 C116 1.393 . S
C116 H81 0.931 . S
C116 C115 1.393 . S
C116 C117 1.382 . S
C117 H82 0.929 . S
C117 C112 1.371 . S
C117 C116 1.382 . S
C118 N86 1.423 . S
C118 C119 1.362 . S
C118 C123 1.388 . S
C119 H83 0.929 . S
C119 C118 1.362 . S
C119 C120 1.376 . S
C120 H84 0.931 . S
C120 C119 1.376 . S
C120 C121 1.396 . S
C121 C103 1.472 . S
C121 C120 1.396 . S
C121 C122 1.348 . S
C122 H85 0.929 . S
C122 C121 1.348 . S
C122 C123 1.443 . S
C123 H87 0.932 . S
C123 C118 1.388 . S
C123 C122 1.443 . S
H124 C151 0.929 . S
N125 C150 1.433 . S
N125 C156 1.435 . S
N125 C162 1.423 . S
H126 C152 0.930 . S
H127 C155 0.931 . S
H128 C154 0.929 . S
H129 C157 0.930 . S
H130 C158 0.932 . S
H131 C161 0.929 . S
H132 C160 0.931 . S
H133 C163 0.929 . S
H134 C167 0.932 . S
H135 C164 0.931 . S
H136 C166 0.929 . S
H137 C169 0.929 . S
H138 C170 0.930 . S
H139 C172 0.929 . S
H140 C173 0.931 . S
H141 C175 0.930 . S
H142 C176 0.932 . S
H143 C178 0.931 . S
H144 C179 0.929 . S
H145 C181 0.929 . S
H146 C182 0.931 . S
H147 C184 0.929 . S
N148 C168 1.433 . S
N148 C174 1.435 . S
N148 C180 1.423 . S
H149 C185 0.932 . S
C150 N125 1.433 . S
C150 C151 1.363 . S
C150 C155 1.370 . S
C151 H124 0.929 . S
C151 C150 1.363 . S
C151 C152 1.385 . S
C152 H126 0.930 . S
C152 C151 1.385 . S
C152 C153 1.357 . S
C153 C152 1.357 . S
C153 C154 1.406 . S
C154 H128 0.929 . S
C154 C153 1.406 . S
C154 C155 1.391 . S
C155 H127 0.931 . S
C155 C150 1.370 . S
C155 C154 1.391 . S
C156 N125 1.435 . S
C156 C157 1.358 . S
C156 C161 1.371 . S
C157 H129 0.930 . S
C157 C156 1.358 . S
C157 C158 1.405 . S
C158 H130 0.932 . S
C158 C157 1.405 . S
C158 C159 1.383 . S
C159 C158 1.383 . S
C159 C160 1.393 . S
C160 H132 0.931 . S
C160 C159 1.393 . S
C160 C161 1.382 . S
C161 H131 0.929 . S
C161 C156 1.371 . S
C161 C160 1.382 . S
C162 N125 1.423 . S
C162 C163 1.362 . S
C162 C167 1.388 . S
C163 H133 0.929 . S
C163 C162 1.362 . S
C163 C164 1.376 . S
C164 H135 0.931 . S
C164 C163 1.376 . S
C164 C165 1.396 . S
C165 C164 1.396 . S
C165 C166 1.348 . S
C165 C183 1.472 . S
C166 H136 0.929 . S
C166 C165 1.348 . S
C166 C167 1.443 . S
C167 H134 0.932 . S
C167 C162 1.388 . S
C167 C166 1.443 . S
C168 N148 1.433 . S
C168 C169 1.363 . S
C168 C173 1.370 . S
C169 H137 0.929 . S
C169 C168 1.363 . S
C169 C170 1.385 . S
C170 H138 0.930 . S
C170 C169 1.385 . S
C170 C171 1.357 . S
C171 C170 1.357 . S
C171 C172 1.406 . S
C172 H139 0.929 . S
C172 C171 1.406 . S
C172 C173 1.391 . S
C173 H140 0.931 . S
C173 C168 1.370 . S
C173 C172 1.391 . S
C174 N148 1.435 . S
C174 C175 1.358 . S
C174 C179 1.371 . S
C175 H141 0.930 . S
C175 C174 1.358 . S
C175 C176 1.405 . S
C176 H142 0.932 . S
C176 C175 1.405 . S
C176 C177 1.383 . S
C177 C176 1.383 . S
C177 C178 1.393 . S
C178 H143 0.931 . S
C178 C177 1.393 . S
C178 C179 1.382 . S
C179 H144 0.929 . S
C179 C174 1.371 . S
C179 C178 1.382 . S
C180 N148 1.423 . S
C180 C181 1.362 . S
C180 C185 1.388 . S
C181 H145 0.929 . S
C181 C180 1.362 . S
C181 C182 1.376 . S
C182 H146 0.931 . S
C182 C181 1.376 . S
C182 C183 1.396 . S
C183 C165 1.472 . S
C183 C182 1.396 . S
C183 C184 1.348 . S
C184 H147 0.929 . S
C184 C183 1.348 . S
C184 C185 1.443 . S
C185 H149 0.932 . S
C185 C180 1.388 . S
C185 C184 1.443 . S
H186 C213 0.929 . S
N187 C212 1.433 . S
N187 C218 1.435 . S
N187 C224 1.423 . S
H188 C214 0.930 . S
H189 C217 0.931 . S
H190 C216 0.929 . S
H191 C219 0.930 . S
H192 C220 0.932 . S
H193 C223 0.929 . S
H194 C222 0.931 . S
H195 C225 0.929 . S
H196 C229 0.932 . S
H197 C226 0.931 . S
H198 C228 0.929 . S
H199 C231 0.929 . S
H200 C232 0.930 . S
H201 C234 0.929 . S
H202 C235 0.931 . S
H203 C237 0.930 . S
H204 C238 0.932 . S
H205 C240 0.931 . S
H206 C241 0.929 . S
H207 C243 0.929 . S
H208 C244 0.931 . S
H209 C246 0.929 . S
N210 C230 1.433 . S
N210 C236 1.435 . S
N210 C242 1.423 . S
H211 C247 0.932 . S
C212 N187 1.433 . S
C212 C213 1.363 . S
C212 C217 1.370 . S
C213 H186 0.929 . S
C213 C212 1.363 . S
C213 C214 1.385 . S
C214 H188 0.930 . S
C214 C213 1.385 . S
C214 C215 1.357 . S
C215 C214 1.357 . S
C215 C216 1.406 . S
C216 H190 0.929 . S
C216 C215 1.406 . S
C216 C217 1.391 . S
C217 H189 0.931 . S
C217 C212 1.370 . S
C217 C216 1.391 . S
C218 N187 1.435 . S
C218 C219 1.358 . S
C218 C223 1.371 . S
C219 H191 0.930 . S
C219 C218 1.358 . S
C219 C220 1.405 . S
C220 H192 0.932 . S
C220 C219 1.405 . S
C220 C221 1.383 . S
C221 C220 1.383 . S
C221 C222 1.393 . S
C222 H194 0.931 . S
C222 C221 1.393 . S
C222 C223 1.382 . S
C223 H193 0.929 . S
C223 C218 1.371 . S
C223 C222 1.382 . S
C224 N187 1.423 . S
C224 C225 1.362 . S
C224 C229 1.388 . S
C225 H195 0.929 . S
C225 C224 1.362 . S
C225 C226 1.376 . S
C226 H197 0.931 . S
C226 C225 1.376 . S
C226 C227 1.396 . S
C227 C226 1.396 . S
C227 C228 1.348 . S
C227 C245 1.472 1_455 S
C228 H198 0.929 . S
C228 C227 1.348 . S
C228 C229 1.443 . S
C229 H196 0.932 . S
C229 C224 1.388 . S
C229 C228 1.443 . S
C230 N210 1.433 . S
C230 C231 1.363 . S
C230 C235 1.370 . S
C231 H199 0.929 . S
C231 C230 1.363 . S
C231 C232 1.385 . S
C232 H200 0.930 . S
C232 C231 1.385 . S
C232 C233 1.357 . S
C233 C232 1.357 . S
C233 C234 1.406 . S
C234 H201 0.929 . S
C234 C233 1.406 . S
C234 C235 1.391 . S
C235 H202 0.931 . S
C235 C230 1.370 . S
C235 C234 1.391 . S
C236 N210 1.435 . S
C236 C237 1.358 . S
C236 C241 1.371 . S
C237 H203 0.930 . S
C237 C236 1.358 . S
C237 C238 1.405 . S
C238 H204 0.932 . S
C238 C237 1.405 . S
C238 C239 1.383 . S
C239 C238 1.383 . S
C239 C240 1.393 . S
C240 H205 0.931 . S
C240 C239 1.393 . S
C240 C241 1.382 . S
C241 H206 0.929 . S
C241 C236 1.371 . S
C241 C240 1.382 . S
C242 N210 1.423 . S
C242 C243 1.362 . S
C242 C247 1.388 . S
C243 H207 0.929 . S
C243 C242 1.362 . S
C243 C244 1.376 . S
C244 H208 0.931 . S
C244 C243 1.376 . S
C244 C245 1.396 . S
C245 C227 1.472 1_655 S
C245 C244 1.396 . S
C245 C246 1.348 . S
C246 H209 0.929 . S
C246 C245 1.348 . S
C246 C247 1.443 . S
C247 H211 0.932 . S
C247 C242 1.388 . S
C247 C246 1.443 . S
H248 C275 0.929 . S
N249 C274 1.433 . S
N249 C280 1.435 . S
N249 C286 1.423 . S
H250 C276 0.930 . S
H251 C279 0.931 . S
H252 C278 0.929 . S
H253 C281 0.930 . S
H254 C282 0.932 . S
H255 C285 0.929 . S
H256 C284 0.931 . S
H257 C287 0.929 . S
H258 C291 0.932 . S
H259 C288 0.931 . S
H260 C290 0.929 . S
H261 C293 0.929 . S
H262 C294 0.930 . S
H263 C296 0.929 . S
H264 C297 0.931 . S
H265 C299 0.930 1_554 S
H266 C300 0.932 . S
H267 C302 0.931 . S
H268 C303 0.929 . S
H269 C305 0.929 . S
H270 C306 0.931 1_554 S
H271 C308 0.929 . S
N272 C292 1.433 . S
N272 C298 1.435 1_554 S
N272 C304 1.423 1_554 S
H273 C309 0.932 . S
C274 N249 1.433 . S
C274 C275 1.363 . S
C274 C279 1.370 . S
C275 H248 0.929 . S
C275 C274 1.363 . S
C275 C276 1.385 . S
C276 H250 0.930 . S
C276 C275 1.385 . S
C276 C277 1.357 1_556 S
C277 C276 1.357 1_554 S
C277 C278 1.406 . S
C278 H252 0.929 . S
C278 C277 1.406 . S
C278 C279 1.391 1_554 S
C279 H251 0.931 . S
C279 C274 1.370 . S
C279 C278 1.391 1_556 S
C280 N249 1.435 . S
C280 C281 1.358 . S
C280 C285 1.371 . S
C281 H253 0.930 . S
C281 C280 1.358 . S
C281 C282 1.405 . S
C282 H254 0.932 . S
C282 C281 1.405 . S
C282 C283 1.383 . S
C283 C282 1.383 . S
C283 C284 1.393 . S
C284 H256 0.931 . S
C284 C283 1.393 . S
C284 C285 1.382 . S
C285 H255 0.929 . S
C285 C280 1.371 . S
C285 C284 1.382 . S
C286 N249 1.423 . S
C286 C287 1.362 . S
C286 C291 1.388 . S
C287 H257 0.929 . S
C287 C286 1.362 . S
C287 C288 1.376 . S
C288 H259 0.931 . S
C288 C287 1.376 . S
C288 C289 1.396 . S
C289 C288 1.396 . S
C289 C290 1.348 . S
C289 C307 1.472 1_545 S
C290 H260 0.929 . S
C290 C289 1.348 . S
C290 C291 1.443 . S
C291 H258 0.932 . S
C291 C286 1.388 . S
C291 C290 1.443 . S
C292 N272 1.433 . S
C292 C293 1.363 . S
C292 C297 1.370 . S
C293 H261 0.929 . S
C293 C292 1.363 . S
C293 C294 1.385 . S
C294 H262 0.930 . S
C294 C293 1.385 . S
C294 C295 1.357 . S
C295 C294 1.357 . S
C295 C296 1.406 . S
C296 H263 0.929 . S
C296 C295 1.406 . S
C296 C297 1.391 . S
C297 H264 0.931 . S
C297 C292 1.370 . S
C297 C296 1.391 . S
C298 N272 1.435 1_556 S
C298 C299 1.358 . S
C298 C303 1.371 . S
C299 H265 0.930 1_556 S
C299 C298 1.358 . S
C299 C300 1.405 . S
C300 H266 0.932 . S
C300 C299 1.405 . S
C300 C301 1.383 . S
C301 C300 1.383 . S
C301 C302 1.393 . S
C302 H267 0.931 . S
C302 C301 1.393 . S
C302 C303 1.382 . S
C303 H268 0.929 . S
C303 C298 1.371 . S
C303 C302 1.382 . S
C304 N272 1.423 1_556 S
C304 C305 1.362 1_556 S
C304 C309 1.388 . S
C305 H269 0.929 . S
C305 C304 1.362 1_554 S
C305 C306 1.376 1_554 S
C306 H270 0.931 1_556 S
C306 C305 1.376 1_556 S
C306 C307 1.396 . S
C307 C289 1.472 1_565 S
C307 C306 1.396 . S
C307 C308 1.348 . S
C308 H271 0.929 . S
C308 C307 1.348 . S
C308 C309 1.443 . S
C309 H273 0.932 . S
C309 C304 1.388 . S
C309 C308 1.443 . S
H310 C337 0.929 . S
N311 C336 1.433 . S
N311 C342 1.435 . S
N311 C348 1.423 . S
H312 C338 0.930 . S
H313 C341 0.931 . S
H314 C340 0.929 . S
H315 C343 0.930 . S
H316 C344 0.932 . S
H317 C347 0.929 . S
H318 C346 0.931 . S
H319 C349 0.929 . S
H320 C353 0.932 . S
H321 C350 0.931 . S
H322 C352 0.929 . S
H323 C355 0.929 . S
H324 C356 0.930 . S
H325 C358 0.929 . S
H326 C359 0.931 . S
H327 C361 0.930 . S
H328 C362 0.932 . S
H329 C364 0.931 . S
H330 C365 0.929 . S
H331 C367 0.929 . S
H332 C368 0.931 . S
H333 C370 0.929 . S
N334 C354 1.433 . S
N334 C360 1.435 . S
N334 C366 1.423 . S
H335 C371 0.932 . S
C336 N311 1.433 . S
C336 C337 1.363 . S
C336 C341 1.370 . S
C337 H310 0.929 . S
C337 C336 1.363 . S
C337 C338 1.385 . S
C338 H312 0.930 . S
C338 C337 1.385 . S
C338 C339 1.357 . S
C339 C338 1.357 . S
C339 C340 1.406 . S
C340 H314 0.929 . S
C340 C339 1.406 . S
C340 C341 1.391 . S
C341 H313 0.931 . S
C341 C336 1.370 . S
C341 C340 1.391 . S
C342 N311 1.435 . S
C342 C343 1.358 . S
C342 C347 1.371 . S
C343 H315 0.930 . S
C343 C342 1.358 . S
C343 C344 1.405 . S
C344 H316 0.932 . S
C344 C343 1.405 . S
C344 C345 1.383 . S
C345 C344 1.383 . S
C345 C346 1.393 . S
C346 H318 0.931 . S
C346 C345 1.393 . S
C346 C347 1.382 . S
C347 H317 0.929 . S
C347 C342 1.371 . S
C347 C346 1.382 . S
C348 N311 1.423 . S
C348 C349 1.362 . S
C348 C353 1.388 . S
C349 H319 0.929 . S
C349 C348 1.362 . S
C349 C350 1.376 . S
C350 H321 0.931 . S
C350 C349 1.376 . S
C350 C351 1.396 . S
C351 C350 1.396 . S
C351 C352 1.348 . S
C351 C369 1.472 . S
C352 H322 0.929 . S
C352 C351 1.348 . S
C352 C353 1.443 . S
C353 H320 0.932 . S
C353 C348 1.388 . S
C353 C352 1.443 . S
C354 N334 1.433 . S
C354 C355 1.363 . S
C354 C359 1.370 . S
C355 H323 0.929 . S
C355 C354 1.363 . S
C355 C356 1.385 . S
C356 H324 0.930 . S
C356 C355 1.385 . S
C356 C357 1.357 . S
C357 C356 1.357 . S
C357 C358 1.406 . S
C358 H325 0.929 . S
C358 C357 1.406 . S
C358 C359 1.391 . S
C359 H326 0.931 . S
C359 C354 1.370 . S
C359 C358 1.391 . S
C360 N334 1.435 . S
C360 C361 1.358 . S
C360 C365 1.371 . S
C361 H327 0.930 . S
C361 C360 1.358 . S
C361 C362 1.405 . S
C362 H328 0.932 . S
C362 C361 1.405 . S
C362 C363 1.383 . S
C363 C362 1.383 . S
C363 C364 1.393 . S
C364 H329 0.931 . S
C364 C363 1.393 . S
C364 C365 1.382 . S
C365 H330 0.929 . S
C365 C360 1.371 . S
C365 C364 1.382 . S
C366 N334 1.423 . S
C366 C367 1.362 . S
C366 C371 1.388 . S
C367 H331 0.929 . S
C367 C366 1.362 . S
C367 C368 1.376 . S
C368 H332 0.931 . S
C368 C367 1.376 . S
C368 C369 1.396 . S
C369 C351 1.472 . S
C369 C368 1.396 . S
C369 C370 1.348 . S
C370 H333 0.929 . S
C370 C369 1.348 . S
C370 C371 1.443 . S
C371 H335 0.932 . S
C371 C366 1.388 . S
C371 C370 1.443 . S
C372 O373 1.160 . S
C372 O379 1.185 . S
O373 C372 1.160 . S
O374 Zn375 1.899 . S
O374 C382 1.284 . S
Zn375 O374 1.899 . S
Zn375 O376 2.032 . S
Zn375 O379 2.086 . S
Zn375 O384 1.977 . S
O376 Zn375 2.032 . S
O376 C380 1.278 . S
C377 O378 1.203 . S
C377 O384 1.267 . S
O378 C377 1.203 . S
O379 C372 1.185 . S
O379 Zn375 2.086 . S
C380 O376 1.278 . S
C380 O381 1.211 . S
O381 C380 1.211 . S
C382 O374 1.284 . S
C382 O383 1.273 . S
O383 C382 1.273 . S
O384 Zn375 1.977 . S
O384 C377 1.267 . S
C385 O386 1.160 . S
C385 O392 1.185 . S
O386 C385 1.160 . S
O387 Zn388 1.899 . S
O387 C395 1.284 . S
Zn388 O387 1.899 . S
Zn388 O389 2.032 . S
Zn388 O392 2.086 . S
Zn388 O397 1.977 . S
O389 Zn388 2.032 . S
O389 C393 1.278 . S
C390 O391 1.203 . S
C390 O397 1.267 . S
O391 C390 1.203 . S
O392 C385 1.185 . S
O392 Zn388 2.086 . S
C393 O389 1.278 . S
C393 O394 1.211 . S
O394 C393 1.211 . S
C395 O387 1.284 . S
C395 O396 1.273 . S
O396 C395 1.273 . S
O397 Zn388 1.977 . S
O397 C390 1.267 . S
C398 O399 1.160 . S
C398 O405 1.185 . S
O399 C398 1.160 . S
O400 Zn401 1.899 . S
O400 C408 1.284 . S
Zn401 O400 1.899 . S
Zn401 O402 2.032 . S
Zn401 O405 2.086 . S
Zn401 O410 1.977 . S
O402 Zn401 2.032 . S
O402 C406 1.278 . S
C403 O404 1.203 . S
C403 O410 1.267 . S
O404 C403 1.203 . S
O405 C398 1.185 . S
O405 Zn401 2.086 . S
C406 O402 1.278 . S
C406 O407 1.211 . S
O407 C406 1.211 . S
C408 O400 1.284 . S
C408 O409 1.273 . S
O409 C408 1.273 . S
O410 Zn401 1.977 . S
O410 C403 1.267 . S
C411 O412 1.160 . S
C411 O418 1.185 . S
O412 C411 1.160 . S
O413 Zn414 1.899 . S
O413 C421 1.284 . S
Zn414 O413 1.899 . S
Zn414 O415 2.032 . S
Zn414 O418 2.086 . S
Zn414 O423 1.977 . S
O415 Zn414 2.032 . S
O415 C419 1.278 . S
C416 O417 1.203 . S
C416 O423 1.267 . S
O417 C416 1.203 . S
O418 C411 1.185 . S
O418 Zn414 2.086 . S
C419 O415 1.278 . S
C419 O420 1.211 . S
O420 C419 1.211 . S
C421 O413 1.284 . S
C421 O422 1.273 . S
O422 C421 1.273 . S
O423 Zn414 1.977 . S
O423 C416 1.267 . S
C424 O425 1.160 . S
C424 O431 1.185 . S
O425 C424 1.160 . S
O426 Zn427 1.899 . S
O426 C434 1.284 . S
Zn427 O426 1.899 . S
Zn427 O428 2.032 . S
Zn427 O431 2.086 . S
Zn427 O436 1.977 . S
O428 Zn427 2.032 . S
O428 C432 1.278 . S
C429 O430 1.203 . S
C429 O436 1.267 . S
O430 C429 1.203 . S
O431 C424 1.185 . S
O431 Zn427 2.086 . S
C432 O428 1.278 . S
C432 O433 1.211 . S
O433 C432 1.211 . S
C434 O426 1.284 . S
C434 O435 1.273 . S
O435 C434 1.273 . S
O436 Zn427 1.977 . S
O436 C429 1.267 . S
C437 O438 1.160 . S
C437 O444 1.185 . S
O438 C437 1.160 . S
O439 Zn440 1.899 . S
O439 C447 1.284 . S
Zn440 O439 1.899 . S
Zn440 O441 2.032 . S
Zn440 O444 2.086 . S
Zn440 O449 1.977 . S
O441 Zn440 2.032 . S
O441 C445 1.278 . S
C442 O443 1.203 . S
C442 O449 1.267 . S
O443 C442 1.203 . S
O444 C437 1.185 . S
O444 Zn440 2.086 . S
C445 O441 1.278 . S
C445 O446 1.211 . S
O446 C445 1.211 . S
C447 O439 1.284 . S
C447 O448 1.273 . S
O448 C447 1.273 . S
O449 Zn440 1.977 . S
O449 C442 1.267 . S
H450 C468 0.951 . S
H451 C470 0.951 . S
H452 C472 0.950 . S
H453 C473 0.950 . S
H454 C475 0.950 . S
H455 C478 0.950 . S
H456 C479 0.950 . S
H457 C481 0.950 . S
H458 C482 0.950 . S
H459 C483 0.951 . S
H460 C485 0.951 . S
H461 C487 0.950 . S
H462 C488 0.950 . S
H463 C490 0.950 . S
H464 C493 0.950 . S
H465 C494 0.950 . S
H466 C496 0.950 . S
H467 C497 0.950 . S
C468 H450 0.951 . S
C468 C469 1.366 . S
C468 C470 1.388 . S
C469 C468 1.366 . S
C469 C473 1.385 . S
C470 H451 0.951 . S
C470 C468 1.388 . S
C470 C471 1.366 . S
C471 C470 1.366 . S
C471 C472 1.414 . S
C471 C474 1.499 . S
C472 H452 0.950 . S
C472 C471 1.414 . S
C472 C473 1.374 . S
C473 H453 0.950 . S
C473 C469 1.385 . S
C473 C472 1.374 . S
C474 C471 1.499 . S
C474 C475 1.373 . S
C474 C476 1.389 . S
C475 H454 0.950 . S
C475 C474 1.373 . S
C475 C491 1.377 . S
C476 C474 1.389 . S
C476 C477 1.524 . S
C476 C490 1.377 . S
C477 C476 1.524 . S
C477 C478 1.397 . S
C477 C482 1.363 . S
C478 H455 0.950 . S
C478 C477 1.397 . S
C478 C479 1.334 . S
C479 H456 0.950 . S
C479 C478 1.334 . S
C479 C480 1.287 . S
C480 C479 1.287 . S
C480 C481 1.524 . S
C480 H499 0.913 . S
C481 H457 0.950 . S
C481 C480 1.524 . S
C481 C482 1.415 . S
C482 H458 0.950 . S
C482 C477 1.363 . S
C482 C481 1.415 . S
C483 H459 0.951 . S
C483 C484 1.366 . S
C483 C485 1.388 . S
C484 C483 1.366 . S
C484 C488 1.385 . S
C485 H460 0.951 . S
C485 C483 1.388 . S
C485 C486 1.366 . S
C486 C485 1.366 . S
C486 C487 1.414 . S
C486 C489 1.499 . S
C487 H461 0.950 . S
C487 C486 1.414 . S
C487 C488 1.374 . S
C488 H462 0.950 . S
C488 C484 1.385 . S
C488 C487 1.374 . S
C489 C486 1.499 . S
C489 C490 1.373 . S
C489 C491 1.389 . S
C490 H463 0.950 . S
C490 C476 1.377 . S
C490 C489 1.373 . S
C491 C475 1.377 . S
C491 C489 1.389 . S
C491 C492 1.524 . S
C492 C491 1.524 . S
C492 C493 1.397 . S
C492 C497 1.363 . S
C493 H464 0.950 . S
C493 C492 1.397 . S
C493 C494 1.334 . S
C494 H465 0.950 . S
C494 C493 1.334 . S
C494 C495 1.287 . S
C495 C494 1.287 . S
C495 C496 1.524 . S
C495 H498 0.999 . S
C496 H466 0.950 . S
C496 C495 1.524 . S
C496 C497 1.415 . S
C497 H467 0.950 . S
C497 C492 1.363 . S
C497 C496 1.415 . S
H498 C495 0.999 . S
H499 C480 0.913 . S
H500 C518 0.951 . S
H501 C520 0.951 . S
H502 C522 0.950 . S
H503 C523 0.950 . S
H504 C525 0.950 . S
H505 C528 0.950 . S
H506 C529 0.950 . S
H507 C531 0.950 . S
H508 C532 0.950 . S
H509 C533 0.951 . S
H510 C535 0.951 . S
H511 C537 0.950 . S
H512 C538 0.950 . S
H513 C540 0.950 . S
H514 C543 0.950 . S
H515 C544 0.950 . S
H516 C546 0.950 . S
H517 C547 0.950 . S
C518 H500 0.951 . S
C518 C519 1.366 . S
C518 C520 1.388 . S
C519 C518 1.366 . S
C519 C523 1.385 . S
C520 H501 0.951 . S
C520 C518 1.388 . S
C520 C521 1.366 . S
C521 C520 1.366 . S
C521 C522 1.414 . S
C521 C524 1.499 . S
C522 H502 0.950 . S
C522 C521 1.414 . S
C522 C523 1.374 . S
C523 H503 0.950 . S
C523 C519 1.385 . S
C523 C522 1.374 . S
C524 C521 1.499 . S
C524 C525 1.373 . S
C524 C526 1.389 . S
C525 H504 0.950 . S
C525 C524 1.373 . S
C525 C541 1.377 . S
C526 C524 1.389 . S
C526 C527 1.524 . S
C526 C540 1.377 . S
C527 C526 1.524 . S
C527 C528 1.397 . S
C527 C532 1.363 . S
C528 H505 0.950 . S
C528 C527 1.397 . S
C528 C529 1.334 . S
C529 H506 0.950 . S
C529 C528 1.334 . S
C529 C530 1.287 . S
C530 C529 1.287 . S
C530 C531 1.524 . S
C530 H549 0.913 . S
C531 H507 0.950 . S
C531 C530 1.524 . S
C531 C532 1.415 . S
C532 H508 0.950 . S
C532 C527 1.363 . S
C532 C531 1.415 . S
C533 H509 0.951 . S
C533 C534 1.366 . S
C533 C535 1.388 . S
C534 C533 1.366 . S
C534 C538 1.385 . S
C535 H510 0.951 . S
C535 C533 1.388 . S
C535 C536 1.366 . S
C536 C535 1.366 . S
C536 C537 1.414 . S
C536 C539 1.499 . S
C537 H511 0.950 . S
C537 C536 1.414 . S
C537 C538 1.374 . S
C538 H512 0.950 . S
C538 C534 1.385 . S
C538 C537 1.374 . S
C539 C536 1.499 . S
C539 C540 1.373 . S
C539 C541 1.389 . S
C540 H513 0.950 . S
C540 C526 1.377 . S
C540 C539 1.373 . S
C541 C525 1.377 . S
C541 C539 1.389 . S
C541 C542 1.524 . S
C542 C541 1.524 . S
C542 C543 1.397 . S
C542 C547 1.363 . S
C543 H514 0.950 . S
C543 C542 1.397 . S
C543 C544 1.334 . S
C544 H515 0.950 . S
C544 C543 1.334 . S
C544 C545 1.287 . S
C545 C544 1.287 . S
C545 C546 1.524 . S
C545 H548 0.999 . S
C546 H516 0.950 . S
C546 C545 1.524 . S
C546 C547 1.415 . S
C547 H517 0.950 . S
C547 C542 1.363 . S
C547 C546 1.415 . S
H548 C545 0.999 . S
H549 C530 0.913 . S
H550 C568 0.951 . S
H551 C570 0.951 . S
H552 C572 0.950 . S
H553 C573 0.950 . S
H554 C575 0.950 . S
H555 C578 0.950 . S
H556 C579 0.950 . S
H557 C581 0.950 . S
H558 C582 0.950 . S
H559 C583 0.951 . S
H560 C585 0.951 . S
H561 C587 0.950 . S
H562 C588 0.950 . S
H563 C590 0.950 . S
H564 C593 0.950 . S
H565 C594 0.950 . S
H566 C596 0.950 . S
H567 C597 0.950 . S
C568 H550 0.951 . S
C568 C569 1.366 . S
C568 C570 1.388 . S
C569 C568 1.366 . S
C569 C573 1.385 . S
C570 H551 0.951 . S
C570 C568 1.388 . S
C570 C571 1.366 . S
C571 C570 1.366 . S
C571 C572 1.414 . S
C571 C574 1.499 . S
C572 H552 0.950 . S
C572 C571 1.414 . S
C572 C573 1.374 . S
C573 H553 0.950 . S
C573 C569 1.385 . S
C573 C572 1.374 . S
C574 C571 1.499 . S
C574 C575 1.373 . S
C574 C576 1.389 . S
C575 H554 0.950 . S
C575 C574 1.373 . S
C575 C591 1.377 . S
C576 C574 1.389 . S
C576 C577 1.524 . S
C576 C590 1.377 . S
C577 C576 1.524 . S
C577 C578 1.397 . S
C577 C582 1.363 . S
C578 H555 0.950 . S
C578 C577 1.397 . S
C578 C579 1.334 . S
C579 H556 0.950 . S
C579 C578 1.334 . S
C579 C580 1.287 . S
C580 C579 1.287 . S
C580 C581 1.524 . S
C580 H599 0.913 . S
C581 H557 0.950 . S
C581 C580 1.524 . S
C581 C582 1.415 . S
C582 H558 0.950 . S
C582 C577 1.363 . S
C582 C581 1.415 . S
C583 H559 0.951 . S
C583 C584 1.366 . S
C583 C585 1.388 . S
C584 C583 1.366 . S
C584 C588 1.385 . S
C585 H560 0.951 . S
C585 C583 1.388 . S
C585 C586 1.366 . S
C586 C585 1.366 . S
C586 C587 1.414 . S
C586 C589 1.499 . S
C587 H561 0.950 . S
C587 C586 1.414 . S
C587 C588 1.374 . S
C588 H562 0.950 . S
C588 C584 1.385 . S
C588 C587 1.374 . S
C589 C586 1.499 . S
C589 C590 1.373 . S
C589 C591 1.389 . S
C590 H563 0.950 . S
C590 C576 1.377 . S
C590 C589 1.373 . S
C591 C575 1.377 . S
C591 C589 1.389 . S
C591 C592 1.524 . S
C592 C591 1.524 . S
C592 C593 1.397 . S
C592 C597 1.363 . S
C593 H564 0.950 . S
C593 C592 1.397 . S
C593 C594 1.334 . S
C594 H565 0.950 . S
C594 C593 1.334 . S
C594 C595 1.287 . S
C595 C594 1.287 . S
C595 C596 1.524 . S
C595 H598 0.999 . S
C596 H566 0.950 . S
C596 C595 1.524 . S
C596 C597 1.415 . S
C597 H567 0.950 . S
C597 C592 1.363 . S
C597 C596 1.415 . S
H598 C595 0.999 . S
H599 C580 0.913 . S
H600 C618 0.951 . S
H601 C620 0.951 . S
H602 C622 0.950 . S
H603 C623 0.950 . S
H604 C625 0.950 . S
H605 C628 0.950 . S
H606 C629 0.950 . S
H607 C631 0.950 . S
H608 C632 0.950 . S
H609 C633 0.951 . S
H610 C635 0.951 . S
H611 C637 0.950 . S
H612 C638 0.950 . S
H613 C640 0.950 . S
H614 C643 0.950 . S
H615 C644 0.950 . S
H616 C646 0.950 . S
H617 C647 0.950 . S
C618 H600 0.951 . S
C618 C619 1.366 . S
C618 C620 1.388 . S
C619 C618 1.366 . S
C619 C623 1.385 . S
C620 H601 0.951 . S
C620 C618 1.388 . S
C620 C621 1.366 . S
C621 C620 1.366 . S
C621 C622 1.414 . S
C621 C624 1.499 . S
C622 H602 0.950 . S
C622 C621 1.414 . S
C622 C623 1.374 . S
C623 H603 0.950 . S
C623 C619 1.385 . S
C623 C622 1.374 . S
C624 C621 1.499 . S
C624 C625 1.373 . S
C624 C626 1.389 . S
C625 H604 0.950 . S
C625 C624 1.373 . S
C625 C641 1.377 . S
C626 C624 1.389 . S
C626 C627 1.524 . S
C626 C640 1.377 . S
C627 C626 1.524 . S
C627 C628 1.397 . S
C627 C632 1.363 . S
C628 H605 0.950 . S
C628 C627 1.397 . S
C628 C629 1.334 . S
C629 H606 0.950 . S
C629 C628 1.334 . S
C629 C630 1.287 . S
C630 C629 1.287 . S
C630 C631 1.524 . S
C630 H649 0.913 . S
C631 H607 0.950 . S
C631 C630 1.524 . S
C631 C632 1.415 . S
C632 H608 0.950 . S
C632 C627 1.363 . S
C632 C631 1.415 . S
C633 H609 0.951 . S
C633 C634 1.366 . S
C633 C635 1.388 . S
C634 C633 1.366 . S
C634 C638 1.385 . S
C635 H610 0.951 . S
C635 C633 1.388 . S
C635 C636 1.366 . S
C636 C635 1.366 . S
C636 C637 1.414 . S
C636 C639 1.499 . S
C637 H611 0.950 . S
C637 C636 1.414 . S
C637 C638 1.374 . S
C638 H612 0.950 . S
C638 C634 1.385 . S
C638 C637 1.374 . S
C639 C636 1.499 . S
C639 C640 1.373 . S
C639 C641 1.389 . S
C640 H613 0.950 . S
C640 C626 1.377 . S
C640 C639 1.373 . S
C641 C625 1.377 . S
C641 C639 1.389 . S
C641 C642 1.524 . S
C642 C641 1.524 . S
C642 C643 1.397 . S
C642 C647 1.363 . S
C643 H614 0.950 . S
C643 C642 1.397 . S
C643 C644 1.334 . S
C644 H615 0.950 . S
C644 C643 1.334 . S
C644 C645 1.287 . S
C645 C644 1.287 . S
C645 C646 1.524 . S
C645 H648 0.999 . S
C646 H616 0.950 . S
C646 C645 1.524 . S
C646 C647 1.415 . S
C647 H617 0.950 . S
C647 C642 1.363 . S
C647 C646 1.415 . S
H648 C645 0.999 . S
H649 C630 0.913 . S
H650 C668 0.951 . S
H651 C670 0.951 . S
H652 C672 0.950 . S
H653 C673 0.950 . S
H654 C675 0.950 . S
H655 C678 0.950 . S
H656 C679 0.950 . S
H657 C681 0.950 . S
H658 C682 0.950 . S
H659 C683 0.951 . S
H660 C685 0.951 . S
H661 C687 0.950 . S
H662 C688 0.950 . S
H663 C690 0.950 . S
H664 C693 0.950 . S
H665 C694 0.950 . S
H666 C696 0.950 . S
H667 C697 0.950 . S
C668 H650 0.951 . S
C668 C669 1.366 . S
C668 C670 1.388 . S
C669 C668 1.366 . S
C669 C673 1.385 . S
C670 H651 0.951 . S
C670 C668 1.388 . S
C670 C671 1.366 . S
C671 C670 1.366 . S
C671 C672 1.414 . S
C671 C674 1.499 . S
C672 H652 0.950 . S
C672 C671 1.414 . S
C672 C673 1.374 . S
C673 H653 0.950 . S
C673 C669 1.385 . S
C673 C672 1.374 . S
C674 C671 1.499 . S
C674 C675 1.373 . S
C674 C676 1.389 . S
C675 H654 0.950 . S
C675 C674 1.373 . S
C675 C691 1.377 . S
C676 C674 1.389 . S
C676 C677 1.524 . S
C676 C690 1.377 . S
C677 C676 1.524 . S
C677 C678 1.397 . S
C677 C682 1.363 . S
C678 H655 0.950 . S
C678 C677 1.397 . S
C678 C679 1.334 . S
C679 H656 0.950 . S
C679 C678 1.334 . S
C679 C680 1.287 . S
C680 C679 1.287 . S
C680 C681 1.524 . S
C680 H699 0.913 . S
C681 H657 0.950 . S
C681 C680 1.524 . S
C681 C682 1.415 . S
C682 H658 0.950 . S
C682 C677 1.363 . S
C682 C681 1.415 . S
C683 H659 0.951 . S
C683 C684 1.366 . S
C683 C685 1.388 . S
C684 C683 1.366 . S
C684 C688 1.385 . S
C685 H660 0.951 . S
C685 C683 1.388 . S
C685 C686 1.366 . S
C686 C685 1.366 . S
C686 C687 1.414 . S
C686 C689 1.499 . S
C687 H661 0.950 . S
C687 C686 1.414 . S
C687 C688 1.374 . S
C688 H662 0.950 . S
C688 C684 1.385 . S
C688 C687 1.374 . S
C689 C686 1.499 . S
C689 C690 1.373 . S
C689 C691 1.389 . S
C690 H663 0.950 . S
C690 C676 1.377 . S
C690 C689 1.373 . S
C691 C675 1.377 . S
C691 C689 1.389 . S
C691 C692 1.524 . S
C692 C691 1.524 . S
C692 C693 1.397 . S
C692 C697 1.363 . S
C693 H664 0.950 . S
C693 C692 1.397 . S
C693 C694 1.334 . S
C694 H665 0.950 . S
C694 C693 1.334 . S
C694 C695 1.287 . S
C695 C694 1.287 . S
C695 C696 1.524 . S
C695 H698 0.999 . S
C696 H666 0.950 . S
C696 C695 1.524 . S
C696 C697 1.415 . S
C697 H667 0.950 . S
C697 C692 1.363 . S
C697 C696 1.415 . S
H698 C695 0.999 . S
H699 C680 0.913 . S
H700 C718 0.951 . S
H701 C720 0.951 . S
H702 C722 0.950 . S
H703 C723 0.950 . S
H704 C725 0.950 . S
H705 C728 0.950 . S
H706 C729 0.950 . S
H707 C731 0.950 . S
H708 C732 0.950 . S
H709 C733 0.951 . S
H710 C735 0.951 . S
H711 C737 0.950 . S
H712 C738 0.950 . S
H713 C740 0.950 . S
H714 C743 0.950 . S
H715 C744 0.950 . S
H716 C746 0.950 . S
H717 C747 0.950 . S
C718 H700 0.951 . S
C718 C719 1.366 . S
C718 C720 1.388 . S
C719 C718 1.366 . S
C719 C723 1.385 . S
C720 H701 0.951 . S
C720 C718 1.388 . S
C720 C721 1.366 . S
C721 C720 1.366 . S
C721 C722 1.414 . S
C721 C724 1.499 . S
C722 H702 0.950 . S
C722 C721 1.414 . S
C722 C723 1.374 . S
C723 H703 0.950 . S
C723 C719 1.385 . S
C723 C722 1.374 . S
C724 C721 1.499 . S
C724 C725 1.373 . S
C724 C726 1.389 . S
C725 H704 0.950 . S
C725 C724 1.373 . S
C725 C741 1.377 . S
C726 C724 1.389 . S
C726 C727 1.524 . S
C726 C740 1.377 . S
C727 C726 1.524 . S
C727 C728 1.397 . S
C727 C732 1.363 . S
C728 H705 0.950 . S
C728 C727 1.397 . S
C728 C729 1.334 . S
C729 H706 0.950 . S
C729 C728 1.334 . S
C729 C730 1.287 . S
C730 C729 1.287 . S
C730 C731 1.524 . S
C730 H749 0.913 . S
C731 H707 0.950 . S
C731 C730 1.524 . S
C731 C732 1.415 . S
C732 H708 0.950 . S
C732 C727 1.363 . S
C732 C731 1.415 . S
C733 H709 0.951 . S
C733 C734 1.366 . S
C733 C735 1.388 . S
C734 C733 1.366 . S
C734 C738 1.385 . S
C735 H710 0.951 . S
C735 C733 1.388 . S
C735 C736 1.366 . S
C736 C735 1.366 . S
C736 C737 1.414 . S
C736 C739 1.499 . S
C737 H711 0.950 . S
C737 C736 1.414 . S
C737 C738 1.374 . S
C738 H712 0.950 . S
C738 C734 1.385 . S
C738 C737 1.374 . S
C739 C736 1.499 . S
C739 C740 1.373 . S
C739 C741 1.389 . S
C740 H713 0.950 . S
C740 C726 1.377 . S
C740 C739 1.373 . S
C741 C725 1.377 . S
C741 C739 1.389 . S
C741 C742 1.524 . S
C742 C741 1.524 . S
C742 C743 1.397 . S
C742 C747 1.363 . S
C743 H714 0.950 . S
C743 C742 1.397 . S
C743 C744 1.334 . S
C744 H715 0.950 . S
C744 C743 1.334 . S
C744 C745 1.287 . S
C745 C744 1.287 . S
C745 C746 1.524 . S
C745 H748 0.999 . S
C746 H716 0.950 . S
C746 C745 1.524 . S
C746 C747 1.415 . S
C747 H717 0.950 . S
C747 C742 1.363 . S
C747 C746 1.415 . S
H748 C745 0.999 . S
H749 C730 0.913 . S
H750 C768 0.951 . S
H751 C770 0.951 . S
H752 C772 0.950 . S
H753 C773 0.950 . S
H754 C775 0.950 . S
H755 C778 0.950 . S
H756 C779 0.950 . S
H757 C781 0.950 . S
H758 C782 0.950 . S
H759 C783 0.951 . S
H760 C785 0.951 . S
H761 C787 0.950 . S
H762 C788 0.950 . S
H763 C790 0.950 . S
H764 C793 0.950 . S
H765 C794 0.950 . S
H766 C796 0.950 . S
H767 C797 0.950 . S
C768 H750 0.951 . S
C768 C769 1.366 . S
C768 C770 1.388 . S
C769 C768 1.366 . S
C769 C773 1.385 . S
C770 H751 0.951 . S
C770 C768 1.388 . S
C770 C771 1.366 . S
C771 C770 1.366 . S
C771 C772 1.414 . S
C771 C774 1.499 . S
C772 H752 0.950 . S
C772 C771 1.414 . S
C772 C773 1.374 . S
C773 H753 0.950 . S
C773 C769 1.385 . S
C773 C772 1.374 . S
C774 C771 1.499 . S
C774 C775 1.373 . S
C774 C776 1.389 . S
C775 H754 0.950 . S
C775 C774 1.373 . S
C775 C791 1.377 . S
C776 C774 1.389 . S
C776 C777 1.524 . S
C776 C790 1.377 . S
C777 C776 1.524 . S
C777 C778 1.397 . S
C777 C782 1.363 . S
C778 H755 0.950 . S
C778 C777 1.397 . S
C778 C779 1.334 . S
C779 H756 0.950 . S
C779 C778 1.334 . S
C779 C780 1.287 . S
C780 C779 1.287 . S
C780 C781 1.524 . S
C780 H799 0.913 . S
C781 H757 0.950 . S
C781 C780 1.524 . S
C781 C782 1.415 . S
C782 H758 0.950 . S
C782 C777 1.363 . S
C782 C781 1.415 . S
C783 H759 0.951 . S
C783 C784 1.366 . S
C783 C785 1.388 . S
C784 C783 1.366 . S
C784 C788 1.385 . S
C785 H760 0.951 . S
C785 C783 1.388 . S
C785 C786 1.366 . S
C786 C785 1.366 . S
C786 C787 1.414 . S
C786 C789 1.499 . S
C787 H761 0.950 . S
C787 C786 1.414 . S
C787 C788 1.374 . S
C788 H762 0.950 . S
C788 C784 1.385 . S
C788 C787 1.374 . S
C789 C786 1.499 . S
C789 C790 1.373 . S
C789 C791 1.389 . S
C790 H763 0.950 . S
C790 C776 1.377 . S
C790 C789 1.373 . S
C791 C775 1.377 . S
C791 C789 1.389 . S
C791 C792 1.524 . S
C792 C791 1.524 . S
C792 C793 1.397 . S
C792 C797 1.363 . S
C793 H764 0.950 . S
C793 C792 1.397 . S
C793 C794 1.334 . S
C794 H765 0.950 . S
C794 C793 1.334 . S
C794 C795 1.287 . S
C795 C794 1.287 . S
C795 C796 1.524 . S
C795 H798 0.999 . S
C796 H766 0.950 . S
C796 C795 1.524 . S
C796 C797 1.415 . S
C797 H767 0.950 . S
C797 C792 1.363 . S
C797 C796 1.415 . S
H798 C795 0.999 . S
H799 C780 0.913 . S
H800 C818 0.951 . S
H801 C820 0.951 . S
H802 C822 0.950 . S
H803 C823 0.950 . S
H804 C825 0.950 . S
H805 C828 0.950 . S
H806 C829 0.950 . S
H807 C831 0.950 . S
H808 C832 0.950 . S
H809 C833 0.951 . S
H810 C835 0.951 . S
H811 C837 0.950 . S
H812 C838 0.950 . S
H813 C840 0.950 . S
H814 C843 0.950 . S
H815 C844 0.950 . S
H816 C846 0.950 . S
H817 C847 0.950 . S
C818 H800 0.951 . S
C818 C819 1.366 . S
C818 C820 1.388 . S
C819 C818 1.366 . S
C819 C823 1.385 . S
C820 H801 0.951 . S
C820 C818 1.388 . S
C820 C821 1.366 . S
C821 C820 1.366 . S
C821 C822 1.414 . S
C821 C824 1.499 . S
C822 H802 0.950 . S
C822 C821 1.414 . S
C822 C823 1.374 . S
C823 H803 0.950 . S
C823 C819 1.385 . S
C823 C822 1.374 . S
C824 C821 1.499 . S
C824 C825 1.373 . S
C824 C826 1.389 . S
C825 H804 0.950 . S
C825 C824 1.373 . S
C825 C841 1.377 . S
C826 C824 1.389 . S
C826 C827 1.524 . S
C826 C840 1.377 . S
C827 C826 1.524 . S
C827 C828 1.397 . S
C827 C832 1.363 . S
C828 H805 0.950 . S
C828 C827 1.397 . S
C828 C829 1.334 . S
C829 H806 0.950 . S
C829 C828 1.334 . S
C829 C830 1.287 . S
C830 C829 1.287 . S
C830 C831 1.524 . S
C830 H849 0.913 . S
C831 H807 0.950 . S
C831 C830 1.524 . S
C831 C832 1.415 . S
C832 H808 0.950 . S
C832 C827 1.363 . S
C832 C831 1.415 . S
C833 H809 0.951 . S
C833 C834 1.366 . S
C833 C835 1.388 . S
C834 C833 1.366 . S
C834 C838 1.385 . S
C835 H810 0.951 . S
C835 C833 1.388 . S
C835 C836 1.366 . S
C836 C835 1.366 . S
C836 C837 1.414 . S
C836 C839 1.499 . S
C837 H811 0.950 . S
C837 C836 1.414 . S
C837 C838 1.374 . S
C838 H812 0.950 . S
C838 C834 1.385 . S
C838 C837 1.374 . S
C839 C836 1.499 . S
C839 C840 1.373 . S
C839 C841 1.389 . S
C840 H813 0.950 . S
C840 C826 1.377 . S
C840 C839 1.373 . S
C841 C825 1.377 . S
C841 C839 1.389 . S
C841 C842 1.524 . S
C842 C841 1.524 . S
C842 C843 1.397 . S
C842 C847 1.363 . S
C843 H814 0.950 . S
C843 C842 1.397 . S
C843 C844 1.334 . S
C844 H815 0.950 . S
C844 C843 1.334 . S
C844 C845 1.287 . S
C845 C844 1.287 . S
C845 C846 1.524 . S
C845 H848 0.999 . S
C846 H816 0.950 . S
C846 C845 1.524 . S
C846 C847 1.415 . S
C847 H817 0.950 . S
C847 C842 1.363 . S
C847 C846 1.415 . S
H848 C845 0.999 . S
H849 C830 0.913 . S
H850 C868 0.951 . S
H851 C870 0.951 . S
H852 C872 0.950 . S
H853 C873 0.950 . S
H854 C875 0.950 . S
H855 C878 0.950 . S
H856 C879 0.950 . S
H857 C881 0.950 . S
H858 C882 0.950 . S
H859 C883 0.951 . S
H860 C885 0.951 . S
H861 C887 0.950 . S
H862 C888 0.950 . S
H863 C890 0.950 . S
H864 C893 0.950 . S
H865 C894 0.950 . S
H866 C896 0.950 . S
H867 C897 0.950 . S
C868 H850 0.951 . S
C868 C869 1.366 . S
C868 C870 1.388 . S
C869 C868 1.366 . S
C869 C873 1.385 . S
C870 H851 0.951 . S
C870 C868 1.388 . S
C870 C871 1.366 . S
C871 C870 1.366 . S
C871 C872 1.414 . S
C871 C874 1.499 . S
C872 H852 0.950 . S
C872 C871 1.414 . S
C872 C873 1.374 . S
C873 H853 0.950 . S
C873 C869 1.385 . S
C873 C872 1.374 . S
C874 C871 1.499 . S
C874 C875 1.373 . S
C874 C876 1.389 . S
C875 H854 0.950 . S
C875 C874 1.373 . S
C875 C891 1.377 . S
C876 C874 1.389 . S
C876 C877 1.524 . S
C876 C890 1.377 . S
C877 C876 1.524 . S
C877 C878 1.397 . S
C877 C882 1.363 . S
C878 H855 0.950 . S
C878 C877 1.397 . S
C878 C879 1.334 . S
C879 H856 0.950 . S
C879 C878 1.334 . S
C879 C880 1.287 . S
C880 C879 1.287 . S
C880 C881 1.524 . S
C880 H899 0.913 . S
C881 H857 0.950 . S
C881 C880 1.524 . S
C881 C882 1.415 . S
C882 H858 0.950 . S
C882 C877 1.363 . S
C882 C881 1.415 . S
C883 H859 0.951 . S
C883 C884 1.366 . S
C883 C885 1.388 . S
C884 C883 1.366 . S
C884 C888 1.385 . S
C885 H860 0.951 . S
C885 C883 1.388 . S
C885 C886 1.366 . S
C886 C885 1.366 . S
C886 C887 1.414 . S
C886 C889 1.499 . S
C887 H861 0.950 . S
C887 C886 1.414 . S
C887 C888 1.374 . S
C888 H862 0.950 . S
C888 C884 1.385 . S
C888 C887 1.374 . S
C889 C886 1.499 . S
C889 C890 1.373 . S
C889 C891 1.389 . S
C890 H863 0.950 . S
C890 C876 1.377 . S
C890 C889 1.373 . S
C891 C875 1.377 . S
C891 C889 1.389 . S
C891 C892 1.524 . S
C892 C891 1.524 . S
C892 C893 1.397 . S
C892 C897 1.363 . S
C893 H864 0.950 . S
C893 C892 1.397 . S
C893 C894 1.334 . S
C894 H865 0.950 . S
C894 C893 1.334 . S
C894 C895 1.287 . S
C895 C894 1.287 . S
C895 C896 1.524 . S
C895 H898 0.999 . S
C896 H866 0.950 . S
C896 C895 1.524 . S
C896 C897 1.415 . S
C897 H867 0.950 . S
C897 C892 1.363 . S
C897 C896 1.415 . S
H898 C895 0.999 . S
H899 C880 0.913 . S
H900 C918 0.951 1_556 S
H901 C920 0.951 . S
H902 C922 0.950 . S
H903 C923 0.950 . S
H904 C925 0.950 . S
H905 C928 0.950 . S
H906 C929 0.950 . S
H907 C931 0.950 . S
H908 C932 0.950 . S
H909 C933 0.951 . S
H910 C935 0.951 . S
H911 C937 0.950 . S
H912 C938 0.950 . S
H913 C940 0.950 . S
H914 C943 0.950 . S
H915 C944 0.950 . S
H916 C946 0.950 . S
H917 C947 0.950 . S
C918 H900 0.951 1_554 S
C918 C919 1.366 . S
C918 C920 1.388 . S
C919 C918 1.366 . S
C919 C923 1.385 . S
C920 H901 0.951 . S
C920 C918 1.388 . S
C920 C921 1.366 . S
C921 C920 1.366 . S
C921 C922 1.414 . S
C921 C924 1.499 . S
C922 H902 0.950 . S
C922 C921 1.414 . S
C922 C923 1.374 . S
C923 H903 0.950 . S
C923 C919 1.385 . S
C923 C922 1.374 . S
C924 C921 1.499 . S
C924 C925 1.373 . S
C924 C926 1.389 . S
C925 H904 0.950 . S
C925 C924 1.373 . S
C925 C941 1.377 . S
C926 C924 1.389 . S
C926 C927 1.524 . S
C926 C940 1.377 . S
C927 C926 1.524 . S
C927 C928 1.397 . S
C927 C932 1.363 1_554 S
C928 H905 0.950 . S
C928 C927 1.397 . S
C928 C929 1.334 . S
C929 H906 0.950 . S
C929 C928 1.334 . S
C929 C930 1.287 1_554 S
C930 C929 1.287 1_556 S
C930 C931 1.524 . S
C930 H949 0.913 . S
C931 H907 0.950 . S
C931 C930 1.524 . S
C931 C932 1.415 . S
C932 H908 0.950 . S
C932 C927 1.363 1_556 S
C932 C931 1.415 . S
C933 H909 0.951 . S
C933 C934 1.366 . S
C933 C935 1.388 . S
C934 C933 1.366 . S
C934 C938 1.385 . S
C935 H910 0.951 . S
C935 C933 1.388 . S
C935 C936 1.366 . S
C936 C935 1.366 . S
C936 C937 1.414 . S
C936 C939 1.499 . S
C937 H911 0.950 . S
C937 C936 1.414 . S
C937 C938 1.374 . S
C938 H912 0.950 . S
C938 C934 1.385 . S
C938 C937 1.374 . S
C939 C936 1.499 . S
C939 C940 1.373 . S
C939 C941 1.389 . S
C940 H913 0.950 . S
C940 C926 1.377 . S
C940 C939 1.373 . S
C941 C925 1.377 . S
C941 C939 1.389 . S
C941 C942 1.524 . S
C942 C941 1.524 . S
C942 C943 1.397 . S
C942 C947 1.363 . S
C943 H914 0.950 . S
C943 C942 1.397 . S
C943 C944 1.334 . S
C944 H915 0.950 . S
C944 C943 1.334 . S
C944 C945 1.287 . S
C945 C944 1.287 . S
C945 C946 1.524 . S
C945 H948 0.999 . S
C946 H916 0.950 . S
C946 C945 1.524 . S
C946 C947 1.415 . S
C947 H917 0.950 . S
C947 C942 1.363 . S
C947 C946 1.415 . S
H948 C945 0.999 . S
H949 C930 0.913 . S
H950 C968 0.951 . S
H951 C970 0.951 . S
H952 C972 0.950 . S
H953 C973 0.950 . S
H954 C975 0.950 . S
H955 C978 0.950 . S
H956 C979 0.950 . S
H957 C981 0.950 . S
H958 C982 0.950 . S
H959 C983 0.951 . S
H960 C985 0.951 . S
H961 C987 0.950 . S
H962 C988 0.950 . S
H963 C990 0.950 . S
H964 C993 0.950 . S
H965 C994 0.950 . S
H966 C996 0.950 . S
H967 C997 0.950 . S
C968 H950 0.951 . S
C968 C969 1.366 . S
C968 C970 1.388 . S
C969 C968 1.366 . S
C969 C973 1.385 . S
C970 H951 0.951 . S
C970 C968 1.388 . S
C970 C971 1.366 . S
C971 C970 1.366 . S
C971 C972 1.414 . S
C971 C974 1.499 . S
C972 H952 0.950 . S
C972 C971 1.414 . S
C972 C973 1.374 . S
C973 H953 0.950 . S
C973 C969 1.385 . S
C973 C972 1.374 . S
C974 C971 1.499 . S
C974 C975 1.373 . S
C974 C976 1.389 . S
C975 H954 0.950 . S
C975 C974 1.373 . S
C975 C991 1.377 . S
C976 C974 1.389 . S
C976 C977 1.524 . S
C976 C990 1.377 . S
C977 C976 1.524 . S
C977 C978 1.397 . S
C977 C982 1.363 . S
C978 H955 0.950 . S
C978 C977 1.397 . S
C978 C979 1.334 . S
C979 H956 0.950 . S
C979 C978 1.334 . S
C979 C980 1.287 . S
C980 C979 1.287 . S
C980 C981 1.524 . S
C980 H999 0.913 . S
C981 H957 0.950 . S
C981 C980 1.524 . S
C981 C982 1.415 . S
C982 H958 0.950 . S
C982 C977 1.363 . S
C982 C981 1.415 . S
C983 H959 0.951 . S
C983 C984 1.366 . S
C983 C985 1.388 . S
C984 C983 1.366 . S
C984 C988 1.385 . S
C985 H960 0.951 . S
C985 C983 1.388 . S
C985 C986 1.366 . S
C986 C985 1.366 . S
C986 C987 1.414 . S
C986 C989 1.499 . S
C987 H961 0.950 . S
C987 C986 1.414 . S
C987 C988 1.374 . S
C988 H962 0.950 . S
C988 C984 1.385 . S
C988 C987 1.374 . S
C989 C986 1.499 . S
C989 C990 1.373 . S
C989 C991 1.389 . S
C990 H963 0.950 . S
C990 C976 1.377 . S
C990 C989 1.373 . S
C991 C975 1.377 . S
C991 C989 1.389 . S
C991 C992 1.524 . S
C992 C991 1.524 . S
C992 C993 1.397 . S
C992 C997 1.363 . S
C993 H964 0.950 . S
C993 C992 1.397 . S
C993 C994 1.334 . S
C994 H965 0.950 . S
C994 C993 1.334 . S
C994 C995 1.287 . S
C995 C994 1.287 . S
C995 C996 1.524 . S
C995 H998 0.999 . S
C996 H966 0.950 . S
C996 C995 1.524 . S
C996 C997 1.415 . S
C997 H967 0.950 . S
C997 C992 1.363 . S
C997 C996 1.415 . S
H998 C995 0.999 . S
H999 C980 0.913 . S
H1000 C1018 0.951 . S
H1001 C1020 0.951 . S
H1002 C1022 0.950 . S
H1003 C1023 0.950 . S
H1004 C1025 0.950 . S
H1005 C1028 0.950 . S
H1006 C1029 0.950 . S
H1007 C1031 0.950 . S
H1008 C1032 0.950 . S
H1009 C1033 0.951 . S
H1010 C1035 0.951 . S
H1011 C1037 0.950 . S
H1012 C1038 0.950 . S
H1013 C1040 0.950 . S
H1014 C1043 0.950 . S
H1015 C1044 0.950 . S
H1016 C1046 0.950 . S
H1017 C1047 0.950 . S
C1018 H1000 0.951 . S
C1018 C1019 1.366 . S
C1018 C1020 1.388 . S
C1019 C1018 1.366 . S
C1019 C1023 1.385 . S
C1020 H1001 0.951 . S
C1020 C1018 1.388 . S
C1020 C1021 1.366 . S
C1021 C1020 1.366 . S
C1021 C1022 1.414 . S
C1021 C1024 1.499 . S
C1022 H1002 0.950 . S
C1022 C1021 1.414 . S
C1022 C1023 1.374 . S
C1023 H1003 0.950 . S
C1023 C1019 1.385 . S
C1023 C1022 1.374 . S
C1024 C1021 1.499 . S
C1024 C1025 1.373 . S
C1024 C1026 1.389 . S
C1025 H1004 0.950 . S
C1025 C1024 1.373 . S
C1025 C1041 1.377 . S
C1026 C1024 1.389 . S
C1026 C1027 1.524 . S
C1026 C1040 1.377 . S
C1027 C1026 1.524 . S
C1027 C1028 1.397 . S
C1027 C1032 1.363 . S
C1028 H1005 0.950 . S
C1028 C1027 1.397 . S
C1028 C1029 1.334 . S
C1029 H1006 0.950 . S
C1029 C1028 1.334 . S
C1029 C1030 1.287 . S
C1030 C1029 1.287 . S
C1030 C1031 1.524 . S
C1030 H1049 0.913 . S
C1031 H1007 0.950 . S
C1031 C1030 1.524 . S
C1031 C1032 1.415 . S
C1032 H1008 0.950 . S
C1032 C1027 1.363 . S
C1032 C1031 1.415 . S
C1033 H1009 0.951 . S
C1033 C1034 1.366 . S
C1033 C1035 1.388 . S
C1034 C1033 1.366 . S
C1034 C1038 1.385 . S
C1035 H1010 0.951 . S
C1035 C1033 1.388 . S
C1035 C1036 1.366 . S
C1036 C1035 1.366 . S
C1036 C1037 1.414 . S
C1036 C1039 1.499 . S
C1037 H1011 0.950 . S
C1037 C1036 1.414 . S
C1037 C1038 1.374 . S
C1038 H1012 0.950 . S
C1038 C1034 1.385 . S
C1038 C1037 1.374 . S
C1039 C1036 1.499 . S
C1039 C1040 1.373 . S
C1039 C1041 1.389 . S
C1040 H1013 0.950 . S
C1040 C1026 1.377 . S
C1040 C1039 1.373 . S
C1041 C1025 1.377 . S
C1041 C1039 1.389 . S
C1041 C1042 1.524 . S
C1042 C1041 1.524 . S
C1042 C1043 1.397 . S
C1042 C1047 1.363 . S
C1043 H1014 0.950 . S
C1043 C1042 1.397 . S
C1043 C1044 1.334 . S
C1044 H1015 0.950 . S
C1044 C1043 1.334 . S
C1044 C1045 1.287 . S
C1045 C1044 1.287 . S
C1045 C1046 1.524 . S
C1045 H1048 0.999 . S
C1046 H1016 0.950 . S
C1046 C1045 1.524 . S
C1046 C1047 1.415 . S
C1047 H1017 0.950 . S
C1047 C1042 1.363 . S
C1047 C1046 1.415 . S
H1048 C1045 0.999 . S
H1049 C1030 0.913 . S
H1050 C1068 0.951 . S
H1051 C1070 0.951 . S
H1052 C1072 0.950 . S
H1053 C1073 0.950 . S
H1054 C1075 0.950 . S
H1055 C1078 0.950 . S
H1056 C1079 0.950 . S
H1057 C1081 0.950 . S
H1058 C1082 0.950 . S
H1059 C1083 0.951 . S
H1060 C1085 0.951 . S
H1061 C1087 0.950 . S
H1062 C1088 0.950 . S
H1063 C1090 0.950 . S
H1064 C1093 0.950 . S
H1065 C1094 0.950 . S
H1066 C1096 0.950 . S
H1067 C1097 0.950 . S
C1068 H1050 0.951 . S
C1068 C1069 1.366 . S
C1068 C1070 1.388 . S
C1069 C1068 1.366 . S
C1069 C1073 1.385 . S
C1070 H1051 0.951 . S
C1070 C1068 1.388 . S
C1070 C1071 1.366 . S
C1071 C1070 1.366 . S
C1071 C1072 1.414 . S
C1071 C1074 1.499 . S
C1072 H1052 0.950 . S
C1072 C1071 1.414 . S
C1072 C1073 1.374 . S
C1073 H1053 0.950 . S
C1073 C1069 1.385 . S
C1073 C1072 1.374 . S
C1074 C1071 1.499 . S
C1074 C1075 1.373 . S
C1074 C1076 1.389 . S
C1075 H1054 0.950 . S
C1075 C1074 1.373 . S
C1075 C1091 1.377 . S
C1076 C1074 1.389 . S
C1076 C1077 1.524 . S
C1076 C1090 1.377 . S
C1077 C1076 1.524 . S
C1077 C1078 1.397 . S
C1077 C1082 1.363 . S
C1078 H1055 0.950 . S
C1078 C1077 1.397 . S
C1078 C1079 1.334 . S
C1079 H1056 0.950 . S
C1079 C1078 1.334 . S
C1079 C1080 1.287 . S
C1080 C1079 1.287 . S
C1080 C1081 1.524 . S
C1080 H1099 0.913 . S
C1081 H1057 0.950 . S
C1081 C1080 1.524 . S
C1081 C1082 1.415 . S
C1082 H1058 0.950 . S
C1082 C1077 1.363 . S
C1082 C1081 1.415 . S
C1083 H1059 0.951 . S
C1083 C1084 1.366 . S
C1083 C1085 1.388 . S
C1084 C1083 1.366 . S
C1084 C1088 1.385 . S
C1085 H1060 0.951 . S
C1085 C1083 1.388 . S
C1085 C1086 1.366 . S
C1086 C1085 1.366 . S
C1086 C1087 1.414 . S
C1086 C1089 1.499 . S
C1087 H1061 0.950 . S
C1087 C1086 1.414 . S
C1087 C1088 1.374 . S
C1088 H1062 0.950 . S
C1088 C1084 1.385 . S
C1088 C1087 1.374 . S
C1089 C1086 1.499 . S
C1089 C1090 1.373 . S
C1089 C1091 1.389 . S
C1090 H1063 0.950 . S
C1090 C1076 1.377 . S
C1090 C1089 1.373 . S
C1091 C1075 1.377 . S
C1091 C1089 1.389 . S
C1091 C1092 1.524 . S
C1092 C1091 1.524 . S
C1092 C1093 1.397 . S
C1092 C1097 1.363 . S
C1093 H1064 0.950 . S
C1093 C1092 1.397 . S
C1093 C1094 1.334 . S
C1094 H1065 0.950 . S
C1094 C1093 1.334 . S
C1094 C1095 1.287 . S
C1095 C1094 1.287 . S
C1095 C1096 1.524 . S
C1095 H1098 0.999 . S
C1096 H1066 0.950 . S
C1096 C1095 1.524 . S
C1096 C1097 1.415 . S
C1097 H1067 0.950 . S
C1097 C1092 1.363 . S
C1097 C1096 1.415 . S
H1098 C1095 0.999 . S
H1099 C1080 0.913 . S
H1100 C1118 0.951 . S
H1101 C1120 0.951 . S
H1102 C1122 0.950 . S
H1103 C1123 0.950 . S
H1104 C1125 0.950 . S
H1105 C1128 0.950 . S
H1106 C1129 0.950 . S
H1107 C1131 0.950 . S
H1108 C1132 0.950 . S
H1109 C1133 0.951 . S
H1110 C1135 0.951 . S
H1111 C1137 0.950 . S
H1112 C1138 0.950 . S
H1113 C1140 0.950 . S
H1114 C1143 0.950 . S
H1115 C1144 0.950 . S
H1116 C1146 0.950 . S
H1117 C1147 0.950 . S
C1118 H1100 0.951 . S
C1118 C1119 1.366 . S
C1118 C1120 1.388 . S
C1119 C1118 1.366 . S
C1119 C1123 1.385 . S
C1120 H1101 0.951 . S
C1120 C1118 1.388 . S
C1120 C1121 1.366 . S
C1121 C1120 1.366 . S
C1121 C1122 1.414 . S
C1121 C1124 1.499 . S
C1122 H1102 0.950 . S
C1122 C1121 1.414 . S
C1122 C1123 1.374 . S
C1123 H1103 0.950 . S
C1123 C1119 1.385 . S
C1123 C1122 1.374 . S
C1124 C1121 1.499 . S
C1124 C1125 1.373 . S
C1124 C1126 1.389 . S
C1125 H1104 0.950 . S
C1125 C1124 1.373 . S
C1125 C1141 1.377 . S
C1126 C1124 1.389 . S
C1126 C1127 1.524 . S
C1126 C1140 1.377 . S
C1127 C1126 1.524 . S
C1127 C1128 1.397 . S
C1127 C1132 1.363 . S
C1128 H1105 0.950 . S
C1128 C1127 1.397 . S
C1128 C1129 1.334 . S
C1129 H1106 0.950 . S
C1129 C1128 1.334 . S
C1129 C1130 1.287 . S
C1130 C1129 1.287 . S
C1130 C1131 1.524 . S
C1130 H1149 0.913 . S
C1131 H1107 0.950 . S
C1131 C1130 1.524 . S
C1131 C1132 1.415 . S
C1132 H1108 0.950 . S
C1132 C1127 1.363 . S
C1132 C1131 1.415 . S
C1133 H1109 0.951 . S
C1133 C1134 1.366 . S
C1133 C1135 1.388 . S
C1134 C1133 1.366 . S
C1134 C1138 1.385 . S
C1135 H1110 0.951 . S
C1135 C1133 1.388 . S
C1135 C1136 1.366 . S
C1136 C1135 1.366 . S
C1136 C1137 1.414 . S
C1136 C1139 1.499 . S
C1137 H1111 0.950 . S
C1137 C1136 1.414 . S
C1137 C1138 1.374 . S
C1138 H1112 0.950 . S
C1138 C1134 1.385 . S
C1138 C1137 1.374 . S
C1139 C1136 1.499 . S
C1139 C1140 1.373 . S
C1139 C1141 1.389 . S
C1140 H1113 0.950 . S
C1140 C1126 1.377 . S
C1140 C1139 1.373 . S
C1141 C1125 1.377 . S
C1141 C1139 1.389 . S
C1141 C1142 1.524 . S
C1142 C1141 1.524 . S
C1142 C1143 1.397 . S
C1142 C1147 1.363 . S
C1143 H1114 0.950 . S
C1143 C1142 1.397 . S
C1143 C1144 1.334 . S
C1144 H1115 0.950 . S
C1144 C1143 1.334 . S
C1144 C1145 1.287 . S
C1145 C1144 1.287 . S
C1145 C1146 1.524 . S
C1145 H1148 0.999 . S
C1146 H1116 0.950 . S
C1146 C1145 1.524 . S
C1146 C1147 1.415 . S
C1147 H1117 0.950 . S
C1147 C1142 1.363 . S
C1147 C1146 1.415 . S
H1148 C1145 0.999 . S
H1149 C1130 0.913 . S
H1150 C1168 0.951 . S
H1151 C1170 0.951 . S
H1152 C1172 0.950 . S
H1153 C1173 0.950 . S
H1154 C1175 0.950 . S
H1155 C1178 0.950 . S
H1156 C1179 0.950 . S
H1157 C1181 0.950 . S
H1158 C1182 0.950 . S
H1159 C1183 0.951 . S
H1160 C1185 0.951 . S
H1161 C1187 0.950 . S
H1162 C1188 0.950 . S
H1163 C1190 0.950 . S
H1164 C1193 0.950 . S
H1165 C1194 0.950 . S
H1166 C1196 0.950 . S
H1167 C1197 0.950 . S
C1168 H1150 0.951 . S
C1168 C1169 1.366 . S
C1168 C1170 1.388 . S
C1169 C1168 1.366 . S
C1169 C1173 1.385 . S
C1170 H1151 0.951 . S
C1170 C1168 1.388 . S
C1170 C1171 1.366 . S
C1171 C1170 1.366 . S
C1171 C1172 1.414 . S
C1171 C1174 1.499 . S
C1172 H1152 0.950 . S
C1172 C1171 1.414 . S
C1172 C1173 1.374 . S
C1173 H1153 0.950 . S
C1173 C1169 1.385 . S
C1173 C1172 1.374 . S
C1174 C1171 1.499 . S
C1174 C1175 1.373 . S
C1174 C1176 1.389 . S
C1175 H1154 0.950 . S
C1175 C1174 1.373 . S
C1175 C1191 1.377 . S
C1176 C1174 1.389 . S
C1176 C1177 1.524 . S
C1176 C1190 1.377 . S
C1177 C1176 1.524 . S
C1177 C1178 1.397 . S
C1177 C1182 1.363 . S
C1178 H1155 0.950 . S
C1178 C1177 1.397 . S
C1178 C1179 1.334 . S
C1179 H1156 0.950 . S
C1179 C1178 1.334 . S
C1179 C1180 1.287 . S
C1180 C1179 1.287 . S
C1180 C1181 1.524 . S
C1180 H1199 0.913 . S
C1181 H1157 0.950 . S
C1181 C1180 1.524 . S
C1181 C1182 1.415 . S
C1182 H1158 0.950 . S
C1182 C1177 1.363 . S
C1182 C1181 1.415 . S
C1183 H1159 0.951 . S
C1183 C1184 1.366 . S
C1183 C1185 1.388 . S
C1184 C1183 1.366 . S
C1184 C1188 1.385 . S
C1185 H1160 0.951 . S
C1185 C1183 1.388 . S
C1185 C1186 1.366 . S
C1186 C1185 1.366 . S
C1186 C1187 1.414 . S
C1186 C1189 1.499 . S
C1187 H1161 0.950 . S
C1187 C1186 1.414 . S
C1187 C1188 1.374 . S
C1188 H1162 0.950 . S
C1188 C1184 1.385 . S
C1188 C1187 1.374 . S
C1189 C1186 1.499 . S
C1189 C1190 1.373 . S
C1189 C1191 1.389 . S
C1190 H1163 0.950 . S
C1190 C1176 1.377 . S
C1190 C1189 1.373 . S
C1191 C1175 1.377 . S
C1191 C1189 1.389 . S
C1191 C1192 1.524 . S
C1192 C1191 1.524 . S
C1192 C1193 1.397 . S
C1192 C1197 1.363 . S
C1193 H1164 0.950 . S
C1193 C1192 1.397 . S
C1193 C1194 1.334 . S
C1194 H1165 0.950 . S
C1194 C1193 1.334 . S
C1194 C1195 1.287 . S
C1195 C1194 1.287 . S
C1195 C1196 1.524 . S
C1195 H1198 0.999 . S
C1196 H1166 0.950 . S
C1196 C1195 1.524 . S
C1196 C1197 1.415 . S
C1197 H1167 0.950 . S
C1197 C1192 1.363 . S
C1197 C1196 1.415 . S
H1198 C1195 0.999 . S
H1199 C1180 0.913 . S
H1200 C1218 0.951 . S
H1201 C1220 0.951 . S
H1202 C1222 0.950 . S
H1203 C1223 0.950 . S
H1204 C1225 0.950 . S
H1205 C1228 0.950 . S
H1206 C1229 0.950 . S
H1207 C1231 0.950 . S
H1208 C1232 0.950 . S
H1209 C1233 0.951 . S
H1210 C1235 0.951 . S
H1211 C1237 0.950 . S
H1212 C1238 0.950 . S
H1213 C1240 0.950 . S
H1214 C1243 0.950 . S
H1215 C1244 0.950 . S
H1216 C1246 0.950 . S
H1217 C1247 0.950 . S
C1218 H1200 0.951 . S
C1218 C1219 1.366 . S
C1218 C1220 1.388 . S
C1219 C1218 1.366 . S
C1219 C1223 1.385 . S
C1220 H1201 0.951 . S
C1220 C1218 1.388 . S
C1220 C1221 1.366 . S
C1221 C1220 1.366 . S
C1221 C1222 1.414 . S
C1221 C1224 1.499 . S
C1222 H1202 0.950 . S
C1222 C1221 1.414 . S
C1222 C1223 1.374 . S
C1223 H1203 0.950 . S
C1223 C1219 1.385 . S
C1223 C1222 1.374 . S
C1224 C1221 1.499 . S
C1224 C1225 1.373 . S
C1224 C1226 1.389 . S
C1225 H1204 0.950 . S
C1225 C1224 1.373 . S
C1225 C1241 1.377 . S
C1226 C1224 1.389 . S
C1226 C1227 1.524 . S
C1226 C1240 1.377 . S
C1227 C1226 1.524 . S
C1227 C1228 1.397 . S
C1227 C1232 1.363 . S
C1228 H1205 0.950 . S
C1228 C1227 1.397 . S
C1228 C1229 1.334 . S
C1229 H1206 0.950 . S
C1229 C1228 1.334 . S
C1229 C1230 1.287 . S
C1230 C1229 1.287 . S
C1230 C1231 1.524 . S
C1230 H1249 0.913 . S
C1231 H1207 0.950 . S
C1231 C1230 1.524 . S
C1231 C1232 1.415 . S
C1232 H1208 0.950 . S
C1232 C1227 1.363 . S
C1232 C1231 1.415 . S
C1233 H1209 0.951 . S
C1233 C1234 1.366 1_556 S
C1233 C1235 1.388 . S
C1234 C1233 1.366 1_554 S
C1234 C1238 1.385 . S
C1235 H1210 0.951 . S
C1235 C1233 1.388 . S
C1235 C1236 1.366 . S
C1236 C1235 1.366 . S
C1236 C1237 1.414 1_556 S
C1236 C1239 1.499 . S
C1237 H1211 0.950 . S
C1237 C1236 1.414 1_554 S
C1237 C1238 1.374 . S
C1238 H1212 0.950 . S
C1238 C1234 1.385 . S
C1238 C1237 1.374 . S
C1239 C1236 1.499 . S
C1239 C1240 1.373 . S
C1239 C1241 1.389 . S
C1240 H1213 0.950 . S
C1240 C1226 1.377 . S
C1240 C1239 1.373 . S
C1241 C1225 1.377 . S
C1241 C1239 1.389 . S
C1241 C1242 1.524 . S
C1242 C1241 1.524 . S
C1242 C1243 1.397 . S
C1242 C1247 1.363 . S
C1243 H1214 0.950 . S
C1243 C1242 1.397 . S
C1243 C1244 1.334 . S
C1244 H1215 0.950 . S
C1244 C1243 1.334 . S
C1244 C1245 1.287 . S
C1245 C1244 1.287 . S
C1245 C1246 1.524 . S
C1245 H1248 0.999 . S
C1246 H1216 0.950 . S
C1246 C1245 1.524 . S
C1246 C1247 1.415 . S
C1247 H1217 0.950 . S
C1247 C1242 1.363 . S
C1247 C1246 1.415 . S
H1248 C1245 0.999 . S
H1249 C1230 0.913 . S
H1250 C1268 0.951 . S
H1251 C1270 0.951 . S
H1252 C1272 0.950 . S
H1253 C1273 0.950 . S
H1254 C1275 0.950 . S
H1255 C1278 0.950 . S
H1256 C1279 0.950 . S
H1257 C1281 0.950 . S
H1258 C1282 0.950 . S
H1259 C1283 0.951 . S
H1260 C1285 0.951 . S
H1261 C1287 0.950 . S
H1262 C1288 0.950 . S
H1263 C1290 0.950 . S
H1264 C1293 0.950 . S
H1265 C1294 0.950 . S
H1266 C1296 0.950 . S
H1267 C1297 0.950 . S
C1268 H1250 0.951 . S
C1268 C1269 1.366 . S
C1268 C1270 1.388 . S
C1269 C1268 1.366 . S
C1269 C1273 1.385 . S
C1270 H1251 0.951 . S
C1270 C1268 1.388 . S
C1270 C1271 1.366 . S
C1271 C1270 1.366 . S
C1271 C1272 1.414 . S
C1271 C1274 1.499 . S
C1272 H1252 0.950 . S
C1272 C1271 1.414 . S
C1272 C1273 1.374 . S
C1273 H1253 0.950 . S
C1273 C1269 1.385 . S
C1273 C1272 1.374 . S
C1274 C1271 1.499 . S
C1274 C1275 1.373 . S
C1274 C1276 1.389 . S
C1275 H1254 0.950 . S
C1275 C1274 1.373 . S
C1275 C1291 1.377 . S
C1276 C1274 1.389 . S
C1276 C1277 1.524 . S
C1276 C1290 1.377 . S
C1277 C1276 1.524 . S
C1277 C1278 1.397 . S
C1277 C1282 1.363 . S
C1278 H1255 0.950 . S
C1278 C1277 1.397 . S
C1278 C1279 1.334 . S
C1279 H1256 0.950 . S
C1279 C1278 1.334 . S
C1279 C1280 1.287 . S
C1280 C1279 1.287 . S
C1280 C1281 1.524 . S
C1280 H1299 0.913 . S
C1281 H1257 0.950 . S
C1281 C1280 1.524 . S
C1281 C1282 1.415 . S
C1282 H1258 0.950 . S
C1282 C1277 1.363 . S
C1282 C1281 1.415 . S
C1283 H1259 0.951 . S
C1283 C1284 1.366 . S
C1283 C1285 1.388 . S
C1284 C1283 1.366 . S
C1284 C1288 1.385 . S
C1285 H1260 0.951 . S
C1285 C1283 1.388 . S
C1285 C1286 1.366 . S
C1286 C1285 1.366 . S
C1286 C1287 1.414 . S
C1286 C1289 1.499 . S
C1287 H1261 0.950 . S
C1287 C1286 1.414 . S
C1287 C1288 1.374 . S
C1288 H1262 0.950 . S
C1288 C1284 1.385 . S
C1288 C1287 1.374 . S
C1289 C1286 1.499 . S
C1289 C1290 1.373 . S
C1289 C1291 1.389 . S
C1290 H1263 0.950 . S
C1290 C1276 1.377 . S
C1290 C1289 1.373 . S
C1291 C1275 1.377 . S
C1291 C1289 1.389 . S
C1291 C1292 1.524 . S
C1292 C1291 1.524 . S
C1292 C1293 1.397 . S
C1292 C1297 1.363 . S
C1293 H1264 0.950 . S
C1293 C1292 1.397 . S
C1293 C1294 1.334 . S
C1294 H1265 0.950 . S
C1294 C1293 1.334 . S
C1294 C1295 1.287 . S
C1295 C1294 1.287 . S
C1295 C1296 1.524 . S
C1295 H1298 0.999 . S
C1296 H1266 0.950 . S
C1296 C1295 1.524 . S
C1296 C1297 1.415 . S
C1297 H1267 0.950 . S
C1297 C1292 1.363 . S
C1297 C1296 1.415 . S
H1298 C1295 0.999 . S
H1299 C1280 0.913 . S
H1300 C1318 0.951 . S
H1301 C1320 0.951 . S
H1302 C1322 0.950 . S
H1303 C1323 0.950 . S
H1304 C1325 0.950 . S
H1305 C1328 0.950 . S
H1306 C1329 0.950 . S
H1307 C1331 0.950 . S
H1308 C1332 0.950 . S
H1309 C1333 0.951 . S
H1310 C1335 0.951 . S
H1311 C1337 0.950 . S
H1312 C1338 0.950 . S
H1313 C1340 0.950 . S
H1314 C1343 0.950 . S
H1315 C1344 0.950 . S
H1316 C1346 0.950 . S
H1317 C1347 0.950 . S
C1318 H1300 0.951 . S
C1318 C1319 1.366 . S
C1318 C1320 1.388 . S
C1319 C1318 1.366 . S
C1319 C1323 1.385 . S
C1320 H1301 0.951 . S
C1320 C1318 1.388 . S
C1320 C1321 1.366 . S
C1321 C1320 1.366 . S
C1321 C1322 1.414 . S
C1321 C1324 1.499 . S
C1322 H1302 0.950 . S
C1322 C1321 1.414 . S
C1322 C1323 1.374 . S
C1323 H1303 0.950 . S
C1323 C1319 1.385 . S
C1323 C1322 1.374 . S
C1324 C1321 1.499 . S
C1324 C1325 1.373 . S
C1324 C1326 1.389 . S
C1325 H1304 0.950 . S
C1325 C1324 1.373 . S
C1325 C1341 1.377 . S
C1326 C1324 1.389 . S
C1326 C1327 1.524 . S
C1326 C1340 1.377 . S
C1327 C1326 1.524 . S
C1327 C1328 1.397 . S
C1327 C1332 1.363 . S
C1328 H1305 0.950 . S
C1328 C1327 1.397 . S
C1328 C1329 1.334 . S
C1329 H1306 0.950 . S
C1329 C1328 1.334 . S
C1329 C1330 1.287 . S
C1330 C1329 1.287 . S
C1330 C1331 1.524 . S
C1330 H1349 0.913 . S
C1331 H1307 0.950 . S
C1331 C1330 1.524 . S
C1331 C1332 1.415 . S
C1332 H1308 0.950 . S
C1332 C1327 1.363 . S
C1332 C1331 1.415 . S
C1333 H1309 0.951 . S
C1333 C1334 1.366 . S
C1333 C1335 1.388 . S
C1334 C1333 1.366 . S
C1334 C1338 1.385 . S
C1335 H1310 0.951 . S
C1335 C1333 1.388 . S
C1335 C1336 1.366 . S
C1336 C1335 1.366 . S
C1336 C1337 1.414 . S
C1336 C1339 1.499 . S
C1337 H1311 0.950 . S
C1337 C1336 1.414 . S
C1337 C1338 1.374 . S
C1338 H1312 0.950 . S
C1338 C1334 1.385 . S
C1338 C1337 1.374 . S
C1339 C1336 1.499 . S
C1339 C1340 1.373 . S
C1339 C1341 1.389 . S
C1340 H1313 0.950 . S
C1340 C1326 1.377 . S
C1340 C1339 1.373 . S
C1341 C1325 1.377 . S
C1341 C1339 1.389 . S
C1341 C1342 1.524 . S
C1342 C1341 1.524 . S
C1342 C1343 1.397 . S
C1342 C1347 1.363 . S
C1343 H1314 0.950 . S
C1343 C1342 1.397 . S
C1343 C1344 1.334 . S
C1344 H1315 0.950 . S
C1344 C1343 1.334 . S
C1344 C1345 1.287 . S
C1345 C1344 1.287 . S
C1345 C1346 1.524 . S
C1345 H1348 0.999 . S
C1346 H1316 0.950 . S
C1346 C1345 1.524 . S
C1346 C1347 1.415 . S
C1347 H1317 0.950 . S
C1347 C1342 1.363 . S
C1347 C1346 1.415 . S
H1348 C1345 0.999 . S
H1349 C1330 0.913 . S
H1350 C1368 0.951 . S
H1351 C1370 0.951 . S
H1352 C1372 0.950 . S
H1353 C1373 0.950 . S
H1354 C1375 0.950 . S
H1355 C1378 0.950 . S
H1356 C1379 0.950 . S
H1357 C1381 0.950 . S
H1358 C1382 0.950 . S
H1359 C1383 0.951 . S
H1360 C1385 0.951 . S
H1361 C1387 0.950 . S
H1362 C1388 0.950 . S
H1363 C1390 0.950 . S
H1364 C1393 0.950 . S
H1365 C1394 0.950 . S
H1366 C1396 0.950 . S
H1367 C1397 0.950 . S
C1368 H1350 0.951 . S
C1368 C1369 1.366 . S
C1368 C1370 1.388 . S
C1369 C1368 1.366 . S
C1369 C1373 1.385 . S
C1370 H1351 0.951 . S
C1370 C1368 1.388 . S
C1370 C1371 1.366 . S
C1371 C1370 1.366 . S
C1371 C1372 1.414 . S
C1371 C1374 1.499 . S
C1372 H1352 0.950 . S
C1372 C1371 1.414 . S
C1372 C1373 1.374 . S
C1373 H1353 0.950 . S
C1373 C1369 1.385 . S
C1373 C1372 1.374 . S
C1374 C1371 1.499 . S
C1374 C1375 1.373 . S
C1374 C1376 1.389 . S
C1375 H1354 0.950 . S
C1375 C1374 1.373 . S
C1375 C1391 1.377 . S
C1376 C1374 1.389 . S
C1376 C1377 1.524 . S
C1376 C1390 1.377 . S
C1377 C1376 1.524 . S
C1377 C1378 1.397 . S
C1377 C1382 1.363 . S
C1378 H1355 0.950 . S
C1378 C1377 1.397 . S
C1378 C1379 1.334 . S
C1379 H1356 0.950 . S
C1379 C1378 1.334 . S
C1379 C1380 1.287 . S
C1380 C1379 1.287 . S
C1380 C1381 1.524 . S
C1380 H1399 0.913 . S
C1381 H1357 0.950 . S
C1381 C1380 1.524 . S
C1381 C1382 1.415 . S
C1382 H1358 0.950 . S
C1382 C1377 1.363 . S
C1382 C1381 1.415 . S
C1383 H1359 0.951 . S
C1383 C1384 1.366 . S
C1383 C1385 1.388 . S
C1384 C1383 1.366 . S
C1384 C1388 1.385 . S
C1385 H1360 0.951 . S
C1385 C1383 1.388 . S
C1385 C1386 1.366 . S
C1386 C1385 1.366 . S
C1386 C1387 1.414 . S
C1386 C1389 1.499 . S
C1387 H1361 0.950 . S
C1387 C1386 1.414 . S
C1387 C1388 1.374 . S
C1388 H1362 0.950 . S
C1388 C1384 1.385 . S
C1388 C1387 1.374 . S
C1389 C1386 1.499 . S
C1389 C1390 1.373 . S
C1389 C1391 1.389 . S
C1390 H1363 0.950 . S
C1390 C1376 1.377 . S
C1390 C1389 1.373 . S
C1391 C1375 1.377 . S
C1391 C1389 1.389 . S
C1391 C1392 1.524 . S
C1392 C1391 1.524 . S
C1392 C1393 1.397 . S
C1392 C1397 1.363 . S
C1393 H1364 0.950 . S
C1393 C1392 1.397 . S
C1393 C1394 1.334 . S
C1394 H1365 0.950 . S
C1394 C1393 1.334 . S
C1394 C1395 1.287 . S
C1395 C1394 1.287 . S
C1395 C1396 1.524 . S
C1395 H1398 0.999 . S
C1396 H1366 0.950 . S
C1396 C1395 1.524 . S
C1396 C1397 1.415 . S
C1397 H1367 0.950 . S
C1397 C1392 1.363 . S
C1397 C1396 1.415 . S
H1398 C1395 0.999 . S
H1399 C1380 0.913 . S
H1400 C1418 0.951 . S
H1401 C1420 0.951 . S
H1402 C1422 0.950 . S
H1403 C1423 0.950 . S
H1404 C1425 0.950 . S
H1405 C1428 0.950 . S
H1406 C1429 0.950 . S
H1407 C1431 0.950 . S
H1408 C1432 0.950 . S
H1409 C1433 0.951 . S
H1410 C1435 0.951 . S
H1411 C1437 0.950 . S
H1412 C1438 0.950 . S
H1413 C1440 0.950 . S
H1414 C1443 0.950 . S
H1415 C1444 0.950 . S
H1416 C1446 0.950 . S
H1417 C1447 0.950 . S
C1418 H1400 0.951 . S
C1418 C1419 1.366 . S
C1418 C1420 1.388 . S
C1419 C1418 1.366 . S
C1419 C1423 1.385 . S
C1420 H1401 0.951 . S
C1420 C1418 1.388 . S
C1420 C1421 1.366 . S
C1421 C1420 1.366 . S
C1421 C1422 1.414 . S
C1421 C1424 1.499 . S
C1422 H1402 0.950 . S
C1422 C1421 1.414 . S
C1422 C1423 1.374 . S
C1423 H1403 0.950 . S
C1423 C1419 1.385 . S
C1423 C1422 1.374 . S
C1424 C1421 1.499 . S
C1424 C1425 1.373 . S
C1424 C1426 1.389 . S
C1425 H1404 0.950 . S
C1425 C1424 1.373 . S
C1425 C1441 1.377 . S
C1426 C1424 1.389 . S
C1426 C1427 1.524 . S
C1426 C1440 1.377 . S
C1427 C1426 1.524 . S
C1427 C1428 1.397 . S
C1427 C1432 1.363 . S
C1428 H1405 0.950 . S
C1428 C1427 1.397 . S
C1428 C1429 1.334 . S
C1429 H1406 0.950 . S
C1429 C1428 1.334 . S
C1429 C1430 1.287 . S
C1430 C1429 1.287 . S
C1430 C1431 1.524 . S
C1430 H1449 0.913 . S
C1431 H1407 0.950 . S
C1431 C1430 1.524 . S
C1431 C1432 1.415 . S
C1432 H1408 0.950 . S
C1432 C1427 1.363 . S
C1432 C1431 1.415 . S
C1433 H1409 0.951 . S
C1433 C1434 1.366 . S
C1433 C1435 1.388 . S
C1434 C1433 1.366 . S
C1434 C1438 1.385 . S
C1435 H1410 0.951 . S
C1435 C1433 1.388 . S
C1435 C1436 1.366 . S
C1436 C1435 1.366 . S
C1436 C1437 1.414 . S
C1436 C1439 1.499 . S
C1437 H1411 0.950 . S
C1437 C1436 1.414 . S
C1437 C1438 1.374 . S
C1438 H1412 0.950 . S
C1438 C1434 1.385 . S
C1438 C1437 1.374 . S
C1439 C1436 1.499 . S
C1439 C1440 1.373 . S
C1439 C1441 1.389 . S
C1440 H1413 0.950 . S
C1440 C1426 1.377 . S
C1440 C1439 1.373 . S
C1441 C1425 1.377 . S
C1441 C1439 1.389 . S
C1441 C1442 1.524 . S
C1442 C1441 1.524 . S
C1442 C1443 1.397 . S
C1442 C1447 1.363 . S
C1443 H1414 0.950 . S
C1443 C1442 1.397 . S
C1443 C1444 1.334 . S
C1444 H1415 0.950 . S
C1444 C1443 1.334 . S
C1444 C1445 1.287 . S
C1445 C1444 1.287 . S
C1445 C1446 1.524 . S
C1445 H1448 0.999 . S
C1446 H1416 0.950 . S
C1446 C1445 1.524 . S
C1446 C1447 1.415 . S
C1447 H1417 0.950 . S
C1447 C1442 1.363 . S
C1447 C1446 1.415 . S
H1448 C1445 0.999 . S
H1449 C1430 0.913 . S
H1450 C1468 0.951 . S
H1451 C1470 0.951 . S
H1452 C1472 0.950 . S
H1453 C1473 0.950 . S
H1454 C1475 0.950 . S
H1455 C1478 0.950 . S
H1456 C1479 0.950 . S
H1457 C1481 0.950 . S
H1458 C1482 0.950 . S
H1459 C1483 0.951 . S
H1460 C1485 0.951 . S
H1461 C1487 0.950 . S
H1462 C1488 0.950 . S
H1463 C1490 0.950 . S
H1464 C1493 0.950 . S
H1465 C1494 0.950 . S
H1466 C1496 0.950 . S
H1467 C1497 0.950 . S
C1468 H1450 0.951 . S
C1468 C1469 1.366 . S
C1468 C1470 1.388 . S
C1469 C1468 1.366 . S
C1469 C1473 1.385 . S
C1470 H1451 0.951 . S
C1470 C1468 1.388 . S
C1470 C1471 1.366 . S
C1471 C1470 1.366 . S
C1471 C1472 1.414 . S
C1471 C1474 1.499 . S
C1472 H1452 0.950 . S
C1472 C1471 1.414 . S
C1472 C1473 1.374 . S
C1473 H1453 0.950 . S
C1473 C1469 1.385 . S
C1473 C1472 1.374 . S
C1474 C1471 1.499 . S
C1474 C1475 1.373 . S
C1474 C1476 1.389 . S
C1475 H1454 0.950 . S
C1475 C1474 1.373 . S
C1475 C1491 1.377 . S
C1476 C1474 1.389 . S
C1476 C1477 1.524 . S
C1476 C1490 1.377 . S
C1477 C1476 1.524 . S
C1477 C1478 1.397 . S
C1477 C1482 1.363 . S
C1478 H1455 0.950 . S
C1478 C1477 1.397 . S
C1478 C1479 1.334 . S
C1479 H1456 0.950 . S
C1479 C1478 1.334 . S
C1479 C1480 1.287 . S
C1480 C1479 1.287 . S
C1480 C1481 1.524 . S
C1480 H1499 0.913 . S
C1481 H1457 0.950 . S
C1481 C1480 1.524 . S
C1481 C1482 1.415 . S
C1482 H1458 0.950 . S
C1482 C1477 1.363 . S
C1482 C1481 1.415 . S
C1483 H1459 0.951 . S
C1483 C1484 1.366 . S
C1483 C1485 1.388 . S
C1484 C1483 1.366 . S
C1484 C1488 1.385 . S
C1485 H1460 0.951 . S
C1485 C1483 1.388 . S
C1485 C1486 1.366 . S
C1486 C1485 1.366 . S
C1486 C1487 1.414 . S
C1486 C1489 1.499 . S
C1487 H1461 0.950 . S
C1487 C1486 1.414 . S
C1487 C1488 1.374 . S
C1488 H1462 0.950 . S
C1488 C1484 1.385 . S
C1488 C1487 1.374 . S
C1489 C1486 1.499 . S
C1489 C1490 1.373 . S
C1489 C1491 1.389 . S
C1490 H1463 0.950 . S
C1490 C1476 1.377 . S
C1490 C1489 1.373 . S
C1491 C1475 1.377 . S
C1491 C1489 1.389 . S
C1491 C1492 1.524 . S
C1492 C1491 1.524 . S
C1492 C1493 1.397 . S
C1492 C1497 1.363 . S
C1493 H1464 0.950 . S
C1493 C1492 1.397 . S
C1493 C1494 1.334 . S
C1494 H1465 0.950 . S
C1494 C1493 1.334 . S
C1494 C1495 1.287 . S
C1495 C1494 1.287 . S
C1495 C1496 1.524 . S
C1495 H1498 0.999 . S
C1496 H1466 0.950 . S
C1496 C1495 1.524 . S
C1496 C1497 1.415 . S
C1497 H1467 0.950 . S
C1497 C1492 1.363 . S
C1497 C1496 1.415 . S
H1498 C1495 0.999 . S
H1499 C1480 0.913 . S
H1500 C1518 0.951 . S
H1501 C1520 0.951 . S
H1502 C1522 0.950 . S
H1503 C1523 0.950 . S
H1504 C1525 0.950 . S
H1505 C1528 0.950 . S
H1506 C1529 0.950 . S
H1507 C1531 0.950 . S
H1508 C1532 0.950 . S
H1509 C1533 0.951 . S
H1510 C1535 0.951 . S
H1511 C1537 0.950 . S
H1512 C1538 0.950 . S
H1513 C1540 0.950 . S
H1514 C1543 0.950 . S
H1515 C1544 0.950 . S
H1516 C1546 0.950 . S
H1517 C1547 0.950 . S
C1518 H1500 0.951 . S
C1518 C1519 1.366 . S
C1518 C1520 1.388 . S
C1519 C1518 1.366 . S
C1519 C1523 1.385 . S
C1520 H1501 0.951 . S
C1520 C1518 1.388 . S
C1520 C1521 1.366 . S
C1521 C1520 1.366 . S
C1521 C1522 1.414 . S
C1521 C1524 1.499 . S
C1522 H1502 0.950 . S
C1522 C1521 1.414 . S
C1522 C1523 1.374 . S
C1523 H1503 0.950 . S
C1523 C1519 1.385 . S
C1523 C1522 1.374 . S
C1524 C1521 1.499 . S
C1524 C1525 1.373 . S
C1524 C1526 1.389 . S
C1525 H1504 0.950 . S
C1525 C1524 1.373 . S
C1525 C1541 1.377 . S
C1526 C1524 1.389 . S
C1526 C1527 1.524 . S
C1526 C1540 1.377 . S
C1527 C1526 1.524 . S
C1527 C1528 1.397 . S
C1527 C1532 1.363 . S
C1528 H1505 0.950 . S
C1528 C1527 1.397 . S
C1528 C1529 1.334 . S
C1529 H1506 0.950 . S
C1529 C1528 1.334 . S
C1529 C1530 1.287 . S
C1530 C1529 1.287 . S
C1530 C1531 1.524 . S
C1530 H1549 0.913 . S
C1531 H1507 0.950 . S
C1531 C1530 1.524 . S
C1531 C1532 1.415 . S
C1532 H1508 0.950 . S
C1532 C1527 1.363 . S
C1532 C1531 1.415 . S
C1533 H1509 0.951 . S
C1533 C1534 1.366 . S
C1533 C1535 1.388 . S
C1534 C1533 1.366 . S
C1534 C1538 1.385 . S
C1535 H1510 0.951 . S
C1535 C1533 1.388 . S
C1535 C1536 1.366 . S
C1536 C1535 1.366 . S
C1536 C1537 1.414 . S
C1536 C1539 1.499 . S
C1537 H1511 0.950 . S
C1537 C1536 1.414 . S
C1537 C1538 1.374 . S
C1538 H1512 0.950 . S
C1538 C1534 1.385 . S
C1538 C1537 1.374 . S
C1539 C1536 1.499 . S
C1539 C1540 1.373 . S
C1539 C1541 1.389 . S
C1540 H1513 0.950 . S
C1540 C1526 1.377 . S
C1540 C1539 1.373 . S
C1541 C1525 1.377 . S
C1541 C1539 1.389 . S
C1541 C1542 1.524 . S
C1542 C1541 1.524 . S
C1542 C1543 1.397 . S
C1542 C1547 1.363 . S
C1543 H1514 0.950 . S
C1543 C1542 1.397 . S
C1543 C1544 1.334 . S
C1544 H1515 0.950 . S
C1544 C1543 1.334 . S
C1544 C1545 1.287 . S
C1545 C1544 1.287 . S
C1545 C1546 1.524 . S
C1545 H1548 0.999 . S
C1546 H1516 0.950 . S
C1546 C1545 1.524 . S
C1546 C1547 1.415 . S
C1547 H1517 0.950 . S
C1547 C1542 1.363 . S
C1547 C1546 1.415 . S
H1548 C1545 0.999 . S
H1549 C1530 0.913 . S
H1550 C1568 0.951 . S
H1551 C1570 0.951 . S
H1552 C1572 0.950 . S
H1553 C1573 0.950 . S
H1554 C1575 0.950 . S
H1555 C1578 0.950 . S
H1556 C1579 0.950 . S
H1557 C1581 0.950 . S
H1558 C1582 0.950 . S
H1559 C1583 0.951 . S
H1560 C1585 0.951 . S
H1561 C1587 0.950 . S
H1562 C1588 0.950 . S
H1563 C1590 0.950 . S
H1564 C1593 0.959 . S
H1565 C1594 0.950 . S
H1566 C1596 0.950 . S
H1567 C1597 0.950 . S
C1568 H1550 0.951 . S
C1568 C1569 1.366 . S
C1568 C1570 1.388 . S
C1569 C1568 1.366 . S
C1569 C1573 1.385 . S
C1570 H1551 0.951 . S
C1570 C1568 1.388 . S
C1570 C1571 1.366 . S
C1571 C1570 1.366 . S
C1571 C1572 1.414 . S
C1571 C1574 1.499 . S
C1572 H1552 0.950 . S
C1572 C1571 1.414 . S
C1572 C1573 1.374 . S
C1573 H1553 0.950 . S
C1573 C1569 1.385 . S
C1573 C1572 1.374 . S
C1574 C1571 1.499 . S
C1574 C1575 1.373 . S
C1574 C1576 1.395 . S
C1575 H1554 0.950 . S
C1575 C1574 1.373 . S
C1575 C1591 1.377 1_554 S
C1576 C1574 1.395 . S
C1576 C1577 1.525 . S
C1576 C1590 1.369 1_554 S
C1577 C1576 1.525 . S
C1577 C1578 1.397 1_554 S
C1577 C1582 1.363 . S
C1578 H1555 0.950 . S
C1578 C1577 1.397 1_556 S
C1578 C1579 1.334 . S
C1579 H1556 0.950 . S
C1579 C1578 1.334 . S
C1579 C1580 1.286 . S
C1580 C1579 1.286 . S
C1580 C1581 1.525 1_556 S
C1580 H1599 0.912 1_556 S
C1581 H1557 0.950 . S
C1581 C1580 1.525 1_554 S
C1581 C1582 1.415 . S
C1582 H1558 0.950 . S
C1582 C1577 1.363 . S
C1582 C1581 1.415 . S
C1583 H1559 0.951 . S
C1583 C1584 1.366 . S
C1583 C1585 1.388 . S
C1584 C1583 1.366 . S
C1584 C1588 1.385 . S
C1585 H1560 0.951 . S
C1585 C1583 1.388 . S
C1585 C1586 1.366 . S
C1586 C1585 1.366 . S
C1586 C1587 1.414 . S
C1586 C1589 1.499 . S
C1587 H1561 0.950 . S
C1587 C1586 1.414 . S
C1587 C1588 1.374 . S
C1588 H1562 0.950 . S
C1588 C1584 1.385 . S
C1588 C1587 1.374 . S
C1589 C1586 1.499 . S
C1589 C1590 1.373 . S
C1589 C1591 1.389 . S
C1590 H1563 0.950 . S
C1590 C1576 1.369 1_556 S
C1590 C1589 1.373 . S
C1591 C1575 1.377 1_556 S
C1591 C1589 1.389 . S
C1591 C1592 1.524 . S
C1592 C1591 1.524 . S
C1592 C1593 1.397 . S
C1592 C1597 1.363 . S
C1593 H1564 0.959 . S
C1593 C1592 1.397 . S
C1593 C1594 1.334 . S
C1594 H1565 0.950 . S
C1594 C1593 1.334 . S
C1594 C1595 1.287 . S
C1595 C1594 1.287 . S
C1595 C1596 1.524 . S
C1595 H1598 0.999 . S
C1596 H1566 0.950 . S
C1596 C1595 1.524 . S
C1596 C1597 1.415 . S
C1597 H1567 0.950 . S
C1597 C1592 1.363 . S
C1597 C1596 1.415 . S
H1598 C1595 0.999 . S
H1599 C1580 0.912 1_554 S
H1600 C1618 0.951 . S
H1601 C1620 0.951 . S
H1602 C1622 0.950 . S
H1603 C1623 0.950 . S
H1604 C1625 0.950 . S
H1605 C1628 0.950 . S
H1606 C1629 0.950 . S
H1607 C1631 0.950 . S
H1608 C1632 0.950 . S
H1609 C1633 0.951 . S
H1610 C1635 0.951 . S
H1611 C1637 0.950 . S
H1612 C1638 0.950 . S
H1613 C1640 0.950 . S
H1614 C1643 0.950 . S
H1615 C1644 0.950 . S
H1616 C1646 0.950 . S
H1617 C1647 0.950 . S
C1618 H1600 0.951 . S
C1618 C1619 1.366 . S
C1618 C1620 1.388 . S
C1619 C1618 1.366 . S
C1619 C1623 1.385 . S
C1620 H1601 0.951 . S
C1620 C1618 1.388 . S
C1620 C1621 1.366 . S
C1621 C1620 1.366 . S
C1621 C1622 1.414 . S
C1621 C1624 1.499 . S
C1622 H1602 0.950 . S
C1622 C1621 1.414 . S
C1622 C1623 1.374 . S
C1623 H1603 0.950 . S
C1623 C1619 1.385 . S
C1623 C1622 1.374 . S
C1624 C1621 1.499 . S
C1624 C1625 1.373 . S
C1624 C1626 1.389 . S
C1625 H1604 0.950 . S
C1625 C1624 1.373 . S
C1625 C1641 1.377 . S
C1626 C1624 1.389 . S
C1626 C1627 1.524 . S
C1626 C1640 1.377 . S
C1627 C1626 1.524 . S
C1627 C1628 1.397 . S
C1627 C1632 1.363 . S
C1628 H1605 0.950 . S
C1628 C1627 1.397 . S
C1628 C1629 1.334 . S
C1629 H1606 0.950 . S
C1629 C1628 1.334 . S
C1629 C1630 1.287 . S
C1630 C1629 1.287 . S
C1630 C1631 1.524 . S
C1630 H1649 0.913 . S
C1631 H1607 0.950 . S
C1631 C1630 1.524 . S
C1631 C1632 1.415 . S
C1632 H1608 0.950 . S
C1632 C1627 1.363 . S
C1632 C1631 1.415 . S
C1633 H1609 0.951 . S
C1633 C1634 1.366 . S
C1633 C1635 1.388 . S
C1634 C1633 1.366 . S
C1634 C1638 1.385 . S
C1635 H1610 0.951 . S
C1635 C1633 1.388 . S
C1635 C1636 1.366 . S
C1636 C1635 1.366 . S
C1636 C1637 1.414 . S
C1636 C1639 1.499 . S
C1637 H1611 0.950 . S
C1637 C1636 1.414 . S
C1637 C1638 1.374 . S
C1638 H1612 0.950 . S
C1638 C1634 1.385 . S
C1638 C1637 1.374 . S
C1639 C1636 1.499 . S
C1639 C1640 1.373 . S
C1639 C1641 1.389 . S
C1640 H1613 0.950 . S
C1640 C1626 1.377 . S
C1640 C1639 1.373 . S
C1641 C1625 1.377 . S
C1641 C1639 1.389 . S
C1641 C1642 1.524 . S
C1642 C1641 1.524 . S
C1642 C1643 1.397 . S
C1642 C1647 1.363 . S
C1643 H1614 0.950 . S
C1643 C1642 1.397 . S
C1643 C1644 1.334 . S
C1644 H1615 0.950 . S
C1644 C1643 1.334 . S
C1644 C1645 1.287 . S
C1645 C1644 1.287 . S
C1645 C1646 1.524 . S
C1645 H1648 0.999 . S
C1646 H1616 0.950 . S
C1646 C1645 1.524 . S
C1646 C1647 1.415 . S
C1647 H1617 0.950 . S
C1647 C1642 1.363 . S
C1647 C1646 1.415 . S
H1648 C1645 0.999 . S
H1649 C1630 0.913 . S
C484 C447 1.621 . S
C469 C29 1.532 . S
C519 C115 1.488 . S
C534 C372 1.445 . S
C569 C153 1.555 . S
C584 C395 1.656 . S
C619 C239 1.370 . S
C634 C408 1.390 . S
C684 C411 1.535 . S
C669 C301 1.570 . S
C719 C339 1.717 . S
C734 C424 1.765 . S
C769 C91 1.465 . S
C784 C385 1.510 . S
C819 C177 1.527 . S
C834 C398 1.484 . S
C869 C215 1.400 . S
C884 C421 1.485 . S
C934 C434 1.940 . S
C919 C277 1.823 . S
C984 C437 1.496 . S
C969 C363 1.531 . S
C1034 C382 1.523 . S
C1019 C53 1.499 . S
C1069 C35 1.519 . S
C1084 C393 1.507 . S
C1119 C109 1.367 . S
C1134 C406 1.426 . S
C1184 C416 1.409 . S
C1169 C159 1.422 . S
C1219 C233 1.578 . S
C1234 C429 1.657 . S
C1284 C445 1.497 . S
C1269 C295 1.424 . S
C1334 C377 1.291 . S
C1319 C345 1.308 . S
C1384 C442 1.369 . S
C1369 C97 1.379 . S
C1419 C171 1.409 . S
C1434 C380 1.473 . S
C1484 C390 1.501 . S
C1469 C221 1.514 . S
C1519 C283 1.351 . S
C1534 C403 1.331 . S
C1569 C357 1.377 . S
C1584 C419 1.445 . S
C1619 C47 1.588 . S
C1634 C432 1.659 . S
