# Generated by pormake.
# Topology dag, (6,3)-cn, num edge types: 1
# Building blocks:
#     Node 0, Type 0, BuildingBlock: IZENUY_clean_sbu_0, # of connection points: 6
#     Node 1, Type 0, BuildingBlock: IZENUY_clean_sbu_0, # of connection points: 6
#     Node 2, Type 0, BuildingBlock: IZENUY_clean_sbu_0, # of connection points: 6
#     Node 3, Type 0, BuildingBlock: IZENUY_clean_sbu_0, # of connection points: 6
#     Node 4, Type 1, BuildingBlock: QEWDON_clean_linker_0, # of connection points: 3
#     Node 5, Type 1, BuildingBlock: QEWDON_clean_linker_0, # of connection points: 3
#     Node 6, Type 1, BuildingBlock: QEWDON_clean_linker_0, # of connection points: 3
#     Node 7, Type 1, BuildingBlock: QEWDON_clean_linker_0, # of connection points: 3
#     Node 8, Type 1, BuildingBlock: QEWDON_clean_linker_0, # of connection points: 3
#     Node 9, Type 1, BuildingBlock: QEWDON_clean_linker_0, # of connection points: 3
#     Node 10, Type 1, BuildingBlock: QEWDON_clean_linker_0, # of connection points: 3
#     Node 11, Type 1, BuildingBlock: QEWDON_clean_linker_0, # of connection points: 3
#     Edge 12, Type (0, 1), BuildingBlock: ZUJKAS_clean_linker_0, # of connection points: 2
#     Edge 13, Type (0, 1), BuildingBlock: ZUJKAS_clean_linker_0, # of connection points: 2
#     Edge 14, Type (0, 1), BuildingBlock: ZUJKAS_clean_linker_0, # of connection points: 2
#     Edge 15, Type (0, 1), BuildingBlock: ZUJKAS_clean_linker_0, # of connection points: 2
#     Edge 16, Type (0, 1), BuildingBlock: ZUJKAS_clean_linker_0, # of connection points: 2
#     Edge 17, Type (0, 1), BuildingBlock: ZUJKAS_clean_linker_0, # of connection points: 2
#     Edge 18, Type (0, 1), BuildingBlock: ZUJKAS_clean_linker_0, # of connection points: 2
#     Edge 19, Type (0, 1), BuildingBlock: ZUJKAS_clean_linker_0, # of connection points: 2
#     Edge 20, Type (0, 1), BuildingBlock: ZUJKAS_clean_linker_0, # of connection points: 2
#     Edge 21, Type (0, 1), BuildingBlock: ZUJKAS_clean_linker_0, # of connection points: 2
#     Edge 22, Type (0, 1), BuildingBlock: ZUJKAS_clean_linker_0, # of connection points: 2
#     Edge 23, Type (0, 1), BuildingBlock: ZUJKAS_clean_linker_0, # of connection points: 2
#     Edge 24, Type (0, 1), BuildingBlock: ZUJKAS_clean_linker_0, # of connection points: 2
#     Edge 25, Type (0, 1), BuildingBlock: ZUJKAS_clean_linker_0, # of connection points: 2
#     Edge 26, Type (0, 1), BuildingBlock: ZUJKAS_clean_linker_0, # of connection points: 2
#     Edge 27, Type (0, 1), BuildingBlock: ZUJKAS_clean_linker_0, # of connection points: 2
#     Edge 28, Type (0, 1), BuildingBlock: ZUJKAS_clean_linker_0, # of connection points: 2
#     Edge 29, Type (0, 1), BuildingBlock: ZUJKAS_clean_linker_0, # of connection points: 2
#     Edge 30, Type (0, 1), BuildingBlock: ZUJKAS_clean_linker_0, # of connection points: 2
#     Edge 31, Type (0, 1), BuildingBlock: ZUJKAS_clean_linker_0, # of connection points: 2
#     Edge 32, Type (0, 1), BuildingBlock: ZUJKAS_clean_linker_0, # of connection points: 2
#     Edge 33, Type (0, 1), BuildingBlock: ZUJKAS_clean_linker_0, # of connection points: 2
#     Edge 34, Type (0, 1), BuildingBlock: ZUJKAS_clean_linker_0, # of connection points: 2
#     Edge 35, Type (0, 1), BuildingBlock: ZUJKAS_clean_linker_0, # of connection points: 2
# Relax obj value: 0.042
# Max RMSD: 0.063
# Mean RMSD: 0.056
data_MOF--net-dag--node1-IZENUY_clean_sbu_0--node2-QEWDON_clean_linker_0--edge1-ZUJKAS_clean_linker_0
_symmetry_space_group_name_H-M    P1
_symmetry_Int_Tables_number       1
_symmetry_cell_setting            triclinic
loop_
_symmetry_equiv_pos_as_xyz
'x, y, z'
_cell_length_a     53.323995
_cell_length_b     53.628784
_cell_length_c     48.598359
_cell_angle_alpha  91.376394
_cell_angle_beta   89.837136
_cell_angle_gamma 89.876121
loop_
_atom_site_label
_atom_site_type_symbol
_atom_site_fract_x
_atom_site_fract_y
_atom_site_fract_z
_atom_type_partial_charge
Fe0 Fe 0.1748 0.85635 0.03112 0.0
Fe1 Fe 0.11954 0.87005 0.02347 0.0
O2 O 0.14308 0.84716 0.02724 0.0
Fe3 Fe 0.1347 0.81514 0.02724 0.0
O4 O 0.15962 0.80599 0.05123 0.0
O5 O 0.17694 0.84152 0.06408 0.0
O6 O 0.16758 0.88555 0.05043 0.0
C7 C 0.14804 0.89244 0.06352 0.0
C8 C 0.17748 0.8132 0.99596 0.0
O9 O 0.12676 0.88421 0.05666 0.0
C10 C 0.10333 0.83531 0.98596 0.0
O11 O 0.17499 0.87202 0.99841 0.0
O12 O 0.13957 0.89208 0.00544 0.0
O13 O 0.15439 0.80828 0.99753 0.0
O14 O 0.18757 0.8288 0.01255 0.0
C15 C 0.09635 0.83505 0.05798 0.0
O16 O 0.11098 0.8573 0.99007 0.0
O17 O 0.10819 0.81846 0.0031 0.0
C18 C 0.1598 0.88898 0.99213 0.0
O19 O 0.09495 0.85235 0.04079 0.0
O20 O 0.11445 0.81987 0.05714 0.0
C21 C 0.17238 0.81888 0.0683 0.0
Fe22 Fe 0.68087 0.63304 0.5025 0.0
Fe23 Fe 0.64064 0.67407 0.50955 0.0
O24 O 0.64901 0.64207 0.50658 0.0
Fe25 Fe 0.62549 0.61896 0.50766 0.0
O26 O 0.64526 0.59566 0.52402 0.0
O27 O 0.68032 0.61523 0.53391 0.0
O28 O 0.69343 0.65933 0.52317 0.0
C29 C 0.6832 0.67381 0.54092 0.0
C30 C 0.655 0.59929 0.46667 0.0
O31 O 0.66005 0.67855 0.53984 0.0
C32 C 0.60262 0.65681 0.47662 0.0
O33 O 0.68356 0.65009 0.47093 0.0
O34 O 0.6657 0.68471 0.48644 0.0
O35 O 0.63358 0.60736 0.47349 0.0
O36 O 0.67413 0.6051 0.48089 0.0
C37 C 0.6087 0.65083 0.54832 0.0
O38 O 0.62052 0.67199 0.47942 0.0
O39 O 0.60122 0.63789 0.49159 0.0
C40 C 0.67875 0.67297 0.46848 0.0
O41 O 0.61405 0.66908 0.53323 0.0
O42 O 0.61593 0.62907 0.54185 0.0
C43 C 0.66495 0.59791 0.53833 0.0
Fe44 Fe 0.86881 0.1841 0.00956 0.0
Fe45 Fe 0.88558 0.12953 0.01106 0.0
O46 O 0.86127 0.15191 0.00963 0.0
Fe47 Fe 0.82957 0.14204 0.00826 0.0
O48 O 0.81908 0.16771 0.98658 0.0
O49 O 0.85369 0.18787 0.97656 0.0
O50 O 0.89851 0.17979 0.99049 0.0
C51 C 0.90628 0.16192 0.97514 0.0
C52 C 0.82544 0.18241 0.04358 0.0
O53 O 0.89895 0.13993 0.979 0.0
C54 C 0.85191 0.10919 0.04633 0.0
O55 O 0.88451 0.18248 0.04268 0.0
O56 O 0.90683 0.14932 0.03156 0.0
O57 O 0.82193 0.15933 0.03971 0.0
O58 O 0.84051 0.1942 0.02847 0.0
C59 C 0.85101 0.10684 0.97403 0.0
O60 O 0.8737 0.11779 0.04318 0.0
O61 O 0.83449 0.11452 0.0297 0.0
C62 C 0.9026 0.16799 0.04734 0.0
O63 O 0.86898 0.10544 0.99088 0.0
O64 O 0.83488 0.12398 0.9766 0.0
C65 C 0.83126 0.18215 0.97118 0.0
Fe66 Fe 0.37208 0.37945 0.52792 0.0
Fe67 Fe 0.31709 0.36351 0.53195 0.0
O68 O 0.34933 0.35562 0.5294 0.0
Fe69 Fe 0.35894 0.32394 0.52839 0.0
O70 O 0.38882 0.32957 0.54657 0.0
O71 O 0.38684 0.36912 0.55918 0.0
O72 O 0.3544 0.40196 0.54937 0.0
C73 C 0.33694 0.39904 0.56668 0.0
C74 C 0.39053 0.3429 0.48993 0.0
O75 O 0.32186 0.38106 0.56401 0.0
C76 C 0.31497 0.32387 0.49552 0.0
O77 O 0.35873 0.39128 0.49663 0.0
O78 O 0.3197 0.3918 0.51128 0.0
O79 O 0.37368 0.32714 0.49491 0.0
O80 O 0.394 0.36146 0.50607 0.0
C81 C 0.32225 0.32284 0.56784 0.0
O82 O 0.3101 0.34661 0.50015 0.0
O83 O 0.33084 0.31255 0.5101 0.0
C84 C 0.33637 0.39865 0.49439 0.0
O85 O 0.30874 0.33666 0.55307 0.0
O86 O 0.34492 0.31872 0.56173 0.0
C87 C 0.39575 0.34756 0.56216 0.0
H88 H 0.14473 0.10486 0.27104 0.0
C89 C 0.13065 0.11627 0.26128 0.0
C90 C 0.12037 0.10842 0.23598 0.0
C91 C 0.1215 0.1378 0.27507 0.0
H92 H 0.093 0.11657 0.20492 0.0
C93 C 0.10117 0.1226 0.22438 0.0
C94 C 0.09177 0.14406 0.23791 0.0
C95 C 0.10226 0.15187 0.26315 0.0
C96 C 0.12876 0.14257 0.30399 0.0
H97 H 0.09439 0.16782 0.27429 0.0
C98 C 0.14656 0.16087 0.31142 0.0
C99 C 0.15427 0.16363 0.33908 0.0
C100 C 0.11832 0.12757 0.32429 0.0
H101 H 0.10463 0.11339 0.31886 0.0
C102 C 0.12553 0.13061 0.35169 0.0
H103 H 0.15488 0.17228 0.29572 0.0
C104 C 0.14345 0.1484 0.35906 0.0
H105 H 0.14879 0.15037 0.3805 0.0
H106 H 0.11735 0.11899 0.36724 0.0
H107 H 0.41442 0.65642 0.77317 0.0
C108 C 0.40287 0.64155 0.76459 0.0
C109 C 0.40947 0.63027 0.73924 0.0
C110 C 0.38237 0.63268 0.77978 0.0
H111 H 0.40033 0.60123 0.70959 0.0
C112 C 0.3952 0.61018 0.72907 0.0
C113 C 0.37476 0.60103 0.74397 0.0
C114 C 0.36802 0.61269 0.76912 0.0
C115 C 0.37874 0.64145 0.80859 0.0
H116 H 0.35286 0.60513 0.78125 0.0
C117 C 0.35645 0.65335 0.81742 0.0
C118 C 0.35347 0.66087 0.84525 0.0
C119 C 0.39794 0.63726 0.82765 0.0
H120 H 0.41518 0.62805 0.82126 0.0
C121 C 0.39495 0.64451 0.85518 0.0
H122 H 0.3416 0.65673 0.80278 0.0
C123 C 0.37287 0.65618 0.86398 0.0
H124 H 0.37114 0.66199 0.88541 0.0
H125 H 0.40982 0.64112 0.86975 0.0
H126 H 0.85027 0.81251 0.20654 0.0
C127 C 0.84787 0.83243 0.20418 0.0
C128 C 0.86886 0.84755 0.19963 0.0
C129 C 0.82368 0.84285 0.20426 0.0
H130 H 0.88173 0.8844 0.19055 0.0
C131 C 0.86552 0.87313 0.19542 0.0
C132 C 0.84142 0.88375 0.19484 0.0
C133 C 0.82057 0.86842 0.19952 0.0
C134 C 0.80136 0.82671 0.20609 0.0
H135 H 0.80181 0.87621 0.19894 0.0
C136 C 0.79501 0.81497 0.23074 0.0
C137 C 0.77288 0.8007 0.23243 0.0
C138 C 0.78585 0.82371 0.18299 0.0
H139 H 0.79048 0.83264 0.16387 0.0
C140 C 0.76433 0.8091 0.18433 0.0
H141 H 0.80676 0.81771 0.24871 0.0
C142 C 0.75782 0.7977 0.20882 0.0
H143 H 0.741 0.78643 0.20925 0.0
H144 H 0.75255 0.80672 0.16636 0.0
H145 H 0.70566 0.3619 0.6953 0.0
C146 C 0.68564 0.3584 0.69504 0.0
C147 C 0.66886 0.37772 0.68895 0.0
C148 C 0.67678 0.33425 0.69985 0.0
H149 H 0.63014 0.3869 0.68166 0.0
C150 C 0.64305 0.3725 0.68794 0.0
C151 C 0.63389 0.34838 0.6924 0.0
C152 C 0.65095 0.3293 0.69854 0.0
C153 C 0.69478 0.31351 0.70226 0.0
H154 H 0.64429 0.31044 0.70135 0.0
C155 C 0.70139 0.30416 0.72805 0.0
C156 C 0.71861 0.28425 0.72976 0.0
C157 C 0.70542 0.30303 0.67823 0.0
H158 H 0.70052 0.3101 0.65824 0.0
C159 C 0.72241 0.28333 0.67981 0.0
H160 H 0.69308 0.31226 0.74658 0.0
C161 C 0.72898 0.27397 0.70534 0.0
H162 H 0.74254 0.25893 0.70598 0.0
H163 H 0.7306 0.27535 0.66118 0.0
H164 H 0.64182 0.38558 0.25968 0.0
C165 C 0.62818 0.3757 0.27187 0.0
C166 C 0.62104 0.38531 0.29788 0.0
C167 C 0.61598 0.35462 0.26058 0.0
H168 H 0.59673 0.38081 0.33278 0.0
C169 C 0.60254 0.37301 0.31298 0.0
C170 C 0.59042 0.35175 0.30215 0.0
C171 C 0.59721 0.34273 0.2758 0.0
C172 C 0.6198 0.3473 0.23139 0.0
H173 H 0.5875 0.3268 0.26677 0.0
C174 C 0.64228 0.33614 0.22205 0.0
C175 C 0.64511 0.32895 0.19408 0.0
C176 C 0.60028 0.35136 0.21271 0.0
H177 H 0.58286 0.35992 0.21959 0.0
C178 C 0.60309 0.34453 0.18505 0.0
H179 H 0.65734 0.33294 0.23649 0.0
C180 C 0.62527 0.33337 0.17576 0.0
H181 H 0.62667 0.3277 0.15427 0.0
H182 H 0.58792 0.3477 0.17078 0.0
H183 H 0.21167 0.12472 0.84939 0.0
C184 C 0.19232 0.13088 0.84816 0.0
C185 C 0.17299 0.11473 0.85562 0.0
C186 C 0.18695 0.15549 0.84074 0.0
H187 H 0.13333 0.11089 0.86177 0.0
C188 C 0.14812 0.12322 0.85512 0.0
C189 C 0.14229 0.14773 0.84767 0.0
C190 C 0.16192 0.16378 0.84021 0.0
C191 C 0.20781 0.17322 0.8372 0.0
H192 H 0.1579 0.18294 0.83513 0.0
C193 C 0.21235 0.18453 0.81184 0.0
C194 C 0.23326 0.2003 0.80868 0.0
C195 C 0.2238 0.17827 0.85953 0.0
H196 H 0.22052 0.16978 0.87923 0.0
C197 C 0.24406 0.19437 0.85671 0.0
H198 H 0.20026 0.18032 0.79446 0.0
C199 C 0.24884 0.20526 0.83149 0.0
H200 H 0.26475 0.21767 0.82984 0.0
H201 H 0.2562 0.19829 0.87408 0.0
H202 H 0.3535 0.6958 0.33607 0.0
C203 C 0.34931 0.67672 0.3413 0.0
C204 C 0.36887 0.66036 0.34814 0.0
C205 C 0.32421 0.6689 0.34274 0.0
H206 H 0.37782 0.62339 0.3617 0.0
C207 C 0.36294 0.63595 0.35578 0.0
C208 C 0.33794 0.62799 0.35763 0.0
C209 C 0.31865 0.64455 0.35083 0.0
C210 C 0.30368 0.68712 0.33973 0.0
H211 H 0.29924 0.63894 0.35308 0.0
C212 C 0.29789 0.69719 0.31404 0.0
C213 C 0.2782 0.71461 0.31177 0.0
C214 C 0.28973 0.69449 0.36308 0.0
H215 H 0.29396 0.68689 0.383 0.0
C216 C 0.27042 0.71188 0.36096 0.0
H217 H 0.3086 0.69145 0.29597 0.0
C218 C 0.26467 0.72191 0.33553 0.0
H219 H 0.24927 0.73505 0.33434 0.0
H220 H 0.25978 0.71751 0.37908 0.0
H221 H 0.89728 0.83064 0.77473 0.0
C222 C 0.88679 0.84584 0.78439 0.0
C223 C 0.89193 0.8532 0.81171 0.0
C224 C 0.86897 0.8588 0.76901 0.0
H225 H 0.88385 0.88012 0.84403 0.0
C226 C 0.87885 0.87356 0.82351 0.0
C227 C 0.86121 0.887 0.80829 0.0
C228 C 0.85625 0.87932 0.78097 0.0
C229 C 0.86668 0.85337 0.73925 0.0
H230 H 0.84316 0.88976 0.76865 0.0
C231 C 0.84963 0.83551 0.72893 0.0
C232 C 0.84863 0.83 0.70043 0.0
C233 C 0.88245 0.86591 0.72108 0.0
H234 H 0.89569 0.87968 0.72877 0.0
C235 C 0.88139 0.86065 0.69289 0.0
H236 H 0.83757 0.8257 0.74301 0.0
C237 C 0.86467 0.84279 0.68259 0.0
H238 H 0.86408 0.83918 0.66057 0.0
H239 H 0.89359 0.8704 0.67896 0.0
H240 H 0.10965 0.9136 0.09338 0.0
H241 H 0.11184 0.94836 0.12656 0.0
H242 H 0.19211 0.95137 0.11622 0.0
H243 H 0.1901 0.91675 0.08249 0.0
H244 H 0.1376 0.95364 0.17618 0.0
H245 H 0.17021 0.02275 0.1003 0.0
H246 H 0.15797 0.99263 0.08994 0.0
H247 H 0.18924 0.99527 0.10332 0.0
C248 C 0.12782 0.92157 0.09813 0.0
C249 C 0.14968 0.91251 0.08499 0.0
C250 C 0.12903 0.94143 0.11718 0.0
C251 C 0.15207 0.95272 0.12354 0.0
C252 C 0.17406 0.94327 0.11119 0.0
H253 H 0.16786 0.0908 0.22511 0.0
H254 H 0.17938 0.05166 0.20061 0.0
C255 C 0.17288 0.92338 0.09202 0.0
C256 C 0.15268 0.97464 0.14275 0.0
H257 H 0.16289 0.03754 0.14553 0.0
C258 C 0.14339 0.97194 0.16957 0.0
C259 C 0.16038 0.99848 0.13414 0.0
C260 C 0.16985 0.00265 0.10532 0.0
C261 C 0.14084 0.99255 0.18771 0.0
C262 C 0.14746 0.01652 0.17868 0.0
C263 C 0.15788 0.01909 0.15236 0.0
C264 C 0.14107 0.03937 0.19497 0.0
C265 C 0.13056 0.98861 0.21622 0.0
C266 C 0.11581 0.04537 0.19974 0.0
C267 C 0.10925 0.06758 0.21345 0.0
C268 C 0.12783 0.08434 0.22264 0.0
C269 C 0.1532 0.07815 0.21832 0.0
C270 C 0.15977 0.0559 0.20432 0.0
H271 H 0.1334 0.96909 0.22273 0.0
H272 H 0.13954 1.00144 0.23152 0.0
H273 H 0.11011 0.99245 0.21631 0.0
H274 H 0.10108 0.03306 0.19234 0.0
H275 H 0.08956 0.07172 0.21675 0.0
H276 H 0.59224 0.61547 0.58361 0.0
H277 H 0.56081 0.62009 0.61986 0.0
H278 H 0.55401 0.69845 0.60334 0.0
H279 H 0.58528 0.69395 0.56646 0.0
H280 H 0.55916 0.64993 0.66746 0.0
H281 H 0.48179 0.67365 0.59584 0.0
H282 H 0.51146 0.66135 0.58376 0.0
H283 H 0.50897 0.69339 0.59507 0.0
C284 C 0.58418 0.63376 0.58765 0.0
C285 C 0.59111 0.65429 0.57184 0.0
C286 C 0.56623 0.63636 0.60848 0.0
C287 C 0.55477 0.65951 0.61402 0.0
C288 C 0.56226 0.6803 0.59904 0.0
H289 H 0.42393 0.6774 0.72522 0.0
H290 H 0.46071 0.68893 0.69752 0.0
C291 C 0.58024 0.67771 0.57807 0.0
C292 C 0.53453 0.66132 0.63502 0.0
H293 H 0.47122 0.66916 0.64236 0.0
C294 C 0.53999 0.65446 0.66205 0.0
C295 C 0.50952 0.66735 0.62797 0.0
C296 C 0.5024 0.67419 0.59907 0.0
C297 C 0.521 0.65254 0.68194 0.0
C298 C 0.49587 0.65736 0.67452 0.0
C299 C 0.49054 0.66552 0.64795 0.0
C300 C 0.47466 0.65114 0.69286 0.0
C301 C 0.52786 0.64476 0.71057 0.0
C302 C 0.47038 0.62616 0.69928 0.0
C303 C 0.44948 0.61958 0.71478 0.0
C304 C 0.43237 0.63786 0.7242 0.0
C305 C 0.43691 0.66299 0.7183 0.0
C306 C 0.45781 0.66956 0.70247 0.0
H307 H 0.54782 0.64891 0.71528 0.0
H308 H 0.51581 0.65429 0.72627 0.0
H309 H 0.52509 0.62434 0.7122 0.0
H310 H 0.48294 0.61162 0.69172 0.0
H311 H 0.44657 0.6001 0.71924 0.0
H312 H 0.88208 0.0975 0.08958 0.0
H313 H 0.87768 0.06249 0.1205 0.0
H314 H 0.80874 0.04115 0.08025 0.0
H315 H 0.81262 0.07654 0.04971 0.0
H316 H 0.80616 0.03576 0.13634 0.0
H317 H 0.89299 0.99185 0.09436 0.0
H318 H 0.89774 0.02268 0.10851 0.0
H319 H 0.87827 0.01821 0.07862 0.0
C320 C 0.86586 0.0855 0.08745 0.0
C321 C 0.84787 0.08964 0.06692 0.0
C322 C 0.86344 0.06541 0.10506 0.0
C323 C 0.84322 0.04883 0.10222 0.0
C324 C 0.8246 0.05361 0.08267 0.0
H325 H 0.80636 0.90259 0.15977 0.0
H326 H 0.805 0.94434 0.14079 0.0
C327 C 0.82686 0.07386 0.06521 0.0
C328 C 0.84206 0.02592 0.11874 0.0
H329 H 0.87395 0.97226 0.13208 0.0
C330 C 0.82097 0.02187 0.13544 0.0
C331 C 0.86134 0.00772 0.11738 0.0
C332 C 0.88375 0.01014 0.09856 0.0
C333 C 0.8188 1.00022 0.15104 0.0
C334 C 0.83815 0.98218 0.14974 0.0
C335 C 0.85927 0.98629 0.13321 0.0
C336 C 0.83658 0.95829 0.16433 0.0
C337 C 0.79597 0.99685 0.16893 0.0
C338 C 0.85461 0.95237 0.18411 0.0
C339 C 0.85534 0.92856 0.19517 0.0
C340 C 0.83824 0.91008 0.1864 0.0
C341 C 0.81956 0.91643 0.16736 0.0
C342 C 0.81877 0.9403 0.15642 0.0
H343 H 0.78573 0.01469 0.17259 0.0
H344 H 0.78301 0.98347 0.15859 0.0
H345 H 0.80128 0.98909 0.18908 0.0
H346 H 0.86856 0.96599 0.19041 0.0
H347 H 0.86976 0.92441 0.21004 0.0
H348 H 0.41147 0.37953 0.60321 0.0
H349 H 0.44928 0.37626 0.6312 0.0
H350 H 0.46684 0.30549 0.59169 0.0
H351 H 0.42867 0.30827 0.56405 0.0
H352 H 0.47731 0.30601 0.64756 0.0
H353 H 0.51784 0.38902 0.59813 0.0
H354 H 0.48813 0.39504 0.61439 0.0
H355 H 0.49002 0.3737 0.58532 0.0
C356 C 0.42325 0.36315 0.60061 0.0
C357 C 0.41722 0.34433 0.5811 0.0
C358 C 0.44492 0.36136 0.61656 0.0
C359 C 0.46121 0.34093 0.61305 0.0
C360 C 0.45462 0.32151 0.5946 0.0
H361 H 0.61349 0.30917 0.66309 0.0
H362 H 0.5701 0.30508 0.64732 0.0
C363 C 0.4328 0.32316 0.57879 0.0
C364 C 0.48567 0.34044 0.62758 0.0
H365 H 0.54041 0.37272 0.63549 0.0
C366 C 0.49114 0.32056 0.64492 0.0
C367 C 0.5038 0.35934 0.62391 0.0
C368 C 0.49982 0.38035 0.60423 0.0
C369 C 0.51408 0.31937 0.6591 0.0
C370 C 0.53196 0.33846 0.65567 0.0
C371 C 0.52651 0.35825 0.6383 0.0
C372 C 0.55687 0.33821 0.66917 0.0
C373 C 0.51892 0.29794 0.6779 0.0
C374 C 0.56371 0.3579 0.68711 0.0
C375 C 0.58843 0.36023 0.69623 0.0
C376 C 0.60689 0.34305 0.68734 0.0
C377 C 0.59968 0.32253 0.67061 0.0
C378 C 0.57487 0.32018 0.66154 0.0
H379 H 0.50138 0.28787 0.68301 0.0
H380 H 0.53194 0.28451 0.66756 0.0
H381 H 0.52789 0.30462 0.6973 0.0
H382 H 0.5501 0.37203 0.6932 0.0
H383 H 0.59334 0.37609 0.70933 0.0
H384 H 0.61747 0.58049 0.43407 0.0
H385 H 0.62016 0.54649 0.39994 0.0
H386 H 0.69981 0.54082 0.41359 0.0
H387 H 0.69728 0.57467 0.44825 0.0
H388 H 0.648 0.5406 0.35122 0.0
H389 H 0.67492 0.47015 0.42825 0.0
H390 H 0.66313 0.50062 0.43821 0.0
H391 H 0.69482 0.49705 0.42612 0.0
C392 C 0.63562 0.57214 0.42979 0.0
C393 C 0.65711 0.58014 0.4442 0.0
C394 C 0.63713 0.55272 0.41019 0.0
C395 C 0.6601 0.54084 0.40454 0.0
C396 C 0.6818 0.5494 0.41803 0.0
H397 H 0.66983 0.39962 0.3069 0.0
H398 H 0.68422 0.43888 0.32912 0.0
C399 C 0.68032 0.56884 0.43774 0.0
C400 C 0.66082 0.51898 0.38523 0.0
H401 H 0.66798 0.45563 0.38302 0.0
C402 C 0.65271 0.52206 0.35806 0.0
C403 C 0.66713 0.49481 0.39414 0.0
C404 C 0.67533 0.49027 0.4233 0.0
C405 C 0.64976 0.50153 0.33991 0.0
C406 C 0.65477 0.47727 0.34928 0.0
C407 C 0.66424 0.47429 0.37591 0.0
C408 C 0.64698 0.45469 0.33333 0.0
C409 C 0.64064 0.50588 0.31107 0.0
C410 C 0.6214 0.45069 0.32837 0.0
C411 C 0.61325 0.42843 0.31605 0.0
C412 C 0.6305 0.40967 0.3084 0.0
C413 C 0.65622 0.4139 0.31252 0.0
C414 C 0.66441 0.43621 0.32521 0.0
H415 H 0.64528 0.525 0.30437 0.0
H416 H 0.64894 0.49213 0.2962 0.0
H417 H 0.61994 0.50383 0.31052 0.0
H418 H 0.6076 0.46447 0.33491 0.0
H419 H 0.59332 0.42564 0.31298 0.0
H420 H 0.93471 0.20402 0.9698 0.0
H421 H 0.97205 0.20911 0.94111 0.0
H422 H 0.9626 0.13456 0.90764 0.0
H423 H 0.92529 0.12922 0.93623 0.0
H424 H 0.01441 0.17641 0.94593 0.0
H425 H 0.978 0.17725 0.83911 0.0
H426 H 0.95863 0.18454 0.86883 0.0
H427 H 0.96598 0.15266 0.85988 0.0
C428 C 0.94028 0.18884 0.95598 0.0
C429 C 0.92708 0.16613 0.95547 0.0
C430 C 0.96162 0.19181 0.9396 0.0
C431 C 0.96992 0.17232 0.92207 0.0
C432 C 0.95626 0.15 0.92069 0.0
H433 H 0.09891 0.12339 0.83362 0.0
H434 H 0.05659 0.13366 0.84948 0.0
C435 C 0.93504 0.14692 0.93721 0.0
C436 C 0.99435 0.17415 0.90765 0.0
H437 H 0.02201 0.17045 0.84422 0.0
C438 C 0.01613 0.17553 0.92367 0.0
C439 C 0.99642 0.17279 0.87866 0.0
C440 C 0.97352 0.17193 0.86053 0.0
C441 C 0.04004 0.17437 0.91159 0.0
C442 C 0.04222 0.1726 0.88253 0.0
C443 C 0.02035 0.17199 0.86644 0.0
C444 C 0.06694 0.1689 0.86882 0.0
C445 C 0.06265 0.17359 0.93021 0.0
C446 C 0.08663 0.18592 0.87309 0.0
C447 C 0.11102 0.17986 0.86449 0.0
C448 C 0.11603 0.15683 0.85109 0.0
C449 C 0.09579 0.14101 0.84447 0.0
C450 C 0.07152 0.14694 0.85335 0.0
H451 H 0.05744 0.1692 0.95171 0.0
H452 H 0.07643 0.15944 0.92267 0.0
H453 H 0.07193 0.19209 0.93058 0.0
H454 H 0.08339 0.20332 0.88432 0.0
H455 H 0.12612 0.19251 0.86992 0.0
H456 H 0.29145 0.42237 0.48621 0.0
H457 H 0.28357 0.45833 0.45735 0.0
H458 H 0.36055 0.45641 0.4299 0.0
H459 H 0.36846 0.42031 0.45808 0.0
H460 H 0.30548 0.50291 0.46379 0.0
H461 H 0.32484 0.46737 0.35829 0.0
H462 H 0.3199 0.44687 0.38675 0.0
H463 H 0.35028 0.46046 0.38092 0.0
C464 C 0.30658 0.42929 0.47361 0.0
C465 C 0.33063 0.4185 0.4746 0.0
C466 C 0.30203 0.44985 0.45712 0.0
C467 C 0.32136 0.45989 0.44117 0.0
C468 C 0.34515 0.44865 0.44146 0.0
H469 H 0.35885 0.60707 0.40266 0.0
H470 H 0.35056 0.56616 0.42139 0.0
C471 C 0.34971 0.42809 0.45784 0.0
C472 C 0.31765 0.48366 0.42664 0.0
H473 H 0.3291 0.51209 0.36574 0.0
C474 C 0.31016 0.5048 0.4422 0.0
C475 C 0.32336 0.48614 0.39837 0.0
C476 C 0.32977 0.46391 0.38007 0.0
C477 C 0.30982 0.52855 0.43073 0.0
C478 C 0.31761 0.5313 0.40314 0.0
C479 C 0.32348 0.51 0.38703 0.0
C480 C 0.32202 0.55623 0.39155 0.0
C481 C 0.30169 0.55058 0.4485 0.0
C482 C 0.30911 0.56403 0.36811 0.0
C483 C 0.31402 0.58746 0.35711 0.0
C484 C 0.33218 0.60323 0.36918 0.0
C485 C 0.34502 0.59524 0.39262 0.0
C486 C 0.34008 0.57198 0.40358 0.0
H487 H 0.28895 0.54477 0.46529 0.0
H488 H 0.31846 0.5593 0.45815 0.0
H489 H 0.29202 0.56485 0.43616 0.0
H490 H 0.29524 0.55203 0.3584 0.0
H491 H 0.30393 0.59308 0.33896 0.0
H492 H 0.07093 0.79584 0.97953 0.0
H493 H 0.03609 0.79221 0.94693 0.0
H494 H 0.05886 0.8608 0.90975 0.0
H495 H 0.09339 0.86477 0.94237 0.0
H496 H 0.00976 0.8612 0.92678 0.0
H497 H 0.03015 0.77543 0.86428 0.0
H498 H 0.03144 0.77172 0.90091 0.0
H499 H 0.05381 0.79147 0.88445 0.0
C500 C 0.06885 0.80985 0.96402 0.0
C501 C 0.08482 0.83071 0.96371 0.0
C502 C 0.04898 0.80769 0.94532 0.0
C503 C 0.04494 0.82618 0.92582 0.0
C504 C 0.06162 0.84633 0.92463 0.0
H505 H 0.93951 0.84338 0.79325 0.0
H506 H 0.97614 0.83311 0.82113 0.0
C507 C 0.08135 0.84857 0.94333 0.0
C508 C 0.02196 0.82619 0.90866 0.0
H509 H 0.99001 0.79397 0.8584 0.0
C510 C 0.00546 0.84649 0.91183 0.0
C511 C 0.01645 0.80704 0.8891 0.0
C512 C 0.03396 0.78525 0.88422 0.0
C513 C 0.98367 0.84825 0.89596 0.0
C514 C 0.97787 0.82891 0.87673 0.0
C515 C 0.99437 0.8086 0.87341 0.0
C516 C 0.95526 0.83034 0.85915 0.0
C517 C 0.96734 0.87116 0.89947 0.0
C518 C 0.93126 0.83105 0.87107 0.0
C519 C 0.91034 0.83696 0.85524 0.0
C520 C 0.91302 0.84203 0.82713 0.0
C521 C 0.93681 0.8394 0.8148 0.0
C522 C 0.95777 0.83361 0.83071 0.0
H523 H 0.97729 0.88664 0.91038 0.0
H524 H 0.96094 0.87785 0.8792 0.0
H525 H 0.95051 0.86645 0.91176 0.0
H526 H 0.92889 0.82818 0.89292 0.0
H527 H 0.89219 0.83856 0.8652 0.0
H528 H 0.81487 0.1023 0.93374 0.0
H529 H 0.80998 0.06804 0.89976 0.0
H530 H 0.87469 0.03128 0.93323 0.0
H531 H 0.88001 0.06532 0.96663 0.0
H532 H 0.87577 0.0326 0.87695 0.0
H533 H 0.78376 0.99769 0.91397 0.0
H534 H 0.78494 0.03004 0.90516 0.0
H535 H 0.80258 0.01932 0.934 0.0
C536 C 0.82803 0.0869 0.93384 0.0
C537 C 0.84778 0.08656 0.95302 0.0
C538 C 0.82512 0.06727 0.91452 0.0
C539 C 0.84179 0.04694 0.91419 0.0
C540 C 0.86158 0.04674 0.93312 0.0
H541 H 0.84433 0.89603 0.86089 0.0
H542 H 0.83585 0.93659 0.8829 0.0
C543 C 0.86456 0.06627 0.95226 0.0
C544 C 0.83926 0.02579 0.89409 0.0
H545 H 0.80278 0.97543 0.87714 0.0
C546 C 0.85967 0.02025 0.8767 0.0
C547 C 0.8183 0.00965 0.894 0.0
C548 C 0.79618 0.01425 0.91288 0.0
C549 C 0.86023 0.99851 0.86007 0.0
C550 C 0.83943 0.98213 0.86022 0.0
C551 C 0.81858 0.98812 0.87687 0.0
C552 C 0.8403 0.95746 0.84565 0.0
C553 C 0.88374 0.99261 0.84375 0.0
C554 C 0.84445 0.95554 0.81712 0.0
C555 C 0.84974 0.93236 0.80453 0.0
C556 C 0.85065 0.91065 0.82022 0.0
C557 C 0.84431 0.91244 0.84833 0.0
C558 C 0.83926 0.93561 0.86091 0.0
H559 H 0.89984 0.00434 0.85053 0.0
H560 H 0.88909 0.97271 0.84569 0.0
H561 H 0.88032 0.99616 0.82168 0.0
H562 H 0.84477 0.9721 0.80482 0.0
H563 H 0.85457 0.93173 0.78287 0.0
H564 H 0.42655 0.37462 0.4721 0.0
H565 H 0.45645 0.36798 0.43472 0.0
H566 H 0.4247 0.2955 0.41706 0.0
H567 H 0.39451 0.30189 0.45489 0.0
H568 H 0.47812 0.29612 0.41997 0.0
H569 H 0.44247 0.36913 0.35166 0.0
H570 H 0.44732 0.38067 0.3862 0.0
H571 H 0.4241 0.35698 0.37958 0.0
C572 C 0.42575 0.35726 0.46028 0.0
C573 C 0.40808 0.33878 0.46653 0.0
C574 C 0.4428 0.35358 0.43876 0.0
C575 C 0.44254 0.33143 0.42286 0.0
C576 C 0.42505 0.31282 0.42899 0.0
H577 H 0.54473 0.33708 0.28189 0.0
H578 H 0.50756 0.32553 0.30831 0.0
C579 C 0.40782 0.31652 0.45057 0.0
C580 C 0.46132 0.32774 0.4006 0.0
H581 H 0.4854 0.35643 0.34456 0.0
C582 C 0.47948 0.30897 0.40313 0.0
C583 C 0.46281 0.3442 0.37836 0.0
C584 C 0.44297 0.36371 0.37358 0.0
C585 C 0.50009 0.30735 0.38507 0.0
C586 C 0.50272 0.32522 0.3643 0.0
C587 C 0.48359 0.34286 0.36064 0.0
C588 C 0.52607 0.32768 0.34787 0.0
C589 C 0.51907 0.28682 0.38879 0.0
C590 C 0.54897 0.33221 0.36124 0.0
C591 C 0.57027 0.33859 0.34619 0.0
C592 C 0.56905 0.34087 0.31746 0.0
C593 C 0.54639 0.3352 0.30395 0.0
C594 C 0.52508 0.32875 0.31904 0.0
H595 H 0.51025 0.27017 0.39792 0.0
H596 H 0.52801 0.28117 0.36894 0.0
H597 H 0.53389 0.2935 0.40313 0.0
H598 H 0.55013 0.33208 0.38348 0.0
H599 H 0.58749 0.34265 0.35717 0.0
H600 H 0.12856 0.92055 0.96587 0.0
H601 H 0.13985 0.9543 0.93554 0.0
H602 H 0.21786 0.93377 0.94127 0.0
H603 H 0.20667 0.89967 0.97184 0.0
H604 H 0.20723 0.9847 0.95406 0.0
H605 H 0.16414 0.95555 0.85503 0.0
H606 H 0.14305 0.95246 0.8836 0.0
H607 H 0.17113 0.93379 0.88182 0.0
C608 C 0.14811 0.92294 0.9604 0.0
C609 C 0.16674 0.90752 0.97138 0.0
C610 C 0.1545 0.94212 0.94285 0.0
C611 C 0.17964 0.94633 0.93587 0.0
C612 C 0.19831 0.93063 0.94622 0.0
H613 H 0.20267 0.07802 0.83236 0.0
H614 H 0.21012 0.0359 0.84983 0.0
C615 C 0.19189 0.91118 0.96363 0.0
C616 C 0.18621 0.96875 0.9202 0.0
H617 H 0.17016 0.99997 0.86243 0.0
C618 C 0.19969 0.98783 0.93372 0.0
C619 C 0.17659 0.97274 0.89357 0.0
C620 C 0.16313 0.95244 0.87753 0.0
C621 C 0.20205 0.01146 0.9222 0.0
C622 C 0.19052 0.01607 0.89667 0.0
C623 C 0.17879 0.99644 0.88215 0.0
C624 C 0.18759 0.0417 0.88654 0.0
C625 C 0.21592 0.03166 0.93798 0.0
C626 C 0.1724 0.05869 0.90133 0.0
C627 C 0.16797 0.08244 0.89135 0.0
C628 C 0.17868 0.08971 0.86635 0.0
C629 C 0.19428 0.07286 0.85172 0.0
C630 C 0.1985 0.04887 0.86162 0.0
H631 H 0.22951 0.02367 0.95267 0.0
H632 H 0.22612 0.04404 0.92379 0.0
H633 H 0.20225 0.04319 0.94996 0.0
H634 H 0.16355 0.05338 0.92041 0.0
H635 H 0.15609 0.09515 0.90318 0.0
H636 H 0.56361 0.62627 0.4634 0.0
H637 H 0.52698 0.63554 0.43569 0.0
H638 H 0.55629 0.70867 0.41975 0.0
H639 H 0.59347 0.69948 0.44757 0.0
H640 H 0.49382 0.67636 0.44827 0.0
H641 H 0.53392 0.67974 0.34245 0.0
H642 H 0.54976 0.66411 0.36999 0.0
H643 H 0.54912 0.69752 0.36953 0.0
C644 C 0.56248 0.64431 0.4539 0.0
C645 C 0.58144 0.66222 0.45793 0.0
C646 C 0.5415 0.64954 0.438 0.0
C647 C 0.53895 0.67274 0.42563 0.0
C648 C 0.55805 0.69054 0.42891 0.0
H649 H 0.38538 0.70413 0.37197 0.0
H650 H 0.42813 0.71353 0.38708 0.0
C651 C 0.57922 0.68529 0.44488 0.0
C652 C 0.51536 0.67837 0.41093 0.0
H653 H 0.49009 0.68386 0.34683 0.0
C654 C 0.49298 0.67842 0.42614 0.0
C655 C 0.51443 0.68089 0.38207 0.0
C656 C 0.53801 0.68047 0.36486 0.0
C657 C 0.46957 0.67981 0.41321 0.0
C658 C 0.46852 0.68176 0.38421 0.0
C659 C 0.49097 0.68264 0.36905 0.0
C660 C 0.44429 0.67974 0.36937 0.0
C661 C 0.44618 0.6776 0.43059 0.0
C662 C 0.43959 0.65861 0.35263 0.0
C663 C 0.41528 0.65339 0.34356 0.0
C664 C 0.39519 0.66917 0.35119 0.0
C665 C 0.40039 0.69158 0.3657 0.0
C666 C 0.42479 0.69687 0.37461 0.0
H667 H 0.45042 0.67143 0.45174 0.0
H668 H 0.43677 0.69604 0.4323 0.0
H669 H 0.43283 0.66414 0.42099 0.0
H670 H 0.45439 0.64523 0.34813 0.0
H671 H 0.41194 0.63622 0.33198 0.0
H672 H 0.30349 0.39905 0.61011 0.0
H673 H 0.29791 0.43175 0.64599 0.0
H674 H 0.35622 0.47516 0.60864 0.0
H675 H 0.3619 0.44303 0.57303 0.0
H676 H 0.33471 0.45089 0.6835 0.0
H677 H 0.29791 0.52516 0.61778 0.0
H678 H 0.29759 0.49259 0.60733 0.0
H679 H 0.32558 0.51089 0.60332 0.0
C680 C 0.31499 0.41565 0.60948 0.0
C681 C 0.33306 0.41844 0.58858 0.0
C682 C 0.31177 0.43428 0.62997 0.0
C683 C 0.3263 0.45608 0.62962 0.0
C684 C 0.34439 0.45876 0.60893 0.0
H685 H 0.39726 0.55706 0.73109 0.0
H686 H 0.37882 0.52044 0.70854 0.0
C687 C 0.34773 0.44022 0.58866 0.0
C688 C 0.32392 0.47576 0.65143 0.0
H689 H 0.31936 0.53899 0.65935 0.0
C690 C 0.33071 0.47009 0.67844 0.0
C691 C 0.31818 0.50072 0.64501 0.0
C692 C 0.30914 0.50768 0.61683 0.0
C693 C 0.33419 0.48906 0.6985 0.0
C694 C 0.33113 0.51427 0.69118 0.0
C695 C 0.32202 0.5197 0.66493 0.0
C696 C 0.34097 0.53515 0.70857 0.0
C697 C 0.34215 0.48198 0.72703 0.0
C698 C 0.32586 0.55576 0.7161 0.0
C699 C 0.33649 0.57689 0.72902 0.0
C700 C 0.3624 0.57781 0.73404 0.0
C701 C 0.37723 0.55684 0.72734 0.0
C702 C 0.36665 0.53579 0.71472 0.0
H703 H 0.33468 0.46337 0.73231 0.0
H704 H 0.36292 0.4809 0.72781 0.0
H705 H 0.33568 0.49592 0.74277 0.0
H706 H 0.30605 0.55576 0.71125 0.0
H707 H 0.32473 0.5929 0.73389 0.0
H708 H 0.05056 0.85747 0.05695 0.0
H709 H 0.01611 0.85346 0.08937 0.0
H710 H 0.05949 0.80152 0.13619 0.0
H711 H 0.09426 0.80499 0.10315 0.0
H712 H 0.01014 0.78677 0.13033 0.0
H713 H 0.01385 0.88522 0.16561 0.0
H714 H 0.0114 0.883 0.12887 0.0
H715 H 0.03875 0.87078 0.14563 0.0
C716 C 0.05293 0.84519 0.07412 0.0
C717 C 0.07532 0.83172 0.07757 0.0
C718 C 0.03319 0.84302 0.09276 0.0
C719 C 0.03544 0.82769 0.1156 0.0
C720 C 0.05747 0.81366 0.11884 0.0
H721 H 0.91137 0.85742 0.2288 0.0
H722 H 0.95444 0.84722 0.21478 0.0
C723 C 0.07729 0.81566 0.09996 0.0
C724 C 0.01446 0.82651 0.13569 0.0
H725 H 0.97437 0.86427 0.17219 0.0
C726 C 0.00253 0.80361 0.13996 0.0
C727 C 0.00494 0.84833 0.14893 0.0
C728 C 0.0181 0.87315 0.14728 0.0
C729 C 0.9803 0.80228 0.15553 0.0
C730 C 0.96939 0.82455 0.1664 0.0
C731 C 0.98237 0.84714 0.16366 0.0
C732 C 0.94368 0.82557 0.1785 0.0
C733 C 0.96872 0.77705 0.15988 0.0
C734 C 0.92317 0.81599 0.16352 0.0
C735 C 0.89859 0.82125 0.17199 0.0
C736 C 0.89409 0.83669 0.1952 0.0
C737 C 0.91446 0.84526 0.21098 0.0
C738 C 0.93903 0.83954 0.20286 0.0
H739 H 0.9834 0.76235 0.16072 0.0
H740 H 0.95751 0.77673 0.17915 0.0
H741 H 0.95631 0.77227 0.14224 0.0
H742 H 0.92604 0.80588 0.14422 0.0
H743 H 0.88316 0.8149 0.15919 0.0
H744 H 0.6332 0.56278 0.55745 0.0
H745 H 0.6428 0.52811 0.58704 0.0
H746 H 0.71942 0.55299 0.59384 0.0
H747 H 0.70988 0.58826 0.56414 0.0
H748 H 0.67914 0.49137 0.57368 0.0
H749 H 0.69779 0.53894 0.67466 0.0
H750 H 0.68087 0.55395 0.64747 0.0
H751 H 0.71421 0.55004 0.64494 0.0
C752 C 0.6521 0.56109 0.56533 0.0
C753 C 0.67084 0.5782 0.5582 0.0
C754 C 0.65752 0.54125 0.58231 0.0
C755 C 0.68178 0.53799 0.59266 0.0
C756 C 0.70049 0.55535 0.5863 0.0
H757 H 0.70893 0.38826 0.65562 0.0
H758 H 0.71852 0.42815 0.63467 0.0
C759 C 0.69503 0.57541 0.56927 0.0
C760 C 0.68731 0.51539 0.60856 0.0
H761 H 0.69871 0.49501 0.6734 0.0
C762 C 0.6838 0.4921 0.5954 0.0
C763 C 0.69322 0.51652 0.63689 0.0
C764 C 0.69664 0.54115 0.65203 0.0
C765 C 0.68493 0.46991 0.61 0.0
C766 C 0.69036 0.47098 0.63852 0.0
C767 C 0.6948 0.49424 0.65151 0.0
C768 C 0.68858 0.4484 0.65548 0.0
C769 C 0.67877 0.44568 0.59504 0.0
C770 C 0.66972 0.44698 0.67557 0.0
C771 C 0.66449 0.42434 0.68797 0.0
C772 C 0.67794 0.40262 0.68042 0.0
C773 C 0.6982 0.40458 0.66197 0.0
C774 C 0.70355 0.42733 0.64973 0.0
H775 H 0.67005 0.44877 0.57467 0.0
H776 H 0.69627 0.43481 0.59158 0.0
H777 H 0.66577 0.43428 0.60741 0.0
H778 H 0.65806 0.46306 0.6805 0.0
H779 H 0.64912 0.42358 0.70254 0.0
H780 H 0.90049 0.20584 0.08679 0.0
H781 H 0.93098 0.21456 0.12366 0.0
H782 H 0.97551 0.15172 0.09555 0.0
H783 H 0.94562 0.14298 0.05897 0.0
H784 H 0.94644 0.18278 0.16612 0.0
H785 H 0.027 0.20824 0.101 0.0
H786 H 0.99512 0.20809 0.08846 0.0
H787 H 0.01297 0.17957 0.08923 0.0
C788 C 0.91688 0.19401 0.08839 0.0
C789 C 0.92066 0.1738 0.06977 0.0
C790 C 0.93426 0.19902 0.10944 0.0
C791 C 0.95578 0.18411 0.11195 0.0
C792 C 0.95939 0.16387 0.09357 0.0
H793 H 0.04698 0.12273 0.22711 0.0
H794 H 0.01226 0.1399 0.20106 0.0
C795 C 0.94211 0.1588 0.07273 0.0
C796 C 0.97409 0.18841 0.13448 0.0
H797 H 0.03716 0.19142 0.14559 0.0
C798 C 0.96622 0.18533 0.16176 0.0
C799 C 0.99982 0.19231 0.12893 0.0
C800 C 0.0092 0.19752 0.10032 0.0
C801 C 0.9837 0.18368 0.18323 0.0
C802 C 0.00964 0.18477 0.17712 0.0
C803 C 0.0173 0.19026 0.15029 0.0
C804 C 0.02897 0.17638 0.19682 0.0
C805 C 0.97424 0.17978 0.21207 0.0
C806 C 0.05004 0.19115 0.20321 0.0
C807 C 0.07005 0.18125 0.21818 0.0
C808 C 0.06937 0.15635 0.22645 0.0
C809 C 0.04788 0.14201 0.22097 0.0
C810 C 0.02793 0.15189 0.2063 0.0
H811 H 0.95562 0.18874 0.21528 0.0
H812 H 0.97195 0.1595 0.21535 0.0
H813 H 0.98749 0.1874 0.22771 0.0
H814 H 0.05136 0.20999 0.19581 0.0
H815 H 0.08655 0.19255 0.22201 0.0
H816 H 0.19521 0.84173 0.11239 0.0
H817 H 0.2144 0.8221 0.15208 0.0
H818 H 0.19486 0.74951 0.11886 0.0
H819 H 0.1754 0.76895 0.07902 0.0
H820 H 0.18735 0.78517 0.18893 0.0
H821 H 0.27384 0.74914 0.13693 0.0
H822 H 0.2564 0.77533 0.12407 0.0
H823 H 0.24415 0.74437 0.12 0.0
C824 C 0.19502 0.82158 0.11342 0.0
C825 C 0.18381 0.80691 0.09245 0.0
C826 C 0.20598 0.81042 0.13613 0.0
C827 C 0.20623 0.7844 0.13819 0.0
C828 C 0.19505 0.76964 0.11743 0.0
H829 H 0.27054 0.68892 0.26317 0.0
H830 H 0.25342 0.70526 0.22035 0.0
C831 C 0.18386 0.78079 0.09477 0.0
C832 C 0.21759 0.77284 0.16255 0.0
H833 H 0.26898 0.74062 0.18401 0.0
C834 C 0.20518 0.77539 0.18791 0.0
C835 C 0.2407 0.75994 0.16097 0.0
C836 C 0.25475 0.75701 0.13412 0.0
C837 C 0.21528 0.76535 0.21188 0.0
C838 C 0.23883 0.75308 0.21056 0.0
C839 C 0.25104 0.75017 0.18503 0.0
C840 C 0.25111 0.74346 0.23558 0.0
C841 C 0.20037 0.76763 0.23827 0.0
C842 C 0.25638 0.75964 0.25794 0.0
C843 C 0.266 0.75035 0.28236 0.0
C844 C 0.27093 0.72474 0.28477 0.0
C845 C 0.26699 0.70875 0.26185 0.0
C846 C 0.25713 0.71805 0.23744 0.0
H847 H 0.18009 0.77054 0.2342 0.0
H848 H 0.20253 0.75074 0.25084 0.0
H849 H 0.20717 0.78398 0.25051 0.0
H850 H 0.25261 0.77943 0.25669 0.0
H851 H 0.26924 0.76317 0.29955 0.0
H852 H 0.73437 0.67308 0.54502 0.0
H853 H 0.76069 0.6979 0.57626 0.0
H854 H 0.69474 0.73073 0.61379 0.0
H855 H 0.66812 0.70593 0.58264 0.0
H856 H 0.75929 0.75178 0.57927 0.0
H857 H 0.73883 0.70914 0.68013 0.0
H858 H 0.733 0.69304 0.64769 0.0
H859 H 0.71225 0.71743 0.6595 0.0
C860 C 0.72538 0.68536 0.56009 0.0
C861 C 0.69909 0.68756 0.5612 0.0
C862 C 0.74048 0.69953 0.57794 0.0
C863 C 0.72966 0.71598 0.59748 0.0
C864 C 0.70345 0.71787 0.59912 0.0
H865 H 0.79842 0.82484 0.71135 0.0
H866 H 0.76868 0.7968 0.68761 0.0
C867 C 0.68829 0.70378 0.58117 0.0
C868 C 0.74593 0.73241 0.61467 0.0
H869 H 0.76508 0.74466 0.68067 0.0
C870 C 0.76059 0.75021 0.60143 0.0
C871 C 0.74732 0.7305 0.6436 0.0
C872 C 0.73217 0.71142 0.65869 0.0
C873 C 0.77668 0.76616 0.61631 0.0
C874 C 0.77868 0.7638 0.64518 0.0
C875 C 0.76364 0.74632 0.65853 0.0
C876 C 0.79677 0.77902 0.66154 0.0
C877 C 0.79111 0.78565 0.60095 0.0
C878 C 0.82249 0.77764 0.65549 0.0
C879 C 0.83939 0.79363 0.66886 0.0
C880 C 0.83098 0.81113 0.68883 0.0
C881 C 0.80542 0.81151 0.69606 0.0
C882 C 0.78843 0.79558 0.68248 0.0
H883 H 0.78215 0.78983 0.58097 0.0
H884 H 0.79265 0.80326 0.61331 0.0
H885 H 0.81033 0.7786 0.59656 0.0
H886 H 0.82944 0.76454 0.63995 0.0
H887 H 0.85904 0.79259 0.66323 0.0
H888 H 0.78672 0.1648 0.07497 0.0
H889 H 0.75874 0.18892 0.10554 0.0
H890 H 0.80022 0.25579 0.08876 0.0
H891 H 0.82838 0.23191 0.05827 0.0
H892 H 0.78595 0.24937 0.14643 0.0
H893 H 0.70674 0.23836 0.07283 0.0
H894 H 0.72191 0.21005 0.08293 0.0
H895 H 0.73888 0.23222 0.06302 0.0
C896 C 0.79006 0.1846 0.07792 0.0
C897 C 0.80965 0.19646 0.06386 0.0
C898 C 0.77401 0.19835 0.09538 0.0
C899 C 0.77726 0.22417 0.09913 0.0
C900 C 0.79737 0.23588 0.08607 0.0
H901 H 0.67089 0.33751 0.14665 0.0
H902 H 0.70454 0.31226 0.12605 0.0
C903 C 0.81338 0.22219 0.06855 0.0
C904 C 0.7589 0.23928 0.11534 0.0
H905 H 0.69842 0.26023 0.11444 0.0
C906 C 0.76677 0.25168 0.13958 0.0
C907 C 0.73399 0.24243 0.10612 0.0
C908 C 0.7248 0.23026 0.07971 0.0
C909 C 0.75029 0.26719 0.15488 0.0
C910 C 0.72537 0.27025 0.14566 0.0
C911 C 0.71754 0.25777 0.12149 0.0
C912 C 0.7072 0.28706 0.16001 0.0
C913 C 0.75975 0.28069 0.18035 0.0
C914 C 0.69788 0.28156 0.18622 0.0
C915 C 0.67851 0.29595 0.19805 0.0
C916 C 0.66806 0.31595 0.18373 0.0
C917 C 0.67828 0.32201 0.15803 0.0
C918 C 0.69756 0.30766 0.14627 0.0
H919 H 0.78052 0.27994 0.1819 0.0
H920 H 0.7537 0.30053 0.18056 0.0
H921 H 0.75168 0.27193 0.19883 0.0
H922 H 0.70484 0.26553 0.19701 0.0
H923 H 0.67088 0.29066 0.21774 0.0
H924 H 0.27306 0.32341 0.58467 0.0
H925 H 0.25489 0.30294 0.6246 0.0
H926 H 0.32749 0.27303 0.64468 0.0
H927 H 0.34587 0.29341 0.60504 0.0
H928 H 0.25556 0.25045 0.6379 0.0
H929 H 0.30387 0.31007 0.71609 0.0
H930 H 0.30099 0.3187 0.68054 0.0
H931 H 0.3243 0.29639 0.69041 0.0
C932 C 0.28518 0.31248 0.59757 0.0
C933 C 0.31097 0.31014 0.59167 0.0
C934 C 0.27474 0.30077 0.62034 0.0
C935 C 0.28991 0.28674 0.63773 0.0
C936 C 0.31553 0.28409 0.63171 0.0
H937 H 0.27919 0.2025 0.78425 0.0
H938 H 0.29058 0.22326 0.74188 0.0
C939 C 0.32598 0.29568 0.60895 0.0
C940 C 0.27911 0.27484 0.66228 0.0
H941 H 0.28382 0.27366 0.73223 0.0
C942 C 0.2615 0.25564 0.65858 0.0
C943 C 0.28686 0.28176 0.68918 0.0
C944 C 0.30487 0.30301 0.69443 0.0
C945 C 0.25222 0.24243 0.68109 0.0
C946 C 0.26051 0.24894 0.70794 0.0
C947 C 0.27759 0.26861 0.71162 0.0
C948 C 0.25276 0.23493 0.73251 0.0
C949 C 0.2344 0.22103 0.67589 0.0
C950 C 0.22762 0.23438 0.74121 0.0
C951 C 0.22102 0.22247 0.76555 0.0
C952 C 0.23953 0.21121 0.7817 0.0
C953 C 0.26456 0.21135 0.77252 0.0
C954 C 0.27109 0.22313 0.74825 0.0
H955 H 0.23414 0.21502 0.65385 0.0
H956 H 0.23956 0.20479 0.68847 0.0
H957 H 0.21514 0.22694 0.68183 0.0
H958 H 0.21323 0.24373 0.72962 0.0
H959 H 0.20163 0.22283 0.77223 0.0
H960 H 0.67475 0.72278 0.45759 0.0
H961 H 0.69241 0.74483 0.41853 0.0
H962 H 0.72565 0.67631 0.38768 0.0
H963 H 0.70794 0.65402 0.42643 0.0
H964 H 0.74332 0.74946 0.4012 0.0
H965 H 0.68439 0.70141 0.32224 0.0
H966 H 0.6774 0.7006 0.35857 0.0
H967 H 0.70166 0.681 0.34406 0.0
C968 C 0.68582 0.71236 0.44252 0.0
C969 C 0.68981 0.68657 0.44513 0.0
C970 C 0.69594 0.72503 0.42025 0.0
C971 C 0.71009 0.71215 0.40007 0.0
C972 C 0.71446 0.68653 0.40281 0.0
H973 H 0.80191 0.77607 0.2698 0.0
H974 H 0.78779 0.75528 0.31152 0.0
C975 C 0.70438 0.67384 0.42506 0.0
C976 C 0.72006 0.72548 0.37599 0.0
H977 H 0.71624 0.72798 0.30599 0.0
C978 C 0.73744 0.7448 0.38036 0.0
C979 C 0.71214 0.71949 0.34888 0.0
C980 C 0.69271 0.69965 0.34304 0.0
C981 C 0.74727 0.75818 0.35827 0.0
C982 C 0.73967 0.75188 0.33112 0.0
C983 C 0.72219 0.73265 0.32681 0.0
C984 C 0.74878 0.76557 0.30688 0.0
C985 C 0.76524 0.77931 0.36419 0.0
C986 C 0.73157 0.77813 0.2904 0.0
C987 C 0.73954 0.78994 0.26664 0.0
C988 C 0.76494 0.78931 0.25868 0.0
C989 C 0.78228 0.7771 0.2755 0.0
C990 C 0.77424 0.76523 0.29934 0.0
H991 H 0.76477 0.78538 0.38621 0.0
H992 H 0.7846 0.77307 0.35914 0.0
H993 H 0.76084 0.79559 0.35134 0.0
H994 H 0.71185 0.77868 0.29586 0.0
H995 H 0.72575 0.79954 0.25443 0.0
H996 H 0.78332 0.17398 0.95293 0.0
H997 H 0.76277 0.19204 0.91312 0.0
H998 H 0.82937 0.23448 0.89607 0.0
H999 H 0.85026 0.21628 0.93557 0.0
H1000 H 0.75259 0.24164 0.90092 0.0
H1001 H 0.81601 0.19775 0.82292 0.0
H1002 H 0.81506 0.18804 0.85821 0.0
H1003 H 0.83193 0.21568 0.84918 0.0
C1004 C 0.79365 0.18716 0.94074 0.0
C1005 C 0.81852 0.19356 0.94742 0.0
C1006 C 0.78183 0.19749 0.91801 0.0
C1007 C 0.79464 0.21434 0.90141 0.0
C1008 C 0.81929 0.22115 0.90829 0.0
H1009 H 0.73152 0.31052 0.77669 0.0
H1010 H 0.74841 0.29392 0.8194 0.0
C1011 C 0.83116 0.2108 0.93098 0.0
C1012 C 0.78226 0.22465 0.87682 0.0
H1013 H 0.78723 0.22783 0.80694 0.0
C1014 C 0.76011 0.23861 0.88035 0.0
C1015 C 0.79193 0.22038 0.84998 0.0
C1016 C 0.8149 0.20446 0.84471 0.0
C1017 C 0.74755 0.24868 0.85775 0.0
C1018 C 0.75762 0.24499 0.83099 0.0
C1019 C 0.77962 0.23081 0.82749 0.0
C1020 C 0.74552 0.2552 0.80616 0.0
C1021 C 0.72336 0.26275 0.86267 0.0
C1022 C 0.73835 0.23901 0.78449 0.0
C1023 C 0.72883 0.24844 0.76009 0.0
C1024 C 0.72636 0.27431 0.75676 0.0
C1025 C 0.7329 0.29051 0.77876 0.0
C1026 C 0.74254 0.28103 0.80319 0.0
H1027 H 0.71486 0.25834 0.88288 0.0
H1028 H 0.72718 0.28308 0.86261 0.0
H1029 H 0.70954 0.2584 0.84621 0.0
H1030 H 0.74044 0.21901 0.78633 0.0
H1031 H 0.72368 0.23546 0.74366 0.0
H1032 H 0.2817 0.34212 0.45801 0.0
H1033 H 0.25623 0.3184 0.42481 0.0
H1034 H 0.28887 0.24987 0.45267 0.0
H1035 H 0.3148 0.2734 0.48545 0.0
H1036 H 0.28524 0.25092 0.39622 0.0
H1037 H 0.19454 0.27854 0.44487 0.0
H1038 H 0.21381 0.30408 0.43446 0.0
H1039 H 0.2243 0.28421 0.46141 0.0
C1040 C 0.28349 0.32199 0.45707 0.0
C1041 C 0.30013 0.30966 0.47464 0.0
C1042 C 0.26882 0.30846 0.43815 0.0
C1043 C 0.27027 0.28232 0.43661 0.0
C1044 C 0.28734 0.27002 0.45358 0.0
H1045 H 0.19549 0.15514 0.37029 0.0
H1046 H 0.22476 0.18585 0.38954 0.0
C1047 C 0.30213 0.28353 0.47237 0.0
C1048 C 0.25381 0.26759 0.41772 0.0
H1049 H 0.19255 0.25274 0.40507 0.0
C1050 C 0.26497 0.25144 0.39804 0.0
C1051 C 0.22733 0.26834 0.42002 0.0
C1052 C 0.21422 0.28454 0.44146 0.0
C1053 C 0.25041 0.23571 0.38099 0.0
C1054 C 0.22402 0.23595 0.38386 0.0
C1055 C 0.2128 0.25271 0.40282 0.0
C1056 C 0.20786 0.2173 0.36952 0.0
C1057 C 0.2634 0.21875 0.36021 0.0
C1058 C 0.18862 0.22477 0.3518 0.0
C1059 C 0.17182 0.20717 0.34069 0.0
C1060 C 0.17377 0.18194 0.3476 0.0
C1061 C 0.19348 0.17449 0.36473 0.0
C1062 C 0.21033 0.19198 0.37557 0.0
H1063 H 0.28234 0.2258 0.3549 0.0
H1064 H 0.26568 0.2 0.36905 0.0
H1065 H 0.2522 0.21673 0.34106 0.0
H1066 H 0.18628 0.24428 0.34706 0.0
H1067 H 0.15668 0.21342 0.32771 0.0
H1068 H 0.22574 0.8232 0.9808 0.0
H1069 H 0.25295 0.79845 0.95017 0.0
H1070 H 0.19328 0.7454 0.93674 0.0
H1071 H 0.16569 0.77046 0.96669 0.0
H1072 H 0.26918 0.75275 0.95738 0.0
H1073 H 0.21707 0.75392 0.85909 0.0
H1074 H 0.20944 0.77454 0.88782 0.0
H1075 H 0.19829 0.74287 0.88693 0.0
C1076 C 0.2183 0.80641 0.9711 0.0
C1077 C 0.19354 0.79881 0.97626 0.0
C1078 C 0.23388 0.79228 0.95355 0.0
C1079 C 0.22511 0.7702 0.9408 0.0
C1080 C 0.20031 0.76268 0.9457 0.0
H1081 H 0.32391 0.64969 0.88894 0.0
H1082 H 0.29108 0.6757 0.91021 0.0
C1083 C 0.18461 0.77695 0.96305 0.0
C1084 C 0.24256 0.75415 0.92421 0.0
H1085 H 0.25008 0.72372 0.86205 0.0
C1086 C 0.26503 0.74657 0.93647 0.0
C1087 C 0.23736 0.74629 0.89677 0.0
C1088 C 0.21435 0.75503 0.88177 0.0
C1089 C 0.2822 0.73106 0.92235 0.0
C1090 C 0.27645 0.72218 0.89543 0.0
C1091 C 0.25427 0.73019 0.88285 0.0
C1092 C 0.29349 0.70476 0.88018 0.0
C1093 C 0.30657 0.72469 0.93633 0.0
C1094 C 0.30459 0.71166 0.85523 0.0
C1095 C 0.32309 0.69656 0.84277 0.0
C1096 C 0.3308 0.67443 0.85517 0.0
C1097 C 0.31851 0.66683 0.87916 0.0
C1098 C 0.29988 0.68173 0.89139 0.0
H1099 H 0.3112 0.73846 0.95299 0.0
H1100 H 0.30486 0.70613 0.94576 0.0
H1101 H 0.32236 0.72397 0.92139 0.0
H1102 H 0.2998 0.72927 0.8461 0.0
H1103 H 0.33234 0.70288 0.82433 0.0
loop_
_geom_bond_atom_site_label_1
_geom_bond_atom_site_label_2
_geom_bond_distance
_geom_bond_site_symmetry_2
_ccdc_geom_bond_type
Fe0 O2 1.918 . S
Fe0 O5 1.997 . S
Fe0 O6 2.002 . S
Fe0 O11 1.976 1_554 S
Fe0 O14 1.995 . S
Fe1 O2 1.918 . S
Fe1 O9 1.997 . S
Fe1 O12 1.996 1_554 S
Fe1 O16 1.976 1_554 S
Fe1 O19 2.002 . S
O2 Fe0 1.918 . S
O2 Fe1 1.918 . S
O2 Fe3 1.918 . S
Fe3 O2 1.918 . S
Fe3 O4 2.002 . S
Fe3 O13 1.976 1_554 S
Fe3 O17 1.996 1_554 S
Fe3 O20 1.997 . S
O4 Fe3 2.002 . S
O4 C21 1.295 . S
O5 Fe0 1.997 . S
O5 C21 1.235 . S
O6 Fe0 2.002 . S
O6 C7 1.295 . S
C7 O6 1.295 . S
C7 O9 1.235 . S
C8 O13 1.287 . S
C8 O14 1.255 1_556 S
O9 Fe1 1.997 . S
O9 C7 1.235 . S
C10 O16 1.287 . S
C10 O17 1.255 . S
O11 Fe0 1.976 1_556 S
O11 C18 1.287 . S
O12 Fe1 1.996 1_556 S
O12 C18 1.255 . S
O13 Fe3 1.976 1_556 S
O13 C8 1.287 . S
O14 Fe0 1.995 . S
O14 C8 1.255 1_554 S
C15 O19 1.295 . S
C15 O20 1.235 . S
O16 Fe1 1.976 1_556 S
O16 C10 1.287 . S
O17 Fe3 1.996 1_556 S
O17 C10 1.255 . S
C18 O11 1.287 . S
C18 O12 1.255 . S
O19 Fe1 2.002 . S
O19 C15 1.295 . S
O20 Fe3 1.997 . S
O20 C15 1.235 . S
C21 O4 1.295 . S
C21 O5 1.235 . S
Fe22 O24 1.918 . S
Fe22 O27 1.997 . S
Fe22 O28 2.002 . S
Fe22 O33 1.976 . S
Fe22 O36 1.996 . S
Fe23 O24 1.918 . S
Fe23 O31 1.997 . S
Fe23 O34 1.996 . S
Fe23 O38 1.976 . S
Fe23 O41 2.002 . S
O24 Fe22 1.918 . S
O24 Fe23 1.918 . S
O24 Fe25 1.918 . S
Fe25 O24 1.918 . S
Fe25 O26 2.002 . S
Fe25 O35 1.976 . S
Fe25 O39 1.996 . S
Fe25 O42 1.997 . S
O26 Fe25 2.002 . S
O26 C43 1.295 . S
O27 Fe22 1.997 . S
O27 C43 1.235 . S
O28 Fe22 2.002 . S
O28 C29 1.295 . S
C29 O28 1.295 . S
C29 O31 1.235 . S
C30 O35 1.287 . S
C30 O36 1.255 . S
O31 Fe23 1.997 . S
O31 C29 1.235 . S
C32 O38 1.287 . S
C32 O39 1.255 . S
O33 Fe22 1.976 . S
O33 C40 1.287 . S
O34 Fe23 1.996 . S
O34 C40 1.255 . S
O35 Fe25 1.976 . S
O35 C30 1.287 . S
O36 Fe22 1.996 . S
O36 C30 1.255 . S
C37 O41 1.295 . S
C37 O42 1.235 . S
O38 Fe23 1.976 . S
O38 C32 1.287 . S
O39 Fe25 1.996 . S
O39 C32 1.255 . S
C40 O33 1.287 . S
C40 O34 1.255 . S
O41 Fe23 2.002 . S
O41 C37 1.295 . S
O42 Fe25 1.997 . S
O42 C37 1.235 . S
C43 O26 1.295 . S
C43 O27 1.235 . S
Fe44 O46 1.918 . S
Fe44 O49 1.997 1_554 S
Fe44 O50 2.002 1_554 S
Fe44 O55 1.976 . S
Fe44 O58 1.996 . S
Fe45 O46 1.918 . S
Fe45 O53 1.997 1_554 S
Fe45 O56 1.996 . S
Fe45 O60 1.976 . S
Fe45 O63 2.002 1_554 S
O46 Fe44 1.918 . S
O46 Fe45 1.918 . S
O46 Fe47 1.918 . S
Fe47 O46 1.918 . S
Fe47 O48 2.002 1_554 S
Fe47 O57 1.976 . S
Fe47 O61 1.996 . S
Fe47 O64 1.997 1_554 S
O48 Fe47 2.002 1_556 S
O48 C65 1.295 . S
O49 Fe44 1.997 1_556 S
O49 C65 1.235 . S
O50 Fe44 2.002 1_556 S
O50 C51 1.295 . S
C51 O50 1.295 . S
C51 O53 1.235 . S
C52 O57 1.287 . S
C52 O58 1.255 . S
O53 Fe45 1.997 1_556 S
O53 C51 1.235 . S
C54 O60 1.287 . S
C54 O61 1.255 . S
O55 Fe44 1.976 . S
O55 C62 1.287 . S
O56 Fe45 1.996 . S
O56 C62 1.255 . S
O57 Fe47 1.976 . S
O57 C52 1.287 . S
O58 Fe44 1.996 . S
O58 C52 1.255 . S
C59 O63 1.295 . S
C59 O64 1.235 . S
O60 Fe45 1.976 . S
O60 C54 1.287 . S
O61 Fe47 1.996 . S
O61 C54 1.255 . S
C62 O55 1.287 . S
C62 O56 1.255 . S
O63 Fe45 2.002 1_556 S
O63 C59 1.295 . S
O64 Fe47 1.997 1_556 S
O64 C59 1.235 . S
C65 O48 1.295 . S
C65 O49 1.235 . S
Fe66 O68 1.918 . S
Fe66 O71 1.997 . S
Fe66 O72 2.002 . S
Fe66 O77 1.976 . S
Fe66 O80 1.996 . S
Fe67 O68 1.918 . S
Fe67 O75 1.997 . S
Fe67 O78 1.996 . S
Fe67 O82 1.976 . S
Fe67 O85 2.002 . S
O68 Fe66 1.918 . S
O68 Fe67 1.918 . S
O68 Fe69 1.918 . S
Fe69 O68 1.918 . S
Fe69 O70 2.002 . S
Fe69 O79 1.976 . S
Fe69 O83 1.996 . S
Fe69 O86 1.997 . S
O70 Fe69 2.002 . S
O70 C87 1.295 . S
O71 Fe66 1.997 . S
O71 C87 1.235 . S
O72 Fe66 2.002 . S
O72 C73 1.295 . S
C73 O72 1.295 . S
C73 O75 1.235 . S
C74 O79 1.287 . S
C74 O80 1.255 . S
O75 Fe67 1.997 . S
O75 C73 1.235 . S
C76 O82 1.287 . S
C76 O83 1.255 . S
O77 Fe66 1.976 . S
O77 C84 1.287 . S
O78 Fe67 1.996 . S
O78 C84 1.255 . S
O79 Fe69 1.976 . S
O79 C74 1.287 . S
O80 Fe66 1.996 . S
O80 C74 1.255 . S
C81 O85 1.295 . S
C81 O86 1.235 . S
O82 Fe67 1.976 . S
O82 C76 1.287 . S
O83 Fe69 1.996 . S
O83 C76 1.255 . S
C84 O77 1.287 . S
C84 O78 1.255 . S
O85 Fe67 2.002 . S
O85 C81 1.295 . S
O86 Fe69 1.997 . S
O86 C81 1.235 . S
C87 O70 1.295 . S
C87 O71 1.235 . S
H88 C89 0.949 . S
C89 H88 0.949 . S
C89 C90 1.395 . S
C89 C91 1.391 . S
C90 C89 1.395 . S
C90 C93 1.390 . S
C91 C89 1.391 . S
C91 C95 1.387 . S
C91 C96 1.491 . S
H92 C93 0.950 . S
C93 C90 1.390 . S
C93 H92 0.950 . S
C93 C94 1.378 . S
C94 C93 1.378 . S
C94 C95 1.409 . S
C95 C91 1.387 . S
C95 C94 1.409 . S
C95 H97 0.951 . S
C96 C91 1.491 . S
C96 C98 1.382 . S
C96 C100 1.404 . S
H97 C95 0.951 . S
C98 C96 1.382 . S
C98 C99 1.390 . S
C98 H103 0.949 . S
C99 C98 1.390 . S
C99 C104 1.399 . S
C100 C96 1.404 . S
C100 H101 0.950 . S
C100 C102 1.375 . S
H101 C100 0.950 . S
C102 C100 1.375 . S
C102 C104 1.382 . S
C102 H106 0.950 . S
H103 C98 0.949 . S
C104 C99 1.399 . S
C104 C102 1.382 . S
C104 H105 0.952 . S
H105 C104 0.952 . S
H106 C102 0.950 . S
H107 C108 0.949 . S
C108 H107 0.949 . S
C108 C109 1.395 . S
C108 C110 1.391 . S
C109 C108 1.395 . S
C109 C112 1.390 . S
C110 C108 1.391 . S
C110 C114 1.387 . S
C110 C115 1.491 . S
H111 C112 0.950 . S
C112 C109 1.390 . S
C112 H111 0.950 . S
C112 C113 1.378 . S
C113 C112 1.378 . S
C113 C114 1.409 . S
C114 C110 1.387 . S
C114 C113 1.409 . S
C114 H116 0.951 . S
C115 C110 1.491 . S
C115 C117 1.382 . S
C115 C119 1.404 . S
H116 C114 0.951 . S
C117 C115 1.382 . S
C117 C118 1.390 . S
C117 H122 0.949 . S
C118 C117 1.390 . S
C118 C123 1.399 . S
C119 C115 1.404 . S
C119 H120 0.950 . S
C119 C121 1.375 . S
H120 C119 0.950 . S
C121 C119 1.375 . S
C121 C123 1.382 . S
C121 H125 0.950 . S
H122 C117 0.949 . S
C123 C118 1.399 . S
C123 C121 1.382 . S
C123 H124 0.952 . S
H124 C123 0.952 . S
H125 C121 0.950 . S
H126 C127 0.949 . S
C127 H126 0.949 . S
C127 C128 1.395 . S
C127 C129 1.391 . S
C128 C127 1.395 . S
C128 C131 1.390 . S
C129 C127 1.391 . S
C129 C133 1.387 . S
C129 C134 1.491 . S
H130 C131 0.950 . S
C131 C128 1.390 . S
C131 H130 0.950 . S
C131 C132 1.378 . S
C132 C131 1.378 . S
C132 C133 1.409 . S
C133 C129 1.387 . S
C133 C132 1.409 . S
C133 H135 0.951 . S
C134 C129 1.491 . S
C134 C136 1.382 . S
C134 C138 1.404 . S
H135 C133 0.951 . S
C136 C134 1.382 . S
C136 C137 1.390 . S
C136 H141 0.949 . S
C137 C136 1.390 . S
C137 C142 1.399 . S
C138 C134 1.404 . S
C138 H139 0.950 . S
C138 C140 1.375 . S
H139 C138 0.950 . S
C140 C138 1.375 . S
C140 C142 1.382 . S
C140 H144 0.950 . S
H141 C136 0.949 . S
C142 C137 1.399 . S
C142 C140 1.382 . S
C142 H143 0.952 . S
H143 C142 0.952 . S
H144 C140 0.950 . S
H145 C146 0.949 . S
C146 H145 0.949 . S
C146 C147 1.395 . S
C146 C148 1.391 . S
C147 C146 1.395 . S
C147 C150 1.390 . S
C148 C146 1.391 . S
C148 C152 1.387 . S
C148 C153 1.491 . S
H149 C150 0.950 . S
C150 C147 1.390 . S
C150 H149 0.950 . S
C150 C151 1.378 . S
C151 C150 1.378 . S
C151 C152 1.409 . S
C152 C148 1.387 . S
C152 C151 1.409 . S
C152 H154 0.951 . S
C153 C148 1.491 . S
C153 C155 1.382 . S
C153 C157 1.404 . S
H154 C152 0.951 . S
C155 C153 1.382 . S
C155 C156 1.390 . S
C155 H160 0.949 . S
C156 C155 1.390 . S
C156 C161 1.399 . S
C157 C153 1.404 . S
C157 H158 0.950 . S
C157 C159 1.375 . S
H158 C157 0.950 . S
C159 C157 1.375 . S
C159 C161 1.382 . S
C159 H163 0.950 . S
H160 C155 0.949 . S
C161 C156 1.399 . S
C161 C159 1.382 . S
C161 H162 0.952 . S
H162 C161 0.952 . S
H163 C159 0.950 . S
H164 C165 0.949 . S
C165 H164 0.949 . S
C165 C166 1.395 . S
C165 C167 1.391 . S
C166 C165 1.395 . S
C166 C169 1.390 . S
C167 C165 1.391 . S
C167 C171 1.387 . S
C167 C172 1.491 . S
H168 C169 0.950 . S
C169 C166 1.390 . S
C169 H168 0.950 . S
C169 C170 1.378 . S
C170 C169 1.378 . S
C170 C171 1.409 . S
C171 C167 1.387 . S
C171 C170 1.409 . S
C171 H173 0.951 . S
C172 C167 1.491 . S
C172 C174 1.382 . S
C172 C176 1.404 . S
H173 C171 0.951 . S
C174 C172 1.382 . S
C174 C175 1.390 . S
C174 H179 0.949 . S
C175 C174 1.390 . S
C175 C180 1.399 . S
C176 C172 1.404 . S
C176 H177 0.950 . S
C176 C178 1.375 . S
H177 C176 0.950 . S
C178 C176 1.375 . S
C178 C180 1.382 . S
C178 H182 0.950 . S
H179 C174 0.949 . S
C180 C175 1.399 . S
C180 C178 1.382 . S
C180 H181 0.952 . S
H181 C180 0.952 . S
H182 C178 0.950 . S
H183 C184 0.949 . S
C184 H183 0.949 . S
C184 C185 1.395 . S
C184 C186 1.391 . S
C185 C184 1.395 . S
C185 C188 1.390 . S
C186 C184 1.391 . S
C186 C190 1.387 . S
C186 C191 1.491 . S
H187 C188 0.950 . S
C188 C185 1.390 . S
C188 H187 0.950 . S
C188 C189 1.378 . S
C189 C188 1.378 . S
C189 C190 1.409 . S
C190 C186 1.387 . S
C190 C189 1.409 . S
C190 H192 0.951 . S
C191 C186 1.491 . S
C191 C193 1.382 . S
C191 C195 1.404 . S
H192 C190 0.951 . S
C193 C191 1.382 . S
C193 C194 1.390 . S
C193 H198 0.949 . S
C194 C193 1.390 . S
C194 C199 1.399 . S
C195 C191 1.404 . S
C195 H196 0.950 . S
C195 C197 1.375 . S
H196 C195 0.950 . S
C197 C195 1.375 . S
C197 C199 1.382 . S
C197 H201 0.950 . S
H198 C193 0.949 . S
C199 C194 1.399 . S
C199 C197 1.382 . S
C199 H200 0.952 . S
H200 C199 0.952 . S
H201 C197 0.950 . S
H202 C203 0.949 . S
C203 H202 0.949 . S
C203 C204 1.395 . S
C203 C205 1.391 . S
C204 C203 1.395 . S
C204 C207 1.390 . S
C205 C203 1.391 . S
C205 C209 1.387 . S
C205 C210 1.491 . S
H206 C207 0.950 . S
C207 C204 1.390 . S
C207 H206 0.950 . S
C207 C208 1.378 . S
C208 C207 1.378 . S
C208 C209 1.409 . S
C209 C205 1.387 . S
C209 C208 1.409 . S
C209 H211 0.951 . S
C210 C205 1.491 . S
C210 C212 1.382 . S
C210 C214 1.404 . S
H211 C209 0.951 . S
C212 C210 1.382 . S
C212 C213 1.390 . S
C212 H217 0.949 . S
C213 C212 1.390 . S
C213 C218 1.399 . S
C214 C210 1.404 . S
C214 H215 0.950 . S
C214 C216 1.375 . S
H215 C214 0.950 . S
C216 C214 1.375 . S
C216 C218 1.382 . S
C216 H220 0.950 . S
H217 C212 0.949 . S
C218 C213 1.399 . S
C218 C216 1.382 . S
C218 H219 0.952 . S
H219 C218 0.952 . S
H220 C216 0.950 . S
H221 C222 0.949 . S
C222 H221 0.949 . S
C222 C223 1.395 . S
C222 C224 1.391 . S
C223 C222 1.395 . S
C223 C226 1.390 . S
C224 C222 1.391 . S
C224 C228 1.387 . S
C224 C229 1.491 . S
H225 C226 0.950 . S
C226 C223 1.390 . S
C226 H225 0.950 . S
C226 C227 1.378 . S
C227 C226 1.378 . S
C227 C228 1.409 . S
C228 C224 1.387 . S
C228 C227 1.409 . S
C228 H230 0.951 . S
C229 C224 1.491 . S
C229 C231 1.382 . S
C229 C233 1.404 . S
H230 C228 0.951 . S
C231 C229 1.382 . S
C231 C232 1.390 . S
C231 H236 0.949 . S
C232 C231 1.390 . S
C232 C237 1.399 . S
C233 C229 1.404 . S
C233 H234 0.950 . S
C233 C235 1.375 . S
H234 C233 0.950 . S
C235 C233 1.375 . S
C235 C237 1.382 . S
C235 H239 0.950 . S
H236 C231 0.949 . S
C237 C232 1.399 . S
C237 C235 1.382 . S
C237 H238 0.952 . S
H238 C237 0.952 . S
H239 C235 0.950 . S
H240 C248 0.929 . S
H241 C250 0.930 . S
H242 C252 0.930 . S
H243 C255 0.929 . S
H244 C258 0.930 1_565 S
H245 C260 0.960 . S
H246 C260 0.960 . S
H247 C260 0.960 . S
C248 H240 0.929 . S
C248 C249 1.377 . S
C248 C250 1.384 . S
C249 C248 1.377 . S
C249 C255 1.390 . S
C250 H241 0.930 . S
C250 C248 1.384 . S
C250 C251 1.372 . S
C251 C250 1.372 . S
C251 C252 1.400 . S
C251 C256 1.490 1_565 S
C252 H242 0.930 . S
C252 C251 1.400 . S
C252 C255 1.386 . S
H253 C269 0.930 . S
H254 C270 0.931 . S
C255 H243 0.929 . S
C255 C249 1.390 . S
C255 C252 1.386 . S
C256 C251 1.490 1_545 S
C256 C258 1.395 . S
C256 C259 1.403 . S
H257 C263 0.930 . S
C258 H244 0.930 1_545 S
C258 C256 1.395 . S
C258 C261 1.403 . S
C259 C256 1.403 . S
C259 C260 1.524 . S
C259 C263 1.400 . S
C260 H245 0.960 . S
C260 H246 0.960 . S
C260 H247 0.960 . S
C260 C259 1.524 . S
C261 C258 1.403 . S
C261 C262 1.392 . S
C261 C265 1.495 . S
C262 C261 1.392 . S
C262 C263 1.385 . S
C262 C264 1.478 . S
C263 H257 0.930 . S
C263 C259 1.400 . S
C263 C262 1.385 . S
C264 C262 1.478 . S
C264 C266 1.381 . S
C264 C270 1.383 . S
C265 C261 1.495 . S
C265 H271 0.959 1_545 S
C265 H272 0.961 . S
C265 H273 0.960 . S
C266 C264 1.381 . S
C266 C267 1.394 . S
C266 H274 0.930 . S
C267 C266 1.394 . S
C267 C268 1.383 . S
C267 H275 0.929 . S
C268 C267 1.383 . S
C268 C269 1.377 . S
C269 H253 0.930 . S
C269 C268 1.377 . S
C269 C270 1.379 . S
C270 H254 0.931 . S
C270 C264 1.383 . S
C270 C269 1.379 . S
H271 C265 0.959 1_565 S
H272 C265 0.961 . S
H273 C265 0.960 . S
H274 C266 0.930 . S
H275 C267 0.929 . S
H276 C284 0.929 . S
H277 C286 0.930 . S
H278 C288 0.930 . S
H279 C291 0.929 . S
H280 C294 0.930 . S
H281 C296 0.960 . S
H282 C296 0.960 . S
H283 C296 0.960 . S
C284 H276 0.929 . S
C284 C285 1.377 . S
C284 C286 1.384 . S
C285 C284 1.377 . S
C285 C291 1.390 . S
C286 H277 0.930 . S
C286 C284 1.384 . S
C286 C287 1.372 . S
C287 C286 1.372 . S
C287 C288 1.400 . S
C287 C292 1.490 . S
C288 H278 0.930 . S
C288 C287 1.400 . S
C288 C291 1.386 . S
H289 C305 0.930 . S
H290 C306 0.931 . S
C291 H279 0.929 . S
C291 C285 1.390 . S
C291 C288 1.386 . S
C292 C287 1.490 . S
C292 C294 1.395 . S
C292 C295 1.403 . S
H293 C299 0.930 . S
C294 H280 0.930 . S
C294 C292 1.395 . S
C294 C297 1.403 . S
C295 C292 1.403 . S
C295 C296 1.524 . S
C295 C299 1.400 . S
C296 H281 0.960 . S
C296 H282 0.960 . S
C296 H283 0.960 . S
C296 C295 1.524 . S
C297 C294 1.403 . S
C297 C298 1.392 . S
C297 C301 1.495 . S
C298 C297 1.392 . S
C298 C299 1.385 . S
C298 C300 1.478 . S
C299 H293 0.930 . S
C299 C295 1.400 . S
C299 C298 1.385 . S
C300 C298 1.478 . S
C300 C302 1.381 . S
C300 C306 1.383 . S
C301 C297 1.495 . S
C301 H307 0.959 . S
C301 H308 0.961 . S
C301 H309 0.960 . S
C302 C300 1.381 . S
C302 C303 1.394 . S
C302 H310 0.930 . S
C303 C302 1.394 . S
C303 C304 1.383 . S
C303 H311 0.929 . S
C304 C303 1.383 . S
C304 C305 1.377 . S
C305 H289 0.930 . S
C305 C304 1.377 . S
C305 C306 1.379 . S
C306 H290 0.931 . S
C306 C300 1.383 . S
C306 C305 1.379 . S
H307 C301 0.959 . S
H308 C301 0.961 . S
H309 C301 0.960 . S
H310 C302 0.930 . S
H311 C303 0.929 . S
H312 C320 0.929 . S
H313 C322 0.930 . S
H314 C324 0.930 . S
H315 C327 0.929 . S
H316 C330 0.912 1_545 S
H317 C332 0.960 . S
H318 C332 0.960 . S
H319 C332 0.960 . S
C320 H312 0.929 . S
C320 C321 1.377 . S
C320 C322 1.384 . S
C321 C320 1.377 . S
C321 C327 1.390 . S
C322 H313 0.930 . S
C322 C320 1.384 . S
C322 C323 1.372 . S
C323 C322 1.372 . S
C323 C324 1.400 . S
C323 C328 1.490 1_545 S
C324 H314 0.930 . S
C324 C323 1.400 . S
C324 C327 1.386 . S
H325 C341 0.930 . S
H326 C342 0.931 . S
C327 H315 0.929 . S
C327 C321 1.390 . S
C327 C324 1.386 . S
C328 C323 1.490 1_565 S
C328 C330 1.396 . S
C328 C331 1.403 . S
H329 C335 0.930 . S
C330 H316 0.912 1_565 S
C330 C328 1.396 . S
C330 C333 1.419 . S
C331 C328 1.403 . S
C331 C332 1.524 . S
C331 C335 1.400 . S
C332 H317 0.960 . S
C332 H318 0.960 . S
C332 H319 0.960 . S
C332 C331 1.524 . S
C333 C330 1.419 . S
C333 C334 1.392 . S
C333 C337 1.495 . S
C334 C333 1.392 . S
C334 C335 1.385 . S
C334 C336 1.478 . S
C335 H329 0.930 . S
C335 C331 1.400 . S
C335 C334 1.385 . S
C336 C334 1.478 . S
C336 C338 1.381 . S
C336 C342 1.383 . S
C337 C333 1.495 . S
C337 H343 0.954 . S
C337 H344 0.961 . S
C337 H345 0.960 . S
C338 C336 1.381 . S
C338 C339 1.394 . S
C338 H346 0.930 . S
C339 C338 1.394 . S
C339 C340 1.383 . S
C339 H347 0.929 . S
C340 C339 1.383 . S
C340 C341 1.377 . S
C341 H325 0.930 . S
C341 C340 1.377 . S
C341 C342 1.379 . S
C342 H326 0.931 . S
C342 C336 1.383 . S
C342 C341 1.379 . S
H343 C337 0.954 . S
H344 C337 0.961 . S
H345 C337 0.960 . S
H346 C338 0.930 . S
H347 C339 0.929 . S
H348 C356 0.929 . S
H349 C358 0.930 . S
H350 C360 0.930 . S
H351 C363 0.929 . S
H352 C366 0.930 . S
H353 C368 0.960 . S
H354 C368 0.960 . S
H355 C368 0.960 . S
C356 H348 0.929 . S
C356 C357 1.377 . S
C356 C358 1.384 . S
C357 C356 1.377 . S
C357 C363 1.390 . S
C358 H349 0.930 . S
C358 C356 1.384 . S
C358 C359 1.372 . S
C359 C358 1.372 . S
C359 C360 1.400 . S
C359 C364 1.490 . S
C360 H350 0.930 . S
C360 C359 1.400 . S
C360 C363 1.386 . S
H361 C377 0.930 . S
H362 C378 0.931 . S
C363 H351 0.929 . S
C363 C357 1.390 . S
C363 C360 1.386 . S
C364 C359 1.490 . S
C364 C366 1.395 . S
C364 C367 1.403 . S
H365 C371 0.930 . S
C366 H352 0.930 . S
C366 C364 1.395 . S
C366 C369 1.403 . S
C367 C364 1.403 . S
C367 C368 1.524 . S
C367 C371 1.400 . S
C368 H353 0.960 . S
C368 H354 0.960 . S
C368 H355 0.960 . S
C368 C367 1.524 . S
C369 C366 1.403 . S
C369 C370 1.392 . S
C369 C373 1.495 . S
C370 C369 1.392 . S
C370 C371 1.385 . S
C370 C372 1.478 . S
C371 H365 0.930 . S
C371 C367 1.400 . S
C371 C370 1.385 . S
C372 C370 1.478 . S
C372 C374 1.381 . S
C372 C378 1.383 . S
C373 C369 1.495 . S
C373 H379 0.959 . S
C373 H380 0.961 . S
C373 H381 0.960 . S
C374 C372 1.381 . S
C374 C375 1.394 . S
C374 H382 0.930 . S
C375 C374 1.394 . S
C375 C376 1.383 . S
C375 H383 0.929 . S
C376 C375 1.383 . S
C376 C377 1.377 . S
C377 H361 0.930 . S
C377 C376 1.377 . S
C377 C378 1.379 . S
C378 H362 0.931 . S
C378 C372 1.383 . S
C378 C377 1.379 . S
H379 C373 0.959 . S
H380 C373 0.961 . S
H381 C373 0.960 . S
H382 C374 0.930 . S
H383 C375 0.929 . S
H384 C392 0.929 . S
H385 C394 0.930 . S
H386 C396 0.930 . S
H387 C399 0.929 . S
H388 C402 0.930 . S
H389 C404 0.960 . S
H390 C404 0.960 . S
H391 C404 0.960 . S
C392 H384 0.929 . S
C392 C393 1.377 . S
C392 C394 1.384 . S
C393 C392 1.377 . S
C393 C399 1.390 . S
C394 H385 0.930 . S
C394 C392 1.384 . S
C394 C395 1.372 . S
C395 C394 1.372 . S
C395 C396 1.400 . S
C395 C400 1.490 . S
C396 H386 0.930 . S
C396 C395 1.400 . S
C396 C399 1.386 . S
H397 C413 0.930 . S
H398 C414 0.931 . S
C399 H387 0.929 . S
C399 C393 1.390 . S
C399 C396 1.386 . S
C400 C395 1.490 . S
C400 C402 1.395 . S
C400 C403 1.403 . S
H401 C407 0.930 . S
C402 H388 0.930 . S
C402 C400 1.395 . S
C402 C405 1.403 . S
C403 C400 1.403 . S
C403 C404 1.524 . S
C403 C407 1.400 . S
C404 H389 0.960 . S
C404 H390 0.960 . S
C404 H391 0.960 . S
C404 C403 1.524 . S
C405 C402 1.403 . S
C405 C406 1.392 . S
C405 C409 1.495 . S
C406 C405 1.392 . S
C406 C407 1.385 . S
C406 C408 1.478 . S
C407 H401 0.930 . S
C407 C403 1.400 . S
C407 C406 1.385 . S
C408 C406 1.478 . S
C408 C410 1.381 . S
C408 C414 1.383 . S
C409 C405 1.495 . S
C409 H415 0.959 . S
C409 H416 0.961 . S
C409 H417 0.960 . S
C410 C408 1.381 . S
C410 C411 1.394 . S
C410 H418 0.930 . S
C411 C410 1.394 . S
C411 C412 1.383 . S
C411 H419 0.929 . S
C412 C411 1.383 . S
C412 C413 1.377 . S
C413 H397 0.930 . S
C413 C412 1.377 . S
C413 C414 1.379 . S
C414 H398 0.931 . S
C414 C408 1.383 . S
C414 C413 1.379 . S
H415 C409 0.959 . S
H416 C409 0.961 . S
H417 C409 0.960 . S
H418 C410 0.930 . S
H419 C411 0.929 . S
H420 C428 0.929 . S
H421 C430 0.930 . S
H422 C432 0.930 . S
H423 C435 0.929 . S
H424 C438 0.930 . S
H425 C440 0.958 1_455 S
H426 C440 0.960 . S
H427 C440 0.960 . S
C428 H420 0.929 . S
C428 C429 1.377 . S
C428 C430 1.384 . S
C429 C428 1.377 . S
C429 C435 1.390 . S
C430 H421 0.930 . S
C430 C428 1.384 . S
C430 C431 1.372 . S
C431 C430 1.372 . S
C431 C432 1.400 . S
C431 C436 1.490 1_655 S
C432 H422 0.930 . S
C432 C431 1.400 . S
C432 C435 1.386 . S
H433 C449 0.930 . S
H434 C450 0.931 . S
C435 H423 0.929 . S
C435 C429 1.390 . S
C435 C432 1.386 . S
C436 C431 1.490 1_455 S
C436 C438 1.395 . S
C436 C439 1.403 . S
H437 C443 0.930 . S
C438 H424 0.930 . S
C438 C436 1.395 . S
C438 C441 1.403 . S
C439 C436 1.403 . S
C439 C440 1.524 1_455 S
C439 C443 1.400 . S
C440 H425 0.958 1_655 S
C440 H426 0.960 . S
C440 H427 0.960 . S
C440 C439 1.524 1_655 S
C441 C438 1.403 . S
C441 C442 1.392 . S
C441 C445 1.495 . S
C442 C441 1.392 . S
C442 C443 1.385 . S
C442 C444 1.478 . S
C443 H437 0.930 . S
C443 C439 1.400 . S
C443 C442 1.385 . S
C444 C442 1.478 . S
C444 C446 1.381 . S
C444 C450 1.383 . S
C445 C441 1.495 . S
C445 H451 0.959 . S
C445 H452 0.961 . S
C445 H453 0.960 . S
C446 C444 1.381 . S
C446 C447 1.394 . S
C446 H454 0.930 . S
C447 C446 1.394 . S
C447 C448 1.383 . S
C447 H455 0.929 . S
C448 C447 1.383 . S
C448 C449 1.377 . S
C449 H433 0.930 . S
C449 C448 1.377 . S
C449 C450 1.379 . S
C450 H434 0.931 . S
C450 C444 1.383 . S
C450 C449 1.379 . S
H451 C445 0.959 . S
H452 C445 0.961 . S
H453 C445 0.960 . S
H454 C446 0.930 . S
H455 C447 0.929 . S
H456 C464 0.929 . S
H457 C466 0.930 . S
H458 C468 0.930 . S
H459 C471 0.929 . S
H460 C474 0.930 . S
H461 C476 0.960 . S
H462 C476 0.960 . S
H463 C476 0.960 . S
C464 H456 0.929 . S
C464 C465 1.377 . S
C464 C466 1.384 . S
C465 C464 1.377 . S
C465 C471 1.390 . S
C466 H457 0.930 . S
C466 C464 1.384 . S
C466 C467 1.372 . S
C467 C466 1.372 . S
C467 C468 1.400 . S
C467 C472 1.490 . S
C468 H458 0.930 . S
C468 C467 1.400 . S
C468 C471 1.386 . S
H469 C485 0.930 . S
H470 C486 0.931 . S
C471 H459 0.929 . S
C471 C465 1.390 . S
C471 C468 1.386 . S
C472 C467 1.490 . S
C472 C474 1.395 . S
C472 C475 1.403 . S
H473 C479 0.930 . S
C474 H460 0.930 . S
C474 C472 1.395 . S
C474 C477 1.403 . S
C475 C472 1.403 . S
C475 C476 1.524 . S
C475 C479 1.400 . S
C476 H461 0.960 . S
C476 H462 0.960 . S
C476 H463 0.960 . S
C476 C475 1.524 . S
C477 C474 1.403 . S
C477 C478 1.392 . S
C477 C481 1.495 . S
C478 C477 1.392 . S
C478 C479 1.385 . S
C478 C480 1.478 . S
C479 H473 0.930 . S
C479 C475 1.400 . S
C479 C478 1.385 . S
C480 C478 1.478 . S
C480 C482 1.381 . S
C480 C486 1.383 . S
C481 C477 1.495 . S
C481 H487 0.959 . S
C481 H488 0.961 . S
C481 H489 0.960 . S
C482 C480 1.381 . S
C482 C483 1.394 . S
C482 H490 0.930 . S
C483 C482 1.394 . S
C483 C484 1.383 . S
C483 H491 0.929 . S
C484 C483 1.383 . S
C484 C485 1.377 . S
C485 H469 0.930 . S
C485 C484 1.377 . S
C485 C486 1.379 . S
C486 H470 0.931 . S
C486 C480 1.383 . S
C486 C485 1.379 . S
H487 C481 0.959 . S
H488 C481 0.961 . S
H489 C481 0.960 . S
H490 C482 0.930 . S
H491 C483 0.929 . S
H492 C500 0.929 . S
H493 C502 0.930 . S
H494 C504 0.930 . S
H495 C507 0.929 . S
H496 C510 0.930 . S
H497 C512 0.960 . S
H498 C512 0.960 . S
H499 C512 0.960 . S
C500 H492 0.929 . S
C500 C501 1.377 . S
C500 C502 1.384 . S
C501 C500 1.377 . S
C501 C507 1.390 . S
C502 H493 0.930 . S
C502 C500 1.384 . S
C502 C503 1.372 . S
C503 C502 1.372 . S
C503 C504 1.400 . S
C503 C508 1.524 . S
C504 H494 0.930 . S
C504 C503 1.400 . S
C504 C507 1.386 . S
H505 C521 0.930 . S
H506 C522 0.931 . S
C507 H495 0.929 . S
C507 C501 1.390 . S
C507 C504 1.386 . S
C508 C503 1.524 . S
C508 C510 1.358 1_455 S
C508 C511 1.406 . S
H509 C515 0.930 . S
C510 H496 0.930 . S
C510 C508 1.358 1_655 S
C510 C513 1.403 . S
C511 C508 1.406 . S
C511 C512 1.524 . S
C511 C515 1.400 1_455 S
C512 H497 0.960 . S
C512 H498 0.960 . S
C512 H499 0.960 . S
C512 C511 1.524 . S
C513 C510 1.403 . S
C513 C514 1.392 . S
C513 C517 1.495 . S
C514 C513 1.392 . S
C514 C515 1.385 . S
C514 C516 1.478 . S
C515 H509 0.930 . S
C515 C511 1.400 1_655 S
C515 C514 1.385 . S
C516 C514 1.478 . S
C516 C518 1.381 . S
C516 C522 1.383 . S
C517 C513 1.495 . S
C517 H523 0.959 . S
C517 H524 0.961 . S
C517 H525 0.960 . S
C518 C516 1.381 . S
C518 C519 1.394 . S
C518 H526 0.930 . S
C519 C518 1.394 . S
C519 C520 1.383 . S
C519 H527 0.929 . S
C520 C519 1.383 . S
C520 C521 1.377 . S
C521 H505 0.930 . S
C521 C520 1.377 . S
C521 C522 1.379 . S
C522 H506 0.931 . S
C522 C516 1.383 . S
C522 C521 1.379 . S
H523 C517 0.959 . S
H524 C517 0.961 . S
H525 C517 0.960 . S
H526 C518 0.930 . S
H527 C519 0.929 . S
H528 C536 0.929 . S
H529 C538 0.930 . S
H530 C540 0.969 . S
H531 C543 0.929 . S
H532 C546 0.929 1_545 S
H533 C548 0.960 . S
H534 C548 0.960 1_545 S
H535 C548 0.960 . S
C536 H528 0.929 . S
C536 C537 1.377 . S
C536 C538 1.384 . S
C537 C536 1.377 . S
C537 C543 1.390 . S
C538 H529 0.930 . S
C538 C536 1.384 . S
C538 C539 1.372 . S
C539 C538 1.372 . S
C539 C540 1.400 . S
C539 C544 1.490 1_545 S
C540 H530 0.969 . S
C540 C539 1.400 . S
C540 C543 1.386 . S
H541 C557 0.930 . S
H542 C558 0.931 . S
C543 H531 0.929 . S
C543 C537 1.390 . S
C543 C540 1.386 . S
C544 C539 1.490 1_565 S
C544 C546 1.395 . S
C544 C547 1.403 . S
H545 C551 0.930 . S
C546 H532 0.929 1_565 S
C546 C544 1.395 . S
C546 C549 1.403 . S
C547 C544 1.403 . S
C547 C548 1.524 . S
C547 C551 1.400 . S
C548 H533 0.960 . S
C548 H534 0.960 1_565 S
C548 H535 0.960 . S
C548 C547 1.524 . S
C549 C546 1.403 . S
C549 C550 1.392 . S
C549 C553 1.495 . S
C550 C549 1.392 . S
C550 C551 1.385 . S
C550 C552 1.478 . S
C551 H545 0.930 . S
C551 C547 1.400 . S
C551 C550 1.385 . S
C552 C550 1.478 . S
C552 C554 1.381 . S
C552 C558 1.383 . S
C553 C549 1.495 . S
C553 H559 0.959 . S
C553 H560 0.961 . S
C553 H561 0.960 . S
C554 C552 1.381 . S
C554 C555 1.394 . S
C554 H562 0.930 . S
C555 C554 1.394 . S
C555 C556 1.383 . S
C555 H563 0.929 . S
C556 C555 1.383 . S
C556 C557 1.377 . S
C557 H541 0.930 . S
C557 C556 1.377 . S
C557 C558 1.379 . S
C558 H542 0.931 . S
C558 C552 1.383 . S
C558 C557 1.379 . S
H559 C553 0.959 . S
H560 C553 0.961 . S
H561 C553 0.960 . S
H562 C554 0.930 . S
H563 C555 0.929 . S
H564 C572 0.929 . S
H565 C574 0.930 . S
H566 C576 0.930 . S
H567 C579 0.929 . S
H568 C582 0.930 . S
H569 C584 0.960 . S
H570 C584 0.960 . S
H571 C584 0.960 . S
C572 H564 0.929 . S
C572 C573 1.377 . S
C572 C574 1.384 . S
C573 C572 1.377 . S
C573 C579 1.390 . S
C574 H565 0.930 . S
C574 C572 1.384 . S
C574 C575 1.372 . S
C575 C574 1.372 . S
C575 C576 1.400 . S
C575 C580 1.490 . S
C576 H566 0.930 . S
C576 C575 1.400 . S
C576 C579 1.386 . S
H577 C593 0.930 . S
H578 C594 0.931 . S
C579 H567 0.929 . S
C579 C573 1.390 . S
C579 C576 1.386 . S
C580 C575 1.490 . S
C580 C582 1.395 . S
C580 C583 1.403 . S
H581 C587 0.930 . S
C582 H568 0.930 . S
C582 C580 1.395 . S
C582 C585 1.403 . S
C583 C580 1.403 . S
C583 C584 1.524 . S
C583 C587 1.400 . S
C584 H569 0.960 . S
C584 H570 0.960 . S
C584 H571 0.960 . S
C584 C583 1.524 . S
C585 C582 1.403 . S
C585 C586 1.392 . S
C585 C589 1.495 . S
C586 C585 1.392 . S
C586 C587 1.385 . S
C586 C588 1.478 . S
C587 H581 0.930 . S
C587 C583 1.400 . S
C587 C586 1.385 . S
C588 C586 1.478 . S
C588 C590 1.381 . S
C588 C594 1.383 . S
C589 C585 1.495 . S
C589 H595 0.959 . S
C589 H596 0.961 . S
C589 H597 0.960 . S
C590 C588 1.381 . S
C590 C591 1.394 . S
C590 H598 0.930 . S
C591 C590 1.394 . S
C591 C592 1.383 . S
C591 H599 0.929 . S
C592 C591 1.383 . S
C592 C593 1.377 . S
C593 H577 0.930 . S
C593 C592 1.377 . S
C593 C594 1.379 . S
C594 H578 0.931 . S
C594 C588 1.383 . S
C594 C593 1.379 . S
H595 C589 0.959 . S
H596 C589 0.961 . S
H597 C589 0.960 . S
H598 C590 0.930 . S
H599 C591 0.929 . S
H600 C608 0.929 . S
H601 C610 0.930 . S
H602 C612 0.930 . S
H603 C615 0.929 . S
H604 C618 0.930 . S
H605 C620 0.960 . S
H606 C620 0.960 . S
H607 C620 0.960 . S
C608 H600 0.929 . S
C608 C609 1.377 . S
C608 C610 1.384 . S
C609 C608 1.377 . S
C609 C615 1.390 . S
C610 H601 0.930 . S
C610 C608 1.384 . S
C610 C611 1.372 . S
C611 C610 1.372 . S
C611 C612 1.400 . S
C611 C616 1.490 1_565 S
C612 H602 0.930 . S
C612 C611 1.400 . S
C612 C615 1.386 . S
H613 C629 0.930 . S
H614 C630 0.931 . S
C615 H603 0.929 . S
C615 C609 1.390 . S
C615 C612 1.386 . S
C616 C611 1.490 1_545 S
C616 C618 1.395 . S
C616 C619 1.403 . S
H617 C623 0.930 . S
C618 H604 0.930 . S
C618 C616 1.395 . S
C618 C621 1.403 . S
C619 C616 1.403 . S
C619 C620 1.524 1_545 S
C619 C623 1.400 . S
C620 H605 0.960 . S
C620 H606 0.960 . S
C620 H607 0.960 . S
C620 C619 1.524 1_565 S
C621 C618 1.403 . S
C621 C622 1.392 . S
C621 C625 1.495 . S
C622 C621 1.392 . S
C622 C623 1.385 . S
C622 C624 1.478 . S
C623 H617 0.930 . S
C623 C619 1.400 . S
C623 C622 1.385 . S
C624 C622 1.478 . S
C624 C626 1.381 . S
C624 C630 1.383 . S
C625 C621 1.495 . S
C625 H631 0.959 . S
C625 H632 0.961 . S
C625 H633 0.960 . S
C626 C624 1.381 . S
C626 C627 1.394 . S
C626 H634 0.930 . S
C627 C626 1.394 . S
C627 C628 1.383 . S
C627 H635 0.929 . S
C628 C627 1.383 . S
C628 C629 1.377 . S
C629 H613 0.930 . S
C629 C628 1.377 . S
C629 C630 1.379 . S
C630 H614 0.931 . S
C630 C624 1.383 . S
C630 C629 1.379 . S
H631 C625 0.959 . S
H632 C625 0.961 . S
H633 C625 0.960 . S
H634 C626 0.930 . S
H635 C627 0.929 . S
H636 C644 0.929 . S
H637 C646 0.930 . S
H638 C648 0.930 . S
H639 C651 0.929 . S
H640 C654 0.930 . S
H641 C656 0.960 . S
H642 C656 0.960 . S
H643 C656 0.960 . S
C644 H636 0.929 . S
C644 C645 1.377 . S
C644 C646 1.384 . S
C645 C644 1.377 . S
C645 C651 1.390 . S
C646 H637 0.930 . S
C646 C644 1.384 . S
C646 C647 1.372 . S
C647 C646 1.372 . S
C647 C648 1.400 . S
C647 C652 1.490 . S
C648 H638 0.930 . S
C648 C647 1.400 . S
C648 C651 1.386 . S
H649 C665 0.930 . S
H650 C666 0.931 . S
C651 H639 0.929 . S
C651 C645 1.390 . S
C651 C648 1.386 . S
C652 C647 1.490 . S
C652 C654 1.395 . S
C652 C655 1.403 . S
H653 C659 0.930 . S
C654 H640 0.930 . S
C654 C652 1.395 . S
C654 C657 1.403 . S
C655 C652 1.403 . S
C655 C656 1.524 . S
C655 C659 1.400 . S
C656 H641 0.960 . S
C656 H642 0.960 . S
C656 H643 0.960 . S
C656 C655 1.524 . S
C657 C654 1.403 . S
C657 C658 1.392 . S
C657 C661 1.495 . S
C658 C657 1.392 . S
C658 C659 1.385 . S
C658 C660 1.478 . S
C659 H653 0.930 . S
C659 C655 1.400 . S
C659 C658 1.385 . S
C660 C658 1.478 . S
C660 C662 1.381 . S
C660 C666 1.383 . S
C661 C657 1.495 . S
C661 H667 0.959 . S
C661 H668 0.961 . S
C661 H669 0.960 . S
C662 C660 1.381 . S
C662 C663 1.394 . S
C662 H670 0.930 . S
C663 C662 1.394 . S
C663 C664 1.383 . S
C663 H671 0.929 . S
C664 C663 1.383 . S
C664 C665 1.377 . S
C665 H649 0.930 . S
C665 C664 1.377 . S
C665 C666 1.379 . S
C666 H650 0.931 . S
C666 C660 1.383 . S
C666 C665 1.379 . S
H667 C661 0.959 . S
H668 C661 0.961 . S
H669 C661 0.960 . S
H670 C662 0.930 . S
H671 C663 0.929 . S
H672 C680 0.929 . S
H673 C682 0.930 . S
H674 C684 0.930 . S
H675 C687 0.929 . S
H676 C690 0.930 . S
H677 C692 0.960 . S
H678 C692 0.960 . S
H679 C692 0.960 . S
C680 H672 0.929 . S
C680 C681 1.377 . S
C680 C682 1.384 . S
C681 C680 1.377 . S
C681 C687 1.390 . S
C682 H673 0.930 . S
C682 C680 1.384 . S
C682 C683 1.372 . S
C683 C682 1.372 . S
C683 C684 1.400 . S
C683 C688 1.490 . S
C684 H674 0.930 . S
C684 C683 1.400 . S
C684 C687 1.386 . S
H685 C701 0.930 . S
H686 C702 0.931 . S
C687 H675 0.929 . S
C687 C681 1.390 . S
C687 C684 1.386 . S
C688 C683 1.490 . S
C688 C690 1.395 . S
C688 C691 1.403 . S
H689 C695 0.930 . S
C690 H676 0.930 . S
C690 C688 1.395 . S
C690 C693 1.403 . S
C691 C688 1.403 . S
C691 C692 1.524 . S
C691 C695 1.400 . S
C692 H677 0.960 . S
C692 H678 0.960 . S
C692 H679 0.960 . S
C692 C691 1.524 . S
C693 C690 1.403 . S
C693 C694 1.392 . S
C693 C697 1.495 . S
C694 C693 1.392 . S
C694 C695 1.385 . S
C694 C696 1.478 . S
C695 H689 0.930 . S
C695 C691 1.400 . S
C695 C694 1.385 . S
C696 C694 1.478 . S
C696 C698 1.381 . S
C696 C702 1.383 . S
C697 C693 1.495 . S
C697 H703 0.959 . S
C697 H704 0.961 . S
C697 H705 0.960 . S
C698 C696 1.381 . S
C698 C699 1.394 . S
C698 H706 0.930 . S
C699 C698 1.394 . S
C699 C700 1.383 . S
C699 H707 0.929 . S
C700 C699 1.383 . S
C700 C701 1.377 . S
C701 H685 0.930 . S
C701 C700 1.377 . S
C701 C702 1.379 . S
C702 H686 0.931 . S
C702 C696 1.383 . S
C702 C701 1.379 . S
H703 C697 0.959 . S
H704 C697 0.961 . S
H705 C697 0.960 . S
H706 C698 0.930 . S
H707 C699 0.929 . S
H708 C716 0.929 . S
H709 C718 0.930 1_655 S
H710 C720 0.930 . S
H711 C723 0.929 . S
H712 C726 0.930 . S
H713 C728 0.960 . S
H714 C728 0.953 1_455 S
H715 C728 0.960 1_455 S
C716 H708 0.929 . S
C716 C717 1.377 . S
C716 C718 1.384 . S
C717 C716 1.377 . S
C717 C723 1.390 . S
C718 H709 0.930 1_455 S
C718 C716 1.384 . S
C718 C719 1.372 . S
C719 C718 1.372 . S
C719 C720 1.400 . S
C719 C724 1.490 1_455 S
C720 H710 0.930 . S
C720 C719 1.400 . S
C720 C723 1.386 . S
H721 C737 0.930 . S
H722 C738 0.931 . S
C723 H711 0.929 . S
C723 C717 1.390 . S
C723 C720 1.386 . S
C724 C719 1.490 1_655 S
C724 C726 1.395 . S
C724 C727 1.403 . S
H725 C731 0.930 . S
C726 H712 0.930 . S
C726 C724 1.395 . S
C726 C729 1.403 . S
C727 C724 1.403 . S
C727 C728 1.524 . S
C727 C731 1.400 . S
C728 H713 0.960 . S
C728 H714 0.953 1_655 S
C728 H715 0.960 1_655 S
C728 C727 1.524 . S
C729 C726 1.403 . S
C729 C730 1.392 . S
C729 C733 1.495 . S
C730 C729 1.392 . S
C730 C731 1.385 . S
C730 C732 1.478 . S
C731 H725 0.930 . S
C731 C727 1.400 . S
C731 C730 1.385 . S
C732 C730 1.478 . S
C732 C734 1.381 . S
C732 C738 1.383 . S
C733 C729 1.495 . S
C733 H739 0.959 . S
C733 H740 0.961 . S
C733 H741 0.960 . S
C734 C732 1.381 . S
C734 C735 1.394 . S
C734 H742 0.930 . S
C735 C734 1.394 . S
C735 C736 1.383 . S
C735 H743 0.929 . S
C736 C735 1.383 . S
C736 C737 1.377 . S
C737 H721 0.930 . S
C737 C736 1.377 . S
C737 C738 1.379 . S
C738 H722 0.931 . S
C738 C732 1.383 . S
C738 C737 1.379 . S
H739 C733 0.959 . S
H740 C733 0.961 . S
H741 C733 0.960 . S
H742 C734 0.930 . S
H743 C735 0.929 . S
H744 C752 0.929 . S
H745 C754 0.930 . S
H746 C756 0.930 . S
H747 C759 0.929 . S
H748 C762 0.930 . S
H749 C764 0.960 . S
H750 C764 0.960 . S
H751 C764 0.960 . S
C752 H744 0.929 . S
C752 C753 1.377 . S
C752 C754 1.384 . S
C753 C752 1.377 . S
C753 C759 1.390 . S
C754 H745 0.930 . S
C754 C752 1.384 . S
C754 C755 1.372 . S
C755 C754 1.372 . S
C755 C756 1.400 . S
C755 C760 1.490 . S
C756 H746 0.930 . S
C756 C755 1.400 . S
C756 C759 1.386 . S
H757 C773 0.930 . S
H758 C774 0.931 . S
C759 H747 0.929 . S
C759 C753 1.390 . S
C759 C756 1.386 . S
C760 C755 1.490 . S
C760 C762 1.395 . S
C760 C763 1.403 . S
H761 C767 0.930 . S
C762 H748 0.930 . S
C762 C760 1.395 . S
C762 C765 1.403 . S
C763 C760 1.403 . S
C763 C764 1.524 . S
C763 C767 1.400 . S
C764 H749 0.960 . S
C764 H750 0.960 . S
C764 H751 0.960 . S
C764 C763 1.524 . S
C765 C762 1.403 . S
C765 C766 1.392 . S
C765 C769 1.495 . S
C766 C765 1.392 . S
C766 C767 1.385 . S
C766 C768 1.478 . S
C767 H761 0.930 . S
C767 C763 1.400 . S
C767 C766 1.385 . S
C768 C766 1.478 . S
C768 C770 1.381 . S
C768 C774 1.383 . S
C769 C765 1.495 . S
C769 H775 0.959 . S
C769 H776 0.961 . S
C769 H777 0.960 . S
C770 C768 1.381 . S
C770 C771 1.394 . S
C770 H778 0.930 . S
C771 C770 1.394 . S
C771 C772 1.383 . S
C771 H779 0.929 . S
C772 C771 1.383 . S
C772 C773 1.377 . S
C773 H757 0.930 . S
C773 C772 1.377 . S
C773 C774 1.379 . S
C774 H758 0.931 . S
C774 C768 1.383 . S
C774 C773 1.379 . S
H775 C769 0.959 . S
H776 C769 0.961 . S
H777 C769 0.960 . S
H778 C770 0.930 . S
H779 C771 0.929 . S
H780 C788 0.929 . S
H781 C790 0.930 . S
H782 C792 0.930 . S
H783 C795 0.929 . S
H784 C798 0.930 . S
H785 C800 0.960 . S
H786 C800 0.960 . S
H787 C800 0.960 . S
C788 H780 0.929 . S
C788 C789 1.377 . S
C788 C790 1.384 . S
C789 C788 1.377 . S
C789 C795 1.390 . S
C790 H781 0.930 . S
C790 C788 1.384 . S
C790 C791 1.372 . S
C791 C790 1.372 . S
C791 C792 1.400 . S
C791 C796 1.490 . S
C792 H782 0.930 . S
C792 C791 1.400 . S
C792 C795 1.386 . S
H793 C809 0.930 . S
H794 C810 0.931 . S
C795 H783 0.929 . S
C795 C789 1.390 . S
C795 C792 1.386 . S
C796 C791 1.490 . S
C796 C798 1.395 . S
C796 C799 1.403 1_655 S
H797 C803 0.930 . S
C798 H784 0.930 . S
C798 C796 1.395 . S
C798 C801 1.403 1_655 S
C799 C796 1.403 1_455 S
C799 C800 1.524 . S
C799 C803 1.400 . S
C800 H785 0.960 . S
C800 H786 0.960 . S
C800 H787 0.960 . S
C800 C799 1.524 . S
C801 C798 1.403 1_455 S
C801 C802 1.392 . S
C801 C805 1.495 1_455 S
C802 C801 1.392 . S
C802 C803 1.385 . S
C802 C804 1.478 . S
C803 H797 0.930 . S
C803 C799 1.400 . S
C803 C802 1.385 . S
C804 C802 1.478 . S
C804 C806 1.381 . S
C804 C810 1.383 . S
C805 C801 1.495 1_655 S
C805 H811 0.959 . S
C805 H812 0.961 . S
C805 H813 0.960 1_655 S
C806 C804 1.381 . S
C806 C807 1.394 . S
C806 H814 0.930 . S
C807 C806 1.394 . S
C807 C808 1.383 . S
C807 H815 0.929 . S
C808 C807 1.383 . S
C808 C809 1.377 . S
C809 H793 0.930 . S
C809 C808 1.377 . S
C809 C810 1.379 . S
C810 H794 0.931 . S
C810 C804 1.383 . S
C810 C809 1.379 . S
H811 C805 0.959 . S
H812 C805 0.961 . S
H813 C805 0.960 1_455 S
H814 C806 0.930 . S
H815 C807 0.929 . S
H816 C824 0.929 . S
H817 C826 0.930 . S
H818 C828 0.930 . S
H819 C831 0.929 . S
H820 C834 0.930 . S
H821 C836 0.960 . S
H822 C836 0.960 . S
H823 C836 0.960 . S
C824 H816 0.929 . S
C824 C825 1.377 . S
C824 C826 1.384 . S
C825 C824 1.377 . S
C825 C831 1.390 . S
C826 H817 0.930 . S
C826 C824 1.384 . S
C826 C827 1.372 . S
C827 C826 1.372 . S
C827 C828 1.400 . S
C827 C832 1.490 . S
C828 H818 0.930 . S
C828 C827 1.400 . S
C828 C831 1.386 . S
H829 C845 0.930 . S
H830 C846 0.931 . S
C831 H819 0.929 . S
C831 C825 1.390 . S
C831 C828 1.386 . S
C832 C827 1.490 . S
C832 C834 1.395 . S
C832 C835 1.403 . S
H833 C839 0.930 . S
C834 H820 0.930 . S
C834 C832 1.395 . S
C834 C837 1.403 . S
C835 C832 1.403 . S
C835 C836 1.524 . S
C835 C839 1.400 . S
C836 H821 0.960 . S
C836 H822 0.960 . S
C836 H823 0.960 . S
C836 C835 1.524 . S
C837 C834 1.403 . S
C837 C838 1.392 . S
C837 C841 1.495 . S
C838 C837 1.392 . S
C838 C839 1.385 . S
C838 C840 1.478 . S
C839 H833 0.930 . S
C839 C835 1.400 . S
C839 C838 1.385 . S
C840 C838 1.478 . S
C840 C842 1.381 . S
C840 C846 1.383 . S
C841 C837 1.495 . S
C841 H847 0.959 . S
C841 H848 0.961 . S
C841 H849 0.960 . S
C842 C840 1.381 . S
C842 C843 1.394 . S
C842 H850 0.930 . S
C843 C842 1.394 . S
C843 C844 1.383 . S
C843 H851 0.929 . S
C844 C843 1.383 . S
C844 C845 1.377 . S
C845 H829 0.930 . S
C845 C844 1.377 . S
C845 C846 1.379 . S
C846 H830 0.931 . S
C846 C840 1.383 . S
C846 C845 1.379 . S
H847 C841 0.959 . S
H848 C841 0.961 . S
H849 C841 0.960 . S
H850 C842 0.930 . S
H851 C843 0.929 . S
H852 C860 0.929 . S
H853 C862 0.930 . S
H854 C864 0.930 . S
H855 C867 0.929 . S
H856 C870 0.930 . S
H857 C872 0.960 . S
H858 C872 0.960 . S
H859 C872 0.960 . S
C860 H852 0.929 . S
C860 C861 1.377 . S
C860 C862 1.384 . S
C861 C860 1.377 . S
C861 C867 1.390 . S
C862 H853 0.930 . S
C862 C860 1.384 . S
C862 C863 1.372 . S
C863 C862 1.372 . S
C863 C864 1.400 . S
C863 C868 1.490 . S
C864 H854 0.930 . S
C864 C863 1.400 . S
C864 C867 1.386 . S
H865 C881 0.930 . S
H866 C882 0.931 . S
C867 H855 0.929 . S
C867 C861 1.390 . S
C867 C864 1.386 . S
C868 C863 1.490 . S
C868 C870 1.395 . S
C868 C871 1.403 . S
H869 C875 0.930 . S
C870 H856 0.930 . S
C870 C868 1.395 . S
C870 C873 1.403 . S
C871 C868 1.403 . S
C871 C872 1.524 . S
C871 C875 1.400 . S
C872 H857 0.960 . S
C872 H858 0.960 . S
C872 H859 0.960 . S
C872 C871 1.524 . S
C873 C870 1.403 . S
C873 C874 1.392 . S
C873 C877 1.495 . S
C874 C873 1.392 . S
C874 C875 1.385 . S
C874 C876 1.478 . S
C875 H869 0.930 . S
C875 C871 1.400 . S
C875 C874 1.385 . S
C876 C874 1.478 . S
C876 C878 1.381 . S
C876 C882 1.383 . S
C877 C873 1.495 . S
C877 H883 0.959 . S
C877 H884 0.961 . S
C877 H885 0.960 . S
C878 C876 1.381 . S
C878 C879 1.394 . S
C878 H886 0.930 . S
C879 C878 1.394 . S
C879 C880 1.383 . S
C879 H887 0.929 . S
C880 C879 1.383 . S
C880 C881 1.377 . S
C881 H865 0.930 . S
C881 C880 1.377 . S
C881 C882 1.379 . S
C882 H866 0.931 . S
C882 C876 1.383 . S
C882 C881 1.379 . S
H883 C877 0.959 . S
H884 C877 0.961 . S
H885 C877 0.960 . S
H886 C878 0.930 . S
H887 C879 0.929 . S
H888 C896 0.929 . S
H889 C898 0.930 . S
H890 C900 0.930 . S
H891 C903 0.929 . S
H892 C906 0.930 . S
H893 C908 0.960 . S
H894 C908 0.960 . S
H895 C908 0.960 . S
C896 H888 0.929 . S
C896 C897 1.377 . S
C896 C898 1.384 . S
C897 C896 1.377 . S
C897 C903 1.390 . S
C898 H889 0.930 . S
C898 C896 1.384 . S
C898 C899 1.372 . S
C899 C898 1.372 . S
C899 C900 1.400 . S
C899 C904 1.490 . S
C900 H890 0.930 . S
C900 C899 1.400 . S
C900 C903 1.386 . S
H901 C917 0.930 . S
H902 C918 0.931 . S
C903 H891 0.929 . S
C903 C897 1.390 . S
C903 C900 1.386 . S
C904 C899 1.490 . S
C904 C906 1.395 . S
C904 C907 1.403 . S
H905 C911 0.930 . S
C906 H892 0.930 . S
C906 C904 1.395 . S
C906 C909 1.403 . S
C907 C904 1.403 . S
C907 C908 1.524 . S
C907 C911 1.400 . S
C908 H893 0.960 . S
C908 H894 0.960 . S
C908 H895 0.960 . S
C908 C907 1.524 . S
C909 C906 1.403 . S
C909 C910 1.392 . S
C909 C913 1.495 . S
C910 C909 1.392 . S
C910 C911 1.385 . S
C910 C912 1.478 . S
C911 H905 0.930 . S
C911 C907 1.400 . S
C911 C910 1.385 . S
C912 C910 1.478 . S
C912 C914 1.381 . S
C912 C918 1.383 . S
C913 C909 1.495 . S
C913 H919 0.959 . S
C913 H920 0.961 . S
C913 H921 0.960 . S
C914 C912 1.381 . S
C914 C915 1.394 . S
C914 H922 0.930 . S
C915 C914 1.394 . S
C915 C916 1.383 . S
C915 H923 0.929 . S
C916 C915 1.383 . S
C916 C917 1.377 . S
C917 H901 0.930 . S
C917 C916 1.377 . S
C917 C918 1.379 . S
C918 H902 0.931 . S
C918 C912 1.383 . S
C918 C917 1.379 . S
H919 C913 0.959 . S
H920 C913 0.961 . S
H921 C913 0.960 . S
H922 C914 0.930 . S
H923 C915 0.929 . S
H924 C932 0.929 . S
H925 C934 0.930 . S
H926 C936 0.930 . S
H927 C939 0.929 . S
H928 C942 0.930 . S
H929 C944 0.960 . S
H930 C944 0.960 . S
H931 C944 0.960 . S
C932 H924 0.929 . S
C932 C933 1.377 . S
C932 C934 1.384 . S
C933 C932 1.377 . S
C933 C939 1.390 . S
C934 H925 0.930 . S
C934 C932 1.384 . S
C934 C935 1.372 . S
C935 C934 1.372 . S
C935 C936 1.400 . S
C935 C940 1.490 . S
C936 H926 0.930 . S
C936 C935 1.400 . S
C936 C939 1.386 . S
H937 C953 0.930 . S
H938 C954 0.931 . S
C939 H927 0.929 . S
C939 C933 1.390 . S
C939 C936 1.386 . S
C940 C935 1.490 . S
C940 C942 1.395 . S
C940 C943 1.403 . S
H941 C947 0.930 . S
C942 H928 0.930 . S
C942 C940 1.395 . S
C942 C945 1.403 . S
C943 C940 1.403 . S
C943 C944 1.524 . S
C943 C947 1.400 . S
C944 H929 0.960 . S
C944 H930 0.960 . S
C944 H931 0.960 . S
C944 C943 1.524 . S
C945 C942 1.403 . S
C945 C946 1.392 . S
C945 C949 1.495 . S
C946 C945 1.392 . S
C946 C947 1.385 . S
C946 C948 1.478 . S
C947 H941 0.930 . S
C947 C943 1.400 . S
C947 C946 1.385 . S
C948 C946 1.478 . S
C948 C950 1.381 . S
C948 C954 1.383 . S
C949 C945 1.495 . S
C949 H955 0.959 . S
C949 H956 0.961 . S
C949 H957 0.960 . S
C950 C948 1.381 . S
C950 C951 1.394 . S
C950 H958 0.930 . S
C951 C950 1.394 . S
C951 C952 1.383 . S
C951 H959 0.929 . S
C952 C951 1.383 . S
C952 C953 1.377 . S
C953 H937 0.930 . S
C953 C952 1.377 . S
C953 C954 1.379 . S
C954 H938 0.931 . S
C954 C948 1.383 . S
C954 C953 1.379 . S
H955 C949 0.959 . S
H956 C949 0.961 . S
H957 C949 0.960 . S
H958 C950 0.930 . S
H959 C951 0.929 . S
H960 C968 0.929 . S
H961 C970 0.930 . S
H962 C972 0.930 . S
H963 C975 0.929 . S
H964 C978 0.930 . S
H965 C980 0.960 . S
H966 C980 0.960 . S
H967 C980 0.960 . S
C968 H960 0.929 . S
C968 C969 1.377 . S
C968 C970 1.384 . S
C969 C968 1.377 . S
C969 C975 1.390 . S
C970 H961 0.930 . S
C970 C968 1.384 . S
C970 C971 1.372 . S
C971 C970 1.372 . S
C971 C972 1.400 . S
C971 C976 1.490 . S
C972 H962 0.930 . S
C972 C971 1.400 . S
C972 C975 1.386 . S
H973 C989 0.930 . S
H974 C990 0.931 . S
C975 H963 0.929 . S
C975 C969 1.390 . S
C975 C972 1.386 . S
C976 C971 1.490 . S
C976 C978 1.395 . S
C976 C979 1.403 . S
H977 C983 0.930 . S
C978 H964 0.930 . S
C978 C976 1.395 . S
C978 C981 1.403 . S
C979 C976 1.403 . S
C979 C980 1.524 . S
C979 C983 1.400 . S
C980 H965 0.960 . S
C980 H966 0.960 . S
C980 H967 0.960 . S
C980 C979 1.524 . S
C981 C978 1.403 . S
C981 C982 1.392 . S
C981 C985 1.495 . S
C982 C981 1.392 . S
C982 C983 1.385 . S
C982 C984 1.478 . S
C983 H977 0.930 . S
C983 C979 1.400 . S
C983 C982 1.385 . S
C984 C982 1.478 . S
C984 C986 1.381 . S
C984 C990 1.383 . S
C985 C981 1.495 . S
C985 H991 0.959 . S
C985 H992 0.961 . S
C985 H993 0.960 . S
C986 C984 1.381 . S
C986 C987 1.394 . S
C986 H994 0.930 . S
C987 C986 1.394 . S
C987 C988 1.383 . S
C987 H995 0.929 . S
C988 C987 1.383 . S
C988 C989 1.377 . S
C989 H973 0.930 . S
C989 C988 1.377 . S
C989 C990 1.379 . S
C990 H974 0.931 . S
C990 C984 1.383 . S
C990 C989 1.379 . S
H991 C985 0.959 . S
H992 C985 0.961 . S
H993 C985 0.960 . S
H994 C986 0.930 . S
H995 C987 0.929 . S
H996 C1004 0.929 . S
H997 C1006 0.930 . S
H998 C1008 0.930 . S
H999 C1011 0.929 . S
H1000 C1014 0.930 . S
H1001 C1016 0.960 . S
H1002 C1016 0.960 . S
H1003 C1016 0.960 . S
C1004 H996 0.929 . S
C1004 C1005 1.377 . S
C1004 C1006 1.384 . S
C1005 C1004 1.377 . S
C1005 C1011 1.390 . S
C1006 H997 0.930 . S
C1006 C1004 1.384 . S
C1006 C1007 1.372 . S
C1007 C1006 1.372 . S
C1007 C1008 1.400 . S
C1007 C1012 1.490 . S
C1008 H998 0.930 . S
C1008 C1007 1.400 . S
C1008 C1011 1.386 . S
H1009 C1025 0.930 . S
H1010 C1026 0.931 . S
C1011 H999 0.929 . S
C1011 C1005 1.390 . S
C1011 C1008 1.386 . S
C1012 C1007 1.490 . S
C1012 C1014 1.395 . S
C1012 C1015 1.403 . S
H1013 C1019 0.930 . S
C1014 H1000 0.930 . S
C1014 C1012 1.395 . S
C1014 C1017 1.403 . S
C1015 C1012 1.403 . S
C1015 C1016 1.524 . S
C1015 C1019 1.400 . S
C1016 H1001 0.960 . S
C1016 H1002 0.960 . S
C1016 H1003 0.960 . S
C1016 C1015 1.524 . S
C1017 C1014 1.403 . S
C1017 C1018 1.392 . S
C1017 C1021 1.495 . S
C1018 C1017 1.392 . S
C1018 C1019 1.385 . S
C1018 C1020 1.478 . S
C1019 H1013 0.930 . S
C1019 C1015 1.400 . S
C1019 C1018 1.385 . S
C1020 C1018 1.478 . S
C1020 C1022 1.381 . S
C1020 C1026 1.383 . S
C1021 C1017 1.495 . S
C1021 H1027 0.959 . S
C1021 H1028 0.961 . S
C1021 H1029 0.960 . S
C1022 C1020 1.381 . S
C1022 C1023 1.394 . S
C1022 H1030 0.930 . S
C1023 C1022 1.394 . S
C1023 C1024 1.383 . S
C1023 H1031 0.929 . S
C1024 C1023 1.383 . S
C1024 C1025 1.377 . S
C1025 H1009 0.930 . S
C1025 C1024 1.377 . S
C1025 C1026 1.379 . S
C1026 H1010 0.931 . S
C1026 C1020 1.383 . S
C1026 C1025 1.379 . S
H1027 C1021 0.959 . S
H1028 C1021 0.961 . S
H1029 C1021 0.960 . S
H1030 C1022 0.930 . S
H1031 C1023 0.929 . S
H1032 C1040 0.929 . S
H1033 C1042 0.930 . S
H1034 C1044 0.930 . S
H1035 C1047 0.929 . S
H1036 C1050 0.930 . S
H1037 C1052 0.960 . S
H1038 C1052 0.960 . S
H1039 C1052 0.960 . S
C1040 H1032 0.929 . S
C1040 C1041 1.377 . S
C1040 C1042 1.384 . S
C1041 C1040 1.377 . S
C1041 C1047 1.390 . S
C1042 H1033 0.930 . S
C1042 C1040 1.384 . S
C1042 C1043 1.372 . S
C1043 C1042 1.372 . S
C1043 C1044 1.400 . S
C1043 C1048 1.490 . S
C1044 H1034 0.930 . S
C1044 C1043 1.400 . S
C1044 C1047 1.386 . S
H1045 C1061 0.930 . S
H1046 C1062 0.931 . S
C1047 H1035 0.929 . S
C1047 C1041 1.390 . S
C1047 C1044 1.386 . S
C1048 C1043 1.490 . S
C1048 C1050 1.395 . S
C1048 C1051 1.403 . S
H1049 C1055 0.930 . S
C1050 H1036 0.930 . S
C1050 C1048 1.395 . S
C1050 C1053 1.403 . S
C1051 C1048 1.403 . S
C1051 C1052 1.524 . S
C1051 C1055 1.400 . S
C1052 H1037 0.960 . S
C1052 H1038 0.960 . S
C1052 H1039 0.960 . S
C1052 C1051 1.524 . S
C1053 C1050 1.403 . S
C1053 C1054 1.392 . S
C1053 C1057 1.495 . S
C1054 C1053 1.392 . S
C1054 C1055 1.385 . S
C1054 C1056 1.478 . S
C1055 H1049 0.930 . S
C1055 C1051 1.400 . S
C1055 C1054 1.385 . S
C1056 C1054 1.478 . S
C1056 C1058 1.381 . S
C1056 C1062 1.383 . S
C1057 C1053 1.495 . S
C1057 H1063 0.959 . S
C1057 H1064 0.961 . S
C1057 H1065 0.960 . S
C1058 C1056 1.381 . S
C1058 C1059 1.394 . S
C1058 H1066 0.930 . S
C1059 C1058 1.394 . S
C1059 C1060 1.383 . S
C1059 H1067 0.929 . S
C1060 C1059 1.383 . S
C1060 C1061 1.377 . S
C1061 H1045 0.930 . S
C1061 C1060 1.377 . S
C1061 C1062 1.379 . S
C1062 H1046 0.931 . S
C1062 C1056 1.383 . S
C1062 C1061 1.379 . S
H1063 C1057 0.959 . S
H1064 C1057 0.961 . S
H1065 C1057 0.960 . S
H1066 C1058 0.930 . S
H1067 C1059 0.929 . S
H1068 C1076 0.929 . S
H1069 C1078 0.930 . S
H1070 C1080 0.930 . S
H1071 C1083 0.929 . S
H1072 C1086 0.930 . S
H1073 C1088 0.960 . S
H1074 C1088 0.960 . S
H1075 C1088 0.960 . S
C1076 H1068 0.929 . S
C1076 C1077 1.377 . S
C1076 C1078 1.384 . S
C1077 C1076 1.377 . S
C1077 C1083 1.390 . S
C1078 H1069 0.930 . S
C1078 C1076 1.384 . S
C1078 C1079 1.372 . S
C1079 C1078 1.372 . S
C1079 C1080 1.400 . S
C1079 C1084 1.490 . S
C1080 H1070 0.930 . S
C1080 C1079 1.400 . S
C1080 C1083 1.386 . S
H1081 C1097 0.930 . S
H1082 C1098 0.931 . S
C1083 H1071 0.929 . S
C1083 C1077 1.390 . S
C1083 C1080 1.386 . S
C1084 C1079 1.490 . S
C1084 C1086 1.395 . S
C1084 C1087 1.403 . S
H1085 C1091 0.930 . S
C1086 H1072 0.930 . S
C1086 C1084 1.395 . S
C1086 C1089 1.403 . S
C1087 C1084 1.403 . S
C1087 C1088 1.524 . S
C1087 C1091 1.400 . S
C1088 H1073 0.960 . S
C1088 H1074 0.960 . S
C1088 H1075 0.960 . S
C1088 C1087 1.524 . S
C1089 C1086 1.403 . S
C1089 C1090 1.392 . S
C1089 C1093 1.495 . S
C1090 C1089 1.392 . S
C1090 C1091 1.385 . S
C1090 C1092 1.478 . S
C1091 H1085 0.930 . S
C1091 C1087 1.400 . S
C1091 C1090 1.385 . S
C1092 C1090 1.478 . S
C1092 C1094 1.381 . S
C1092 C1098 1.383 . S
C1093 C1089 1.495 . S
C1093 H1099 0.959 . S
C1093 H1100 0.961 . S
C1093 H1101 0.960 . S
C1094 C1092 1.381 . S
C1094 C1095 1.394 . S
C1094 H1102 0.930 . S
C1095 C1094 1.394 . S
C1095 C1096 1.383 . S
C1095 H1103 0.929 . S
C1096 C1095 1.383 . S
C1096 C1097 1.377 . S
C1097 H1081 0.930 . S
C1097 C1096 1.377 . S
C1097 C1098 1.379 . S
C1098 H1082 0.931 . S
C1098 C1092 1.383 . S
C1098 C1097 1.379 . S
H1099 C1093 0.959 . S
H1100 C1093 0.961 . S
H1101 C1093 0.960 . S
H1102 C1094 0.930 . S
H1103 C1095 0.929 . S
C249 C7 1.426 . S
C268 C90 1.368 . S
C285 C37 1.441 . S
C304 C109 1.365 . S
C321 C54 1.147 . S
C340 C132 1.150 . S
C376 C151 1.202 . S
C357 C87 1.189 . S
C412 C166 1.326 . S
C393 C30 1.390 . S
C429 C51 1.198 . S
C448 C189 1.184 . S
C465 C84 1.204 . S
C484 C208 1.195 . S
C501 C10 1.401 . S
C520 C223 1.262 . S
C537 C59 1.270 . S
C556 C227 1.245 . S
C592 C170 1.083 . S
C573 C74 1.109 . S
C628 C185 1.262 . S
C609 C18 1.366 . S
C645 C32 1.496 . S
C664 C204 1.391 . S
C700 C113 1.253 . S
C681 C73 1.250 . S
C717 C15 1.501 . S
C736 C128 1.434 . S
C772 C147 1.295 . S
C753 C43 1.421 . S
C808 C94 1.093 . S
C789 C62 1.086 . S
C844 C213 1.303 . S
C825 C21 1.426 . S
C880 C232 1.280 . S
C861 C29 1.427 . S
C897 C52 1.291 . S
C916 C175 1.249 . S
C952 C194 1.258 . S
C933 C81 1.324 . S
C988 C137 1.311 . S
C969 C40 1.389 . S
C1005 C65 1.348 . S
C1024 C156 1.235 . S
C1060 C99 1.243 . S
C1041 C76 1.285 . S
C1096 C118 1.362 . S
C1077 C8 1.450 . S
