# Generated by pormake.
# Topology eea, (3,6)-cn, num edge types: 1
# Building blocks:
#     Node 0, Type 0, BuildingBlock: KAKCAD_clean_linker_0, # of connection points: 3
#     Node 1, Type 0, BuildingBlock: KAKCAD_clean_linker_0, # of connection points: 3
#     Node 2, Type 0, BuildingBlock: KAKCAD_clean_linker_0, # of connection points: 3
#     Node 3, Type 0, BuildingBlock: KAKCAD_clean_linker_0, # of connection points: 3
#     Node 4, Type 0, BuildingBlock: KAKCAD_clean_linker_0, # of connection points: 3
#     Node 5, Type 0, BuildingBlock: KAKCAD_clean_linker_0, # of connection points: 3
#     Node 6, Type 0, BuildingBlock: KAKCAD_clean_linker_0, # of connection points: 3
#     Node 7, Type 0, BuildingBlock: KAKCAD_clean_linker_0, # of connection points: 3
#     Node 8, Type 0, BuildingBlock: KAKCAD_clean_linker_0, # of connection points: 3
#     Node 9, Type 0, BuildingBlock: KAKCAD_clean_linker_0, # of connection points: 3
#     Node 10, Type 0, BuildingBlock: KAKCAD_clean_linker_0, # of connection points: 3
#     Node 11, Type 0, BuildingBlock: KAKCAD_clean_linker_0, # of connection points: 3
#     Node 12, Type 0, BuildingBlock: KAKCAD_clean_linker_0, # of connection points: 3
#     Node 13, Type 0, BuildingBlock: KAKCAD_clean_linker_0, # of connection points: 3
#     Node 14, Type 0, BuildingBlock: KAKCAD_clean_linker_0, # of connection points: 3
#     Node 15, Type 0, BuildingBlock: KAKCAD_clean_linker_0, # of connection points: 3
#     Node 16, Type 0, BuildingBlock: KAKCAD_clean_linker_0, # of connection points: 3
#     Node 17, Type 0, BuildingBlock: KAKCAD_clean_linker_0, # of connection points: 3
#     Node 18, Type 1, BuildingBlock: NUHQIS_clean_sbu_0, # of connection points: 6
#     Node 19, Type 1, BuildingBlock: NUHQIS_clean_sbu_0, # of connection points: 6
#     Node 20, Type 1, BuildingBlock: NUHQIS_clean_sbu_0, # of connection points: 6
#     Node 21, Type 1, BuildingBlock: NUHQIS_clean_sbu_0, # of connection points: 6
#     Node 22, Type 1, BuildingBlock: NUHQIS_clean_sbu_0, # of connection points: 6
#     Node 23, Type 1, BuildingBlock: NUHQIS_clean_sbu_0, # of connection points: 6
#     Node 24, Type 1, BuildingBlock: NUHQIS_clean_sbu_0, # of connection points: 6
#     Node 25, Type 1, BuildingBlock: NUHQIS_clean_sbu_0, # of connection points: 6
#     Node 26, Type 1, BuildingBlock: NUHQIS_clean_sbu_0, # of connection points: 6
#     Edge 27, Type (0, 1), BuildingBlock: MIFKUJ_clean_linker_0, # of connection points: 2
#     Edge 28, Type (0, 1), BuildingBlock: MIFKUJ_clean_linker_0, # of connection points: 2
#     Edge 29, Type (0, 1), BuildingBlock: MIFKUJ_clean_linker_0, # of connection points: 2
#     Edge 30, Type (0, 1), BuildingBlock: MIFKUJ_clean_linker_0, # of connection points: 2
#     Edge 31, Type (0, 1), BuildingBlock: MIFKUJ_clean_linker_0, # of connection points: 2
#     Edge 32, Type (0, 1), BuildingBlock: MIFKUJ_clean_linker_0, # of connection points: 2
#     Edge 33, Type (0, 1), BuildingBlock: MIFKUJ_clean_linker_0, # of connection points: 2
#     Edge 34, Type (0, 1), BuildingBlock: MIFKUJ_clean_linker_0, # of connection points: 2
#     Edge 35, Type (0, 1), BuildingBlock: MIFKUJ_clean_linker_0, # of connection points: 2
#     Edge 36, Type (0, 1), BuildingBlock: MIFKUJ_clean_linker_0, # of connection points: 2
#     Edge 37, Type (0, 1), BuildingBlock: MIFKUJ_clean_linker_0, # of connection points: 2
#     Edge 38, Type (0, 1), BuildingBlock: MIFKUJ_clean_linker_0, # of connection points: 2
#     Edge 39, Type (0, 1), BuildingBlock: MIFKUJ_clean_linker_0, # of connection points: 2
#     Edge 40, Type (0, 1), BuildingBlock: MIFKUJ_clean_linker_0, # of connection points: 2
#     Edge 41, Type (0, 1), BuildingBlock: MIFKUJ_clean_linker_0, # of connection points: 2
#     Edge 42, Type (0, 1), BuildingBlock: MIFKUJ_clean_linker_0, # of connection points: 2
#     Edge 43, Type (0, 1), BuildingBlock: MIFKUJ_clean_linker_0, # of connection points: 2
#     Edge 44, Type (0, 1), BuildingBlock: MIFKUJ_clean_linker_0, # of connection points: 2
#     Edge 45, Type (0, 1), BuildingBlock: MIFKUJ_clean_linker_0, # of connection points: 2
#     Edge 46, Type (0, 1), BuildingBlock: MIFKUJ_clean_linker_0, # of connection points: 2
#     Edge 47, Type (0, 1), BuildingBlock: MIFKUJ_clean_linker_0, # of connection points: 2
#     Edge 48, Type (0, 1), BuildingBlock: MIFKUJ_clean_linker_0, # of connection points: 2
#     Edge 49, Type (0, 1), BuildingBlock: MIFKUJ_clean_linker_0, # of connection points: 2
#     Edge 50, Type (0, 1), BuildingBlock: MIFKUJ_clean_linker_0, # of connection points: 2
#     Edge 51, Type (0, 1), BuildingBlock: MIFKUJ_clean_linker_0, # of connection points: 2
#     Edge 52, Type (0, 1), BuildingBlock: MIFKUJ_clean_linker_0, # of connection points: 2
#     Edge 53, Type (0, 1), BuildingBlock: MIFKUJ_clean_linker_0, # of connection points: 2
#     Edge 54, Type (0, 1), BuildingBlock: MIFKUJ_clean_linker_0, # of connection points: 2
#     Edge 55, Type (0, 1), BuildingBlock: MIFKUJ_clean_linker_0, # of connection points: 2
#     Edge 56, Type (0, 1), BuildingBlock: MIFKUJ_clean_linker_0, # of connection points: 2
#     Edge 57, Type (0, 1), BuildingBlock: MIFKUJ_clean_linker_0, # of connection points: 2
#     Edge 58, Type (0, 1), BuildingBlock: MIFKUJ_clean_linker_0, # of connection points: 2
#     Edge 59, Type (0, 1), BuildingBlock: MIFKUJ_clean_linker_0, # of connection points: 2
#     Edge 60, Type (0, 1), BuildingBlock: MIFKUJ_clean_linker_0, # of connection points: 2
#     Edge 61, Type (0, 1), BuildingBlock: MIFKUJ_clean_linker_0, # of connection points: 2
#     Edge 62, Type (0, 1), BuildingBlock: MIFKUJ_clean_linker_0, # of connection points: 2
#     Edge 63, Type (0, 1), BuildingBlock: MIFKUJ_clean_linker_0, # of connection points: 2
#     Edge 64, Type (0, 1), BuildingBlock: MIFKUJ_clean_linker_0, # of connection points: 2
#     Edge 65, Type (0, 1), BuildingBlock: MIFKUJ_clean_linker_0, # of connection points: 2
#     Edge 66, Type (0, 1), BuildingBlock: MIFKUJ_clean_linker_0, # of connection points: 2
#     Edge 67, Type (0, 1), BuildingBlock: MIFKUJ_clean_linker_0, # of connection points: 2
#     Edge 68, Type (0, 1), BuildingBlock: MIFKUJ_clean_linker_0, # of connection points: 2
#     Edge 69, Type (0, 1), BuildingBlock: MIFKUJ_clean_linker_0, # of connection points: 2
#     Edge 70, Type (0, 1), BuildingBlock: MIFKUJ_clean_linker_0, # of connection points: 2
#     Edge 71, Type (0, 1), BuildingBlock: MIFKUJ_clean_linker_0, # of connection points: 2
#     Edge 72, Type (0, 1), BuildingBlock: MIFKUJ_clean_linker_0, # of connection points: 2
#     Edge 73, Type (0, 1), BuildingBlock: MIFKUJ_clean_linker_0, # of connection points: 2
#     Edge 74, Type (0, 1), BuildingBlock: MIFKUJ_clean_linker_0, # of connection points: 2
#     Edge 75, Type (0, 1), BuildingBlock: MIFKUJ_clean_linker_0, # of connection points: 2
#     Edge 76, Type (0, 1), BuildingBlock: MIFKUJ_clean_linker_0, # of connection points: 2
#     Edge 77, Type (0, 1), BuildingBlock: MIFKUJ_clean_linker_0, # of connection points: 2
#     Edge 78, Type (0, 1), BuildingBlock: MIFKUJ_clean_linker_0, # of connection points: 2
#     Edge 79, Type (0, 1), BuildingBlock: MIFKUJ_clean_linker_0, # of connection points: 2
#     Edge 80, Type (0, 1), BuildingBlock: MIFKUJ_clean_linker_0, # of connection points: 2
# Relax obj value: 0.034
# Max RMSD: 0.135
# Mean RMSD: 0.066
data_MOF--net-eea--node1-NUHQIS_clean_sbu_0--node2-KAKCAD_clean_linker_0--edge1-MIFKUJ_clean_linker_0
_symmetry_space_group_name_H-M    P1
_symmetry_Int_Tables_number       1
_symmetry_cell_setting            triclinic
loop_
_symmetry_equiv_pos_as_xyz
'x, y, z'
_cell_length_a     78.509514
_cell_length_b     78.83969
_cell_length_c     107.99127
_cell_angle_alpha  93.590071
_cell_angle_beta   93.625386
_cell_angle_gamma 119.96224
loop_
_atom_site_label
_atom_site_type_symbol
_atom_site_fract_x
_atom_site_fract_y
_atom_site_fract_z
_atom_type_partial_charge
C0 C 0.29182 0.15898 0.46785 0.0
C1 C 0.30543 0.15368 0.47253 0.0
C2 C 0.287 0.1575 0.45501 0.0
C3 C 0.29576 0.15078 0.44651 0.0
C4 C 0.30958 0.14574 0.45118 0.0
C5 C 0.31434 0.14714 0.46404 0.0
C6 C 0.29006 0.14854 0.43286 0.0
C7 C 0.28665 0.16245 0.42745 0.0
C8 C 0.28016 0.15983 0.41469 0.0
C9 C 0.27766 0.14335 0.40722 0.0
C10 C 0.28085 0.12915 0.41245 0.0
C11 C 0.28706 0.13192 0.42529 0.0
C12 C 0.27634 0.11073 0.40479 0.0
C13 C 0.2598 0.10122 0.39575 0.0
C14 C 0.28784 0.10189 0.40695 0.0
C15 C 0.28242 0.08359 0.40066 0.0
C16 C 0.26548 0.07377 0.39193 0.0
C17 C 0.2746 0.17351 0.40937 0.0
C18 C 0.26305 0.17935 0.4158 0.0
C19 C 0.27995 0.1801 0.39767 0.0
C20 C 0.27369 0.19213 0.39246 0.0
C21 C 0.26188 0.19774 0.39882 0.0
C22 C 0.25673 0.19128 0.41058 0.0
C23 C 0.25452 0.08306 0.38934 0.0
H24 H 0.28489 0.16434 0.47411 0.0
H25 H 0.2761 0.16127 0.45175 0.0
H26 H 0.31675 0.1407 0.4449 0.0
H27 H 0.32475 0.14276 0.46732 0.0
H28 H 0.289 0.17538 0.43318 0.0
H29 H 0.28867 0.12064 0.42955 0.0
H30 H 0.27264 0.1413 0.39737 0.0
H31 H 0.25043 0.10743 0.3939 0.0
H32 H 0.30088 0.10894 0.41369 0.0
H33 H 0.29114 0.07686 0.403 0.0
H34 H 0.25838 0.17421 0.42473 0.0
H35 H 0.28899 0.17596 0.39256 0.0
H36 H 0.24161 0.07613 0.38251 0.0
H37 H 0.24734 0.19499 0.41564 0.0
H38 H 0.27815 0.19708 0.38346 0.0
C39 C 0.89127 0.18485 0.47445 0.0
C40 C 0.88135 0.17085 0.48271 0.0
C41 C 0.89408 0.17897 0.46261 0.0
C42 C 0.88715 0.15897 0.45886 0.0
C43 C 0.87771 0.14509 0.4673 0.0
C44 C 0.87478 0.15095 0.47905 0.0
C45 C 0.88943 0.15241 0.44615 0.0
C46 C 0.90694 0.16336 0.44063 0.0
C47 C 0.90926 0.15685 0.42875 0.0
C48 C 0.89384 0.13895 0.42252 0.0
C49 C 0.87627 0.12769 0.42792 0.0
C50 C 0.8741 0.1348 0.43962 0.0
C51 C 0.86044 0.10819 0.42161 0.0
C52 C 0.85609 0.10493 0.40854 0.0
C53 C 0.84981 0.09247 0.42867 0.0
C54 C 0.8353 0.07403 0.42285 0.0
C55 C 0.83122 0.07062 0.40977 0.0
C56 C 0.92782 0.16863 0.42291 0.0
C57 C 0.93748 0.18932 0.42416 0.0
C58 C 0.9359 0.15928 0.41587 0.0
C59 C 0.95292 0.1703 0.41005 0.0
C60 C 0.96251 0.19099 0.41122 0.0
C61 C 0.95464 0.20035 0.41845 0.0
C62 C 0.84175 0.08636 0.40269 0.0
H63 H 0.89638 0.20028 0.47701 0.0
H64 H 0.90127 0.19002 0.45631 0.0
H65 H 0.87263 0.12965 0.46486 0.0
H66 H 0.86742 0.13987 0.48531 0.0
H67 H 0.91902 0.17667 0.44575 0.0
H68 H 0.86031 0.12666 0.44364 0.0
H69 H 0.89561 0.13369 0.41346 0.0
H70 H 0.86375 0.11673 0.40279 0.0
H71 H 0.85289 0.09426 0.43873 0.0
H72 H 0.82729 0.06243 0.42865 0.0
H73 H 0.93161 0.19704 0.4294 0.0
H74 H 0.9291 0.14341 0.41486 0.0
H75 H 0.83919 0.0843 0.3926 0.0
H76 H 0.96176 0.21626 0.41975 0.0
H77 H 0.95835 0.16252 0.40444 0.0
C78 C 0.89242 0.74406 0.4803 0.0
C79 C 0.87294 0.73088 0.48262 0.0
C80 C 0.89626 0.75185 0.46883 0.0
C81 C 0.88071 0.7465 0.45939 0.0
C82 C 0.86127 0.73299 0.46168 0.0
C83 C 0.85743 0.72536 0.47317 0.0
C84 C 0.88462 0.75518 0.44728 0.0
C85 C 0.90144 0.75853 0.44151 0.0
C86 C 0.90512 0.7667 0.43008 0.0
C87 C 0.89151 0.77124 0.42432 0.0
C88 C 0.87457 0.76797 0.42991 0.0
C89 C 0.87143 0.76016 0.44145 0.0
C90 C 0.86008 0.77266 0.42376 0.0
C91 C 0.86647 0.78954 0.41743 0.0
C92 C 0.83966 0.7603 0.42427 0.0
C93 C 0.82603 0.76479 0.41872 0.0
C94 C 0.83239 0.78166 0.4124 0.0
C95 C 0.92324 0.77061 0.42419 0.0
C96 C 0.94154 0.77846 0.43151 0.0
C97 C 0.92246 0.76681 0.4112 0.0
C98 C 0.93957 0.77096 0.40567 0.0
C99 C 0.95789 0.77896 0.41298 0.0
C100 C 0.95864 0.78256 0.42598 0.0
C101 C 0.8528 0.79394 0.41179 0.0
H102 H 0.90465 0.74872 0.48746 0.0
H103 H 0.91137 0.7624 0.46748 0.0
H104 H 0.84897 0.72818 0.45455 0.0
H105 H 0.8423 0.71499 0.47462 0.0
H106 H 0.91148 0.75436 0.44578 0.0
H107 H 0.85886 0.75835 0.44607 0.0
H108 H 0.89415 0.77737 0.41547 0.0
H109 H 0.88207 0.79953 0.41696 0.0
H110 H 0.83414 0.74703 0.4289 0.0
H111 H 0.81048 0.7551 0.41955 0.0
H112 H 0.94275 0.78185 0.44152 0.0
H113 H 0.90857 0.76045 0.4053 0.0
H114 H 0.85827 0.80692 0.40687 0.0
H115 H 0.97256 0.78896 0.43186 0.0
H116 H 0.93842 0.76771 0.39565 0.0
C117 C 0.11638 0.23892 0.53011 0.0
C118 C 0.11356 0.25463 0.52738 0.0
C119 C 0.11318 0.23188 0.5418 0.0
C120 C 0.10693 0.24026 0.55103 0.0
C121 C 0.10357 0.25559 0.54822 0.0
C122 C 0.1069 0.26273 0.53655 0.0
C123 C 0.10461 0.23351 0.56369 0.0
C124 C 0.1191 0.2305 0.56975 0.0
C125 C 0.11742 0.2246 0.58183 0.0
C126 C 0.10098 0.22172 0.58787 0.0
C127 C 0.08606 0.22427 0.58189 0.0
C128 C 0.08811 0.23026 0.56979 0.0
C129 C 0.06823 0.22035 0.58819 0.0
C130 C 0.05989 0.20497 0.59585 0.0
C131 C 0.05925 0.23182 0.58654 0.0
C132 C 0.04237 0.2279 0.5923 0.0
C133 C 0.03424 0.21264 0.60001 0.0
C134 C 0.13284 0.22136 0.58807 0.0
C135 C 0.1402 0.21088 0.58149 0.0
C136 C 0.14032 0.22869 0.60061 0.0
C137 C 0.15489 0.22569 0.60642 0.0
C138 C 0.16225 0.21515 0.59985 0.0
C139 C 0.15467 0.20777 0.58732 0.0
C140 C 0.04322 0.20127 0.60175 0.0
H141 H 0.1211 0.23204 0.5232 0.0
H142 H 0.11558 0.21984 0.54362 0.0
H143 H 0.09895 0.26248 0.55519 0.0
H144 H 0.10482 0.275 0.53486 0.0
H145 H 0.13202 0.23327 0.56518 0.0
H146 H 0.07661 0.2319 0.56492 0.0
H147 H 0.09979 0.21733 0.59723 0.0
H148 H 0.06604 0.19552 0.59715 0.0
H149 H 0.06538 0.244 0.58091 0.0
H150 H 0.03585 0.23702 0.5909 0.0
H151 H 0.13453 0.20481 0.57187 0.0
H152 H 0.13513 0.23704 0.60587 0.0
H153 H 0.0371 0.18926 0.60753 0.0
H154 H 0.15968 0.19928 0.58202 0.0
H155 H 0.1606 0.23188 0.61601 0.0
C156 C 0.68601 0.81493 0.55002 0.0
C157 C 0.69317 0.82978 0.54198 0.0
C158 C 0.69122 0.81968 0.5629 0.0
C159 C 0.70384 0.83936 0.56799 0.0
C160 C 0.71123 0.85414 0.55989 0.0
C161 C 0.70589 0.84941 0.54704 0.0
C162 C 0.7093 0.84446 0.5817 0.0
C163 C 0.71363 0.83251 0.58884 0.0
C164 C 0.71915 0.83734 0.60179 0.0
C165 C 0.72021 0.85439 0.60756 0.0
C166 C 0.71664 0.86683 0.60049 0.0
C167 C 0.71092 0.86165 0.58762 0.0
C168 C 0.7208 0.88617 0.60634 0.0
C169 C 0.71342 0.88779 0.6176 0.0
C170 C 0.73336 0.90334 0.60101 0.0
C171 C 0.73894 0.92182 0.60701 0.0
C172 C 0.73186 0.92348 0.61837 0.0
C173 C 0.72525 0.82542 0.60904 0.0
C174 C 0.71615 0.80494 0.60597 0.0
C175 C 0.741 0.8346 0.61865 0.0
C176 C 0.74777 0.82369 0.6248 0.0
C177 C 0.7393 0.80338 0.62132 0.0
C178 C 0.7232 0.7941 0.61195 0.0
C179 C 0.71877 0.90632 0.62352 0.0
H180 H 0.676 0.7997 0.54637 0.0
H181 H 0.68509 0.80797 0.56889 0.0
H182 H 0.72132 0.86939 0.56346 0.0
H183 H 0.71185 0.86111 0.54103 0.0
H184 H 0.71355 0.81991 0.58416 0.0
H185 H 0.70779 0.87112 0.58224 0.0
H186 H 0.72455 0.85845 0.6175 0.0
H187 H 0.7037 0.87473 0.62187 0.0
H188 H 0.7394 0.9025 0.5924 0.0
H189 H 0.74894 0.93486 0.60283 0.0
H190 H 0.70374 0.79727 0.5988 0.0
H191 H 0.74862 0.85036 0.6212 0.0
H192 H 0.71318 0.90728 0.6323 0.0
H193 H 0.71637 0.77853 0.60889 0.0
H194 H 0.75989 0.83132 0.63216 0.0
C195 C 0.11066 0.83296 0.54134 0.0
C196 C 0.1296 0.83869 0.53786 0.0
C197 C 0.10806 0.83596 0.55383 0.0
C198 C 0.12433 0.84465 0.56309 0.0
C199 C 0.14313 0.84976 0.55961 0.0
C200 C 0.14574 0.84689 0.54715 0.0
C201 C 0.122 0.84906 0.57628 0.0
C202 C 0.10559 0.83577 0.58201 0.0
C203 C 0.10366 0.84002 0.59451 0.0
C204 C 0.11851 0.85763 0.60134 0.0
C205 C 0.13483 0.87136 0.5957 0.0
C206 C 0.13627 0.86691 0.58313 0.0
C207 C 0.14995 0.89069 0.60265 0.0
C208 C 0.14454 0.90058 0.61145 0.0
C209 C 0.16981 0.89989 0.60011 0.0
C210 C 0.18359 0.91881 0.6057 0.0
C211 C 0.17807 0.92893 0.61425 0.0
C212 C 0.08574 0.82652 0.60032 0.0
C213 C 0.06685 0.81922 0.59394 0.0
C214 C 0.08731 0.82156 0.61244 0.0
C215 C 0.07033 0.80975 0.61813 0.0
C216 C 0.05139 0.80278 0.61187 0.0
C217 C 0.04989 0.80757 0.59966 0.0
C218 C 0.15844 0.91931 0.61727 0.0
H219 H 0.09797 0.82672 0.53435 0.0
H220 H 0.0934 0.83202 0.55617 0.0
H221 H 0.15591 0.85607 0.56654 0.0
H222 H 0.16045 0.85109 0.54479 0.0
H223 H 0.09443 0.82197 0.57683 0.0
H224 H 0.14825 0.87767 0.57848 0.0
H225 H 0.11709 0.86077 0.61101 0.0
H226 H 0.12941 0.89417 0.61362 0.0
H227 H 0.17474 0.89263 0.59364 0.0
H228 H 0.19843 0.92565 0.60297 0.0
H229 H 0.06518 0.82303 0.58465 0.0
H230 H 0.10169 0.82681 0.61752 0.0
H231 H 0.15364 0.9263 0.62403 0.0
H232 H 0.03559 0.80279 0.59462 0.0
H233 H 0.07208 0.80608 0.62744 0.0
C234 C 0.96287 0.49802 0.80206 0.0
C235 C 0.9755 0.49181 0.80709 0.0
C236 C 0.95737 0.49507 0.78923 0.0
C237 C 0.96457 0.48606 0.7811 0.0
C238 C 0.97752 0.48017 0.78615 0.0
C239 C 0.98284 0.48292 0.79903 0.0
C240 C 0.95787 0.48216 0.76749 0.0
C241 C 0.9546 0.49566 0.76139 0.0
C242 C 0.946 0.49115 0.74895 0.0
C243 C 0.94182 0.47332 0.74235 0.0
C244 C 0.94559 0.45988 0.74814 0.0
C245 C 0.95344 0.46436 0.76075 0.0
C246 C 0.94038 0.44068 0.74127 0.0
C247 C 0.92283 0.43005 0.7331 0.0
C248 C 0.95267 0.4326 0.74306 0.0
C249 C 0.94733 0.41417 0.73703 0.0
C250 C 0.92972 0.40352 0.72897 0.0
C251 C 0.94002 0.50436 0.7432 0.0
C252 C 0.93259 0.51413 0.75045 0.0
C253 C 0.94074 0.50659 0.73039 0.0
C254 C 0.93366 0.51782 0.72492 0.0
C255 C 0.92595 0.52732 0.73217 0.0
C256 C 0.92587 0.52561 0.74505 0.0
C257 C 0.91762 0.41171 0.72697 0.0
H258 H 0.95678 0.50465 0.80809 0.0
H259 H 0.94701 0.49939 0.78573 0.0
H260 H 0.98356 0.47344 0.78015 0.0
H261 H 0.99276 0.47817 0.80269 0.0
H262 H 0.95856 0.50967 0.76643 0.0
H263 H 0.95524 0.45355 0.76548 0.0
H264 H 0.93519 0.46966 0.73276 0.0
H265 H 0.91282 0.43561 0.73167 0.0
H266 H 0.96643 0.44053 0.74914 0.0
H267 H 0.95702 0.40825 0.73864 0.0
H268 H 0.93145 0.51255 0.7603 0.0
H269 H 0.94663 0.49956 0.72452 0.0
H270 H 0.9038 0.40367 0.72095 0.0
H271 H 0.92049 0.53305 0.75101 0.0
H272 H 0.93383 0.51863 0.71496 0.0
C273 C 0.56399 0.51153 0.80883 0.0
C274 C 0.55866 0.49816 0.81786 0.0
C275 C 0.56508 0.5057 0.79653 0.0
C276 C 0.56065 0.48634 0.79301 0.0
C277 C 0.5556 0.47309 0.80209 0.0
C278 C 0.55466 0.47894 0.81437 0.0
C279 C 0.56062 0.47968 0.77984 0.0
C280 C 0.57627 0.49117 0.77294 0.0
C281 C 0.57637 0.48466 0.76052 0.0
C282 C 0.56034 0.46653 0.75501 0.0
C283 C 0.54469 0.45481 0.76183 0.0
C284 C 0.54494 0.46152 0.77421 0.0
C285 C 0.52831 0.43528 0.75616 0.0
C286 C 0.51929 0.43292 0.74402 0.0
C287 C 0.52168 0.41881 0.76287 0.0
C288 C 0.50641 0.40035 0.75756 0.0
C289 C 0.49732 0.39793 0.74543 0.0
C290 C 0.59347 0.49639 0.75343 0.0
C291 C 0.60315 0.51708 0.75468 0.0
C292 C 0.60042 0.48694 0.74546 0.0
C293 C 0.61653 0.49786 0.73887 0.0
C294 C 0.62631 0.51856 0.74017 0.0
C295 C 0.6194 0.52803 0.74816 0.0
C296 C 0.50392 0.41446 0.73873 0.0
H297 H 0.56729 0.52648 0.81127 0.0
H298 H 0.56892 0.51619 0.7897 0.0
H299 H 0.5523 0.45813 0.79968 0.0
H300 H 0.55031 0.46823 0.82108 0.0
H301 H 0.5887 0.50486 0.77743 0.0
H302 H 0.53269 0.4527 0.77942 0.0
H303 H 0.56013 0.46136 0.74543 0.0
H304 H 0.52395 0.44541 0.73868 0.0
H305 H 0.52855 0.42013 0.77218 0.0
H306 H 0.502 0.3879 0.76291 0.0
H307 H 0.59811 0.52487 0.76064 0.0
H308 H 0.59357 0.47106 0.7444 0.0
H309 H 0.49706 0.4132 0.72944 0.0
H310 H 0.62667 0.54394 0.74953 0.0
H311 H 0.62122 0.49002 0.73267 0.0
C312 C 0.55672 0.07765 0.81285 0.0
C313 C 0.5374 0.06399 0.8152 0.0
C314 C 0.56038 0.08485 0.80121 0.0
C315 C 0.5448 0.07847 0.79162 0.0
C316 C 0.52552 0.06463 0.79395 0.0
C317 C 0.52186 0.05752 0.8056 0.0
C318 C 0.54856 0.08628 0.77926 0.0
C319 C 0.5654 0.08931 0.77366 0.0
C320 C 0.56905 0.09669 0.762 0.0
C321 C 0.55517 0.10047 0.75575 0.0
C322 C 0.53815 0.09752 0.76116 0.0
C323 C 0.53525 0.09072 0.77302 0.0
C324 C 0.52345 0.10162 0.75452 0.0
C325 C 0.52944 0.11671 0.74664 0.0
C326 C 0.50322 0.09051 0.75611 0.0
C327 C 0.48953 0.0947 0.75029 0.0
C328 C 0.49549 0.10976 0.74238 0.0
C329 C 0.5875 0.10075 0.75644 0.0
C330 C 0.60555 0.10853 0.76407 0.0
C331 C 0.58735 0.09727 0.74348 0.0
C332 C 0.60481 0.10179 0.73828 0.0
C333 C 0.6228 0.10966 0.74593 0.0
C334 C 0.62296 0.11281 0.75888 0.0
C335 C 0.51565 0.12054 0.74053 0.0
H336 H 0.56898 0.0831 0.8201 0.0
H337 H 0.57537 0.09569 0.79979 0.0
H338 H 0.51323 0.05911 0.78672 0.0
H339 H 0.50686 0.04676 0.80706 0.0
H340 H 0.57551 0.08554 0.7783 0.0
H341 H 0.52278 0.08926 0.77761 0.0
H342 H 0.55774 0.10583 0.74669 0.0
H343 H 0.54485 0.12586 0.74525 0.0
H344 H 0.4978 0.07846 0.76185 0.0
H345 H 0.47429 0.0862 0.7522 0.0
H346 H 0.60636 0.11174 0.77406 0.0
H347 H 0.57372 0.09093 0.73732 0.0
H348 H 0.52094 0.13199 0.73435 0.0
H349 H 0.63665 0.11904 0.76498 0.0
H350 H 0.60422 0.09896 0.72827 0.0
C351 C 0.79087 0.57934 0.8667 0.0
C352 C 0.78933 0.59604 0.86489 0.0
C353 C 0.78748 0.57141 0.87811 0.0
C354 C 0.78227 0.57986 0.88793 0.0
C355 C 0.78059 0.59649 0.88611 0.0
C356 C 0.78422 0.60459 0.87473 0.0
C357 C 0.77857 0.57124 0.90001 0.0
C358 C 0.7917 0.56603 0.90563 0.0
C359 C 0.7881 0.55719 0.91683 0.0
C360 C 0.7709 0.5534 0.9223 0.0
C361 C 0.75775 0.55877 0.91689 0.0
C362 C 0.76178 0.56784 0.90581 0.0
C363 C 0.73966 0.55471 0.92276 0.0
C364 C 0.72691 0.53589 0.9262 0.0
C365 C 0.73503 0.56963 0.92496 0.0
C366 C 0.71812 0.56586 0.93064 0.0
C367 C 0.70531 0.54701 0.93402 0.0
C368 C 0.80249 0.55225 0.92287 0.0
C369 C 0.8123 0.54508 0.91562 0.0
C370 C 0.80687 0.55511 0.93593 0.0
C371 C 0.82075 0.55101 0.94158 0.0
C372 C 0.83072 0.5441 0.93431 0.0
C373 C 0.82631 0.54114 0.92127 0.0
C374 C 0.70982 0.53203 0.93167 0.0
H375 H 0.79494 0.57254 0.85933 0.0
H376 H 0.78872 0.55849 0.87921 0.0
H377 H 0.7767 0.60337 0.89354 0.0
H378 H 0.78281 0.61739 0.87356 0.0
H379 H 0.80502 0.56933 0.90139 0.0
H380 H 0.75148 0.57163 0.90146 0.0
H381 H 0.76771 0.54632 0.93082 0.0
H382 H 0.73007 0.52409 0.92453 0.0
H383 H 0.74466 0.58429 0.92245 0.0
H384 H 0.71494 0.57765 0.93229 0.0
H385 H 0.80907 0.54236 0.90556 0.0
H386 H 0.79991 0.56093 0.94182 0.0
H387 H 0.70027 0.51739 0.93426 0.0
H388 H 0.83356 0.53558 0.91543 0.0
H389 H 0.82402 0.55368 0.95164 0.0
C390 C 0.34196 0.15283 0.88536 0.0
C391 C 0.3512 0.16818 0.8778 0.0
C392 C 0.34732 0.15616 0.89826 0.0
C393 C 0.36196 0.17491 0.90385 0.0
C394 C 0.37134 0.19016 0.89627 0.0
C395 C 0.36606 0.18683 0.8834 0.0
C396 C 0.36749 0.17868 0.91755 0.0
C397 C 0.37089 0.16554 0.92399 0.0
C398 C 0.3772 0.16962 0.93687 0.0
C399 C 0.37968 0.18692 0.9433 0.0
C400 C 0.37661 0.20031 0.93694 0.0
C401 C 0.37034 0.19599 0.92411 0.0
C402 C 0.38145 0.21953 0.94346 0.0
C403 C 0.37511 0.22076 0.95519 0.0
C404 C 0.39314 0.23692 0.93808 0.0
C405 C 0.39856 0.25519 0.94433 0.0
C406 C 0.39228 0.25655 0.95607 0.0
C407 C 0.38269 0.15666 0.94334 0.0
C408 C 0.37174 0.13608 0.94041 0.0
C409 C 0.39959 0.16489 0.9521 0.0
C410 C 0.40556 0.15291 0.95763 0.0
C411 C 0.3949 0.13243 0.95445 0.0
C412 C 0.37784 0.1241 0.94586 0.0
C413 C 0.3804 0.2391 0.96142 0.0
H414 H 0.33032 0.13834 0.88135 0.0
H415 H 0.33976 0.14416 0.90389 0.0
H416 H 0.38296 0.20467 0.90029 0.0
H417 H 0.37378 0.19886 0.87783 0.0
H418 H 0.36957 0.15263 0.91882 0.0
H419 H 0.36773 0.2062 0.9192 0.0
H420 H 0.38466 0.19034 0.9532 0.0
H421 H 0.36599 0.20755 0.9595 0.0
H422 H 0.39856 0.23642 0.92916 0.0
H423 H 0.40813 0.2683 0.94006 0.0
H424 H 0.35851 0.12923 0.93384 0.0
H425 H 0.40864 0.18069 0.9544 0.0
H426 H 0.37514 0.2396 0.97039 0.0
H427 H 0.36925 0.10831 0.94334 0.0
H428 H 0.41894 0.15975 0.96408 0.0
C429 C 0.77549 0.16823 0.87333 0.0
C430 C 0.79445 0.17305 0.87033 0.0
C431 C 0.77248 0.17196 0.88559 0.0
C432 C 0.78835 0.18052 0.89512 0.0
C433 C 0.80713 0.1846 0.89218 0.0
C434 C 0.81016 0.18095 0.87993 0.0
C435 C 0.78562 0.18638 0.90787 0.0
C436 C 0.76848 0.17427 0.91347 0.0
C437 C 0.76544 0.18042 0.92523 0.0
C438 C 0.77975 0.19894 0.93133 0.0
C439 C 0.79698 0.21108 0.92591 0.0
C440 C 0.79987 0.20469 0.91425 0.0
C441 C 0.81165 0.23082 0.93219 0.0
C442 C 0.80564 0.24412 0.93619 0.0
C443 C 0.8318 0.23666 0.93392 0.0
C444 C 0.84571 0.2555 0.93957 0.0
C445 C 0.83973 0.26892 0.94337 0.0
C446 C 0.7472 0.16779 0.93108 0.0
C447 C 0.72865 0.15772 0.92392 0.0
C448 C 0.74816 0.16619 0.94397 0.0
C449 C 0.73094 0.1551 0.94961 0.0
C450 C 0.71237 0.14529 0.94248 0.0
C451 C 0.71142 0.14658 0.92955 0.0
C452 C 0.81959 0.26307 0.94164 0.0
H453 H 0.76313 0.1623 0.86611 0.0
H454 H 0.75787 0.16885 0.88749 0.0
H455 H 0.81959 0.19085 0.89935 0.0
H456 H 0.82486 0.18449 0.87794 0.0
H457 H 0.75761 0.15995 0.90874 0.0
H458 H 0.81289 0.21442 0.90991 0.0
H459 H 0.77743 0.20407 0.94027 0.0
H460 H 0.7902 0.23998 0.93487 0.0
H461 H 0.83675 0.22662 0.93093 0.0
H462 H 0.86118 0.25973 0.94076 0.0
H463 H 0.72737 0.15886 0.914 0.0
H464 H 0.76225 0.17349 0.94972 0.0
H465 H 0.81463 0.27314 0.94456 0.0
H466 H 0.69731 0.13939 0.92383 0.0
H467 H 0.7322 0.15412 0.95955 0.0
C468 C 0.61745 0.82983 0.13372 0.0
C469 C 0.63023 0.82426 0.13937 0.0
C470 C 0.613 0.82691 0.12078 0.0
C471 C 0.62146 0.8186 0.11317 0.0
C472 C 0.6345 0.81329 0.11885 0.0
C473 C 0.63874 0.81598 0.13183 0.0
C474 C 0.61616 0.81498 0.0994 0.0
C475 C 0.61292 0.82826 0.09301 0.0
C476 C 0.60603 0.82411 0.08024 0.0
C477 C 0.60345 0.80689 0.07368 0.0
C478 C 0.60709 0.79362 0.07982 0.0
C479 C 0.61326 0.79772 0.0927 0.0
C480 C 0.60346 0.77495 0.07299 0.0
C481 C 0.58693 0.76405 0.06404 0.0
C482 C 0.61611 0.76753 0.07568 0.0
C483 C 0.61204 0.74939 0.06982 0.0
C484 C 0.59534 0.7384 0.06105 0.0
C485 C 0.60035 0.83715 0.07402 0.0
C486 C 0.59082 0.84552 0.08047 0.0
C487 C 0.60373 0.84084 0.06157 0.0
C488 C 0.59754 0.85246 0.05569 0.0
C489 C 0.58809 0.8608 0.0622 0.0
C490 C 0.58489 0.8573 0.07465 0.0
C491 C 0.58298 0.74601 0.0581 0.0
H492 H 0.61051 0.83601 0.13935 0.0
H493 H 0.60255 0.83076 0.11678 0.0
H494 H 0.6415 0.80713 0.11328 0.0
H495 H 0.6488 0.81175 0.13598 0.0
H496 H 0.61564 0.84186 0.09803 0.0
H497 H 0.61498 0.78702 0.09762 0.0
H498 H 0.59818 0.80357 0.06383 0.0
H499 H 0.57667 0.76912 0.06189 0.0
H500 H 0.62915 0.7757 0.08236 0.0
H501 H 0.62193 0.74394 0.07216 0.0
H502 H 0.58751 0.84262 0.08995 0.0
H503 H 0.61123 0.83484 0.05637 0.0
H504 H 0.56985 0.73769 0.0515 0.0
H505 H 0.57735 0.8633 0.07981 0.0
H506 H 0.6003 0.85508 0.04609 0.0
C507 C 0.22297 0.84692 0.14178 0.0
C508 C 0.21554 0.83276 0.15027 0.0
C509 C 0.22557 0.84178 0.12969 0.0
C510 C 0.22092 0.8224 0.1259 0.0
C511 C 0.21396 0.80841 0.13454 0.0
C512 C 0.21123 0.81351 0.14656 0.0
C513 C 0.22297 0.81663 0.11293 0.0
C514 C 0.23917 0.82936 0.10679 0.0
C515 C 0.24133 0.82367 0.09467 0.0
C516 C 0.22694 0.8052 0.08857 0.0
C517 C 0.21068 0.79237 0.09455 0.0
C518 C 0.2088 0.79815 0.10669 0.0
C519 C 0.19579 0.77273 0.08823 0.0
C520 C 0.18631 0.77082 0.07632 0.0
C521 C 0.19091 0.75575 0.09415 0.0
C522 C 0.17688 0.73716 0.08823 0.0
C523 C 0.16722 0.73525 0.07639 0.0
C524 C 0.25902 0.83669 0.08856 0.0
C525 C 0.26503 0.85666 0.0881 0.0
C526 C 0.27014 0.8292 0.08326 0.0
C527 C 0.28705 0.84148 0.0777 0.0
C528 C 0.29301 0.86142 0.07717 0.0
C529 C 0.28179 0.86888 0.08235 0.0
C530 C 0.17197 0.75223 0.0705 0.0
H531 H 0.22625 0.86183 0.14436 0.0
H532 H 0.23077 0.85287 0.12324 0.0
H533 H 0.21067 0.79348 0.13205 0.0
H534 H 0.20579 0.80237 0.15298 0.0
H535 H 0.25051 0.84342 0.1116 0.0
H536 H 0.19601 0.78831 0.11118 0.0
H537 H 0.22852 0.8007 0.07922 0.0
H538 H 0.18979 0.78372 0.07161 0.0
H539 H 0.19811 0.75687 0.10331 0.0
H540 H 0.17339 0.72427 0.09297 0.0
H541 H 0.25665 0.86275 0.09209 0.0
H542 H 0.2659 0.8139 0.08358 0.0
H543 H 0.16476 0.75108 0.06134 0.0
H544 H 0.28614 0.88423 0.0821 0.0
H545 H 0.29536 0.83534 0.07369 0.0
C546 C 0.22495 0.41054 0.14716 0.0
C547 C 0.20622 0.39424 0.14832 0.0
C548 C 0.22942 0.41842 0.13576 0.0
C549 C 0.21522 0.41035 0.12528 0.0
C550 C 0.1966 0.39396 0.12635 0.0
C551 C 0.19219 0.38593 0.1377 0.0
C552 C 0.21954 0.41941 0.11337 0.0
C553 C 0.23743 0.42454 0.10839 0.0
C554 C 0.24157 0.43324 0.09715 0.0
C555 C 0.22779 0.43728 0.0911 0.0
C556 C 0.20991 0.43231 0.09598 0.0
C557 C 0.20581 0.42319 0.10702 0.0
C558 C 0.19563 0.43698 0.08969 0.0
C559 C 0.20193 0.45607 0.08648 0.0
C560 C 0.17554 0.42249 0.08711 0.0
C561 C 0.16202 0.427 0.08139 0.0
C562 C 0.16827 0.44618 0.07836 0.0
C563 C 0.26009 0.43784 0.0916 0.0
C564 C 0.27835 0.4467 0.09907 0.0
C565 C 0.25959 0.43334 0.07873 0.0
C566 C 0.27692 0.43766 0.07344 0.0
C567 C 0.29526 0.44672 0.08086 0.0
C568 C 0.29573 0.45115 0.09376 0.0
C569 C 0.18835 0.46067 0.08097 0.0
H570 H 0.23604 0.41756 0.15515 0.0
H571 H 0.24382 0.4312 0.13524 0.0
H572 H 0.18545 0.38727 0.11837 0.0
H573 H 0.17778 0.37314 0.13812 0.0
H574 H 0.24787 0.42124 0.1131 0.0
H575 H 0.19216 0.41962 0.11092 0.0
H576 H 0.23094 0.44428 0.08254 0.0
H577 H 0.21731 0.46753 0.08845 0.0
H578 H 0.17033 0.40764 0.08946 0.0
H579 H 0.1466 0.41559 0.07953 0.0
H580 H 0.27925 0.45054 0.10899 0.0
H581 H 0.24571 0.42619 0.07276 0.0
H582 H 0.19355 0.47554 0.07866 0.0
H583 H 0.3096 0.45837 0.09974 0.0
H584 H 0.27588 0.43366 0.06353 0.0
C585 C 0.45234 0.90701 0.19695 0.0
C586 C 0.44841 0.92193 0.19401 0.0
C587 C 0.44909 0.8999 0.20861 0.0
C588 C 0.44184 0.90754 0.21765 0.0
C589 C 0.43761 0.92224 0.21466 0.0
C590 C 0.4409 0.92939 0.20298 0.0
C591 C 0.43923 0.90049 0.23025 0.0
C592 C 0.45365 0.89746 0.23637 0.0
C593 C 0.45141 0.89048 0.24816 0.0
C594 C 0.43454 0.88697 0.25397 0.0
C595 C 0.41993 0.89007 0.24807 0.0
C596 C 0.42242 0.89674 0.23616 0.0
C597 C 0.40203 0.88621 0.25431 0.0
C598 C 0.39324 0.87053 0.26171 0.0
C599 C 0.39359 0.89821 0.25296 0.0
C600 C 0.37685 0.8946 0.2588 0.0
C601 C 0.36832 0.8791 0.2663 0.0
C602 C 0.46669 0.88682 0.25432 0.0
C603 C 0.4763 0.87925 0.24718 0.0
C604 C 0.47191 0.89094 0.26732 0.0
C605 C 0.48629 0.88754 0.273 0.0
C606 C 0.49598 0.8802 0.26582 0.0
C607 C 0.49087 0.87613 0.25285 0.0
C608 C 0.3767 0.86713 0.2677 0.0
H609 H 0.45833 0.90107 0.19032 0.0
H610 H 0.45228 0.8884 0.21056 0.0
H611 H 0.43214 0.92853 0.22144 0.0
H612 H 0.43753 0.94075 0.20097 0.0
H613 H 0.46692 0.90097 0.23202 0.0
H614 H 0.41103 0.89856 0.2313 0.0
H615 H 0.43278 0.88175 0.2631 0.0
H616 H 0.39895 0.86067 0.26278 0.0
H617 H 0.40008 0.91062 0.24753 0.0
H618 H 0.3708 0.90418 0.25766 0.0
H619 H 0.47243 0.8755 0.23719 0.0
H620 H 0.46513 0.89709 0.27311 0.0
H621 H 0.37026 0.85491 0.2733 0.0
H622 H 0.49791 0.87021 0.2471 0.0
H623 H 0.49011 0.891 0.28302 0.0
C624 C 0.01212 0.48459 0.22155 0.0
C625 C 0.02447 0.49883 0.21404 0.0
C626 C 0.01659 0.48752 0.23453 0.0
C627 C 0.03334 0.50483 0.24023 0.0
C628 C 0.04593 0.51879 0.23274 0.0
C629 C 0.04162 0.51577 0.2198 0.0
C630 C 0.03757 0.50877 0.25397 0.0
C631 C 0.03851 0.49493 0.26111 0.0
C632 C 0.04421 0.49948 0.27405 0.0
C633 C 0.04813 0.51773 0.27985 0.0
C634 C 0.04723 0.53164 0.27279 0.0
C635 C 0.04193 0.52705 0.25987 0.0
C636 C 0.05332 0.55153 0.27872 0.0
C637 C 0.04552 0.55403 0.28958 0.0
C638 C 0.0674 0.56821 0.2736 0.0
C639 C 0.07372 0.58706 0.27931 0.0
C640 C 0.06591 0.58959 0.29015 0.0
C641 C 0.04821 0.48619 0.28124 0.0
C642 C 0.03539 0.46569 0.2795 0.0
C643 C 0.06571 0.49401 0.28938 0.0
C644 C 0.07052 0.48162 0.29543 0.0
C645 C 0.05794 0.46108 0.29353 0.0
C646 C 0.04018 0.45325 0.28561 0.0
C647 C 0.05164 0.57294 0.29519 0.0
H648 H 0.99871 0.47145 0.21744 0.0
H649 H 0.00665 0.47658 0.24014 0.0
H650 H 0.05915 0.53209 0.23691 0.0
H651 H 0.05175 0.52679 0.21431 0.0
H652 H 0.03597 0.48114 0.25647 0.0
H653 H 0.04128 0.53782 0.25438 0.0
H654 H 0.05267 0.52144 0.2898 0.0
H655 H 0.03462 0.54136 0.29366 0.0
H656 H 0.07377 0.56666 0.2653 0.0
H657 H 0.08463 0.59968 0.27519 0.0
H658 H 0.02174 0.45928 0.27333 0.0
H659 H 0.07611 0.50971 0.29072 0.0
H660 H 0.04548 0.57456 0.30358 0.0
H661 H 0.03007 0.4375 0.28405 0.0
H662 H 0.08453 0.48816 0.30122 0.0
C663 C 0.44395 0.50196 0.20769 0.0
C664 C 0.46284 0.50645 0.20472 0.0
C665 C 0.441 0.506 0.2199 0.0
C666 C 0.45688 0.51466 0.22942 0.0
C667 C 0.47565 0.51865 0.22652 0.0
C668 C 0.47859 0.51459 0.21432 0.0
C669 C 0.45409 0.52051 0.24215 0.0
C670 C 0.43707 0.50815 0.24776 0.0
C671 C 0.43373 0.51422 0.25945 0.0
C672 C 0.44776 0.53294 0.26549 0.0
C673 C 0.46502 0.54522 0.26014 0.0
C674 C 0.46811 0.53891 0.24851 0.0
C675 C 0.47966 0.56491 0.26654 0.0
C676 C 0.47362 0.57808 0.27077 0.0
C677 C 0.4998 0.57074 0.26829 0.0
C678 C 0.51367 0.58942 0.27419 0.0
C679 C 0.50766 0.60271 0.27824 0.0
C680 C 0.41555 0.50119 0.26531 0.0
C681 C 0.3973 0.48938 0.25797 0.0
C682 C 0.41624 0.50065 0.27832 0.0
C683 C 0.39911 0.48891 0.28386 0.0
C684 C 0.38084 0.47715 0.27653 0.0
C685 C 0.38021 0.47743 0.2635 0.0
C686 C 0.48752 0.59688 0.27647 0.0
H687 H 0.43146 0.49547 0.20054 0.0
H688 H 0.42639 0.5029 0.2218 0.0
H689 H 0.48814 0.52513 0.23367 0.0
H690 H 0.49337 0.5184 0.21234 0.0
H691 H 0.42658 0.49368 0.24307 0.0
H692 H 0.48112 0.54874 0.2442 0.0
H693 H 0.44527 0.53807 0.27436 0.0
H694 H 0.45818 0.57395 0.26945 0.0
H695 H 0.50479 0.56079 0.26516 0.0
H696 H 0.52914 0.59363 0.27538 0.0
H697 H 0.3961 0.48955 0.24794 0.0
H698 H 0.43005 0.50928 0.28427 0.0
H699 H 0.48253 0.60684 0.27957 0.0
H700 H 0.36652 0.46835 0.25751 0.0
H701 H 0.40019 0.48933 0.29393 0.0
Tb702 Tb 0.4908 0.98927 0.99301 0.0
Eu703 Eu 0.50765 0.01497 0.02085 0.0
C704 C 0.5135 0.97868 0.01296 0.0
C705 C 0.46615 0.97569 0.01585 0.0
C706 C 0.48294 0.97805 0.95873 0.0
C707 C 0.4904 0.97343 0.9377 0.0
C708 C 0.4859 0.96683 0.94944 0.0
C709 C 0.4845 0.99598 0.9561 0.0
C710 C 0.48879 0.00248 0.94434 0.0
C711 C 0.49188 0.99132 0.93503 0.0
C712 C 0.4792 0.97141 0.97125 0.0
O713 O 0.49073 0.01645 0.99108 0.0
O714 O 0.48707 0.02336 0.0113 0.0
O715 O 0.52826 0.03479 0.00792 0.0
O716 O 0.52204 0.01036 0.99243 0.0
C717 C 0.48528 0.02515 0.99937 0.0
O718 O 0.50181 0.02819 0.03718 0.0
O719 O 0.52996 0.02939 0.037 0.0
O720 O 0.52208 0.99678 0.01838 0.0
O721 O 0.498 0.97163 1.0046 0.0
O722 O 0.46566 0.97857 1.00401 0.0
O723 O 0.48264 0.98504 0.02333 0.0
C724 C 0.53294 0.02853 0.99784 0.0
O725 O 0.49445 0.97331 0.9781 0.0
O726 O 0.46899 0.97701 0.97765 0.0
C727 C 0.51521 0.02401 0.05597 0.0
C728 C 0.50542 0.00675 0.07855 0.0
C729 C 0.50486 0.02401 0.0767 0.0
C730 C 0.50975 0.03255 0.06554 0.0
C731 C 0.51605 0.00694 0.05779 0.0
C732 C 0.51134 0.99848 0.069 0.0
C733 C 0.51801 0.03189 0.04377 0.0
H734 H 0.49259 0.96447 0.93068 0.0
H735 H 0.4849 0.95304 0.95131 0.0
H736 H 0.4826 0.00507 0.96317 0.0
H737 H 0.4901 0.01644 0.94261 0.0
H738 H 0.50004 0.03062 0.08371 0.0
H739 H 0.50871 0.04553 0.06424 0.0
H740 H 0.51997 -0.0001 0.05047 0.0
H741 H 0.51223 0.98538 0.07013 0.0
Tb742 Tb 0.01445 0.50721 0.9984 0.0
Eu743 Eu 0.98939 0.49653 0.02271 0.0
C744 C 0.02664 0.53894 0.02104 0.0
C745 C 0.02807 0.49361 0.02207 0.0
C746 C 0.0269 0.51361 0.96597 0.0
C747 C 0.03505 0.52497 0.94565 0.0
C748 C 0.04055 0.52625 0.95838 0.0
C749 C 0.00756 0.49979 0.96074 0.0
C750 C 0.0021 0.49837 0.94799 0.0
C751 C 0.01582 0.51092 0.94033 0.0
C752 C 0.03287 0.5152 0.97934 0.0
O753 O 0.9868 0.48018 0.99223 0.0
O754 O 0.98167 0.46834 0.0112 0.0
O755 O 0.96954 0.49775 0.00734 0.0
O756 O 0.99379 0.51793 0.99571 0.0
C757 C 0.97859 0.46545 0.99899 0.0
O758 O 0.9734 0.47521 0.0356 0.0
O759 O 0.97509 0.50353 0.03726 0.0
O760 O 0.00848 0.52957 0.02405 0.0
O761 O 0.03298 0.53044 0.01325 0.0
O762 O 0.02492 0.49161 0.00981 0.0
O763 O 0.0187 0.49964 0.02911 0.0
C764 C 0.97552 0.50974 0.99863 0.0
O765 O 0.03098 0.52805 0.9864 0.0
O766 O 0.02646 0.49862 0.9842 0.0
C767 C 0.97389 0.48852 0.05569 0.0
C768 C 0.9822 0.48912 0.08149 0.0
C769 C 0.96326 0.47584 0.07538 0.0
C770 C 0.95915 0.47557 0.06259 0.0
C771 C 0.9928 0.50191 0.06172 0.0
C772 C 0.9969 0.50228 0.07455 0.0
C773 C 0.96955 0.48708 0.04215 0.0
H774 H 0.04594 0.5347 0.93992 0.0
H775 H 0.05548 0.53707 0.9623 0.0
H776 H 0.99672 0.49007 0.96651 0.0
H777 H 0.98713 0.48757 0.94413 0.0
H778 H 0.95159 0.46571 0.08052 0.0
H779 H 0.94451 0.46508 0.05804 0.0
H780 H 0.00442 0.51187 0.05648 0.0
H781 H 0.01166 0.51255 0.079 0.0
Tb782 Tb 0.51245 0.49569 0.0217 0.0
Eu783 Eu 0.49131 0.49976 0.99561 0.0
C784 C 0.48378 0.45911 1.00336 0.0
C785 C 0.53389 0.50336 0.99724 0.0
C786 C 0.52351 0.49428 0.05515 0.0
C787 C 0.51797 0.48187 0.07541 0.0
C788 C 0.52286 0.48084 0.06327 0.0
C789 C 0.5194 0.50894 0.05937 0.0
C790 C 0.51469 0.5101 0.07154 0.0
C791 C 0.51373 0.49646 0.07969 0.0
C792 C 0.52701 0.4919 0.0421 0.0
O793 O 0.51357 0.52377 0.02408 0.0
O794 O 0.51567 0.52984 1.0037 0.0
O795 O 0.47204 0.49994 0.01013 0.0
O796 O 0.48269 0.48768 0.02582 0.0
C797 C 0.51879 0.53615 0.0156 0.0
O798 O 0.48385 0.51673 0.98341 0.0
O799 O 0.47555 0.48673 0.97711 0.0
O800 O 0.47471 0.46841 0.99985 0.0
O801 O 0.50179 0.46891 0.00913 0.0
O802 O 0.53587 0.50741 0.00942 0.0
O803 O 0.51678 0.49623 0.9905 0.0
C804 C 0.47013 0.49252 0.02089 0.0
O805 O 0.51214 0.47735 0.03507 0.0
O806 O 0.53533 0.50783 0.03645 0.0
C807 C 0.4864 0.50931 0.96236 0.0
C808 C 0.50351 0.51656 0.9397 0.0
C809 C 0.48305 0.50903 0.93985 0.0
C810 C 0.47457 0.50539 0.9511 0.0
C811 C 0.50689 0.51744 0.96232 0.0
C812 C 0.51537 0.52107 0.9511 0.0
C813 C 0.47726 0.50315 0.97394 0.0
H814 H 0.51703 0.4709 0.08132 0.0
H815 H 0.52571 0.46926 0.06013 0.0
H816 H 0.51958 0.51935 0.05321 0.0
H817 H 0.5118 0.5217 0.07455 0.0
H818 H 0.47346 0.50516 0.93123 0.0
H819 H 0.45871 0.49892 0.95097 0.0
H820 H 0.51624 0.52044 0.97095 0.0
H821 H 0.53119 0.52708 0.95133 0.0
Tb822 Tb 0.16072 0.3211 0.32723 0.0
Eu823 Eu 0.17532 0.34725 0.35496 0.0
C824 C 0.18007 0.31004 0.3494 0.0
C825 C 0.13291 0.308 0.34835 0.0
C826 C 0.15472 0.31063 0.29289 0.0
C827 C 0.1453 0.30502 0.27048 0.0
C828 C 0.14195 0.29862 0.28237 0.0
C829 C 0.17073 0.32925 0.2914 0.0
C830 C 0.17416 0.33559 0.27954 0.0
C831 C 0.16156 0.32351 0.26893 0.0
C832 C 0.1515 0.30361 0.30533 0.0
O833 O 0.14663 0.33888 0.32807 0.0
O834 O 0.1689 0.36502 0.34207 0.0
O835 O 0.20211 0.35776 0.34449 0.0
O836 O 0.18575 0.34968 0.32482 0.0
C837 C 0.15412 0.35711 0.33316 0.0
O838 O 0.17009 0.36282 0.37037 0.0
O839 O 0.19663 0.36077 0.37157 0.0
O840 O 0.17455 0.31894 0.35746 0.0
O841 O 0.17943 0.31237 0.33747 0.0
O842 O 0.1398 0.30187 0.33939 0.0
O843 O 0.14256 0.32624 0.35363 0.0
C844 C 0.20208 0.35943 0.33248 0.0
O845 O 0.1674 0.30769 0.31243 0.0
O846 O 0.13954 0.30694 0.3115 0.0
C847 C 0.18092 0.35785 0.38989 0.0
C848 C 0.17047 0.3428 0.41298 0.0
C849 C 0.17298 0.36133 0.41094 0.0
C850 C 0.17821 0.36881 0.39949 0.0
C851 C 0.17838 0.33933 0.39189 0.0
C852 C 0.17333 0.33193 0.40335 0.0
C853 C 0.18524 0.36521 0.3776 0.0
H854 H 0.13541 0.29533 0.26248 0.0
H855 H 0.12951 0.28423 0.28333 0.0
H856 H 0.1807 0.33884 0.2994 0.0
H857 H 0.18664 0.35002 0.27868 0.0
H858 H 0.17098 0.37007 0.41822 0.0
H859 H 0.17995 0.38305 0.39808 0.0
H860 H 0.18004 0.33045 0.38454 0.0
H861 H 0.17121 0.3175 0.40457 0.0
Tb862 Tb 0.67924 0.84259 0.32988 0.0
Eu863 Eu 0.65437 0.83297 0.35437 0.0
C864 C 0.69077 0.87531 0.35154 0.0
C865 C 0.69371 0.82996 0.35409 0.0
C866 C 0.68852 0.84736 0.29704 0.0
C867 C 0.69421 0.85826 0.27643 0.0
C868 C 0.70127 0.85944 0.28884 0.0
C869 C 0.66855 0.83419 0.29276 0.0
C870 C 0.66152 0.83286 0.28032 0.0
C871 C 0.6743 0.84488 0.27205 0.0
C872 C 0.69595 0.84917 0.31015 0.0
O873 O 0.65172 0.81475 0.32523 0.0
O874 O 0.64921 0.80451 0.3446 0.0
O875 O 0.63474 0.83431 0.3389 0.0
O876 O 0.65885 0.85348 0.32686 0.0
C877 C 0.64521 0.80052 0.33246 0.0
O878 O 0.63 0.81265 0.36426 0.0
O879 O 0.64903 0.84293 0.37217 0.0
O880 O 0.67245 0.86587 0.35425 0.0
O881 O 0.69753 0.86667 0.34422 0.0
O882 O 0.69284 0.83033 0.34188 0.0
O883 O 0.68222 0.8333 0.36093 0.0
C884 C 0.64069 0.84573 0.3299 0.0
O885 O 0.69549 0.86271 0.31745 0.0
O886 O 0.6895 0.83273 0.3152 0.0
C887 C 0.63617 0.81921 0.38618 0.0
C888 C 0.64122 0.81157 0.41082 0.0
C889 C 0.62501 0.81357 0.40672 0.0
C890 C 0.62253 0.8174 0.39449 0.0
C891 C 0.65192 0.81643 0.39003 0.0
C892 C 0.65441 0.81259 0.40227 0.0
C893 C 0.6347 0.82555 0.3739 0.0
H894 H 0.70439 0.86756 0.2702 0.0
H895 H 0.71668 0.8698 0.29204 0.0
H896 H 0.65839 0.82497 0.29903 0.0
H897 H 0.64607 0.82257 0.27719 0.0
H898 H 0.61445 0.81258 0.41305 0.0
H899 H 0.61029 0.8195 0.39163 0.0
H900 H 0.66261 0.81787 0.38369 0.0
H901 H 0.66713 0.81128 0.40518 0.0
Tb902 Tb 0.17544 0.82795 0.35419 0.0
Eu903 Eu 0.15454 0.83395 0.32866 0.0
C904 C 0.14735 0.79272 0.33495 0.0
C905 C 0.19694 0.83658 0.3295 0.0
C906 C 0.18564 0.82461 0.38747 0.0
C907 C 0.17873 0.811 0.40734 0.0
C908 C 0.18361 0.81018 0.39517 0.0
C909 C 0.18293 0.84004 0.39215 0.0
C910 C 0.17826 0.84098 0.40435 0.0
C911 C 0.17593 0.82637 0.41203 0.0
C912 C 0.18914 0.82257 0.37436 0.0
O913 O 0.17846 0.85686 0.3571 0.0
O914 O 0.17974 0.8635 0.33678 0.0
O915 O 0.13668 0.83515 0.34376 0.0
O916 O 0.14549 0.81975 0.35814 0.0
C917 C 0.18376 0.86947 0.34875 0.0
O918 O 0.1471 0.85172 0.31722 0.0
O919 O 0.13777 0.82163 0.31037 0.0
O920 O 0.13808 0.80213 0.33215 0.0
O921 O 0.16529 0.80225 0.34078 0.0
O922 O 0.19878 0.83871 0.3418 0.0
O923 O 0.18021 0.83144 0.32279 0.0
C924 C 0.13391 0.82623 0.35394 0.0
O925 O 0.17404 0.80862 0.36713 0.0
O926 O 0.19811 0.83875 0.36901 0.0
C927 C 0.14755 0.8445 0.29578 0.0
C928 C 0.16177 0.85166 0.27225 0.0
C929 C 0.14199 0.84608 0.27366 0.0
C930 C 0.13493 0.84245 0.28533 0.0
C931 C 0.16748 0.85086 0.29456 0.0
C932 C 0.17455 0.85442 0.28289 0.0
C933 C 0.13954 0.83828 0.30764 0.0
H934 H 0.17718 0.79964 0.41309 0.0
H935 H 0.18549 0.79809 0.3917 0.0
H936 H 0.18409 0.85118 0.38631 0.0
H937 H 0.17596 0.85286 0.40768 0.0
H938 H 0.13185 0.84414 0.26569 0.0
H939 H 0.11949 0.83753 0.28613 0.0
H940 H 0.1774 0.85244 0.30256 0.0
H941 H 0.1898 0.8585 0.28213 0.0
Tb942 Tb 0.82753 0.65215 0.65968 0.0
Eu943 Eu 0.84082 0.67743 0.6876 0.0
C944 C 0.84601 0.64067 0.68189 0.0
C945 C 0.79845 0.63889 0.67992 0.0
C946 C 0.82093 0.64123 0.62536 0.0
C947 C 0.82541 0.63641 0.60364 0.0
C948 C 0.8218 0.62956 0.61537 0.0
C949 C 0.82351 0.65979 0.62346 0.0
C950 C 0.82698 0.6666 0.61171 0.0
C951 C 0.82814 0.65505 0.60169 0.0
C952 C 0.81865 0.63449 0.63786 0.0
O953 O 0.81434 0.67081 0.66005 0.0
O954 O 0.83639 0.69625 0.67457 0.0
O955 O 0.86828 0.68883 0.6776 0.0
O956 O 0.85303 0.68044 0.65755 0.0
C957 C 0.82229 0.68905 0.66525 0.0
O958 O 0.835 0.69265 0.70291 0.0
O959 O 0.86108 0.68983 0.70471 0.0
O960 O 0.83945 0.64873 0.6898 0.0
O961 O 0.84648 0.64397 0.67013 0.0
O962 O 0.80623 0.63281 0.67156 0.0
O963 O 0.8078 0.65713 0.6852 0.0
C964 C 0.86896 0.69028 0.66555 0.0
O965 O 0.83513 0.63988 0.64471 0.0
O966 O 0.80624 0.63683 0.64421 0.0
C967 C 0.84477 0.68738 0.72271 0.0
C968 C 0.83467 0.6734 0.74617 0.0
C969 C 0.83922 0.69263 0.74414 0.0
C970 C 0.84424 0.69954 0.73252 0.0
C971 C 0.84012 0.66815 0.72463 0.0
C972 C 0.83525 0.66128 0.73625 0.0
C973 C 0.84969 0.69463 0.71044 0.0
H974 H 0.82604 0.62711 0.59608 0.0
H975 H 0.81998 0.61525 0.6167 0.0
H976 H 0.82318 0.66915 0.63112 0.0
H977 H 0.82926 0.68111 0.61054 0.0
H978 H 0.83863 0.70228 0.75147 0.0
H979 H 0.84759 0.71436 0.73117 0.0
H980 H 0.8403 0.65844 0.71715 0.0
H981 H 0.83212 0.6465 0.73749 0.0
Tb982 Tb 0.34404 0.17437 0.66346 0.0
Eu983 Eu 0.31639 0.16115 0.68669 0.0
C984 C 0.354 0.20399 0.68749 0.0
C985 C 0.35598 0.15899 0.68644 0.0
C986 C 0.35988 0.17902 0.63165 0.0
C987 C 0.36892 0.18729 0.61089 0.0
C988 C 0.37346 0.19114 0.62384 0.0
C989 C 0.34175 0.16284 0.6264 0.0
C990 C 0.33723 0.15891 0.61345 0.0
C991 C 0.3507 0.17119 0.60553 0.0
C992 C 0.36437 0.18395 0.64521 0.0
O993 O 0.32566 0.14235 0.66062 0.0
O994 O 0.29909 0.13854 0.67034 0.0
O995 O 0.30611 0.17742 0.67479 0.0
O996 O 0.31625 0.1719 0.65627 0.0
C997 C 0.30698 0.13181 0.66252 0.0
O998 O 0.29869 0.13859 0.69853 0.0
O999 O 0.30155 0.16744 0.70112 0.0
O1000 O 0.34409 0.18935 0.69409 0.0
O1001 O 0.35244 0.20135 0.67525 0.0
O1002 O 0.36231 0.17273 0.67881 0.0
O1003 O 0.33747 0.14971 0.6888 0.0
C1004 C 0.30538 0.17693 0.66258 0.0
O1005 O 0.35703 0.19406 0.65014 0.0
O1006 O 0.36193 0.16966 0.6517 0.0
C1007 C 0.29945 0.15108 0.71906 0.0
C1008 C 0.30696 0.15151 0.74496 0.0
C1009 C 0.29009 0.13555 0.73814 0.0
C1010 C 0.28635 0.13538 0.7253 0.0
C1011 C 0.31645 0.16695 0.72581 0.0
C1012 C 0.32011 0.16721 0.73867 0.0
C1013 C 0.29538 0.15051 0.70552 0.0
H1014 H 0.3795 0.19723 0.60509 0.0
H1015 H 0.38744 0.2038 0.62776 0.0
H1016 H 0.33104 0.15338 0.63233 0.0
H1017 H 0.32317 0.14627 0.60963 0.0
H1018 H 0.27965 0.12333 0.74277 0.0
H1019 H 0.27321 0.12298 0.72022 0.0
H1020 H 0.32692 0.17912 0.72115 0.0
H1021 H 0.33334 0.17958 0.74368 0.0
Tb1022 Tb 0.83999 0.16032 0.68646 0.0
Eu1023 Eu 0.81852 0.16522 0.66084 0.0
C1024 C 0.81261 0.12453 0.66752 0.0
C1025 C 0.86154 0.16908 0.66184 0.0
C1026 C 0.84949 0.1585 0.71989 0.0
C1027 C 0.84042 0.14491 0.7396 0.0
C1028 C 0.84623 0.14389 0.72773 0.0
C1029 C 0.84702 0.17429 0.72412 0.0
C1030 C 0.84143 0.17544 0.73604 0.0
C1031 C 0.83793 0.16067 0.74385 0.0
C1032 C 0.85379 0.1562 0.707 0.0
O1033 O 0.84168 0.18868 0.68906 0.0
O1034 O 0.84314 0.19522 0.66875 0.0
O1035 O 0.80067 0.16637 0.676 0.0
O1036 O 0.8097 0.15083 0.6901 0.0
C1037 C 0.84687 0.20128 0.6807 0.0
O1038 O 0.8103 0.18195 0.64887 0.0
O1039 O 0.80118 0.15162 0.64283 0.0
O1040 O 0.80296 0.13356 0.66468 0.0
O1041 O 0.83053 0.13441 0.67335 0.0
O1042 O 0.86335 0.1713 0.67413 0.0
O1043 O 0.84475 0.16361 0.65508 0.0
C1044 C 0.79799 0.15724 0.68609 0.0
O1045 O 0.83925 0.14168 0.69974 0.0
O1046 O 0.86254 0.17216 0.70141 0.0
C1047 C 0.80946 0.17315 0.62717 0.0
C1048 C 0.82344 0.18182 0.60355 0.0
C1049 C 0.82984 0.19693 0.61341 0.0
C1050 C 0.82295 0.19264 0.62511 0.0
C1051 C 0.80275 0.15816 0.61725 0.0
C1052 C 0.80975 0.1624 0.60563 0.0
C1053 C 0.80272 0.16795 0.63959 0.0
H1054 H 0.83796 0.13343 0.74548 0.0
H1055 H 0.84785 0.13149 0.72459 0.0
H1056 H 0.84908 0.18558 0.71817 0.0
H1057 H 0.83942 0.18763 0.73906 0.0
H1058 H 0.84015 0.21208 0.6121 0.0
H1059 H 0.82835 0.20456 0.63255 0.0
H1060 H 0.79233 0.14302 0.61854 0.0
H1061 H 0.80472 0.15031 0.59836 0.0
H1062 H 0.32964 0.86566 0.08115 0.0
H1063 H 0.35885 0.88602 0.07063 0.0
H1064 H 0.32578 0.90628 0.04899 0.0
H1065 H 0.29652 0.88605 0.05957 0.0
H1066 H 0.34673 0.8922 0.0348 0.0
H1067 H 0.35828 0.93712 0.07097 0.0
H1068 H 0.36242 0.94799 0.09342 0.0
H1069 H 0.41101 0.93775 0.09922 0.0
H1070 H 0.40706 0.92666 0.07682 0.0
H1071 H 0.42836 0.96561 0.00748 0.0
H1072 H 0.39847 0.94645 0.01764 0.0
H1073 H 0.43259 0.9365 0.04619 0.0
H1074 H 0.46257 0.95642 0.03641 0.0
H1075 H 0.41021 0.94596 0.05682 0.0
H1076 H 0.39891 0.8997 0.02188 0.0
H1077 H 0.39564 0.88786 0.99969 0.0
H1078 H 0.34747 0.8982 0.9919 0.0
H1079 H 0.35062 0.91034 0.01403 0.0
C1080 C 0.32864 0.87451 0.07417 0.0
C1081 C 0.31086 0.8743 0.07115 0.0
C1082 C 0.34533 0.88618 0.06823 0.0
C1083 C 0.34445 0.89768 0.05908 0.0
C1084 C 0.32673 0.89753 0.05605 0.0
C1085 C 0.3101 0.88607 0.06213 0.0
C1086 C 0.36188 0.90931 0.05239 0.0
C1087 C 0.36057 0.90416 0.03955 0.0
C1088 C 0.38003 0.92446 0.05871 0.0
C1089 C 0.38223 0.93086 0.07223 0.0
C1090 C 0.36972 0.937 0.07705 0.0
C1091 C 0.37209 0.94327 0.08976 0.0
C1092 C 0.38697 0.94355 0.09775 0.0
C1093 C 0.39951 0.93756 0.09303 0.0
C1094 C 0.39723 0.9313 0.08032 0.0
C1095 C 0.42939 0.95912 0.01584 0.0
C1096 C 0.44775 0.96248 0.02116 0.0
C1097 C 0.41229 0.94811 0.02163 0.0
C1098 C 0.41317 0.93982 0.03264 0.0
C1099 C 0.43149 0.9428 0.03775 0.0
C1100 C 0.44861 0.95412 0.03212 0.0
C1101 C 0.39527 0.92875 0.03918 0.0
C1102 C 0.39644 0.93401 0.05201 0.0
C1103 C 0.37709 0.91344 0.03289 0.0
C1104 C 0.37514 0.90612 0.01959 0.0
C1105 C 0.38772 0.89958 0.01542 0.0
C1106 C 0.38587 0.8928 1.00286 0.0
C1107 C 0.37139 0.89233 0.99439 0.0
C1108 C 0.3587 0.8986 0.99847 0.0
C1109 C 0.36049 0.90542 0.01102 0.0
H1110 H 0.36999 0.88707 0.98466 0.0
H1111 H 0.38881 0.94846 0.10758 0.0
H1112 H 0.16296 0.47682 0.0857 0.0
H1113 H 0.13886 0.48474 0.07627 0.0
H1114 H 0.11721 0.43475 0.04851 0.0
H1115 H 0.14109 0.42659 0.05802 0.0
H1116 H 0.12581 0.47215 0.0392 0.0
H1117 H 0.09022 0.42929 0.06995 0.0
H1118 H 0.0857 0.41888 0.09113 0.0
H1119 H 0.09044 0.47358 0.10478 0.0
H1120 H 0.0953 0.48444 0.0837 0.0
H1121 H 0.04034 0.46942 0.01207 0.0
H1122 H 0.06389 0.4613 0.02182 0.0
H1123 H 0.07231 0.49927 0.05503 0.0
H1124 H 0.04795 0.50664 0.04551 0.0
H1125 H 0.0712 0.46847 0.06185 0.0
H1126 H 0.10695 0.51238 0.0324 0.0
H1127 H 0.11325 0.52513 0.01189 0.0
H1128 H 0.11093 0.47232 0.9966 0.0
H1129 H 0.10434 0.45913 0.01699 0.0
C1130 C 0.15308 0.46757 0.07757 0.0
C1131 C 0.15384 0.45109 0.07258 0.0
C1132 C 0.1393 0.47205 0.07223 0.0
C1133 C 0.12625 0.46029 0.06173 0.0
C1134 C 0.12716 0.44399 0.05662 0.0
C1135 C 0.14071 0.43929 0.06209 0.0
C1136 C 0.11165 0.46501 0.05606 0.0
C1137 C 0.1137 0.47112 0.04406 0.0
C1138 C 0.09632 0.46431 0.06261 0.0
C1139 C 0.09334 0.45776 0.07527 0.0
C1140 C 0.09049 0.43918 0.07749 0.0
C1141 C 0.08782 0.43318 0.08947 0.0
C1142 C 0.08784 0.44558 0.0993 0.0
C1143 C 0.09047 0.46399 0.09716 0.0
C1144 C 0.09316 0.47008 0.08519 0.0
C1145 C 0.04723 0.47605 0.02145 0.0
C1146 C 0.04238 0.48875 0.028 0.0
C1147 C 0.0608 0.47149 0.027 0.0
C1148 C 0.07028 0.47999 0.03909 0.0
C1149 C 0.06527 0.49254 0.04569 0.0
C1150 C 0.05137 0.49678 0.04023 0.0
C1151 C 0.08521 0.47562 0.04487 0.0
C1152 C 0.08329 0.46958 0.05693 0.0
C1153 C 0.10093 0.47678 0.03846 0.0
C1154 C 0.10497 0.48469 0.0262 0.0
C1155 C 0.10765 0.50343 0.02465 0.0
C1156 C 0.11129 0.51074 0.01305 0.0
C1157 C 0.11244 0.49952 1.00294 0.0
C1158 C 0.11001 0.48098 1.00443 0.0
C1159 C 0.10634 0.47359 0.01601 0.0
H1160 H 0.11526 0.5052 0.99397 0.0
H1161 H 0.08576 0.44091 0.10857 0.0
H1162 H 0.58429 0.7234 0.03651 0.0
H1163 H 0.57365 0.68985 0.02757 0.0
H1164 H 0.58369 0.67511 0.0641 0.0
H1165 H 0.59474 0.70872 0.073 0.0
H1166 H 0.5955 0.65877 0.04732 0.0
H1167 H 0.53696 0.66307 0.05105 0.0
H1168 H 0.51512 0.67684 0.04766 0.0
H1169 H 0.51158 0.66417 0.00801 0.0
H1170 H 0.53364 0.65057 0.01117 0.0
H1171 H 0.53218 0.55498 0.03926 0.0
H1172 H 0.54742 0.59022 0.04572 0.0
H1173 H 0.54179 0.60082 0.00738 0.0
H1174 H 0.52651 0.56555 1.0008 0.0
H1175 H 0.52885 0.61965 0.02365 0.0
H1176 H 0.58581 0.61279 0.02056 0.0
H1177 H 0.60676 0.59821 0.02463 0.0
H1178 H 0.61223 0.61482 0.06395 0.0
H1179 H 0.59106 0.62925 0.06013 0.0
C1180 C 0.5843 0.71299 0.04259 0.0
C1181 C 0.59023 0.71859 0.05545 0.0
C1182 C 0.5782 0.69385 0.0375 0.0
C1183 C 0.57755 0.67987 0.04521 0.0
C1184 C 0.58407 0.68564 0.05798 0.0
C1185 C 0.59039 0.70483 0.06305 0.0
C1186 C 0.56943 0.65906 0.0401 0.0
C1187 C 0.58086 0.65018 0.04224 0.0
C1188 C 0.55047 0.64794 0.03326 0.0
C1189 C 0.53712 0.656 0.03134 0.0
C1190 C 0.53164 0.66335 0.04161 0.0
C1191 C 0.51921 0.67111 0.03973 0.0
C1192 C 0.51201 0.67143 0.02763 0.0
C1193 C 0.51719 0.66394 0.01738 0.0
C1194 C 0.52965 0.6562 0.01921 0.0
C1195 C 0.5342 0.56479 0.03219 0.0
C1196 C 0.52814 0.55747 0.01951 0.0
C1197 C 0.54299 0.58493 0.03589 0.0
C1198 C 0.54587 0.5981 0.02701 0.0
C1199 C 0.53973 0.59086 0.01436 0.0
C1200 C 0.53106 0.57073 0.01063 0.0
C1201 C 0.55485 0.61938 0.03098 0.0
C1202 C 0.54356 0.62833 0.02864 0.0
C1203 C 0.57384 0.63048 0.03774 0.0
C1204 C 0.58671 0.62196 0.04006 0.0
C1205 C 0.59135 0.6132 0.03008 0.0
C1206 C 0.60329 0.60499 0.03235 0.0
C1207 C 0.61078 0.60555 0.04454 0.0
C1208 C 0.6064 0.61438 0.0545 0.0
C1209 C 0.59445 0.6226 0.05229 0.0
H1210 H 0.62002 0.59918 0.04628 0.0
H1211 H 0.50239 0.67743 0.02619 0.0
H1212 H 0.84443 0.30351 0.93647 0.0
H1213 H 0.869 0.33698 0.94569 0.0
H1214 H 0.89261 0.31317 0.97215 0.0
H1215 H 0.86824 0.27965 0.96283 0.0
H1216 H 0.88398 0.3433 0.98234 0.0
H1217 H 0.91828 0.33122 0.95045 0.0
H1218 H 0.92185 0.32176 0.929 0.0
H1219 H 0.91567 0.369 0.91604 0.0
H1220 H 0.91176 0.37857 0.9374 0.0
H1221 H 0.96904 0.43094 0.00841 0.0
H1222 H 0.94628 0.39757 0.9986 0.0
H1223 H 0.93462 0.42105 0.96615 0.0
H1224 H 0.95819 0.45452 0.97572 0.0
H1225 H 0.93675 0.39064 0.9588 0.0
H1226 H 0.90188 0.40311 0.98943 0.0
H1227 H 0.89651 0.41292 0.01029 0.0
H1228 H 0.90103 0.36576 0.02494 0.0
H1229 H 0.9067 0.35582 1.00419 0.0
C1230 C 0.85486 0.30546 0.94427 0.0
C1231 C 0.8545 0.28908 0.94896 0.0
C1232 C 0.86889 0.32452 0.94947 0.0
C1233 C 0.88259 0.32746 0.95955 0.0
C1234 C 0.88213 0.31113 0.96436 0.0
C1235 C 0.86832 0.29207 0.95901 0.0
C1236 C 0.89729 0.34762 0.96515 0.0
C1237 C 0.89571 0.35362 0.9773 0.0
C1238 C 0.91209 0.36116 0.95834 0.0
C1239 C 0.91452 0.35548 0.9455 0.0
C1240 C 0.9175 0.33948 0.94301 0.0
C1241 C 0.91962 0.33412 0.93087 0.0
C1242 C 0.91893 0.34473 0.92115 0.0
C1243 C 0.91617 0.36077 0.92357 0.0
C1244 C 0.91402 0.36618 0.93569 0.0
C1245 C 0.96165 0.42898 0.99917 0.0
C1246 C 0.96525 0.44531 0.99286 0.0
C1247 C 0.94856 0.4099 0.9936 0.0
C1248 C 0.93835 0.40676 0.98175 0.0
C1249 C 0.94225 0.42308 0.97532 0.0
C1250 C 0.95569 0.44219 0.9808 0.0
C1251 C 0.92357 0.38648 0.97611 0.0
C1252 C 0.92506 0.38042 0.96391 0.0
C1253 C 0.90842 0.37297 0.9828 0.0
C1254 C 0.9049 0.37884 0.99528 0.0
C1255 C 0.90186 0.39491 0.99712 0.0
C1256 C 0.89875 0.40048 0.00892 0.0
C1257 C 0.89848 0.39 0.01894 0.0
C1258 C 0.90127 0.37388 0.01717 0.0
C1259 C 0.90442 0.36826 1.00539 0.0
H1260 H 0.89606 0.39434 0.02807 0.0
H1261 H 0.92058 0.34057 0.91176 0.0
H1262 H 0.66741 0.51661 0.9278 0.0
H1263 H 0.63805 0.5097 0.93822 0.0
H1264 H 0.67363 0.5612 0.96455 0.0
H1265 H 0.70297 0.56832 0.95406 0.0
H1266 H 0.64867 0.52549 0.97537 0.0
H1267 H 0.6453 0.5639 0.94327 0.0
H1268 H 0.64373 0.57217 0.92175 0.0
H1269 H 0.58983 0.51696 0.91185 0.0
H1270 H 0.59131 0.50817 0.93325 0.0
H1271 H 0.57282 0.52818 1.00587 0.0
H1272 H 0.60171 0.53589 0.99493 0.0
H1273 H 0.5637 0.49508 0.96335 0.0
H1274 H 0.53472 0.48809 0.97401 0.0
H1275 H 0.59019 0.52534 0.95496 0.0
H1276 H 0.59293 0.48514 0.98542 0.0
H1277 H 0.59334 0.47459 0.0064 0.0
H1278 H 0.64669 0.52933 0.01861 0.0
H1279 H 0.64645 0.54032 0.99773 0.0
C1280 C 0.66893 0.52646 0.93579 0.0
C1281 C 0.68744 0.54301 0.94013 0.0
C1282 C 0.65216 0.52256 0.94169 0.0
C1283 C 0.65368 0.53499 0.95212 0.0
C1284 C 0.67216 0.55146 0.95649 0.0
C1285 C 0.68886 0.55556 0.95048 0.0
C1286 C 0.6361 0.5305 0.95869 0.0
C1287 C 0.63595 0.52568 0.97098 0.0
C1288 C 0.61928 0.53009 0.95278 0.0
C1289 C 0.61857 0.53526 0.93984 0.0
C1290 C 0.63326 0.55339 0.93647 0.0
C1291 C 0.63236 0.5582 0.92429 0.0
C1292 C 0.61674 0.54507 0.91542 0.0
C1293 C 0.60197 0.5271 0.91872 0.0
C1294 C 0.60284 0.52219 0.93087 0.0
C1295 C 0.57063 0.52076 0.99662 0.0
C1296 C 0.55148 0.50742 0.99084 0.0
C1297 C 0.58719 0.52512 0.99038 0.0
C1298 C 0.58501 0.5158 0.97837 0.0
C1299 C 0.56586 0.50247 0.9726 0.0
C1300 C 0.54927 0.49842 0.97873 0.0
C1301 C 0.60262 0.52023 0.97171 0.0
C1302 C 0.60282 0.52505 0.95938 0.0
C1303 C 0.61934 0.5202 0.97749 0.0
C1304 C 0.61957 0.51362 0.99005 0.0
C1305 C 0.60468 0.49498 0.9926 0.0
C1306 C 0.60489 0.48891 1.00447 0.0
C1307 C 0.62 0.5013 0.01384 0.0
C1308 C 0.63497 0.51976 0.01135 0.0
C1309 C 0.63482 0.52591 0.9995 0.0
H1310 H 0.62014 0.49658 0.02303 0.0
H1311 H 0.61604 0.54884 0.90601 0.0
H1312 H 0.4077 0.13334 0.97873 0.0
H1313 H 0.42211 0.11453 0.98699 0.0
H1314 H 0.41351 0.08516 0.95011 0.0
H1315 H 0.39875 0.10366 0.94186 0.0
H1316 H 0.40481 0.0598 0.96673 0.0
H1317 H 0.45893 0.12433 0.96274 0.0
H1318 H 0.47807 0.16062 0.96605 0.0
H1319 H 0.48402 0.15864 1.00565 0.0
H1320 H 0.46467 0.12231 1.00259 0.0
H1321 H 0.4738 0.02743 0.97541 0.0
H1322 H 0.45773 0.04542 0.96847 0.0
H1323 H 0.46061 0.06718 0.00664 0.0
H1324 H 0.4767 0.04921 0.01371 0.0
H1325 H 0.47188 0.09614 0.99007 0.0
H1326 H 0.41836 0.03082 0.99345 0.0
H1327 H 0.40021 0.99459 0.98946 0.0
H1328 H 0.39426 0.99829 0.95007 0.0
H1329 H 0.41265 0.03458 0.95381 0.0
C1330 C 0.40883 0.1228 0.97241 0.0
C1331 C 0.40221 0.12001 0.95965 0.0
C1332 C 0.41709 0.11211 0.97713 0.0
C1333 C 0.41922 0.0987 0.96912 0.0
C1334 C 0.41204 0.09544 0.95645 0.0
C1335 C 0.40358 0.10598 0.95176 0.0
C1336 C 0.42935 0.0884 0.97388 0.0
C1337 C 0.41955 0.06778 0.97172 0.0
C1338 C 0.44847 0.09877 0.98057 0.0
C1339 C 0.46017 0.12061 0.98244 0.0
C1340 C 0.46419 0.13163 0.97216 0.0
C1341 C 0.4751 0.15221 0.97399 0.0
C1342 C 0.48221 0.16193 0.98606 0.0
C1343 C 0.47848 0.15109 0.99631 0.0
C1344 C 0.46755 0.13051 0.99454 0.0
C1345 C 0.47113 0.03612 0.98234 0.0
C1346 C 0.47646 0.03682 0.99512 0.0
C1347 C 0.46187 0.04632 0.97836 0.0
C1348 C 0.45782 0.05743 0.98707 0.0
C1349 C 0.46358 0.05861 0.9998 0.0
C1350 C 0.47272 0.04829 1.00381 0.0
C1351 C 0.44736 0.06764 0.98287 0.0
C1352 C 0.4571 0.08822 0.98513 0.0
C1353 C 0.42829 0.05725 0.97617 0.0
C1354 C 0.41704 0.03543 0.9739 0.0
C1355 C 0.41331 0.02392 0.98393 0.0
C1356 C 0.40296 0.00337 0.98171 0.0
C1357 C 0.39613 0.99414 0.96952 0.0
C1358 C 0.39958 0.00546 0.95951 0.0
C1359 C 0.40995 0.02602 0.96167 0.0
H1360 H 0.38812 0.97823 0.96782 0.0
H1361 H 0.49066 0.17786 0.98746 0.0
H1362 H 0.68022 0.1092 0.93418 0.0
H1363 H 0.64982 0.091 0.94403 0.0
H1364 H 0.67259 0.13768 0.97431 0.0
H1365 H 0.70305 0.15594 0.96452 0.0
H1366 H 0.65559 0.10242 0.98297 0.0
H1367 H 0.6378 0.13255 0.95142 0.0
H1368 H 0.63447 0.14113 0.93018 0.0
H1369 H 0.59681 0.07988 0.91698 0.0
H1370 H 0.60015 0.0709 0.93811 0.0
H1371 H 0.56232 0.06576 0.00744 0.0
H1372 H 0.5929 0.08723 0.99848 0.0
H1373 H 0.57561 0.04307 0.96719 0.0
H1374 H 0.54507 0.0217 0.97593 0.0
H1375 H 0.58994 0.07918 0.95965 0.0
H1376 H 0.60928 0.04901 0.99078 0.0
H1377 H 0.61262 0.04017 0.01194 0.0
H1378 H 0.64726 0.10144 0.02586 0.0
H1379 H 0.64389 0.11064 1.00479 0.0
C1380 C 0.67869 0.11565 0.94289 0.0
C1381 C 0.69401 0.13404 0.94854 0.0
C1382 C 0.66132 0.10524 0.94851 0.0
C1383 C 0.65882 0.11311 0.95983 0.0
C1384 C 0.6742 0.13133 0.96558 0.0
C1385 C 0.69161 0.14172 0.95999 0.0
C1386 C 0.6402 0.10225 0.96568 0.0
C1387 C 0.64125 0.09762 0.97794 0.0
C1388 C 0.62147 0.09569 0.95904 0.0
C1389 C 0.61938 0.10105 0.94633 0.0
C1390 C 0.62893 0.1209 0.94397 0.0
C1391 C 0.62703 0.12583 0.93195 0.0
C1392 C 0.61547 0.11106 0.92223 0.0
C1393 C 0.60577 0.09131 0.92452 0.0
C1394 C 0.60765 0.08629 0.93651 0.0
C1395 C 0.565 0.06065 0.99863 0.0
C1396 C 0.55128 0.04195 0.99245 0.0
C1397 C 0.58252 0.07291 0.99355 0.0
C1398 C 0.5866 0.06666 0.98222 0.0
C1399 C 0.57276 0.04818 0.97594 0.0
C1400 C 0.55533 0.03594 0.981 0.0
C1401 C 0.60533 0.07918 0.97687 0.0
C1402 C 0.6043 0.08413 0.9647 0.0
C1403 C 0.62406 0.08601 0.98359 0.0
C1404 C 0.62614 0.08051 0.99624 0.0
C1405 C 0.61747 0.06059 0.99837 0.0
C1406 C 0.61939 0.05552 0.01034 0.0
C1407 C 0.6301 0.07024 0.02024 0.0
C1408 C 0.63894 0.09006 0.01818 0.0
C1409 C 0.63704 0.09521 0.00623 0.0
H1410 H 0.63157 0.06628 0.0295 0.0
H1411 H 0.61401 0.11491 0.91294 0.0
H1412 H 0.82818 0.52474 0.95486 0.0
H1413 H 0.85336 0.51923 0.96515 0.0
H1414 H 0.89269 0.54936 0.93779 0.0
H1415 H 0.86735 0.55458 0.92732 0.0
H1416 H 0.89533 0.51837 0.94256 0.0
H1417 H 0.89817 0.57208 0.96743 0.0
H1418 H 0.8853 0.58991 0.97961 0.0
H1419 H 0.86592 0.54632 1.00547 0.0
H1420 H 0.87843 0.52807 0.99334 0.0
H1421 H 0.98132 0.53148 0.97882 0.0
H1422 H 0.95747 0.53785 0.96749 0.0
H1423 H 0.91356 0.50368 0.99151 0.0
H1424 H 0.93731 0.4974 1.00298 0.0
H1425 H 0.91477 0.53823 0.98806 0.0
H1426 H 0.91222 0.48444 0.96214 0.0
H1427 H 0.92754 0.46881 0.95028 0.0
H1428 H 0.94899 0.51532 0.9265 0.0
H1429 H 0.93396 0.53135 0.93831 0.0
C1430 C 0.84221 0.53023 0.95106 0.0
C1431 C 0.84583 0.54021 0.94033 0.0
C1432 C 0.85662 0.52709 0.95695 0.0
C1433 C 0.8751 0.53418 0.95239 0.0
C1434 C 0.87858 0.54377 0.9415 0.0
C1435 C 0.86408 0.54674 0.93552 0.0
C1436 C 0.89083 0.53182 0.95909 0.0
C1437 C 0.89974 0.52295 0.95248 0.0
C1438 C 0.89657 0.53765 0.97206 0.0
C1439 C 0.88907 0.54861 0.97941 0.0
C1440 C 0.89103 0.56622 0.97566 0.0
C1441 C 0.88382 0.57641 0.98256 0.0
C1442 C 0.87476 0.56922 0.99329 0.0
C1443 C 0.87293 0.55185 0.99715 0.0
C1444 C 0.88009 0.54159 0.99027 0.0
C1445 C 0.9666 0.52535 0.98173 0.0
C1446 C 0.96124 0.5139 0.99182 0.0
C1447 C 0.95296 0.52894 0.97519 0.0
C1448 C 0.93367 0.52108 0.97858 0.0
C1449 C 0.92836 0.50987 0.98873 0.0
C1450 C 0.94196 0.50625 0.99526 0.0
C1451 C 0.91896 0.52453 0.97158 0.0
C1452 C 0.91032 0.53367 0.97815 0.0
C1453 C 0.91368 0.51917 0.95856 0.0
C1454 C 0.9221 0.50918 0.95118 0.0
C1455 C 0.92026 0.49137 0.95441 0.0
C1456 C 0.92889 0.48243 0.94769 0.0
C1457 C 0.93928 0.4911 0.93767 0.0
C1458 C 0.94094 0.50864 0.93428 0.0
C1459 C 0.93234 0.51763 0.94096 0.0
H1460 H 0.94603 0.4842 0.93252 0.0
H1461 H 0.86919 0.57714 0.99862 0.0
H1462 H 0.39599 0.28924 0.94621 0.0
H1463 H 0.41075 0.32256 0.95675 0.0
H1464 H 0.41738 0.30182 0.99171 0.0
H1465 H 0.40337 0.26846 0.98117 0.0
H1466 H 0.40311 0.33099 0.99214 0.0
H1467 H 0.45552 0.32063 0.97964 0.0
H1468 H 0.47169 0.31007 0.96462 0.0
H1469 H 0.47398 0.35237 0.94058 0.0
H1470 H 0.45751 0.36295 0.95537 0.0
H1471 H 0.49879 0.43502 0.00768 0.0
H1472 H 0.48229 0.39933 1.00232 0.0
H1473 H 0.42992 0.3988 0.98699 0.0
H1474 H 0.44615 0.43433 0.9924 0.0
H1475 H 0.46846 0.37889 0.97941 0.0
H1476 H 0.38947 0.35579 0.99128 0.0
H1477 H 0.37342 0.36679 1.00615 0.0
H1478 H 0.4254 0.39171 0.03249 0.0
H1479 H 0.44168 0.38068 0.01785 0.0
C1480 C 0.40059 0.2917 0.95614 0.0
C1481 C 0.39878 0.2762 0.9628 0.0
C1482 C 0.40884 0.31072 0.96215 0.0
C1483 C 0.41522 0.31457 0.97495 0.0
C1484 C 0.41244 0.29903 0.98181 0.0
C1485 C 0.40438 0.27999 0.97577 0.0
C1486 C 0.42625 0.3351 0.98085 0.0
C1487 C 0.41743 0.3415 0.98944 0.0
C1488 C 0.44502 0.34862 0.97739 0.0
C1489 C 0.45513 0.34246 0.96856 0.0
C1490 C 0.45933 0.32757 0.9711 0.0
C1491 C 0.46857 0.3216 0.96264 0.0
C1492 C 0.47382 0.33051 0.95164 0.0
C1493 C 0.46988 0.34546 0.9491 0.0
C1494 C 0.46061 0.35146 0.95752 0.0
C1495 C 0.48372 0.42729 1.00324 0.0
C1496 C 0.4738 0.43751 1.00043 0.0
C1497 C 0.47434 0.40692 1.00018 0.0
C1498 C 0.45484 0.39643 0.99438 0.0
C1499 C 0.44486 0.40657 0.99165 0.0
C1500 C 0.45423 0.42692 0.99467 0.0
C1501 C 0.44522 0.37501 0.99058 0.0
C1502 C 0.45426 0.36842 0.98229 0.0
C1503 C 0.42672 0.36135 0.99439 0.0
C1504 C 0.41683 0.3675 1.00343 0.0
C1505 C 0.39742 0.36349 1.00028 0.0
C1506 C 0.3883 0.36977 0.00866 0.0
C1507 C 0.39839 0.37996 0.02024 0.0
C1508 C 0.41761 0.38385 0.0235 0.0
C1509 C 0.42681 0.37761 0.01516 0.0
H1510 H 0.39132 0.38485 0.0267 0.0
H1511 H 0.48097 0.32587 0.9451 0.0
H1512 H 0.17135 0.70316 0.07215 0.0
H1513 H 0.1464 0.67032 0.06215 0.0
H1514 H 0.10431 0.68994 0.05709 0.0
H1515 H 0.12939 0.72299 0.06685 0.0
H1516 H 0.0913 0.65182 0.06849 0.0
H1517 H 0.12037 0.68566 0.03297 0.0
H1518 H 0.14817 0.70574 0.02107 0.0
H1519 H 0.16574 0.66217 0.0211 0.0
H1520 H 0.1382 0.64195 0.03317 0.0
H1521 H 0.01757 0.56598 0.03064 0.0
H1522 H 0.0406 0.59992 0.03956 0.0
H1523 H 0.08982 0.59137 0.0337 0.0
H1524 H 0.06688 0.55781 0.02422 0.0
H1525 H 0.0986 0.62512 0.0276 0.0
H1526 H 0.07208 0.59174 0.06334 0.0
H1527 H 0.04594 0.57113 0.07617 0.0
H1528 H 0.02563 0.61262 0.07721 0.0
H1529 H 0.05149 0.63335 0.06423 0.0
C1530 C 0.15677 0.70044 0.06888 0.0
C1531 C 0.15223 0.71553 0.07023 0.0
C1532 C 0.1426 0.68175 0.06317 0.0
C1533 C 0.12359 0.67779 0.0589 0.0
C1534 C 0.11893 0.69277 0.06034 0.0
C1535 C 0.13324 0.7116 0.06583 0.0
C1536 C 0.10861 0.65793 0.05296 0.0
C1537 C 0.09264 0.64601 0.05946 0.0
C1538 C 0.11083 0.6503 0.04139 0.0
C1539 C 0.12734 0.66239 0.03408 0.0
C1540 C 0.13027 0.68045 0.03054 0.0
C1541 C 0.14596 0.69184 0.02375 0.0
C1542 C 0.15875 0.68526 0.02036 0.0
C1543 C 0.15584 0.66725 0.02374 0.0
C1544 C 0.14018 0.65582 0.03055 0.0
C1545 C 0.03331 0.57136 0.0313 0.0
C1546 C 0.04044 0.55926 0.02677 0.0
C1547 C 0.04647 0.59074 0.03645 0.0
C1548 C 0.067 0.59818 0.03751 0.0
C1549 C 0.07409 0.58603 0.03298 0.0
C1550 C 0.06096 0.56682 0.02759 0.0
C1551 C 0.08116 0.61868 0.04316 0.0
C1552 C 0.09706 0.63081 0.03661 0.0
C1553 C 0.07907 0.62636 0.05483 0.0
C1554 C 0.06359 0.61399 0.0627 0.0
C1555 C 0.06195 0.5964 0.06623 0.0
C1556 C 0.0472 0.5847 0.07354 0.0
C1557 C 0.0341 0.59053 0.07747 0.0
C1558 C 0.03577 0.6081 0.07414 0.0
C1559 C 0.05048 0.61984 0.06681 0.0
H1560 H 0.02268 0.58146 0.08313 0.0
H1561 H 0.17088 0.6941 0.01509 0.0
H1562 H 0.32691 0.44382 0.09042 0.0
H1563 H 0.35713 0.45179 0.08087 0.0
H1564 H 0.33562 0.46819 0.0487 0.0
H1565 H 0.3056 0.46069 0.05826 0.0
H1566 H 0.35054 0.44437 0.04217 0.0
H1567 H 0.37045 0.50271 0.07032 0.0
H1568 H 0.37545 0.52144 0.09069 0.0
H1569 H 0.41384 0.50165 0.10536 0.0
H1570 H 0.40872 0.48242 0.08515 0.0
H1571 H 0.43758 0.49466 0.01252 0.0
H1572 H 0.40841 0.48668 0.02329 0.0
H1573 H 0.43403 0.47334 0.05504 0.0
H1574 H 0.4633 0.48143 0.04442 0.0
H1575 H 0.41731 0.49445 0.06235 0.0
H1576 H 0.39843 0.43654 0.03529 0.0
H1577 H 0.39393 0.41681 0.01544 0.0
H1578 H 0.35414 0.43405 0.99946 0.0
H1579 H 0.35866 0.45416 0.01917 0.0
C1580 C 0.32869 0.44935 0.08138 0.0
C1581 C 0.31376 0.4516 0.07513 0.0
C1582 C 0.34595 0.45383 0.07591 0.0
C1583 C 0.34868 0.46068 0.06409 0.0
C1584 C 0.3338 0.46284 0.0578 0.0
C1585 C 0.31659 0.45846 0.06327 0.0
C1586 C 0.36695 0.46549 0.05819 0.0
C1587 C 0.36512 0.4555 0.04651 0.0
C1588 C 0.38603 0.47951 0.06406 0.0
C1589 C 0.389 0.49093 0.07625 0.0
C1590 C 0.37977 0.50216 0.07792 0.0
C1591 C 0.38265 0.51288 0.08944 0.0
C1592 C 0.39488 0.51265 0.09933 0.0
C1593 C 0.4043 0.50173 0.09771 0.0
C1594 C 0.40141 0.49091 0.08623 0.0
C1595 C 0.43708 0.49013 0.02182 0.0
C1596 C 0.45277 0.48858 0.02756 0.0
C1597 C 0.42034 0.48547 0.02794 0.0
C1598 C 0.41893 0.47917 0.03991 0.0
C1599 C 0.43477 0.4781 0.04579 0.0
C1600 C 0.45147 0.48267 0.03967 0.0
C1601 C 0.40087 0.47355 0.04625 0.0
C1602 C 0.40273 0.48331 0.05802 0.0
C1603 C 0.38183 0.45912 0.04055 0.0
C1604 C 0.37904 0.44703 0.02868 0.0
C1605 C 0.38886 0.43627 0.02751 0.0
C1606 C 0.38628 0.42498 0.0163 0.0
C1607 C 0.37379 0.42421 0.00619 0.0
C1608 C 0.36383 0.43469 0.0073 0.0
C1609 C 0.36638 0.44602 0.01849 0.0
H1610 H 0.3718 0.41545 0.99752 0.0
H1611 H 0.39712 0.521 0.10823 0.0
H1612 H 0.56642 0.85198 0.03953 0.0
H1613 H 0.55305 0.87093 0.03009 0.0
H1614 H 0.58102 0.91574 0.06154 0.0
H1615 H 0.59393 0.89657 0.07113 0.0
H1616 H 0.54487 0.90776 0.05638 0.0
H1617 H 0.59891 0.92187 0.03229 0.0
H1618 H 0.61893 0.9141 0.01888 0.0
H1619 H 0.56938 0.88384 0.99065 0.0
H1620 H 0.54897 0.89121 1.00397 0.0
H1621 H 0.54145 0.98677 0.03226 0.0
H1622 H 0.55322 0.96533 0.03935 0.0
H1623 H 0.51454 0.92003 0.00992 0.0
H1624 H 0.50259 0.94149 1.00266 0.0
H1625 H 0.55372 0.92627 0.01318 0.0
H1626 H 0.50062 0.91495 0.03766 0.0
H1627 H 0.48262 0.92553 0.0511 0.0
H1628 H 0.53284 0.9532 0.07894 0.0
H1629 H 0.55128 0.94305 0.06558 0.0
C1630 C 0.56987 0.86599 0.04433 0.0
C1631 C 0.58119 0.87285 0.05604 0.0
C1632 C 0.56225 0.87681 0.03894 0.0
C1633 C 0.56615 0.89485 0.04506 0.0
C1634 C 0.57773 0.90183 0.05667 0.0
C1635 C 0.58512 0.89091 0.06213 0.0
C1636 C 0.55777 0.90626 0.03958 0.0
C1637 C 0.54699 0.91195 0.04697 0.0
C1638 C 0.56012 0.91136 0.02721 0.0
C1639 C 0.57235 0.9069 0.01918 0.0
C1640 C 0.59224 0.91342 0.02326 0.0
C1641 C 0.60366 0.90911 0.01568 0.0
C1642 C 0.59542 0.89843 1.00394 0.0
C1643 C 0.57574 0.89208 0.99976 0.0
C1644 C 0.56424 0.89633 0.00732 0.0
C1645 C 0.53547 0.9723 0.02722 0.0
C1646 C 0.521 0.96579 0.01691 0.0
C1647 C 0.54219 0.96005 0.03132 0.0
C1648 C 0.53459 0.94107 0.02522 0.0
C1649 C 0.52052 0.93464 0.01475 0.0
C1650 C 0.51367 0.94688 0.01066 0.0
C1651 C 0.54116 0.92792 0.03004 0.0
C1652 C 0.55151 0.92189 0.02254 0.0
C1653 C 0.53865 0.92271 0.04236 0.0
C1654 C 0.52739 0.92835 0.05058 0.0
C1655 C 0.50787 0.92338 0.04662 0.0
C1656 C 0.49759 0.92929 0.05422 0.0
C1657 C 0.5066 0.94006 0.06585 0.0
C1658 C 0.52589 0.94486 0.06992 0.0
C1659 C 0.53625 0.93901 0.06235 0.0
H1660 H 0.49862 0.94465 0.07172 0.0
H1661 H 0.60429 0.89511 0.99808 0.0
H1662 H 0.99278 0.1838 0.40754 0.0
H1663 H 0.02119 0.20219 0.39612 0.0
H1664 H 0.00197 0.24373 0.38943 0.0
H1665 H 0.97281 0.22468 0.40008 0.0
H1666 H 0.01312 0.23606 0.36931 0.0
H1667 H 0.04188 0.25422 0.41155 0.0
H1668 H 0.05039 0.25019 0.43312 0.0
H1669 H 0.07974 0.22031 0.41951 0.0
H1670 H 0.07119 0.22394 0.39784 0.0
H1671 H 0.1067 0.31656 0.35799 0.0
H1672 H 0.07717 0.29463 0.36765 0.0
H1673 H 0.08783 0.24664 0.35976 0.0
H1674 H 0.11731 0.2685 0.34975 0.0
H1675 H 0.08148 0.2564 0.38656 0.0
H1676 H 0.05248 0.24168 0.34341 0.0
H1677 H 0.04627 0.25128 0.32306 0.0
H1678 H 0.01926 0.28102 0.34044 0.0
H1679 H 0.02554 0.27179 0.36093 0.0
C1680 C 0.99444 0.19672 0.40353 0.0
C1681 C 0.98041 0.2027 0.40476 0.0
C1682 C 0.01089 0.20741 0.39714 0.0
C1683 C 0.01392 0.22454 0.39203 0.0
C1684 C 1e-05 0.2306 0.3933 0.0
C1685 C 0.98343 0.21979 0.39954 0.0
C1686 C 0.03128 0.23586 0.3851 0.0
C1687 C 0.02805 0.24061 0.37317 0.0
C1688 C 0.05084 0.24172 0.39003 0.0
C1689 C 0.05567 0.23914 0.40305 0.0
C1690 C 0.04996 0.24659 0.41314 0.0
C1691 C 0.05484 0.24443 0.42539 0.0
C1692 C 0.06554 0.23494 0.42768 0.0
C1693 C 0.07141 0.22762 0.41772 0.0
C1694 C 0.06656 0.22974 0.40545 0.0
C1695 C 0.10264 0.30128 0.35819 0.0
C1696 C 0.11423 0.29418 0.35312 0.0
C1697 C 0.0858 0.2888 0.36371 0.0
C1698 C 0.08043 0.2691 0.36442 0.0
C1699 C 0.09182 0.26185 0.35927 0.0
C1700 C 0.10851 0.27426 0.3535 0.0
C1701 C 0.06314 0.25637 0.37089 0.0
C1702 C 0.06645 0.25152 0.38272 0.0
C1703 C 0.04375 0.25095 0.36607 0.0
C1704 C 0.0396 0.25615 0.35371 0.0
C1705 C 0.04533 0.25037 0.3429 0.0
C1706 C 0.04177 0.25572 0.33134 0.0
C1707 C 0.0324 0.26678 0.33046 0.0
C1708 C 0.0265 0.27244 0.34113 0.0
C1709 C 0.03003 0.26713 0.35272 0.0
H1710 H 0.02969 0.27094 0.3215 0.0
H1711 H 0.06935 0.23332 0.43717 0.0
H1712 H 0.83606 0.81806 0.4112 0.0
H1713 H 0.81215 0.82569 0.40146 0.0
H1714 H 0.77125 0.76373 0.39112 0.0
H1715 H 0.79553 0.75604 0.40016 0.0
H1716 H 0.77033 0.78213 0.37274 0.0
H1717 H 0.76564 0.79059 0.4161 0.0
H1718 H 0.77685 0.80305 0.43834 0.0
H1719 H 0.79879 0.8623 0.42947 0.0
H1720 H 0.78792 0.85021 0.40715 0.0
H1721 H 0.69309 0.81722 0.37711 0.0
H1722 H 0.71575 0.80817 0.38709 0.0
H1723 H 0.74953 0.82354 0.35545 0.0
H1724 H 0.72643 0.83186 0.3452 0.0
H1725 H 0.75217 0.82653 0.39536 0.0
H1726 H 0.77049 0.79587 0.35088 0.0
H1727 H 0.75432 0.77884 0.32993 0.0
H1728 H 0.69727 0.75604 0.34319 0.0
H1729 H 0.71309 0.7727 0.36425 0.0
C1730 C 0.82209 0.80604 0.40671 0.0
C1731 C 0.81777 0.7864 0.40652 0.0
C1732 C 0.80829 0.81042 0.40129 0.0
C1733 C 0.78972 0.79528 0.39571 0.0
C1734 C 0.78543 0.77569 0.39541 0.0
C1735 C 0.79929 0.7713 0.40071 0.0
C1736 C 0.77491 0.79985 0.39001 0.0
C1737 C 0.76638 0.79185 0.3777 0.0
C1738 C 0.7693 0.81212 0.39655 0.0
C1739 C 0.77616 0.8195 0.40993 0.0
C1740 C 0.77303 0.80629 0.41888 0.0
C1741 C 0.77928 0.81328 0.4315 0.0
C1742 C 0.78857 0.83346 0.43531 0.0
C1743 C 0.79162 0.84668 0.4265 0.0
C1744 C 0.7854 0.83976 0.41386 0.0
C1745 C 0.70534 0.81867 0.37227 0.0
C1746 C 0.70787 0.82513 0.36032 0.0
C1747 C 0.71833 0.81352 0.378 0.0
C1748 C 0.73424 0.81488 0.37197 0.0
C1749 C 0.73711 0.82187 0.36018 0.0
C1750 C 0.72393 0.82672 0.35435 0.0
C1751 C 0.74782 0.80904 0.37804 0.0
C1752 C 0.75615 0.81683 0.3904 0.0
C1753 C 0.75264 0.79595 0.37173 0.0
C1754 C 0.74299 0.78571 0.35911 0.0
C1755 C 0.7545 0.78716 0.34933 0.0
C1756 C 0.74539 0.77758 0.33744 0.0
C1757 C 0.72478 0.76642 0.33522 0.0
C1758 C 0.71323 0.76475 0.3449 0.0
C1759 C 0.72226 0.77428 0.35682 0.0
H1760 H 0.71776 0.75903 0.326 0.0
H1761 H 0.79338 0.83884 0.44509 0.0
H1762 H 0.22731 0.04326 0.38676 0.0
H1763 H 0.2159 0.00943 0.37863 0.0
H1764 H 0.27627 0.02362 0.37676 0.0
H1765 H 0.28785 0.05797 0.38416 0.0
H1766 H 0.2538 -0.00121 0.35735 0.0
H1767 H 0.25105 0.00125 0.4013 0.0
H1768 H 0.24239 0.00939 0.4215 0.0
H1769 H 0.18062 0.97331 0.40852 0.0
H1770 H 0.18891 0.96517 0.38817 0.0
H1771 H 0.20366 0.88798 0.37158 0.0
H1772 H 0.2207 0.92322 0.37848 0.0
H1773 H 0.20339 0.93409 0.34244 0.0
H1774 H 0.1871 0.89899 0.33533 0.0
H1775 H 0.20799 0.9468 0.38193 0.0
H1776 H 0.23553 0.97942 0.33546 0.0
H1777 H 0.24707 0.97112 0.31654 0.0
H1778 H 0.26523 0.93675 0.33693 0.0
H1779 H 0.25408 0.94509 0.35603 0.0
C1780 C 0.23821 0.0394 0.38435 0.0
C1781 C 0.25855 0.05342 0.38619 0.0
C1782 C 0.23164 0.01992 0.37985 0.0
C1783 C 0.24525 0.01388 0.37735 0.0
C1784 C 0.26551 0.02792 0.37873 0.0
C1785 C 0.27211 0.04752 0.38309 0.0
C1786 C 0.23826 0.99279 0.37372 0.0
C1787 C 0.24382 0.9874 0.36272 0.0
C1788 C 0.22568 0.97796 0.38092 0.0
C1789 C 0.22061 0.98273 0.39318 0.0
C1790 C 0.23562 0.99515 0.40273 0.0
C1791 C 0.23078 -0.00024 0.41421 0.0
C1792 C 0.21097 0.99191 0.41628 0.0
C1793 C 0.19596 0.9794 0.40689 0.0
C1794 C 0.20072 0.97477 0.39539 0.0
C1795 C 0.2036 0.89791 0.36511 0.0
C1796 C 0.1941 0.89076 0.35291 0.0
C1797 C 0.21334 0.91805 0.36906 0.0
C1798 C 0.21356 0.93139 0.36095 0.0
C1799 C 0.20388 0.9242 0.34879 0.0
C1800 C 0.19446 0.9041 0.34475 0.0
C1801 C 0.22316 0.95268 0.36538 0.0
C1802 C 0.21806 0.95813 0.37656 0.0
C1803 C 0.23665 0.96753 0.35853 0.0
C1804 C 0.2438 0.96276 0.34716 0.0
C1805 C 0.24209 0.97019 0.33593 0.0
C1806 C 0.24854 0.96545 0.32517 0.0
C1807 C 0.25683 0.95337 0.32553 0.0
C1808 C 0.25875 0.94606 0.33666 0.0
C1809 C 0.25235 0.95077 0.34745 0.0
H1810 H 0.26178 0.94971 0.31718 0.0
H1811 H 0.20725 0.99549 0.42518 0.0
H1812 H 0.51221 0.6376 0.27211 0.0
H1813 H 0.53692 0.67083 0.28161 0.0
H1814 H 0.56089 0.64615 0.30713 0.0
H1815 H 0.53633 0.61284 0.29754 0.0
H1816 H 0.55323 0.67648 0.31814 0.0
H1817 H 0.58611 0.66468 0.28529 0.0
H1818 H 0.58883 0.65525 0.26362 0.0
H1819 H 0.58196 0.70244 0.25131 0.0
H1820 H 0.57889 0.71197 0.27289 0.0
H1821 H 0.63764 0.76701 0.34277 0.0
H1822 H 0.61562 0.73295 0.33371 0.0
H1823 H 0.60077 0.75354 0.3009 0.0
H1824 H 0.62352 0.78757 0.30965 0.0
H1825 H 0.60437 0.72417 0.29385 0.0
H1826 H 0.5697 0.73558 0.32533 0.0
H1827 H 0.56498 0.74522 0.34643 0.0
H1828 H 0.57253 0.69951 0.36072 0.0
H1829 H 0.57756 0.68975 0.33972 0.0
C1830 C 0.52271 0.63929 0.27977 0.0
C1831 C 0.52242 0.62273 0.2841 0.0
C1832 C 0.53683 0.65823 0.28514 0.0
C1833 C 0.55072 0.66087 0.29502 0.0
C1834 C 0.55028 0.64435 0.2995 0.0
C1835 C 0.53636 0.62541 0.29399 0.0
C1836 C 0.56569 0.68094 0.30064 0.0
C1837 C 0.56463 0.68687 0.31293 0.0
C1838 C 0.58012 0.69455 0.29366 0.0
C1839 C 0.58208 0.68891 0.28069 0.0
C1840 C 0.585 0.67293 0.27795 0.0
C1841 C 0.58664 0.66759 0.26568 0.0
C1842 C 0.58552 0.6782 0.25609 0.0
C1843 C 0.58281 0.69422 0.25874 0.0
C1844 C 0.58113 0.69961 0.27099 0.0
C1845 C 0.6297 0.76424 0.33361 0.0
C1846 C 0.6322 0.77993 0.32694 0.0
C1847 C 0.61703 0.74477 0.32847 0.0
C1848 C 0.60617 0.74062 0.31671 0.0
C1849 C 0.60893 0.75632 0.30998 0.0
C1850 C 0.62191 0.77578 0.315 0.0
C1851 C 0.59192 0.71997 0.31142 0.0
C1852 C 0.59307 0.71386 0.29915 0.0
C1853 C 0.57732 0.7063 0.31835 0.0
C1854 C 0.57421 0.71207 0.33098 0.0
C1855 C 0.57049 0.72767 0.33299 0.0
C1856 C 0.56774 0.73315 0.34493 0.0
C1857 C 0.56851 0.72302 0.35492 0.0
C1858 C 0.57197 0.70736 0.35298 0.0
C1859 C 0.57476 0.70184 0.34106 0.0
H1860 H 0.56638 0.72729 0.36416 0.0
H1861 H 0.5868 0.67405 0.2466 0.0
H1862 H 0.36304 0.87355 0.29075 0.0
H1863 H 0.33398 0.86686 0.30127 0.0
H1864 H 0.30466 0.86912 0.26675 0.0
H1865 H 0.33409 0.87655 0.25632 0.0
H1866 H 0.29663 0.88625 0.28477 0.0
H1867 H 0.29406 0.82449 0.27855 0.0
H1868 H 0.30645 0.80131 0.27951 0.0
H1869 H 0.31441 0.81113 0.31954 0.0
H1870 H 0.30232 0.83458 0.31882 0.0
H1871 H 0.19991 0.83734 0.30437 0.0
H1872 H 0.22884 0.84474 0.29356 0.0
H1873 H 0.26244 0.85213 0.32867 0.0
H1874 H 0.23354 0.84473 0.33962 0.0
H1875 H 0.26747 0.82967 0.30993 0.0
H1876 H 0.26879 0.89154 0.31535 0.0
H1877 H 0.25406 0.91264 0.31347 0.0
H1878 H 0.24609 0.90032 0.27355 0.0
H1879 H 0.26065 0.87904 0.27522 0.0
C1880 C 0.35037 0.87259 0.28542 0.0
C1881 C 0.35076 0.87542 0.2727 0.0
C1882 C 0.33373 0.8687 0.29142 0.0
C1883 C 0.31688 0.86705 0.28477 0.0
C1884 C 0.31741 0.87026 0.2721 0.0
C1885 C 0.33421 0.87448 0.26614 0.0
C1886 C 0.29874 0.86184 0.29101 0.0
C1887 C 0.29014 0.87372 0.29013 0.0
C1888 C 0.29027 0.8456 0.29814 0.0
C1889 C 0.29746 0.83143 0.29862 0.0
C1890 C 0.29858 0.82181 0.28755 0.0
C1891 C 0.30553 0.80861 0.28806 0.0
C1892 C 0.31126 0.80479 0.29958 0.0
C1893 C 0.30999 0.81412 0.31062 0.0
C1894 C 0.30307 0.82735 0.31017 0.0
C1895 C 0.21342 0.8405 0.30984 0.0
C1896 C 0.21438 0.84051 0.3229 0.0
C1897 C 0.22997 0.8448 0.30362 0.0
C1898 C 0.24785 0.84918 0.31032 0.0
C1899 C 0.24879 0.84883 0.32332 0.0
C1900 C 0.23226 0.84465 0.32957 0.0
C1901 C 0.26559 0.85416 0.30377 0.0
C1902 C 0.27404 0.8422 0.30457 0.0
C1903 C 0.27371 0.87012 0.29643 0.0
C1904 C 0.26558 0.88348 0.29541 0.0
C1905 C 0.2638 0.89325 0.30617 0.0
C1906 C 0.25552 0.90528 0.30515 0.0
C1907 C 0.2491 0.90779 0.2934 0.0
C1908 C 0.25105 0.89836 0.28265 0.0
C1909 C 0.25934 0.88632 0.28363 0.0
H1910 H 0.24266 0.91708 0.29264 0.0
H1911 H 0.31664 0.79456 0.29995 0.0
H1912 H 0.07641 0.46612 0.31699 0.0
H1913 H 0.09108 0.44742 0.32498 0.0
H1914 H 0.06805 0.40773 0.29101 0.0
H1915 H 0.05379 0.42663 0.28277 0.0
H1916 H 0.0654 0.38892 0.31327 0.0
H1917 H 0.113 0.44334 0.29282 0.0
H1918 H 0.13239 0.47832 0.2893 0.0
H1919 H 0.15908 0.49314 0.32727 0.0
H1920 H 0.13959 0.45825 0.33107 0.0
H1921 H 0.12687 0.34779 0.31314 0.0
H1922 H 0.10925 0.36491 0.30769 0.0
H1923 H 0.14145 0.40848 0.33932 0.0
H1924 H 0.15952 0.39165 0.34469 0.0
H1925 H 0.13881 0.42554 0.31961 0.0
H1926 H 0.09353 0.37155 0.34013 0.0
H1927 H 0.07416 0.33686 0.34427 0.0
H1928 H 0.04294 0.32137 0.30751 0.0
H1929 H 0.06235 0.35593 0.30306 0.0
C1930 C 0.07437 0.45336 0.31123 0.0
C1931 C 0.06415 0.44804 0.29916 0.0
C1932 C 0.08267 0.44264 0.31585 0.0
C1933 C 0.08081 0.42637 0.30851 0.0
C1934 C 0.06959 0.42025 0.2968 0.0
C1935 C 0.0614 0.43105 0.29213 0.0
C1936 C 0.09192 0.41675 0.31259 0.0
C1937 C 0.08144 0.39682 0.31457 0.0
C1938 C 0.11282 0.42729 0.31457 0.0
C1939 C 0.12468 0.44823 0.31227 0.0
C1940 C 0.12288 0.45408 0.30045 0.0
C1941 C 0.1339 0.47389 0.2984 0.0
C1942 C 0.14691 0.48796 0.30807 0.0
C1943 C 0.14897 0.48223 0.3198 0.0
C1944 C 0.13795 0.46244 0.3219 0.0
C1945 C 0.13028 0.36106 0.31892 0.0
C1946 C 0.14451 0.36829 0.3294 0.0
C1947 C 0.1201 0.37077 0.31583 0.0
C1948 C 0.12373 0.38773 0.32326 0.0
C1949 C 0.13834 0.39533 0.33351 0.0
C1950 C 0.14866 0.38571 0.33656 0.0
C1951 C 0.11234 0.39757 0.32024 0.0
C1952 C 0.12276 0.41759 0.31844 0.0
C1953 C 0.09138 0.38712 0.31855 0.0
C1954 C 0.07953 0.36633 0.32122 0.0
C1955 C 0.08263 0.36073 0.33289 0.0
C1956 C 0.07163 0.34109 0.3353 0.0
C1957 C 0.05736 0.32691 0.32615 0.0
C1958 C 0.05402 0.33236 0.31458 0.0
C1959 C 0.065 0.35199 0.31211 0.0
H1960 H 0.04886 0.31172 0.32804 0.0
H1961 H 0.15544 0.50328 0.30646 0.0
H1962 H 0.37685 0.45713 0.29712 0.0
H1963 H 0.34706 0.43806 0.3072 0.0
H1964 H 0.31318 0.44905 0.27914 0.0
H1965 H 0.34317 0.46939 0.26954 0.0
H1966 H 0.30209 0.45275 0.30046 0.0
H1967 H 0.31209 0.4036 0.27953 0.0
H1968 H 0.33033 0.38686 0.27374 0.0
H1969 H 0.33735 0.37734 0.31198 0.0
H1970 H 0.31938 0.39427 0.31803 0.0
H1971 H 0.20659 0.37425 0.30996 0.0
H1972 H 0.23752 0.39493 0.30119 0.0
H1973 H 0.27073 0.39463 0.33446 0.0
H1974 H 0.23982 0.37407 0.3434 0.0
H1975 H 0.28219 0.3855 0.31118 0.0
H1976 H 0.27036 0.43435 0.33135 0.0
H1977 H 0.25041 0.44969 0.33598 0.0
H1978 H 0.24489 0.458 0.29732 0.0
H1979 H 0.26458 0.44243 0.29243 0.0
C1980 C 0.36314 0.45575 0.29316 0.0
C1981 C 0.36251 0.46485 0.28247 0.0
C1982 C 0.34601 0.44455 0.29885 0.0
C1983 C 0.32775 0.4418 0.29383 0.0
C1984 C 0.32706 0.45086 0.28318 0.0
C1985 C 0.34423 0.46232 0.27759 0.0
C1986 C 0.30943 0.42977 0.29977 0.0
C1987 C 0.29766 0.43795 0.30264 0.0
C1988 C 0.30374 0.41056 0.30286 0.0
C1989 C 0.31457 0.40039 0.29925 0.0
C1990 C 0.31766 0.39808 0.28672 0.0
C1991 C 0.32793 0.38853 0.28339 0.0
C1992 C 0.33504 0.38109 0.29249 0.0
C1993 C 0.33186 0.38314 0.30495 0.0
C1994 C 0.32162 0.3927 0.30833 0.0
C1995 C 0.22046 0.37862 0.31544 0.0
C1996 C 0.22078 0.37255 0.32738 0.0
C1997 C 0.2381 0.39048 0.31043 0.0
C1998 C 0.25635 0.39631 0.31721 0.0
C1999 C 0.25675 0.39026 0.32911 0.0
C2000 C 0.23911 0.37861 0.33421 0.0
C2001 C 0.27499 0.40851 0.31175 0.0
C2002 C 0.28676 0.40033 0.30899 0.0
C2003 C 0.2805 0.42756 0.30857 0.0
C2004 C 0.26879 0.43705 0.31151 0.0
C2005 C 0.26475 0.43929 0.32382 0.0
C2006 C 0.25352 0.44806 0.32649 0.0
C2007 C 0.24635 0.45477 0.31694 0.0
C2008 C 0.25044 0.45277 0.30471 0.0
C2009 C 0.26165 0.444 0.30198 0.0
H2010 H 0.23765 0.46155 0.31903 0.0
H2011 H 0.34298 0.3737 0.28989 0.0
H2012 H 0.49386 0.86098 0.28632 0.0
H2013 H 0.51927 0.85559 0.2964 0.0
H2014 H 0.55843 0.88663 0.26915 0.0
H2015 H 0.53271 0.89146 0.25879 0.0
H2016 H 0.56222 0.85661 0.27354 0.0
H2017 H 0.56344 0.90845 0.29941 0.0
H2018 H 0.55003 0.9254 0.31192 0.0
H2019 H 0.53055 0.88048 0.33685 0.0
H2020 H 0.5436 0.8631 0.32438 0.0
H2021 H 0.64726 0.86838 0.31051 0.0
H2022 H 0.62377 0.87514 0.2991 0.0
H2023 H 0.5787 0.83926 0.32197 0.0
H2024 H 0.6021 0.83268 0.33356 0.0
H2025 H 0.57999 0.87386 0.31932 0.0
H2026 H 0.57966 0.82219 0.29204 0.0
H2027 H 0.59659 0.80849 0.28004 0.0
H2028 H 0.61805 0.85706 0.2579 0.0
H2029 H 0.60145 0.87119 0.26988 0.0
C2030 C 0.50791 0.86669 0.28251 0.0
C2031 C 0.51138 0.87677 0.27184 0.0
C2032 C 0.52246 0.86364 0.28828 0.0
C2033 C 0.54097 0.87104 0.2837 0.0
C2034 C 0.54431 0.88081 0.27289 0.0
C2035 C 0.52963 0.88359 0.26699 0.0
C2036 C 0.55684 0.86877 0.2903 0.0
C2037 C 0.56626 0.86062 0.28353 0.0
C2038 C 0.5622 0.87396 0.30335 0.0
C2039 C 0.55435 0.88438 0.31089 0.0
C2040 C 0.55617 0.90211 0.30751 0.0
C2041 C 0.54865 0.91181 0.3146 0.0
C2042 C 0.5394 0.904 0.32515 0.0
C2043 C 0.53769 0.8865 0.32866 0.0
C2044 C 0.54517 0.87673 0.32159 0.0
C2045 C 0.63235 0.86194 0.31314 0.0
C2046 C 0.62657 0.84997 0.32297 0.0
C2047 C 0.61893 0.86575 0.30656 0.0
C2048 C 0.59942 0.85754 0.3096 0.0
C2049 C 0.59367 0.84574 0.31946 0.0
C2050 C 0.60708 0.84195 0.32606 0.0
C2051 C 0.58495 0.86131 0.30262 0.0
C2052 C 0.5759 0.86985 0.30933 0.0
C2053 C 0.58025 0.85682 0.28952 0.0
C2054 C 0.58944 0.84784 0.28193 0.0
C2055 C 0.58803 0.82997 0.28463 0.0
C2056 C 0.59758 0.82215 0.27784 0.0
C2057 C 0.60848 0.83196 0.26826 0.0
C2058 C 0.60967 0.84952 0.26536 0.0
C2059 C 0.60015 0.85742 0.27212 0.0
H2060 H 0.61593 0.82592 0.26304 0.0
H2061 H 0.53359 0.91153 0.33063 0.0
H2062 H 0.10395 0.61907 0.29634 0.0
H2063 H 0.11562 0.65278 0.30544 0.0
H2064 H 0.05526 0.63912 0.30641 0.0
H2065 H 0.04348 0.60523 0.29736 0.0
H2066 H 0.08054 0.67441 0.29536 0.0
H2067 H 0.07912 0.64372 0.33263 0.0
H2068 H 0.08651 0.62361 0.34613 0.0
H2069 H 0.14877 0.66353 0.34608 0.0
H2070 H 0.14176 0.68373 0.33241 0.0
H2071 H 0.10812 0.76679 0.32802 0.0
H2072 H 0.09233 0.73143 0.32176 0.0
H2073 H 0.14914 0.73518 0.32692 0.0
H2074 H 0.16488 0.77037 0.33364 0.0
H2075 H 0.123 0.70372 0.33568 0.0
H2076 H 0.12595 0.73265 0.29747 0.0
H2077 H 0.1203 0.75284 0.28306 0.0
H2078 H 0.05755 0.71663 0.28368 0.0
H2079 H 0.06285 0.69637 0.29824 0.0
C2080 C 0.0932 0.62326 0.29854 0.0
C2081 C 0.07284 0.60963 0.29616 0.0
C2082 C 0.09986 0.64244 0.30378 0.0
C2083 C 0.08627 0.64833 0.30663 0.0
C2084 C 0.06593 0.63476 0.30429 0.0
C2085 C 0.05924 0.61546 0.2992 0.0
C2086 C 0.09347 0.6689 0.31167 0.0
C2087 C 0.08952 0.68079 0.30428 0.0
C2088 C 0.10564 0.67721 0.32312 0.0
C2089 C 0.1099 0.66516 0.33141 0.0
C2090 C 0.09439 0.64813 0.33541 0.0
C2091 C 0.09851 0.63673 0.34311 0.0
C2092 C 0.11809 0.64226 0.34694 0.0
C2093 C 0.1336 0.65925 0.3431 0.0
C2094 C 0.12956 0.67069 0.33539 0.0
C2095 C 0.11723 0.76006 0.32782 0.0
C2096 C 0.13774 0.77135 0.33125 0.0
C2097 C 0.1082 0.73987 0.3242 0.0
C2098 C 0.11959 0.73069 0.32368 0.0
C2099 C 0.14005 0.74192 0.32726 0.0
C2100 C 0.14903 0.76205 0.33106 0.0
C2101 C 0.11029 0.70943 0.31931 0.0
C2102 C 0.11387 0.69738 0.32681 0.0
C2103 C 0.09804 0.70103 0.30784 0.0
C2104 C 0.09481 0.71313 0.29905 0.0
C2105 C 0.11096 0.72909 0.29461 0.0
C2106 C 0.10781 0.74053 0.2864 0.0
C2107 C 0.08858 0.73606 0.28249 0.0
C2108 C 0.07244 0.7201 0.28674 0.0
C2109 C 0.07551 0.70862 0.29496 0.0
H2110 H 0.08618 0.74493 0.27613 0.0
H2111 H 0.12125 0.63341 0.3529 0.0
H2112 H 0.8052 0.06099 0.38867 0.0
H2113 H 0.78121 0.02819 0.37853 0.0
H2114 H 0.79849 0.00217 0.40713 0.0
H2115 H 0.82347 0.03481 0.41676 0.0
H2116 H 0.79417 0.98299 0.38634 0.0
H2117 H 0.7545 0.0046 0.40616 0.0
H2118 H 0.74169 0.02679 0.41128 0.0
H2119 H 0.72019 0.02067 0.37275 0.0
H2120 H 0.7331 -0.00137 0.36738 0.0
H2121 H 0.68593 0.89499 0.37152 0.0
H2122 H 0.70926 0.92831 0.38136 0.0
H2123 H 0.74895 0.93556 0.35362 0.0
H2124 H 0.72605 0.90207 0.34403 0.0
H2125 H 0.72417 0.96363 0.37473 0.0
H2126 H 0.79621 0.96331 0.36595 0.0
H2127 H 0.80775 0.93949 0.36347 0.0
H2128 H 0.76253 0.90034 0.38484 0.0
H2129 H 0.75091 0.92404 0.3876 0.0
C2130 C 0.80412 0.04832 0.39272 0.0
C2131 C 0.81628 0.05065 0.4036 0.0
C2132 C 0.79016 0.02952 0.387 0.0
C2133 C 0.78776 0.01265 0.39217 0.0
C2134 C 0.79996 0.01493 0.40297 0.0
C2135 C 0.81411 0.03368 0.40857 0.0
C2136 C 0.7728 0.99257 0.38628 0.0
C2137 C 0.77887 0.9788 0.38381 0.0
C2138 C 0.75272 0.98688 0.38316 0.0
C2139 C 0.74494 0.00013 0.38635 0.0
C2140 C 0.74717 0.0081 0.39877 0.0
C2141 C 0.73987 0.02063 0.40171 0.0
C2142 C 0.73018 0.02517 0.39234 0.0
C2143 C 0.72772 0.01716 0.38 0.0
C2144 C 0.73502 0.00464 0.377 0.0
C2145 C 0.69961 0.90371 0.3675 0.0
C2146 C 0.70425 0.89584 0.35708 0.0
C2147 C 0.71291 0.92278 0.37312 0.0
C2148 C 0.73101 0.93435 0.36836 0.0
C2149 C 0.7353 0.92676 0.35765 0.0
C2150 C 0.72216 0.90762 0.35215 0.0
C2151 C 0.74561 0.95417 0.37475 0.0
C2152 C 0.73948 0.96787 0.37727 0.0
C2153 C 0.7655 0.95961 0.37831 0.0
C2154 C 0.77257 0.94538 0.37686 0.0
C2155 C 0.78879 0.94966 0.37016 0.0
C2156 C 0.79533 0.93617 0.3687 0.0
C2157 C 0.78584 0.91838 0.37396 0.0
C2158 C 0.76983 0.91409 0.38073 0.0
C2159 C 0.76325 0.92754 0.38224 0.0
H2160 H 0.79091 0.90795 0.3728 0.0
H2161 H 0.72453 0.03487 0.39464 0.0
H2162 H 0.98773 0.7724 0.42102 0.0
H2163 H 0.01793 0.7807 0.41137 0.0
H2164 H -0.00033 0.80468 0.38194 0.0
H2165 H 0.96943 0.79637 0.39152 0.0
H2166 H 0.01358 0.78264 0.37253 0.0
H2167 H 0.03552 0.83445 0.4061 0.0
H2168 H 0.04004 0.84854 0.42791 0.0
H2169 H 0.07304 0.82088 0.43884 0.0
H2170 H 0.06846 0.80638 0.41711 0.0
H2171 H 0.10474 0.83445 0.34724 0.0
H2172 H 0.07535 0.82663 0.35767 0.0
H2173 H 0.09404 0.8013 0.38596 0.0
H2174 H 0.12362 0.80927 0.37569 0.0
H2175 H 0.08009 0.82361 0.39611 0.0
H2176 H 0.0584 0.77195 0.36271 0.0
H2177 H 0.05416 0.75789 0.34093 0.0
H2178 H 0.02082 0.7851 0.32977 0.0
H2179 H 0.02512 0.79958 0.35147 0.0
C2180 C 0.99022 0.77958 0.41254 0.0
C2181 C 0.97618 0.78377 0.40706 0.0
C2182 C 0.00749 0.78431 0.40703 0.0
C2183 C 0.01121 0.79354 0.396 0.0
C2184 C 0.99713 0.79755 0.39044 0.0
C2185 C 0.97981 0.79274 0.39591 0.0
C2186 C 0.02968 0.79888 0.39018 0.0
C2187 C 0.02812 0.79182 0.37765 0.0
C2188 C 0.04868 0.81044 0.39693 0.0
C2189 C 0.05146 0.81916 0.41 0.0
C2190 C 0.0436 0.83124 0.41317 0.0
C2191 C 0.0462 0.83932 0.42552 0.0
C2192 C 0.05677 0.83556 0.43476 0.0
C2193 C 0.06482 0.82375 0.43167 0.0
C2194 C 0.06223 0.8156 0.41934 0.0
C2195 C 0.10269 0.82729 0.35572 0.0
C2196 C 0.11652 0.82237 0.36057 0.0
C2197 C 0.08581 0.82276 0.36163 0.0
C2198 C 0.08234 0.81312 0.3725 0.0
C2199 C 0.09637 0.80867 0.37756 0.0
C2200 C 0.11326 0.81319 0.37165 0.0
C2201 C 0.06395 0.80747 0.37847 0.0
C2202 C 0.06553 0.81443 0.39101 0.0
C2203 C 0.04497 0.7958 0.37174 0.0
C2204 C 0.04225 0.787 0.3587 0.0
C2205 C 0.05029 0.77506 0.3556 0.0
C2206 C 0.04786 0.767 0.34327 0.0
C2207 C 0.03727 0.77064 0.33396 0.0
C2208 C 0.02904 0.78231 0.33698 0.0
C2209 C 0.03146 0.79044 0.3493 0.0
H2210 H 0.0354 0.76438 0.32442 0.0
H2211 H 0.05878 0.84184 0.44431 0.0
H2212 H 0.24808 0.19491 0.37438 0.0
H2213 H 0.23434 0.21374 0.36528 0.0
H2214 H 0.24444 0.24616 0.40126 0.0
H2215 H 0.2586 0.22774 0.41039 0.0
H2216 H 0.20669 0.23169 0.38964 0.0
H2217 H 0.27388 0.2678 0.37947 0.0
H2218 H 0.30353 0.2716 0.37047 0.0
H2219 H 0.27065 0.2499 0.33415 0.0
H2220 H 0.24071 0.2457 0.34298 0.0
H2221 H 0.19144 0.30846 0.37348 0.0
H2222 H 0.205 0.28871 0.38104 0.0
H2223 H 0.19949 0.2635 0.34332 0.0
H2224 H 0.18644 0.28378 0.33562 0.0
H2225 H 0.23378 0.27266 0.35499 0.0
H2226 H 0.16691 0.23735 0.36457 0.0
H2227 H 0.13689 0.2332 0.37322 0.0
H2228 H 0.16809 0.25214 0.41007 0.0
H2229 H 0.19839 0.25667 0.40162 0.0
C2230 C 0.2477 0.20628 0.38032 0.0
C2231 C 0.25443 0.2098 0.39312 0.0
C2232 C 0.23976 0.21695 0.37511 0.0
C2233 C 0.23842 0.23134 0.38261 0.0
C2234 C 0.24526 0.23502 0.39535 0.0
C2235 C 0.25328 0.22444 0.40054 0.0
C2236 C 0.22947 0.2423 0.37726 0.0
C2237 C 0.21271 0.24083 0.38216 0.0
C2238 C 0.237 0.25368 0.36723 0.0
C2239 C 0.255 0.25624 0.36191 0.0
C2240 C 0.27292 0.26367 0.36959 0.0
C2241 C 0.28979 0.26593 0.36451 0.0
C2242 C 0.28896 0.26094 0.35175 0.0
C2243 C 0.27127 0.25373 0.34404 0.0
C2244 C 0.25435 0.25142 0.34907 0.0
C2245 C 0.19299 0.29864 0.36678 0.0
C2246 C 0.18777 0.29761 0.35395 0.0
C2247 C 0.2007 0.28729 0.37113 0.0
C2248 C 0.20296 0.27436 0.36277 0.0
C2249 C 0.19782 0.27334 0.34994 0.0
C2250 C 0.19033 0.2849 0.34556 0.0
C2251 C 0.21106 0.26224 0.36745 0.0
C2252 C 0.22764 0.26343 0.36242 0.0
C2253 C 0.20325 0.25045 0.3773 0.0
C2254 C 0.18497 0.2475 0.38244 0.0
C2255 C 0.16741 0.24074 0.37451 0.0
C2256 C 0.15033 0.23831 0.37938 0.0
C2257 C 0.15059 0.24244 0.39218 0.0
C2258 C 0.16791 0.24896 0.40015 0.0
C2259 C 0.18504 0.25144 0.39533 0.0
H2260 H 0.13736 0.24056 0.39593 0.0
H2261 H 0.30204 0.26271 0.34784 0.0
H2262 H 0.63612 0.5525 0.72941 0.0
H2263 H 0.66463 0.57153 0.71819 0.0
H2264 H 0.68375 0.52953 0.72333 0.0
H2265 H 0.65593 0.51105 0.73523 0.0
H2266 H 0.71428 0.56487 0.72721 0.0
H2267 H 0.6606 0.53077 0.69485 0.0
H2268 H 0.62765 0.51954 0.68383 0.0
H2269 H 0.64382 0.57947 0.67994 0.0
H2270 H 0.67678 0.59108 0.69109 0.0
H2271 H 0.78263 0.59942 0.6812 0.0
H2272 H 0.75206 0.57723 0.69004 0.0
H2273 H 0.74025 0.62475 0.69639 0.0
H2274 H 0.771 0.6471 0.68793 0.0
H2275 H 0.70601 0.58509 0.68567 0.0
H2276 H 0.75914 0.61859 0.71918 0.0
H2277 H 0.79261 0.62928 0.72894 0.0
H2278 H 0.77723 0.56894 0.72999 0.0
H2279 H 0.74377 0.55788 0.71979 0.0
C2280 C 0.64649 0.5474 0.72831 0.0
C2281 C 0.64362 0.53015 0.73321 0.0
C2282 C 0.66268 0.55818 0.72172 0.0
C2283 C 0.67617 0.55178 0.7197 0.0
C2284 C 0.67348 0.5347 0.72469 0.0
C2285 C 0.65742 0.52403 0.73139 0.0
C2286 C 0.69326 0.56308 0.71255 0.0
C2287 C 0.71237 0.56897 0.71804 0.0
C2288 C 0.6909 0.56873 0.70064 0.0
C2289 C 0.6711 0.5618 0.6939 0.0
C2290 C 0.65708 0.54156 0.69173 0.0
C2291 C 0.63841 0.53513 0.68545 0.0
C2292 C 0.63363 0.54879 0.68122 0.0
C2293 C 0.64753 0.56891 0.68323 0.0
C2294 C 0.66622 0.57542 0.68952 0.0
C2295 C 0.77335 0.60502 0.68432 0.0
C2296 C 0.77917 0.62496 0.68396 0.0
C2297 C 0.75596 0.59237 0.68937 0.0
C2298 C 0.74399 0.59942 0.69385 0.0
C2299 C 0.7493 0.61907 0.69293 0.0
C2300 C 0.76689 0.63181 0.68818 0.0
C2301 C 0.72675 0.58678 0.70038 0.0
C2302 C 0.70773 0.58073 0.69479 0.0
C2303 C 0.72914 0.58085 0.71213 0.0
C2304 C 0.74904 0.58741 0.71858 0.0
C2305 C 0.76295 0.60759 0.72137 0.0
C2306 C 0.78192 0.61372 0.72699 0.0
C2307 C 0.78708 0.59981 0.7301 0.0
C2308 C 0.77323 0.57971 0.72757 0.0
C2309 C 0.75426 0.5735 0.72184 0.0
H2310 H 0.80178 0.6046 0.73448 0.0
H2311 H 0.61917 0.54378 0.67635 0.0
H2312 H 0.50166 0.14566 0.73605 0.0
H2313 H 0.47789 0.1531 0.7262 0.0
H2314 H 0.43165 0.09262 0.72615 0.0
H2315 H 0.45577 0.08449 0.73466 0.0
H2316 H 0.4246 0.10355 0.70642 0.0
H2317 H 0.43932 0.13306 0.74835 0.0
H2318 H 0.45985 0.1535 0.7676 0.0
H2319 H 0.48253 0.20526 0.74832 0.0
H2320 H 0.46233 0.18509 0.7289 0.0
H2321 H 0.34729 0.12659 0.69851 0.0
H2322 H 0.37049 0.11783 0.70817 0.0
H2323 H 0.41948 0.17097 0.69794 0.0
H2324 H 0.39641 0.17983 0.68817 0.0
H2325 H 0.42358 0.16299 0.72331 0.0
H2326 H 0.40614 0.12965 0.68094 0.0
H2327 H 0.38157 0.10737 0.66352 0.0
H2328 H 0.35914 0.05996 0.6866 0.0
H2329 H 0.38347 0.08202 0.7042 0.0
C2330 C 0.48657 0.13374 0.73371 0.0
C2331 C 0.48082 0.11441 0.7363 0.0
C2332 C 0.47282 0.13816 0.72828 0.0
C2333 C 0.45275 0.12359 0.72573 0.0
C2334 C 0.44698 0.10424 0.72811 0.0
C2335 C 0.46084 0.09967 0.7332 0.0
C2336 C 0.43786 0.12853 0.72055 0.0
C2337 C 0.42428 0.11641 0.71027 0.0
C2338 C 0.43726 0.14532 0.72547 0.0
C2339 C 0.44945 0.15753 0.73713 0.0
C2340 C 0.4488 0.14878 0.74819 0.0
C2341 C 0.46036 0.16032 0.75913 0.0
C2342 C 0.47253 0.18066 0.75917 0.0
C2343 C 0.47312 0.1895 0.74827 0.0
C2344 C 0.46161 0.17803 0.73729 0.0
C2345 C 0.363 0.13646 0.69834 0.0
C2346 C 0.37001 0.15389 0.69253 0.0
C2347 C 0.37622 0.13139 0.70383 0.0
C2348 C 0.39667 0.1437 0.70369 0.0
C2349 C 0.40373 0.16127 0.69812 0.0
C2350 C 0.39053 0.16626 0.69251 0.0
C2351 C 0.41073 0.13817 0.70923 0.0
C2352 C 0.42404 0.15015 0.71956 0.0
C2353 C 0.41064 0.12094 0.70463 0.0
C2354 C 0.39653 0.10752 0.6939 0.0
C2355 C 0.39593 0.11449 0.6823 0.0
C2356 C 0.38205 0.1019 0.6724 0.0
C2357 C 0.36877 0.08227 0.67396 0.0
C2358 C 0.36944 0.07516 0.68541 0.0
C2359 C 0.38329 0.08769 0.69534 0.0
H2360 H 0.35798 0.07257 0.6663 0.0
H2361 H 0.48147 0.18957 0.76766 0.0
H2362 H 0.91586 0.38876 0.70459 0.0
H2363 H 0.90376 0.35514 0.69515 0.0
H2364 H 0.91699 0.33959 0.73065 0.0
H2365 H 0.9295 0.37329 0.74003 0.0
H2366 H 0.92673 0.32316 0.71266 0.0
H2367 H 0.86953 0.32831 0.71976 0.0
H2368 H 0.84784 0.34253 0.71807 0.0
H2369 H 0.84039 0.33047 0.67816 0.0
H2370 H 0.86227 0.31642 0.6796 0.0
H2371 H 0.86204 0.21956 0.70434 0.0
H2372 H 0.87805 0.25475 0.71123 0.0
H2373 H 0.86978 0.26635 0.67348 0.0
H2374 H 0.85377 0.23114 0.66646 0.0
H2375 H 0.8584 0.28514 0.69119 0.0
H2376 H 0.91422 0.27757 0.68474 0.0
H2377 H 0.93508 0.26254 0.68713 0.0
H2378 H 0.94416 0.27827 0.72678 0.0
H2379 H 0.92309 0.29314 0.72464 0.0
C2380 C 0.91623 0.37815 0.71035 0.0
C2381 C 0.92351 0.38356 0.72305 0.0
C2382 C 0.9093 0.35896 0.70496 0.0
C2383 C 0.90916 0.34476 0.71225 0.0
C2384 C 0.91696 0.3503 0.72485 0.0
C2385 C 0.92411 0.36955 0.7302 0.0
C2386 C 0.90038 0.32397 0.70687 0.0
C2387 C 0.91173 0.3148 0.70807 0.0
C2388 C 0.88093 0.31316 0.70066 0.0
C2389 C 0.8677 0.32151 0.69978 0.0
C2390 C 0.86338 0.32882 0.71062 0.0
C2391 C 0.85104 0.33683 0.70971 0.0
C2392 C 0.84279 0.33746 0.69801 0.0
C2393 C 0.84682 0.33001 0.68721 0.0
C2394 C 0.85918 0.32201 0.68806 0.0
C2395 C 0.86363 0.22958 0.69749 0.0
C2396 C 0.85664 0.22257 0.68485 0.0
C2397 C 0.87286 0.24968 0.70144 0.0
C2398 C 0.87521 0.26311 0.69284 0.0
C2399 C 0.86813 0.25618 0.68024 0.0
C2400 C 0.85904 0.23608 0.67626 0.0
C2401 C 0.88469 0.28437 0.69709 0.0
C2402 C 0.87346 0.29358 0.6957 0.0
C2403 C 0.90415 0.29514 0.70323 0.0
C2404 C 0.91693 0.28632 0.70454 0.0
C2405 C 0.92053 0.27769 0.69398 0.0
C2406 C 0.93242 0.26922 0.69529 0.0
C2407 C 0.94091 0.26941 0.7071 0.0
C2408 C 0.93756 0.27811 0.71763 0.0
C2409 C 0.92567 0.28658 0.71637 0.0
H2410 H 0.95011 0.26285 0.7081 0.0
H2411 H 0.83324 0.34366 0.69733 0.0
H2412 H 0.17037 0.95862 0.62049 0.0
H2413 H 0.1937 0.99262 0.62833 0.0
H2414 H 0.24201 0.98142 0.62659 0.0
H2415 H 0.21854 0.94675 0.61995 0.0
H2416 H 0.2503 0.00521 0.64575 0.0
H2417 H 0.22923 0.00515 0.60363 0.0
H2418 H 0.20595 0.99757 0.58489 0.0
H2419 H 0.182 0.02967 0.60318 0.0
H2420 H 0.20495 0.03722 0.6221 0.0
H2421 H 0.31956 0.10921 0.6504 0.0
H2422 H 0.29931 0.07491 0.64116 0.0
H2423 H 0.24674 0.07442 0.65111 0.0
H2424 H 0.2668 0.10859 0.66042 0.0
H2425 H 0.24361 0.05727 0.62628 0.0
H2426 H 0.26603 0.05501 0.66919 0.0
H2427 H 0.29251 0.06415 0.68624 0.0
H2428 H 0.31797 0.03765 0.6637 0.0
H2429 H 0.29173 0.02854 0.64645 0.0
C2430 C 0.18587 0.96312 0.62205 0.0
C2431 C 0.19242 0.94972 0.61947 0.0
C2432 C 0.1993 0.9828 0.62631 0.0
C2433 C 0.21973 0.98983 0.62769 0.0
C2434 C 0.22635 0.97646 0.62546 0.0
C2435 C 0.21286 0.95662 0.62149 0.0
C2436 C 0.23406 0.01112 0.63145 0.0
C2437 C 0.24897 0.01654 0.64133 0.0
C2438 C 0.23253 0.02607 0.6257 0.0
C2439 C 0.21871 0.02161 0.61432 0.0
C2440 C 0.21891 0.01048 0.60369 0.0
C2441 C 0.20578 0.00621 0.59303 0.0
C2442 C 0.19248 0.0131 0.59286 0.0
C2443 C 0.1923 0.02432 0.60333 0.0
C2444 C 0.20538 0.02863 0.61402 0.0
C2445 C 0.30368 0.10185 0.65053 0.0
C2446 C 0.29478 0.11157 0.65621 0.0
C2447 C 0.29216 0.08226 0.64529 0.0
C2448 C 0.27159 0.07215 0.64556 0.0
C2449 C 0.26262 0.082 0.65084 0.0
C2450 C 0.27411 0.10149 0.6562 0.0
C2451 C 0.25932 0.05111 0.64067 0.0
C2452 C 0.2449 0.04581 0.63057 0.0
C2453 C 0.26168 0.03637 0.64597 0.0
C2454 C 0.27702 0.04124 0.6565 0.0
C2455 C 0.27731 0.0512 0.66785 0.0
C2456 C 0.29227 0.05637 0.67755 0.0
C2457 C 0.30694 0.05153 0.67604 0.0
C2458 C 0.3066 0.0414 0.66485 0.0
C2459 C 0.29168 0.0362 0.65512 0.0
H2460 H 0.31855 0.0556 0.68354 0.0
H2461 H 0.18233 0.00977 0.5846 0.0
H2462 H -0.00054 0.20814 0.58947 0.0
H2463 H 0.9698 0.20049 0.59964 0.0
H2464 H -0.00052 0.20081 0.63478 0.0
H2465 H 0.02884 0.20771 0.62451 0.0
H2466 H 0.96407 0.17127 0.63237 0.0
H2467 H 0.99157 0.23975 0.62671 0.0
H2468 H 0.0042 0.26873 0.61493 0.0
H2469 H 0.94805 0.24294 0.59267 0.0
H2470 H 0.93517 0.2137 0.60422 0.0
H2471 H 0.89818 0.17768 0.67215 0.0
H2472 H 0.9271 0.18482 0.66134 0.0
H2473 H 0.89369 0.17689 0.62604 0.0
H2474 H 0.86473 0.16986 0.63675 0.0
H2475 H 0.93026 0.20988 0.62824 0.0
H2476 H 0.90295 0.14162 0.6341 0.0
H2477 H 0.89024 0.11299 0.6462 0.0
H2478 H 0.94632 0.13919 0.66858 0.0
H2479 H 0.95928 0.16812 0.65673 0.0
C2480 C -0.00036 0.20668 0.59938 0.0
C2481 C 0.01644 0.20855 0.60622 0.0
C2482 C 0.98272 0.20238 0.6052 0.0
C2483 C 0.98244 0.20036 0.61805 0.0
C2484 C -0.00073 0.20227 0.62487 0.0
C2485 C 0.01605 0.20623 0.61901 0.0
C2486 C 0.96454 0.19586 0.62437 0.0
C2487 C 0.95689 0.17993 0.6316 0.0
C2488 C 0.95475 0.20678 0.62313 0.0
C2489 C 0.96249 0.22441 0.61622 0.0
C2490 C 0.98197 0.24018 0.61923 0.0
C2491 C 0.98917 0.25667 0.61261 0.0
C2492 C 0.97696 0.25764 0.60303 0.0
C2493 C 0.95751 0.24215 0.60007 0.0
C2494 C 0.95025 0.22562 0.60665 0.0
C2495 C 0.89693 0.17741 0.66209 0.0
C2496 C 0.87907 0.17311 0.65533 0.0
C2497 C 0.91348 0.18143 0.65591 0.0
C2498 C 0.9125 0.18122 0.64287 0.0
C2499 C 0.89476 0.1771 0.63611 0.0
C2500 C 0.87819 0.173 0.64226 0.0
C2501 C 0.93004 0.18549 0.63628 0.0
C2502 C 0.93754 0.2013 0.629 0.0
C2503 C 0.93975 0.17455 0.63751 0.0
C2504 C 0.93202 0.15712 0.64461 0.0
C2505 C 0.91252 0.14134 0.64167 0.0
C2506 C 0.90528 0.12505 0.64847 0.0
C2507 C 0.91745 0.12429 0.65817 0.0
C2508 C 0.9369 0.13981 0.66107 0.0
C2509 C 0.94421 0.15615 0.65431 0.0
H2510 H 0.91182 0.11166 0.66342 0.0
H2511 H 0.98256 0.27043 0.59792 0.0
H2512 H 0.7783 0.81635 0.62889 0.0
H2513 H 0.79244 0.79776 0.63743 0.0
H2514 H 0.73439 0.74588 0.63415 0.0
H2515 H 0.71982 0.76485 0.62663 0.0
H2516 H 0.75354 0.74664 0.65439 0.0
H2517 H 0.76891 0.75435 0.61226 0.0
H2518 H 0.78185 0.77215 0.59397 0.0
H2519 H 0.84017 0.80428 0.61374 0.0
H2520 H 0.82752 0.78685 0.63222 0.0
H2521 H 0.78631 0.67668 0.65249 0.0
H2522 H 0.77269 0.69701 0.64585 0.0
H2523 H 0.82673 0.74945 0.66127 0.0
H2524 H 0.84039 0.7292 0.6682 0.0
H2525 H 0.81019 0.74845 0.63524 0.0
H2526 H 0.79262 0.73807 0.67742 0.0
H2527 H 0.77809 0.71743 0.69436 0.0
H2528 H 0.72149 0.68673 0.67238 0.0
H2529 H 0.73578 0.707 0.65522 0.0
C2530 C 0.76839 0.80113 0.63024 0.0
C2531 C 0.74785 0.79214 0.62699 0.0
C2532 C 0.77659 0.79039 0.63494 0.0
C2533 C 0.76456 0.77028 0.63613 0.0
C2534 C 0.74401 0.76135 0.63321 0.0
C2535 C 0.73573 0.77219 0.62875 0.0
C2536 C 0.77343 0.75851 0.64028 0.0
C2537 C 0.76577 0.7469 0.65008 0.0
C2538 C 0.78955 0.75895 0.63477 0.0
C2539 C 0.79722 0.76943 0.62367 0.0
C2540 C 0.78447 0.76531 0.61274 0.0
C2541 C 0.79175 0.77532 0.60233 0.0
C2542 C 0.81181 0.78937 0.6027 0.0
C2543 C 0.82463 0.79341 0.61347 0.0
C2544 C 0.81741 0.78346 0.62391 0.0
C2545 C 0.79534 0.69254 0.65444 0.0
C2546 C 0.8144 0.70138 0.66088 0.0
C2547 C 0.78751 0.70409 0.65068 0.0
C2548 C 0.79872 0.72465 0.65315 0.0
C2549 C 0.8179 0.73357 0.65933 0.0
C2550 C 0.82563 0.72201 0.6633 0.0
C2551 C 0.79029 0.73678 0.64928 0.0
C2552 C 0.798 0.74835 0.63952 0.0
C2553 C 0.77397 0.73596 0.65462 0.0
C2554 C 0.76532 0.72392 0.66499 0.0
C2555 C 0.77712 0.7268 0.67616 0.0
C2556 C 0.76892 0.71519 0.68581 0.0
C2557 C 0.74889 0.70074 0.68444 0.0
C2558 C 0.73701 0.69792 0.67343 0.0
C2559 C 0.74515 0.70947 0.66374 0.0
H2560 H 0.74257 0.69177 0.69192 0.0
H2561 H 0.81743 0.7971 0.59464 0.0
H2562 H 0.01574 0.77146 0.60149 0.0
H2563 H 0.98549 0.75353 0.61149 0.0
H2564 H 0.01564 0.78892 0.64643 0.0
H2565 H 0.04585 0.8074 0.63645 0.0
H2566 H 0.99198 0.74811 0.64865 0.0
H2567 H 0.98649 0.79961 0.63046 0.0
H2568 H 0.98682 0.81919 0.61345 0.0
H2569 H 0.93906 0.76734 0.59227 0.0
H2570 H 0.93864 0.74738 0.60908 0.0
H2571 H 0.90455 0.71714 0.67882 0.0
H2572 H 0.93615 0.7373 0.67056 0.0
H2573 H 0.90828 0.71181 0.63315 0.0
H2574 H 0.87668 0.69215 0.64125 0.0
H2575 H 0.9318 0.7493 0.63305 0.0
H2576 H 0.93763 0.69727 0.6499 0.0
H2577 H 0.93711 0.67639 0.66611 0.0
H2578 H 0.98368 0.7272 0.68883 0.0
H2579 H 0.98429 0.74843 0.67281 0.0
C2580 C 0.01595 0.77558 0.61128 0.0
C2581 C 0.03326 0.79101 0.61812 0.0
C2582 C 0.99866 0.76523 0.61699 0.0
C2583 C 0.99831 0.77002 0.62967 0.0
C2584 C 0.01564 0.78498 0.63664 0.0
C2585 C 0.03292 0.79547 0.63091 0.0
C2586 C 0.97968 0.75968 0.63555 0.0
C2587 C 0.97887 0.74857 0.64538 0.0
C2588 C 0.96252 0.75997 0.63107 0.0
C2589 C 0.96266 0.77197 0.62098 0.0
C2590 C 0.97616 0.79235 0.62213 0.0
C2591 C 0.97635 0.80353 0.61254 0.0
C2592 C 0.963 0.79451 0.60177 0.0
C2593 C 0.9494 0.7743 0.6006 0.0
C2594 C 0.94918 0.76305 0.61017 0.0
C2595 C 0.90515 0.71589 0.66883 0.0
C2596 C 0.88808 0.70301 0.66071 0.0
C2597 C 0.92325 0.72735 0.66413 0.0
C2598 C 0.92468 0.72588 0.65123 0.0
C2599 C 0.90758 0.71323 0.64312 0.0
C2600 C 0.88949 0.70196 0.64779 0.0
C2601 C 0.94391 0.73745 0.6461 0.0
C2602 C 0.94488 0.74885 0.63639 0.0
C2603 C 0.96114 0.73721 0.65059 0.0
C2604 C 0.96085 0.72447 0.66022 0.0
C2605 C 0.94765 0.70401 0.65839 0.0
C2606 C 0.94736 0.69211 0.66754 0.0
C2607 C 0.96031 0.70047 0.67851 0.0
C2608 C 0.97363 0.72075 0.68034 0.0
C2609 C 0.97396 0.73272 0.67123 0.0
H2610 H 0.96006 0.69123 0.68558 0.0
H2611 H 0.96317 0.80319 0.59435 0.0
H2612 H 0.16568 0.20693 0.62391 0.0
H2613 H 0.19106 0.20158 0.63404 0.0
H2614 H 0.21886 0.20984 0.6 0.0
H2615 H 0.19381 0.21569 0.58985 0.0
H2616 H 0.21505 0.17737 0.61072 0.0
H2617 H 0.2394 0.24571 0.62343 0.0
H2618 H 0.23755 0.27422 0.63239 0.0
H2619 H 0.22607 0.25001 0.66749 0.0
H2620 H 0.22757 0.2212 0.65867 0.0
H2621 H 0.30272 0.18245 0.63787 0.0
H2622 H 0.27944 0.18982 0.62679 0.0
H2623 H 0.2528 0.18853 0.66073 0.0
H2624 H 0.27632 0.18173 0.67192 0.0
H2625 H 0.25695 0.21841 0.64933 0.0
H2626 H 0.23107 0.14959 0.63675 0.0
H2627 H 0.23243 0.12066 0.62806 0.0
H2628 H 0.24598 0.14501 0.5931 0.0
H2629 H 0.24496 0.17422 0.60165 0.0
C2630 C 0.17732 0.20788 0.6186 0.0
C2631 C 0.17769 0.21182 0.60605 0.0
C2632 C 0.19178 0.20472 0.6244 0.0
C2633 C 0.20693 0.20544 0.6178 0.0
C2634 C 0.20726 0.20917 0.60526 0.0
C2635 C 0.19287 0.21243 0.59946 0.0
C2636 C 0.22234 0.2022 0.62399 0.0
C2637 C 0.22442 0.18651 0.61906 0.0
C2638 C 0.23426 0.21387 0.63502 0.0
C2639 C 0.23341 0.2312 0.64035 0.0
C2640 C 0.23632 0.24638 0.63303 0.0
C2641 C 0.23537 0.26261 0.63809 0.0
C2642 C 0.23165 0.2639 0.65049 0.0
C2643 C 0.22893 0.24898 0.65787 0.0
C2644 C 0.22984 0.2327 0.65285 0.0
C2645 C 0.2919 0.18374 0.64298 0.0
C2646 C 0.29136 0.18145 0.65578 0.0
C2647 C 0.27853 0.18787 0.63661 0.0
C2648 C 0.26416 0.18948 0.64287 0.0
C2649 C 0.26374 0.18737 0.65568 0.0
C2650 C 0.27719 0.18343 0.66207 0.0
C2651 C 0.24956 0.19342 0.63616 0.0
C2652 C 0.24763 0.20927 0.64097 0.0
C2653 C 0.23769 0.18181 0.62508 0.0
C2654 C 0.23813 0.16418 0.61988 0.0
C2655 C 0.23447 0.14884 0.62724 0.0
C2656 C 0.23516 0.13238 0.62233 0.0
C2657 C 0.23934 0.13102 0.61004 0.0
C2658 C 0.24277 0.14609 0.60262 0.0
C2659 C 0.24212 0.16259 0.60749 0.0
H2660 H 0.23987 0.11827 0.60626 0.0
H2661 H 0.23092 0.27648 0.6544 0.0
H2662 H 0.76984 0.95302 0.62432 0.0
H2663 H 0.78154 0.98612 0.63457 0.0
H2664 H 0.72124 0.97149 0.63738 0.0
H2665 H 0.70943 0.93813 0.62724 0.0
H2666 H 0.74625 0.00784 0.62661 0.0
H2667 H 0.74561 0.97496 0.66269 0.0
H2668 H 0.7533 0.95411 0.67527 0.0
H2669 H 0.81545 0.9944 0.67509 0.0
H2670 H 0.80813 0.01535 0.66235 0.0
H2671 H 0.77341 0.09813 0.66128 0.0
H2672 H 0.75799 0.06295 0.65467 0.0
H2673 H 0.81527 0.06759 0.65859 0.0
H2674 H 0.8307 0.10269 0.66569 0.0
H2675 H 0.78943 0.03509 0.66678 0.0
H2676 H 0.79165 0.0663 0.62973 0.0
H2677 H 0.78577 0.0874 0.61627 0.0
H2678 H 0.7231 0.05073 0.61696 0.0
H2679 H 0.72863 0.02955 0.63059 0.0
C2680 C 0.7591 0.95687 0.62717 0.0
C2681 C 0.73876 0.94314 0.62498 0.0
C2682 C 0.76579 0.97569 0.63306 0.0
C2683 C 0.75223 0.98114 0.63675 0.0
C2684 C 0.73189 0.96746 0.63461 0.0
C2685 C 0.72518 0.94848 0.62889 0.0
C2686 C 0.75945 0.00144 0.64236 0.0
C2687 C 0.75537 0.01375 0.63551 0.0
C2688 C 0.77186 0.00917 0.65376 0.0
C2689 C 0.77631 0.99664 0.66147 0.0
C2690 C 0.76092 0.97929 0.66524 0.0
C2691 C 0.76521 0.96747 0.67242 0.0
C2692 C 0.78485 0.9729 0.67596 0.0
C2693 C 0.80024 0.9902 0.67234 0.0
C2694 C 0.79603 0.00206 0.66515 0.0
C2695 C 0.78271 0.09164 0.66077 0.0
C2696 C 0.80328 0.10317 0.66389 0.0
C2697 C 0.77388 0.07154 0.65695 0.0
C2698 C 0.78551 0.06269 0.6559 0.0
C2699 C 0.80601 0.0741 0.65931 0.0
C2700 C 0.81482 0.09416 0.66333 0.0
C2701 C 0.77637 0.04165 0.65099 0.0
C2702 C 0.78014 0.02919 0.65795 0.0
C2703 C 0.76395 0.03385 0.63956 0.0
C2704 C 0.76057 0.04647 0.63129 0.0
C2705 C 0.77662 0.06282 0.62709 0.0
C2706 C 0.77335 0.07478 0.61942 0.0
C2707 C 0.75407 0.07044 0.61579 0.0
C2708 C 0.73802 0.05409 0.6198 0.0
C2709 C 0.74122 0.0421 0.62749 0.0
H2710 H 0.75157 0.07972 0.60986 0.0
H2711 H 0.78814 0.96373 0.68152 0.0
H2712 H 0.49105 0.38147 0.72125 0.0
H2713 H 0.46495 0.34881 0.71207 0.0
H2714 H 0.44139 0.33669 0.74754 0.0
H2715 H 0.46717 0.36953 0.75676 0.0
H2716 H 0.44518 0.30631 0.73647 0.0
H2717 H 0.41762 0.34619 0.72506 0.0
H2718 H 0.4174 0.37408 0.71609 0.0
H2719 H 0.42547 0.35418 0.68019 0.0
H2720 H 0.42603 0.3263 0.68899 0.0
H2721 H 0.35784 0.21694 0.71224 0.0
H2722 H 0.3806 0.25 0.72269 0.0
H2723 H 0.4038 0.26907 0.6878 0.0
H2724 H 0.38082 0.23633 0.67725 0.0
H2725 H 0.39882 0.29609 0.69957 0.0
H2726 H 0.42856 0.25783 0.7107 0.0
H2727 H 0.42966 0.23006 0.71925 0.0
H2728 H 0.41869 0.24703 0.75509 0.0
H2729 H 0.41725 0.27475 0.74671 0.0
C2730 C 0.48015 0.37201 0.72707 0.0
C2731 C 0.48122 0.37818 0.73975 0.0
C2732 C 0.46529 0.3533 0.72182 0.0
C2733 C 0.45118 0.34039 0.72912 0.0
C2734 C 0.45218 0.34643 0.74176 0.0
C2735 C 0.46698 0.36518 0.74702 0.0
C2736 C 0.43562 0.32043 0.72358 0.0
C2737 C 0.43482 0.30404 0.72853 0.0
C2738 C 0.42244 0.31753 0.71304 0.0
C2739 C 0.42204 0.33425 0.70772 0.0
C2740 C 0.41951 0.34784 0.71528 0.0
C2741 C 0.41929 0.36364 0.71022 0.0
C2742 C 0.42147 0.36593 0.69759 0.0
C2743 C 0.42381 0.3524 0.68998 0.0
C2744 C 0.42406 0.33659 0.69499 0.0
C2745 C 0.36777 0.22818 0.70679 0.0
C2746 C 0.36754 0.22397 0.69391 0.0
C2747 C 0.38083 0.24706 0.71279 0.0
C2748 C 0.39409 0.26197 0.70606 0.0
C2749 C 0.3937 0.25783 0.69318 0.0
C2750 C 0.38056 0.23905 0.68717 0.0
C2751 C 0.40849 0.2819 0.71236 0.0
C2752 C 0.40909 0.29831 0.70756 0.0
C2753 C 0.42161 0.28482 0.72296 0.0
C2754 C 0.42259 0.26824 0.72804 0.0
C2755 C 0.42624 0.25555 0.72038 0.0
C2756 C 0.42694 0.23984 0.7252 0.0
C2757 C 0.42419 0.23675 0.7377 0.0
C2758 C 0.42079 0.24942 0.74541 0.0
C2759 C 0.42004 0.26514 0.74063 0.0
H2760 H 0.42474 0.22458 0.74141 0.0
H2761 H 0.42129 0.37816 0.69369 0.0
H2762 H 0.63655 0.13056 0.72608 0.0
H2763 H 0.66702 0.13903 0.71678 0.0
H2764 H 0.68138 0.10868 0.74374 0.0
H2765 H 0.65112 0.10071 0.75333 0.0
H2766 H 0.71355 0.1408 0.74057 0.0
H2767 H 0.66223 0.088 0.71298 0.0
H2768 H 0.63053 0.06956 0.69954 0.0
H2769 H 0.6503 0.11604 0.67575 0.0
H2770 H 0.68204 0.13489 0.68915 0.0
H2771 H 0.78569 0.1357 0.70593 0.0
H2772 H 0.75666 0.12784 0.71669 0.0
H2773 H 0.74225 0.16169 0.69272 0.0
H2774 H 0.77107 0.16926 0.68166 0.0
H2775 H 0.71038 0.12669 0.6948 0.0
H2776 H 0.76333 0.17884 0.72369 0.0
H2777 H 0.79525 0.19391 0.73689 0.0
H2778 H 0.77225 0.14443 0.75827 0.0
H2779 H 0.74027 0.12892 0.74508 0.0
C2780 C 0.64618 0.12564 0.72999 0.0
C2781 C 0.64139 0.11483 0.74036 0.0
C2782 C 0.66359 0.13045 0.72466 0.0
C2783 C 0.67637 0.12418 0.7294 0.0
C2784 C 0.67177 0.11367 0.7399 0.0
C2785 C 0.65448 0.10909 0.74536 0.0
C2786 C 0.69438 0.12846 0.72329 0.0
C2787 C 0.71281 0.1375 0.73058 0.0
C2788 C 0.69352 0.12423 0.71024 0.0
C2789 C 0.67445 0.11294 0.70214 0.0
C2790 C 0.65977 0.09436 0.70494 0.0
C2791 C 0.64179 0.08382 0.69732 0.0
C2792 C 0.63838 0.09165 0.68682 0.0
C2793 C 0.65296 0.11001 0.6839 0.0
C2794 C 0.67095 0.12062 0.6915 0.0
C2795 C 0.77643 0.14156 0.70295 0.0
C2796 C 0.78073 0.15312 0.69291 0.0
C2797 C 0.75986 0.13713 0.70917 0.0
C2798 C 0.7474 0.14438 0.70562 0.0
C2799 C 0.75169 0.15597 0.69563 0.0
C2800 C 0.76819 0.16031 0.68934 0.0
C2801 C 0.72953 0.13939 0.71202 0.0
C2802 C 0.7111 0.13007 0.70478 0.0
C2803 C 0.7304 0.14299 0.72514 0.0
C2804 C 0.74943 0.15265 0.73333 0.0
C2805 C 0.76509 0.17114 0.73118 0.0
C2806 C 0.7832 0.17975 0.73866 0.0
C2807 C 0.78579 0.17011 0.74839 0.0
C2808 C 0.77023 0.15187 0.75072 0.0
C2809 C 0.7521 0.14318 0.74325 0.0
H2810 H 0.79984 0.17678 0.75415 0.0
H2811 H 0.62446 0.08346 0.68093 0.0
H2812 H 0.9387 0.55002 0.71269 0.0
H2813 H 0.92459 0.56813 0.70317 0.0
H2814 H 0.88106 0.54947 0.72946 0.0
H2815 H 0.89396 0.53001 0.73831 0.0
H2816 H 0.86395 0.54775 0.70835 0.0
H2817 H 0.92407 0.59712 0.73216 0.0
H2818 H 0.95983 0.61547 0.73912 0.0
H2819 H 0.9723 0.63143 0.70208 0.0
H2820 H 0.9366 0.61294 0.69485 0.0
H2821 H 0.83969 0.62342 0.70358 0.0
H2822 H 0.85305 0.60338 0.71124 0.0
H2823 H 0.88323 0.6101 0.6783 0.0
H2824 H 0.86976 0.62996 0.67047 0.0
H2825 H 0.90703 0.61794 0.70196 0.0
H2826 H 0.8447 0.56845 0.67918 0.0
H2827 H 0.80854 0.55191 0.67401 0.0
H2828 H 0.80011 0.53831 0.71182 0.0
H2829 H 0.83625 0.555 0.71725 0.0
C2830 C 0.92594 0.54949 0.71633 0.0
C2831 C 0.91761 0.53863 0.72636 0.0
C2832 C 0.91805 0.56012 0.71099 0.0
C2833 C 0.90199 0.56052 0.71575 0.0
C2834 C 0.89352 0.54951 0.72565 0.0
C2835 C 0.90113 0.53858 0.73083 0.0
C2836 C 0.89391 0.5723 0.71044 0.0
C2837 C 0.87341 0.56315 0.7071 0.0
C2838 C 0.90619 0.59237 0.70863 0.0
C2839 C 0.92767 0.60346 0.71294 0.0
C2840 C 0.93444 0.60441 0.72547 0.0
C2841 C 0.9547 0.61486 0.72947 0.0
C2842 C 0.96833 0.62456 0.72104 0.0
C2843 C 0.96172 0.62387 0.7086 0.0
C2844 C 0.94148 0.61342 0.70454 0.0
C2845 C 0.84912 0.62059 0.69795 0.0
C2846 C 0.85365 0.62821 0.68641 0.0
C2847 C 0.85669 0.60912 0.70232 0.0
C2848 C 0.86904 0.60527 0.69529 0.0
C2849 C 0.8737 0.61295 0.68382 0.0
C2850 C 0.86592 0.62419 0.67936 0.0
C2851 C 0.87725 0.59336 0.69999 0.0
C2852 C 0.89772 0.60251 0.7032 0.0
C2853 C 0.86492 0.57346 0.70195 0.0
C2854 C 0.84318 0.56311 0.69864 0.0
C2855 C 0.83514 0.56204 0.68641 0.0
C2856 C 0.81465 0.55262 0.68343 0.0
C2857 C 0.80203 0.5441 0.69259 0.0
C2858 C 0.80989 0.54492 0.70474 0.0
C2859 C 0.83038 0.55433 0.70776 0.0
H2860 H 0.78617 0.53683 0.69027 0.0
H2861 H 0.98401 0.63264 0.72416 0.0
H2862 H 0.44126 0.90159 0.17094 0.0
H2863 H 0.44983 0.91502 0.15097 0.0
H2864 H 0.47359 0.97378 0.16928 0.0
H2865 H 0.46519 0.96048 0.1893 0.0
H2866 H 0.4517 0.96832 0.14737 0.0
H2867 H 0.50399 0.9566 0.16157 0.0
H2868 H 0.51791 0.93665 0.16903 0.0
H2869 H 0.4924 0.89711 0.13527 0.0
H2870 H 0.47809 0.91668 0.12768 0.0
H2871 H 0.51205 0.02456 0.10245 0.0
H2872 H 0.50055 0.00885 0.12137 0.0
H2873 H 0.47405 0.95164 0.10033 0.0
H2874 H 0.4848 0.96717 0.08122 0.0
H2875 H 0.49598 0.95494 0.12292 0.0
H2876 H 0.44459 0.96662 0.10833 0.0
H2877 H 0.4299 0.98577 0.10065 0.0
H2878 H 0.45313 0.02472 0.13473 0.0
H2879 H 0.46811 0.00586 0.14258 0.0
C2880 C 0.44839 0.91739 0.17073 0.0
C2881 C 0.45264 0.92997 0.18174 0.0
C2882 C 0.45325 0.92503 0.1593 0.0
C2883 C 0.46258 0.94543 0.15865 0.0
C2884 C 0.46639 0.95799 0.16956 0.0
C2885 C 0.46151 0.95036 0.18099 0.0
C2886 C 0.46868 0.95372 0.14665 0.0
C2887 C 0.46158 0.96559 0.14211 0.0
C2888 C 0.48112 0.94971 0.13959 0.0
C2889 C 0.4898 0.93799 0.14411 0.0
C2890 C 0.50122 0.94357 0.15578 0.0
C2891 C 0.5092 0.93234 0.16003 0.0
C2892 C 0.506 0.91559 0.15265 0.0
C2893 C 0.49484 0.91007 0.14099 0.0
C2894 C 0.48681 0.92123 0.1367 0.0
C2895 C 0.50359 0.00864 0.10177 0.0
C2896 C 0.4993 0.99718 0.09024 0.0
C2897 C 0.49711 -0.00031 0.11263 0.0
C2898 C 0.48633 0.9791 0.11223 0.0
C2899 C 0.48239 0.96757 0.10083 0.0
C2900 C 0.48868 0.9765 0.08993 0.0
C2901 C 0.47917 0.96969 0.12374 0.0
C2902 C 0.48607 0.95762 0.12818 0.0
C2903 C 0.4665 0.97345 0.13068 0.0
C2904 C 0.45762 0.98492 0.12599 0.0
C2905 C 0.44669 0.97935 0.11415 0.0
C2906 C 0.43828 0.99013 0.10978 0.0
C2907 C 0.44062 0.00649 0.11719 0.0
C2908 C 0.45134 0.01206 0.129 0.0
C2909 C 0.45977 0.00131 0.13342 0.0
H2910 H 0.4341 0.01482 0.11379 0.0
H2911 H 0.51219 0.90692 0.15595 0.0
H2912 H 0.00802 0.46496 0.19775 0.0
H2913 H -0.00051 0.46148 0.1752 0.0
H2914 H 0.02146 0.52392 0.1767 0.0
H2915 H 0.0289 0.52732 0.19923 0.0
H2916 H 0.98834 0.50498 0.1623 0.0
H2917 H 0.04831 0.50205 0.16639 0.0
H2918 H 0.0697 0.48917 0.17353 0.0
H2919 H 0.02828 0.43232 0.15418 0.0
H2920 H 0.00651 0.44481 0.14706 0.0
H2921 H 0.00202 0.52091 0.09912 0.0
H2922 H 0.00837 0.52076 0.12159 0.0
H2923 H 0.97841 0.45729 0.11691 0.0
H2924 H 0.97226 0.45733 0.0944 0.0
H2925 H 0.0136 0.47437 0.13266 0.0
H2926 H 0.95459 0.47842 0.12774 0.0
H2927 H 0.93406 0.49209 0.12032 0.0
H2928 H 0.97483 0.54787 0.14115 0.0
H2929 H 0.99576 0.53461 0.14856 0.0
C2930 C 0.01083 0.47791 0.1933 0.0
C2931 C 0.0193 0.49645 0.20032 0.0
C2932 C 0.00615 0.47593 0.18038 0.0
C2933 C 0.01012 0.49249 0.17422 0.0
C2934 C 0.01835 0.51094 0.18123 0.0
C2935 C 0.02282 0.5129 0.19412 0.0
C2936 C 0.00559 0.49077 0.1605 0.0
C2937 C 0.99406 0.49847 0.15583 0.0
C2938 C 0.01261 0.48183 0.15204 0.0
C2939 C 0.02569 0.47431 0.15631 0.0
C2940 C 0.04369 0.48676 0.16374 0.0
C2941 C 0.05589 0.47954 0.16777 0.0
C2942 C 0.05032 0.45992 0.16434 0.0
C2943 C 0.03256 0.4475 0.15685 0.0
C2944 C 0.02029 0.45465 0.1528 0.0
C2945 C 0.99695 0.50694 0.10287 0.0
C2946 C 0.98655 0.48913 0.09504 0.0
C2947 C 0.00047 0.50687 0.1157 0.0
C2948 C 0.99366 0.489 0.1209 0.0
C2949 C 0.9837 0.47121 0.11307 0.0
C2950 C 0.98008 0.47127 0.10025 0.0
C2951 C 0.99671 0.48891 0.13454 0.0
C2952 C 0.00786 0.4808 0.13917 0.0
C2953 C 0.98947 0.4976 0.14297 0.0
C2954 C 0.97683 0.50557 0.13861 0.0
C2955 C 0.95925 0.49364 0.13066 0.0
C2956 C 0.94753 0.50131 0.12647 0.0
C2957 C 0.95316 0.52085 0.13024 0.0
C2958 C 0.9705 0.53274 0.13823 0.0
C2959 C 0.98229 0.52516 0.14244 0.0
H2960 H 0.94406 0.52676 0.12698 0.0
H2961 H 0.05979 0.45436 0.16747 0.0
H2962 H 0.4857 0.492 0.19611 0.0
H2963 H 0.49322 0.48936 0.17468 0.0
H2964 H 0.45544 0.51149 0.16224 0.0
H2965 H 0.44796 0.51431 0.18365 0.0
H2966 H 0.45057 0.481 0.14614 0.0
H2967 H 0.50469 0.54173 0.16675 0.0
H2968 H 0.53165 0.56262 0.18337 0.0
H2969 H 0.56055 0.52985 0.17511 0.0
H2970 H 0.5336 0.50857 0.15856 0.0
H2971 H 0.48609 0.50537 0.08726 0.0
H2972 H 0.47684 0.50666 0.10828 0.0
H2973 H 0.5181 0.48937 0.12207 0.0
H2974 H 0.52836 0.48928 0.10123 0.0
H2975 H 0.52069 0.5174 0.1375 0.0
H2976 H 0.46666 0.45678 0.1166 0.0
H2977 H 0.43968 0.43597 0.09998 0.0
H2978 H 0.41038 0.46816 0.10872 0.0
H2979 H 0.43741 0.48947 0.12524 0.0
C2980 C 0.47902 0.49633 0.18882 0.0
C2981 C 0.46633 0.50348 0.1916 0.0
C2982 C 0.48329 0.49477 0.17657 0.0
C2983 C 0.47508 0.50047 0.1669 0.0
C2984 C 0.46192 0.507 0.16957 0.0
C2985 C 0.45762 0.50854 0.18181 0.0
C2986 C 0.48074 0.50023 0.15407 0.0
C2987 C 0.46587 0.48912 0.1442 0.0
C2988 C 0.50074 0.51057 0.1516 0.0
C2989 C 0.51703 0.52344 0.1615 0.0
C2990 C 0.51672 0.53888 0.16854 0.0
C2991 C 0.53201 0.55081 0.17794 0.0
C2992 C 0.54778 0.54753 0.18032 0.0
C2993 C 0.54831 0.53235 0.17327 0.0
C2994 C 0.53304 0.52036 0.16388 0.0
C2995 C 0.49343 0.50212 0.09478 0.0
C2996 C 0.50798 0.4972 0.0925 0.0
C2997 C 0.48789 0.50258 0.10679 0.0
C2998 C 0.4965 0.49776 0.11674 0.0
C2999 C 0.51115 0.49303 0.11453 0.0
C3000 C 0.51686 0.49279 0.10256 0.0
C3001 C 0.49055 0.49798 0.12951 0.0
C3002 C 0.50538 0.50919 0.13939 0.0
C3003 C 0.4705 0.48771 0.13197 0.0
C3004 C 0.45417 0.47485 0.12208 0.0
C3005 C 0.45455 0.45954 0.11491 0.0
C3006 C 0.43925 0.44766 0.10551 0.0
C3007 C 0.42338 0.45082 0.10325 0.0
C3008 C 0.42274 0.46582 0.11044 0.0
C3009 C 0.43804 0.47779 0.11983 0.0
H3010 H 0.41155 0.4416 0.09597 0.0
H3011 H 0.5596 0.55679 0.1876 0.0
H3012 H 0.98782 0.52463 0.82338 0.0
H3013 H 0.9945 0.52796 0.84615 0.0
H3014 H 0.98078 0.46757 0.84439 0.0
H3015 H 0.97407 0.46414 0.82161 0.0
H3016 H 0.96176 0.47807 0.86242 0.0
H3017 H 0.02686 0.50157 0.8495 0.0
H3018 H 0.0553 0.52241 0.83828 0.0
H3019 H 0.06186 0.57433 0.85854 0.0
H3020 H 0.03327 0.55379 0.86977 0.0
H3021 H 0.99716 0.47734 0.92419 0.0
H3022 H 0.9897 0.4744 0.90158 0.0
H3023 H 0.01434 0.53732 0.90328 0.0
H3024 H 0.02231 0.54034 0.92589 0.0
H3025 H 0.02746 0.52584 0.88507 0.0
H3026 H 0.96307 0.50409 0.89775 0.0
H3027 H 0.93386 0.48453 0.90872 0.0
H3028 H 0.92513 0.43122 0.88915 0.0
H3029 H 0.9543 0.45046 0.87804 0.0
C3030 C 0.98627 0.51209 0.82787 0.0
C3031 C 0.98048 0.49414 0.82077 0.0
C3032 C 0.99015 0.51403 0.84083 0.0
C3033 C 0.98817 0.49802 0.8469 0.0
C3034 C 0.98239 0.48008 0.83984 0.0
C3035 C 0.97872 0.47819 0.82686 0.0
C3036 C 0.9919 0.49994 0.86064 0.0
C3037 C 0.97617 0.48832 0.8674 0.0
C3038 C 0.01054 0.51378 0.86708 0.0
C3039 C 0.0278 0.52614 0.86038 0.0
C3040 C 0.03426 0.51743 0.85149 0.0
C3041 C 0.05043 0.52919 0.84514 0.0
C3042 C 0.06035 0.54968 0.84767 0.0
C3043 C 0.05415 0.55846 0.85658 0.0
C3044 C 0.03797 0.54676 0.86294 0.0
C3045 C 0.00076 0.4905 0.91974 0.0
C3046 C 0.01029 0.50906 0.92675 0.0
C3047 C 0.99645 0.48881 0.90683 0.0
C3048 C 0.00123 0.50562 0.90073 0.0
C3049 C 0.01054 0.52416 0.90777 0.0
C3050 C 0.01508 0.52588 0.92066 0.0
C3051 C 0.99729 0.50394 0.88696 0.0
C3052 C 0.013 0.51561 0.88016 0.0
C3053 C 0.97853 0.49034 0.8805 0.0
C3054 C 0.96097 0.47871 0.88714 0.0
C3055 C 0.955 0.48818 0.89584 0.0
C3056 C 0.93844 0.47716 0.90207 0.0
C3057 C 0.92772 0.45664 0.89969 0.0
C3058 C 0.93347 0.44711 0.891 0.0
C3059 C 0.94998 0.45807 0.8847 0.0
H3060 H 0.91493 0.44814 0.90455 0.0
H3061 H 0.07286 0.55876 0.84275 0.0
H3062 H 0.54072 0.51866 0.82525 0.0
H3063 H 0.53451 0.52526 0.84642 0.0
H3064 H 0.56538 0.49698 0.86083 0.0
H3065 H 0.57152 0.49025 0.83967 0.0
H3066 H 0.53084 0.48308 0.86964 0.0
H3067 H 0.58516 0.5474 0.86586 0.0
H3068 H 0.60386 0.57807 0.85611 0.0
H3069 H 0.55675 0.59039 0.85921 0.0
H3070 H 0.53764 0.55965 0.86884 0.0
H3071 H 0.53088 0.50669 0.93346 0.0
H3072 H 0.54323 0.50721 0.91322 0.0
H3073 H 0.50769 0.53036 0.89829 0.0
H3074 H 0.4956 0.53038 0.91867 0.0
H3075 H 0.54527 0.54774 0.89001 0.0
H3076 H 0.49061 0.48287 0.89291 0.0
H3077 H 0.47187 0.45225 0.9027 0.0
H3078 H 0.51998 0.44111 0.90111 0.0
H3079 H 0.53913 0.47185 0.89147 0.0
C3080 C 0.54651 0.51419 0.83296 0.0
C3081 C 0.55654 0.50386 0.83079 0.0
C3082 C 0.54296 0.51797 0.84506 0.0
C3083 C 0.54957 0.51171 0.85524 0.0
C3084 C 0.56007 0.50189 0.85312 0.0
C3085 C 0.56353 0.49801 0.84103 0.0
C3086 C 0.54441 0.51416 0.86796 0.0
C3087 C 0.53432 0.49729 0.87416 0.0
C3088 C 0.54843 0.53261 0.87374 0.0
C3089 C 0.55989 0.55112 0.86796 0.0
C3090 C 0.57871 0.55657 0.86437 0.0
C3091 C 0.5894 0.57398 0.85888 0.0
C3092 C 0.58148 0.58615 0.85701 0.0
C3093 C 0.56286 0.58094 0.86065 0.0
C3094 C 0.55211 0.56353 0.86614 0.0
C3095 C 0.52597 0.51228 0.92596 0.0
C3096 C 0.51217 0.51841 0.92767 0.0
C3097 C 0.53294 0.51242 0.91437 0.0
C3098 C 0.52618 0.51859 0.90423 0.0
C3099 C 0.51304 0.52549 0.906 0.0
C3100 C 0.50602 0.52532 0.91761 0.0
C3101 C 0.53192 0.5167 0.89163 0.0
C3102 C 0.54197 0.5336 0.88547 0.0
C3103 C 0.52789 0.49829 0.88585 0.0
C3104 C 0.51637 0.47975 0.89158 0.0
C3105 C 0.49725 0.47397 0.89474 0.0
C3106 C 0.48654 0.45658 0.90025 0.0
C3107 C 0.49475 0.44477 0.90256 0.0
C3108 C 0.51365 0.45029 0.89933 0.0
C3109 C 0.52443 0.46769 0.89384 0.0
H3110 H 0.48644 0.43131 0.90682 0.0
H3111 H 0.58977 0.59962 0.85276 0.0
H3112 H 0.50725 0.0592 0.82867 0.0
H3113 H 0.50049 0.04694 0.84908 0.0
H3114 H 0.55179 0.04018 0.85042 0.0
H3115 H 0.55845 0.05213 0.82985 0.0
H3116 H 0.5192 0.00795 0.85753 0.0
H3117 H 0.55397 0.07813 0.86744 0.0
H3118 H 0.56065 0.11191 0.86574 0.0
H3119 H 0.50345 0.09589 0.87695 0.0
H3120 H 0.49632 0.06192 0.87855 0.0
H3121 H 0.52088 0.99252 0.92172 0.0
H3122 H 0.52943 0.00495 0.90147 0.0
H3123 H 0.48249 0.01851 0.90007 0.0
H3124 H 0.47419 0.00647 0.92042 0.0
H3125 H 0.51421 0.04776 0.89304 0.0
H3126 H 0.4787 0.97756 0.88253 0.0
H3127 H 0.47136 0.94351 0.88397 0.0
H3128 H 0.52889 0.95905 0.87361 0.0
H3129 H 0.53668 0.99328 0.87227 0.0
C3130 C 0.51702 0.05498 0.83326 0.0
C3131 C 0.5334 0.05665 0.82765 0.0
C3132 C 0.51323 0.04813 0.84497 0.0
C3133 C 0.52575 0.04283 0.85132 0.0
C3134 C 0.54199 0.04426 0.84569 0.0
C3135 C 0.54585 0.05122 0.834 0.0
C3136 C 0.52176 0.03568 0.86379 0.0
C3137 C 0.51839 0.01675 0.86536 0.0
C3138 C 0.52026 0.04699 0.8739 0.0
C3139 C 0.52454 0.06744 0.873 0.0
C3140 C 0.54275 0.08177 0.86945 0.0
C3141 C 0.54663 0.10096 0.86852 0.0
C3142 C 0.53246 0.10603 0.8712 0.0
C3143 C 0.5144 0.09193 0.87486 0.0
C3144 C 0.51044 0.07272 0.87579 0.0
C3145 C 0.5123 0.99801 0.91703 0.0
C3146 C 0.49682 0.99847 0.92263 0.0
C3147 C 0.51717 0.0051 0.90545 0.0
C3148 C 0.50644 0.01245 0.89914 0.0
C3149 C 0.49101 0.01294 0.90475 0.0
C3150 C 0.48627 0.00606 0.91638 0.0
C3151 C 0.51143 0.0199 0.88679 0.0
C3152 C 0.51504 0.03893 0.88523 0.0
C3153 C 0.51303 0.00861 0.87667 0.0
C3154 C 0.50834 0.98802 0.87742 0.0
C3155 C 0.48984 0.97375 0.88065 0.0
C3156 C 0.48559 0.95441 0.88143 0.0
C3157 C 0.49967 0.94913 0.87892 0.0
C3158 C 0.51801 0.96317 0.87557 0.0
C3159 C 0.52234 0.98253 0.87479 0.0
H3160 H 0.49635 0.93415 0.87953 0.0
H3161 H 0.53549 0.1209 0.87048 0.0
H3162 H 0.09353 0.26804 0.51297 0.0
H3163 H 0.10236 0.28311 0.49351 0.0
H3164 H 0.15258 0.27459 0.49457 0.0
H3165 H 0.14442 0.2604 0.51427 0.0
H3166 H 0.16338 0.31008 0.48932 0.0
H3167 H 0.1095 0.2457 0.47436 0.0
H3168 H 0.07571 0.21698 0.47228 0.0
H3169 H 0.0522 0.25282 0.46028 0.0
H3170 H 0.08583 0.28185 0.4625 0.0
H3171 H 0.18591 0.32483 0.42682 0.0
H3172 H 0.17546 0.31031 0.4463 0.0
H3173 H 0.13126 0.32759 0.44579 0.0
H3174 H 0.14155 0.34202 0.42621 0.0
H3175 H 0.11684 0.28863 0.45073 0.0
H3176 H 0.17158 0.35291 0.46548 0.0
H3177 H 0.20581 0.38066 0.46648 0.0
H3178 H 0.22795 0.34348 0.478 0.0
H3179 H 0.19385 0.31542 0.4769 0.0
C3180 C 0.10652 0.26947 0.5091 0.0
C3181 C 0.11824 0.26295 0.51521 0.0
C3182 C 0.11142 0.27789 0.49788 0.0
C3183 C 0.12803 0.27981 0.49248 0.0
C3184 C 0.13966 0.27322 0.49852 0.0
C3185 C 0.13484 0.26491 0.50974 0.0
C3186 C 0.13384 0.28938 0.48081 0.0
C3187 C 0.15323 0.30519 0.48085 0.0
C3188 C 0.12049 0.28338 0.46981 0.0
C3189 C 0.10019 0.26603 0.46878 0.0
C3190 C 0.09712 0.24753 0.47144 0.0
C3191 C 0.07799 0.23117 0.4702 0.0
C3192 C 0.06181 0.23309 0.4662 0.0
C3193 C 0.06474 0.25137 0.46343 0.0
C3194 C 0.08383 0.26778 0.46468 0.0
C3195 C 0.17395 0.32552 0.43085 0.0
C3196 C 0.16457 0.3346 0.42501 0.0
C3197 C 0.16807 0.31732 0.44201 0.0
C3198 C 0.15268 0.318 0.44752 0.0
C3199 C 0.14321 0.32697 0.44169 0.0
C3200 C 0.1492 0.33532 0.43058 0.0
C3201 C 0.14632 0.30909 0.45928 0.0
C3202 C 0.12688 0.29349 0.45925 0.0
C3203 C 0.15963 0.31514 0.47026 0.0
C3204 C 0.18016 0.33202 0.47099 0.0
C3205 C 0.18375 0.35061 0.46813 0.0
C3206 C 0.20313 0.3664 0.46873 0.0
C3207 C 0.21905 0.36382 0.47227 0.0
C3208 C 0.21561 0.34545 0.47525 0.0
C3209 C 0.19626 0.3296 0.47465 0.0
H3210 H 0.23404 0.37607 0.47274 0.0
H3211 H 0.04702 0.2204 0.46521 0.0
H3212 H 0.68058 0.84846 0.52675 0.0
H3213 H 0.67042 0.84062 0.5043 0.0
H3214 H 0.68157 0.79229 0.50401 0.0
H3215 H 0.69195 0.80018 0.52656 0.0
H3216 H 0.69706 0.81629 0.4845 0.0
H3217 H 0.6358 0.78113 0.50183 0.0
H3218 H 0.61048 0.77669 0.51574 0.0
H3219 H 0.60293 0.82082 0.499 0.0
H3220 H 0.62843 0.82574 0.48511 0.0
H3221 H 0.65284 0.7873 0.42083 0.0
H3222 H 0.6604 0.78584 0.443 0.0
H3223 H 0.64638 0.83099 0.45295 0.0
H3224 H 0.63875 0.83243 0.43096 0.0
H3225 H 0.6306 0.80252 0.46759 0.0
H3226 H 0.69445 0.84084 0.4524 0.0
H3227 H 0.72062 0.84673 0.43887 0.0
H3228 H 0.72394 0.79792 0.45176 0.0
H3229 H 0.69758 0.79158 0.46524 0.0
C3230 C 0.68098 0.83624 0.52189 0.0
C3231 C 0.68705 0.82493 0.52838 0.0
C3232 C 0.67505 0.83169 0.5091 0.0
C3233 C 0.67509 0.81578 0.50255 0.0
C3234 C 0.68138 0.80458 0.50894 0.0
C3235 C 0.68717 0.80903 0.52179 0.0
C3236 C 0.66862 0.81109 0.489 0.0
C3237 C 0.6824 0.81287 0.48076 0.0
C3238 C 0.64959 0.8069 0.4842 0.0
C3239 C 0.63413 0.80389 0.49248 0.0
C3240 C 0.62885 0.78999 0.50118 0.0
C3241 C 0.61444 0.78737 0.50905 0.0
C3242 C 0.60512 0.79848 0.50827 0.0
C3243 C 0.61016 0.81222 0.4996 0.0
C3244 C 0.62457 0.81491 0.49171 0.0
C3245 C 0.65139 0.79689 0.42777 0.0
C3246 C 0.64512 0.80991 0.42417 0.0
C3247 C 0.65571 0.79605 0.44041 0.0
C3248 C 0.65407 0.8084 0.44962 0.0
C3249 C 0.64762 0.82123 0.44601 0.0
C3250 C 0.6432 0.82199 0.43344 0.0
C3251 C 0.65924 0.80835 0.46304 0.0
C3252 C 0.64517 0.80561 0.47128 0.0
C3253 C 0.67805 0.81179 0.46783 0.0
C3254 C 0.69386 0.81558 0.4597 0.0
C3255 C 0.70064 0.83126 0.45226 0.0
C3256 C 0.71553 0.8347 0.44462 0.0
C3257 C 0.72389 0.82267 0.44442 0.0
C3258 C 0.71741 0.8072 0.45189 0.0
C3259 C 0.7025 0.80368 0.45954 0.0
H3260 H 0.73544 0.82536 0.4385 0.0
H3261 H 0.59398 0.79643 0.51437 0.0
H3262 H 0.15842 0.86593 0.52543 0.0
H3263 H 0.16416 0.8626 0.50366 0.0
H3264 H 0.1136 0.80373 0.49839 0.0
H3265 H 0.10786 0.80691 0.52028 0.0
H3266 H 0.14702 0.80644 0.48884 0.0
H3267 H 0.10946 0.83911 0.48643 0.0
H3268 H 0.10124 0.86468 0.49235 0.0
H3269 H 0.15733 0.90933 0.48267 0.0
H3270 H 0.16601 0.88405 0.47685 0.0
H3271 H 0.14731 0.79619 0.42298 0.0
H3272 H 0.13764 0.79726 0.44398 0.0
H3273 H 0.18213 0.85889 0.45096 0.0
H3274 H 0.19152 0.85795 0.42985 0.0
H3275 H 0.14946 0.85327 0.4594 0.0
H3276 H 0.18819 0.82174 0.46303 0.0
H3277 H 0.19751 0.79684 0.45753 0.0
H3278 H 0.14073 0.75094 0.4654 0.0
H3279 H 0.13098 0.77555 0.47079 0.0
C3280 C 0.14857 0.85224 0.51965 0.0
C3281 C 0.13272 0.83666 0.52456 0.0
C3282 C 0.15177 0.85042 0.5072 0.0
C3283 C 0.13921 0.83297 0.4994 0.0
C3284 C 0.12341 0.81733 0.50426 0.0
C3285 C 0.12009 0.81921 0.51672 0.0
C3286 C 0.14291 0.83106 0.48623 0.0
C3287 C 0.14723 0.81645 0.48232 0.0
C3288 C 0.14366 0.84445 0.47786 0.0
C3289 C 0.13845 0.85969 0.4813 0.0
C3290 C 0.12011 0.8544 0.48566 0.0
C3291 C 0.11536 0.86883 0.48898 0.0
C3292 C 0.12877 0.88862 0.48792 0.0
C3293 C 0.14696 0.894 0.4835 0.0
C3294 C 0.15179 0.87962 0.48017 0.0
C3295 C 0.15511 0.80992 0.42904 0.0
C3296 C 0.17024 0.82697 0.42482 0.0
C3297 C 0.14959 0.81052 0.44104 0.0
C3298 C 0.15934 0.82809 0.44914 0.0
C3299 C 0.17437 0.84516 0.44489 0.0
C3300 C 0.17974 0.84462 0.43284 0.0
C3301 C 0.15384 0.82878 0.462 0.0
C3302 C 0.14916 0.84317 0.46587 0.0
C3303 C 0.15293 0.81528 0.47038 0.0
C3304 C 0.15879 0.80047 0.46718 0.0
C3305 C 0.17764 0.80632 0.4635 0.0
C3306 C 0.18301 0.79226 0.46041 0.0
C3307 C 0.1697 0.77232 0.46108 0.0
C3308 C 0.15101 0.76639 0.46486 0.0
C3309 C 0.14556 0.78039 0.46794 0.0
H3310 H 0.17388 0.76145 0.45869 0.0
H3311 H 0.12507 0.89978 0.49049 0.0
H3312 H 0.64111 0.85711 0.15526 0.0
H3313 H 0.64727 0.86104 0.17809 0.0
H3314 H 0.63446 0.80101 0.17726 0.0
H3315 H 0.6284 0.79702 0.15441 0.0
H3316 H 0.61508 0.81235 0.19517 0.0
H3317 H 0.67988 0.8344 0.18184 0.0
H3318 H 0.70813 0.85456 0.17028 0.0
H3319 H 0.71546 0.90731 0.18983 0.0
H3320 H 0.68705 0.88745 0.20138 0.0
H3321 H 0.65291 0.81128 0.25616 0.0
H3322 H 0.64352 0.80844 0.2338 0.0
H3323 H 0.66983 0.8716 0.23571 0.0
H3324 H 0.67977 0.87448 0.25805 0.0
H3325 H 0.68151 0.85966 0.21709 0.0
H3326 H 0.61797 0.83926 0.23069 0.0
H3327 H 0.58891 0.82031 0.24193 0.0
H3328 H 0.57851 0.7664 0.22225 0.0
H3329 H 0.60744 0.78502 0.21082 0.0
C3330 C 0.6396 0.84477 0.15997 0.0
C3331 C 0.63435 0.82679 0.15312 0.0
C3332 C 0.64315 0.84704 0.17297 0.0
C3333 C 0.64133 0.83131 0.1793 0.0
C3334 C 0.63591 0.81329 0.1725 0.0
C3335 C 0.63262 0.81109 0.15949 0.0
C3336 C 0.64524 0.83374 0.19305 0.0
C3337 C 0.62963 0.82252 0.2 0.0
C3338 C 0.66408 0.84749 0.19927 0.0
C3339 C 0.6812 0.85944 0.19237 0.0
C3340 C 0.6874 0.8503 0.18359 0.0
C3341 C 0.70346 0.86167 0.17706 0.0
C3342 C 0.71354 0.88221 0.17929 0.0
C3343 C 0.70761 0.89141 0.18809 0.0
C3344 C 0.69154 0.8801 0.19464 0.0
C3345 C 0.65641 0.82451 0.25182 0.0
C3346 C 0.66711 0.8431 0.25878 0.0
C3347 C 0.65098 0.82289 0.23906 0.0
C3348 C 0.65578 0.8398 0.23307 0.0
C3349 C 0.66601 0.85835 0.24011 0.0
C3350 C 0.67168 0.86 0.25285 0.0
C3351 C 0.65133 0.83821 0.21935 0.0
C3352 C 0.66687 0.84957 0.21235 0.0
C3353 C 0.63235 0.82479 0.2131 0.0
C3354 C 0.61497 0.81353 0.21997 0.0
C3355 C 0.60956 0.82335 0.22881 0.0
C3356 C 0.5931 0.81268 0.2352 0.0
C3357 C 0.58196 0.79217 0.23287 0.0
C3358 C 0.58717 0.78229 0.22407 0.0
C3359 C 0.60355 0.7929 0.21759 0.0
H3360 H 0.56925 0.78394 0.23785 0.0
H3361 H 0.72598 0.89099 0.17423 0.0
H3362 H 0.18263 0.8117 0.16195 0.0
H3363 H 0.17614 0.81959 0.18273 0.0
H3364 H 0.233 0.87305 0.18783 0.0
H3365 H 0.2397 0.86513 0.16697 0.0
H3366 H 0.22447 0.85087 0.20856 0.0
H3367 H 0.19431 0.87744 0.18234 0.0
H3368 H 0.17325 0.87717 0.16431 0.0
H3369 H 0.12215 0.82958 0.17721 0.0
H3370 H 0.14295 0.82936 0.19522 0.0
H3371 H 0.1975 0.87915 0.26513 0.0
H3372 H 0.20909 0.8803 0.24449 0.0
H3373 H 0.1533 0.8288 0.23036 0.0
H3374 H 0.14171 0.82747 0.25087 0.0
H3375 H 0.1647 0.85565 0.21419 0.0
H3376 H 0.19435 0.82569 0.23833 0.0
H3377 H 0.2146 0.82385 0.25603 0.0
H3378 H 0.26566 0.87592 0.24699 0.0
H3379 H 0.24563 0.8782 0.22929 0.0
C3380 C 0.19381 0.82509 0.16752 0.0
C3381 C 0.21169 0.83779 0.16286 0.0
C3382 C 0.19002 0.82965 0.17934 0.0
C3383 C 0.20403 0.84698 0.18676 0.0
C3384 C 0.22199 0.85964 0.18221 0.0
C3385 C 0.22573 0.85516 0.1703 0.0
C3386 C 0.19976 0.85158 0.19929 0.0
C3387 C 0.21166 0.85236 0.20982 0.0
C3388 C 0.18283 0.85314 0.20089 0.0
C3389 C 0.17023 0.8533 0.1901 0.0
C3390 C 0.1786 0.86681 0.18129 0.0
C3391 C 0.16671 0.86677 0.17108 0.0
C3392 C 0.14638 0.85334 0.1696 0.0
C3393 C 0.1379 0.83996 0.17836 0.0
C3394 C 0.14973 0.83994 0.18858 0.0
C3395 C 0.18772 0.86808 0.25762 0.0
C3396 C 0.16865 0.85325 0.25964 0.0
C3397 C 0.19436 0.86877 0.24584 0.0
C3398 C 0.1821 0.85456 0.23591 0.0
C3399 C 0.16297 0.83999 0.23787 0.0
C3400 C 0.15633 0.8393 0.2496 0.0
C3401 C 0.18912 0.85444 0.22349 0.0
C3402 C 0.17773 0.85453 0.21296 0.0
C3403 C 0.2064 0.85349 0.22191 0.0
C3404 C 0.21845 0.85223 0.23257 0.0
C3405 C 0.20986 0.83684 0.24018 0.0
C3406 C 0.2213 0.8357 0.25019 0.0
C3407 C 0.2414 0.84976 0.25263 0.0
C3408 C 0.25009 0.86503 0.24508 0.0
C3409 C 0.2387 0.86625 0.23505 0.0
H3410 H 0.25025 0.84878 0.26035 0.0
H3411 H 0.13719 0.85333 0.16169 0.0
H3412 H 0.17069 0.37947 0.15816 0.0
H3413 H 0.16253 0.36642 0.17817 0.0
H3414 H 0.22232 0.37876 0.1867 0.0
H3415 H 0.2303 0.3907 0.16633 0.0
H3416 H 0.19797 0.34466 0.19372 0.0
H3417 H 0.20504 0.40872 0.19952 0.0
H3418 H 0.19867 0.43538 0.19479 0.0
H3419 H 0.13734 0.3985 0.19965 0.0
H3420 H 0.1433 0.37151 0.20425 0.0
H3421 H 0.19711 0.34106 0.25933 0.0
H3422 H 0.2039 0.35223 0.23863 0.0
H3423 H 0.14203 0.33195 0.22921 0.0
H3424 H 0.13516 0.32092 0.25 0.0
H3425 H 0.16673 0.36949 0.22265 0.0
H3426 H 0.16077 0.30569 0.2175 0.0
H3427 H 0.16826 0.27996 0.22277 0.0
H3428 H 0.22917 0.31785 0.21735 0.0
H3429 H 0.22209 0.34393 0.21221 0.0
C3430 C 0.18207 0.37915 0.16418 0.0
C3431 C 0.20121 0.38622 0.16057 0.0
C3432 C 0.17743 0.37192 0.17573 0.0
C3433 C 0.1919 0.37192 0.18408 0.0
C3434 C 0.21092 0.3787 0.18046 0.0
C3435 C 0.21553 0.38574 0.16884 0.0
C3436 C 0.18718 0.36479 0.19656 0.0
C3437 C 0.19138 0.3503 0.20009 0.0
C3438 C 0.1782 0.37181 0.20483 0.0
C3439 C 0.17458 0.38803 0.2021 0.0
C3440 C 0.19016 0.40624 0.19948 0.0
C3441 C 0.18663 0.42142 0.19684 0.0
C3442 C 0.1676 0.41861 0.19688 0.0
C3443 C 0.15207 0.40064 0.1996 0.0
C3444 C 0.15552 0.3854 0.20224 0.0
C3445 C 0.18496 0.33907 0.25288 0.0
C3446 C 0.16559 0.33011 0.2563 0.0
C3447 C 0.18884 0.34533 0.24102 0.0
C3448 C 0.17344 0.34278 0.23235 0.0
C3449 C 0.15411 0.334 0.23576 0.0
C3450 C 0.15019 0.32759 0.24759 0.0
C3451 C 0.17759 0.34948 0.21977 0.0
C3452 C 0.17329 0.36387 0.21623 0.0
C3453 C 0.18666 0.34253 0.21156 0.0
C3454 C 0.19093 0.32683 0.21458 0.0
C3455 C 0.17579 0.3086 0.21753 0.0
C3456 C 0.17996 0.29394 0.22048 0.0
C3457 C 0.19919 0.29729 0.22043 0.0
C3458 C 0.21429 0.31529 0.2174 0.0
C3459 C 0.2102 0.33 0.21446 0.0
H3460 H 0.20239 0.28592 0.22271 0.0
H3461 H 0.16489 0.43038 0.19484 0.0
H3462 H 0.81196 0.63471 0.86093 0.0
H3463 H 0.81915 0.64838 0.84092 0.0
H3464 H 0.78219 0.59013 0.82148 0.0
H3465 H 0.77539 0.57639 0.84147 0.0
H3466 H 0.81449 0.60796 0.81105 0.0
H3467 H 0.76763 0.62579 0.82367 0.0
H3468 H 0.75369 0.64044 0.83769 0.0
H3469 H 0.80527 0.69747 0.83762 0.0
H3470 H 0.81965 0.68311 0.82372 0.0
H3471 H 0.80673 0.6364 0.75098 0.0
H3472 H 0.79881 0.624 0.7712 0.0
H3473 H 0.84225 0.68112 0.78974 0.0
H3474 H 0.85057 0.69362 0.7695 0.0
H3475 H 0.80694 0.6644 0.80056 0.0
H3476 H 0.85324 0.64546 0.78752 0.0
H3477 H 0.86572 0.63013 0.77282 0.0
H3478 H 0.81301 0.57403 0.77309 0.0
H3479 H 0.80008 0.58909 0.78767 0.0
C3480 C 0.80524 0.62487 0.85238 0.0
C3481 C 0.79311 0.60449 0.85276 0.0
C3482 C 0.80931 0.63269 0.84093 0.0
C3483 C 0.80103 0.62034 0.82964 0.0
C3484 C 0.78881 0.59998 0.83004 0.0
C3485 C 0.78493 0.59213 0.84147 0.0
C3486 C 0.80551 0.62849 0.81742 0.0
C3487 C 0.81255 0.62012 0.80872 0.0
C3488 C 0.80342 0.64464 0.81441 0.0
C3489 C 0.7948 0.65333 0.82276 0.0
C3490 C 0.77607 0.64143 0.82672 0.0
C3491 C 0.76807 0.64968 0.83463 0.0
C3492 C 0.77861 0.66986 0.83857 0.0
C3493 C 0.79714 0.68184 0.83458 0.0
C3494 C 0.80521 0.67365 0.82667 0.0
C3495 C 0.81475 0.64633 0.75932 0.0
C3496 C 0.82939 0.66601 0.75854 0.0
C3497 C 0.81012 0.63922 0.77089 0.0
C3498 C 0.82007 0.65159 0.78198 0.0
C3499 C 0.83437 0.67134 0.7813 0.0
C3500 C 0.83905 0.67846 0.7697 0.0
C3501 C 0.81577 0.64378 0.79427 0.0
C3502 C 0.80883 0.65223 0.80295 0.0
C3503 C 0.81775 0.62757 0.79722 0.0
C3504 C 0.82563 0.61844 0.7886 0.0
C3505 C 0.84425 0.62988 0.78438 0.0
C3506 C 0.85142 0.62123 0.77608 0.0
C3507 C 0.84014 0.60113 0.772 0.0
C3508 C 0.82171 0.58961 0.77625 0.0
C3509 C 0.81447 0.59818 0.78454 0.0
H3510 H 0.84571 0.59446 0.76556 0.0
H3511 H 0.77239 0.67623 0.8447 0.0
H3512 H 0.34243 0.136 0.86155 0.0
H3513 H 0.33331 0.13107 0.83899 0.0
H3514 H 0.3383 0.18822 0.84052 0.0
H3515 H 0.34656 0.19289 0.8631 0.0
H3516 H 0.30642 0.16215 0.82577 0.0
H3517 H 0.37501 0.18053 0.83061 0.0
H3518 H 0.40385 0.17794 0.83815 0.0
H3519 H 0.37698 0.11972 0.81885 0.0
H3520 H 0.34784 0.12186 0.81133 0.0
H3521 H 0.31773 0.18207 0.76287 0.0
H3522 H 0.32381 0.18269 0.78545 0.0
H3523 H 0.31077 0.12251 0.78047 0.0
H3524 H 0.30476 0.12183 0.75782 0.0
H3525 H 0.3451 0.14753 0.79674 0.0
H3526 H 0.27719 0.13064 0.79088 0.0
H3527 H 0.24919 0.13442 0.78311 0.0
H3528 H 0.27586 0.19132 0.80421 0.0
H3529 H 0.30418 0.188 0.81197 0.0
C3530 C 0.34135 0.14742 0.8571 0.0
C3531 C 0.34535 0.1649 0.86412 0.0
C3532 C 0.33633 0.14466 0.84419 0.0
C3533 C 0.33539 0.1594 0.83805 0.0
C3534 C 0.33902 0.17669 0.84506 0.0
C3535 C 0.34394 0.17941 0.85795 0.0
C3536 C 0.33073 0.15696 0.8243 0.0
C3537 C 0.31501 0.15914 0.81943 0.0
C3538 C 0.34165 0.15259 0.81602 0.0
C3539 C 0.35915 0.15127 0.82053 0.0
C3540 C 0.37518 0.16711 0.82806 0.0
C3541 C 0.39159 0.16574 0.83231 0.0
C3542 C 0.39222 0.14865 0.82901 0.0
C3543 C 0.37646 0.13293 0.82142 0.0
C3544 C 0.35999 0.13422 0.81715 0.0
C3545 C 0.31626 0.16901 0.76659 0.0
C3546 C 0.31074 0.15189 0.75861 0.0
C3547 C 0.31961 0.16934 0.77947 0.0
C3548 C 0.31757 0.15259 0.7846 0.0
C3549 C 0.31234 0.13555 0.77667 0.0
C3550 C 0.30881 0.13515 0.76377 0.0
C3551 C 0.321 0.15297 0.79827 0.0
C3552 C 0.33646 0.1504 0.80311 0.0
C3553 C 0.30995 0.15713 0.80652 0.0
C3554 C 0.2929 0.15914 0.80192 0.0
C3555 C 0.27717 0.14403 0.79378 0.0
C3556 C 0.26122 0.14607 0.78939 0.0
C3557 C 0.26077 0.16312 0.79314 0.0
C3558 C 0.27624 0.17813 0.80131 0.0
C3559 C 0.29223 0.17617 0.80571 0.0
H3560 H 0.24841 0.16467 0.78973 0.0
H3561 H 0.40495 0.14762 0.83231 0.0
H3562 H 0.82495 0.19924 0.85839 0.0
H3563 H 0.83048 0.19611 0.83656 0.0
H3564 H 0.77748 0.13896 0.83053 0.0
H3565 H 0.77199 0.14185 0.85248 0.0
H3566 H 0.80936 0.13981 0.82004 0.0
H3567 H 0.77622 0.17716 0.82045 0.0
H3568 H 0.77109 0.20432 0.82789 0.0
H3569 H 0.82803 0.24649 0.81783 0.0
H3570 H 0.83364 0.21958 0.8105 0.0
H3571 H 0.80725 0.13163 0.75419 0.0
H3572 H 0.7978 0.13301 0.77524 0.0
H3573 H 0.84545 0.19331 0.78291 0.0
H3574 H 0.85456 0.19211 0.76174 0.0
H3575 H 0.81421 0.18968 0.79239 0.0
H3576 H 0.84886 0.15382 0.79328 0.0
H3577 H 0.85563 0.12754 0.78642 0.0
H3578 H 0.79806 0.08371 0.79461 0.0
H3579 H 0.79085 0.10974 0.80137 0.0
C3580 C 0.81458 0.1859 0.85246 0.0
C3581 C 0.79803 0.17078 0.85716 0.0
C3582 C 0.81767 0.18422 0.83997 0.0
C3583 C 0.80427 0.1674 0.83191 0.0
C3584 C 0.78794 0.15209 0.8366 0.0
C3585 C 0.78477 0.15381 0.8491 0.0
C3586 C 0.80737 0.16588 0.81858 0.0
C3587 C 0.81011 0.15051 0.81392 0.0
C3588 C 0.80883 0.18015 0.81073 0.0
C3589 C 0.80541 0.19635 0.81502 0.0
C3590 C 0.78771 0.19223 0.81991 0.0
C3591 C 0.78471 0.20758 0.82409 0.0
C3592 C 0.79924 0.22712 0.82336 0.0
C3593 C 0.81679 0.23135 0.81841 0.0
C3594 C 0.81988 0.21605 0.81422 0.0
C3595 C 0.81569 0.14515 0.7604 0.0
C3596 C 0.83176 0.16171 0.75641 0.0
C3597 C 0.81031 0.14592 0.77241 0.0
C3598 C 0.82116 0.16314 0.78076 0.0
C3599 C 0.83689 0.17985 0.77666 0.0
C3600 C 0.8421 0.17916 0.76458 0.0
C3601 C 0.81642 0.16369 0.79383 0.0
C3602 C 0.81336 0.17888 0.79846 0.0
C3603 C 0.8149 0.14938 0.8017 0.0
C3604 C 0.81924 0.13371 0.7977 0.0
C3605 C 0.83759 0.13857 0.79353 0.0
C3606 C 0.84152 0.12372 0.78967 0.0
C3607 C 0.82726 0.10396 0.79004 0.0
C3608 C 0.80907 0.09902 0.79431 0.0
C3609 C 0.80506 0.11381 0.79816 0.0
H3610 H 0.83033 0.09249 0.78705 0.0
H3611 H 0.79689 0.23898 0.8266 0.0
H3612 H 0.27991 0.14363 0.49046 0.0
H3613 H 0.28767 0.14597 0.51298 0.0
H3614 H 0.34904 0.16788 0.50812 0.0
H3615 H 0.34151 0.166 0.48557 0.0
H3616 H 0.3346 0.13891 0.52433 0.0
H3617 H 0.33554 0.19928 0.51833 0.0
H3618 H 0.32211 0.21951 0.51065 0.0
H3619 H 0.27308 0.19116 0.53223 0.0
H3620 H 0.28609 0.17055 0.53991 0.0
H3621 H 0.37493 0.17481 0.58743 0.0
H3622 H 0.36693 0.17085 0.56484 0.0
H3623 H 0.30683 0.1549 0.56983 0.0
H3624 H 0.31495 0.15976 0.59245 0.0
H3625 H 0.32052 0.18054 0.55339 0.0
H3626 H 0.31914 0.12029 0.55959 0.0
H3627 H 0.33188 0.09945 0.56719 0.0
H3628 H 0.38067 0.12652 0.54528 0.0
H3629 H 0.36837 0.14774 0.53768 0.0
C3630 C 0.29511 0.14916 0.49418 0.0
C3631 C 0.31011 0.15476 0.48621 0.0
C3632 C 0.29949 0.15039 0.50704 0.0
C3633 C 0.31895 0.15725 0.5122 0.0
C3634 C 0.33392 0.16252 0.5043 0.0
C3635 C 0.32957 0.16137 0.49142 0.0
C3636 C 0.32368 0.15906 0.52588 0.0
C3637 C 0.33178 0.14819 0.5307 0.0
C3638 C 0.31949 0.1708 0.53416 0.0
C3639 C 0.31169 0.18324 0.5296 0.0
C3640 C 0.32181 0.19724 0.52136 0.0
C3641 C 0.31429 0.2088 0.51702 0.0
C3642 C 0.29673 0.20659 0.52092 0.0
C3643 C 0.28667 0.19284 0.5292 0.0
C3644 C 0.29412 0.18123 0.53356 0.0
C3645 C 0.36003 0.17056 0.58373 0.0
C3646 C 0.34559 0.16762 0.59177 0.0
C3647 C 0.35542 0.16807 0.5708 0.0
C3648 C 0.33621 0.16236 0.56563 0.0
C3649 C 0.32173 0.15926 0.57361 0.0
C3650 C 0.32635 0.16185 0.58655 0.0
C3651 C 0.33142 0.16032 0.55191 0.0
C3652 C 0.32332 0.17119 0.54706 0.0
C3653 C 0.33551 0.14849 0.54362 0.0
C3654 C 0.34293 0.13574 0.54816 0.0
C3655 C 0.33267 0.12192 0.55647 0.0
C3656 C 0.3398 0.11001 0.56076 0.0
C3657 C 0.3571 0.11169 0.55675 0.0
C3658 C 0.36728 0.12525 0.5484 0.0
C3659 C 0.36023 0.13721 0.54409 0.0
H3660 H 0.36259 0.10246 0.56008 0.0
H3661 H 0.29093 0.21555 0.51756 0.0
H3662 H 0.84671 0.15332 0.49314 0.0
H3663 H 0.84028 0.16183 0.51377 0.0
H3664 H 0.90044 0.21016 0.52079 0.0
H3665 H 0.90705 0.20155 0.50007 0.0
H3666 H 0.88841 0.18692 0.54039 0.0
H3667 H 0.86507 0.22069 0.5158 0.0
H3668 H 0.84655 0.22479 0.49808 0.0
H3669 H 0.79187 0.17956 0.50907 0.0
H3670 H 0.81008 0.17497 0.52676 0.0
H3671 H 0.86121 0.20816 0.59861 0.0
H3672 H 0.87415 0.21324 0.57833 0.0
H3673 H 0.81654 0.16927 0.56037 0.0
H3674 H 0.80324 0.16511 0.58041 0.0
H3675 H 0.83232 0.19771 0.54657 0.0
H3676 H 0.85592 0.16031 0.56887 0.0
H3677 H 0.87416 0.1551 0.58624 0.0
H3678 H 0.92807 0.20607 0.57921 0.0
H3679 H 0.91006 0.21181 0.56195 0.0
C3680 C 0.85858 0.16576 0.49907 0.0
C3681 C 0.8774 0.17673 0.49503 0.0
C3682 C 0.85485 0.17071 0.51081 0.0
C3683 C 0.86984 0.18674 0.51875 0.0
C3684 C 0.88866 0.1978 0.51476 0.0
C3685 C 0.89237 0.19294 0.50293 0.0
C3686 C 0.86581 0.19123 0.5314 0.0
C3687 C 0.87643 0.18972 0.54179 0.0
C3688 C 0.85002 0.19463 0.53317 0.0
C3689 C 0.83897 0.19742 0.52258 0.0
C3690 C 0.84911 0.21152 0.51439 0.0
C3691 C 0.83866 0.21395 0.50436 0.0
C3692 C 0.81805 0.20243 0.50244 0.0
C3693 C 0.80784 0.18848 0.51057 0.0
C3694 C 0.81822 0.18598 0.52062 0.0
C3695 C 0.85119 0.19987 0.59032 0.0
C3696 C 0.8312 0.18603 0.59119 0.0
C3697 C 0.85869 0.20263 0.57873 0.0
C3698 C 0.84644 0.19134 0.56783 0.0
C3699 C 0.82635 0.17808 0.56864 0.0
C3700 C 0.8188 0.17553 0.58016 0.0
C3701 C 0.85439 0.19261 0.55557 0.0
C3702 C 0.84453 0.19527 0.54523 0.0
C3703 C 0.8708 0.19012 0.55385 0.0
C3704 C 0.8816 0.18664 0.56423 0.0
C3705 C 0.87163 0.17051 0.5711 0.0
C3706 C 0.88193 0.16746 0.58093 0.0
C3707 C 0.90225 0.18031 0.58388 0.0
C3708 C 0.91232 0.19619 0.57697 0.0
C3709 C 0.90207 0.19936 0.56717 0.0
H3710 H 0.9102 0.17791 0.59148 0.0
H3711 H 0.80999 0.20433 0.49466 0.0
H3712 H 0.8442 0.72816 0.49674 0.0
H3713 H 0.83709 0.71531 0.517 0.0
H3714 H 0.88497 0.70329 0.51662 0.0
H3715 H 0.8921 0.71606 0.49629 0.0
H3716 H 0.84996 0.672 0.52345 0.0
H3717 H 0.89186 0.74173 0.53455 0.0
H3718 H 0.90228 0.77675 0.53381 0.0
H3719 H 0.8477 0.76654 0.54681 0.0
H3720 H 0.83682 0.73137 0.54745 0.0
H3721 H 0.85424 0.65359 0.58669 0.0
H3722 H 0.86198 0.66635 0.56649 0.0
H3723 H 0.81997 0.68628 0.56853 0.0
H3724 H 0.8124 0.67379 0.58886 0.0
H3725 H 0.85242 0.71365 0.56071 0.0
H3726 H 0.80987 0.64435 0.54942 0.0
H3727 H 0.79837 0.60903 0.54984 0.0
H3728 H 0.85248 0.61781 0.53684 0.0
H3729 H 0.86442 0.65325 0.5365 0.0
C3730 C 0.85315 0.72269 0.50094 0.0
C3731 C 0.86871 0.72312 0.49493 0.0
C3732 C 0.84915 0.71547 0.51255 0.0
C3733 C 0.86059 0.70847 0.51834 0.0
C3734 C 0.876 0.70867 0.51231 0.0
C3735 C 0.88013 0.71607 0.50075 0.0
C3736 C 0.85638 0.70089 0.53068 0.0
C3737 C 0.85076 0.68116 0.53166 0.0
C3738 C 0.85691 0.71272 0.54127 0.0
C3739 C 0.86344 0.73387 0.54093 0.0
C3740 C 0.882 0.74691 0.53715 0.0
C3741 C 0.88801 0.7668 0.53677 0.0
C3742 C 0.87564 0.77386 0.54023 0.0
C3743 C 0.85726 0.76105 0.54411 0.0
C3744 C 0.85117 0.74114 0.5445 0.0
C3745 C 0.84652 0.66053 0.58278 0.0
C3746 C 0.83263 0.66259 0.58934 0.0
C3747 C 0.85095 0.66782 0.57122 0.0
C3748 C 0.84136 0.67704 0.56588 0.0
C3749 C 0.82757 0.67923 0.57245 0.0
C3750 C 0.82326 0.6721 0.58407 0.0
C3751 C 0.84591 0.68467 0.55353 0.0
C3752 C 0.8516 0.70444 0.55254 0.0
C3753 C 0.84527 0.67281 0.54289 0.0
C3754 C 0.83812 0.65149 0.54305 0.0
C3755 C 0.81938 0.63878 0.54674 0.0
C3756 C 0.81277 0.61873 0.54695 0.0
C3757 C 0.82471 0.61119 0.5434 0.0
C3758 C 0.84326 0.62367 0.5396 0.0
C3759 C 0.84995 0.64374 0.53939 0.0
H3760 H 0.81956 0.59567 0.54357 0.0
H3761 H 0.88032 0.78926 0.53993 0.0
loop_
_geom_bond_atom_site_label_1
_geom_bond_atom_site_label_2
_geom_bond_distance
_geom_bond_site_symmetry_2
_ccdc_geom_bond_type
C0 C1 1.386 . S
C0 C2 1.397 . S
C0 H24 0.931 . S
C1 C0 1.386 . S
C1 C5 1.397 . S
C2 C0 1.397 . S
C2 C3 1.384 . S
C2 H25 0.930 . S
C3 C2 1.384 . S
C3 C4 1.377 . S
C3 C6 1.481 . S
C4 C3 1.377 . S
C4 C5 1.389 . S
C4 H26 0.929 . S
C5 C1 1.397 . S
C5 C4 1.389 . S
C5 H27 0.931 . S
C6 C3 1.481 . S
C6 C7 1.387 . S
C6 C11 1.390 . S
C7 C6 1.387 . S
C7 C8 1.401 . S
C7 H28 0.930 . S
C8 C7 1.401 . S
C8 C9 1.376 . S
C8 C17 1.511 . S
C9 C8 1.376 . S
C9 C10 1.392 . S
C9 H30 0.931 . S
C10 C9 1.392 . S
C10 C11 1.361 . S
C10 C12 1.500 . S
C11 C6 1.390 . S
C11 C10 1.361 . S
C11 H29 0.931 . S
C12 C10 1.500 . S
C12 C13 1.371 . S
C12 C14 1.365 . S
C13 C12 1.371 . S
C13 C23 1.386 . S
C13 H31 0.931 . S
C14 C12 1.365 . S
C14 C15 1.409 . S
C14 H32 0.929 . S
C15 C14 1.409 . S
C15 C16 1.380 . S
C15 H33 0.930 . S
C16 C15 1.380 . S
C16 C23 1.357 . S
C17 C8 1.511 . S
C17 C18 1.341 . S
C17 C19 1.371 . S
C18 C17 1.341 . S
C18 C22 1.394 . S
C18 H34 0.930 . S
C19 C17 1.371 . S
C19 C20 1.392 . S
C19 H35 0.931 . S
C20 C19 1.392 . S
C20 C21 1.331 . S
C20 H38 0.932 . S
C21 C20 1.331 . S
C21 C22 1.336 . S
C22 C18 1.394 . S
C22 C21 1.336 . S
C22 H37 0.929 . S
C23 C13 1.386 . S
C23 C16 1.357 . S
C23 H36 0.928 . S
H24 C0 0.931 . S
H25 C2 0.930 . S
H26 C4 0.929 . S
H27 C5 0.931 . S
H28 C7 0.930 . S
H29 C11 0.931 . S
H30 C9 0.931 . S
H31 C13 0.931 . S
H32 C14 0.929 . S
H33 C15 0.930 . S
H34 C18 0.930 . S
H35 C19 0.931 . S
H36 C23 0.928 . S
H37 C22 0.929 . S
H38 C20 0.932 . S
C39 C40 1.386 . S
C39 C41 1.397 . S
C39 H63 0.931 . S
C40 C39 1.386 . S
C40 C44 1.397 . S
C41 C39 1.397 . S
C41 C42 1.384 . S
C41 H64 0.930 . S
C42 C41 1.384 . S
C42 C43 1.377 . S
C42 C45 1.481 . S
C43 C42 1.377 . S
C43 C44 1.389 . S
C43 H65 0.929 . S
C44 C40 1.397 . S
C44 C43 1.389 . S
C44 H66 0.931 . S
C45 C42 1.481 . S
C45 C46 1.387 . S
C45 C50 1.390 . S
C46 C45 1.387 . S
C46 C47 1.401 . S
C46 H67 0.930 . S
C47 C46 1.401 . S
C47 C48 1.376 . S
C47 C56 1.511 . S
C48 C47 1.376 . S
C48 C49 1.392 . S
C48 H69 0.931 . S
C49 C48 1.392 . S
C49 C50 1.361 . S
C49 C51 1.500 . S
C50 C45 1.390 . S
C50 C49 1.361 . S
C50 H68 0.931 . S
C51 C49 1.500 . S
C51 C52 1.371 . S
C51 C53 1.365 . S
C52 C51 1.371 . S
C52 C62 1.386 . S
C52 H70 0.931 . S
C53 C51 1.365 . S
C53 C54 1.409 . S
C53 H71 0.929 . S
C54 C53 1.409 . S
C54 C55 1.380 . S
C54 H72 0.930 . S
C55 C54 1.380 . S
C55 C62 1.357 . S
C56 C47 1.511 . S
C56 C57 1.341 . S
C56 C58 1.371 . S
C57 C56 1.341 . S
C57 C61 1.394 . S
C57 H73 0.930 . S
C58 C56 1.371 . S
C58 C59 1.392 . S
C58 H74 0.931 . S
C59 C58 1.392 . S
C59 C60 1.331 . S
C59 H77 0.932 . S
C60 C59 1.331 . S
C60 C61 1.336 . S
C61 C57 1.394 . S
C61 C60 1.336 . S
C61 H76 0.929 . S
C62 C52 1.386 . S
C62 C55 1.357 . S
C62 H75 0.928 . S
H63 C39 0.931 . S
H64 C41 0.930 . S
H65 C43 0.929 . S
H66 C44 0.931 . S
H67 C46 0.930 . S
H68 C50 0.931 . S
H69 C48 0.931 . S
H70 C52 0.931 . S
H71 C53 0.929 . S
H72 C54 0.930 . S
H73 C57 0.930 . S
H74 C58 0.931 . S
H75 C62 0.928 . S
H76 C61 0.929 . S
H77 C59 0.932 . S
C78 C79 1.386 . S
C78 C80 1.397 . S
C78 H102 0.931 . S
C79 C78 1.386 . S
C79 C83 1.397 . S
C80 C78 1.397 . S
C80 C81 1.384 . S
C80 H103 0.930 . S
C81 C80 1.384 . S
C81 C82 1.377 . S
C81 C84 1.481 . S
C82 C81 1.377 . S
C82 C83 1.389 . S
C82 H104 0.929 . S
C83 C79 1.397 . S
C83 C82 1.389 . S
C83 H105 0.931 . S
C84 C81 1.481 . S
C84 C85 1.387 . S
C84 C89 1.390 . S
C85 C84 1.387 . S
C85 C86 1.401 . S
C85 H106 0.930 . S
C86 C85 1.401 . S
C86 C87 1.376 . S
C86 C95 1.511 . S
C87 C86 1.376 . S
C87 C88 1.392 . S
C87 H108 0.931 . S
C88 C87 1.392 . S
C88 C89 1.361 . S
C88 C90 1.500 . S
C89 C84 1.390 . S
C89 C88 1.361 . S
C89 H107 0.931 . S
C90 C88 1.500 . S
C90 C91 1.371 . S
C90 C92 1.365 . S
C91 C90 1.371 . S
C91 C101 1.386 . S
C91 H109 0.931 . S
C92 C90 1.365 . S
C92 C93 1.409 . S
C92 H110 0.929 . S
C93 C92 1.409 . S
C93 C94 1.380 . S
C93 H111 0.930 . S
C94 C93 1.380 . S
C94 C101 1.357 . S
C95 C86 1.511 . S
C95 C96 1.341 . S
C95 C97 1.371 . S
C96 C95 1.341 . S
C96 C100 1.394 . S
C96 H112 0.930 . S
C97 C95 1.371 . S
C97 C98 1.392 . S
C97 H113 0.931 . S
C98 C97 1.392 . S
C98 C99 1.331 . S
C98 H116 0.932 . S
C99 C98 1.331 . S
C99 C100 1.336 . S
C100 C96 1.394 . S
C100 C99 1.336 . S
C100 H115 0.929 . S
C101 C91 1.386 . S
C101 C94 1.357 . S
C101 H114 0.928 . S
H102 C78 0.931 . S
H103 C80 0.930 . S
H104 C82 0.929 . S
H105 C83 0.931 . S
H106 C85 0.930 . S
H107 C89 0.931 . S
H108 C87 0.931 . S
H109 C91 0.931 . S
H110 C92 0.929 . S
H111 C93 0.930 . S
H112 C96 0.930 . S
H113 C97 0.931 . S
H114 C101 0.928 . S
H115 C100 0.929 . S
H116 C98 0.932 . S
C117 C118 1.386 . S
C117 C119 1.397 . S
C117 H141 0.931 . S
C118 C117 1.386 . S
C118 C122 1.397 . S
C119 C117 1.397 . S
C119 C120 1.384 . S
C119 H142 0.930 . S
C120 C119 1.384 . S
C120 C121 1.377 . S
C120 C123 1.481 . S
C121 C120 1.377 . S
C121 C122 1.389 . S
C121 H143 0.929 . S
C122 C118 1.397 . S
C122 C121 1.389 . S
C122 H144 0.931 . S
C123 C120 1.481 . S
C123 C124 1.387 . S
C123 C128 1.390 . S
C124 C123 1.387 . S
C124 C125 1.401 . S
C124 H145 0.930 . S
C125 C124 1.401 . S
C125 C126 1.376 . S
C125 C134 1.511 . S
C126 C125 1.376 . S
C126 C127 1.392 . S
C126 H147 0.931 . S
C127 C126 1.392 . S
C127 C128 1.361 . S
C127 C129 1.500 . S
C128 C123 1.390 . S
C128 C127 1.361 . S
C128 H146 0.931 . S
C129 C127 1.500 . S
C129 C130 1.371 . S
C129 C131 1.365 . S
C130 C129 1.371 . S
C130 C140 1.386 . S
C130 H148 0.931 . S
C131 C129 1.365 . S
C131 C132 1.409 . S
C131 H149 0.929 . S
C132 C131 1.409 . S
C132 C133 1.380 . S
C132 H150 0.930 . S
C133 C132 1.380 . S
C133 C140 1.357 . S
C134 C125 1.511 . S
C134 C135 1.341 . S
C134 C136 1.371 . S
C135 C134 1.341 . S
C135 C139 1.394 . S
C135 H151 0.930 . S
C136 C134 1.371 . S
C136 C137 1.392 . S
C136 H152 0.931 . S
C137 C136 1.392 . S
C137 C138 1.331 . S
C137 H155 0.932 . S
C138 C137 1.331 . S
C138 C139 1.336 . S
C139 C135 1.394 . S
C139 C138 1.336 . S
C139 H154 0.929 . S
C140 C130 1.386 . S
C140 C133 1.357 . S
C140 H153 0.928 . S
H141 C117 0.931 . S
H142 C119 0.930 . S
H143 C121 0.929 . S
H144 C122 0.931 . S
H145 C124 0.930 . S
H146 C128 0.931 . S
H147 C126 0.931 . S
H148 C130 0.931 . S
H149 C131 0.929 . S
H150 C132 0.930 . S
H151 C135 0.930 . S
H152 C136 0.931 . S
H153 C140 0.928 . S
H154 C139 0.929 . S
H155 C137 0.932 . S
C156 C157 1.386 . S
C156 C158 1.397 . S
C156 H180 0.931 . S
C157 C156 1.386 . S
C157 C161 1.397 . S
C158 C156 1.397 . S
C158 C159 1.384 . S
C158 H181 0.930 . S
C159 C158 1.384 . S
C159 C160 1.377 . S
C159 C162 1.481 . S
C160 C159 1.377 . S
C160 C161 1.389 . S
C160 H182 0.929 . S
C161 C157 1.397 . S
C161 C160 1.389 . S
C161 H183 0.931 . S
C162 C159 1.481 . S
C162 C163 1.387 . S
C162 C167 1.390 . S
C163 C162 1.387 . S
C163 C164 1.401 . S
C163 H184 0.930 . S
C164 C163 1.401 . S
C164 C165 1.376 . S
C164 C173 1.511 . S
C165 C164 1.376 . S
C165 C166 1.392 . S
C165 H186 0.931 . S
C166 C165 1.392 . S
C166 C167 1.361 . S
C166 C168 1.500 . S
C167 C162 1.390 . S
C167 C166 1.361 . S
C167 H185 0.931 . S
C168 C166 1.500 . S
C168 C169 1.371 . S
C168 C170 1.365 . S
C169 C168 1.371 . S
C169 C179 1.386 . S
C169 H187 0.931 . S
C170 C168 1.365 . S
C170 C171 1.409 . S
C170 H188 0.929 . S
C171 C170 1.409 . S
C171 C172 1.380 . S
C171 H189 0.930 . S
C172 C171 1.380 . S
C172 C179 1.357 . S
C173 C164 1.511 . S
C173 C174 1.341 . S
C173 C175 1.371 . S
C174 C173 1.341 . S
C174 C178 1.394 . S
C174 H190 0.930 . S
C175 C173 1.371 . S
C175 C176 1.392 . S
C175 H191 0.931 . S
C176 C175 1.392 . S
C176 C177 1.331 . S
C176 H194 0.932 . S
C177 C176 1.331 . S
C177 C178 1.336 . S
C178 C174 1.394 . S
C178 C177 1.336 . S
C178 H193 0.929 . S
C179 C169 1.386 . S
C179 C172 1.357 . S
C179 H192 0.928 . S
H180 C156 0.931 . S
H181 C158 0.930 . S
H182 C160 0.929 . S
H183 C161 0.931 . S
H184 C163 0.930 . S
H185 C167 0.931 . S
H186 C165 0.931 . S
H187 C169 0.931 . S
H188 C170 0.929 . S
H189 C171 0.930 . S
H190 C174 0.930 . S
H191 C175 0.931 . S
H192 C179 0.928 . S
H193 C178 0.929 . S
H194 C176 0.932 . S
C195 C196 1.386 . S
C195 C197 1.397 . S
C195 H219 0.931 . S
C196 C195 1.386 . S
C196 C200 1.397 . S
C197 C195 1.397 . S
C197 C198 1.384 . S
C197 H220 0.930 . S
C198 C197 1.384 . S
C198 C199 1.377 . S
C198 C201 1.481 . S
C199 C198 1.377 . S
C199 C200 1.389 . S
C199 H221 0.929 . S
C200 C196 1.397 . S
C200 C199 1.389 . S
C200 H222 0.931 . S
C201 C198 1.481 . S
C201 C202 1.387 . S
C201 C206 1.390 . S
C202 C201 1.387 . S
C202 C203 1.401 . S
C202 H223 0.930 . S
C203 C202 1.401 . S
C203 C204 1.376 . S
C203 C212 1.511 . S
C204 C203 1.376 . S
C204 C205 1.392 . S
C204 H225 0.931 . S
C205 C204 1.392 . S
C205 C206 1.361 . S
C205 C207 1.500 . S
C206 C201 1.390 . S
C206 C205 1.361 . S
C206 H224 0.931 . S
C207 C205 1.500 . S
C207 C208 1.371 . S
C207 C209 1.365 . S
C208 C207 1.371 . S
C208 C218 1.386 . S
C208 H226 0.931 . S
C209 C207 1.365 . S
C209 C210 1.409 . S
C209 H227 0.929 . S
C210 C209 1.409 . S
C210 C211 1.380 . S
C210 H228 0.930 . S
C211 C210 1.380 . S
C211 C218 1.357 . S
C212 C203 1.511 . S
C212 C213 1.341 . S
C212 C214 1.371 . S
C213 C212 1.341 . S
C213 C217 1.394 . S
C213 H229 0.930 . S
C214 C212 1.371 . S
C214 C215 1.392 . S
C214 H230 0.931 . S
C215 C214 1.392 . S
C215 C216 1.331 . S
C215 H233 0.932 . S
C216 C215 1.331 . S
C216 C217 1.336 . S
C217 C213 1.394 . S
C217 C216 1.336 . S
C217 H232 0.929 . S
C218 C208 1.386 . S
C218 C211 1.357 . S
C218 H231 0.928 . S
H219 C195 0.931 . S
H220 C197 0.930 . S
H221 C199 0.929 . S
H222 C200 0.931 . S
H223 C202 0.930 . S
H224 C206 0.931 . S
H225 C204 0.931 . S
H226 C208 0.931 . S
H227 C209 0.929 . S
H228 C210 0.930 . S
H229 C213 0.930 . S
H230 C214 0.931 . S
H231 C218 0.928 . S
H232 C217 0.929 . S
H233 C215 0.932 . S
C234 C235 1.386 . S
C234 C236 1.397 . S
C234 H258 0.931 . S
C235 C234 1.386 . S
C235 C239 1.397 . S
C236 C234 1.397 . S
C236 C237 1.384 . S
C236 H259 0.930 . S
C237 C236 1.384 . S
C237 C238 1.377 . S
C237 C240 1.481 . S
C238 C237 1.377 . S
C238 C239 1.389 . S
C238 H260 0.929 . S
C239 C235 1.397 . S
C239 C238 1.389 . S
C239 H261 0.931 1_655 S
C240 C237 1.481 . S
C240 C241 1.387 . S
C240 C245 1.390 . S
C241 C240 1.387 . S
C241 C242 1.401 . S
C241 H262 0.930 . S
C242 C241 1.401 . S
C242 C243 1.376 . S
C242 C251 1.511 . S
C243 C242 1.376 . S
C243 C244 1.392 . S
C243 H264 0.931 . S
C244 C243 1.392 . S
C244 C245 1.361 . S
C244 C246 1.500 . S
C245 C240 1.390 . S
C245 C244 1.361 . S
C245 H263 0.931 . S
C246 C244 1.500 . S
C246 C247 1.371 . S
C246 C248 1.365 . S
C247 C246 1.371 . S
C247 C257 1.386 . S
C247 H265 0.931 . S
C248 C246 1.365 . S
C248 C249 1.409 . S
C248 H266 0.929 . S
C249 C248 1.409 . S
C249 C250 1.380 . S
C249 H267 0.930 . S
C250 C249 1.380 . S
C250 C257 1.357 . S
C251 C242 1.511 . S
C251 C252 1.341 . S
C251 C253 1.371 . S
C252 C251 1.341 . S
C252 C256 1.394 . S
C252 H268 0.930 . S
C253 C251 1.371 . S
C253 C254 1.392 . S
C253 H269 0.931 . S
C254 C253 1.392 . S
C254 C255 1.331 . S
C254 H272 0.932 . S
C255 C254 1.331 . S
C255 C256 1.336 . S
C256 C252 1.394 . S
C256 C255 1.336 . S
C256 H271 0.929 . S
C257 C247 1.386 . S
C257 C250 1.357 . S
C257 H270 0.928 . S
H258 C234 0.931 . S
H259 C236 0.930 . S
H260 C238 0.929 . S
H261 C239 0.931 1_455 S
H262 C241 0.930 . S
H263 C245 0.931 . S
H264 C243 0.931 . S
H265 C247 0.931 . S
H266 C248 0.929 . S
H267 C249 0.930 . S
H268 C252 0.930 . S
H269 C253 0.931 . S
H270 C257 0.928 . S
H271 C256 0.929 . S
H272 C254 0.932 . S
C273 C274 1.386 . S
C273 C275 1.397 . S
C273 H297 0.931 . S
C274 C273 1.386 . S
C274 C278 1.397 . S
C275 C273 1.397 . S
C275 C276 1.384 . S
C275 H298 0.930 . S
C276 C275 1.384 . S
C276 C277 1.377 . S
C276 C279 1.481 . S
C277 C276 1.377 . S
C277 C278 1.389 . S
C277 H299 0.929 . S
C278 C274 1.397 . S
C278 C277 1.389 . S
C278 H300 0.931 . S
C279 C276 1.481 . S
C279 C280 1.387 . S
C279 C284 1.390 . S
C280 C279 1.387 . S
C280 C281 1.401 . S
C280 H301 0.930 . S
C281 C280 1.401 . S
C281 C282 1.376 . S
C281 C290 1.511 . S
C282 C281 1.376 . S
C282 C283 1.392 . S
C282 H303 0.931 . S
C283 C282 1.392 . S
C283 C284 1.361 . S
C283 C285 1.500 . S
C284 C279 1.390 . S
C284 C283 1.361 . S
C284 H302 0.931 . S
C285 C283 1.500 . S
C285 C286 1.371 . S
C285 C287 1.365 . S
C286 C285 1.371 . S
C286 C296 1.386 . S
C286 H304 0.931 . S
C287 C285 1.365 . S
C287 C288 1.409 . S
C287 H305 0.929 . S
C288 C287 1.409 . S
C288 C289 1.380 . S
C288 H306 0.930 . S
C289 C288 1.380 . S
C289 C296 1.357 . S
C290 C281 1.511 . S
C290 C291 1.341 . S
C290 C292 1.371 . S
C291 C290 1.341 . S
C291 C295 1.394 . S
C291 H307 0.930 . S
C292 C290 1.371 . S
C292 C293 1.392 . S
C292 H308 0.931 . S
C293 C292 1.392 . S
C293 C294 1.331 . S
C293 H311 0.932 . S
C294 C293 1.331 . S
C294 C295 1.336 . S
C295 C291 1.394 . S
C295 C294 1.336 . S
C295 H310 0.929 . S
C296 C286 1.386 . S
C296 C289 1.357 . S
C296 H309 0.928 . S
H297 C273 0.931 . S
H298 C275 0.930 . S
H299 C277 0.929 . S
H300 C278 0.931 . S
H301 C280 0.930 . S
H302 C284 0.931 . S
H303 C282 0.931 . S
H304 C286 0.931 . S
H305 C287 0.929 . S
H306 C288 0.930 . S
H307 C291 0.930 . S
H308 C292 0.931 . S
H309 C296 0.928 . S
H310 C295 0.929 . S
H311 C293 0.932 . S
C312 C313 1.386 . S
C312 C314 1.397 . S
C312 H336 0.931 . S
C313 C312 1.386 . S
C313 C317 1.397 . S
C314 C312 1.397 . S
C314 C315 1.384 . S
C314 H337 0.930 . S
C315 C314 1.384 . S
C315 C316 1.377 . S
C315 C318 1.481 . S
C316 C315 1.377 . S
C316 C317 1.389 . S
C316 H338 0.929 . S
C317 C313 1.397 . S
C317 C316 1.389 . S
C317 H339 0.931 . S
C318 C315 1.481 . S
C318 C319 1.387 . S
C318 C323 1.390 . S
C319 C318 1.387 . S
C319 C320 1.401 . S
C319 H340 0.930 . S
C320 C319 1.401 . S
C320 C321 1.376 . S
C320 C329 1.511 . S
C321 C320 1.376 . S
C321 C322 1.392 . S
C321 H342 0.931 . S
C322 C321 1.392 . S
C322 C323 1.361 . S
C322 C324 1.500 . S
C323 C318 1.390 . S
C323 C322 1.361 . S
C323 H341 0.931 . S
C324 C322 1.500 . S
C324 C325 1.371 . S
C324 C326 1.365 . S
C325 C324 1.371 . S
C325 C335 1.386 . S
C325 H343 0.931 . S
C326 C324 1.365 . S
C326 C327 1.409 . S
C326 H344 0.929 . S
C327 C326 1.409 . S
C327 C328 1.380 . S
C327 H345 0.930 . S
C328 C327 1.380 . S
C328 C335 1.357 . S
C329 C320 1.511 . S
C329 C330 1.341 . S
C329 C331 1.371 . S
C330 C329 1.341 . S
C330 C334 1.394 . S
C330 H346 0.930 . S
C331 C329 1.371 . S
C331 C332 1.392 . S
C331 H347 0.931 . S
C332 C331 1.392 . S
C332 C333 1.331 . S
C332 H350 0.932 . S
C333 C332 1.331 . S
C333 C334 1.336 . S
C334 C330 1.394 . S
C334 C333 1.336 . S
C334 H349 0.929 . S
C335 C325 1.386 . S
C335 C328 1.357 . S
C335 H348 0.928 . S
H336 C312 0.931 . S
H337 C314 0.930 . S
H338 C316 0.929 . S
H339 C317 0.931 . S
H340 C319 0.930 . S
H341 C323 0.931 . S
H342 C321 0.931 . S
H343 C325 0.931 . S
H344 C326 0.929 . S
H345 C327 0.930 . S
H346 C330 0.930 . S
H347 C331 0.931 . S
H348 C335 0.928 . S
H349 C334 0.929 . S
H350 C332 0.932 . S
C351 C352 1.386 . S
C351 C353 1.397 . S
C351 H375 0.931 . S
C352 C351 1.386 . S
C352 C356 1.397 . S
C353 C351 1.397 . S
C353 C354 1.384 . S
C353 H376 0.930 . S
C354 C353 1.384 . S
C354 C355 1.377 . S
C354 C357 1.481 . S
C355 C354 1.377 . S
C355 C356 1.389 . S
C355 H377 0.929 . S
C356 C352 1.397 . S
C356 C355 1.389 . S
C356 H378 0.931 . S
C357 C354 1.481 . S
C357 C358 1.387 . S
C357 C362 1.390 . S
C358 C357 1.387 . S
C358 C359 1.401 . S
C358 H379 0.930 . S
C359 C358 1.401 . S
C359 C360 1.376 . S
C359 C368 1.511 . S
C360 C359 1.376 . S
C360 C361 1.392 . S
C360 H381 0.931 . S
C361 C360 1.392 . S
C361 C362 1.361 . S
C361 C363 1.500 . S
C362 C357 1.390 . S
C362 C361 1.361 . S
C362 H380 0.931 . S
C363 C361 1.500 . S
C363 C364 1.371 . S
C363 C365 1.365 . S
C364 C363 1.371 . S
C364 C374 1.386 . S
C364 H382 0.931 . S
C365 C363 1.365 . S
C365 C366 1.409 . S
C365 H383 0.929 . S
C366 C365 1.409 . S
C366 C367 1.380 . S
C366 H384 0.930 . S
C367 C366 1.380 . S
C367 C374 1.357 . S
C368 C359 1.511 . S
C368 C369 1.341 . S
C368 C370 1.371 . S
C369 C368 1.341 . S
C369 C373 1.394 . S
C369 H385 0.930 . S
C370 C368 1.371 . S
C370 C371 1.392 . S
C370 H386 0.931 . S
C371 C370 1.392 . S
C371 C372 1.331 . S
C371 H389 0.932 . S
C372 C371 1.331 . S
C372 C373 1.336 . S
C373 C369 1.394 . S
C373 C372 1.336 . S
C373 H388 0.929 . S
C374 C364 1.386 . S
C374 C367 1.357 . S
C374 H387 0.928 . S
H375 C351 0.931 . S
H376 C353 0.930 . S
H377 C355 0.929 . S
H378 C356 0.931 . S
H379 C358 0.930 . S
H380 C362 0.931 . S
H381 C360 0.931 . S
H382 C364 0.931 . S
H383 C365 0.929 . S
H384 C366 0.930 . S
H385 C369 0.930 . S
H386 C370 0.931 . S
H387 C374 0.928 . S
H388 C373 0.929 . S
H389 C371 0.932 . S
C390 C391 1.386 . S
C390 C392 1.397 . S
C390 H414 0.931 . S
C391 C390 1.386 . S
C391 C395 1.397 . S
C392 C390 1.397 . S
C392 C393 1.384 . S
C392 H415 0.930 . S
C393 C392 1.384 . S
C393 C394 1.377 . S
C393 C396 1.481 . S
C394 C393 1.377 . S
C394 C395 1.389 . S
C394 H416 0.929 . S
C395 C391 1.397 . S
C395 C394 1.389 . S
C395 H417 0.931 . S
C396 C393 1.481 . S
C396 C397 1.387 . S
C396 C401 1.390 . S
C397 C396 1.387 . S
C397 C398 1.401 . S
C397 H418 0.930 . S
C398 C397 1.401 . S
C398 C399 1.376 . S
C398 C407 1.511 . S
C399 C398 1.376 . S
C399 C400 1.392 . S
C399 H420 0.931 . S
C400 C399 1.392 . S
C400 C401 1.361 . S
C400 C402 1.500 . S
C401 C396 1.390 . S
C401 C400 1.361 . S
C401 H419 0.931 . S
C402 C400 1.500 . S
C402 C403 1.371 . S
C402 C404 1.365 . S
C403 C402 1.371 . S
C403 C413 1.386 . S
C403 H421 0.931 . S
C404 C402 1.365 . S
C404 C405 1.409 . S
C404 H422 0.929 . S
C405 C404 1.409 . S
C405 C406 1.380 . S
C405 H423 0.930 . S
C406 C405 1.380 . S
C406 C413 1.357 . S
C407 C398 1.511 . S
C407 C408 1.341 . S
C407 C409 1.371 . S
C408 C407 1.341 . S
C408 C412 1.394 . S
C408 H424 0.930 . S
C409 C407 1.371 . S
C409 C410 1.392 . S
C409 H425 0.931 . S
C410 C409 1.392 . S
C410 C411 1.331 . S
C410 H428 0.932 . S
C411 C410 1.331 . S
C411 C412 1.336 . S
C412 C408 1.394 . S
C412 C411 1.336 . S
C412 H427 0.929 . S
C413 C403 1.386 . S
C413 C406 1.357 . S
C413 H426 0.928 . S
H414 C390 0.931 . S
H415 C392 0.930 . S
H416 C394 0.929 . S
H417 C395 0.931 . S
H418 C397 0.930 . S
H419 C401 0.931 . S
H420 C399 0.931 . S
H421 C403 0.931 . S
H422 C404 0.929 . S
H423 C405 0.930 . S
H424 C408 0.930 . S
H425 C409 0.931 . S
H426 C413 0.928 . S
H427 C412 0.929 . S
H428 C410 0.932 . S
C429 C430 1.386 . S
C429 C431 1.397 . S
C429 H453 0.931 . S
C430 C429 1.386 . S
C430 C434 1.397 . S
C431 C429 1.397 . S
C431 C432 1.384 . S
C431 H454 0.930 . S
C432 C431 1.384 . S
C432 C433 1.377 . S
C432 C435 1.481 . S
C433 C432 1.377 . S
C433 C434 1.389 . S
C433 H455 0.929 . S
C434 C430 1.397 . S
C434 C433 1.389 . S
C434 H456 0.931 . S
C435 C432 1.481 . S
C435 C436 1.387 . S
C435 C440 1.390 . S
C436 C435 1.387 . S
C436 C437 1.401 . S
C436 H457 0.930 . S
C437 C436 1.401 . S
C437 C438 1.376 . S
C437 C446 1.511 . S
C438 C437 1.376 . S
C438 C439 1.392 . S
C438 H459 0.931 . S
C439 C438 1.392 . S
C439 C440 1.361 . S
C439 C441 1.500 . S
C440 C435 1.390 . S
C440 C439 1.361 . S
C440 H458 0.931 . S
C441 C439 1.500 . S
C441 C442 1.371 . S
C441 C443 1.365 . S
C442 C441 1.371 . S
C442 C452 1.386 . S
C442 H460 0.931 . S
C443 C441 1.365 . S
C443 C444 1.409 . S
C443 H461 0.929 . S
C444 C443 1.409 . S
C444 C445 1.380 . S
C444 H462 0.930 . S
C445 C444 1.380 . S
C445 C452 1.357 . S
C446 C437 1.511 . S
C446 C447 1.341 . S
C446 C448 1.371 . S
C447 C446 1.341 . S
C447 C451 1.394 . S
C447 H463 0.930 . S
C448 C446 1.371 . S
C448 C449 1.392 . S
C448 H464 0.931 . S
C449 C448 1.392 . S
C449 C450 1.331 . S
C449 H467 0.932 . S
C450 C449 1.331 . S
C450 C451 1.336 . S
C451 C447 1.394 . S
C451 C450 1.336 . S
C451 H466 0.929 . S
C452 C442 1.386 . S
C452 C445 1.357 . S
C452 H465 0.928 . S
H453 C429 0.931 . S
H454 C431 0.930 . S
H455 C433 0.929 . S
H456 C434 0.931 . S
H457 C436 0.930 . S
H458 C440 0.931 . S
H459 C438 0.931 . S
H460 C442 0.931 . S
H461 C443 0.929 . S
H462 C444 0.930 . S
H463 C447 0.930 . S
H464 C448 0.931 . S
H465 C452 0.928 . S
H466 C451 0.929 . S
H467 C449 0.932 . S
C468 C469 1.386 . S
C468 C470 1.397 . S
C468 H492 0.931 . S
C469 C468 1.386 . S
C469 C473 1.397 . S
C470 C468 1.397 . S
C470 C471 1.384 . S
C470 H493 0.930 . S
C471 C470 1.384 . S
C471 C472 1.377 . S
C471 C474 1.481 . S
C472 C471 1.377 . S
C472 C473 1.389 . S
C472 H494 0.929 . S
C473 C469 1.397 . S
C473 C472 1.389 . S
C473 H495 0.931 . S
C474 C471 1.481 . S
C474 C475 1.387 . S
C474 C479 1.390 . S
C475 C474 1.387 . S
C475 C476 1.401 . S
C475 H496 0.930 . S
C476 C475 1.401 . S
C476 C477 1.376 . S
C476 C485 1.511 . S
C477 C476 1.376 . S
C477 C478 1.392 . S
C477 H498 0.931 . S
C478 C477 1.392 . S
C478 C479 1.361 . S
C478 C480 1.500 . S
C479 C474 1.390 . S
C479 C478 1.361 . S
C479 H497 0.931 . S
C480 C478 1.500 . S
C480 C481 1.371 . S
C480 C482 1.365 . S
C481 C480 1.371 . S
C481 C491 1.386 . S
C481 H499 0.931 . S
C482 C480 1.365 . S
C482 C483 1.409 . S
C482 H500 0.929 . S
C483 C482 1.409 . S
C483 C484 1.380 . S
C483 H501 0.930 . S
C484 C483 1.380 . S
C484 C491 1.357 . S
C485 C476 1.511 . S
C485 C486 1.341 . S
C485 C487 1.371 . S
C486 C485 1.341 . S
C486 C490 1.394 . S
C486 H502 0.930 . S
C487 C485 1.371 . S
C487 C488 1.392 . S
C487 H503 0.931 . S
C488 C487 1.392 . S
C488 C489 1.331 . S
C488 H506 0.932 . S
C489 C488 1.331 . S
C489 C490 1.336 . S
C490 C486 1.394 . S
C490 C489 1.336 . S
C490 H505 0.929 . S
C491 C481 1.386 . S
C491 C484 1.357 . S
C491 H504 0.928 . S
H492 C468 0.931 . S
H493 C470 0.930 . S
H494 C472 0.929 . S
H495 C473 0.931 . S
H496 C475 0.930 . S
H497 C479 0.931 . S
H498 C477 0.931 . S
H499 C481 0.931 . S
H500 C482 0.929 . S
H501 C483 0.930 . S
H502 C486 0.930 . S
H503 C487 0.931 . S
H504 C491 0.928 . S
H505 C490 0.929 . S
H506 C488 0.932 . S
C507 C508 1.386 . S
C507 C509 1.397 . S
C507 H531 0.931 . S
C508 C507 1.386 . S
C508 C512 1.397 . S
C509 C507 1.397 . S
C509 C510 1.384 . S
C509 H532 0.930 . S
C510 C509 1.384 . S
C510 C511 1.377 . S
C510 C513 1.481 . S
C511 C510 1.377 . S
C511 C512 1.389 . S
C511 H533 0.929 . S
C512 C508 1.397 . S
C512 C511 1.389 . S
C512 H534 0.931 . S
C513 C510 1.481 . S
C513 C514 1.387 . S
C513 C518 1.390 . S
C514 C513 1.387 . S
C514 C515 1.401 . S
C514 H535 0.930 . S
C515 C514 1.401 . S
C515 C516 1.376 . S
C515 C524 1.511 . S
C516 C515 1.376 . S
C516 C517 1.392 . S
C516 H537 0.931 . S
C517 C516 1.392 . S
C517 C518 1.361 . S
C517 C519 1.500 . S
C518 C513 1.390 . S
C518 C517 1.361 . S
C518 H536 0.931 . S
C519 C517 1.500 . S
C519 C520 1.371 . S
C519 C521 1.365 . S
C520 C519 1.371 . S
C520 C530 1.386 . S
C520 H538 0.931 . S
C521 C519 1.365 . S
C521 C522 1.409 . S
C521 H539 0.929 . S
C522 C521 1.409 . S
C522 C523 1.380 . S
C522 H540 0.930 . S
C523 C522 1.380 . S
C523 C530 1.357 . S
C524 C515 1.511 . S
C524 C525 1.341 . S
C524 C526 1.371 . S
C525 C524 1.341 . S
C525 C529 1.394 . S
C525 H541 0.930 . S
C526 C524 1.371 . S
C526 C527 1.392 . S
C526 H542 0.931 . S
C527 C526 1.392 . S
C527 C528 1.331 . S
C527 H545 0.932 . S
C528 C527 1.331 . S
C528 C529 1.336 . S
C529 C525 1.394 . S
C529 C528 1.336 . S
C529 H544 0.929 . S
C530 C520 1.386 . S
C530 C523 1.357 . S
C530 H543 0.928 . S
H531 C507 0.931 . S
H532 C509 0.930 . S
H533 C511 0.929 . S
H534 C512 0.931 . S
H535 C514 0.930 . S
H536 C518 0.931 . S
H537 C516 0.931 . S
H538 C520 0.931 . S
H539 C521 0.929 . S
H540 C522 0.930 . S
H541 C525 0.930 . S
H542 C526 0.931 . S
H543 C530 0.928 . S
H544 C529 0.929 . S
H545 C527 0.932 . S
C546 C547 1.386 . S
C546 C548 1.397 . S
C546 H570 0.931 . S
C547 C546 1.386 . S
C547 C551 1.397 . S
C548 C546 1.397 . S
C548 C549 1.384 . S
C548 H571 0.930 . S
C549 C548 1.384 . S
C549 C550 1.377 . S
C549 C552 1.481 . S
C550 C549 1.377 . S
C550 C551 1.389 . S
C550 H572 0.929 . S
C551 C547 1.397 . S
C551 C550 1.389 . S
C551 H573 0.931 . S
C552 C549 1.481 . S
C552 C553 1.387 . S
C552 C557 1.390 . S
C553 C552 1.387 . S
C553 C554 1.401 . S
C553 H574 0.930 . S
C554 C553 1.401 . S
C554 C555 1.376 . S
C554 C563 1.511 . S
C555 C554 1.376 . S
C555 C556 1.392 . S
C555 H576 0.931 . S
C556 C555 1.392 . S
C556 C557 1.361 . S
C556 C558 1.500 . S
C557 C552 1.390 . S
C557 C556 1.361 . S
C557 H575 0.931 . S
C558 C556 1.500 . S
C558 C559 1.371 . S
C558 C560 1.365 . S
C559 C558 1.371 . S
C559 C569 1.386 . S
C559 H577 0.931 . S
C560 C558 1.365 . S
C560 C561 1.409 . S
C560 H578 0.929 . S
C561 C560 1.409 . S
C561 C562 1.380 . S
C561 H579 0.930 . S
C562 C561 1.380 . S
C562 C569 1.357 . S
C563 C554 1.511 . S
C563 C564 1.341 . S
C563 C565 1.371 . S
C564 C563 1.341 . S
C564 C568 1.394 . S
C564 H580 0.930 . S
C565 C563 1.371 . S
C565 C566 1.392 . S
C565 H581 0.931 . S
C566 C565 1.392 . S
C566 C567 1.331 . S
C566 H584 0.932 . S
C567 C566 1.331 . S
C567 C568 1.336 . S
C568 C564 1.394 . S
C568 C567 1.336 . S
C568 H583 0.929 . S
C569 C559 1.386 . S
C569 C562 1.357 . S
C569 H582 0.928 . S
H570 C546 0.931 . S
H571 C548 0.930 . S
H572 C550 0.929 . S
H573 C551 0.931 . S
H574 C553 0.930 . S
H575 C557 0.931 . S
H576 C555 0.931 . S
H577 C559 0.931 . S
H578 C560 0.929 . S
H579 C561 0.930 . S
H580 C564 0.930 . S
H581 C565 0.931 . S
H582 C569 0.928 . S
H583 C568 0.929 . S
H584 C566 0.932 . S
C585 C586 1.386 . S
C585 C587 1.397 . S
C585 H609 0.931 . S
C586 C585 1.386 . S
C586 C590 1.397 . S
C587 C585 1.397 . S
C587 C588 1.384 . S
C587 H610 0.930 . S
C588 C587 1.384 . S
C588 C589 1.377 . S
C588 C591 1.481 . S
C589 C588 1.377 . S
C589 C590 1.389 . S
C589 H611 0.929 . S
C590 C586 1.397 . S
C590 C589 1.389 . S
C590 H612 0.931 . S
C591 C588 1.481 . S
C591 C592 1.387 . S
C591 C596 1.390 . S
C592 C591 1.387 . S
C592 C593 1.401 . S
C592 H613 0.930 . S
C593 C592 1.401 . S
C593 C594 1.376 . S
C593 C602 1.511 . S
C594 C593 1.376 . S
C594 C595 1.392 . S
C594 H615 0.931 . S
C595 C594 1.392 . S
C595 C596 1.361 . S
C595 C597 1.500 . S
C596 C591 1.390 . S
C596 C595 1.361 . S
C596 H614 0.931 . S
C597 C595 1.500 . S
C597 C598 1.371 . S
C597 C599 1.365 . S
C598 C597 1.371 . S
C598 C608 1.386 . S
C598 H616 0.931 . S
C599 C597 1.365 . S
C599 C600 1.409 . S
C599 H617 0.929 . S
C600 C599 1.409 . S
C600 C601 1.380 . S
C600 H618 0.930 . S
C601 C600 1.380 . S
C601 C608 1.357 . S
C602 C593 1.511 . S
C602 C603 1.341 . S
C602 C604 1.371 . S
C603 C602 1.341 . S
C603 C607 1.394 . S
C603 H619 0.930 . S
C604 C602 1.371 . S
C604 C605 1.392 . S
C604 H620 0.931 . S
C605 C604 1.392 . S
C605 C606 1.331 . S
C605 H623 0.932 . S
C606 C605 1.331 . S
C606 C607 1.336 . S
C607 C603 1.394 . S
C607 C606 1.336 . S
C607 H622 0.929 . S
C608 C598 1.386 . S
C608 C601 1.357 . S
C608 H621 0.928 . S
H609 C585 0.931 . S
H610 C587 0.930 . S
H611 C589 0.929 . S
H612 C590 0.931 . S
H613 C592 0.930 . S
H614 C596 0.931 . S
H615 C594 0.931 . S
H616 C598 0.931 . S
H617 C599 0.929 . S
H618 C600 0.930 . S
H619 C603 0.930 . S
H620 C604 0.931 . S
H621 C608 0.928 . S
H622 C607 0.929 . S
H623 C605 0.932 . S
C624 C625 1.386 . S
C624 C626 1.397 . S
C624 H648 0.931 1_455 S
C625 C624 1.386 . S
C625 C629 1.397 . S
C626 C624 1.397 . S
C626 C627 1.384 . S
C626 H649 0.930 . S
C627 C626 1.384 . S
C627 C628 1.377 . S
C627 C630 1.481 . S
C628 C627 1.377 . S
C628 C629 1.389 . S
C628 H650 0.929 . S
C629 C625 1.397 . S
C629 C628 1.389 . S
C629 H651 0.931 . S
C630 C627 1.481 . S
C630 C631 1.387 . S
C630 C635 1.390 . S
C631 C630 1.387 . S
C631 C632 1.401 . S
C631 H652 0.930 . S
C632 C631 1.401 . S
C632 C633 1.376 . S
C632 C641 1.511 . S
C633 C632 1.376 . S
C633 C634 1.392 . S
C633 H654 0.931 . S
C634 C633 1.392 . S
C634 C635 1.361 . S
C634 C636 1.500 . S
C635 C630 1.390 . S
C635 C634 1.361 . S
C635 H653 0.931 . S
C636 C634 1.500 . S
C636 C637 1.371 . S
C636 C638 1.365 . S
C637 C636 1.371 . S
C637 C647 1.386 . S
C637 H655 0.931 . S
C638 C636 1.365 . S
C638 C639 1.409 . S
C638 H656 0.929 . S
C639 C638 1.409 . S
C639 C640 1.380 . S
C639 H657 0.930 . S
C640 C639 1.380 . S
C640 C647 1.357 . S
C641 C632 1.511 . S
C641 C642 1.341 . S
C641 C643 1.371 . S
C642 C641 1.341 . S
C642 C646 1.394 . S
C642 H658 0.930 . S
C643 C641 1.371 . S
C643 C644 1.392 . S
C643 H659 0.931 . S
C644 C643 1.392 . S
C644 C645 1.331 . S
C644 H662 0.932 . S
C645 C644 1.331 . S
C645 C646 1.336 . S
C646 C642 1.394 . S
C646 C645 1.336 . S
C646 H661 0.929 . S
C647 C637 1.386 . S
C647 C640 1.357 . S
C647 H660 0.928 . S
H648 C624 0.931 1_655 S
H649 C626 0.930 . S
H650 C628 0.929 . S
H651 C629 0.931 . S
H652 C631 0.930 . S
H653 C635 0.931 . S
H654 C633 0.931 . S
H655 C637 0.931 . S
H656 C638 0.929 . S
H657 C639 0.930 . S
H658 C642 0.930 . S
H659 C643 0.931 . S
H660 C647 0.928 . S
H661 C646 0.929 . S
H662 C644 0.932 . S
C663 C664 1.386 . S
C663 C665 1.397 . S
C663 H687 0.931 . S
C664 C663 1.386 . S
C664 C668 1.397 . S
C665 C663 1.397 . S
C665 C666 1.384 . S
C665 H688 0.930 . S
C666 C665 1.384 . S
C666 C667 1.377 . S
C666 C669 1.481 . S
C667 C666 1.377 . S
C667 C668 1.389 . S
C667 H689 0.929 . S
C668 C664 1.397 . S
C668 C667 1.389 . S
C668 H690 0.931 . S
C669 C666 1.481 . S
C669 C670 1.387 . S
C669 C674 1.390 . S
C670 C669 1.387 . S
C670 C671 1.401 . S
C670 H691 0.930 . S
C671 C670 1.401 . S
C671 C672 1.376 . S
C671 C680 1.511 . S
C672 C671 1.376 . S
C672 C673 1.392 . S
C672 H693 0.931 . S
C673 C672 1.392 . S
C673 C674 1.361 . S
C673 C675 1.500 . S
C674 C669 1.390 . S
C674 C673 1.361 . S
C674 H692 0.931 . S
C675 C673 1.500 . S
C675 C676 1.371 . S
C675 C677 1.365 . S
C676 C675 1.371 . S
C676 C686 1.386 . S
C676 H694 0.931 . S
C677 C675 1.365 . S
C677 C678 1.409 . S
C677 H695 0.929 . S
C678 C677 1.409 . S
C678 C679 1.380 . S
C678 H696 0.930 . S
C679 C678 1.380 . S
C679 C686 1.357 . S
C680 C671 1.511 . S
C680 C681 1.341 . S
C680 C682 1.371 . S
C681 C680 1.341 . S
C681 C685 1.394 . S
C681 H697 0.930 . S
C682 C680 1.371 . S
C682 C683 1.392 . S
C682 H698 0.931 . S
C683 C682 1.392 . S
C683 C684 1.331 . S
C683 H701 0.932 . S
C684 C683 1.331 . S
C684 C685 1.336 . S
C685 C681 1.394 . S
C685 C684 1.336 . S
C685 H700 0.929 . S
C686 C676 1.386 . S
C686 C679 1.357 . S
C686 H699 0.928 . S
H687 C663 0.931 . S
H688 C665 0.930 . S
H689 C667 0.929 . S
H690 C668 0.931 . S
H691 C670 0.930 . S
H692 C674 0.931 . S
H693 C672 0.931 . S
H694 C676 0.931 . S
H695 C677 0.929 . S
H696 C678 0.930 . S
H697 C681 0.930 . S
H698 C682 0.931 . S
H699 C686 0.928 . S
H700 C685 0.929 . S
H701 C683 0.932 . S
Tb702 C712 2.825 . S
Tb702 O713 2.347 1_565 S
Tb702 O716 2.366 1_565 S
Tb702 O721 2.418 . S
Tb702 O722 2.386 1_556 S
Tb702 O725 2.479 . S
Tb702 O726 2.471 1_565 S
Eu703 O714 2.418 . S
Eu703 O715 2.384 . S
Eu703 O718 2.479 . S
Eu703 O719 2.441 1_545 S
Eu703 O720 2.347 1_545 S
Eu703 O723 2.366 1_545 S
Eu703 C733 2.825 . S
C704 O720 1.259 . S
C704 O721 1.265 1_554 S
C705 O722 1.252 . S
C705 O723 1.265 . S
C706 C708 1.380 . S
C706 C709 1.374 1_565 S
C706 C712 1.507 . S
C707 C708 1.384 . S
C707 C711 1.387 1_565 S
C707 H734 0.930 . S
C708 C706 1.380 . S
C708 C707 1.384 . S
C708 H735 0.931 . S
C709 C706 1.374 1_545 S
C709 C710 1.390 . S
C709 H736 0.930 . S
C710 C709 1.390 . S
C710 C711 1.391 . S
C710 H737 0.930 . S
C711 C707 1.387 1_545 S
C711 C710 1.391 . S
C712 Tb702 2.825 . S
C712 C706 1.507 . S
C712 O725 1.238 . S
C712 O726 1.247 1_565 S
O713 Tb702 2.347 1_545 S
O713 C717 1.260 . S
O714 Eu703 2.418 . S
O714 C717 1.262 1_554 S
O715 Eu703 2.384 . S
O715 C724 1.255 1_554 S
O716 Tb702 2.366 1_545 S
O716 C724 1.265 . S
C717 O713 1.260 . S
C717 O714 1.262 1_556 S
O718 Eu703 2.479 . S
O718 C733 1.238 . S
O719 Eu703 2.441 1_565 S
O719 C733 1.202 1_565 S
O720 Eu703 2.347 1_565 S
O720 C704 1.259 . S
O721 Tb702 2.418 . S
O721 C704 1.265 1_556 S
O722 Tb702 2.386 1_554 S
O722 C705 1.252 . S
O723 Eu703 2.366 1_565 S
O723 C705 1.265 . S
C724 O715 1.255 1_556 S
C724 O716 1.265 . S
O725 Tb702 2.479 . S
O725 C712 1.238 . S
O726 Tb702 2.471 1_545 S
O726 C712 1.247 1_545 S
C727 C730 1.380 . S
C727 C731 1.374 1_545 S
C727 C733 1.507 . S
C728 C729 1.387 1_565 S
C728 C732 1.391 . S
C729 C728 1.387 1_545 S
C729 C730 1.384 . S
C729 H738 0.930 . S
C730 C727 1.380 . S
C730 C729 1.384 . S
C730 H739 0.931 . S
C731 C727 1.374 1_565 S
C731 C732 1.390 . S
C731 H740 0.930 . S
C732 C728 1.391 . S
C732 C731 1.390 . S
C732 H741 0.930 . S
C733 Eu703 2.825 . S
C733 O718 1.238 . S
C733 O719 1.202 1_545 S
C733 C727 1.507 . S
H734 C707 0.930 . S
H735 C708 0.931 . S
H736 C709 0.930 . S
H737 C710 0.930 . S
H738 C729 0.930 . S
H739 C730 0.931 . S
H740 C731 0.930 . S
H741 C732 0.930 . S
Tb742 C752 2.825 . S
Tb742 O753 2.347 1_455 S
Tb742 O756 2.366 1_455 S
Tb742 O761 2.418 . S
Tb742 O762 2.384 1_556 S
Tb742 O765 2.479 . S
Tb742 O766 2.471 1_455 S
Eu743 O754 2.418 . S
Eu743 O755 2.434 . S
Eu743 O758 2.479 . S
Eu743 O759 2.471 1_655 S
Eu743 O760 2.347 1_655 S
Eu743 O763 2.366 1_655 S
Eu743 C773 2.825 . S
C744 O760 1.259 . S
C744 O761 1.265 1_554 S
C745 O762 1.255 . S
C745 O763 1.265 . S
C746 C748 1.380 . S
C746 C749 1.374 1_455 S
C746 C752 1.507 . S
C747 C748 1.384 . S
C747 C751 1.387 1_455 S
C747 H774 0.930 . S
C748 C746 1.380 . S
C748 C747 1.384 . S
C748 H775 0.931 . S
C749 C746 1.374 1_655 S
C749 C750 1.390 . S
C749 H776 0.930 . S
C750 C749 1.390 . S
C750 C751 1.391 . S
C750 H777 0.930 . S
C751 C747 1.387 1_655 S
C751 C750 1.391 . S
C752 Tb742 2.825 . S
C752 C746 1.507 . S
C752 O765 1.238 . S
C752 O766 1.247 1_455 S
O753 Tb742 2.347 1_655 S
O753 C757 1.259 . S
O754 Eu743 2.418 . S
O754 C757 1.265 1_554 S
O755 Eu743 2.434 . S
O755 C764 1.195 1_554 S
O756 Tb742 2.366 1_655 S
O756 C764 1.265 . S
C757 O753 1.259 . S
C757 O754 1.265 1_556 S
O758 Eu743 2.479 . S
O758 C773 1.238 . S
O759 Eu743 2.471 1_455 S
O759 C773 1.247 1_455 S
O760 Eu743 2.347 1_455 S
O760 C744 1.259 . S
O761 Tb742 2.418 . S
O761 C744 1.265 1_556 S
O762 Tb742 2.384 1_554 S
O762 C745 1.255 . S
O763 Eu743 2.366 1_455 S
O763 C745 1.265 . S
C764 O755 1.195 1_556 S
C764 O756 1.265 . S
O765 Tb742 2.479 . S
O765 C752 1.238 . S
O766 Tb742 2.471 1_655 S
O766 C752 1.247 1_655 S
C767 C770 1.393 . S
C767 C771 1.350 1_655 S
C767 C773 1.518 . S
C768 C769 1.387 1_455 S
C768 C772 1.391 . S
C769 C768 1.387 1_655 S
C769 C770 1.384 . S
C769 H778 0.930 . S
C770 C767 1.393 . S
C770 C769 1.384 . S
C770 H779 0.931 . S
C771 C767 1.350 1_455 S
C771 C772 1.390 . S
C771 H780 0.930 . S
C772 C768 1.391 . S
C772 C771 1.390 . S
C772 H781 0.930 . S
C773 Eu743 2.825 . S
C773 O758 1.238 . S
C773 O759 1.247 1_655 S
C773 C767 1.518 . S
H774 C747 0.930 . S
H775 C748 0.931 . S
H776 C749 0.930 . S
H777 C750 0.930 . S
H778 C769 0.930 . S
H779 C770 0.931 . S
H780 C771 0.930 . S
H781 C772 0.930 . S
Tb782 C792 2.825 . S
Tb782 O793 2.347 . S
Tb782 O796 2.366 . S
Tb782 O801 2.418 . S
Tb782 O802 2.384 . S
Tb782 O805 2.479 . S
Tb782 O806 2.471 . S
Eu783 O794 2.418 . S
Eu783 O795 2.384 1_556 S
Eu783 O798 2.479 . S
Eu783 O799 2.471 . S
Eu783 O800 2.347 . S
Eu783 O803 2.366 . S
Eu783 C813 2.825 . S
C784 O800 1.259 . S
C784 O801 1.265 1_556 S
C785 O802 1.255 1_556 S
C785 O803 1.265 . S
C786 C788 1.380 . S
C786 C789 1.374 . S
C786 C792 1.507 . S
C787 C788 1.384 . S
C787 C791 1.387 . S
C787 H814 0.930 . S
C788 C786 1.380 . S
C788 C787 1.384 . S
C788 H815 0.931 . S
C789 C786 1.374 . S
C789 C790 1.390 . S
C789 H816 0.930 . S
C790 C789 1.390 . S
C790 C791 1.391 . S
C790 H817 0.930 . S
C791 C787 1.387 . S
C791 C790 1.391 . S
C792 Tb782 2.825 . S
C792 C786 1.507 . S
C792 O805 1.238 . S
C792 O806 1.247 . S
O793 Tb782 2.347 . S
O793 C797 1.259 . S
O794 Eu783 2.418 . S
O794 C797 1.265 1_556 S
O795 Eu783 2.384 1_554 S
O795 C804 1.255 . S
O796 Tb782 2.366 . S
O796 C804 1.265 . S
C797 O793 1.259 . S
C797 O794 1.265 1_554 S
O798 Eu783 2.479 . S
O798 C813 1.238 . S
O799 Eu783 2.471 . S
O799 C813 1.247 . S
O800 Eu783 2.347 . S
O800 C784 1.259 . S
O801 Tb782 2.418 . S
O801 C784 1.265 1_554 S
O802 Tb782 2.384 . S
O802 C785 1.255 1_554 S
O803 Eu783 2.366 . S
O803 C785 1.265 . S
C804 O795 1.255 . S
C804 O796 1.265 . S
O805 Tb782 2.479 . S
O805 C792 1.238 . S
O806 Tb782 2.471 . S
O806 C792 1.247 . S
C807 C810 1.380 . S
C807 C811 1.374 . S
C807 C813 1.507 . S
C808 C809 1.387 . S
C808 C812 1.391 . S
C809 C808 1.387 . S
C809 C810 1.384 . S
C809 H818 0.930 . S
C810 C807 1.380 . S
C810 C809 1.384 . S
C810 H819 0.931 . S
C811 C807 1.374 . S
C811 C812 1.390 . S
C811 H820 0.930 . S
C812 C808 1.391 . S
C812 C811 1.390 . S
C812 H821 0.930 . S
C813 Eu783 2.825 . S
C813 O798 1.238 . S
C813 O799 1.247 . S
C813 C807 1.507 . S
H814 C787 0.930 . S
H815 C788 0.931 . S
H816 C789 0.930 . S
H817 C790 0.930 . S
H818 C809 0.930 . S
H819 C810 0.931 . S
H820 C811 0.930 . S
H821 C812 0.930 . S
Tb822 C832 2.825 . S
Tb822 O833 2.347 . S
Tb822 O836 2.366 . S
Tb822 O841 2.418 . S
Tb822 O842 2.384 . S
Tb822 O845 2.479 . S
Tb822 O846 2.471 . S
Eu823 O834 2.418 . S
Eu823 O835 2.384 . S
Eu823 O838 2.479 . S
Eu823 O839 2.471 . S
Eu823 O840 2.347 . S
Eu823 O843 2.366 . S
Eu823 C853 2.825 . S
C824 O840 1.259 . S
C824 O841 1.265 . S
C825 O842 1.255 . S
C825 O843 1.265 . S
C826 C828 1.380 . S
C826 C829 1.374 . S
C826 C832 1.507 . S
C827 C828 1.384 . S
C827 C831 1.387 . S
C827 H854 0.930 . S
C828 C826 1.380 . S
C828 C827 1.384 . S
C828 H855 0.931 . S
C829 C826 1.374 . S
C829 C830 1.390 . S
C829 H856 0.930 . S
C830 C829 1.390 . S
C830 C831 1.391 . S
C830 H857 0.930 . S
C831 C827 1.387 . S
C831 C830 1.391 . S
C832 Tb822 2.825 . S
C832 C826 1.507 . S
C832 O845 1.238 . S
C832 O846 1.247 . S
O833 Tb822 2.347 . S
O833 C837 1.259 . S
O834 Eu823 2.418 . S
O834 C837 1.265 . S
O835 Eu823 2.384 . S
O835 C844 1.255 . S
O836 Tb822 2.366 . S
O836 C844 1.265 . S
C837 O833 1.259 . S
C837 O834 1.265 . S
O838 Eu823 2.479 . S
O838 C853 1.238 . S
O839 Eu823 2.471 . S
O839 C853 1.247 . S
O840 Eu823 2.347 . S
O840 C824 1.259 . S
O841 Tb822 2.418 . S
O841 C824 1.265 . S
O842 Tb822 2.384 . S
O842 C825 1.255 . S
O843 Eu823 2.366 . S
O843 C825 1.265 . S
C844 O835 1.255 . S
C844 O836 1.265 . S
O845 Tb822 2.479 . S
O845 C832 1.238 . S
O846 Tb822 2.471 . S
O846 C832 1.247 . S
C847 C850 1.380 . S
C847 C851 1.374 . S
C847 C853 1.507 . S
C848 C849 1.387 . S
C848 C852 1.391 . S
C849 C848 1.387 . S
C849 C850 1.384 . S
C849 H858 0.930 . S
C850 C847 1.380 . S
C850 C849 1.384 . S
C850 H859 0.931 . S
C851 C847 1.374 . S
C851 C852 1.390 . S
C851 H860 0.930 . S
C852 C848 1.391 . S
C852 C851 1.390 . S
C852 H861 0.930 . S
C853 Eu823 2.825 . S
C853 O838 1.238 . S
C853 O839 1.247 . S
C853 C847 1.507 . S
H854 C827 0.930 . S
H855 C828 0.931 . S
H856 C829 0.930 . S
H857 C830 0.930 . S
H858 C849 0.930 . S
H859 C850 0.931 . S
H860 C851 0.930 . S
H861 C852 0.930 . S
Tb862 C872 2.825 . S
Tb862 O873 2.347 . S
Tb862 O876 2.366 . S
Tb862 O881 2.418 . S
Tb862 O882 2.384 . S
Tb862 O885 2.479 . S
Tb862 O886 2.471 . S
Eu863 O874 2.418 . S
Eu863 O875 2.384 . S
Eu863 O878 2.479 . S
Eu863 O879 2.471 . S
Eu863 O880 2.347 . S
Eu863 O883 2.366 . S
Eu863 C893 2.825 . S
C864 O880 1.259 . S
C864 O881 1.265 . S
C865 O882 1.255 . S
C865 O883 1.265 . S
C866 C868 1.380 . S
C866 C869 1.374 . S
C866 C872 1.507 . S
C867 C868 1.384 . S
C867 C871 1.387 . S
C867 H894 0.930 . S
C868 C866 1.380 . S
C868 C867 1.384 . S
C868 H895 0.931 . S
C869 C866 1.374 . S
C869 C870 1.390 . S
C869 H896 0.930 . S
C870 C869 1.390 . S
C870 C871 1.391 . S
C870 H897 0.930 . S
C871 C867 1.387 . S
C871 C870 1.391 . S
C872 Tb862 2.825 . S
C872 C866 1.507 . S
C872 O885 1.238 . S
C872 O886 1.247 . S
O873 Tb862 2.347 . S
O873 C877 1.259 . S
O874 Eu863 2.418 . S
O874 C877 1.265 . S
O875 Eu863 2.384 . S
O875 C884 1.255 . S
O876 Tb862 2.366 . S
O876 C884 1.265 . S
C877 O873 1.259 . S
C877 O874 1.265 . S
O878 Eu863 2.479 . S
O878 C893 1.238 . S
O879 Eu863 2.471 . S
O879 C893 1.247 . S
O880 Eu863 2.347 . S
O880 C864 1.259 . S
O881 Tb862 2.418 . S
O881 C864 1.265 . S
O882 Tb862 2.384 . S
O882 C865 1.255 . S
O883 Eu863 2.366 . S
O883 C865 1.265 . S
C884 O875 1.255 . S
C884 O876 1.265 . S
O885 Tb862 2.479 . S
O885 C872 1.238 . S
O886 Tb862 2.471 . S
O886 C872 1.247 . S
C887 C890 1.380 . S
C887 C891 1.374 . S
C887 C893 1.507 . S
C888 C889 1.387 . S
C888 C892 1.391 . S
C889 C888 1.387 . S
C889 C890 1.384 . S
C889 H898 0.930 . S
C890 C887 1.380 . S
C890 C889 1.384 . S
C890 H899 0.931 . S
C891 C887 1.374 . S
C891 C892 1.390 . S
C891 H900 0.930 . S
C892 C888 1.391 . S
C892 C891 1.390 . S
C892 H901 0.930 . S
C893 Eu863 2.825 . S
C893 O878 1.238 . S
C893 O879 1.247 . S
C893 C887 1.507 . S
H894 C867 0.930 . S
H895 C868 0.931 . S
H896 C869 0.930 . S
H897 C870 0.930 . S
H898 C889 0.930 . S
H899 C890 0.931 . S
H900 C891 0.930 . S
H901 C892 0.930 . S
Tb902 C912 2.825 . S
Tb902 O913 2.347 . S
Tb902 O916 2.366 . S
Tb902 O921 2.418 . S
Tb902 O922 2.384 . S
Tb902 O925 2.479 . S
Tb902 O926 2.471 . S
Eu903 O914 2.418 . S
Eu903 O915 2.384 . S
Eu903 O918 2.479 . S
Eu903 O919 2.471 . S
Eu903 O920 2.347 . S
Eu903 O923 2.366 . S
Eu903 C933 2.825 . S
C904 O920 1.259 . S
C904 O921 1.265 . S
C905 O922 1.255 . S
C905 O923 1.265 . S
C906 C908 1.380 . S
C906 C909 1.374 . S
C906 C912 1.507 . S
C907 C908 1.384 . S
C907 C911 1.387 . S
C907 H934 0.930 . S
C908 C906 1.380 . S
C908 C907 1.384 . S
C908 H935 0.931 . S
C909 C906 1.374 . S
C909 C910 1.390 . S
C909 H936 0.930 . S
C910 C909 1.390 . S
C910 C911 1.391 . S
C910 H937 0.930 . S
C911 C907 1.387 . S
C911 C910 1.391 . S
C912 Tb902 2.825 . S
C912 C906 1.507 . S
C912 O925 1.238 . S
C912 O926 1.247 . S
O913 Tb902 2.347 . S
O913 C917 1.259 . S
O914 Eu903 2.418 . S
O914 C917 1.265 . S
O915 Eu903 2.384 . S
O915 C924 1.255 . S
O916 Tb902 2.366 . S
O916 C924 1.265 . S
C917 O913 1.259 . S
C917 O914 1.265 . S
O918 Eu903 2.479 . S
O918 C933 1.238 . S
O919 Eu903 2.471 . S
O919 C933 1.247 . S
O920 Eu903 2.347 . S
O920 C904 1.259 . S
O921 Tb902 2.418 . S
O921 C904 1.265 . S
O922 Tb902 2.384 . S
O922 C905 1.255 . S
O923 Eu903 2.366 . S
O923 C905 1.265 . S
C924 O915 1.255 . S
C924 O916 1.265 . S
O925 Tb902 2.479 . S
O925 C912 1.238 . S
O926 Tb902 2.471 . S
O926 C912 1.247 . S
C927 C930 1.380 . S
C927 C931 1.374 . S
C927 C933 1.507 . S
C928 C929 1.387 . S
C928 C932 1.391 . S
C929 C928 1.387 . S
C929 C930 1.384 . S
C929 H938 0.930 . S
C930 C927 1.380 . S
C930 C929 1.384 . S
C930 H939 0.931 . S
C931 C927 1.374 . S
C931 C932 1.390 . S
C931 H940 0.930 . S
C932 C928 1.391 . S
C932 C931 1.390 . S
C932 H941 0.930 . S
C933 Eu903 2.825 . S
C933 O918 1.238 . S
C933 O919 1.247 . S
C933 C927 1.507 . S
H934 C907 0.930 . S
H935 C908 0.931 . S
H936 C909 0.930 . S
H937 C910 0.930 . S
H938 C929 0.930 . S
H939 C930 0.931 . S
H940 C931 0.930 . S
H941 C932 0.930 . S
Tb942 C952 2.825 . S
Tb942 O953 2.347 . S
Tb942 O956 2.366 . S
Tb942 O961 2.418 . S
Tb942 O962 2.384 . S
Tb942 O965 2.479 . S
Tb942 O966 2.471 . S
Eu943 O954 2.418 . S
Eu943 O955 2.384 . S
Eu943 O958 2.479 . S
Eu943 O959 2.471 . S
Eu943 O960 2.347 . S
Eu943 O963 2.366 . S
Eu943 C973 2.825 . S
C944 O960 1.259 . S
C944 O961 1.265 . S
C945 O962 1.255 . S
C945 O963 1.265 . S
C946 C948 1.380 . S
C946 C949 1.374 . S
C946 C952 1.507 . S
C947 C948 1.384 . S
C947 C951 1.387 . S
C947 H974 0.930 . S
C948 C946 1.380 . S
C948 C947 1.384 . S
C948 H975 0.931 . S
C949 C946 1.374 . S
C949 C950 1.390 . S
C949 H976 0.930 . S
C950 C949 1.390 . S
C950 C951 1.391 . S
C950 H977 0.930 . S
C951 C947 1.387 . S
C951 C950 1.391 . S
C952 Tb942 2.825 . S
C952 C946 1.507 . S
C952 O965 1.238 . S
C952 O966 1.247 . S
O953 Tb942 2.347 . S
O953 C957 1.259 . S
O954 Eu943 2.418 . S
O954 C957 1.265 . S
O955 Eu943 2.384 . S
O955 C964 1.255 . S
O956 Tb942 2.366 . S
O956 C964 1.265 . S
C957 O953 1.259 . S
C957 O954 1.265 . S
O958 Eu943 2.479 . S
O958 C973 1.238 . S
O959 Eu943 2.471 . S
O959 C973 1.247 . S
O960 Eu943 2.347 . S
O960 C944 1.259 . S
O961 Tb942 2.418 . S
O961 C944 1.265 . S
O962 Tb942 2.384 . S
O962 C945 1.255 . S
O963 Eu943 2.366 . S
O963 C945 1.265 . S
C964 O955 1.255 . S
C964 O956 1.265 . S
O965 Tb942 2.479 . S
O965 C952 1.238 . S
O966 Tb942 2.471 . S
O966 C952 1.247 . S
C967 C970 1.380 . S
C967 C971 1.374 . S
C967 C973 1.507 . S
C968 C969 1.387 . S
C968 C972 1.391 . S
C969 C968 1.387 . S
C969 C970 1.384 . S
C969 H978 0.930 . S
C970 C967 1.380 . S
C970 C969 1.384 . S
C970 H979 0.931 . S
C971 C967 1.374 . S
C971 C972 1.390 . S
C971 H980 0.930 . S
C972 C968 1.391 . S
C972 C971 1.390 . S
C972 H981 0.930 . S
C973 Eu943 2.825 . S
C973 O958 1.238 . S
C973 O959 1.247 . S
C973 C967 1.507 . S
H974 C947 0.930 . S
H975 C948 0.931 . S
H976 C949 0.930 . S
H977 C950 0.930 . S
H978 C969 0.930 . S
H979 C970 0.931 . S
H980 C971 0.930 . S
H981 C972 0.930 . S
Tb982 C992 2.825 . S
Tb982 O993 2.347 . S
Tb982 O996 2.366 . S
Tb982 O1001 2.418 . S
Tb982 O1002 2.384 . S
Tb982 O1005 2.479 . S
Tb982 O1006 2.471 . S
Eu983 O994 2.418 . S
Eu983 O995 2.384 . S
Eu983 O998 2.479 . S
Eu983 O999 2.471 . S
Eu983 O1000 2.347 . S
Eu983 O1003 2.366 . S
Eu983 C1013 2.825 . S
C984 O1000 1.259 . S
C984 O1001 1.265 . S
C985 O1002 1.255 . S
C985 O1003 1.265 . S
C986 C988 1.380 . S
C986 C989 1.374 . S
C986 C992 1.507 . S
C987 C988 1.384 . S
C987 C991 1.387 . S
C987 H1014 0.930 . S
C988 C986 1.380 . S
C988 C987 1.384 . S
C988 H1015 0.931 . S
C989 C986 1.374 . S
C989 C990 1.390 . S
C989 H1016 0.930 . S
C990 C989 1.390 . S
C990 C991 1.391 . S
C990 H1017 0.930 . S
C991 C987 1.387 . S
C991 C990 1.391 . S
C992 Tb982 2.825 . S
C992 C986 1.507 . S
C992 O1005 1.238 . S
C992 O1006 1.247 . S
O993 Tb982 2.347 . S
O993 C997 1.259 . S
O994 Eu983 2.418 . S
O994 C997 1.265 . S
O995 Eu983 2.384 . S
O995 C1004 1.255 . S
O996 Tb982 2.366 . S
O996 C1004 1.265 . S
C997 O993 1.259 . S
C997 O994 1.265 . S
O998 Eu983 2.479 . S
O998 C1013 1.238 . S
O999 Eu983 2.471 . S
O999 C1013 1.247 . S
O1000 Eu983 2.347 . S
O1000 C984 1.259 . S
O1001 Tb982 2.418 . S
O1001 C984 1.265 . S
O1002 Tb982 2.384 . S
O1002 C985 1.255 . S
O1003 Eu983 2.366 . S
O1003 C985 1.265 . S
C1004 O995 1.255 . S
C1004 O996 1.265 . S
O1005 Tb982 2.479 . S
O1005 C992 1.238 . S
O1006 Tb982 2.471 . S
O1006 C992 1.247 . S
C1007 C1010 1.380 . S
C1007 C1011 1.374 . S
C1007 C1013 1.507 . S
C1008 C1009 1.387 . S
C1008 C1012 1.391 . S
C1009 C1008 1.387 . S
C1009 C1010 1.384 . S
C1009 H1018 0.930 . S
C1010 C1007 1.380 . S
C1010 C1009 1.384 . S
C1010 H1019 0.931 . S
C1011 C1007 1.374 . S
C1011 C1012 1.390 . S
C1011 H1020 0.930 . S
C1012 C1008 1.391 . S
C1012 C1011 1.390 . S
C1012 H1021 0.930 . S
C1013 Eu983 2.825 . S
C1013 O998 1.238 . S
C1013 O999 1.247 . S
C1013 C1007 1.507 . S
H1014 C987 0.930 . S
H1015 C988 0.931 . S
H1016 C989 0.930 . S
H1017 C990 0.930 . S
H1018 C1009 0.930 . S
H1019 C1010 0.931 . S
H1020 C1011 0.930 . S
H1021 C1012 0.930 . S
Tb1022 C1032 2.825 . S
Tb1022 O1033 2.347 . S
Tb1022 O1036 2.366 . S
Tb1022 O1041 2.418 . S
Tb1022 O1042 2.384 . S
Tb1022 O1045 2.479 . S
Tb1022 O1046 2.471 . S
Eu1023 O1034 2.418 . S
Eu1023 O1035 2.384 . S
Eu1023 O1038 2.479 . S
Eu1023 O1039 2.471 . S
Eu1023 O1040 2.347 . S
Eu1023 O1043 2.366 . S
Eu1023 C1053 2.825 . S
C1024 O1040 1.259 . S
C1024 O1041 1.265 . S
C1025 O1042 1.255 . S
C1025 O1043 1.265 . S
C1026 C1028 1.380 . S
C1026 C1029 1.374 . S
C1026 C1032 1.507 . S
C1027 C1028 1.384 . S
C1027 C1031 1.387 . S
C1027 H1054 0.930 . S
C1028 C1026 1.380 . S
C1028 C1027 1.384 . S
C1028 H1055 0.931 . S
C1029 C1026 1.374 . S
C1029 C1030 1.390 . S
C1029 H1056 0.930 . S
C1030 C1029 1.390 . S
C1030 C1031 1.391 . S
C1030 H1057 0.930 . S
C1031 C1027 1.387 . S
C1031 C1030 1.391 . S
C1032 Tb1022 2.825 . S
C1032 C1026 1.507 . S
C1032 O1045 1.238 . S
C1032 O1046 1.247 . S
O1033 Tb1022 2.347 . S
O1033 C1037 1.259 . S
O1034 Eu1023 2.418 . S
O1034 C1037 1.265 . S
O1035 Eu1023 2.384 . S
O1035 C1044 1.255 . S
O1036 Tb1022 2.366 . S
O1036 C1044 1.265 . S
C1037 O1033 1.259 . S
C1037 O1034 1.265 . S
O1038 Eu1023 2.479 . S
O1038 C1053 1.238 . S
O1039 Eu1023 2.471 . S
O1039 C1053 1.247 . S
O1040 Eu1023 2.347 . S
O1040 C1024 1.259 . S
O1041 Tb1022 2.418 . S
O1041 C1024 1.265 . S
O1042 Tb1022 2.384 . S
O1042 C1025 1.255 . S
O1043 Eu1023 2.366 . S
O1043 C1025 1.265 . S
C1044 O1035 1.255 . S
C1044 O1036 1.265 . S
O1045 Tb1022 2.479 . S
O1045 C1032 1.238 . S
O1046 Tb1022 2.471 . S
O1046 C1032 1.247 . S
C1047 C1050 1.380 . S
C1047 C1051 1.374 . S
C1047 C1053 1.507 . S
C1048 C1049 1.387 . S
C1048 C1052 1.391 . S
C1049 C1048 1.387 . S
C1049 C1050 1.384 . S
C1049 H1058 0.930 . S
C1050 C1047 1.380 . S
C1050 C1049 1.384 . S
C1050 H1059 0.931 . S
C1051 C1047 1.374 . S
C1051 C1052 1.390 . S
C1051 H1060 0.930 . S
C1052 C1048 1.391 . S
C1052 C1051 1.390 . S
C1052 H1061 0.930 . S
C1053 Eu1023 2.825 . S
C1053 O1038 1.238 . S
C1053 O1039 1.247 . S
C1053 C1047 1.507 . S
H1054 C1027 0.930 . S
H1055 C1028 0.931 . S
H1056 C1029 0.930 . S
H1057 C1030 0.930 . S
H1058 C1049 0.930 . S
H1059 C1050 0.931 . S
H1060 C1051 0.930 . S
H1061 C1052 0.930 . S
H1062 C1080 0.951 . S
H1063 C1082 0.951 . S
H1064 C1084 0.950 . S
H1065 C1085 0.950 . S
H1066 C1087 0.950 . S
H1067 C1090 0.950 . S
H1068 C1091 0.950 . S
H1069 C1093 0.950 . S
H1070 C1094 0.950 . S
H1071 C1095 0.951 . S
H1072 C1097 0.951 . S
H1073 C1099 0.950 . S
H1074 C1100 0.950 . S
H1075 C1102 0.950 . S
H1076 C1105 0.928 1_554 S
H1077 C1106 0.950 . S
H1078 C1108 0.950 . S
H1079 C1109 0.950 . S
C1080 H1062 0.951 . S
C1080 C1081 1.366 . S
C1080 C1082 1.388 . S
C1081 C1080 1.366 . S
C1081 C1085 1.385 . S
C1082 H1063 0.951 . S
C1082 C1080 1.388 . S
C1082 C1083 1.366 . S
C1083 C1082 1.366 . S
C1083 C1084 1.414 . S
C1083 C1086 1.499 . S
C1084 H1064 0.950 . S
C1084 C1083 1.414 . S
C1084 C1085 1.374 . S
C1085 H1065 0.950 . S
C1085 C1081 1.385 . S
C1085 C1084 1.374 . S
C1086 C1083 1.499 . S
C1086 C1087 1.373 . S
C1086 C1088 1.389 . S
C1087 H1066 0.950 . S
C1087 C1086 1.373 . S
C1087 C1103 1.377 . S
C1088 C1086 1.389 . S
C1088 C1089 1.524 . S
C1088 C1102 1.377 . S
C1089 C1088 1.524 . S
C1089 C1090 1.397 . S
C1089 C1094 1.363 . S
C1090 H1067 0.950 . S
C1090 C1089 1.397 . S
C1090 C1091 1.334 . S
C1091 H1068 0.950 . S
C1091 C1090 1.334 . S
C1091 C1092 1.287 . S
C1092 C1091 1.287 . S
C1092 C1093 1.524 . S
C1092 H1111 0.913 . S
C1093 H1069 0.950 . S
C1093 C1092 1.524 . S
C1093 C1094 1.415 . S
C1094 H1070 0.950 . S
C1094 C1089 1.363 . S
C1094 C1093 1.415 . S
C1095 H1071 0.951 . S
C1095 C1096 1.366 . S
C1095 C1097 1.388 . S
C1096 C1095 1.366 . S
C1096 C1100 1.385 . S
C1097 H1072 0.951 . S
C1097 C1095 1.388 . S
C1097 C1098 1.366 . S
C1098 C1097 1.366 . S
C1098 C1099 1.414 . S
C1098 C1101 1.499 . S
C1099 H1073 0.950 . S
C1099 C1098 1.414 . S
C1099 C1100 1.374 . S
C1100 H1074 0.950 . S
C1100 C1096 1.385 . S
C1100 C1099 1.374 . S
C1101 C1098 1.499 . S
C1101 C1102 1.373 . S
C1101 C1103 1.389 . S
C1102 H1075 0.950 . S
C1102 C1088 1.377 . S
C1102 C1101 1.373 . S
C1103 C1087 1.377 . S
C1103 C1101 1.389 . S
C1103 C1104 1.524 . S
C1104 C1103 1.524 . S
C1104 C1105 1.350 1_554 S
C1104 C1109 1.363 . S
C1105 H1076 0.928 1_556 S
C1105 C1104 1.350 1_556 S
C1105 C1106 1.406 . S
C1106 H1077 0.950 . S
C1106 C1105 1.406 . S
C1106 C1107 1.287 . S
C1107 C1106 1.287 . S
C1107 C1108 1.524 . S
C1107 H1110 0.999 . S
C1108 H1078 0.950 . S
C1108 C1107 1.524 . S
C1108 C1109 1.415 1_556 S
C1109 H1079 0.950 . S
C1109 C1104 1.363 . S
C1109 C1108 1.415 1_554 S
H1110 C1107 0.999 . S
H1111 C1092 0.913 . S
H1112 C1130 0.951 . S
H1113 C1132 0.951 . S
H1114 C1134 0.950 . S
H1115 C1135 0.950 . S
H1116 C1137 0.950 . S
H1117 C1140 0.950 . S
H1118 C1141 0.950 . S
H1119 C1143 0.950 . S
H1120 C1144 0.950 . S
H1121 C1145 0.951 . S
H1122 C1147 0.951 . S
H1123 C1149 0.950 . S
H1124 C1150 0.950 . S
H1125 C1152 0.950 . S
H1126 C1155 0.950 . S
H1127 C1156 0.950 . S
H1128 C1158 0.950 . S
H1129 C1159 0.950 . S
C1130 H1112 0.951 . S
C1130 C1131 1.366 . S
C1130 C1132 1.388 . S
C1131 C1130 1.366 . S
C1131 C1135 1.385 . S
C1132 H1113 0.951 . S
C1132 C1130 1.388 . S
C1132 C1133 1.366 . S
C1133 C1132 1.366 . S
C1133 C1134 1.414 . S
C1133 C1136 1.499 . S
C1134 H1114 0.950 . S
C1134 C1133 1.414 . S
C1134 C1135 1.374 . S
C1135 H1115 0.950 . S
C1135 C1131 1.385 . S
C1135 C1134 1.374 . S
C1136 C1133 1.499 . S
C1136 C1137 1.373 . S
C1136 C1138 1.389 . S
C1137 H1116 0.950 . S
C1137 C1136 1.373 . S
C1137 C1153 1.377 . S
C1138 C1136 1.389 . S
C1138 C1139 1.524 . S
C1138 C1152 1.377 . S
C1139 C1138 1.524 . S
C1139 C1140 1.397 . S
C1139 C1144 1.363 . S
C1140 H1117 0.950 . S
C1140 C1139 1.397 . S
C1140 C1141 1.334 . S
C1141 H1118 0.950 . S
C1141 C1140 1.334 . S
C1141 C1142 1.287 . S
C1142 C1141 1.287 . S
C1142 C1143 1.524 . S
C1142 H1161 0.913 . S
C1143 H1119 0.950 . S
C1143 C1142 1.524 . S
C1143 C1144 1.415 . S
C1144 H1120 0.950 . S
C1144 C1139 1.363 . S
C1144 C1143 1.415 . S
C1145 H1121 0.951 . S
C1145 C1146 1.366 . S
C1145 C1147 1.388 . S
C1146 C1145 1.366 . S
C1146 C1150 1.385 . S
C1147 H1122 0.951 . S
C1147 C1145 1.388 . S
C1147 C1148 1.366 . S
C1148 C1147 1.366 . S
C1148 C1149 1.414 . S
C1148 C1151 1.499 . S
C1149 H1123 0.950 . S
C1149 C1148 1.414 . S
C1149 C1150 1.374 . S
C1150 H1124 0.950 . S
C1150 C1146 1.385 . S
C1150 C1149 1.374 . S
C1151 C1148 1.499 . S
C1151 C1152 1.373 . S
C1151 C1153 1.389 . S
C1152 H1125 0.950 . S
C1152 C1138 1.377 . S
C1152 C1151 1.373 . S
C1153 C1137 1.377 . S
C1153 C1151 1.389 . S
C1153 C1154 1.524 . S
C1154 C1153 1.524 . S
C1154 C1155 1.397 . S
C1154 C1159 1.363 . S
C1155 H1126 0.950 . S
C1155 C1154 1.397 . S
C1155 C1156 1.334 1_554 S
C1156 H1127 0.950 . S
C1156 C1155 1.334 1_556 S
C1156 C1157 1.287 . S
C1157 C1156 1.287 . S
C1157 C1158 1.524 . S
C1157 H1160 0.999 . S
C1158 H1128 0.950 . S
C1158 C1157 1.524 . S
C1158 C1159 1.415 1_556 S
C1159 H1129 0.950 . S
C1159 C1154 1.363 . S
C1159 C1158 1.415 1_554 S
H1160 C1157 0.999 . S
H1161 C1142 0.913 . S
H1162 C1180 0.951 . S
H1163 C1182 0.951 . S
H1164 C1184 0.950 . S
H1165 C1185 0.950 . S
H1166 C1187 0.950 . S
H1167 C1190 0.950 . S
H1168 C1191 0.950 . S
H1169 C1193 0.950 . S
H1170 C1194 0.950 . S
H1171 C1195 0.951 . S
H1172 C1197 0.951 . S
H1173 C1199 0.961 . S
H1174 C1200 0.950 1_556 S
H1175 C1202 0.950 . S
H1176 C1205 0.950 . S
H1177 C1206 0.950 . S
H1178 C1208 0.950 . S
H1179 C1209 0.950 . S
C1180 H1162 0.951 . S
C1180 C1181 1.366 . S
C1180 C1182 1.388 . S
C1181 C1180 1.366 . S
C1181 C1185 1.385 . S
C1182 H1163 0.951 . S
C1182 C1180 1.388 . S
C1182 C1183 1.366 . S
C1183 C1182 1.366 . S
C1183 C1184 1.414 . S
C1183 C1186 1.499 . S
C1184 H1164 0.950 . S
C1184 C1183 1.414 . S
C1184 C1185 1.374 . S
C1185 H1165 0.950 . S
C1185 C1181 1.385 . S
C1185 C1184 1.374 . S
C1186 C1183 1.499 . S
C1186 C1187 1.373 . S
C1186 C1188 1.389 . S
C1187 H1166 0.950 . S
C1187 C1186 1.373 . S
C1187 C1203 1.377 . S
C1188 C1186 1.389 . S
C1188 C1189 1.524 . S
C1188 C1202 1.377 . S
C1189 C1188 1.524 . S
C1189 C1190 1.397 . S
C1189 C1194 1.363 1_554 S
C1190 H1167 0.950 . S
C1190 C1189 1.397 . S
C1190 C1191 1.334 . S
C1191 H1168 0.950 . S
C1191 C1190 1.334 . S
C1191 C1192 1.287 1_554 S
C1192 C1191 1.287 1_556 S
C1192 C1193 1.524 . S
C1192 H1211 0.913 . S
C1193 H1169 0.950 . S
C1193 C1192 1.524 . S
C1193 C1194 1.415 . S
C1194 H1170 0.950 . S
C1194 C1189 1.363 1_556 S
C1194 C1193 1.415 . S
C1195 H1171 0.951 . S
C1195 C1196 1.366 . S
C1195 C1197 1.388 . S
C1196 C1195 1.366 . S
C1196 C1200 1.385 . S
C1197 H1172 0.951 . S
C1197 C1195 1.388 . S
C1197 C1198 1.366 . S
C1198 C1197 1.366 . S
C1198 C1199 1.414 . S
C1198 C1201 1.499 . S
C1199 H1173 0.961 . S
C1199 C1198 1.414 . S
C1199 C1200 1.374 . S
C1200 H1174 0.950 1_554 S
C1200 C1196 1.385 . S
C1200 C1199 1.374 . S
C1201 C1198 1.499 . S
C1201 C1202 1.373 . S
C1201 C1203 1.389 . S
C1202 H1175 0.950 . S
C1202 C1188 1.377 . S
C1202 C1201 1.373 . S
C1203 C1187 1.377 . S
C1203 C1201 1.389 . S
C1203 C1204 1.524 . S
C1204 C1203 1.524 . S
C1204 C1205 1.397 . S
C1204 C1209 1.363 . S
C1205 H1176 0.950 . S
C1205 C1204 1.397 . S
C1205 C1206 1.334 . S
C1206 H1177 0.950 . S
C1206 C1205 1.334 . S
C1206 C1207 1.287 . S
C1207 C1206 1.287 . S
C1207 C1208 1.524 . S
C1207 H1210 0.999 . S
C1208 H1178 0.950 . S
C1208 C1207 1.524 . S
C1208 C1209 1.415 . S
C1209 H1179 0.950 . S
C1209 C1204 1.363 . S
C1209 C1208 1.415 . S
H1210 C1207 0.999 . S
H1211 C1192 0.913 . S
H1212 C1230 0.951 . S
H1213 C1232 0.951 . S
H1214 C1234 0.950 . S
H1215 C1235 0.950 . S
H1216 C1237 0.950 . S
H1217 C1240 0.950 . S
H1218 C1241 0.950 . S
H1219 C1243 0.950 . S
H1220 C1244 0.950 . S
H1221 C1245 0.951 . S
H1222 C1247 0.951 . S
H1223 C1249 0.950 . S
H1224 C1250 0.950 . S
H1225 C1252 0.950 . S
H1226 C1255 0.950 . S
H1227 C1256 0.950 . S
H1228 C1258 0.950 . S
H1229 C1259 0.950 . S
C1230 H1212 0.951 . S
C1230 C1231 1.366 . S
C1230 C1232 1.388 . S
C1231 C1230 1.366 . S
C1231 C1235 1.385 . S
C1232 H1213 0.951 . S
C1232 C1230 1.388 . S
C1232 C1233 1.366 . S
C1233 C1232 1.366 . S
C1233 C1234 1.414 . S
C1233 C1236 1.499 . S
C1234 H1214 0.950 . S
C1234 C1233 1.414 . S
C1234 C1235 1.374 . S
C1235 H1215 0.950 . S
C1235 C1231 1.385 . S
C1235 C1234 1.374 . S
C1236 C1233 1.499 . S
C1236 C1237 1.373 . S
C1236 C1238 1.389 . S
C1237 H1216 0.950 . S
C1237 C1236 1.373 . S
C1237 C1253 1.377 . S
C1238 C1236 1.389 . S
C1238 C1239 1.524 . S
C1238 C1252 1.377 . S
C1239 C1238 1.524 . S
C1239 C1240 1.397 . S
C1239 C1244 1.363 . S
C1240 H1217 0.950 . S
C1240 C1239 1.397 . S
C1240 C1241 1.334 . S
C1241 H1218 0.950 . S
C1241 C1240 1.334 . S
C1241 C1242 1.287 . S
C1242 C1241 1.287 . S
C1242 C1243 1.524 . S
C1242 H1261 0.913 . S
C1243 H1219 0.950 . S
C1243 C1242 1.524 . S
C1243 C1244 1.415 . S
C1244 H1220 0.950 . S
C1244 C1239 1.363 . S
C1244 C1243 1.415 . S
C1245 H1221 0.951 . S
C1245 C1246 1.366 . S
C1245 C1247 1.388 . S
C1246 C1245 1.366 . S
C1246 C1250 1.385 . S
C1247 H1222 0.951 . S
C1247 C1245 1.388 . S
C1247 C1248 1.366 . S
C1248 C1247 1.366 . S
C1248 C1249 1.414 . S
C1248 C1251 1.499 . S
C1249 H1223 0.950 . S
C1249 C1248 1.414 . S
C1249 C1250 1.374 . S
C1250 H1224 0.950 . S
C1250 C1246 1.385 . S
C1250 C1249 1.374 . S
C1251 C1248 1.499 . S
C1251 C1252 1.373 . S
C1251 C1253 1.389 . S
C1252 H1225 0.950 . S
C1252 C1238 1.377 . S
C1252 C1251 1.373 . S
C1253 C1237 1.377 . S
C1253 C1251 1.389 . S
C1253 C1254 1.524 1_556 S
C1254 C1253 1.524 1_554 S
C1254 C1255 1.397 . S
C1254 C1259 1.363 . S
C1255 H1226 0.950 . S
C1255 C1254 1.397 . S
C1255 C1256 1.334 . S
C1256 H1227 0.950 . S
C1256 C1255 1.334 . S
C1256 C1257 1.287 . S
C1257 C1256 1.287 . S
C1257 C1258 1.524 . S
C1257 H1260 0.999 . S
C1258 H1228 0.950 . S
C1258 C1257 1.524 . S
C1258 C1259 1.415 . S
C1259 H1229 0.950 . S
C1259 C1254 1.363 . S
C1259 C1258 1.415 . S
H1260 C1257 0.999 . S
H1261 C1242 0.913 . S
H1262 C1280 0.951 . S
H1263 C1282 0.951 . S
H1264 C1284 0.950 . S
H1265 C1285 0.950 . S
H1266 C1287 0.950 . S
H1267 C1290 0.950 . S
H1268 C1291 0.950 . S
H1269 C1293 0.950 . S
H1270 C1294 0.950 . S
H1271 C1295 0.950 1_554 S
H1272 C1297 0.951 . S
H1273 C1299 0.950 . S
H1274 C1300 0.950 . S
H1275 C1302 0.950 . S
H1276 C1305 0.950 . S
H1277 C1306 0.939 1_554 S
H1278 C1308 0.950 . S
H1279 C1309 0.950 . S
C1280 H1262 0.951 . S
C1280 C1281 1.366 . S
C1280 C1282 1.388 . S
C1281 C1280 1.366 . S
C1281 C1285 1.385 . S
C1282 H1263 0.951 . S
C1282 C1280 1.388 . S
C1282 C1283 1.366 . S
C1283 C1282 1.366 . S
C1283 C1284 1.414 . S
C1283 C1286 1.499 . S
C1284 H1264 0.950 . S
C1284 C1283 1.414 . S
C1284 C1285 1.374 . S
C1285 H1265 0.950 . S
C1285 C1281 1.385 . S
C1285 C1284 1.374 . S
C1286 C1283 1.499 . S
C1286 C1287 1.373 . S
C1286 C1288 1.389 . S
C1287 H1266 0.950 . S
C1287 C1286 1.373 . S
C1287 C1303 1.377 . S
C1288 C1286 1.389 . S
C1288 C1289 1.524 . S
C1288 C1302 1.377 . S
C1289 C1288 1.524 . S
C1289 C1290 1.397 . S
C1289 C1294 1.363 . S
C1290 H1267 0.950 . S
C1290 C1289 1.397 . S
C1290 C1291 1.334 . S
C1291 H1268 0.950 . S
C1291 C1290 1.334 . S
C1291 C1292 1.287 . S
C1292 C1291 1.287 . S
C1292 C1293 1.524 . S
C1292 H1311 0.913 . S
C1293 H1269 0.950 . S
C1293 C1292 1.524 . S
C1293 C1294 1.415 . S
C1294 H1270 0.950 . S
C1294 C1289 1.363 . S
C1294 C1293 1.415 . S
C1295 H1271 0.950 1_556 S
C1295 C1296 1.366 . S
C1295 C1297 1.388 . S
C1296 C1295 1.366 . S
C1296 C1300 1.385 . S
C1297 H1272 0.951 . S
C1297 C1295 1.388 . S
C1297 C1298 1.366 . S
C1298 C1297 1.366 . S
C1298 C1299 1.414 . S
C1298 C1301 1.499 . S
C1299 H1273 0.950 . S
C1299 C1298 1.414 . S
C1299 C1300 1.374 . S
C1300 H1274 0.950 . S
C1300 C1296 1.385 . S
C1300 C1299 1.374 . S
C1301 C1298 1.499 . S
C1301 C1302 1.373 . S
C1301 C1303 1.389 . S
C1302 H1275 0.950 . S
C1302 C1288 1.377 . S
C1302 C1301 1.373 . S
C1303 C1287 1.377 . S
C1303 C1301 1.389 . S
C1303 C1304 1.524 . S
C1304 C1303 1.524 . S
C1304 C1305 1.397 . S
C1304 C1309 1.363 . S
C1305 H1276 0.950 . S
C1305 C1304 1.397 . S
C1305 C1306 1.375 . S
C1306 H1277 0.939 1_556 S
C1306 C1305 1.375 . S
C1306 C1307 1.257 1_556 S
C1307 C1306 1.257 1_554 S
C1307 C1308 1.524 . S
C1307 H1310 0.999 . S
C1308 H1278 0.950 . S
C1308 C1307 1.524 . S
C1308 C1309 1.415 1_554 S
C1309 H1279 0.950 . S
C1309 C1304 1.363 . S
C1309 C1308 1.415 1_556 S
H1310 C1307 0.999 . S
H1311 C1292 0.913 . S
H1312 C1330 0.951 . S
H1313 C1332 0.951 . S
H1314 C1334 0.950 . S
H1315 C1335 0.950 . S
H1316 C1337 0.950 . S
H1317 C1340 0.950 . S
H1318 C1341 0.950 . S
H1319 C1343 0.950 . S
H1320 C1344 0.951 . S
H1321 C1345 0.951 . S
H1322 C1347 0.951 . S
H1323 C1349 0.950 . S
H1324 C1350 0.950 . S
H1325 C1352 0.950 . S
H1326 C1355 0.950 . S
H1327 C1356 0.950 . S
H1328 C1358 0.936 1_565 S
H1329 C1359 0.950 . S
C1330 H1312 0.951 . S
C1330 C1331 1.366 . S
C1330 C1332 1.388 . S
C1331 C1330 1.366 . S
C1331 C1335 1.385 . S
C1332 H1313 0.951 . S
C1332 C1330 1.388 . S
C1332 C1333 1.366 . S
C1333 C1332 1.366 . S
C1333 C1334 1.414 . S
C1333 C1336 1.499 . S
C1334 H1314 0.950 . S
C1334 C1333 1.414 . S
C1334 C1335 1.374 . S
C1335 H1315 0.950 . S
C1335 C1331 1.385 . S
C1335 C1334 1.374 . S
C1336 C1333 1.499 . S
C1336 C1337 1.373 . S
C1336 C1338 1.389 . S
C1337 H1316 0.950 . S
C1337 C1336 1.373 . S
C1337 C1353 1.377 . S
C1338 C1336 1.389 . S
C1338 C1339 1.524 . S
C1338 C1352 1.377 . S
C1339 C1338 1.524 . S
C1339 C1340 1.397 . S
C1339 C1344 1.362 1_556 S
C1340 H1317 0.950 . S
C1340 C1339 1.397 . S
C1340 C1341 1.334 . S
C1341 H1318 0.950 . S
C1341 C1340 1.334 . S
C1341 C1342 1.287 . S
C1342 C1341 1.287 . S
C1342 C1343 1.524 1_556 S
C1342 H1361 0.913 . S
C1343 H1319 0.950 . S
C1343 C1342 1.524 1_554 S
C1343 C1344 1.415 . S
C1344 H1320 0.951 . S
C1344 C1339 1.362 1_554 S
C1344 C1343 1.415 . S
C1345 H1321 0.951 . S
C1345 C1346 1.366 . S
C1345 C1347 1.388 . S
C1346 C1345 1.366 . S
C1346 C1350 1.385 1_556 S
C1347 H1322 0.951 . S
C1347 C1345 1.388 . S
C1347 C1348 1.366 . S
C1348 C1347 1.366 . S
C1348 C1349 1.415 1_556 S
C1348 C1351 1.499 . S
C1349 H1323 0.950 . S
C1349 C1348 1.415 1_554 S
C1349 C1350 1.373 . S
C1350 H1324 0.950 . S
C1350 C1346 1.385 1_554 S
C1350 C1349 1.373 . S
C1351 C1348 1.499 . S
C1351 C1352 1.373 . S
C1351 C1353 1.389 . S
C1352 H1325 0.950 . S
C1352 C1338 1.377 . S
C1352 C1351 1.373 . S
C1353 C1337 1.377 . S
C1353 C1351 1.389 . S
C1353 C1354 1.524 . S
C1354 C1353 1.524 . S
C1354 C1355 1.397 . S
C1354 C1359 1.363 . S
C1355 H1326 0.950 . S
C1355 C1354 1.397 . S
C1355 C1356 1.334 1_545 S
C1356 H1327 0.950 . S
C1356 C1355 1.334 1_565 S
C1356 C1357 1.287 . S
C1357 C1356 1.287 . S
C1357 C1358 1.490 1_565 S
C1357 H1360 0.999 . S
C1358 H1328 0.936 1_545 S
C1358 C1357 1.490 1_545 S
C1358 C1359 1.468 . S
C1359 H1329 0.950 . S
C1359 C1354 1.363 . S
C1359 C1358 1.468 . S
H1360 C1357 0.999 . S
H1361 C1342 0.913 . S
H1362 C1380 0.951 . S
H1363 C1382 0.951 . S
H1364 C1384 0.950 . S
H1365 C1385 0.950 . S
H1366 C1387 0.950 . S
H1367 C1390 0.950 . S
H1368 C1391 0.950 . S
H1369 C1393 0.950 . S
H1370 C1394 0.950 . S
H1371 C1395 1.014 . S
H1372 C1397 0.951 . S
H1373 C1399 0.950 . S
H1374 C1400 0.950 . S
H1375 C1402 0.950 . S
H1376 C1405 0.950 1_556 S
H1377 C1406 0.950 . S
H1378 C1408 0.950 . S
H1379 C1409 0.950 . S
C1380 H1362 0.951 . S
C1380 C1381 1.366 . S
C1380 C1382 1.388 . S
C1381 C1380 1.366 . S
C1381 C1385 1.385 . S
C1382 H1363 0.951 . S
C1382 C1380 1.388 . S
C1382 C1383 1.366 . S
C1383 C1382 1.366 . S
C1383 C1384 1.414 . S
C1383 C1386 1.499 . S
C1384 H1364 0.950 . S
C1384 C1383 1.414 . S
C1384 C1385 1.374 . S
C1385 H1365 0.950 . S
C1385 C1381 1.385 . S
C1385 C1384 1.374 . S
C1386 C1383 1.499 . S
C1386 C1387 1.373 . S
C1386 C1388 1.389 . S
C1387 H1366 0.950 . S
C1387 C1386 1.373 . S
C1387 C1403 1.377 . S
C1388 C1386 1.389 . S
C1388 C1389 1.524 . S
C1388 C1402 1.377 . S
C1389 C1388 1.524 . S
C1389 C1390 1.397 . S
C1389 C1394 1.363 . S
C1390 H1367 0.950 . S
C1390 C1389 1.397 . S
C1390 C1391 1.334 . S
C1391 H1368 0.950 . S
C1391 C1390 1.334 . S
C1391 C1392 1.287 . S
C1392 C1391 1.287 . S
C1392 C1393 1.524 . S
C1392 H1411 0.913 . S
C1393 H1369 0.950 . S
C1393 C1392 1.524 . S
C1393 C1394 1.415 . S
C1394 H1370 0.950 . S
C1394 C1389 1.363 . S
C1394 C1393 1.415 . S
C1395 H1371 1.014 . S
C1395 C1396 1.366 . S
C1395 C1397 1.388 . S
C1396 C1395 1.366 . S
C1396 C1400 1.385 . S
C1397 H1372 0.951 . S
C1397 C1395 1.388 . S
C1397 C1398 1.366 . S
C1398 C1397 1.366 . S
C1398 C1399 1.414 . S
C1398 C1401 1.499 . S
C1399 H1373 0.950 . S
C1399 C1398 1.414 . S
C1399 C1400 1.374 . S
C1400 H1374 0.950 . S
C1400 C1396 1.385 . S
C1400 C1399 1.374 . S
C1401 C1398 1.499 . S
C1401 C1402 1.373 . S
C1401 C1403 1.389 . S
C1402 H1375 0.950 . S
C1402 C1388 1.377 . S
C1402 C1401 1.373 . S
C1403 C1387 1.377 . S
C1403 C1401 1.389 . S
C1403 C1404 1.524 . S
C1404 C1403 1.524 . S
C1404 C1405 1.397 1_556 S
C1404 C1409 1.363 1_556 S
C1405 H1376 0.950 1_554 S
C1405 C1404 1.397 1_554 S
C1405 C1406 1.334 . S
C1406 H1377 0.950 . S
C1406 C1405 1.334 . S
C1406 C1407 1.287 . S
C1407 C1406 1.287 . S
C1407 C1408 1.524 . S
C1407 H1410 0.999 . S
C1408 H1378 0.950 . S
C1408 C1407 1.524 . S
C1408 C1409 1.415 . S
C1409 H1379 0.950 . S
C1409 C1404 1.363 1_554 S
C1409 C1408 1.415 . S
H1410 C1407 0.999 . S
H1411 C1392 0.913 . S
H1412 C1430 0.951 . S
H1413 C1432 0.951 . S
H1414 C1434 0.950 . S
H1415 C1435 0.950 . S
H1416 C1437 0.950 . S
H1417 C1440 0.950 . S
H1418 C1441 0.950 . S
H1419 C1443 0.904 1_554 S
H1420 C1444 0.950 . S
H1421 C1445 0.951 . S
H1422 C1447 0.951 . S
H1423 C1449 0.950 . S
H1424 C1450 0.950 . S
H1425 C1452 0.950 . S
H1426 C1455 0.950 . S
H1427 C1456 0.950 . S
H1428 C1458 0.950 . S
H1429 C1459 0.950 . S
C1430 H1412 0.951 . S
C1430 C1431 1.366 . S
C1430 C1432 1.388 . S
C1431 C1430 1.366 . S
C1431 C1435 1.385 . S
C1432 H1413 0.951 . S
C1432 C1430 1.388 . S
C1432 C1433 1.366 . S
C1433 C1432 1.366 . S
C1433 C1434 1.414 . S
C1433 C1436 1.499 . S
C1434 H1414 0.950 . S
C1434 C1433 1.414 . S
C1434 C1435 1.374 . S
C1435 H1415 0.950 . S
C1435 C1431 1.385 . S
C1435 C1434 1.374 . S
C1436 C1433 1.499 . S
C1436 C1437 1.373 . S
C1436 C1438 1.389 . S
C1437 H1416 0.950 . S
C1437 C1436 1.373 . S
C1437 C1453 1.377 . S
C1438 C1436 1.389 . S
C1438 C1439 1.524 . S
C1438 C1452 1.377 . S
C1439 C1438 1.524 . S
C1439 C1440 1.397 . S
C1439 C1444 1.363 . S
C1440 H1417 0.950 . S
C1440 C1439 1.397 . S
C1440 C1441 1.334 . S
C1441 H1418 0.950 . S
C1441 C1440 1.334 . S
C1441 C1442 1.259 1_556 S
C1442 C1441 1.259 1_554 S
C1442 C1443 1.528 1_554 S
C1442 H1461 0.943 . S
C1443 H1419 0.904 1_556 S
C1443 C1442 1.528 1_556 S
C1443 C1444 1.470 . S
C1444 H1420 0.950 . S
C1444 C1439 1.363 . S
C1444 C1443 1.470 . S
C1445 H1421 0.951 . S
C1445 C1446 1.366 . S
C1445 C1447 1.388 . S
C1446 C1445 1.366 . S
C1446 C1450 1.385 . S
C1447 H1422 0.951 . S
C1447 C1445 1.388 . S
C1447 C1448 1.366 . S
C1448 C1447 1.366 . S
C1448 C1449 1.414 . S
C1448 C1451 1.499 . S
C1449 H1423 0.950 . S
C1449 C1448 1.414 . S
C1449 C1450 1.374 . S
C1450 H1424 0.950 . S
C1450 C1446 1.385 . S
C1450 C1449 1.374 . S
C1451 C1448 1.499 . S
C1451 C1452 1.373 . S
C1451 C1453 1.389 . S
C1452 H1425 0.950 . S
C1452 C1438 1.377 . S
C1452 C1451 1.373 . S
C1453 C1437 1.377 . S
C1453 C1451 1.389 . S
C1453 C1454 1.524 . S
C1454 C1453 1.524 . S
C1454 C1455 1.397 . S
C1454 C1459 1.363 . S
C1455 H1426 0.950 . S
C1455 C1454 1.397 . S
C1455 C1456 1.334 . S
C1456 H1427 0.950 . S
C1456 C1455 1.334 . S
C1456 C1457 1.287 . S
C1457 C1456 1.287 . S
C1457 C1458 1.524 . S
C1457 H1460 0.999 . S
C1458 H1428 0.950 . S
C1458 C1457 1.524 . S
C1458 C1459 1.415 . S
C1459 H1429 0.950 . S
C1459 C1454 1.363 . S
C1459 C1458 1.415 . S
H1460 C1457 0.999 . S
H1461 C1442 0.943 . S
H1462 C1480 0.951 . S
H1463 C1482 0.951 . S
H1464 C1484 0.950 . S
H1465 C1485 0.950 . S
H1466 C1487 0.950 . S
H1467 C1490 0.950 . S
H1468 C1491 0.950 . S
H1469 C1493 0.950 . S
H1470 C1494 0.950 . S
H1471 C1495 1.022 . S
H1472 C1497 0.951 1_554 S
H1473 C1499 0.950 . S
H1474 C1500 0.950 . S
H1475 C1502 0.950 . S
H1476 C1505 1.027 . S
H1477 C1506 0.950 . S
H1478 C1508 0.950 . S
H1479 C1509 0.950 . S
C1480 H1462 0.951 . S
C1480 C1481 1.366 . S
C1480 C1482 1.388 . S
C1481 C1480 1.366 . S
C1481 C1485 1.385 . S
C1482 H1463 0.951 . S
C1482 C1480 1.388 . S
C1482 C1483 1.366 . S
C1483 C1482 1.366 . S
C1483 C1484 1.414 . S
C1483 C1486 1.499 . S
C1484 H1464 0.950 . S
C1484 C1483 1.414 . S
C1484 C1485 1.374 . S
C1485 H1465 0.950 . S
C1485 C1481 1.385 . S
C1485 C1484 1.374 . S
C1486 C1483 1.499 . S
C1486 C1487 1.373 . S
C1486 C1488 1.389 . S
C1487 H1466 0.950 . S
C1487 C1486 1.373 . S
C1487 C1503 1.377 . S
C1488 C1486 1.389 . S
C1488 C1489 1.524 . S
C1488 C1502 1.377 . S
C1489 C1488 1.524 . S
C1489 C1490 1.397 . S
C1489 C1494 1.363 . S
C1490 H1467 0.950 . S
C1490 C1489 1.397 . S
C1490 C1491 1.334 . S
C1491 H1468 0.950 . S
C1491 C1490 1.334 . S
C1491 C1492 1.287 . S
C1492 C1491 1.287 . S
C1492 C1493 1.524 . S
C1492 H1511 0.913 . S
C1493 H1469 0.950 . S
C1493 C1492 1.524 . S
C1493 C1494 1.415 . S
C1494 H1470 0.950 . S
C1494 C1489 1.363 . S
C1494 C1493 1.415 . S
C1495 H1471 1.022 . S
C1495 C1496 1.306 1_554 S
C1495 C1497 1.382 1_554 S
C1496 C1495 1.306 1_556 S
C1496 C1500 1.385 . S
C1497 H1472 0.951 1_556 S
C1497 C1495 1.382 1_556 S
C1497 C1498 1.366 . S
C1498 C1497 1.366 . S
C1498 C1499 1.414 . S
C1498 C1501 1.499 . S
C1499 H1473 0.950 . S
C1499 C1498 1.414 . S
C1499 C1500 1.374 . S
C1500 H1474 0.950 . S
C1500 C1496 1.385 . S
C1500 C1499 1.374 . S
C1501 C1498 1.499 . S
C1501 C1502 1.373 . S
C1501 C1503 1.389 . S
C1502 H1475 0.950 . S
C1502 C1488 1.377 . S
C1502 C1501 1.373 . S
C1503 C1487 1.377 . S
C1503 C1501 1.389 . S
C1503 C1504 1.524 1_556 S
C1504 C1503 1.524 1_554 S
C1504 C1505 1.382 1_554 S
C1504 C1509 1.363 . S
C1505 H1476 1.027 . S
C1505 C1504 1.382 1_556 S
C1505 C1506 1.276 1_556 S
C1506 H1477 0.950 . S
C1506 C1505 1.276 1_554 S
C1506 C1507 1.287 . S
C1507 C1506 1.287 . S
C1507 C1508 1.524 . S
C1507 H1510 0.999 . S
C1508 H1478 0.950 . S
C1508 C1507 1.524 . S
C1508 C1509 1.415 . S
C1509 H1479 0.950 . S
C1509 C1504 1.363 . S
C1509 C1508 1.415 . S
H1510 C1507 0.999 . S
H1511 C1492 0.913 . S
H1512 C1530 0.951 . S
H1513 C1532 0.951 . S
H1514 C1534 0.950 . S
H1515 C1535 0.950 . S
H1516 C1537 0.950 . S
H1517 C1540 0.950 . S
H1518 C1541 0.950 . S
H1519 C1543 0.950 . S
H1520 C1544 0.950 . S
H1521 C1545 0.951 . S
H1522 C1547 0.951 . S
H1523 C1549 0.950 . S
H1524 C1550 0.950 . S
H1525 C1552 0.950 . S
H1526 C1555 0.950 . S
H1527 C1556 0.950 . S
H1528 C1558 0.950 . S
H1529 C1559 0.950 . S
C1530 H1512 0.951 . S
C1530 C1531 1.366 . S
C1530 C1532 1.388 . S
C1531 C1530 1.366 . S
C1531 C1535 1.385 . S
C1532 H1513 0.951 . S
C1532 C1530 1.388 . S
C1532 C1533 1.366 . S
C1533 C1532 1.366 . S
C1533 C1534 1.414 . S
C1533 C1536 1.499 . S
C1534 H1514 0.950 . S
C1534 C1533 1.414 . S
C1534 C1535 1.374 . S
C1535 H1515 0.950 . S
C1535 C1531 1.385 . S
C1535 C1534 1.374 . S
C1536 C1533 1.499 . S
C1536 C1537 1.373 . S
C1536 C1538 1.389 . S
C1537 H1516 0.950 . S
C1537 C1536 1.373 . S
C1537 C1553 1.377 . S
C1538 C1536 1.389 . S
C1538 C1539 1.524 . S
C1538 C1552 1.377 . S
C1539 C1538 1.524 . S
C1539 C1540 1.397 . S
C1539 C1544 1.363 . S
C1540 H1517 0.950 . S
C1540 C1539 1.397 . S
C1540 C1541 1.334 . S
C1541 H1518 0.950 . S
C1541 C1540 1.334 . S
C1541 C1542 1.287 . S
C1542 C1541 1.287 . S
C1542 C1543 1.524 . S
C1542 H1561 0.913 . S
C1543 H1519 0.950 . S
C1543 C1542 1.524 . S
C1543 C1544 1.415 . S
C1544 H1520 0.950 . S
C1544 C1539 1.363 . S
C1544 C1543 1.415 . S
C1545 H1521 0.951 . S
C1545 C1546 1.366 . S
C1545 C1547 1.388 . S
C1546 C1545 1.366 . S
C1546 C1550 1.385 . S
C1547 H1522 0.951 . S
C1547 C1545 1.388 . S
C1547 C1548 1.366 . S
C1548 C1547 1.366 . S
C1548 C1549 1.414 . S
C1548 C1551 1.499 . S
C1549 H1523 0.950 . S
C1549 C1548 1.414 . S
C1549 C1550 1.374 . S
C1550 H1524 0.950 . S
C1550 C1546 1.385 . S
C1550 C1549 1.374 . S
C1551 C1548 1.499 . S
C1551 C1552 1.373 . S
C1551 C1553 1.389 . S
C1552 H1525 0.950 . S
C1552 C1538 1.377 . S
C1552 C1551 1.373 . S
C1553 C1537 1.377 . S
C1553 C1551 1.389 . S
C1553 C1554 1.524 . S
C1554 C1553 1.524 . S
C1554 C1555 1.397 . S
C1554 C1559 1.363 . S
C1555 H1526 0.950 . S
C1555 C1554 1.397 . S
C1555 C1556 1.334 . S
C1556 H1527 0.950 . S
C1556 C1555 1.334 . S
C1556 C1557 1.287 . S
C1557 C1556 1.287 . S
C1557 C1558 1.524 . S
C1557 H1560 0.999 1_455 S
C1558 H1528 0.950 . S
C1558 C1557 1.524 . S
C1558 C1559 1.415 . S
C1559 H1529 0.950 . S
C1559 C1554 1.363 . S
C1559 C1558 1.415 . S
H1560 C1557 0.999 1_655 S
H1561 C1542 0.913 . S
H1562 C1580 0.951 . S
H1563 C1582 0.951 . S
H1564 C1584 0.950 . S
H1565 C1585 0.950 . S
H1566 C1587 0.950 . S
H1567 C1590 0.950 . S
H1568 C1591 0.950 . S
H1569 C1593 0.950 . S
H1570 C1594 0.950 . S
H1571 C1595 0.951 . S
H1572 C1597 0.951 . S
H1573 C1599 0.950 . S
H1574 C1600 0.950 . S
H1575 C1602 0.950 . S
H1576 C1605 0.950 . S
H1577 C1606 0.950 . S
H1578 C1608 0.950 . S
H1579 C1609 0.950 . S
C1580 H1562 0.951 . S
C1580 C1581 1.366 . S
C1580 C1582 1.388 . S
C1581 C1580 1.366 . S
C1581 C1585 1.385 . S
C1582 H1563 0.951 . S
C1582 C1580 1.388 . S
C1582 C1583 1.366 . S
C1583 C1582 1.366 . S
C1583 C1584 1.414 . S
C1583 C1586 1.499 . S
C1584 H1564 0.950 . S
C1584 C1583 1.414 . S
C1584 C1585 1.374 . S
C1585 H1565 0.950 . S
C1585 C1581 1.385 . S
C1585 C1584 1.374 . S
C1586 C1583 1.499 . S
C1586 C1587 1.373 . S
C1586 C1588 1.389 . S
C1587 H1566 0.950 . S
C1587 C1586 1.373 . S
C1587 C1603 1.377 . S
C1588 C1586 1.389 . S
C1588 C1589 1.524 . S
C1588 C1602 1.377 . S
C1589 C1588 1.524 . S
C1589 C1590 1.397 . S
C1589 C1594 1.363 . S
C1590 H1567 0.950 . S
C1590 C1589 1.397 . S
C1590 C1591 1.334 . S
C1591 H1568 0.950 . S
C1591 C1590 1.334 . S
C1591 C1592 1.287 . S
C1592 C1591 1.287 . S
C1592 C1593 1.524 . S
C1592 H1611 0.913 . S
C1593 H1569 0.950 . S
C1593 C1592 1.524 . S
C1593 C1594 1.415 . S
C1594 H1570 0.950 . S
C1594 C1589 1.363 . S
C1594 C1593 1.415 . S
C1595 H1571 0.951 . S
C1595 C1596 1.366 . S
C1595 C1597 1.388 . S
C1596 C1595 1.366 . S
C1596 C1600 1.385 . S
C1597 H1572 0.951 . S
C1597 C1595 1.388 . S
C1597 C1598 1.366 . S
C1598 C1597 1.366 . S
C1598 C1599 1.414 . S
C1598 C1601 1.499 . S
C1599 H1573 0.950 . S
C1599 C1598 1.414 . S
C1599 C1600 1.374 . S
C1600 H1574 0.950 . S
C1600 C1596 1.385 . S
C1600 C1599 1.374 . S
C1601 C1598 1.499 . S
C1601 C1602 1.373 . S
C1601 C1603 1.389 . S
C1602 H1575 0.950 . S
C1602 C1588 1.377 . S
C1602 C1601 1.373 . S
C1603 C1587 1.377 . S
C1603 C1601 1.389 . S
C1603 C1604 1.524 . S
C1604 C1603 1.524 . S
C1604 C1605 1.397 . S
C1604 C1609 1.363 . S
C1605 H1576 0.950 . S
C1605 C1604 1.397 . S
C1605 C1606 1.334 . S
C1606 H1577 0.950 . S
C1606 C1605 1.334 . S
C1606 C1607 1.287 . S
C1607 C1606 1.287 . S
C1607 C1608 1.524 1_554 S
C1607 H1610 0.999 1_554 S
C1608 H1578 0.950 . S
C1608 C1607 1.524 1_556 S
C1608 C1609 1.415 1_556 S
C1609 H1579 0.950 . S
C1609 C1604 1.363 . S
C1609 C1608 1.415 1_554 S
H1610 C1607 0.999 1_556 S
H1611 C1592 0.913 . S
H1612 C1630 0.951 . S
H1613 C1632 0.951 . S
H1614 C1634 0.950 . S
H1615 C1635 0.950 . S
H1616 C1637 0.950 . S
H1617 C1640 0.950 . S
H1618 C1641 0.950 . S
H1619 C1643 0.950 . S
H1620 C1644 0.963 . S
H1621 C1645 0.951 . S
H1622 C1647 0.951 . S
H1623 C1649 0.950 1_556 S
H1624 C1650 0.866 1_556 S
H1625 C1652 0.950 . S
H1626 C1655 0.950 . S
H1627 C1656 0.950 . S
H1628 C1658 0.950 . S
H1629 C1659 0.950 . S
C1630 H1612 0.951 . S
C1630 C1631 1.366 . S
C1630 C1632 1.388 . S
C1631 C1630 1.366 . S
C1631 C1635 1.385 . S
C1632 H1613 0.951 . S
C1632 C1630 1.388 . S
C1632 C1633 1.366 . S
C1633 C1632 1.366 . S
C1633 C1634 1.414 . S
C1633 C1636 1.499 . S
C1634 H1614 0.950 . S
C1634 C1633 1.414 . S
C1634 C1635 1.374 . S
C1635 H1615 0.950 . S
C1635 C1631 1.385 . S
C1635 C1634 1.374 . S
C1636 C1633 1.499 . S
C1636 C1637 1.373 . S
C1636 C1638 1.389 . S
C1637 H1616 0.950 . S
C1637 C1636 1.373 . S
C1637 C1653 1.377 . S
C1638 C1636 1.389 . S
C1638 C1639 1.524 . S
C1638 C1652 1.377 . S
C1639 C1638 1.524 . S
C1639 C1640 1.397 . S
C1639 C1644 1.337 1_554 S
C1640 H1617 0.950 . S
C1640 C1639 1.397 . S
C1640 C1641 1.334 . S
C1641 H1618 0.950 . S
C1641 C1640 1.334 . S
C1641 C1642 1.287 . S
C1642 C1641 1.287 . S
C1642 C1643 1.524 1_554 S
C1642 H1661 0.927 . S
C1643 H1619 0.950 . S
C1643 C1642 1.524 1_556 S
C1643 C1644 1.429 . S
C1644 H1620 0.963 . S
C1644 C1639 1.337 1_556 S
C1644 C1643 1.429 . S
C1645 H1621 0.951 . S
C1645 C1646 1.366 . S
C1645 C1647 1.388 . S
C1646 C1645 1.366 . S
C1646 C1650 1.447 . S
C1647 H1622 0.951 . S
C1647 C1645 1.388 . S
C1647 C1648 1.366 . S
C1648 C1647 1.366 . S
C1648 C1649 1.414 . S
C1648 C1651 1.499 . S
C1649 H1623 0.950 1_554 S
C1649 C1648 1.414 . S
C1649 C1650 1.400 . S
C1650 H1624 0.866 1_554 S
C1650 C1646 1.447 . S
C1650 C1649 1.400 . S
C1651 C1648 1.499 . S
C1651 C1652 1.373 . S
C1651 C1653 1.389 . S
C1652 H1625 0.950 . S
C1652 C1638 1.377 . S
C1652 C1651 1.373 . S
C1653 C1637 1.377 . S
C1653 C1651 1.389 . S
C1653 C1654 1.524 . S
C1654 C1653 1.524 . S
C1654 C1655 1.397 . S
C1654 C1659 1.363 . S
C1655 H1626 0.950 . S
C1655 C1654 1.397 . S
C1655 C1656 1.334 . S
C1656 H1627 0.950 . S
C1656 C1655 1.334 . S
C1656 C1657 1.287 . S
C1657 C1656 1.287 . S
C1657 C1658 1.524 . S
C1657 H1660 0.999 . S
C1658 H1628 0.950 . S
C1658 C1657 1.524 . S
C1658 C1659 1.415 . S
C1659 H1629 0.950 . S
C1659 C1654 1.363 . S
C1659 C1658 1.415 . S
H1660 C1657 0.999 . S
H1661 C1642 0.927 . S
H1662 C1680 0.951 . S
H1663 C1682 0.951 . S
H1664 C1684 0.950 . S
H1665 C1685 0.950 . S
H1666 C1687 0.950 . S
H1667 C1690 0.950 . S
H1668 C1691 0.950 . S
H1669 C1693 0.950 . S
H1670 C1694 0.950 . S
H1671 C1695 0.951 . S
H1672 C1697 0.951 . S
H1673 C1699 0.950 . S
H1674 C1700 0.950 . S
H1675 C1702 0.950 . S
H1676 C1705 0.950 . S
H1677 C1706 0.950 . S
H1678 C1708 0.950 . S
H1679 C1709 0.950 . S
C1680 H1662 0.951 . S
C1680 C1681 1.366 . S
C1680 C1682 1.388 . S
C1681 C1680 1.366 . S
C1681 C1685 1.385 . S
C1682 H1663 0.951 . S
C1682 C1680 1.388 . S
C1682 C1683 1.366 . S
C1683 C1682 1.366 . S
C1683 C1684 1.414 . S
C1683 C1686 1.499 1_655 S
C1684 H1664 0.950 . S
C1684 C1683 1.414 . S
C1684 C1685 1.374 . S
C1685 H1665 0.950 . S
C1685 C1681 1.385 . S
C1685 C1684 1.374 . S
C1686 C1683 1.499 1_455 S
C1686 C1687 1.373 . S
C1686 C1688 1.389 . S
C1687 H1666 0.950 . S
C1687 C1686 1.373 . S
C1687 C1703 1.377 . S
C1688 C1686 1.389 . S
C1688 C1689 1.524 . S
C1688 C1702 1.377 . S
C1689 C1688 1.524 . S
C1689 C1690 1.397 . S
C1689 C1694 1.363 . S
C1690 H1667 0.950 . S
C1690 C1689 1.397 . S
C1690 C1691 1.334 . S
C1691 H1668 0.950 . S
C1691 C1690 1.334 . S
C1691 C1692 1.287 . S
C1692 C1691 1.287 . S
C1692 C1693 1.524 . S
C1692 H1711 0.913 . S
C1693 H1669 0.950 . S
C1693 C1692 1.524 . S
C1693 C1694 1.415 . S
C1694 H1670 0.950 . S
C1694 C1689 1.363 . S
C1694 C1693 1.415 . S
C1695 H1671 0.951 . S
C1695 C1696 1.366 . S
C1695 C1697 1.388 . S
C1696 C1695 1.366 . S
C1696 C1700 1.385 . S
C1697 H1672 0.951 . S
C1697 C1695 1.388 . S
C1697 C1698 1.366 . S
C1698 C1697 1.366 . S
C1698 C1699 1.414 . S
C1698 C1701 1.499 . S
C1699 H1673 0.950 . S
C1699 C1698 1.414 . S
C1699 C1700 1.374 . S
C1700 H1674 0.950 . S
C1700 C1696 1.385 . S
C1700 C1699 1.374 . S
C1701 C1698 1.499 . S
C1701 C1702 1.373 . S
C1701 C1703 1.389 . S
C1702 H1675 0.950 . S
C1702 C1688 1.377 . S
C1702 C1701 1.373 . S
C1703 C1687 1.377 . S
C1703 C1701 1.389 . S
C1703 C1704 1.524 . S
C1704 C1703 1.524 . S
C1704 C1705 1.397 . S
C1704 C1709 1.363 . S
C1705 H1676 0.950 . S
C1705 C1704 1.397 . S
C1705 C1706 1.334 . S
C1706 H1677 0.950 . S
C1706 C1705 1.334 . S
C1706 C1707 1.287 . S
C1707 C1706 1.287 . S
C1707 C1708 1.524 . S
C1707 H1710 0.999 . S
C1708 H1678 0.950 . S
C1708 C1707 1.524 . S
C1708 C1709 1.415 . S
C1709 H1679 0.950 . S
C1709 C1704 1.363 . S
C1709 C1708 1.415 . S
H1710 C1707 0.999 . S
H1711 C1692 0.913 . S
H1712 C1730 0.951 . S
H1713 C1732 0.951 . S
H1714 C1734 0.950 . S
H1715 C1735 0.950 . S
H1716 C1737 0.950 . S
H1717 C1740 0.950 . S
H1718 C1741 0.950 . S
H1719 C1743 0.950 . S
H1720 C1744 0.950 . S
H1721 C1745 0.951 . S
H1722 C1747 0.951 . S
H1723 C1749 0.950 . S
H1724 C1750 0.950 . S
H1725 C1752 0.950 . S
H1726 C1755 0.950 . S
H1727 C1756 0.950 . S
H1728 C1758 0.950 . S
H1729 C1759 0.950 . S
C1730 H1712 0.951 . S
C1730 C1731 1.366 . S
C1730 C1732 1.388 . S
C1731 C1730 1.366 . S
C1731 C1735 1.385 . S
C1732 H1713 0.951 . S
C1732 C1730 1.388 . S
C1732 C1733 1.366 . S
C1733 C1732 1.366 . S
C1733 C1734 1.414 . S
C1733 C1736 1.499 . S
C1734 H1714 0.950 . S
C1734 C1733 1.414 . S
C1734 C1735 1.374 . S
C1735 H1715 0.950 . S
C1735 C1731 1.385 . S
C1735 C1734 1.374 . S
C1736 C1733 1.499 . S
C1736 C1737 1.373 . S
C1736 C1738 1.389 . S
C1737 H1716 0.950 . S
C1737 C1736 1.373 . S
C1737 C1753 1.377 . S
C1738 C1736 1.389 . S
C1738 C1739 1.524 . S
C1738 C1752 1.377 . S
C1739 C1738 1.524 . S
C1739 C1740 1.397 . S
C1739 C1744 1.363 . S
C1740 H1717 0.950 . S
C1740 C1739 1.397 . S
C1740 C1741 1.334 . S
C1741 H1718 0.950 . S
C1741 C1740 1.334 . S
C1741 C1742 1.287 . S
C1742 C1741 1.287 . S
C1742 C1743 1.524 . S
C1742 H1761 0.913 . S
C1743 H1719 0.950 . S
C1743 C1742 1.524 . S
C1743 C1744 1.415 . S
C1744 H1720 0.950 . S
C1744 C1739 1.363 . S
C1744 C1743 1.415 . S
C1745 H1721 0.951 . S
C1745 C1746 1.366 . S
C1745 C1747 1.388 . S
C1746 C1745 1.366 . S
C1746 C1750 1.385 . S
C1747 H1722 0.951 . S
C1747 C1745 1.388 . S
C1747 C1748 1.366 . S
C1748 C1747 1.366 . S
C1748 C1749 1.414 . S
C1748 C1751 1.499 . S
C1749 H1723 0.950 . S
C1749 C1748 1.414 . S
C1749 C1750 1.374 . S
C1750 H1724 0.950 . S
C1750 C1746 1.385 . S
C1750 C1749 1.374 . S
C1751 C1748 1.499 . S
C1751 C1752 1.373 . S
C1751 C1753 1.389 . S
C1752 H1725 0.950 . S
C1752 C1738 1.377 . S
C1752 C1751 1.373 . S
C1753 C1737 1.377 . S
C1753 C1751 1.389 . S
C1753 C1754 1.524 . S
C1754 C1753 1.524 . S
C1754 C1755 1.397 . S
C1754 C1759 1.363 . S
C1755 H1726 0.950 . S
C1755 C1754 1.397 . S
C1755 C1756 1.334 . S
C1756 H1727 0.950 . S
C1756 C1755 1.334 . S
C1756 C1757 1.287 . S
C1757 C1756 1.287 . S
C1757 C1758 1.524 . S
C1757 H1760 0.999 . S
C1758 H1728 0.950 . S
C1758 C1757 1.524 . S
C1758 C1759 1.415 . S
C1759 H1729 0.950 . S
C1759 C1754 1.363 . S
C1759 C1758 1.415 . S
H1760 C1757 0.999 . S
H1761 C1742 0.913 . S
H1762 C1780 0.951 . S
H1763 C1782 0.951 . S
H1764 C1784 0.950 . S
H1765 C1785 0.950 . S
H1766 C1787 0.950 1_545 S
H1767 C1790 0.950 . S
H1768 C1791 0.950 . S
H1769 C1793 0.950 . S
H1770 C1794 0.950 . S
H1771 C1795 0.951 . S
H1772 C1797 0.951 . S
H1773 C1799 0.950 . S
H1774 C1800 0.950 . S
H1775 C1802 0.950 . S
H1776 C1805 0.950 . S
H1777 C1806 0.950 . S
H1778 C1808 0.950 . S
H1779 C1809 0.950 . S
C1780 H1762 0.951 . S
C1780 C1781 1.366 . S
C1780 C1782 1.388 . S
C1781 C1780 1.366 . S
C1781 C1785 1.385 . S
C1782 H1763 0.951 . S
C1782 C1780 1.388 . S
C1782 C1783 1.366 . S
C1783 C1782 1.366 . S
C1783 C1784 1.414 . S
C1783 C1786 1.499 . S
C1784 H1764 0.950 . S
C1784 C1783 1.414 . S
C1784 C1785 1.374 . S
C1785 H1765 0.950 . S
C1785 C1781 1.385 . S
C1785 C1784 1.374 . S
C1786 C1783 1.499 . S
C1786 C1787 1.373 1_545 S
C1786 C1788 1.389 1_545 S
C1787 H1766 0.950 1_565 S
C1787 C1786 1.373 1_565 S
C1787 C1803 1.377 . S
C1788 C1786 1.389 1_565 S
C1788 C1789 1.524 . S
C1788 C1802 1.377 . S
C1789 C1788 1.524 . S
C1789 C1790 1.397 1_565 S
C1789 C1794 1.363 . S
C1790 H1767 0.950 . S
C1790 C1789 1.397 1_545 S
C1790 C1791 1.334 . S
C1791 H1768 0.950 . S
C1791 C1790 1.334 . S
C1791 C1792 1.287 . S
C1792 C1791 1.287 . S
C1792 C1793 1.524 1_545 S
C1792 H1811 0.913 . S
C1793 H1769 0.950 . S
C1793 C1792 1.524 1_565 S
C1793 C1794 1.415 . S
C1794 H1770 0.950 . S
C1794 C1789 1.363 . S
C1794 C1793 1.415 . S
C1795 H1771 0.951 . S
C1795 C1796 1.366 . S
C1795 C1797 1.388 . S
C1796 C1795 1.366 . S
C1796 C1800 1.385 . S
C1797 H1772 0.951 . S
C1797 C1795 1.388 . S
C1797 C1798 1.366 . S
C1798 C1797 1.366 . S
C1798 C1799 1.414 . S
C1798 C1801 1.499 . S
C1799 H1773 0.950 . S
C1799 C1798 1.414 . S
C1799 C1800 1.374 . S
C1800 H1774 0.950 . S
C1800 C1796 1.385 . S
C1800 C1799 1.374 . S
C1801 C1798 1.499 . S
C1801 C1802 1.373 . S
C1801 C1803 1.389 . S
C1802 H1775 0.950 . S
C1802 C1788 1.377 . S
C1802 C1801 1.373 . S
C1803 C1787 1.377 . S
C1803 C1801 1.389 . S
C1803 C1804 1.524 . S
C1804 C1803 1.524 . S
C1804 C1805 1.397 . S
C1804 C1809 1.363 . S
C1805 H1776 0.950 . S
C1805 C1804 1.397 . S
C1805 C1806 1.334 . S
C1806 H1777 0.950 . S
C1806 C1805 1.334 . S
C1806 C1807 1.287 . S
C1807 C1806 1.287 . S
C1807 C1808 1.524 . S
C1807 H1810 0.999 . S
C1808 H1778 0.950 . S
C1808 C1807 1.524 . S
C1808 C1809 1.415 . S
C1809 H1779 0.950 . S
C1809 C1804 1.363 . S
C1809 C1808 1.415 . S
H1810 C1807 0.999 . S
H1811 C1792 0.913 . S
H1812 C1830 0.951 . S
H1813 C1832 0.951 . S
H1814 C1834 0.950 . S
H1815 C1835 0.950 . S
H1816 C1837 0.950 . S
H1817 C1840 0.950 . S
H1818 C1841 0.950 . S
H1819 C1843 0.950 . S
H1820 C1844 0.950 . S
H1821 C1845 0.951 . S
H1822 C1847 0.951 . S
H1823 C1849 0.950 . S
H1824 C1850 0.950 . S
H1825 C1852 0.950 . S
H1826 C1855 0.950 . S
H1827 C1856 0.950 . S
H1828 C1858 0.950 . S
H1829 C1859 0.950 . S
C1830 H1812 0.951 . S
C1830 C1831 1.366 . S
C1830 C1832 1.388 . S
C1831 C1830 1.366 . S
C1831 C1835 1.385 . S
C1832 H1813 0.951 . S
C1832 C1830 1.388 . S
C1832 C1833 1.366 . S
C1833 C1832 1.366 . S
C1833 C1834 1.414 . S
C1833 C1836 1.499 . S
C1834 H1814 0.950 . S
C1834 C1833 1.414 . S
C1834 C1835 1.374 . S
C1835 H1815 0.950 . S
C1835 C1831 1.385 . S
C1835 C1834 1.374 . S
C1836 C1833 1.499 . S
C1836 C1837 1.373 . S
C1836 C1838 1.389 . S
C1837 H1816 0.950 . S
C1837 C1836 1.373 . S
C1837 C1853 1.377 . S
C1838 C1836 1.389 . S
C1838 C1839 1.524 . S
C1838 C1852 1.377 . S
C1839 C1838 1.524 . S
C1839 C1840 1.397 . S
C1839 C1844 1.363 . S
C1840 H1817 0.950 . S
C1840 C1839 1.397 . S
C1840 C1841 1.334 . S
C1841 H1818 0.950 . S
C1841 C1840 1.334 . S
C1841 C1842 1.287 . S
C1842 C1841 1.287 . S
C1842 C1843 1.524 . S
C1842 H1861 0.913 . S
C1843 H1819 0.950 . S
C1843 C1842 1.524 . S
C1843 C1844 1.415 . S
C1844 H1820 0.950 . S
C1844 C1839 1.363 . S
C1844 C1843 1.415 . S
C1845 H1821 0.951 . S
C1845 C1846 1.366 . S
C1845 C1847 1.388 . S
C1846 C1845 1.366 . S
C1846 C1850 1.385 . S
C1847 H1822 0.951 . S
C1847 C1845 1.388 . S
C1847 C1848 1.366 . S
C1848 C1847 1.366 . S
C1848 C1849 1.414 . S
C1848 C1851 1.499 . S
C1849 H1823 0.950 . S
C1849 C1848 1.414 . S
C1849 C1850 1.374 . S
C1850 H1824 0.950 . S
C1850 C1846 1.385 . S
C1850 C1849 1.374 . S
C1851 C1848 1.499 . S
C1851 C1852 1.373 . S
C1851 C1853 1.389 . S
C1852 H1825 0.950 . S
C1852 C1838 1.377 . S
C1852 C1851 1.373 . S
C1853 C1837 1.377 . S
C1853 C1851 1.389 . S
C1853 C1854 1.524 . S
C1854 C1853 1.524 . S
C1854 C1855 1.397 . S
C1854 C1859 1.363 . S
C1855 H1826 0.950 . S
C1855 C1854 1.397 . S
C1855 C1856 1.334 . S
C1856 H1827 0.950 . S
C1856 C1855 1.334 . S
C1856 C1857 1.287 . S
C1857 C1856 1.287 . S
C1857 C1858 1.524 . S
C1857 H1860 0.999 . S
C1858 H1828 0.950 . S
C1858 C1857 1.524 . S
C1858 C1859 1.415 . S
C1859 H1829 0.950 . S
C1859 C1854 1.363 . S
C1859 C1858 1.415 . S
H1860 C1857 0.999 . S
H1861 C1842 0.913 . S
H1862 C1880 0.951 . S
H1863 C1882 0.951 . S
H1864 C1884 0.950 . S
H1865 C1885 0.950 . S
H1866 C1887 0.950 . S
H1867 C1890 0.950 . S
H1868 C1891 0.950 . S
H1869 C1893 0.950 . S
H1870 C1894 0.950 . S
H1871 C1895 0.951 . S
H1872 C1897 0.951 . S
H1873 C1899 0.950 . S
H1874 C1900 0.950 . S
H1875 C1902 0.950 . S
H1876 C1905 0.950 . S
H1877 C1906 0.950 . S
H1878 C1908 0.950 . S
H1879 C1909 0.950 . S
C1880 H1862 0.951 . S
C1880 C1881 1.366 . S
C1880 C1882 1.388 . S
C1881 C1880 1.366 . S
C1881 C1885 1.385 . S
C1882 H1863 0.951 . S
C1882 C1880 1.388 . S
C1882 C1883 1.366 . S
C1883 C1882 1.366 . S
C1883 C1884 1.414 . S
C1883 C1886 1.499 . S
C1884 H1864 0.950 . S
C1884 C1883 1.414 . S
C1884 C1885 1.374 . S
C1885 H1865 0.950 . S
C1885 C1881 1.385 . S
C1885 C1884 1.374 . S
C1886 C1883 1.499 . S
C1886 C1887 1.373 . S
C1886 C1888 1.389 . S
C1887 H1866 0.950 . S
C1887 C1886 1.373 . S
C1887 C1903 1.377 . S
C1888 C1886 1.389 . S
C1888 C1889 1.524 . S
C1888 C1902 1.377 . S
C1889 C1888 1.524 . S
C1889 C1890 1.397 . S
C1889 C1894 1.363 . S
C1890 H1867 0.950 . S
C1890 C1889 1.397 . S
C1890 C1891 1.334 . S
C1891 H1868 0.950 . S
C1891 C1890 1.334 . S
C1891 C1892 1.287 . S
C1892 C1891 1.287 . S
C1892 C1893 1.524 . S
C1892 H1911 0.913 . S
C1893 H1869 0.950 . S
C1893 C1892 1.524 . S
C1893 C1894 1.415 . S
C1894 H1870 0.950 . S
C1894 C1889 1.363 . S
C1894 C1893 1.415 . S
C1895 H1871 0.951 . S
C1895 C1896 1.366 . S
C1895 C1897 1.388 . S
C1896 C1895 1.366 . S
C1896 C1900 1.385 . S
C1897 H1872 0.951 . S
C1897 C1895 1.388 . S
C1897 C1898 1.366 . S
C1898 C1897 1.366 . S
C1898 C1899 1.414 . S
C1898 C1901 1.499 . S
C1899 H1873 0.950 . S
C1899 C1898 1.414 . S
C1899 C1900 1.374 . S
C1900 H1874 0.950 . S
C1900 C1896 1.385 . S
C1900 C1899 1.374 . S
C1901 C1898 1.499 . S
C1901 C1902 1.373 . S
C1901 C1903 1.389 . S
C1902 H1875 0.950 . S
C1902 C1888 1.377 . S
C1902 C1901 1.373 . S
C1903 C1887 1.377 . S
C1903 C1901 1.389 . S
C1903 C1904 1.524 . S
C1904 C1903 1.524 . S
C1904 C1905 1.397 . S
C1904 C1909 1.363 . S
C1905 H1876 0.950 . S
C1905 C1904 1.397 . S
C1905 C1906 1.334 . S
C1906 H1877 0.950 . S
C1906 C1905 1.334 . S
C1906 C1907 1.287 . S
C1907 C1906 1.287 . S
C1907 C1908 1.524 . S
C1907 H1910 0.999 . S
C1908 H1878 0.950 . S
C1908 C1907 1.524 . S
C1908 C1909 1.415 . S
C1909 H1879 0.950 . S
C1909 C1904 1.363 . S
C1909 C1908 1.415 . S
H1910 C1907 0.999 . S
H1911 C1892 0.913 . S
H1912 C1930 0.951 . S
H1913 C1932 0.951 . S
H1914 C1934 0.950 . S
H1915 C1935 0.950 . S
H1916 C1937 0.950 . S
H1917 C1940 0.950 . S
H1918 C1941 0.950 . S
H1919 C1943 0.950 . S
H1920 C1944 0.950 . S
H1921 C1945 0.951 . S
H1922 C1947 0.951 . S
H1923 C1949 0.950 . S
H1924 C1950 0.950 . S
H1925 C1952 0.950 . S
H1926 C1955 0.950 . S
H1927 C1956 0.950 . S
H1928 C1958 0.950 . S
H1929 C1959 0.950 . S
C1930 H1912 0.951 . S
C1930 C1931 1.366 . S
C1930 C1932 1.388 . S
C1931 C1930 1.366 . S
C1931 C1935 1.385 . S
C1932 H1913 0.951 . S
C1932 C1930 1.388 . S
C1932 C1933 1.366 . S
C1933 C1932 1.366 . S
C1933 C1934 1.414 . S
C1933 C1936 1.499 . S
C1934 H1914 0.950 . S
C1934 C1933 1.414 . S
C1934 C1935 1.374 . S
C1935 H1915 0.950 . S
C1935 C1931 1.385 . S
C1935 C1934 1.374 . S
C1936 C1933 1.499 . S
C1936 C1937 1.373 . S
C1936 C1938 1.389 . S
C1937 H1916 0.950 . S
C1937 C1936 1.373 . S
C1937 C1953 1.377 . S
C1938 C1936 1.389 . S
C1938 C1939 1.524 . S
C1938 C1952 1.377 . S
C1939 C1938 1.524 . S
C1939 C1940 1.397 . S
C1939 C1944 1.363 . S
C1940 H1917 0.950 . S
C1940 C1939 1.397 . S
C1940 C1941 1.334 . S
C1941 H1918 0.950 . S
C1941 C1940 1.334 . S
C1941 C1942 1.287 . S
C1942 C1941 1.287 . S
C1942 C1943 1.524 . S
C1942 H1961 0.913 . S
C1943 H1919 0.950 . S
C1943 C1942 1.524 . S
C1943 C1944 1.415 . S
C1944 H1920 0.950 . S
C1944 C1939 1.363 . S
C1944 C1943 1.415 . S
C1945 H1921 0.951 . S
C1945 C1946 1.366 . S
C1945 C1947 1.388 . S
C1946 C1945 1.366 . S
C1946 C1950 1.385 . S
C1947 H1922 0.951 . S
C1947 C1945 1.388 . S
C1947 C1948 1.366 . S
C1948 C1947 1.366 . S
C1948 C1949 1.414 . S
C1948 C1951 1.499 . S
C1949 H1923 0.950 . S
C1949 C1948 1.414 . S
C1949 C1950 1.374 . S
C1950 H1924 0.950 . S
C1950 C1946 1.385 . S
C1950 C1949 1.374 . S
C1951 C1948 1.499 . S
C1951 C1952 1.373 . S
C1951 C1953 1.389 . S
C1952 H1925 0.950 . S
C1952 C1938 1.377 . S
C1952 C1951 1.373 . S
C1953 C1937 1.377 . S
C1953 C1951 1.389 . S
C1953 C1954 1.524 . S
C1954 C1953 1.524 . S
C1954 C1955 1.397 . S
C1954 C1959 1.363 . S
C1955 H1926 0.950 . S
C1955 C1954 1.397 . S
C1955 C1956 1.334 . S
C1956 H1927 0.950 . S
C1956 C1955 1.334 . S
C1956 C1957 1.287 . S
C1957 C1956 1.287 . S
C1957 C1958 1.524 . S
C1957 H1960 0.999 . S
C1958 H1928 0.950 . S
C1958 C1957 1.524 . S
C1958 C1959 1.415 . S
C1959 H1929 0.950 . S
C1959 C1954 1.363 . S
C1959 C1958 1.415 . S
H1960 C1957 0.999 . S
H1961 C1942 0.913 . S
H1962 C1980 0.951 . S
H1963 C1982 0.951 . S
H1964 C1984 0.950 . S
H1965 C1985 0.950 . S
H1966 C1987 0.950 . S
H1967 C1990 0.950 . S
H1968 C1991 0.950 . S
H1969 C1993 0.950 . S
H1970 C1994 0.950 . S
H1971 C1995 0.951 . S
H1972 C1997 0.951 . S
H1973 C1999 0.950 . S
H1974 C2000 0.950 . S
H1975 C2002 0.950 . S
H1976 C2005 0.950 . S
H1977 C2006 0.950 . S
H1978 C2008 0.950 . S
H1979 C2009 0.950 . S
C1980 H1962 0.951 . S
C1980 C1981 1.366 . S
C1980 C1982 1.388 . S
C1981 C1980 1.366 . S
C1981 C1985 1.385 . S
C1982 H1963 0.951 . S
C1982 C1980 1.388 . S
C1982 C1983 1.366 . S
C1983 C1982 1.366 . S
C1983 C1984 1.414 . S
C1983 C1986 1.499 . S
C1984 H1964 0.950 . S
C1984 C1983 1.414 . S
C1984 C1985 1.374 . S
C1985 H1965 0.950 . S
C1985 C1981 1.385 . S
C1985 C1984 1.374 . S
C1986 C1983 1.499 . S
C1986 C1987 1.373 . S
C1986 C1988 1.389 . S
C1987 H1966 0.950 . S
C1987 C1986 1.373 . S
C1987 C2003 1.377 . S
C1988 C1986 1.389 . S
C1988 C1989 1.524 . S
C1988 C2002 1.377 . S
C1989 C1988 1.524 . S
C1989 C1990 1.397 . S
C1989 C1994 1.363 . S
C1990 H1967 0.950 . S
C1990 C1989 1.397 . S
C1990 C1991 1.334 . S
C1991 H1968 0.950 . S
C1991 C1990 1.334 . S
C1991 C1992 1.287 . S
C1992 C1991 1.287 . S
C1992 C1993 1.524 . S
C1992 H2011 0.913 . S
C1993 H1969 0.950 . S
C1993 C1992 1.524 . S
C1993 C1994 1.415 . S
C1994 H1970 0.950 . S
C1994 C1989 1.363 . S
C1994 C1993 1.415 . S
C1995 H1971 0.951 . S
C1995 C1996 1.366 . S
C1995 C1997 1.388 . S
C1996 C1995 1.366 . S
C1996 C2000 1.385 . S
C1997 H1972 0.951 . S
C1997 C1995 1.388 . S
C1997 C1998 1.366 . S
C1998 C1997 1.366 . S
C1998 C1999 1.414 . S
C1998 C2001 1.499 . S
C1999 H1973 0.950 . S
C1999 C1998 1.414 . S
C1999 C2000 1.374 . S
C2000 H1974 0.950 . S
C2000 C1996 1.385 . S
C2000 C1999 1.374 . S
C2001 C1998 1.499 . S
C2001 C2002 1.373 . S
C2001 C2003 1.389 . S
C2002 H1975 0.950 . S
C2002 C1988 1.377 . S
C2002 C2001 1.373 . S
C2003 C1987 1.377 . S
C2003 C2001 1.389 . S
C2003 C2004 1.524 . S
C2004 C2003 1.524 . S
C2004 C2005 1.397 . S
C2004 C2009 1.363 . S
C2005 H1976 0.950 . S
C2005 C2004 1.397 . S
C2005 C2006 1.334 . S
C2006 H1977 0.950 . S
C2006 C2005 1.334 . S
C2006 C2007 1.287 . S
C2007 C2006 1.287 . S
C2007 C2008 1.524 . S
C2007 H2010 0.999 . S
C2008 H1978 0.950 . S
C2008 C2007 1.524 . S
C2008 C2009 1.415 . S
C2009 H1979 0.950 . S
C2009 C2004 1.363 . S
C2009 C2008 1.415 . S
H2010 C2007 0.999 . S
H2011 C1992 0.913 . S
H2012 C2030 0.951 . S
H2013 C2032 0.951 . S
H2014 C2034 0.950 . S
H2015 C2035 0.950 . S
H2016 C2037 0.950 . S
H2017 C2040 0.950 . S
H2018 C2041 0.950 . S
H2019 C2043 0.950 . S
H2020 C2044 0.950 . S
H2021 C2045 0.951 . S
H2022 C2047 0.951 . S
H2023 C2049 0.950 . S
H2024 C2050 0.950 . S
H2025 C2052 0.950 . S
H2026 C2055 0.950 . S
H2027 C2056 0.950 . S
H2028 C2058 0.950 . S
H2029 C2059 0.950 . S
C2030 H2012 0.951 . S
C2030 C2031 1.366 . S
C2030 C2032 1.388 . S
C2031 C2030 1.366 . S
C2031 C2035 1.385 . S
C2032 H2013 0.951 . S
C2032 C2030 1.388 . S
C2032 C2033 1.366 . S
C2033 C2032 1.366 . S
C2033 C2034 1.414 . S
C2033 C2036 1.499 . S
C2034 H2014 0.950 . S
C2034 C2033 1.414 . S
C2034 C2035 1.374 . S
C2035 H2015 0.950 . S
C2035 C2031 1.385 . S
C2035 C2034 1.374 . S
C2036 C2033 1.499 . S
C2036 C2037 1.373 . S
C2036 C2038 1.389 . S
C2037 H2016 0.950 . S
C2037 C2036 1.373 . S
C2037 C2053 1.377 . S
C2038 C2036 1.389 . S
C2038 C2039 1.524 . S
C2038 C2052 1.377 . S
C2039 C2038 1.524 . S
C2039 C2040 1.397 . S
C2039 C2044 1.363 . S
C2040 H2017 0.950 . S
C2040 C2039 1.397 . S
C2040 C2041 1.334 . S
C2041 H2018 0.950 . S
C2041 C2040 1.334 . S
C2041 C2042 1.287 . S
C2042 C2041 1.287 . S
C2042 C2043 1.524 . S
C2042 H2061 0.913 . S
C2043 H2019 0.950 . S
C2043 C2042 1.524 . S
C2043 C2044 1.415 . S
C2044 H2020 0.950 . S
C2044 C2039 1.363 . S
C2044 C2043 1.415 . S
C2045 H2021 0.951 . S
C2045 C2046 1.366 . S
C2045 C2047 1.388 . S
C2046 C2045 1.366 . S
C2046 C2050 1.385 . S
C2047 H2022 0.951 . S
C2047 C2045 1.388 . S
C2047 C2048 1.366 . S
C2048 C2047 1.366 . S
C2048 C2049 1.414 . S
C2048 C2051 1.499 . S
C2049 H2023 0.950 . S
C2049 C2048 1.414 . S
C2049 C2050 1.374 . S
C2050 H2024 0.950 . S
C2050 C2046 1.385 . S
C2050 C2049 1.374 . S
C2051 C2048 1.499 . S
C2051 C2052 1.373 . S
C2051 C2053 1.389 . S
C2052 H2025 0.950 . S
C2052 C2038 1.377 . S
C2052 C2051 1.373 . S
C2053 C2037 1.377 . S
C2053 C2051 1.389 . S
C2053 C2054 1.524 . S
C2054 C2053 1.524 . S
C2054 C2055 1.397 . S
C2054 C2059 1.363 . S
C2055 H2026 0.950 . S
C2055 C2054 1.397 . S
C2055 C2056 1.334 . S
C2056 H2027 0.950 . S
C2056 C2055 1.334 . S
C2056 C2057 1.287 . S
C2057 C2056 1.287 . S
C2057 C2058 1.524 . S
C2057 H2060 0.999 . S
C2058 H2028 0.950 . S
C2058 C2057 1.524 . S
C2058 C2059 1.415 . S
C2059 H2029 0.950 . S
C2059 C2054 1.363 . S
C2059 C2058 1.415 . S
H2060 C2057 0.999 . S
H2061 C2042 0.913 . S
H2062 C2080 0.951 . S
H2063 C2082 0.951 . S
H2064 C2084 0.950 . S
H2065 C2085 0.950 . S
H2066 C2087 0.950 . S
H2067 C2090 0.950 . S
H2068 C2091 0.950 . S
H2069 C2093 0.950 . S
H2070 C2094 0.950 . S
H2071 C2095 0.951 . S
H2072 C2097 0.951 . S
H2073 C2099 0.950 . S
H2074 C2100 0.950 . S
H2075 C2102 0.950 . S
H2076 C2105 0.950 . S
H2077 C2106 0.950 . S
H2078 C2108 0.950 . S
H2079 C2109 0.950 . S
C2080 H2062 0.951 . S
C2080 C2081 1.366 . S
C2080 C2082 1.388 . S
C2081 C2080 1.366 . S
C2081 C2085 1.385 . S
C2082 H2063 0.951 . S
C2082 C2080 1.388 . S
C2082 C2083 1.366 . S
C2083 C2082 1.366 . S
C2083 C2084 1.414 . S
C2083 C2086 1.499 . S
C2084 H2064 0.950 . S
C2084 C2083 1.414 . S
C2084 C2085 1.374 . S
C2085 H2065 0.950 . S
C2085 C2081 1.385 . S
C2085 C2084 1.374 . S
C2086 C2083 1.499 . S
C2086 C2087 1.373 . S
C2086 C2088 1.389 . S
C2087 H2066 0.950 . S
C2087 C2086 1.373 . S
C2087 C2103 1.377 . S
C2088 C2086 1.389 . S
C2088 C2089 1.524 . S
C2088 C2102 1.377 . S
C2089 C2088 1.524 . S
C2089 C2090 1.397 . S
C2089 C2094 1.363 . S
C2090 H2067 0.950 . S
C2090 C2089 1.397 . S
C2090 C2091 1.334 . S
C2091 H2068 0.950 . S
C2091 C2090 1.334 . S
C2091 C2092 1.287 . S
C2092 C2091 1.287 . S
C2092 C2093 1.524 . S
C2092 H2111 0.913 . S
C2093 H2069 0.950 . S
C2093 C2092 1.524 . S
C2093 C2094 1.415 . S
C2094 H2070 0.950 . S
C2094 C2089 1.363 . S
C2094 C2093 1.415 . S
C2095 H2071 0.951 . S
C2095 C2096 1.366 . S
C2095 C2097 1.388 . S
C2096 C2095 1.366 . S
C2096 C2100 1.385 . S
C2097 H2072 0.951 . S
C2097 C2095 1.388 . S
C2097 C2098 1.366 . S
C2098 C2097 1.366 . S
C2098 C2099 1.414 . S
C2098 C2101 1.499 . S
C2099 H2073 0.950 . S
C2099 C2098 1.414 . S
C2099 C2100 1.374 . S
C2100 H2074 0.950 . S
C2100 C2096 1.385 . S
C2100 C2099 1.374 . S
C2101 C2098 1.499 . S
C2101 C2102 1.373 . S
C2101 C2103 1.389 . S
C2102 H2075 0.950 . S
C2102 C2088 1.377 . S
C2102 C2101 1.373 . S
C2103 C2087 1.377 . S
C2103 C2101 1.389 . S
C2103 C2104 1.524 . S
C2104 C2103 1.524 . S
C2104 C2105 1.397 . S
C2104 C2109 1.363 . S
C2105 H2076 0.950 . S
C2105 C2104 1.397 . S
C2105 C2106 1.334 . S
C2106 H2077 0.950 . S
C2106 C2105 1.334 . S
C2106 C2107 1.287 . S
C2107 C2106 1.287 . S
C2107 C2108 1.524 . S
C2107 H2110 0.999 . S
C2108 H2078 0.950 . S
C2108 C2107 1.524 . S
C2108 C2109 1.415 . S
C2109 H2079 0.950 . S
C2109 C2104 1.363 . S
C2109 C2108 1.415 . S
H2110 C2107 0.999 . S
H2111 C2092 0.913 . S
H2112 C2130 0.951 . S
H2113 C2132 0.951 . S
H2114 C2134 0.950 . S
H2115 C2135 0.950 . S
H2116 C2137 0.950 . S
H2117 C2140 0.950 . S
H2118 C2141 0.950 . S
H2119 C2143 0.950 . S
H2120 C2144 0.950 . S
H2121 C2145 0.951 . S
H2122 C2147 0.951 . S
H2123 C2149 0.950 . S
H2124 C2150 0.950 . S
H2125 C2152 0.950 . S
H2126 C2155 0.950 . S
H2127 C2156 0.950 . S
H2128 C2158 0.950 . S
H2129 C2159 0.950 . S
C2130 H2112 0.951 . S
C2130 C2131 1.366 . S
C2130 C2132 1.388 . S
C2131 C2130 1.366 . S
C2131 C2135 1.385 . S
C2132 H2113 0.951 . S
C2132 C2130 1.388 . S
C2132 C2133 1.366 . S
C2133 C2132 1.366 . S
C2133 C2134 1.414 . S
C2133 C2136 1.499 1_545 S
C2134 H2114 0.950 . S
C2134 C2133 1.414 . S
C2134 C2135 1.374 . S
C2135 H2115 0.950 . S
C2135 C2131 1.385 . S
C2135 C2134 1.374 . S
C2136 C2133 1.499 1_565 S
C2136 C2137 1.373 . S
C2136 C2138 1.389 . S
C2137 H2116 0.950 . S
C2137 C2136 1.373 . S
C2137 C2153 1.377 . S
C2138 C2136 1.389 . S
C2138 C2139 1.524 . S
C2138 C2152 1.377 . S
C2139 C2138 1.524 . S
C2139 C2140 1.397 1_565 S
C2139 C2144 1.363 . S
C2140 H2117 0.950 . S
C2140 C2139 1.397 1_545 S
C2140 C2141 1.334 . S
C2141 H2118 0.950 . S
C2141 C2140 1.334 . S
C2141 C2142 1.287 . S
C2142 C2141 1.287 . S
C2142 C2143 1.524 . S
C2142 H2161 0.913 . S
C2143 H2119 0.950 . S
C2143 C2142 1.524 . S
C2143 C2144 1.415 1_545 S
C2144 H2120 0.950 . S
C2144 C2139 1.363 . S
C2144 C2143 1.415 1_565 S
C2145 H2121 0.951 . S
C2145 C2146 1.366 . S
C2145 C2147 1.388 . S
C2146 C2145 1.366 . S
C2146 C2150 1.385 . S
C2147 H2122 0.951 . S
C2147 C2145 1.388 . S
C2147 C2148 1.366 . S
C2148 C2147 1.366 . S
C2148 C2149 1.414 . S
C2148 C2151 1.499 . S
C2149 H2123 0.950 . S
C2149 C2148 1.414 . S
C2149 C2150 1.374 . S
C2150 H2124 0.950 . S
C2150 C2146 1.385 . S
C2150 C2149 1.374 . S
C2151 C2148 1.499 . S
C2151 C2152 1.373 . S
C2151 C2153 1.389 . S
C2152 H2125 0.950 . S
C2152 C2138 1.377 . S
C2152 C2151 1.373 . S
C2153 C2137 1.377 . S
C2153 C2151 1.389 . S
C2153 C2154 1.524 . S
C2154 C2153 1.524 . S
C2154 C2155 1.397 . S
C2154 C2159 1.363 . S
C2155 H2126 0.950 . S
C2155 C2154 1.397 . S
C2155 C2156 1.334 . S
C2156 H2127 0.950 . S
C2156 C2155 1.334 . S
C2156 C2157 1.287 . S
C2157 C2156 1.287 . S
C2157 C2158 1.524 . S
C2157 H2160 0.999 . S
C2158 H2128 0.950 . S
C2158 C2157 1.524 . S
C2158 C2159 1.415 . S
C2159 H2129 0.950 . S
C2159 C2154 1.363 . S
C2159 C2158 1.415 . S
H2160 C2157 0.999 . S
H2161 C2142 0.913 . S
H2162 C2180 0.951 . S
H2163 C2182 0.951 1_455 S
H2164 C2184 0.950 1_455 S
H2165 C2185 0.950 . S
H2166 C2187 0.950 . S
H2167 C2190 0.950 . S
H2168 C2191 0.950 . S
H2169 C2193 0.950 . S
H2170 C2194 0.950 . S
H2171 C2195 0.951 . S
H2172 C2197 0.951 . S
H2173 C2199 0.950 . S
H2174 C2200 0.950 . S
H2175 C2202 0.950 . S
H2176 C2205 0.950 . S
H2177 C2206 0.950 . S
H2178 C2208 0.950 . S
H2179 C2209 0.950 . S
C2180 H2162 0.951 . S
C2180 C2181 1.366 . S
C2180 C2182 1.388 . S
C2181 C2180 1.366 . S
C2181 C2185 1.385 . S
C2182 H2163 0.951 1_655 S
C2182 C2180 1.388 . S
C2182 C2183 1.366 1_655 S
C2183 C2182 1.366 1_455 S
C2183 C2184 1.414 1_455 S
C2183 C2186 1.499 . S
C2184 H2164 0.950 1_655 S
C2184 C2183 1.414 1_655 S
C2184 C2185 1.374 . S
C2185 H2165 0.950 . S
C2185 C2181 1.385 . S
C2185 C2184 1.374 . S
C2186 C2183 1.499 . S
C2186 C2187 1.373 . S
C2186 C2188 1.389 . S
C2187 H2166 0.950 . S
C2187 C2186 1.373 . S
C2187 C2203 1.377 . S
C2188 C2186 1.389 . S
C2188 C2189 1.524 . S
C2188 C2202 1.377 . S
C2189 C2188 1.524 . S
C2189 C2190 1.397 . S
C2189 C2194 1.363 . S
C2190 H2167 0.950 . S
C2190 C2189 1.397 . S
C2190 C2191 1.334 . S
C2191 H2168 0.950 . S
C2191 C2190 1.334 . S
C2191 C2192 1.287 . S
C2192 C2191 1.287 . S
C2192 C2193 1.524 . S
C2192 H2211 0.913 . S
C2193 H2169 0.950 . S
C2193 C2192 1.524 . S
C2193 C2194 1.415 . S
C2194 H2170 0.950 . S
C2194 C2189 1.363 . S
C2194 C2193 1.415 . S
C2195 H2171 0.951 . S
C2195 C2196 1.366 . S
C2195 C2197 1.388 . S
C2196 C2195 1.366 . S
C2196 C2200 1.385 . S
C2197 H2172 0.951 . S
C2197 C2195 1.388 . S
C2197 C2198 1.366 . S
C2198 C2197 1.366 . S
C2198 C2199 1.414 . S
C2198 C2201 1.499 . S
C2199 H2173 0.950 . S
C2199 C2198 1.414 . S
C2199 C2200 1.374 . S
C2200 H2174 0.950 . S
C2200 C2196 1.385 . S
C2200 C2199 1.374 . S
C2201 C2198 1.499 . S
C2201 C2202 1.373 . S
C2201 C2203 1.389 . S
C2202 H2175 0.950 . S
C2202 C2188 1.377 . S
C2202 C2201 1.373 . S
C2203 C2187 1.377 . S
C2203 C2201 1.389 . S
C2203 C2204 1.524 . S
C2204 C2203 1.524 . S
C2204 C2205 1.397 . S
C2204 C2209 1.363 . S
C2205 H2176 0.950 . S
C2205 C2204 1.397 . S
C2205 C2206 1.334 . S
C2206 H2177 0.950 . S
C2206 C2205 1.334 . S
C2206 C2207 1.287 . S
C2207 C2206 1.287 . S
C2207 C2208 1.524 . S
C2207 H2210 0.999 . S
C2208 H2178 0.950 . S
C2208 C2207 1.524 . S
C2208 C2209 1.415 . S
C2209 H2179 0.950 . S
C2209 C2204 1.363 . S
C2209 C2208 1.415 . S
H2210 C2207 0.999 . S
H2211 C2192 0.913 . S
H2212 C2230 0.951 . S
H2213 C2232 0.951 . S
H2214 C2234 0.950 . S
H2215 C2235 0.950 . S
H2216 C2237 0.950 . S
H2217 C2240 0.950 . S
H2218 C2241 0.950 . S
H2219 C2243 0.950 . S
H2220 C2244 0.950 . S
H2221 C2245 0.951 . S
H2222 C2247 0.951 . S
H2223 C2249 0.950 . S
H2224 C2250 0.950 . S
H2225 C2252 0.950 . S
H2226 C2255 0.950 . S
H2227 C2256 0.950 . S
H2228 C2258 0.950 . S
H2229 C2259 0.950 . S
C2230 H2212 0.951 . S
C2230 C2231 1.366 . S
C2230 C2232 1.388 . S
C2231 C2230 1.366 . S
C2231 C2235 1.385 . S
C2232 H2213 0.951 . S
C2232 C2230 1.388 . S
C2232 C2233 1.366 . S
C2233 C2232 1.366 . S
C2233 C2234 1.414 . S
C2233 C2236 1.499 . S
C2234 H2214 0.950 . S
C2234 C2233 1.414 . S
C2234 C2235 1.374 . S
C2235 H2215 0.950 . S
C2235 C2231 1.385 . S
C2235 C2234 1.374 . S
C2236 C2233 1.499 . S
C2236 C2237 1.373 . S
C2236 C2238 1.389 . S
C2237 H2216 0.950 . S
C2237 C2236 1.373 . S
C2237 C2253 1.377 . S
C2238 C2236 1.389 . S
C2238 C2239 1.524 . S
C2238 C2252 1.377 . S
C2239 C2238 1.524 . S
C2239 C2240 1.397 . S
C2239 C2244 1.363 . S
C2240 H2217 0.950 . S
C2240 C2239 1.397 . S
C2240 C2241 1.334 . S
C2241 H2218 0.950 . S
C2241 C2240 1.334 . S
C2241 C2242 1.287 . S
C2242 C2241 1.287 . S
C2242 C2243 1.524 . S
C2242 H2261 0.913 . S
C2243 H2219 0.950 . S
C2243 C2242 1.524 . S
C2243 C2244 1.415 . S
C2244 H2220 0.950 . S
C2244 C2239 1.363 . S
C2244 C2243 1.415 . S
C2245 H2221 0.951 . S
C2245 C2246 1.366 . S
C2245 C2247 1.388 . S
C2246 C2245 1.366 . S
C2246 C2250 1.385 . S
C2247 H2222 0.951 . S
C2247 C2245 1.388 . S
C2247 C2248 1.366 . S
C2248 C2247 1.366 . S
C2248 C2249 1.414 . S
C2248 C2251 1.499 . S
C2249 H2223 0.950 . S
C2249 C2248 1.414 . S
C2249 C2250 1.374 . S
C2250 H2224 0.950 . S
C2250 C2246 1.385 . S
C2250 C2249 1.374 . S
C2251 C2248 1.499 . S
C2251 C2252 1.373 . S
C2251 C2253 1.389 . S
C2252 H2225 0.950 . S
C2252 C2238 1.377 . S
C2252 C2251 1.373 . S
C2253 C2237 1.377 . S
C2253 C2251 1.389 . S
C2253 C2254 1.524 . S
C2254 C2253 1.524 . S
C2254 C2255 1.397 . S
C2254 C2259 1.363 . S
C2255 H2226 0.950 . S
C2255 C2254 1.397 . S
C2255 C2256 1.334 . S
C2256 H2227 0.950 . S
C2256 C2255 1.334 . S
C2256 C2257 1.287 . S
C2257 C2256 1.287 . S
C2257 C2258 1.524 . S
C2257 H2260 0.999 . S
C2258 H2228 0.950 . S
C2258 C2257 1.524 . S
C2258 C2259 1.415 . S
C2259 H2229 0.950 . S
C2259 C2254 1.363 . S
C2259 C2258 1.415 . S
H2260 C2257 0.999 . S
H2261 C2242 0.913 . S
H2262 C2280 0.951 . S
H2263 C2282 0.951 . S
H2264 C2284 0.950 . S
H2265 C2285 0.950 . S
H2266 C2287 0.950 . S
H2267 C2290 0.950 . S
H2268 C2291 0.950 . S
H2269 C2293 0.950 . S
H2270 C2294 0.950 . S
H2271 C2295 0.951 . S
H2272 C2297 0.951 . S
H2273 C2299 0.950 . S
H2274 C2300 0.950 . S
H2275 C2302 0.950 . S
H2276 C2305 0.950 . S
H2277 C2306 0.950 . S
H2278 C2308 0.950 . S
H2279 C2309 0.950 . S
C2280 H2262 0.951 . S
C2280 C2281 1.366 . S
C2280 C2282 1.388 . S
C2281 C2280 1.366 . S
C2281 C2285 1.385 . S
C2282 H2263 0.951 . S
C2282 C2280 1.388 . S
C2282 C2283 1.366 . S
C2283 C2282 1.366 . S
C2283 C2284 1.414 . S
C2283 C2286 1.499 . S
C2284 H2264 0.950 . S
C2284 C2283 1.414 . S
C2284 C2285 1.374 . S
C2285 H2265 0.950 . S
C2285 C2281 1.385 . S
C2285 C2284 1.374 . S
C2286 C2283 1.499 . S
C2286 C2287 1.373 . S
C2286 C2288 1.389 . S
C2287 H2266 0.950 . S
C2287 C2286 1.373 . S
C2287 C2303 1.377 . S
C2288 C2286 1.389 . S
C2288 C2289 1.524 . S
C2288 C2302 1.377 . S
C2289 C2288 1.524 . S
C2289 C2290 1.397 . S
C2289 C2294 1.363 . S
C2290 H2267 0.950 . S
C2290 C2289 1.397 . S
C2290 C2291 1.334 . S
C2291 H2268 0.950 . S
C2291 C2290 1.334 . S
C2291 C2292 1.287 . S
C2292 C2291 1.287 . S
C2292 C2293 1.524 . S
C2292 H2311 0.913 . S
C2293 H2269 0.950 . S
C2293 C2292 1.524 . S
C2293 C2294 1.415 . S
C2294 H2270 0.950 . S
C2294 C2289 1.363 . S
C2294 C2293 1.415 . S
C2295 H2271 0.951 . S
C2295 C2296 1.366 . S
C2295 C2297 1.388 . S
C2296 C2295 1.366 . S
C2296 C2300 1.385 . S
C2297 H2272 0.951 . S
C2297 C2295 1.388 . S
C2297 C2298 1.366 . S
C2298 C2297 1.366 . S
C2298 C2299 1.414 . S
C2298 C2301 1.499 . S
C2299 H2273 0.950 . S
C2299 C2298 1.414 . S
C2299 C2300 1.374 . S
C2300 H2274 0.950 . S
C2300 C2296 1.385 . S
C2300 C2299 1.374 . S
C2301 C2298 1.499 . S
C2301 C2302 1.373 . S
C2301 C2303 1.389 . S
C2302 H2275 0.950 . S
C2302 C2288 1.377 . S
C2302 C2301 1.373 . S
C2303 C2287 1.377 . S
C2303 C2301 1.389 . S
C2303 C2304 1.524 . S
C2304 C2303 1.524 . S
C2304 C2305 1.397 . S
C2304 C2309 1.363 . S
C2305 H2276 0.950 . S
C2305 C2304 1.397 . S
C2305 C2306 1.334 . S
C2306 H2277 0.950 . S
C2306 C2305 1.334 . S
C2306 C2307 1.287 . S
C2307 C2306 1.287 . S
C2307 C2308 1.524 . S
C2307 H2310 0.999 . S
C2308 H2278 0.950 . S
C2308 C2307 1.524 . S
C2308 C2309 1.415 . S
C2309 H2279 0.950 . S
C2309 C2304 1.363 . S
C2309 C2308 1.415 . S
H2310 C2307 0.999 . S
H2311 C2292 0.913 . S
H2312 C2330 0.951 . S
H2313 C2332 0.951 . S
H2314 C2334 0.950 . S
H2315 C2335 0.950 . S
H2316 C2337 0.950 . S
H2317 C2340 0.950 . S
H2318 C2341 0.950 . S
H2319 C2343 0.950 . S
H2320 C2344 0.950 . S
H2321 C2345 0.951 . S
H2322 C2347 0.951 . S
H2323 C2349 0.950 . S
H2324 C2350 0.950 . S
H2325 C2352 0.950 . S
H2326 C2355 0.950 . S
H2327 C2356 0.950 . S
H2328 C2358 0.950 . S
H2329 C2359 0.950 . S
C2330 H2312 0.951 . S
C2330 C2331 1.366 . S
C2330 C2332 1.388 . S
C2331 C2330 1.366 . S
C2331 C2335 1.385 . S
C2332 H2313 0.951 . S
C2332 C2330 1.388 . S
C2332 C2333 1.366 . S
C2333 C2332 1.366 . S
C2333 C2334 1.414 . S
C2333 C2336 1.499 . S
C2334 H2314 0.950 . S
C2334 C2333 1.414 . S
C2334 C2335 1.374 . S
C2335 H2315 0.950 . S
C2335 C2331 1.385 . S
C2335 C2334 1.374 . S
C2336 C2333 1.499 . S
C2336 C2337 1.373 . S
C2336 C2338 1.389 . S
C2337 H2316 0.950 . S
C2337 C2336 1.373 . S
C2337 C2353 1.377 . S
C2338 C2336 1.389 . S
C2338 C2339 1.524 . S
C2338 C2352 1.377 . S
C2339 C2338 1.524 . S
C2339 C2340 1.397 . S
C2339 C2344 1.363 . S
C2340 H2317 0.950 . S
C2340 C2339 1.397 . S
C2340 C2341 1.334 . S
C2341 H2318 0.950 . S
C2341 C2340 1.334 . S
C2341 C2342 1.287 . S
C2342 C2341 1.287 . S
C2342 C2343 1.524 . S
C2342 H2361 0.913 . S
C2343 H2319 0.950 . S
C2343 C2342 1.524 . S
C2343 C2344 1.415 . S
C2344 H2320 0.950 . S
C2344 C2339 1.363 . S
C2344 C2343 1.415 . S
C2345 H2321 0.951 . S
C2345 C2346 1.366 . S
C2345 C2347 1.388 . S
C2346 C2345 1.366 . S
C2346 C2350 1.385 . S
C2347 H2322 0.951 . S
C2347 C2345 1.388 . S
C2347 C2348 1.366 . S
C2348 C2347 1.366 . S
C2348 C2349 1.414 . S
C2348 C2351 1.499 . S
C2349 H2323 0.950 . S
C2349 C2348 1.414 . S
C2349 C2350 1.374 . S
C2350 H2324 0.950 . S
C2350 C2346 1.385 . S
C2350 C2349 1.374 . S
C2351 C2348 1.499 . S
C2351 C2352 1.373 . S
C2351 C2353 1.389 . S
C2352 H2325 0.950 . S
C2352 C2338 1.377 . S
C2352 C2351 1.373 . S
C2353 C2337 1.377 . S
C2353 C2351 1.389 . S
C2353 C2354 1.524 . S
C2354 C2353 1.524 . S
C2354 C2355 1.397 . S
C2354 C2359 1.363 . S
C2355 H2326 0.950 . S
C2355 C2354 1.397 . S
C2355 C2356 1.334 . S
C2356 H2327 0.950 . S
C2356 C2355 1.334 . S
C2356 C2357 1.287 . S
C2357 C2356 1.287 . S
C2357 C2358 1.524 . S
C2357 H2360 0.999 . S
C2358 H2328 0.950 . S
C2358 C2357 1.524 . S
C2358 C2359 1.415 . S
C2359 H2329 0.950 . S
C2359 C2354 1.363 . S
C2359 C2358 1.415 . S
H2360 C2357 0.999 . S
H2361 C2342 0.913 . S
H2362 C2380 0.951 . S
H2363 C2382 0.951 . S
H2364 C2384 0.950 . S
H2365 C2385 0.950 . S
H2366 C2387 0.950 . S
H2367 C2390 0.950 . S
H2368 C2391 0.950 . S
H2369 C2393 0.950 . S
H2370 C2394 0.950 . S
H2371 C2395 0.951 . S
H2372 C2397 0.951 . S
H2373 C2399 0.950 . S
H2374 C2400 0.950 . S
H2375 C2402 0.950 . S
H2376 C2405 0.950 . S
H2377 C2406 0.950 . S
H2378 C2408 0.950 . S
H2379 C2409 0.950 . S
C2380 H2362 0.951 . S
C2380 C2381 1.366 . S
C2380 C2382 1.388 . S
C2381 C2380 1.366 . S
C2381 C2385 1.385 . S
C2382 H2363 0.951 . S
C2382 C2380 1.388 . S
C2382 C2383 1.366 . S
C2383 C2382 1.366 . S
C2383 C2384 1.414 . S
C2383 C2386 1.499 . S
C2384 H2364 0.950 . S
C2384 C2383 1.414 . S
C2384 C2385 1.374 . S
C2385 H2365 0.950 . S
C2385 C2381 1.385 . S
C2385 C2384 1.374 . S
C2386 C2383 1.499 . S
C2386 C2387 1.373 . S
C2386 C2388 1.389 . S
C2387 H2366 0.950 . S
C2387 C2386 1.373 . S
C2387 C2403 1.377 . S
C2388 C2386 1.389 . S
C2388 C2389 1.524 . S
C2388 C2402 1.377 . S
C2389 C2388 1.524 . S
C2389 C2390 1.397 . S
C2389 C2394 1.363 . S
C2390 H2367 0.950 . S
C2390 C2389 1.397 . S
C2390 C2391 1.334 . S
C2391 H2368 0.950 . S
C2391 C2390 1.334 . S
C2391 C2392 1.287 . S
C2392 C2391 1.287 . S
C2392 C2393 1.524 . S
C2392 H2411 0.913 . S
C2393 H2369 0.950 . S
C2393 C2392 1.524 . S
C2393 C2394 1.415 . S
C2394 H2370 0.950 . S
C2394 C2389 1.363 . S
C2394 C2393 1.415 . S
C2395 H2371 0.951 . S
C2395 C2396 1.366 . S
C2395 C2397 1.388 . S
C2396 C2395 1.366 . S
C2396 C2400 1.385 . S
C2397 H2372 0.951 . S
C2397 C2395 1.388 . S
C2397 C2398 1.366 . S
C2398 C2397 1.366 . S
C2398 C2399 1.414 . S
C2398 C2401 1.499 . S
C2399 H2373 0.950 . S
C2399 C2398 1.414 . S
C2399 C2400 1.374 . S
C2400 H2374 0.950 . S
C2400 C2396 1.385 . S
C2400 C2399 1.374 . S
C2401 C2398 1.499 . S
C2401 C2402 1.373 . S
C2401 C2403 1.389 . S
C2402 H2375 0.950 . S
C2402 C2388 1.377 . S
C2402 C2401 1.373 . S
C2403 C2387 1.377 . S
C2403 C2401 1.389 . S
C2403 C2404 1.524 . S
C2404 C2403 1.524 . S
C2404 C2405 1.397 . S
C2404 C2409 1.363 . S
C2405 H2376 0.950 . S
C2405 C2404 1.397 . S
C2405 C2406 1.334 . S
C2406 H2377 0.950 . S
C2406 C2405 1.334 . S
C2406 C2407 1.287 . S
C2407 C2406 1.287 . S
C2407 C2408 1.524 . S
C2407 H2410 0.999 . S
C2408 H2378 0.950 . S
C2408 C2407 1.524 . S
C2408 C2409 1.415 . S
C2409 H2379 0.950 . S
C2409 C2404 1.363 . S
C2409 C2408 1.415 . S
H2410 C2407 0.999 . S
H2411 C2392 0.913 . S
H2412 C2430 0.951 . S
H2413 C2432 0.951 . S
H2414 C2434 0.950 . S
H2415 C2435 0.950 . S
H2416 C2437 0.950 . S
H2417 C2440 0.919 1_565 S
H2418 C2441 0.950 . S
H2419 C2443 0.950 . S
H2420 C2444 0.950 . S
H2421 C2445 0.951 . S
H2422 C2447 0.951 . S
H2423 C2449 0.950 . S
H2424 C2450 0.950 . S
H2425 C2452 0.950 . S
H2426 C2455 0.950 . S
H2427 C2456 0.950 . S
H2428 C2458 0.950 . S
H2429 C2459 0.950 . S
C2430 H2412 0.951 . S
C2430 C2431 1.366 . S
C2430 C2432 1.388 . S
C2431 C2430 1.366 . S
C2431 C2435 1.385 . S
C2432 H2413 0.951 . S
C2432 C2430 1.388 . S
C2432 C2433 1.366 . S
C2433 C2432 1.366 . S
C2433 C2434 1.414 . S
C2433 C2436 1.499 1_565 S
C2434 H2414 0.950 . S
C2434 C2433 1.414 . S
C2434 C2435 1.374 . S
C2435 H2415 0.950 . S
C2435 C2431 1.385 . S
C2435 C2434 1.374 . S
C2436 C2433 1.499 1_545 S
C2436 C2437 1.373 . S
C2436 C2438 1.389 . S
C2437 H2416 0.950 . S
C2437 C2436 1.373 . S
C2437 C2453 1.377 . S
C2438 C2436 1.389 . S
C2438 C2439 1.524 . S
C2438 C2452 1.377 . S
C2439 C2438 1.524 . S
C2439 C2440 1.397 . S
C2439 C2444 1.363 . S
C2440 H2417 0.919 1_545 S
C2440 C2439 1.397 . S
C2440 C2441 1.334 1_545 S
C2441 H2418 0.950 . S
C2441 C2440 1.334 1_565 S
C2441 C2442 1.287 1_565 S
C2442 C2441 1.287 1_545 S
C2442 C2443 1.524 . S
C2442 H2461 0.913 . S
C2443 H2419 0.950 . S
C2443 C2442 1.524 . S
C2443 C2444 1.415 . S
C2444 H2420 0.950 . S
C2444 C2439 1.363 . S
C2444 C2443 1.415 . S
C2445 H2421 0.951 . S
C2445 C2446 1.366 . S
C2445 C2447 1.388 . S
C2446 C2445 1.366 . S
C2446 C2450 1.385 . S
C2447 H2422 0.951 . S
C2447 C2445 1.388 . S
C2447 C2448 1.366 . S
C2448 C2447 1.366 . S
C2448 C2449 1.414 . S
C2448 C2451 1.499 . S
C2449 H2423 0.950 . S
C2449 C2448 1.414 . S
C2449 C2450 1.374 . S
C2450 H2424 0.950 . S
C2450 C2446 1.385 . S
C2450 C2449 1.374 . S
C2451 C2448 1.499 . S
C2451 C2452 1.373 . S
C2451 C2453 1.389 . S
C2452 H2425 0.950 . S
C2452 C2438 1.377 . S
C2452 C2451 1.373 . S
C2453 C2437 1.377 . S
C2453 C2451 1.389 . S
C2453 C2454 1.524 . S
C2454 C2453 1.524 . S
C2454 C2455 1.397 . S
C2454 C2459 1.363 . S
C2455 H2426 0.950 . S
C2455 C2454 1.397 . S
C2455 C2456 1.334 . S
C2456 H2427 0.950 . S
C2456 C2455 1.334 . S
C2456 C2457 1.287 . S
C2457 C2456 1.287 . S
C2457 C2458 1.524 . S
C2457 H2460 0.999 . S
C2458 H2428 0.950 . S
C2458 C2457 1.524 . S
C2458 C2459 1.415 . S
C2459 H2429 0.950 . S
C2459 C2454 1.363 . S
C2459 C2458 1.415 . S
H2460 C2457 0.999 . S
H2461 C2442 0.913 . S
H2462 C2480 0.951 . S
H2463 C2482 0.951 . S
H2464 C2484 0.950 . S
H2465 C2485 0.950 . S
H2466 C2487 0.950 . S
H2467 C2490 0.950 . S
H2468 C2491 0.950 1_455 S
H2469 C2493 0.950 . S
H2470 C2494 0.950 . S
H2471 C2495 0.951 . S
H2472 C2497 0.951 . S
H2473 C2499 0.950 . S
H2474 C2500 0.950 . S
H2475 C2502 0.950 . S
H2476 C2505 0.950 . S
H2477 C2506 0.950 . S
H2478 C2508 0.950 . S
H2479 C2509 0.950 . S
C2480 H2462 0.951 . S
C2480 C2481 1.366 . S
C2480 C2482 1.388 1_455 S
C2481 C2480 1.366 . S
C2481 C2485 1.385 . S
C2482 H2463 0.951 . S
C2482 C2480 1.388 1_655 S
C2482 C2483 1.366 . S
C2483 C2482 1.366 . S
C2483 C2484 1.414 1_655 S
C2483 C2486 1.499 . S
C2484 H2464 0.950 . S
C2484 C2483 1.414 1_455 S
C2484 C2485 1.374 . S
C2485 H2465 0.950 . S
C2485 C2481 1.385 . S
C2485 C2484 1.374 . S
C2486 C2483 1.499 . S
C2486 C2487 1.373 . S
C2486 C2488 1.389 . S
C2487 H2466 0.950 . S
C2487 C2486 1.373 . S
C2487 C2503 1.377 . S
C2488 C2486 1.389 . S
C2488 C2489 1.524 . S
C2488 C2502 1.377 . S
C2489 C2488 1.524 . S
C2489 C2490 1.397 . S
C2489 C2494 1.363 . S
C2490 H2467 0.950 . S
C2490 C2489 1.397 . S
C2490 C2491 1.334 . S
C2491 H2468 0.950 1_655 S
C2491 C2490 1.334 . S
C2491 C2492 1.287 . S
C2492 C2491 1.287 . S
C2492 C2493 1.524 . S
C2492 H2511 0.913 . S
C2493 H2469 0.950 . S
C2493 C2492 1.524 . S
C2493 C2494 1.415 . S
C2494 H2470 0.950 . S
C2494 C2489 1.363 . S
C2494 C2493 1.415 . S
C2495 H2471 0.951 . S
C2495 C2496 1.366 . S
C2495 C2497 1.388 . S
C2496 C2495 1.366 . S
C2496 C2500 1.385 . S
C2497 H2472 0.951 . S
C2497 C2495 1.388 . S
C2497 C2498 1.366 . S
C2498 C2497 1.366 . S
C2498 C2499 1.414 . S
C2498 C2501 1.499 . S
C2499 H2473 0.950 . S
C2499 C2498 1.414 . S
C2499 C2500 1.374 . S
C2500 H2474 0.950 . S
C2500 C2496 1.385 . S
C2500 C2499 1.374 . S
C2501 C2498 1.499 . S
C2501 C2502 1.373 . S
C2501 C2503 1.389 . S
C2502 H2475 0.950 . S
C2502 C2488 1.377 . S
C2502 C2501 1.373 . S
C2503 C2487 1.377 . S
C2503 C2501 1.389 . S
C2503 C2504 1.524 . S
C2504 C2503 1.524 . S
C2504 C2505 1.397 . S
C2504 C2509 1.363 . S
C2505 H2476 0.950 . S
C2505 C2504 1.397 . S
C2505 C2506 1.334 . S
C2506 H2477 0.950 . S
C2506 C2505 1.334 . S
C2506 C2507 1.287 . S
C2507 C2506 1.287 . S
C2507 C2508 1.524 . S
C2507 H2510 0.999 . S
C2508 H2478 0.950 . S
C2508 C2507 1.524 . S
C2508 C2509 1.415 . S
C2509 H2479 0.950 . S
C2509 C2504 1.363 . S
C2509 C2508 1.415 . S
H2510 C2507 0.999 . S
H2511 C2492 0.913 . S
H2512 C2530 0.951 . S
H2513 C2532 0.951 . S
H2514 C2534 0.950 . S
H2515 C2535 0.950 . S
H2516 C2537 0.950 . S
H2517 C2540 0.950 . S
H2518 C2541 0.950 . S
H2519 C2543 0.950 . S
H2520 C2544 0.950 . S
H2521 C2545 0.951 . S
H2522 C2547 0.951 . S
H2523 C2549 0.950 . S
H2524 C2550 0.950 . S
H2525 C2552 0.950 . S
H2526 C2555 0.950 . S
H2527 C2556 0.950 . S
H2528 C2558 0.950 . S
H2529 C2559 0.950 . S
C2530 H2512 0.951 . S
C2530 C2531 1.366 . S
C2530 C2532 1.388 . S
C2531 C2530 1.366 . S
C2531 C2535 1.385 . S
C2532 H2513 0.951 . S
C2532 C2530 1.388 . S
C2532 C2533 1.366 . S
C2533 C2532 1.366 . S
C2533 C2534 1.414 . S
C2533 C2536 1.499 . S
C2534 H2514 0.950 . S
C2534 C2533 1.414 . S
C2534 C2535 1.374 . S
C2535 H2515 0.950 . S
C2535 C2531 1.385 . S
C2535 C2534 1.374 . S
C2536 C2533 1.499 . S
C2536 C2537 1.373 . S
C2536 C2538 1.389 . S
C2537 H2516 0.950 . S
C2537 C2536 1.373 . S
C2537 C2553 1.377 . S
C2538 C2536 1.389 . S
C2538 C2539 1.524 . S
C2538 C2552 1.377 . S
C2539 C2538 1.524 . S
C2539 C2540 1.397 . S
C2539 C2544 1.363 . S
C2540 H2517 0.950 . S
C2540 C2539 1.397 . S
C2540 C2541 1.334 . S
C2541 H2518 0.950 . S
C2541 C2540 1.334 . S
C2541 C2542 1.287 . S
C2542 C2541 1.287 . S
C2542 C2543 1.524 . S
C2542 H2561 0.913 . S
C2543 H2519 0.950 . S
C2543 C2542 1.524 . S
C2543 C2544 1.415 . S
C2544 H2520 0.950 . S
C2544 C2539 1.363 . S
C2544 C2543 1.415 . S
C2545 H2521 0.951 . S
C2545 C2546 1.366 . S
C2545 C2547 1.388 . S
C2546 C2545 1.366 . S
C2546 C2550 1.385 . S
C2547 H2522 0.951 . S
C2547 C2545 1.388 . S
C2547 C2548 1.366 . S
C2548 C2547 1.366 . S
C2548 C2549 1.414 . S
C2548 C2551 1.499 . S
C2549 H2523 0.950 . S
C2549 C2548 1.414 . S
C2549 C2550 1.374 . S
C2550 H2524 0.950 . S
C2550 C2546 1.385 . S
C2550 C2549 1.374 . S
C2551 C2548 1.499 . S
C2551 C2552 1.373 . S
C2551 C2553 1.389 . S
C2552 H2525 0.950 . S
C2552 C2538 1.377 . S
C2552 C2551 1.373 . S
C2553 C2537 1.377 . S
C2553 C2551 1.389 . S
C2553 C2554 1.524 . S
C2554 C2553 1.524 . S
C2554 C2555 1.397 . S
C2554 C2559 1.363 . S
C2555 H2526 0.950 . S
C2555 C2554 1.397 . S
C2555 C2556 1.334 . S
C2556 H2527 0.950 . S
C2556 C2555 1.334 . S
C2556 C2557 1.287 . S
C2557 C2556 1.287 . S
C2557 C2558 1.524 . S
C2557 H2560 0.999 . S
C2558 H2528 0.950 . S
C2558 C2557 1.524 . S
C2558 C2559 1.415 . S
C2559 H2529 0.950 . S
C2559 C2554 1.363 . S
C2559 C2558 1.415 . S
H2560 C2557 0.999 . S
H2561 C2542 0.913 . S
H2562 C2580 0.951 . S
H2563 C2582 0.965 . S
H2564 C2584 0.950 . S
H2565 C2585 0.950 . S
H2566 C2587 0.950 . S
H2567 C2590 0.950 . S
H2568 C2591 0.950 . S
H2569 C2593 0.950 . S
H2570 C2594 0.950 . S
H2571 C2595 0.951 . S
H2572 C2597 0.951 . S
H2573 C2599 0.950 . S
H2574 C2600 0.950 . S
H2575 C2602 0.950 . S
H2576 C2605 0.950 . S
H2577 C2606 0.950 . S
H2578 C2608 0.950 . S
H2579 C2609 0.950 . S
C2580 H2562 0.951 . S
C2580 C2581 1.366 . S
C2580 C2582 1.388 . S
C2581 C2580 1.366 . S
C2581 C2585 1.385 . S
C2582 H2563 0.965 . S
C2582 C2580 1.388 . S
C2582 C2583 1.366 . S
C2583 C2582 1.366 . S
C2583 C2584 1.414 . S
C2583 C2586 1.499 1_455 S
C2584 H2564 0.950 . S
C2584 C2583 1.414 . S
C2584 C2585 1.374 . S
C2585 H2565 0.950 . S
C2585 C2581 1.385 . S
C2585 C2584 1.374 . S
C2586 C2583 1.499 1_655 S
C2586 C2587 1.373 . S
C2586 C2588 1.389 . S
C2587 H2566 0.950 . S
C2587 C2586 1.373 . S
C2587 C2603 1.377 . S
C2588 C2586 1.389 . S
C2588 C2589 1.524 . S
C2588 C2602 1.377 . S
C2589 C2588 1.524 . S
C2589 C2590 1.397 . S
C2589 C2594 1.363 . S
C2590 H2567 0.950 . S
C2590 C2589 1.397 . S
C2590 C2591 1.334 . S
C2591 H2568 0.950 . S
C2591 C2590 1.334 . S
C2591 C2592 1.287 . S
C2592 C2591 1.287 . S
C2592 C2593 1.524 . S
C2592 H2611 0.913 . S
C2593 H2569 0.950 . S
C2593 C2592 1.524 . S
C2593 C2594 1.415 . S
C2594 H2570 0.950 . S
C2594 C2589 1.363 . S
C2594 C2593 1.415 . S
C2595 H2571 0.951 . S
C2595 C2596 1.366 . S
C2595 C2597 1.388 . S
C2596 C2595 1.366 . S
C2596 C2600 1.385 . S
C2597 H2572 0.951 . S
C2597 C2595 1.388 . S
C2597 C2598 1.366 . S
C2598 C2597 1.366 . S
C2598 C2599 1.414 . S
C2598 C2601 1.499 . S
C2599 H2573 0.950 . S
C2599 C2598 1.414 . S
C2599 C2600 1.374 . S
C2600 H2574 0.950 . S
C2600 C2596 1.385 . S
C2600 C2599 1.374 . S
C2601 C2598 1.499 . S
C2601 C2602 1.373 . S
C2601 C2603 1.389 . S
C2602 H2575 0.950 . S
C2602 C2588 1.377 . S
C2602 C2601 1.373 . S
C2603 C2587 1.377 . S
C2603 C2601 1.389 . S
C2603 C2604 1.524 . S
C2604 C2603 1.524 . S
C2604 C2605 1.397 . S
C2604 C2609 1.363 . S
C2605 H2576 0.950 . S
C2605 C2604 1.397 . S
C2605 C2606 1.334 . S
C2606 H2577 0.950 . S
C2606 C2605 1.334 . S
C2606 C2607 1.287 . S
C2607 C2606 1.287 . S
C2607 C2608 1.524 . S
C2607 H2610 0.999 . S
C2608 H2578 0.950 . S
C2608 C2607 1.524 . S
C2608 C2609 1.415 . S
C2609 H2579 0.950 . S
C2609 C2604 1.363 . S
C2609 C2608 1.415 . S
H2610 C2607 0.999 . S
H2611 C2592 0.913 . S
H2612 C2630 0.951 . S
H2613 C2632 0.951 . S
H2614 C2634 0.950 . S
H2615 C2635 0.950 . S
H2616 C2637 0.950 . S
H2617 C2640 0.950 . S
H2618 C2641 0.950 . S
H2619 C2643 0.950 . S
H2620 C2644 0.950 . S
H2621 C2645 0.951 . S
H2622 C2647 0.951 . S
H2623 C2649 0.950 . S
H2624 C2650 0.950 . S
H2625 C2652 0.950 . S
H2626 C2655 0.950 . S
H2627 C2656 0.950 . S
H2628 C2658 0.950 . S
H2629 C2659 0.950 . S
C2630 H2612 0.951 . S
C2630 C2631 1.366 . S
C2630 C2632 1.388 . S
C2631 C2630 1.366 . S
C2631 C2635 1.385 . S
C2632 H2613 0.951 . S
C2632 C2630 1.388 . S
C2632 C2633 1.366 . S
C2633 C2632 1.366 . S
C2633 C2634 1.414 . S
C2633 C2636 1.499 . S
C2634 H2614 0.950 . S
C2634 C2633 1.414 . S
C2634 C2635 1.374 . S
C2635 H2615 0.950 . S
C2635 C2631 1.385 . S
C2635 C2634 1.374 . S
C2636 C2633 1.499 . S
C2636 C2637 1.373 . S
C2636 C2638 1.389 . S
C2637 H2616 0.950 . S
C2637 C2636 1.373 . S
C2637 C2653 1.377 . S
C2638 C2636 1.389 . S
C2638 C2639 1.524 . S
C2638 C2652 1.377 . S
C2639 C2638 1.524 . S
C2639 C2640 1.397 . S
C2639 C2644 1.363 . S
C2640 H2617 0.950 . S
C2640 C2639 1.397 . S
C2640 C2641 1.334 . S
C2641 H2618 0.950 . S
C2641 C2640 1.334 . S
C2641 C2642 1.287 . S
C2642 C2641 1.287 . S
C2642 C2643 1.524 . S
C2642 H2661 0.913 . S
C2643 H2619 0.950 . S
C2643 C2642 1.524 . S
C2643 C2644 1.415 . S
C2644 H2620 0.950 . S
C2644 C2639 1.363 . S
C2644 C2643 1.415 . S
C2645 H2621 0.951 . S
C2645 C2646 1.366 . S
C2645 C2647 1.388 . S
C2646 C2645 1.366 . S
C2646 C2650 1.385 . S
C2647 H2622 0.951 . S
C2647 C2645 1.388 . S
C2647 C2648 1.366 . S
C2648 C2647 1.366 . S
C2648 C2649 1.414 . S
C2648 C2651 1.499 . S
C2649 H2623 0.950 . S
C2649 C2648 1.414 . S
C2649 C2650 1.374 . S
C2650 H2624 0.950 . S
C2650 C2646 1.385 . S
C2650 C2649 1.374 . S
C2651 C2648 1.499 . S
C2651 C2652 1.373 . S
C2651 C2653 1.389 . S
C2652 H2625 0.950 . S
C2652 C2638 1.377 . S
C2652 C2651 1.373 . S
C2653 C2637 1.377 . S
C2653 C2651 1.389 . S
C2653 C2654 1.524 . S
C2654 C2653 1.524 . S
C2654 C2655 1.397 . S
C2654 C2659 1.363 . S
C2655 H2626 0.950 . S
C2655 C2654 1.397 . S
C2655 C2656 1.334 . S
C2656 H2627 0.950 . S
C2656 C2655 1.334 . S
C2656 C2657 1.287 . S
C2657 C2656 1.287 . S
C2657 C2658 1.524 . S
C2657 H2660 0.999 . S
C2658 H2628 0.950 . S
C2658 C2657 1.524 . S
C2658 C2659 1.415 . S
C2659 H2629 0.950 . S
C2659 C2654 1.363 . S
C2659 C2658 1.415 . S
H2660 C2657 0.999 . S
H2661 C2642 0.913 . S
H2662 C2680 0.951 . S
H2663 C2682 0.951 . S
H2664 C2684 0.950 . S
H2665 C2685 0.950 . S
H2666 C2687 0.950 . S
H2667 C2690 0.950 . S
H2668 C2691 0.950 . S
H2669 C2693 0.965 1_545 S
H2670 C2694 0.950 . S
H2671 C2695 0.951 . S
H2672 C2697 0.951 . S
H2673 C2699 0.950 . S
H2674 C2700 0.950 . S
H2675 C2702 0.950 . S
H2676 C2705 0.950 . S
H2677 C2706 0.950 . S
H2678 C2708 0.950 . S
H2679 C2709 0.950 . S
C2680 H2662 0.951 . S
C2680 C2681 1.366 . S
C2680 C2682 1.388 . S
C2681 C2680 1.366 . S
C2681 C2685 1.385 . S
C2682 H2663 0.951 . S
C2682 C2680 1.388 . S
C2682 C2683 1.366 . S
C2683 C2682 1.366 . S
C2683 C2684 1.414 . S
C2683 C2686 1.481 1_565 S
C2684 H2664 0.950 . S
C2684 C2683 1.414 . S
C2684 C2685 1.374 . S
C2685 H2665 0.950 . S
C2685 C2681 1.385 . S
C2685 C2684 1.374 . S
C2686 C2683 1.481 1_545 S
C2686 C2687 1.391 . S
C2686 C2688 1.390 . S
C2687 H2666 0.950 . S
C2687 C2686 1.391 . S
C2687 C2703 1.377 . S
C2688 C2686 1.390 . S
C2688 C2689 1.571 . S
C2688 C2702 1.377 . S
C2689 C2688 1.571 . S
C2689 C2690 1.369 1_545 S
C2689 C2694 1.352 . S
C2690 H2667 0.950 . S
C2690 C2689 1.369 1_565 S
C2690 C2691 1.334 . S
C2691 H2668 0.950 . S
C2691 C2690 1.334 . S
C2691 C2692 1.287 . S
C2692 C2691 1.287 . S
C2692 C2693 1.524 . S
C2692 H2711 0.913 . S
C2693 H2669 0.965 1_565 S
C2693 C2692 1.524 . S
C2693 C2694 1.415 1_565 S
C2694 H2670 0.950 . S
C2694 C2689 1.352 . S
C2694 C2693 1.415 1_545 S
C2695 H2671 0.951 . S
C2695 C2696 1.366 . S
C2695 C2697 1.388 . S
C2696 C2695 1.366 . S
C2696 C2700 1.385 . S
C2697 H2672 0.951 . S
C2697 C2695 1.388 . S
C2697 C2698 1.366 . S
C2698 C2697 1.366 . S
C2698 C2699 1.414 . S
C2698 C2701 1.499 . S
C2699 H2673 0.950 . S
C2699 C2698 1.414 . S
C2699 C2700 1.374 . S
C2700 H2674 0.950 . S
C2700 C2696 1.385 . S
C2700 C2699 1.374 . S
C2701 C2698 1.499 . S
C2701 C2702 1.373 . S
C2701 C2703 1.389 . S
C2702 H2675 0.950 . S
C2702 C2688 1.377 . S
C2702 C2701 1.373 . S
C2703 C2687 1.377 . S
C2703 C2701 1.389 . S
C2703 C2704 1.524 . S
C2704 C2703 1.524 . S
C2704 C2705 1.397 . S
C2704 C2709 1.363 . S
C2705 H2676 0.950 . S
C2705 C2704 1.397 . S
C2705 C2706 1.334 . S
C2706 H2677 0.950 . S
C2706 C2705 1.334 . S
C2706 C2707 1.287 . S
C2707 C2706 1.287 . S
C2707 C2708 1.524 . S
C2707 H2710 0.999 . S
C2708 H2678 0.950 . S
C2708 C2707 1.524 . S
C2708 C2709 1.415 . S
C2709 H2679 0.950 . S
C2709 C2704 1.363 . S
C2709 C2708 1.415 . S
H2710 C2707 0.999 . S
H2711 C2692 0.913 . S
H2712 C2730 0.951 . S
H2713 C2732 0.951 . S
H2714 C2734 0.950 . S
H2715 C2735 0.950 . S
H2716 C2737 0.950 . S
H2717 C2740 0.950 . S
H2718 C2741 0.950 . S
H2719 C2743 0.950 . S
H2720 C2744 0.950 . S
H2721 C2745 0.951 . S
H2722 C2747 0.951 . S
H2723 C2749 0.950 . S
H2724 C2750 0.950 . S
H2725 C2752 0.950 . S
H2726 C2755 0.950 . S
H2727 C2756 0.950 . S
H2728 C2758 0.950 . S
H2729 C2759 0.950 . S
C2730 H2712 0.951 . S
C2730 C2731 1.366 . S
C2730 C2732 1.388 . S
C2731 C2730 1.366 . S
C2731 C2735 1.385 . S
C2732 H2713 0.951 . S
C2732 C2730 1.388 . S
C2732 C2733 1.366 . S
C2733 C2732 1.366 . S
C2733 C2734 1.414 . S
C2733 C2736 1.499 . S
C2734 H2714 0.950 . S
C2734 C2733 1.414 . S
C2734 C2735 1.374 . S
C2735 H2715 0.950 . S
C2735 C2731 1.385 . S
C2735 C2734 1.374 . S
C2736 C2733 1.499 . S
C2736 C2737 1.373 . S
C2736 C2738 1.389 . S
C2737 H2716 0.950 . S
C2737 C2736 1.373 . S
C2737 C2753 1.377 . S
C2738 C2736 1.389 . S
C2738 C2739 1.524 . S
C2738 C2752 1.377 . S
C2739 C2738 1.524 . S
C2739 C2740 1.397 . S
C2739 C2744 1.363 . S
C2740 H2717 0.950 . S
C2740 C2739 1.397 . S
C2740 C2741 1.334 . S
C2741 H2718 0.950 . S
C2741 C2740 1.334 . S
C2741 C2742 1.287 . S
C2742 C2741 1.287 . S
C2742 C2743 1.524 . S
C2742 H2761 0.913 . S
C2743 H2719 0.950 . S
C2743 C2742 1.524 . S
C2743 C2744 1.415 . S
C2744 H2720 0.950 . S
C2744 C2739 1.363 . S
C2744 C2743 1.415 . S
C2745 H2721 0.951 . S
C2745 C2746 1.366 . S
C2745 C2747 1.388 . S
C2746 C2745 1.366 . S
C2746 C2750 1.385 . S
C2747 H2722 0.951 . S
C2747 C2745 1.388 . S
C2747 C2748 1.366 . S
C2748 C2747 1.366 . S
C2748 C2749 1.414 . S
C2748 C2751 1.499 . S
C2749 H2723 0.950 . S
C2749 C2748 1.414 . S
C2749 C2750 1.374 . S
C2750 H2724 0.950 . S
C2750 C2746 1.385 . S
C2750 C2749 1.374 . S
C2751 C2748 1.499 . S
C2751 C2752 1.373 . S
C2751 C2753 1.389 . S
C2752 H2725 0.950 . S
C2752 C2738 1.377 . S
C2752 C2751 1.373 . S
C2753 C2737 1.377 . S
C2753 C2751 1.389 . S
C2753 C2754 1.524 . S
C2754 C2753 1.524 . S
C2754 C2755 1.397 . S
C2754 C2759 1.363 . S
C2755 H2726 0.950 . S
C2755 C2754 1.397 . S
C2755 C2756 1.334 . S
C2756 H2727 0.950 . S
C2756 C2755 1.334 . S
C2756 C2757 1.287 . S
C2757 C2756 1.287 . S
C2757 C2758 1.524 . S
C2757 H2760 0.999 . S
C2758 H2728 0.950 . S
C2758 C2757 1.524 . S
C2758 C2759 1.415 . S
C2759 H2729 0.950 . S
C2759 C2754 1.363 . S
C2759 C2758 1.415 . S
H2760 C2757 0.999 . S
H2761 C2742 0.913 . S
H2762 C2780 0.951 . S
H2763 C2782 0.951 . S
H2764 C2784 0.950 . S
H2765 C2785 0.950 . S
H2766 C2787 0.950 . S
H2767 C2790 0.950 . S
H2768 C2791 0.950 . S
H2769 C2793 0.950 . S
H2770 C2794 0.950 . S
H2771 C2795 0.951 . S
H2772 C2797 0.951 . S
H2773 C2799 0.950 . S
H2774 C2800 0.950 . S
H2775 C2802 0.950 . S
H2776 C2805 0.950 . S
H2777 C2806 0.950 . S
H2778 C2808 0.950 . S
H2779 C2809 0.950 . S
C2780 H2762 0.951 . S
C2780 C2781 1.366 . S
C2780 C2782 1.388 . S
C2781 C2780 1.366 . S
C2781 C2785 1.385 . S
C2782 H2763 0.951 . S
C2782 C2780 1.388 . S
C2782 C2783 1.366 . S
C2783 C2782 1.366 . S
C2783 C2784 1.414 . S
C2783 C2786 1.499 . S
C2784 H2764 0.950 . S
C2784 C2783 1.414 . S
C2784 C2785 1.374 . S
C2785 H2765 0.950 . S
C2785 C2781 1.385 . S
C2785 C2784 1.374 . S
C2786 C2783 1.499 . S
C2786 C2787 1.373 . S
C2786 C2788 1.389 . S
C2787 H2766 0.950 . S
C2787 C2786 1.373 . S
C2787 C2803 1.377 . S
C2788 C2786 1.389 . S
C2788 C2789 1.524 . S
C2788 C2802 1.377 . S
C2789 C2788 1.524 . S
C2789 C2790 1.397 . S
C2789 C2794 1.363 . S
C2790 H2767 0.950 . S
C2790 C2789 1.397 . S
C2790 C2791 1.334 . S
C2791 H2768 0.950 . S
C2791 C2790 1.334 . S
C2791 C2792 1.287 . S
C2792 C2791 1.287 . S
C2792 C2793 1.524 . S
C2792 H2811 0.913 . S
C2793 H2769 0.950 . S
C2793 C2792 1.524 . S
C2793 C2794 1.415 . S
C2794 H2770 0.950 . S
C2794 C2789 1.363 . S
C2794 C2793 1.415 . S
C2795 H2771 0.951 . S
C2795 C2796 1.366 . S
C2795 C2797 1.388 . S
C2796 C2795 1.366 . S
C2796 C2800 1.385 . S
C2797 H2772 0.951 . S
C2797 C2795 1.388 . S
C2797 C2798 1.366 . S
C2798 C2797 1.366 . S
C2798 C2799 1.414 . S
C2798 C2801 1.499 . S
C2799 H2773 0.950 . S
C2799 C2798 1.414 . S
C2799 C2800 1.374 . S
C2800 H2774 0.950 . S
C2800 C2796 1.385 . S
C2800 C2799 1.374 . S
C2801 C2798 1.499 . S
C2801 C2802 1.373 . S
C2801 C2803 1.389 . S
C2802 H2775 0.950 . S
C2802 C2788 1.377 . S
C2802 C2801 1.373 . S
C2803 C2787 1.377 . S
C2803 C2801 1.389 . S
C2803 C2804 1.524 . S
C2804 C2803 1.524 . S
C2804 C2805 1.397 . S
C2804 C2809 1.363 . S
C2805 H2776 0.950 . S
C2805 C2804 1.397 . S
C2805 C2806 1.334 . S
C2806 H2777 0.950 . S
C2806 C2805 1.334 . S
C2806 C2807 1.287 . S
C2807 C2806 1.287 . S
C2807 C2808 1.524 . S
C2807 H2810 0.999 . S
C2808 H2778 0.950 . S
C2808 C2807 1.524 . S
C2808 C2809 1.415 . S
C2809 H2779 0.950 . S
C2809 C2804 1.363 . S
C2809 C2808 1.415 . S
H2810 C2807 0.999 . S
H2811 C2792 0.913 . S
H2812 C2830 0.951 . S
H2813 C2832 0.951 . S
H2814 C2834 0.950 . S
H2815 C2835 0.950 . S
H2816 C2837 0.950 . S
H2817 C2840 0.950 . S
H2818 C2841 0.950 . S
H2819 C2843 0.950 . S
H2820 C2844 0.950 . S
H2821 C2845 0.951 . S
H2822 C2847 0.951 . S
H2823 C2849 0.950 . S
H2824 C2850 0.950 . S
H2825 C2852 0.950 . S
H2826 C2855 0.950 . S
H2827 C2856 0.950 . S
H2828 C2858 0.950 . S
H2829 C2859 0.950 . S
C2830 H2812 0.951 . S
C2830 C2831 1.366 . S
C2830 C2832 1.388 . S
C2831 C2830 1.366 . S
C2831 C2835 1.385 . S
C2832 H2813 0.951 . S
C2832 C2830 1.388 . S
C2832 C2833 1.366 . S
C2833 C2832 1.366 . S
C2833 C2834 1.414 . S
C2833 C2836 1.499 . S
C2834 H2814 0.950 . S
C2834 C2833 1.414 . S
C2834 C2835 1.374 . S
C2835 H2815 0.950 . S
C2835 C2831 1.385 . S
C2835 C2834 1.374 . S
C2836 C2833 1.499 . S
C2836 C2837 1.373 . S
C2836 C2838 1.389 . S
C2837 H2816 0.950 . S
C2837 C2836 1.373 . S
C2837 C2853 1.377 . S
C2838 C2836 1.389 . S
C2838 C2839 1.524 . S
C2838 C2852 1.377 . S
C2839 C2838 1.524 . S
C2839 C2840 1.397 . S
C2839 C2844 1.363 . S
C2840 H2817 0.950 . S
C2840 C2839 1.397 . S
C2840 C2841 1.334 . S
C2841 H2818 0.950 . S
C2841 C2840 1.334 . S
C2841 C2842 1.287 . S
C2842 C2841 1.287 . S
C2842 C2843 1.524 . S
C2842 H2861 0.913 . S
C2843 H2819 0.950 . S
C2843 C2842 1.524 . S
C2843 C2844 1.415 . S
C2844 H2820 0.950 . S
C2844 C2839 1.363 . S
C2844 C2843 1.415 . S
C2845 H2821 0.951 . S
C2845 C2846 1.366 . S
C2845 C2847 1.388 . S
C2846 C2845 1.366 . S
C2846 C2850 1.385 . S
C2847 H2822 0.951 . S
C2847 C2845 1.388 . S
C2847 C2848 1.366 . S
C2848 C2847 1.366 . S
C2848 C2849 1.414 . S
C2848 C2851 1.499 . S
C2849 H2823 0.950 . S
C2849 C2848 1.414 . S
C2849 C2850 1.374 . S
C2850 H2824 0.950 . S
C2850 C2846 1.385 . S
C2850 C2849 1.374 . S
C2851 C2848 1.499 . S
C2851 C2852 1.373 . S
C2851 C2853 1.389 . S
C2852 H2825 0.950 . S
C2852 C2838 1.377 . S
C2852 C2851 1.373 . S
C2853 C2837 1.377 . S
C2853 C2851 1.389 . S
C2853 C2854 1.524 . S
C2854 C2853 1.524 . S
C2854 C2855 1.397 . S
C2854 C2859 1.363 . S
C2855 H2826 0.950 . S
C2855 C2854 1.397 . S
C2855 C2856 1.334 . S
C2856 H2827 0.950 . S
C2856 C2855 1.334 . S
C2856 C2857 1.287 . S
C2857 C2856 1.287 . S
C2857 C2858 1.524 . S
C2857 H2860 0.999 . S
C2858 H2828 0.950 . S
C2858 C2857 1.524 . S
C2858 C2859 1.415 . S
C2859 H2829 0.950 . S
C2859 C2854 1.363 . S
C2859 C2858 1.415 . S
H2860 C2857 0.999 . S
H2861 C2842 0.913 . S
H2862 C2880 0.951 . S
H2863 C2882 0.951 . S
H2864 C2884 0.950 . S
H2865 C2885 0.950 . S
H2866 C2887 0.950 . S
H2867 C2890 0.950 . S
H2868 C2891 0.950 . S
H2869 C2893 0.950 . S
H2870 C2894 0.950 . S
H2871 C2895 0.951 . S
H2872 C2897 0.971 . S
H2873 C2899 0.950 . S
H2874 C2900 0.950 . S
H2875 C2902 0.950 . S
H2876 C2905 0.950 1_565 S
H2877 C2906 0.950 . S
H2878 C2908 0.950 . S
H2879 C2909 0.950 . S
C2880 H2862 0.951 . S
C2880 C2881 1.366 . S
C2880 C2882 1.388 . S
C2881 C2880 1.366 . S
C2881 C2885 1.385 . S
C2882 H2863 0.951 . S
C2882 C2880 1.388 . S
C2882 C2883 1.366 . S
C2883 C2882 1.366 . S
C2883 C2884 1.414 . S
C2883 C2886 1.499 . S
C2884 H2864 0.950 . S
C2884 C2883 1.414 . S
C2884 C2885 1.374 . S
C2885 H2865 0.950 . S
C2885 C2881 1.385 . S
C2885 C2884 1.374 . S
C2886 C2883 1.499 . S
C2886 C2887 1.373 . S
C2886 C2888 1.389 . S
C2887 H2866 0.950 . S
C2887 C2886 1.373 . S
C2887 C2903 1.377 . S
C2888 C2886 1.389 . S
C2888 C2889 1.524 . S
C2888 C2902 1.377 . S
C2889 C2888 1.524 . S
C2889 C2890 1.397 . S
C2889 C2894 1.363 . S
C2890 H2867 0.950 . S
C2890 C2889 1.397 . S
C2890 C2891 1.334 . S
C2891 H2868 0.950 . S
C2891 C2890 1.334 . S
C2891 C2892 1.287 . S
C2892 C2891 1.287 . S
C2892 C2893 1.524 . S
C2892 H2911 0.913 . S
C2893 H2869 0.950 . S
C2893 C2892 1.524 . S
C2893 C2894 1.415 . S
C2894 H2870 0.950 . S
C2894 C2889 1.363 . S
C2894 C2893 1.415 . S
C2895 H2871 0.951 . S
C2895 C2896 1.366 1_545 S
C2895 C2897 1.400 . S
C2896 C2895 1.366 1_565 S
C2896 C2900 1.385 . S
C2897 H2872 0.971 . S
C2897 C2895 1.400 . S
C2897 C2898 1.336 1_545 S
C2898 C2897 1.336 1_565 S
C2898 C2899 1.414 . S
C2898 C2901 1.499 . S
C2899 H2873 0.950 . S
C2899 C2898 1.414 . S
C2899 C2900 1.374 . S
C2900 H2874 0.950 . S
C2900 C2896 1.385 . S
C2900 C2899 1.374 . S
C2901 C2898 1.499 . S
C2901 C2902 1.373 . S
C2901 C2903 1.389 . S
C2902 H2875 0.950 . S
C2902 C2888 1.377 . S
C2902 C2901 1.373 . S
C2903 C2887 1.377 . S
C2903 C2901 1.389 . S
C2903 C2904 1.524 1_565 S
C2904 C2903 1.524 1_545 S
C2904 C2905 1.397 . S
C2904 C2909 1.363 . S
C2905 H2876 0.950 1_545 S
C2905 C2904 1.397 . S
C2905 C2906 1.334 . S
C2906 H2877 0.950 . S
C2906 C2905 1.334 . S
C2906 C2907 1.287 . S
C2907 C2906 1.287 . S
C2907 C2908 1.524 . S
C2907 H2910 0.999 . S
C2908 H2878 0.950 . S
C2908 C2907 1.524 . S
C2908 C2909 1.415 . S
C2909 H2879 0.950 . S
C2909 C2904 1.363 . S
C2909 C2908 1.415 . S
H2910 C2907 0.999 . S
H2911 C2892 0.913 . S
H2912 C2930 0.959 . S
H2913 C2932 0.951 1_655 S
H2914 C2934 0.950 . S
H2915 C2935 0.950 . S
H2916 C2937 0.950 . S
H2917 C2940 0.950 . S
H2918 C2941 0.950 . S
H2919 C2943 0.950 . S
H2920 C2944 0.950 1_655 S
H2921 C2945 0.951 . S
H2922 C2947 0.951 . S
H2923 C2949 0.950 . S
H2924 C2950 0.947 1_655 S
H2925 C2952 0.950 . S
H2926 C2955 0.950 . S
H2927 C2956 0.950 . S
H2928 C2958 0.950 . S
H2929 C2959 0.950 . S
C2930 H2912 0.959 . S
C2930 C2931 1.363 1_655 S
C2930 C2932 1.385 1_655 S
C2931 C2930 1.363 1_455 S
C2931 C2935 1.385 . S
C2932 H2913 0.951 1_455 S
C2932 C2930 1.385 1_455 S
C2932 C2933 1.365 . S
C2933 C2932 1.365 . S
C2933 C2934 1.414 . S
C2933 C2936 1.499 . S
C2934 H2914 0.950 . S
C2934 C2933 1.414 . S
C2934 C2935 1.374 . S
C2935 H2915 0.950 . S
C2935 C2931 1.385 . S
C2935 C2934 1.374 . S
C2936 C2933 1.499 . S
C2936 C2937 1.373 . S
C2936 C2938 1.389 . S
C2937 H2916 0.950 . S
C2937 C2936 1.373 . S
C2937 C2953 1.377 . S
C2938 C2936 1.389 . S
C2938 C2939 1.524 . S
C2938 C2952 1.377 . S
C2939 C2938 1.524 . S
C2939 C2940 1.397 . S
C2939 C2944 1.363 . S
C2940 H2917 0.950 . S
C2940 C2939 1.397 . S
C2940 C2941 1.334 . S
C2941 H2918 0.950 . S
C2941 C2940 1.334 . S
C2941 C2942 1.287 . S
C2942 C2941 1.287 . S
C2942 C2943 1.524 . S
C2942 H2961 0.913 . S
C2943 H2919 0.950 . S
C2943 C2942 1.524 . S
C2943 C2944 1.415 . S
C2944 H2920 0.950 1_455 S
C2944 C2939 1.363 . S
C2944 C2943 1.415 . S
C2945 H2921 0.951 . S
C2945 C2946 1.366 . S
C2945 C2947 1.388 . S
C2946 C2945 1.366 . S
C2946 C2950 1.392 . S
C2947 H2922 0.951 . S
C2947 C2945 1.388 . S
C2947 C2948 1.366 . S
C2948 C2947 1.366 . S
C2948 C2949 1.414 1_455 S
C2948 C2951 1.499 . S
C2949 H2923 0.950 . S
C2949 C2948 1.414 1_655 S
C2949 C2950 1.371 1_655 S
C2950 H2924 0.947 1_455 S
C2950 C2946 1.392 . S
C2950 C2949 1.371 1_455 S
C2951 C2948 1.499 . S
C2951 C2952 1.373 . S
C2951 C2953 1.389 . S
C2952 H2925 0.950 . S
C2952 C2938 1.377 . S
C2952 C2951 1.373 . S
C2953 C2937 1.377 . S
C2953 C2951 1.389 . S
C2953 C2954 1.524 . S
C2954 C2953 1.524 . S
C2954 C2955 1.397 1_455 S
C2954 C2959 1.363 . S
C2955 H2926 0.950 . S
C2955 C2954 1.397 1_655 S
C2955 C2956 1.334 . S
C2956 H2927 0.950 . S
C2956 C2955 1.334 . S
C2956 C2957 1.287 . S
C2957 C2956 1.287 . S
C2957 C2958 1.524 1_655 S
C2957 H2960 0.999 . S
C2958 H2928 0.950 . S
C2958 C2957 1.524 1_455 S
C2958 C2959 1.415 . S
C2959 H2929 0.950 . S
C2959 C2954 1.363 . S
C2959 C2958 1.415 . S
H2960 C2957 0.999 . S
H2961 C2942 0.913 . S
H2962 C2980 0.951 . S
H2963 C2982 0.951 . S
H2964 C2984 0.950 . S
H2965 C2985 0.950 . S
H2966 C2987 0.950 . S
H2967 C2990 0.950 . S
H2968 C2991 0.950 . S
H2969 C2993 0.950 . S
H2970 C2994 0.950 . S
H2971 C2995 0.951 . S
H2972 C2997 0.951 . S
H2973 C2999 0.950 . S
H2974 C3000 0.950 . S
H2975 C3002 0.950 . S
H2976 C3005 0.950 . S
H2977 C3006 0.950 . S
H2978 C3008 0.950 . S
H2979 C3009 0.950 . S
C2980 H2962 0.951 . S
C2980 C2981 1.366 . S
C2980 C2982 1.388 . S
C2981 C2980 1.366 . S
C2981 C2985 1.385 . S
C2982 H2963 0.951 . S
C2982 C2980 1.388 . S
C2982 C2983 1.366 . S
C2983 C2982 1.366 . S
C2983 C2984 1.414 . S
C2983 C2986 1.499 . S
C2984 H2964 0.950 . S
C2984 C2983 1.414 . S
C2984 C2985 1.374 . S
C2985 H2965 0.950 . S
C2985 C2981 1.385 . S
C2985 C2984 1.374 . S
C2986 C2983 1.499 . S
C2986 C2987 1.373 . S
C2986 C2988 1.389 . S
C2987 H2966 0.950 . S
C2987 C2986 1.373 . S
C2987 C3003 1.377 . S
C2988 C2986 1.389 . S
C2988 C2989 1.524 . S
C2988 C3002 1.377 . S
C2989 C2988 1.524 . S
C2989 C2990 1.397 . S
C2989 C2994 1.363 . S
C2990 H2967 0.950 . S
C2990 C2989 1.397 . S
C2990 C2991 1.334 . S
C2991 H2968 0.950 . S
C2991 C2990 1.334 . S
C2991 C2992 1.287 . S
C2992 C2991 1.287 . S
C2992 C2993 1.524 . S
C2992 H3011 0.913 . S
C2993 H2969 0.950 . S
C2993 C2992 1.524 . S
C2993 C2994 1.415 . S
C2994 H2970 0.950 . S
C2994 C2989 1.363 . S
C2994 C2993 1.415 . S
C2995 H2971 0.951 . S
C2995 C2996 1.366 . S
C2995 C2997 1.388 . S
C2996 C2995 1.366 . S
C2996 C3000 1.385 . S
C2997 H2972 0.951 . S
C2997 C2995 1.388 . S
C2997 C2998 1.366 . S
C2998 C2997 1.366 . S
C2998 C2999 1.414 . S
C2998 C3001 1.499 . S
C2999 H2973 0.950 . S
C2999 C2998 1.414 . S
C2999 C3000 1.374 . S
C3000 H2974 0.950 . S
C3000 C2996 1.385 . S
C3000 C2999 1.374 . S
C3001 C2998 1.499 . S
C3001 C3002 1.373 . S
C3001 C3003 1.389 . S
C3002 H2975 0.950 . S
C3002 C2988 1.377 . S
C3002 C3001 1.373 . S
C3003 C2987 1.377 . S
C3003 C3001 1.389 . S
C3003 C3004 1.524 . S
C3004 C3003 1.524 . S
C3004 C3005 1.397 . S
C3004 C3009 1.363 . S
C3005 H2976 0.950 . S
C3005 C3004 1.397 . S
C3005 C3006 1.334 . S
C3006 H2977 0.950 . S
C3006 C3005 1.334 . S
C3006 C3007 1.287 . S
C3007 C3006 1.287 . S
C3007 C3008 1.524 . S
C3007 H3010 0.999 . S
C3008 H2978 0.950 . S
C3008 C3007 1.524 . S
C3008 C3009 1.415 . S
C3009 H2979 0.950 . S
C3009 C3004 1.363 . S
C3009 C3008 1.415 . S
H3010 C3007 0.999 . S
H3011 C2992 0.913 . S
H3012 C3030 0.951 . S
H3013 C3032 0.951 . S
H3014 C3034 0.950 . S
H3015 C3035 0.950 . S
H3016 C3037 0.950 . S
H3017 C3040 0.950 . S
H3018 C3041 0.950 . S
H3019 C3043 0.950 . S
H3020 C3044 0.950 . S
H3021 C3045 0.951 . S
H3022 C3047 0.951 . S
H3023 C3049 0.950 . S
H3024 C3050 0.950 . S
H3025 C3052 0.950 1_455 S
H3026 C3055 0.950 . S
H3027 C3056 0.950 . S
H3028 C3058 0.950 . S
H3029 C3059 0.950 . S
C3030 H3012 0.951 . S
C3030 C3031 1.366 . S
C3030 C3032 1.388 . S
C3031 C3030 1.366 . S
C3031 C3035 1.385 . S
C3032 H3013 0.951 . S
C3032 C3030 1.388 . S
C3032 C3033 1.366 . S
C3033 C3032 1.366 . S
C3033 C3034 1.414 . S
C3033 C3036 1.499 . S
C3034 H3014 0.950 . S
C3034 C3033 1.414 . S
C3034 C3035 1.374 . S
C3035 H3015 0.950 . S
C3035 C3031 1.385 . S
C3035 C3034 1.374 . S
C3036 C3033 1.499 . S
C3036 C3037 1.373 . S
C3036 C3038 1.389 1_655 S
C3037 H3016 0.950 . S
C3037 C3036 1.373 . S
C3037 C3053 1.377 . S
C3038 C3036 1.389 1_455 S
C3038 C3039 1.532 . S
C3038 C3052 1.373 1_455 S
C3039 C3038 1.532 . S
C3039 C3040 1.397 . S
C3039 C3044 1.363 . S
C3040 H3017 0.950 . S
C3040 C3039 1.397 . S
C3040 C3041 1.334 . S
C3041 H3018 0.950 . S
C3041 C3040 1.334 . S
C3041 C3042 1.287 . S
C3042 C3041 1.287 . S
C3042 C3043 1.524 . S
C3042 H3061 0.913 . S
C3043 H3019 0.950 . S
C3043 C3042 1.524 . S
C3043 C3044 1.415 . S
C3044 H3020 0.950 . S
C3044 C3039 1.363 . S
C3044 C3043 1.415 . S
C3045 H3021 0.951 . S
C3045 C3046 1.366 . S
C3045 C3047 1.388 . S
C3046 C3045 1.366 . S
C3046 C3050 1.385 . S
C3047 H3022 0.951 . S
C3047 C3045 1.388 . S
C3047 C3048 1.366 . S
C3048 C3047 1.366 . S
C3048 C3049 1.414 . S
C3048 C3051 1.499 . S
C3049 H3023 0.950 . S
C3049 C3048 1.414 . S
C3049 C3050 1.374 . S
C3050 H3024 0.950 . S
C3050 C3046 1.385 . S
C3050 C3049 1.374 . S
C3051 C3048 1.499 . S
C3051 C3052 1.373 . S
C3051 C3053 1.389 . S
C3052 H3025 0.950 1_655 S
C3052 C3038 1.373 1_655 S
C3052 C3051 1.373 . S
C3053 C3037 1.377 . S
C3053 C3051 1.389 . S
C3053 C3054 1.524 . S
C3054 C3053 1.524 . S
C3054 C3055 1.397 . S
C3054 C3059 1.363 . S
C3055 H3026 0.950 . S
C3055 C3054 1.397 . S
C3055 C3056 1.334 . S
C3056 H3027 0.950 . S
C3056 C3055 1.334 . S
C3056 C3057 1.287 . S
C3057 C3056 1.287 . S
C3057 C3058 1.524 . S
C3057 H3060 0.999 . S
C3058 H3028 0.950 . S
C3058 C3057 1.524 . S
C3058 C3059 1.415 . S
C3059 H3029 0.950 . S
C3059 C3054 1.363 . S
C3059 C3058 1.415 . S
H3060 C3057 0.999 . S
H3061 C3042 0.913 . S
H3062 C3080 0.951 . S
H3063 C3082 0.951 . S
H3064 C3084 0.950 . S
H3065 C3085 0.950 . S
H3066 C3087 0.950 . S
H3067 C3090 0.950 . S
H3068 C3091 0.950 . S
H3069 C3093 0.950 . S
H3070 C3094 0.950 . S
H3071 C3095 0.951 . S
H3072 C3097 0.951 . S
H3073 C3099 0.950 . S
H3074 C3100 0.950 . S
H3075 C3102 0.950 . S
H3076 C3105 0.950 . S
H3077 C3106 0.950 . S
H3078 C3108 0.950 . S
H3079 C3109 0.950 . S
C3080 H3062 0.951 . S
C3080 C3081 1.366 . S
C3080 C3082 1.388 . S
C3081 C3080 1.366 . S
C3081 C3085 1.385 . S
C3082 H3063 0.951 . S
C3082 C3080 1.388 . S
C3082 C3083 1.366 . S
C3083 C3082 1.366 . S
C3083 C3084 1.414 . S
C3083 C3086 1.499 . S
C3084 H3064 0.950 . S
C3084 C3083 1.414 . S
C3084 C3085 1.374 . S
C3085 H3065 0.950 . S
C3085 C3081 1.385 . S
C3085 C3084 1.374 . S
C3086 C3083 1.499 . S
C3086 C3087 1.373 . S
C3086 C3088 1.389 . S
C3087 H3066 0.950 . S
C3087 C3086 1.373 . S
C3087 C3103 1.377 . S
C3088 C3086 1.389 . S
C3088 C3089 1.524 . S
C3088 C3102 1.377 . S
C3089 C3088 1.524 . S
C3089 C3090 1.397 . S
C3089 C3094 1.363 . S
C3090 H3067 0.950 . S
C3090 C3089 1.397 . S
C3090 C3091 1.334 . S
C3091 H3068 0.950 . S
C3091 C3090 1.334 . S
C3091 C3092 1.287 . S
C3092 C3091 1.287 . S
C3092 C3093 1.524 . S
C3092 H3111 0.913 . S
C3093 H3069 0.950 . S
C3093 C3092 1.524 . S
C3093 C3094 1.415 . S
C3094 H3070 0.950 . S
C3094 C3089 1.363 . S
C3094 C3093 1.415 . S
C3095 H3071 0.951 . S
C3095 C3096 1.366 . S
C3095 C3097 1.388 . S
C3096 C3095 1.366 . S
C3096 C3100 1.385 . S
C3097 H3072 0.951 . S
C3097 C3095 1.388 . S
C3097 C3098 1.366 . S
C3098 C3097 1.366 . S
C3098 C3099 1.414 . S
C3098 C3101 1.499 . S
C3099 H3073 0.950 . S
C3099 C3098 1.414 . S
C3099 C3100 1.374 . S
C3100 H3074 0.950 . S
C3100 C3096 1.385 . S
C3100 C3099 1.374 . S
C3101 C3098 1.499 . S
C3101 C3102 1.373 . S
C3101 C3103 1.389 . S
C3102 H3075 0.950 . S
C3102 C3088 1.377 . S
C3102 C3101 1.373 . S
C3103 C3087 1.377 . S
C3103 C3101 1.389 . S
C3103 C3104 1.524 . S
C3104 C3103 1.524 . S
C3104 C3105 1.397 . S
C3104 C3109 1.363 . S
C3105 H3076 0.950 . S
C3105 C3104 1.397 . S
C3105 C3106 1.334 . S
C3106 H3077 0.950 . S
C3106 C3105 1.334 . S
C3106 C3107 1.287 . S
C3107 C3106 1.287 . S
C3107 C3108 1.524 . S
C3107 H3110 0.999 . S
C3108 H3078 0.950 . S
C3108 C3107 1.524 . S
C3108 C3109 1.415 . S
C3109 H3079 0.950 . S
C3109 C3104 1.363 . S
C3109 C3108 1.415 . S
H3110 C3107 0.999 . S
H3111 C3092 0.913 . S
H3112 C3130 0.951 . S
H3113 C3132 0.951 . S
H3114 C3134 0.950 . S
H3115 C3135 0.950 . S
H3116 C3137 0.950 . S
H3117 C3140 0.950 . S
H3118 C3141 0.950 . S
H3119 C3143 0.950 . S
H3120 C3144 0.950 . S
H3121 C3145 0.951 . S
H3122 C3147 0.951 . S
H3123 C3149 0.950 . S
H3124 C3150 0.950 . S
H3125 C3152 0.950 . S
H3126 C3155 0.950 . S
H3127 C3156 0.950 . S
H3128 C3158 0.950 . S
H3129 C3159 0.972 . S
C3130 H3112 0.951 . S
C3130 C3131 1.366 . S
C3130 C3132 1.388 . S
C3131 C3130 1.366 . S
C3131 C3135 1.385 . S
C3132 H3113 0.951 . S
C3132 C3130 1.388 . S
C3132 C3133 1.366 . S
C3133 C3132 1.366 . S
C3133 C3134 1.414 . S
C3133 C3136 1.499 . S
C3134 H3114 0.950 . S
C3134 C3133 1.414 . S
C3134 C3135 1.374 . S
C3135 H3115 0.950 . S
C3135 C3131 1.385 . S
C3135 C3134 1.374 . S
C3136 C3133 1.499 . S
C3136 C3137 1.373 . S
C3136 C3138 1.389 . S
C3137 H3116 0.950 . S
C3137 C3136 1.373 . S
C3137 C3153 1.377 . S
C3138 C3136 1.389 . S
C3138 C3139 1.524 . S
C3138 C3152 1.377 . S
C3139 C3138 1.524 . S
C3139 C3140 1.397 . S
C3139 C3144 1.363 . S
C3140 H3117 0.950 . S
C3140 C3139 1.397 . S
C3140 C3141 1.334 . S
C3141 H3118 0.950 . S
C3141 C3140 1.334 . S
C3141 C3142 1.287 . S
C3142 C3141 1.287 . S
C3142 C3143 1.524 . S
C3142 H3161 0.913 . S
C3143 H3119 0.950 . S
C3143 C3142 1.524 . S
C3143 C3144 1.415 . S
C3144 H3120 0.950 . S
C3144 C3139 1.363 . S
C3144 C3143 1.415 . S
C3145 H3121 0.951 . S
C3145 C3146 1.366 . S
C3145 C3147 1.388 . S
C3146 C3145 1.366 . S
C3146 C3150 1.385 . S
C3147 H3122 0.951 . S
C3147 C3145 1.388 . S
C3147 C3148 1.366 . S
C3148 C3147 1.366 . S
C3148 C3149 1.414 . S
C3148 C3151 1.499 . S
C3149 H3123 0.950 . S
C3149 C3148 1.414 . S
C3149 C3150 1.374 . S
C3150 H3124 0.950 . S
C3150 C3146 1.385 . S
C3150 C3149 1.374 . S
C3151 C3148 1.499 . S
C3151 C3152 1.373 . S
C3151 C3153 1.389 . S
C3152 H3125 0.950 . S
C3152 C3138 1.377 . S
C3152 C3151 1.373 . S
C3153 C3137 1.377 . S
C3153 C3151 1.389 . S
C3153 C3154 1.524 1_545 S
C3154 C3153 1.524 1_565 S
C3154 C3155 1.397 . S
C3154 C3159 1.376 1_565 S
C3155 H3126 0.950 . S
C3155 C3154 1.397 . S
C3155 C3156 1.334 . S
C3156 H3127 0.950 . S
C3156 C3155 1.334 . S
C3156 C3157 1.287 . S
C3157 C3156 1.287 . S
C3157 C3158 1.524 . S
C3157 H3160 0.999 . S
C3158 H3128 0.950 . S
C3158 C3157 1.524 . S
C3158 C3159 1.381 1_565 S
C3159 H3129 0.972 . S
C3159 C3154 1.376 1_545 S
C3159 C3158 1.381 1_545 S
H3160 C3157 0.999 . S
H3161 C3142 0.913 . S
H3162 C3180 0.951 . S
H3163 C3182 0.951 . S
H3164 C3184 0.950 . S
H3165 C3185 0.950 . S
H3166 C3187 0.950 . S
H3167 C3190 0.950 . S
H3168 C3191 0.950 . S
H3169 C3193 0.950 . S
H3170 C3194 0.950 . S
H3171 C3195 0.951 . S
H3172 C3197 0.951 . S
H3173 C3199 0.950 . S
H3174 C3200 0.950 . S
H3175 C3202 0.950 . S
H3176 C3205 0.950 . S
H3177 C3206 0.950 . S
H3178 C3208 0.950 . S
H3179 C3209 0.950 . S
C3180 H3162 0.951 . S
C3180 C3181 1.366 . S
C3180 C3182 1.388 . S
C3181 C3180 1.366 . S
C3181 C3185 1.385 . S
C3182 H3163 0.951 . S
C3182 C3180 1.388 . S
C3182 C3183 1.366 . S
C3183 C3182 1.366 . S
C3183 C3184 1.414 . S
C3183 C3186 1.499 . S
C3184 H3164 0.950 . S
C3184 C3183 1.414 . S
C3184 C3185 1.374 . S
C3185 H3165 0.950 . S
C3185 C3181 1.385 . S
C3185 C3184 1.374 . S
C3186 C3183 1.499 . S
C3186 C3187 1.373 . S
C3186 C3188 1.389 . S
C3187 H3166 0.950 . S
C3187 C3186 1.373 . S
C3187 C3203 1.377 . S
C3188 C3186 1.389 . S
C3188 C3189 1.524 . S
C3188 C3202 1.377 . S
C3189 C3188 1.524 . S
C3189 C3190 1.397 . S
C3189 C3194 1.363 . S
C3190 H3167 0.950 . S
C3190 C3189 1.397 . S
C3190 C3191 1.334 . S
C3191 H3168 0.950 . S
C3191 C3190 1.334 . S
C3191 C3192 1.287 . S
C3192 C3191 1.287 . S
C3192 C3193 1.524 . S
C3192 H3211 0.913 . S
C3193 H3169 0.950 . S
C3193 C3192 1.524 . S
C3193 C3194 1.415 . S
C3194 H3170 0.950 . S
C3194 C3189 1.363 . S
C3194 C3193 1.415 . S
C3195 H3171 0.951 . S
C3195 C3196 1.366 . S
C3195 C3197 1.388 . S
C3196 C3195 1.366 . S
C3196 C3200 1.385 . S
C3197 H3172 0.951 . S
C3197 C3195 1.388 . S
C3197 C3198 1.366 . S
C3198 C3197 1.366 . S
C3198 C3199 1.414 . S
C3198 C3201 1.499 . S
C3199 H3173 0.950 . S
C3199 C3198 1.414 . S
C3199 C3200 1.374 . S
C3200 H3174 0.950 . S
C3200 C3196 1.385 . S
C3200 C3199 1.374 . S
C3201 C3198 1.499 . S
C3201 C3202 1.373 . S
C3201 C3203 1.389 . S
C3202 H3175 0.950 . S
C3202 C3188 1.377 . S
C3202 C3201 1.373 . S
C3203 C3187 1.377 . S
C3203 C3201 1.389 . S
C3203 C3204 1.524 . S
C3204 C3203 1.524 . S
C3204 C3205 1.397 . S
C3204 C3209 1.363 . S
C3205 H3176 0.950 . S
C3205 C3204 1.397 . S
C3205 C3206 1.334 . S
C3206 H3177 0.950 . S
C3206 C3205 1.334 . S
C3206 C3207 1.287 . S
C3207 C3206 1.287 . S
C3207 C3208 1.524 . S
C3207 H3210 0.999 . S
C3208 H3178 0.950 . S
C3208 C3207 1.524 . S
C3208 C3209 1.415 . S
C3209 H3179 0.950 . S
C3209 C3204 1.363 . S
C3209 C3208 1.415 . S
H3210 C3207 0.999 . S
H3211 C3192 0.913 . S
H3212 C3230 0.951 . S
H3213 C3232 0.951 . S
H3214 C3234 0.950 . S
H3215 C3235 0.950 . S
H3216 C3237 0.950 . S
H3217 C3240 0.950 . S
H3218 C3241 0.950 . S
H3219 C3243 0.950 . S
H3220 C3244 0.950 . S
H3221 C3245 0.951 . S
H3222 C3247 0.951 . S
H3223 C3249 0.950 . S
H3224 C3250 0.950 . S
H3225 C3252 0.950 . S
H3226 C3255 0.950 . S
H3227 C3256 0.950 . S
H3228 C3258 0.950 . S
H3229 C3259 0.950 . S
C3230 H3212 0.951 . S
C3230 C3231 1.366 . S
C3230 C3232 1.388 . S
C3231 C3230 1.366 . S
C3231 C3235 1.385 . S
C3232 H3213 0.951 . S
C3232 C3230 1.388 . S
C3232 C3233 1.366 . S
C3233 C3232 1.366 . S
C3233 C3234 1.414 . S
C3233 C3236 1.499 . S
C3234 H3214 0.950 . S
C3234 C3233 1.414 . S
C3234 C3235 1.374 . S
C3235 H3215 0.950 . S
C3235 C3231 1.385 . S
C3235 C3234 1.374 . S
C3236 C3233 1.499 . S
C3236 C3237 1.373 . S
C3236 C3238 1.389 . S
C3237 H3216 0.950 . S
C3237 C3236 1.373 . S
C3237 C3253 1.377 . S
C3238 C3236 1.389 . S
C3238 C3239 1.524 . S
C3238 C3252 1.377 . S
C3239 C3238 1.524 . S
C3239 C3240 1.397 . S
C3239 C3244 1.363 . S
C3240 H3217 0.950 . S
C3240 C3239 1.397 . S
C3240 C3241 1.334 . S
C3241 H3218 0.950 . S
C3241 C3240 1.334 . S
C3241 C3242 1.287 . S
C3242 C3241 1.287 . S
C3242 C3243 1.524 . S
C3242 H3261 0.913 . S
C3243 H3219 0.950 . S
C3243 C3242 1.524 . S
C3243 C3244 1.415 . S
C3244 H3220 0.950 . S
C3244 C3239 1.363 . S
C3244 C3243 1.415 . S
C3245 H3221 0.951 . S
C3245 C3246 1.366 . S
C3245 C3247 1.388 . S
C3246 C3245 1.366 . S
C3246 C3250 1.385 . S
C3247 H3222 0.951 . S
C3247 C3245 1.388 . S
C3247 C3248 1.366 . S
C3248 C3247 1.366 . S
C3248 C3249 1.414 . S
C3248 C3251 1.499 . S
C3249 H3223 0.950 . S
C3249 C3248 1.414 . S
C3249 C3250 1.374 . S
C3250 H3224 0.950 . S
C3250 C3246 1.385 . S
C3250 C3249 1.374 . S
C3251 C3248 1.499 . S
C3251 C3252 1.373 . S
C3251 C3253 1.389 . S
C3252 H3225 0.950 . S
C3252 C3238 1.377 . S
C3252 C3251 1.373 . S
C3253 C3237 1.377 . S
C3253 C3251 1.389 . S
C3253 C3254 1.524 . S
C3254 C3253 1.524 . S
C3254 C3255 1.397 . S
C3254 C3259 1.363 . S
C3255 H3226 0.950 . S
C3255 C3254 1.397 . S
C3255 C3256 1.334 . S
C3256 H3227 0.950 . S
C3256 C3255 1.334 . S
C3256 C3257 1.287 . S
C3257 C3256 1.287 . S
C3257 C3258 1.524 . S
C3257 H3260 0.999 . S
C3258 H3228 0.950 . S
C3258 C3257 1.524 . S
C3258 C3259 1.415 . S
C3259 H3229 0.950 . S
C3259 C3254 1.363 . S
C3259 C3258 1.415 . S
H3260 C3257 0.999 . S
H3261 C3242 0.913 . S
H3262 C3280 0.951 . S
H3263 C3282 0.951 . S
H3264 C3284 0.950 . S
H3265 C3285 0.950 . S
H3266 C3287 0.950 . S
H3267 C3290 0.950 . S
H3268 C3291 0.950 . S
H3269 C3293 0.950 . S
H3270 C3294 0.950 . S
H3271 C3295 0.951 . S
H3272 C3297 0.951 . S
H3273 C3299 0.950 . S
H3274 C3300 0.950 . S
H3275 C3302 0.950 . S
H3276 C3305 0.950 . S
H3277 C3306 0.950 . S
H3278 C3308 0.950 . S
H3279 C3309 0.950 . S
C3280 H3262 0.951 . S
C3280 C3281 1.366 . S
C3280 C3282 1.388 . S
C3281 C3280 1.366 . S
C3281 C3285 1.385 . S
C3282 H3263 0.951 . S
C3282 C3280 1.388 . S
C3282 C3283 1.366 . S
C3283 C3282 1.366 . S
C3283 C3284 1.414 . S
C3283 C3286 1.499 . S
C3284 H3264 0.950 . S
C3284 C3283 1.414 . S
C3284 C3285 1.374 . S
C3285 H3265 0.950 . S
C3285 C3281 1.385 . S
C3285 C3284 1.374 . S
C3286 C3283 1.499 . S
C3286 C3287 1.373 . S
C3286 C3288 1.389 . S
C3287 H3266 0.950 . S
C3287 C3286 1.373 . S
C3287 C3303 1.377 . S
C3288 C3286 1.389 . S
C3288 C3289 1.524 . S
C3288 C3302 1.377 . S
C3289 C3288 1.524 . S
C3289 C3290 1.397 . S
C3289 C3294 1.363 . S
C3290 H3267 0.950 . S
C3290 C3289 1.397 . S
C3290 C3291 1.334 . S
C3291 H3268 0.950 . S
C3291 C3290 1.334 . S
C3291 C3292 1.287 . S
C3292 C3291 1.287 . S
C3292 C3293 1.524 . S
C3292 H3311 0.913 . S
C3293 H3269 0.950 . S
C3293 C3292 1.524 . S
C3293 C3294 1.415 . S
C3294 H3270 0.950 . S
C3294 C3289 1.363 . S
C3294 C3293 1.415 . S
C3295 H3271 0.951 . S
C3295 C3296 1.366 . S
C3295 C3297 1.388 . S
C3296 C3295 1.366 . S
C3296 C3300 1.385 . S
C3297 H3272 0.951 . S
C3297 C3295 1.388 . S
C3297 C3298 1.366 . S
C3298 C3297 1.366 . S
C3298 C3299 1.414 . S
C3298 C3301 1.499 . S
C3299 H3273 0.950 . S
C3299 C3298 1.414 . S
C3299 C3300 1.374 . S
C3300 H3274 0.950 . S
C3300 C3296 1.385 . S
C3300 C3299 1.374 . S
C3301 C3298 1.499 . S
C3301 C3302 1.373 . S
C3301 C3303 1.389 . S
C3302 H3275 0.950 . S
C3302 C3288 1.377 . S
C3302 C3301 1.373 . S
C3303 C3287 1.377 . S
C3303 C3301 1.389 . S
C3303 C3304 1.524 . S
C3304 C3303 1.524 . S
C3304 C3305 1.397 . S
C3304 C3309 1.363 . S
C3305 H3276 0.950 . S
C3305 C3304 1.397 . S
C3305 C3306 1.334 . S
C3306 H3277 0.950 . S
C3306 C3305 1.334 . S
C3306 C3307 1.287 . S
C3307 C3306 1.287 . S
C3307 C3308 1.524 . S
C3307 H3310 0.999 . S
C3308 H3278 0.950 . S
C3308 C3307 1.524 . S
C3308 C3309 1.415 . S
C3309 H3279 0.950 . S
C3309 C3304 1.363 . S
C3309 C3308 1.415 . S
H3310 C3307 0.999 . S
H3311 C3292 0.913 . S
H3312 C3330 0.951 . S
H3313 C3332 0.951 . S
H3314 C3334 0.950 . S
H3315 C3335 0.950 . S
H3316 C3337 0.950 . S
H3317 C3340 0.950 . S
H3318 C3341 0.950 . S
H3319 C3343 0.950 . S
H3320 C3344 0.950 . S
H3321 C3345 0.951 . S
H3322 C3347 0.951 . S
H3323 C3349 0.950 . S
H3324 C3350 0.950 . S
H3325 C3352 0.950 . S
H3326 C3355 0.950 . S
H3327 C3356 0.950 . S
H3328 C3358 0.950 . S
H3329 C3359 0.950 . S
C3330 H3312 0.951 . S
C3330 C3331 1.366 . S
C3330 C3332 1.388 . S
C3331 C3330 1.366 . S
C3331 C3335 1.385 . S
C3332 H3313 0.951 . S
C3332 C3330 1.388 . S
C3332 C3333 1.366 . S
C3333 C3332 1.366 . S
C3333 C3334 1.414 . S
C3333 C3336 1.499 . S
C3334 H3314 0.950 . S
C3334 C3333 1.414 . S
C3334 C3335 1.374 . S
C3335 H3315 0.950 . S
C3335 C3331 1.385 . S
C3335 C3334 1.374 . S
C3336 C3333 1.499 . S
C3336 C3337 1.373 . S
C3336 C3338 1.389 . S
C3337 H3316 0.950 . S
C3337 C3336 1.373 . S
C3337 C3353 1.377 . S
C3338 C3336 1.389 . S
C3338 C3339 1.524 . S
C3338 C3352 1.377 . S
C3339 C3338 1.524 . S
C3339 C3340 1.397 . S
C3339 C3344 1.363 . S
C3340 H3317 0.950 . S
C3340 C3339 1.397 . S
C3340 C3341 1.334 . S
C3341 H3318 0.950 . S
C3341 C3340 1.334 . S
C3341 C3342 1.287 . S
C3342 C3341 1.287 . S
C3342 C3343 1.524 . S
C3342 H3361 0.913 . S
C3343 H3319 0.950 . S
C3343 C3342 1.524 . S
C3343 C3344 1.415 . S
C3344 H3320 0.950 . S
C3344 C3339 1.363 . S
C3344 C3343 1.415 . S
C3345 H3321 0.951 . S
C3345 C3346 1.366 . S
C3345 C3347 1.388 . S
C3346 C3345 1.366 . S
C3346 C3350 1.385 . S
C3347 H3322 0.951 . S
C3347 C3345 1.388 . S
C3347 C3348 1.366 . S
C3348 C3347 1.366 . S
C3348 C3349 1.414 . S
C3348 C3351 1.499 . S
C3349 H3323 0.950 . S
C3349 C3348 1.414 . S
C3349 C3350 1.374 . S
C3350 H3324 0.950 . S
C3350 C3346 1.385 . S
C3350 C3349 1.374 . S
C3351 C3348 1.499 . S
C3351 C3352 1.373 . S
C3351 C3353 1.389 . S
C3352 H3325 0.950 . S
C3352 C3338 1.377 . S
C3352 C3351 1.373 . S
C3353 C3337 1.377 . S
C3353 C3351 1.389 . S
C3353 C3354 1.524 . S
C3354 C3353 1.524 . S
C3354 C3355 1.397 . S
C3354 C3359 1.363 . S
C3355 H3326 0.950 . S
C3355 C3354 1.397 . S
C3355 C3356 1.334 . S
C3356 H3327 0.950 . S
C3356 C3355 1.334 . S
C3356 C3357 1.287 . S
C3357 C3356 1.287 . S
C3357 C3358 1.524 . S
C3357 H3360 0.999 . S
C3358 H3328 0.950 . S
C3358 C3357 1.524 . S
C3358 C3359 1.415 . S
C3359 H3329 0.950 . S
C3359 C3354 1.363 . S
C3359 C3358 1.415 . S
H3360 C3357 0.999 . S
H3361 C3342 0.913 . S
H3362 C3380 0.951 . S
H3363 C3382 0.951 . S
H3364 C3384 0.950 . S
H3365 C3385 0.950 . S
H3366 C3387 0.950 . S
H3367 C3390 0.950 . S
H3368 C3391 0.950 . S
H3369 C3393 0.950 . S
H3370 C3394 0.950 . S
H3371 C3395 0.951 . S
H3372 C3397 0.951 . S
H3373 C3399 0.950 . S
H3374 C3400 0.950 . S
H3375 C3402 0.950 . S
H3376 C3405 0.950 . S
H3377 C3406 0.950 . S
H3378 C3408 0.950 . S
H3379 C3409 0.950 . S
C3380 H3362 0.951 . S
C3380 C3381 1.366 . S
C3380 C3382 1.388 . S
C3381 C3380 1.366 . S
C3381 C3385 1.385 . S
C3382 H3363 0.951 . S
C3382 C3380 1.388 . S
C3382 C3383 1.366 . S
C3383 C3382 1.366 . S
C3383 C3384 1.414 . S
C3383 C3386 1.499 . S
C3384 H3364 0.950 . S
C3384 C3383 1.414 . S
C3384 C3385 1.374 . S
C3385 H3365 0.950 . S
C3385 C3381 1.385 . S
C3385 C3384 1.374 . S
C3386 C3383 1.499 . S
C3386 C3387 1.373 . S
C3386 C3388 1.389 . S
C3387 H3366 0.950 . S
C3387 C3386 1.373 . S
C3387 C3403 1.377 . S
C3388 C3386 1.389 . S
C3388 C3389 1.524 . S
C3388 C3402 1.377 . S
C3389 C3388 1.524 . S
C3389 C3390 1.397 . S
C3389 C3394 1.363 . S
C3390 H3367 0.950 . S
C3390 C3389 1.397 . S
C3390 C3391 1.334 . S
C3391 H3368 0.950 . S
C3391 C3390 1.334 . S
C3391 C3392 1.287 . S
C3392 C3391 1.287 . S
C3392 C3393 1.524 . S
C3392 H3411 0.913 . S
C3393 H3369 0.950 . S
C3393 C3392 1.524 . S
C3393 C3394 1.415 . S
C3394 H3370 0.950 . S
C3394 C3389 1.363 . S
C3394 C3393 1.415 . S
C3395 H3371 0.951 . S
C3395 C3396 1.366 . S
C3395 C3397 1.388 . S
C3396 C3395 1.366 . S
C3396 C3400 1.385 . S
C3397 H3372 0.951 . S
C3397 C3395 1.388 . S
C3397 C3398 1.366 . S
C3398 C3397 1.366 . S
C3398 C3399 1.414 . S
C3398 C3401 1.499 . S
C3399 H3373 0.950 . S
C3399 C3398 1.414 . S
C3399 C3400 1.374 . S
C3400 H3374 0.950 . S
C3400 C3396 1.385 . S
C3400 C3399 1.374 . S
C3401 C3398 1.499 . S
C3401 C3402 1.373 . S
C3401 C3403 1.389 . S
C3402 H3375 0.950 . S
C3402 C3388 1.377 . S
C3402 C3401 1.373 . S
C3403 C3387 1.377 . S
C3403 C3401 1.389 . S
C3403 C3404 1.524 . S
C3404 C3403 1.524 . S
C3404 C3405 1.397 . S
C3404 C3409 1.363 . S
C3405 H3376 0.950 . S
C3405 C3404 1.397 . S
C3405 C3406 1.334 . S
C3406 H3377 0.950 . S
C3406 C3405 1.334 . S
C3406 C3407 1.287 . S
C3407 C3406 1.287 . S
C3407 C3408 1.524 . S
C3407 H3410 0.999 . S
C3408 H3378 0.950 . S
C3408 C3407 1.524 . S
C3408 C3409 1.415 . S
C3409 H3379 0.950 . S
C3409 C3404 1.363 . S
C3409 C3408 1.415 . S
H3410 C3407 0.999 . S
H3411 C3392 0.913 . S
H3412 C3430 0.951 . S
H3413 C3432 0.951 . S
H3414 C3434 0.950 . S
H3415 C3435 0.950 . S
H3416 C3437 0.950 . S
H3417 C3440 0.950 . S
H3418 C3441 0.950 . S
H3419 C3443 0.950 . S
H3420 C3444 0.950 . S
H3421 C3445 0.951 . S
H3422 C3447 0.951 . S
H3423 C3449 0.950 . S
H3424 C3450 0.950 . S
H3425 C3452 0.950 . S
H3426 C3455 0.950 . S
H3427 C3456 0.950 . S
H3428 C3458 0.950 . S
H3429 C3459 0.950 . S
C3430 H3412 0.951 . S
C3430 C3431 1.366 . S
C3430 C3432 1.388 . S
C3431 C3430 1.366 . S
C3431 C3435 1.385 . S
C3432 H3413 0.951 . S
C3432 C3430 1.388 . S
C3432 C3433 1.366 . S
C3433 C3432 1.366 . S
C3433 C3434 1.414 . S
C3433 C3436 1.499 . S
C3434 H3414 0.950 . S
C3434 C3433 1.414 . S
C3434 C3435 1.374 . S
C3435 H3415 0.950 . S
C3435 C3431 1.385 . S
C3435 C3434 1.374 . S
C3436 C3433 1.499 . S
C3436 C3437 1.373 . S
C3436 C3438 1.389 . S
C3437 H3416 0.950 . S
C3437 C3436 1.373 . S
C3437 C3453 1.377 . S
C3438 C3436 1.389 . S
C3438 C3439 1.524 . S
C3438 C3452 1.377 . S
C3439 C3438 1.524 . S
C3439 C3440 1.397 . S
C3439 C3444 1.363 . S
C3440 H3417 0.950 . S
C3440 C3439 1.397 . S
C3440 C3441 1.334 . S
C3441 H3418 0.950 . S
C3441 C3440 1.334 . S
C3441 C3442 1.287 . S
C3442 C3441 1.287 . S
C3442 C3443 1.524 . S
C3442 H3461 0.913 . S
C3443 H3419 0.950 . S
C3443 C3442 1.524 . S
C3443 C3444 1.415 . S
C3444 H3420 0.950 . S
C3444 C3439 1.363 . S
C3444 C3443 1.415 . S
C3445 H3421 0.951 . S
C3445 C3446 1.366 . S
C3445 C3447 1.388 . S
C3446 C3445 1.366 . S
C3446 C3450 1.385 . S
C3447 H3422 0.951 . S
C3447 C3445 1.388 . S
C3447 C3448 1.366 . S
C3448 C3447 1.366 . S
C3448 C3449 1.414 . S
C3448 C3451 1.499 . S
C3449 H3423 0.950 . S
C3449 C3448 1.414 . S
C3449 C3450 1.374 . S
C3450 H3424 0.950 . S
C3450 C3446 1.385 . S
C3450 C3449 1.374 . S
C3451 C3448 1.499 . S
C3451 C3452 1.373 . S
C3451 C3453 1.389 . S
C3452 H3425 0.950 . S
C3452 C3438 1.377 . S
C3452 C3451 1.373 . S
C3453 C3437 1.377 . S
C3453 C3451 1.389 . S
C3453 C3454 1.524 . S
C3454 C3453 1.524 . S
C3454 C3455 1.397 . S
C3454 C3459 1.363 . S
C3455 H3426 0.950 . S
C3455 C3454 1.397 . S
C3455 C3456 1.334 . S
C3456 H3427 0.950 . S
C3456 C3455 1.334 . S
C3456 C3457 1.287 . S
C3457 C3456 1.287 . S
C3457 C3458 1.524 . S
C3457 H3460 0.999 . S
C3458 H3428 0.950 . S
C3458 C3457 1.524 . S
C3458 C3459 1.415 . S
C3459 H3429 0.950 . S
C3459 C3454 1.363 . S
C3459 C3458 1.415 . S
H3460 C3457 0.999 . S
H3461 C3442 0.913 . S
H3462 C3480 0.951 . S
H3463 C3482 0.951 . S
H3464 C3484 0.950 . S
H3465 C3485 0.950 . S
H3466 C3487 0.950 . S
H3467 C3490 0.950 . S
H3468 C3491 0.950 . S
H3469 C3493 0.950 . S
H3470 C3494 0.950 . S
H3471 C3495 0.951 . S
H3472 C3497 0.951 . S
H3473 C3499 0.950 . S
H3474 C3500 0.950 . S
H3475 C3502 0.950 . S
H3476 C3505 0.950 . S
H3477 C3506 0.950 . S
H3478 C3508 0.950 . S
H3479 C3509 0.950 . S
C3480 H3462 0.951 . S
C3480 C3481 1.366 . S
C3480 C3482 1.388 . S
C3481 C3480 1.366 . S
C3481 C3485 1.385 . S
C3482 H3463 0.951 . S
C3482 C3480 1.388 . S
C3482 C3483 1.366 . S
C3483 C3482 1.366 . S
C3483 C3484 1.414 . S
C3483 C3486 1.499 . S
C3484 H3464 0.950 . S
C3484 C3483 1.414 . S
C3484 C3485 1.374 . S
C3485 H3465 0.950 . S
C3485 C3481 1.385 . S
C3485 C3484 1.374 . S
C3486 C3483 1.499 . S
C3486 C3487 1.373 . S
C3486 C3488 1.389 . S
C3487 H3466 0.950 . S
C3487 C3486 1.373 . S
C3487 C3503 1.377 . S
C3488 C3486 1.389 . S
C3488 C3489 1.524 . S
C3488 C3502 1.377 . S
C3489 C3488 1.524 . S
C3489 C3490 1.397 . S
C3489 C3494 1.363 . S
C3490 H3467 0.950 . S
C3490 C3489 1.397 . S
C3490 C3491 1.334 . S
C3491 H3468 0.950 . S
C3491 C3490 1.334 . S
C3491 C3492 1.287 . S
C3492 C3491 1.287 . S
C3492 C3493 1.524 . S
C3492 H3511 0.913 . S
C3493 H3469 0.950 . S
C3493 C3492 1.524 . S
C3493 C3494 1.415 . S
C3494 H3470 0.950 . S
C3494 C3489 1.363 . S
C3494 C3493 1.415 . S
C3495 H3471 0.951 . S
C3495 C3496 1.366 . S
C3495 C3497 1.388 . S
C3496 C3495 1.366 . S
C3496 C3500 1.385 . S
C3497 H3472 0.951 . S
C3497 C3495 1.388 . S
C3497 C3498 1.366 . S
C3498 C3497 1.366 . S
C3498 C3499 1.414 . S
C3498 C3501 1.499 . S
C3499 H3473 0.950 . S
C3499 C3498 1.414 . S
C3499 C3500 1.374 . S
C3500 H3474 0.950 . S
C3500 C3496 1.385 . S
C3500 C3499 1.374 . S
C3501 C3498 1.499 . S
C3501 C3502 1.373 . S
C3501 C3503 1.389 . S
C3502 H3475 0.950 . S
C3502 C3488 1.377 . S
C3502 C3501 1.373 . S
C3503 C3487 1.377 . S
C3503 C3501 1.389 . S
C3503 C3504 1.524 . S
C3504 C3503 1.524 . S
C3504 C3505 1.397 . S
C3504 C3509 1.363 . S
C3505 H3476 0.950 . S
C3505 C3504 1.397 . S
C3505 C3506 1.334 . S
C3506 H3477 0.950 . S
C3506 C3505 1.334 . S
C3506 C3507 1.287 . S
C3507 C3506 1.287 . S
C3507 C3508 1.524 . S
C3507 H3510 0.999 . S
C3508 H3478 0.950 . S
C3508 C3507 1.524 . S
C3508 C3509 1.415 . S
C3509 H3479 0.950 . S
C3509 C3504 1.363 . S
C3509 C3508 1.415 . S
H3510 C3507 0.999 . S
H3511 C3492 0.913 . S
H3512 C3530 0.951 . S
H3513 C3532 0.951 . S
H3514 C3534 0.950 . S
H3515 C3535 0.950 . S
H3516 C3537 0.950 . S
H3517 C3540 0.950 . S
H3518 C3541 0.950 . S
H3519 C3543 0.950 . S
H3520 C3544 0.950 . S
H3521 C3545 0.951 . S
H3522 C3547 0.951 . S
H3523 C3549 0.950 . S
H3524 C3550 0.950 . S
H3525 C3552 0.950 . S
H3526 C3555 0.950 . S
H3527 C3556 0.950 . S
H3528 C3558 0.950 . S
H3529 C3559 0.950 . S
C3530 H3512 0.951 . S
C3530 C3531 1.366 . S
C3530 C3532 1.388 . S
C3531 C3530 1.366 . S
C3531 C3535 1.385 . S
C3532 H3513 0.951 . S
C3532 C3530 1.388 . S
C3532 C3533 1.366 . S
C3533 C3532 1.366 . S
C3533 C3534 1.414 . S
C3533 C3536 1.499 . S
C3534 H3514 0.950 . S
C3534 C3533 1.414 . S
C3534 C3535 1.374 . S
C3535 H3515 0.950 . S
C3535 C3531 1.385 . S
C3535 C3534 1.374 . S
C3536 C3533 1.499 . S
C3536 C3537 1.373 . S
C3536 C3538 1.389 . S
C3537 H3516 0.950 . S
C3537 C3536 1.373 . S
C3537 C3553 1.377 . S
C3538 C3536 1.389 . S
C3538 C3539 1.524 . S
C3538 C3552 1.377 . S
C3539 C3538 1.524 . S
C3539 C3540 1.397 . S
C3539 C3544 1.363 . S
C3540 H3517 0.950 . S
C3540 C3539 1.397 . S
C3540 C3541 1.334 . S
C3541 H3518 0.950 . S
C3541 C3540 1.334 . S
C3541 C3542 1.287 . S
C3542 C3541 1.287 . S
C3542 C3543 1.524 . S
C3542 H3561 0.913 . S
C3543 H3519 0.950 . S
C3543 C3542 1.524 . S
C3543 C3544 1.415 . S
C3544 H3520 0.950 . S
C3544 C3539 1.363 . S
C3544 C3543 1.415 . S
C3545 H3521 0.951 . S
C3545 C3546 1.366 . S
C3545 C3547 1.388 . S
C3546 C3545 1.366 . S
C3546 C3550 1.385 . S
C3547 H3522 0.951 . S
C3547 C3545 1.388 . S
C3547 C3548 1.366 . S
C3548 C3547 1.366 . S
C3548 C3549 1.414 . S
C3548 C3551 1.499 . S
C3549 H3523 0.950 . S
C3549 C3548 1.414 . S
C3549 C3550 1.374 . S
C3550 H3524 0.950 . S
C3550 C3546 1.385 . S
C3550 C3549 1.374 . S
C3551 C3548 1.499 . S
C3551 C3552 1.373 . S
C3551 C3553 1.389 . S
C3552 H3525 0.950 . S
C3552 C3538 1.377 . S
C3552 C3551 1.373 . S
C3553 C3537 1.377 . S
C3553 C3551 1.389 . S
C3553 C3554 1.524 . S
C3554 C3553 1.524 . S
C3554 C3555 1.397 . S
C3554 C3559 1.363 . S
C3555 H3526 0.950 . S
C3555 C3554 1.397 . S
C3555 C3556 1.334 . S
C3556 H3527 0.950 . S
C3556 C3555 1.334 . S
C3556 C3557 1.287 . S
C3557 C3556 1.287 . S
C3557 C3558 1.524 . S
C3557 H3560 0.999 . S
C3558 H3528 0.950 . S
C3558 C3557 1.524 . S
C3558 C3559 1.415 . S
C3559 H3529 0.950 . S
C3559 C3554 1.363 . S
C3559 C3558 1.415 . S
H3560 C3557 0.999 . S
H3561 C3542 0.913 . S
H3562 C3580 0.951 . S
H3563 C3582 0.951 . S
H3564 C3584 0.950 . S
H3565 C3585 0.950 . S
H3566 C3587 0.950 . S
H3567 C3590 0.950 . S
H3568 C3591 0.950 . S
H3569 C3593 0.950 . S
H3570 C3594 0.950 . S
H3571 C3595 0.951 . S
H3572 C3597 0.951 . S
H3573 C3599 0.950 . S
H3574 C3600 0.950 . S
H3575 C3602 0.950 . S
H3576 C3605 0.950 . S
H3577 C3606 0.950 . S
H3578 C3608 0.950 . S
H3579 C3609 0.950 . S
C3580 H3562 0.951 . S
C3580 C3581 1.366 . S
C3580 C3582 1.388 . S
C3581 C3580 1.366 . S
C3581 C3585 1.385 . S
C3582 H3563 0.951 . S
C3582 C3580 1.388 . S
C3582 C3583 1.366 . S
C3583 C3582 1.366 . S
C3583 C3584 1.414 . S
C3583 C3586 1.499 . S
C3584 H3564 0.950 . S
C3584 C3583 1.414 . S
C3584 C3585 1.374 . S
C3585 H3565 0.950 . S
C3585 C3581 1.385 . S
C3585 C3584 1.374 . S
C3586 C3583 1.499 . S
C3586 C3587 1.373 . S
C3586 C3588 1.389 . S
C3587 H3566 0.950 . S
C3587 C3586 1.373 . S
C3587 C3603 1.377 . S
C3588 C3586 1.389 . S
C3588 C3589 1.524 . S
C3588 C3602 1.377 . S
C3589 C3588 1.524 . S
C3589 C3590 1.397 . S
C3589 C3594 1.363 . S
C3590 H3567 0.950 . S
C3590 C3589 1.397 . S
C3590 C3591 1.334 . S
C3591 H3568 0.950 . S
C3591 C3590 1.334 . S
C3591 C3592 1.287 . S
C3592 C3591 1.287 . S
C3592 C3593 1.524 . S
C3592 H3611 0.913 . S
C3593 H3569 0.950 . S
C3593 C3592 1.524 . S
C3593 C3594 1.415 . S
C3594 H3570 0.950 . S
C3594 C3589 1.363 . S
C3594 C3593 1.415 . S
C3595 H3571 0.951 . S
C3595 C3596 1.366 . S
C3595 C3597 1.388 . S
C3596 C3595 1.366 . S
C3596 C3600 1.385 . S
C3597 H3572 0.951 . S
C3597 C3595 1.388 . S
C3597 C3598 1.366 . S
C3598 C3597 1.366 . S
C3598 C3599 1.414 . S
C3598 C3601 1.499 . S
C3599 H3573 0.950 . S
C3599 C3598 1.414 . S
C3599 C3600 1.374 . S
C3600 H3574 0.950 . S
C3600 C3596 1.385 . S
C3600 C3599 1.374 . S
C3601 C3598 1.499 . S
C3601 C3602 1.373 . S
C3601 C3603 1.389 . S
C3602 H3575 0.950 . S
C3602 C3588 1.377 . S
C3602 C3601 1.373 . S
C3603 C3587 1.377 . S
C3603 C3601 1.389 . S
C3603 C3604 1.524 . S
C3604 C3603 1.524 . S
C3604 C3605 1.397 . S
C3604 C3609 1.363 . S
C3605 H3576 0.950 . S
C3605 C3604 1.397 . S
C3605 C3606 1.334 . S
C3606 H3577 0.950 . S
C3606 C3605 1.334 . S
C3606 C3607 1.287 . S
C3607 C3606 1.287 . S
C3607 C3608 1.524 . S
C3607 H3610 0.999 . S
C3608 H3578 0.950 . S
C3608 C3607 1.524 . S
C3608 C3609 1.415 . S
C3609 H3579 0.950 . S
C3609 C3604 1.363 . S
C3609 C3608 1.415 . S
H3610 C3607 0.999 . S
H3611 C3592 0.913 . S
H3612 C3630 0.951 . S
H3613 C3632 0.951 . S
H3614 C3634 0.950 . S
H3615 C3635 0.950 . S
H3616 C3637 0.950 . S
H3617 C3640 0.950 . S
H3618 C3641 0.950 . S
H3619 C3643 0.950 . S
H3620 C3644 0.950 . S
H3621 C3645 0.951 . S
H3622 C3647 0.951 . S
H3623 C3649 0.950 . S
H3624 C3650 0.950 . S
H3625 C3652 0.950 . S
H3626 C3655 0.950 . S
H3627 C3656 0.950 . S
H3628 C3658 0.950 . S
H3629 C3659 0.950 . S
C3630 H3612 0.951 . S
C3630 C3631 1.366 . S
C3630 C3632 1.388 . S
C3631 C3630 1.366 . S
C3631 C3635 1.385 . S
C3632 H3613 0.951 . S
C3632 C3630 1.388 . S
C3632 C3633 1.366 . S
C3633 C3632 1.366 . S
C3633 C3634 1.414 . S
C3633 C3636 1.499 . S
C3634 H3614 0.950 . S
C3634 C3633 1.414 . S
C3634 C3635 1.374 . S
C3635 H3615 0.950 . S
C3635 C3631 1.385 . S
C3635 C3634 1.374 . S
C3636 C3633 1.499 . S
C3636 C3637 1.373 . S
C3636 C3638 1.389 . S
C3637 H3616 0.950 . S
C3637 C3636 1.373 . S
C3637 C3653 1.377 . S
C3638 C3636 1.389 . S
C3638 C3639 1.524 . S
C3638 C3652 1.377 . S
C3639 C3638 1.524 . S
C3639 C3640 1.397 . S
C3639 C3644 1.363 . S
C3640 H3617 0.950 . S
C3640 C3639 1.397 . S
C3640 C3641 1.334 . S
C3641 H3618 0.950 . S
C3641 C3640 1.334 . S
C3641 C3642 1.287 . S
C3642 C3641 1.287 . S
C3642 C3643 1.524 . S
C3642 H3661 0.913 . S
C3643 H3619 0.950 . S
C3643 C3642 1.524 . S
C3643 C3644 1.415 . S
C3644 H3620 0.950 . S
C3644 C3639 1.363 . S
C3644 C3643 1.415 . S
C3645 H3621 0.951 . S
C3645 C3646 1.366 . S
C3645 C3647 1.388 . S
C3646 C3645 1.366 . S
C3646 C3650 1.385 . S
C3647 H3622 0.951 . S
C3647 C3645 1.388 . S
C3647 C3648 1.366 . S
C3648 C3647 1.366 . S
C3648 C3649 1.414 . S
C3648 C3651 1.499 . S
C3649 H3623 0.950 . S
C3649 C3648 1.414 . S
C3649 C3650 1.374 . S
C3650 H3624 0.950 . S
C3650 C3646 1.385 . S
C3650 C3649 1.374 . S
C3651 C3648 1.499 . S
C3651 C3652 1.373 . S
C3651 C3653 1.389 . S
C3652 H3625 0.950 . S
C3652 C3638 1.377 . S
C3652 C3651 1.373 . S
C3653 C3637 1.377 . S
C3653 C3651 1.389 . S
C3653 C3654 1.524 . S
C3654 C3653 1.524 . S
C3654 C3655 1.397 . S
C3654 C3659 1.363 . S
C3655 H3626 0.950 . S
C3655 C3654 1.397 . S
C3655 C3656 1.334 . S
C3656 H3627 0.950 . S
C3656 C3655 1.334 . S
C3656 C3657 1.287 . S
C3657 C3656 1.287 . S
C3657 C3658 1.524 . S
C3657 H3660 0.999 . S
C3658 H3628 0.950 . S
C3658 C3657 1.524 . S
C3658 C3659 1.415 . S
C3659 H3629 0.950 . S
C3659 C3654 1.363 . S
C3659 C3658 1.415 . S
H3660 C3657 0.999 . S
H3661 C3642 0.913 . S
H3662 C3680 0.951 . S
H3663 C3682 0.951 . S
H3664 C3684 0.950 . S
H3665 C3685 0.950 . S
H3666 C3687 0.950 . S
H3667 C3690 0.950 . S
H3668 C3691 0.950 . S
H3669 C3693 0.950 . S
H3670 C3694 0.950 . S
H3671 C3695 0.951 . S
H3672 C3697 0.951 . S
H3673 C3699 0.950 . S
H3674 C3700 0.950 . S
H3675 C3702 0.950 . S
H3676 C3705 0.950 . S
H3677 C3706 0.950 . S
H3678 C3708 0.950 . S
H3679 C3709 0.950 . S
C3680 H3662 0.951 . S
C3680 C3681 1.366 . S
C3680 C3682 1.388 . S
C3681 C3680 1.366 . S
C3681 C3685 1.385 . S
C3682 H3663 0.951 . S
C3682 C3680 1.388 . S
C3682 C3683 1.366 . S
C3683 C3682 1.366 . S
C3683 C3684 1.414 . S
C3683 C3686 1.499 . S
C3684 H3664 0.950 . S
C3684 C3683 1.414 . S
C3684 C3685 1.374 . S
C3685 H3665 0.950 . S
C3685 C3681 1.385 . S
C3685 C3684 1.374 . S
C3686 C3683 1.499 . S
C3686 C3687 1.373 . S
C3686 C3688 1.389 . S
C3687 H3666 0.950 . S
C3687 C3686 1.373 . S
C3687 C3703 1.377 . S
C3688 C3686 1.389 . S
C3688 C3689 1.524 . S
C3688 C3702 1.377 . S
C3689 C3688 1.524 . S
C3689 C3690 1.397 . S
C3689 C3694 1.363 . S
C3690 H3667 0.950 . S
C3690 C3689 1.397 . S
C3690 C3691 1.334 . S
C3691 H3668 0.950 . S
C3691 C3690 1.334 . S
C3691 C3692 1.287 . S
C3692 C3691 1.287 . S
C3692 C3693 1.524 . S
C3692 H3711 0.913 . S
C3693 H3669 0.950 . S
C3693 C3692 1.524 . S
C3693 C3694 1.415 . S
C3694 H3670 0.950 . S
C3694 C3689 1.363 . S
C3694 C3693 1.415 . S
C3695 H3671 0.951 . S
C3695 C3696 1.366 . S
C3695 C3697 1.388 . S
C3696 C3695 1.366 . S
C3696 C3700 1.385 . S
C3697 H3672 0.951 . S
C3697 C3695 1.388 . S
C3697 C3698 1.366 . S
C3698 C3697 1.366 . S
C3698 C3699 1.414 . S
C3698 C3701 1.499 . S
C3699 H3673 0.950 . S
C3699 C3698 1.414 . S
C3699 C3700 1.374 . S
C3700 H3674 0.950 . S
C3700 C3696 1.385 . S
C3700 C3699 1.374 . S
C3701 C3698 1.499 . S
C3701 C3702 1.373 . S
C3701 C3703 1.389 . S
C3702 H3675 0.950 . S
C3702 C3688 1.377 . S
C3702 C3701 1.373 . S
C3703 C3687 1.377 . S
C3703 C3701 1.389 . S
C3703 C3704 1.524 . S
C3704 C3703 1.524 . S
C3704 C3705 1.397 . S
C3704 C3709 1.363 . S
C3705 H3676 0.950 . S
C3705 C3704 1.397 . S
C3705 C3706 1.334 . S
C3706 H3677 0.950 . S
C3706 C3705 1.334 . S
C3706 C3707 1.287 . S
C3707 C3706 1.287 . S
C3707 C3708 1.524 . S
C3707 H3710 0.999 . S
C3708 H3678 0.950 . S
C3708 C3707 1.524 . S
C3708 C3709 1.415 . S
C3709 H3679 0.950 . S
C3709 C3704 1.363 . S
C3709 C3708 1.415 . S
H3710 C3707 0.999 . S
H3711 C3692 0.913 . S
H3712 C3730 0.951 . S
H3713 C3732 0.951 . S
H3714 C3734 0.950 . S
H3715 C3735 0.950 . S
H3716 C3737 0.950 . S
H3717 C3740 0.950 . S
H3718 C3741 0.950 . S
H3719 C3743 0.950 . S
H3720 C3744 0.950 . S
H3721 C3745 0.951 . S
H3722 C3747 0.951 . S
H3723 C3749 0.950 . S
H3724 C3750 0.950 . S
H3725 C3752 0.950 . S
H3726 C3755 0.950 . S
H3727 C3756 0.950 . S
H3728 C3758 0.950 . S
H3729 C3759 0.950 . S
C3730 H3712 0.951 . S
C3730 C3731 1.366 . S
C3730 C3732 1.388 . S
C3731 C3730 1.366 . S
C3731 C3735 1.385 . S
C3732 H3713 0.951 . S
C3732 C3730 1.388 . S
C3732 C3733 1.366 . S
C3733 C3732 1.366 . S
C3733 C3734 1.414 . S
C3733 C3736 1.499 . S
C3734 H3714 0.950 . S
C3734 C3733 1.414 . S
C3734 C3735 1.374 . S
C3735 H3715 0.950 . S
C3735 C3731 1.385 . S
C3735 C3734 1.374 . S
C3736 C3733 1.499 . S
C3736 C3737 1.373 . S
C3736 C3738 1.389 . S
C3737 H3716 0.950 . S
C3737 C3736 1.373 . S
C3737 C3753 1.377 . S
C3738 C3736 1.389 . S
C3738 C3739 1.524 . S
C3738 C3752 1.377 . S
C3739 C3738 1.524 . S
C3739 C3740 1.397 . S
C3739 C3744 1.363 . S
C3740 H3717 0.950 . S
C3740 C3739 1.397 . S
C3740 C3741 1.334 . S
C3741 H3718 0.950 . S
C3741 C3740 1.334 . S
C3741 C3742 1.287 . S
C3742 C3741 1.287 . S
C3742 C3743 1.524 . S
C3742 H3761 0.913 . S
C3743 H3719 0.950 . S
C3743 C3742 1.524 . S
C3743 C3744 1.415 . S
C3744 H3720 0.950 . S
C3744 C3739 1.363 . S
C3744 C3743 1.415 . S
C3745 H3721 0.951 . S
C3745 C3746 1.366 . S
C3745 C3747 1.388 . S
C3746 C3745 1.366 . S
C3746 C3750 1.385 . S
C3747 H3722 0.951 . S
C3747 C3745 1.388 . S
C3747 C3748 1.366 . S
C3748 C3747 1.366 . S
C3748 C3749 1.414 . S
C3748 C3751 1.499 . S
C3749 H3723 0.950 . S
C3749 C3748 1.414 . S
C3749 C3750 1.374 . S
C3750 H3724 0.950 . S
C3750 C3746 1.385 . S
C3750 C3749 1.374 . S
C3751 C3748 1.499 . S
C3751 C3752 1.373 . S
C3751 C3753 1.389 . S
C3752 H3725 0.950 . S
C3752 C3738 1.377 . S
C3752 C3751 1.373 . S
C3753 C3737 1.377 . S
C3753 C3751 1.389 . S
C3753 C3754 1.524 . S
C3754 C3753 1.524 . S
C3754 C3755 1.397 . S
C3754 C3759 1.363 . S
C3755 H3726 0.950 . S
C3755 C3754 1.397 . S
C3755 C3756 1.334 . S
C3756 H3727 0.950 . S
C3756 C3755 1.334 . S
C3756 C3757 1.287 . S
C3757 C3756 1.287 . S
C3757 C3758 1.524 . S
C3757 H3760 0.999 . S
C3758 H3728 0.950 . S
C3758 C3757 1.524 . S
C3758 C3759 1.415 . S
C3759 H3729 0.950 . S
C3759 C3754 1.363 . S
C3759 C3758 1.415 . S
H3760 C3757 0.999 . S
H3761 C3742 0.913 . S
C1081 C528 1.640 . S
C1096 C705 1.651 . S
C1131 C562 1.855 . S
C1146 C745 1.857 . S
C1181 C484 1.726 . S
C1196 C797 1.732 . S
C1231 C445 1.537 . S
C1246 C757 1.532 . S
C1296 C785 1.466 . S
C1281 C367 1.459 . S
C1331 C411 1.321 . S
C1346 C717 1.333 . S
C1396 C724 1.671 . S
C1381 C450 1.649 . S
C1446 C764 1.835 . S
C1431 C372 1.828 . S
C1481 C406 1.723 . S
C1496 C784 1.734 . S
C1531 C523 1.534 . S
C1546 C744 1.531 . S
C1581 C567 1.431 . S
C1596 C804 1.442 . S
C1646 C704 1.353 . S
C1631 C489 1.330 . S
C1696 C825 1.650 . S
C1681 C60 1.640 . S
C1731 C94 1.855 . S
C1746 C865 1.857 . S
C1781 C16 1.726 . S
C1796 C917 1.733 . S
C1831 C679 1.537 . S
C1846 C877 1.532 . S
C1881 C601 1.459 . S
C1896 C905 1.466 . S
C1931 C645 1.321 . S
C1946 C837 1.331 . S
C1981 C684 1.648 . S
C1996 C844 1.671 . S
C2031 C606 1.828 . S
C2046 C884 1.835 . S
C2096 C904 1.733 . S
C2081 C640 1.723 . S
C2131 C55 1.533 . S
C2146 C864 1.531 . S
C2196 C924 1.443 . S
C2181 C99 1.431 . S
C2231 C21 1.330 . S
C2246 C824 1.352 . S
C2296 C945 1.650 . S
C2281 C294 1.639 . S
C2331 C328 1.855 . S
C2346 C985 1.857 . S
C2396 C1037 1.732 . S
C2381 C250 1.726 . S
C2446 C997 1.532 . S
C2431 C211 1.537 . S
C2496 C1025 1.465 . S
C2481 C133 1.458 . S
C2531 C177 1.321 . S
C2546 C957 1.332 . S
C2581 C216 1.649 . S
C2596 C964 1.671 . S
C2631 C138 1.828 . S
C2646 C1004 1.835 . S
C2696 C1024 1.733 . S
C2681 C172 1.723 . S
C2731 C289 1.533 . S
C2746 C984 1.531 . S
C2781 C333 1.431 . S
C2796 C1044 1.443 . S
C2831 C255 1.330 . S
C2846 C944 1.353 . S
C2881 C586 1.263 . S
C2896 C728 1.257 . S
C2946 C768 1.899 . S
C2931 C625 1.905 . S
C2981 C664 1.574 . S
C2996 C791 1.580 . S
C3031 C235 1.914 . S
C3046 C751 1.913 . S
C3081 C274 1.563 . S
C3096 C808 1.565 . S
C3146 C711 1.254 . S
C3131 C313 1.260 . S
C3181 C118 1.263 . S
C3196 C848 1.258 . S
C3231 C157 1.905 . S
C3246 C888 1.899 . S
C3281 C196 1.575 . S
C3296 C911 1.581 . S
C3331 C469 1.914 . S
C3346 C871 1.913 . S
C3396 C928 1.563 . S
C3381 C508 1.561 . S
C3431 C547 1.260 . S
C3446 C831 1.253 . S
C3481 C352 1.262 . S
C3496 C968 1.257 . S
C3531 C391 1.905 . S
C3546 C1008 1.898 . S
C3596 C1031 1.581 . S
C3581 C430 1.575 . S
C3631 C1 1.915 . S
C3646 C991 1.914 . S
C3681 C40 1.562 . S
C3696 C1048 1.563 . S
C3731 C79 1.260 . S
C3746 C951 1.254 . S
