# Generated by pormake.
# Topology zzz, (3,6)-cn, num edge types: 1
# Building blocks:
#     Node 0, Type 0, BuildingBlock: MIDCAF_clean_linker_0, # of connection points: 3
#     Node 1, Type 0, BuildingBlock: MIDCAF_clean_linker_0, # of connection points: 3
#     Node 2, Type 0, BuildingBlock: MIDCAF_clean_linker_0, # of connection points: 3
#     Node 3, Type 0, BuildingBlock: MIDCAF_clean_linker_0, # of connection points: 3
#     Node 4, Type 0, BuildingBlock: MIDCAF_clean_linker_0, # of connection points: 3
#     Node 5, Type 0, BuildingBlock: MIDCAF_clean_linker_0, # of connection points: 3
#     Node 6, Type 0, BuildingBlock: MIDCAF_clean_linker_0, # of connection points: 3
#     Node 7, Type 0, BuildingBlock: MIDCAF_clean_linker_0, # of connection points: 3
#     Node 8, Type 1, BuildingBlock: KUMJIN_clean_sbu_1, # of connection points: 6
#     Node 9, Type 1, BuildingBlock: KUMJIN_clean_sbu_1, # of connection points: 6
#     Node 10, Type 1, BuildingBlock: KUMJIN_clean_sbu_1, # of connection points: 6
#     Node 11, Type 1, BuildingBlock: KUMJIN_clean_sbu_1, # of connection points: 6
#     Edge 12, Type (0, 1), BuildingBlock: KIFKEQ_clean_linker_1, # of connection points: 2
#     Edge 13, Type (0, 1), BuildingBlock: KIFKEQ_clean_linker_1, # of connection points: 2
#     Edge 14, Type (0, 1), BuildingBlock: KIFKEQ_clean_linker_1, # of connection points: 2
#     Edge 15, Type (0, 1), BuildingBlock: KIFKEQ_clean_linker_1, # of connection points: 2
#     Edge 16, Type (0, 1), BuildingBlock: KIFKEQ_clean_linker_1, # of connection points: 2
#     Edge 17, Type (0, 1), BuildingBlock: KIFKEQ_clean_linker_1, # of connection points: 2
#     Edge 18, Type (0, 1), BuildingBlock: KIFKEQ_clean_linker_1, # of connection points: 2
#     Edge 19, Type (0, 1), BuildingBlock: KIFKEQ_clean_linker_1, # of connection points: 2
#     Edge 20, Type (0, 1), BuildingBlock: KIFKEQ_clean_linker_1, # of connection points: 2
#     Edge 21, Type (0, 1), BuildingBlock: KIFKEQ_clean_linker_1, # of connection points: 2
#     Edge 22, Type (0, 1), BuildingBlock: KIFKEQ_clean_linker_1, # of connection points: 2
#     Edge 23, Type (0, 1), BuildingBlock: KIFKEQ_clean_linker_1, # of connection points: 2
#     Edge 24, Type (0, 1), BuildingBlock: KIFKEQ_clean_linker_1, # of connection points: 2
#     Edge 25, Type (0, 1), BuildingBlock: KIFKEQ_clean_linker_1, # of connection points: 2
#     Edge 26, Type (0, 1), BuildingBlock: KIFKEQ_clean_linker_1, # of connection points: 2
#     Edge 27, Type (0, 1), BuildingBlock: KIFKEQ_clean_linker_1, # of connection points: 2
#     Edge 28, Type (0, 1), BuildingBlock: KIFKEQ_clean_linker_1, # of connection points: 2
#     Edge 29, Type (0, 1), BuildingBlock: KIFKEQ_clean_linker_1, # of connection points: 2
#     Edge 30, Type (0, 1), BuildingBlock: KIFKEQ_clean_linker_1, # of connection points: 2
#     Edge 31, Type (0, 1), BuildingBlock: KIFKEQ_clean_linker_1, # of connection points: 2
#     Edge 32, Type (0, 1), BuildingBlock: KIFKEQ_clean_linker_1, # of connection points: 2
#     Edge 33, Type (0, 1), BuildingBlock: KIFKEQ_clean_linker_1, # of connection points: 2
#     Edge 34, Type (0, 1), BuildingBlock: KIFKEQ_clean_linker_1, # of connection points: 2
#     Edge 35, Type (0, 1), BuildingBlock: KIFKEQ_clean_linker_1, # of connection points: 2
# Relax obj value: 0.313
# Max RMSD: 0.210
# Mean RMSD: 0.182
data_MOF--net-zzz--node1-KUMJIN_clean_sbu_1--node2-MIDCAF_clean_linker_0--edge1-KIFKEQ_clean_linker_1
_symmetry_space_group_name_H-M    P1
_symmetry_Int_Tables_number       1
_symmetry_cell_setting            triclinic
loop_
_symmetry_equiv_pos_as_xyz
'x, y, z'
_cell_length_a     57.388051
_cell_length_b     57.411527
_cell_length_c     21.313768
_cell_angle_alpha  89.881805
_cell_angle_beta   89.992116
_cell_angle_gamma 90.376823
loop_
_atom_site_label
_atom_site_type_symbol
_atom_site_fract_x
_atom_site_fract_y
_atom_site_fract_z
_atom_type_partial_charge
C0 C 0.80177 0.55919 0.37738 0.0
C1 C 0.81213 0.53699 0.37695 0.0
C2 C 0.80214 0.5199 0.33732 0.0
C3 C 0.78385 0.52546 0.2958 0.0
H4 H 0.70085 0.52675 0.18175 0.0
H5 H 0.66403 0.52051 0.12467 0.0
H6 H 0.67707 0.58348 0.01832 0.0
H7 H 0.71207 0.59021 0.07677 0.0
H8 H 0.76253 0.60295 0.03377 0.0
H9 H 0.7894 0.60896 0.9467 0.0
H10 H 0.84511 0.58018 0.05894 0.0
H11 H 0.81881 0.57555 0.14599 0.0
H12 H 0.77756 0.5825 0.33395 0.0
H13 H 0.80887 0.57305 0.40607 0.0
H14 H 0.80914 0.50245 0.33609 0.0
H15 H 0.77815 0.51255 0.26205 0.0
N16 N 0.74165 0.55285 0.21558 0.0
N17 N 0.7491 0.57442 0.12344 0.0
N18 N 0.77879 0.56932 0.19634 0.0
C19 C 0.73391 0.5621 0.15969 0.0
C20 C 0.77143 0.57807 0.14103 0.0
C21 C 0.76431 0.55694 0.23413 0.0
C22 C 0.7097 0.55892 0.13405 0.0
C23 C 0.69541 0.5395 0.14732 0.0
C24 C 0.6744 0.53579 0.1137 0.0
C25 C 0.66717 0.55142 0.06602 0.0
C26 C 0.68127 0.57114 0.05497 0.0
C27 C 0.70183 0.57489 0.0885 0.0
C28 C 0.78837 0.58797 0.09594 0.0
C29 C 0.78072 0.59865 0.04031 0.0
C30 C 0.79612 0.602 0.99029 0.0
C31 C 0.81928 0.59422 0.99458 0.0
C32 C 0.82748 0.58638 0.05316 0.0
C33 C 0.81221 0.58346 0.10341 0.0
C34 C 0.77485 0.54815 0.29326 0.0
C35 C 0.78351 0.56464 0.33618 0.0
C36 C 0.96309 0.82928 0.30426 0.0
C37 C 0.9819 0.82722 0.34613 0.0
C38 C 0.9961 0.80724 0.34057 0.0
C39 C 0.99168 0.79015 0.29409 0.0
H40 H 0.94511 0.70188 0.1487 0.0
H41 H 0.95182 0.66587 0.09088 0.0
H42 H 0.02145 0.68936 0.04603 0.0
H43 H 0.01458 0.72539 0.10458 0.0
H44 H 0.93881 0.75008 0.98758 0.0
H45 H 0.93017 0.76852 0.88741 0.0
H46 H 0.9312 0.83591 0.97726 0.0
H47 H 0.93946 0.81759 0.07727 0.0
H48 H 0.94416 0.81526 0.22706 0.0
H49 H 0.95191 0.84439 0.30549 0.0
H50 H 0.01068 0.8048 0.37207 0.0
H51 H 1.00316 0.77533 0.29047 0.0
N52 N 0.97695 0.75411 0.19387 0.0
N53 N 0.95926 0.7499 0.09459 0.0
N54 N 0.95639 0.78517 0.14768 0.0
C55 C 0.97181 0.74069 0.14218 0.0
C56 C 0.95155 0.77204 0.09656 0.0
C57 C 0.96881 0.7766 0.19691 0.0
C58 C 0.97953 0.71627 0.13298 0.0
C59 C 0.96228 0.69881 0.12931 0.0
C60 C 0.96597 0.67835 0.09479 0.0
C61 C 0.98704 0.67474 0.06243 0.0
C62 C 1.00502 0.69136 0.07039 0.0
C63 C 1.00124 0.71194 0.10485 0.0
C64 C 0.9406 0.78244 0.04019 0.0
C65 C 0.93659 0.76879 0.98638 0.0
C66 C 0.93156 0.77933 0.92887 0.0
C67 C 0.93044 0.80369 0.92402 0.0
C68 C 0.93184 0.81707 0.97918 0.0
C69 C 0.93684 0.80655 0.03669 0.0
C70 C 0.97308 0.79272 0.25151 0.0
C71 C 0.95877 0.81245 0.25828 0.0
C72 C 0.72514 0.98699 0.38976 0.0
C73 C 0.71056 1.00601 0.37606 0.0
C74 C 0.71682 0.02053 0.32516 0.0
C75 C 0.73604 0.01527 0.28679 0.0
H76 H 0.82073 0.02293 0.17703 0.0
H77 H 0.85715 0.03067 0.11964 0.0
H78 H 0.86401 0.95691 0.08411 0.0
H79 H 0.82886 0.94945 0.143 0.0
H80 H 0.77925 0.93566 0.05752 0.0
H81 H 0.75643 0.92344 0.967 0.0
H82 H 0.69327 0.94145 0.06617 0.0
H83 H 0.71582 0.95255 0.15644 0.0
H84 H 0.75384 0.96583 0.35996 0.0
H85 H 0.72088 0.9752 0.42784 0.0
H86 H 0.7063 0.03549 0.31336 0.0
H87 H 0.73924 0.02577 0.24535 0.0
N88 N 0.78618 0.99101 0.23349 0.0
N89 N 0.78544 0.96492 0.14832 0.0
N90 N 0.75209 0.96965 0.20918 0.0
C91 C 0.79735 0.98041 0.18426 0.0
C92 C 0.76291 0.95951 0.15996 0.0
C93 C 0.76342 0.98512 0.24649 0.0
C94 C 0.82186 0.98557 0.16489 0.0
C95 C 0.83059 0.00841 0.1589 0.0
C96 C 0.8513 0.01281 0.12484 0.0
C97 C 0.86374 0.99449 0.096 0.0
C98 C 0.85551 0.97161 0.10575 0.0
C99 C 0.83508 0.96728 0.13963 0.0
C100 C 0.74938 0.94591 0.11341 0.0
C101 C 0.76042 0.9363 0.06057 0.0
C102 C 0.74733 0.92936 1.00847 0.0
C103 C 0.72301 0.93212 1.00804 0.0
C104 C 0.71193 0.93897 0.06403 0.0
C105 C 0.72496 0.94565 0.11617 0.0
C106 C 0.74965 0.99546 0.29839 0.0
C107 C 0.74425 0.9817 0.35114 0.0
C108 C 0.57436 0.70531 0.01834 0.0
C109 C 0.57896 0.71628 0.96053 0.0
C110 C 0.58152 0.74063 0.95902 0.0
C111 C 0.57688 0.75385 0.01246 0.0
H112 H 0.57461 0.8227 0.10804 0.0
H113 H 0.56793 0.85859 0.05178 0.0
H114 H 0.49478 0.85482 0.09946 0.0
H115 H 0.50167 0.81777 0.15444 0.0
H116 H 0.50653 0.72271 0.20908 0.0
H117 H 0.50005 0.69245 0.28742 0.0
H118 H 0.54314 0.7305 0.41856 0.0
H119 H 0.54976 0.7608 0.33873 0.0
H120 H 0.56458 0.70948 0.11426 0.0
H121 H 0.57215 0.68659 0.02128 0.0
H122 H 0.58547 0.74954 0.91542 0.0
H123 H 0.57747 0.77265 1.00849 0.0
N124 N 0.55519 0.77979 0.11111 0.0
N125 N 0.53358 0.7815 0.20501 0.0
N126 N 0.54989 0.7461 0.17066 0.0
C127 C 0.54271 0.79239 0.15289 0.0
C128 C 0.53757 0.75813 0.21408 0.0
C129 C 0.55886 0.75676 0.1193 0.0
C130 C 0.53874 0.81735 0.13634 0.0
C131 C 0.55716 0.82982 0.10815 0.0
C132 C 0.55327 0.85062 0.07565 0.0
C133 C 0.53072 0.85994 0.07011 0.0
C134 C 0.51237 0.84816 0.10156 0.0
C135 C 0.51633 0.82711 0.13432 0.0
C136 C 0.52818 0.74448 0.26807 0.0
C137 C 0.51386 0.72508 0.25551 0.0
C138 C 0.51026 0.70759 0.30062 0.0
C139 C 0.52115 0.70871 0.35979 0.0
C140 C 0.53463 0.72878 0.37347 0.0
C141 C 0.53809 0.74643 0.32816 0.0
C142 C 0.56959 0.74295 0.06839 0.0
C143 C 0.56975 0.71851 0.07175 0.0
C144 C 0.19349 0.47314 0.99614 0.0
C145 C 0.1974 0.48893 0.94668 0.0
C146 C 0.21903 0.50091 0.94551 0.0
C147 C 0.23605 0.49717 0.99256 0.0
H148 H 0.30012 0.52304 0.19332 0.0
H149 H 0.33695 0.52925 0.24803 0.0
H150 H 0.36171 0.46321 0.17888 0.0
H151 H 0.32443 0.45694 0.12587 0.0
H152 H 0.27656 0.45429 0.30965 0.0
H153 H 0.25896 0.44753 0.412 0.0
H154 H 0.19096 0.44404 0.32559 0.0
H155 H 0.20843 0.45058 0.22326 0.0
H156 H 0.20603 0.45718 0.0796 0.0
H157 H 0.17707 0.46385 1.00014 0.0
H158 H 0.22288 0.51313 0.90812 0.0
H159 H 0.2523 0.50683 0.99048 0.0
N160 N 0.27119 0.48567 0.09588 0.0
N161 N 0.27612 0.47054 0.19793 0.0
N162 N 0.24013 0.46687 0.1483 0.0
C163 C 0.28508 0.48165 0.1473 0.0
C164 C 0.25377 0.46311 0.19916 0.0
C165 C 0.24844 0.47791 0.09617 0.0
C166 C 0.30954 0.48983 0.15358 0.0
C167 C 0.31392 0.51047 0.18704 0.0
C168 C 0.33507 0.51385 0.21922 0.0
C169 C 0.35244 0.49656 0.21926 0.0
C170 C 0.34871 0.47675 0.18139 0.0
C171 C 0.32751 0.47338 0.14945 0.0
C172 C 0.24382 0.45367 0.25828 0.0
C173 C 0.25789 0.45152 0.3121 0.0
C174 C 0.24786 0.44757 0.3709 0.0
C175 C 0.22358 0.44559 0.37709 0.0
C176 C 0.20977 0.44535 0.32252 0.0
C177 C 0.21978 0.44934 0.26371 0.0
C178 C 0.2318 0.4815 0.04233 0.0
C179 C 0.21026 0.46947 0.04264 0.0
C180 C 0.01507 0.20909 0.98614 0.0
C181 C 0.0258 0.21033 0.92677 0.0
C182 C 0.03928 0.23041 0.91295 0.0
C183 C 0.04285 0.248 0.95828 0.0
H184 H 0.00844 0.32146 0.12471 0.0
H185 H 1.00252 0.35887 0.17804 0.0
H186 H 0.07536 0.36023 0.2296 0.0
H187 H 0.08112 0.3238 0.17498 0.0
H188 H 0.07523 0.27417 0.28636 0.0
H189 H 0.07991 0.25107 0.3814 0.0
H190 H 0.07038 0.18809 0.27361 0.0
H191 H 0.06605 0.21097 0.17872 0.0
H192 H 0.01146 0.22405 0.07766 0.0
H193 H 1.00487 0.19395 0.99951 0.0
H194 H 0.04766 0.23223 0.86769 0.0
H195 H 0.05446 0.26242 0.94752 0.0
N196 N 0.03959 0.28343 0.07863 0.0
N197 N 0.05872 0.28159 0.17639 0.0
N198 N 0.05258 0.24753 0.11937 0.0
C199 C 0.04817 0.29441 0.13119 0.0
C200 C 0.06099 0.25828 0.17116 0.0
C201 C 0.04217 0.25972 0.07261 0.0
C202 C 0.04531 0.31972 0.14487 0.0
C203 C 0.02331 0.33035 0.14514 0.0
C204 C 0.01988 0.35161 0.17701 0.0
C205 C 0.03837 0.36275 0.20942 0.0
C206 C 0.06062 0.3527 0.20508 0.0
C207 C 0.06399 0.33163 0.17347 0.0
C208 C 0.06953 0.24444 0.22511 0.0
C209 C 0.07476 0.25536 0.28253 0.0
C210 C 0.07748 0.24215 0.33711 0.0
C211 C 0.0751 0.21781 0.33526 0.0
C212 C 0.07241 0.20682 0.27677 0.0
C213 C 0.06967 0.22 0.22224 0.0
C214 C 0.0331 0.24591 0.01856 0.0
C215 C 0.01878 0.22648 0.03121 0.0
C216 C 0.29787 0.02876 0.93628 0.0
C217 C 0.31033 0.04728 0.90795 0.0
C218 C 0.30269 0.07012 0.91923 0.0
C219 C 0.28456 0.07448 0.96148 0.0
H220 H 0.20943 0.01831 0.14341 0.0
H221 H 0.17415 0.00992 0.20512 0.0
H222 H 0.15995 0.08359 0.21539 0.0
H223 H 0.19482 0.09168 0.15383 0.0
H224 H 0.25507 0.08454 0.2778 0.0
H225 H 0.2844 0.0887 0.35968 0.0
H226 H 0.33665 0.10288 0.21836 0.0
H227 H 0.30745 0.0994 0.13724 0.0
H228 H 0.27177 0.01875 1.00435 0.0
H229 H 0.30331 0.01095 0.92888 0.0
H230 H 0.31155 0.0848 0.89766 0.0
H231 H 0.28039 0.09241 0.97234 0.0
N232 N 0.23863 0.05497 0.0673 0.0
N233 N 0.24175 0.07421 0.16483 0.0
N234 N 0.2732 0.07462 0.09568 0.0
C235 C 0.22887 0.06165 0.12334 0.0
C236 C 0.26392 0.08066 0.1516 0.0
C237 C 0.26098 0.06195 0.05321 0.0
C238 C 0.20467 0.05562 0.14268 0.0
C239 C 0.19819 0.03256 0.15674 0.0
C240 C 0.17818 0.02784 0.19314 0.0
C241 C 0.16414 0.04608 0.2161 0.0
C242 C 0.16999 0.06901 0.19835 0.0
C243 C 0.19001 0.07369 0.16268 0.0
C244 C 0.27915 0.09068 0.20082 0.0
C245 C 0.27264 0.08944 0.26436 0.0
C246 C 0.28946 0.0918 0.3114 0.0
C247 C 0.31301 0.09535 0.29554 0.0
C248 C 0.31874 0.10001 0.23257 0.0
C249 C 0.30196 0.09771 0.18568 0.0
C250 C 0.27333 0.0562 0.99378 0.0
C251 C 0.27961 0.03319 0.97908 0.0
C252 C 0.44327 0.31841 0.31656 0.0
C253 C 0.43828 0.30503 0.37043 0.0
C254 C 0.43455 0.28094 0.36344 0.0
C255 C 0.43833 0.27019 0.30555 0.0
H256 H 0.44133 0.20349 0.17454 0.0
H257 H 0.44878 0.16727 0.22982 0.0
H258 H 0.52284 0.18035 0.21639 0.0
H259 H 0.51504 0.21717 0.16185 0.0
H260 H 0.47898 0.26886 0.97171 0.0
H261 H 0.48758 0.29934 0.89308 0.0
H262 H 0.50084 0.34832 0.0427 0.0
H263 H 0.49305 0.31824 0.11929 0.0
H264 H 0.45223 0.3185 0.21949 0.0
H265 H 0.44646 0.33697 0.31967 0.0
H266 H 0.4301 0.27017 0.40352 0.0
H267 H 0.43683 0.25141 0.30282 0.0
N268 N 0.45982 0.24866 0.19856 0.0
N269 N 0.48081 0.25131 0.10356 0.0
N270 N 0.46399 0.28461 0.14901 0.0
C271 C 0.47221 0.23817 0.15254 0.0
C272 C 0.47627 0.27481 0.10154 0.0
C273 C 0.45566 0.27178 0.19746 0.0
C274 C 0.47757 0.21311 0.16281 0.0
C275 C 0.45925 0.19814 0.18097 0.0
C276 C 0.46358 0.1773 0.21319 0.0
C277 C 0.48646 0.17075 0.22888 0.0
C278 C 0.50494 0.18489 0.20638 0.0
C279 C 0.50055 0.20582 0.17375 0.0
C280 C 0.48542 0.29099 0.05196 0.0
C281 C 0.48439 0.28599 0.98739 0.0
C282 C 0.48899 0.30362 0.94238 0.0
C283 C 0.49495 0.32655 0.961 0.0
C284 C 0.49676 0.33101 0.0257 0.0
C285 C 0.49213 0.31363 0.07007 0.0
C286 C 0.44577 0.28337 0.25341 0.0
C287 C 0.44683 0.30772 0.25872 0.0
Eu288 Eu 0.98711 0.02404 0.59808 0.0
C289 C 0.08671 0.03365 0.72952 0.0
N290 N 0.0785 0.01859 0.68569 0.0
C291 C 0.11403 0.02267 0.62716 0.0
C292 C 0.10868 0.04452 0.72273 0.0
C293 C 0.09228 0.01209 0.63662 0.0
C294 C 0.12213 0.03924 0.66991 0.0
C295 C 0.0821 0.05159 0.83158 0.0
C296 C 0.07369 0.03711 0.78313 0.0
C297 C 0.10354 0.06319 0.82406 0.0
C298 C 0.1168 0.05969 0.76968 0.0
Eu299 Eu 0.04076 1.00269 0.70295 0.0
N300 N 0.05296 0.02585 0.78856 0.0
C301 C 0.06879 0.05373 0.88632 0.0
C302 C 0.04047 0.02688 0.84301 0.0
C303 C 0.048 0.0411 0.89232 0.0
H304 H 0.08673 0.99845 0.60516 0.0
H305 H 0.03779 0.0423 0.93487 0.0
H306 H 0.94263 0.99632 0.66635 0.0
H307 H 0.01811 0.01783 0.35489 0.0
H308 H 0.02441 0.01713 0.84758 0.0
H309 H 0.07461 0.06472 0.92456 0.0
H310 H 0.01257 0.03677 0.45704 0.0
H311 H 0.12466 0.01777 0.58742 0.0
H312 H 0.11021 0.07458 0.86045 0.0
H313 H 0.13355 0.06835 0.76506 0.0
H314 H 0.91606 0.96304 0.6447 0.0
H315 H 0.13909 0.04723 0.66289 0.0
H316 H 0.99756 0.9809 0.33109 0.0
N317 N 0.96102 0.99284 0.58051 0.0
C318 C 0.96248 0.98198 0.52412 0.0
C319 C 0.92913 0.9681 0.61059 0.0
C320 C 0.94791 0.96283 0.50998 0.0
C321 C 0.9441 0.98687 0.62275 0.0
C322 C 0.93122 0.95584 0.55429 0.0
N323 N 0.99158 0.00932 0.49462 0.0
C324 C 1.00455 0.02 0.44899 0.0
C325 C 0.98049 0.97914 0.4216 0.0
C326 C 0.97861 0.9901 0.48058 0.0
C327 C 0.99558 0.9888 0.37689 0.0
C328 C 0.00728 0.0096 0.39021 0.0
H329 H 0.91973 0.94118 0.54521 0.0
H330 H 0.93974 0.93628 0.44112 0.0
H331 H 0.96825 0.95058 0.36368 0.0
O332 O 0.96695 0.04493 0.53199 0.0
O333 O 0.99182 0.98577 0.62818 0.0
O334 O 0.03059 0.98199 0.61672 0.0
O335 O 0.95674 0.0436 0.62917 0.0
O336 O 0.02324 0.03647 0.56517 0.0
O337 O 0.04509 1.00537 0.59676 0.0
O338 O 0.03378 0.97355 0.76528 0.0
O339 O 0.02746 0.03935 0.72392 0.0
O340 O 0.01125 0.05317 0.63183 0.0
O341 O 0.06809 0.97742 0.72502 0.0
O342 O 1.00451 0.99749 0.74689 0.0
O343 O 0.98023 0.02504 0.70248 0.0
C344 C 0.00967 0.97324 0.61032 0.0
C345 C 0.95371 0.07952 0.57886 0.0
C346 C 0.97476 0.1165 0.57289 0.0
C347 C 0.95494 0.1279 0.59613 0.0
C348 C 0.93406 0.0911 0.60173 0.0
C349 C 0.93472 0.11522 0.61031 0.0
C350 C 0.97396 0.09227 0.56472 0.0
C351 C 0.04212 0.02365 0.56046 0.0
C352 C 0.95396 0.054 0.57555 0.0
C353 C 0.95047 0.95129 0.45239 0.0
C354 C 0.96678 0.95938 0.40841 0.0
C355 C 0.02007 0.05655 0.68823 0.0
C356 C 0.05186 0.93931 0.72896 0.0
C357 C 0.02813 0.90479 0.70542 0.0
C358 C 0.04829 0.89339 0.68436 0.0
C359 C 0.07177 0.92753 0.70839 0.0
C360 C 0.03009 0.92802 0.72548 0.0
C361 C 0.06989 0.90481 0.68538 0.0
C362 C 0.98554 0.01044 0.74778 0.0
C363 C 0.0535 0.96342 0.75313 0.0
H364 H 0.9549 0.14662 0.60221 0.0
H365 H 0.9184 0.08145 0.61384 0.0
H366 H 0.91952 0.12412 0.62805 0.0
H367 H 0.98937 0.08319 0.5488 0.0
H368 H 0.04762 0.87541 0.66932 0.0
H369 H 0.08875 0.93588 0.71 0.0
H370 H 0.01452 0.93724 0.73936 0.0
H371 H 0.08534 0.89581 0.66966 0.0
Eu372 Eu 0.52355 0.04314 0.71878 0.0
C373 C 0.50578 0.94255 0.67335 0.0
N374 N 0.51884 0.95771 0.63891 0.0
C375 C 0.55122 0.93158 0.64206 0.0
C376 C 0.51543 0.92165 0.69613 0.0
C377 C 0.54097 0.9522 0.62098 0.0
C378 C 0.53849 0.91637 0.68041 0.0
C379 C 0.46884 0.9328 0.72237 0.0
C380 C 0.48276 0.94813 0.6863 0.0
C381 C 0.47863 0.91238 0.74711 0.0
C382 C 0.50184 0.90679 0.73389 0.0
Eu383 Eu 0.50039 0.99228 0.60615 0.0
N384 N 0.47379 0.9681 0.66203 0.0
C385 C 0.44534 0.93819 0.73137 0.0
C386 C 0.45045 0.97231 0.66624 0.0
C387 C 0.43601 0.9578 0.70216 0.0
H388 H 0.55082 0.96393 0.5913 0.0
H389 H 0.41763 0.96157 0.70647 0.0
H390 H 0.48822 0.04941 0.84259 0.0
H391 H 0.57103 0.11178 0.59468 0.0
H392 H 0.4427 0.98653 0.64083 0.0
H393 H 0.43408 0.92688 0.75883 0.0
H394 H 0.56319 0.07169 0.63262 0.0
H395 H 0.56893 0.92747 0.62888 0.0
H396 H 0.46827 0.90057 0.77557 0.0
H397 H 0.50906 0.89084 0.75263 0.0
H398 H 0.46281 0.07952 0.88899 0.0
H399 H 0.54654 0.9005 0.69707 0.0
H400 H 0.5451 0.14398 0.6264 0.0
N401 N 0.50079 0.07156 0.77013 0.0
C402 C 0.50236 0.09369 0.74819 0.0
C403 C 0.47363 0.08369 0.84887 0.0
C404 C 0.48887 0.11167 0.77434 0.0
C405 C 0.48775 0.06662 0.82205 0.0
C406 C 0.47387 0.10626 0.82416 0.0
N407 N 0.53268 0.08111 0.68279 0.0
C408 C 0.55176 0.08568 0.64633 0.0
C409 C 0.52292 0.12183 0.68359 0.0
C410 C 0.51905 0.09869 0.70346 0.0
C411 C 0.54154 0.12644 0.64282 0.0
C412 C 0.55624 0.10832 0.62489 0.0
H413 H 0.46317 0.11955 0.84553 0.0
H414 H 0.48121 0.14859 0.7709 0.0
H415 H 0.51111 0.1575 0.69135 0.0
O416 O 0.55039 0.02408 0.76791 0.0
O417 O 0.51986 0.05214 0.61476 0.0
O418 O 0.49037 0.02887 0.57506 0.0
O419 O 0.54372 0.05985 0.79378 0.0
O420 O 0.55157 0.02809 0.65441 0.0
O421 O 0.5357 1.00563 0.57407 0.0
O422 O 0.47842 0.97136 0.54427 0.0
O423 O 0.52309 0.98809 0.69349 0.0
O424 O 0.50662 0.0116 0.76431 0.0
O425 O 0.51122 0.98482 0.51008 0.0
O426 O 0.47155 0.01686 0.64029 0.0
O427 O 0.4859 0.03117 0.7343 0.0
C428 C 0.50352 0.04776 0.57291 0.0
C429 C 0.58278 0.04608 0.80249 0.0
C430 C 0.62211 0.0297 0.79992 0.0
C431 C 0.63083 0.05126 0.82184 0.0
C432 C 0.59192 0.0673 0.82411 0.0
C433 C 0.61588 0.06994 0.83258 0.0
C434 C 0.59806 0.02782 0.78808 0.0
C435 C 0.55335 0.01633 0.60141 0.0
C436 C 0.55737 0.04195 0.80053 0.0
C437 C 0.49159 0.13457 0.75192 0.0
C438 C 0.50863 0.13965 0.70666 0.0
C439 C 0.51398 0.99088 0.74938 0.0
C440 C 0.48066 0.98202 0.43773 0.0
C441 C 0.45143 1.00513 0.38377 0.0
C442 C 0.45956 0.99658 0.32606 0.0
C443 C 0.48867 0.97372 0.37989 0.0
C444 C 0.46223 0.99796 0.43951 0.0
C445 C 0.47818 0.98106 0.32425 0.0
C446 C 0.46837 0.02563 0.69698 0.0
C447 C 0.49189 0.97421 0.49572 0.0
H448 H 0.64903 0.05365 0.83335 0.0
H449 H 0.58055 0.08165 0.83568 0.0
H450 H 0.62283 0.08627 0.84997 0.0
H451 H 0.59094 0.01181 0.76933 0.0
H452 H 0.45153 1.00195 0.2824 0.0
H453 H 0.50301 0.96156 0.37785 0.0
H454 H 0.45599 1.0044 0.48424 0.0
H455 H 0.48439 0.9746 0.27964 0.0
Eu456 Eu 0.53434 0.50162 0.59171 0.0
C457 C 0.4559 0.48738 0.77909 0.0
N458 N 0.45605 0.49683 0.72056 0.0
C459 C 0.42272 0.47388 0.69189 0.0
C460 C 0.43956 0.46993 0.79541 0.0
C461 C 0.43935 0.491 0.6777 0.0
C462 C 0.42295 0.46313 0.75079 0.0
C463 C 0.47249 0.48557 0.88358 0.0
C464 C 0.47217 0.4952 0.82261 0.0
C465 C 0.45684 0.46756 0.89927 0.0
C466 C 0.44036 0.45983 0.85539 0.0
Eu467 Eu 0.48406 0.52613 0.70109 0.0
N468 N 0.48693 0.51287 0.80635 0.0
C469 C 0.48806 0.4948 0.92764 0.0
C470 C 0.50071 0.52313 0.85076 0.0
C471 C 0.50194 0.51393 0.91143 0.0
H472 H 0.43899 0.4995 0.63247 0.0
H473 H 0.51326 0.52189 0.946 0.0
H474 H 0.58521 0.50261 0.67173 0.0
H475 H 0.51773 0.53174 0.35311 0.0
H476 H 0.51029 0.53884 0.84044 0.0
H477 H 0.48886 0.48787 0.97491 0.0
H478 H 0.51029 0.50927 0.45022 0.0
H479 H 0.40972 0.469 0.65747 0.0
H480 H 0.45699 0.45984 0.94571 0.0
H481 H 0.42816 0.44618 0.86853 0.0
H482 H 0.62266 0.5238 0.66925 0.0
H483 H 0.41012 0.44978 0.76153 0.0
H484 H 0.55342 0.55596 0.34385 0.0
N485 N 0.57187 0.51913 0.59011 0.0
C486 C 0.57699 0.53263 0.5395 0.0
C487 C 0.60983 0.52675 0.63292 0.0
C488 C 0.5985 0.54455 0.53489 0.0
C489 C 0.58835 0.51514 0.63498 0.0
C490 C 0.61479 0.54184 0.58317 0.0
N491 N 0.5409 0.52141 0.49597 0.0
C492 C 0.52577 0.51994 0.44669 0.0
C493 C 0.56622 0.54658 0.43604 0.0
C494 C 0.56115 0.53359 0.49062 0.0
C495 C 0.55018 0.5462 0.38656 0.0
C496 C 0.53 0.53257 0.39162 0.0
H497 H 0.63153 0.55067 0.5814 0.0
H498 H 0.61966 0.56766 0.47753 0.0
H499 H 0.59134 0.56949 0.39099 0.0
O500 O 0.52564 0.46868 0.54678 0.0
O501 O 0.52074 0.53788 0.56762 0.0
O502 O 0.50979 0.55309 0.66287 0.0
O503 O 0.56175 0.47751 0.5634 0.0
O504 O 0.49676 0.49476 0.55909 0.0
O505 O 0.47575 0.52566 0.59727 0.0
O506 O 0.46566 0.54901 0.76579 0.0
O507 O 0.48804 0.48682 0.68255 0.0
O508 O 0.52718 0.48415 0.6847 0.0
O509 O 0.45487 0.54725 0.66904 0.0
O510 O 0.5208 0.53723 0.73254 0.0
O511 O 0.5443 0.50785 0.69465 0.0
C512 C 0.51634 0.55577 0.60408 0.0
C513 C 0.5496 0.43866 0.58505 0.0
C514 C 0.53259 0.40171 0.62004 0.0
C515 C 0.5524 0.3976 0.65693 0.0
C516 C 0.56929 0.43429 0.62251 0.0
C517 C 0.57061 0.41386 0.65816 0.0
C518 C 0.53143 0.42217 0.58398 0.0
C519 C 0.47894 0.50913 0.55572 0.0
C520 C 0.54689 0.46092 0.5507 0.0
C521 C 0.60332 0.55821 0.48162 0.0
C522 C 0.58721 0.55922 0.43228 0.0
C523 C 0.50682 0.47506 0.69737 0.0
C524 C 0.45493 0.58393 0.71582 0.0
C525 C 0.47881 0.61923 0.71888 0.0
C526 C 0.4601 0.63183 0.69345 0.0
C527 C 0.43641 0.59671 0.69074 0.0
C528 C 0.47605 0.59525 0.72952 0.0
C529 C 0.43903 0.62058 0.67959 0.0
C530 C 0.54022 0.52498 0.73448 0.0
C531 C 0.45319 0.55851 0.72168 0.0
H532 H 0.55373 0.38188 0.68488 0.0
H533 H 0.58353 0.44672 0.62494 0.0
H534 H 0.58578 0.41068 0.68704 0.0
H535 H 0.51634 0.42519 0.5545 0.0
H536 H 0.46157 0.65041 0.68541 0.0
H537 H 0.42012 0.58815 0.67885 0.0
H538 H 0.49062 0.58522 0.74704 0.0
H539 H 0.42471 0.6304 0.66011 0.0
Eu540 Eu 0.02431 0.54564 0.57906 0.0
C541 C 0.03848 0.47181 0.77992 0.0
N542 N 0.02914 0.46857 0.7221 0.0
C543 C 0.05366 0.43552 0.70548 0.0
C544 C 0.05677 0.45766 0.80165 0.0
C545 C 0.03566 0.45015 0.68582 0.0
C546 C 0.06453 0.43952 0.76322 0.0
C547 C 0.03766 0.492 0.87948 0.0
C548 C 0.02905 0.48878 0.8181 0.0
C549 C 0.05686 0.47896 0.90006 0.0
C550 C 0.06638 0.46179 0.86123 0.0
Eu551 Eu 0.99996 0.49492 0.69022 0.0
N552 N 0.0103 0.50082 0.79703 0.0
C553 C 0.02608 0.50748 0.91919 0.0
C554 C 0.9976 0.514 0.83768 0.0
C555 C 1.00563 0.5181 0.89864 0.0
H556 H 0.02739 0.44726 0.64093 0.0
H557 H 0.99586 0.52918 0.92998 0.0
H558 H 0.02096 0.59408 0.66987 0.0
H559 H 0.99147 0.53652 0.34075 0.0
H560 H 0.98113 0.52128 0.82342 0.0
H561 H 0.03214 0.51047 0.96666 0.0
H562 H 0.01701 0.52823 0.43187 0.0
H563 H 0.05923 0.42128 0.67598 0.0
H564 H 0.06394 0.48145 0.9467 0.0
H565 H 0.08074 0.4514 0.87834 0.0
H566 H 0.9946 0.62728 0.68482 0.0
H567 H 0.07856 0.42826 0.77819 0.0
H568 H 0.96141 0.56715 0.34861 0.0
N569 N 1.00222 0.58029 0.59211 0.0
C570 C 0.98609 0.58492 0.54729 0.0
C571 C 0.99169 0.61526 0.64653 0.0
C572 C 0.9712 0.60429 0.55211 0.0
C573 C 0.00627 0.59604 0.63883 0.0
C574 C 0.9737 0.61911 0.60374 0.0
N575 N 1.00138 0.55379 0.48971 0.0
C576 C 1.00408 0.54177 0.43502 0.0
C577 C 0.97083 0.57666 0.44364 0.0
C578 C 0.98591 0.57143 0.49382 0.0
C579 C 0.97265 0.56366 0.38833 0.0
C580 C 0.98964 0.54639 0.38364 0.0
H581 H 0.96262 0.63418 0.60926 0.0
H582 H 0.94335 0.62345 0.50716 0.0
H583 H 0.94299 0.59916 0.41203 0.0
O584 O 0.05369 0.5424 0.51549 0.0
O585 O 0.99006 0.52736 0.55377 0.0
O586 O 0.97432 0.52126 0.65033 0.0
O587 O 0.04735 0.57548 0.55958 0.0
O588 O 0.03208 0.50874 0.54314 0.0
O589 O 1.00441 0.48415 0.58834 0.0
O590 O 0.97641 0.47541 0.75183 0.0
O591 O 0.03898 0.49699 0.66591 0.0
O592 O 0.04526 0.53597 0.66563 0.0
O593 O 0.97771 0.46721 0.65337 0.0
O594 O 0.98986 0.53229 0.71637 0.0
O595 O 0.02238 0.5524 0.68481 0.0
C596 C 0.97169 0.52466 0.58978 0.0
C597 C 0.08639 0.56257 0.55499 0.0
C598 C 0.12094 0.54067 0.58665 0.0
C599 C 0.13254 0.56187 0.59874 0.0
C600 C 0.09831 0.58349 0.56676 0.0
C601 C 0.12114 0.58308 0.58959 0.0
C602 C 0.09752 0.54133 0.56772 0.0
C603 C 0.01984 0.48909 0.54426 0.0
C604 C 0.06237 0.56266 0.53005 0.0
C605 C 0.95512 0.60883 0.50394 0.0
C606 C 0.95496 0.59504 0.44971 0.0
C607 C 0.05253 0.51492 0.67813 0.0
C608 C 0.94089 0.46684 0.69996 0.0
C609 C 0.90552 0.48948 0.7173 0.0
C610 C 0.89369 0.47487 0.67468 0.0
C611 C 0.92863 0.45228 0.65867 0.0
C612 C 0.92918 0.48517 0.72982 0.0
C613 C 0.90513 0.45629 0.64623 0.0
C614 C 1.0044 0.54998 0.72269 0.0
C615 C 0.96633 0.46451 0.70561 0.0
H616 H 0.15068 0.5622 0.6126 0.0
H617 H 0.09 0.60008 0.55822 0.0
H618 H 0.1303 0.59929 0.59838 0.0
H619 H 0.08812 0.5251 0.56108 0.0
H620 H 0.87567 0.47796 0.66235 0.0
H621 H 0.93741 0.43822 0.63469 0.0
H622 H 0.93862 0.49623 0.76224 0.0
H623 H 0.89586 0.44523 0.61345 0.0
H624 H 0.12126 0.06756 0.22423 0.0
H625 H 0.16306 0.015 0.31443 0.0
H626 H 0.09119 0.06237 0.3042 0.0
H627 H 0.13324 0.00996 0.39449 0.0
H628 H 0.0677 0.99055 0.50062 0.0
H629 H 0.0956 0.9954 0.4158 0.0
H630 H 0.0817 0.06926 0.41189 0.0
H631 H 0.05322 0.06415 0.49673 0.0
C632 C 0.12411 0.05488 0.26108 0.0
C633 C 0.14473 0.04166 0.26228 0.0
C634 C 0.10682 0.05197 0.30732 0.0
C635 C 0.10958 0.03574 0.35643 0.0
C636 C 0.1301 0.02234 0.35711 0.0
C637 C 0.14731 0.0252 0.31082 0.0
C638 C 0.07064 0.00788 0.48197 0.0
C639 C 0.05843 0.02702 0.50638 0.0
C640 C 0.08678 0.0107 0.43317 0.0
C641 C 0.09136 0.03279 0.40692 0.0
C642 C 0.07866 0.05191 0.43028 0.0
C643 C 0.06236 0.04904 0.47921 0.0
H644 H 0.51958 0.16717 0.32197 0.0
H645 H 0.46248 0.1288 0.23885 0.0
H646 H 0.52402 0.1368 0.4006 0.0
H647 H 0.46622 0.09888 0.31966 0.0
H648 H 0.49184 0.0392 0.44958 0.0
H649 H 0.48855 0.06737 0.36339 0.0
H650 H 0.50494 0.12313 0.49217 0.0
H651 H 0.50793 0.09504 0.57697 0.0
C652 C 0.50809 0.15216 0.31974 0.0
C653 C 0.4906 0.15073 0.27349 0.0
C654 C 0.5104 0.1348 0.36582 0.0
C655 C 0.49527 0.11535 0.36762 0.0
C656 C 0.47829 0.11346 0.32011 0.0
C657 C 0.476 0.13084 0.27388 0.0
C658 C 0.49451 0.05751 0.45938 0.0
C659 C 0.50037 0.0648 0.52041 0.0
C660 C 0.49269 0.07373 0.40988 0.0
C661 C 0.49679 0.09772 0.42004 0.0
C662 C 0.50228 0.10488 0.4815 0.0
C663 C 0.50403 0.0887 0.5306 0.0
H664 H 0.37415 0.46123 0.28449 0.0
H665 H 0.37768 0.53561 0.25498 0.0
H666 H 0.40541 0.46405 0.36132 0.0
H667 H 0.40885 0.53842 0.33243 0.0
H668 H 0.44304 0.53857 0.52727 0.0
H669 H 0.41431 0.53538 0.44397 0.0
H670 H 0.44645 0.47189 0.38027 0.0
H671 H 0.47522 0.47492 0.46482 0.0
C672 C 0.38181 0.47818 0.29329 0.0
C673 C 0.37312 0.49819 0.26289 0.0
C674 C 0.39983 0.4798 0.33783 0.0
C675 C 0.40974 0.50148 0.35389 0.0
C676 C 0.40145 0.52143 0.32247 0.0
C677 C 0.38348 0.51981 0.27777 0.0
C678 C 0.44411 0.52388 0.49564 0.0
C679 C 0.4616 0.50698 0.5033 0.0
C680 C 0.42763 0.52215 0.44723 0.0
C681 C 0.42793 0.50343 0.40469 0.0
C682 C 0.44543 0.48648 0.41223 0.0
C683 C 0.46206 0.48827 0.46068 0.0
H684 H 0.9997 0.37325 0.28127 0.0
H685 H 0.06824 0.39967 0.23522 0.0
H686 H 0.99486 0.40452 0.35661 0.0
H687 H 0.06409 0.42991 0.31389 0.0
H688 H 0.04455 0.49319 0.43298 0.0
H689 H 0.04777 0.4647 0.34843 0.0
H690 H 1.00606 0.41606 0.45602 0.0
H691 H 1.002 0.44473 0.53839 0.0
C692 C 0.01374 0.38576 0.28658 0.0
C693 C 0.03447 0.3835 0.25172 0.0
C694 C 0.01113 0.40362 0.33108 0.0
C695 C 0.02922 0.41981 0.34299 0.0
C696 C 0.04963 0.41804 0.30656 0.0
C697 C 0.05215 0.40032 0.26162 0.0
C698 C 0.03601 0.47644 0.43849 0.0
C699 C 0.02291 0.4715 0.49286 0.0
C700 C 0.03795 0.45993 0.38991 0.0
C701 C 0.02706 0.43783 0.39435 0.0
C702 C 0.01427 0.43291 0.44932 0.0
C703 C 0.01213 0.44943 0.49735 0.0
H704 H 0.90236 0.9669 0.07452 0.0
H705 H 0.87161 0.03197 0.01663 0.0
H706 H 0.93149 0.97079 0.99297 0.0
H707 H 0.90211 0.03697 0.93876 0.0
H708 H 0.94137 0.02798 0.75612 0.0
H709 H 0.91387 0.02501 0.84182 0.0
H710 H 0.96457 0.98693 0.95074 0.0
H711 H 0.99164 0.98868 0.8626 0.0
C712 C 0.90182 0.98221 0.04486 0.0
C713 C 0.88402 0.99885 0.05217 0.0
C714 C 0.91897 0.98465 0.99824 0.0
C715 C 0.91933 1.00408 0.9577 0.0
C716 C 0.90228 0.02136 0.9673 0.0
C717 C 0.88488 0.01872 0.01329 0.0
C718 C 0.94676 0.01891 0.79824 0.0
C719 C 0.96893 0.0086 0.80195 0.0
C720 C 0.93091 0.01741 0.84821 0.0
C721 C 0.93672 1.00589 0.90451 0.0
C722 C 0.95904 0.99568 0.90835 0.0
C723 C 0.97478 0.99684 0.8577 0.0
H724 H 0.55993 0.89759 0.04787 0.0
H725 H 0.49225 0.87024 0.99636 0.0
H726 H 0.55556 0.92873 0.97123 0.0
H727 H 0.4876 0.90226 0.9215 0.0
H728 H 0.48179 0.97849 0.83808 0.0
H729 H 0.48454 0.94742 0.91727 0.0
H730 H 0.55355 0.93099 0.85104 0.0
H731 H 0.55055 0.9617 0.77141 0.0
C732 C 0.54408 0.89808 0.02042 0.0
C733 C 0.52662 0.88088 0.02843 0.0
C734 C 0.54157 0.91611 0.97642 0.0
C735 C 0.52133 0.91795 0.93965 0.0
C736 C 0.50339 0.90146 0.94921 0.0
C737 C 0.50605 0.88312 0.99264 0.0
C738 C 0.49756 0.96828 0.8408 0.0
C739 C 0.51596 0.97254 0.79864 0.0
C740 C 0.49908 0.95037 0.88578 0.0
C741 C 0.5193 0.93672 0.89081 0.0
C742 C 0.53781 0.94127 0.84898 0.0
C743 C 0.53608 0.95881 0.8032 0.0
H744 H 0.63807 0.58371 1.01001 0.0
H745 H 0.64717 0.5094 0.02893 0.0
H746 H 0.60814 0.57739 0.93263 0.0
H747 H 0.61519 0.50295 0.95644 0.0
H748 H 0.57443 0.49553 0.77576 0.0
H749 H 0.60343 0.50185 0.85621 0.0
H750 H 0.57225 0.56835 0.89937 0.0
H751 H 0.5448 0.5629 0.81357 0.0
C752 C 0.63369 0.56589 0.99816 0.0
C753 C 0.64589 0.54713 0.02541 0.0
C754 C 0.61588 0.56221 0.95403 0.0
C755 C 0.60892 0.53956 0.93636 0.0
C756 C 0.6202 0.52074 0.96641 0.0
C757 C 0.63845 0.52445 1.00957 0.0
C758 C 0.57406 0.5118 0.80128 0.0
C759 C 0.55739 0.52887 0.78673 0.0
C760 C 0.59055 0.51526 0.84908 0.0
C761 C 0.59066 0.53569 0.88577 0.0
C762 C 0.57348 0.55255 0.8721 0.0
C763 C 0.55735 0.54932 0.82301 0.0
H764 H 0.02496 0.6464 0.0402 0.0
H765 H 0.95445 0.65839 0.97864 0.0
H766 H 0.02879 0.61543 0.96266 0.0
H767 H 0.95836 0.62802 0.90013 0.0
H768 H 0.96479 0.56041 0.79055 0.0
H769 H 0.96059 0.5886 0.87551 0.0
H770 H 0.03333 0.60733 0.85678 0.0
H771 H 0.03765 0.57834 0.77479 0.0
C772 C 0.01027 0.64251 1.01002 0.0
C773 C 0.98935 0.65497 0.01639 0.0
C774 C 0.01247 0.62473 0.96501 0.0
C775 C 0.99392 0.61895 0.92416 0.0
C776 C 0.97297 0.63138 0.93099 0.0
C777 C 0.97071 0.64897 0.97633 0.0
C778 C 0.97993 0.57036 0.80516 0.0
C779 C 1.00155 0.567 0.77551 0.0
C780 C 0.9775 0.58682 0.85365 0.0
C781 C 0.99658 0.60061 0.87376 0.0
C782 C 0.01821 0.59701 0.84406 0.0
C783 C 0.02066 0.58045 0.79614 0.0
H784 H 0.09123 0.17441 0.36724 0.0
H785 H 0.0479 0.23044 0.43378 0.0
H786 H 0.07342 0.14823 0.44422 0.0
H787 H 0.03009 0.20447 0.50956 0.0
H788 H 0.99557 0.15327 0.63413 0.0
H789 H 0.02817 0.17726 0.5968 0.0
H790 H 0.03412 0.1333 0.43323 0.0
H791 H 1.00189 0.10968 0.47 0.0
C792 C 0.07846 0.18131 0.39956 0.0
C793 C 0.0706 0.20433 0.39349 0.0
C794 C 0.06823 0.16634 0.44354 0.0
C795 C 0.0499 0.17412 0.48181 0.0
C796 C 0.04417 0.19787 0.48098 0.0
C797 C 0.05445 0.21284 0.43728 0.0
C798 C 1.00404 0.14869 0.5905 0.0
C799 C 0.99597 0.12976 0.55463 0.0
C800 C 0.02279 0.16229 0.5694 0.0
C801 C 0.03376 0.15721 0.51206 0.0
C802 C 0.02646 0.13749 0.47822 0.0
C803 C 0.00779 0.12398 0.49917 0.0
H804 H 0.31265 0.05849 0.37599 0.0
H805 H 0.35636 0.11544 0.3122 0.0
H806 H 0.34671 0.03853 0.41562 0.0
H807 H 0.39068 0.09489 0.3512 0.0
H808 H 0.44664 0.04642 0.44687 0.0
H809 H 0.41252 0.07206 0.44747 0.0
H810 H 0.37586 0.02337 0.32835 0.0
H811 H 0.40988 0.99821 0.32656 0.0
C812 C 0.32933 0.06735 0.37297 0.0
C813 C 0.33182 0.08837 0.33949 0.0
C814 C 0.34888 0.05573 0.39528 0.0
C815 C 0.37123 0.06496 0.38495 0.0
C816 C 0.37357 0.08739 0.35933 0.0
C817 C 0.35395 0.09906 0.33675 0.0
C818 C 0.43126 0.0413 0.4209 0.0
C819 C 0.43093 0.02054 0.38594 0.0
C820 C 0.41181 0.05588 0.42146 0.0
C821 C 0.39159 0.04948 0.38863 0.0
C822 C 0.39116 0.0285 0.35486 0.0
C823 C 0.41068 0.01425 0.3532 0.0
H824 H 0.4266 0.34908 0.40933 0.0
H825 H 0.45748 0.28509 0.47537 0.0
H826 H 0.44473 0.36995 0.49497 0.0
H827 H 0.47386 0.30558 0.5644 0.0
H828 H 0.53713 0.3554 0.59816 0.0
H829 H 0.50702 0.32892 0.56208 0.0
H830 H 0.45496 0.3817 0.59531 0.0
H831 H 0.48563 0.40862 0.62789 0.0
C832 C 0.43658 0.33929 0.44336 0.0
C833 C 0.44139 0.3156 0.43364 0.0
C834 C 0.44676 0.35124 0.4934 0.0
C835 C 0.46158 0.33962 0.53564 0.0
C836 C 0.46331 0.31526 0.53141 0.0
C837 C 0.45353 0.30339 0.48059 0.0
C838 C 0.51917 0.36107 0.59958 0.0
C839 C 0.51374 0.38414 0.61473 0.0
C840 C 0.50174 0.34582 0.5792 0.0
C841 C 0.47843 0.35325 0.57438 0.0
C842 C 0.47275 0.37556 0.59661 0.0
C843 C 0.49028 0.39095 0.61578 0.0
H844 H 0.23553 0.47642 0.46849 0.0
H845 H 0.18563 0.42216 0.42523 0.0
H846 H 0.20988 0.49127 0.54869 0.0
H847 H 0.15987 0.43689 0.50708 0.0
H848 H 0.11415 0.50454 0.50539 0.0
H849 H 0.13934 0.47244 0.48537 0.0
H850 H 0.18374 0.49338 0.63924 0.0
H851 H 0.15749 0.52579 0.66156 0.0
C852 C 0.21959 0.46688 0.47827 0.0
C853 C 0.21226 0.44855 0.43917 0.0
C854 C 0.20482 0.47541 0.52474 0.0
C855 C 0.18247 0.46573 0.53294 0.0
C856 C 0.17675 0.44511 0.50061 0.0
C857 C 0.19146 0.43669 0.45367 0.0
C858 C 0.12855 0.50195 0.53737 0.0
C859 C 0.1339 0.51824 0.58454 0.0
C860 C 0.14316 0.48325 0.52572 0.0
C861 C 0.1638 0.48042 0.56014 0.0
C862 C 0.16811 0.49532 0.61126 0.0
C863 C 0.15321 0.51402 0.62358 0.0
H864 H 0.90887 0.84337 0.88156 0.0
H865 H 0.95853 0.79089 0.82722 0.0
H866 H 0.92455 0.8694 0.80101 0.0
H867 H 0.97411 0.81673 0.74775 0.0
H868 H 0.00922 0.86968 0.63191 0.0
H869 H 0.976 0.84453 0.6585 0.0
H870 H 0.96298 0.88635 0.82291 0.0
H871 H 0.99605 0.91039 0.79873 0.0
C872 C 0.92249 0.83705 0.85091 0.0
C873 C 0.93296 0.81539 0.86217 0.0
C874 C 0.93142 0.85192 0.80468 0.0
C875 C 0.95106 0.84538 0.76949 0.0
C876 C 0.95904 0.82237 0.77413 0.0
C877 C 0.95007 0.8075 0.82011 0.0
C878 C 0.99909 0.87359 0.67337 0.0
C879 C 1.00566 0.89196 0.71349 0.0
C880 C 0.97989 0.85937 0.68808 0.0
C881 C 0.96681 0.86345 0.74274 0.0
C882 C 0.97227 0.88293 0.7797 0.0
C883 C 0.99149 0.89683 0.76566 0.0
H884 H 0.67737 0.91955 0.98627 0.0
H885 H 0.73846 0.94669 0.89197 0.0
H886 H 0.65298 0.93722 0.9083 0.0
H887 H 0.71424 0.9619 0.80909 0.0
H888 H 0.6698 0.02753 0.78098 0.0
H889 H 0.69476 0.99546 0.80616 0.0
H890 H 0.63448 0.95023 0.82433 0.0
H891 H 0.60952 0.98296 0.81004 0.0
C892 C 0.68569 0.92856 0.9475 0.0
C893 C 0.70978 0.93295 0.94793 0.0
C894 C 0.67161 0.93854 0.90156 0.0
C895 C 0.68144 0.95244 0.85357 0.0
C896 C 0.70585 0.95267 0.84731 0.0
C897 C 0.7199 0.94339 0.89456 0.0
C898 C 0.66172 0.01089 0.79137 0.0
C899 C 0.63738 0.00863 0.79672 0.0
C900 C 0.67622 0.99204 0.80422 0.0
C901 C 0.6668 0.97007 0.82034 0.0
C902 C 0.64254 0.96702 0.81569 0.0
C903 C 0.62803 0.98607 0.80583 0.0
H904 H 0.5552 0.72958 0.85619 0.0
H905 H 0.59486 0.67242 0.93241 0.0
H906 H 0.53831 0.70391 0.77874 0.0
H907 H 0.57792 0.64648 0.85373 0.0
H908 H 0.50463 0.61151 0.8238 0.0
H909 H 0.53787 0.63341 0.86111 0.0
H910 H 0.53641 0.67598 0.69363 0.0
H911 H 0.50281 0.65364 0.6556 0.0
C912 C 0.56124 0.71176 0.85455 0.0
C913 C 0.57591 0.70289 0.90159 0.0
C914 C 0.55149 0.69695 0.80982 0.0
C915 C 0.55625 0.67299 0.81123 0.0
C916 C 0.57345 0.66478 0.85263 0.0
C917 C 0.58316 0.67961 0.89762 0.0
C918 C 0.51174 0.62507 0.79386 0.0
C919 C 0.50083 0.63106 0.73715 0.0
C920 C 0.53101 0.63759 0.81515 0.0
C921 C 0.53983 0.65652 0.78044 0.0
C922 C 0.52986 0.66163 0.72173 0.0
C923 C 0.51052 0.649 0.70025 0.0
H924 H 0.86701 0.59588 0.9786 0.0
H925 H 0.80295 0.58067 0.8793 0.0
H926 H 0.88854 0.57383 0.90112 0.0
H927 H 0.82472 0.56067 0.79918 0.0
H928 H 0.86003 0.49133 0.75549 0.0
H929 H 0.84022 0.52289 0.80733 0.0
H930 H 0.90331 0.5644 0.80146 0.0
H931 H 0.92349 0.5325 0.75183 0.0
C932 C 0.85757 0.58852 0.9393 0.0
C933 C 0.83308 0.58928 0.93702 0.0
C934 C 0.87 0.57607 0.89426 0.0
C935 C 0.8582 0.56467 0.84517 0.0
C936 C 0.83421 0.56845 0.83783 0.0
C937 C 0.82173 0.58042 0.8835 0.0
C938 C 0.86965 0.50731 0.76387 0.0
C939 C 0.89333 0.50929 0.74794 0.0
C940 C 0.8582 0.52557 0.79348 0.0
C941 C 0.87004 0.54644 0.80774 0.0
C942 C 0.89364 0.54859 0.79135 0.0
C943 C 0.9052 0.53018 0.76246 0.0
H944 H 0.98823 0.18116 0.90399 0.0
H945 H 0.05971 0.19267 0.84833 0.0
H946 H 0.98702 0.14559 0.84209 0.0
H947 H 0.05817 0.15762 0.784 0.0
H948 H 0.05721 0.07884 0.74226 0.0
H949 H 0.05812 0.11656 0.79453 0.0
H950 H 0.98627 0.1275 0.74203 0.0
H951 H 0.98527 0.0889 0.69346 0.0
C952 C 1.00369 0.17628 0.87818 0.0
C953 C 0.02415 0.18995 0.88215 0.0
C954 C 1.0029 0.15587 0.84181 0.0
C955 C 0.02254 0.14833 0.80791 0.0
C956 C 0.04275 0.16244 0.81007 0.0
C957 C 0.04354 0.18288 0.84648 0.0
C958 C 0.04158 0.08918 0.74258 0.0
C959 C 0.02116 0.08071 0.71405 0.0
C960 C 0.04215 0.11112 0.77165 0.0
C961 C 0.02225 0.12542 0.77307 0.0
C962 C 1.00192 0.11708 0.74297 0.0
C963 C 1.00141 0.09506 0.71398 0.0
H964 H 0.31996 0.01515 0.81431 0.0
H965 H 0.35158 0.07049 0.92205 0.0
H966 H 0.35718 0.00932 0.75884 0.0
H967 H 0.38838 0.06457 0.86757 0.0
H968 H 0.4559 0.02599 0.82041 0.0
H969 H 0.41765 0.03104 0.86675 0.0
H970 H 0.38679 0.03249 0.6824 0.0
H971 H 0.42577 0.02849 0.63507 0.0
C972 C 0.33477 0.02607 0.82612 0.0
C973 C 0.33264 0.04339 0.87254 0.0
C974 C 0.35604 0.02284 0.79403 0.0
C975 C 0.37582 0.03648 0.80871 0.0
C976 C 0.37359 0.05369 0.85513 0.0
C977 C 0.35238 0.05718 0.88617 0.0
C978 C 0.44118 0.02795 0.78925 0.0
C979 C 0.44424 0.02755 0.7237 0.0
C980 C 0.41909 0.03059 0.81609 0.0
C981 C 0.39909 0.03243 0.77847 0.0
C982 C 0.40183 0.03113 0.7128 0.0
C983 C 0.42418 0.02889 0.68569 0.0
H984 H 0.47166 0.33526 0.84923 0.0
H985 H 0.52623 0.36302 0.96728 0.0
H986 H 0.47523 0.36928 0.78051 0.0
H987 H 0.52868 0.39742 0.90186 0.0
H988 H 0.54217 0.45114 0.75376 0.0
H989 H 0.54055 0.4141 0.80874 0.0
H990 H 0.46667 0.40923 0.77129 0.0
H991 H 0.46894 0.44553 0.71153 0.0
C992 C 0.48453 0.34846 0.86051 0.0
C993 C 0.49846 0.34624 0.91469 0.0
C994 C 0.48634 0.36827 0.82146 0.0
C995 C 0.50211 0.38654 0.83535 0.0
C996 C 0.51646 0.38387 0.8885 0.0
C997 C 0.5148 0.36409 0.927 0.0
C998 C 0.52555 0.44218 0.75696 0.0
C999 C 0.50548 0.45188 0.72977 0.0
C1000 C 0.52454 0.42087 0.78928 0.0
C1001 C 0.50336 0.40853 0.79627 0.0
C1002 C 0.48337 0.41797 0.76741 0.0
C1003 C 0.48451 0.43917 0.73414 0.0
H1004 H 0.18476 0.52995 0.88707 0.0
H1005 H 0.16681 0.45689 0.89583 0.0
H1006 H 0.15199 0.53653 0.81615 0.0
H1007 H 0.13346 0.46365 0.82844 0.0
H1008 H 0.08236 0.47776 0.67121 0.0
H1009 H 0.11885 0.4719 0.72812 0.0
H1010 H 0.11096 0.53923 0.81554 0.0
H1011 H 0.07485 0.54509 0.75743 0.0
C1012 C 0.174 0.51522 0.87371 0.0
C1013 C 0.17854 0.4929 0.89835 0.0
C1014 C 0.15488 0.51906 0.83351 0.0
C1015 C 0.13962 0.50072 0.81654 0.0
C1016 C 0.14469 0.47829 0.8395 0.0
C1017 C 0.1638 0.47445 0.87929 0.0
C1018 C 0.08842 0.49124 0.7028 0.0
C1019 C 0.07541 0.51168 0.71056 0.0
C1020 C 0.1094 0.48791 0.73568 0.0
C1021 C 0.11805 0.50495 0.77751 0.0
C1022 C 0.10526 0.52573 0.78358 0.0
C1023 C 0.08437 0.52907 0.7504 0.0
H1024 H 0.02433 0.84446 0.38852 0.0
H1025 H 0.95026 0.8539 0.41149 0.0
H1026 H 0.0316 0.87766 0.45736 0.0
H1027 H 0.95745 0.88777 0.47675 0.0
H1028 H 0.97556 0.94007 0.62916 0.0
H1029 H 0.96962 0.90351 0.57243 0.0
H1030 H 0.03053 0.9185 0.45975 0.0
H1031 H 0.03658 0.9546 0.51771 0.0
C1032 C 0.00954 0.85344 0.40842 0.0
C1033 C 0.98666 0.84636 0.39325 0.0
C1034 C 0.01371 0.87284 0.44742 0.0
C1035 C 0.99516 0.88591 0.47263 0.0
C1036 C 0.97232 0.87831 0.45913 0.0
C1037 C 0.96817 0.85889 0.42054 0.0
C1038 C 0.98763 0.9355 0.59219 0.0
C1039 C 0.00635 0.95044 0.5775 0.0
C1040 C 0.98423 0.9145 0.55931 0.0
C1041 C 0.99948 0.90776 0.51063 0.0
C1042 C 0.01852 0.92262 0.49721 0.0
C1043 C 0.02197 0.94351 0.53034 0.0
H1044 H 0.70156 1.00035 0.50287 0.0
H1045 H 0.66792 0.01896 0.32889 0.0
H1046 H 0.6642 1.00325 0.55752 0.0
H1047 H 0.63084 0.02239 0.38362 0.0
H1048 H 0.5639 0.99919 0.48439 0.0
H1049 H 0.60163 0.99766 0.43236 0.0
H1050 H 0.63391 0.0302 0.59302 0.0
H1051 H 0.59605 0.03169 0.64544 0.0
C1052 C 0.68628 1.00518 0.47619 0.0
C1053 C 0.688 0.00943 0.41114 0.0
C1054 C 0.6648 1.00703 0.50776 0.0
C1055 C 0.64428 0.01295 0.47521 0.0
C1056 C 0.64609 0.0175 0.41039 0.0
C1057 C 0.66755 0.01583 0.37899 0.0
C1058 C 0.57896 1.00609 0.50885 0.0
C1059 C 0.57667 0.01562 0.56941 0.0
C1060 C 0.60071 1.00533 0.47866 0.0
C1061 C 0.62102 0.0139 0.50805 0.0
C1062 C 0.6188 0.02327 0.56885 0.0
C1063 C 0.59696 0.02423 0.5989 0.0
H1064 H 0.48372 0.6795 0.38397 0.0
H1065 H 0.55553 0.69091 0.43654 0.0
H1066 H 0.4828 0.64398 0.44662 0.0
H1067 H 0.55431 0.65587 0.50136 0.0
H1068 H 0.55307 0.57703 0.54494 0.0
H1069 H 0.55384 0.61455 0.49092 0.0
H1070 H 0.48271 0.62659 0.54829 0.0
H1071 H 0.4818 0.58824 0.59877 0.0
C1072 C 0.49931 0.6746 0.40923 0.0
C1073 C 0.51976 0.68825 0.40434 0.0
C1074 C 0.4987 0.65423 0.44598 0.0
C1075 C 0.51852 0.6467 0.47921 0.0
C1076 C 0.53875 0.66073 0.47589 0.0
C1077 C 0.53936 0.68114 0.4392 0.0
C1078 C 0.53758 0.58762 0.54554 0.0
C1079 C 0.5174 0.57963 0.57629 0.0
C1080 C 0.53808 0.6094 0.51532 0.0
C1081 C 0.51834 0.62392 0.51482 0.0
C1082 C 0.49823 0.61598 0.54673 0.0
C1083 C 0.49778 0.59413 0.57683 0.0
H1084 H 0.8263 0.55516 0.49149 0.0
H1085 H 0.84928 0.50902 0.34446 0.0
H1086 H 0.86398 0.55165 0.5426 0.0
H1087 H 0.88629 0.50423 0.3978 0.0
H1088 H 0.95987 0.52014 0.46555 0.0
H1089 H 0.9216 0.52253 0.41737 0.0
H1090 H 0.8905 0.52991 0.60095 0.0
H1091 H 0.92937 0.52938 0.64771 0.0
C1092 C 0.83923 0.54408 0.47005 0.0
C1093 C 0.83441 0.53257 0.413 0.0
C1094 C 0.86094 0.54181 0.5001 0.0
C1095 C 0.87866 0.52779 0.47457 0.0
C1096 C 0.87353 0.51562 0.41874 0.0
C1097 C 0.8519 0.51805 0.38845 0.0
C1098 C 0.94494 0.5227 0.49559 0.0
C1099 C 0.94785 0.52492 0.56084 0.0
C1100 C 0.92274 0.52363 0.46795 0.0
C1101 C 0.90249 0.52638 0.50473 0.0
C1102 C 0.90543 0.52816 0.57033 0.0
C1103 C 0.92776 0.52754 0.59767 0.0
loop_
_geom_bond_atom_site_label_1
_geom_bond_atom_site_label_2
_geom_bond_distance
_geom_bond_site_symmetry_2
_ccdc_geom_bond_type
C0 C1 1.384 . S
C0 H13 0.947 . S
C0 C35 1.382 . S
C1 C0 1.384 . S
C1 C2 1.378 . S
C2 C1 1.378 . S
C2 C3 1.378 . S
C2 H14 0.952 . S
C3 C2 1.378 . S
C3 H15 0.950 . S
C3 C34 1.383 . S
H4 C23 0.947 . S
H5 C24 0.946 . S
H6 C26 0.953 . S
H7 C27 0.945 . S
H8 C29 0.952 . S
H9 C30 0.949 1_556 S
H10 C32 0.950 . S
H11 C33 0.948 . S
H12 C35 0.951 . S
H13 C0 0.947 . S
H14 C2 0.952 . S
H15 C3 0.950 . S
N16 C19 1.382 . S
N16 C21 1.363 . S
N17 C19 1.371 . S
N17 C20 1.372 . S
N18 C20 1.361 . S
N18 C21 1.377 . S
C19 N16 1.382 . S
C19 N17 1.371 . S
C19 C22 1.480 . S
C20 N17 1.372 . S
C20 N18 1.361 . S
C20 C28 1.457 . S
C21 N16 1.363 . S
C21 N18 1.377 . S
C21 C34 1.479 . S
C22 C19 1.480 . S
C22 C23 1.383 . S
C22 C27 1.385 . S
C23 H4 0.947 . S
C23 C22 1.383 . S
C23 C24 1.388 . S
C24 H5 0.946 . S
C24 C23 1.388 . S
C24 C25 1.384 . S
C25 C24 1.384 . S
C25 C26 1.377 . S
C26 H6 0.953 . S
C26 C25 1.377 . S
C26 C27 1.369 . S
C27 H7 0.945 . S
C27 C22 1.385 . S
C27 C26 1.369 . S
C28 C20 1.457 . S
C28 C29 1.372 . S
C28 C33 1.364 . S
C29 H8 0.952 . S
C29 C28 1.372 . S
C29 C30 1.389 . S
C30 H9 0.949 1_554 S
C30 C29 1.389 . S
C30 C31 1.387 . S
C31 C30 1.387 . S
C31 C32 1.372 . S
C32 H10 0.950 . S
C32 C31 1.372 . S
C32 C33 1.379 . S
C33 H11 0.948 . S
C33 C28 1.364 . S
C33 C32 1.379 . S
C34 C3 1.383 . S
C34 C21 1.479 . S
C34 C35 1.398 . S
C35 C0 1.382 . S
C35 H12 0.951 . S
C35 C34 1.398 . S
C36 C37 1.384 . S
C36 H49 0.947 . S
C36 C71 1.382 . S
C37 C36 1.384 . S
C37 C38 1.378 . S
C38 C37 1.378 . S
C38 C39 1.378 . S
C38 H50 0.952 . S
C39 C38 1.378 . S
C39 H51 0.950 . S
C39 C70 1.383 . S
H40 C59 0.947 . S
H41 C60 0.946 . S
H42 C62 0.953 . S
H43 C63 0.945 . S
H44 C65 0.952 . S
H45 C66 0.949 1_556 S
H46 C68 0.950 . S
H47 C69 0.948 . S
H48 C71 0.951 . S
H49 C36 0.947 . S
H50 C38 0.952 . S
H51 C39 0.950 . S
N52 C55 1.382 . S
N52 C57 1.363 . S
N53 C55 1.371 . S
N53 C56 1.372 . S
N54 C56 1.361 . S
N54 C57 1.377 . S
C55 N52 1.382 . S
C55 N53 1.371 . S
C55 C58 1.480 . S
C56 N53 1.372 . S
C56 N54 1.361 . S
C56 C64 1.457 . S
C57 N52 1.363 . S
C57 N54 1.377 . S
C57 C70 1.479 . S
C58 C55 1.480 . S
C58 C59 1.383 . S
C58 C63 1.385 . S
C59 H40 0.947 . S
C59 C58 1.383 . S
C59 C60 1.388 . S
C60 H41 0.946 . S
C60 C59 1.388 . S
C60 C61 1.384 . S
C61 C60 1.384 . S
C61 C62 1.377 . S
C62 H42 0.953 . S
C62 C61 1.377 . S
C62 C63 1.369 . S
C63 H43 0.945 . S
C63 C58 1.385 . S
C63 C62 1.369 . S
C64 C56 1.457 . S
C64 C65 1.372 . S
C64 C69 1.364 . S
C65 H44 0.952 . S
C65 C64 1.372 . S
C65 C66 1.389 . S
C66 H45 0.949 1_554 S
C66 C65 1.389 . S
C66 C67 1.387 . S
C67 C66 1.387 . S
C67 C68 1.372 . S
C68 H46 0.950 . S
C68 C67 1.372 . S
C68 C69 1.379 . S
C69 H47 0.948 . S
C69 C64 1.364 . S
C69 C68 1.379 . S
C70 C39 1.383 . S
C70 C57 1.479 . S
C70 C71 1.398 . S
C71 C36 1.382 . S
C71 H48 0.951 . S
C71 C70 1.398 . S
C72 C73 1.384 . S
C72 H85 0.947 . S
C72 C107 1.382 . S
C73 C72 1.384 . S
C73 C74 1.378 . S
C74 C73 1.378 . S
C74 C75 1.378 . S
C74 H86 0.952 . S
C75 C74 1.378 . S
C75 H87 0.950 . S
C75 C106 1.383 . S
H76 C95 0.947 . S
H77 C96 0.946 . S
H78 C98 0.953 . S
H79 C99 0.945 . S
H80 C101 0.952 . S
H81 C102 0.949 1_556 S
H82 C104 0.950 . S
H83 C105 0.948 . S
H84 C107 0.951 . S
H85 C72 0.947 . S
H86 C74 0.952 . S
H87 C75 0.950 . S
N88 C91 1.382 . S
N88 C93 1.363 . S
N89 C91 1.371 . S
N89 C92 1.372 . S
N90 C92 1.361 . S
N90 C93 1.377 . S
C91 N88 1.382 . S
C91 N89 1.371 . S
C91 C94 1.480 . S
C92 N89 1.372 . S
C92 N90 1.361 . S
C92 C100 1.457 . S
C93 N88 1.363 . S
C93 N90 1.377 . S
C93 C106 1.479 . S
C94 C91 1.480 . S
C94 C95 1.383 . S
C94 C99 1.385 . S
C95 H76 0.947 . S
C95 C94 1.383 . S
C95 C96 1.388 . S
C96 H77 0.946 . S
C96 C95 1.388 . S
C96 C97 1.384 . S
C97 C96 1.384 . S
C97 C98 1.377 . S
C98 H78 0.953 . S
C98 C97 1.377 . S
C98 C99 1.369 . S
C99 H79 0.945 . S
C99 C94 1.385 . S
C99 C98 1.369 . S
C100 C92 1.457 . S
C100 C101 1.372 . S
C100 C105 1.364 . S
C101 H80 0.952 . S
C101 C100 1.372 . S
C101 C102 1.389 . S
C102 H81 0.949 1_554 S
C102 C101 1.389 . S
C102 C103 1.387 . S
C103 C102 1.387 . S
C103 C104 1.372 . S
C104 H82 0.950 . S
C104 C103 1.372 . S
C104 C105 1.379 . S
C105 H83 0.948 . S
C105 C100 1.364 . S
C105 C104 1.379 . S
C106 C75 1.383 . S
C106 C93 1.479 . S
C106 C107 1.398 . S
C107 C72 1.382 . S
C107 H84 0.951 . S
C107 C106 1.398 . S
C108 C109 1.384 . S
C108 H121 0.947 . S
C108 C143 1.382 . S
C109 C108 1.384 . S
C109 C110 1.378 . S
C110 C109 1.378 . S
C110 C111 1.378 . S
C110 H122 0.952 1_554 S
C111 C110 1.378 . S
C111 H123 0.950 . S
C111 C142 1.383 . S
H112 C131 0.947 . S
H113 C132 0.946 . S
H114 C134 0.953 . S
H115 C135 0.945 . S
H116 C137 0.952 . S
H117 C138 0.949 . S
H118 C140 0.950 . S
H119 C141 0.948 . S
H120 C143 0.951 . S
H121 C108 0.947 . S
H122 C110 0.952 1_556 S
H123 C111 0.950 . S
N124 C127 1.382 . S
N124 C129 1.363 . S
N125 C127 1.371 . S
N125 C128 1.372 . S
N126 C128 1.361 . S
N126 C129 1.377 . S
C127 N124 1.382 . S
C127 N125 1.371 . S
C127 C130 1.480 . S
C128 N125 1.372 . S
C128 N126 1.361 . S
C128 C136 1.457 . S
C129 N124 1.363 . S
C129 N126 1.377 . S
C129 C142 1.479 . S
C130 C127 1.480 . S
C130 C131 1.383 . S
C130 C135 1.385 . S
C131 H112 0.947 . S
C131 C130 1.383 . S
C131 C132 1.388 . S
C132 H113 0.946 . S
C132 C131 1.388 . S
C132 C133 1.384 . S
C133 C132 1.384 . S
C133 C134 1.377 . S
C134 H114 0.953 . S
C134 C133 1.377 . S
C134 C135 1.369 . S
C135 H115 0.945 . S
C135 C130 1.385 . S
C135 C134 1.369 . S
C136 C128 1.457 . S
C136 C137 1.372 . S
C136 C141 1.364 . S
C137 H116 0.952 . S
C137 C136 1.372 . S
C137 C138 1.389 . S
C138 H117 0.949 . S
C138 C137 1.389 . S
C138 C139 1.387 . S
C139 C138 1.387 . S
C139 C140 1.372 . S
C140 H118 0.950 . S
C140 C139 1.372 . S
C140 C141 1.379 . S
C141 H119 0.948 . S
C141 C136 1.364 . S
C141 C140 1.379 . S
C142 C111 1.383 . S
C142 C129 1.479 . S
C142 C143 1.398 . S
C143 C108 1.382 . S
C143 H120 0.951 . S
C143 C142 1.398 . S
C144 C145 1.384 . S
C144 H157 0.947 . S
C144 C179 1.382 . S
C145 C144 1.384 . S
C145 C146 1.378 . S
C146 C145 1.378 . S
C146 C147 1.378 . S
C146 H158 0.952 . S
C147 C146 1.378 . S
C147 H159 0.950 . S
C147 C178 1.383 . S
H148 C167 0.947 1_556 S
H149 C168 0.946 . S
H150 C170 0.953 . S
H151 C171 0.945 . S
H152 C173 0.952 . S
H153 C174 0.949 . S
H154 C176 0.950 . S
H155 C177 0.948 . S
H156 C179 0.951 . S
H157 C144 0.947 . S
H158 C146 0.952 . S
H159 C147 0.950 . S
N160 C163 1.382 1_556 S
N160 C165 1.363 . S
N161 C163 1.371 . S
N161 C164 1.372 . S
N162 C164 1.361 . S
N162 C165 1.377 1_554 S
C163 N160 1.382 1_554 S
C163 N161 1.371 . S
C163 C166 1.480 . S
C164 N161 1.372 . S
C164 N162 1.361 . S
C164 C172 1.457 . S
C165 N160 1.363 . S
C165 N162 1.377 1_556 S
C165 C178 1.479 . S
C166 C163 1.480 . S
C166 C167 1.383 . S
C166 C171 1.385 . S
C167 H148 0.947 1_554 S
C167 C166 1.383 . S
C167 C168 1.388 . S
C168 H149 0.946 . S
C168 C167 1.388 . S
C168 C169 1.384 . S
C169 C168 1.384 . S
C169 C170 1.377 . S
C170 H150 0.953 . S
C170 C169 1.377 . S
C170 C171 1.369 . S
C171 H151 0.945 . S
C171 C166 1.385 . S
C171 C170 1.369 . S
C172 C164 1.457 . S
C172 C173 1.372 . S
C172 C177 1.364 . S
C173 H152 0.952 . S
C173 C172 1.372 . S
C173 C174 1.389 . S
C174 H153 0.949 . S
C174 C173 1.389 . S
C174 C175 1.387 . S
C175 C174 1.387 . S
C175 C176 1.372 . S
C176 H154 0.950 . S
C176 C175 1.372 . S
C176 C177 1.379 . S
C177 H155 0.948 . S
C177 C172 1.364 . S
C177 C176 1.379 . S
C178 C147 1.383 . S
C178 C165 1.479 . S
C178 C179 1.398 . S
C179 C144 1.382 . S
C179 H156 0.951 . S
C179 C178 1.398 . S
C180 C181 1.384 . S
C180 H193 0.947 . S
C180 C215 1.382 . S
C181 C180 1.384 . S
C181 C182 1.378 . S
C182 C181 1.378 . S
C182 C183 1.378 . S
C182 H194 0.952 . S
C183 C182 1.378 . S
C183 H195 0.950 . S
C183 C214 1.383 . S
H184 C203 0.947 1_556 S
H185 C204 0.946 . S
H186 C206 0.953 . S
H187 C207 0.945 . S
H188 C209 0.952 . S
H189 C210 0.949 . S
H190 C212 0.950 . S
H191 C213 0.948 . S
H192 C215 0.951 . S
H193 C180 0.947 . S
H194 C182 0.952 . S
H195 C183 0.950 . S
N196 C199 1.372 1_556 S
N196 C201 1.365 . S
N197 C199 1.371 . S
N197 C200 1.372 . S
N198 C200 1.361 . S
N198 C201 1.377 1_554 S
C199 N196 1.372 1_554 S
C199 N197 1.371 . S
C199 C202 1.480 . S
C200 N197 1.372 . S
C200 N198 1.361 . S
C200 C208 1.457 . S
C201 N196 1.365 . S
C201 N198 1.377 1_556 S
C201 C214 1.479 . S
C202 C199 1.480 . S
C202 C203 1.383 . S
C202 C207 1.385 . S
C203 H184 0.947 1_554 S
C203 C202 1.383 . S
C203 C204 1.388 . S
C204 H185 0.946 . S
C204 C203 1.388 . S
C204 C205 1.384 . S
C205 C204 1.384 . S
C205 C206 1.377 . S
C206 H186 0.953 . S
C206 C205 1.377 . S
C206 C207 1.369 . S
C207 H187 0.945 . S
C207 C202 1.385 . S
C207 C206 1.369 . S
C208 C200 1.457 . S
C208 C209 1.372 . S
C208 C213 1.364 . S
C209 H188 0.952 . S
C209 C208 1.372 . S
C209 C210 1.389 . S
C210 H189 0.949 . S
C210 C209 1.389 . S
C210 C211 1.387 . S
C211 C210 1.387 . S
C211 C212 1.372 . S
C212 H190 0.950 . S
C212 C211 1.372 . S
C212 C213 1.379 . S
C213 H191 0.948 . S
C213 C208 1.364 . S
C213 C212 1.379 . S
C214 C183 1.383 . S
C214 C201 1.479 . S
C214 C215 1.398 . S
C215 C180 1.382 . S
C215 H192 0.951 . S
C215 C214 1.398 . S
C216 C217 1.384 . S
C216 H229 0.947 . S
C216 C251 1.382 . S
C217 C216 1.384 . S
C217 C218 1.378 . S
C218 C217 1.378 . S
C218 C219 1.378 . S
C218 H230 0.952 . S
C219 C218 1.378 . S
C219 H231 0.950 . S
C219 C250 1.383 . S
H220 C239 0.947 1_556 S
H221 C240 0.946 . S
H222 C242 0.953 . S
H223 C243 0.945 . S
H224 C245 0.952 . S
H225 C246 0.949 . S
H226 C248 0.950 . S
H227 C249 0.948 . S
H228 C251 0.951 . S
H229 C216 0.947 . S
H230 C218 0.952 . S
H231 C219 0.950 . S
N232 C235 1.369 1_556 S
N232 C237 1.366 . S
N233 C235 1.371 . S
N233 C236 1.372 . S
N234 C236 1.361 . S
N234 C237 1.377 1_554 S
C235 N232 1.369 1_554 S
C235 N233 1.371 . S
C235 C238 1.480 . S
C236 N233 1.372 . S
C236 N234 1.361 . S
C236 C244 1.457 . S
C237 N232 1.366 . S
C237 N234 1.377 1_556 S
C237 C250 1.479 . S
C238 C235 1.480 . S
C238 C239 1.383 . S
C238 C243 1.385 . S
C239 H220 0.947 1_554 S
C239 C238 1.383 . S
C239 C240 1.388 . S
C240 H221 0.946 . S
C240 C239 1.388 . S
C240 C241 1.384 . S
C241 C240 1.384 . S
C241 C242 1.377 . S
C242 H222 0.953 . S
C242 C241 1.377 . S
C242 C243 1.369 . S
C243 H223 0.945 . S
C243 C238 1.385 . S
C243 C242 1.369 . S
C244 C236 1.457 . S
C244 C245 1.372 . S
C244 C249 1.364 . S
C245 H224 0.952 . S
C245 C244 1.372 . S
C245 C246 1.389 . S
C246 H225 0.949 . S
C246 C245 1.389 . S
C246 C247 1.387 . S
C247 C246 1.387 . S
C247 C248 1.372 . S
C248 H226 0.950 . S
C248 C247 1.372 . S
C248 C249 1.379 . S
C249 H227 0.948 . S
C249 C244 1.364 . S
C249 C248 1.379 . S
C250 C219 1.383 . S
C250 C237 1.479 . S
C250 C251 1.398 . S
C251 C216 1.382 . S
C251 H228 0.951 . S
C251 C250 1.398 . S
C252 C253 1.384 . S
C252 H265 0.947 . S
C252 C287 1.382 . S
C253 C252 1.384 . S
C253 C254 1.378 . S
C254 C253 1.378 . S
C254 C255 1.378 . S
C254 H266 0.952 . S
C255 C254 1.378 . S
C255 H267 0.950 . S
C255 C286 1.383 . S
H256 C275 0.947 . S
H257 C276 0.946 . S
H258 C278 0.953 . S
H259 C279 0.945 1_556 S
H260 C281 0.952 . S
H261 C282 0.949 . S
H262 C284 0.950 . S
H263 C285 0.948 . S
H264 C287 0.951 . S
H265 C252 0.947 . S
H266 C254 0.952 . S
H267 C255 0.950 . S
N268 C271 1.382 . S
N268 C273 1.363 . S
N269 C271 1.371 1_556 S
N269 C272 1.372 . S
N270 C272 1.361 1_554 S
N270 C273 1.377 . S
C271 N268 1.382 . S
C271 N269 1.371 1_554 S
C271 C274 1.480 . S
C272 N269 1.372 . S
C272 N270 1.361 1_556 S
C272 C280 1.457 . S
C273 N268 1.363 . S
C273 N270 1.377 . S
C273 C286 1.479 . S
C274 C271 1.480 . S
C274 C275 1.383 . S
C274 C279 1.385 . S
C275 H256 0.947 . S
C275 C274 1.383 . S
C275 C276 1.388 . S
C276 H257 0.946 . S
C276 C275 1.388 . S
C276 C277 1.384 . S
C277 C276 1.384 . S
C277 C278 1.377 . S
C278 H258 0.953 . S
C278 C277 1.377 . S
C278 C279 1.369 . S
C279 H259 0.945 1_554 S
C279 C274 1.385 . S
C279 C278 1.369 . S
C280 C272 1.457 . S
C280 C281 1.372 . S
C280 C285 1.364 . S
C281 H260 0.952 . S
C281 C280 1.372 . S
C281 C282 1.389 . S
C282 H261 0.949 . S
C282 C281 1.389 . S
C282 C283 1.387 . S
C283 C282 1.387 . S
C283 C284 1.372 . S
C284 H262 0.950 . S
C284 C283 1.372 . S
C284 C285 1.379 . S
C285 H263 0.948 . S
C285 C280 1.364 . S
C285 C284 1.379 . S
C286 C255 1.383 . S
C286 C273 1.479 . S
C286 C287 1.398 . S
C287 C252 1.382 . S
C287 H264 0.951 . S
C287 C286 1.398 . S
Eu288 N317 2.600 . S
Eu288 N323 2.562 . S
Eu288 O332 2.462 . S
Eu288 O333 2.373 1_545 S
Eu288 O335 2.432 . S
Eu288 O336 2.291 1_655 S
Eu288 O340 2.335 1_655 S
Eu288 O343 2.372 . S
Eu288 C352 2.787 . S
C289 N290 1.365 . S
C289 C292 1.405 . S
C289 C296 1.448 . S
N290 C289 1.365 . S
N290 C293 1.316 1_545 S
N290 Eu299 2.600 1_545 S
C291 C293 1.388 1_545 S
C291 C294 1.367 . S
C291 H311 0.931 . S
C292 C289 1.405 . S
C292 C294 1.403 . S
C292 C298 1.439 . S
C293 N290 1.316 1_565 S
C293 C291 1.388 1_565 S
C293 H304 0.944 . S
C294 C291 1.367 . S
C294 C292 1.403 . S
C294 H315 0.929 . S
C295 C296 1.430 . S
C295 C297 1.387 . S
C295 C301 1.404 . S
C296 C289 1.448 . S
C296 C295 1.430 . S
C296 N300 1.351 . S
C297 C295 1.387 . S
C297 C298 1.374 . S
C297 H312 0.931 . S
C298 C292 1.439 . S
C298 C297 1.374 . S
C298 H313 0.931 . S
Eu299 N290 2.600 1_565 S
Eu299 N300 2.562 1_565 S
Eu299 O334 2.335 . S
Eu299 O337 2.372 . S
Eu299 O338 2.462 . S
Eu299 O339 2.373 1_565 S
Eu299 O341 2.432 . S
Eu299 O342 2.291 1_465 S
Eu299 C363 2.787 . S
N300 C296 1.351 . S
N300 Eu299 2.562 1_545 S
N300 C302 1.325 . S
C301 C295 1.404 . S
C301 C303 1.366 . S
C301 H309 0.930 . S
C302 N300 1.325 . S
C302 C303 1.416 . S
C302 H308 0.905 1_455 S
C303 C301 1.366 . S
C303 C302 1.416 . S
C303 H305 0.930 . S
H304 C293 0.944 . S
H305 C303 0.930 . S
H306 C321 0.930 . S
H307 C328 0.930 1_455 S
H308 C302 0.905 1_655 S
H309 C301 0.930 . S
H310 C324 0.929 1_455 S
H311 C291 0.931 . S
H312 C297 0.931 . S
H313 C298 0.931 . S
H314 C319 0.931 . S
H315 C294 0.929 . S
H316 C327 0.930 . S
N317 Eu288 2.600 . S
N317 C318 1.365 . S
N317 C321 1.319 . S
C318 N317 1.365 . S
C318 C320 1.405 1_545 S
C318 C326 1.448 . S
C319 H314 0.931 . S
C319 C321 1.397 . S
C319 C322 1.379 . S
C320 C318 1.405 1_565 S
C320 C322 1.400 1_565 S
C320 C353 1.439 . S
C321 H306 0.930 . S
C321 N317 1.319 . S
C321 C319 1.397 . S
C322 C319 1.379 . S
C322 C320 1.400 1_545 S
C322 H329 0.922 1_545 S
N323 Eu288 2.562 . S
N323 C324 1.325 . S
N323 C326 1.351 . S
C324 H310 0.929 1_655 S
C324 N323 1.325 . S
C324 C328 1.416 1_545 S
C325 C326 1.430 1_565 S
C325 C327 1.404 . S
C325 C354 1.387 . S
C326 C318 1.448 . S
C326 N323 1.351 . S
C326 C325 1.430 1_545 S
C327 H316 0.930 . S
C327 C325 1.404 . S
C327 C328 1.366 . S
C328 H307 0.930 1_655 S
C328 C324 1.416 1_565 S
C328 C327 1.366 . S
H329 C322 0.922 1_565 S
H330 C353 0.931 . S
H331 C354 0.931 . S
O332 Eu288 2.462 . S
O332 C352 1.252 . S
O333 Eu288 2.373 1_565 S
O333 C344 1.249 . S
O334 Eu299 2.335 . S
O334 C344 1.264 1_455 S
O335 Eu288 2.432 . S
O335 C352 1.268 . S
O336 Eu288 2.291 1_455 S
O336 C351 1.255 . S
O337 Eu299 2.372 . S
O337 C351 1.257 1_565 S
O338 Eu299 2.462 . S
O338 C363 1.252 . S
O339 Eu299 2.373 1_545 S
O339 C355 1.249 . S
O340 Eu288 2.335 1_455 S
O340 C355 1.264 . S
O341 Eu299 2.432 . S
O341 C363 1.268 . S
O342 Eu299 2.291 1_645 S
O342 C362 1.255 . S
O343 Eu288 2.372 . S
O343 C362 1.257 . S
C344 O333 1.249 . S
C344 O334 1.264 1_655 S
C345 C348 1.382 . S
C345 C350 1.390 . S
C345 C352 1.506 . S
C346 C347 1.398 . S
C346 C350 1.392 . S
C347 C346 1.398 . S
C347 C349 1.372 . S
C347 H364 0.931 . S
C348 C345 1.382 . S
C348 C349 1.390 . S
C348 H365 0.931 . S
C349 C347 1.372 . S
C349 C348 1.390 . S
C349 H366 0.929 . S
C350 C345 1.390 . S
C350 C346 1.392 . S
C350 H367 0.930 1_655 S
C351 O336 1.255 . S
C351 O337 1.257 1_545 S
C352 Eu288 2.787 . S
C352 O332 1.252 . S
C352 O335 1.268 . S
C352 C345 1.506 . S
C353 C320 1.439 . S
C353 H330 0.931 . S
C353 C354 1.374 . S
C354 C325 1.387 . S
C354 H331 0.931 . S
C354 C353 1.374 . S
C355 O339 1.249 . S
C355 O340 1.264 . S
C356 C359 1.382 . S
C356 C360 1.390 . S
C356 C363 1.506 . S
C357 C358 1.398 . S
C357 C360 1.392 . S
C358 C357 1.398 . S
C358 C361 1.372 . S
C358 H368 0.931 . S
C359 C356 1.382 . S
C359 C361 1.390 . S
C359 H369 0.931 . S
C360 C356 1.390 . S
C360 C357 1.392 . S
C360 H370 0.930 . S
C361 C358 1.372 . S
C361 C359 1.390 . S
C361 H371 0.929 . S
C362 O342 1.255 . S
C362 O343 1.257 . S
C363 Eu299 2.787 . S
C363 O338 1.252 . S
C363 O341 1.268 . S
C363 C356 1.506 . S
H364 C347 0.931 . S
H365 C348 0.931 . S
H366 C349 0.929 . S
H367 C350 0.930 1_455 S
H368 C358 0.931 . S
H369 C359 0.931 . S
H370 C360 0.930 . S
H371 C361 0.929 . S
Eu372 N401 2.600 . S
Eu372 N407 2.562 . S
Eu372 O416 2.462 . S
Eu372 O417 2.373 . S
Eu372 O419 2.432 . S
Eu372 O420 2.291 . S
Eu372 O424 2.335 1_545 S
Eu372 O427 2.372 . S
Eu372 C436 2.787 . S
C373 N374 1.365 . S
C373 C376 1.405 . S
C373 C380 1.448 . S
N374 C373 1.365 . S
N374 C377 1.319 . S
N374 Eu383 2.600 . S
C375 C377 1.397 . S
C375 C378 1.367 . S
C375 H395 0.931 . S
C376 C373 1.405 . S
C376 C378 1.403 . S
C376 C382 1.439 . S
C377 N374 1.319 . S
C377 C375 1.397 . S
C377 H388 0.930 . S
C378 C375 1.367 . S
C378 C376 1.403 . S
C378 H399 0.929 . S
C379 C380 1.430 . S
C379 C381 1.387 . S
C379 C385 1.404 . S
C380 C373 1.448 . S
C380 C379 1.430 . S
C380 N384 1.351 . S
C381 C379 1.387 . S
C381 C382 1.374 . S
C381 H396 0.931 . S
C382 C376 1.439 . S
C382 C381 1.374 . S
C382 H397 0.931 . S
Eu383 N374 2.600 . S
Eu383 N384 2.562 . S
Eu383 O418 2.335 1_565 S
Eu383 O421 2.372 . S
Eu383 O422 2.462 . S
Eu383 O423 2.373 . S
Eu383 O425 2.432 . S
Eu383 O426 2.291 1_565 S
Eu383 C447 2.787 . S
N384 C380 1.351 . S
N384 Eu383 2.562 . S
N384 C386 1.325 . S
C385 C379 1.404 . S
C385 C387 1.366 . S
C385 H393 0.930 . S
C386 N384 1.325 . S
C386 C387 1.416 . S
C386 H392 0.929 . S
C387 C385 1.366 . S
C387 C386 1.416 . S
C387 H389 0.930 . S
H388 C377 0.930 . S
H389 C387 0.930 . S
H390 C405 0.930 . S
H391 C412 0.930 . S
H392 C386 0.929 . S
H393 C385 0.930 . S
H394 C408 0.929 . S
H395 C375 0.931 . S
H396 C381 0.931 . S
H397 C382 0.931 . S
H398 C403 0.931 . S
H399 C378 0.929 . S
H400 C411 0.930 . S
N401 Eu372 2.600 . S
N401 C402 1.365 . S
N401 C405 1.319 . S
C402 N401 1.365 . S
C402 C404 1.405 . S
C402 C410 1.448 . S
C403 H398 0.931 . S
C403 C405 1.397 . S
C403 C406 1.367 . S
C404 C402 1.405 . S
C404 C406 1.403 . S
C404 C437 1.439 . S
C405 H390 0.930 . S
C405 N401 1.319 . S
C405 C403 1.397 . S
C406 C403 1.367 . S
C406 C404 1.403 . S
C406 H413 0.929 . S
N407 Eu372 2.562 . S
N407 C408 1.325 . S
N407 C410 1.351 . S
C408 H394 0.929 . S
C408 N407 1.325 . S
C408 C412 1.416 . S
C409 C410 1.430 . S
C409 C411 1.404 . S
C409 C438 1.387 . S
C410 C402 1.448 . S
C410 N407 1.351 . S
C410 C409 1.430 . S
C411 H400 0.930 . S
C411 C409 1.404 . S
C411 C412 1.366 . S
C412 H391 0.930 . S
C412 C408 1.416 . S
C412 C411 1.366 . S
H413 C406 0.929 . S
H414 C437 0.931 . S
H415 C438 0.931 . S
O416 Eu372 2.462 . S
O416 C436 1.252 . S
O417 Eu372 2.373 . S
O417 C428 1.249 . S
O418 Eu383 2.335 1_545 S
O418 C428 1.264 . S
O419 Eu372 2.432 . S
O419 C436 1.268 . S
O420 Eu372 2.291 . S
O420 C435 1.247 1_545 S
O421 Eu383 2.372 . S
O421 C435 1.262 . S
O422 Eu383 2.462 . S
O422 C447 1.252 . S
O423 Eu383 2.373 . S
O423 C439 1.249 . S
O424 Eu372 2.335 1_565 S
O424 C439 1.264 . S
O425 Eu383 2.432 . S
O425 C447 1.268 . S
O426 Eu383 2.291 1_545 S
O426 C446 1.255 . S
O427 Eu372 2.372 . S
O427 C446 1.257 . S
C428 O417 1.249 . S
C428 O418 1.264 . S
C429 C432 1.382 . S
C429 C434 1.390 . S
C429 C436 1.506 . S
C430 C431 1.398 . S
C430 C434 1.392 . S
C431 C430 1.398 . S
C431 C433 1.372 . S
C431 H448 0.931 . S
C432 C429 1.382 . S
C432 C433 1.390 . S
C432 H449 0.931 . S
C433 C431 1.372 . S
C433 C432 1.390 . S
C433 H450 0.929 . S
C434 C429 1.390 . S
C434 C430 1.392 . S
C434 H451 0.930 . S
C435 O420 1.247 1_565 S
C435 O421 1.262 . S
C436 Eu372 2.787 . S
C436 O416 1.252 . S
C436 O419 1.268 . S
C436 C429 1.506 . S
C437 C404 1.439 . S
C437 H414 0.931 . S
C437 C438 1.374 . S
C438 C409 1.387 . S
C438 H415 0.931 . S
C438 C437 1.374 . S
C439 O423 1.249 . S
C439 O424 1.264 . S
C440 C443 1.382 . S
C440 C444 1.390 1_565 S
C440 C447 1.506 . S
C441 C442 1.398 1_545 S
C441 C444 1.392 . S
C442 C441 1.398 1_565 S
C442 C445 1.372 . S
C442 H452 0.931 . S
C443 C440 1.382 . S
C443 C445 1.390 . S
C443 H453 0.931 . S
C444 C440 1.390 1_545 S
C444 C441 1.392 . S
C444 H454 0.930 . S
C445 C442 1.372 . S
C445 C443 1.390 . S
C445 H455 0.929 . S
C446 O426 1.255 . S
C446 O427 1.257 . S
C447 Eu383 2.787 . S
C447 O422 1.252 . S
C447 O425 1.268 . S
C447 C440 1.506 . S
H448 C431 0.931 . S
H449 C432 0.931 . S
H450 C433 0.929 . S
H451 C434 0.930 . S
H452 C442 0.931 . S
H453 C443 0.931 . S
H454 C444 0.930 . S
H455 C445 0.929 . S
Eu456 N485 2.600 . S
Eu456 N491 2.562 . S
Eu456 O500 2.462 . S
Eu456 O501 2.373 . S
Eu456 O503 2.432 . S
Eu456 O504 2.291 . S
Eu456 O508 2.335 . S
Eu456 O511 2.372 . S
Eu456 C520 2.787 . S
C457 N458 1.365 . S
C457 C460 1.405 . S
C457 C464 1.448 . S
N458 C457 1.365 . S
N458 C461 1.319 . S
N458 Eu467 2.600 . S
C459 C461 1.397 . S
C459 C462 1.367 . S
C459 H479 0.931 . S
C460 C457 1.405 . S
C460 C462 1.403 . S
C460 C466 1.439 . S
C461 N458 1.319 . S
C461 C459 1.397 . S
C461 H472 0.930 . S
C462 C459 1.367 . S
C462 C460 1.403 . S
C462 H483 0.929 . S
C463 C464 1.430 . S
C463 C465 1.387 . S
C463 C469 1.404 . S
C464 C457 1.448 . S
C464 C463 1.430 . S
C464 N468 1.351 . S
C465 C463 1.387 . S
C465 C466 1.374 . S
C465 H480 0.931 . S
C466 C460 1.439 . S
C466 C465 1.374 . S
C466 H481 0.931 . S
Eu467 N458 2.600 . S
Eu467 N468 2.562 . S
Eu467 O502 2.335 . S
Eu467 O505 2.372 . S
Eu467 O506 2.462 . S
Eu467 O507 2.373 . S
Eu467 O509 2.432 . S
Eu467 O510 2.291 . S
Eu467 C531 2.787 . S
N468 C464 1.351 . S
N468 Eu467 2.562 . S
N468 C470 1.325 . S
C469 C463 1.404 . S
C469 C471 1.366 . S
C469 H477 0.930 . S
C470 N468 1.325 . S
C470 C471 1.416 . S
C470 H476 0.929 . S
C471 C469 1.366 . S
C471 C470 1.416 . S
C471 H473 0.930 . S
H472 C461 0.930 . S
H473 C471 0.930 . S
H474 C489 0.930 . S
H475 C496 0.930 . S
H476 C470 0.929 . S
H477 C469 0.930 . S
H478 C492 0.929 . S
H479 C459 0.931 . S
H480 C465 0.931 . S
H481 C466 0.931 . S
H482 C487 0.931 . S
H483 C462 0.929 . S
H484 C495 0.930 . S
N485 Eu456 2.600 . S
N485 C486 1.365 . S
N485 C489 1.319 . S
C486 N485 1.365 . S
C486 C488 1.405 . S
C486 C494 1.448 . S
C487 H482 0.931 . S
C487 C489 1.397 . S
C487 C490 1.367 . S
C488 C486 1.405 . S
C488 C490 1.403 . S
C488 C521 1.439 . S
C489 H474 0.930 . S
C489 N485 1.319 . S
C489 C487 1.397 . S
C490 C487 1.367 . S
C490 C488 1.403 . S
C490 H497 0.929 . S
N491 Eu456 2.562 . S
N491 C492 1.325 . S
N491 C494 1.351 . S
C492 H478 0.929 . S
C492 N491 1.325 . S
C492 C496 1.416 . S
C493 C494 1.430 . S
C493 C495 1.404 . S
C493 C522 1.387 . S
C494 C486 1.448 . S
C494 N491 1.351 . S
C494 C493 1.430 . S
C495 H484 0.930 . S
C495 C493 1.404 . S
C495 C496 1.366 . S
C496 H475 0.930 . S
C496 C492 1.416 . S
C496 C495 1.366 . S
H497 C490 0.929 . S
H498 C521 0.931 . S
H499 C522 0.931 . S
O500 Eu456 2.462 . S
O500 C520 1.252 . S
O501 Eu456 2.373 . S
O501 C512 1.249 . S
O502 Eu467 2.335 . S
O502 C512 1.264 . S
O503 Eu456 2.432 . S
O503 C520 1.268 . S
O504 Eu456 2.291 . S
O504 C519 1.255 . S
O505 Eu467 2.372 . S
O505 C519 1.257 . S
O506 Eu467 2.462 . S
O506 C531 1.252 . S
O507 Eu467 2.373 . S
O507 C523 1.249 . S
O508 Eu456 2.335 . S
O508 C523 1.264 . S
O509 Eu467 2.432 . S
O509 C531 1.268 . S
O510 Eu467 2.291 . S
O510 C530 1.255 . S
O511 Eu456 2.372 . S
O511 C530 1.257 . S
C512 O501 1.249 . S
C512 O502 1.264 . S
C513 C516 1.382 . S
C513 C518 1.390 . S
C513 C520 1.506 . S
C514 C515 1.398 . S
C514 C518 1.392 . S
C515 C514 1.398 . S
C515 C517 1.372 . S
C515 H532 0.931 . S
C516 C513 1.382 . S
C516 C517 1.390 . S
C516 H533 0.931 . S
C517 C515 1.372 . S
C517 C516 1.390 . S
C517 H534 0.929 . S
C518 C513 1.390 . S
C518 C514 1.392 . S
C518 H535 0.930 . S
C519 O504 1.255 . S
C519 O505 1.257 . S
C520 Eu456 2.787 . S
C520 O500 1.252 . S
C520 O503 1.268 . S
C520 C513 1.506 . S
C521 C488 1.439 . S
C521 H498 0.931 . S
C521 C522 1.374 . S
C522 C493 1.387 . S
C522 H499 0.931 . S
C522 C521 1.374 . S
C523 O507 1.249 . S
C523 O508 1.264 . S
C524 C527 1.382 . S
C524 C528 1.390 . S
C524 C531 1.506 . S
C525 C526 1.398 . S
C525 C528 1.392 . S
C526 C525 1.398 . S
C526 C529 1.372 . S
C526 H536 0.931 . S
C527 C524 1.382 . S
C527 C529 1.390 . S
C527 H537 0.931 . S
C528 C524 1.390 . S
C528 C525 1.392 . S
C528 H538 0.930 . S
C529 C526 1.372 . S
C529 C527 1.390 . S
C529 H539 0.929 . S
C530 O510 1.255 . S
C530 O511 1.257 . S
C531 Eu467 2.787 . S
C531 O506 1.252 . S
C531 O509 1.268 . S
C531 C524 1.506 . S
H532 C515 0.931 . S
H533 C516 0.931 . S
H534 C517 0.929 . S
H535 C518 0.930 . S
H536 C526 0.931 . S
H537 C527 0.931 . S
H538 C528 0.930 . S
H539 C529 0.929 . S
Eu540 N569 2.600 . S
Eu540 N575 2.562 . S
Eu540 O584 2.462 . S
Eu540 O585 2.373 1_455 S
Eu540 O587 2.432 . S
Eu540 O588 2.291 . S
Eu540 O592 2.335 . S
Eu540 O595 2.372 . S
Eu540 C604 2.787 . S
C541 N542 1.365 1_455 S
C541 C544 1.405 . S
C541 C548 1.448 . S
N542 C541 1.365 1_655 S
N542 C545 1.319 . S
N542 Eu551 2.600 . S
C543 C545 1.397 1_455 S
C543 C546 1.367 . S
C543 H563 0.931 . S
C544 C541 1.405 . S
C544 C546 1.403 . S
C544 C550 1.439 . S
C545 N542 1.319 . S
C545 C543 1.397 1_655 S
C545 H556 0.930 . S
C546 C543 1.367 . S
C546 C544 1.403 . S
C546 H567 0.929 . S
C547 C548 1.430 . S
C547 C549 1.387 . S
C547 C553 1.404 . S
C548 C541 1.448 . S
C548 C547 1.430 . S
C548 N552 1.351 . S
C549 C547 1.387 . S
C549 C550 1.374 . S
C549 H564 0.931 . S
C550 C544 1.439 . S
C550 C549 1.374 . S
C550 H565 0.931 . S
Eu551 N542 2.600 . S
Eu551 N552 2.562 1_655 S
Eu551 O586 2.335 . S
Eu551 O589 2.372 . S
Eu551 O590 2.462 . S
Eu551 O591 2.373 1_655 S
Eu551 O593 2.432 . S
Eu551 O594 2.304 . S
Eu551 C615 2.787 . S
N552 C548 1.351 . S
N552 Eu551 2.562 1_455 S
N552 C554 1.325 . S
C553 C547 1.404 . S
C553 C555 1.366 . S
C553 H561 0.930 . S
C554 N552 1.325 . S
C554 C555 1.416 . S
C554 H560 0.929 1_455 S
C555 C553 1.366 . S
C555 C554 1.416 . S
C555 H557 0.930 . S
H556 C545 0.930 . S
H557 C555 0.930 . S
H558 C573 0.930 . S
H559 C580 0.930 . S
H560 C554 0.929 1_655 S
H561 C553 0.930 . S
H562 C576 0.929 . S
H563 C543 0.931 . S
H564 C549 0.931 . S
H565 C550 0.931 . S
H566 C571 0.931 . S
H567 C546 0.929 . S
H568 C579 0.930 . S
N569 Eu540 2.600 . S
N569 C570 1.365 . S
N569 C573 1.319 . S
C570 N569 1.365 . S
C570 C572 1.405 1_455 S
C570 C578 1.451 . S
C571 H566 0.931 . S
C571 C573 1.397 . S
C571 C574 1.367 1_455 S
C572 C570 1.405 1_655 S
C572 C574 1.403 . S
C572 C605 1.439 . S
C573 H558 0.930 . S
C573 N569 1.319 . S
C573 C571 1.397 . S
C574 C571 1.367 1_655 S
C574 C572 1.403 . S
C574 H581 0.929 . S
N575 Eu540 2.562 . S
N575 C576 1.325 . S
N575 C578 1.363 . S
C576 H562 0.929 . S
C576 N575 1.325 . S
C576 C580 1.416 1_455 S
C577 C578 1.416 1_655 S
C577 C579 1.404 . S
C577 C606 1.387 . S
C578 C570 1.451 . S
C578 N575 1.363 . S
C578 C577 1.416 1_455 S
C579 H568 0.930 . S
C579 C577 1.404 . S
C579 C580 1.366 . S
C580 H559 0.930 . S
C580 C576 1.416 1_655 S
C580 C579 1.366 . S
H581 C574 0.929 . S
H582 C605 0.931 . S
H583 C606 0.931 . S
O584 Eu540 2.462 . S
O584 C604 1.252 . S
O585 Eu540 2.373 1_655 S
O585 C596 1.249 . S
O586 Eu551 2.335 . S
O586 C596 1.264 . S
O587 Eu540 2.432 . S
O587 C604 1.268 . S
O588 Eu540 2.291 . S
O588 C603 1.255 . S
O589 Eu551 2.372 . S
O589 C603 1.257 1_655 S
O590 Eu551 2.462 . S
O590 C615 1.252 . S
O591 Eu551 2.373 1_455 S
O591 C607 1.249 . S
O592 Eu540 2.335 . S
O592 C607 1.264 . S
O593 Eu551 2.432 . S
O593 C615 1.268 . S
O594 Eu551 2.304 . S
O594 C614 1.247 1_655 S
O595 Eu540 2.372 . S
O595 C614 1.257 . S
C596 O585 1.249 . S
C596 O586 1.264 . S
C597 C600 1.382 . S
C597 C602 1.390 . S
C597 C604 1.506 . S
C598 C599 1.398 . S
C598 C602 1.392 . S
C599 C598 1.398 . S
C599 C601 1.372 . S
C599 H616 0.931 . S
C600 C597 1.382 . S
C600 C601 1.390 . S
C600 H617 0.931 . S
C601 C599 1.372 . S
C601 C600 1.390 . S
C601 H618 0.929 . S
C602 C597 1.390 . S
C602 C598 1.392 . S
C602 H619 0.930 . S
C603 O588 1.255 . S
C603 O589 1.257 1_455 S
C604 Eu540 2.787 . S
C604 O584 1.252 . S
C604 O587 1.268 . S
C604 C597 1.506 . S
C605 C572 1.439 . S
C605 H582 0.931 . S
C605 C606 1.374 . S
C606 C577 1.387 . S
C606 H583 0.931 . S
C606 C605 1.374 . S
C607 O591 1.249 . S
C607 O592 1.264 . S
C608 C611 1.382 . S
C608 C612 1.390 . S
C608 C615 1.506 . S
C609 C610 1.398 . S
C609 C612 1.392 . S
C610 C609 1.398 . S
C610 C613 1.372 . S
C610 H620 0.931 . S
C611 C608 1.382 . S
C611 C613 1.390 . S
C611 H621 0.931 . S
C612 C608 1.390 . S
C612 C609 1.392 . S
C612 H622 0.930 . S
C613 C610 1.372 . S
C613 C611 1.390 . S
C613 H623 0.929 . S
C614 O594 1.247 1_455 S
C614 O595 1.257 . S
C615 Eu551 2.787 . S
C615 O590 1.252 . S
C615 O593 1.268 . S
C615 C608 1.506 . S
H616 C599 0.931 . S
H617 C600 0.931 . S
H618 C601 0.929 . S
H619 C602 0.930 . S
H620 C610 0.931 . S
H621 C611 0.931 . S
H622 C612 0.930 . S
H623 C613 0.929 . S
H624 C632 0.950 . S
H625 C637 0.950 . S
H626 C634 0.950 . S
H627 C636 0.950 . S
H628 C638 0.950 . S
H629 C640 0.950 . S
H630 C642 0.950 . S
H631 C643 0.950 . S
C632 H624 0.950 . S
C632 C633 1.386 . S
C632 C634 1.391 . S
C633 C632 1.386 . S
C633 C637 1.393 . S
C634 H626 0.950 . S
C634 C632 1.391 . S
C634 C635 1.400 . S
C635 C634 1.400 . S
C635 C636 1.398 . S
C635 C641 1.491 . S
C636 H627 0.950 . S
C636 C635 1.398 . S
C636 C637 1.391 . S
C637 H625 0.950 . S
C637 C633 1.393 . S
C637 C636 1.391 . S
C638 H628 0.950 . S
C638 C639 1.386 . S
C638 C640 1.391 . S
C639 C638 1.386 . S
C639 C643 1.393 . S
C640 H629 0.950 . S
C640 C638 1.391 . S
C640 C641 1.400 . S
C641 C635 1.491 . S
C641 C640 1.400 . S
C641 C642 1.398 . S
C642 H630 0.950 . S
C642 C641 1.398 . S
C642 C643 1.391 . S
C643 H631 0.950 . S
C643 C639 1.393 . S
C643 C642 1.391 . S
H644 C652 0.950 . S
H645 C657 0.950 . S
H646 C654 0.950 . S
H647 C656 0.950 . S
H648 C658 0.950 . S
H649 C660 0.950 . S
H650 C662 0.950 . S
H651 C663 0.950 . S
C652 H644 0.950 . S
C652 C653 1.386 . S
C652 C654 1.391 . S
C653 C652 1.386 . S
C653 C657 1.393 . S
C654 H646 0.950 . S
C654 C652 1.391 . S
C654 C655 1.400 . S
C655 C654 1.400 . S
C655 C656 1.398 . S
C655 C661 1.491 . S
C656 H647 0.950 . S
C656 C655 1.398 . S
C656 C657 1.391 . S
C657 H645 0.950 . S
C657 C653 1.393 . S
C657 C656 1.391 . S
C658 H648 0.950 . S
C658 C659 1.386 . S
C658 C660 1.391 . S
C659 C658 1.386 . S
C659 C663 1.393 . S
C660 H649 0.950 . S
C660 C658 1.391 . S
C660 C661 1.400 . S
C661 C655 1.491 . S
C661 C660 1.400 . S
C661 C662 1.398 . S
C662 H650 0.950 . S
C662 C661 1.398 . S
C662 C663 1.391 . S
C663 H651 0.950 . S
C663 C659 1.393 . S
C663 C662 1.391 . S
H664 C672 0.950 . S
H665 C677 0.950 . S
H666 C674 0.950 . S
H667 C676 0.950 . S
H668 C678 0.950 . S
H669 C680 0.950 . S
H670 C682 0.950 . S
H671 C683 0.950 . S
C672 H664 0.950 . S
C672 C673 1.386 . S
C672 C674 1.391 . S
C673 C672 1.386 . S
C673 C677 1.393 . S
C674 H666 0.950 . S
C674 C672 1.391 . S
C674 C675 1.400 . S
C675 C674 1.400 . S
C675 C676 1.398 . S
C675 C681 1.491 . S
C676 H667 0.950 . S
C676 C675 1.398 . S
C676 C677 1.391 . S
C677 H665 0.950 . S
C677 C673 1.393 . S
C677 C676 1.391 . S
C678 H668 0.950 . S
C678 C679 1.386 . S
C678 C680 1.391 . S
C679 C678 1.386 . S
C679 C683 1.393 . S
C680 H669 0.950 . S
C680 C678 1.391 . S
C680 C681 1.400 . S
C681 C675 1.491 . S
C681 C680 1.400 . S
C681 C682 1.398 . S
C682 H670 0.950 . S
C682 C681 1.398 . S
C682 C683 1.391 . S
C683 H671 0.950 . S
C683 C679 1.393 . S
C683 C682 1.391 . S
H684 C692 0.950 . S
H685 C697 0.950 . S
H686 C694 0.950 1_655 S
H687 C696 0.950 . S
H688 C698 0.950 . S
H689 C700 0.950 . S
H690 C702 0.950 1_655 S
H691 C703 0.931 1_655 S
C692 H684 0.950 . S
C692 C693 1.386 . S
C692 C694 1.391 . S
C693 C692 1.386 . S
C693 C697 1.393 . S
C694 H686 0.950 1_455 S
C694 C692 1.391 . S
C694 C695 1.400 . S
C695 C694 1.400 . S
C695 C696 1.398 . S
C695 C701 1.491 . S
C696 H687 0.950 . S
C696 C695 1.398 . S
C696 C697 1.391 . S
C697 H685 0.950 . S
C697 C693 1.393 . S
C697 C696 1.391 . S
C698 H688 0.950 . S
C698 C699 1.386 . S
C698 C700 1.391 . S
C699 C698 1.386 . S
C699 C703 1.408 . S
C700 H689 0.950 . S
C700 C698 1.391 . S
C700 C701 1.400 . S
C701 C695 1.491 . S
C701 C700 1.400 . S
C701 C702 1.398 . S
C702 H690 0.950 1_455 S
C702 C701 1.398 . S
C702 C703 1.395 . S
C703 H691 0.931 1_455 S
C703 C699 1.408 . S
C703 C702 1.395 . S
H704 C712 0.950 . S
H705 C717 0.950 1_545 S
H706 C714 0.950 . S
H707 C716 0.950 . S
H708 C718 0.950 . S
H709 C720 0.950 . S
H710 C722 0.950 . S
H711 C723 0.950 . S
C712 H704 0.950 . S
C712 C713 1.386 . S
C712 C714 1.391 1_554 S
C713 C712 1.386 . S
C713 C717 1.393 . S
C714 H706 0.950 . S
C714 C712 1.391 1_556 S
C714 C715 1.400 . S
C715 C714 1.400 . S
C715 C716 1.398 1_566 S
C715 C721 1.491 . S
C716 H707 0.950 . S
C716 C715 1.398 1_544 S
C716 C717 1.391 1_545 S
C717 H705 0.950 1_565 S
C717 C713 1.393 . S
C717 C716 1.391 1_565 S
C718 H708 0.950 . S
C718 C719 1.386 1_545 S
C718 C720 1.391 . S
C719 C718 1.386 1_565 S
C719 C723 1.393 . S
C720 H709 0.950 . S
C720 C718 1.391 . S
C720 C721 1.400 1_545 S
C721 C715 1.491 . S
C721 C720 1.400 1_565 S
C721 C722 1.398 . S
C722 H710 0.950 . S
C722 C721 1.398 . S
C722 C723 1.391 . S
C723 H711 0.950 . S
C723 C719 1.393 . S
C723 C722 1.391 . S
H724 C732 0.950 . S
H725 C737 0.950 . S
H726 C734 0.950 1_556 S
H727 C736 0.950 . S
H728 C738 0.950 . S
H729 C740 0.950 . S
H730 C742 0.950 . S
H731 C743 0.950 . S
C732 H724 0.950 . S
C732 C733 1.386 . S
C732 C734 1.391 . S
C733 C732 1.386 . S
C733 C737 1.393 . S
C734 H726 0.950 1_554 S
C734 C732 1.391 . S
C734 C735 1.400 1_554 S
C735 C734 1.400 1_556 S
C735 C736 1.398 1_556 S
C735 C741 1.491 . S
C736 H727 0.950 . S
C736 C735 1.398 1_554 S
C736 C737 1.391 . S
C737 H725 0.950 . S
C737 C733 1.393 . S
C737 C736 1.391 . S
C738 H728 0.950 . S
C738 C739 1.386 . S
C738 C740 1.391 . S
C739 C738 1.386 . S
C739 C743 1.393 . S
C740 H729 0.950 . S
C740 C738 1.391 . S
C740 C741 1.400 . S
C741 C735 1.491 . S
C741 C740 1.400 . S
C741 C742 1.398 . S
C742 H730 0.950 . S
C742 C741 1.398 . S
C742 C743 1.391 . S
C743 H731 0.950 . S
C743 C739 1.393 . S
C743 C742 1.391 . S
H744 C752 0.950 . S
H745 C757 0.950 . S
H746 C754 0.950 1_556 S
H747 C756 0.950 1_556 S
H748 C758 0.950 . S
H749 C760 0.950 . S
H750 C762 0.950 . S
H751 C763 0.950 . S
C752 H744 0.950 . S
C752 C753 1.386 . S
C752 C754 1.391 . S
C753 C752 1.386 . S
C753 C757 1.393 . S
C754 H746 0.950 1_554 S
C754 C752 1.391 . S
C754 C755 1.400 1_554 S
C755 C754 1.400 1_556 S
C755 C756 1.398 1_556 S
C755 C761 1.491 . S
C756 H747 0.950 1_554 S
C756 C755 1.398 1_554 S
C756 C757 1.391 . S
C757 H745 0.950 . S
C757 C753 1.393 . S
C757 C756 1.391 . S
C758 H748 0.950 . S
C758 C759 1.386 . S
C758 C760 1.391 . S
C759 C758 1.386 . S
C759 C763 1.393 . S
C760 H749 0.950 . S
C760 C758 1.391 . S
C760 C761 1.400 . S
C761 C755 1.491 . S
C761 C760 1.400 . S
C761 C762 1.398 . S
C762 H750 0.950 . S
C762 C761 1.398 . S
C762 C763 1.391 . S
C763 H751 0.950 . S
C763 C759 1.393 . S
C763 C762 1.391 . S
H764 C772 0.950 . S
H765 C777 0.950 . S
H766 C774 0.950 . S
H767 C776 0.950 . S
H768 C778 0.950 . S
H769 C780 0.950 . S
H770 C782 0.950 1_455 S
H771 C783 0.950 . S
C772 H764 0.950 . S
C772 C773 1.386 . S
C772 C774 1.391 . S
C773 C772 1.386 . S
C773 C777 1.393 . S
C774 H766 0.950 . S
C774 C772 1.391 . S
C774 C775 1.400 1_554 S
C775 C774 1.400 1_556 S
C775 C776 1.398 . S
C775 C781 1.491 . S
C776 H767 0.950 . S
C776 C775 1.398 . S
C776 C777 1.391 1_556 S
C777 H765 0.950 . S
C777 C773 1.393 . S
C777 C776 1.391 1_554 S
C778 H768 0.950 . S
C778 C779 1.386 . S
C778 C780 1.391 . S
C779 C778 1.386 . S
C779 C783 1.393 1_655 S
C780 H769 0.950 . S
C780 C778 1.391 . S
C780 C781 1.400 . S
C781 C775 1.491 . S
C781 C780 1.400 . S
C781 C782 1.398 . S
C782 H770 0.950 1_655 S
C782 C781 1.398 . S
C782 C783 1.391 1_655 S
C783 H771 0.950 . S
C783 C779 1.393 1_455 S
C783 C782 1.391 1_455 S
H784 C792 0.950 . S
H785 C797 0.950 . S
H786 C794 0.950 . S
H787 C796 0.950 . S
H788 C798 0.950 . S
H789 C800 0.950 . S
H790 C802 0.950 . S
H791 C803 0.950 . S
C792 H784 0.950 . S
C792 C793 1.386 . S
C792 C794 1.391 . S
C793 C792 1.386 . S
C793 C797 1.393 . S
C794 H786 0.950 . S
C794 C792 1.391 . S
C794 C795 1.400 . S
C795 C794 1.400 . S
C795 C796 1.398 . S
C795 C801 1.491 . S
C796 H787 0.950 . S
C796 C795 1.398 . S
C796 C797 1.391 . S
C797 H785 0.950 . S
C797 C793 1.393 . S
C797 C796 1.391 . S
C798 H788 0.950 . S
C798 C799 1.386 . S
C798 C800 1.391 . S
C799 C798 1.386 . S
C799 C803 1.393 1_655 S
C800 H789 0.950 . S
C800 C798 1.391 . S
C800 C801 1.400 1_655 S
C801 C795 1.491 . S
C801 C800 1.400 1_455 S
C801 C802 1.398 . S
C802 H790 0.950 . S
C802 C801 1.398 . S
C802 C803 1.391 . S
C803 H791 0.950 . S
C803 C799 1.393 1_455 S
C803 C802 1.391 . S
H804 C812 0.950 . S
H805 C817 0.950 . S
H806 C814 0.950 . S
H807 C816 0.950 . S
H808 C818 0.950 . S
H809 C820 0.950 . S
H810 C822 0.950 1_565 S
H811 C823 0.950 . S
C812 H804 0.950 . S
C812 C813 1.386 . S
C812 C814 1.391 . S
C813 C812 1.386 . S
C813 C817 1.393 . S
C814 H806 0.950 . S
C814 C812 1.391 . S
C814 C815 1.400 . S
C815 C814 1.400 . S
C815 C816 1.398 . S
C815 C821 1.491 . S
C816 H807 0.950 . S
C816 C815 1.398 . S
C816 C817 1.391 . S
C817 H805 0.950 . S
C817 C813 1.393 . S
C817 C816 1.391 . S
C818 H808 0.950 . S
C818 C819 1.386 . S
C818 C820 1.391 . S
C819 C818 1.386 . S
C819 C823 1.393 1_545 S
C820 H809 0.950 . S
C820 C818 1.391 . S
C820 C821 1.400 . S
C821 C815 1.491 . S
C821 C820 1.400 . S
C821 C822 1.398 . S
C822 H810 0.950 1_545 S
C822 C821 1.398 . S
C822 C823 1.391 1_545 S
C823 H811 0.950 . S
C823 C819 1.393 1_565 S
C823 C822 1.391 1_565 S
H824 C832 0.950 . S
H825 C837 0.950 . S
H826 C834 0.950 . S
H827 C836 0.950 . S
H828 C838 0.950 . S
H829 C840 0.950 . S
H830 C842 0.950 . S
H831 C843 0.950 . S
C832 H824 0.950 . S
C832 C833 1.386 . S
C832 C834 1.391 . S
C833 C832 1.386 . S
C833 C837 1.393 . S
C834 H826 0.950 . S
C834 C832 1.391 . S
C834 C835 1.400 . S
C835 C834 1.400 . S
C835 C836 1.398 . S
C835 C841 1.491 . S
C836 H827 0.950 . S
C836 C835 1.398 . S
C836 C837 1.391 . S
C837 H825 0.950 . S
C837 C833 1.393 . S
C837 C836 1.391 . S
C838 H828 0.950 . S
C838 C839 1.386 . S
C838 C840 1.391 . S
C839 C838 1.386 . S
C839 C843 1.393 . S
C840 H829 0.950 . S
C840 C838 1.391 . S
C840 C841 1.400 . S
C841 C835 1.491 . S
C841 C840 1.400 . S
C841 C842 1.398 . S
C842 H830 0.950 . S
C842 C841 1.398 . S
C842 C843 1.391 . S
C843 H831 0.950 . S
C843 C839 1.393 . S
C843 C842 1.391 . S
H844 C852 0.950 . S
H845 C857 0.950 . S
H846 C854 0.950 . S
H847 C856 0.950 . S
H848 C858 0.950 . S
H849 C860 0.950 . S
H850 C862 0.950 . S
H851 C863 0.950 . S
C852 H844 0.950 . S
C852 C853 1.386 . S
C852 C854 1.391 . S
C853 C852 1.386 . S
C853 C857 1.393 . S
C854 H846 0.950 . S
C854 C852 1.391 . S
C854 C855 1.400 . S
C855 C854 1.400 . S
C855 C856 1.398 . S
C855 C861 1.491 . S
C856 H847 0.950 . S
C856 C855 1.398 . S
C856 C857 1.391 . S
C857 H845 0.950 . S
C857 C853 1.393 . S
C857 C856 1.391 . S
C858 H848 0.950 . S
C858 C859 1.386 . S
C858 C860 1.391 . S
C859 C858 1.386 . S
C859 C863 1.393 . S
C860 H849 0.950 . S
C860 C858 1.391 . S
C860 C861 1.400 . S
C861 C855 1.491 . S
C861 C860 1.400 . S
C861 C862 1.398 . S
C862 H850 0.950 . S
C862 C861 1.398 . S
C862 C863 1.391 . S
C863 H851 0.950 . S
C863 C859 1.393 . S
C863 C862 1.391 . S
H864 C872 0.950 . S
H865 C877 0.950 . S
H866 C874 0.950 . S
H867 C876 0.950 . S
H868 C878 0.950 . S
H869 C880 0.950 . S
H870 C882 0.950 . S
H871 C883 0.949 1_655 S
C872 H864 0.950 . S
C872 C873 1.386 . S
C872 C874 1.391 . S
C873 C872 1.386 . S
C873 C877 1.393 1_554 S
C874 H866 0.950 . S
C874 C872 1.391 . S
C874 C875 1.400 1_554 S
C875 C874 1.400 1_556 S
C875 C876 1.398 . S
C875 C881 1.491 . S
C876 H867 0.950 . S
C876 C875 1.398 . S
C876 C877 1.391 . S
C877 H865 0.950 . S
C877 C873 1.393 1_556 S
C877 C876 1.391 . S
C878 H868 0.950 . S
C878 C879 1.386 . S
C878 C880 1.391 . S
C879 C878 1.386 . S
C879 C883 1.396 . S
C880 H869 0.950 . S
C880 C878 1.391 . S
C880 C881 1.400 1_455 S
C881 C875 1.491 . S
C881 C880 1.400 1_655 S
C881 C882 1.398 . S
C882 H870 0.950 . S
C882 C881 1.398 . S
C882 C883 1.387 1_655 S
C883 H871 0.949 1_455 S
C883 C879 1.396 . S
C883 C882 1.387 1_455 S
H884 C892 0.950 . S
H885 C897 0.950 . S
H886 C894 0.950 . S
H887 C896 0.950 . S
H888 C898 0.950 . S
H889 C900 0.950 . S
H890 C902 0.950 . S
H891 C903 0.950 . S
C892 H884 0.950 . S
C892 C893 1.386 . S
C892 C894 1.391 . S
C893 C892 1.386 . S
C893 C897 1.393 1_554 S
C894 H886 0.950 . S
C894 C892 1.391 . S
C894 C895 1.400 1_554 S
C895 C894 1.400 1_556 S
C895 C896 1.398 . S
C895 C901 1.491 . S
C896 H887 0.950 . S
C896 C895 1.398 . S
C896 C897 1.391 . S
C897 H885 0.950 . S
C897 C893 1.393 1_556 S
C897 C896 1.391 . S
C898 H888 0.950 . S
C898 C899 1.386 . S
C898 C900 1.391 . S
C899 C898 1.386 . S
C899 C903 1.393 . S
C900 H889 0.950 . S
C900 C898 1.391 . S
C900 C901 1.400 1_545 S
C901 C895 1.491 . S
C901 C900 1.400 1_565 S
C901 C902 1.398 . S
C902 H890 0.950 . S
C902 C901 1.398 . S
C902 C903 1.391 1_565 S
C903 H891 0.950 . S
C903 C899 1.393 . S
C903 C902 1.391 1_545 S
H904 C912 0.950 . S
H905 C917 0.950 . S
H906 C914 0.950 . S
H907 C916 0.950 . S
H908 C918 0.950 . S
H909 C920 0.950 1_554 S
H910 C922 0.950 . S
H911 C923 0.950 . S
C912 H904 0.950 . S
C912 C913 1.386 1_556 S
C912 C914 1.391 . S
C913 C912 1.386 1_554 S
C913 C917 1.393 . S
C914 H906 0.950 . S
C914 C912 1.391 . S
C914 C915 1.400 . S
C915 C914 1.400 . S
C915 C916 1.398 1_556 S
C915 C921 1.491 . S
C916 H907 0.950 . S
C916 C915 1.398 1_554 S
C916 C917 1.391 . S
C917 H905 0.950 . S
C917 C913 1.393 . S
C917 C916 1.391 . S
C918 H908 0.950 . S
C918 C919 1.386 . S
C918 C920 1.391 . S
C919 C918 1.386 . S
C919 C923 1.393 . S
C920 H909 0.950 1_556 S
C920 C918 1.391 . S
C920 C921 1.400 . S
C921 C915 1.491 . S
C921 C920 1.400 . S
C921 C922 1.398 . S
C922 H910 0.950 . S
C922 C921 1.398 . S
C922 C923 1.391 . S
C923 H911 0.950 . S
C923 C919 1.393 . S
C923 C922 1.391 . S
H924 C932 0.950 . S
H925 C937 0.950 . S
H926 C934 0.950 . S
H927 C936 0.950 . S
H928 C938 0.950 . S
H929 C940 0.950 . S
H930 C942 0.950 . S
H931 C943 0.950 . S
C932 H924 0.950 . S
C932 C933 1.386 . S
C932 C934 1.391 1_554 S
C933 C932 1.386 . S
C933 C937 1.393 . S
C934 H926 0.950 . S
C934 C932 1.391 1_556 S
C934 C935 1.400 . S
C935 C934 1.400 . S
C935 C936 1.398 1_556 S
C935 C941 1.491 . S
C936 H927 0.950 . S
C936 C935 1.398 1_554 S
C936 C937 1.391 . S
C937 H925 0.950 . S
C937 C933 1.393 . S
C937 C936 1.391 . S
C938 H928 0.950 . S
C938 C939 1.386 . S
C938 C940 1.391 . S
C939 C938 1.386 . S
C939 C943 1.393 . S
C940 H929 0.950 . S
C940 C938 1.391 . S
C940 C941 1.400 . S
C941 C935 1.491 . S
C941 C940 1.400 . S
C941 C942 1.398 . S
C942 H930 0.950 . S
C942 C941 1.398 . S
C942 C943 1.391 . S
C943 H931 0.950 . S
C943 C939 1.393 . S
C943 C942 1.391 . S
H944 C952 0.950 . S
H945 C957 0.950 . S
H946 C954 0.950 1_655 S
H947 C956 0.950 . S
H948 C958 0.950 . S
H949 C960 0.950 . S
H950 C962 0.950 1_655 S
H951 C963 0.950 1_655 S
C952 H944 0.950 . S
C952 C953 1.386 . S
C952 C954 1.391 . S
C953 C952 1.386 . S
C953 C957 1.393 . S
C954 H946 0.950 1_455 S
C954 C952 1.391 . S
C954 C955 1.400 . S
C955 C954 1.400 . S
C955 C956 1.398 . S
C955 C961 1.491 . S
C956 H947 0.950 . S
C956 C955 1.398 . S
C956 C957 1.391 . S
C957 H945 0.950 . S
C957 C953 1.393 . S
C957 C956 1.391 . S
C958 H948 0.950 . S
C958 C959 1.386 . S
C958 C960 1.391 . S
C959 C958 1.386 . S
C959 C963 1.393 . S
C960 H949 0.950 . S
C960 C958 1.391 . S
C960 C961 1.400 . S
C961 C955 1.491 . S
C961 C960 1.400 . S
C961 C962 1.398 . S
C962 H950 0.950 1_455 S
C962 C961 1.398 . S
C962 C963 1.391 . S
C963 H951 0.950 1_455 S
C963 C959 1.393 . S
C963 C962 1.391 . S
H964 C972 0.950 . S
H965 C977 0.950 . S
H966 C974 0.950 . S
H967 C976 0.950 . S
H968 C978 0.950 . S
H969 C980 0.950 . S
H970 C982 0.950 . S
H971 C983 0.950 . S
C972 H964 0.950 . S
C972 C973 1.386 . S
C972 C974 1.391 . S
C973 C972 1.386 . S
C973 C977 1.393 . S
C974 H966 0.950 . S
C974 C972 1.391 . S
C974 C975 1.400 . S
C975 C974 1.400 . S
C975 C976 1.398 . S
C975 C981 1.491 . S
C976 H967 0.950 . S
C976 C975 1.398 . S
C976 C977 1.391 . S
C977 H965 0.950 . S
C977 C973 1.393 . S
C977 C976 1.391 . S
C978 H968 0.950 . S
C978 C979 1.386 . S
C978 C980 1.391 . S
C979 C978 1.386 . S
C979 C983 1.393 . S
C980 H969 0.950 . S
C980 C978 1.391 . S
C980 C981 1.400 . S
C981 C975 1.491 . S
C981 C980 1.400 . S
C981 C982 1.398 . S
C982 H970 0.950 . S
C982 C981 1.398 . S
C982 C983 1.391 . S
C983 H971 0.950 . S
C983 C979 1.393 . S
C983 C982 1.391 . S
H984 C992 0.950 . S
H985 C997 0.950 . S
H986 C994 0.950 . S
H987 C996 0.950 . S
H988 C998 0.950 . S
H989 C1000 0.950 . S
H990 C1002 0.950 . S
H991 C1003 0.950 . S
C992 H984 0.950 . S
C992 C993 1.386 . S
C992 C994 1.391 . S
C993 C992 1.386 . S
C993 C997 1.393 . S
C994 H986 0.950 . S
C994 C992 1.391 . S
C994 C995 1.400 . S
C995 C994 1.400 . S
C995 C996 1.398 . S
C995 C1001 1.491 . S
C996 H987 0.950 . S
C996 C995 1.398 . S
C996 C997 1.391 . S
C997 H985 0.950 . S
C997 C993 1.393 . S
C997 C996 1.391 . S
C998 H988 0.950 . S
C998 C999 1.386 . S
C998 C1000 1.391 . S
C999 C998 1.386 . S
C999 C1003 1.393 . S
C1000 H989 0.950 . S
C1000 C998 1.391 . S
C1000 C1001 1.400 . S
C1001 C995 1.491 . S
C1001 C1000 1.400 . S
C1001 C1002 1.398 . S
C1002 H990 0.950 . S
C1002 C1001 1.398 . S
C1002 C1003 1.391 . S
C1003 H991 0.950 . S
C1003 C999 1.393 . S
C1003 C1002 1.391 . S
H1004 C1012 0.950 . S
H1005 C1017 0.950 . S
H1006 C1014 0.950 . S
H1007 C1016 0.950 . S
H1008 C1018 0.950 . S
H1009 C1020 0.950 . S
H1010 C1022 0.950 . S
H1011 C1023 0.950 . S
C1012 H1004 0.950 . S
C1012 C1013 1.386 . S
C1012 C1014 1.391 . S
C1013 C1012 1.386 . S
C1013 C1017 1.393 . S
C1014 H1006 0.950 . S
C1014 C1012 1.391 . S
C1014 C1015 1.400 . S
C1015 C1014 1.400 . S
C1015 C1016 1.398 . S
C1015 C1021 1.491 . S
C1016 H1007 0.950 . S
C1016 C1015 1.398 . S
C1016 C1017 1.391 . S
C1017 H1005 0.950 . S
C1017 C1013 1.393 . S
C1017 C1016 1.391 . S
C1018 H1008 0.950 . S
C1018 C1019 1.386 . S
C1018 C1020 1.391 . S
C1019 C1018 1.386 . S
C1019 C1023 1.393 . S
C1020 H1009 0.950 . S
C1020 C1018 1.391 . S
C1020 C1021 1.400 . S
C1021 C1015 1.491 . S
C1021 C1020 1.400 . S
C1021 C1022 1.398 . S
C1022 H1010 0.950 . S
C1022 C1021 1.398 . S
C1022 C1023 1.391 . S
C1023 H1011 0.950 . S
C1023 C1019 1.393 . S
C1023 C1022 1.391 . S
H1024 C1032 0.950 . S
H1025 C1037 0.950 . S
H1026 C1034 0.950 . S
H1027 C1036 0.950 . S
H1028 C1038 0.950 . S
H1029 C1040 0.950 . S
H1030 C1042 0.947 1_455 S
H1031 C1043 0.950 1_455 S
C1032 H1024 0.950 . S
C1032 C1033 1.386 . S
C1032 C1034 1.391 . S
C1033 C1032 1.386 . S
C1033 C1037 1.393 . S
C1034 H1026 0.950 . S
C1034 C1032 1.391 . S
C1034 C1035 1.400 . S
C1035 C1034 1.400 . S
C1035 C1036 1.398 . S
C1035 C1041 1.491 . S
C1036 H1027 0.950 . S
C1036 C1035 1.398 . S
C1036 C1037 1.391 . S
C1037 H1025 0.950 . S
C1037 C1033 1.393 . S
C1037 C1036 1.391 . S
C1038 H1028 0.950 . S
C1038 C1039 1.386 . S
C1038 C1040 1.391 . S
C1039 C1038 1.386 . S
C1039 C1043 1.393 . S
C1040 H1029 0.950 . S
C1040 C1038 1.391 . S
C1040 C1041 1.400 . S
C1041 C1035 1.491 . S
C1041 C1040 1.400 . S
C1041 C1042 1.398 . S
C1042 H1030 0.947 1_655 S
C1042 C1041 1.398 . S
C1042 C1043 1.391 . S
C1043 H1031 0.950 1_655 S
C1043 C1039 1.393 . S
C1043 C1042 1.391 . S
H1044 C1052 0.950 . S
H1045 C1057 0.950 1_545 S
H1046 C1054 0.950 . S
H1047 C1056 0.906 1_545 S
H1048 C1058 0.950 . S
H1049 C1060 0.950 . S
H1050 C1062 0.950 . S
H1051 C1063 0.950 . S
C1052 H1044 0.950 . S
C1052 C1053 1.386 . S
C1052 C1054 1.391 . S
C1053 C1052 1.386 . S
C1053 C1057 1.393 . S
C1054 H1046 0.950 . S
C1054 C1052 1.391 . S
C1054 C1055 1.400 . S
C1055 C1054 1.400 . S
C1055 C1056 1.435 . S
C1055 C1061 1.491 . S
C1056 H1047 0.906 1_565 S
C1056 C1055 1.435 . S
C1056 C1057 1.398 . S
C1057 H1045 0.950 1_565 S
C1057 C1053 1.393 . S
C1057 C1056 1.398 . S
C1058 H1048 0.950 . S
C1058 C1059 1.386 1_545 S
C1058 C1060 1.391 . S
C1059 C1058 1.386 1_565 S
C1059 C1063 1.393 . S
C1060 H1049 0.950 . S
C1060 C1058 1.391 . S
C1060 C1061 1.400 1_545 S
C1061 C1055 1.491 . S
C1061 C1060 1.400 1_565 S
C1061 C1062 1.398 . S
C1062 H1050 0.950 . S
C1062 C1061 1.398 . S
C1062 C1063 1.391 . S
C1063 H1051 0.950 . S
C1063 C1059 1.393 . S
C1063 C1062 1.391 . S
H1064 C1072 0.950 . S
H1065 C1077 0.950 . S
H1066 C1074 0.950 . S
H1067 C1076 0.950 . S
H1068 C1078 0.950 . S
H1069 C1080 0.950 . S
H1070 C1082 0.950 . S
H1071 C1083 0.950 . S
C1072 H1064 0.950 . S
C1072 C1073 1.386 . S
C1072 C1074 1.391 . S
C1073 C1072 1.386 . S
C1073 C1077 1.393 . S
C1074 H1066 0.950 . S
C1074 C1072 1.391 . S
C1074 C1075 1.400 . S
C1075 C1074 1.400 . S
C1075 C1076 1.398 . S
C1075 C1081 1.491 . S
C1076 H1067 0.950 . S
C1076 C1075 1.398 . S
C1076 C1077 1.391 . S
C1077 H1065 0.950 . S
C1077 C1073 1.393 . S
C1077 C1076 1.391 . S
C1078 H1068 0.950 . S
C1078 C1079 1.386 . S
C1078 C1080 1.391 . S
C1079 C1078 1.386 . S
C1079 C1083 1.393 . S
C1080 H1069 0.950 . S
C1080 C1078 1.391 . S
C1080 C1081 1.400 . S
C1081 C1075 1.491 . S
C1081 C1080 1.400 . S
C1081 C1082 1.398 . S
C1082 H1070 0.950 . S
C1082 C1081 1.398 . S
C1082 C1083 1.391 . S
C1083 H1071 0.950 . S
C1083 C1079 1.393 . S
C1083 C1082 1.391 . S
H1084 C1092 0.950 . S
H1085 C1097 0.950 . S
H1086 C1094 0.950 . S
H1087 C1096 0.950 . S
H1088 C1098 0.950 . S
H1089 C1100 0.950 . S
H1090 C1102 0.950 . S
H1091 C1103 0.950 . S
C1092 H1084 0.950 . S
C1092 C1093 1.386 . S
C1092 C1094 1.391 . S
C1093 C1092 1.386 . S
C1093 C1097 1.393 . S
C1094 H1086 0.950 . S
C1094 C1092 1.391 . S
C1094 C1095 1.400 . S
C1095 C1094 1.400 . S
C1095 C1096 1.398 . S
C1095 C1101 1.491 . S
C1096 H1087 0.950 . S
C1096 C1095 1.398 . S
C1096 C1097 1.391 . S
C1097 H1085 0.950 . S
C1097 C1093 1.393 . S
C1097 C1096 1.391 . S
C1098 H1088 0.950 . S
C1098 C1099 1.386 . S
C1098 C1100 1.391 . S
C1099 C1098 1.386 . S
C1099 C1103 1.393 . S
C1100 H1089 0.950 . S
C1100 C1098 1.391 . S
C1100 C1101 1.400 . S
C1101 C1095 1.491 . S
C1101 C1100 1.400 . S
C1101 C1102 1.398 . S
C1102 H1090 0.950 . S
C1102 C1101 1.398 . S
C1102 C1103 1.391 . S
C1103 H1091 0.950 . S
C1103 C1099 1.393 . S
C1103 C1102 1.391 . S
C633 C241 2.233 . S
C639 C351 2.417 . S
C659 C428 2.437 . S
C653 C277 2.283 . S
C679 C519 2.413 . S
C673 C169 2.235 . S
C699 C603 2.397 . S
C693 C205 2.205 . S
C719 C362 2.406 1_565 S
C713 C97 2.183 . S
C733 C133 2.296 . S
C739 C439 2.428 . S
C753 C25 2.184 . S
C759 C530 2.403 . S
C773 C61 2.198 . S
C779 C614 2.399 1_655 S
C799 C346 0.484 . S
C793 C211 0.483 . S
C819 C441 0.576 . S
C813 C247 0.411 . S
C839 C514 0.511 . S
C833 C253 0.497 . S
C853 C175 0.417 . S
C859 C598 0.492 . S
C873 C67 0.469 . S
C879 C357 0.516 . S
C899 C430 0.541 . S
C893 C103 0.460 . S
C919 C525 0.451 . S
C913 C109 0.469 . S
C933 C31 0.483 . S
C939 C609 0.460 . S
C953 C181 2.638 . S
C959 C355 2.891 . S
C973 C217 2.625 . S
C979 C446 2.923 . S
C999 C523 2.901 . S
C993 C283 2.540 . S
C1019 C607 2.902 . S
C1013 C145 2.645 . S
C1033 C37 2.607 . S
C1039 C344 2.884 . S
C1059 C435 2.928 . S
C1053 C73 2.611 . S
C1079 C512 2.901 . S
C1073 C139 2.565 . S
C1093 C1 2.616 . S
C1099 C596 2.898 . S
