# Generated by pormake.
# Topology ptr, (4,4)-cn, num edge types: 1
# Building blocks:
#     Node 0, Type 0, BuildingBlock: AZAVOO_clean_sbu_0, # of connection points: 4
#     Node 1, Type 0, BuildingBlock: AZAVOO_clean_sbu_0, # of connection points: 4
#     Node 2, Type 0, BuildingBlock: AZAVOO_clean_sbu_0, # of connection points: 4
#     Node 3, Type 0, BuildingBlock: AZAVOO_clean_sbu_0, # of connection points: 4
#     Node 4, Type 0, BuildingBlock: AZAVOO_clean_sbu_0, # of connection points: 4
#     Node 5, Type 0, BuildingBlock: AZAVOO_clean_sbu_0, # of connection points: 4
#     Node 6, Type 0, BuildingBlock: AZAVOO_clean_sbu_0, # of connection points: 4
#     Node 7, Type 0, BuildingBlock: AZAVOO_clean_sbu_0, # of connection points: 4
#     Node 8, Type 0, BuildingBlock: AZAVOO_clean_sbu_0, # of connection points: 4
#     Node 9, Type 0, BuildingBlock: AZAVOO_clean_sbu_0, # of connection points: 4
#     Node 10, Type 0, BuildingBlock: AZAVOO_clean_sbu_0, # of connection points: 4
#     Node 11, Type 0, BuildingBlock: AZAVOO_clean_sbu_0, # of connection points: 4
#     Node 12, Type 0, BuildingBlock: AZAVOO_clean_sbu_0, # of connection points: 4
#     Node 13, Type 0, BuildingBlock: AZAVOO_clean_sbu_0, # of connection points: 4
#     Node 14, Type 0, BuildingBlock: AZAVOO_clean_sbu_0, # of connection points: 4
#     Node 15, Type 0, BuildingBlock: AZAVOO_clean_sbu_0, # of connection points: 4
#     Node 16, Type 0, BuildingBlock: AZAVOO_clean_sbu_0, # of connection points: 4
#     Node 17, Type 0, BuildingBlock: AZAVOO_clean_sbu_0, # of connection points: 4
#     Node 18, Type 1, BuildingBlock: AZAVOO_clean_linker_0, # of connection points: 4
#     Node 19, Type 1, BuildingBlock: AZAVOO_clean_linker_0, # of connection points: 4
#     Node 20, Type 1, BuildingBlock: AZAVOO_clean_linker_0, # of connection points: 4
#     Node 21, Type 1, BuildingBlock: AZAVOO_clean_linker_0, # of connection points: 4
#     Node 22, Type 1, BuildingBlock: AZAVOO_clean_linker_0, # of connection points: 4
#     Node 23, Type 1, BuildingBlock: AZAVOO_clean_linker_0, # of connection points: 4
#     Node 24, Type 1, BuildingBlock: AZAVOO_clean_linker_0, # of connection points: 4
#     Node 25, Type 1, BuildingBlock: AZAVOO_clean_linker_0, # of connection points: 4
#     Node 26, Type 1, BuildingBlock: AZAVOO_clean_linker_0, # of connection points: 4
#     Node 27, Type 1, BuildingBlock: AZAVOO_clean_linker_0, # of connection points: 4
#     Node 28, Type 1, BuildingBlock: AZAVOO_clean_linker_0, # of connection points: 4
#     Node 29, Type 1, BuildingBlock: AZAVOO_clean_linker_0, # of connection points: 4
#     Node 30, Type 1, BuildingBlock: AZAVOO_clean_linker_0, # of connection points: 4
#     Node 31, Type 1, BuildingBlock: AZAVOO_clean_linker_0, # of connection points: 4
#     Node 32, Type 1, BuildingBlock: AZAVOO_clean_linker_0, # of connection points: 4
#     Node 33, Type 1, BuildingBlock: AZAVOO_clean_linker_0, # of connection points: 4
#     Node 34, Type 1, BuildingBlock: AZAVOO_clean_linker_0, # of connection points: 4
#     Node 35, Type 1, BuildingBlock: AZAVOO_clean_linker_0, # of connection points: 4
#     Edge 36, Type (0, 1), BuildingBlock: XUDNAN_clean_linker_2, # of connection points: 2
#     Edge 37, Type (0, 1), BuildingBlock: XUDNAN_clean_linker_2, # of connection points: 2
#     Edge 38, Type (0, 1), BuildingBlock: XUDNAN_clean_linker_2, # of connection points: 2
#     Edge 39, Type (0, 1), BuildingBlock: XUDNAN_clean_linker_2, # of connection points: 2
#     Edge 40, Type (0, 1), BuildingBlock: XUDNAN_clean_linker_2, # of connection points: 2
#     Edge 41, Type (0, 1), BuildingBlock: XUDNAN_clean_linker_2, # of connection points: 2
#     Edge 42, Type (0, 1), BuildingBlock: XUDNAN_clean_linker_2, # of connection points: 2
#     Edge 43, Type (0, 1), BuildingBlock: XUDNAN_clean_linker_2, # of connection points: 2
#     Edge 44, Type (0, 1), BuildingBlock: XUDNAN_clean_linker_2, # of connection points: 2
#     Edge 45, Type (0, 1), BuildingBlock: XUDNAN_clean_linker_2, # of connection points: 2
#     Edge 46, Type (0, 1), BuildingBlock: XUDNAN_clean_linker_2, # of connection points: 2
#     Edge 47, Type (0, 1), BuildingBlock: XUDNAN_clean_linker_2, # of connection points: 2
#     Edge 48, Type (0, 1), BuildingBlock: XUDNAN_clean_linker_2, # of connection points: 2
#     Edge 49, Type (0, 1), BuildingBlock: XUDNAN_clean_linker_2, # of connection points: 2
#     Edge 50, Type (0, 1), BuildingBlock: XUDNAN_clean_linker_2, # of connection points: 2
#     Edge 51, Type (0, 1), BuildingBlock: XUDNAN_clean_linker_2, # of connection points: 2
#     Edge 52, Type (0, 1), BuildingBlock: XUDNAN_clean_linker_2, # of connection points: 2
#     Edge 53, Type (0, 1), BuildingBlock: XUDNAN_clean_linker_2, # of connection points: 2
#     Edge 54, Type (0, 1), BuildingBlock: XUDNAN_clean_linker_2, # of connection points: 2
#     Edge 55, Type (0, 1), BuildingBlock: XUDNAN_clean_linker_2, # of connection points: 2
#     Edge 56, Type (0, 1), BuildingBlock: XUDNAN_clean_linker_2, # of connection points: 2
#     Edge 57, Type (0, 1), BuildingBlock: XUDNAN_clean_linker_2, # of connection points: 2
#     Edge 58, Type (0, 1), BuildingBlock: XUDNAN_clean_linker_2, # of connection points: 2
#     Edge 59, Type (0, 1), BuildingBlock: XUDNAN_clean_linker_2, # of connection points: 2
#     Edge 60, Type (0, 1), BuildingBlock: XUDNAN_clean_linker_2, # of connection points: 2
#     Edge 61, Type (0, 1), BuildingBlock: XUDNAN_clean_linker_2, # of connection points: 2
#     Edge 62, Type (0, 1), BuildingBlock: XUDNAN_clean_linker_2, # of connection points: 2
#     Edge 63, Type (0, 1), BuildingBlock: XUDNAN_clean_linker_2, # of connection points: 2
#     Edge 64, Type (0, 1), BuildingBlock: XUDNAN_clean_linker_2, # of connection points: 2
#     Edge 65, Type (0, 1), BuildingBlock: XUDNAN_clean_linker_2, # of connection points: 2
#     Edge 66, Type (0, 1), BuildingBlock: XUDNAN_clean_linker_2, # of connection points: 2
#     Edge 67, Type (0, 1), BuildingBlock: XUDNAN_clean_linker_2, # of connection points: 2
#     Edge 68, Type (0, 1), BuildingBlock: XUDNAN_clean_linker_2, # of connection points: 2
#     Edge 69, Type (0, 1), BuildingBlock: XUDNAN_clean_linker_2, # of connection points: 2
#     Edge 70, Type (0, 1), BuildingBlock: XUDNAN_clean_linker_2, # of connection points: 2
#     Edge 71, Type (0, 1), BuildingBlock: XUDNAN_clean_linker_2, # of connection points: 2
#     Edge 72, Type (0, 1), BuildingBlock: XUDNAN_clean_linker_2, # of connection points: 2
#     Edge 73, Type (0, 1), BuildingBlock: XUDNAN_clean_linker_2, # of connection points: 2
#     Edge 74, Type (0, 1), BuildingBlock: XUDNAN_clean_linker_2, # of connection points: 2
#     Edge 75, Type (0, 1), BuildingBlock: XUDNAN_clean_linker_2, # of connection points: 2
#     Edge 76, Type (0, 1), BuildingBlock: XUDNAN_clean_linker_2, # of connection points: 2
#     Edge 77, Type (0, 1), BuildingBlock: XUDNAN_clean_linker_2, # of connection points: 2
#     Edge 78, Type (0, 1), BuildingBlock: XUDNAN_clean_linker_2, # of connection points: 2
#     Edge 79, Type (0, 1), BuildingBlock: XUDNAN_clean_linker_2, # of connection points: 2
#     Edge 80, Type (0, 1), BuildingBlock: XUDNAN_clean_linker_2, # of connection points: 2
#     Edge 81, Type (0, 1), BuildingBlock: XUDNAN_clean_linker_2, # of connection points: 2
#     Edge 82, Type (0, 1), BuildingBlock: XUDNAN_clean_linker_2, # of connection points: 2
#     Edge 83, Type (0, 1), BuildingBlock: XUDNAN_clean_linker_2, # of connection points: 2
#     Edge 84, Type (0, 1), BuildingBlock: XUDNAN_clean_linker_2, # of connection points: 2
#     Edge 85, Type (0, 1), BuildingBlock: XUDNAN_clean_linker_2, # of connection points: 2
#     Edge 86, Type (0, 1), BuildingBlock: XUDNAN_clean_linker_2, # of connection points: 2
#     Edge 87, Type (0, 1), BuildingBlock: XUDNAN_clean_linker_2, # of connection points: 2
#     Edge 88, Type (0, 1), BuildingBlock: XUDNAN_clean_linker_2, # of connection points: 2
#     Edge 89, Type (0, 1), BuildingBlock: XUDNAN_clean_linker_2, # of connection points: 2
#     Edge 90, Type (0, 1), BuildingBlock: XUDNAN_clean_linker_2, # of connection points: 2
#     Edge 91, Type (0, 1), BuildingBlock: XUDNAN_clean_linker_2, # of connection points: 2
#     Edge 92, Type (0, 1), BuildingBlock: XUDNAN_clean_linker_2, # of connection points: 2
#     Edge 93, Type (0, 1), BuildingBlock: XUDNAN_clean_linker_2, # of connection points: 2
#     Edge 94, Type (0, 1), BuildingBlock: XUDNAN_clean_linker_2, # of connection points: 2
#     Edge 95, Type (0, 1), BuildingBlock: XUDNAN_clean_linker_2, # of connection points: 2
#     Edge 96, Type (0, 1), BuildingBlock: XUDNAN_clean_linker_2, # of connection points: 2
#     Edge 97, Type (0, 1), BuildingBlock: XUDNAN_clean_linker_2, # of connection points: 2
#     Edge 98, Type (0, 1), BuildingBlock: XUDNAN_clean_linker_2, # of connection points: 2
#     Edge 99, Type (0, 1), BuildingBlock: XUDNAN_clean_linker_2, # of connection points: 2
#     Edge 100, Type (0, 1), BuildingBlock: XUDNAN_clean_linker_2, # of connection points: 2
#     Edge 101, Type (0, 1), BuildingBlock: XUDNAN_clean_linker_2, # of connection points: 2
#     Edge 102, Type (0, 1), BuildingBlock: XUDNAN_clean_linker_2, # of connection points: 2
#     Edge 103, Type (0, 1), BuildingBlock: XUDNAN_clean_linker_2, # of connection points: 2
#     Edge 104, Type (0, 1), BuildingBlock: XUDNAN_clean_linker_2, # of connection points: 2
#     Edge 105, Type (0, 1), BuildingBlock: XUDNAN_clean_linker_2, # of connection points: 2
#     Edge 106, Type (0, 1), BuildingBlock: XUDNAN_clean_linker_2, # of connection points: 2
#     Edge 107, Type (0, 1), BuildingBlock: XUDNAN_clean_linker_2, # of connection points: 2
# Relax obj value: 0.122
# Max RMSD: 0.324
# Mean RMSD: 0.192
data_MOF--net-ptr--node1-AZAVOO_clean_sbu_0--node2-AZAVOO_clean_linker_0--edge1-XUDNAN_clean_linker_2
_symmetry_space_group_name_H-M    P1
_symmetry_Int_Tables_number       1
_symmetry_cell_setting            triclinic
loop_
_symmetry_equiv_pos_as_xyz
'x, y, z'
_cell_length_a     82.784279
_cell_length_b     80.367777
_cell_length_c     66.934927
_cell_angle_alpha  93.605722
_cell_angle_beta   93.574533
_cell_angle_gamma 120.11272
loop_
_atom_site_label
_atom_site_type_symbol
_atom_site_fract_x
_atom_site_fract_y
_atom_site_fract_z
_atom_type_partial_charge
Mg0 Mg 0.02755 0.3604 0.00489 0.0
O1 O 0.00841 0.36607 0.02392 0.0
O2 O 0.98962 0.37198 0.00388 0.0
Mg3 Mg 0.99486 0.367 0.97144 0.0
C4 C 0.99571 0.37054 0.02129 0.0
C5 C 0.04464 0.34048 0.03063 0.0
O6 O 0.04667 0.33496 0.01253 0.0
O7 O 0.00367 0.32957 0.99506 0.0
O8 O 0.98493 0.33495 0.97436 0.0
O9 O 0.04721 0.39246 0.00631 0.0
O10 O 0.02382 0.37539 0.98236 0.0
C11 C 0.98885 0.32341 0.98286 0.0
C12 C 0.03711 0.39204 0.9905 0.0
O13 O 0.0372 0.35094 0.03244 0.0
Mg14 Mg 0.64929 0.63606 0.10224 0.0
O15 O 0.63272 0.63153 0.07159 0.0
O16 O 0.60514 0.62889 0.07692 0.0
Mg17 Mg 0.60454 0.63253 0.11112 0.0
C18 C 0.61671 0.62898 0.0651 0.0
C19 C 0.67784 0.64031 0.07041 0.0
O20 O 0.66292 0.62564 0.06003 0.0
O21 O 0.65559 0.66683 0.10653 0.0
O22 O 0.62866 0.66461 0.11376 0.0
O23 O 0.63601 0.60406 0.10309 0.0
O24 O 0.62418 0.62164 0.11463 0.0
C25 C 0.64608 0.67466 0.11135 0.0
C26 C 0.62239 0.60487 0.11071 0.0
O27 O 0.67643 0.64662 0.0877 0.0
Mg28 Mg 0.37151 0.99484 0.00338 0.0
O29 O 0.39543 0.00707 0.02896 0.0
O30 O 0.41907 0.03475 0.02095 0.0
Mg31 Mg 0.41024 0.04011 0.98995 0.0
C32 C 0.41187 0.02183 0.03302 0.0
C33 C 0.3399 0.95681 0.01802 0.0
O34 O 0.34 0.94974 0.99982 0.0
O35 O 0.36375 0.01745 0.01298 0.0
O36 O 0.38698 0.044 0.0024 0.0
O37 O 0.3842 0.97964 0.98631 0.0
O38 O 0.38988 0.0091 0.98274 0.0
C39 C 0.3715 0.03532 0.01023 0.0
C40 C 0.39275 0.99527 0.97751 0.0
O41 O 0.35162 0.97446 0.02394 0.0
Mg42 Mg 0.98025 0.65094 0.072 0.0
O43 O 0.99172 0.64141 0.04604 0.0
O44 O 0.01283 0.63454 0.0595 0.0
Mg45 Mg 0.01466 0.63937 0.0939 0.0
C46 C 0.00355 0.63576 0.04423 0.0
C47 C 0.95933 0.65662 0.03339 0.0
O48 O 0.95703 0.63995 0.02597 0.0
O49 O 0.00749 0.67993 0.07806 0.0
O50 O 0.02714 0.67226 0.09366 0.0
O51 O 0.95754 0.62021 0.07315 0.0
O52 O 0.98577 0.63394 0.09009 0.0
C53 C 0.02341 0.68477 0.08734 0.0
C54 C 0.96969 0.61861 0.08476 0.0
O55 O 0.96791 0.66397 0.05091 0.0
Mg56 Mg 0.35745 0.38034 0.98385 0.0
O57 O 0.38069 0.38509 0.0082 0.0
O58 O 0.40384 0.38598 0.99182 0.0
Mg59 Mg 0.39643 0.38403 0.95784 0.0
C60 C 0.3968 0.38653 0.00814 0.0
C61 C 0.32229 0.37403 0.00041 0.0
O62 O 0.32299 0.38193 0.98364 0.0
O63 O 0.35005 0.34932 0.97605 0.0
O64 O 0.37266 0.35222 0.95745 0.0
O65 O 0.3692 0.41204 0.98431 0.0
O66 O 0.37774 0.39508 0.96496 0.0
C67 C 0.35729 0.34187 0.96498 0.0
C68 C 0.38001 0.41166 0.97135 0.0
O69 O 0.33554 0.37111 0.00593 0.0
Mg70 Mg 0.64479 0.02407 0.07566 0.0
O71 O 0.62638 0.01613 0.04606 0.0
O72 O 0.60246 0.9858 0.04342 0.0
Mg73 Mg 0.60558 0.97437 0.07319 0.0
C74 C 0.61169 0.00196 0.03629 0.0
C75 C 0.6838 0.0539 0.06207 0.0
O76 O 0.68971 0.04484 0.0734 0.0
O77 O 0.65683 0.00564 0.06483 0.0
O78 O 0.63296 0.97559 0.06572 0.0
O79 O 0.62708 0.0339 0.09026 0.0
O80 O 0.62203 0.00408 0.0892 0.0
C81 C 0.65 0.98737 0.06294 0.0
C82 C 0.61682 0.01623 0.09435 0.0
O83 O 0.66676 0.04961 0.06153 0.0
Mg84 Mg 0.67948 0.69307 0.33256 0.0
O85 O 0.66154 0.70108 0.35132 0.0
O86 O 0.63849 0.69947 0.33042 0.0
Mg87 Mg 0.64288 0.69268 0.29817 0.0
C88 C 0.64685 0.70236 0.34806 0.0
C89 C 0.70014 0.67804 0.35958 0.0
O90 O 0.69959 0.67 0.34165 0.0
O91 O 0.65599 0.66091 0.32784 0.0
O92 O 0.63583 0.66266 0.30546 0.0
O93 O 0.69782 0.72457 0.32709 0.0
O94 O 0.67247 0.70297 0.30757 0.0
C95 C 0.64076 0.65285 0.31588 0.0
C96 C 0.68605 0.72049 0.31134 0.0
O97 O 0.69284 0.68865 0.36119 0.0
Mg98 Mg 0.30929 0.95811 0.42634 0.0
O99 O 0.28998 0.95653 0.39936 0.0
O100 O 0.26654 0.95933 0.41083 0.0
Mg101 Mg 0.27015 0.9608 0.44526 0.0
C102 C 0.27507 0.95742 0.39641 0.0
C103 C 0.34324 0.95793 0.41073 0.0
O104 O 0.3411 0.94894 0.42695 0.0
O105 O 0.32085 0.99034 0.43401 0.0
O106 O 0.2968 0.99087 0.44684 0.0
O107 O 0.29246 0.92612 0.42532 0.0
O108 O 0.28679 0.94629 0.44339 0.0
C109 C 0.31367 0.9995 0.44226 0.0
C110 C 0.28197 0.92875 0.43718 0.0
O111 O 0.33206 0.96388 0.40601 0.0
Mg112 Mg 0.03708 0.31709 0.33953 0.0
O113 O 0.05655 0.3269 0.36859 0.0
O114 O 0.08576 0.349 0.36379 0.0
Mg115 Mg 0.08466 0.35242 0.32986 0.0
C116 C 0.07367 0.33857 0.37527 0.0
C117 C 0.99573 0.29261 0.35353 0.0
O118 O 0.99099 0.28203 0.33607 0.0
O119 O 0.03804 0.34561 0.34121 0.0
O120 O 0.06651 0.36675 0.33315 0.0
O121 O 0.04339 0.29353 0.33167 0.0
O122 O 0.05923 0.32319 0.3229 0.0
C123 C 0.05018 0.36257 0.33764 0.0
C124 C 0.05712 0.3062 0.32278 0.0
O125 O 0.01262 0.30603 0.35837 0.0
Mg126 Mg 0.64709 0.97275 0.40543 0.0
O127 O 0.66525 0.96782 0.38397 0.0
O128 O 0.68156 0.957 0.40113 0.0
Mg129 Mg 0.67511 0.95642 0.43387 0.0
C130 C 0.67686 0.96175 0.38489 0.0
C131 C 0.62177 0.97882 0.3749 0.0
O132 O 0.61003 0.9629 0.38238 0.0
O133 O 0.67297 0.0014 0.4198 0.0
O134 O 0.6873 0.98913 0.43803 0.0
O135 O 0.62451 0.94111 0.39969 0.0
O136 O 0.64784 0.95304 0.42393 0.0
C137 C 0.68609 0.0035 0.43275 0.0
C138 C 0.63323 0.93817 0.41451 0.0
O139 O 0.6391 0.98739 0.38151 0.0
Mg140 Mg 0.03017 0.71537 0.31559 0.0
O141 O 0.0485 0.7215 0.3451 0.0
O142 O 0.07779 0.73037 0.33873 0.0
Mg143 Mg 0.07771 0.72954 0.30425 0.0
C144 C 0.0655 0.72679 0.35099 0.0
C145 C 0.99144 0.70389 0.33291 0.0
O146 O 0.99256 0.7183 0.32363 0.0
O147 O 0.02977 0.68736 0.30912 0.0
O148 O 0.05823 0.69608 0.29998 0.0
O149 O 0.03751 0.74621 0.31633 0.0
O150 O 0.05356 0.7343 0.30222 0.0
C151 C 0.04158 0.6831 0.30278 0.0
C152 C 0.05181 0.74904 0.30703 0.0
O153 O 0.00437 0.69983 0.33214 0.0
Mg154 Mg 0.30106 0.35165 0.40192 0.0
O155 O 0.27612 0.33515 0.37733 0.0
O156 O 0.25188 0.31245 0.39121 0.0
Mg157 Mg 0.26158 0.31373 0.42421 0.0
C158 C 0.2591 0.32128 0.37606 0.0
C159 C 0.32574 0.3823 0.37401 0.0
O160 O 0.31906 0.39196 0.38353 0.0
O161 O 0.30641 0.32668 0.4005 0.0
O162 O 0.28197 0.3039 0.41425 0.0
O163 O 0.29087 0.37172 0.4106 0.0
O164 O 0.28287 0.34454 0.42402 0.0
C165 C 0.29718 0.30979 0.40603 0.0
C166 C 0.28107 0.35947 0.4228 0.0
O167 O 0.32072 0.36525 0.37803 0.0
Mg168 Mg 0.35559 0.03189 0.66932 0.0
O169 O 0.34322 0.03978 0.69548 0.0
O170 O 0.32189 0.04665 0.6828 0.0
Mg171 Mg 0.32045 0.04273 0.64835 0.0
C172 C 0.33112 0.04497 0.69778 0.0
C173 C 0.37945 0.02869 0.70624 0.0
O174 O 0.38385 0.04667 0.71112 0.0
O175 O 0.32897 0.00256 0.66232 0.0
O176 O 0.30844 0.00976 0.64805 0.0
O177 O 0.37731 0.06306 0.66948 0.0
O178 O 0.34964 0.04875 0.65132 0.0
C179 C 0.31275 0.99741 0.65363 0.0
C180 C 0.36531 0.06439 0.65731 0.0
O181 O 0.36832 0.01925 0.69046 0.0
Mg182 Mg 0.97525 0.29109 0.748 0.0
O183 O 0.95283 0.28469 0.72189 0.0
O184 O 0.92774 0.28133 0.73621 0.0
Mg185 Mg 0.93264 0.28125 0.77038 0.0
C186 C 0.93623 0.2821 0.72067 0.0
C187 C 0.01384 0.31988 0.73628 0.0
O188 O 0.01444 0.3262 0.75506 0.0
O189 O 0.97829 0.32037 0.75641 0.0
O190 O 0.95408 0.3141 0.77385 0.0
O191 O 0.96678 0.25992 0.74686 0.0
O192 O 0.95429 0.27367 0.76492 0.0
C193 C 0.96947 0.32601 0.76726 0.0
C194 C 0.95447 0.25824 0.75885 0.0
O195 O 0.999 0.30477 0.72812 0.0
Mg196 Mg 0.70566 0.65854 0.66299 0.0
O197 O 0.72211 0.66815 0.69421 0.0
O198 O 0.75168 0.69141 0.69227 0.0
Mg199 Mg 0.75374 0.69678 0.65902 0.0
C200 C 0.73865 0.68023 0.70244 0.0
C201 C 0.67399 0.63113 0.68917 0.0
O202 O 0.68482 0.62376 0.69238 0.0
O203 O 0.70458 0.6859 0.66414 0.0
O204 O 0.73389 0.70928 0.66102 0.0
O205 O 0.71439 0.63674 0.65689 0.0
O206 O 0.72998 0.66699 0.64961 0.0
C207 C 0.71665 0.70356 0.66292 0.0
C208 C 0.72877 0.65039 0.64966 0.0
O209 O 0.67863 0.64437 0.67761 0.0
Mg210 Mg 0.32605 0.31622 0.74325 0.0
O211 O 0.33543 0.30587 0.71574 0.0
O212 O 0.35421 0.29512 0.7268 0.0
Mg213 Mg 0.35809 0.29998 0.76113 0.0
C214 C 0.34554 0.2983 0.71247 0.0
C215 C 0.30461 0.32333 0.70644 0.0
O216 O 0.30092 0.30608 0.69913 0.0
O217 O 0.35458 0.34399 0.74906 0.0
O218 O 0.37331 0.3329 0.75951 0.0
O219 O 0.30235 0.28595 0.74408 0.0
O220 O 0.33055 0.29797 0.76051 0.0
C221 C 0.37071 0.34671 0.7552 0.0
C222 C 0.31398 0.28332 0.75539 0.0
O223 O 0.31439 0.33081 0.72342 0.0
Mg224 Mg 0.70112 0.03547 0.65085 0.0
O225 O 0.72142 0.03816 0.67754 0.0
O226 O 0.74258 0.03188 0.66547 0.0
Mg227 Mg 0.73642 0.02613 0.63119 0.0
C228 C 0.73585 0.03634 0.68016 0.0
C229 C 0.67774 0.04823 0.67547 0.0
O230 O 0.68692 0.06345 0.66575 0.0
O231 O 0.68686 0.00257 0.64685 0.0
O232 O 0.70853 0.99813 0.63318 0.0
O233 O 0.71968 0.06679 0.6473 0.0
O234 O 0.72232 0.04328 0.6319 0.0
C235 C 0.69222 0.99149 0.63906 0.0
C236 C 0.72862 0.06154 0.63565 0.0
O237 O 0.6805 0.03412 0.67259 0.0
Mg238 Mg 0.95655 0.67669 0.73474 0.0
O239 O 0.94098 0.66857 0.70316 0.0
O240 O 0.91405 0.64049 0.70205 0.0
Mg241 Mg 0.91219 0.63104 0.73389 0.0
C242 C 0.92578 0.65491 0.69358 0.0
C243 C 0.99908 0.70394 0.7312 0.0
O244 O 0.00016 0.6982 0.74893 0.0
O245 O 0.96435 0.65356 0.72934 0.0
O246 O 0.93728 0.62633 0.73157 0.0
O247 O 0.94174 0.69225 0.74487 0.0
O248 O 0.9314 0.66129 0.74703 0.0
C249 C 0.95486 0.63526 0.72968 0.0
C250 C 0.92892 0.67579 0.74988 0.0
O251 O 0.98301 0.6983 0.72197 0.0
H252 H 0.14156 0.33547 0.04223 0.0
H253 H 0.28201 0.30164 0.18384 0.0
H254 H 0.1503 0.33088 0.16576 0.0
H255 H 0.12414 0.33391 0.15141 0.0
H256 H 0.10219 0.27916 0.11499 0.0
H257 H 0.12854 0.27635 0.12936 0.0
H258 H 0.16751 0.33841 0.12634 0.0
H259 H 0.15663 0.3421 0.093 0.0
H260 H 0.15173 0.2882 0.06952 0.0
H261 H 0.16241 0.28456 0.10305 0.0
H262 H 0.20585 0.34616 0.1279 0.0
H263 H 0.22649 0.35737 0.10118 0.0
H264 H 0.22452 0.30256 0.09421 0.0
H265 H 0.20351 0.29127 0.12092 0.0
H266 H 0.22971 0.3415 0.16363 0.0
H267 H 0.26067 0.34492 0.1706 0.0
H268 H 0.23414 0.28346 0.17523 0.0
H269 H 0.20328 0.28023 0.16804 0.0
H270 H 0.21079 0.33371 0.2025 0.0
H271 H 0.22042 0.33248 0.23734 0.0
H272 H 0.18073 0.27091 0.23133 0.0
H273 H 0.17085 0.27249 0.19658 0.0
H274 H 0.17307 0.32861 0.20445 0.0
H275 H 0.15498 0.32434 0.23303 0.0
H276 H 0.11332 0.26682 0.206 0.0
H277 H 0.13213 0.27098 0.1778 0.0
O278 O 0.14584 0.33371 0.0553 0.0
O279 O 0.14207 0.30514 0.04432 0.0
O280 O 0.2829 0.3322 0.17839 0.0
O281 O 0.26995 0.30069 0.181 0.0
C282 C 0.15962 0.30437 0.15291 0.0
C283 C 0.17168 0.30865 0.13754 0.0
C284 C 0.18972 0.31106 0.14166 0.0
C285 C 0.1955 0.30852 0.16095 0.0
C286 C 0.18354 0.30439 0.17636 0.0
C287 C 0.16569 0.3026 0.17243 0.0
C288 C 0.14135 0.30343 0.14855 0.0
C289 C 0.13946 0.3192 0.15526 0.0
C290 C 0.12451 0.32092 0.14697 0.0
C291 C 0.11124 0.3069 0.13182 0.0
C292 C 0.11237 0.29035 0.12637 0.0
C293 C 0.12728 0.28862 0.13471 0.0
C294 C 0.16561 0.31115 0.11712 0.0
C295 C 0.164 0.32738 0.11399 0.0
C296 C 0.15784 0.32948 0.09491 0.0
C297 C 0.15328 0.31543 0.07859 0.0
C298 C 0.15509 0.29926 0.08177 0.0
C299 C 0.16123 0.29717 0.10088 0.0
C300 C 0.20303 0.31784 0.12615 0.0
C301 C 0.20983 0.33655 0.12056 0.0
C302 C 0.22157 0.34291 0.10532 0.0
C303 C 0.22693 0.33075 0.09553 0.0
C304 C 0.22061 0.31221 0.10157 0.0
C305 C 0.20864 0.30575 0.11674 0.0
C306 C 0.21429 0.3106 0.16521 0.0
C307 C 0.23064 0.32879 0.16604 0.0
C308 C 0.24829 0.3307 0.17008 0.0
C309 C 0.24988 0.31445 0.17345 0.0
C310 C 0.23342 0.29626 0.17269 0.0
C311 C 0.21579 0.29437 0.16861 0.0
C312 C 0.19017 0.30319 0.19704 0.0
C313 C 0.20434 0.31994 0.20868 0.0
C314 C 0.20986 0.31917 0.22857 0.0
C315 C 0.20136 0.30158 0.23718 0.0
C316 C 0.18738 0.28474 0.22529 0.0
C317 C 0.1818 0.28556 0.20541 0.0
C318 C 0.15395 0.30008 0.18912 0.0
C319 C 0.16008 0.31505 0.20476 0.0
C320 C 0.14964 0.31262 0.22101 0.0
C321 C 0.13266 0.29523 0.22181 0.0
C322 C 0.12646 0.28028 0.20599 0.0
C323 C 0.13705 0.28269 0.18977 0.0
C324 C 0.14671 0.3177 0.05835 0.0
C325 C 0.2686 0.31639 0.17776 0.0
H326 H 0.68992 0.84313 0.05744 0.0
H327 H 0.74689 0.01118 0.21667 0.0
H328 H 0.67853 0.83985 0.16564 0.0
H329 H 0.67042 0.80718 0.1526 0.0
H330 H 0.7268 0.82063 0.17243 0.0
H331 H 0.73488 0.85353 0.18499 0.0
H332 H 0.68485 0.87024 0.13867 0.0
H333 H 0.6818 0.85826 0.10332 0.0
H334 H 0.73676 0.86432 0.11258 0.0
H335 H 0.7397 0.8765 0.14787 0.0
H336 H 0.68827 0.90605 0.16389 0.0
H337 H 0.68363 0.92194 0.13614 0.0
H338 H 0.73703 0.9342 0.11683 0.0
H339 H 0.74177 0.91846 0.1452 0.0
H340 H 0.69337 0.91493 0.2087 0.0
H341 H 0.69768 0.94684 0.21857 0.0
H342 H 0.75326 0.97372 0.19891 0.0
H343 H 0.74888 0.94169 0.18942 0.0
H344 H 0.6881 0.88 0.23164 0.0
H345 H 0.6865 0.89497 0.26384 0.0
H346 H 0.74412 0.94042 0.26396 0.0
H347 H 0.74608 0.92474 0.23225 0.0
H348 H 0.67986 0.8474 0.21097 0.0
H349 H 0.67341 0.82027 0.23016 0.0
H350 H 0.73295 0.84495 0.24648 0.0
H351 H 0.73927 0.87243 0.22743 0.0
O352 O 0.69146 0.84799 0.07143 0.0
O353 O 0.71974 0.8513 0.077 0.0
O354 O 0.71623 0.98384 0.22301 0.0
O355 O 0.7448 0.99837 0.21287 0.0
C356 C 0.71242 0.86927 0.18226 0.0
C357 C 0.71434 0.8815 0.16726 0.0
C358 C 0.71697 0.90001 0.17263 0.0
C359 C 0.71849 0.90661 0.19312 0.0
C360 C 0.71696 0.89447 0.20829 0.0
C361 C 0.71366 0.87567 0.20275 0.0
C362 C 0.7073 0.84901 0.17613 0.0
C363 C 0.68906 0.83565 0.16728 0.0
C364 C 0.68444 0.81698 0.15997 0.0
C365 C 0.69799 0.81134 0.1614 0.0
C366 C 0.71613 0.82464 0.17085 0.0
C367 C 0.72074 0.84335 0.17816 0.0
C368 C 0.71257 0.8744 0.14574 0.0
C369 C 0.69627 0.86911 0.13298 0.0
C370 C 0.69454 0.8622 0.11282 0.0
C371 C 0.70906 0.86036 0.10511 0.0
C372 C 0.72534 0.8656 0.11802 0.0
C373 C 0.72706 0.87255 0.13817 0.0
C374 C 0.71539 0.91123 0.15662 0.0
C375 C 0.69909 0.91239 0.15385 0.0
C376 C 0.69635 0.92121 0.1378 0.0
C377 C 0.70982 0.92899 0.12409 0.0
C378 C 0.72641 0.92827 0.12715 0.0
C379 C 0.72914 0.91935 0.14329 0.0
C380 C 0.72089 0.92601 0.19853 0.0
C381 C 0.7065 0.92773 0.20663 0.0
C382 C 0.70898 0.94597 0.2122 0.0
C383 C 0.72585 0.96285 0.20958 0.0
C384 C 0.74012 0.96104 0.20118 0.0
C385 C 0.73765 0.94277 0.1957 0.0
C386 C 0.71728 0.90112 0.22963 0.0
C387 C 0.70068 0.89261 0.23905 0.0
C388 C 0.69971 0.90128 0.25734 0.0
C389 C 0.71517 0.91882 0.26621 0.0
C390 C 0.73205 0.92686 0.25733 0.0
C391 C 0.73318 0.9179 0.23932 0.0
C392 C 0.71 0.86186 0.21789 0.0
C393 C 0.69148 0.84726 0.21921 0.0
C394 C 0.68785 0.83172 0.23002 0.0
C395 C 0.70271 0.83037 0.23955 0.0
C396 C 0.72124 0.84568 0.23936 0.0
C397 C 0.72487 0.86135 0.22852 0.0
C398 C 0.70715 0.85296 0.0837 0.0
C399 C 0.72859 0.98227 0.21557 0.0
H400 H 0.15217 0.84245 0.04373 0.0
H401 H 0.3144 0.97458 0.20485 0.0
H402 H 0.14248 0.86249 0.15823 0.0
H403 H 0.11313 0.83334 0.14403 0.0
H404 H 0.14062 0.79979 0.14903 0.0
H405 H 0.16932 0.8287 0.16408 0.0
H406 H 0.17421 0.88487 0.12426 0.0
H407 H 0.16346 0.87103 0.08906 0.0
H408 H 0.17934 0.82834 0.09959 0.0
H409 H 0.19006 0.84238 0.13472 0.0
H410 H 0.22127 0.92086 0.1384 0.0
H411 H 0.24301 0.92903 0.11238 0.0
H412 H 0.24603 0.87766 0.12023 0.0
H413 H 0.22453 0.86975 0.14614 0.0
H414 H 0.22137 0.93508 0.18825 0.0
H415 H 0.25253 0.96365 0.19758 0.0
H416 H 0.27758 0.92787 0.19093 0.0
H417 H 0.24633 0.8994 0.18185 0.0
H418 H 0.18954 0.91256 0.21605 0.0
H419 H 0.2004 0.92639 0.25096 0.0
H420 H 0.23873 0.90444 0.25235 0.0
H421 H 0.22585 0.88862 0.21837 0.0
H422 H 0.15957 0.88594 0.20502 0.0
H423 H 0.13825 0.87098 0.23031 0.0
H424 H 0.1514 0.82508 0.22812 0.0
H425 H 0.17437 0.84167 0.20489 0.0
O426 O 0.15658 0.84775 0.05767 0.0
O427 O 0.16501 0.82613 0.06385 0.0
O428 O 0.28832 0.98126 0.20456 0.0
O429 O 0.30191 0.96352 0.20124 0.0
C430 C 0.17641 0.86547 0.16797 0.0
C431 C 0.18905 0.87298 0.15333 0.0
C432 C 0.20733 0.8888 0.15883 0.0
C433 C 0.21265 0.89797 0.17875 0.0
C434 C 0.19993 0.89063 0.19347 0.0
C435 C 0.18181 0.87421 0.18808 0.0
C436 C 0.15795 0.84764 0.16215 0.0
C437 C 0.14192 0.84871 0.15667 0.0
C438 C 0.12527 0.83208 0.14832 0.0
C439 C 0.12448 0.81417 0.14517 0.0
C440 C 0.1405 0.81317 0.15146 0.0
C441 C 0.157 0.82972 0.15998 0.0
C442 C 0.18287 0.8646 0.13197 0.0
C443 C 0.17538 0.87256 0.11889 0.0
C444 C 0.16924 0.86461 0.09881 0.0
C445 C 0.17052 0.84856 0.09151 0.0
C446 C 0.17814 0.84069 0.10472 0.0
C447 C 0.18427 0.84866 0.12478 0.0
C448 C 0.22123 0.89463 0.14395 0.0
C449 C 0.22677 0.9115 0.13454 0.0
C450 C 0.23917 0.91613 0.11977 0.0
C451 C 0.24604 0.90385 0.11416 0.0
C452 C 0.24071 0.8872 0.12398 0.0
C453 C 0.22849 0.88269 0.1388 0.0
C454 C 0.23163 0.91522 0.18425 0.0
C455 C 0.23362 0.93346 0.18883 0.0
C456 C 0.25142 0.94975 0.19414 0.0
C457 C 0.26756 0.94805 0.19495 0.0
C458 C 0.26546 0.9297 0.1904 0.0
C459 C 0.24764 0.91343 0.18513 0.0
C460 C 0.20644 0.89905 0.21484 0.0
C461 C 0.19976 0.91015 0.2242 0.0
C462 C 0.20643 0.91851 0.2441 0.0
C463 C 0.22057 0.91667 0.25485 0.0
C464 C 0.22749 0.90583 0.24508 0.0
C465 C 0.22029 0.8969 0.22546 0.0
C466 C 0.16891 0.8652 0.20357 0.0
C467 C 0.15828 0.87302 0.2106 0.0
C468 C 0.14573 0.86412 0.22478 0.0
C469 C 0.14288 0.84666 0.23152 0.0
C470 C 0.15343 0.83875 0.22401 0.0
C471 C 0.16648 0.84808 0.21044 0.0
C472 C 0.1639 0.84009 0.0702 0.0
C473 C 0.28651 0.96531 0.20055 0.0
H474 H 0.26851 0.16591 0.00906 0.0
H475 H 0.33515 0.04616 0.89439 0.0
H476 H 0.27006 0.15862 0.90321 0.0
H477 H 0.27463 0.19056 0.91389 0.0
H478 H 0.33316 0.21681 0.90368 0.0
H479 H 0.32819 0.18509 0.89239 0.0
H480 H 0.26696 0.12475 0.93303 0.0
H481 H 0.26239 0.13732 0.96513 0.0
H482 H 0.31797 0.18765 0.96762 0.0
H483 H 0.32246 0.17478 0.93571 0.0
H484 H 0.27796 0.08859 0.92157 0.0
H485 H 0.28527 0.07426 0.94933 0.0
H486 H 0.33391 0.13003 0.97072 0.0
H487 H 0.3274 0.14369 0.94201 0.0
H488 H 0.27861 0.08123 0.87436 0.0
H489 H 0.28447 0.05424 0.87183 0.0
H490 H 0.33939 0.091 0.90474 0.0
H491 H 0.33346 0.11793 0.90688 0.0
H492 H 0.27688 0.10538 0.84148 0.0
H493 H 0.28284 0.08982 0.81233 0.0
H494 H 0.34122 0.1171 0.8361 0.0
H495 H 0.33514 0.13243 0.86505 0.0
H496 H 0.26892 0.14313 0.85821 0.0
H497 H 0.26818 0.16189 0.83119 0.0
H498 H 0.32688 0.1825 0.82596 0.0
H499 H 0.32755 0.16396 0.8534 0.0
O500 O 0.27066 0.16114 0.99645 0.0
O501 O 0.29927 0.18681 0.99692 0.0
O502 O 0.30422 0.03838 0.878 0.0
O503 O 0.33248 0.05661 0.89511 0.0
C504 C 0.29749 0.15046 0.8948 0.0
C505 C 0.29739 0.14135 0.91223 0.0
C506 C 0.29983 0.12517 0.91097 0.0
C507 C 0.30204 0.11791 0.89215 0.0
C508 C 0.30162 0.12672 0.87461 0.0
C509 C 0.29906 0.14283 0.87589 0.0
C510 C 0.2988 0.16959 0.89706 0.0
C511 C 0.28369 0.17139 0.90272 0.0
C512 C 0.28641 0.18963 0.90905 0.0
C513 C 0.30434 0.20631 0.90995 0.0
C514 C 0.31911 0.20443 0.90299 0.0
C515 C 0.31632 0.18626 0.89652 0.0
C516 C 0.29495 0.14893 0.93196 0.0
C517 C 0.27814 0.13846 0.94058 0.0
C518 C 0.27556 0.14569 0.95889 0.0
C519 C 0.28979 0.16353 0.96891 0.0
C520 C 0.30671 0.1739 0.96028 0.0
C521 C 0.30928 0.16662 0.94201 0.0
C522 C 0.3022 0.11716 0.92965 0.0
C523 C 0.29008 0.09771 0.93239 0.0
C524 C 0.29418 0.08961 0.94844 0.0
C525 C 0.31032 0.10093 0.96221 0.0
C526 C 0.3216 0.12076 0.96019 0.0
C527 C 0.31775 0.1287 0.94392 0.0
C528 C 0.30557 0.10149 0.89086 0.0
C529 C 0.2919 0.08342 0.88097 0.0
C530 C 0.29528 0.06803 0.87958 0.0
C531 C 0.3124 0.07045 0.88812 0.0
C532 C 0.32606 0.08862 0.89802 0.0
C533 C 0.32269 0.10401 0.89932 0.0
C534 C 0.30556 0.11992 0.85539 0.0
C535 C 0.29101 0.10828 0.84011 0.0
C536 C 0.29443 0.0994 0.82353 0.0
C537 C 0.31244 0.102 0.82211 0.0
C538 C 0.32714 0.11451 0.83697 0.0
C539 C 0.32373 0.1234 0.85341 0.0
C540 C 0.29825 0.15211 0.85768 0.0
C541 C 0.28152 0.15143 0.85097 0.0
C542 C 0.28112 0.1621 0.83547 0.0
C543 C 0.29749 0.17372 0.82643 0.0
C544 C 0.31409 0.17383 0.83275 0.0
C545 C 0.31446 0.16311 0.84826 0.0
C546 C 0.28694 0.17126 0.98826 0.0
C547 C 0.31605 0.05414 0.88673 0.0
H548 H 0.84538 0.17957 0.0259 0.0
H549 H 0.71028 0.01457 0.86867 0.0
H550 H 0.84377 0.1759 0.91608 0.0
H551 H 0.87273 0.20499 0.93029 0.0
H552 H 0.903 0.17439 0.92381 0.0
H553 H 0.87354 0.14496 0.91005 0.0
H554 H 0.81672 0.15618 0.94065 0.0
H555 H 0.82592 0.16896 0.97622 0.0
H556 H 0.85616 0.13828 0.9824 0.0
H557 H 0.84668 0.12545 0.94682 0.0
H558 H 0.7842 0.13044 0.91813 0.0
H559 H 0.76181 0.12323 0.94279 0.0
H560 H 0.77444 0.08071 0.96385 0.0
H561 H 0.79794 0.08929 0.93996 0.0
H562 H 0.77427 0.10828 0.87029 0.0
H563 H 0.7427 0.08099 0.85916 0.0
H564 H 0.75608 0.04336 0.89072 0.0
H565 H 0.78766 0.07074 0.90156 0.0
H566 H 0.80765 0.13021 0.84644 0.0
H567 H 0.79669 0.11445 0.81181 0.0
H568 H 0.79969 0.06528 0.8298 0.0
H569 H 0.81088 0.08126 0.86426 0.0
H570 H 0.84531 0.16854 0.87467 0.0
H571 H 0.86671 0.18527 0.85021 0.0
H572 H 0.87009 0.13408 0.83444 0.0
H573 H 0.85019 0.11826 0.86072 0.0
O574 O 0.84183 0.17429 0.01188 0.0
O575 O 0.85723 0.15829 0.01424 0.0
O576 O 0.71652 0.04556 0.85683 0.0
O577 O 0.72267 0.02562 0.87287 0.0
C578 C 0.83838 0.14037 0.90548 0.0
C579 C 0.82539 0.132 0.91966 0.0
C580 C 0.80721 0.11632 0.91335 0.0
C581 C 0.8024 0.10795 0.89318 0.0
C582 C 0.81558 0.1158 0.87903 0.0
C583 C 0.83344 0.13243 0.88503 0.0
C584 C 0.85656 0.15834 0.91211 0.0
C585 C 0.85667 0.17551 0.91761 0.0
C586 C 0.87328 0.19216 0.9256 0.0
C587 C 0.89022 0.19205 0.92816 0.0
C588 C 0.89015 0.17489 0.92221 0.0
C589 C 0.87342 0.15814 0.9142 0.0
C590 C 0.83087 0.13973 0.94126 0.0
C591 C 0.82517 0.15209 0.94977 0.0
C592 C 0.83053 0.15944 0.97007 0.0
C593 C 0.84174 0.1546 0.98218 0.0
C594 C 0.84749 0.14226 0.97352 0.0
C595 C 0.84209 0.13491 0.95322 0.0
C596 C 0.79259 0.11036 0.92732 0.0
C597 C 0.78205 0.11954 0.92808 0.0
C598 C 0.76914 0.11526 0.94212 0.0
C599 C 0.76616 0.10129 0.95537 0.0
C600 C 0.77656 0.0918 0.9542 0.0
C601 C 0.78982 0.09646 0.94041 0.0
C602 C 0.7832 0.09144 0.88669 0.0
C603 C 0.77034 0.09411 0.87474 0.0
C604 C 0.75233 0.07851 0.86843 0.0
C605 C 0.74687 0.05997 0.87405 0.0
C606 C 0.75982 0.05742 0.88612 0.0
C607 C 0.77784 0.07303 0.89238 0.0
C608 C 0.81015 0.10691 0.85779 0.0
C609 C 0.80613 0.11614 0.8428 0.0
C610 C 0.79972 0.10704 0.82312 0.0
C611 C 0.79728 0.0886 0.8181 0.0
C612 C 0.80162 0.07956 0.83314 0.0
C613 C 0.80795 0.08862 0.85281 0.0
C614 C 0.84638 0.14227 0.86974 0.0
C615 C 0.851 0.16108 0.86624 0.0
C616 C 0.86297 0.17049 0.85184 0.0
C617 C 0.8701 0.16104 0.84 0.0
C618 C 0.86519 0.14201 0.84339 0.0
C619 C 0.85363 0.13282 0.85828 0.0
C620 C 0.84744 0.16246 0.00373 0.0
C621 C 0.72776 0.04334 0.86736 0.0
H622 H 0.89541 0.72649 0.03764 0.0
H623 H 0.71342 0.69328 0.91517 0.0
H624 H 0.87827 0.73065 0.93132 0.0
H625 H 0.90436 0.72826 0.947 0.0
H626 H 0.86983 0.66584 0.9387 0.0
H627 H 0.84424 0.6685 0.92215 0.0
H628 H 0.85674 0.73459 0.96603 0.0
H629 H 0.87482 0.73702 0.99757 0.0
H630 H 0.84994 0.67481 0.99109 0.0
H631 H 0.83189 0.67263 0.95965 0.0
H632 H 0.81138 0.72884 0.96036 0.0
H633 H 0.79096 0.72268 0.98751 0.0
H634 H 0.77796 0.66327 0.98313 0.0
H635 H 0.79812 0.66948 0.95608 0.0
H636 H 0.80557 0.733 0.90979 0.0
H637 H 0.77725 0.73548 0.90683 0.0
H638 H 0.74465 0.67692 0.92222 0.0
H639 H 0.77303 0.67457 0.92488 0.0
H640 H 0.82834 0.72649 0.87359 0.0
H641 H 0.81146 0.72305 0.84068 0.0
H642 H 0.76679 0.66698 0.85252 0.0
H643 H 0.7835 0.67076 0.8853 0.0
H644 H 0.86763 0.72226 0.88986 0.0
H645 H 0.87952 0.7144 0.8604 0.0
H646 H 0.82612 0.66115 0.84589 0.0
H647 H 0.81542 0.6681 0.87649 0.0
O648 O 0.88765 0.72516 0.02554 0.0
O649 O 0.8743 0.69311 0.02161 0.0
O650 O 0.74218 0.72266 0.90815 0.0
O651 O 0.72482 0.69267 0.91617 0.0
C652 C 0.84223 0.7012 0.92301 0.0
C653 C 0.83385 0.70236 0.94043 0.0
C654 C 0.8168 0.70231 0.93863 0.0
C655 C 0.80867 0.70239 0.91951 0.0
C656 C 0.81686 0.70099 0.90202 0.0
C657 C 0.83348 0.69994 0.90372 0.0
C658 C 0.85939 0.69976 0.92564 0.0
C659 C 0.8767 0.71649 0.93202 0.0
C660 C 0.89147 0.71506 0.94131 0.0
C661 C 0.88905 0.69686 0.94467 0.0
C662 C 0.87228 0.6801 0.93636 0.0
C663 C 0.85761 0.68156 0.9268 0.0
C664 C 0.84302 0.70345 0.96064 0.0
C665 C 0.85501 0.7215 0.97164 0.0
C666 C 0.8654 0.72284 0.98957 0.0
C667 C 0.86392 0.70611 0.99679 0.0
C668 C 0.85146 0.68798 0.98594 0.0
C669 C 0.84107 0.68668 0.96804 0.0
C670 C 0.80625 0.69962 0.95639 0.0
C671 C 0.8043 0.71461 0.96552 0.0
C672 C 0.79269 0.71107 0.98097 0.0
C673 C 0.7828 0.69246 0.98728 0.0
C674 C 0.78523 0.67767 0.97839 0.0
C675 C 0.79687 0.68124 0.96311 0.0
C676 C 0.79137 0.70368 0.91772 0.0
C677 C 0.79229 0.72074 0.91251 0.0
C678 C 0.7761 0.72211 0.91084 0.0
C679 C 0.75868 0.7064 0.91435 0.0
C680 C 0.75783 0.68929 0.91948 0.0
C681 C 0.77402 0.68793 0.92109 0.0
C682 C 0.80702 0.69898 0.8819 0.0
C683 C 0.81489 0.71351 0.869 0.0
C684 C 0.80527 0.71147 0.85021 0.0
C685 C 0.78767 0.69482 0.84404 0.0
C686 C 0.78007 0.68019 0.85696 0.0
C687 C 0.78962 0.68228 0.87568 0.0
C688 C 0.84065 0.69577 0.88538 0.0
C689 C 0.85866 0.70878 0.88042 0.0
C690 C 0.8653 0.70437 0.86333 0.0
C691 C 0.85387 0.68704 0.8506 0.0
C692 C 0.83562 0.67437 0.85545 0.0
C693 C 0.82928 0.67848 0.87283 0.0
C694 C 0.87553 0.70765 0.0154 0.0
C695 C 0.74145 0.70781 0.91268 0.0
H696 H 0.7966 0.66827 0.36345 0.0
H697 H 0.93726 0.62681 0.49565 0.0
H698 H 0.81787 0.67481 0.48616 0.0
H699 H 0.79236 0.67974 0.47364 0.0
H700 H 0.76294 0.62176 0.44283 0.0
H701 H 0.78862 0.61704 0.45533 0.0
H702 H 0.83219 0.6767 0.44461 0.0
H703 H 0.8187 0.67878 0.41195 0.0
H704 H 0.80326 0.61976 0.39293 0.0
H705 H 0.81663 0.61782 0.42578 0.0
H706 H 0.87219 0.67846 0.44455 0.0
H707 H 0.89425 0.68311 0.41997 0.0
H708 H 0.87314 0.62147 0.413 0.0
H709 H 0.85177 0.61724 0.43846 0.0
H710 H 0.89233 0.67507 0.47937 0.0
H711 H 0.92176 0.67478 0.48378 0.0
H712 H 0.89041 0.61379 0.4912 0.0
H713 H 0.86109 0.61428 0.48658 0.0
H714 H 0.87584 0.67702 0.5173 0.0
H715 H 0.89237 0.68048 0.55014 0.0
H716 H 0.85606 0.61934 0.55426 0.0
H717 H 0.83915 0.61623 0.52147 0.0
H718 H 0.83996 0.67256 0.52464 0.0
H719 H 0.82494 0.67013 0.55546 0.0
H720 H 0.7818 0.6115 0.53344 0.0
H721 H 0.79751 0.61385 0.50305 0.0
O722 O 0.80206 0.66719 0.37617 0.0
O723 O 0.79382 0.63659 0.36737 0.0
O724 O 0.94131 0.65869 0.48991 0.0
O725 O 0.92585 0.62733 0.49382 0.0
C726 C 0.82256 0.64464 0.47459 0.0
C727 C 0.83248 0.64553 0.45781 0.0
C728 C 0.84946 0.64546 0.46043 0.0
C729 C 0.85677 0.64482 0.47977 0.0
C730 C 0.84726 0.64458 0.4966 0.0
C731 C 0.83001 0.64422 0.49401 0.0
C732 C 0.80512 0.6456 0.4716 0.0
C733 C 0.8056 0.66294 0.47731 0.0
C734 C 0.79103 0.66575 0.47007 0.0
C735 C 0.77575 0.65124 0.45698 0.0
C736 C 0.77467 0.63333 0.45259 0.0
C737 C 0.78921 0.63053 0.45988 0.0
C738 C 0.82532 0.6471 0.43754 0.0
C739 C 0.82593 0.66426 0.43334 0.0
C740 C 0.81821 0.6654 0.41467 0.0
C741 C 0.80985 0.64942 0.39984 0.0
C742 C 0.80955 0.63233 0.40403 0.0
C743 C 0.81725 0.6312 0.42273 0.0
C744 C 0.86049 0.64755 0.44324 0.0
C745 C 0.87216 0.66596 0.43742 0.0
C746 C 0.88469 0.66854 0.42329 0.0
C747 C 0.88559 0.65267 0.41453 0.0
C748 C 0.8731 0.63406 0.41971 0.0
C749 C 0.86075 0.63155 0.43407 0.0
C750 C 0.87462 0.64467 0.48252 0.0
C751 C 0.89187 0.66166 0.48183 0.0
C752 C 0.90864 0.66145 0.48441 0.0
C753 C 0.90844 0.64424 0.48781 0.0
C754 C 0.89108 0.62727 0.48858 0.0
C755 C 0.87432 0.6275 0.48597 0.0
C756 C 0.85636 0.64639 0.51705 0.0
C757 C 0.87139 0.66441 0.52539 0.0
C758 C 0.88091 0.6663 0.54407 0.0
C759 C 0.87572 0.65013 0.55475 0.0
C760 C 0.86034 0.6321 0.54651 0.0
C761 C 0.85071 0.63026 0.52778 0.0
C762 C 0.81985 0.64335 0.51171 0.0
C763 C 0.82727 0.65921 0.52652 0.0
C764 C 0.8186 0.65781 0.54406 0.0
C765 C 0.80221 0.64057 0.54699 0.0
C766 C 0.7946 0.62485 0.53186 0.0
C767 C 0.80339 0.62623 0.51437 0.0
C768 C 0.80142 0.6506 0.38013 0.0
C769 C 0.92622 0.64394 0.49057 0.0
H770 H 0.35021 0.13353 0.3987 0.0
H771 H 0.37252 0.31831 0.52224 0.0
H772 H 0.34493 0.15432 0.52377 0.0
H773 H 0.34167 0.12286 0.51497 0.0
H774 H 0.39397 0.15061 0.48816 0.0
H775 H 0.39783 0.18218 0.49862 0.0
H776 H 0.34117 0.16155 0.47757 0.0
H777 H 0.33981 0.1451 0.44495 0.0
H778 H 0.39378 0.1936 0.43571 0.0
H779 H 0.39506 0.20978 0.46851 0.0
H780 H 0.33455 0.1954 0.47235 0.0
H781 H 0.32507 0.20876 0.44548 0.0
H782 H 0.38116 0.25888 0.45176 0.0
H783 H 0.39022 0.24556 0.47938 0.0
H784 H 0.33522 0.22271 0.50475 0.0
H785 H 0.33168 0.25115 0.50457 0.0
H786 H 0.39004 0.28764 0.5283 0.0
H787 H 0.39345 0.25907 0.52811 0.0
H788 H 0.33567 0.20883 0.54399 0.0
H789 H 0.33056 0.22488 0.57307 0.0
H790 H 0.38955 0.25283 0.59449 0.0
H791 H 0.39455 0.23659 0.56513 0.0
H792 H 0.34438 0.17848 0.55717 0.0
H793 H 0.34663 0.16151 0.58543 0.0
H794 H 0.40455 0.18122 0.57677 0.0
H795 H 0.40222 0.1983 0.54872 0.0
O796 O 0.35102 0.14031 0.41153 0.0
O797 O 0.37868 0.16571 0.40738 0.0
O798 O 0.34366 0.28743 0.50983 0.0
O799 O 0.37348 0.3068 0.52238 0.0
C800 C 0.37138 0.18901 0.51338 0.0
C801 C 0.36927 0.19655 0.49548 0.0
C802 C 0.36725 0.21295 0.49652 0.0
C803 C 0.36703 0.22173 0.51536 0.0
C804 C 0.36857 0.21392 0.53323 0.0
C805 C 0.37117 0.19781 0.53232 0.0
C806 C 0.3716 0.17058 0.51183 0.0
C807 C 0.35607 0.15368 0.51676 0.0
C808 C 0.35405 0.13565 0.51131 0.0
C809 C 0.36729 0.1341 0.50033 0.0
C810 C 0.38351 0.15118 0.49664 0.0
C811 C 0.38572 0.16927 0.50253 0.0
C812 C 0.36828 0.18677 0.47545 0.0
C813 C 0.35271 0.16856 0.4685 0.0
C814 C 0.35196 0.15922 0.44985 0.0
C815 C 0.36671 0.16802 0.43774 0.0
C816 C 0.3822 0.1864 0.44468 0.0
C817 C 0.38296 0.19569 0.46337 0.0
C818 C 0.363 0.21959 0.47782 0.0
C819 C 0.3449 0.20904 0.46756 0.0
C820 C 0.33956 0.21669 0.4521 0.0
C821 C 0.35232 0.235 0.44648 0.0
C822 C 0.37089 0.24491 0.45593 0.0
C823 C 0.37615 0.2373 0.47159 0.0
C824 C 0.36463 0.23888 0.51628 0.0
C825 C 0.34723 0.23687 0.50986 0.0
C826 C 0.34524 0.25313 0.50981 0.0
C827 C 0.36061 0.27169 0.51634 0.0
C828 C 0.37794 0.27357 0.52312 0.0
C829 C 0.37992 0.25729 0.52308 0.0
C830 C 0.36548 0.22163 0.55244 0.0
C831 C 0.34745 0.21822 0.5551 0.0
C832 C 0.34459 0.22751 0.57162 0.0
C833 C 0.35971 0.24033 0.58589 0.0
C834 C 0.37764 0.243 0.58373 0.0
C835 C 0.38052 0.23375 0.56704 0.0
C836 C 0.37316 0.18967 0.55097 0.0
C837 C 0.35766 0.17949 0.5617 0.0
C838 C 0.35893 0.16968 0.57769 0.0
C839 C 0.37575 0.16999 0.58326 0.0
C840 C 0.39147 0.18089 0.57299 0.0
C841 C 0.39015 0.19059 0.55694 0.0
C842 C 0.3659 0.15802 0.41796 0.0
C843 C 0.35866 0.28905 0.51597 0.0
H844 H 0.79727 0.17534 0.37056 0.0
H845 H 0.95555 0.32621 0.51708 0.0
H846 H 0.7953 0.18275 0.47808 0.0
H847 H 0.76888 0.14929 0.47103 0.0
H848 H 0.80462 0.12856 0.49435 0.0
H849 H 0.83083 0.16182 0.50111 0.0
H850 H 0.82389 0.21777 0.4511 0.0
H851 H 0.81127 0.20401 0.41618 0.0
H852 H 0.82617 0.16018 0.4239 0.0
H853 H 0.83893 0.17422 0.45871 0.0
H854 H 0.8637 0.25773 0.4677 0.0
H855 H 0.88579 0.27423 0.44306 0.0
H856 H 0.89604 0.22658 0.43621 0.0
H857 H 0.87431 0.21045 0.46084 0.0
H858 H 0.86368 0.26497 0.51777 0.0
H859 H 0.89083 0.29781 0.5245 0.0
H860 H 0.92663 0.27696 0.50384 0.0
H861 H 0.89943 0.24418 0.49744 0.0
H862 H 0.83652 0.22924 0.54848 0.0
H863 H 0.84858 0.24177 0.58361 0.0
H864 H 0.90191 0.24753 0.57192 0.0
H865 H 0.88902 0.23323 0.53741 0.0
H866 H 0.80344 0.18872 0.52729 0.0
H867 H 0.7894 0.16524 0.55166 0.0
H868 H 0.84214 0.16709 0.56449 0.0
H869 H 0.85579 0.18993 0.53957 0.0
O870 O 0.80239 0.18058 0.38438 0.0
O871 O 0.81028 0.15832 0.38915 0.0
O872 O 0.92561 0.32331 0.52533 0.0
O873 O 0.94459 0.31335 0.51465 0.0
C874 C 0.83097 0.19487 0.49474 0.0
C875 C 0.83976 0.20537 0.47868 0.0
C876 C 0.85612 0.2238 0.48272 0.0
C877 C 0.86297 0.23238 0.50283 0.0
C878 C 0.85415 0.22194 0.51899 0.0
C879 C 0.8384 0.203 0.5149 0.0
C880 C 0.81489 0.17471 0.49038 0.0
C881 C 0.79736 0.17094 0.48162 0.0
C882 C 0.78236 0.15188 0.47753 0.0
C883 C 0.78466 0.13636 0.48232 0.0
C884 C 0.80234 0.14024 0.49082 0.0
C885 C 0.81731 0.15921 0.49471 0.0
C886 C 0.83215 0.19689 0.45748 0.0
C887 C 0.82441 0.2052 0.4452 0.0
C888 C 0.8172 0.1973 0.42528 0.0
C889 C 0.81765 0.18095 0.41726 0.0
C890 C 0.82554 0.17273 0.42961 0.0
C891 C 0.83277 0.18067 0.44952 0.0
C892 C 0.86744 0.23292 0.46606 0.0
C893 C 0.87054 0.25079 0.46063 0.0
C894 C 0.88315 0.26017 0.44662 0.0
C895 C 0.89261 0.25166 0.43771 0.0
C896 C 0.88876 0.23336 0.44255 0.0
C897 C 0.87637 0.22414 0.45665 0.0
C898 C 0.87957 0.25223 0.507 0.0
C899 C 0.87741 0.26753 0.51475 0.0
C900 C 0.89293 0.28627 0.51855 0.0
C901 C 0.9109 0.29002 0.51465 0.0
C902 C 0.913 0.2746 0.50696 0.0
C903 C 0.89748 0.25586 0.50323 0.0
C904 C 0.8619 0.23046 0.54024 0.0
C905 C 0.85077 0.2331 0.55358 0.0
C906 C 0.85782 0.24052 0.57366 0.0
C907 C 0.87636 0.24588 0.58079 0.0
C908 C 0.88751 0.24334 0.56724 0.0
C909 C 0.88026 0.23547 0.54732 0.0
C910 C 0.83059 0.19094 0.5316 0.0
C911 C 0.81199 0.1842 0.53556 0.0
C912 C 0.80405 0.17091 0.54958 0.0
C913 C 0.81464 0.16421 0.5599 0.0
C914 C 0.83355 0.17174 0.55656 0.0
C915 C 0.84142 0.18493 0.54249 0.0
C916 C 0.80991 0.17255 0.39611 0.0
C917 C 0.92742 0.30991 0.51856 0.0
H918 H 0.02716 0.54195 0.33632 0.0
H919 H 0.9904 0.37075 0.16754 0.0
H920 H 0.97236 0.50934 0.21905 0.0
H921 H 0.97648 0.54009 0.2337 0.0
H922 H 0.03668 0.56433 0.24095 0.0
H923 H 0.03241 0.53384 0.22555 0.0
H924 H 0.98551 0.49939 0.25883 0.0
H925 H 0.99803 0.51684 0.29253 0.0
H926 H 0.05185 0.52256 0.2838 0.0
H927 H 0.03922 0.50532 0.24999 0.0
H928 H 0.98484 0.46187 0.26147 0.0
H929 H 0.99251 0.44717 0.28841 0.0
H930 H 0.03415 0.4448 0.25415 0.0
H931 H 0.02773 0.46144 0.22847 0.0
H932 H 0.96858 0.4288 0.22005 0.0
H933 H 0.96315 0.39631 0.21069 0.0
H934 H 0.00905 0.4203 0.17371 0.0
H935 H 0.01456 0.45272 0.1835 0.0
H936 H 0.95685 0.43839 0.17899 0.0
H937 H 0.95056 0.41682 0.14834 0.0
H938 H 0.0021 0.46013 0.12781 0.0
H939 H 0.00855 0.48146 0.15873 0.0
H940 H 0.95779 0.4765 0.17573 0.0
H941 H 0.94852 0.49241 0.15153 0.0
H942 H 0.00534 0.54142 0.15936 0.0
H943 H 0.01475 0.52447 0.18182 0.0
O944 O 0.02249 0.53507 0.32294 0.0
O945 O 0.04983 0.53745 0.31778 0.0
O946 O 0.96965 0.37193 0.19188 0.0
O947 O 0.99252 0.38347 0.17187 0.0
C948 C 0.99948 0.49987 0.2161 0.0
C949 C 0.00393 0.49089 0.23129 0.0
C950 C 0.00132 0.47224 0.22687 0.0
C951 C 0.99446 0.46265 0.20718 0.0
C952 C 0.98984 0.47154 0.19196 0.0
C953 C 0.99226 0.49015 0.19641 0.0
C954 C 0.00207 0.51935 0.22137 0.0
C955 C 0.98643 0.52148 0.22329 0.0
C956 C 0.98882 0.53897 0.23189 0.0
C957 C 0.0069 0.55457 0.23882 0.0
C958 C 0.02258 0.5527 0.23569 0.0
C959 C 0.02018 0.53526 0.22696 0.0
C960 C 0.01148 0.50115 0.25196 0.0
C961 C 2e-05 0.50449 0.2642 0.0
C962 C 0.0072 0.51442 0.28346 0.0
C963 C 0.02595 0.52111 0.29086 0.0
C964 C 0.03735 0.51761 0.27857 0.0
C965 C 0.03017 0.50773 0.25928 0.0
C966 C 0.00571 0.46274 0.24298 0.0
C967 C 0.99584 0.45846 0.26 0.0
C968 C 0.00011 0.4498 0.27528 0.0
C969 C 0.01394 0.44463 0.27358 0.0
C970 C 0.02371 0.44889 0.25637 0.0
C971 C 0.01983 0.45811 0.24141 0.0
C972 C 0.99192 0.44309 0.20241 0.0
C973 C 0.97757 0.42701 0.21011 0.0
C974 C 0.97445 0.40848 0.20467 0.0
C975 C 0.98562 0.4057 0.19137 0.0
C976 C 0.00017 0.42191 0.18393 0.0
C977 C 0.00334 0.44044 0.18949 0.0
C978 C 0.98329 0.46137 0.17121 0.0
C979 C 0.96648 0.44346 0.16758 0.0
C980 C 0.96295 0.43114 0.15016 0.0
C981 C 0.97598 0.43674 0.1359 0.0
C982 C 0.99181 0.4555 0.13856 0.0
C983 C 0.99548 0.46772 0.15616 0.0
C984 C 0.98694 0.49934 0.18068 0.0
C985 C 0.96832 0.49047 0.1718 0.0
C986 C 0.96298 0.49978 0.15818 0.0
C987 C 0.97606 0.51841 0.15351 0.0
C988 C 0.99483 0.52701 0.16216 0.0
C989 C 0.00024 0.51744 0.17532 0.0
C990 C 0.03354 0.5317 0.31132 0.0
C991 C 0.98207 0.386 0.18513 0.0
H992 H 0.48941 0.49156 0.35889 0.0
H993 H 0.37931 0.33497 0.18636 0.0
H994 H 0.49905 0.49911 0.25366 0.0
H995 H 0.52631 0.5285 0.27041 0.0
H996 H 0.56139 0.50401 0.25913 0.0
H997 H 0.53362 0.47413 0.24293 0.0
H998 H 0.46759 0.47242 0.27204 0.0
H999 H 0.47303 0.48238 0.30826 0.0
H1000 H 0.51218 0.46182 0.31463 0.0
H1001 H 0.50643 0.45171 0.27838 0.0
H1002 H 0.43604 0.4435 0.23602 0.0
H1003 H 0.4109 0.43526 0.25743 0.0
H1004 H 0.43454 0.41018 0.29639 0.0
H1005 H 0.45954 0.41801 0.27434 0.0
H1006 H 0.43526 0.43098 0.19584 0.0
H1007 H 0.40617 0.40196 0.18123 0.0
H1008 H 0.42258 0.36663 0.21303 0.0
H1009 H 0.45177 0.39578 0.2273 0.0
H1010 H 0.46817 0.46147 0.18051 0.0
H1011 H 0.45827 0.45044 0.14459 0.0
H1012 H 0.4675 0.40268 0.15169 0.0
H1013 H 0.47757 0.41396 0.18763 0.0
H1014 H 0.49795 0.49552 0.2107 0.0
H1015 H 0.51664 0.51763 0.18711 0.0
H1016 H 0.5366 0.47913 0.16904 0.0
H1017 H 0.51796 0.45708 0.19319 0.0
O1018 O 0.48739 0.48741 0.3446 0.0
O1019 O 0.50742 0.47665 0.34706 0.0
O1020 O 0.38304 0.36549 0.17573 0.0
O1021 O 0.39075 0.34669 0.19187 0.0
C1022 C 0.4973 0.46625 0.23823 0.0
C1023 C 0.4833 0.4552 0.25062 0.0
C1024 C 0.46605 0.43916 0.24191 0.0
C1025 C 0.46353 0.43302 0.22115 0.0
C1026 C 0.47751 0.44401 0.20872 0.0
C1027 C 0.49412 0.46105 0.21717 0.0
C1028 C 0.51434 0.48447 0.24721 0.0
C1029 C 0.51261 0.50006 0.25485 0.0
C1030 C 0.52825 0.5169 0.26429 0.0
C1031 C 0.54607 0.51864 0.26606 0.0
C1032 C 0.54783 0.50303 0.2582 0.0
C1033 C 0.53206 0.48607 0.24879 0.0
C1034 C 0.48645 0.46113 0.27265 0.0
C1035 C 0.4772 0.46992 0.28132 0.0
C1036 C 0.4804 0.47567 0.302 0.0
C1037 C 0.49301 0.47286 0.31436 0.0
C1038 C 0.50234 0.46416 0.30556 0.0
C1039 C 0.49909 0.45836 0.28488 0.0
C1040 C 0.44957 0.43129 0.25359 0.0
C1041 C 0.43554 0.43576 0.24887 0.0
C1042 C 0.42133 0.43128 0.26127 0.0
C1043 C 0.42093 0.42235 0.27875 0.0
C1044 C 0.43448 0.41701 0.28297 0.0
C1045 C 0.44875 0.42148 0.27045 0.0
C1046 C 0.44575 0.41544 0.21238 0.0
C1047 C 0.43264 0.41695 0.19946 0.0
C1048 C 0.41599 0.40035 0.19122 0.0
C1049 C 0.41207 0.38195 0.19591 0.0
C1050 C 0.42517 0.38056 0.20905 0.0
C1051 C 0.44185 0.39717 0.21724 0.0
C1052 C 0.47372 0.43859 0.18661 0.0
C1053 C 0.46841 0.44886 0.17421 0.0
C1054 C 0.46256 0.44242 0.15378 0.0
C1055 C 0.46199 0.42563 0.14538 0.0
C1056 C 0.46793 0.41574 0.15772 0.0
C1057 C 0.47367 0.42213 0.1782 0.0
C1058 C 0.50673 0.4748 0.20377 0.0
C1059 C 0.50656 0.49198 0.20188 0.0
C1060 C 0.51706 0.50446 0.18821 0.0
C1061 C 0.5279 0.49998 0.17605 0.0
C1062 C 0.5284 0.48295 0.17826 0.0
C1063 C 0.51779 0.47037 0.19198 0.0
C1064 C 0.49642 0.47906 0.33632 0.0
C1065 C 0.3944 0.36427 0.18719 0.0
H1066 H 0.51755 0.00859 0.377 0.0
H1067 H 0.3646 0.98254 0.21773 0.0
H1068 H 0.52948 0.03606 0.2732 0.0
H1069 H 0.55689 0.03585 0.28889 0.0
H1070 H 0.53458 0.97739 0.26138 0.0
H1071 H 0.50718 0.97776 0.24566 0.0
H1072 H 0.49569 0.02798 0.30102 0.0
H1073 H 0.50546 0.02499 0.33526 0.0
H1074 H 0.49793 0.96916 0.3148 0.0
H1075 H 0.48787 0.9722 0.28075 0.0
H1076 H 0.45689 0.02338 0.2826 0.0
H1077 H 0.4366 0.01455 0.30999 0.0
H1078 H 0.42927 0.95725 0.30378 0.0
H1079 H 0.44945 0.96616 0.27654 0.0
H1080 H 0.45817 0.03369 0.23529 0.0
H1081 H 0.42838 0.0324 0.2265 0.0
H1082 H 0.39848 0.97073 0.23051 0.0
H1083 H 0.42838 0.9722 0.2391 0.0
H1084 H 0.49266 0.04056 0.21078 0.0
H1085 H 0.48536 0.04625 0.17687 0.0
H1086 H 0.4415 0.98612 0.16487 0.0
H1087 H 0.44847 0.98089 0.1992 0.0
H1088 H 0.52855 0.03446 0.22618 0.0
H1089 H 0.54689 0.03202 0.19994 0.0
H1090 H 0.49931 0.97648 0.1758 0.0
H1091 H 0.48161 0.9786 0.2026 0.0
O1092 O 0.51343 0.00938 0.36343 0.0
O1093 O 0.50981 0.98099 0.35201 0.0
O1094 O 0.39262 0.01519 0.21925 0.0
O1095 O 0.37658 0.98347 0.22118 0.0
C1096 C 0.49816 0.00572 0.25267 0.0
C1097 C 0.48584 0.00253 0.26755 0.0
C1098 C 0.4683 0.00102 0.26254 0.0
C1099 C 0.46351 0.00389 0.24295 0.0
C1100 C 0.47584 0.0071 0.22805 0.0
C1101 C 0.49281 0.00721 0.23272 0.0
C1102 C 0.51639 0.00694 0.25829 0.0
C1103 C 0.53081 0.02344 0.27007 0.0
C1104 C 0.54644 0.02329 0.27901 0.0
C1105 C 0.54779 0.00655 0.27647 0.0
C1106 C 0.53381 0.99042 0.26372 0.0
C1107 C 0.51827 0.99066 0.2546 0.0
C1108 C 0.49121 0.00038 0.28842 0.0
C1109 C 0.49607 0.01508 0.30402 0.0
C1110 C 0.50169 0.01335 0.32353 0.0
C1111 C 0.50256 0.99687 0.32775 0.0
C1112 C 0.49748 0.98206 0.31207 0.0
C1113 C 0.49178 0.98378 0.2926 0.0
C1114 C 0.45469 0.99543 0.27773 0.0
C1115 C 0.45067 0.00887 0.28702 0.0
C1116 C 0.43911 0.0038 0.30261 0.0
C1117 C 0.43155 0.98528 0.30915 0.0
C1118 C 0.43517 0.97172 0.29931 0.0
C1119 C 0.44659 0.97674 0.2837 0.0
C1120 C 0.4454 0.00306 0.23788 0.0
C1121 C 0.44516 0.01992 0.23424 0.0
C1122 C 0.42813 0.01914 0.22924 0.0
C1123 C 0.41103 0.00145 0.22782 0.0
C1124 C 0.41137 0.98458 0.2315 0.0
C1125 C 0.42841 0.98538 0.23646 0.0
C1126 C 0.47106 0.01035 0.20744 0.0
C1127 C 0.48142 0.02867 0.20082 0.0
C1128 C 0.47731 0.03182 0.18135 0.0
C1129 C 0.46288 0.01663 0.16798 0.0
C1130 C 0.4525 0.99825 0.17478 0.0
C1131 C 0.4565 0.99518 0.19435 0.0
C1132 C 0.50379 0.00668 0.21631 0.0
C1133 C 0.52217 0.02179 0.21521 0.0
C1134 C 0.53253 0.02044 0.20011 0.0
C1135 C 0.52458 0.00399 0.18583 0.0
C1136 C 0.50598 0.98917 0.18675 0.0
C1137 C 0.49576 0.99044 0.20192 0.0
C1138 C 0.50879 0.99519 0.34842 0.0
C1139 C 0.39291 0.00053 0.22249 0.0
H1140 H 0.51788 0.024 0.69642 0.0
H1141 H 0.6256 0.98748 0.86234 0.0
H1142 H 0.50872 0.0281 0.80203 0.0
H1143 H 0.48195 0.02841 0.78511 0.0
H1144 H 0.44585 0.96865 0.79521 0.0
H1145 H 0.47308 0.96828 0.81125 0.0
H1146 H 0.54082 0.0315 0.78248 0.0
H1147 H 0.53526 0.03406 0.74679 0.0
H1148 H 0.4922 0.9735 0.73831 0.0
H1149 H 0.49809 0.97109 0.774 0.0
H1150 H 0.57255 0.035 0.8137 0.0
H1151 H 0.59727 0.04633 0.79125 0.0
H1152 H 0.56699 0.99102 0.75483 0.0
H1153 H 0.54242 0.9796 0.77779 0.0
H1154 H 0.57205 0.02766 0.85588 0.0
H1155 H 0.60082 0.029 0.86959 0.0
H1156 H 0.58247 0.97346 0.83636 0.0
H1157 H 0.55362 0.97218 0.82299 0.0
H1158 H 0.53792 0.02499 0.87333 0.0
H1159 H 0.55116 0.02827 0.90794 0.0
H1160 H 0.54517 0.97174 0.89746 0.0
H1161 H 0.53121 0.96827 0.86296 0.0
H1162 H 0.50998 0.02675 0.84923 0.0
H1163 H 0.4886 0.02788 0.87192 0.0
H1164 H 0.46452 0.96667 0.8768 0.0
H1165 H 0.48681 0.966 0.85463 0.0
O1166 O 0.51991 0.02264 0.71048 0.0
O1167 O 0.49784 0.99147 0.70694 0.0
O1168 O 0.62307 0.0158 0.874 0.0
O1169 O 0.61434 0.98733 0.85712 0.0
C1170 C 0.50973 0.99744 0.81552 0.0
C1171 C 0.52327 0.99951 0.80247 0.0
C1172 C 0.54013 0.00068 0.81018 0.0
C1173 C 0.54298 0.99866 0.83069 0.0
C1174 C 0.52933 0.99633 0.84374 0.0
C1175 C 0.51286 0.99604 0.83619 0.0
C1176 C 0.49289 0.99809 0.80761 0.0
C1177 C 0.495 0.0151 0.80066 0.0
C1178 C 0.4796 0.01529 0.79116 0.0
C1179 C 0.46168 0.99851 0.78865 0.0
C1180 C 0.45949 0.98173 0.79654 0.0
C1181 C 0.47497 0.98152 0.80588 0.0
C1182 C 0.51998 0.00106 0.78076 0.0
C1183 C 0.53031 0.01877 0.77285 0.0
C1184 C 0.52705 0.02021 0.75247 0.0
C1185 C 0.5133 0.00398 0.73968 0.0
C1186 C 0.50291 0.98627 0.74773 0.0
C1187 C 0.50624 0.98485 0.7681 0.0
C1188 C 0.55574 0.00647 0.7974 0.0
C1189 C 0.57142 0.0252 0.80108 0.0
C1190 C 0.58541 0.03172 0.78813 0.0
C1191 C 0.58397 0.01963 0.77116 0.0
C1192 C 0.56853 0.00061 0.76785 0.0
C1193 C 0.55448 0.99409 0.78087 0.0
C1194 C 0.56068 -0.00028 0.83862 0.0
C1195 C 0.57423 0.01575 0.85168 0.0
C1196 C 0.59067 0.0165 0.85944 0.0
C1197 C 0.59393 0.0013 0.85411 0.0
C1198 C 0.5804 0.98538 0.84081 0.0
C1199 C 0.56392 0.98462 0.83312 0.0
C1200 C 0.53351 0.99636 0.86565 0.0
C1201 C 0.53877 0.013 0.87872 0.0
C1202 C 0.5466 0.01496 0.8984 0.0
C1203 C 0.5495 0.00039 0.90531 0.0
C1204 C 0.54304 0.98316 0.89261 0.0
C1205 C 0.53509 0.98116 0.87291 0.0
C1206 C 0.49981 0.99629 0.85021 0.0
C1207 C 0.50011 0.01361 0.85525 0.0
C1208 C 0.48777 0.01416 0.86812 0.0
C1209 C 0.47459 0.99728 0.87597 0.0
C1210 C 0.47455 0.97995 0.87114 0.0
C1211 C 0.48715 0.97949 0.85839 0.0
C1212 C 0.50983 0.00557 0.71805 0.0
C1213 C 0.61134 0.00199 0.86238 0.0
H1214 H 0.00935 0.46694 0.73362 0.0
H1215 H 0.01854 0.63826 0.88056 0.0
H1216 H 0.99094 0.47692 0.85133 0.0
H1217 H 0.98659 0.44605 0.83746 0.0
H1218 H 0.0456 0.47413 0.82897 0.0
H1219 H 0.04954 0.5052 0.84224 0.0
H1220 H 0.9928 0.48893 0.81127 0.0
H1221 H 0.99433 0.4752 0.77828 0.0
H1222 H 0.05112 0.52277 0.77793 0.0
H1223 H 0.04948 0.53619 0.81112 0.0
H1224 H 0.98962 0.52158 0.8072 0.0
H1225 H 0.98353 0.53662 0.77947 0.0
H1226 H 0.03549 0.58998 0.79932 0.0
H1227 H 0.04209 0.57426 0.82611 0.0
H1228 H 0.98661 0.54624 0.84574 0.0
H1229 H 0.98129 0.57344 0.85112 0.0
H1230 H 0.03866 0.60954 0.87825 0.0
H1231 H 0.04385 0.5823 0.87249 0.0
H1232 H 0.9875 0.5297 0.88675 0.0
H1233 H 0.98375 0.54756 0.91528 0.0
H1234 H 0.04366 0.57805 0.9323 0.0
H1235 H 0.04732 0.56012 0.90349 0.0
H1236 H 0.99506 0.49094 0.88896 0.0
H1237 H 9e-05 0.47369 0.91542 0.0
H1238 H 0.06004 0.51233 0.9179 0.0
H1239 H 0.05485 0.52935 0.89137 0.0
O1240 O 0.00902 0.47268 0.74662 0.0
O1241 O 0.03804 0.49763 0.74699 0.0
O1242 O 0.99106 0.60828 0.86358 0.0
O1243 O 0.02033 0.62734 0.878 0.0
C1244 C 0.02156 0.51217 0.85105 0.0
C1245 C 0.02048 0.52133 0.83408 0.0
C1246 C 0.01898 0.53804 0.83656 0.0
C1247 C 0.01856 0.54557 0.85607 0.0
C1248 C 0.02004 0.53662 0.87309 0.0
C1249 C 0.02188 0.52012 0.87059 0.0
C1250 C 0.02055 0.49324 0.84785 0.0
C1251 C 0.00305 0.47627 0.84713 0.0
C1252 C 0.00061 0.4586 0.83912 0.0
C1253 C 0.01569 0.45757 0.83181 0.0
C1254 C 0.03358 0.47445 0.83403 0.0
C1255 C 0.03596 0.49217 0.84188 0.0
C1256 C 0.02109 0.51345 0.81364 0.0
C1257 C 0.00558 0.4963 0.80408 0.0
C1258 C 0.00648 0.48853 0.78521 0.0
C1259 C 0.02287 0.49785 0.77549 0.0
C1260 C 0.0383 0.5152 0.78502 0.0
C1261 C 0.03739 0.52292 0.80394 0.0
C1262 C 0.01631 0.5468 0.81867 0.0
C1263 C -5e-05 0.53634 0.80519 0.0
C1264 C 0.99638 0.54506 0.7895 0.0
C1265 C 0.00889 0.56462 0.78726 0.0
C1266 C 0.02564 0.57485 0.80038 0.0
C1267 C 0.02936 0.56597 0.81586 0.0
C1268 C 0.01562 0.56233 0.8587 0.0
C1269 C 0.99804 0.56009 0.85268 0.0
C1270 C 0.99503 0.57562 0.85585 0.0
C1271 C 0.00955 0.59367 0.86517 0.0
C1272 C 0.02718 0.59586 0.87106 0.0
C1273 C 0.03019 0.58032 0.86781 0.0
C1274 C 0.01767 0.54363 0.89309 0.0
C1275 C -0.00025 0.5398 0.897 0.0
C1276 C 0.99766 0.55016 0.91314 0.0
C1277 C 0.01345 0.5644 0.92577 0.0
C1278 C 0.03126 0.56713 0.92279 0.0
C1279 C 0.03337 0.55685 0.90645 0.0
C1280 C 0.0246 0.51131 0.88829 0.0
C1281 C 0.00923 0.4958 0.89544 0.0
C1282 C 0.01214 0.48595 0.91045 0.0
C1283 C 0.03047 0.49163 0.91865 0.0
C1284 C 0.04577 0.50774 0.91201 0.0
C1285 C 0.04285 0.51744 0.89686 0.0
C1286 C 0.02384 0.48946 0.75551 0.0
C1287 C 0.00635 0.61015 0.86882 0.0
H1288 H 0.49028 0.50198 0.7157 0.0
H1289 H 0.6422 0.65101 0.89329 0.0
H1290 H 0.47745 0.51973 0.82713 0.0
H1291 H 0.45367 0.48823 0.80924 0.0
H1292 H 0.49275 0.46771 0.81686 0.0
H1293 H 0.51645 0.49928 0.8337 0.0
H1294 H 0.49929 0.53941 0.79671 0.0
H1295 H 0.49131 0.52491 0.76166 0.0
H1296 H 0.53568 0.51146 0.76859 0.0
H1297 H 0.54339 0.52586 0.8037 0.0
H1298 H 0.53654 0.57646 0.79867 0.0
H1299 H 0.55668 0.59068 0.7721 0.0
H1300 H 0.59878 0.58121 0.80205 0.0
H1301 H 0.57795 0.56583 0.82774 0.0
H1302 H 0.55679 0.60364 0.84204 0.0
H1303 H 0.58605 0.63406 0.85296 0.0
H1304 H 0.60739 0.60276 0.88497 0.0
H1305 H 0.5782 0.57244 0.87369 0.0
H1306 H 0.54033 0.59127 0.88327 0.0
H1307 H 0.55562 0.60662 0.91731 0.0
H1308 H 0.55775 0.55575 0.92984 0.0
H1309 H 0.5432 0.54069 0.89553 0.0
H1310 H 0.50041 0.55283 0.88137 0.0
H1311 H 0.47816 0.53634 0.90531 0.0
H1312 H 0.48303 0.48565 0.89204 0.0
H1313 H 0.50719 0.50337 0.87053 0.0
O1314 O 0.49371 0.50769 0.72957 0.0
O1315 O 0.51676 0.50119 0.73387 0.0
O1316 O 0.61903 0.65457 0.87171 0.0
O1317 O 0.63054 0.63918 0.88864 0.0
C1318 C 0.51437 0.53158 0.83847 0.0
C1319 C 0.52634 0.54202 0.82413 0.0
C1320 C 0.54284 0.55992 0.83021 0.0
C1321 C 0.54745 0.56745 0.85071 0.0
C1322 C 0.53523 0.55728 0.86512 0.0
C1323 C 0.51853 0.53937 0.85894 0.0
C1324 C 0.4986 0.5117 0.83179 0.0
C1325 C 0.48063 0.50823 0.82528 0.0
C1326 C 0.46712 0.49026 0.81503 0.0
C1327 C 0.47142 0.47555 0.81125 0.0
C1328 C 0.4891 0.47884 0.81897 0.0
C1329 C 0.50259 0.49677 0.8289 0.0
C1330 C 0.52189 0.53366 0.80269 0.0
C1331 C 0.50725 0.5333 0.79061 0.0
C1332 C 0.50274 0.52503 0.77061 0.0
C1333 C 0.51285 0.51701 0.76232 0.0
C1334 C 0.52761 0.51751 0.77449 0.0
C1335 C 0.53208 0.52575 0.79452 0.0
C1336 C 0.5558 0.57013 0.81511 0.0
C1337 C 0.55013 0.57748 0.79944 0.0
C1338 C 0.56173 0.58573 0.78436 0.0
C1339 C 0.57937 0.58707 0.78486 0.0
C1340 C 0.58516 0.58009 0.80093 0.0
C1341 C 0.57341 0.57156 0.81581 0.0
C1342 C 0.56536 0.58586 0.85713 0.0
C1343 C 0.56785 0.60339 0.85133 0.0
C1344 C 0.58455 0.62074 0.85763 0.0
C1345 C 0.59906 0.62084 0.86988 0.0
C1346 C 0.59652 0.60321 0.87557 0.0
C1347 C 0.57984 0.58587 0.86919 0.0
C1348 C 0.5408 0.56492 0.88682 0.0
C1349 C 0.5438 0.58329 0.89345 0.0
C1350 C 0.55247 0.59203 0.91282 0.0
C1351 C 0.55776 0.58227 0.92598 0.0
C1352 C 0.55363 0.56341 0.91988 0.0
C1353 C 0.54527 0.55481 0.90037 0.0
C1354 C 0.50514 0.52918 0.87376 0.0
C1355 C 0.49687 0.53826 0.88394 0.0
C1356 C 0.48386 0.52862 0.89745 0.0
C1357 C 0.47828 0.50935 0.90055 0.0
C1358 C 0.48693 0.50047 0.89048 0.0
C1359 C 0.50051 0.51044 0.87764 0.0
C1360 C 0.50796 0.50815 0.74109 0.0
C1361 C 0.61677 0.63924 0.87675 0.0
H1362 H 0.63415 0.85157 0.66986 0.0
H1363 H 0.64637 0.69327 0.55033 0.0
H1364 H 0.59615 0.81295 0.56851 0.0
H1365 H 0.60103 0.84407 0.58284 0.0
H1366 H 0.65065 0.87358 0.55195 0.0
H1367 H 0.64617 0.84246 0.53852 0.0
H1368 H 0.6077 0.79294 0.60035 0.0
H1369 H 0.61432 0.81333 0.63204 0.0
H1370 H 0.66488 0.85825 0.61116 0.0
H1371 H 0.65829 0.83757 0.57977 0.0
H1372 H 0.61289 0.75744 0.59139 0.0
H1373 H 0.6282 0.74949 0.61861 0.0
H1374 H 0.68213 0.79698 0.60733 0.0
H1375 H 0.66655 0.80526 0.58113 0.0
H1376 H 0.59736 0.73804 0.53907 0.0
H1377 H 0.59827 0.70803 0.53826 0.0
H1378 H 0.65854 0.74136 0.5533 0.0
H1379 H 0.65748 0.77122 0.55366 0.0
H1380 H 0.59322 0.76403 0.49928 0.0
H1381 H 0.59311 0.74917 0.46632 0.0
H1382 H 0.64935 0.76063 0.48377 0.0
H1383 H 0.65005 0.77751 0.51534 0.0
H1384 H 0.58847 0.79833 0.51744 0.0
H1385 H 0.58567 0.81593 0.48995 0.0
H1386 H 0.64213 0.83285 0.47751 0.0
H1387 H 0.6448 0.81521 0.50484 0.0
O1388 O 0.63199 0.84359 0.65741 0.0
O1389 O 0.65757 0.86639 0.64572 0.0
O1390 O 0.61473 0.68844 0.54172 0.0
O1391 O 0.64563 0.70491 0.55023 0.0
C1392 C 0.62204 0.80755 0.55056 0.0
C1393 C 0.62775 0.80196 0.568 0.0
C1394 C 0.63004 0.78576 0.56656 0.0
C1395 C 0.62644 0.77487 0.54774 0.0
C1396 C 0.62201 0.78118 0.52999 0.0
C1397 C 0.61972 0.79754 0.53146 0.0
C1398 C 0.62088 0.82543 0.55261 0.0
C1399 C 0.60764 0.82615 0.56421 0.0
C1400 C 0.61049 0.84396 0.57244 0.0
C1401 C 0.6265 0.86125 0.56895 0.0
C1402 C 0.63844 0.86046 0.55532 0.0
C1403 C 0.63571 0.84268 0.54729 0.0
C1404 C 0.63243 0.81385 0.58774 0.0
C1405 C 0.62028 0.80711 0.60276 0.0
C1406 C 0.62406 0.81882 0.62079 0.0
C1407 C 0.64008 0.83747 0.62408 0.0
C1408 C 0.65241 0.844 0.6091 0.0
C1409 C 0.64867 0.83223 0.59115 0.0
C1410 C 0.63867 0.78181 0.58429 0.0
C1411 C 0.62796 0.76628 0.59517 0.0
C1412 C 0.63677 0.76173 0.6106 0.0
C1413 C 0.65647 0.77248 0.61513 0.0
C1414 C 0.66695 0.78855 0.60464 0.0
C1415 C 0.65811 0.79323 0.58948 0.0
C1416 C 0.6273 0.7568 0.54667 0.0
C1417 C 0.61075 0.73882 0.54211 0.0
C1418 C 0.61131 0.72171 0.5417 0.0
C1419 C 0.62848 0.7223 0.54585 0.0
C1420 C 0.64507 0.74038 0.55015 0.0
C1421 C 0.6445 0.75746 0.55048 0.0
C1422 C 0.62156 0.7717 0.50991 0.0
C1423 C 0.6056 0.76356 0.49579 0.0
C1424 C 0.60549 0.75477 0.477 0.0
C1425 C 0.62118 0.75343 0.47212 0.0
C1426 C 0.63709 0.7616 0.48649 0.0
C1427 C 0.6374 0.77095 0.50489 0.0
C1428 C 0.61684 0.80554 0.5131 0.0
C1429 C 0.60004 0.80547 0.50845 0.0
C1430 C 0.59843 0.81542 0.49274 0.0
C1431 C 0.61371 0.82574 0.48171 0.0
C1432 C 0.63018 0.82502 0.48584 0.0
C1433 C 0.6317 0.81493 0.50136 0.0
C1434 C 0.64381 0.85007 0.64302 0.0
C1435 C 0.62912 0.70416 0.54577 0.0
H1436 H 0.16773 0.84821 0.70374 0.0
H1437 H 0.03844 0.67904 0.55078 0.0
H1438 H 0.16218 0.84803 0.59489 0.0
H1439 H 0.19104 0.87791 0.6081 0.0
H1440 H 0.22348 0.85125 0.59276 0.0
H1441 H 0.19437 0.82116 0.58014 0.0
H1442 H 0.13301 0.82067 0.62057 0.0
H1443 H 0.14359 0.83377 0.65595 0.0
H1444 H 0.18671 0.81843 0.6548 0.0
H1445 H 0.17583 0.80517 0.61948 0.0
H1446 H 0.09745 0.78588 0.59698 0.0
H1447 H 0.07821 0.77306 0.62458 0.0
H1448 H 0.1153 0.7537 0.64752 0.0
H1449 H 0.1347 0.76704 0.62004 0.0
H1450 H 0.09269 0.77442 0.54903 0.0
H1451 H 0.06259 0.74451 0.5396 0.0
H1452 H 0.08404 0.71266 0.57035 0.0
H1453 H 0.11413 0.74263 0.57947 0.0
H1454 H 0.12664 0.80402 0.52432 0.0
H1455 H 0.11462 0.78959 0.4894 0.0
H1456 H 0.11687 0.73903 0.50324 0.0
H1457 H 0.12981 0.75391 0.53793 0.0
H1458 H 0.15802 0.83933 0.5473 0.0
H1459 H 0.17681 0.85637 0.52074 0.0
H1460 H 0.19273 0.81291 0.5122 0.0
H1461 H 0.1733 0.79565 0.53834 0.0
O1462 O 0.16374 0.8429 0.68975 0.0
O1463 O 0.18574 0.83483 0.68832 0.0
O1464 O 0.03986 0.70811 0.53865 0.0
O1465 O 0.05019 0.69108 0.55431 0.0
C1466 C 0.15846 0.81372 0.58092 0.0
C1467 C 0.14718 0.80394 0.59603 0.0
C1468 C 0.12983 0.78665 0.59073 0.0
C1469 C 0.12394 0.7788 0.57035 0.0
C1470 C 0.13543 0.78833 0.5552 0.0
C1471 C 0.15262 0.8059 0.56053 0.0
C1472 C 0.1762 0.83243 0.58664 0.0
C1473 C 0.17555 0.84873 0.59422 0.0
C1474 C 0.19207 0.86581 0.60166 0.0
C1475 C 0.20958 0.86695 0.60158 0.0
C1476 C 0.2102 0.85076 0.59332 0.0
C1477 C 0.19363 0.83363 0.58592 0.0
C1478 C 0.15361 0.81191 0.61752 0.0
C1479 C 0.14467 0.82006 0.62803 0.0
C1480 C 0.15078 0.82758 0.64822 0.0
C1481 C 0.16599 0.82714 0.65822 0.0
C1482 C 0.17495 0.81899 0.64756 0.0
C1483 C 0.16878 0.81143 0.6274 0.0
C1484 C 0.11742 0.77735 0.60654 0.0
C1485 C 0.10127 0.77868 0.60786 0.0
C1486 C 0.09029 0.7713 0.62362 0.0
C1487 C 0.09524 0.76239 0.63831 0.0
C1488 C 0.11126 0.76075 0.63665 0.0
C1489 C 0.12227 0.7682 0.6209 0.0
C1490 C 0.10558 0.76067 0.5649 0.0
C1491 C 0.09086 0.76095 0.55367 0.0
C1492 C 0.07368 0.74386 0.54833 0.0
C1493 C 0.07091 0.72618 0.55422 0.0
C1494 C 0.08569 0.72601 0.56557 0.0
C1495 C 0.10288 0.74311 0.57085 0.0
C1496 C 0.12918 0.78007 0.53371 0.0
C1497 C 0.125 0.79005 0.51972 0.0
C1498 C 0.1181 0.7818 0.49982 0.0
C1499 C 0.11485 0.76324 0.49373 0.0
C1500 C 0.11924 0.75335 0.50765 0.0
C1501 C 0.12657 0.7618 0.52741 0.0
C1502 C 0.16438 0.81633 0.54472 0.0
C1503 C 0.1656 0.83355 0.53967 0.0
C1504 C 0.1764 0.84327 0.52454 0.0
C1505 C 0.18633 0.83603 0.51433 0.0
C1506 C 0.18504 0.81873 0.51951 0.0
C1507 C 0.1741 0.80893 0.53454 0.0
C1508 C 0.17247 0.83516 0.67965 0.0
C1509 C 0.0527 0.70797 0.54856 0.0
H1510 H 0.21369 0.39213 0.72176 0.0
H1511 H 0.0482 0.34 0.56486 0.0
H1512 H 0.21755 0.39564 0.61056 0.0
H1513 H 0.24413 0.39437 0.62688 0.0
H1514 H 0.21183 0.33181 0.61704 0.0
H1515 H 0.18597 0.33346 0.59974 0.0
H1516 H 0.18837 0.3978 0.64022 0.0
H1517 H 0.20064 0.40116 0.67541 0.0
H1518 H 0.1826 0.34023 0.66991 0.0
H1519 H 0.17026 0.33708 0.6348 0.0
H1520 H 0.14775 0.39275 0.62242 0.0
H1521 H 0.12587 0.39045 0.64671 0.0
H1522 H 0.11229 0.33191 0.65392 0.0
H1523 H 0.13402 0.3343 0.62954 0.0
H1524 H 0.14194 0.39029 0.57323 0.0
H1525 H 0.11184 0.38813 0.5638 0.0
H1526 H 0.08264 0.33012 0.58141 0.0
H1527 H 0.11283 0.3324 0.59054 0.0
H1528 H 0.16815 0.38836 0.54484 0.0
H1529 H 0.15162 0.38302 0.51113 0.0
H1530 H 0.11473 0.32304 0.51961 0.0
H1531 H 0.13114 0.32855 0.55313 0.0
H1532 H 0.20709 0.39525 0.56809 0.0
H1533 H 0.22458 0.39734 0.53924 0.0
H1534 H 0.1881 0.3359 0.52235 0.0
H1535 H 0.1709 0.33394 0.55146 0.0
O1536 O 0.20861 0.39045 0.70788 0.0
O1537 O 0.19911 0.35907 0.70425 0.0
O1538 O 0.07597 0.37105 0.55947 0.0
O1539 O 0.06029 0.34124 0.56846 0.0
C1540 C 0.18254 0.36508 0.59827 0.0
C1541 C 0.17166 0.36546 0.61356 0.0
C1542 C 0.15436 0.36439 0.60845 0.0
C1543 C 0.14784 0.36286 0.58806 0.0
C1544 C 0.15865 0.36238 0.57276 0.0
C1545 C 0.17614 0.3638 0.57789 0.0
C1546 C 0.19991 0.36465 0.60393 0.0
C1547 C 0.21656 0.38174 0.61134 0.0
C1548 C 0.2316 0.38092 0.62095 0.0
C1549 C 0.2301 0.36296 0.6237 0.0
C1550 C 0.21372 0.34593 0.61509 0.0
C1551 C 0.19885 0.3468 0.60518 0.0
C1552 C 0.17853 0.36723 0.63502 0.0
C1553 C 0.18703 0.3852 0.6467 0.0
C1554 C 0.19405 0.38708 0.66676 0.0
C1555 C 0.19265 0.37098 0.67546 0.0
C1556 C 0.18394 0.35293 0.66367 0.0
C1557 C 0.17691 0.35108 0.64363 0.0
C1558 C 0.14246 0.36371 0.62435 0.0
C1559 C 0.14017 0.37954 0.62944 0.0
C1560 C 0.12773 0.3782 0.64329 0.0
C1561 C 0.11732 0.36096 0.65208 0.0
C1562 C 0.11995 0.34528 0.64717 0.0
C1563 C 0.13246 0.34667 0.63345 0.0
C1564 C 0.12953 0.36154 0.58264 0.0
C1565 C 0.12901 0.37714 0.57502 0.0
C1566 C 0.11181 0.37586 0.56966 0.0
C1567 C 0.09482 0.35895 0.57188 0.0
C1568 C 0.09544 0.34336 0.57954 0.0
C1569 C 0.11266 0.34464 0.58483 0.0
C1570 C 0.15072 0.35885 0.5514 0.0
C1571 C 0.15672 0.37402 0.53919 0.0
C1572 C 0.14729 0.37094 0.51999 0.0
C1573 C 0.13171 0.35268 0.51288 0.0
C1574 C 0.12645 0.33735 0.52483 0.0
C1575 C 0.13586 0.34042 0.5439 0.0
C1576 C 0.18783 0.36444 0.56183 0.0
C1577 C 0.2031 0.38222 0.55831 0.0
C1578 C 0.21291 0.38341 0.54173 0.0
C1579 C 0.20759 0.36681 0.52845 0.0
C1580 C 0.19259 0.3489 0.5324 0.0
C1581 C 0.18276 0.34774 0.54897 0.0
C1582 C 0.20028 0.37305 0.69671 0.0
C1583 C 0.07651 0.35752 0.56621 0.0
H1584 H 0.98936 0.40048 0.02793 0.0
H1585 H 0.98765 0.35224 0.0553 0.0
H1586 H 0.97872 0.3621 0.08656 0.0
H1587 H 0.01178 0.43369 0.07083 0.0
H1588 H -0.00019 0.44695 0.06693 0.0
H1589 H 0.00306 0.43444 0.04574 0.0
H1590 H 0.96717 0.41551 0.03507 0.0
H1591 H 0.9638 0.42802 0.05625 0.0
H1592 H 0.95134 0.40195 0.05288 0.0
H1593 H 0.972 0.37827 0.11533 0.0
H1594 H 0.97067 0.40109 0.1407 0.0
H1595 H 0.97898 0.44024 0.09549 0.0
C1596 C 0.98657 0.39173 0.04035 0.0
C1597 C 0.98878 0.37539 0.03919 0.0
C1598 C 0.98579 0.36467 0.05592 0.0
C1599 C 0.98066 0.37013 0.07366 0.0
C1600 C 0.97887 0.3865 0.07447 0.0
C1601 C 0.9819 0.39726 0.05833 0.0
C1602 C 0.9812 0.41545 0.06388 0.0
C1603 C 8e-05 0.4337 0.06172 0.0
C1604 C 0.9649 0.41521 0.05127 0.0
C1605 C 0.9776 0.4134 0.08574 0.0
C1606 C 0.97591 0.39639 0.09141 0.0
C1607 C 0.9731 0.39153 0.11102 0.0
C1608 C 0.97226 0.40452 0.12528 0.0
C1609 C 0.97451 0.42229 0.11994 0.0
C1610 C 0.97706 0.42667 0.09988 0.0
H1611 H 0.61986 0.57435 0.12886 0.0
H1612 H 0.58641 0.5964 0.10189 0.0
H1613 H 0.55771 0.56901 0.11207 0.0
H1614 H 0.58383 0.5215 0.11846 0.0
H1615 H 0.59031 0.51639 0.14253 0.0
H1616 H 0.60773 0.5357 0.13006 0.0
H1617 H 0.61554 0.55977 0.16174 0.0
H1618 H 0.59814 0.5406 0.17424 0.0
H1619 H 0.59697 0.56218 0.17167 0.0
H1620 H 0.53347 0.54171 0.12813 0.0
H1621 H 0.5152 0.51689 0.15023 0.0
H1622 H 0.56439 0.51308 0.16837 0.0
C1623 C 0.60638 0.57299 0.12459 0.0
C1624 C 0.60519 0.58729 0.11449 0.0
C1625 C 0.58751 0.58555 0.10967 0.0
C1626 C 0.57115 0.56998 0.11525 0.0
C1627 C 0.57279 0.55636 0.12574 0.0
C1628 C 0.58994 0.55768 0.1304 0.0
C1629 C 0.58809 0.54244 0.14383 0.0
C1630 C 0.59276 0.52816 0.13307 0.0
C1631 C 0.60041 0.55181 0.16407 0.0
C1632 C 0.56737 0.53278 0.14651 0.0
C1633 C 0.55877 0.54081 0.13561 0.0
C1634 C 0.53998 0.53516 0.13657 0.0
C1635 C 0.52977 0.52118 0.14928 0.0
C1636 C 0.53841 0.51314 0.16106 0.0
C1637 C 0.55735 0.51876 0.1593 0.0
H1638 H 0.39899 0.00315 0.06656 0.0
H1639 H 0.44984 0.04525 0.04301 0.0
H1640 H 0.4684 0.04827 0.07479 0.0
H1641 H 0.41165 0.02666 0.11738 0.0
H1642 H 0.40106 0.00428 0.1287 0.0
H1643 H 0.39183 0.00522 0.10398 0.0
H1644 H 0.39615 0.97712 0.08982 0.0
H1645 H 0.40546 0.97613 0.11448 0.0
H1646 H 0.41896 0.97937 0.09345 0.0
H1647 H 0.48153 0.04595 0.10871 0.0
H1648 H 0.48816 0.03984 0.14301 0.0
H1649 H 0.42847 0.00073 0.14522 0.0
C1650 C 0.41404 0.01298 0.06804 0.0
C1651 C 0.42297 0.02391 0.05223 0.0
C1652 C 0.44267 0.03676 0.0549 0.0
C1653 C 0.45334 0.03853 0.07288 0.0
C1654 C 0.4441 0.02751 0.08812 0.0
C1655 C 0.42487 0.01511 0.08596 0.0
C1656 C 0.41833 0.00522 0.10482 0.0
C1657 C 0.40493 0.01068 0.11427 0.0
C1658 C 0.40919 0.98315 0.10037 0.0
C1659 C 0.43691 0.01391 0.11787 0.0
C1660 C 0.4516 0.02664 0.10791 0.0
C1661 C 0.47012 0.03617 0.11675 0.0
C1662 C 0.47372 0.0327 0.13634 0.0
C1663 C 0.45886 0.01994 0.14704 0.0
C1664 C 0.44022 0.01043 0.13751 0.0
H1665 H 0.41232 0.97632 0.96907 0.0
H1666 H 0.3991 0.0187 0.94829 0.0
H1667 H 0.41717 0.02226 0.91957 0.0
H1668 H 0.4602 0.00123 0.95644 0.0
H1669 H 0.46035 0.97944 0.94861 0.0
H1670 H 0.4455 0.97921 0.96728 0.0
H1671 H 0.41652 0.95105 0.94546 0.0
H1672 H 0.43128 0.95128 0.92666 0.0
H1673 H 0.41132 0.95387 0.91976 0.0
H1674 H 0.43554 0.02101 0.89287 0.0
H1675 H 0.45659 0.0176 0.8709 0.0
H1676 H 0.46085 0.97816 0.90954 0.0
C1677 C 0.41323 0.98627 0.95841 0.0
C1678 C 0.40428 0.9972 0.96089 0.0
C1679 C 0.40593 0.01025 0.94678 0.0
C1680 C 0.41606 0.01231 0.93031 0.0
C1681 C 0.42471 0.0014 0.92822 0.0
C1682 C 0.42371 0.98884 0.94194 0.0
C1683 C 0.43533 0.97975 0.93645 0.0
C1684 C 0.45129 0.98524 0.95319 0.0
C1685 C 0.42286 0.95767 0.93181 0.0
C1686 C 0.44291 0.98922 0.91757 0.0
C1687 C 0.43632 0.00143 0.91306 0.0
C1688 C 0.44103 0.01169 0.89635 0.0
C1689 C 0.45314 0.00977 0.88404 0.0
C1690 C 0.46074 0.99793 0.88865 0.0
C1691 C 0.45528 0.9873 0.90554 0.0
H1692 H 0.01939 0.39495 0.95626 0.0
H1693 H 0.06003 0.42966 0.00757 0.0
H1694 H 0.06267 0.45923 0.99513 0.0
H1695 H 0.04032 0.42818 0.91992 0.0
H1696 H 0.0181 0.42265 0.90713 0.0
H1697 H 0.01987 0.40454 0.92003 0.0
H1698 H 0.99313 0.40062 0.94103 0.0
H1699 H 0.99132 0.41878 0.92825 0.0
H1700 H 0.99533 0.42156 0.95535 0.0
H1701 H 0.06073 0.48505 0.97657 0.0
H1702 H 0.05437 0.50468 0.95371 0.0
H1703 H 0.01425 0.45234 0.91559 0.0
C1704 C 0.02876 0.40871 0.96503 0.0
C1705 C 0.03939 0.40996 0.983 0.0
C1706 C 0.05174 0.42835 0.99376 0.0
C1707 C 0.05329 0.4452 0.98683 0.0
C1708 C 0.04236 0.44337 0.96917 0.0
C1709 C 0.03034 0.42554 0.95845 0.0
C1710 C 0.02001 0.4273 0.94001 0.0
C1711 C 0.02488 0.42025 0.92063 0.0
C1712 C 0.99868 0.41642 0.94125 0.0
C1713 C 0.02808 0.44894 0.94196 0.0
C1714 C 0.041 0.45802 0.95881 0.0
C1715 C 0.05059 0.47807 0.96338 0.0
C1716 C 0.04693 0.48909 0.95032 0.0
C1717 C 0.0337 0.48 0.93301 0.0
C1718 C 0.02416 0.45967 0.92892 0.0
H1719 H 0.58132 0.60662 0.04537 0.0
H1720 H 0.63973 0.64273 0.03532 0.0
H1721 H 0.63063 0.63594 0.99852 0.0
H1722 H 0.57062 0.57009 0.00528 0.0
H1723 H 0.54704 0.56506 0.99867 0.0
H1724 H 0.55791 0.574 0.02415 0.0
H1725 H 0.5518 0.60256 0.02289 0.0
H1726 H 0.5409 0.5937 0.99739 0.0
H1727 H 0.56029 0.61814 0.00315 0.0
H1728 H 0.6152 0.62519 0.9629 0.0
H1729 H 0.59478 0.60904 0.93083 0.0
H1730 H 0.54682 0.57814 0.964 0.0
C1731 C 0.59214 0.61332 0.0354 0.0
C1732 C 0.6112 0.62542 0.04314 0.0
C1733 C 0.62504 0.6335 0.02966 0.0
C1734 C 0.62 0.62978 0.00877 0.0
C1735 C 0.6011 0.61771 0.00162 0.0
C1736 C 0.58741 0.60942 0.01451 0.0
C1737 C 0.5683 0.59593 0.00295 0.0
C1738 C 0.56052 0.57503 0.00807 0.0
C1739 C 0.55451 0.60301 0.00683 0.0
C1740 C 0.57337 0.59794 0.98153 0.0
C1741 C 0.59233 0.61077 0.9811 0.0
C1742 C 0.60035 0.6151 0.96305 0.0
C1743 C 0.58871 0.60594 0.94497 0.0
C1744 C 0.56938 0.59248 0.94516 0.0
C1745 C 0.5616 0.58844 0.96362 0.0
H1746 H 0.02276 0.61718 0.03458 0.0
H1747 H 0.98804 0.6381 0.00784 0.0
H1748 H 0.9883 0.62352 0.97442 0.0
H1749 H 0.05107 0.6237 0.99225 0.0
H1750 H 0.05173 0.60191 0.99525 0.0
H1751 H 0.05023 0.61548 0.01682 0.0
H1752 H 0.02026 0.58474 0.02472 0.0
H1753 H 0.02158 0.57113 0.00312 0.0
H1754 H 0.0005 0.5721 0.00562 0.0
H1755 H 0.99015 0.60458 0.94445 0.0
H1756 H 0.99439 0.58339 0.91965 0.0
H1757 H 0.02795 0.57475 0.96567 0.0
C1758 C 0.01551 0.61905 0.02167 0.0
C1759 C 0.00541 0.62887 0.02389 0.0
C1760 C 0.9959 0.6307 0.00658 0.0
C1761 C 0.99597 0.62248 0.9875 0.0
C1762 C 0.00569 0.61254 0.98594 0.0
C1763 C 0.01542 0.61092 0.00252 0.0
C1764 C 0.02397 0.59867 0.99687 0.0
C1765 C 0.04553 0.61066 0.00051 0.0
C1766 C 0.0161 0.58059 0.00826 0.0
C1767 C 0.01725 0.59337 0.97459 0.0
C1768 C 0.00678 0.60159 0.9686 0.0
C1769 C 0.99842 0.59817 0.94893 0.0
C1770 C 0.00079 0.58601 0.93501 0.0
C1771 C 0.0114 0.57738 0.94081 0.0
C1772 C 0.01989 0.58129 0.96082 0.0
H1773 H 0.41481 0.42066 0.96119 0.0
H1774 H 0.37679 0.44283 0.96457 0.0
H1775 H 0.39887 0.47163 0.9488 0.0
H1776 H 0.45838 0.46862 0.97226 0.0
H1777 H 0.47095 0.46196 0.95555 0.0
H1778 H 0.45266 0.44378 0.96825 0.0
H1779 H 0.43578 0.42376 0.93386 0.0
H1780 H 0.4539 0.44192 0.92105 0.0
H1781 H 0.4297 0.43485 0.91444 0.0
H1782 H 0.4227 0.49519 0.92834 0.0
H1783 H 0.44826 0.51405 0.90812 0.0
H1784 H 0.4731 0.479 0.92222 0.0
C1785 C 0.41125 0.43168 0.95876 0.0
C1786 C 0.39409 0.42955 0.96386 0.0
C1787 C 0.38995 0.44432 0.96077 0.0
C1788 C 0.40236 0.46067 0.95181 0.0
C1789 C 0.41903 0.46219 0.94656 0.0
C1790 C 0.42371 0.44833 0.95032 0.0
C1791 C 0.44244 0.45339 0.94307 0.0
C1792 C 0.45697 0.45717 0.96085 0.0
C1793 C 0.44032 0.43754 0.92716 0.0
C1794 C 0.44717 0.47185 0.93389 0.0
C1795 C 0.43346 0.47662 0.93601 0.0
C1796 C 0.43385 0.49198 0.92712 0.0
C1797 C 0.44863 0.50276 0.91575 0.0
C1798 C 0.46313 0.4984 0.91359 0.0
C1799 C 0.46236 0.48283 0.92319 0.0
H1800 H 0.57999 0.97618 0.01066 0.0
H1801 H 0.62864 0.03435 0.0167 0.0
H1802 H 0.61775 0.03998 0.98422 0.0
H1803 H 0.57867 0.96651 0.95675 0.0
H1804 H 0.55338 0.95325 0.95247 0.0
H1805 H 0.56499 0.9535 0.97626 0.0
H1806 H 0.54618 0.96627 0.99487 0.0
H1807 H 0.53457 0.96612 0.97113 0.0
H1808 H 0.54708 0.98807 0.98815 0.0
H1809 H 0.60181 0.03981 0.95164 0.0
H1810 H 0.58193 0.03344 0.91993 0.0
H1811 H 0.54327 0.97552 0.93443 0.0
C1812 C 0.58839 0.99007 0.00512 0.0
C1813 C 0.60518 0.00481 0.01634 0.0
C1814 C 0.61573 0.0228 0.0085 0.0
C1815 C 0.60967 0.02618 0.99003 0.0
C1816 C 0.59304 0.01144 0.97948 0.0
C1817 C 0.58256 0.99372 0.98662 0.0
C1818 C 0.56518 0.98042 0.97215 0.0
C1819 C 0.56559 0.96235 0.96392 0.0
C1820 C 0.54719 0.9749 0.98218 0.0
C1821 C 0.56758 0.99352 0.95584 0.0
C1822 C 0.58374 0.01134 0.96046 0.0
C1823 C 0.58906 0.02594 0.94786 0.0
C1824 C 0.57758 0.02223 0.92997 0.0
C1825 C 0.56092 0.00407 0.92481 0.0
C1826 C 0.55592 0.98952 0.93796 0.0
H1827 H 0.60357 0.03895 0.1101 0.0
H1828 H 0.59253 0.97992 0.10371 0.0
H1829 H 0.56639 0.97015 0.12445 0.0
H1830 H 0.59621 0.0404 0.16086 0.0
H1831 H 0.58499 0.05461 0.15922 0.0
H1832 H 0.60152 0.0568 0.14184 0.0
H1833 H 0.57651 0.04844 0.11172 0.0
H1834 H 0.55993 0.04641 0.12902 0.0
H1835 H 0.554 0.02651 0.11032 0.0
H1836 H 0.54369 0.96724 0.14831 0.0
H1837 H 0.52492 0.97115 0.17326 0.0
H1838 H 0.55001 0.03191 0.16421 0.0
C1839 C 0.59539 0.02389 0.1127 0.0
C1840 C 0.59999 0.01016 0.10507 0.0
C1841 C 0.58917 0.99067 0.10914 0.0
C1842 C 0.57428 0.98495 0.12096 0.0
C1843 C 0.57037 0.99889 0.1286 0.0
C1844 C 0.58049 0.01793 0.12457 0.0
C1845 C 0.57403 0.0302 0.13567 0.0
C1846 C 0.59015 0.04646 0.15026 0.0
C1847 C 0.56561 0.03837 0.12079 0.0
C1848 C 0.55906 0.01516 0.14694 0.0
C1849 C 0.55711 0.99718 0.14249 0.0
C1850 C 0.54482 0.98115 0.15167 0.0
C1851 C 0.53415 0.98352 0.16576 0.0
C1852 C 0.5358 0.00179 0.17054 0.0
C1853 C 0.54844 0.01778 0.16092 0.0
H1854 H 0.99351 0.60459 0.08916 0.0
H1855 H 0.93644 0.59061 0.09574 0.0
H1856 H 0.93061 0.56119 0.11134 0.0
H1857 H 0.98241 0.55376 0.07829 0.0
H1858 H 0.00417 0.55888 0.0919 0.0
H1859 H 0.00297 0.57749 0.07935 0.0
H1860 H 0.01526 0.59999 0.11295 0.0
H1861 H 0.01636 0.58144 0.12562 0.0
H1862 H 0.0029 0.59173 0.13479 0.0
H1863 H 0.93289 0.5365 0.13089 0.0
H1864 H 0.94191 0.51685 0.15019 0.0
H1865 H 0.99673 0.54527 0.12791 0.0
C1866 C 0.97975 0.59524 0.09372 0.0
C1867 C 0.96547 0.5999 0.09153 0.0
C1868 C 0.94751 0.58717 0.09727 0.0
C1869 C 0.94411 0.57049 0.10616 0.0
C1870 C 0.95871 0.5666 0.10867 0.0
C1871 C 0.97605 0.57841 0.10223 0.0
C1872 C 0.9896 0.57146 0.10731 0.0
C1873 C 0.9951 0.56501 0.08807 0.0
C1874 C 0.00705 0.58709 0.12098 0.0
C1875 C 0.97745 0.5544 0.11847 0.0
C1876 C 0.95967 0.55177 0.11903 0.0
C1877 C 0.94658 0.53805 0.13006 0.0
C1878 C 0.95185 0.52683 0.14092 0.0
C1879 C 0.97004 0.52923 0.14057 0.0
C1880 C 0.98277 0.54302 0.12877 0.0
H1881 H 0.39174 0.3981 0.04561 0.0
H1882 H 0.42779 0.38282 0.01457 0.0
H1883 H 0.44783 0.39012 0.0465 0.0
H1884 H 0.4283 0.43816 0.07707 0.0
H1885 H 0.41534 0.43392 0.09868 0.0
H1886 H 0.40301 0.42619 0.07371 0.0
H1887 H 0.38331 0.39114 0.08299 0.0
H1888 H 0.3955 0.39879 0.10805 0.0
H1889 H 0.39511 0.37922 0.09289 0.0
H1890 H 0.46454 0.40003 0.08167 0.0
H1891 H 0.4769 0.41241 0.11739 0.0
H1892 H 0.43031 0.42177 0.12517 0.0
C1893 C 0.40369 0.39602 0.04556 0.0
C1894 C 0.40812 0.38979 0.02757 0.0
C1895 C 0.42409 0.38757 0.02814 0.0
C1896 C 0.43555 0.39164 0.04622 0.0
C1897 C 0.43092 0.398 0.0636 0.0
C1898 C 0.41538 0.40018 0.06343 0.0
C1899 C 0.41397 0.40803 0.08401 0.0
C1900 C 0.41523 0.42774 0.08331 0.0
C1901 C 0.3959 0.39342 0.09248 0.0
C1902 C 0.43124 0.41009 0.09572 0.0
C1903 C 0.44075 0.40408 0.08374 0.0
C1904 C 0.45717 0.40472 0.09123 0.0
C1905 C 0.46406 0.41171 0.11151 0.0
C1906 C 0.45461 0.41811 0.12399 0.0
C1907 C 0.43796 0.4172 0.11592 0.0
H1908 H 0.66651 0.72927 0.38044 0.0
H1909 H 0.61003 0.68697 0.35413 0.0
H1910 H 0.59711 0.69515 0.38308 0.0
H1911 H 0.65961 0.72288 0.4324 0.0
H1912 H 0.67394 0.7483 0.44105 0.0
H1913 H 0.6787 0.73853 0.41871 0.0
H1914 H 0.67578 0.76345 0.39832 0.0
H1915 H 0.67107 0.77333 0.42062 0.0
H1916 H 0.65472 0.76489 0.39816 0.0
H1917 H 0.59066 0.70684 0.41594 0.0
H1918 H 0.59076 0.72305 0.44837 0.0
H1919 H 0.6513 0.76085 0.45066 0.0
C1920 C 0.65144 0.72168 0.38089 0.0
C1921 C 0.63922 0.70735 0.36527 0.0
C1922 C 0.61957 0.69796 0.36605 0.0
C1923 C 0.61213 0.70248 0.38242 0.0
C1924 C 0.62455 0.71671 0.39762 0.0
C1925 C 0.64376 0.72639 0.39682 0.0
C1926 C 0.65398 0.74176 0.41456 0.0
C1927 C 0.66734 0.73761 0.42744 0.0
C1928 C 0.6645 0.76206 0.40749 0.0
C1929 C 0.63754 0.73901 0.42561 0.0
C1930 C 0.62072 0.72435 0.41575 0.0
C1931 C 0.60373 0.7186 0.42362 0.0
C1932 C 0.60394 0.7281 0.44205 0.0
C1933 C 0.62101 0.74352 0.45232 0.0
C1934 C 0.63796 0.74902 0.44367 0.0
H1935 H 0.26308 0.92933 0.46888 0.0
H1936 H 0.26374 0.89086 0.42088 0.0
H1937 H 0.23756 0.8629 0.43402 0.0
H1938 H 0.25626 0.89911 0.5067 0.0
H1939 H 0.24133 0.90538 0.51976 0.0
H1940 H 0.25847 0.92248 0.5052 0.0
H1941 H 0.23232 0.92486 0.48449 0.0
H1942 H 0.21508 0.9078 0.49907 0.0
H1943 H 0.21216 0.90313 0.47201 0.0
H1944 H 0.2126 0.83903 0.4537 0.0
H1945 H 0.19135 0.82105 0.47869 0.0
H1946 H 0.20867 0.87534 0.51468 0.0
C1947 C 0.25745 0.91508 0.46087 0.0
C1948 C 0.26529 0.91224 0.44377 0.0
C1949 C 0.25785 0.89333 0.43397 0.0
C1950 C 0.24297 0.87739 0.44129 0.0
C1951 C 0.2358 0.88065 0.45844 0.0
C1952 C 0.24281 0.89904 0.4681 0.0
C1953 C 0.23368 0.89855 0.48711 0.0
C1954 C 0.24831 0.90686 0.50579 0.0
C1955 C 0.22265 0.90922 0.48557 0.0
C1956 C 0.22064 0.87699 0.48682 0.0
C1957 C 0.22188 0.86691 0.47007 0.0
C1958 C 0.21148 0.84678 0.46686 0.0
C1959 C 0.19957 0.83669 0.48123 0.0
C1960 C 0.19833 0.84675 0.4987 0.0
C1961 C 0.20899 0.86719 0.50135 0.0
H1962 H 0.10954 0.35677 0.39544 0.0
H1963 H 0.05046 0.3232 0.40449 0.0
H1964 H 0.05915 0.32428 0.4405 0.0
H1965 H 0.12527 0.33396 0.42945 0.0
H1966 H 0.14695 0.35575 0.43883 0.0
H1967 H 0.1363 0.35323 0.41369 0.0
H1968 H 0.13609 0.38506 0.42187 0.0
H1969 H 0.14676 0.38768 0.44705 0.0
H1970 H 0.12496 0.38758 0.44324 0.0
H1971 H 0.07368 0.328 0.47506 0.0
H1972 H 0.09358 0.33404 0.50668 0.0
H1973 H 0.14351 0.36486 0.47602 0.0
C1974 C 0.09844 0.34978 0.40503 0.0
C1975 C 0.0793 0.3399 0.39705 0.0
C1976 C 0.06522 0.33081 0.41013 0.0
C1977 C 0.06999 0.33138 0.43067 0.0
C1978 C 0.08891 0.34107 0.438 0.0
C1979 C 0.10296 0.35013 0.42567 0.0
C1980 C 0.12221 0.35905 0.43749 0.0
C1981 C 0.13333 0.34995 0.42938 0.0
C1982 C 0.13315 0.38115 0.4374 0.0
C1983 C 0.11671 0.35342 0.4583 0.0
C1984 C 0.09741 0.34313 0.45818 0.0
C1985 C 0.08882 0.33603 0.47538 0.0
C1986 C 0.10024 0.33942 0.49322 0.0
C1987 C 0.12008 0.34975 0.49376 0.0
C1988 C 0.12839 0.35701 0.47607 0.0
H1989 H 0.08435 0.32941 0.30023 0.0
H1990 H 0.05668 0.27162 0.31908 0.0
H1991 H 0.07445 0.26271 0.29658 0.0
H1992 H 0.08224 0.31543 0.24968 0.0
H1993 H 0.10471 0.33575 0.24594 0.0
H1994 H 0.09159 0.33812 0.26523 0.0
H1995 H 0.11993 0.34899 0.2921 0.0
H1996 H 0.13324 0.34684 0.27284 0.0
H1997 H 0.13018 0.33393 0.29467 0.0
H1998 H 0.09368 0.25968 0.26968 0.0
H1999 H 0.11295 0.26301 0.24171 0.0
H2000 H 0.12647 0.32253 0.24034 0.0
C2001 C 0.08231 0.315 0.30008 0.0
C2002 C 0.06924 0.30125 0.31156 0.0
C2003 C 0.06674 0.28243 0.31053 0.0
C2004 C 0.07676 0.27725 0.29778 0.0
C2005 C 0.08919 0.29108 0.28626 0.0
C2006 C 0.09204 0.30961 0.28744 0.0
C2007 C 0.10516 0.32149 0.27266 0.0
C2008 C 0.09533 0.32807 0.25748 0.0
C2009 C 0.1232 0.33884 0.28373 0.0
C2010 C 0.10906 0.30669 0.26266 0.0
C2011 C 0.09988 0.28927 0.27075 0.0
C2012 C 0.10101 0.27331 0.26335 0.0
C2013 C 0.11185 0.27529 0.24735 0.0
C2014 C 0.12131 0.29306 0.23886 0.0
C2015 C 0.11979 0.30887 0.24672 0.0
H2016 H 0.7073 0.76067 0.31816 0.0
H2017 H 0.66782 0.713 0.27405 0.0
H2018 H 0.66856 0.736 0.25127 0.0
H2019 H 0.68828 0.79151 0.30943 0.0
H2020 H 0.71071 0.81365 0.31215 0.0
H2021 H 0.70778 0.79356 0.32524 0.0
H2022 H 0.73555 0.79416 0.3088 0.0
H2023 H 0.73858 0.81427 0.29567 0.0
H2024 H 0.73507 0.79256 0.28176 0.0
H2025 H 0.67266 0.76319 0.23334 0.0
H2026 H 0.68006 0.7941 0.22087 0.0
H2027 H 0.71684 0.82526 0.27582 0.0
C2028 C 0.69892 0.75515 0.30367 0.0
C2029 C 0.68738 0.73501 0.29799 0.0
C2030 C 0.67658 0.72833 0.2789 0.0
C2031 C 0.67695 0.74128 0.26575 0.0
C2032 C 0.68824 0.76095 0.27181 0.0
C2033 C 0.69907 0.76799 0.29023 0.0
C2034 C 0.70963 0.78998 0.29289 0.0
C2035 C 0.70375 0.79762 0.311 0.0
C2036 C 0.73098 0.79823 0.2949 0.0
C2037 C 0.70289 0.79403 0.27314 0.0
C2038 C 0.6906 0.77698 0.26127 0.0
C2039 C 0.68222 0.77668 0.24249 0.0
C2040 C 0.6864 0.79431 0.2356 0.0
C2041 C 0.6988 0.81205 0.24749 0.0
C2042 C 0.70732 0.8119 0.26644 0.0
H2043 H 0.26974 0.93034 0.36626 0.0
H2044 H 0.26131 0.97868 0.37996 0.0
H2045 H 0.24713 0.97423 0.34485 0.0
H2046 H 0.28006 0.93759 0.315 0.0
H2047 H 0.26694 0.91214 0.3062 0.0
H2048 H 0.27747 0.92001 0.33191 0.0
H2049 H 0.24502 0.89832 0.34445 0.0
H2050 H 0.23442 0.89035 0.31878 0.0
H2051 H 0.22544 0.90104 0.33604 0.0
H2052 H 0.23518 0.96507 0.30768 0.0
H2053 H 0.22335 0.95021 0.27277 0.0
H2054 H 0.23556 0.90492 0.28529 0.0
C2055 C 0.26508 0.94009 0.36174 0.0
C2056 C 0.26683 0.95505 0.37556 0.0
C2057 C 0.26015 0.96724 0.36943 0.0
C2058 C 0.25214 0.96483 0.34957 0.0
C2059 C 0.25057 0.94988 0.33626 0.0
C2060 C 0.25656 0.93752 0.34221 0.0
C2061 C 0.25214 0.92182 0.32547 0.0
C2062 C 0.27023 0.92297 0.31928 0.0
C2063 C 0.23844 0.90169 0.33155 0.0
C2064 C 0.24291 0.92738 0.30907 0.0
C2065 C 0.24237 0.94375 0.31546 0.0
C2066 C 0.23521 0.95203 0.30263 0.0
C2067 C 0.2283 0.94328 0.28278 0.0
C2068 C 0.22817 0.92609 0.27597 0.0
C2069 C 0.23557 0.91813 0.28956 0.0
H2070 H 0.68374 0.93299 0.37312 0.0
H2071 H 0.68708 0.98531 0.35475 0.0
H2072 H 0.69981 0.98134 0.32343 0.0
H2073 H 0.72524 0.93787 0.35206 0.0
H2074 H 0.71423 0.91241 0.34375 0.0
H2075 H 0.70712 0.92038 0.36552 0.0
H2076 H 0.6726 0.90191 0.34915 0.0
H2077 H 0.67959 0.89385 0.32739 0.0
H2078 H 0.66714 0.90676 0.32446 0.0
H2079 H 0.712 0.97148 0.29413 0.0
H2080 H 0.7192 0.9545 0.26709 0.0
H2081 H 0.70534 0.90722 0.30336 0.0
C2082 C 0.68743 0.94375 0.36262 0.0
C2083 C 0.68473 0.95962 0.36639 0.0
C2084 C 0.68917 0.97312 0.3521 0.0
C2085 C 0.69648 0.97103 0.33437 0.0
C2086 C 0.69894 0.95517 0.33106 0.0
C2087 C 0.69429 0.9416 0.34464 0.0
C2088 C 0.69672 0.92501 0.33672 0.0
C2089 C 0.71172 0.92386 0.35032 0.0
C2090 C 0.67789 0.90575 0.33428 0.0
C2091 C 0.7034 0.9313 0.31651 0.0
C2092 C 0.70494 0.94893 0.3137 0.0
C2093 C 0.71086 0.9577 0.29617 0.0
C2094 C 0.715 0.94803 0.28098 0.0
C2095 C 0.71289 0.92969 0.28332 0.0
C2096 C 0.70712 0.92129 0.30134 0.0
H2097 H 0.08902 0.76428 0.30218 0.0
H2098 H 0.0435 0.77627 0.29652 0.0
H2099 H 0.06328 0.80514 0.2795 0.0
H2100 H 0.1279 0.81653 0.31019 0.0
H2101 H 0.14303 0.81126 0.29623 0.0
H2102 H 0.1262 0.79328 0.31043 0.0
H2103 H 0.11233 0.76889 0.2782 0.0
H2104 H 0.12888 0.78681 0.26386 0.0
H2105 H 0.10405 0.77527 0.25605 0.0
H2106 H 0.08551 0.82833 0.25737 0.0
H2107 H 0.10983 0.84673 0.2356 0.0
H2108 H 0.14265 0.82231 0.25922 0.0
C2109 C 0.0834 0.77325 0.2978 0.0
C2110 C 0.06475 0.76806 0.30055 0.0
C2111 C 0.05784 0.78014 0.29468 0.0
C2112 C 0.06895 0.79651 0.28495 0.0
C2113 C 0.08707 0.80083 0.28176 0.0
C2114 C 0.09444 0.78985 0.2885 0.0
C2115 C 0.11396 0.79703 0.28234 0.0
C2116 C 0.12864 0.80501 0.3009 0.0
C2117 C 0.11484 0.78105 0.26934 0.0
C2118 C 0.11599 0.81307 0.27012 0.0
C2119 C 0.10037 0.81507 0.27 0.0
C2120 C 0.09813 0.82741 0.25793 0.0
C2121 C 0.1122 0.83795 0.24564 0.0
C2122 C 0.12853 0.83635 0.24564 0.0
C2123 C 0.13044 0.82394 0.25849 0.0
H2124 H 0.27002 0.33368 0.33922 0.0
H2125 H 0.22134 0.29521 0.36849 0.0
H2126 H 0.20152 0.28538 0.33604 0.0
H2127 H 0.24656 0.34965 0.30583 0.0
H2128 H 0.25961 0.35024 0.28504 0.0
H2129 H 0.27012 0.354 0.31051 0.0
H2130 H 0.27645 0.32591 0.30269 0.0
H2131 H 0.26596 0.32207 0.27717 0.0
H2132 H 0.25723 0.30237 0.29262 0.0
H2133 H 0.18674 0.28051 0.30071 0.0
H2134 H 0.17812 0.28073 0.26483 0.0
H2135 H 0.23659 0.3214 0.25831 0.0
C2136 C 0.2552 0.32317 0.33884 0.0
C2137 C 0.24727 0.31525 0.35647 0.0
C2138 C 0.2278 0.30148 0.35523 0.0
C2139 C 0.21639 0.29579 0.33686 0.0
C2140 C 0.22466 0.3039 0.31982 0.0
C2141 C 0.24362 0.31724 0.32061 0.0
C2142 C 0.24896 0.32383 0.3001 0.0
C2143 C 0.25677 0.34573 0.3004 0.0
C2144 C 0.26297 0.3182 0.29271 0.0
C2145 C 0.22999 0.31228 0.28771 0.0
C2146 C 0.21618 0.30085 0.29936 0.0
C2147 C 0.19747 0.28924 0.29137 0.0
C2148 C 0.19273 0.28937 0.27092 0.0
C2149 C 0.20667 0.30099 0.25865 0.0
C2150 C 0.22555 0.31247 0.26726 0.0
H2151 H 0.26143 0.33784 0.45197 0.0
H2152 H 0.27272 0.38842 0.42207 0.0
H2153 H 0.25371 0.39497 0.44487 0.0
H2154 H 0.21314 0.32319 0.46134 0.0
H2155 H 0.21568 0.3156 0.48553 0.0
H2156 H 0.22888 0.31412 0.46578 0.0
H2157 H 0.2598 0.33489 0.48944 0.0
H2158 H 0.24674 0.33655 0.5092 0.0
H2159 H 0.2653 0.35828 0.50097 0.0
H2160 H 0.2353 0.39718 0.47247 0.0
H2161 H 0.2182 0.39441 0.50222 0.0
H2162 H 0.21936 0.3425 0.51395 0.0
C2163 C 0.25963 0.35009 0.44991 0.0
C2164 C 0.26845 0.36255 0.43515 0.0
C2165 C 0.26601 0.37862 0.43323 0.0
C2166 C 0.25524 0.38246 0.44609 0.0
C2167 C 0.24699 0.37003 0.46071 0.0
C2168 C 0.24897 0.3541 0.46259 0.0
C2169 C 0.23943 0.3435 0.48009 0.0
C2170 C 0.22332 0.32288 0.47274 0.0
C2171 C 0.25367 0.34331 0.49585 0.0
C2172 C 0.23203 0.35614 0.48801 0.0
C2173 C 0.23645 0.37132 0.47659 0.0
C2174 C 0.23166 0.38528 0.48145 0.0
C2175 C 0.22209 0.38368 0.49844 0.0
C2176 C 0.21748 0.36824 0.51037 0.0
C2177 C 0.22246 0.35429 0.50495 0.0
H2178 H 0.64971 0.92882 0.44484 0.0
H2179 H 0.60278 0.90322 0.39797 0.0
H2180 H 0.59255 0.87089 0.4093 0.0
H2181 H 0.66011 0.8901 0.44039 0.0
H2182 H 0.66671 0.89271 0.46707 0.0
H2183 H 0.67005 0.9134 0.45489 0.0
H2184 H 0.65037 0.91931 0.48002 0.0
H2185 H 0.64688 0.8986 0.4922 0.0
H2186 H 0.62689 0.90011 0.48252 0.0
H2187 H 0.58676 0.8415 0.42781 0.0
H2188 H 0.58715 0.81805 0.4501 0.0
H2189 H 0.63929 0.8638 0.48255 0.0
C2190 C 0.63753 0.91649 0.43655 0.0
C2191 C 0.62722 0.91858 0.42031 0.0
C2192 C 0.61098 0.90195 0.41039 0.0
C2193 C 0.60508 0.88355 0.41672 0.0
C2194 C 0.61571 0.88209 0.43282 0.0
C2195 C 0.63171 0.89817 0.44241 0.0
C2196 C 0.64079 0.89307 0.45933 0.0
C2197 C 0.66059 0.89758 0.45516 0.0
C2198 C 0.64125 0.90338 0.47971 0.0
C2199 C 0.62732 0.87157 0.45803 0.0
C2200 C 0.61283 0.8654 0.44278 0.0
C2201 C 0.5982 0.84616 0.43958 0.0
C2202 C 0.59848 0.83298 0.45229 0.0
C2203 C 0.61342 0.83913 0.46772 0.0
C2204 C 0.62796 0.85864 0.47052 0.0
H2205 H 0.09791 0.75465 0.37359 0.0
H2206 H 0.04467 0.70248 0.37743 0.0
H2207 H 0.05261 0.70503 0.41412 0.0
H2208 H 0.12608 0.74759 0.41277 0.0
H2209 H 0.13913 0.7728 0.42255 0.0
H2210 H 0.13016 0.76591 0.3963 0.0
H2211 H 0.11272 0.78501 0.39985 0.0
H2212 H 0.12164 0.79194 0.42608 0.0
H2213 H 0.09669 0.77971 0.41874 0.0
H2214 H 0.06606 0.71328 0.45024 0.0
H2215 H 0.08282 0.72849 0.48412 0.0
H2216 H 0.12618 0.77675 0.4575 0.0
C2217 C 0.08811 0.74364 0.38217 0.0
C2218 C 0.07079 0.72823 0.37275 0.0
C2219 C 0.05803 0.71435 0.38444 0.0
C2220 C 0.06245 0.71563 0.40523 0.0
C2221 C 0.07956 0.73107 0.41415 0.0
C2222 C 0.0921 0.74498 0.40308 0.0
C2223 C 0.10881 0.76093 0.41665 0.0
C2224 C 0.12713 0.76185 0.41177 0.0
C2225 C 0.11003 0.78056 0.41524 0.0
C2226 C 0.10363 0.75385 0.43705 0.0
C2227 C 0.08686 0.73642 0.4352 0.0
C2228 C 0.0792 0.72693 0.45189 0.0
C2229 C 0.08881 0.73561 0.47103 0.0
C2230 C 0.10571 0.75372 0.47331 0.0
C2231 C 0.11323 0.76291 0.45609 0.0
H2232 H 0.31104 0.06218 0.70912 0.0
H2233 H 0.34566 0.0401 0.73338 0.0
H2234 H 0.34325 0.05091 0.76778 0.0
H2235 H 0.33094 0.10457 0.74316 0.0
H2236 H 0.30922 0.10428 0.74539 0.0
H2237 H 0.31235 0.0935 0.72267 0.0
H2238 H 0.28223 0.06103 0.72635 0.0
H2239 H 0.27896 0.07175 0.74906 0.0
H2240 H 0.28016 0.04998 0.7494 0.0
H2241 H 0.33866 0.06564 0.79933 0.0
H2242 H 0.33192 0.08309 0.8261 0.0
H2243 H 0.30058 0.09602 0.78154 0.0
C2244 C 0.31788 0.05933 0.72166 0.0
C2245 C 0.32849 0.0502 0.71849 0.0
C2246 C 0.33743 0.04702 0.73536 0.0
C2247 C 0.33613 0.05309 0.75499 0.0
C2248 C 0.32582 0.06229 0.75754 0.0
C2249 C 0.31679 0.06535 0.74136 0.0
C2250 C 0.3073 0.07635 0.74823 0.0
C2251 C 0.31545 0.09583 0.73934 0.0
C2252 C 0.28589 0.06404 0.74295 0.0
C2253 C 0.31264 0.07924 0.77077 0.0
C2254 C 0.32325 0.07092 0.7758 0.0
C2255 C 0.33032 0.07215 0.7956 0.0
C2256 C 0.32653 0.08222 0.81067 0.0
C2257 C 0.31582 0.09101 0.80589 0.0
C2258 C 0.30866 0.0893 0.78567 0.0
H2259 H 0.91969 0.24598 0.7711 0.0
H2260 H 0.96101 0.22866 0.7637 0.0
H2261 H 0.94217 0.19962 0.78092 0.0
H2262 H 0.91062 0.23365 0.81891 0.0
H2263 H 0.8857 0.22449 0.81527 0.0
H2264 H 0.90108 0.24245 0.80013 0.0
H2265 H 0.88188 0.22001 0.7676 0.0
H2266 H 0.86625 0.20202 0.78265 0.0
H2267 H 0.87792 0.19576 0.76432 0.0
H2268 H 0.92166 0.17584 0.80393 0.0
H2269 H 0.89959 0.15739 0.82789 0.0
H2270 H 0.86984 0.18831 0.81711 0.0
C2271 C 0.92458 0.23589 0.77276 0.0
C2272 C 0.94182 0.23956 0.76621 0.0
C2273 C 0.94775 0.22599 0.76852 0.0
C2274 C 0.93717 0.2095 0.77831 0.0
C2275 C 0.9205 0.20661 0.7852 0.0
C2276 C 0.91401 0.2192 0.78211 0.0
C2277 C 0.8961 0.21328 0.7917 0.0
C2278 C 0.89853 0.22943 0.80743 0.0
C2279 C 0.87955 0.20741 0.7756 0.0
C2280 C 0.89402 0.19597 0.80153 0.0
C2281 C 0.90817 0.19229 0.79757 0.0
C2282 C 0.91018 0.17821 0.80666 0.0
C2283 C 0.89746 0.1677 0.82022 0.0
C2284 C 0.88277 0.1712 0.82449 0.0
C2285 C 0.88093 0.18529 0.81454 0.0
H2286 H 0.77307 0.69638 0.72497 0.0
H2287 H 0.71309 0.66674 0.72986 0.0
H2288 H 0.71933 0.66871 0.76667 0.0
H2289 H 0.78388 0.67255 0.76245 0.0
H2290 H 0.80609 0.69356 0.77213 0.0
H2291 H 0.79701 0.69072 0.74621 0.0
H2292 H 0.79944 0.72416 0.75141 0.0
H2293 H 0.80845 0.72706 0.77739 0.0
H2294 H 0.7879 0.72882 0.77114 0.0
H2295 H 0.73184 0.67377 0.80275 0.0
H2296 H 0.74979 0.67977 0.83578 0.0
H2297 H 0.80164 0.70468 0.80754 0.0
C2298 C 0.76126 0.69043 0.7338 0.0
C2299 C 0.74259 0.68148 0.72453 0.0
C2300 C 0.72751 0.67364 0.7366 0.0
C2301 C 0.7309 0.67476 0.75754 0.0
C2302 C 0.74944 0.68365 0.76619 0.0
C2303 C 0.76438 0.69122 0.75474 0.0
C2304 C 0.7829 0.69923 0.76777 0.0
C2305 C 0.79306 0.68836 0.76178 0.0
C2306 C 0.79541 0.72112 0.76687 0.0
C2307 C 0.776 0.6949 0.78832 0.0
C2308 C 0.75667 0.68607 0.78705 0.0
C2309 C 0.74698 0.68058 0.80393 0.0
C2310 C 0.75731 0.68393 0.82262 0.0
C2311 C 0.77713 0.69252 0.82428 0.0
C2312 C 0.78655 0.69826 0.80685 0.0
H2313 H 0.75648 0.6748 0.62832 0.0
H2314 H 0.73078 0.61722 0.6476 0.0
H2315 H 0.74974 0.60945 0.62587 0.0
H2316 H 0.75428 0.66077 0.5787 0.0
H2317 H 0.77622 0.68134 0.57408 0.0
H2318 H 0.76355 0.68364 0.59388 0.0
H2319 H 0.79274 0.6956 0.61985 0.0
H2320 H 0.80564 0.69358 0.60004 0.0
H2321 H 0.80372 0.68119 0.62209 0.0
H2322 H 0.76844 0.60675 0.59871 0.0
H2323 H 0.78558 0.60948 0.56902 0.0
H2324 H 0.79746 0.6684 0.56684 0.0
C2325 C 0.75526 0.66076 0.62854 0.0
C2326 C 0.74227 0.64666 0.63978 0.0
C2327 C 0.74078 0.62829 0.63923 0.0
C2328 C 0.75149 0.62377 0.62694 0.0
C2329 C 0.76364 0.6378 0.61542 0.0
C2330 C 0.76568 0.65599 0.61628 0.0
C2331 C 0.77806 0.66782 0.60093 0.0
C2332 C 0.76738 0.67372 0.58602 0.0
C2333 C 0.79611 0.6856 0.61135 0.0
C2334 C 0.78219 0.65324 0.5908 0.0
C2335 C 0.77402 0.63611 0.59953 0.0
C2336 C 0.77507 0.62018 0.59192 0.0
C2337 C 0.78467 0.6218 0.57492 0.0
C2338 C 0.7929 0.63917 0.56559 0.0
C2339 C 0.79171 0.65507 0.57384 0.0
H2340 H 0.34387 0.07085 0.62963 0.0
H2341 H 0.39597 0.1003 0.66946 0.0
H2342 H 0.40339 0.13127 0.65659 0.0
H2343 H 0.36176 0.09622 0.58814 0.0
H2344 H 0.34094 0.097 0.58028 0.0
H2345 H 0.33908 0.07759 0.59383 0.0
H2346 H 0.3222 0.08578 0.62075 0.0
H2347 H 0.32399 0.10524 0.60724 0.0
H2348 H 0.33326 0.11001 0.63337 0.0
H2349 H 0.4061 0.15857 0.63747 0.0
H2350 H 0.40376 0.17993 0.61383 0.0
H2351 H 0.34981 0.13234 0.58688 0.0
C2352 C 0.35668 0.08384 0.63596 0.0
C2353 C 0.36928 0.08317 0.65066 0.0
C2354 C 0.38607 0.10048 0.65824 0.0
C2355 C 0.39038 0.11814 0.65105 0.0
C2356 C 0.37772 0.11824 0.63638 0.0
C2357 C 0.36118 0.10154 0.62899 0.0
C2358 C 0.35038 0.10528 0.61255 0.0
C2359 C 0.34791 0.09332 0.59252 0.0
C2360 C 0.33133 0.10134 0.61886 0.0
C2361 C 0.36358 0.12665 0.61157 0.0
C2362 C 0.37924 0.13391 0.62549 0.0
C2363 C 0.39381 0.15308 0.62666 0.0
C2364 C 0.3924 0.16507 0.61314 0.0
C2365 C 0.37654 0.15783 0.59865 0.0
C2366 C 0.3619 0.13841 0.59808 0.0
H2367 H 0.93843 0.26432 0.6855 0.0
H2368 H 0.91119 0.29366 0.71078 0.0
H2369 H 0.89379 0.28871 0.67746 0.0
H2370 H 0.94248 0.28116 0.63603 0.0
H2371 H 0.93697 0.25828 0.62309 0.0
H2372 H 0.94824 0.26529 0.64856 0.0
H2373 H 0.92151 0.23355 0.65955 0.0
H2374 H 0.9102 0.22644 0.63413 0.0
H2375 H 0.89749 0.22772 0.6545 0.0
H2376 H 0.87974 0.28092 0.64127 0.0
H2377 H 0.86813 0.26877 0.60561 0.0
H2378 H 0.90209 0.24147 0.60491 0.0
C2379 C 0.92897 0.26991 0.68393 0.0
C2380 C 0.92628 0.27957 0.70061 0.0
C2381 C 0.91347 0.28627 0.69813 0.0
C2382 C 0.90359 0.28358 0.67928 0.0
C2383 C 0.90646 0.27389 0.66314 0.0
C2384 C 0.91867 0.26695 0.66532 0.0
C2385 C 0.91829 0.25595 0.64589 0.0
C2386 C 0.93765 0.26576 0.63793 0.0
C2387 C 0.91146 0.23465 0.64869 0.0
C2388 C 0.90402 0.25786 0.63244 0.0
C2389 C 0.89755 0.26845 0.6426 0.0
C2390 C 0.88455 0.27241 0.63322 0.0
C2391 C 0.87789 0.26524 0.61294 0.0
C2392 C 0.88395 0.2539 0.60225 0.0
C2393 C 0.89725 0.25026 0.61233 0.0
H2394 H 0.36439 0.28027 0.69963 0.0
H2395 H 0.32935 0.30269 0.67761 0.0
H2396 H 0.33026 0.29142 0.64277 0.0
H2397 H 0.39363 0.29226 0.65835 0.0
H2398 H 0.39492 0.27052 0.65812 0.0
H2399 H 0.39225 0.28117 0.68126 0.0
H2400 H 0.36238 0.24868 0.68552 0.0
H2401 H 0.36494 0.23794 0.6624 0.0
H2402 H 0.34331 0.2376 0.66554 0.0
H2403 H 0.3338 0.27644 0.61051 0.0
H2404 H 0.33997 0.25909 0.58303 0.0
H2405 H 0.37267 0.24642 0.62607 0.0
C2406 C 0.35703 0.28301 0.68751 0.0
C2407 C 0.3468 0.29241 0.69143 0.0
C2408 C 0.33729 0.29555 0.67505 0.0
C2409 C 0.33775 0.28921 0.65519 0.0
C2410 C 0.34781 0.27983 0.65193 0.0
C2411 C 0.35734 0.2768 0.66762 0.0
C2412 C 0.36666 0.26585 0.66009 0.0
C2413 C 0.38814 0.27819 0.66473 0.0
C2414 C 0.35885 0.24636 0.66891 0.0
C2415 C 0.36071 0.263 0.63771 0.0
C2416 C 0.34989 0.27122 0.63332 0.0
C2417 C 0.3423 0.27 0.61376 0.0
C2418 C 0.34579 0.26002 0.59828 0.0
C2419 C 0.35673 0.25136 0.60244 0.0
C2420 C 0.36442 0.25306 0.62242 0.0
H2421 H 0.73937 0.09936 0.63196 0.0
H2422 H 0.75481 0.05603 0.61802 0.0
H2423 H 0.78051 0.07896 0.60004 0.0
H2424 H 0.74557 0.11652 0.58492 0.0
H2425 H 0.75485 0.14157 0.59401 0.0
H2426 H 0.73929 0.12283 0.60834 0.0
H2427 H 0.76421 0.13798 0.63952 0.0
H2428 H 0.77983 0.15688 0.6253 0.0
H2429 H 0.78756 0.14227 0.63737 0.0
H2430 H 0.80248 0.10515 0.58098 0.0
H2431 H 0.819 0.13281 0.56143 0.0
H2432 H 0.78937 0.15939 0.58711 0.0
C2433 C 0.74846 0.09487 0.62556 0.0
C2434 C 0.74518 0.07593 0.62661 0.0
C2435 C 0.75706 0.07044 0.61758 0.0
C2436 C 0.77177 0.08342 0.60735 0.0
C2437 C 0.77439 0.10182 0.60622 0.0
C2438 C 0.7631 0.1076 0.61507 0.0
C2439 C 0.76788 0.1276 0.61008 0.0
C2440 C 0.75089 0.12708 0.59866 0.0
C2441 C 0.77531 0.14204 0.62921 0.0
C2442 C 0.78328 0.13191 0.59663 0.0
C2443 C 0.78697 0.11695 0.59486 0.0
C2444 C 0.79995 0.11712 0.5825 0.0
C2445 C 0.80934 0.13295 0.57153 0.0
C2446 C 0.80563 0.14837 0.57289 0.0
C2447 C 0.79253 0.14785 0.58578 0.0
H2448 H 0.89176 0.63525 0.67 0.0
H2449 H 0.9509 0.67691 0.66824 0.0
H2450 H 0.94459 0.67905 0.6323 0.0
H2451 H 0.8831 0.61054 0.61974 0.0
H2452 H 0.86009 0.60756 0.6148 0.0
H2453 H 0.86928 0.6085 0.64023 0.0
H2454 H 0.86415 0.63685 0.65125 0.0
H2455 H 0.85491 0.63597 0.62588 0.0
H2456 H 0.87443 0.65826 0.63827 0.0
H2457 H 0.93207 0.67691 0.59682 0.0
H2458 H 0.91385 0.67191 0.56425 0.0
H2459 H 0.86247 0.63289 0.5892 0.0
C2460 C 0.9034 0.64469 0.66201 0.0
C2461 C 0.92184 0.65585 0.67193 0.0
C2462 C 0.93665 0.66824 0.66099 0.0
C2463 C 0.93323 0.66951 0.64055 0.0
C2464 C 0.91491 0.65839 0.63126 0.0
C2465 C 0.90021 0.6463 0.64161 0.0
C2466 C 0.88172 0.63657 0.6282 0.0
C2467 C 0.87304 0.61448 0.62559 0.0
C2468 C 0.868 0.64226 0.63639 0.0
C2469 C 0.88834 0.64517 0.60874 0.0
C2470 C 0.90757 0.65758 0.61083 0.0
C2471 C 0.91699 0.66732 0.59502 0.0
C2472 C 0.90647 0.66449 0.57661 0.0
C2473 C 0.88667 0.65218 0.57417 0.0
C2474 C 0.87757 0.64227 0.59048 0.0
H2475 H 0.92359 0.70472 0.76642 0.0
H2476 H 0.89826 0.64227 0.75751 0.0
H2477 H 0.87439 0.63859 0.77952 0.0
H2478 H 0.9196 0.70801 0.81697 0.0
H2479 H 0.91381 0.72686 0.8177 0.0
H2480 H 0.92717 0.72499 0.7984 0.0
H2481 H 0.90264 0.72279 0.77077 0.0
H2482 H 0.88931 0.72498 0.79002 0.0
H2483 H 0.87822 0.7047 0.77075 0.0
H2484 H 0.8571 0.64148 0.80665 0.0
H2485 H 0.84518 0.65062 0.83532 0.0
H2486 H 0.87965 0.71126 0.82599 0.0
C2487 C 0.91263 0.69027 0.76855 0.0
C2488 C 0.91277 0.67377 0.76006 0.0
C2489 C 0.89845 0.65513 0.76364 0.0
C2490 C 0.88477 0.65286 0.77617 0.0
C2491 C 0.88545 0.66937 0.78495 0.0
C2492 C 0.89877 0.68773 0.7811 0.0
C2493 C 0.89718 0.70303 0.79387 0.0
C2494 C 0.91553 0.71651 0.80754 0.0
C2495 C 0.89149 0.71456 0.78055 0.0
C2496 C 0.88145 0.69036 0.80604 0.0
C2497 C 0.87486 0.67101 0.80049 0.0
C2498 C 0.86165 0.65655 0.81071 0.0
C2499 C 0.85485 0.66195 0.82699 0.0
C2500 C 0.86104 0.6817 0.83285 0.0
C2501 C 0.87449 0.69603 0.82203 0.0
H2502 H 0.33377 0.27509 0.78323 0.0
H2503 H 0.2822 0.24834 0.74266 0.0
H2504 H 0.27317 0.21665 0.7548 0.0
H2505 H 0.34241 0.23486 0.77882 0.0
H2506 H 0.35113 0.23866 0.80505 0.0
H2507 H 0.35398 0.25883 0.79215 0.0
H2508 H 0.33716 0.26716 0.81904 0.0
H2509 H 0.33429 0.24706 0.83201 0.0
H2510 H 0.31407 0.24887 0.82406 0.0
H2511 H 0.26924 0.18818 0.77272 0.0
H2512 H 0.27036 0.16553 0.79535 0.0
H2513 H 0.32437 0.21147 0.82431 0.0
C2514 C 0.32071 0.26254 0.77663 0.0
C2515 C 0.30875 0.26415 0.76186 0.0
C2516 C 0.2916 0.24742 0.75394 0.0
C2517 C 0.28639 0.22937 0.7607 0.0
C2518 C 0.29849 0.22833 0.77538 0.0
C2519 C 0.31529 0.2445 0.78324 0.0
C2520 C 0.32538 0.23981 0.79957 0.0
C2521 C 0.34435 0.24324 0.79353 0.0
C2522 C 0.32786 0.25141 0.81987 0.0
C2523 C 0.31154 0.21849 0.79987 0.0
C2524 C 0.29618 0.21208 0.78573 0.0
C2525 C 0.28125 0.19303 0.78376 0.0
C2526 C 0.28198 0.1803 0.79674 0.0
C2527 C 0.29749 0.18669 0.81154 0.0
C2528 C 0.3125 0.20601 0.81289 0.0
H2529 H 0.73155 0.05465 0.71375 0.0
H2530 H 0.76321 0.02849 0.69285 0.0
H2531 H 0.78169 0.03812 0.72618 0.0
H2532 H 0.76993 0.0956 0.74189 0.0
H2533 H 0.75686 0.09661 0.76201 0.0
H2534 H 0.74506 0.08639 0.73704 0.0
H2535 H 0.72163 0.05453 0.75088 0.0
H2536 H 0.73325 0.06472 0.77594 0.0
H2537 H 0.73048 0.04211 0.76544 0.0
H2538 H 0.79769 0.05186 0.76128 0.0
H2539 H 0.80996 0.06863 0.79572 0.0
H2540 H 0.76811 0.08609 0.7936 0.0
C2541 C 0.74216 0.05065 0.71625 0.0
C2542 C 0.74586 0.04072 0.70066 0.0
C2543 C 0.76008 0.03607 0.70452 0.0
C2544 C 0.77065 0.04146 0.72343 0.0
C2545 C 0.76687 0.05154 0.73832 0.0
C2546 C 0.75293 0.05605 0.73498 0.0
C2547 C 0.75222 0.06769 0.75326 0.0
C2548 C 0.75626 0.08776 0.74824 0.0
C2549 C 0.73327 0.05659 0.76189 0.0
C2550 C 0.76808 0.0692 0.7673 0.0
C2551 C 0.77626 0.05968 0.75845 0.0
C2552 C 0.79132 0.05925 0.76842 0.0
C2553 C 0.79815 0.06877 0.78798 0.0
C2554 C 0.79 0.07866 0.79734 0.0
C2555 C 0.77476 0.07883 0.78678 0.0
H2556 H 0.06378 0.32081 0.03208 0.0
H2557 H 0.04127 0.34828 0.07016 0.0
H2558 H 0.05385 0.34051 0.10033 0.0
H2559 H 0.05523 0.28188 0.06311 0.0
H2560 H 0.07675 0.28261 0.05829 0.0
H2561 H 0.0649 0.28918 0.03965 0.0
H2562 H 0.09527 0.32247 0.03944 0.0
H2563 H 0.10708 0.31574 0.05786 0.0
H2564 H 0.10647 0.33771 0.06284 0.0
H2565 H 0.07051 0.33136 0.12647 0.0
H2566 H 0.09035 0.32201 0.14634 0.0
H2567 H 0.10211 0.30097 0.09101 0.0
C2568 C 0.0613 0.32502 0.04674 0.0
C2569 C 0.05149 0.33513 0.04873 0.0
C2570 C 0.04872 0.34051 0.06823 0.0
C2571 C 0.05577 0.33611 0.08547 0.0
C2572 C 0.0655 0.32628 0.08297 0.0
C2573 C 0.06825 0.32079 0.06409 0.0
C2574 C 0.0799 0.31111 0.06551 0.0
C2575 C 0.06851 0.28994 0.05608 0.0
C2576 C 0.09827 0.32245 0.05584 0.0
C2577 C 0.08361 0.31239 0.08815 0.0
C2578 C 0.07506 0.32102 0.09798 0.0
C2579 C 0.07716 0.32446 0.11892 0.0
C2580 C 0.0885 0.31917 0.13008 0.0
C2581 C 0.09764 0.3106 0.12026 0.0
C2582 C 0.09493 0.30702 0.09902 0.0
H2583 H 0.63451 0.69701 0.1317 0.0
H2584 H 0.68042 0.70061 0.10043 0.0
H2585 H 0.6984 0.73592 0.10947 0.0
H2586 H 0.63921 0.74256 0.11847 0.0
H2587 H 0.63383 0.74834 0.1427 0.0
H2588 H 0.62404 0.72343 0.13274 0.0
H2589 H 0.63815 0.71718 0.16509 0.0
H2590 H 0.64811 0.74209 0.17508 0.0
H2591 H 0.66302 0.73186 0.17278 0.0
H2592 H 0.71203 0.77053 0.12303 0.0
H2593 H 0.71993 0.8025 0.1393 0.0
H2594 H 0.6656 0.77644 0.16251 0.0
C2595 C 0.64821 0.70525 0.12647 0.0
C2596 C 0.65602 0.69602 0.11531 0.0
C2597 C 0.67413 0.70733 0.10902 0.0
C2598 C 0.68448 0.72741 0.11407 0.0
C2599 C 0.67655 0.736 0.12544 0.0
C2600 C 0.65881 0.72533 0.1315 0.0
C2601 C 0.65385 0.73809 0.14417 0.0
C2602 C 0.63672 0.73811 0.1339 0.0
C2603 C 0.6506 0.73193 0.16555 0.0
C2604 C 0.67161 0.75754 0.14435 0.0
C2605 C 0.68451 0.756 0.13344 0.0
C2606 C 0.70204 0.77194 0.13161 0.0
C2607 C 0.70646 0.79 0.14106 0.0
C2608 C 0.69342 0.79197 0.15223 0.0
C2609 C 0.6758 0.77544 0.15391 0.0
H2610 H 0.3321 0.96904 0.05332 0.0
H2611 H 0.31429 0.91793 0.01146 0.0
H2612 H 0.28858 0.89869 0.03184 0.0
H2613 H 0.32182 0.94499 0.0989 0.0
H2614 H 0.31363 0.96003 0.11006 0.0
H2615 H 0.33116 0.96945 0.09271 0.0
H2616 H 0.31007 0.97801 0.07062 0.0
H2617 H 0.29242 0.96848 0.0878 0.0
H2618 H 0.28639 0.95934 0.06149 0.0
H2619 H 0.26436 0.88529 0.05626 0.0
H2620 H 0.24335 0.87859 0.08306 0.0
H2621 H 0.27676 0.93862 0.10859 0.0
C2622 C 0.32294 0.95375 0.04853 0.0
C2623 C 0.32525 0.94496 0.03083 0.0
C2624 C 0.31282 0.92496 0.02499 0.0
C2625 C 0.29818 0.91392 0.03646 0.0
C2626 C 0.29616 0.92312 0.05367 0.0
C2627 C 0.30821 0.94258 0.05971 0.0
C2628 C 0.30266 0.94912 0.07845 0.0
C2629 C 0.31825 0.95632 0.09607 0.0
C2630 C 0.29758 0.96465 0.07433 0.0
C2631 C 0.28551 0.93031 0.08197 0.0
C2632 C 0.28206 0.91548 0.06757 0.0
C2633 C 0.26698 0.89676 0.06767 0.0
C2634 C 0.25517 0.8931 0.08297 0.0
C2635 C 0.25848 0.90808 0.0979 0.0
C2636 C 0.27381 0.92693 0.09728 0.0
H2637 H 0.38275 0.07247 0.00339 0.0
H2638 H 0.33583 0.02091 0.02166 0.0
H2639 H 0.31585 0.03539 0.01726 0.0
H2640 H 0.36916 0.10865 0.02314 0.0
H2641 H 0.37688 0.12161 0.0014 0.0
H2642 H 0.38859 0.10963 0.01139 0.0
H2643 H 0.38252 0.09073 0.97627 0.0
H2644 H 0.37067 0.10243 0.96627 0.0
H2645 H 0.35878 0.07638 0.96423 0.0
H2646 H 0.2995 0.05248 0.00404 0.0
H2647 H 0.28875 0.07064 0.98405 0.0
H2648 H 0.34629 0.10971 0.97293 0.0
C2649 C 0.36849 0.06448 0.00729 0.0
C2650 C 0.3609 0.04554 0.01288 0.0
C2651 C 0.34205 0.0355 0.01748 0.0
C2652 C 0.33057 0.04364 0.01504 0.0
C2653 C 0.33821 0.06188 0.00821 0.0
C2654 C 0.35686 0.07228 0.00469 0.0
C2655 C 0.36109 0.09011 0.99454 0.0
C2656 C 0.37474 0.10859 0.00846 0.0
C2657 C 0.36869 0.08987 0.97413 0.0
C2658 C 0.34171 0.08757 0.99184 0.0
C2659 C 0.32874 0.07151 1.00023 0.0
C2660 C 0.30962 0.06532 0.9978 0.0
C2661 C 0.30362 0.07561 0.98624 0.0
C2662 C 0.31667 0.09174 0.97698 0.0
C2663 C 0.33597 0.0979 0.98029 0.0
H2664 H 0.95817 0.30544 0.95465 0.0
H2665 H 0.9908 0.29351 0.99869 0.0
H2666 H 0.96989 0.2584 0.98863 0.0
H2667 H 0.91317 0.26592 0.9615 0.0
H2668 H 0.90453 0.26147 0.93519 0.0
H2669 H 0.92219 0.28549 0.94588 0.0
H2670 H 0.94385 0.28658 0.919 0.0
H2671 H 0.92629 0.26251 0.90829 0.0
H2672 H 0.94974 0.26785 0.91635 0.0
H2673 H 0.94475 0.22431 0.97378 0.0
H2674 H 0.91725 0.19455 0.95628 0.0
H2675 H 0.90234 0.22959 0.9215 0.0
C2676 C 0.96097 0.29552 0.96229 0.0
C2677 C 0.97614 0.30229 0.97752 0.0
C2678 C 0.97926 0.2887 0.98699 0.0
C2679 C 0.96749 0.26873 0.98135 0.0
C2680 C 0.95274 0.26262 0.96616 0.0
C2681 C 0.94949 0.27566 0.9568 0.0
C2682 C 0.9327 0.26552 0.94101 0.0
C2683 C 0.91724 0.26986 0.94622 0.0
C2684 C 0.9385 0.27094 0.91992 0.0
C2685 C 0.92683 0.24468 0.94305 0.0
C2686 C 0.93856 0.24322 0.95755 0.0
C2687 C 0.93555 0.2253 0.96231 0.0
C2688 C 0.91998 0.20848 0.95219 0.0
C2689 C 0.90762 0.20972 0.93752 0.0
C2690 C 0.91138 0.22812 0.93277 0.0
H2691 H 0.68616 0.63078 0.03386 0.0
H2692 H 0.71015 0.67313 0.08671 0.0
H2693 H 0.73957 0.69125 0.07118 0.0
H2694 H 0.72876 0.63081 0.02463 0.0
H2695 H 0.72393 0.62827 0.99763 0.0
H2696 H 0.70482 0.6185 0.01305 0.0
H2697 H 0.69161 0.63832 0.99687 0.0
H2698 H 0.71072 0.64821 0.98147 0.0
H2699 H 0.70648 0.66417 0.99751 0.0
H2700 H 0.76611 0.70543 0.04938 0.0
H2701 H 0.78833 0.71345 0.02355 0.0
H2702 H 0.74708 0.66169 0.98537 0.0
C2703 C 0.69763 0.64379 0.04224 0.0
C2704 C 0.69583 0.65051 0.06151 0.0
C2705 C 0.71119 0.66764 0.07194 0.0
C2706 C 0.72796 0.67808 0.06324 0.0
C2707 C 0.7292 0.67117 0.04414 0.0
C2708 C 0.7145 0.65435 0.03382 0.0
C2709 C 0.71944 0.65006 0.0135 0.0
C2710 C 0.71923 0.63077 0.01214 0.0
C2711 C 0.70628 0.6502 0.99633 0.0
C2712 C 0.73919 0.66708 0.014 0.0
C2713 C 0.74455 0.67917 0.03174 0.0
C2714 C 0.7621 0.69603 0.03546 0.0
C2715 C 0.77458 0.70052 0.0207 0.0
C2716 C 0.76944 0.68812 0.00258 0.0
C2717 C 0.75147 0.67127 0.99923 0.0
H2718 H 0.94018 0.6454 0.99528 0.0
H2719 H 0.9606 0.69041 0.04551 0.0
H2720 H 0.94658 0.70655 0.02723 0.0
H2721 H 0.94738 0.67706 0.95548 0.0
H2722 H 0.92633 0.65925 0.93997 0.0
H2723 H 0.93884 0.65165 0.9565 0.0
H2724 H 0.90851 0.63093 0.97319 0.0
H2725 H 0.89592 0.63847 0.95674 0.0
H2726 H 0.89634 0.64222 0.98364 0.0
H2727 H 0.92852 0.71654 0.00491 0.0
H2728 H 0.90799 0.72014 0.97963 0.0
H2729 H 0.90026 0.66965 0.94281 0.0
C2730 C 0.94186 0.65874 0.00236 0.0
C2731 C 0.95151 0.66661 0.02186 0.0
C2732 C 0.9533 0.68407 0.0306 0.0
C2733 C 0.94541 0.69339 0.02032 0.0
C2734 C 0.93586 0.68518 0.00123 0.0
C2735 C 0.93412 0.66831 0.99225 0.0
C2736 C 0.92262 0.66227 0.97183 0.0
C2737 C 0.93451 0.66258 0.95494 0.0
C2738 C 0.90479 0.64229 0.97133 0.0
C2739 C 0.91789 0.67818 0.97095 0.0
C2740 C 0.92575 0.69126 0.98804 0.0
C2741 C 0.92261 0.70663 0.99125 0.0
C2742 C 0.91103 0.70865 0.97665 0.0
C2743 C 0.90275 0.69543 0.95892 0.0
C2744 C 0.90642 0.68008 0.95607 0.0
H2745 H 0.36137 0.32127 0.93347 0.0
H2746 H 0.32978 0.31445 0.98478 0.0
H2747 H 0.31182 0.27907 0.9755 0.0
H2748 H 0.32249 0.28456 0.89942 0.0
H2749 H 0.3365 0.27645 0.88718 0.0
H2750 H 0.34708 0.30122 0.89802 0.0
H2751 H 0.37206 0.29772 0.9197 0.0
H2752 H 0.36163 0.27299 0.90883 0.0
H2753 H 0.36452 0.27854 0.93578 0.0
H2754 H 0.29803 0.24437 0.96117 0.0
H2755 H 0.28948 0.21295 0.94301 0.0
H2756 H 0.32851 0.24276 0.89964 0.0
C2757 C 0.35078 0.31234 0.94285 0.0
C2758 C 0.34706 0.32062 0.95993 0.0
C2759 C 0.33288 0.30843 0.97164 0.0
C2760 C 0.32259 0.28833 0.96648 0.0
C2761 C 0.3265 0.28067 0.94944 0.0
C2762 C 0.34021 0.2923 0.93777 0.0
C2763 C 0.34154 0.28048 0.92011 0.0
C2764 C 0.3366 0.28601 0.9 0.0
C2765 C 0.3611 0.28256 0.92118 0.0
C2766 C 0.3266 0.26035 0.92382 0.0
C2767 C 0.3181 0.26076 0.9408 0.0
C2768 C 0.30441 0.24387 0.94769 0.0
C2769 C 0.29951 0.22607 0.93712 0.0
C2770 C 0.30816 0.22527 0.91972 0.0
C2771 C 0.32167 0.24276 0.91291 0.0
H2772 H 0.72007 0.06392 0.05653 0.0
H2773 H 0.67356 0.07023 0.03296 0.0
H2774 H 0.6906 0.08499 0.00419 0.0
H2775 H 0.75798 0.10963 0.03958 0.0
H2776 H 0.77175 0.09867 0.03371 0.0
H2777 H 0.75692 0.09085 0.05381 0.0
H2778 H 0.74046 0.05555 0.03687 0.0
H2779 H 0.75497 0.06327 0.01657 0.0
H2780 H 0.72975 0.05009 0.01122 0.0
H2781 H 0.71011 0.09415 0.97565 0.0
H2782 H 0.73267 0.10083 0.95082 0.0
H2783 H 0.76786 0.09104 0.99378 0.0
C2784 C 0.71369 0.0689 0.04563 0.0
C2785 C 0.69546 0.06588 0.04702 0.0
C2786 C 0.68752 0.07242 0.03229 0.0
C2787 C 0.69708 0.0808 0.01584 0.0
C2788 C 0.71468 0.08285 0.0145 0.0
C2789 C 0.72311 0.07747 0.02918 0.0
C2790 C 0.74175 0.08039 0.02355 0.0
C2791 C 0.75807 0.09581 0.03855 0.0
C2792 C 0.74171 0.06118 0.02196 0.0
C2793 C 0.74209 0.08756 0.00311 0.0
C2794 C 0.72635 0.08889 0.99822 0.0
C2795 C 0.72278 0.09373 0.97952 0.0
C2796 C 0.73578 0.0976 0.96553 0.0
C2797 C 0.75232 0.09682 0.97033 0.0
C2798 C 0.75541 0.09174 0.98947 0.0
H2799 H 0.64134 0.94974 0.06194 0.0
H2800 H 0.68825 0.00809 0.06173 0.0
H2801 H 0.71024 0.99672 0.06986 0.0
H2802 H 0.65594 0.94044 0.10323 0.0
H2803 H 0.6484 0.91533 0.09651 0.0
H2804 H 0.6367 0.92601 0.08392 0.0
H2805 H 0.64362 0.91615 0.04932 0.0
H2806 H 0.65515 0.90505 0.06182 0.0
H2807 H 0.66739 0.9231 0.04514 0.0
H2808 H 0.72615 0.9816 0.08738 0.0
H2809 H 0.73423 0.96378 0.11098 0.0
H2810 H 0.67735 0.91506 0.09943 0.0
C2811 C 0.65625 0.95997 0.06262 0.0
C2812 C 0.66301 0.97982 0.06135 0.0
C2813 C 0.68266 0.99279 0.06263 0.0
C2814 C 0.69531 0.98643 0.0672 0.0
C2815 C 0.68813 0.96701 0.07003 0.0
C2816 C 0.66901 0.95384 0.06729 0.0
C2817 C 0.66459 0.93465 0.07446 0.0
C2818 C 0.65061 0.9288 0.09048 0.0
C2819 C 0.65726 0.9188 0.05662 0.0
C2820 C 0.68392 0.93966 0.0834 0.0
C2821 C 0.69745 0.95816 0.08014 0.0
C2822 C 0.71583 0.96687 0.08944 0.0
C2823 C 0.72031 0.95666 0.10285 0.0
C2824 C 0.70638 0.93808 0.107 0.0
C2825 C 0.68825 0.92925 0.09646 0.0
H2826 H 0.05306 0.70112 0.11683 0.0
H2827 H 0.02532 0.7155 0.06954 0.0
H2828 H 0.04788 0.75032 0.07939 0.0
H2829 H 0.06126 0.73962 0.15336 0.0
H2830 H 0.08369 0.74369 0.16387 0.0
H2831 H 0.06592 0.71996 0.1525 0.0
H2832 H 0.08912 0.71958 0.12844 0.0
H2833 H 0.107 0.74325 0.13983 0.0
H2834 H 0.10045 0.73907 0.11301 0.0
H2835 H 0.07382 0.78365 0.09446 0.0
H2836 H 0.1008 0.81266 0.11343 0.0
H2837 H 0.1098 0.77609 0.15228 0.0
C2838 C 0.05184 0.71155 0.10835 0.0
C2839 C 0.03752 0.70558 0.09228 0.0
C2840 C 0.03622 0.71975 0.08185 0.0
C2841 C 0.04895 0.73954 0.08735 0.0
C2842 C 0.06276 0.74491 0.10343 0.0
C2843 C 0.06422 0.73131 0.1138 0.0
C2844 C 0.07992 0.74081 0.1309 0.0
C2845 C 0.07223 0.73572 0.15136 0.0
C2846 C 0.09501 0.73535 0.12785 0.0
C2847 C 0.0872 0.7619 0.12844 0.0
C2848 C 0.07717 0.76401 0.1125 0.0
C2849 C 0.08166 0.78217 0.10708 0.0
C2850 C 0.09693 0.7986 0.1181 0.0
C2851 C 0.10747 0.79678 0.13448 0.0
C2852 C 0.10226 0.7781 0.13975 0.0
H2853 H 0.31479 0.35489 0.03444 0.0
H2854 H 0.29336 0.38068 0.99316 0.0
H2855 H 0.26632 0.37153 0.01251 0.0
H2856 H 0.26956 0.31423 0.04191 0.0
H2857 H 0.27595 0.31453 0.06822 0.0
H2858 H 0.2937 0.3229 0.05106 0.0
H2859 H 0.31279 0.35578 0.07328 0.0
H2860 H 0.29514 0.34749 0.09054 0.0
H2861 H 0.30167 0.36955 0.07939 0.0
H2862 H 0.24208 0.3604 0.03641 0.0
H2863 H 0.22187 0.34779 0.06376 0.0
H2864 H 0.25853 0.32882 0.08955 0.0
C2865 C 0.3044 0.3586 0.02948 0.0
C2866 C 0.3062 0.36852 0.01228 0.0
C2867 C 0.29229 0.37308 0.00626 0.0
C2868 C 0.27686 0.36794 0.01714 0.0
C2869 C 0.27548 0.35816 0.03396 0.0
C2870 C 0.28883 0.3535 0.04013 0.0
C2871 C 0.28398 0.34306 0.05889 0.0
C2872 C 0.28059 0.32245 0.05476 0.0
C2873 C 0.29931 0.35467 0.07657 0.0
C2874 C 0.26592 0.34275 0.06234 0.0
C2875 C 0.2613 0.35153 0.04775 0.0
C2876 C 0.24551 0.35345 0.04791 0.0
C2877 C 0.23418 0.34633 0.06352 0.0
C2878 C 0.23869 0.33739 0.07873 0.0
C2879 C 0.25467 0.33542 0.07799 0.0
H2880 H 0.71847 0.6576 0.36055 0.0
H2881 H 0.70314 0.69182 0.3991 0.0
H2882 H 0.71945 0.68734 0.42868 0.0
H2883 H 0.71341 0.62316 0.39573 0.0
H2884 H 0.73328 0.62168 0.3884 0.0
H2885 H 0.71977 0.62694 0.37044 0.0
H2886 H 0.74999 0.65837 0.36419 0.0
H2887 H 0.76347 0.65296 0.38198 0.0
H2888 H 0.76439 0.67587 0.3853 0.0
H2889 H 0.73861 0.68006 0.45395 0.0
H2890 H 0.75921 0.67085 0.47257 0.0
H2891 H 0.762 0.64178 0.41714 0.0
C2892 C 0.71841 0.66406 0.37521 0.0
C2893 C 0.70948 0.67504 0.37749 0.0
C2894 C 0.70986 0.68333 0.39697 0.0
C2895 C 0.71906 0.68084 0.41387 0.0
C2896 C 0.72779 0.67 0.41105 0.0
C2897 C 0.72752 0.66175 0.39219 0.0
C2898 C 0.7384 0.65123 0.39308 0.0
C2899 C 0.72543 0.62946 0.38653 0.0
C2900 C 0.75505 0.66016 0.38039 0.0
C2901 C 0.74502 0.65503 0.41535 0.0
C2902 C 0.7387 0.66579 0.42552 0.0
C2903 C 0.74355 0.67154 0.44614 0.0
C2904 C 0.7553 0.66631 0.45658 0.0
C2905 C 0.76208 0.65544 0.44638 0.0
C2906 C 0.7567 0.64967 0.42551 0.0
H2907 H 0.30203 0.02531 0.45063 0.0
H2908 H 0.35217 0.02122 0.44775 0.0
H2909 H 0.37173 0.0556 0.4616 0.0
H2910 H 0.32299 0.07503 0.43687 0.0
H2911 H 0.30983 0.0809 0.4535 0.0
H2912 H 0.30013 0.05642 0.44214 0.0
H2913 H 0.29583 0.04448 0.47759 0.0
H2914 H 0.30577 0.06893 0.48906 0.0
H2915 H 0.31586 0.05461 0.49638 0.0
H2916 H 0.38545 0.0897 0.47889 0.0
H2917 H 0.39235 0.12136 0.49523 0.0
H2918 H 0.33319 0.10315 0.48461 0.0
C2919 C 0.31714 0.0317 0.45265 0.0
C2920 C 0.32557 0.02058 0.44817 0.0
C2921 C 0.34541 0.0295 0.45097 0.0
C2922 C 0.35663 0.04899 0.45891 0.0
C2923 C 0.3478 0.05939 0.46366 0.0
C2924 C 0.32852 0.05113 0.46029 0.0
C2925 C 0.32242 0.06529 0.46686 0.0
C2926 C 0.31331 0.06967 0.44876 0.0
C2927 C 0.30919 0.05788 0.48346 0.0
C2928 C 0.34121 0.08266 0.47496 0.0
C2929 C 0.3557 0.07904 0.47302 0.0
C2930 C 0.37423 0.09279 0.4802 0.0
C2931 C 0.37801 0.11076 0.48942 0.0
C2932 C 0.36334 0.11484 0.49132 0.0
C2933 C 0.34474 0.1005 0.48384 0.0
H2934 H 0.96009 0.26133 0.35375 0.0
H2935 H 0.99909 0.31883 0.38373 0.0
H2936 H 0.97551 0.31569 0.40621 0.0
H2937 H 0.91707 0.26337 0.35725 0.0
H2938 H 0.90341 0.23854 0.36236 0.0
H2939 H 0.92273 0.24576 0.34734 0.0
H2940 H 0.93769 0.23207 0.3716 0.0
H2941 H 0.91837 0.22471 0.38658 0.0
H2942 H 0.94212 0.24025 0.39813 0.0
H2943 H 0.94851 0.30611 0.4263 0.0
H2944 H 0.9207 0.28941 0.44473 0.0
H2945 H 0.89918 0.23791 0.40238 0.0
C2946 C 0.96357 0.27331 0.36492 0.0
C2947 C 0.98139 0.29034 0.36694 0.0
C2948 C 0.98554 0.30561 0.38193 0.0
C2949 C 0.9722 0.30404 0.39469 0.0
C2950 C 0.95478 0.28708 0.39235 0.0
C2951 C 0.95045 0.2719 0.37798 0.0
C2952 C 0.93116 0.25476 0.37965 0.0
C2953 C 0.91781 0.25035 0.36051 0.0
C2954 C 0.93242 0.2369 0.38427 0.0
C2955 C 0.92554 0.26258 0.39743 0.0
C2956 C 0.93924 0.28137 0.40428 0.0
C2957 C 0.93758 0.29146 0.42097 0.0
C2958 C 0.92167 0.28191 0.43126 0.0
C2959 C 0.90775 0.26243 0.42491 0.0
C2960 C 0.9096 0.25282 0.40754 0.0
H2961 H 0.06881 0.3979 0.32295 0.0
H2962 H 0.01734 0.35931 0.34797 0.0
H2963 H 0.00415 0.37952 0.33863 0.0
H2964 H 0.06738 0.44406 0.33606 0.0
H2965 H 0.07656 0.45309 0.31287 0.0
H2966 H 0.08352 0.43808 0.32537 0.0
H2967 H 0.07261 0.41462 0.29258 0.0
H2968 H 0.06531 0.42928 0.2801 0.0
H2969 H 0.04873 0.404 0.28121 0.0
H2970 H 0.99403 0.399 0.32017 0.0
H2971 H 0.98865 0.4183 0.29656 0.0
H2972 H 0.04737 0.44634 0.28556 0.0
C2973 C 0.05506 0.39412 0.32718 0.0
C2974 C 0.04412 0.37698 0.33614 0.0
C2975 C 0.02602 0.37235 0.34108 0.0
C2976 C 0.0184 0.38379 0.33589 0.0
C2977 C 0.02916 0.4 0.3261 0.0
C2978 C 0.04726 0.40545 0.32218 0.0
C2979 C 0.05507 0.42235 0.30965 0.0
C2980 C 0.07161 0.44047 0.32171 0.0
C2981 C 0.06075 0.41724 0.28971 0.0
C2982 C 0.03811 0.4247 0.3061 0.0
C2983 C 0.02341 0.41183 0.31593 0.0
C2984 C 0.00562 0.40965 0.31298 0.0
C2985 C 0.00274 0.42081 0.29952 0.0
C2986 C 0.0176 0.43413 0.2892 0.0
C2987 C 0.03561 0.43631 0.29302 0.0
H2988 H 0.60744 0.6323 0.29228 0.0
H2989 H 0.6465 0.62489 0.33176 0.0
H2990 H 0.62659 0.58926 0.32353 0.0
H2991 H 0.56496 0.59093 0.30323 0.0
H2992 H 0.55427 0.58578 0.27761 0.0
H2993 H 0.57124 0.61029 0.28758 0.0
H2994 H 0.59117 0.61309 0.2582 0.0
H2995 H 0.57435 0.58854 0.24822 0.0
H2996 H 0.5987 0.59576 0.25394 0.0
H2997 H 0.60205 0.55394 0.30955 0.0
H2998 H 0.57536 0.52317 0.29246 0.0
H2999 H 0.55427 0.55549 0.26166 0.0
C3000 C 0.61188 0.62332 0.29942 0.0
C3001 C 0.62858 0.63147 0.31272 0.0
C3002 C 0.63372 0.619 0.3216 0.0
C3003 C 0.62253 0.59877 0.31695 0.0
C3004 C 0.60632 0.59133 0.30342 0.0
C3005 C 0.60106 0.60334 0.2949 0.0
C3006 C 0.58339 0.59216 0.28046 0.0
C3007 C 0.56753 0.59496 0.28766 0.0
C3008 C 0.58714 0.59772 0.25894 0.0
C3009 C 0.57936 0.57184 0.2821 0.0
C3010 C 0.59265 0.5715 0.29538 0.0
C3011 C 0.5916 0.55412 0.29915 0.0
C3012 C 0.57648 0.53673 0.28927 0.0
C3013 C 0.56264 0.5369 0.27581 0.0
C3014 C 0.56438 0.55478 0.27211 0.0
H3015 H 0.35156 0.97612 0.37625 0.0
H3016 H 0.36889 0.94629 0.41657 0.0
H3017 H 0.39372 0.95067 0.39528 0.0
H3018 H 0.3585 0.9563 0.33047 0.0
H3019 H 0.36716 0.9783 0.31859 0.0
H3020 H 0.35098 0.97323 0.33723 0.0
H3021 H 0.37453 0.006 0.35799 0.0
H3022 H 0.3908 0.01117 0.33941 0.0
H3023 H 0.39815 0.01147 0.36542 0.0
H3024 H 0.41615 0.95761 0.36943 0.0
H3025 H 0.43498 0.96691 0.34063 0.0
H3026 H 0.40315 0.99222 0.31706 0.0
C3027 C 0.36061 0.97056 0.38066 0.0
C3028 C 0.35828 0.96086 0.39809 0.0
C3029 C 0.37041 0.95378 0.4033 0.0
C3030 C 0.38456 0.9562 0.39131 0.0
C3031 C 0.38644 0.96577 0.37421 0.0
C3032 C 0.37484 0.97287 0.36888 0.0
C3033 C 0.37971 0.98242 0.3496 0.0
C3034 C 0.3631 0.97193 0.33299 0.0
C3035 C 0.38619 0.00405 0.35334 0.0
C3036 C 0.39581 0.97947 0.34488 0.0
C3037 C 0.39945 0.96984 0.35928 0.0
C3038 C 0.41345 0.96516 0.35805 0.0
C3039 C 0.42398 0.9704 0.3416 0.0
C3040 C 0.42046 0.98021 0.3266 0.0
C3041 C 0.40626 0.98489 0.32839 0.0
H3042 H 0.58599 0.96178 0.35624 0.0
H3043 H 0.64136 0.01267 0.35749 0.0
H3044 H 0.6289 0.02489 0.33118 0.0
H3045 H 0.57312 0.95594 0.30266 0.0
H3046 H 0.54889 0.94824 0.30528 0.0
H3047 H 0.56233 0.94345 0.32383 0.0
H3048 H 0.55446 0.96102 0.35203 0.0
H3049 H 0.54094 0.96579 0.33359 0.0
H3050 H 0.5598 0.9855 0.35007 0.0
H3051 H 0.60968 0.03206 0.3056 0.0
H3052 H 0.58558 0.0333 0.28287 0.0
H3053 H 0.54333 0.97732 0.29837 0.0
C3054 C 0.59557 0.97548 0.35099 0.0
C3055 C 0.61467 0.98629 0.35897 0.0
C3056 C 0.62668 0.00413 0.3516 0.0
C3057 C 0.61973 0.01118 0.33665 0.0
C3058 C 0.60078 0.00014 0.32917 0.0
C3059 C 0.58891 0.98264 0.33608 0.0
C3060 C 0.56908 0.97362 0.32589 0.0
C3061 C 0.56301 0.95416 0.31369 0.0
C3062 C 0.55526 0.97136 0.34131 0.0
C3063 C 0.57155 0.98883 0.31223 0.0
C3064 C 0.58991 0.00404 0.3143 0.0
C3065 C 0.59531 0.02014 0.30375 0.0
C3066 C 0.58155 0.02075 0.29092 0.0
C3067 C 0.56267 0.0053 0.28867 0.0
C3068 C 0.55774 0.98912 0.29939 0.0
H3069 H 0.05592 0.66746 0.27649 0.0
H3070 H 0.01224 0.65204 0.31637 0.0
H3071 H 0.99918 0.61752 0.30488 0.0
H3072 H 0.02693 0.63291 0.23582 0.0
H3073 H 0.04441 0.62744 0.2282 0.0
H3074 H 0.05154 0.65092 0.24079 0.0
H3075 H 0.07234 0.64668 0.26818 0.0
H3076 H 0.06542 0.62325 0.25556 0.0
H3077 H 0.06203 0.62562 0.2817 0.0
H3078 H 0.98987 0.58497 0.28803 0.0
H3079 H 0.98536 0.55616 0.26742 0.0
H3080 H 0.03423 0.59264 0.23734 0.0
C3081 C 0.04385 0.6568 0.28311 0.0
C3082 C 0.03515 0.66243 0.2974 0.0
C3083 C 0.01914 0.64805 0.3054 0.0
C3084 C 0.01161 0.62841 0.29899 0.0
C3085 C 0.02022 0.62336 0.28452 0.0
C3086 C 0.03602 0.63709 0.27672 0.0
C3087 C 0.04196 0.62779 0.26061 0.0
C3088 C 0.04115 0.63521 0.24015 0.0
C3089 C 0.0616 0.63103 0.26689 0.0
C3090 C 0.02692 0.60674 0.26047 0.0
C3091 C 0.01459 0.60453 0.27445 0.0
C3092 C 0.99942 0.5865 0.277 0.0
C3093 C 0.99686 0.57025 0.26505 0.0
C3094 C 0.00933 0.57211 0.25061 0.0
C3095 C 0.02453 0.59068 0.24833 0.0
H3096 H 0.34373 0.36696 0.35337 0.0
H3097 H 0.33911 0.41839 0.36184 0.0
H3098 H 0.36293 0.43408 0.33837 0.0
H3099 H 0.39339 0.39155 0.35127 0.0
H3100 H 0.39244 0.37412 0.33221 0.0
H3101 H 0.37468 0.36666 0.34931 0.0
H3102 H 0.34872 0.35308 0.31914 0.0
H3103 H 0.36639 0.36042 0.30193 0.0
H3104 H 0.34976 0.36865 0.30039 0.0
H3105 H 0.38748 0.44438 0.31458 0.0
H3106 H 0.411 0.44855 0.29149 0.0
H3107 H 0.39965 0.3904 0.29829 0.0
C3108 C 0.34765 0.38149 0.35023 0.0
C3109 C 0.33955 0.39145 0.35944 0.0
C3110 C 0.34512 0.41047 0.35497 0.0
C3111 C 0.35864 0.41951 0.34167 0.0
C3112 C 0.36644 0.40934 0.33298 0.0
C3113 C 0.36114 0.39074 0.33702 0.0
C3114 C 0.37182 0.38308 0.3258 0.0
C3115 C 0.38379 0.3786 0.34053 0.0
C3116 C 0.35837 0.36525 0.31093 0.0
C3117 C 0.38401 0.40033 0.31487 0.0
C3118 C 0.38064 0.41529 0.31921 0.0
C3119 C 0.39017 0.43274 0.31096 0.0
C3120 C 0.40342 0.43492 0.29779 0.0
C3121 C 0.40702 0.41973 0.29297 0.0
C3122 C 0.39724 0.40227 0.30177 0.0
H3123 H 0.33016 0.3173 0.42509 0.0
H3124 H 0.28168 0.27383 0.38565 0.0
H3125 H 0.29415 0.25152 0.38689 0.0
H3126 H 0.36556 0.30481 0.40881 0.0
H3127 H 0.37607 0.30858 0.43433 0.0
H3128 H 0.36555 0.32248 0.42679 0.0
H3129 H 0.34415 0.311 0.45566 0.0
H3130 H 0.35468 0.29724 0.4633 0.0
H3131 H 0.32958 0.28543 0.45738 0.0
H3132 H 0.31027 0.23307 0.39522 0.0
H3133 H 0.32624 0.21842 0.41296 0.0
H3134 H 0.3623 0.27317 0.44968 0.0
C3135 C 0.32258 0.30331 0.41619 0.0
C3136 C 0.3053 0.29728 0.40486 0.0
C3137 C 0.29514 0.27865 0.3941 0.0
C3138 C 0.30218 0.266 0.39465 0.0
C3139 C 0.31919 0.27221 0.40629 0.0
C3140 C 0.32914 0.29037 0.41706 0.0
C3141 C 0.34533 0.29245 0.43095 0.0
C3142 C 0.36425 0.308 0.42484 0.0
C3143 C 0.3433 0.29677 0.45312 0.0
C3144 C 0.34262 0.27245 0.42677 0.0
C3145 C 0.32782 0.26117 0.4121 0.0
C3146 C 0.32196 0.24181 0.40663 0.0
C3147 C 0.33104 0.23358 0.4169 0.0
C3148 C 0.3455 0.24459 0.43282 0.0
C3149 C 0.35165 0.26442 0.4373 0.0
H3150 H 0.70068 0.03982 0.41921 0.0
H3151 H 0.70209 0.01044 0.47101 0.0
H3152 H 0.72551 0.04153 0.48978 0.0
H3153 H 0.74981 0.07324 0.42406 0.0
H3154 H 0.74797 0.09343 0.41655 0.0
H3155 H 0.72984 0.06908 0.40744 0.0
H3156 H 0.70488 0.07563 0.42154 0.0
H3157 H 0.72296 0.10002 0.43071 0.0
H3158 H 0.70778 0.08429 0.44777 0.0
H3159 H 0.74962 0.07478 0.50261 0.0
H3160 H 0.77447 0.10911 0.50851 0.0
H3161 H 0.759 0.11794 0.4486 0.0
C3162 C 0.70576 0.04005 0.43459 0.0
C3163 C 0.69956 0.02271 0.44365 0.0
C3164 C 0.70673 0.02351 0.4637 0.0
C3165 C 0.71996 0.04112 0.47457 0.0
C3166 C 0.72602 0.05789 0.46521 0.0
C3167 C 0.71928 0.05763 0.44569 0.0
C3168 C 0.72927 0.07781 0.43896 0.0
C3169 C 0.73985 0.07842 0.42067 0.0
C3170 C 0.71539 0.08485 0.43448 0.0
C3171 C 0.74279 0.08923 0.45765 0.0
C3172 C 0.74045 0.0774 0.47263 0.0
C3173 C 0.75159 0.08426 0.49105 0.0
C3174 C 0.76573 0.10373 0.49421 0.0
C3175 C 0.76872 0.11613 0.47899 0.0
C3176 C 0.75689 0.10882 0.46057 0.0
H3177 H 0.96214 0.70969 0.34002 0.0
H3178 H 0.9847 0.67237 0.35212 0.0
H3179 H 0.95879 0.65387 0.37237 0.0
H3180 H 0.94845 0.71224 0.38862 0.0
H3181 H 0.92727 0.71198 0.37993 0.0
H3182 H 0.9469 0.7216 0.36524 0.0
H3183 H 0.92555 0.69781 0.33432 0.0
H3184 H 0.90583 0.68811 0.34894 0.0
H3185 H 0.91248 0.67221 0.33657 0.0
H3186 H 0.93188 0.64079 0.39306 0.0
H3187 H 0.90569 0.63404 0.41302 0.0
H3188 H 0.89963 0.67886 0.3865 0.0
C3189 C 0.96153 0.69751 0.34675 0.0
C3190 C 0.97545 0.69248 0.34445 0.0
C3191 C 0.97421 0.67652 0.35365 0.0
C3192 C 0.95951 0.66587 0.36515 0.0
C3193 C 0.94612 0.67128 0.36724 0.0
C3194 C 0.94693 0.68668 0.35828 0.0
C3195 C 0.93113 0.68993 0.36362 0.0
C3196 C 0.93891 0.71013 0.37504 0.0
C3197 C 0.91797 0.68682 0.34474 0.0
C3198 C 0.92152 0.67414 0.37721 0.0
C3199 C 0.93035 0.66351 0.37901 0.0
C3200 C 0.92464 0.64879 0.39153 0.0
C3201 C 0.90962 0.64497 0.4027 0.0
C3202 C 0.90039 0.65576 0.40124 0.0
C3203 C 0.90636 0.67037 0.38807 0.0
H3204 H 0.40602 0.04561 0.73918 0.0
H3205 H 0.37266 0.9916 0.70041 0.0
H3206 H 0.38838 0.97722 0.71909 0.0
H3207 H 0.44822 0.04502 0.74212 0.0
H3208 H 0.45549 0.05504 0.76813 0.0
H3209 H 0.4405 0.06062 0.75292 0.0
H3210 H 0.41601 0.04799 0.77872 0.0
H3211 H 0.43097 0.04241 0.79407 0.0
H3212 H 0.40708 0.02383 0.78567 0.0
H3213 H 0.40939 0.9695 0.74012 0.0
H3214 H 0.43422 0.96904 0.76193 0.0
H3215 H 0.45331 0.02768 0.78784 0.0
C3216 C 0.40181 0.03067 0.73478 0.0
C3217 C 0.38807 0.01974 0.71832 0.0
C3218 C 0.38313 0.00028 0.71297 0.0
C3219 C 0.39194 0.99195 0.72352 0.0
C3220 C 0.40561 0.0032 0.73948 0.0
C3221 C 0.41047 0.02211 0.74517 0.0
C3222 C 0.42625 0.03134 0.76224 0.0
C3223 C 0.44364 0.04905 0.75597 0.0
C3224 C 0.41968 0.0367 0.78131 0.0
C3225 C 0.42979 0.01482 0.76491 0.0
C3226 C 0.41763 0.99868 0.75175 0.0
C3227 C 0.4188 0.98195 0.75072 0.0
C3228 C 0.43291 0.98179 0.7633 0.0
C3229 C 0.44571 0.99826 0.77678 0.0
C3230 C 0.44385 0.01486 0.77769 0.0
H3231 H 0.96247 0.34357 0.79934 0.0
H3232 H 0.99636 0.35586 0.74933 0.0
H3233 H 0.01229 0.39079 0.76077 0.0
H3234 H 0.95688 0.38543 0.7999 0.0
H3235 H 0.95878 0.38905 0.82698 0.0
H3236 H 0.94955 0.3651 0.81435 0.0
H3237 H 0.97467 0.36151 0.83563 0.0
H3238 H 0.98408 0.38552 0.8482 0.0
H3239 H 0.99918 0.37925 0.83551 0.0
H3240 H 0.02434 0.42434 0.77749 0.0
H3241 H 0.03164 0.45419 0.79819 0.0
H3242 H 0.99148 0.41982 0.8387 0.0
C3243 C 0.97306 0.35362 0.79064 0.0
C3244 C 0.97806 0.34699 0.77334 0.0
C3245 C 0.99226 0.3606 0.76259 0.0
C3246 C 0.0014 0.38046 0.76898 0.0
C3247 C 0.99633 0.38647 0.78625 0.0
C3248 C 0.98252 0.37347 0.79695 0.0
C3249 C 0.98008 0.38368 0.81531 0.0
C3250 C 0.96014 0.38063 0.81405 0.0
C3251 C 0.98479 0.3771 0.83481 0.0
C3252 C 0.99459 0.40447 0.81317 0.0
C3253 C 0.00377 0.40576 0.79629 0.0
C3254 C 0.01739 0.4235 0.79087 0.0
C3255 C 0.02159 0.44039 0.8029 0.0
C3256 C 0.01232 0.43945 0.82028 0.0
C3257 C 0.99879 0.42114 0.8255 0.0
H3258 H 0.6577 0.60133 0.71282 0.0
H3259 H 0.65342 0.64904 0.69142 0.0
H3260 H 0.62787 0.64208 0.71248 0.0
H3261 H 0.60692 0.56929 0.71511 0.0
H3262 H 0.61054 0.5597 0.73749 0.0
H3263 H 0.62775 0.56767 0.71973 0.0
H3264 H 0.65352 0.59072 0.7483 0.0
H3265 H 0.63638 0.58296 0.7661 0.0
H3266 H 0.65042 0.60829 0.76301 0.0
H3267 H 0.60488 0.63196 0.73802 0.0
H3268 H 0.58449 0.61792 0.76486 0.0
H3269 H 0.60223 0.57553 0.76818 0.0
C3270 C 0.65123 0.61015 0.71238 0.0
C3271 C 0.65759 0.62573 0.70049 0.0
C3272 C 0.64876 0.63697 0.70034 0.0
C3273 C 0.63424 0.63316 0.71228 0.0
C3274 C 0.62853 0.61793 0.72408 0.0
C3275 C 0.63655 0.60642 0.72404 0.0
C3276 C 0.62801 0.59118 0.73843 0.0
C3277 C 0.61769 0.57075 0.727 0.0
C3278 C 0.64298 0.59344 0.75493 0.0
C3279 C 0.61434 0.5963 0.74695 0.0
C3280 C 0.61484 0.61173 0.73844 0.0
C3281 C 0.6041 0.61963 0.74456 0.0
C3282 C 0.59249 0.61149 0.75976 0.0
C3283 C 0.59161 0.59552 0.76862 0.0
C3284 C 0.60266 0.58783 0.76194 0.0
H3285 H 0.68174 0.6952 0.64869 0.0
H3286 H 0.73645 0.74295 0.67345 0.0
H3287 H 0.72504 0.76581 0.66864 0.0
H3288 H 0.67603 0.71853 0.60981 0.0
H3289 H 0.65097 0.70771 0.60984 0.0
H3290 H 0.6624 0.69515 0.61865 0.0
H3291 H 0.64845 0.69283 0.65272 0.0
H3292 H 0.63703 0.70552 0.64399 0.0
H3293 H 0.65254 0.71456 0.66713 0.0
H3294 H 0.70817 0.78346 0.6586 0.0
H3295 H 0.68898 0.79475 0.64097 0.0
H3296 H 0.64669 0.73514 0.6202 0.0
C3297 C 0.69119 0.71041 0.65366 0.0
C3298 C 0.70987 0.71733 0.66175 0.0
C3299 C 0.72202 0.73739 0.66737 0.0
C3300 C 0.71562 0.75042 0.66481 0.0
C3301 C 0.69713 0.74311 0.65647 0.0
C3302 C 0.68517 0.72355 0.65082 0.0
C3303 C 0.66687 0.7195 0.63975 0.0
C3304 C 0.66391 0.70966 0.61825 0.0
C3305 C 0.65024 0.70739 0.65161 0.0
C3306 C 0.67054 0.73988 0.63957 0.0
C3307 C 0.68784 0.75328 0.64971 0.0
C3308 C 0.69459 0.77308 0.65067 0.0
C3309 C 0.68363 0.77935 0.64046 0.0
C3310 C 0.66632 0.76587 0.62902 0.0
C3311 C 0.65958 0.74588 0.62911 0.0
H3312 H 0.27857 0.98053 0.63064 0.0
H3313 H 0.31558 0.96681 0.6655 0.0
H3314 H 0.29333 0.932 0.65587 0.0
H3315 H 0.23474 0.94034 0.64215 0.0
H3316 H 0.22303 0.93662 0.61727 0.0
H3317 H 0.24163 0.96043 0.62743 0.0
H3318 H 0.25939 0.96241 0.5963 0.0
H3319 H 0.24091 0.93856 0.58611 0.0
H3320 H 0.26481 0.94376 0.58986 0.0
H3321 H 0.26729 0.89864 0.64189 0.0
H3322 H 0.23896 0.86922 0.62539 0.0
H3323 H 0.21947 0.90488 0.59903 0.0
C3324 C 0.28195 0.97024 0.63644 0.0
C3325 C 0.29885 0.97647 0.64889 0.0
C3326 C 0.30275 0.96245 0.65596 0.0
C3327 C 0.2902 0.94262 0.65057 0.0
C3328 C 0.27382 0.93703 0.63806 0.0
C3329 C 0.26964 0.95042 0.63114 0.0
C3330 C 0.25124 0.94063 0.61763 0.0
C3331 C 0.23681 0.94475 0.62667 0.0
C3332 C 0.25428 0.9467 0.59621 0.0
C3333 C 0.24572 0.91963 0.61803 0.0
C3334 C 0.25893 0.91785 0.62988 0.0
C3335 C 0.25687 0.89986 0.63253 0.0
C3336 C 0.2408 0.88324 0.62296 0.0
C3337 C 0.22699 0.88471 0.61084 0.0
C3338 C 0.22964 0.90322 0.60833 0.0
H3339 H 0.02085 0.30682 0.70083 0.0
H3340 H 0.04439 0.35587 0.74688 0.0
H3341 H 0.07283 0.3725 0.72936 0.0
H3342 H 0.0632 0.3072 0.69543 0.0
H3343 H 0.05846 0.30051 0.66859 0.0
H3344 H 0.0393 0.29306 0.68382 0.0
H3345 H 0.02544 0.30928 0.66181 0.0
H3346 H 0.04454 0.31674 0.64645 0.0
H3347 H 0.03989 0.33446 0.65825 0.0
H3348 H 0.0992 0.3833 0.70761 0.0
H3349 H 0.12201 0.38699 0.68357 0.0
H3350 H 0.08147 0.33073 0.65214 0.0
C3351 C 0.03188 0.32116 0.70708 0.0
C3352 C 0.0304 0.33008 0.72518 0.0
C3353 C 0.04525 0.34875 0.73304 0.0
C3354 C 0.06143 0.35835 0.72317 0.0
C3355 C 0.06255 0.34906 0.7055 0.0
C3356 C 0.0482 0.33089 0.69752 0.0
C3357 C 0.05333 0.32371 0.67888 0.0
C3358 C 0.05359 0.30502 0.68187 0.0
C3359 C 0.04001 0.32089 0.66025 0.0
C3360 C 0.07291 0.34056 0.67782 0.0
C3361 C 0.07789 0.35514 0.69317 0.0
C3362 C 0.09543 0.37204 0.69545 0.0
C3363 C 0.10825 0.37403 0.68173 0.0
C3364 C 0.1035 0.35913 0.66609 0.0
C3365 C 0.08554 0.34227 0.66409 0.0
H3366 H 0.28406 0.31226 0.66916 0.0
H3367 H 0.30696 0.35755 0.71933 0.0
H3368 H 0.29227 0.37379 0.70239 0.0
H3369 H 0.28935 0.34386 0.62954 0.0
H3370 H 0.26769 0.32594 0.61503 0.0
H3371 H 0.28104 0.31848 0.63046 0.0
H3372 H 0.2518 0.29785 0.64881 0.0
H3373 H 0.23839 0.30528 0.63349 0.0
H3374 H 0.24019 0.30918 0.66055 0.0
H3375 H 0.27291 0.38359 0.6816 0.0
H3376 H 0.25084 0.38672 0.65807 0.0
H3377 H 0.24186 0.33622 0.62018 0.0
C3378 C 0.28617 0.32571 0.6765 0.0
C3379 C 0.29668 0.33361 0.69561 0.0
C3380 C 0.29902 0.35121 0.70469 0.0
C3381 C 0.29074 0.36057 0.69518 0.0
C3382 C 0.2803 0.35229 0.67648 0.0
C3383 C 0.2781 0.33534 0.66714 0.0
C3384 C 0.26564 0.32917 0.64734 0.0
C3385 C 0.27659 0.32938 0.62954 0.0
C3386 C 0.24796 0.30919 0.64757 0.0
C3387 C 0.26082 0.34504 0.64728 0.0
C3388 C 0.26949 0.35826 0.66418 0.0
C3389 C 0.26634 0.37355 0.66808 0.0
C3390 C 0.25385 0.3753 0.65446 0.0
C3391 C 0.24468 0.3619 0.63697 0.0
C3392 C 0.24851 0.34673 0.63333 0.0
H3393 H 0.69976 0.96276 0.62926 0.0
H3394 H 0.65372 0.97311 0.6367 0.0
H3395 H 0.63117 0.93966 0.62172 0.0
H3396 H 0.68369 0.93776 0.58269 0.0
H3397 H 0.6911 0.92049 0.58656 0.0
H3398 H 0.70335 0.94391 0.60092 0.0
H3399 H 0.69737 0.92797 0.63424 0.0
H3400 H 0.68536 0.90441 0.61999 0.0
H3401 H 0.67373 0.91047 0.63852 0.0
H3402 H 0.61418 0.9066 0.60129 0.0
H3403 H 0.60421 0.87607 0.57981 0.0
H3404 H 0.66155 0.88774 0.5867 0.0
C3405 C 0.6849 0.95785 0.62828 0.0
C3406 C 0.67851 0.97056 0.63414 0.0
C3407 C 0.65894 0.96359 0.63248 0.0
C3408 C 0.64602 0.94462 0.62391 0.0
C3409 C 0.65289 0.93276 0.61742 0.0
C3410 C 0.67187 0.939 0.61993 0.0
C3411 C 0.67586 0.924 0.61057 0.0
C3412 C 0.68929 0.93203 0.59422 0.0
C3413 C 0.68353 0.91626 0.6268 0.0
C3414 C 0.65632 0.90873 0.60156 0.0
C3415 C 0.64318 0.91386 0.60582 0.0
C3416 C 0.62432 0.90231 0.59815 0.0
C3417 C 0.61879 0.88505 0.58592 0.0
C3418 C 0.63213 0.87965 0.58137 0.0
C3419 C 0.65106 0.89164 0.58953 0.0
H3420 H 0.00114 0.71122 0.69176 0.0
H3421 H 0.03572 0.7215 0.74781 0.0
H3422 H 0.06426 0.73824 0.73033 0.0
H3423 H 0.02839 0.70062 0.66036 0.0
H3424 H 0.02501 0.71214 0.63956 0.0
H3425 H 0.00741 0.70213 0.65673 0.0
H3426 H 0.00962 0.73532 0.66389 0.0
H3427 H 0.02716 0.74543 0.64664 0.0
H3428 H 0.03211 0.75653 0.67223 0.0
H3429 H 0.08896 0.75304 0.70638 0.0
H3430 H 0.10791 0.76491 0.67793 0.0
H3431 H 0.05683 0.74356 0.63749 0.0
C3432 C 0.01471 0.71722 0.70046 0.0
C3433 C 0.01622 0.71516 0.72119 0.0
C3434 C 0.03424 0.72297 0.73193 0.0
C3435 C 0.05052 0.73249 0.72213 0.0
C3436 C 0.0485 0.73401 0.70161 0.0
C3437 C 0.03104 0.72661 0.69091 0.0
C3438 C 0.03264 0.72947 0.66884 0.0
C3439 C 0.02278 0.70993 0.6556 0.0
C3440 C 0.02493 0.74246 0.66254 0.0
C3441 C 0.05373 0.73961 0.66876 0.0
C3442 C 0.06265 0.74217 0.6878 0.0
C3443 C 0.08212 0.75109 0.6914 0.0
C3444 C 0.09275 0.75764 0.67511 0.0
C3445 C 0.08388 0.75514 0.65544 0.0
C3446 C 0.06408 0.74594 0.65235 0.0
H3447 H 0.94202 0.59951 0.7421 0.0
H3448 H 0.99089 0.64708 0.72108 0.0
H3449 H 0.00924 0.63133 0.72907 0.0
H3450 H 0.96536 0.5966 0.78387 0.0
H3451 H 0.95172 0.57068 0.78362 0.0
H3452 H 0.94144 0.5833 0.77219 0.0
H3453 H 0.93359 0.56178 0.73841 0.0
H3454 H 0.94378 0.54894 0.74982 0.0
H3455 H 0.95202 0.56008 0.72718 0.0
H3456 H 0.02332 0.61268 0.7439 0.0
H3457 H 0.03188 0.59328 0.76456 0.0
H3458 H 0.97399 0.55947 0.7775 0.0
C3459 C 0.95638 0.6063 0.73844 0.0
C3460 C 0.96495 0.62443 0.73076 0.0
C3461 C 0.98397 0.6331 0.72681 0.0
C3462 C 0.99449 0.62423 0.73125 0.0
C3463 C 0.98578 0.60672 0.73961 0.0
C3464 C 0.96709 0.59781 0.74305 0.0
C3465 C 0.96161 0.58048 0.75456 0.0
C3466 C 0.95464 0.58293 0.77475 0.0
C3467 C 0.94688 0.56171 0.74172 0.0
C3468 C 0.98028 0.5814 0.75773 0.0
C3469 C 0.99399 0.59635 0.74867 0.0
C3470 C 0.01263 0.60077 0.75081 0.0
C3471 C 0.01739 0.58978 0.76274 0.0
C3472 C 0.00362 0.57474 0.77263 0.0
C3473 C 0.9848 0.57043 0.76973 0.0
H3474 H 0.3733 0.37865 0.77559 0.0
H3475 H 0.40499 0.35879 0.74261 0.0
H3476 H 0.43353 0.39108 0.75053 0.0
H3477 H 0.39865 0.42991 0.76431 0.0
H3478 H 0.39806 0.43898 0.78942 0.0
H3479 H 0.37945 0.41543 0.77848 0.0
H3480 H 0.38528 0.40013 0.80902 0.0
H3481 H 0.40392 0.42357 0.81999 0.0
H3482 H 0.40846 0.404 0.81562 0.0
H3483 H 0.45876 0.42436 0.76361 0.0
H3484 H 0.47999 0.45597 0.78297 0.0
H3485 H 0.43274 0.45361 0.8103 0.0
C3486 C 0.38616 0.38137 0.76959 0.0
C3487 C 0.38701 0.3665 0.75817 0.0
C3488 C 0.40414 0.37017 0.75117 0.0
C3489 C 0.42035 0.38844 0.75555 0.0
C3490 C 0.4192 0.40274 0.76718 0.0
C3491 C 0.40261 0.39942 0.77425 0.0
C3492 C 0.40575 0.41658 0.78834 0.0
C3493 C 0.39483 0.42577 0.77961 0.0
C3494 C 0.40055 0.41071 0.80949 0.0
C3495 C 0.42675 0.42985 0.7884 0.0
C3496 C 0.43411 0.42169 0.77577 0.0
C3497 C 0.45319 0.43089 0.77358 0.0
C3498 C 0.46516 0.44876 0.78485 0.0
C3499 C 0.45812 0.45718 0.79848 0.0
C3500 C 0.43857 0.44767 0.79996 0.0
H3501 H 0.65567 0.01844 0.69716 0.0
H3502 H 0.6694 0.0764 0.68541 0.0
H3503 H 0.64689 0.07526 0.70854 0.0
H3504 H 0.60632 0.99941 0.69964 0.0
H3505 H 0.60484 0.9849 0.71968 0.0
H3506 H 0.62217 0.99026 0.70233 0.0
H3507 H 0.64853 0.00475 0.73214 0.0
H3508 H 0.63128 0.9994 0.7496 0.0
H3509 H 0.65066 0.02377 0.74988 0.0
H3510 H 0.62297 0.06791 0.73275 0.0
H3511 H 0.59905 0.05479 0.75657 0.0
H3512 H 0.60086 0.00163 0.75279 0.0
C3513 C 0.65397 0.0309 0.69946 0.0
C3514 C 0.66431 0.04752 0.68946 0.0
C3515 C 0.66164 0.06351 0.69288 0.0
C3516 C 0.64889 0.06301 0.70599 0.0
C3517 C 0.6389 0.04641 0.71556 0.0
C3518 C 0.64127 0.03064 0.71248 0.0
C3519 C 0.62875 0.01457 0.72461 0.0
C3520 C 0.61468 0.9962 0.71073 0.0
C3521 C 0.64051 0.01038 0.73997 0.0
C3522 C 0.61894 0.02377 0.73496 0.0
C3523 C 0.62505 0.04215 0.72954 0.0
C3524 C 0.61812 0.05356 0.73717 0.0
C3525 C 0.60462 0.04602 0.75077 0.0
C3526 C 0.59818 0.02724 0.75662 0.0
C3527 C 0.60542 0.01598 0.74849 0.0
loop_
_geom_bond_atom_site_label_1
_geom_bond_atom_site_label_2
_geom_bond_distance
_geom_bond_site_symmetry_2
_ccdc_geom_bond_type
Mg0 O1 2.028 . S
Mg0 O7 1.986 1_455 S
Mg0 O9 2.114 . S
Mg0 O10 2.251 1_554 S
Mg0 O13 2.010 . S
O1 Mg0 2.028 . S
O1 C4 1.250 1_455 S
O2 Mg3 2.028 . S
O2 C4 1.248 . S
Mg3 O2 2.028 . S
Mg3 O8 2.032 . S
Mg3 O10 2.079 1_654 S
C4 O1 1.250 1_655 S
C4 O2 1.248 . S
C5 O6 1.264 . S
C5 O13 1.249 . S
O6 C5 1.264 . S
O7 Mg0 1.986 1_655 S
O7 C11 1.246 . S
O8 Mg3 2.032 . S
O8 C11 1.259 . S
O9 Mg0 2.114 . S
O9 C12 1.252 1_554 S
O10 Mg0 2.251 1_556 S
O10 Mg3 2.079 1_456 S
O10 C12 1.273 . S
C11 O7 1.246 . S
C11 O8 1.259 . S
C12 O9 1.252 1_556 S
C12 O10 1.273 . S
O13 Mg0 2.010 . S
O13 C5 1.249 . S
Mg14 O15 2.028 . S
Mg14 O21 1.986 . S
Mg14 O23 2.114 . S
Mg14 O24 2.251 . S
Mg14 O27 2.010 . S
O15 Mg14 2.028 . S
O15 C18 1.250 . S
O16 Mg17 2.028 . S
O16 C18 1.248 . S
Mg17 O16 2.028 . S
Mg17 O22 2.032 . S
Mg17 O24 2.079 . S
C18 O15 1.250 . S
C18 O16 1.248 . S
C19 O20 1.264 . S
C19 O27 1.249 . S
O20 C19 1.264 . S
O21 Mg14 1.986 . S
O21 C25 1.246 . S
O22 Mg17 2.032 . S
O22 C25 1.259 . S
O23 Mg14 2.114 . S
O23 C26 1.252 . S
O24 Mg14 2.251 . S
O24 Mg17 2.079 . S
O24 C26 1.273 . S
C25 O21 1.246 . S
C25 O22 1.259 . S
C26 O23 1.252 . S
C26 O24 1.273 . S
O27 Mg14 2.010 . S
O27 C19 1.249 . S
Mg28 O29 2.028 1_565 S
Mg28 O35 1.986 1_565 S
Mg28 O37 2.114 . S
Mg28 O38 2.251 1_564 S
Mg28 O41 2.010 . S
O29 Mg28 2.028 1_545 S
O29 C32 1.250 . S
O30 Mg31 2.028 . S
O30 C32 1.248 . S
Mg31 O30 2.028 . S
Mg31 O36 2.032 . S
Mg31 O38 2.079 1_554 S
C32 O29 1.250 . S
C32 O30 1.248 . S
C33 O34 1.264 . S
C33 O41 1.249 . S
O34 C33 1.264 . S
O35 Mg28 1.986 1_545 S
O35 C39 1.246 . S
O36 Mg31 2.032 . S
O36 C39 1.259 . S
O37 Mg28 2.114 . S
O37 C40 1.252 1_554 S
O38 Mg28 2.251 1_546 S
O38 Mg31 2.079 1_556 S
O38 C40 1.273 1_545 S
C39 O35 1.246 . S
C39 O36 1.259 . S
C40 O37 1.252 1_556 S
C40 O38 1.273 1_565 S
O41 Mg28 2.010 . S
O41 C33 1.249 . S
Mg42 O43 2.017 1_655 S
Mg42 O49 1.986 1_655 S
Mg42 O51 2.114 . S
Mg42 O52 2.251 1_655 S
Mg42 O55 2.010 . S
O43 Mg42 2.017 1_455 S
O43 C46 1.276 . S
O44 Mg45 2.028 . S
O44 C46 1.248 . S
Mg45 O44 2.028 . S
Mg45 O50 2.032 . S
Mg45 O52 2.079 . S
C46 O43 1.276 . S
C46 O44 1.248 . S
C47 O48 1.264 . S
C47 O55 1.249 . S
O48 C47 1.264 . S
O49 Mg42 1.986 1_455 S
O49 C53 1.246 . S
O50 Mg45 2.032 . S
O50 C53 1.259 . S
O51 Mg42 2.114 . S
O51 C54 1.252 . S
O52 Mg42 2.251 1_455 S
O52 Mg45 2.079 . S
O52 C54 1.273 1_455 S
C53 O49 1.246 . S
C53 O50 1.259 . S
C54 O51 1.252 . S
C54 O52 1.273 1_655 S
O55 Mg42 2.010 . S
O55 C47 1.249 . S
Mg56 O57 2.028 1_556 S
Mg56 O63 1.986 . S
Mg56 O65 2.114 . S
Mg56 O66 2.251 . S
Mg56 O69 2.010 1_556 S
O57 Mg56 2.028 1_554 S
O57 C60 1.250 . S
O58 Mg59 2.028 1_554 S
O58 C60 1.248 . S
Mg59 O58 2.028 1_556 S
Mg59 O64 2.032 . S
Mg59 O66 2.079 . S
C60 O57 1.250 . S
C60 O58 1.248 . S
C61 O62 1.264 . S
C61 O69 1.249 . S
O62 C61 1.264 . S
O63 Mg56 1.986 . S
O63 C67 1.246 . S
O64 Mg59 2.032 . S
O64 C67 1.259 . S
O65 Mg56 2.114 . S
O65 C68 1.252 . S
O66 Mg56 2.251 . S
O66 Mg59 2.079 . S
O66 C68 1.273 . S
C67 O63 1.246 . S
C67 O64 1.259 . S
C68 O65 1.252 . S
C68 O66 1.273 . S
O69 Mg56 2.010 1_554 S
O69 C61 1.249 . S
Mg70 O71 2.028 . S
Mg70 O77 1.986 1_545 S
Mg70 O79 2.114 . S
Mg70 O80 2.251 . S
Mg70 O83 2.010 . S
O71 Mg70 2.028 . S
O71 C74 1.250 . S
O72 Mg73 2.028 . S
O72 C74 1.248 1_565 S
Mg73 O72 2.028 . S
Mg73 O78 2.032 . S
Mg73 O80 2.079 1_565 S
C74 O71 1.250 . S
C74 O72 1.248 1_545 S
C75 O76 1.264 . S
C75 O83 1.249 . S
O76 C75 1.264 . S
O77 Mg70 1.986 1_565 S
O77 C81 1.246 . S
O78 Mg73 2.032 . S
O78 C81 1.259 . S
O79 Mg70 2.114 . S
O79 C82 1.252 . S
O80 Mg70 2.251 . S
O80 Mg73 2.079 1_545 S
O80 C82 1.273 . S
C81 O77 1.246 . S
C81 O78 1.259 . S
C82 O79 1.252 . S
C82 O80 1.273 . S
O83 Mg70 2.010 . S
O83 C75 1.249 . S
Mg84 O85 2.028 . S
Mg84 O91 1.986 . S
Mg84 O93 2.114 . S
Mg84 O94 2.251 . S
Mg84 O97 2.010 . S
O85 Mg84 2.028 . S
O85 C88 1.250 . S
O86 Mg87 2.028 . S
O86 C88 1.248 . S
Mg87 O86 2.028 . S
Mg87 O92 2.032 . S
Mg87 O94 2.079 . S
C88 O85 1.250 . S
C88 O86 1.248 . S
C89 O90 1.264 . S
C89 O97 1.249 . S
O90 C89 1.264 . S
O91 Mg84 1.986 . S
O91 C95 1.246 . S
O92 Mg87 2.032 . S
O92 C95 1.259 . S
O93 Mg84 2.114 . S
O93 C96 1.252 . S
O94 Mg84 2.251 . S
O94 Mg87 2.079 . S
O94 C96 1.273 . S
C95 O91 1.246 . S
C95 O92 1.259 . S
C96 O93 1.252 . S
C96 O94 1.273 . S
O97 Mg84 2.010 . S
O97 C89 1.249 . S
Mg98 O99 2.028 . S
Mg98 O105 1.986 . S
Mg98 O107 2.114 . S
Mg98 O108 2.251 . S
Mg98 O111 2.010 . S
O99 Mg98 2.028 . S
O99 C102 1.250 . S
O100 Mg101 2.028 . S
O100 C102 1.248 . S
Mg101 O100 2.028 . S
Mg101 O106 2.032 . S
Mg101 O108 2.079 . S
C102 O99 1.250 . S
C102 O100 1.248 . S
C103 O104 1.264 . S
C103 O111 1.249 . S
O104 C103 1.264 . S
O105 Mg98 1.986 . S
O105 C109 1.246 1_565 S
O106 Mg101 2.032 . S
O106 C109 1.259 1_565 S
O107 Mg98 2.114 . S
O107 C110 1.252 . S
O108 Mg98 2.251 . S
O108 Mg101 2.079 . S
O108 C110 1.273 . S
C109 O105 1.246 1_545 S
C109 O106 1.259 1_545 S
C110 O107 1.252 . S
C110 O108 1.273 . S
O111 Mg98 2.010 . S
O111 C103 1.249 . S
Mg112 O113 2.028 . S
Mg112 O119 1.986 . S
Mg112 O121 2.114 . S
Mg112 O122 2.251 . S
Mg112 O125 2.010 . S
O113 Mg112 2.028 . S
O113 C116 1.250 . S
O114 Mg115 2.028 . S
O114 C116 1.248 . S
Mg115 O114 2.028 . S
Mg115 O120 2.032 . S
Mg115 O122 2.079 . S
C116 O113 1.250 . S
C116 O114 1.248 . S
C117 O118 1.264 . S
C117 O125 1.249 1_655 S
O118 C117 1.264 . S
O119 Mg112 1.986 . S
O119 C123 1.246 . S
O120 Mg115 2.032 . S
O120 C123 1.259 . S
O121 Mg112 2.114 . S
O121 C124 1.252 . S
O122 Mg112 2.251 . S
O122 Mg115 2.079 . S
O122 C124 1.273 . S
C123 O119 1.246 . S
C123 O120 1.259 . S
C124 O121 1.252 . S
C124 O122 1.273 . S
O125 Mg112 2.010 . S
O125 C117 1.249 1_455 S
Mg126 O127 2.028 . S
Mg126 O133 1.986 . S
Mg126 O135 2.114 . S
Mg126 O136 2.251 . S
Mg126 O139 2.010 . S
O127 Mg126 2.028 . S
O127 C130 1.250 . S
O128 Mg129 2.028 . S
O128 C130 1.248 . S
Mg129 O128 2.028 . S
Mg129 O134 2.032 . S
Mg129 O136 2.079 . S
C130 O127 1.250 . S
C130 O128 1.248 . S
C131 O132 1.264 . S
C131 O139 1.249 . S
O132 C131 1.264 . S
O133 Mg126 1.986 . S
O133 C137 1.246 1_565 S
O134 Mg129 2.032 . S
O134 C137 1.257 1_565 S
O135 Mg126 2.114 . S
O135 C138 1.252 . S
O136 Mg126 2.251 . S
O136 Mg129 2.079 . S
O136 C138 1.273 . S
C137 O133 1.246 1_545 S
C137 O134 1.257 1_545 S
C138 O135 1.252 . S
C138 O136 1.273 . S
O139 Mg126 2.010 . S
O139 C131 1.249 . S
Mg140 O141 2.028 . S
Mg140 O147 1.986 . S
Mg140 O149 2.114 . S
Mg140 O150 2.251 . S
Mg140 O153 2.010 . S
O141 Mg140 2.028 . S
O141 C144 1.250 . S
O142 Mg143 2.028 . S
O142 C144 1.248 . S
Mg143 O142 2.028 . S
Mg143 O148 2.032 . S
Mg143 O150 2.079 . S
C144 O141 1.250 . S
C144 O142 1.248 . S
C145 O146 1.264 . S
C145 O153 1.249 1_655 S
O146 C145 1.264 . S
O147 Mg140 1.986 . S
O147 C151 1.246 . S
O148 Mg143 2.032 . S
O148 C151 1.259 . S
O149 Mg140 2.114 . S
O149 C152 1.252 . S
O150 Mg140 2.251 . S
O150 Mg143 2.079 . S
O150 C152 1.273 . S
C151 O147 1.246 . S
C151 O148 1.259 . S
C152 O149 1.252 . S
C152 O150 1.273 . S
O153 Mg140 2.010 . S
O153 C145 1.249 1_455 S
Mg154 O155 2.028 . S
Mg154 O161 1.986 . S
Mg154 O163 2.114 . S
Mg154 O164 2.251 . S
Mg154 O167 2.010 . S
O155 Mg154 2.028 . S
O155 C158 1.250 . S
O156 Mg157 2.028 . S
O156 C158 1.248 . S
Mg157 O156 2.028 . S
Mg157 O162 2.032 . S
Mg157 O164 2.079 . S
C158 O155 1.250 . S
C158 O156 1.248 . S
C159 O160 1.264 . S
C159 O167 1.249 . S
O160 C159 1.264 . S
O161 Mg154 1.986 . S
O161 C165 1.246 . S
O162 Mg157 2.032 . S
O162 C165 1.259 . S
O163 Mg154 2.114 . S
O163 C166 1.252 . S
O164 Mg154 2.251 . S
O164 Mg157 2.079 . S
O164 C166 1.273 . S
C165 O161 1.246 . S
C165 O162 1.259 . S
C166 O163 1.252 . S
C166 O164 1.273 . S
O167 Mg154 2.010 . S
O167 C159 1.249 . S
Mg168 O169 2.028 . S
Mg168 O175 1.986 . S
Mg168 O177 2.114 . S
Mg168 O178 2.251 . S
Mg168 O181 2.010 . S
O169 Mg168 2.028 . S
O169 C172 1.250 . S
O170 Mg171 2.028 . S
O170 C172 1.248 . S
Mg171 O170 2.028 . S
Mg171 O176 2.032 . S
Mg171 O178 2.079 . S
C172 O169 1.250 . S
C172 O170 1.248 . S
C173 O174 1.264 . S
C173 O181 1.249 . S
O174 C173 1.264 . S
O175 Mg168 1.986 . S
O175 C179 1.246 . S
O176 Mg171 2.032 . S
O176 C179 1.259 . S
O177 Mg168 2.114 . S
O177 C180 1.252 . S
O178 Mg168 2.251 . S
O178 Mg171 2.079 . S
O178 C180 1.273 . S
C179 O175 1.246 . S
C179 O176 1.259 . S
C180 O177 1.252 . S
C180 O178 1.273 . S
O181 Mg168 2.010 . S
O181 C173 1.249 . S
Mg182 O183 2.028 . S
Mg182 O189 1.986 . S
Mg182 O191 2.114 . S
Mg182 O192 2.251 . S
Mg182 O195 2.010 . S
O183 Mg182 2.028 . S
O183 C186 1.250 . S
O184 Mg185 2.028 . S
O184 C186 1.248 . S
Mg185 O184 2.028 . S
Mg185 O190 2.032 . S
Mg185 O192 2.079 . S
C186 O183 1.250 . S
C186 O184 1.248 . S
C187 O188 1.264 . S
C187 O195 1.249 1_455 S
O188 C187 1.264 . S
O189 Mg182 1.986 . S
O189 C193 1.246 . S
O190 Mg185 2.032 . S
O190 C193 1.259 . S
O191 Mg182 2.114 . S
O191 C194 1.252 . S
O192 Mg182 2.251 . S
O192 Mg185 2.079 . S
O192 C194 1.273 . S
C193 O189 1.246 . S
C193 O190 1.259 . S
C194 O191 1.252 . S
C194 O192 1.273 . S
O195 Mg182 2.010 . S
O195 C187 1.249 1_655 S
Mg196 O197 2.028 . S
Mg196 O203 1.986 . S
Mg196 O205 2.114 . S
Mg196 O206 2.251 . S
Mg196 O209 2.010 . S
O197 Mg196 2.028 . S
O197 C200 1.250 . S
O198 Mg199 2.028 . S
O198 C200 1.248 . S
Mg199 O198 2.028 . S
Mg199 O204 2.032 . S
Mg199 O206 2.079 . S
C200 O197 1.250 . S
C200 O198 1.248 . S
C201 O202 1.264 . S
C201 O209 1.249 . S
O202 C201 1.264 . S
O203 Mg196 1.986 . S
O203 C207 1.246 . S
O204 Mg199 2.032 . S
O204 C207 1.259 . S
O205 Mg196 2.114 . S
O205 C208 1.252 . S
O206 Mg196 2.251 . S
O206 Mg199 2.079 . S
O206 C208 1.273 . S
C207 O203 1.246 . S
C207 O204 1.259 . S
C208 O205 1.252 . S
C208 O206 1.273 . S
O209 Mg196 2.010 . S
O209 C201 1.249 . S
Mg210 O211 2.028 . S
Mg210 O217 1.986 . S
Mg210 O219 2.114 . S
Mg210 O220 2.251 . S
Mg210 O223 2.010 . S
O211 Mg210 2.028 . S
O211 C214 1.250 . S
O212 Mg213 2.028 . S
O212 C214 1.248 . S
Mg213 O212 2.028 . S
Mg213 O218 2.032 . S
Mg213 O220 2.079 . S
C214 O211 1.250 . S
C214 O212 1.248 . S
C215 O216 1.264 . S
C215 O223 1.249 . S
O216 C215 1.264 . S
O217 Mg210 1.986 . S
O217 C221 1.246 . S
O218 Mg213 2.032 . S
O218 C221 1.259 . S
O219 Mg210 2.114 . S
O219 C222 1.252 . S
O220 Mg210 2.251 . S
O220 Mg213 2.079 . S
O220 C222 1.273 . S
C221 O217 1.246 . S
C221 O218 1.259 . S
C222 O219 1.252 . S
C222 O220 1.273 . S
O223 Mg210 2.010 . S
O223 C215 1.249 . S
Mg224 O225 2.028 . S
Mg224 O231 1.986 . S
Mg224 O233 2.114 . S
Mg224 O234 2.251 . S
Mg224 O237 2.010 . S
O225 Mg224 2.028 . S
O225 C228 1.250 . S
O226 Mg227 2.028 . S
O226 C228 1.248 . S
Mg227 O226 2.028 . S
Mg227 O232 2.032 . S
Mg227 O234 2.079 . S
C228 O225 1.250 . S
C228 O226 1.248 . S
C229 O230 1.264 . S
C229 O237 1.249 . S
O230 C229 1.264 . S
O231 Mg224 1.986 . S
O231 C235 1.246 . S
O232 Mg227 2.032 . S
O232 C235 1.259 . S
O233 Mg224 2.114 . S
O233 C236 1.252 . S
O234 Mg224 2.251 . S
O234 Mg227 2.079 . S
O234 C236 1.273 . S
C235 O231 1.246 . S
C235 O232 1.259 . S
C236 O233 1.252 . S
C236 O234 1.273 . S
O237 Mg224 2.010 . S
O237 C229 1.249 . S
Mg238 O239 2.028 . S
Mg238 O245 1.986 . S
Mg238 O247 2.114 . S
Mg238 O248 2.251 . S
Mg238 O251 2.010 . S
O239 Mg238 2.028 . S
O239 C242 1.250 . S
O240 Mg241 2.028 . S
O240 C242 1.248 . S
Mg241 O240 2.028 . S
Mg241 O246 2.032 . S
Mg241 O248 2.079 . S
C242 O239 1.250 . S
C242 O240 1.248 . S
C243 O244 1.264 . S
C243 O251 1.249 1_455 S
O244 C243 1.264 . S
O245 Mg238 1.986 . S
O245 C249 1.246 . S
O246 Mg241 2.032 . S
O246 C249 1.259 . S
O247 Mg238 2.114 . S
O247 C250 1.252 . S
O248 Mg238 2.251 . S
O248 Mg241 2.079 . S
O248 C250 1.273 . S
C249 O245 1.246 . S
C249 O246 1.259 . S
C250 O247 1.252 . S
C250 O248 1.273 . S
O251 Mg238 2.010 . S
O251 C243 1.249 1_655 S
H252 O278 0.856 . S
H253 O281 0.854 . S
H254 C289 0.930 . S
H255 C290 0.930 . S
H256 C292 0.930 . S
H257 C293 0.930 . S
H258 C295 0.931 . S
H259 C296 0.930 . S
H260 C298 0.930 . S
H261 C299 0.929 . S
H262 C301 0.930 . S
H263 C302 0.931 . S
H264 C304 0.930 . S
H265 C305 0.929 . S
H266 C307 0.931 . S
H267 C308 0.930 . S
H268 C310 0.930 . S
H269 C311 0.932 . S
H270 C313 0.930 . S
H271 C314 0.929 . S
H272 C316 0.931 . S
H273 C317 0.930 . S
H274 C319 0.929 . S
H275 C320 0.931 . S
H276 C322 0.930 . S
H277 C323 0.929 . S
O278 H252 0.856 . S
O278 C324 1.300 . S
O279 C324 1.209 . S
O280 C325 1.199 . S
O281 H253 0.854 . S
O281 C325 1.297 . S
C282 C283 1.404 . S
C282 C287 1.397 . S
C282 C288 1.492 . S
C283 C282 1.404 . S
C283 C284 1.396 . S
C283 C294 1.492 . S
C284 C283 1.396 . S
C284 C285 1.397 . S
C284 C300 1.509 . S
C285 C284 1.397 . S
C285 C286 1.412 . S
C285 C306 1.485 . S
C286 C285 1.412 . S
C286 C287 1.388 . S
C286 C312 1.490 . S
C287 C282 1.397 . S
C287 C286 1.388 . S
C287 C318 1.519 . S
C288 C282 1.492 . S
C288 C289 1.363 . S
C288 C293 1.390 . S
C289 H254 0.930 . S
C289 C288 1.363 . S
C289 C290 1.372 . S
C290 H255 0.930 . S
C290 C289 1.372 . S
C290 C291 1.383 . S
C291 C290 1.383 . S
C291 C292 1.395 . S
C292 H256 0.930 . S
C292 C291 1.395 . S
C292 C293 1.362 . S
C293 H257 0.930 . S
C293 C288 1.390 . S
C293 C292 1.362 . S
C294 C283 1.492 . S
C294 C295 1.377 . S
C294 C299 1.397 . S
C295 H258 0.931 . S
C295 C294 1.377 . S
C295 C296 1.376 . S
C296 H259 0.930 . S
C296 C295 1.376 . S
C296 C297 1.376 . S
C297 C296 1.376 . S
C297 C298 1.378 . S
C297 C324 1.486 . S
C298 H260 0.930 . S
C298 C297 1.378 . S
C298 C299 1.376 . S
C299 H261 0.929 . S
C299 C294 1.397 . S
C299 C298 1.376 . S
C300 C284 1.509 . S
C300 C301 1.391 . S
C300 C305 1.386 . S
C301 H262 0.930 . S
C301 C300 1.391 . S
C301 C302 1.375 . S
C302 H263 0.931 . S
C302 C301 1.375 . S
C302 C303 1.375 . S
C303 C302 1.375 . S
C303 C304 1.361 . S
C304 H264 0.930 . S
C304 C303 1.361 . S
C304 C305 1.399 . S
C305 H265 0.929 . S
C305 C300 1.386 . S
C305 C304 1.399 . S
C306 C285 1.485 . S
C306 C307 1.394 . S
C306 C311 1.360 . S
C307 H266 0.931 . S
C307 C306 1.394 . S
C307 C308 1.372 . S
C308 H267 0.930 . S
C308 C307 1.372 . S
C308 C309 1.397 . S
C309 C308 1.397 . S
C309 C310 1.390 . S
C309 C325 1.476 . S
C310 H268 0.930 . S
C310 C309 1.390 . S
C310 C311 1.366 . S
C311 H269 0.932 . S
C311 C306 1.360 . S
C311 C310 1.366 . S
C312 C286 1.490 . S
C312 C313 1.380 . S
C312 C317 1.386 . S
C313 H270 0.930 . S
C313 C312 1.380 . S
C313 C314 1.381 . S
C314 H271 0.929 . S
C314 C313 1.381 . S
C314 C315 1.371 . S
C315 C314 1.371 . S
C315 C316 1.380 . S
C316 H272 0.931 . S
C316 C315 1.380 . S
C316 C317 1.387 . S
C317 H273 0.930 . S
C317 C312 1.386 . S
C317 C316 1.387 . S
C318 C287 1.519 . S
C318 C319 1.377 . S
C318 C323 1.361 . S
C319 H274 0.929 . S
C319 C318 1.377 . S
C319 C320 1.386 . S
C320 H275 0.931 . S
C320 C319 1.386 . S
C320 C321 1.363 . S
C321 C320 1.363 . S
C321 C322 1.385 . S
C322 H276 0.930 . S
C322 C321 1.385 . S
C322 C323 1.396 . S
C323 H277 0.929 . S
C323 C318 1.361 . S
C323 C322 1.396 . S
C324 O278 1.300 . S
C324 O279 1.209 . S
C324 C297 1.486 . S
C325 O280 1.199 . S
C325 O281 1.297 . S
C325 C309 1.476 . S
H326 O352 0.856 . S
H327 O355 0.854 . S
H328 C363 0.930 . S
H329 C364 0.930 . S
H330 C366 0.930 . S
H331 C367 0.930 . S
H332 C369 0.931 . S
H333 C370 0.930 . S
H334 C372 0.930 . S
H335 C373 0.929 . S
H336 C375 0.930 . S
H337 C376 0.931 . S
H338 C378 0.930 . S
H339 C379 0.929 . S
H340 C381 0.931 . S
H341 C382 0.930 . S
H342 C384 0.930 . S
H343 C385 0.932 . S
H344 C387 0.930 . S
H345 C388 0.929 . S
H346 C390 0.931 . S
H347 C391 0.930 . S
H348 C393 0.929 . S
H349 C394 0.931 . S
H350 C396 0.930 . S
H351 C397 0.929 . S
O352 H326 0.856 . S
O352 C398 1.300 . S
O353 C398 1.209 . S
O354 C399 1.199 . S
O355 H327 0.854 . S
O355 C399 1.297 . S
C356 C357 1.404 . S
C356 C361 1.397 . S
C356 C362 1.492 . S
C357 C356 1.404 . S
C357 C358 1.396 . S
C357 C368 1.492 . S
C358 C357 1.396 . S
C358 C359 1.397 . S
C358 C374 1.509 . S
C359 C358 1.397 . S
C359 C360 1.412 . S
C359 C380 1.485 . S
C360 C359 1.412 . S
C360 C361 1.388 . S
C360 C386 1.490 . S
C361 C356 1.397 . S
C361 C360 1.388 . S
C361 C392 1.519 . S
C362 C356 1.492 . S
C362 C363 1.363 . S
C362 C367 1.390 . S
C363 H328 0.930 . S
C363 C362 1.363 . S
C363 C364 1.372 . S
C364 H329 0.930 . S
C364 C363 1.372 . S
C364 C365 1.383 . S
C365 C364 1.383 . S
C365 C366 1.395 . S
C366 H330 0.930 . S
C366 C365 1.395 . S
C366 C367 1.362 . S
C367 H331 0.930 . S
C367 C362 1.390 . S
C367 C366 1.362 . S
C368 C357 1.492 . S
C368 C369 1.377 . S
C368 C373 1.397 . S
C369 H332 0.931 . S
C369 C368 1.377 . S
C369 C370 1.376 . S
C370 H333 0.930 . S
C370 C369 1.376 . S
C370 C371 1.376 . S
C371 C370 1.376 . S
C371 C372 1.378 . S
C371 C398 1.486 . S
C372 H334 0.930 . S
C372 C371 1.378 . S
C372 C373 1.376 . S
C373 H335 0.929 . S
C373 C368 1.397 . S
C373 C372 1.376 . S
C374 C358 1.509 . S
C374 C375 1.391 . S
C374 C379 1.386 . S
C375 H336 0.930 . S
C375 C374 1.391 . S
C375 C376 1.375 . S
C376 H337 0.931 . S
C376 C375 1.375 . S
C376 C377 1.375 . S
C377 C376 1.375 . S
C377 C378 1.361 . S
C378 H338 0.930 . S
C378 C377 1.361 . S
C378 C379 1.399 . S
C379 H339 0.929 . S
C379 C374 1.386 . S
C379 C378 1.399 . S
C380 C359 1.485 . S
C380 C381 1.394 . S
C380 C385 1.360 . S
C381 H340 0.931 . S
C381 C380 1.394 . S
C381 C382 1.372 . S
C382 H341 0.930 . S
C382 C381 1.372 . S
C382 C383 1.397 . S
C383 C382 1.397 . S
C383 C384 1.390 . S
C383 C399 1.476 . S
C384 H342 0.930 . S
C384 C383 1.390 . S
C384 C385 1.366 . S
C385 H343 0.932 . S
C385 C380 1.360 . S
C385 C384 1.366 . S
C386 C360 1.490 . S
C386 C387 1.380 . S
C386 C391 1.386 . S
C387 H344 0.930 . S
C387 C386 1.380 . S
C387 C388 1.381 . S
C388 H345 0.929 . S
C388 C387 1.381 . S
C388 C389 1.371 . S
C389 C388 1.371 . S
C389 C390 1.380 . S
C390 H346 0.931 . S
C390 C389 1.380 . S
C390 C391 1.387 . S
C391 H347 0.930 . S
C391 C386 1.386 . S
C391 C390 1.387 . S
C392 C361 1.519 . S
C392 C393 1.377 . S
C392 C397 1.361 . S
C393 H348 0.929 . S
C393 C392 1.377 . S
C393 C394 1.386 . S
C394 H349 0.931 . S
C394 C393 1.386 . S
C394 C395 1.363 . S
C395 C394 1.363 . S
C395 C396 1.385 . S
C396 H350 0.930 . S
C396 C395 1.385 . S
C396 C397 1.396 . S
C397 H351 0.929 . S
C397 C392 1.361 . S
C397 C396 1.396 . S
C398 O352 1.300 . S
C398 O353 1.209 . S
C398 C371 1.486 . S
C399 O354 1.199 . S
C399 O355 1.297 . S
C399 C383 1.476 . S
H400 O426 0.856 . S
H401 O429 0.854 . S
H402 C437 0.930 . S
H403 C438 0.930 . S
H404 C440 0.930 . S
H405 C441 0.930 . S
H406 C443 0.931 . S
H407 C444 0.930 . S
H408 C446 0.930 . S
H409 C447 0.929 . S
H410 C449 0.930 . S
H411 C450 0.931 . S
H412 C452 0.930 . S
H413 C453 0.929 . S
H414 C455 0.931 . S
H415 C456 0.930 . S
H416 C458 0.930 . S
H417 C459 0.932 . S
H418 C461 0.930 . S
H419 C462 0.929 . S
H420 C464 0.931 . S
H421 C465 0.930 . S
H422 C467 0.929 . S
H423 C468 0.931 . S
H424 C470 0.930 . S
H425 C471 0.929 . S
O426 H400 0.856 . S
O426 C472 1.300 . S
O427 C472 1.209 . S
O428 C473 1.199 . S
O429 H401 0.854 . S
O429 C473 1.297 . S
C430 C431 1.404 . S
C430 C435 1.397 . S
C430 C436 1.492 . S
C431 C430 1.404 . S
C431 C432 1.396 . S
C431 C442 1.492 . S
C432 C431 1.396 . S
C432 C433 1.397 . S
C432 C448 1.509 . S
C433 C432 1.397 . S
C433 C434 1.412 . S
C433 C454 1.485 . S
C434 C433 1.412 . S
C434 C435 1.388 . S
C434 C460 1.490 . S
C435 C430 1.397 . S
C435 C434 1.388 . S
C435 C466 1.519 . S
C436 C430 1.492 . S
C436 C437 1.363 . S
C436 C441 1.390 . S
C437 H402 0.930 . S
C437 C436 1.363 . S
C437 C438 1.372 . S
C438 H403 0.930 . S
C438 C437 1.372 . S
C438 C439 1.383 . S
C439 C438 1.383 . S
C439 C440 1.395 . S
C440 H404 0.930 . S
C440 C439 1.395 . S
C440 C441 1.362 . S
C441 H405 0.930 . S
C441 C436 1.390 . S
C441 C440 1.362 . S
C442 C431 1.492 . S
C442 C443 1.377 . S
C442 C447 1.397 . S
C443 H406 0.931 . S
C443 C442 1.377 . S
C443 C444 1.376 . S
C444 H407 0.930 . S
C444 C443 1.376 . S
C444 C445 1.376 . S
C445 C444 1.376 . S
C445 C446 1.378 . S
C445 C472 1.486 . S
C446 H408 0.930 . S
C446 C445 1.378 . S
C446 C447 1.376 . S
C447 H409 0.929 . S
C447 C442 1.397 . S
C447 C446 1.376 . S
C448 C432 1.509 . S
C448 C449 1.391 . S
C448 C453 1.386 . S
C449 H410 0.930 . S
C449 C448 1.391 . S
C449 C450 1.375 . S
C450 H411 0.931 . S
C450 C449 1.375 . S
C450 C451 1.375 . S
C451 C450 1.375 . S
C451 C452 1.361 . S
C452 H412 0.930 . S
C452 C451 1.361 . S
C452 C453 1.399 . S
C453 H413 0.929 . S
C453 C448 1.386 . S
C453 C452 1.399 . S
C454 C433 1.485 . S
C454 C455 1.394 . S
C454 C459 1.360 . S
C455 H414 0.931 . S
C455 C454 1.394 . S
C455 C456 1.372 . S
C456 H415 0.930 . S
C456 C455 1.372 . S
C456 C457 1.397 . S
C457 C456 1.397 . S
C457 C458 1.390 . S
C457 C473 1.476 . S
C458 H416 0.930 . S
C458 C457 1.390 . S
C458 C459 1.366 . S
C459 H417 0.932 . S
C459 C454 1.360 . S
C459 C458 1.366 . S
C460 C434 1.490 . S
C460 C461 1.380 . S
C460 C465 1.386 . S
C461 H418 0.930 . S
C461 C460 1.380 . S
C461 C462 1.381 . S
C462 H419 0.929 . S
C462 C461 1.381 . S
C462 C463 1.371 . S
C463 C462 1.371 . S
C463 C464 1.380 . S
C464 H420 0.931 . S
C464 C463 1.380 . S
C464 C465 1.387 . S
C465 H421 0.930 . S
C465 C460 1.386 . S
C465 C464 1.387 . S
C466 C435 1.519 . S
C466 C467 1.377 . S
C466 C471 1.361 . S
C467 H422 0.929 . S
C467 C466 1.377 . S
C467 C468 1.386 . S
C468 H423 0.931 . S
C468 C467 1.386 . S
C468 C469 1.363 . S
C469 C468 1.363 . S
C469 C470 1.385 . S
C470 H424 0.930 . S
C470 C469 1.385 . S
C470 C471 1.396 . S
C471 H425 0.929 . S
C471 C466 1.361 . S
C471 C470 1.396 . S
C472 O426 1.300 . S
C472 O427 1.209 . S
C472 C445 1.486 . S
C473 O428 1.199 . S
C473 O429 1.297 . S
C473 C457 1.476 . S
H474 O500 0.856 . S
H475 O503 0.854 . S
H476 C511 0.930 . S
H477 C512 0.930 . S
H478 C514 0.930 . S
H479 C515 0.930 . S
H480 C517 0.931 . S
H481 C518 0.930 . S
H482 C520 0.930 . S
H483 C521 0.929 . S
H484 C523 0.930 . S
H485 C524 0.931 . S
H486 C526 0.930 . S
H487 C527 0.929 . S
H488 C529 0.931 . S
H489 C530 0.930 . S
H490 C532 0.930 . S
H491 C533 0.932 . S
H492 C535 0.930 . S
H493 C536 0.929 . S
H494 C538 0.931 . S
H495 C539 0.930 . S
H496 C541 0.929 . S
H497 C542 0.931 . S
H498 C544 0.930 . S
H499 C545 0.929 . S
O500 H474 0.856 . S
O500 C546 1.288 1_554 S
O501 C546 1.205 1_554 S
O502 C547 1.199 . S
O503 H475 0.854 . S
O503 C547 1.297 . S
C504 C505 1.404 . S
C504 C509 1.397 . S
C504 C510 1.492 . S
C505 C504 1.404 . S
C505 C506 1.396 . S
C505 C516 1.492 . S
C506 C505 1.396 . S
C506 C507 1.397 . S
C506 C522 1.509 . S
C507 C506 1.397 . S
C507 C508 1.412 . S
C507 C528 1.485 . S
C508 C507 1.412 . S
C508 C509 1.388 . S
C508 C534 1.490 . S
C509 C504 1.397 . S
C509 C508 1.388 . S
C509 C540 1.519 . S
C510 C504 1.492 . S
C510 C511 1.363 . S
C510 C515 1.390 . S
C511 H476 0.930 . S
C511 C510 1.363 . S
C511 C512 1.372 . S
C512 H477 0.930 . S
C512 C511 1.372 . S
C512 C513 1.383 . S
C513 C512 1.383 . S
C513 C514 1.395 . S
C514 H478 0.930 . S
C514 C513 1.395 . S
C514 C515 1.362 . S
C515 H479 0.930 . S
C515 C510 1.390 . S
C515 C514 1.362 . S
C516 C505 1.492 . S
C516 C517 1.377 . S
C516 C521 1.397 . S
C517 H480 0.931 . S
C517 C516 1.377 . S
C517 C518 1.376 . S
C518 H481 0.930 . S
C518 C517 1.376 . S
C518 C519 1.376 . S
C519 C518 1.376 . S
C519 C520 1.378 . S
C519 C546 1.502 . S
C520 H482 0.930 . S
C520 C519 1.378 . S
C520 C521 1.376 . S
C521 H483 0.929 . S
C521 C516 1.397 . S
C521 C520 1.376 . S
C522 C506 1.509 . S
C522 C523 1.391 . S
C522 C527 1.386 . S
C523 H484 0.930 . S
C523 C522 1.391 . S
C523 C524 1.375 . S
C524 H485 0.931 . S
C524 C523 1.375 . S
C524 C525 1.375 . S
C525 C524 1.375 . S
C525 C526 1.361 . S
C526 H486 0.930 . S
C526 C525 1.361 . S
C526 C527 1.399 . S
C527 H487 0.929 . S
C527 C522 1.386 . S
C527 C526 1.399 . S
C528 C507 1.485 . S
C528 C529 1.394 . S
C528 C533 1.360 . S
C529 H488 0.931 . S
C529 C528 1.394 . S
C529 C530 1.372 . S
C530 H489 0.930 . S
C530 C529 1.372 . S
C530 C531 1.397 . S
C531 C530 1.397 . S
C531 C532 1.390 . S
C531 C547 1.476 . S
C532 H490 0.930 . S
C532 C531 1.390 . S
C532 C533 1.366 . S
C533 H491 0.932 . S
C533 C528 1.360 . S
C533 C532 1.366 . S
C534 C508 1.490 . S
C534 C535 1.380 . S
C534 C539 1.386 . S
C535 H492 0.930 . S
C535 C534 1.380 . S
C535 C536 1.381 . S
C536 H493 0.929 . S
C536 C535 1.381 . S
C536 C537 1.371 . S
C537 C536 1.371 . S
C537 C538 1.380 . S
C538 H494 0.931 . S
C538 C537 1.380 . S
C538 C539 1.387 . S
C539 H495 0.930 . S
C539 C534 1.386 . S
C539 C538 1.387 . S
C540 C509 1.519 . S
C540 C541 1.377 . S
C540 C545 1.361 . S
C541 H496 0.929 . S
C541 C540 1.377 . S
C541 C542 1.386 . S
C542 H497 0.931 . S
C542 C541 1.386 . S
C542 C543 1.363 . S
C543 C542 1.363 . S
C543 C544 1.385 . S
C544 H498 0.930 . S
C544 C543 1.385 . S
C544 C545 1.396 . S
C545 H499 0.929 . S
C545 C540 1.361 . S
C545 C544 1.396 . S
C546 O500 1.288 1_556 S
C546 O501 1.205 1_556 S
C546 C519 1.502 . S
C547 O502 1.199 . S
C547 O503 1.297 . S
C547 C531 1.476 . S
H548 O574 0.856 . S
H549 O577 0.854 . S
H550 C585 0.930 . S
H551 C586 0.930 . S
H552 C588 0.930 . S
H553 C589 0.930 . S
H554 C591 0.931 . S
H555 C592 0.930 . S
H556 C594 0.930 . S
H557 C595 0.929 . S
H558 C597 0.930 . S
H559 C598 0.931 . S
H560 C600 0.930 . S
H561 C601 0.929 . S
H562 C603 0.931 . S
H563 C604 0.930 . S
H564 C606 0.930 . S
H565 C607 0.932 . S
H566 C609 0.930 . S
H567 C610 0.929 . S
H568 C612 0.931 . S
H569 C613 0.930 . S
H570 C615 0.929 . S
H571 C616 0.931 . S
H572 C618 0.930 . S
H573 C619 0.929 . S
O574 H548 0.856 . S
O574 C620 1.300 . S
O575 C620 1.209 . S
O576 C621 1.199 . S
O577 H549 0.854 . S
O577 C621 1.297 . S
C578 C579 1.404 . S
C578 C583 1.397 . S
C578 C584 1.492 . S
C579 C578 1.404 . S
C579 C580 1.396 . S
C579 C590 1.492 . S
C580 C579 1.396 . S
C580 C581 1.397 . S
C580 C596 1.509 . S
C581 C580 1.397 . S
C581 C582 1.412 . S
C581 C602 1.485 . S
C582 C581 1.412 . S
C582 C583 1.388 . S
C582 C608 1.490 . S
C583 C578 1.397 . S
C583 C582 1.388 . S
C583 C614 1.519 . S
C584 C578 1.492 . S
C584 C585 1.363 . S
C584 C589 1.390 . S
C585 H550 0.930 . S
C585 C584 1.363 . S
C585 C586 1.372 . S
C586 H551 0.930 . S
C586 C585 1.372 . S
C586 C587 1.383 . S
C587 C586 1.383 . S
C587 C588 1.395 . S
C588 H552 0.930 . S
C588 C587 1.395 . S
C588 C589 1.362 . S
C589 H553 0.930 . S
C589 C584 1.390 . S
C589 C588 1.362 . S
C590 C579 1.492 . S
C590 C591 1.377 . S
C590 C595 1.397 . S
C591 H554 0.931 . S
C591 C590 1.377 . S
C591 C592 1.376 . S
C592 H555 0.930 . S
C592 C591 1.376 . S
C592 C593 1.376 . S
C593 C592 1.376 . S
C593 C594 1.378 . S
C593 C620 1.486 1_556 S
C594 H556 0.930 . S
C594 C593 1.378 . S
C594 C595 1.376 . S
C595 H557 0.929 . S
C595 C590 1.397 . S
C595 C594 1.376 . S
C596 C580 1.509 . S
C596 C597 1.391 . S
C596 C601 1.386 . S
C597 H558 0.930 . S
C597 C596 1.391 . S
C597 C598 1.375 . S
C598 H559 0.931 . S
C598 C597 1.375 . S
C598 C599 1.375 . S
C599 C598 1.375 . S
C599 C600 1.361 . S
C600 H560 0.930 . S
C600 C599 1.361 . S
C600 C601 1.399 . S
C601 H561 0.929 . S
C601 C596 1.386 . S
C601 C600 1.399 . S
C602 C581 1.485 . S
C602 C603 1.394 . S
C602 C607 1.360 . S
C603 H562 0.931 . S
C603 C602 1.394 . S
C603 C604 1.372 . S
C604 H563 0.930 . S
C604 C603 1.372 . S
C604 C605 1.397 . S
C605 C604 1.397 . S
C605 C606 1.390 . S
C605 C621 1.476 . S
C606 H564 0.930 . S
C606 C605 1.390 . S
C606 C607 1.366 . S
C607 H565 0.932 . S
C607 C602 1.360 . S
C607 C606 1.366 . S
C608 C582 1.490 . S
C608 C609 1.380 . S
C608 C613 1.386 . S
C609 H566 0.930 . S
C609 C608 1.380 . S
C609 C610 1.381 . S
C610 H567 0.929 . S
C610 C609 1.381 . S
C610 C611 1.371 . S
C611 C610 1.371 . S
C611 C612 1.380 . S
C612 H568 0.931 . S
C612 C611 1.380 . S
C612 C613 1.387 . S
C613 H569 0.930 . S
C613 C608 1.386 . S
C613 C612 1.387 . S
C614 C583 1.519 . S
C614 C615 1.377 . S
C614 C619 1.361 . S
C615 H570 0.929 . S
C615 C614 1.377 . S
C615 C616 1.386 . S
C616 H571 0.931 . S
C616 C615 1.386 . S
C616 C617 1.363 . S
C617 C616 1.363 . S
C617 C618 1.385 . S
C618 H572 0.930 . S
C618 C617 1.385 . S
C618 C619 1.396 . S
C619 H573 0.929 . S
C619 C614 1.361 . S
C619 C618 1.396 . S
C620 O574 1.300 . S
C620 O575 1.209 . S
C620 C593 1.486 1_554 S
C621 O576 1.199 . S
C621 O577 1.297 . S
C621 C605 1.476 . S
H622 O648 0.856 . S
H623 O651 0.854 . S
H624 C659 0.930 . S
H625 C660 0.930 . S
H626 C662 0.930 . S
H627 C663 0.930 . S
H628 C665 0.931 . S
H629 C666 0.930 1_554 S
H630 C668 0.930 . S
H631 C669 0.929 . S
H632 C671 0.930 . S
H633 C672 0.931 . S
H634 C674 0.930 . S
H635 C675 0.929 . S
H636 C677 0.931 . S
H637 C678 0.930 . S
H638 C680 0.930 . S
H639 C681 0.932 . S
H640 C683 0.930 . S
H641 C684 0.929 . S
H642 C686 0.931 . S
H643 C687 0.930 . S
H644 C689 0.929 . S
H645 C690 0.931 . S
H646 C692 0.930 . S
H647 C693 0.929 . S
O648 H622 0.856 . S
O648 C694 1.300 . S
O649 C694 1.209 . S
O650 C695 1.199 . S
O651 H623 0.854 . S
O651 C695 1.297 . S
C652 C653 1.404 . S
C652 C657 1.397 . S
C652 C658 1.492 . S
C653 C652 1.404 . S
C653 C654 1.396 . S
C653 C664 1.492 . S
C654 C653 1.396 . S
C654 C655 1.397 . S
C654 C670 1.509 . S
C655 C654 1.397 . S
C655 C656 1.412 . S
C655 C676 1.485 . S
C656 C655 1.412 . S
C656 C657 1.388 . S
C656 C682 1.490 . S
C657 C652 1.397 . S
C657 C656 1.388 . S
C657 C688 1.519 . S
C658 C652 1.492 . S
C658 C659 1.363 . S
C658 C663 1.390 . S
C659 H624 0.930 . S
C659 C658 1.363 . S
C659 C660 1.372 . S
C660 H625 0.930 . S
C660 C659 1.372 . S
C660 C661 1.383 . S
C661 C660 1.383 . S
C661 C662 1.395 . S
C662 H626 0.930 . S
C662 C661 1.395 . S
C662 C663 1.362 . S
C663 H627 0.930 . S
C663 C658 1.390 . S
C663 C662 1.362 . S
C664 C653 1.492 . S
C664 C665 1.377 . S
C664 C669 1.397 . S
C665 H628 0.931 . S
C665 C664 1.377 . S
C665 C666 1.376 . S
C666 H629 0.930 1_556 S
C666 C665 1.376 . S
C666 C667 1.376 . S
C667 C666 1.376 . S
C667 C668 1.378 . S
C667 C694 1.486 1_556 S
C668 H630 0.930 . S
C668 C667 1.378 . S
C668 C669 1.376 . S
C669 H631 0.929 . S
C669 C664 1.397 . S
C669 C668 1.376 . S
C670 C654 1.509 . S
C670 C671 1.391 . S
C670 C675 1.386 . S
C671 H632 0.930 . S
C671 C670 1.391 . S
C671 C672 1.375 . S
C672 H633 0.931 . S
C672 C671 1.375 . S
C672 C673 1.375 . S
C673 C672 1.375 . S
C673 C674 1.361 . S
C674 H634 0.930 . S
C674 C673 1.361 . S
C674 C675 1.399 . S
C675 H635 0.929 . S
C675 C670 1.386 . S
C675 C674 1.399 . S
C676 C655 1.485 . S
C676 C677 1.394 . S
C676 C681 1.360 . S
C677 H636 0.931 . S
C677 C676 1.394 . S
C677 C678 1.372 . S
C678 H637 0.930 . S
C678 C677 1.372 . S
C678 C679 1.397 . S
C679 C678 1.397 . S
C679 C680 1.390 . S
C679 C695 1.476 . S
C680 H638 0.930 . S
C680 C679 1.390 . S
C680 C681 1.366 . S
C681 H639 0.932 . S
C681 C676 1.360 . S
C681 C680 1.366 . S
C682 C656 1.490 . S
C682 C683 1.380 . S
C682 C687 1.386 . S
C683 H640 0.930 . S
C683 C682 1.380 . S
C683 C684 1.381 . S
C684 H641 0.929 . S
C684 C683 1.381 . S
C684 C685 1.371 . S
C685 C684 1.371 . S
C685 C686 1.380 . S
C686 H642 0.931 . S
C686 C685 1.380 . S
C686 C687 1.387 . S
C687 H643 0.930 . S
C687 C682 1.386 . S
C687 C686 1.387 . S
C688 C657 1.519 . S
C688 C689 1.377 . S
C688 C693 1.361 . S
C689 H644 0.929 . S
C689 C688 1.377 . S
C689 C690 1.386 . S
C690 H645 0.931 . S
C690 C689 1.386 . S
C690 C691 1.363 . S
C691 C690 1.363 . S
C691 C692 1.385 . S
C692 H646 0.930 . S
C692 C691 1.385 . S
C692 C693 1.396 . S
C693 H647 0.929 . S
C693 C688 1.361 . S
C693 C692 1.396 . S
C694 O648 1.300 . S
C694 O649 1.209 . S
C694 C667 1.486 1_554 S
C695 O650 1.199 . S
C695 O651 1.297 . S
C695 C679 1.476 . S
H696 O722 0.856 . S
H697 O725 0.854 . S
H698 C733 0.930 . S
H699 C734 0.930 . S
H700 C736 0.930 . S
H701 C737 0.930 . S
H702 C739 0.931 . S
H703 C740 0.930 . S
H704 C742 0.930 . S
H705 C743 0.929 . S
H706 C745 0.930 . S
H707 C746 0.931 . S
H708 C748 0.930 . S
H709 C749 0.929 . S
H710 C751 0.931 . S
H711 C752 0.930 . S
H712 C754 0.930 . S
H713 C755 0.932 . S
H714 C757 0.930 . S
H715 C758 0.929 . S
H716 C760 0.931 . S
H717 C761 0.930 . S
H718 C763 0.929 . S
H719 C764 0.931 . S
H720 C766 0.930 . S
H721 C767 0.929 . S
O722 H696 0.856 . S
O722 C768 1.300 . S
O723 C768 1.209 . S
O724 C769 1.199 . S
O725 H697 0.854 . S
O725 C769 1.297 . S
C726 C727 1.404 . S
C726 C731 1.397 . S
C726 C732 1.492 . S
C727 C726 1.404 . S
C727 C728 1.396 . S
C727 C738 1.492 . S
C728 C727 1.396 . S
C728 C729 1.397 . S
C728 C744 1.509 . S
C729 C728 1.397 . S
C729 C730 1.412 . S
C729 C750 1.485 . S
C730 C729 1.412 . S
C730 C731 1.388 . S
C730 C756 1.490 . S
C731 C726 1.397 . S
C731 C730 1.388 . S
C731 C762 1.519 . S
C732 C726 1.492 . S
C732 C733 1.363 . S
C732 C737 1.390 . S
C733 H698 0.930 . S
C733 C732 1.363 . S
C733 C734 1.372 . S
C734 H699 0.930 . S
C734 C733 1.372 . S
C734 C735 1.383 . S
C735 C734 1.383 . S
C735 C736 1.395 . S
C736 H700 0.930 . S
C736 C735 1.395 . S
C736 C737 1.362 . S
C737 H701 0.930 . S
C737 C732 1.390 . S
C737 C736 1.362 . S
C738 C727 1.492 . S
C738 C739 1.377 . S
C738 C743 1.397 . S
C739 H702 0.931 . S
C739 C738 1.377 . S
C739 C740 1.376 . S
C740 H703 0.930 . S
C740 C739 1.376 . S
C740 C741 1.376 . S
C741 C740 1.376 . S
C741 C742 1.378 . S
C741 C768 1.486 . S
C742 H704 0.930 . S
C742 C741 1.378 . S
C742 C743 1.376 . S
C743 H705 0.929 . S
C743 C738 1.397 . S
C743 C742 1.376 . S
C744 C728 1.509 . S
C744 C745 1.391 . S
C744 C749 1.386 . S
C745 H706 0.930 . S
C745 C744 1.391 . S
C745 C746 1.375 . S
C746 H707 0.931 . S
C746 C745 1.375 . S
C746 C747 1.375 . S
C747 C746 1.375 . S
C747 C748 1.361 . S
C748 H708 0.930 . S
C748 C747 1.361 . S
C748 C749 1.399 . S
C749 H709 0.929 . S
C749 C744 1.386 . S
C749 C748 1.399 . S
C750 C729 1.485 . S
C750 C751 1.394 . S
C750 C755 1.360 . S
C751 H710 0.931 . S
C751 C750 1.394 . S
C751 C752 1.372 . S
C752 H711 0.930 . S
C752 C751 1.372 . S
C752 C753 1.397 . S
C753 C752 1.397 . S
C753 C754 1.390 . S
C753 C769 1.476 . S
C754 H712 0.930 . S
C754 C753 1.390 . S
C754 C755 1.366 . S
C755 H713 0.932 . S
C755 C750 1.360 . S
C755 C754 1.366 . S
C756 C730 1.490 . S
C756 C757 1.380 . S
C756 C761 1.386 . S
C757 H714 0.930 . S
C757 C756 1.380 . S
C757 C758 1.381 . S
C758 H715 0.929 . S
C758 C757 1.381 . S
C758 C759 1.371 . S
C759 C758 1.371 . S
C759 C760 1.380 . S
C760 H716 0.931 . S
C760 C759 1.380 . S
C760 C761 1.387 . S
C761 H717 0.930 . S
C761 C756 1.386 . S
C761 C760 1.387 . S
C762 C731 1.519 . S
C762 C763 1.377 . S
C762 C767 1.361 . S
C763 H718 0.929 . S
C763 C762 1.377 . S
C763 C764 1.386 . S
C764 H719 0.931 . S
C764 C763 1.386 . S
C764 C765 1.363 . S
C765 C764 1.363 . S
C765 C766 1.385 . S
C766 H720 0.930 . S
C766 C765 1.385 . S
C766 C767 1.396 . S
C767 H721 0.929 . S
C767 C762 1.361 . S
C767 C766 1.396 . S
C768 O722 1.300 . S
C768 O723 1.209 . S
C768 C741 1.486 . S
C769 O724 1.199 . S
C769 O725 1.297 . S
C769 C753 1.476 . S
H770 O796 0.856 . S
H771 O799 0.854 . S
H772 C807 0.930 . S
H773 C808 0.930 . S
H774 C810 0.930 . S
H775 C811 0.930 . S
H776 C813 0.931 . S
H777 C814 0.930 . S
H778 C816 0.930 . S
H779 C817 0.929 . S
H780 C819 0.930 . S
H781 C820 0.931 . S
H782 C822 0.930 . S
H783 C823 0.929 . S
H784 C825 0.931 . S
H785 C826 0.930 . S
H786 C828 0.930 . S
H787 C829 0.932 . S
H788 C831 0.930 . S
H789 C832 0.929 . S
H790 C834 0.931 . S
H791 C835 0.930 . S
H792 C837 0.929 . S
H793 C838 0.931 . S
H794 C840 0.930 . S
H795 C841 0.929 . S
O796 H770 0.856 . S
O796 C842 1.300 . S
O797 C842 1.209 . S
O798 C843 1.199 . S
O799 H771 0.854 . S
O799 C843 1.297 . S
C800 C801 1.404 . S
C800 C805 1.397 . S
C800 C806 1.492 . S
C801 C800 1.404 . S
C801 C802 1.396 . S
C801 C812 1.492 . S
C802 C801 1.396 . S
C802 C803 1.397 . S
C802 C818 1.509 . S
C803 C802 1.397 . S
C803 C804 1.412 . S
C803 C824 1.485 . S
C804 C803 1.412 . S
C804 C805 1.388 . S
C804 C830 1.490 . S
C805 C800 1.397 . S
C805 C804 1.388 . S
C805 C836 1.519 . S
C806 C800 1.492 . S
C806 C807 1.363 . S
C806 C811 1.390 . S
C807 H772 0.930 . S
C807 C806 1.363 . S
C807 C808 1.372 . S
C808 H773 0.930 . S
C808 C807 1.372 . S
C808 C809 1.383 . S
C809 C808 1.383 . S
C809 C810 1.395 . S
C810 H774 0.930 . S
C810 C809 1.395 . S
C810 C811 1.362 . S
C811 H775 0.930 . S
C811 C806 1.390 . S
C811 C810 1.362 . S
C812 C801 1.492 . S
C812 C813 1.377 . S
C812 C817 1.397 . S
C813 H776 0.931 . S
C813 C812 1.377 . S
C813 C814 1.376 . S
C814 H777 0.930 . S
C814 C813 1.376 . S
C814 C815 1.376 . S
C815 C814 1.376 . S
C815 C816 1.378 . S
C815 C842 1.486 . S
C816 H778 0.930 . S
C816 C815 1.378 . S
C816 C817 1.376 . S
C817 H779 0.929 . S
C817 C812 1.397 . S
C817 C816 1.376 . S
C818 C802 1.509 . S
C818 C819 1.391 . S
C818 C823 1.386 . S
C819 H780 0.930 . S
C819 C818 1.391 . S
C819 C820 1.375 . S
C820 H781 0.931 . S
C820 C819 1.375 . S
C820 C821 1.375 . S
C821 C820 1.375 . S
C821 C822 1.361 . S
C822 H782 0.930 . S
C822 C821 1.361 . S
C822 C823 1.399 . S
C823 H783 0.929 . S
C823 C818 1.386 . S
C823 C822 1.399 . S
C824 C803 1.485 . S
C824 C825 1.394 . S
C824 C829 1.360 . S
C825 H784 0.931 . S
C825 C824 1.394 . S
C825 C826 1.372 . S
C826 H785 0.930 . S
C826 C825 1.372 . S
C826 C827 1.397 . S
C827 C826 1.397 . S
C827 C828 1.390 . S
C827 C843 1.476 . S
C828 H786 0.930 . S
C828 C827 1.390 . S
C828 C829 1.366 . S
C829 H787 0.932 . S
C829 C824 1.360 . S
C829 C828 1.366 . S
C830 C804 1.490 . S
C830 C831 1.380 . S
C830 C835 1.386 . S
C831 H788 0.930 . S
C831 C830 1.380 . S
C831 C832 1.381 . S
C832 H789 0.929 . S
C832 C831 1.381 . S
C832 C833 1.371 . S
C833 C832 1.371 . S
C833 C834 1.380 . S
C834 H790 0.931 . S
C834 C833 1.380 . S
C834 C835 1.387 . S
C835 H791 0.930 . S
C835 C830 1.386 . S
C835 C834 1.387 . S
C836 C805 1.519 . S
C836 C837 1.377 . S
C836 C841 1.361 . S
C837 H792 0.929 . S
C837 C836 1.377 . S
C837 C838 1.386 . S
C838 H793 0.931 . S
C838 C837 1.386 . S
C838 C839 1.363 . S
C839 C838 1.363 . S
C839 C840 1.385 . S
C840 H794 0.930 . S
C840 C839 1.385 . S
C840 C841 1.396 . S
C841 H795 0.929 . S
C841 C836 1.361 . S
C841 C840 1.396 . S
C842 O796 1.300 . S
C842 O797 1.209 . S
C842 C815 1.486 . S
C843 O798 1.199 . S
C843 O799 1.297 . S
C843 C827 1.476 . S
H844 O870 0.856 . S
H845 O873 0.854 . S
H846 C881 0.930 . S
H847 C882 0.930 . S
H848 C884 0.930 . S
H849 C885 0.930 . S
H850 C887 0.931 . S
H851 C888 0.930 . S
H852 C890 0.930 . S
H853 C891 0.929 . S
H854 C893 0.930 . S
H855 C894 0.931 . S
H856 C896 0.930 . S
H857 C897 0.929 . S
H858 C899 0.931 . S
H859 C900 0.930 . S
H860 C902 0.930 . S
H861 C903 0.932 . S
H862 C905 0.930 . S
H863 C906 0.929 . S
H864 C908 0.931 . S
H865 C909 0.930 . S
H866 C911 0.929 . S
H867 C912 0.931 . S
H868 C914 0.930 . S
H869 C915 0.929 . S
O870 H844 0.856 . S
O870 C916 1.300 . S
O871 C916 1.209 . S
O872 C917 1.199 . S
O873 H845 0.854 . S
O873 C917 1.297 . S
C874 C875 1.404 . S
C874 C879 1.397 . S
C874 C880 1.492 . S
C875 C874 1.404 . S
C875 C876 1.396 . S
C875 C886 1.492 . S
C876 C875 1.396 . S
C876 C877 1.397 . S
C876 C892 1.509 . S
C877 C876 1.397 . S
C877 C878 1.412 . S
C877 C898 1.485 . S
C878 C877 1.412 . S
C878 C879 1.388 . S
C878 C904 1.490 . S
C879 C874 1.397 . S
C879 C878 1.388 . S
C879 C910 1.519 . S
C880 C874 1.492 . S
C880 C881 1.363 . S
C880 C885 1.390 . S
C881 H846 0.930 . S
C881 C880 1.363 . S
C881 C882 1.372 . S
C882 H847 0.930 . S
C882 C881 1.372 . S
C882 C883 1.383 . S
C883 C882 1.383 . S
C883 C884 1.395 . S
C884 H848 0.930 . S
C884 C883 1.395 . S
C884 C885 1.362 . S
C885 H849 0.930 . S
C885 C880 1.390 . S
C885 C884 1.362 . S
C886 C875 1.492 . S
C886 C887 1.377 . S
C886 C891 1.397 . S
C887 H850 0.931 . S
C887 C886 1.377 . S
C887 C888 1.376 . S
C888 H851 0.930 . S
C888 C887 1.376 . S
C888 C889 1.376 . S
C889 C888 1.376 . S
C889 C890 1.378 . S
C889 C916 1.486 . S
C890 H852 0.930 . S
C890 C889 1.378 . S
C890 C891 1.376 . S
C891 H853 0.929 . S
C891 C886 1.397 . S
C891 C890 1.376 . S
C892 C876 1.509 . S
C892 C893 1.391 . S
C892 C897 1.386 . S
C893 H854 0.930 . S
C893 C892 1.391 . S
C893 C894 1.375 . S
C894 H855 0.931 . S
C894 C893 1.375 . S
C894 C895 1.375 . S
C895 C894 1.375 . S
C895 C896 1.361 . S
C896 H856 0.930 . S
C896 C895 1.361 . S
C896 C897 1.399 . S
C897 H857 0.929 . S
C897 C892 1.386 . S
C897 C896 1.399 . S
C898 C877 1.485 . S
C898 C899 1.394 . S
C898 C903 1.360 . S
C899 H858 0.931 . S
C899 C898 1.394 . S
C899 C900 1.372 . S
C900 H859 0.930 . S
C900 C899 1.372 . S
C900 C901 1.397 . S
C901 C900 1.397 . S
C901 C902 1.390 . S
C901 C917 1.476 . S
C902 H860 0.930 . S
C902 C901 1.390 . S
C902 C903 1.366 . S
C903 H861 0.932 . S
C903 C898 1.360 . S
C903 C902 1.366 . S
C904 C878 1.490 . S
C904 C905 1.380 . S
C904 C909 1.386 . S
C905 H862 0.930 . S
C905 C904 1.380 . S
C905 C906 1.381 . S
C906 H863 0.929 . S
C906 C905 1.381 . S
C906 C907 1.371 . S
C907 C906 1.371 . S
C907 C908 1.380 . S
C908 H864 0.931 . S
C908 C907 1.380 . S
C908 C909 1.387 . S
C909 H865 0.930 . S
C909 C904 1.386 . S
C909 C908 1.387 . S
C910 C879 1.519 . S
C910 C911 1.377 . S
C910 C915 1.361 . S
C911 H866 0.929 . S
C911 C910 1.377 . S
C911 C912 1.386 . S
C912 H867 0.931 . S
C912 C911 1.386 . S
C912 C913 1.363 . S
C913 C912 1.363 . S
C913 C914 1.385 . S
C914 H868 0.930 . S
C914 C913 1.385 . S
C914 C915 1.396 . S
C915 H869 0.929 . S
C915 C910 1.361 . S
C915 C914 1.396 . S
C916 O870 1.300 . S
C916 O871 1.209 . S
C916 C889 1.486 . S
C917 O872 1.199 . S
C917 O873 1.297 . S
C917 C901 1.476 . S
H918 O944 0.856 . S
H919 O947 0.854 . S
H920 C955 0.930 . S
H921 C956 0.930 . S
H922 C958 0.930 . S
H923 C959 0.930 . S
H924 C961 0.931 . S
H925 C962 0.930 1_655 S
H926 C964 0.930 . S
H927 C965 0.929 . S
H928 C967 0.930 . S
H929 C968 0.932 . S
H930 C970 0.930 . S
H931 C971 0.929 . S
H932 C973 0.931 . S
H933 C974 0.930 . S
H934 C976 0.930 . S
H935 C977 0.932 . S
H936 C979 0.930 . S
H937 C980 0.929 . S
H938 C982 0.931 . S
H939 C983 0.930 . S
H940 C985 0.929 . S
H941 C986 0.931 . S
H942 C988 0.930 . S
H943 C989 0.929 . S
O944 H918 0.856 . S
O944 C990 1.300 . S
O945 C990 1.209 . S
O946 C991 1.199 1_655 S
O947 H919 0.854 . S
O947 C991 1.297 . S
C948 C949 1.404 . S
C948 C953 1.393 . S
C948 C954 1.492 . S
C949 C948 1.404 . S
C949 C950 1.396 . S
C949 C960 1.492 . S
C950 C949 1.396 . S
C950 C951 1.397 . S
C950 C966 1.509 . S
C951 C950 1.397 . S
C951 C952 1.426 . S
C951 C972 1.485 . S
C952 C951 1.426 . S
C952 C953 1.400 . S
C952 C978 1.491 1_455 S
C953 C948 1.393 . S
C953 C952 1.400 . S
C953 C984 1.496 1_455 S
C954 C948 1.492 . S
C954 C955 1.363 1_455 S
C954 C959 1.390 . S
C955 H920 0.930 . S
C955 C954 1.363 1_655 S
C955 C956 1.372 . S
C956 H921 0.930 . S
C956 C955 1.372 . S
C956 C957 1.383 . S
C957 C956 1.383 . S
C957 C958 1.395 1_655 S
C958 H922 0.930 . S
C958 C957 1.395 1_455 S
C958 C959 1.362 . S
C959 H923 0.930 . S
C959 C954 1.390 . S
C959 C958 1.362 . S
C960 C949 1.492 . S
C960 C961 1.377 1_455 S
C960 C965 1.397 . S
C961 H924 0.931 . S
C961 C960 1.377 1_655 S
C961 C962 1.375 1_655 S
C962 H925 0.930 1_455 S
C962 C961 1.375 1_455 S
C962 C963 1.376 . S
C963 C962 1.376 . S
C963 C964 1.378 . S
C963 C990 1.486 . S
C964 H926 0.930 . S
C964 C963 1.378 . S
C964 C965 1.376 . S
C965 H927 0.929 . S
C965 C960 1.397 . S
C965 C964 1.376 . S
C966 C950 1.509 . S
C966 C967 1.391 1_455 S
C966 C971 1.386 . S
C967 H928 0.930 . S
C967 C966 1.391 1_655 S
C967 C968 1.376 . S
C968 H929 0.932 . S
C968 C967 1.376 . S
C968 C969 1.373 1_655 S
C969 C968 1.373 1_455 S
C969 C970 1.361 . S
C970 H930 0.930 . S
C970 C969 1.361 . S
C970 C971 1.399 . S
C971 H931 0.929 . S
C971 C966 1.386 . S
C971 C970 1.399 . S
C972 C951 1.485 . S
C972 C973 1.394 1_455 S
C972 C977 1.360 . S
C973 H932 0.931 . S
C973 C972 1.394 1_655 S
C973 C974 1.372 . S
C974 H933 0.930 . S
C974 C973 1.372 . S
C974 C975 1.397 1_655 S
C975 C974 1.397 1_455 S
C975 C976 1.390 . S
C975 C991 1.476 . S
C976 H934 0.930 . S
C976 C975 1.390 . S
C976 C977 1.366 . S
C977 H935 0.932 . S
C977 C972 1.360 . S
C977 C976 1.366 . S
C978 C952 1.491 1_655 S
C978 C979 1.380 . S
C978 C983 1.386 1_655 S
C979 H936 0.930 . S
C979 C978 1.380 . S
C979 C980 1.381 . S
C980 H937 0.929 . S
C980 C979 1.381 . S
C980 C981 1.371 . S
C981 C980 1.371 . S
C981 C982 1.380 1_655 S
C982 H938 0.931 . S
C982 C981 1.380 1_455 S
C982 C983 1.387 . S
C983 H939 0.930 . S
C983 C978 1.386 1_455 S
C983 C982 1.387 . S
C984 C953 1.496 1_655 S
C984 C985 1.393 . S
C984 C989 1.350 1_655 S
C985 H940 0.929 . S
C985 C984 1.393 . S
C985 C986 1.386 . S
C986 H941 0.931 . S
C986 C985 1.386 . S
C986 C987 1.360 1_655 S
C987 C986 1.360 1_455 S
C987 C988 1.390 . S
C988 H942 0.930 . S
C988 C987 1.390 . S
C988 C989 1.396 . S
C989 H943 0.929 . S
C989 C984 1.350 1_455 S
C989 C988 1.396 . S
C990 O944 1.300 . S
C990 O945 1.209 . S
C990 C963 1.486 . S
C991 O946 1.199 1_455 S
C991 O947 1.297 . S
C991 C975 1.476 . S
H992 O1018 0.856 . S
H993 O1021 0.854 . S
H994 C1029 0.930 . S
H995 C1030 0.930 . S
H996 C1032 0.930 . S
H997 C1033 0.930 . S
H998 C1035 0.931 . S
H999 C1036 0.930 . S
H1000 C1038 0.930 . S
H1001 C1039 0.929 . S
H1002 C1041 0.930 . S
H1003 C1042 0.931 . S
H1004 C1044 0.930 . S
H1005 C1045 0.929 . S
H1006 C1047 0.931 . S
H1007 C1048 0.930 . S
H1008 C1050 0.930 . S
H1009 C1051 0.932 . S
H1010 C1053 0.930 . S
H1011 C1054 0.929 . S
H1012 C1056 0.931 . S
H1013 C1057 0.930 . S
H1014 C1059 0.929 . S
H1015 C1060 0.931 . S
H1016 C1062 0.930 . S
H1017 C1063 0.929 . S
O1018 H992 0.856 . S
O1018 C1064 1.300 . S
O1019 C1064 1.209 . S
O1020 C1065 1.199 . S
O1021 H993 0.854 . S
O1021 C1065 1.297 . S
C1022 C1023 1.404 . S
C1022 C1027 1.397 . S
C1022 C1028 1.492 . S
C1023 C1022 1.404 . S
C1023 C1024 1.396 . S
C1023 C1034 1.492 . S
C1024 C1023 1.396 . S
C1024 C1025 1.397 . S
C1024 C1040 1.509 . S
C1025 C1024 1.397 . S
C1025 C1026 1.412 . S
C1025 C1046 1.485 . S
C1026 C1025 1.412 . S
C1026 C1027 1.388 . S
C1026 C1052 1.490 . S
C1027 C1022 1.397 . S
C1027 C1026 1.388 . S
C1027 C1058 1.519 . S
C1028 C1022 1.492 . S
C1028 C1029 1.363 . S
C1028 C1033 1.390 . S
C1029 H994 0.930 . S
C1029 C1028 1.363 . S
C1029 C1030 1.372 . S
C1030 H995 0.930 . S
C1030 C1029 1.372 . S
C1030 C1031 1.383 . S
C1031 C1030 1.383 . S
C1031 C1032 1.395 . S
C1032 H996 0.930 . S
C1032 C1031 1.395 . S
C1032 C1033 1.362 . S
C1033 H997 0.930 . S
C1033 C1028 1.390 . S
C1033 C1032 1.362 . S
C1034 C1023 1.492 . S
C1034 C1035 1.377 . S
C1034 C1039 1.397 . S
C1035 H998 0.931 . S
C1035 C1034 1.377 . S
C1035 C1036 1.376 . S
C1036 H999 0.930 . S
C1036 C1035 1.376 . S
C1036 C1037 1.376 . S
C1037 C1036 1.376 . S
C1037 C1038 1.378 . S
C1037 C1064 1.486 . S
C1038 H1000 0.930 . S
C1038 C1037 1.378 . S
C1038 C1039 1.376 . S
C1039 H1001 0.929 . S
C1039 C1034 1.397 . S
C1039 C1038 1.376 . S
C1040 C1024 1.509 . S
C1040 C1041 1.391 . S
C1040 C1045 1.386 . S
C1041 H1002 0.930 . S
C1041 C1040 1.391 . S
C1041 C1042 1.375 . S
C1042 H1003 0.931 . S
C1042 C1041 1.375 . S
C1042 C1043 1.375 . S
C1043 C1042 1.375 . S
C1043 C1044 1.361 . S
C1044 H1004 0.930 . S
C1044 C1043 1.361 . S
C1044 C1045 1.399 . S
C1045 H1005 0.929 . S
C1045 C1040 1.386 . S
C1045 C1044 1.399 . S
C1046 C1025 1.485 . S
C1046 C1047 1.394 . S
C1046 C1051 1.360 . S
C1047 H1006 0.931 . S
C1047 C1046 1.394 . S
C1047 C1048 1.372 . S
C1048 H1007 0.930 . S
C1048 C1047 1.372 . S
C1048 C1049 1.397 . S
C1049 C1048 1.397 . S
C1049 C1050 1.390 . S
C1049 C1065 1.476 . S
C1050 H1008 0.930 . S
C1050 C1049 1.390 . S
C1050 C1051 1.366 . S
C1051 H1009 0.932 . S
C1051 C1046 1.360 . S
C1051 C1050 1.366 . S
C1052 C1026 1.490 . S
C1052 C1053 1.380 . S
C1052 C1057 1.386 . S
C1053 H1010 0.930 . S
C1053 C1052 1.380 . S
C1053 C1054 1.381 . S
C1054 H1011 0.929 . S
C1054 C1053 1.381 . S
C1054 C1055 1.371 . S
C1055 C1054 1.371 . S
C1055 C1056 1.380 . S
C1056 H1012 0.931 . S
C1056 C1055 1.380 . S
C1056 C1057 1.387 . S
C1057 H1013 0.930 . S
C1057 C1052 1.386 . S
C1057 C1056 1.387 . S
C1058 C1027 1.519 . S
C1058 C1059 1.377 . S
C1058 C1063 1.361 . S
C1059 H1014 0.929 . S
C1059 C1058 1.377 . S
C1059 C1060 1.386 . S
C1060 H1015 0.931 . S
C1060 C1059 1.386 . S
C1060 C1061 1.363 . S
C1061 C1060 1.363 . S
C1061 C1062 1.385 . S
C1062 H1016 0.930 . S
C1062 C1061 1.385 . S
C1062 C1063 1.396 . S
C1063 H1017 0.929 . S
C1063 C1058 1.361 . S
C1063 C1062 1.396 . S
C1064 O1018 1.300 . S
C1064 O1019 1.209 . S
C1064 C1037 1.486 . S
C1065 O1020 1.199 . S
C1065 O1021 1.297 . S
C1065 C1049 1.476 . S
H1066 O1092 0.856 . S
H1067 O1095 0.854 . S
H1068 C1103 0.930 . S
H1069 C1104 0.930 . S
H1070 C1106 0.930 . S
H1071 C1107 0.930 . S
H1072 C1109 0.931 . S
H1073 C1110 0.931 1_545 S
H1074 C1112 0.930 . S
H1075 C1113 0.929 . S
H1076 C1115 0.930 . S
H1077 C1116 0.940 . S
H1078 C1118 0.930 . S
H1079 C1119 0.929 . S
H1080 C1121 0.931 . S
H1081 C1122 0.930 . S
H1082 C1124 0.930 . S
H1083 C1125 0.932 . S
H1084 C1127 0.930 . S
H1085 C1128 0.929 . S
H1086 C1130 0.931 . S
H1087 C1131 0.930 . S
H1088 C1133 0.929 . S
H1089 C1134 0.931 . S
H1090 C1136 0.930 . S
H1091 C1137 0.929 . S
O1092 H1066 0.856 . S
O1092 C1138 1.300 . S
O1093 C1138 1.209 . S
O1094 C1139 1.199 1_545 S
O1095 H1067 0.854 . S
O1095 C1139 1.297 . S
C1096 C1097 1.404 . S
C1096 C1101 1.415 . S
C1096 C1102 1.492 . S
C1097 C1096 1.404 . S
C1097 C1098 1.396 . S
C1097 C1108 1.492 . S
C1098 C1097 1.396 . S
C1098 C1099 1.397 . S
C1098 C1114 1.509 . S
C1099 C1098 1.397 . S
C1099 C1100 1.408 . S
C1099 C1120 1.485 . S
C1100 C1099 1.408 . S
C1100 C1101 1.375 . S
C1100 C1126 1.481 1_565 S
C1101 C1096 1.415 . S
C1101 C1100 1.375 . S
C1101 C1132 1.538 1_565 S
C1102 C1096 1.492 . S
C1102 C1103 1.363 1_565 S
C1102 C1107 1.390 . S
C1103 H1068 0.930 . S
C1103 C1102 1.363 1_545 S
C1103 C1104 1.372 . S
C1104 H1069 0.930 . S
C1104 C1103 1.372 . S
C1104 C1105 1.383 . S
C1105 C1104 1.383 . S
C1105 C1106 1.395 1_545 S
C1106 H1070 0.930 . S
C1106 C1105 1.395 1_565 S
C1106 C1107 1.362 . S
C1107 H1071 0.930 . S
C1107 C1102 1.390 . S
C1107 C1106 1.362 . S
C1108 C1097 1.492 . S
C1108 C1109 1.377 1_565 S
C1108 C1113 1.397 . S
C1109 H1072 0.931 . S
C1109 C1108 1.377 1_545 S
C1109 C1110 1.376 1_545 S
C1110 H1073 0.931 1_565 S
C1110 C1109 1.376 1_565 S
C1110 C1111 1.374 . S
C1111 C1110 1.374 . S
C1111 C1112 1.378 . S
C1111 C1138 1.486 . S
C1112 H1074 0.930 . S
C1112 C1111 1.378 . S
C1112 C1113 1.376 . S
C1113 H1075 0.929 . S
C1113 C1108 1.397 . S
C1113 C1112 1.376 . S
C1114 C1098 1.509 . S
C1114 C1115 1.391 1_565 S
C1114 C1119 1.386 . S
C1115 H1076 0.930 . S
C1115 C1114 1.391 1_545 S
C1115 C1116 1.373 . S
C1116 H1077 0.940 . S
C1116 C1115 1.373 . S
C1116 C1117 1.368 1_545 S
C1117 C1116 1.368 1_565 S
C1117 C1118 1.361 . S
C1118 H1078 0.930 . S
C1118 C1117 1.361 . S
C1118 C1119 1.399 . S
C1119 H1079 0.929 . S
C1119 C1114 1.386 . S
C1119 C1118 1.399 . S
C1120 C1099 1.485 . S
C1120 C1121 1.394 1_565 S
C1120 C1125 1.360 . S
C1121 H1080 0.931 . S
C1121 C1120 1.394 1_545 S
C1121 C1122 1.372 . S
C1122 H1081 0.930 . S
C1122 C1121 1.372 . S
C1122 C1123 1.397 1_545 S
C1123 C1122 1.397 1_565 S
C1123 C1124 1.390 . S
C1123 C1139 1.476 . S
C1124 H1082 0.930 . S
C1124 C1123 1.390 . S
C1124 C1125 1.366 . S
C1125 H1083 0.932 . S
C1125 C1120 1.360 . S
C1125 C1124 1.366 . S
C1126 C1100 1.481 1_545 S
C1126 C1127 1.380 . S
C1126 C1131 1.386 1_545 S
C1127 H1084 0.930 . S
C1127 C1126 1.380 . S
C1127 C1128 1.381 . S
C1128 H1085 0.929 . S
C1128 C1127 1.381 . S
C1128 C1129 1.371 . S
C1129 C1128 1.371 . S
C1129 C1130 1.380 1_545 S
C1130 H1086 0.931 . S
C1130 C1129 1.380 1_565 S
C1130 C1131 1.387 . S
C1131 H1087 0.930 . S
C1131 C1126 1.386 1_565 S
C1131 C1130 1.387 . S
C1132 C1101 1.538 1_545 S
C1132 C1133 1.383 . S
C1132 C1137 1.350 1_545 S
C1133 H1088 0.929 . S
C1133 C1132 1.383 . S
C1133 C1134 1.386 . S
C1134 H1089 0.931 . S
C1134 C1133 1.386 . S
C1134 C1135 1.357 1_545 S
C1135 C1134 1.357 1_565 S
C1135 C1136 1.388 . S
C1136 H1090 0.930 . S
C1136 C1135 1.388 . S
C1136 C1137 1.396 . S
C1137 H1091 0.929 . S
C1137 C1132 1.350 1_565 S
C1137 C1136 1.396 . S
C1138 O1092 1.300 . S
C1138 O1093 1.209 . S
C1138 C1111 1.486 . S
C1139 O1094 1.199 1_565 S
C1139 O1095 1.297 . S
C1139 C1123 1.476 . S
H1140 O1166 0.856 . S
H1141 O1169 0.854 . S
H1142 C1177 0.930 . S
H1143 C1178 0.930 . S
H1144 C1180 0.930 . S
H1145 C1181 0.930 . S
H1146 C1183 0.931 . S
H1147 C1184 0.930 . S
H1148 C1186 0.930 . S
H1149 C1187 0.929 . S
H1150 C1189 0.930 . S
H1151 C1190 0.931 . S
H1152 C1192 0.930 . S
H1153 C1193 0.929 . S
H1154 C1195 0.931 . S
H1155 C1196 0.930 . S
H1156 C1198 0.930 . S
H1157 C1199 0.932 . S
H1158 C1201 0.930 . S
H1159 C1202 0.929 . S
H1160 C1204 0.931 . S
H1161 C1205 0.930 . S
H1162 C1207 0.929 . S
H1163 C1208 0.931 . S
H1164 C1210 0.930 . S
H1165 C1211 0.929 . S
O1166 H1140 0.856 . S
O1166 C1212 1.300 . S
O1167 C1212 1.209 1_565 S
O1168 C1213 1.199 1_545 S
O1169 H1141 0.854 . S
O1169 C1213 1.297 . S
C1170 C1171 1.404 . S
C1170 C1175 1.397 1_545 S
C1170 C1176 1.492 . S
C1171 C1170 1.404 . S
C1171 C1172 1.425 . S
C1171 C1182 1.492 . S
C1172 C1171 1.425 . S
C1172 C1173 1.383 1_545 S
C1172 C1188 1.503 . S
C1173 C1172 1.383 1_565 S
C1173 C1174 1.415 . S
C1173 C1194 1.490 . S
C1174 C1173 1.415 . S
C1174 C1175 1.378 . S
C1174 C1200 1.493 . S
C1175 C1170 1.397 1_565 S
C1175 C1174 1.378 . S
C1175 C1206 1.519 . S
C1176 C1170 1.492 . S
C1176 C1177 1.363 . S
C1176 C1181 1.390 1_545 S
C1177 H1142 0.930 . S
C1177 C1176 1.363 . S
C1177 C1178 1.372 . S
C1178 H1143 0.930 . S
C1178 C1177 1.372 . S
C1178 C1179 1.383 . S
C1179 C1178 1.383 . S
C1179 C1180 1.395 1_545 S
C1180 H1144 0.930 . S
C1180 C1179 1.395 1_565 S
C1180 C1181 1.362 . S
C1181 H1145 0.930 . S
C1181 C1176 1.390 1_565 S
C1181 C1180 1.362 . S
C1182 C1171 1.492 . S
C1182 C1183 1.377 . S
C1182 C1187 1.397 1_545 S
C1183 H1146 0.931 . S
C1183 C1182 1.377 . S
C1183 C1184 1.376 . S
C1184 H1147 0.930 . S
C1184 C1183 1.376 . S
C1184 C1185 1.376 . S
C1185 C1184 1.376 . S
C1185 C1186 1.378 1_545 S
C1185 C1212 1.486 . S
C1186 H1148 0.930 . S
C1186 C1185 1.378 1_565 S
C1186 C1187 1.376 . S
C1187 H1149 0.929 . S
C1187 C1182 1.397 1_565 S
C1187 C1186 1.376 . S
C1188 C1172 1.503 . S
C1188 C1189 1.407 . S
C1188 C1193 1.361 1_545 S
C1189 H1150 0.930 . S
C1189 C1188 1.407 . S
C1189 C1190 1.375 . S
C1190 H1151 0.931 . S
C1190 C1189 1.375 . S
C1190 C1191 1.371 . S
C1191 C1190 1.371 . S
C1191 C1192 1.364 1_545 S
C1192 H1152 0.930 . S
C1192 C1191 1.364 1_565 S
C1192 C1193 1.399 . S
C1193 H1153 0.929 . S
C1193 C1188 1.361 1_565 S
C1193 C1192 1.399 . S
C1194 C1173 1.490 . S
C1194 C1195 1.394 1_565 S
C1194 C1199 1.360 . S
C1195 H1154 0.931 . S
C1195 C1194 1.394 1_545 S
C1195 C1196 1.372 . S
C1196 H1155 0.930 . S
C1196 C1195 1.372 . S
C1196 C1197 1.397 1_545 S
C1197 C1196 1.397 1_565 S
C1197 C1198 1.390 . S
C1197 C1213 1.476 . S
C1198 H1156 0.930 . S
C1198 C1197 1.390 . S
C1198 C1199 1.366 . S
C1199 H1157 0.932 . S
C1199 C1194 1.360 . S
C1199 C1198 1.366 . S
C1200 C1174 1.493 . S
C1200 C1201 1.376 1_565 S
C1200 C1205 1.390 . S
C1201 H1158 0.930 . S
C1201 C1200 1.376 1_545 S
C1201 C1202 1.381 . S
C1202 H1159 0.929 . S
C1202 C1201 1.381 . S
C1202 C1203 1.371 . S
C1203 C1202 1.371 . S
C1203 C1204 1.380 1_545 S
C1204 H1160 0.931 . S
C1204 C1203 1.380 1_565 S
C1204 C1205 1.387 . S
C1205 H1161 0.930 . S
C1205 C1200 1.390 . S
C1205 C1204 1.387 . S
C1206 C1175 1.519 . S
C1206 C1207 1.377 1_565 S
C1206 C1211 1.361 . S
C1207 H1162 0.929 . S
C1207 C1206 1.377 1_545 S
C1207 C1208 1.386 . S
C1208 H1163 0.931 . S
C1208 C1207 1.386 . S
C1208 C1209 1.363 1_545 S
C1209 C1208 1.363 1_565 S
C1209 C1210 1.385 . S
C1210 H1164 0.930 . S
C1210 C1209 1.385 . S
C1210 C1211 1.396 . S
C1211 H1165 0.929 . S
C1211 C1206 1.361 . S
C1211 C1210 1.396 . S
C1212 O1166 1.300 . S
C1212 O1167 1.209 1_545 S
C1212 C1185 1.486 . S
C1213 O1168 1.199 1_565 S
C1213 O1169 1.297 . S
C1213 C1197 1.476 . S
H1214 O1240 0.856 . S
H1215 O1243 0.854 . S
H1216 C1251 0.930 . S
H1217 C1252 0.930 . S
H1218 C1254 0.930 . S
H1219 C1255 0.930 . S
H1220 C1257 0.931 . S
H1221 C1258 0.930 . S
H1222 C1260 0.930 . S
H1223 C1261 0.929 . S
H1224 C1263 0.930 . S
H1225 C1264 0.931 . S
H1226 C1266 0.930 . S
H1227 C1267 0.929 . S
H1228 C1269 0.931 . S
H1229 C1270 0.930 . S
H1230 C1272 0.930 . S
H1231 C1273 0.932 . S
H1232 C1275 0.930 . S
H1233 C1276 0.929 . S
H1234 C1278 0.931 . S
H1235 C1279 0.930 . S
H1236 C1281 0.929 . S
H1237 C1282 0.931 . S
H1238 C1284 0.930 . S
H1239 C1285 0.929 . S
O1240 H1214 0.856 . S
O1240 C1286 1.300 . S
O1241 C1286 1.209 1_455 S
O1242 C1287 1.199 1_655 S
O1243 H1215 0.854 . S
O1243 C1287 1.297 . S
C1244 C1245 1.404 . S
C1244 C1249 1.396 1_655 S
C1244 C1250 1.492 . S
C1245 C1244 1.404 . S
C1245 C1246 1.396 . S
C1245 C1256 1.492 . S
C1246 C1245 1.396 . S
C1246 C1247 1.397 . S
C1246 C1262 1.509 . S
C1247 C1246 1.397 . S
C1247 C1248 1.398 1_655 S
C1247 C1268 1.487 1_655 S
C1248 C1247 1.398 1_455 S
C1248 C1249 1.412 . S
C1248 C1274 1.485 . S
C1249 C1244 1.396 1_455 S
C1249 C1248 1.412 . S
C1249 C1280 1.515 . S
C1250 C1244 1.492 . S
C1250 C1251 1.363 . S
C1250 C1255 1.390 1_655 S
C1251 H1216 0.930 . S
C1251 C1250 1.363 . S
C1251 C1252 1.372 . S
C1252 H1217 0.930 . S
C1252 C1251 1.372 . S
C1252 C1253 1.383 . S
C1253 C1252 1.383 . S
C1253 C1254 1.395 1_655 S
C1254 H1218 0.930 . S
C1254 C1253 1.395 1_455 S
C1254 C1255 1.362 . S
C1255 H1219 0.930 . S
C1255 C1250 1.390 1_455 S
C1255 C1254 1.362 . S
C1256 C1245 1.492 . S
C1256 C1257 1.377 . S
C1256 C1261 1.397 1_655 S
C1257 H1220 0.931 . S
C1257 C1256 1.377 . S
C1257 C1258 1.376 . S
C1258 H1221 0.930 . S
C1258 C1257 1.376 . S
C1258 C1259 1.376 . S
C1259 C1258 1.376 . S
C1259 C1260 1.378 1_655 S
C1259 C1286 1.486 . S
C1260 H1222 0.930 . S
C1260 C1259 1.378 1_455 S
C1260 C1261 1.376 . S
C1261 H1223 0.929 . S
C1261 C1256 1.397 1_455 S
C1261 C1260 1.376 . S
C1262 C1246 1.509 . S
C1262 C1263 1.391 . S
C1262 C1267 1.386 1_655 S
C1263 H1224 0.930 . S
C1263 C1262 1.391 . S
C1263 C1264 1.375 . S
C1264 H1225 0.931 . S
C1264 C1263 1.375 . S
C1264 C1265 1.375 . S
C1265 C1264 1.375 . S
C1265 C1266 1.361 1_655 S
C1266 H1226 0.930 . S
C1266 C1265 1.361 1_455 S
C1266 C1267 1.399 . S
C1267 H1227 0.929 . S
C1267 C1262 1.386 1_455 S
C1267 C1266 1.399 . S
C1268 C1247 1.487 1_455 S
C1268 C1269 1.394 1_455 S
C1268 C1273 1.360 . S
C1269 H1228 0.931 . S
C1269 C1268 1.394 1_655 S
C1269 C1270 1.372 . S
C1270 H1229 0.930 . S
C1270 C1269 1.372 . S
C1270 C1271 1.397 1_655 S
C1271 C1270 1.397 1_455 S
C1271 C1272 1.390 . S
C1271 C1287 1.476 . S
C1272 H1230 0.930 . S
C1272 C1271 1.390 . S
C1272 C1273 1.366 . S
C1273 H1231 0.932 . S
C1273 C1268 1.360 . S
C1273 C1272 1.366 . S
C1274 C1248 1.485 . S
C1274 C1275 1.380 1_455 S
C1274 C1279 1.386 . S
C1275 H1232 0.930 . S
C1275 C1274 1.380 1_655 S
C1275 C1276 1.381 . S
C1276 H1233 0.929 . S
C1276 C1275 1.381 . S
C1276 C1277 1.371 1_655 S
C1277 C1276 1.371 1_455 S
C1277 C1278 1.380 . S
C1278 H1234 0.931 . S
C1278 C1277 1.380 . S
C1278 C1279 1.387 . S
C1279 H1235 0.930 . S
C1279 C1274 1.386 . S
C1279 C1278 1.387 . S
C1280 C1249 1.515 . S
C1280 C1281 1.377 1_455 S
C1280 C1285 1.361 . S
C1281 H1236 0.929 . S
C1281 C1280 1.377 1_655 S
C1281 C1282 1.386 . S
C1282 H1237 0.931 . S
C1282 C1281 1.386 . S
C1282 C1283 1.363 1_655 S
C1283 C1282 1.363 1_455 S
C1283 C1284 1.385 . S
C1284 H1238 0.930 . S
C1284 C1283 1.385 . S
C1284 C1285 1.396 . S
C1285 H1239 0.929 . S
C1285 C1280 1.361 . S
C1285 C1284 1.396 . S
C1286 O1240 1.300 . S
C1286 O1241 1.209 1_655 S
C1286 C1259 1.486 . S
C1287 O1242 1.199 1_455 S
C1287 O1243 1.297 . S
C1287 C1271 1.476 . S
H1288 O1314 0.856 . S
H1289 O1317 0.854 . S
H1290 C1325 0.930 . S
H1291 C1326 0.930 . S
H1292 C1328 0.930 . S
H1293 C1329 0.930 . S
H1294 C1331 0.931 . S
H1295 C1332 0.930 . S
H1296 C1334 0.930 . S
H1297 C1335 0.929 . S
H1298 C1337 0.930 . S
H1299 C1338 0.931 . S
H1300 C1340 0.930 . S
H1301 C1341 0.929 . S
H1302 C1343 0.931 . S
H1303 C1344 0.930 . S
H1304 C1346 0.930 . S
H1305 C1347 0.932 . S
H1306 C1349 0.930 . S
H1307 C1350 0.929 . S
H1308 C1352 0.931 . S
H1309 C1353 0.930 . S
H1310 C1355 0.929 . S
H1311 C1356 0.931 . S
H1312 C1358 0.930 . S
H1313 C1359 0.929 . S
O1314 H1288 0.856 . S
O1314 C1360 1.300 . S
O1315 C1360 1.209 . S
O1316 C1361 1.199 . S
O1317 H1289 0.854 . S
O1317 C1361 1.297 . S
C1318 C1319 1.404 . S
C1318 C1323 1.397 . S
C1318 C1324 1.492 . S
C1319 C1318 1.404 . S
C1319 C1320 1.396 . S
C1319 C1330 1.492 . S
C1320 C1319 1.396 . S
C1320 C1321 1.397 . S
C1320 C1336 1.509 . S
C1321 C1320 1.397 . S
C1321 C1322 1.412 . S
C1321 C1342 1.485 . S
C1322 C1321 1.412 . S
C1322 C1323 1.388 . S
C1322 C1348 1.490 . S
C1323 C1318 1.397 . S
C1323 C1322 1.388 . S
C1323 C1354 1.519 . S
C1324 C1318 1.492 . S
C1324 C1325 1.363 . S
C1324 C1329 1.390 . S
C1325 H1290 0.930 . S
C1325 C1324 1.363 . S
C1325 C1326 1.372 . S
C1326 H1291 0.930 . S
C1326 C1325 1.372 . S
C1326 C1327 1.383 . S
C1327 C1326 1.383 . S
C1327 C1328 1.395 . S
C1328 H1292 0.930 . S
C1328 C1327 1.395 . S
C1328 C1329 1.362 . S
C1329 H1293 0.930 . S
C1329 C1324 1.390 . S
C1329 C1328 1.362 . S
C1330 C1319 1.492 . S
C1330 C1331 1.377 . S
C1330 C1335 1.397 . S
C1331 H1294 0.931 . S
C1331 C1330 1.377 . S
C1331 C1332 1.376 . S
C1332 H1295 0.930 . S
C1332 C1331 1.376 . S
C1332 C1333 1.376 . S
C1333 C1332 1.376 . S
C1333 C1334 1.378 . S
C1333 C1360 1.486 . S
C1334 H1296 0.930 . S
C1334 C1333 1.378 . S
C1334 C1335 1.376 . S
C1335 H1297 0.929 . S
C1335 C1330 1.397 . S
C1335 C1334 1.376 . S
C1336 C1320 1.509 . S
C1336 C1337 1.391 . S
C1336 C1341 1.386 . S
C1337 H1298 0.930 . S
C1337 C1336 1.391 . S
C1337 C1338 1.375 . S
C1338 H1299 0.931 . S
C1338 C1337 1.375 . S
C1338 C1339 1.375 . S
C1339 C1338 1.375 . S
C1339 C1340 1.361 . S
C1340 H1300 0.930 . S
C1340 C1339 1.361 . S
C1340 C1341 1.399 . S
C1341 H1301 0.929 . S
C1341 C1336 1.386 . S
C1341 C1340 1.399 . S
C1342 C1321 1.485 . S
C1342 C1343 1.394 . S
C1342 C1347 1.360 . S
C1343 H1302 0.931 . S
C1343 C1342 1.394 . S
C1343 C1344 1.372 . S
C1344 H1303 0.930 . S
C1344 C1343 1.372 . S
C1344 C1345 1.397 . S
C1345 C1344 1.397 . S
C1345 C1346 1.390 . S
C1345 C1361 1.476 . S
C1346 H1304 0.930 . S
C1346 C1345 1.390 . S
C1346 C1347 1.366 . S
C1347 H1305 0.932 . S
C1347 C1342 1.360 . S
C1347 C1346 1.366 . S
C1348 C1322 1.490 . S
C1348 C1349 1.380 . S
C1348 C1353 1.386 . S
C1349 H1306 0.930 . S
C1349 C1348 1.380 . S
C1349 C1350 1.381 . S
C1350 H1307 0.929 . S
C1350 C1349 1.381 . S
C1350 C1351 1.371 . S
C1351 C1350 1.371 . S
C1351 C1352 1.380 . S
C1352 H1308 0.931 . S
C1352 C1351 1.380 . S
C1352 C1353 1.387 . S
C1353 H1309 0.930 . S
C1353 C1348 1.386 . S
C1353 C1352 1.387 . S
C1354 C1323 1.519 . S
C1354 C1355 1.377 . S
C1354 C1359 1.361 . S
C1355 H1310 0.929 . S
C1355 C1354 1.377 . S
C1355 C1356 1.386 . S
C1356 H1311 0.931 . S
C1356 C1355 1.386 . S
C1356 C1357 1.363 . S
C1357 C1356 1.363 . S
C1357 C1358 1.385 . S
C1358 H1312 0.930 . S
C1358 C1357 1.385 . S
C1358 C1359 1.396 . S
C1359 H1313 0.929 . S
C1359 C1354 1.361 . S
C1359 C1358 1.396 . S
C1360 O1314 1.300 . S
C1360 O1315 1.209 . S
C1360 C1333 1.486 . S
C1361 O1316 1.199 . S
C1361 O1317 1.297 . S
C1361 C1345 1.476 . S
H1362 O1388 0.856 . S
H1363 O1391 0.854 . S
H1364 C1399 0.930 . S
H1365 C1400 0.930 . S
H1366 C1402 0.930 . S
H1367 C1403 0.930 . S
H1368 C1405 0.931 . S
H1369 C1406 0.930 . S
H1370 C1408 0.930 . S
H1371 C1409 0.929 . S
H1372 C1411 0.930 . S
H1373 C1412 0.931 . S
H1374 C1414 0.930 . S
H1375 C1415 0.929 . S
H1376 C1417 0.931 . S
H1377 C1418 0.930 . S
H1378 C1420 0.930 . S
H1379 C1421 0.932 . S
H1380 C1423 0.930 . S
H1381 C1424 0.929 . S
H1382 C1426 0.931 . S
H1383 C1427 0.930 . S
H1384 C1429 0.929 . S
H1385 C1430 0.931 . S
H1386 C1432 0.930 . S
H1387 C1433 0.929 . S
O1388 H1362 0.856 . S
O1388 C1434 1.300 . S
O1389 C1434 1.209 . S
O1390 C1435 1.199 . S
O1391 H1363 0.854 . S
O1391 C1435 1.297 . S
C1392 C1393 1.404 . S
C1392 C1397 1.397 . S
C1392 C1398 1.492 . S
C1393 C1392 1.404 . S
C1393 C1394 1.396 . S
C1393 C1404 1.492 . S
C1394 C1393 1.396 . S
C1394 C1395 1.397 . S
C1394 C1410 1.509 . S
C1395 C1394 1.397 . S
C1395 C1396 1.412 . S
C1395 C1416 1.485 . S
C1396 C1395 1.412 . S
C1396 C1397 1.388 . S
C1396 C1422 1.490 . S
C1397 C1392 1.397 . S
C1397 C1396 1.388 . S
C1397 C1428 1.519 . S
C1398 C1392 1.492 . S
C1398 C1399 1.363 . S
C1398 C1403 1.390 . S
C1399 H1364 0.930 . S
C1399 C1398 1.363 . S
C1399 C1400 1.372 . S
C1400 H1365 0.930 . S
C1400 C1399 1.372 . S
C1400 C1401 1.383 . S
C1401 C1400 1.383 . S
C1401 C1402 1.395 . S
C1402 H1366 0.930 . S
C1402 C1401 1.395 . S
C1402 C1403 1.362 . S
C1403 H1367 0.930 . S
C1403 C1398 1.390 . S
C1403 C1402 1.362 . S
C1404 C1393 1.492 . S
C1404 C1405 1.377 . S
C1404 C1409 1.397 . S
C1405 H1368 0.931 . S
C1405 C1404 1.377 . S
C1405 C1406 1.376 . S
C1406 H1369 0.930 . S
C1406 C1405 1.376 . S
C1406 C1407 1.376 . S
C1407 C1406 1.376 . S
C1407 C1408 1.378 . S
C1407 C1434 1.486 . S
C1408 H1370 0.930 . S
C1408 C1407 1.378 . S
C1408 C1409 1.376 . S
C1409 H1371 0.929 . S
C1409 C1404 1.397 . S
C1409 C1408 1.376 . S
C1410 C1394 1.509 . S
C1410 C1411 1.391 . S
C1410 C1415 1.386 . S
C1411 H1372 0.930 . S
C1411 C1410 1.391 . S
C1411 C1412 1.375 . S
C1412 H1373 0.931 . S
C1412 C1411 1.375 . S
C1412 C1413 1.375 . S
C1413 C1412 1.375 . S
C1413 C1414 1.361 . S
C1414 H1374 0.930 . S
C1414 C1413 1.361 . S
C1414 C1415 1.399 . S
C1415 H1375 0.929 . S
C1415 C1410 1.386 . S
C1415 C1414 1.399 . S
C1416 C1395 1.485 . S
C1416 C1417 1.394 . S
C1416 C1421 1.360 . S
C1417 H1376 0.931 . S
C1417 C1416 1.394 . S
C1417 C1418 1.372 . S
C1418 H1377 0.930 . S
C1418 C1417 1.372 . S
C1418 C1419 1.397 . S
C1419 C1418 1.397 . S
C1419 C1420 1.390 . S
C1419 C1435 1.476 . S
C1420 H1378 0.930 . S
C1420 C1419 1.390 . S
C1420 C1421 1.366 . S
C1421 H1379 0.932 . S
C1421 C1416 1.360 . S
C1421 C1420 1.366 . S
C1422 C1396 1.490 . S
C1422 C1423 1.380 . S
C1422 C1427 1.386 . S
C1423 H1380 0.930 . S
C1423 C1422 1.380 . S
C1423 C1424 1.381 . S
C1424 H1381 0.929 . S
C1424 C1423 1.381 . S
C1424 C1425 1.371 . S
C1425 C1424 1.371 . S
C1425 C1426 1.380 . S
C1426 H1382 0.931 . S
C1426 C1425 1.380 . S
C1426 C1427 1.387 . S
C1427 H1383 0.930 . S
C1427 C1422 1.386 . S
C1427 C1426 1.387 . S
C1428 C1397 1.519 . S
C1428 C1429 1.377 . S
C1428 C1433 1.361 . S
C1429 H1384 0.929 . S
C1429 C1428 1.377 . S
C1429 C1430 1.386 . S
C1430 H1385 0.931 . S
C1430 C1429 1.386 . S
C1430 C1431 1.363 . S
C1431 C1430 1.363 . S
C1431 C1432 1.385 . S
C1432 H1386 0.930 . S
C1432 C1431 1.385 . S
C1432 C1433 1.396 . S
C1433 H1387 0.929 . S
C1433 C1428 1.361 . S
C1433 C1432 1.396 . S
C1434 O1388 1.300 . S
C1434 O1389 1.209 . S
C1434 C1407 1.486 . S
C1435 O1390 1.199 . S
C1435 O1391 1.297 . S
C1435 C1419 1.476 . S
H1436 O1462 0.856 . S
H1437 O1465 0.854 . S
H1438 C1473 0.930 . S
H1439 C1474 0.930 . S
H1440 C1476 0.930 . S
H1441 C1477 0.930 . S
H1442 C1479 0.931 . S
H1443 C1480 0.930 . S
H1444 C1482 0.930 . S
H1445 C1483 0.929 . S
H1446 C1485 0.930 . S
H1447 C1486 0.931 . S
H1448 C1488 0.930 . S
H1449 C1489 0.929 . S
H1450 C1491 0.931 . S
H1451 C1492 0.930 . S
H1452 C1494 0.930 . S
H1453 C1495 0.932 . S
H1454 C1497 0.930 . S
H1455 C1498 0.929 . S
H1456 C1500 0.931 . S
H1457 C1501 0.930 . S
H1458 C1503 0.929 . S
H1459 C1504 0.931 . S
H1460 C1506 0.930 . S
H1461 C1507 0.929 . S
O1462 H1436 0.856 . S
O1462 C1508 1.300 . S
O1463 C1508 1.209 . S
O1464 C1509 1.199 . S
O1465 H1437 0.854 . S
O1465 C1509 1.297 . S
C1466 C1467 1.404 . S
C1466 C1471 1.397 . S
C1466 C1472 1.492 . S
C1467 C1466 1.404 . S
C1467 C1468 1.396 . S
C1467 C1478 1.492 . S
C1468 C1467 1.396 . S
C1468 C1469 1.397 . S
C1468 C1484 1.509 . S
C1469 C1468 1.397 . S
C1469 C1470 1.412 . S
C1469 C1490 1.485 . S
C1470 C1469 1.412 . S
C1470 C1471 1.388 . S
C1470 C1496 1.490 . S
C1471 C1466 1.397 . S
C1471 C1470 1.388 . S
C1471 C1502 1.519 . S
C1472 C1466 1.492 . S
C1472 C1473 1.363 . S
C1472 C1477 1.390 . S
C1473 H1438 0.930 . S
C1473 C1472 1.363 . S
C1473 C1474 1.372 . S
C1474 H1439 0.930 . S
C1474 C1473 1.372 . S
C1474 C1475 1.383 . S
C1475 C1474 1.383 . S
C1475 C1476 1.395 . S
C1476 H1440 0.930 . S
C1476 C1475 1.395 . S
C1476 C1477 1.362 . S
C1477 H1441 0.930 . S
C1477 C1472 1.390 . S
C1477 C1476 1.362 . S
C1478 C1467 1.492 . S
C1478 C1479 1.377 . S
C1478 C1483 1.397 . S
C1479 H1442 0.931 . S
C1479 C1478 1.377 . S
C1479 C1480 1.376 . S
C1480 H1443 0.930 . S
C1480 C1479 1.376 . S
C1480 C1481 1.376 . S
C1481 C1480 1.376 . S
C1481 C1482 1.378 . S
C1481 C1508 1.486 . S
C1482 H1444 0.930 . S
C1482 C1481 1.378 . S
C1482 C1483 1.376 . S
C1483 H1445 0.929 . S
C1483 C1478 1.397 . S
C1483 C1482 1.376 . S
C1484 C1468 1.509 . S
C1484 C1485 1.391 . S
C1484 C1489 1.386 . S
C1485 H1446 0.930 . S
C1485 C1484 1.391 . S
C1485 C1486 1.375 . S
C1486 H1447 0.931 . S
C1486 C1485 1.375 . S
C1486 C1487 1.375 . S
C1487 C1486 1.375 . S
C1487 C1488 1.361 . S
C1488 H1448 0.930 . S
C1488 C1487 1.361 . S
C1488 C1489 1.399 . S
C1489 H1449 0.929 . S
C1489 C1484 1.386 . S
C1489 C1488 1.399 . S
C1490 C1469 1.485 . S
C1490 C1491 1.394 . S
C1490 C1495 1.360 . S
C1491 H1450 0.931 . S
C1491 C1490 1.394 . S
C1491 C1492 1.372 . S
C1492 H1451 0.930 . S
C1492 C1491 1.372 . S
C1492 C1493 1.397 . S
C1493 C1492 1.397 . S
C1493 C1494 1.390 . S
C1493 C1509 1.476 . S
C1494 H1452 0.930 . S
C1494 C1493 1.390 . S
C1494 C1495 1.366 . S
C1495 H1453 0.932 . S
C1495 C1490 1.360 . S
C1495 C1494 1.366 . S
C1496 C1470 1.490 . S
C1496 C1497 1.380 . S
C1496 C1501 1.386 . S
C1497 H1454 0.930 . S
C1497 C1496 1.380 . S
C1497 C1498 1.381 . S
C1498 H1455 0.929 . S
C1498 C1497 1.381 . S
C1498 C1499 1.371 . S
C1499 C1498 1.371 . S
C1499 C1500 1.380 . S
C1500 H1456 0.931 . S
C1500 C1499 1.380 . S
C1500 C1501 1.387 . S
C1501 H1457 0.930 . S
C1501 C1496 1.386 . S
C1501 C1500 1.387 . S
C1502 C1471 1.519 . S
C1502 C1503 1.377 . S
C1502 C1507 1.361 . S
C1503 H1458 0.929 . S
C1503 C1502 1.377 . S
C1503 C1504 1.386 . S
C1504 H1459 0.931 . S
C1504 C1503 1.386 . S
C1504 C1505 1.363 . S
C1505 C1504 1.363 . S
C1505 C1506 1.385 . S
C1506 H1460 0.930 . S
C1506 C1505 1.385 . S
C1506 C1507 1.396 . S
C1507 H1461 0.929 . S
C1507 C1502 1.361 . S
C1507 C1506 1.396 . S
C1508 O1462 1.300 . S
C1508 O1463 1.209 . S
C1508 C1481 1.486 . S
C1509 O1464 1.199 . S
C1509 O1465 1.297 . S
C1509 C1493 1.476 . S
H1510 O1536 0.856 . S
H1511 O1539 0.854 . S
H1512 C1547 0.930 . S
H1513 C1548 0.930 . S
H1514 C1550 0.930 . S
H1515 C1551 0.930 . S
H1516 C1553 0.931 . S
H1517 C1554 0.930 . S
H1518 C1556 0.930 . S
H1519 C1557 0.929 . S
H1520 C1559 0.930 . S
H1521 C1560 0.931 . S
H1522 C1562 0.930 . S
H1523 C1563 0.929 . S
H1524 C1565 0.931 . S
H1525 C1566 0.930 . S
H1526 C1568 0.930 . S
H1527 C1569 0.932 . S
H1528 C1571 0.930 . S
H1529 C1572 0.929 . S
H1530 C1574 0.931 . S
H1531 C1575 0.930 . S
H1532 C1577 0.929 . S
H1533 C1578 0.931 . S
H1534 C1580 0.930 . S
H1535 C1581 0.929 . S
O1536 H1510 0.856 . S
O1536 C1582 1.300 . S
O1537 C1582 1.209 . S
O1538 C1583 1.199 . S
O1539 H1511 0.854 . S
O1539 C1583 1.297 . S
C1540 C1541 1.404 . S
C1540 C1545 1.397 . S
C1540 C1546 1.492 . S
C1541 C1540 1.404 . S
C1541 C1542 1.396 . S
C1541 C1552 1.492 . S
C1542 C1541 1.396 . S
C1542 C1543 1.397 . S
C1542 C1558 1.509 . S
C1543 C1542 1.397 . S
C1543 C1544 1.412 . S
C1543 C1564 1.485 . S
C1544 C1543 1.412 . S
C1544 C1545 1.388 . S
C1544 C1570 1.490 . S
C1545 C1540 1.397 . S
C1545 C1544 1.388 . S
C1545 C1576 1.519 . S
C1546 C1540 1.492 . S
C1546 C1547 1.363 . S
C1546 C1551 1.390 . S
C1547 H1512 0.930 . S
C1547 C1546 1.363 . S
C1547 C1548 1.372 . S
C1548 H1513 0.930 . S
C1548 C1547 1.372 . S
C1548 C1549 1.383 . S
C1549 C1548 1.383 . S
C1549 C1550 1.395 . S
C1550 H1514 0.930 . S
C1550 C1549 1.395 . S
C1550 C1551 1.362 . S
C1551 H1515 0.930 . S
C1551 C1546 1.390 . S
C1551 C1550 1.362 . S
C1552 C1541 1.492 . S
C1552 C1553 1.377 . S
C1552 C1557 1.397 . S
C1553 H1516 0.931 . S
C1553 C1552 1.377 . S
C1553 C1554 1.376 . S
C1554 H1517 0.930 . S
C1554 C1553 1.376 . S
C1554 C1555 1.376 . S
C1555 C1554 1.376 . S
C1555 C1556 1.378 . S
C1555 C1582 1.486 . S
C1556 H1518 0.930 . S
C1556 C1555 1.378 . S
C1556 C1557 1.376 . S
C1557 H1519 0.929 . S
C1557 C1552 1.397 . S
C1557 C1556 1.376 . S
C1558 C1542 1.509 . S
C1558 C1559 1.391 . S
C1558 C1563 1.386 . S
C1559 H1520 0.930 . S
C1559 C1558 1.391 . S
C1559 C1560 1.375 . S
C1560 H1521 0.931 . S
C1560 C1559 1.375 . S
C1560 C1561 1.375 . S
C1561 C1560 1.375 . S
C1561 C1562 1.361 . S
C1562 H1522 0.930 . S
C1562 C1561 1.361 . S
C1562 C1563 1.399 . S
C1563 H1523 0.929 . S
C1563 C1558 1.386 . S
C1563 C1562 1.399 . S
C1564 C1543 1.485 . S
C1564 C1565 1.394 . S
C1564 C1569 1.360 . S
C1565 H1524 0.931 . S
C1565 C1564 1.394 . S
C1565 C1566 1.372 . S
C1566 H1525 0.930 . S
C1566 C1565 1.372 . S
C1566 C1567 1.397 . S
C1567 C1566 1.397 . S
C1567 C1568 1.390 . S
C1567 C1583 1.476 . S
C1568 H1526 0.930 . S
C1568 C1567 1.390 . S
C1568 C1569 1.366 . S
C1569 H1527 0.932 . S
C1569 C1564 1.360 . S
C1569 C1568 1.366 . S
C1570 C1544 1.490 . S
C1570 C1571 1.380 . S
C1570 C1575 1.386 . S
C1571 H1528 0.930 . S
C1571 C1570 1.380 . S
C1571 C1572 1.381 . S
C1572 H1529 0.929 . S
C1572 C1571 1.381 . S
C1572 C1573 1.371 . S
C1573 C1572 1.371 . S
C1573 C1574 1.380 . S
C1574 H1530 0.931 . S
C1574 C1573 1.380 . S
C1574 C1575 1.387 . S
C1575 H1531 0.930 . S
C1575 C1570 1.386 . S
C1575 C1574 1.387 . S
C1576 C1545 1.519 . S
C1576 C1577 1.377 . S
C1576 C1581 1.361 . S
C1577 H1532 0.929 . S
C1577 C1576 1.377 . S
C1577 C1578 1.386 . S
C1578 H1533 0.931 . S
C1578 C1577 1.386 . S
C1578 C1579 1.363 . S
C1579 C1578 1.363 . S
C1579 C1580 1.385 . S
C1580 H1534 0.930 . S
C1580 C1579 1.385 . S
C1580 C1581 1.396 . S
C1581 H1535 0.929 . S
C1581 C1576 1.361 . S
C1581 C1580 1.396 . S
C1582 O1536 1.300 . S
C1582 O1537 1.209 . S
C1582 C1555 1.486 . S
C1583 O1538 1.199 . S
C1583 O1539 1.297 . S
C1583 C1567 1.476 . S
H1584 C1596 0.930 . S
H1585 C1598 0.930 . S
H1586 C1599 0.930 . S
H1587 C1603 0.959 . S
H1588 C1603 0.959 . S
H1589 C1603 0.961 . S
H1590 C1604 0.988 . S
H1591 C1604 0.961 . S
H1592 C1604 0.959 . S
H1593 C1607 0.929 . S
H1594 C1608 0.931 . S
H1595 C1610 0.926 1_455 S
C1596 H1584 0.930 . S
C1596 C1597 1.399 1_455 S
C1596 C1601 1.399 1_455 S
C1597 C1596 1.399 1_655 S
C1597 C1598 1.376 . S
C1598 H1585 0.930 . S
C1598 C1597 1.376 . S
C1598 C1599 1.388 . S
C1599 H1586 0.930 . S
C1599 C1598 1.388 . S
C1599 C1600 1.390 . S
C1600 C1599 1.390 . S
C1600 C1601 1.394 . S
C1600 C1606 1.465 . S
C1601 C1596 1.399 1_655 S
C1601 C1600 1.394 . S
C1601 C1602 1.516 1_655 S
C1602 C1601 1.516 1_455 S
C1602 C1603 1.502 . S
C1602 C1604 1.561 1_455 S
C1602 C1605 1.526 1_455 S
C1603 H1587 0.959 . S
C1603 H1588 0.959 . S
C1603 H1589 0.961 . S
C1603 C1602 1.502 . S
C1604 H1590 0.988 . S
C1604 H1591 0.961 . S
C1604 H1592 0.959 . S
C1604 C1602 1.561 1_655 S
C1605 C1602 1.526 1_655 S
C1605 C1606 1.396 . S
C1605 C1610 1.390 . S
C1606 C1600 1.465 . S
C1606 C1605 1.396 . S
C1606 C1607 1.399 . S
C1607 H1593 0.929 . S
C1607 C1606 1.399 . S
C1607 C1608 1.385 . S
C1608 H1594 0.931 . S
C1608 C1607 1.385 . S
C1608 C1609 1.389 . S
C1609 C1608 1.389 . S
C1609 C1610 1.387 . S
C1610 H1595 0.926 1_655 S
C1610 C1605 1.390 . S
C1610 C1609 1.387 . S
H1611 C1623 0.930 . S
H1612 C1625 0.930 . S
H1613 C1626 0.930 . S
H1614 C1630 0.959 . S
H1615 C1630 0.959 . S
H1616 C1630 0.961 . S
H1617 C1631 0.960 . S
H1618 C1631 0.961 . S
H1619 C1631 0.959 . S
H1620 C1634 0.929 . S
H1621 C1635 0.931 . S
H1622 C1637 0.930 . S
C1623 H1611 0.930 . S
C1623 C1624 1.399 . S
C1623 C1628 1.399 . S
C1624 C1623 1.399 . S
C1624 C1625 1.376 . S
C1625 H1612 0.930 . S
C1625 C1624 1.376 . S
C1625 C1626 1.388 . S
C1626 H1613 0.930 . S
C1626 C1625 1.388 . S
C1626 C1627 1.390 . S
C1627 C1626 1.390 . S
C1627 C1628 1.394 . S
C1627 C1633 1.465 . S
C1628 C1623 1.399 . S
C1628 C1627 1.394 . S
C1628 C1629 1.516 . S
C1629 C1628 1.516 . S
C1629 C1630 1.502 . S
C1629 C1631 1.561 . S
C1629 C1632 1.526 . S
C1630 H1614 0.959 . S
C1630 H1615 0.959 . S
C1630 H1616 0.961 . S
C1630 C1629 1.502 . S
C1631 H1617 0.960 . S
C1631 H1618 0.961 . S
C1631 H1619 0.959 . S
C1631 C1629 1.561 . S
C1632 C1629 1.526 . S
C1632 C1633 1.396 . S
C1632 C1637 1.390 . S
C1633 C1627 1.465 . S
C1633 C1632 1.396 . S
C1633 C1634 1.399 . S
C1634 H1620 0.929 . S
C1634 C1633 1.399 . S
C1634 C1635 1.385 . S
C1635 H1621 0.931 . S
C1635 C1634 1.385 . S
C1635 C1636 1.389 . S
C1636 C1635 1.389 . S
C1636 C1637 1.387 . S
C1637 H1622 0.930 . S
C1637 C1632 1.390 . S
C1637 C1636 1.387 . S
H1638 C1650 0.930 1_565 S
H1639 C1652 0.930 . S
H1640 C1653 0.930 . S
H1641 C1657 0.959 . S
H1642 C1657 0.959 . S
H1643 C1657 0.961 . S
H1644 C1658 0.960 . S
H1645 C1658 0.961 . S
H1646 C1658 0.959 . S
H1647 C1661 0.929 . S
H1648 C1662 0.931 . S
H1649 C1664 0.930 1_565 S
C1650 H1638 0.930 1_545 S
C1650 C1651 1.399 . S
C1650 C1655 1.399 . S
C1651 C1650 1.399 . S
C1651 C1652 1.376 . S
C1652 H1639 0.930 . S
C1652 C1651 1.376 . S
C1652 C1653 1.388 . S
C1653 H1640 0.930 . S
C1653 C1652 1.388 . S
C1653 C1654 1.390 . S
C1654 C1653 1.390 . S
C1654 C1655 1.394 . S
C1654 C1660 1.465 . S
C1655 C1650 1.399 . S
C1655 C1654 1.394 . S
C1655 C1656 1.516 1_545 S
C1656 C1655 1.516 1_565 S
C1656 C1657 1.502 . S
C1656 C1658 1.561 . S
C1656 C1659 1.526 1_565 S
C1657 H1641 0.959 . S
C1657 H1642 0.959 . S
C1657 H1643 0.961 . S
C1657 C1656 1.502 . S
C1658 H1644 0.960 . S
C1658 H1645 0.961 . S
C1658 H1646 0.959 . S
C1658 C1656 1.561 . S
C1659 C1656 1.526 1_545 S
C1659 C1660 1.396 . S
C1659 C1664 1.390 . S
C1660 C1654 1.465 . S
C1660 C1659 1.396 . S
C1660 C1661 1.399 . S
C1661 H1647 0.929 . S
C1661 C1660 1.399 . S
C1661 C1662 1.385 . S
C1662 H1648 0.931 . S
C1662 C1661 1.385 . S
C1662 C1663 1.389 . S
C1663 C1662 1.389 . S
C1663 C1664 1.387 . S
C1664 H1649 0.930 1_545 S
C1664 C1659 1.390 . S
C1664 C1663 1.387 . S
H1665 C1677 0.930 . S
H1666 C1679 0.930 . S
H1667 C1680 0.930 . S
H1668 C1684 0.959 . S
H1669 C1684 0.959 . S
H1670 C1684 0.961 . S
H1671 C1685 0.960 . S
H1672 C1685 0.961 . S
H1673 C1685 0.959 . S
H1674 C1688 0.929 . S
H1675 C1689 0.931 . S
H1676 C1691 0.930 . S
C1677 H1665 0.930 . S
C1677 C1678 1.399 . S
C1677 C1682 1.399 . S
C1678 C1677 1.399 . S
C1678 C1679 1.376 1_565 S
C1679 H1666 0.930 . S
C1679 C1678 1.376 1_545 S
C1679 C1680 1.388 . S
C1680 H1667 0.930 . S
C1680 C1679 1.388 . S
C1680 C1681 1.390 1_545 S
C1681 C1680 1.390 1_565 S
C1681 C1682 1.394 . S
C1681 C1687 1.465 . S
C1682 C1677 1.399 . S
C1682 C1681 1.394 . S
C1682 C1683 1.516 . S
C1683 C1682 1.516 . S
C1683 C1684 1.502 . S
C1683 C1685 1.561 . S
C1683 C1686 1.526 . S
C1684 H1668 0.959 . S
C1684 H1669 0.959 . S
C1684 H1670 0.961 . S
C1684 C1683 1.502 . S
C1685 H1671 0.960 . S
C1685 H1672 0.961 . S
C1685 H1673 0.959 . S
C1685 C1683 1.561 . S
C1686 C1683 1.526 . S
C1686 C1687 1.396 . S
C1686 C1691 1.390 . S
C1687 C1681 1.465 . S
C1687 C1686 1.396 . S
C1687 C1688 1.399 1_565 S
C1688 H1674 0.929 . S
C1688 C1687 1.399 1_545 S
C1688 C1689 1.385 . S
C1689 H1675 0.931 . S
C1689 C1688 1.385 . S
C1689 C1690 1.389 1_545 S
C1690 C1689 1.389 1_565 S
C1690 C1691 1.387 . S
C1691 H1676 0.930 . S
C1691 C1686 1.390 . S
C1691 C1690 1.387 . S
H1692 C1704 0.930 . S
H1693 C1706 0.935 . S
H1694 C1707 0.930 1_655 S
H1695 C1711 0.959 . S
H1696 C1711 0.959 . S
H1697 C1711 0.961 . S
H1698 C1712 0.960 . S
H1699 C1712 0.961 . S
H1700 C1712 0.959 . S
H1701 C1715 0.963 . S
H1702 C1716 0.931 1_655 S
H1703 C1718 0.930 . S
C1704 H1692 0.930 . S
C1704 C1705 1.399 . S
C1704 C1709 1.399 . S
C1705 C1704 1.399 . S
C1705 C1706 1.376 . S
C1706 H1693 0.935 . S
C1706 C1705 1.376 . S
C1706 C1707 1.388 . S
C1707 H1694 0.930 1_455 S
C1707 C1706 1.388 . S
C1707 C1708 1.390 . S
C1708 C1707 1.390 . S
C1708 C1709 1.394 . S
C1708 C1714 1.465 . S
C1709 C1704 1.399 . S
C1709 C1708 1.394 . S
C1709 C1710 1.516 . S
C1710 C1709 1.516 . S
C1710 C1711 1.502 . S
C1710 C1712 1.561 . S
C1710 C1713 1.526 . S
C1711 H1695 0.959 . S
C1711 H1696 0.959 . S
C1711 H1697 0.961 . S
C1711 C1710 1.502 . S
C1712 H1698 0.960 . S
C1712 H1699 0.961 . S
C1712 H1700 0.959 . S
C1712 C1710 1.561 . S
C1713 C1710 1.526 . S
C1713 C1714 1.396 . S
C1713 C1718 1.390 . S
C1714 C1708 1.465 . S
C1714 C1713 1.396 . S
C1714 C1715 1.357 1_455 S
C1715 H1701 0.963 . S
C1715 C1714 1.357 1_655 S
C1715 C1716 1.394 1_655 S
C1716 H1702 0.931 1_455 S
C1716 C1715 1.394 1_455 S
C1716 C1717 1.389 . S
C1717 C1716 1.389 . S
C1717 C1718 1.387 . S
C1718 H1703 0.930 . S
C1718 C1713 1.390 . S
C1718 C1717 1.387 . S
H1719 C1731 0.930 . S
H1720 C1733 0.930 . S
H1721 C1734 0.930 . S
H1722 C1738 0.959 . S
H1723 C1738 0.959 . S
H1724 C1738 0.961 . S
H1725 C1739 0.960 . S
H1726 C1739 0.961 1_556 S
H1727 C1739 0.959 . S
H1728 C1742 0.929 . S
H1729 C1743 0.931 . S
H1730 C1745 0.930 . S
C1731 H1719 0.930 . S
C1731 C1732 1.399 . S
C1731 C1736 1.399 1_554 S
C1732 C1731 1.399 . S
C1732 C1733 1.376 . S
C1733 H1720 0.930 . S
C1733 C1732 1.376 . S
C1733 C1734 1.388 1_554 S
C1734 H1721 0.930 . S
C1734 C1733 1.388 1_556 S
C1734 C1735 1.390 . S
C1735 C1734 1.390 . S
C1735 C1736 1.394 . S
C1735 C1741 1.465 . S
C1736 C1731 1.399 1_556 S
C1736 C1735 1.394 . S
C1736 C1737 1.516 . S
C1737 C1736 1.516 . S
C1737 C1738 1.502 . S
C1737 C1739 1.561 1_556 S
C1737 C1740 1.526 . S
C1738 H1722 0.959 . S
C1738 H1723 0.959 . S
C1738 H1724 0.961 . S
C1738 C1737 1.502 . S
C1739 H1725 0.960 . S
C1739 H1726 0.961 1_554 S
C1739 H1727 0.959 . S
C1739 C1737 1.561 1_554 S
C1740 C1737 1.526 . S
C1740 C1741 1.396 . S
C1740 C1745 1.390 . S
C1741 C1735 1.465 . S
C1741 C1740 1.396 . S
C1741 C1742 1.399 . S
C1742 H1728 0.929 . S
C1742 C1741 1.399 . S
C1742 C1743 1.385 . S
C1743 H1729 0.931 . S
C1743 C1742 1.385 . S
C1743 C1744 1.389 . S
C1744 C1743 1.389 . S
C1744 C1745 1.387 . S
C1745 H1730 0.930 . S
C1745 C1740 1.390 . S
C1745 C1744 1.387 . S
H1746 C1758 0.930 . S
H1747 C1760 0.930 . S
H1748 C1761 0.930 . S
H1749 C1765 0.959 . S
H1750 C1765 0.959 . S
H1751 C1765 0.961 . S
H1752 C1766 0.960 . S
H1753 C1766 0.961 . S
H1754 C1766 0.959 . S
H1755 C1769 0.929 . S
H1756 C1770 0.931 . S
H1757 C1772 0.930 . S
C1758 H1746 0.930 . S
C1758 C1759 1.399 . S
C1758 C1763 1.399 1_554 S
C1759 C1758 1.399 . S
C1759 C1760 1.376 1_454 S
C1760 H1747 0.930 . S
C1760 C1759 1.376 1_656 S
C1760 C1761 1.388 . S
C1761 H1748 0.930 . S
C1761 C1760 1.388 . S
C1761 C1762 1.390 . S
C1762 C1761 1.390 . S
C1762 C1763 1.394 1_655 S
C1762 C1768 1.465 . S
C1763 C1758 1.399 1_556 S
C1763 C1762 1.394 1_455 S
C1763 C1764 1.516 . S
C1764 C1763 1.516 . S
C1764 C1765 1.502 . S
C1764 C1766 1.561 1_556 S
C1764 C1767 1.526 . S
C1765 H1749 0.959 . S
C1765 H1750 0.959 . S
C1765 H1751 0.961 . S
C1765 C1764 1.502 . S
C1766 H1752 0.960 . S
C1766 H1753 0.961 . S
C1766 H1754 0.959 . S
C1766 C1764 1.561 1_554 S
C1767 C1764 1.526 . S
C1767 C1768 1.396 1_455 S
C1767 C1772 1.390 . S
C1768 C1762 1.465 . S
C1768 C1767 1.396 1_655 S
C1768 C1769 1.399 . S
C1769 H1755 0.929 . S
C1769 C1768 1.399 . S
C1769 C1770 1.385 . S
C1770 H1756 0.931 . S
C1770 C1769 1.385 . S
C1770 C1771 1.392 1_655 S
C1771 C1770 1.392 1_455 S
C1771 C1772 1.386 . S
C1772 H1757 0.930 . S
C1772 C1767 1.390 . S
C1772 C1771 1.386 . S
H1773 C1785 0.930 . S
H1774 C1787 0.930 . S
H1775 C1788 0.930 . S
H1776 C1792 0.959 . S
H1777 C1792 0.959 . S
H1778 C1792 0.961 . S
H1779 C1793 0.960 . S
H1780 C1793 0.961 . S
H1781 C1793 0.959 . S
H1782 C1796 0.929 . S
H1783 C1797 0.931 . S
H1784 C1799 0.930 . S
C1785 H1773 0.930 . S
C1785 C1786 1.399 . S
C1785 C1790 1.399 . S
C1786 C1785 1.399 . S
C1786 C1787 1.376 . S
C1787 H1774 0.930 . S
C1787 C1786 1.376 . S
C1787 C1788 1.388 . S
C1788 H1775 0.930 . S
C1788 C1787 1.388 . S
C1788 C1789 1.390 . S
C1789 C1788 1.390 . S
C1789 C1790 1.394 . S
C1789 C1795 1.465 . S
C1790 C1785 1.399 . S
C1790 C1789 1.394 . S
C1790 C1791 1.516 . S
C1791 C1790 1.516 . S
C1791 C1792 1.502 . S
C1791 C1793 1.561 . S
C1791 C1794 1.526 . S
C1792 H1776 0.959 . S
C1792 H1777 0.959 . S
C1792 H1778 0.961 . S
C1792 C1791 1.502 . S
C1793 H1779 0.960 . S
C1793 H1780 0.961 . S
C1793 H1781 0.959 . S
C1793 C1791 1.561 . S
C1794 C1791 1.526 . S
C1794 C1795 1.396 . S
C1794 C1799 1.390 . S
C1795 C1789 1.465 . S
C1795 C1794 1.396 . S
C1795 C1796 1.399 . S
C1796 H1782 0.929 . S
C1796 C1795 1.399 . S
C1796 C1797 1.385 . S
C1797 H1783 0.931 . S
C1797 C1796 1.385 . S
C1797 C1798 1.389 . S
C1798 C1797 1.389 . S
C1798 C1799 1.387 . S
C1799 H1784 0.930 . S
C1799 C1794 1.390 . S
C1799 C1798 1.387 . S
H1800 C1812 0.941 . S
H1801 C1814 0.930 . S
H1802 C1815 0.930 . S
H1803 C1819 0.959 . S
H1804 C1819 0.959 . S
H1805 C1819 0.961 . S
H1806 C1820 0.960 . S
H1807 C1820 0.961 . S
H1808 C1820 0.959 . S
H1809 C1823 0.929 . S
H1810 C1824 0.931 . S
H1811 C1826 0.930 . S
C1812 H1800 0.941 . S
C1812 C1813 1.412 1_565 S
C1812 C1817 1.375 1_554 S
C1813 C1812 1.412 1_545 S
C1813 C1814 1.376 . S
C1814 H1801 0.930 . S
C1814 C1813 1.376 . S
C1814 C1815 1.388 1_554 S
C1815 H1802 0.930 . S
C1815 C1814 1.388 1_556 S
C1815 C1816 1.390 . S
C1816 C1815 1.390 . S
C1816 C1817 1.394 1_545 S
C1816 C1822 1.465 . S
C1817 C1812 1.375 1_556 S
C1817 C1816 1.394 1_565 S
C1817 C1818 1.516 . S
C1818 C1817 1.516 . S
C1818 C1819 1.502 . S
C1818 C1820 1.561 . S
C1818 C1821 1.526 . S
C1819 H1803 0.959 . S
C1819 H1804 0.959 . S
C1819 H1805 0.961 . S
C1819 C1818 1.502 . S
C1820 H1806 0.960 . S
C1820 H1807 0.961 . S
C1820 H1808 0.959 . S
C1820 C1818 1.561 . S
C1821 C1818 1.526 . S
C1821 C1822 1.396 1_565 S
C1821 C1826 1.390 . S
C1822 C1816 1.465 . S
C1822 C1821 1.396 1_545 S
C1822 C1823 1.399 . S
C1823 H1809 0.929 . S
C1823 C1822 1.399 . S
C1823 C1824 1.385 . S
C1824 H1810 0.931 . S
C1824 C1823 1.385 . S
C1824 C1825 1.389 . S
C1825 C1824 1.389 . S
C1825 C1826 1.387 1_545 S
C1826 H1811 0.930 . S
C1826 C1821 1.390 . S
C1826 C1825 1.387 1_565 S
H1827 C1839 0.930 . S
H1828 C1841 0.930 1_565 S
H1829 C1842 0.930 . S
H1830 C1846 0.959 . S
H1831 C1846 0.959 . S
H1832 C1846 0.961 . S
H1833 C1847 0.960 . S
H1834 C1847 0.961 . S
H1835 C1847 0.959 . S
H1836 C1850 0.929 . S
H1837 C1851 0.931 . S
H1838 C1853 0.930 . S
C1839 H1827 0.930 . S
C1839 C1840 1.399 . S
C1839 C1844 1.399 . S
C1840 C1839 1.399 . S
C1840 C1841 1.376 . S
C1841 H1828 0.930 1_545 S
C1841 C1840 1.376 . S
C1841 C1842 1.388 1_545 S
C1842 H1829 0.930 . S
C1842 C1841 1.388 1_565 S
C1842 C1843 1.390 1_565 S
C1843 C1842 1.390 1_545 S
C1843 C1844 1.394 . S
C1843 C1849 1.465 . S
C1844 C1839 1.399 . S
C1844 C1843 1.394 . S
C1844 C1845 1.516 . S
C1845 C1844 1.516 . S
C1845 C1846 1.502 . S
C1845 C1847 1.561 . S
C1845 C1848 1.526 . S
C1846 H1830 0.959 . S
C1846 H1831 0.959 . S
C1846 H1832 0.961 . S
C1846 C1845 1.502 . S
C1847 H1833 0.960 . S
C1847 H1834 0.961 . S
C1847 H1835 0.959 . S
C1847 C1845 1.561 . S
C1848 C1845 1.526 . S
C1848 C1849 1.396 . S
C1848 C1853 1.390 . S
C1849 C1843 1.465 . S
C1849 C1848 1.396 . S
C1849 C1850 1.399 1_545 S
C1850 H1836 0.929 . S
C1850 C1849 1.399 1_565 S
C1850 C1851 1.385 . S
C1851 H1837 0.931 . S
C1851 C1850 1.385 . S
C1851 C1852 1.346 1_565 S
C1852 C1851 1.346 1_545 S
C1852 C1853 1.421 . S
C1853 H1838 0.930 . S
C1853 C1848 1.390 . S
C1853 C1852 1.421 . S
H1854 C1866 0.930 . S
H1855 C1868 0.930 . S
H1856 C1869 0.930 . S
H1857 C1873 0.959 . S
H1858 C1873 0.959 . S
H1859 C1873 0.961 . S
H1860 C1874 0.960 . S
H1861 C1874 0.961 . S
H1862 C1874 0.959 . S
H1863 C1877 0.929 . S
H1864 C1878 0.931 . S
H1865 C1880 0.930 . S
C1866 H1854 0.930 . S
C1866 C1867 1.399 1_455 S
C1866 C1871 1.399 . S
C1867 C1866 1.399 1_655 S
C1867 C1868 1.376 . S
C1868 H1855 0.930 . S
C1868 C1867 1.376 . S
C1868 C1869 1.388 . S
C1869 H1856 0.930 . S
C1869 C1868 1.388 . S
C1869 C1870 1.390 . S
C1870 C1869 1.390 . S
C1870 C1871 1.394 1_655 S
C1870 C1876 1.465 . S
C1871 C1866 1.399 . S
C1871 C1870 1.394 1_455 S
C1871 C1872 1.516 . S
C1872 C1871 1.516 . S
C1872 C1873 1.502 . S
C1872 C1874 1.561 . S
C1872 C1875 1.526 . S
C1873 H1857 0.959 . S
C1873 H1858 0.959 . S
C1873 H1859 0.961 . S
C1873 C1872 1.502 . S
C1874 H1860 0.960 . S
C1874 H1861 0.961 . S
C1874 H1862 0.959 . S
C1874 C1872 1.561 . S
C1875 C1872 1.526 . S
C1875 C1876 1.396 1_455 S
C1875 C1880 1.390 . S
C1876 C1870 1.465 . S
C1876 C1875 1.396 1_655 S
C1876 C1877 1.399 . S
C1877 H1863 0.929 . S
C1877 C1876 1.399 . S
C1877 C1878 1.385 . S
C1878 H1864 0.931 . S
C1878 C1877 1.385 . S
C1878 C1879 1.389 . S
C1879 C1878 1.389 . S
C1879 C1880 1.387 1_655 S
C1880 H1865 0.930 . S
C1880 C1875 1.390 . S
C1880 C1879 1.387 1_455 S
H1881 C1893 0.930 . S
H1882 C1895 0.930 . S
H1883 C1896 0.930 . S
H1884 C1900 0.959 . S
H1885 C1900 0.959 . S
H1886 C1900 0.961 . S
H1887 C1901 0.960 . S
H1888 C1901 0.961 . S
H1889 C1901 0.959 . S
H1890 C1904 0.929 . S
H1891 C1905 0.931 . S
H1892 C1907 0.930 . S
C1893 H1881 0.930 . S
C1893 C1894 1.399 . S
C1893 C1898 1.399 . S
C1894 C1893 1.399 . S
C1894 C1895 1.376 . S
C1895 H1882 0.930 . S
C1895 C1894 1.376 . S
C1895 C1896 1.388 . S
C1896 H1883 0.930 . S
C1896 C1895 1.388 . S
C1896 C1897 1.390 . S
C1897 C1896 1.390 . S
C1897 C1898 1.394 . S
C1897 C1903 1.465 . S
C1898 C1893 1.399 . S
C1898 C1897 1.394 . S
C1898 C1899 1.516 . S
C1899 C1898 1.516 . S
C1899 C1900 1.502 . S
C1899 C1901 1.561 . S
C1899 C1902 1.526 . S
C1900 H1884 0.959 . S
C1900 H1885 0.959 . S
C1900 H1886 0.961 . S
C1900 C1899 1.502 . S
C1901 H1887 0.960 . S
C1901 H1888 0.961 . S
C1901 H1889 0.959 . S
C1901 C1899 1.561 . S
C1902 C1899 1.526 . S
C1902 C1903 1.396 . S
C1902 C1907 1.390 . S
C1903 C1897 1.465 . S
C1903 C1902 1.396 . S
C1903 C1904 1.399 . S
C1904 H1890 0.929 . S
C1904 C1903 1.399 . S
C1904 C1905 1.385 . S
C1905 H1891 0.931 . S
C1905 C1904 1.385 . S
C1905 C1906 1.389 . S
C1906 C1905 1.389 . S
C1906 C1907 1.387 . S
C1907 H1892 0.930 . S
C1907 C1902 1.390 . S
C1907 C1906 1.387 . S
H1908 C1920 0.930 . S
H1909 C1922 0.930 . S
H1910 C1923 0.930 . S
H1911 C1927 0.959 . S
H1912 C1927 0.959 . S
H1913 C1927 0.961 . S
H1914 C1928 0.960 . S
H1915 C1928 0.961 . S
H1916 C1928 0.959 . S
H1917 C1931 0.929 . S
H1918 C1932 0.931 . S
H1919 C1934 0.930 . S
C1920 H1908 0.930 . S
C1920 C1921 1.399 . S
C1920 C1925 1.399 . S
C1921 C1920 1.399 . S
C1921 C1922 1.376 . S
C1922 H1909 0.930 . S
C1922 C1921 1.376 . S
C1922 C1923 1.388 . S
C1923 H1910 0.930 . S
C1923 C1922 1.388 . S
C1923 C1924 1.390 . S
C1924 C1923 1.390 . S
C1924 C1925 1.394 . S
C1924 C1930 1.465 . S
C1925 C1920 1.399 . S
C1925 C1924 1.394 . S
C1925 C1926 1.516 . S
C1926 C1925 1.516 . S
C1926 C1927 1.502 . S
C1926 C1928 1.561 . S
C1926 C1929 1.526 . S
C1927 H1911 0.959 . S
C1927 H1912 0.959 . S
C1927 H1913 0.961 . S
C1927 C1926 1.502 . S
C1928 H1914 0.960 . S
C1928 H1915 0.961 . S
C1928 H1916 0.959 . S
C1928 C1926 1.561 . S
C1929 C1926 1.526 . S
C1929 C1930 1.396 . S
C1929 C1934 1.390 . S
C1930 C1924 1.465 . S
C1930 C1929 1.396 . S
C1930 C1931 1.399 . S
C1931 H1917 0.929 . S
C1931 C1930 1.399 . S
C1931 C1932 1.385 . S
C1932 H1918 0.931 . S
C1932 C1931 1.385 . S
C1932 C1933 1.389 . S
C1933 C1932 1.389 . S
C1933 C1934 1.387 . S
C1934 H1919 0.930 . S
C1934 C1929 1.390 . S
C1934 C1933 1.387 . S
H1935 C1947 0.930 . S
H1936 C1949 0.930 . S
H1937 C1950 0.930 . S
H1938 C1954 0.959 . S
H1939 C1954 0.959 . S
H1940 C1954 0.961 . S
H1941 C1955 0.960 . S
H1942 C1955 0.961 . S
H1943 C1955 0.959 . S
H1944 C1958 0.929 . S
H1945 C1959 0.931 . S
H1946 C1961 0.930 . S
C1947 H1935 0.930 . S
C1947 C1948 1.399 . S
C1947 C1952 1.399 . S
C1948 C1947 1.399 . S
C1948 C1949 1.376 . S
C1949 H1936 0.930 . S
C1949 C1948 1.376 . S
C1949 C1950 1.388 . S
C1950 H1937 0.930 . S
C1950 C1949 1.388 . S
C1950 C1951 1.390 . S
C1951 C1950 1.390 . S
C1951 C1952 1.394 . S
C1951 C1957 1.465 . S
C1952 C1947 1.399 . S
C1952 C1951 1.394 . S
C1952 C1953 1.516 . S
C1953 C1952 1.516 . S
C1953 C1954 1.502 . S
C1953 C1955 1.561 . S
C1953 C1956 1.526 . S
C1954 H1938 0.959 . S
C1954 H1939 0.959 . S
C1954 H1940 0.961 . S
C1954 C1953 1.502 . S
C1955 H1941 0.960 . S
C1955 H1942 0.961 . S
C1955 H1943 0.959 . S
C1955 C1953 1.561 . S
C1956 C1953 1.526 . S
C1956 C1957 1.396 . S
C1956 C1961 1.390 . S
C1957 C1951 1.465 . S
C1957 C1956 1.396 . S
C1957 C1958 1.399 . S
C1958 H1944 0.929 . S
C1958 C1957 1.399 . S
C1958 C1959 1.385 . S
C1959 H1945 0.931 . S
C1959 C1958 1.385 . S
C1959 C1960 1.389 . S
C1960 C1959 1.389 . S
C1960 C1961 1.387 . S
C1961 H1946 0.930 . S
C1961 C1956 1.390 . S
C1961 C1960 1.387 . S
H1962 C1974 0.930 . S
H1963 C1976 0.930 . S
H1964 C1977 0.930 . S
H1965 C1981 0.959 . S
H1966 C1981 0.959 . S
H1967 C1981 0.961 . S
H1968 C1982 0.960 . S
H1969 C1982 0.961 . S
H1970 C1982 0.959 . S
H1971 C1985 0.929 . S
H1972 C1986 0.931 . S
H1973 C1988 0.930 . S
C1974 H1962 0.930 . S
C1974 C1975 1.399 . S
C1974 C1979 1.399 . S
C1975 C1974 1.399 . S
C1975 C1976 1.376 . S
C1976 H1963 0.930 . S
C1976 C1975 1.376 . S
C1976 C1977 1.388 . S
C1977 H1964 0.930 . S
C1977 C1976 1.388 . S
C1977 C1978 1.390 . S
C1978 C1977 1.390 . S
C1978 C1979 1.394 . S
C1978 C1984 1.465 . S
C1979 C1974 1.399 . S
C1979 C1978 1.394 . S
C1979 C1980 1.516 . S
C1980 C1979 1.516 . S
C1980 C1981 1.502 . S
C1980 C1982 1.561 . S
C1980 C1983 1.526 . S
C1981 H1965 0.959 . S
C1981 H1966 0.959 . S
C1981 H1967 0.961 . S
C1981 C1980 1.502 . S
C1982 H1968 0.960 . S
C1982 H1969 0.961 . S
C1982 H1970 0.959 . S
C1982 C1980 1.561 . S
C1983 C1980 1.526 . S
C1983 C1984 1.396 . S
C1983 C1988 1.390 . S
C1984 C1978 1.465 . S
C1984 C1983 1.396 . S
C1984 C1985 1.399 . S
C1985 H1971 0.929 . S
C1985 C1984 1.399 . S
C1985 C1986 1.385 . S
C1986 H1972 0.931 . S
C1986 C1985 1.385 . S
C1986 C1987 1.389 . S
C1987 C1986 1.389 . S
C1987 C1988 1.387 . S
C1988 H1973 0.930 . S
C1988 C1983 1.390 . S
C1988 C1987 1.387 . S
H1989 C2001 0.930 . S
H1990 C2003 0.930 . S
H1991 C2004 0.930 . S
H1992 C2008 0.959 . S
H1993 C2008 0.959 . S
H1994 C2008 0.961 . S
H1995 C2009 0.960 . S
H1996 C2009 0.961 . S
H1997 C2009 0.959 . S
H1998 C2012 0.929 . S
H1999 C2013 0.931 . S
H2000 C2015 0.930 . S
C2001 H1989 0.930 . S
C2001 C2002 1.399 . S
C2001 C2006 1.399 . S
C2002 C2001 1.399 . S
C2002 C2003 1.376 . S
C2003 H1990 0.930 . S
C2003 C2002 1.376 . S
C2003 C2004 1.388 . S
C2004 H1991 0.930 . S
C2004 C2003 1.388 . S
C2004 C2005 1.390 . S
C2005 C2004 1.390 . S
C2005 C2006 1.394 . S
C2005 C2011 1.465 . S
C2006 C2001 1.399 . S
C2006 C2005 1.394 . S
C2006 C2007 1.516 . S
C2007 C2006 1.516 . S
C2007 C2008 1.502 . S
C2007 C2009 1.561 . S
C2007 C2010 1.526 . S
C2008 H1992 0.959 . S
C2008 H1993 0.959 . S
C2008 H1994 0.961 . S
C2008 C2007 1.502 . S
C2009 H1995 0.960 . S
C2009 H1996 0.961 . S
C2009 H1997 0.959 . S
C2009 C2007 1.561 . S
C2010 C2007 1.526 . S
C2010 C2011 1.396 . S
C2010 C2015 1.390 . S
C2011 C2005 1.465 . S
C2011 C2010 1.396 . S
C2011 C2012 1.399 . S
C2012 H1998 0.929 . S
C2012 C2011 1.399 . S
C2012 C2013 1.385 . S
C2013 H1999 0.931 . S
C2013 C2012 1.385 . S
C2013 C2014 1.389 . S
C2014 C2013 1.389 . S
C2014 C2015 1.387 . S
C2015 H2000 0.930 . S
C2015 C2010 1.390 . S
C2015 C2014 1.387 . S
H2016 C2028 0.930 . S
H2017 C2030 0.930 . S
H2018 C2031 0.930 . S
H2019 C2035 0.959 . S
H2020 C2035 0.959 . S
H2021 C2035 0.961 . S
H2022 C2036 0.960 . S
H2023 C2036 0.961 . S
H2024 C2036 0.959 . S
H2025 C2039 0.929 . S
H2026 C2040 0.931 . S
H2027 C2042 0.930 . S
C2028 H2016 0.930 . S
C2028 C2029 1.399 . S
C2028 C2033 1.399 . S
C2029 C2028 1.399 . S
C2029 C2030 1.376 . S
C2030 H2017 0.930 . S
C2030 C2029 1.376 . S
C2030 C2031 1.388 . S
C2031 H2018 0.930 . S
C2031 C2030 1.388 . S
C2031 C2032 1.390 . S
C2032 C2031 1.390 . S
C2032 C2033 1.394 . S
C2032 C2038 1.465 . S
C2033 C2028 1.399 . S
C2033 C2032 1.394 . S
C2033 C2034 1.516 . S
C2034 C2033 1.516 . S
C2034 C2035 1.502 . S
C2034 C2036 1.561 . S
C2034 C2037 1.526 . S
C2035 H2019 0.959 . S
C2035 H2020 0.959 . S
C2035 H2021 0.961 . S
C2035 C2034 1.502 . S
C2036 H2022 0.960 . S
C2036 H2023 0.961 . S
C2036 H2024 0.959 . S
C2036 C2034 1.561 . S
C2037 C2034 1.526 . S
C2037 C2038 1.396 . S
C2037 C2042 1.390 . S
C2038 C2032 1.465 . S
C2038 C2037 1.396 . S
C2038 C2039 1.399 . S
C2039 H2025 0.929 . S
C2039 C2038 1.399 . S
C2039 C2040 1.385 . S
C2040 H2026 0.931 . S
C2040 C2039 1.385 . S
C2040 C2041 1.389 . S
C2041 C2040 1.389 . S
C2041 C2042 1.387 . S
C2042 H2027 0.930 . S
C2042 C2037 1.390 . S
C2042 C2041 1.387 . S
H2043 C2055 0.930 . S
H2044 C2057 0.930 . S
H2045 C2058 0.930 . S
H2046 C2062 0.959 . S
H2047 C2062 0.959 . S
H2048 C2062 0.961 . S
H2049 C2063 0.960 . S
H2050 C2063 0.961 . S
H2051 C2063 0.959 . S
H2052 C2066 0.929 . S
H2053 C2067 0.931 . S
H2054 C2069 0.930 . S
C2055 H2043 0.930 . S
C2055 C2056 1.399 . S
C2055 C2060 1.399 . S
C2056 C2055 1.399 . S
C2056 C2057 1.376 . S
C2057 H2044 0.930 . S
C2057 C2056 1.376 . S
C2057 C2058 1.388 . S
C2058 H2045 0.930 . S
C2058 C2057 1.388 . S
C2058 C2059 1.390 . S
C2059 C2058 1.390 . S
C2059 C2060 1.394 . S
C2059 C2065 1.465 . S
C2060 C2055 1.399 . S
C2060 C2059 1.394 . S
C2060 C2061 1.516 . S
C2061 C2060 1.516 . S
C2061 C2062 1.502 . S
C2061 C2063 1.561 . S
C2061 C2064 1.526 . S
C2062 H2046 0.959 . S
C2062 H2047 0.959 . S
C2062 H2048 0.961 . S
C2062 C2061 1.502 . S
C2063 H2049 0.960 . S
C2063 H2050 0.961 . S
C2063 H2051 0.959 . S
C2063 C2061 1.561 . S
C2064 C2061 1.526 . S
C2064 C2065 1.396 . S
C2064 C2069 1.390 . S
C2065 C2059 1.465 . S
C2065 C2064 1.396 . S
C2065 C2066 1.399 . S
C2066 H2052 0.929 . S
C2066 C2065 1.399 . S
C2066 C2067 1.385 . S
C2067 H2053 0.931 . S
C2067 C2066 1.385 . S
C2067 C2068 1.389 . S
C2068 C2067 1.389 . S
C2068 C2069 1.387 . S
C2069 H2054 0.930 . S
C2069 C2064 1.390 . S
C2069 C2068 1.387 . S
H2070 C2082 0.930 . S
H2071 C2084 0.930 . S
H2072 C2085 0.930 . S
H2073 C2089 0.959 . S
H2074 C2089 0.959 . S
H2075 C2089 0.961 . S
H2076 C2090 0.960 . S
H2077 C2090 0.961 . S
H2078 C2090 0.959 . S
H2079 C2093 0.929 . S
H2080 C2094 0.931 . S
H2081 C2096 0.930 . S
C2082 H2070 0.930 . S
C2082 C2083 1.399 . S
C2082 C2087 1.399 . S
C2083 C2082 1.399 . S
C2083 C2084 1.376 . S
C2084 H2071 0.930 . S
C2084 C2083 1.376 . S
C2084 C2085 1.388 . S
C2085 H2072 0.930 . S
C2085 C2084 1.388 . S
C2085 C2086 1.390 . S
C2086 C2085 1.390 . S
C2086 C2087 1.394 . S
C2086 C2092 1.465 . S
C2087 C2082 1.399 . S
C2087 C2086 1.394 . S
C2087 C2088 1.516 . S
C2088 C2087 1.516 . S
C2088 C2089 1.502 . S
C2088 C2090 1.561 . S
C2088 C2091 1.526 . S
C2089 H2073 0.959 . S
C2089 H2074 0.959 . S
C2089 H2075 0.961 . S
C2089 C2088 1.502 . S
C2090 H2076 0.960 . S
C2090 H2077 0.961 . S
C2090 H2078 0.959 . S
C2090 C2088 1.561 . S
C2091 C2088 1.526 . S
C2091 C2092 1.396 . S
C2091 C2096 1.390 . S
C2092 C2086 1.465 . S
C2092 C2091 1.396 . S
C2092 C2093 1.399 . S
C2093 H2079 0.929 . S
C2093 C2092 1.399 . S
C2093 C2094 1.385 . S
C2094 H2080 0.931 . S
C2094 C2093 1.385 . S
C2094 C2095 1.389 . S
C2095 C2094 1.389 . S
C2095 C2096 1.387 . S
C2096 H2081 0.930 . S
C2096 C2091 1.390 . S
C2096 C2095 1.387 . S
H2097 C2109 0.930 . S
H2098 C2111 0.930 . S
H2099 C2112 0.930 . S
H2100 C2116 0.959 . S
H2101 C2116 0.959 . S
H2102 C2116 0.961 . S
H2103 C2117 0.960 . S
H2104 C2117 0.961 . S
H2105 C2117 0.959 . S
H2106 C2120 0.929 . S
H2107 C2121 0.931 . S
H2108 C2123 0.930 . S
C2109 H2097 0.930 . S
C2109 C2110 1.399 . S
C2109 C2114 1.399 . S
C2110 C2109 1.399 . S
C2110 C2111 1.376 . S
C2111 H2098 0.930 . S
C2111 C2110 1.376 . S
C2111 C2112 1.388 . S
C2112 H2099 0.930 . S
C2112 C2111 1.388 . S
C2112 C2113 1.390 . S
C2113 C2112 1.390 . S
C2113 C2114 1.394 . S
C2113 C2119 1.465 . S
C2114 C2109 1.399 . S
C2114 C2113 1.394 . S
C2114 C2115 1.516 . S
C2115 C2114 1.516 . S
C2115 C2116 1.502 . S
C2115 C2117 1.561 . S
C2115 C2118 1.526 . S
C2116 H2100 0.959 . S
C2116 H2101 0.959 . S
C2116 H2102 0.961 . S
C2116 C2115 1.502 . S
C2117 H2103 0.960 . S
C2117 H2104 0.961 . S
C2117 H2105 0.959 . S
C2117 C2115 1.561 . S
C2118 C2115 1.526 . S
C2118 C2119 1.396 . S
C2118 C2123 1.390 . S
C2119 C2113 1.465 . S
C2119 C2118 1.396 . S
C2119 C2120 1.399 . S
C2120 H2106 0.929 . S
C2120 C2119 1.399 . S
C2120 C2121 1.385 . S
C2121 H2107 0.931 . S
C2121 C2120 1.385 . S
C2121 C2122 1.389 . S
C2122 C2121 1.389 . S
C2122 C2123 1.387 . S
C2123 H2108 0.930 . S
C2123 C2118 1.390 . S
C2123 C2122 1.387 . S
H2124 C2136 0.930 . S
H2125 C2138 0.930 . S
H2126 C2139 0.930 . S
H2127 C2143 0.959 . S
H2128 C2143 0.959 . S
H2129 C2143 0.961 . S
H2130 C2144 0.960 . S
H2131 C2144 0.961 . S
H2132 C2144 0.959 . S
H2133 C2147 0.929 . S
H2134 C2148 0.931 . S
H2135 C2150 0.930 . S
C2136 H2124 0.930 . S
C2136 C2137 1.399 . S
C2136 C2141 1.399 . S
C2137 C2136 1.399 . S
C2137 C2138 1.376 . S
C2138 H2125 0.930 . S
C2138 C2137 1.376 . S
C2138 C2139 1.388 . S
C2139 H2126 0.930 . S
C2139 C2138 1.388 . S
C2139 C2140 1.390 . S
C2140 C2139 1.390 . S
C2140 C2141 1.394 . S
C2140 C2146 1.465 . S
C2141 C2136 1.399 . S
C2141 C2140 1.394 . S
C2141 C2142 1.516 . S
C2142 C2141 1.516 . S
C2142 C2143 1.502 . S
C2142 C2144 1.561 . S
C2142 C2145 1.526 . S
C2143 H2127 0.959 . S
C2143 H2128 0.959 . S
C2143 H2129 0.961 . S
C2143 C2142 1.502 . S
C2144 H2130 0.960 . S
C2144 H2131 0.961 . S
C2144 H2132 0.959 . S
C2144 C2142 1.561 . S
C2145 C2142 1.526 . S
C2145 C2146 1.396 . S
C2145 C2150 1.390 . S
C2146 C2140 1.465 . S
C2146 C2145 1.396 . S
C2146 C2147 1.399 . S
C2147 H2133 0.929 . S
C2147 C2146 1.399 . S
C2147 C2148 1.385 . S
C2148 H2134 0.931 . S
C2148 C2147 1.385 . S
C2148 C2149 1.389 . S
C2149 C2148 1.389 . S
C2149 C2150 1.387 . S
C2150 H2135 0.930 . S
C2150 C2145 1.390 . S
C2150 C2149 1.387 . S
H2151 C2163 0.930 . S
H2152 C2165 0.930 . S
H2153 C2166 0.930 . S
H2154 C2170 0.959 . S
H2155 C2170 0.959 . S
H2156 C2170 0.961 . S
H2157 C2171 0.960 . S
H2158 C2171 0.961 . S
H2159 C2171 0.959 . S
H2160 C2174 0.929 . S
H2161 C2175 0.931 . S
H2162 C2177 0.930 . S
C2163 H2151 0.930 . S
C2163 C2164 1.399 . S
C2163 C2168 1.399 . S
C2164 C2163 1.399 . S
C2164 C2165 1.376 . S
C2165 H2152 0.930 . S
C2165 C2164 1.376 . S
C2165 C2166 1.388 . S
C2166 H2153 0.930 . S
C2166 C2165 1.388 . S
C2166 C2167 1.390 . S
C2167 C2166 1.390 . S
C2167 C2168 1.394 . S
C2167 C2173 1.465 . S
C2168 C2163 1.399 . S
C2168 C2167 1.394 . S
C2168 C2169 1.516 . S
C2169 C2168 1.516 . S
C2169 C2170 1.502 . S
C2169 C2171 1.561 . S
C2169 C2172 1.526 . S
C2170 H2154 0.959 . S
C2170 H2155 0.959 . S
C2170 H2156 0.961 . S
C2170 C2169 1.502 . S
C2171 H2157 0.960 . S
C2171 H2158 0.961 . S
C2171 H2159 0.959 . S
C2171 C2169 1.561 . S
C2172 C2169 1.526 . S
C2172 C2173 1.396 . S
C2172 C2177 1.390 . S
C2173 C2167 1.465 . S
C2173 C2172 1.396 . S
C2173 C2174 1.399 . S
C2174 H2160 0.929 . S
C2174 C2173 1.399 . S
C2174 C2175 1.385 . S
C2175 H2161 0.931 . S
C2175 C2174 1.385 . S
C2175 C2176 1.389 . S
C2176 C2175 1.389 . S
C2176 C2177 1.387 . S
C2177 H2162 0.930 . S
C2177 C2172 1.390 . S
C2177 C2176 1.387 . S
H2178 C2190 0.930 . S
H2179 C2192 0.930 . S
H2180 C2193 0.930 . S
H2181 C2197 0.959 . S
H2182 C2197 0.959 . S
H2183 C2197 0.961 . S
H2184 C2198 0.960 . S
H2185 C2198 0.961 . S
H2186 C2198 0.959 . S
H2187 C2201 0.929 . S
H2188 C2202 0.931 . S
H2189 C2204 0.930 . S
C2190 H2178 0.930 . S
C2190 C2191 1.399 . S
C2190 C2195 1.399 . S
C2191 C2190 1.399 . S
C2191 C2192 1.376 . S
C2192 H2179 0.930 . S
C2192 C2191 1.376 . S
C2192 C2193 1.388 . S
C2193 H2180 0.930 . S
C2193 C2192 1.388 . S
C2193 C2194 1.390 . S
C2194 C2193 1.390 . S
C2194 C2195 1.394 . S
C2194 C2200 1.465 . S
C2195 C2190 1.399 . S
C2195 C2194 1.394 . S
C2195 C2196 1.516 . S
C2196 C2195 1.516 . S
C2196 C2197 1.502 . S
C2196 C2198 1.561 . S
C2196 C2199 1.526 . S
C2197 H2181 0.959 . S
C2197 H2182 0.959 . S
C2197 H2183 0.961 . S
C2197 C2196 1.502 . S
C2198 H2184 0.960 . S
C2198 H2185 0.961 . S
C2198 H2186 0.959 . S
C2198 C2196 1.561 . S
C2199 C2196 1.526 . S
C2199 C2200 1.396 . S
C2199 C2204 1.390 . S
C2200 C2194 1.465 . S
C2200 C2199 1.396 . S
C2200 C2201 1.399 . S
C2201 H2187 0.929 . S
C2201 C2200 1.399 . S
C2201 C2202 1.385 . S
C2202 H2188 0.931 . S
C2202 C2201 1.385 . S
C2202 C2203 1.389 . S
C2203 C2202 1.389 . S
C2203 C2204 1.387 . S
C2204 H2189 0.930 . S
C2204 C2199 1.390 . S
C2204 C2203 1.387 . S
H2205 C2217 0.930 . S
H2206 C2219 0.930 . S
H2207 C2220 0.930 . S
H2208 C2224 0.959 . S
H2209 C2224 0.959 . S
H2210 C2224 0.961 . S
H2211 C2225 0.960 . S
H2212 C2225 0.961 . S
H2213 C2225 0.959 . S
H2214 C2228 0.929 . S
H2215 C2229 0.931 . S
H2216 C2231 0.930 . S
C2217 H2205 0.930 . S
C2217 C2218 1.399 . S
C2217 C2222 1.399 . S
C2218 C2217 1.399 . S
C2218 C2219 1.376 . S
C2219 H2206 0.930 . S
C2219 C2218 1.376 . S
C2219 C2220 1.388 . S
C2220 H2207 0.930 . S
C2220 C2219 1.388 . S
C2220 C2221 1.390 . S
C2221 C2220 1.390 . S
C2221 C2222 1.394 . S
C2221 C2227 1.465 . S
C2222 C2217 1.399 . S
C2222 C2221 1.394 . S
C2222 C2223 1.516 . S
C2223 C2222 1.516 . S
C2223 C2224 1.502 . S
C2223 C2225 1.561 . S
C2223 C2226 1.526 . S
C2224 H2208 0.959 . S
C2224 H2209 0.959 . S
C2224 H2210 0.961 . S
C2224 C2223 1.502 . S
C2225 H2211 0.960 . S
C2225 H2212 0.961 . S
C2225 H2213 0.959 . S
C2225 C2223 1.561 . S
C2226 C2223 1.526 . S
C2226 C2227 1.396 . S
C2226 C2231 1.390 . S
C2227 C2221 1.465 . S
C2227 C2226 1.396 . S
C2227 C2228 1.399 . S
C2228 H2214 0.929 . S
C2228 C2227 1.399 . S
C2228 C2229 1.385 . S
C2229 H2215 0.931 . S
C2229 C2228 1.385 . S
C2229 C2230 1.389 . S
C2230 C2229 1.389 . S
C2230 C2231 1.387 . S
C2231 H2216 0.930 . S
C2231 C2226 1.390 . S
C2231 C2230 1.387 . S
H2232 C2244 0.930 . S
H2233 C2246 0.930 . S
H2234 C2247 0.930 . S
H2235 C2251 0.959 . S
H2236 C2251 0.959 . S
H2237 C2251 0.961 . S
H2238 C2252 0.960 . S
H2239 C2252 0.961 . S
H2240 C2252 0.959 . S
H2241 C2255 0.929 . S
H2242 C2256 0.931 . S
H2243 C2258 0.930 . S
C2244 H2232 0.930 . S
C2244 C2245 1.399 . S
C2244 C2249 1.399 . S
C2245 C2244 1.399 . S
C2245 C2246 1.376 . S
C2246 H2233 0.930 . S
C2246 C2245 1.376 . S
C2246 C2247 1.388 . S
C2247 H2234 0.930 . S
C2247 C2246 1.388 . S
C2247 C2248 1.390 . S
C2248 C2247 1.390 . S
C2248 C2249 1.394 . S
C2248 C2254 1.465 . S
C2249 C2244 1.399 . S
C2249 C2248 1.394 . S
C2249 C2250 1.516 . S
C2250 C2249 1.516 . S
C2250 C2251 1.502 . S
C2250 C2252 1.561 . S
C2250 C2253 1.526 . S
C2251 H2235 0.959 . S
C2251 H2236 0.959 . S
C2251 H2237 0.961 . S
C2251 C2250 1.502 . S
C2252 H2238 0.960 . S
C2252 H2239 0.961 . S
C2252 H2240 0.959 . S
C2252 C2250 1.561 . S
C2253 C2250 1.526 . S
C2253 C2254 1.396 . S
C2253 C2258 1.390 . S
C2254 C2248 1.465 . S
C2254 C2253 1.396 . S
C2254 C2255 1.399 . S
C2255 H2241 0.929 . S
C2255 C2254 1.399 . S
C2255 C2256 1.385 . S
C2256 H2242 0.931 . S
C2256 C2255 1.385 . S
C2256 C2257 1.389 . S
C2257 C2256 1.389 . S
C2257 C2258 1.387 . S
C2258 H2243 0.930 . S
C2258 C2253 1.390 . S
C2258 C2257 1.387 . S
H2259 C2271 0.930 . S
H2260 C2273 0.930 . S
H2261 C2274 0.930 . S
H2262 C2278 0.959 . S
H2263 C2278 0.959 . S
H2264 C2278 0.961 . S
H2265 C2279 0.960 . S
H2266 C2279 0.961 . S
H2267 C2279 0.959 . S
H2268 C2282 0.929 . S
H2269 C2283 0.931 . S
H2270 C2285 0.930 . S
C2271 H2259 0.930 . S
C2271 C2272 1.399 . S
C2271 C2276 1.399 . S
C2272 C2271 1.399 . S
C2272 C2273 1.376 . S
C2273 H2260 0.930 . S
C2273 C2272 1.376 . S
C2273 C2274 1.388 . S
C2274 H2261 0.930 . S
C2274 C2273 1.388 . S
C2274 C2275 1.390 . S
C2275 C2274 1.390 . S
C2275 C2276 1.394 . S
C2275 C2281 1.465 . S
C2276 C2271 1.399 . S
C2276 C2275 1.394 . S
C2276 C2277 1.516 . S
C2277 C2276 1.516 . S
C2277 C2278 1.502 . S
C2277 C2279 1.561 . S
C2277 C2280 1.526 . S
C2278 H2262 0.959 . S
C2278 H2263 0.959 . S
C2278 H2264 0.961 . S
C2278 C2277 1.502 . S
C2279 H2265 0.960 . S
C2279 H2266 0.961 . S
C2279 H2267 0.959 . S
C2279 C2277 1.561 . S
C2280 C2277 1.526 . S
C2280 C2281 1.396 . S
C2280 C2285 1.390 . S
C2281 C2275 1.465 . S
C2281 C2280 1.396 . S
C2281 C2282 1.399 . S
C2282 H2268 0.929 . S
C2282 C2281 1.399 . S
C2282 C2283 1.385 . S
C2283 H2269 0.931 . S
C2283 C2282 1.385 . S
C2283 C2284 1.389 . S
C2284 C2283 1.389 . S
C2284 C2285 1.387 . S
C2285 H2270 0.930 . S
C2285 C2280 1.390 . S
C2285 C2284 1.387 . S
H2286 C2298 0.930 . S
H2287 C2300 0.930 . S
H2288 C2301 0.930 . S
H2289 C2305 0.959 . S
H2290 C2305 0.959 . S
H2291 C2305 0.961 . S
H2292 C2306 0.960 . S
H2293 C2306 0.961 . S
H2294 C2306 0.959 . S
H2295 C2309 0.929 . S
H2296 C2310 0.931 . S
H2297 C2312 0.930 . S
C2298 H2286 0.930 . S
C2298 C2299 1.399 . S
C2298 C2303 1.399 . S
C2299 C2298 1.399 . S
C2299 C2300 1.376 . S
C2300 H2287 0.930 . S
C2300 C2299 1.376 . S
C2300 C2301 1.388 . S
C2301 H2288 0.930 . S
C2301 C2300 1.388 . S
C2301 C2302 1.390 . S
C2302 C2301 1.390 . S
C2302 C2303 1.394 . S
C2302 C2308 1.465 . S
C2303 C2298 1.399 . S
C2303 C2302 1.394 . S
C2303 C2304 1.516 . S
C2304 C2303 1.516 . S
C2304 C2305 1.502 . S
C2304 C2306 1.561 . S
C2304 C2307 1.526 . S
C2305 H2289 0.959 . S
C2305 H2290 0.959 . S
C2305 H2291 0.961 . S
C2305 C2304 1.502 . S
C2306 H2292 0.960 . S
C2306 H2293 0.961 . S
C2306 H2294 0.959 . S
C2306 C2304 1.561 . S
C2307 C2304 1.526 . S
C2307 C2308 1.396 . S
C2307 C2312 1.390 . S
C2308 C2302 1.465 . S
C2308 C2307 1.396 . S
C2308 C2309 1.399 . S
C2309 H2295 0.929 . S
C2309 C2308 1.399 . S
C2309 C2310 1.385 . S
C2310 H2296 0.931 . S
C2310 C2309 1.385 . S
C2310 C2311 1.389 . S
C2311 C2310 1.389 . S
C2311 C2312 1.387 . S
C2312 H2297 0.930 . S
C2312 C2307 1.390 . S
C2312 C2311 1.387 . S
H2313 C2325 0.930 . S
H2314 C2327 0.930 . S
H2315 C2328 0.930 . S
H2316 C2332 0.959 . S
H2317 C2332 0.959 . S
H2318 C2332 0.961 . S
H2319 C2333 0.960 . S
H2320 C2333 0.961 . S
H2321 C2333 0.959 . S
H2322 C2336 0.929 . S
H2323 C2337 0.931 . S
H2324 C2339 0.930 . S
C2325 H2313 0.930 . S
C2325 C2326 1.399 . S
C2325 C2330 1.399 . S
C2326 C2325 1.399 . S
C2326 C2327 1.376 . S
C2327 H2314 0.930 . S
C2327 C2326 1.376 . S
C2327 C2328 1.388 . S
C2328 H2315 0.930 . S
C2328 C2327 1.388 . S
C2328 C2329 1.390 . S
C2329 C2328 1.390 . S
C2329 C2330 1.394 . S
C2329 C2335 1.465 . S
C2330 C2325 1.399 . S
C2330 C2329 1.394 . S
C2330 C2331 1.516 . S
C2331 C2330 1.516 . S
C2331 C2332 1.502 . S
C2331 C2333 1.561 . S
C2331 C2334 1.526 . S
C2332 H2316 0.959 . S
C2332 H2317 0.959 . S
C2332 H2318 0.961 . S
C2332 C2331 1.502 . S
C2333 H2319 0.960 . S
C2333 H2320 0.961 . S
C2333 H2321 0.959 . S
C2333 C2331 1.561 . S
C2334 C2331 1.526 . S
C2334 C2335 1.396 . S
C2334 C2339 1.390 . S
C2335 C2329 1.465 . S
C2335 C2334 1.396 . S
C2335 C2336 1.399 . S
C2336 H2322 0.929 . S
C2336 C2335 1.399 . S
C2336 C2337 1.385 . S
C2337 H2323 0.931 . S
C2337 C2336 1.385 . S
C2337 C2338 1.389 . S
C2338 C2337 1.389 . S
C2338 C2339 1.387 . S
C2339 H2324 0.930 . S
C2339 C2334 1.390 . S
C2339 C2338 1.387 . S
H2340 C2352 0.930 . S
H2341 C2354 0.930 . S
H2342 C2355 0.930 . S
H2343 C2359 0.959 . S
H2344 C2359 0.959 . S
H2345 C2359 0.961 . S
H2346 C2360 0.960 . S
H2347 C2360 0.961 . S
H2348 C2360 0.959 . S
H2349 C2363 0.929 . S
H2350 C2364 0.931 . S
H2351 C2366 0.930 . S
C2352 H2340 0.930 . S
C2352 C2353 1.399 . S
C2352 C2357 1.399 . S
C2353 C2352 1.399 . S
C2353 C2354 1.376 . S
C2354 H2341 0.930 . S
C2354 C2353 1.376 . S
C2354 C2355 1.388 . S
C2355 H2342 0.930 . S
C2355 C2354 1.388 . S
C2355 C2356 1.390 . S
C2356 C2355 1.390 . S
C2356 C2357 1.394 . S
C2356 C2362 1.465 . S
C2357 C2352 1.399 . S
C2357 C2356 1.394 . S
C2357 C2358 1.516 . S
C2358 C2357 1.516 . S
C2358 C2359 1.502 . S
C2358 C2360 1.561 . S
C2358 C2361 1.526 . S
C2359 H2343 0.959 . S
C2359 H2344 0.959 . S
C2359 H2345 0.961 . S
C2359 C2358 1.502 . S
C2360 H2346 0.960 . S
C2360 H2347 0.961 . S
C2360 H2348 0.959 . S
C2360 C2358 1.561 . S
C2361 C2358 1.526 . S
C2361 C2362 1.396 . S
C2361 C2366 1.390 . S
C2362 C2356 1.465 . S
C2362 C2361 1.396 . S
C2362 C2363 1.399 . S
C2363 H2349 0.929 . S
C2363 C2362 1.399 . S
C2363 C2364 1.385 . S
C2364 H2350 0.931 . S
C2364 C2363 1.385 . S
C2364 C2365 1.389 . S
C2365 C2364 1.389 . S
C2365 C2366 1.387 . S
C2366 H2351 0.930 . S
C2366 C2361 1.390 . S
C2366 C2365 1.387 . S
H2367 C2379 0.930 . S
H2368 C2381 0.930 . S
H2369 C2382 0.930 . S
H2370 C2386 0.959 . S
H2371 C2386 0.959 . S
H2372 C2386 0.961 . S
H2373 C2387 0.960 . S
H2374 C2387 0.961 . S
H2375 C2387 0.959 . S
H2376 C2390 0.929 . S
H2377 C2391 0.931 . S
H2378 C2393 0.930 . S
C2379 H2367 0.930 . S
C2379 C2380 1.399 . S
C2379 C2384 1.399 . S
C2380 C2379 1.399 . S
C2380 C2381 1.376 . S
C2381 H2368 0.930 . S
C2381 C2380 1.376 . S
C2381 C2382 1.388 . S
C2382 H2369 0.930 . S
C2382 C2381 1.388 . S
C2382 C2383 1.390 . S
C2383 C2382 1.390 . S
C2383 C2384 1.394 . S
C2383 C2389 1.465 . S
C2384 C2379 1.399 . S
C2384 C2383 1.394 . S
C2384 C2385 1.516 . S
C2385 C2384 1.516 . S
C2385 C2386 1.502 . S
C2385 C2387 1.561 . S
C2385 C2388 1.526 . S
C2386 H2370 0.959 . S
C2386 H2371 0.959 . S
C2386 H2372 0.961 . S
C2386 C2385 1.502 . S
C2387 H2373 0.960 . S
C2387 H2374 0.961 . S
C2387 H2375 0.959 . S
C2387 C2385 1.561 . S
C2388 C2385 1.526 . S
C2388 C2389 1.396 . S
C2388 C2393 1.390 . S
C2389 C2383 1.465 . S
C2389 C2388 1.396 . S
C2389 C2390 1.399 . S
C2390 H2376 0.929 . S
C2390 C2389 1.399 . S
C2390 C2391 1.385 . S
C2391 H2377 0.931 . S
C2391 C2390 1.385 . S
C2391 C2392 1.389 . S
C2392 C2391 1.389 . S
C2392 C2393 1.387 . S
C2393 H2378 0.930 . S
C2393 C2388 1.390 . S
C2393 C2392 1.387 . S
H2394 C2406 0.930 . S
H2395 C2408 0.930 . S
H2396 C2409 0.930 . S
H2397 C2413 0.959 . S
H2398 C2413 0.959 . S
H2399 C2413 0.961 . S
H2400 C2414 0.960 . S
H2401 C2414 0.961 . S
H2402 C2414 0.959 . S
H2403 C2417 0.929 . S
H2404 C2418 0.931 . S
H2405 C2420 0.930 . S
C2406 H2394 0.930 . S
C2406 C2407 1.399 . S
C2406 C2411 1.399 . S
C2407 C2406 1.399 . S
C2407 C2408 1.376 . S
C2408 H2395 0.930 . S
C2408 C2407 1.376 . S
C2408 C2409 1.388 . S
C2409 H2396 0.930 . S
C2409 C2408 1.388 . S
C2409 C2410 1.390 . S
C2410 C2409 1.390 . S
C2410 C2411 1.394 . S
C2410 C2416 1.465 . S
C2411 C2406 1.399 . S
C2411 C2410 1.394 . S
C2411 C2412 1.516 . S
C2412 C2411 1.516 . S
C2412 C2413 1.502 . S
C2412 C2414 1.561 . S
C2412 C2415 1.526 . S
C2413 H2397 0.959 . S
C2413 H2398 0.959 . S
C2413 H2399 0.961 . S
C2413 C2412 1.502 . S
C2414 H2400 0.960 . S
C2414 H2401 0.961 . S
C2414 H2402 0.959 . S
C2414 C2412 1.561 . S
C2415 C2412 1.526 . S
C2415 C2416 1.396 . S
C2415 C2420 1.390 . S
C2416 C2410 1.465 . S
C2416 C2415 1.396 . S
C2416 C2417 1.399 . S
C2417 H2403 0.929 . S
C2417 C2416 1.399 . S
C2417 C2418 1.385 . S
C2418 H2404 0.931 . S
C2418 C2417 1.385 . S
C2418 C2419 1.389 . S
C2419 C2418 1.389 . S
C2419 C2420 1.387 . S
C2420 H2405 0.930 . S
C2420 C2415 1.390 . S
C2420 C2419 1.387 . S
H2421 C2433 0.930 . S
H2422 C2435 0.930 . S
H2423 C2436 0.930 . S
H2424 C2440 0.959 . S
H2425 C2440 0.959 . S
H2426 C2440 0.961 . S
H2427 C2441 0.960 . S
H2428 C2441 0.961 . S
H2429 C2441 0.959 . S
H2430 C2444 0.929 . S
H2431 C2445 0.931 . S
H2432 C2447 0.930 . S
C2433 H2421 0.930 . S
C2433 C2434 1.399 . S
C2433 C2438 1.399 . S
C2434 C2433 1.399 . S
C2434 C2435 1.376 . S
C2435 H2422 0.930 . S
C2435 C2434 1.376 . S
C2435 C2436 1.388 . S
C2436 H2423 0.930 . S
C2436 C2435 1.388 . S
C2436 C2437 1.390 . S
C2437 C2436 1.390 . S
C2437 C2438 1.394 . S
C2437 C2443 1.465 . S
C2438 C2433 1.399 . S
C2438 C2437 1.394 . S
C2438 C2439 1.516 . S
C2439 C2438 1.516 . S
C2439 C2440 1.502 . S
C2439 C2441 1.561 . S
C2439 C2442 1.526 . S
C2440 H2424 0.959 . S
C2440 H2425 0.959 . S
C2440 H2426 0.961 . S
C2440 C2439 1.502 . S
C2441 H2427 0.960 . S
C2441 H2428 0.961 . S
C2441 H2429 0.959 . S
C2441 C2439 1.561 . S
C2442 C2439 1.526 . S
C2442 C2443 1.396 . S
C2442 C2447 1.390 . S
C2443 C2437 1.465 . S
C2443 C2442 1.396 . S
C2443 C2444 1.399 . S
C2444 H2430 0.929 . S
C2444 C2443 1.399 . S
C2444 C2445 1.385 . S
C2445 H2431 0.931 . S
C2445 C2444 1.385 . S
C2445 C2446 1.389 . S
C2446 C2445 1.389 . S
C2446 C2447 1.387 . S
C2447 H2432 0.930 . S
C2447 C2442 1.390 . S
C2447 C2446 1.387 . S
H2448 C2460 0.930 . S
H2449 C2462 0.930 . S
H2450 C2463 0.930 . S
H2451 C2467 0.959 . S
H2452 C2467 0.959 . S
H2453 C2467 0.961 . S
H2454 C2468 0.960 . S
H2455 C2468 0.961 . S
H2456 C2468 0.959 . S
H2457 C2471 0.929 . S
H2458 C2472 0.931 . S
H2459 C2474 0.930 . S
C2460 H2448 0.930 . S
C2460 C2461 1.399 . S
C2460 C2465 1.399 . S
C2461 C2460 1.399 . S
C2461 C2462 1.376 . S
C2462 H2449 0.930 . S
C2462 C2461 1.376 . S
C2462 C2463 1.388 . S
C2463 H2450 0.930 . S
C2463 C2462 1.388 . S
C2463 C2464 1.390 . S
C2464 C2463 1.390 . S
C2464 C2465 1.394 . S
C2464 C2470 1.465 . S
C2465 C2460 1.399 . S
C2465 C2464 1.394 . S
C2465 C2466 1.516 . S
C2466 C2465 1.516 . S
C2466 C2467 1.502 . S
C2466 C2468 1.561 . S
C2466 C2469 1.526 . S
C2467 H2451 0.959 . S
C2467 H2452 0.959 . S
C2467 H2453 0.961 . S
C2467 C2466 1.502 . S
C2468 H2454 0.960 . S
C2468 H2455 0.961 . S
C2468 H2456 0.959 . S
C2468 C2466 1.561 . S
C2469 C2466 1.526 . S
C2469 C2470 1.396 . S
C2469 C2474 1.390 . S
C2470 C2464 1.465 . S
C2470 C2469 1.396 . S
C2470 C2471 1.399 . S
C2471 H2457 0.929 . S
C2471 C2470 1.399 . S
C2471 C2472 1.385 . S
C2472 H2458 0.931 . S
C2472 C2471 1.385 . S
C2472 C2473 1.389 . S
C2473 C2472 1.389 . S
C2473 C2474 1.387 . S
C2474 H2459 0.930 . S
C2474 C2469 1.390 . S
C2474 C2473 1.387 . S
H2475 C2487 0.930 . S
H2476 C2489 0.930 . S
H2477 C2490 0.930 . S
H2478 C2494 0.959 . S
H2479 C2494 0.959 . S
H2480 C2494 0.961 . S
H2481 C2495 0.960 . S
H2482 C2495 0.961 . S
H2483 C2495 0.959 . S
H2484 C2498 0.929 . S
H2485 C2499 0.931 . S
H2486 C2501 0.930 . S
C2487 H2475 0.930 . S
C2487 C2488 1.399 . S
C2487 C2492 1.399 . S
C2488 C2487 1.399 . S
C2488 C2489 1.376 . S
C2489 H2476 0.930 . S
C2489 C2488 1.376 . S
C2489 C2490 1.388 . S
C2490 H2477 0.930 . S
C2490 C2489 1.388 . S
C2490 C2491 1.390 . S
C2491 C2490 1.390 . S
C2491 C2492 1.394 . S
C2491 C2497 1.465 . S
C2492 C2487 1.399 . S
C2492 C2491 1.394 . S
C2492 C2493 1.516 . S
C2493 C2492 1.516 . S
C2493 C2494 1.502 . S
C2493 C2495 1.561 . S
C2493 C2496 1.526 . S
C2494 H2478 0.959 . S
C2494 H2479 0.959 . S
C2494 H2480 0.961 . S
C2494 C2493 1.502 . S
C2495 H2481 0.960 . S
C2495 H2482 0.961 . S
C2495 H2483 0.959 . S
C2495 C2493 1.561 . S
C2496 C2493 1.526 . S
C2496 C2497 1.396 . S
C2496 C2501 1.390 . S
C2497 C2491 1.465 . S
C2497 C2496 1.396 . S
C2497 C2498 1.399 . S
C2498 H2484 0.929 . S
C2498 C2497 1.399 . S
C2498 C2499 1.385 . S
C2499 H2485 0.931 . S
C2499 C2498 1.385 . S
C2499 C2500 1.389 . S
C2500 C2499 1.389 . S
C2500 C2501 1.387 . S
C2501 H2486 0.930 . S
C2501 C2496 1.390 . S
C2501 C2500 1.387 . S
H2502 C2514 0.930 . S
H2503 C2516 0.930 . S
H2504 C2517 0.930 . S
H2505 C2521 0.959 . S
H2506 C2521 0.959 . S
H2507 C2521 0.961 . S
H2508 C2522 0.960 . S
H2509 C2522 0.961 . S
H2510 C2522 0.959 . S
H2511 C2525 0.929 . S
H2512 C2526 0.931 . S
H2513 C2528 0.930 . S
C2514 H2502 0.930 . S
C2514 C2515 1.399 . S
C2514 C2519 1.399 . S
C2515 C2514 1.399 . S
C2515 C2516 1.376 . S
C2516 H2503 0.930 . S
C2516 C2515 1.376 . S
C2516 C2517 1.388 . S
C2517 H2504 0.930 . S
C2517 C2516 1.388 . S
C2517 C2518 1.390 . S
C2518 C2517 1.390 . S
C2518 C2519 1.394 . S
C2518 C2524 1.465 . S
C2519 C2514 1.399 . S
C2519 C2518 1.394 . S
C2519 C2520 1.516 . S
C2520 C2519 1.516 . S
C2520 C2521 1.502 . S
C2520 C2522 1.561 . S
C2520 C2523 1.526 . S
C2521 H2505 0.959 . S
C2521 H2506 0.959 . S
C2521 H2507 0.961 . S
C2521 C2520 1.502 . S
C2522 H2508 0.960 . S
C2522 H2509 0.961 . S
C2522 H2510 0.959 . S
C2522 C2520 1.561 . S
C2523 C2520 1.526 . S
C2523 C2524 1.396 . S
C2523 C2528 1.390 . S
C2524 C2518 1.465 . S
C2524 C2523 1.396 . S
C2524 C2525 1.399 . S
C2525 H2511 0.929 . S
C2525 C2524 1.399 . S
C2525 C2526 1.385 . S
C2526 H2512 0.931 . S
C2526 C2525 1.385 . S
C2526 C2527 1.389 . S
C2527 C2526 1.389 . S
C2527 C2528 1.387 . S
C2528 H2513 0.930 . S
C2528 C2523 1.390 . S
C2528 C2527 1.387 . S
H2529 C2541 0.930 . S
H2530 C2543 0.930 . S
H2531 C2544 0.930 . S
H2532 C2548 0.959 . S
H2533 C2548 0.959 . S
H2534 C2548 0.961 . S
H2535 C2549 0.960 . S
H2536 C2549 0.961 . S
H2537 C2549 0.959 . S
H2538 C2552 0.929 . S
H2539 C2553 0.931 . S
H2540 C2555 0.930 . S
C2541 H2529 0.930 . S
C2541 C2542 1.399 . S
C2541 C2546 1.399 . S
C2542 C2541 1.399 . S
C2542 C2543 1.376 . S
C2543 H2530 0.930 . S
C2543 C2542 1.376 . S
C2543 C2544 1.388 . S
C2544 H2531 0.930 . S
C2544 C2543 1.388 . S
C2544 C2545 1.390 . S
C2545 C2544 1.390 . S
C2545 C2546 1.394 . S
C2545 C2551 1.465 . S
C2546 C2541 1.399 . S
C2546 C2545 1.394 . S
C2546 C2547 1.516 . S
C2547 C2546 1.516 . S
C2547 C2548 1.502 . S
C2547 C2549 1.561 . S
C2547 C2550 1.526 . S
C2548 H2532 0.959 . S
C2548 H2533 0.959 . S
C2548 H2534 0.961 . S
C2548 C2547 1.502 . S
C2549 H2535 0.960 . S
C2549 H2536 0.961 . S
C2549 H2537 0.959 . S
C2549 C2547 1.561 . S
C2550 C2547 1.526 . S
C2550 C2551 1.396 . S
C2550 C2555 1.390 . S
C2551 C2545 1.465 . S
C2551 C2550 1.396 . S
C2551 C2552 1.399 . S
C2552 H2538 0.929 . S
C2552 C2551 1.399 . S
C2552 C2553 1.385 . S
C2553 H2539 0.931 . S
C2553 C2552 1.385 . S
C2553 C2554 1.389 . S
C2554 C2553 1.389 . S
C2554 C2555 1.387 . S
C2555 H2540 0.930 . S
C2555 C2550 1.390 . S
C2555 C2554 1.387 . S
H2556 C2568 0.930 . S
H2557 C2570 0.930 . S
H2558 C2571 0.930 . S
H2559 C2575 0.959 . S
H2560 C2575 0.959 . S
H2561 C2575 0.961 . S
H2562 C2576 0.960 . S
H2563 C2576 0.961 . S
H2564 C2576 0.959 . S
H2565 C2579 0.929 . S
H2566 C2580 0.931 . S
H2567 C2582 0.930 . S
C2568 H2556 0.930 . S
C2568 C2569 1.399 . S
C2568 C2573 1.399 . S
C2569 C2568 1.399 . S
C2569 C2570 1.376 . S
C2570 H2557 0.930 . S
C2570 C2569 1.376 . S
C2570 C2571 1.388 . S
C2571 H2558 0.930 . S
C2571 C2570 1.388 . S
C2571 C2572 1.390 . S
C2572 C2571 1.390 . S
C2572 C2573 1.394 . S
C2572 C2578 1.465 . S
C2573 C2568 1.399 . S
C2573 C2572 1.394 . S
C2573 C2574 1.516 . S
C2574 C2573 1.516 . S
C2574 C2575 1.502 . S
C2574 C2576 1.561 . S
C2574 C2577 1.526 . S
C2575 H2559 0.959 . S
C2575 H2560 0.959 . S
C2575 H2561 0.961 . S
C2575 C2574 1.502 . S
C2576 H2562 0.960 . S
C2576 H2563 0.961 . S
C2576 H2564 0.959 . S
C2576 C2574 1.561 . S
C2577 C2574 1.526 . S
C2577 C2578 1.396 . S
C2577 C2582 1.390 . S
C2578 C2572 1.465 . S
C2578 C2577 1.396 . S
C2578 C2579 1.399 . S
C2579 H2565 0.929 . S
C2579 C2578 1.399 . S
C2579 C2580 1.385 . S
C2580 H2566 0.931 . S
C2580 C2579 1.385 . S
C2580 C2581 1.389 . S
C2581 C2580 1.389 . S
C2581 C2582 1.387 . S
C2582 H2567 0.930 . S
C2582 C2577 1.390 . S
C2582 C2581 1.387 . S
H2583 C2595 0.930 . S
H2584 C2597 0.930 . S
H2585 C2598 0.930 . S
H2586 C2602 0.959 . S
H2587 C2602 0.959 . S
H2588 C2602 0.961 . S
H2589 C2603 0.960 . S
H2590 C2603 0.961 . S
H2591 C2603 0.959 . S
H2592 C2606 0.929 . S
H2593 C2607 0.931 . S
H2594 C2609 0.930 . S
C2595 H2583 0.930 . S
C2595 C2596 1.399 . S
C2595 C2600 1.399 . S
C2596 C2595 1.399 . S
C2596 C2597 1.376 . S
C2597 H2584 0.930 . S
C2597 C2596 1.376 . S
C2597 C2598 1.388 . S
C2598 H2585 0.930 . S
C2598 C2597 1.388 . S
C2598 C2599 1.390 . S
C2599 C2598 1.390 . S
C2599 C2600 1.394 . S
C2599 C2605 1.465 . S
C2600 C2595 1.399 . S
C2600 C2599 1.394 . S
C2600 C2601 1.516 . S
C2601 C2600 1.516 . S
C2601 C2602 1.502 . S
C2601 C2603 1.561 . S
C2601 C2604 1.526 . S
C2602 H2586 0.959 . S
C2602 H2587 0.959 . S
C2602 H2588 0.961 . S
C2602 C2601 1.502 . S
C2603 H2589 0.960 . S
C2603 H2590 0.961 . S
C2603 H2591 0.959 . S
C2603 C2601 1.561 . S
C2604 C2601 1.526 . S
C2604 C2605 1.396 . S
C2604 C2609 1.390 . S
C2605 C2599 1.465 . S
C2605 C2604 1.396 . S
C2605 C2606 1.399 . S
C2606 H2592 0.929 . S
C2606 C2605 1.399 . S
C2606 C2607 1.385 . S
C2607 H2593 0.931 . S
C2607 C2606 1.385 . S
C2607 C2608 1.389 . S
C2608 C2607 1.389 . S
C2608 C2609 1.387 . S
C2609 H2594 0.930 . S
C2609 C2604 1.390 . S
C2609 C2608 1.387 . S
H2610 C2622 0.930 . S
H2611 C2624 0.930 . S
H2612 C2625 0.930 . S
H2613 C2629 0.959 . S
H2614 C2629 0.959 . S
H2615 C2629 0.961 . S
H2616 C2630 0.960 . S
H2617 C2630 0.961 . S
H2618 C2630 0.959 . S
H2619 C2633 0.929 . S
H2620 C2634 0.931 . S
H2621 C2636 0.930 . S
C2622 H2610 0.930 . S
C2622 C2623 1.399 . S
C2622 C2627 1.399 . S
C2623 C2622 1.399 . S
C2623 C2624 1.376 . S
C2624 H2611 0.930 . S
C2624 C2623 1.376 . S
C2624 C2625 1.388 . S
C2625 H2612 0.930 . S
C2625 C2624 1.388 . S
C2625 C2626 1.390 . S
C2626 C2625 1.390 . S
C2626 C2627 1.394 . S
C2626 C2632 1.465 . S
C2627 C2622 1.399 . S
C2627 C2626 1.394 . S
C2627 C2628 1.516 . S
C2628 C2627 1.516 . S
C2628 C2629 1.502 . S
C2628 C2630 1.561 . S
C2628 C2631 1.526 . S
C2629 H2613 0.959 . S
C2629 H2614 0.959 . S
C2629 H2615 0.961 . S
C2629 C2628 1.502 . S
C2630 H2616 0.960 . S
C2630 H2617 0.961 . S
C2630 H2618 0.959 . S
C2630 C2628 1.561 . S
C2631 C2628 1.526 . S
C2631 C2632 1.396 . S
C2631 C2636 1.390 . S
C2632 C2626 1.465 . S
C2632 C2631 1.396 . S
C2632 C2633 1.399 . S
C2633 H2619 0.929 . S
C2633 C2632 1.399 . S
C2633 C2634 1.385 . S
C2634 H2620 0.931 . S
C2634 C2633 1.385 . S
C2634 C2635 1.389 . S
C2635 C2634 1.389 . S
C2635 C2636 1.387 . S
C2636 H2621 0.930 . S
C2636 C2631 1.390 . S
C2636 C2635 1.387 . S
H2637 C2649 0.930 . S
H2638 C2651 0.930 . S
H2639 C2652 0.930 . S
H2640 C2656 0.959 . S
H2641 C2656 0.959 . S
H2642 C2656 0.961 . S
H2643 C2657 0.960 . S
H2644 C2657 0.961 . S
H2645 C2657 0.959 . S
H2646 C2660 0.929 . S
H2647 C2661 0.931 . S
H2648 C2663 0.930 . S
C2649 H2637 0.930 . S
C2649 C2650 1.399 1_556 S
C2649 C2654 1.399 . S
C2650 C2649 1.399 1_554 S
C2650 C2651 1.376 . S
C2651 H2638 0.930 . S
C2651 C2650 1.376 . S
C2651 C2652 1.388 . S
C2652 H2639 0.930 . S
C2652 C2651 1.388 . S
C2652 C2653 1.390 1_554 S
C2653 C2652 1.390 1_556 S
C2653 C2654 1.394 . S
C2653 C2659 1.465 . S
C2654 C2649 1.399 . S
C2654 C2653 1.394 . S
C2654 C2655 1.516 . S
C2655 C2654 1.516 . S
C2655 C2656 1.502 . S
C2655 C2657 1.561 . S
C2655 C2658 1.526 . S
C2656 H2640 0.959 . S
C2656 H2641 0.959 . S
C2656 H2642 0.961 . S
C2656 C2655 1.502 . S
C2657 H2643 0.960 . S
C2657 H2644 0.961 . S
C2657 H2645 0.959 . S
C2657 C2655 1.561 . S
C2658 C2655 1.526 . S
C2658 C2659 1.396 . S
C2658 C2663 1.390 . S
C2659 C2653 1.465 . S
C2659 C2658 1.396 . S
C2659 C2660 1.399 . S
C2660 H2646 0.929 . S
C2660 C2659 1.399 . S
C2660 C2661 1.385 . S
C2661 H2647 0.931 . S
C2661 C2660 1.385 . S
C2661 C2662 1.389 . S
C2662 C2661 1.389 . S
C2662 C2663 1.387 . S
C2663 H2648 0.930 . S
C2663 C2658 1.390 . S
C2663 C2662 1.387 . S
H2664 C2676 0.930 . S
H2665 C2678 0.930 . S
H2666 C2679 0.930 . S
H2667 C2683 0.959 . S
H2668 C2683 0.959 . S
H2669 C2683 0.961 . S
H2670 C2684 0.960 . S
H2671 C2684 0.961 . S
H2672 C2684 0.959 . S
H2673 C2687 0.929 . S
H2674 C2688 0.931 . S
H2675 C2690 0.930 . S
C2676 H2664 0.930 . S
C2676 C2677 1.399 . S
C2676 C2681 1.399 . S
C2677 C2676 1.399 . S
C2677 C2678 1.376 1_556 S
C2678 H2665 0.930 . S
C2678 C2677 1.376 1_554 S
C2678 C2679 1.388 . S
C2679 H2666 0.930 . S
C2679 C2678 1.388 . S
C2679 C2680 1.390 1_554 S
C2680 C2679 1.390 1_556 S
C2680 C2681 1.394 . S
C2680 C2686 1.465 . S
C2681 C2676 1.399 . S
C2681 C2680 1.394 . S
C2681 C2682 1.516 . S
C2682 C2681 1.516 . S
C2682 C2683 1.502 . S
C2682 C2684 1.561 . S
C2682 C2685 1.526 . S
C2683 H2667 0.959 . S
C2683 H2668 0.959 . S
C2683 H2669 0.961 . S
C2683 C2682 1.502 . S
C2684 H2670 0.960 . S
C2684 H2671 0.961 . S
C2684 H2672 0.959 . S
C2684 C2682 1.561 . S
C2685 C2682 1.526 . S
C2685 C2686 1.396 . S
C2685 C2690 1.390 . S
C2686 C2680 1.465 . S
C2686 C2685 1.396 . S
C2686 C2687 1.399 . S
C2687 H2673 0.929 . S
C2687 C2686 1.399 . S
C2687 C2688 1.385 . S
C2688 H2674 0.931 . S
C2688 C2687 1.385 . S
C2688 C2689 1.389 . S
C2689 C2688 1.389 . S
C2689 C2690 1.387 . S
C2690 H2675 0.930 . S
C2690 C2685 1.390 . S
C2690 C2689 1.387 . S
H2691 C2703 0.930 . S
H2692 C2705 0.930 . S
H2693 C2706 0.930 . S
H2694 C2710 0.959 . S
H2695 C2710 0.959 1_556 S
H2696 C2710 0.961 . S
H2697 C2711 0.960 . S
H2698 C2711 0.961 . S
H2699 C2711 0.959 . S
H2700 C2714 0.929 . S
H2701 C2715 0.931 . S
H2702 C2717 0.930 . S
C2703 H2691 0.930 . S
C2703 C2704 1.399 . S
C2703 C2708 1.399 . S
C2704 C2703 1.399 . S
C2704 C2705 1.376 . S
C2705 H2692 0.930 . S
C2705 C2704 1.376 . S
C2705 C2706 1.388 . S
C2706 H2693 0.930 . S
C2706 C2705 1.388 . S
C2706 C2707 1.390 . S
C2707 C2706 1.390 . S
C2707 C2708 1.394 . S
C2707 C2713 1.465 . S
C2708 C2703 1.399 . S
C2708 C2707 1.394 . S
C2708 C2709 1.516 1_554 S
C2709 C2708 1.516 1_556 S
C2709 C2710 1.502 1_556 S
C2709 C2711 1.561 . S
C2709 C2712 1.526 . S
C2710 H2694 0.959 . S
C2710 H2695 0.959 1_554 S
C2710 H2696 0.961 . S
C2710 C2709 1.502 1_554 S
C2711 H2697 0.960 . S
C2711 H2698 0.961 . S
C2711 H2699 0.959 . S
C2711 C2709 1.561 . S
C2712 C2709 1.526 . S
C2712 C2713 1.396 1_556 S
C2712 C2717 1.390 . S
C2713 C2707 1.465 . S
C2713 C2712 1.396 1_554 S
C2713 C2714 1.399 . S
C2714 H2700 0.929 . S
C2714 C2713 1.399 . S
C2714 C2715 1.385 1_554 S
C2715 H2701 0.931 . S
C2715 C2714 1.385 1_556 S
C2715 C2716 1.389 . S
C2716 C2715 1.389 . S
C2716 C2717 1.387 . S
C2717 H2702 0.930 . S
C2717 C2712 1.390 . S
C2717 C2716 1.387 . S
H2718 C2730 0.930 . S
H2719 C2732 0.930 . S
H2720 C2733 0.930 . S
H2721 C2737 0.959 . S
H2722 C2737 0.959 . S
H2723 C2737 0.961 . S
H2724 C2738 0.960 . S
H2725 C2738 0.961 . S
H2726 C2738 0.959 . S
H2727 C2741 0.929 1_554 S
H2728 C2742 0.931 . S
H2729 C2744 0.930 . S
C2730 H2718 0.930 . S
C2730 C2731 1.399 1_556 S
C2730 C2735 1.399 . S
C2731 C2730 1.399 1_554 S
C2731 C2732 1.376 . S
C2732 H2719 0.930 . S
C2732 C2731 1.376 . S
C2732 C2733 1.388 . S
C2733 H2720 0.930 . S
C2733 C2732 1.388 . S
C2733 C2734 1.377 1_554 S
C2734 C2733 1.377 1_556 S
C2734 C2735 1.402 . S
C2734 C2740 1.473 . S
C2735 C2730 1.399 . S
C2735 C2734 1.402 . S
C2735 C2736 1.516 . S
C2736 C2735 1.516 . S
C2736 C2737 1.502 . S
C2736 C2738 1.561 . S
C2736 C2739 1.526 . S
C2737 H2721 0.959 . S
C2737 H2722 0.959 . S
C2737 H2723 0.961 . S
C2737 C2736 1.502 . S
C2738 H2724 0.960 . S
C2738 H2725 0.961 . S
C2738 H2726 0.959 . S
C2738 C2736 1.561 . S
C2739 C2736 1.526 . S
C2739 C2740 1.396 . S
C2739 C2744 1.390 . S
C2740 C2734 1.473 . S
C2740 C2739 1.396 . S
C2740 C2741 1.399 . S
C2741 H2727 0.929 1_556 S
C2741 C2740 1.399 . S
C2741 C2742 1.385 . S
C2742 H2728 0.931 . S
C2742 C2741 1.385 . S
C2742 C2743 1.389 . S
C2743 C2742 1.389 . S
C2743 C2744 1.387 . S
C2744 H2729 0.930 . S
C2744 C2739 1.390 . S
C2744 C2743 1.387 . S
H2745 C2757 0.930 . S
H2746 C2759 0.930 1_554 S
H2747 C2760 0.930 . S
H2748 C2764 0.959 . S
H2749 C2764 0.959 . S
H2750 C2764 0.961 . S
H2751 C2765 0.960 . S
H2752 C2765 0.961 . S
H2753 C2765 0.959 . S
H2754 C2768 0.929 . S
H2755 C2769 0.931 . S
H2756 C2771 0.930 . S
C2757 H2745 0.930 . S
C2757 C2758 1.399 . S
C2757 C2762 1.399 . S
C2758 C2757 1.399 . S
C2758 C2759 1.376 . S
C2759 H2746 0.930 1_556 S
C2759 C2758 1.376 . S
C2759 C2760 1.388 . S
C2760 H2747 0.930 . S
C2760 C2759 1.388 . S
C2760 C2761 1.390 . S
C2761 C2760 1.390 . S
C2761 C2762 1.394 . S
C2761 C2767 1.465 . S
C2762 C2757 1.399 . S
C2762 C2761 1.394 . S
C2762 C2763 1.516 . S
C2763 C2762 1.516 . S
C2763 C2764 1.502 . S
C2763 C2765 1.561 . S
C2763 C2766 1.526 . S
C2764 H2748 0.959 . S
C2764 H2749 0.959 . S
C2764 H2750 0.961 . S
C2764 C2763 1.502 . S
C2765 H2751 0.960 . S
C2765 H2752 0.961 . S
C2765 H2753 0.959 . S
C2765 C2763 1.561 . S
C2766 C2763 1.526 . S
C2766 C2767 1.396 . S
C2766 C2771 1.390 . S
C2767 C2761 1.465 . S
C2767 C2766 1.396 . S
C2767 C2768 1.399 . S
C2768 H2754 0.929 . S
C2768 C2767 1.399 . S
C2768 C2769 1.385 . S
C2769 H2755 0.931 . S
C2769 C2768 1.385 . S
C2769 C2770 1.389 . S
C2770 C2769 1.389 . S
C2770 C2771 1.387 . S
C2771 H2756 0.930 . S
C2771 C2766 1.390 . S
C2771 C2770 1.387 . S
H2772 C2784 0.930 . S
H2773 C2786 0.930 . S
H2774 C2787 0.930 1_556 S
H2775 C2791 0.959 1_556 S
H2776 C2791 0.959 . S
H2777 C2791 0.961 . S
H2778 C2792 0.960 . S
H2779 C2792 0.961 . S
H2780 C2792 0.959 . S
H2781 C2795 0.929 . S
H2782 C2796 0.931 . S
H2783 C2798 0.930 . S
C2784 H2772 0.930 . S
C2784 C2785 1.399 . S
C2784 C2789 1.399 . S
C2785 C2784 1.399 . S
C2785 C2786 1.376 . S
C2786 H2773 0.930 . S
C2786 C2785 1.376 . S
C2786 C2787 1.388 . S
C2787 H2774 0.930 1_554 S
C2787 C2786 1.388 . S
C2787 C2788 1.390 . S
C2788 C2787 1.390 . S
C2788 C2789 1.394 . S
C2788 C2794 1.465 1_554 S
C2789 C2784 1.399 . S
C2789 C2788 1.394 . S
C2789 C2790 1.516 . S
C2790 C2789 1.516 . S
C2790 C2791 1.502 . S
C2790 C2792 1.561 . S
C2790 C2793 1.509 1_554 S
C2791 H2775 0.959 1_554 S
C2791 H2776 0.959 . S
C2791 H2777 0.961 . S
C2791 C2790 1.502 . S
C2792 H2778 0.960 . S
C2792 H2779 0.961 . S
C2792 H2780 0.959 . S
C2792 C2790 1.561 . S
C2793 C2790 1.509 1_556 S
C2793 C2794 1.401 . S
C2793 C2798 1.401 . S
C2794 C2788 1.465 1_556 S
C2794 C2793 1.401 . S
C2794 C2795 1.399 . S
C2795 H2781 0.929 . S
C2795 C2794 1.399 . S
C2795 C2796 1.385 . S
C2796 H2782 0.931 . S
C2796 C2795 1.385 . S
C2796 C2797 1.389 . S
C2797 C2796 1.389 . S
C2797 C2798 1.387 . S
C2798 H2783 0.930 . S
C2798 C2793 1.401 . S
C2798 C2797 1.387 . S
H2799 C2811 0.930 . S
H2800 C2813 0.869 1_545 S
H2801 C2814 0.930 . S
H2802 C2818 0.959 . S
H2803 C2818 0.959 . S
H2804 C2818 0.961 . S
H2805 C2819 0.960 . S
H2806 C2819 0.961 . S
H2807 C2819 0.959 . S
H2808 C2822 0.929 . S
H2809 C2823 0.931 . S
H2810 C2825 0.930 . S
C2811 H2799 0.930 . S
C2811 C2812 1.399 . S
C2811 C2816 1.399 . S
C2812 C2811 1.399 . S
C2812 C2813 1.376 . S
C2813 H2800 0.869 1_565 S
C2813 C2812 1.376 . S
C2813 C2814 1.388 . S
C2814 H2801 0.930 . S
C2814 C2813 1.388 . S
C2814 C2815 1.390 . S
C2815 C2814 1.390 . S
C2815 C2816 1.394 . S
C2815 C2821 1.465 . S
C2816 C2811 1.399 . S
C2816 C2815 1.394 . S
C2816 C2817 1.516 . S
C2817 C2816 1.516 . S
C2817 C2818 1.502 . S
C2817 C2819 1.561 . S
C2817 C2820 1.526 . S
C2818 H2802 0.959 . S
C2818 H2803 0.959 . S
C2818 H2804 0.961 . S
C2818 C2817 1.502 . S
C2819 H2805 0.960 . S
C2819 H2806 0.961 . S
C2819 H2807 0.959 . S
C2819 C2817 1.561 . S
C2820 C2817 1.526 . S
C2820 C2821 1.396 . S
C2820 C2825 1.390 . S
C2821 C2815 1.465 . S
C2821 C2820 1.396 . S
C2821 C2822 1.399 . S
C2822 H2808 0.929 . S
C2822 C2821 1.399 . S
C2822 C2823 1.385 . S
C2823 H2809 0.931 . S
C2823 C2822 1.385 . S
C2823 C2824 1.389 . S
C2824 C2823 1.389 . S
C2824 C2825 1.387 . S
C2825 H2810 0.930 . S
C2825 C2820 1.390 . S
C2825 C2824 1.387 . S
H2826 C2838 0.930 . S
H2827 C2840 0.930 . S
H2828 C2841 0.930 . S
H2829 C2845 0.959 . S
H2830 C2845 0.959 . S
H2831 C2845 0.961 . S
H2832 C2846 0.960 . S
H2833 C2846 0.961 . S
H2834 C2846 0.959 . S
H2835 C2849 0.929 . S
H2836 C2850 0.931 . S
H2837 C2852 0.930 . S
C2838 H2826 0.930 . S
C2838 C2839 1.399 . S
C2838 C2843 1.399 . S
C2839 C2838 1.399 . S
C2839 C2840 1.376 . S
C2840 H2827 0.930 . S
C2840 C2839 1.376 . S
C2840 C2841 1.388 . S
C2841 H2828 0.930 . S
C2841 C2840 1.388 . S
C2841 C2842 1.390 . S
C2842 C2841 1.390 . S
C2842 C2843 1.394 . S
C2842 C2848 1.465 . S
C2843 C2838 1.399 . S
C2843 C2842 1.394 . S
C2843 C2844 1.516 . S
C2844 C2843 1.516 . S
C2844 C2845 1.502 . S
C2844 C2846 1.561 . S
C2844 C2847 1.526 . S
C2845 H2829 0.959 . S
C2845 H2830 0.959 . S
C2845 H2831 0.961 . S
C2845 C2844 1.502 . S
C2846 H2832 0.960 . S
C2846 H2833 0.961 . S
C2846 H2834 0.959 . S
C2846 C2844 1.561 . S
C2847 C2844 1.526 . S
C2847 C2848 1.396 . S
C2847 C2852 1.390 . S
C2848 C2842 1.465 . S
C2848 C2847 1.396 . S
C2848 C2849 1.399 . S
C2849 H2835 0.929 . S
C2849 C2848 1.399 . S
C2849 C2850 1.385 . S
C2850 H2836 0.931 . S
C2850 C2849 1.385 . S
C2850 C2851 1.389 . S
C2851 C2850 1.389 . S
C2851 C2852 1.387 . S
C2852 H2837 0.930 . S
C2852 C2847 1.390 . S
C2852 C2851 1.387 . S
H2853 C2865 0.930 . S
H2854 C2867 0.930 . S
H2855 C2868 0.930 . S
H2856 C2872 0.959 . S
H2857 C2872 0.959 . S
H2858 C2872 0.961 . S
H2859 C2873 0.960 . S
H2860 C2873 0.961 . S
H2861 C2873 0.959 . S
H2862 C2876 0.929 . S
H2863 C2877 0.931 . S
H2864 C2879 0.930 . S
C2865 H2853 0.930 . S
C2865 C2866 1.399 . S
C2865 C2870 1.399 . S
C2866 C2865 1.399 . S
C2866 C2867 1.376 . S
C2867 H2854 0.930 . S
C2867 C2866 1.376 . S
C2867 C2868 1.388 . S
C2868 H2855 0.930 . S
C2868 C2867 1.388 . S
C2868 C2869 1.390 . S
C2869 C2868 1.390 . S
C2869 C2870 1.394 . S
C2869 C2875 1.465 . S
C2870 C2865 1.399 . S
C2870 C2869 1.394 . S
C2870 C2871 1.516 . S
C2871 C2870 1.516 . S
C2871 C2872 1.502 . S
C2871 C2873 1.561 . S
C2871 C2874 1.526 . S
C2872 H2856 0.959 . S
C2872 H2857 0.959 . S
C2872 H2858 0.961 . S
C2872 C2871 1.502 . S
C2873 H2859 0.960 . S
C2873 H2860 0.961 . S
C2873 H2861 0.959 . S
C2873 C2871 1.561 . S
C2874 C2871 1.526 . S
C2874 C2875 1.396 . S
C2874 C2879 1.390 . S
C2875 C2869 1.465 . S
C2875 C2874 1.396 . S
C2875 C2876 1.399 . S
C2876 H2862 0.929 . S
C2876 C2875 1.399 . S
C2876 C2877 1.385 . S
C2877 H2863 0.931 . S
C2877 C2876 1.385 . S
C2877 C2878 1.389 . S
C2878 C2877 1.389 . S
C2878 C2879 1.387 . S
C2879 H2864 0.930 . S
C2879 C2874 1.390 . S
C2879 C2878 1.387 . S
H2880 C2892 0.930 . S
H2881 C2894 0.930 . S
H2882 C2895 0.930 . S
H2883 C2899 0.959 . S
H2884 C2899 0.959 . S
H2885 C2899 0.961 . S
H2886 C2900 0.960 . S
H2887 C2900 0.961 . S
H2888 C2900 0.959 . S
H2889 C2903 0.929 . S
H2890 C2904 0.931 . S
H2891 C2906 0.930 . S
C2892 H2880 0.930 . S
C2892 C2893 1.399 . S
C2892 C2897 1.399 . S
C2893 C2892 1.399 . S
C2893 C2894 1.376 . S
C2894 H2881 0.930 . S
C2894 C2893 1.376 . S
C2894 C2895 1.388 . S
C2895 H2882 0.930 . S
C2895 C2894 1.388 . S
C2895 C2896 1.390 . S
C2896 C2895 1.390 . S
C2896 C2897 1.394 . S
C2896 C2902 1.465 . S
C2897 C2892 1.399 . S
C2897 C2896 1.394 . S
C2897 C2898 1.516 . S
C2898 C2897 1.516 . S
C2898 C2899 1.502 . S
C2898 C2900 1.561 . S
C2898 C2901 1.526 . S
C2899 H2883 0.959 . S
C2899 H2884 0.959 . S
C2899 H2885 0.961 . S
C2899 C2898 1.502 . S
C2900 H2886 0.960 . S
C2900 H2887 0.961 . S
C2900 H2888 0.959 . S
C2900 C2898 1.561 . S
C2901 C2898 1.526 . S
C2901 C2902 1.396 . S
C2901 C2906 1.390 . S
C2902 C2896 1.465 . S
C2902 C2901 1.396 . S
C2902 C2903 1.399 . S
C2903 H2889 0.929 . S
C2903 C2902 1.399 . S
C2903 C2904 1.385 . S
C2904 H2890 0.931 . S
C2904 C2903 1.385 . S
C2904 C2905 1.389 . S
C2905 C2904 1.389 . S
C2905 C2906 1.387 . S
C2906 H2891 0.930 . S
C2906 C2901 1.390 . S
C2906 C2905 1.387 . S
H2907 C2919 0.930 . S
H2908 C2921 0.930 . S
H2909 C2922 0.930 . S
H2910 C2926 0.959 . S
H2911 C2926 0.959 . S
H2912 C2926 0.961 . S
H2913 C2927 0.960 . S
H2914 C2927 0.961 . S
H2915 C2927 0.959 . S
H2916 C2930 0.929 . S
H2917 C2931 0.931 . S
H2918 C2933 0.930 . S
C2919 H2907 0.930 . S
C2919 C2920 1.399 . S
C2919 C2924 1.399 . S
C2920 C2919 1.399 . S
C2920 C2921 1.376 . S
C2921 H2908 0.930 . S
C2921 C2920 1.376 . S
C2921 C2922 1.388 . S
C2922 H2909 0.930 . S
C2922 C2921 1.388 . S
C2922 C2923 1.390 . S
C2923 C2922 1.390 . S
C2923 C2924 1.394 . S
C2923 C2929 1.465 . S
C2924 C2919 1.399 . S
C2924 C2923 1.394 . S
C2924 C2925 1.516 . S
C2925 C2924 1.516 . S
C2925 C2926 1.502 . S
C2925 C2927 1.561 . S
C2925 C2928 1.526 . S
C2926 H2910 0.959 . S
C2926 H2911 0.959 . S
C2926 H2912 0.961 . S
C2926 C2925 1.502 . S
C2927 H2913 0.960 . S
C2927 H2914 0.961 . S
C2927 H2915 0.959 . S
C2927 C2925 1.561 . S
C2928 C2925 1.526 . S
C2928 C2929 1.396 . S
C2928 C2933 1.390 . S
C2929 C2923 1.465 . S
C2929 C2928 1.396 . S
C2929 C2930 1.399 . S
C2930 H2916 0.929 . S
C2930 C2929 1.399 . S
C2930 C2931 1.385 . S
C2931 H2917 0.931 . S
C2931 C2930 1.385 . S
C2931 C2932 1.389 . S
C2932 C2931 1.389 . S
C2932 C2933 1.387 . S
C2933 H2918 0.930 . S
C2933 C2928 1.390 . S
C2933 C2932 1.387 . S
H2934 C2946 0.930 . S
H2935 C2948 0.930 . S
H2936 C2949 0.930 . S
H2937 C2953 0.959 . S
H2938 C2953 0.959 . S
H2939 C2953 0.961 . S
H2940 C2954 0.960 . S
H2941 C2954 0.961 . S
H2942 C2954 0.959 . S
H2943 C2957 0.929 . S
H2944 C2958 0.931 . S
H2945 C2960 0.930 . S
C2946 H2934 0.930 . S
C2946 C2947 1.399 . S
C2946 C2951 1.399 . S
C2947 C2946 1.399 . S
C2947 C2948 1.376 . S
C2948 H2935 0.930 . S
C2948 C2947 1.376 . S
C2948 C2949 1.388 . S
C2949 H2936 0.930 . S
C2949 C2948 1.388 . S
C2949 C2950 1.390 . S
C2950 C2949 1.390 . S
C2950 C2951 1.394 . S
C2950 C2956 1.465 . S
C2951 C2946 1.399 . S
C2951 C2950 1.394 . S
C2951 C2952 1.516 . S
C2952 C2951 1.516 . S
C2952 C2953 1.502 . S
C2952 C2954 1.561 . S
C2952 C2955 1.526 . S
C2953 H2937 0.959 . S
C2953 H2938 0.959 . S
C2953 H2939 0.961 . S
C2953 C2952 1.502 . S
C2954 H2940 0.960 . S
C2954 H2941 0.961 . S
C2954 H2942 0.959 . S
C2954 C2952 1.561 . S
C2955 C2952 1.526 . S
C2955 C2956 1.396 . S
C2955 C2960 1.390 . S
C2956 C2950 1.465 . S
C2956 C2955 1.396 . S
C2956 C2957 1.399 . S
C2957 H2943 0.929 . S
C2957 C2956 1.399 . S
C2957 C2958 1.385 . S
C2958 H2944 0.931 . S
C2958 C2957 1.385 . S
C2958 C2959 1.389 . S
C2959 C2958 1.389 . S
C2959 C2960 1.387 . S
C2960 H2945 0.930 . S
C2960 C2955 1.390 . S
C2960 C2959 1.387 . S
H2961 C2973 0.930 . S
H2962 C2975 0.930 . S
H2963 C2976 0.930 . S
H2964 C2980 0.959 . S
H2965 C2980 0.959 . S
H2966 C2980 0.961 . S
H2967 C2981 0.960 . S
H2968 C2981 0.961 . S
H2969 C2981 0.959 . S
H2970 C2984 0.929 . S
H2971 C2985 0.931 . S
H2972 C2987 0.930 . S
C2973 H2961 0.930 . S
C2973 C2974 1.399 . S
C2973 C2978 1.399 . S
C2974 C2973 1.399 . S
C2974 C2975 1.376 . S
C2975 H2962 0.930 . S
C2975 C2974 1.376 . S
C2975 C2976 1.388 . S
C2976 H2963 0.930 . S
C2976 C2975 1.388 . S
C2976 C2977 1.390 . S
C2977 C2976 1.390 . S
C2977 C2978 1.394 . S
C2977 C2983 1.465 . S
C2978 C2973 1.399 . S
C2978 C2977 1.394 . S
C2978 C2979 1.516 . S
C2979 C2978 1.516 . S
C2979 C2980 1.502 . S
C2979 C2981 1.561 . S
C2979 C2982 1.526 . S
C2980 H2964 0.959 . S
C2980 H2965 0.959 . S
C2980 H2966 0.961 . S
C2980 C2979 1.502 . S
C2981 H2967 0.960 . S
C2981 H2968 0.961 . S
C2981 H2969 0.959 . S
C2981 C2979 1.561 . S
C2982 C2979 1.526 . S
C2982 C2983 1.396 . S
C2982 C2987 1.390 . S
C2983 C2977 1.465 . S
C2983 C2982 1.396 . S
C2983 C2984 1.399 . S
C2984 H2970 0.929 . S
C2984 C2983 1.399 . S
C2984 C2985 1.385 . S
C2985 H2971 0.931 . S
C2985 C2984 1.385 . S
C2985 C2986 1.389 . S
C2986 C2985 1.389 . S
C2986 C2987 1.387 . S
C2987 H2972 0.930 . S
C2987 C2982 1.390 . S
C2987 C2986 1.387 . S
H2988 C3000 0.930 . S
H2989 C3002 0.930 . S
H2990 C3003 0.930 . S
H2991 C3007 0.959 . S
H2992 C3007 0.959 . S
H2993 C3007 0.961 . S
H2994 C3008 0.960 . S
H2995 C3008 0.961 . S
H2996 C3008 0.959 . S
H2997 C3011 0.929 . S
H2998 C3012 0.931 . S
H2999 C3014 0.930 . S
C3000 H2988 0.930 . S
C3000 C3001 1.399 . S
C3000 C3005 1.399 . S
C3001 C3000 1.399 . S
C3001 C3002 1.376 . S
C3002 H2989 0.930 . S
C3002 C3001 1.376 . S
C3002 C3003 1.388 . S
C3003 H2990 0.930 . S
C3003 C3002 1.388 . S
C3003 C3004 1.390 . S
C3004 C3003 1.390 . S
C3004 C3005 1.394 . S
C3004 C3010 1.465 . S
C3005 C3000 1.399 . S
C3005 C3004 1.394 . S
C3005 C3006 1.516 . S
C3006 C3005 1.516 . S
C3006 C3007 1.502 . S
C3006 C3008 1.561 . S
C3006 C3009 1.526 . S
C3007 H2991 0.959 . S
C3007 H2992 0.959 . S
C3007 H2993 0.961 . S
C3007 C3006 1.502 . S
C3008 H2994 0.960 . S
C3008 H2995 0.961 . S
C3008 H2996 0.959 . S
C3008 C3006 1.561 . S
C3009 C3006 1.526 . S
C3009 C3010 1.396 . S
C3009 C3014 1.390 . S
C3010 C3004 1.465 . S
C3010 C3009 1.396 . S
C3010 C3011 1.399 . S
C3011 H2997 0.929 . S
C3011 C3010 1.399 . S
C3011 C3012 1.385 . S
C3012 H2998 0.931 . S
C3012 C3011 1.385 . S
C3012 C3013 1.389 . S
C3013 C3012 1.389 . S
C3013 C3014 1.387 . S
C3014 H2999 0.930 . S
C3014 C3009 1.390 . S
C3014 C3013 1.387 . S
H3015 C3027 0.930 . S
H3016 C3029 0.930 . S
H3017 C3030 0.930 . S
H3018 C3034 0.959 . S
H3019 C3034 0.959 . S
H3020 C3034 0.961 . S
H3021 C3035 0.960 . S
H3022 C3035 0.961 . S
H3023 C3035 0.959 . S
H3024 C3038 0.929 . S
H3025 C3039 0.931 . S
H3026 C3041 0.930 . S
C3027 H3015 0.930 . S
C3027 C3028 1.399 . S
C3027 C3032 1.399 . S
C3028 C3027 1.399 . S
C3028 C3029 1.376 . S
C3029 H3016 0.930 . S
C3029 C3028 1.376 . S
C3029 C3030 1.388 . S
C3030 H3017 0.930 . S
C3030 C3029 1.388 . S
C3030 C3031 1.390 . S
C3031 C3030 1.390 . S
C3031 C3032 1.394 . S
C3031 C3037 1.465 . S
C3032 C3027 1.399 . S
C3032 C3031 1.394 . S
C3032 C3033 1.516 . S
C3033 C3032 1.516 . S
C3033 C3034 1.502 . S
C3033 C3035 1.561 1_565 S
C3033 C3036 1.526 . S
C3034 H3018 0.959 . S
C3034 H3019 0.959 . S
C3034 H3020 0.961 . S
C3034 C3033 1.502 . S
C3035 H3021 0.960 . S
C3035 H3022 0.961 . S
C3035 H3023 0.959 . S
C3035 C3033 1.561 1_545 S
C3036 C3033 1.526 . S
C3036 C3037 1.396 . S
C3036 C3041 1.390 . S
C3037 C3031 1.465 . S
C3037 C3036 1.396 . S
C3037 C3038 1.399 . S
C3038 H3024 0.929 . S
C3038 C3037 1.399 . S
C3038 C3039 1.385 . S
C3039 H3025 0.931 . S
C3039 C3038 1.385 . S
C3039 C3040 1.389 . S
C3040 C3039 1.389 . S
C3040 C3041 1.387 . S
C3041 H3026 0.930 . S
C3041 C3036 1.390 . S
C3041 C3040 1.387 . S
H3042 C3054 0.930 . S
H3043 C3056 0.930 . S
H3044 C3057 0.930 1_545 S
H3045 C3061 0.959 . S
H3046 C3061 0.959 . S
H3047 C3061 0.961 . S
H3048 C3062 0.960 . S
H3049 C3062 0.961 . S
H3050 C3062 0.959 . S
H3051 C3065 0.929 . S
H3052 C3066 0.931 . S
H3053 C3068 0.930 . S
C3054 H3042 0.930 . S
C3054 C3055 1.399 . S
C3054 C3059 1.399 . S
C3055 C3054 1.399 . S
C3055 C3056 1.376 . S
C3056 H3043 0.930 . S
C3056 C3055 1.376 . S
C3056 C3057 1.388 . S
C3057 H3044 0.930 1_565 S
C3057 C3056 1.388 . S
C3057 C3058 1.390 . S
C3058 C3057 1.390 . S
C3058 C3059 1.394 . S
C3058 C3064 1.465 . S
C3059 C3054 1.399 . S
C3059 C3058 1.394 . S
C3059 C3060 1.516 . S
C3060 C3059 1.516 . S
C3060 C3061 1.502 . S
C3060 C3062 1.561 . S
C3060 C3063 1.526 . S
C3061 H3045 0.959 . S
C3061 H3046 0.959 . S
C3061 H3047 0.961 . S
C3061 C3060 1.502 . S
C3062 H3048 0.960 . S
C3062 H3049 0.961 . S
C3062 H3050 0.959 . S
C3062 C3060 1.561 . S
C3063 C3060 1.526 . S
C3063 C3064 1.396 . S
C3063 C3068 1.390 . S
C3064 C3058 1.465 . S
C3064 C3063 1.396 . S
C3064 C3065 1.399 1_565 S
C3065 H3051 0.929 . S
C3065 C3064 1.399 1_545 S
C3065 C3066 1.385 . S
C3066 H3052 0.931 . S
C3066 C3065 1.385 . S
C3066 C3067 1.389 . S
C3067 C3066 1.389 . S
C3067 C3068 1.387 1_545 S
C3068 H3053 0.930 . S
C3068 C3063 1.390 . S
C3068 C3067 1.387 1_565 S
H3069 C3081 0.930 . S
H3070 C3083 0.930 . S
H3071 C3084 0.930 . S
H3072 C3088 0.959 1_655 S
H3073 C3088 0.959 . S
H3074 C3088 0.961 . S
H3075 C3089 0.960 . S
H3076 C3089 0.961 . S
H3077 C3089 0.959 . S
H3078 C3092 0.929 . S
H3079 C3093 0.941 1_655 S
H3080 C3095 0.930 . S
C3081 H3069 0.930 . S
C3081 C3082 1.399 . S
C3081 C3086 1.399 . S
C3082 C3081 1.399 . S
C3082 C3083 1.376 . S
C3083 H3070 0.930 . S
C3083 C3082 1.376 . S
C3083 C3084 1.388 . S
C3084 H3071 0.930 . S
C3084 C3083 1.388 . S
C3084 C3085 1.390 . S
C3085 C3084 1.390 . S
C3085 C3086 1.394 . S
C3085 C3091 1.465 . S
C3086 C3081 1.399 . S
C3086 C3085 1.394 . S
C3086 C3087 1.516 . S
C3087 C3086 1.516 . S
C3087 C3088 1.502 . S
C3087 C3089 1.561 . S
C3087 C3090 1.526 . S
C3088 H3072 0.959 1_455 S
C3088 H3073 0.959 . S
C3088 H3074 0.961 . S
C3088 C3087 1.502 . S
C3089 H3075 0.960 . S
C3089 H3076 0.961 . S
C3089 H3077 0.959 . S
C3089 C3087 1.561 . S
C3090 C3087 1.526 . S
C3090 C3091 1.396 . S
C3090 C3095 1.390 . S
C3091 C3085 1.465 . S
C3091 C3090 1.396 . S
C3091 C3092 1.399 . S
C3092 H3078 0.929 . S
C3092 C3091 1.399 . S
C3092 C3093 1.385 . S
C3093 H3079 0.941 1_455 S
C3093 C3092 1.385 . S
C3093 C3094 1.381 1_455 S
C3094 C3093 1.381 1_655 S
C3094 C3095 1.399 1_655 S
C3095 H3080 0.930 . S
C3095 C3090 1.390 . S
C3095 C3094 1.399 1_455 S
H3096 C3108 0.930 . S
H3097 C3110 0.930 . S
H3098 C3111 0.930 . S
H3099 C3115 0.959 . S
H3100 C3115 0.959 . S
H3101 C3115 0.961 . S
H3102 C3116 0.960 . S
H3103 C3116 0.961 . S
H3104 C3116 0.959 . S
H3105 C3119 0.929 . S
H3106 C3120 0.931 . S
H3107 C3122 0.930 . S
C3108 H3096 0.930 . S
C3108 C3109 1.399 . S
C3108 C3113 1.399 . S
C3109 C3108 1.399 . S
C3109 C3110 1.376 . S
C3110 H3097 0.930 . S
C3110 C3109 1.376 . S
C3110 C3111 1.388 . S
C3111 H3098 0.930 . S
C3111 C3110 1.388 . S
C3111 C3112 1.390 . S
C3112 C3111 1.390 . S
C3112 C3113 1.394 . S
C3112 C3118 1.465 . S
C3113 C3108 1.399 . S
C3113 C3112 1.394 . S
C3113 C3114 1.516 . S
C3114 C3113 1.516 . S
C3114 C3115 1.502 . S
C3114 C3116 1.561 . S
C3114 C3117 1.526 . S
C3115 H3099 0.959 . S
C3115 H3100 0.959 . S
C3115 H3101 0.961 . S
C3115 C3114 1.502 . S
C3116 H3102 0.960 . S
C3116 H3103 0.961 . S
C3116 H3104 0.959 . S
C3116 C3114 1.561 . S
C3117 C3114 1.526 . S
C3117 C3118 1.396 . S
C3117 C3122 1.390 . S
C3118 C3112 1.465 . S
C3118 C3117 1.396 . S
C3118 C3119 1.399 . S
C3119 H3105 0.929 . S
C3119 C3118 1.399 . S
C3119 C3120 1.385 . S
C3120 H3106 0.931 . S
C3120 C3119 1.385 . S
C3120 C3121 1.389 . S
C3121 C3120 1.389 . S
C3121 C3122 1.387 . S
C3122 H3107 0.930 . S
C3122 C3117 1.390 . S
C3122 C3121 1.387 . S
H3123 C3135 0.930 . S
H3124 C3137 0.930 . S
H3125 C3138 0.930 . S
H3126 C3142 0.959 . S
H3127 C3142 0.959 . S
H3128 C3142 0.961 . S
H3129 C3143 0.960 . S
H3130 C3143 0.961 . S
H3131 C3143 0.959 . S
H3132 C3146 0.929 . S
H3133 C3147 0.931 . S
H3134 C3149 0.930 . S
C3135 H3123 0.930 . S
C3135 C3136 1.399 . S
C3135 C3140 1.399 . S
C3136 C3135 1.399 . S
C3136 C3137 1.376 . S
C3137 H3124 0.930 . S
C3137 C3136 1.376 . S
C3137 C3138 1.388 . S
C3138 H3125 0.930 . S
C3138 C3137 1.388 . S
C3138 C3139 1.390 . S
C3139 C3138 1.390 . S
C3139 C3140 1.394 . S
C3139 C3145 1.465 . S
C3140 C3135 1.399 . S
C3140 C3139 1.394 . S
C3140 C3141 1.516 . S
C3141 C3140 1.516 . S
C3141 C3142 1.502 . S
C3141 C3143 1.561 . S
C3141 C3144 1.526 . S
C3142 H3126 0.959 . S
C3142 H3127 0.959 . S
C3142 H3128 0.961 . S
C3142 C3141 1.502 . S
C3143 H3129 0.960 . S
C3143 H3130 0.961 . S
C3143 H3131 0.959 . S
C3143 C3141 1.561 . S
C3144 C3141 1.526 . S
C3144 C3145 1.396 . S
C3144 C3149 1.390 . S
C3145 C3139 1.465 . S
C3145 C3144 1.396 . S
C3145 C3146 1.399 . S
C3146 H3132 0.929 . S
C3146 C3145 1.399 . S
C3146 C3147 1.385 . S
C3147 H3133 0.931 . S
C3147 C3146 1.385 . S
C3147 C3148 1.389 . S
C3148 C3147 1.389 . S
C3148 C3149 1.387 . S
C3149 H3134 0.930 . S
C3149 C3144 1.390 . S
C3149 C3148 1.387 . S
H3150 C3162 0.930 . S
H3151 C3164 0.930 . S
H3152 C3165 0.930 . S
H3153 C3169 0.959 . S
H3154 C3169 0.959 . S
H3155 C3169 0.961 . S
H3156 C3170 0.960 . S
H3157 C3170 0.961 . S
H3158 C3170 0.959 . S
H3159 C3173 0.929 . S
H3160 C3174 0.931 . S
H3161 C3176 0.930 . S
C3162 H3150 0.930 . S
C3162 C3163 1.399 . S
C3162 C3167 1.399 . S
C3163 C3162 1.399 . S
C3163 C3164 1.376 . S
C3164 H3151 0.930 . S
C3164 C3163 1.376 . S
C3164 C3165 1.388 . S
C3165 H3152 0.930 . S
C3165 C3164 1.388 . S
C3165 C3166 1.390 . S
C3166 C3165 1.390 . S
C3166 C3167 1.394 . S
C3166 C3172 1.465 . S
C3167 C3162 1.399 . S
C3167 C3166 1.394 . S
C3167 C3168 1.516 . S
C3168 C3167 1.516 . S
C3168 C3169 1.502 . S
C3168 C3170 1.561 . S
C3168 C3171 1.526 . S
C3169 H3153 0.959 . S
C3169 H3154 0.959 . S
C3169 H3155 0.961 . S
C3169 C3168 1.502 . S
C3170 H3156 0.960 . S
C3170 H3157 0.961 . S
C3170 H3158 0.959 . S
C3170 C3168 1.561 . S
C3171 C3168 1.526 . S
C3171 C3172 1.396 . S
C3171 C3176 1.390 . S
C3172 C3166 1.465 . S
C3172 C3171 1.396 . S
C3172 C3173 1.399 . S
C3173 H3159 0.929 . S
C3173 C3172 1.399 . S
C3173 C3174 1.385 . S
C3174 H3160 0.931 . S
C3174 C3173 1.385 . S
C3174 C3175 1.389 . S
C3175 C3174 1.389 . S
C3175 C3176 1.387 . S
C3176 H3161 0.930 . S
C3176 C3171 1.390 . S
C3176 C3175 1.387 . S
H3177 C3189 0.930 . S
H3178 C3191 0.930 . S
H3179 C3192 0.930 . S
H3180 C3196 0.959 . S
H3181 C3196 0.959 . S
H3182 C3196 0.961 . S
H3183 C3197 0.960 . S
H3184 C3197 0.961 . S
H3185 C3197 0.959 . S
H3186 C3200 0.929 . S
H3187 C3201 0.931 . S
H3188 C3203 0.930 . S
C3189 H3177 0.930 . S
C3189 C3190 1.399 . S
C3189 C3194 1.399 . S
C3190 C3189 1.399 . S
C3190 C3191 1.376 . S
C3191 H3178 0.930 . S
C3191 C3190 1.376 . S
C3191 C3192 1.388 . S
C3192 H3179 0.930 . S
C3192 C3191 1.388 . S
C3192 C3193 1.390 . S
C3193 C3192 1.390 . S
C3193 C3194 1.394 . S
C3193 C3199 1.465 . S
C3194 C3189 1.399 . S
C3194 C3193 1.394 . S
C3194 C3195 1.516 . S
C3195 C3194 1.516 . S
C3195 C3196 1.502 . S
C3195 C3197 1.561 . S
C3195 C3198 1.526 . S
C3196 H3180 0.959 . S
C3196 H3181 0.959 . S
C3196 H3182 0.961 . S
C3196 C3195 1.502 . S
C3197 H3183 0.960 . S
C3197 H3184 0.961 . S
C3197 H3185 0.959 . S
C3197 C3195 1.561 . S
C3198 C3195 1.526 . S
C3198 C3199 1.396 . S
C3198 C3203 1.390 . S
C3199 C3193 1.465 . S
C3199 C3198 1.396 . S
C3199 C3200 1.399 . S
C3200 H3186 0.929 . S
C3200 C3199 1.399 . S
C3200 C3201 1.385 . S
C3201 H3187 0.931 . S
C3201 C3200 1.385 . S
C3201 C3202 1.389 . S
C3202 C3201 1.389 . S
C3202 C3203 1.387 . S
C3203 H3188 0.930 . S
C3203 C3198 1.390 . S
C3203 C3202 1.387 . S
H3204 C3216 0.930 . S
H3205 C3218 0.930 . S
H3206 C3219 0.930 1_565 S
H3207 C3223 0.959 . S
H3208 C3223 0.959 . S
H3209 C3223 0.961 . S
H3210 C3224 0.960 . S
H3211 C3224 0.961 . S
H3212 C3224 0.959 . S
H3213 C3227 0.929 . S
H3214 C3228 0.931 . S
H3215 C3230 0.930 . S
C3216 H3204 0.930 . S
C3216 C3217 1.399 . S
C3216 C3221 1.399 . S
C3217 C3216 1.399 . S
C3217 C3218 1.376 . S
C3218 H3205 0.930 . S
C3218 C3217 1.376 . S
C3218 C3219 1.388 . S
C3219 H3206 0.930 1_545 S
C3219 C3218 1.388 . S
C3219 C3220 1.390 . S
C3220 C3219 1.390 . S
C3220 C3221 1.394 . S
C3220 C3226 1.465 . S
C3221 C3216 1.399 . S
C3221 C3220 1.394 . S
C3221 C3222 1.516 . S
C3222 C3221 1.516 . S
C3222 C3223 1.502 . S
C3222 C3224 1.561 . S
C3222 C3225 1.526 . S
C3223 H3207 0.959 . S
C3223 H3208 0.959 . S
C3223 H3209 0.961 . S
C3223 C3222 1.502 . S
C3224 H3210 0.960 . S
C3224 H3211 0.961 . S
C3224 H3212 0.959 . S
C3224 C3222 1.561 . S
C3225 C3222 1.526 . S
C3225 C3226 1.396 . S
C3225 C3230 1.390 . S
C3226 C3220 1.465 . S
C3226 C3225 1.396 . S
C3226 C3227 1.399 1_545 S
C3227 H3213 0.929 . S
C3227 C3226 1.399 1_565 S
C3227 C3228 1.385 . S
C3228 H3214 0.931 . S
C3228 C3227 1.385 . S
C3228 C3229 1.389 1_565 S
C3229 C3228 1.389 1_545 S
C3229 C3230 1.387 . S
C3230 H3215 0.930 . S
C3230 C3225 1.390 . S
C3230 C3229 1.387 . S
H3231 C3243 0.930 . S
H3232 C3245 0.930 . S
H3233 C3246 0.930 . S
H3234 C3250 0.959 . S
H3235 C3250 0.959 . S
H3236 C3250 0.961 . S
H3237 C3251 0.960 . S
H3238 C3251 0.961 . S
H3239 C3251 0.959 . S
H3240 C3254 0.929 1_455 S
H3241 C3255 0.931 1_455 S
H3242 C3257 0.930 . S
C3243 H3231 0.930 . S
C3243 C3244 1.399 . S
C3243 C3248 1.399 . S
C3244 C3243 1.399 . S
C3244 C3245 1.376 . S
C3245 H3232 0.930 . S
C3245 C3244 1.376 . S
C3245 C3246 1.388 . S
C3246 H3233 0.930 . S
C3246 C3245 1.388 . S
C3246 C3247 1.390 . S
C3247 C3246 1.390 . S
C3247 C3248 1.394 . S
C3247 C3253 1.465 . S
C3248 C3243 1.399 . S
C3248 C3247 1.394 . S
C3248 C3249 1.516 . S
C3249 C3248 1.516 . S
C3249 C3250 1.502 . S
C3249 C3251 1.561 . S
C3249 C3252 1.526 . S
C3250 H3234 0.959 . S
C3250 H3235 0.959 . S
C3250 H3236 0.961 . S
C3250 C3249 1.502 . S
C3251 H3237 0.960 . S
C3251 H3238 0.961 . S
C3251 H3239 0.959 . S
C3251 C3249 1.561 . S
C3252 C3249 1.526 . S
C3252 C3253 1.396 . S
C3252 C3257 1.390 . S
C3253 C3247 1.465 . S
C3253 C3252 1.396 . S
C3253 C3254 1.399 . S
C3254 H3240 0.929 1_655 S
C3254 C3253 1.399 . S
C3254 C3255 1.385 . S
C3255 H3241 0.931 1_655 S
C3255 C3254 1.385 . S
C3255 C3256 1.389 . S
C3256 C3255 1.389 . S
C3256 C3257 1.387 . S
C3257 H3242 0.930 . S
C3257 C3252 1.390 . S
C3257 C3256 1.387 . S
H3258 C3270 0.930 . S
H3259 C3272 0.930 . S
H3260 C3273 0.930 . S
H3261 C3277 0.959 . S
H3262 C3277 0.959 . S
H3263 C3277 0.961 . S
H3264 C3278 0.960 . S
H3265 C3278 0.961 . S
H3266 C3278 0.959 . S
H3267 C3281 0.929 . S
H3268 C3282 0.931 . S
H3269 C3284 0.930 . S
C3270 H3258 0.930 . S
C3270 C3271 1.399 . S
C3270 C3275 1.399 . S
C3271 C3270 1.399 . S
C3271 C3272 1.376 . S
C3272 H3259 0.930 . S
C3272 C3271 1.376 . S
C3272 C3273 1.388 . S
C3273 H3260 0.930 . S
C3273 C3272 1.388 . S
C3273 C3274 1.390 . S
C3274 C3273 1.390 . S
C3274 C3275 1.394 . S
C3274 C3280 1.465 . S
C3275 C3270 1.399 . S
C3275 C3274 1.394 . S
C3275 C3276 1.516 . S
C3276 C3275 1.516 . S
C3276 C3277 1.502 . S
C3276 C3278 1.561 . S
C3276 C3279 1.526 . S
C3277 H3261 0.959 . S
C3277 H3262 0.959 . S
C3277 H3263 0.961 . S
C3277 C3276 1.502 . S
C3278 H3264 0.960 . S
C3278 H3265 0.961 . S
C3278 H3266 0.959 . S
C3278 C3276 1.561 . S
C3279 C3276 1.526 . S
C3279 C3280 1.396 . S
C3279 C3284 1.390 . S
C3280 C3274 1.465 . S
C3280 C3279 1.396 . S
C3280 C3281 1.399 . S
C3281 H3267 0.929 . S
C3281 C3280 1.399 . S
C3281 C3282 1.385 . S
C3282 H3268 0.931 . S
C3282 C3281 1.385 . S
C3282 C3283 1.389 . S
C3283 C3282 1.389 . S
C3283 C3284 1.387 . S
C3284 H3269 0.930 . S
C3284 C3279 1.390 . S
C3284 C3283 1.387 . S
H3285 C3297 0.930 . S
H3286 C3299 0.930 . S
H3287 C3300 0.930 . S
H3288 C3304 0.959 . S
H3289 C3304 0.959 . S
H3290 C3304 0.961 . S
H3291 C3305 0.960 . S
H3292 C3305 0.961 . S
H3293 C3305 0.959 . S
H3294 C3308 0.929 . S
H3295 C3309 0.931 . S
H3296 C3311 0.930 . S
C3297 H3285 0.930 . S
C3297 C3298 1.399 . S
C3297 C3302 1.399 . S
C3298 C3297 1.399 . S
C3298 C3299 1.376 . S
C3299 H3286 0.930 . S
C3299 C3298 1.376 . S
C3299 C3300 1.388 . S
C3300 H3287 0.930 . S
C3300 C3299 1.388 . S
C3300 C3301 1.390 . S
C3301 C3300 1.390 . S
C3301 C3302 1.394 . S
C3301 C3307 1.465 . S
C3302 C3297 1.399 . S
C3302 C3301 1.394 . S
C3302 C3303 1.516 . S
C3303 C3302 1.516 . S
C3303 C3304 1.502 . S
C3303 C3305 1.561 . S
C3303 C3306 1.526 . S
C3304 H3288 0.959 . S
C3304 H3289 0.959 . S
C3304 H3290 0.961 . S
C3304 C3303 1.502 . S
C3305 H3291 0.960 . S
C3305 H3292 0.961 . S
C3305 H3293 0.959 . S
C3305 C3303 1.561 . S
C3306 C3303 1.526 . S
C3306 C3307 1.396 . S
C3306 C3311 1.390 . S
C3307 C3301 1.465 . S
C3307 C3306 1.396 . S
C3307 C3308 1.399 . S
C3308 H3294 0.929 . S
C3308 C3307 1.399 . S
C3308 C3309 1.385 . S
C3309 H3295 0.931 . S
C3309 C3308 1.385 . S
C3309 C3310 1.389 . S
C3310 C3309 1.389 . S
C3310 C3311 1.387 . S
C3311 H3296 0.930 . S
C3311 C3306 1.390 . S
C3311 C3310 1.387 . S
H3312 C3324 0.930 . S
H3313 C3326 0.930 . S
H3314 C3327 0.930 . S
H3315 C3331 0.959 . S
H3316 C3331 0.959 . S
H3317 C3331 0.961 . S
H3318 C3332 0.960 . S
H3319 C3332 0.961 . S
H3320 C3332 0.959 . S
H3321 C3335 0.929 . S
H3322 C3336 0.931 . S
H3323 C3338 0.930 . S
C3324 H3312 0.930 . S
C3324 C3325 1.399 . S
C3324 C3329 1.399 . S
C3325 C3324 1.399 . S
C3325 C3326 1.376 . S
C3326 H3313 0.930 . S
C3326 C3325 1.376 . S
C3326 C3327 1.388 . S
C3327 H3314 0.930 . S
C3327 C3326 1.388 . S
C3327 C3328 1.390 . S
C3328 C3327 1.390 . S
C3328 C3329 1.394 . S
C3328 C3334 1.465 . S
C3329 C3324 1.399 . S
C3329 C3328 1.394 . S
C3329 C3330 1.516 . S
C3330 C3329 1.516 . S
C3330 C3331 1.502 . S
C3330 C3332 1.561 . S
C3330 C3333 1.526 . S
C3331 H3315 0.959 . S
C3331 H3316 0.959 . S
C3331 H3317 0.961 . S
C3331 C3330 1.502 . S
C3332 H3318 0.960 . S
C3332 H3319 0.961 . S
C3332 H3320 0.959 . S
C3332 C3330 1.561 . S
C3333 C3330 1.526 . S
C3333 C3334 1.396 . S
C3333 C3338 1.390 . S
C3334 C3328 1.465 . S
C3334 C3333 1.396 . S
C3334 C3335 1.399 . S
C3335 H3321 0.929 . S
C3335 C3334 1.399 . S
C3335 C3336 1.385 . S
C3336 H3322 0.931 . S
C3336 C3335 1.385 . S
C3336 C3337 1.389 . S
C3337 C3336 1.389 . S
C3337 C3338 1.387 . S
C3338 H3323 0.930 . S
C3338 C3333 1.390 . S
C3338 C3337 1.387 . S
H3339 C3351 0.930 . S
H3340 C3353 0.930 . S
H3341 C3354 0.930 . S
H3342 C3358 0.959 . S
H3343 C3358 0.959 . S
H3344 C3358 0.961 . S
H3345 C3359 0.960 . S
H3346 C3359 0.961 . S
H3347 C3359 0.959 . S
H3348 C3362 0.929 . S
H3349 C3363 0.931 . S
H3350 C3365 0.930 . S
C3351 H3339 0.930 . S
C3351 C3352 1.399 . S
C3351 C3356 1.399 . S
C3352 C3351 1.399 . S
C3352 C3353 1.376 . S
C3353 H3340 0.930 . S
C3353 C3352 1.376 . S
C3353 C3354 1.388 . S
C3354 H3341 0.930 . S
C3354 C3353 1.388 . S
C3354 C3355 1.390 . S
C3355 C3354 1.390 . S
C3355 C3356 1.394 . S
C3355 C3361 1.465 . S
C3356 C3351 1.399 . S
C3356 C3355 1.394 . S
C3356 C3357 1.516 . S
C3357 C3356 1.516 . S
C3357 C3358 1.502 . S
C3357 C3359 1.561 . S
C3357 C3360 1.526 . S
C3358 H3342 0.959 . S
C3358 H3343 0.959 . S
C3358 H3344 0.961 . S
C3358 C3357 1.502 . S
C3359 H3345 0.960 . S
C3359 H3346 0.961 . S
C3359 H3347 0.959 . S
C3359 C3357 1.561 . S
C3360 C3357 1.526 . S
C3360 C3361 1.396 . S
C3360 C3365 1.390 . S
C3361 C3355 1.465 . S
C3361 C3360 1.396 . S
C3361 C3362 1.399 . S
C3362 H3348 0.929 . S
C3362 C3361 1.399 . S
C3362 C3363 1.385 . S
C3363 H3349 0.931 . S
C3363 C3362 1.385 . S
C3363 C3364 1.389 . S
C3364 C3363 1.389 . S
C3364 C3365 1.387 . S
C3365 H3350 0.930 . S
C3365 C3360 1.390 . S
C3365 C3364 1.387 . S
H3366 C3378 0.930 . S
H3367 C3380 0.930 . S
H3368 C3381 0.930 . S
H3369 C3385 0.959 . S
H3370 C3385 0.959 . S
H3371 C3385 0.961 . S
H3372 C3386 0.960 . S
H3373 C3386 0.961 . S
H3374 C3386 0.959 . S
H3375 C3389 0.929 . S
H3376 C3390 0.931 . S
H3377 C3392 0.930 . S
C3378 H3366 0.930 . S
C3378 C3379 1.399 . S
C3378 C3383 1.399 . S
C3379 C3378 1.399 . S
C3379 C3380 1.376 . S
C3380 H3367 0.930 . S
C3380 C3379 1.376 . S
C3380 C3381 1.388 . S
C3381 H3368 0.930 . S
C3381 C3380 1.388 . S
C3381 C3382 1.390 . S
C3382 C3381 1.390 . S
C3382 C3383 1.394 . S
C3382 C3388 1.465 . S
C3383 C3378 1.399 . S
C3383 C3382 1.394 . S
C3383 C3384 1.516 . S
C3384 C3383 1.516 . S
C3384 C3385 1.502 . S
C3384 C3386 1.561 . S
C3384 C3387 1.526 . S
C3385 H3369 0.959 . S
C3385 H3370 0.959 . S
C3385 H3371 0.961 . S
C3385 C3384 1.502 . S
C3386 H3372 0.960 . S
C3386 H3373 0.961 . S
C3386 H3374 0.959 . S
C3386 C3384 1.561 . S
C3387 C3384 1.526 . S
C3387 C3388 1.396 . S
C3387 C3392 1.390 . S
C3388 C3382 1.465 . S
C3388 C3387 1.396 . S
C3388 C3389 1.399 . S
C3389 H3375 0.929 . S
C3389 C3388 1.399 . S
C3389 C3390 1.385 . S
C3390 H3376 0.931 . S
C3390 C3389 1.385 . S
C3390 C3391 1.389 . S
C3391 C3390 1.389 . S
C3391 C3392 1.387 . S
C3392 H3377 0.930 . S
C3392 C3387 1.390 . S
C3392 C3391 1.387 . S
H3393 C3405 0.930 . S
H3394 C3407 0.930 . S
H3395 C3408 0.930 . S
H3396 C3412 0.959 . S
H3397 C3412 0.959 . S
H3398 C3412 0.961 . S
H3399 C3413 0.960 . S
H3400 C3413 0.961 . S
H3401 C3413 0.959 . S
H3402 C3416 0.929 . S
H3403 C3417 0.931 . S
H3404 C3419 0.930 . S
C3405 H3393 0.930 . S
C3405 C3406 1.399 . S
C3405 C3410 1.399 . S
C3406 C3405 1.399 . S
C3406 C3407 1.376 . S
C3407 H3394 0.930 . S
C3407 C3406 1.376 . S
C3407 C3408 1.388 . S
C3408 H3395 0.930 . S
C3408 C3407 1.388 . S
C3408 C3409 1.390 . S
C3409 C3408 1.390 . S
C3409 C3410 1.394 . S
C3409 C3415 1.465 . S
C3410 C3405 1.399 . S
C3410 C3409 1.394 . S
C3410 C3411 1.516 . S
C3411 C3410 1.516 . S
C3411 C3412 1.502 . S
C3411 C3413 1.561 . S
C3411 C3414 1.526 . S
C3412 H3396 0.959 . S
C3412 H3397 0.959 . S
C3412 H3398 0.961 . S
C3412 C3411 1.502 . S
C3413 H3399 0.960 . S
C3413 H3400 0.961 . S
C3413 H3401 0.959 . S
C3413 C3411 1.561 . S
C3414 C3411 1.526 . S
C3414 C3415 1.396 . S
C3414 C3419 1.390 . S
C3415 C3409 1.465 . S
C3415 C3414 1.396 . S
C3415 C3416 1.399 . S
C3416 H3402 0.929 . S
C3416 C3415 1.399 . S
C3416 C3417 1.385 . S
C3417 H3403 0.931 . S
C3417 C3416 1.385 . S
C3417 C3418 1.389 . S
C3418 C3417 1.389 . S
C3418 C3419 1.387 . S
C3419 H3404 0.930 . S
C3419 C3414 1.390 . S
C3419 C3418 1.387 . S
H3420 C3432 0.930 . S
H3421 C3434 0.930 . S
H3422 C3435 0.930 . S
H3423 C3439 0.959 . S
H3424 C3439 0.959 . S
H3425 C3439 0.961 . S
H3426 C3440 0.960 . S
H3427 C3440 0.961 . S
H3428 C3440 0.959 . S
H3429 C3443 0.929 . S
H3430 C3444 0.931 . S
H3431 C3446 0.930 . S
C3432 H3420 0.930 . S
C3432 C3433 1.399 . S
C3432 C3437 1.399 . S
C3433 C3432 1.399 . S
C3433 C3434 1.376 . S
C3434 H3421 0.930 . S
C3434 C3433 1.376 . S
C3434 C3435 1.388 . S
C3435 H3422 0.930 . S
C3435 C3434 1.388 . S
C3435 C3436 1.390 . S
C3436 C3435 1.390 . S
C3436 C3437 1.394 . S
C3436 C3442 1.465 . S
C3437 C3432 1.399 . S
C3437 C3436 1.394 . S
C3437 C3438 1.516 . S
C3438 C3437 1.516 . S
C3438 C3439 1.502 . S
C3438 C3440 1.561 . S
C3438 C3441 1.526 . S
C3439 H3423 0.959 . S
C3439 H3424 0.959 . S
C3439 H3425 0.961 . S
C3439 C3438 1.502 . S
C3440 H3426 0.960 . S
C3440 H3427 0.961 . S
C3440 H3428 0.959 . S
C3440 C3438 1.561 . S
C3441 C3438 1.526 . S
C3441 C3442 1.396 . S
C3441 C3446 1.390 . S
C3442 C3436 1.465 . S
C3442 C3441 1.396 . S
C3442 C3443 1.399 . S
C3443 H3429 0.929 . S
C3443 C3442 1.399 . S
C3443 C3444 1.385 . S
C3444 H3430 0.931 . S
C3444 C3443 1.385 . S
C3444 C3445 1.389 . S
C3445 C3444 1.389 . S
C3445 C3446 1.387 . S
C3446 H3431 0.930 . S
C3446 C3441 1.390 . S
C3446 C3445 1.387 . S
H3447 C3459 0.930 . S
H3448 C3461 0.930 . S
H3449 C3462 0.930 . S
H3450 C3466 0.959 1_455 S
H3451 C3466 0.967 . S
H3452 C3466 0.961 . S
H3453 C3467 0.960 . S
H3454 C3467 0.961 . S
H3455 C3467 0.959 . S
H3456 C3470 0.929 . S
H3457 C3471 0.931 . S
H3458 C3473 0.930 . S
C3459 H3447 0.930 . S
C3459 C3460 1.399 . S
C3459 C3464 1.399 . S
C3460 C3459 1.399 . S
C3460 C3461 1.376 . S
C3461 H3448 0.930 . S
C3461 C3460 1.376 . S
C3461 C3462 1.388 . S
C3462 H3449 0.930 . S
C3462 C3461 1.388 . S
C3462 C3463 1.390 . S
C3463 C3462 1.390 . S
C3463 C3464 1.394 . S
C3463 C3469 1.465 . S
C3464 C3459 1.399 . S
C3464 C3463 1.394 . S
C3464 C3465 1.516 . S
C3465 C3464 1.516 . S
C3465 C3466 1.502 . S
C3465 C3467 1.561 . S
C3465 C3468 1.526 . S
C3466 H3450 0.959 1_655 S
C3466 H3451 0.967 . S
C3466 H3452 0.961 . S
C3466 C3465 1.502 . S
C3467 H3453 0.960 . S
C3467 H3454 0.961 . S
C3467 H3455 0.959 . S
C3467 C3465 1.561 . S
C3468 C3465 1.526 . S
C3468 C3469 1.396 . S
C3468 C3473 1.390 . S
C3469 C3463 1.465 . S
C3469 C3468 1.396 . S
C3469 C3470 1.399 . S
C3470 H3456 0.929 . S
C3470 C3469 1.399 . S
C3470 C3471 1.385 . S
C3471 H3457 0.931 . S
C3471 C3470 1.385 . S
C3471 C3472 1.389 . S
C3472 C3471 1.389 . S
C3472 C3473 1.387 . S
C3473 H3458 0.930 . S
C3473 C3468 1.390 . S
C3473 C3472 1.387 . S
H3474 C3486 0.930 . S
H3475 C3488 0.930 . S
H3476 C3489 0.930 . S
H3477 C3493 0.959 . S
H3478 C3493 0.959 . S
H3479 C3493 0.961 . S
H3480 C3494 0.960 . S
H3481 C3494 0.961 . S
H3482 C3494 0.959 . S
H3483 C3497 0.929 . S
H3484 C3498 0.931 . S
H3485 C3500 0.930 . S
C3486 H3474 0.930 . S
C3486 C3487 1.399 . S
C3486 C3491 1.399 . S
C3487 C3486 1.399 . S
C3487 C3488 1.376 . S
C3488 H3475 0.930 . S
C3488 C3487 1.376 . S
C3488 C3489 1.388 . S
C3489 H3476 0.930 . S
C3489 C3488 1.388 . S
C3489 C3490 1.390 . S
C3490 C3489 1.390 . S
C3490 C3491 1.394 . S
C3490 C3496 1.465 . S
C3491 C3486 1.399 . S
C3491 C3490 1.394 . S
C3491 C3492 1.516 . S
C3492 C3491 1.516 . S
C3492 C3493 1.502 . S
C3492 C3494 1.561 . S
C3492 C3495 1.526 . S
C3493 H3477 0.959 . S
C3493 H3478 0.959 . S
C3493 H3479 0.961 . S
C3493 C3492 1.502 . S
C3494 H3480 0.960 . S
C3494 H3481 0.961 . S
C3494 H3482 0.959 . S
C3494 C3492 1.561 . S
C3495 C3492 1.526 . S
C3495 C3496 1.396 . S
C3495 C3500 1.390 . S
C3496 C3490 1.465 . S
C3496 C3495 1.396 . S
C3496 C3497 1.399 . S
C3497 H3483 0.929 . S
C3497 C3496 1.399 . S
C3497 C3498 1.385 . S
C3498 H3484 0.931 . S
C3498 C3497 1.385 . S
C3498 C3499 1.389 . S
C3499 C3498 1.389 . S
C3499 C3500 1.387 . S
C3500 H3485 0.930 . S
C3500 C3495 1.390 . S
C3500 C3499 1.387 . S
H3501 C3513 0.930 . S
H3502 C3515 0.930 . S
H3503 C3516 0.930 . S
H3504 C3520 0.959 . S
H3505 C3520 0.959 . S
H3506 C3520 0.961 . S
H3507 C3521 0.960 . S
H3508 C3521 0.961 . S
H3509 C3521 0.959 . S
H3510 C3524 0.929 . S
H3511 C3525 0.931 . S
H3512 C3527 0.930 . S
C3513 H3501 0.930 . S
C3513 C3514 1.399 . S
C3513 C3518 1.399 . S
C3514 C3513 1.399 . S
C3514 C3515 1.376 . S
C3515 H3502 0.930 . S
C3515 C3514 1.376 . S
C3515 C3516 1.388 . S
C3516 H3503 0.930 . S
C3516 C3515 1.388 . S
C3516 C3517 1.390 . S
C3517 C3516 1.390 . S
C3517 C3518 1.394 . S
C3517 C3523 1.465 . S
C3518 C3513 1.399 . S
C3518 C3517 1.394 . S
C3518 C3519 1.516 1_545 S
C3519 C3518 1.516 1_565 S
C3519 C3520 1.502 . S
C3519 C3521 1.561 . S
C3519 C3522 1.526 1_565 S
C3520 H3504 0.959 . S
C3520 H3505 0.959 . S
C3520 H3506 0.961 . S
C3520 C3519 1.502 . S
C3521 H3507 0.960 . S
C3521 H3508 0.961 . S
C3521 H3509 0.959 . S
C3521 C3519 1.561 . S
C3522 C3519 1.526 1_545 S
C3522 C3523 1.396 . S
C3522 C3527 1.390 1_545 S
C3523 C3517 1.465 . S
C3523 C3522 1.396 . S
C3523 C3524 1.399 . S
C3524 H3510 0.929 . S
C3524 C3523 1.399 . S
C3524 C3525 1.385 . S
C3525 H3511 0.931 . S
C3525 C3524 1.385 . S
C3525 C3526 1.389 . S
C3526 C3525 1.389 . S
C3526 C3527 1.387 1_545 S
C3527 H3512 0.930 . S
C3527 C3522 1.390 1_565 S
C3527 C3526 1.387 1_565 S
C1597 C4 1.186 . S
C1609 C981 1.152 . S
C1624 C26 1.577 . S
C1636 C1061 1.519 . S
C1663 C1129 1.272 . S
C1651 C32 1.232 . S
C1678 C40 1.598 . S
C1690 C1209 1.624 . S
C1705 C12 1.433 . S
C1717 C1283 1.456 . S
C1732 C18 1.516 . S
C1744 C1351 1.481 . S
C1759 C46 1.109 . S
C1771 C1277 1.068 . S
C1798 C1357 1.451 . S
C1786 C68 1.452 . S
C1825 C1203 1.277 . S
C1813 C74 1.269 . S
C1840 C82 1.573 . S
C1852 C1135 1.677 1_545 S
C1879 C987 1.473 1_655 S
C1867 C54 1.481 . S
C1894 C60 1.341 . S
C1906 C1055 1.396 . S
C1921 C88 1.358 . S
C1933 C1425 1.369 . S
C1948 C110 1.619 . S
C1960 C1505 1.560 . S
C1987 C1573 1.467 . S
C1975 C116 1.605 . S
C2002 C124 1.747 . S
C2014 C321 1.710 . S
C2029 C96 1.626 . S
C2041 C395 1.580 . S
C2056 C102 1.516 . S
C2068 C463 1.523 . S
C2083 C130 1.146 . S
C2095 C389 1.066 . S
C2110 C152 1.506 . S
C2122 C469 1.518 . S
C2149 C315 1.394 . S
C2137 C158 1.400 . S
C2176 C1579 1.714 . S
C2164 C166 1.713 . S
C2203 C1431 1.450 . S
C2191 C138 1.456 . S
C2230 C1499 1.392 . S
C2218 C144 1.444 . S
C2245 C172 1.356 . S
C2257 C537 1.200 . S
C2272 C194 1.664 . S
C2284 C617 1.615 . S
C2299 C200 1.604 . S
C2311 C685 1.492 . S
C2326 C208 1.811 . S
C2338 C765 1.773 . S
C2365 C839 1.557 . S
C2353 C180 1.608 . S
C2392 C907 1.575 . S
C2380 C186 1.558 . S
C2419 C833 1.214 . S
C2407 C214 1.233 . S
C2446 C913 1.479 . S
C2434 C236 1.473 . S
C2461 C242 1.347 . S
C2473 C759 1.329 . S
C2500 C691 1.604 . S
C2488 C250 1.590 . S
C2515 C222 1.510 . S
C2527 C543 1.505 . S
C2554 C611 1.410 . S
C2542 C228 1.364 . S
C2581 C291 1.903 . S
C2569 C5 1.789 . S
C2596 C25 1.386 . S
C2608 C365 1.378 . S
C2635 C451 1.515 . S
C2623 C33 1.264 . S
C2662 C525 1.136 . S
C2650 C39 1.112 . S
C2689 C587 1.492 . S
C2677 C11 1.534 1_556 S
C2716 C673 1.501 . S
C2704 C19 1.273 . S
C2731 C47 1.885 . S
C2743 C661 2.047 . S
C2758 C67 1.625 . S
C2770 C513 1.495 . S
C2785 C75 1.539 . S
C2797 C599 1.748 . S
C2812 C81 1.427 . S
C2824 C377 1.379 . S
C2851 C439 1.652 . S
C2839 C53 1.767 . S
C2866 C61 1.515 . S
C2878 C303 1.631 . S
C2905 C735 1.832 . S
C2893 C89 1.689 . S
C2920 C109 1.481 . S
C2932 C809 1.499 . S
C2947 C117 1.312 . S
C2959 C895 1.516 . S
C2986 C969 0.918 . S
C2974 C123 0.949 . S
C3001 C95 1.420 . S
C3013 C1031 1.368 . S
C3028 C103 1.110 . S
C3040 C1117 1.324 . S
C3055 C131 1.544 . S
C3067 C1105 1.714 . S
C3082 C151 1.334 . S
C3094 C957 1.237 . S
C3121 C1043 1.552 . S
C3109 C159 1.459 . S
C3136 C165 1.440 . S
C3148 C821 1.344 . S
C3163 C137 1.742 . S
C3175 C883 1.677 . S
C3202 C747 1.757 . S
C3190 C145 1.457 . S
C3229 C1179 1.680 . S
C3217 C173 1.528 . S
C3244 C193 1.175 . S
C3256 C1253 1.133 . S
C3271 C201 1.278 . S
C3283 C1339 1.373 . S
C3310 C1413 1.137 . S
C3298 C207 1.134 . S
C3337 C1475 1.552 . S
C3325 C179 1.542 1_565 S
C3352 C187 1.316 . S
C3364 C1561 1.568 . S
C3379 C215 1.800 . S
C3391 C1549 2.006 . S
C3406 C235 1.697 1_565 S
C3418 C1401 1.615 . S
C3445 C1487 1.662 . S
C3433 C243 1.482 . S
C3472 C1265 1.046 . S
C3460 C249 1.037 . S
C3499 C1327 1.506 . S
C3487 C221 1.638 . S
C3514 C229 1.315 . S
C3526 C1191 1.393 . S
