# Generated by pormake.
# Topology pyr, (3,6)-cn, num edge types: 1
# Building blocks:
#     Node 0, Type 0, BuildingBlock: BELTOD_clean_linker_0, # of connection points: 3
#     Node 1, Type 0, BuildingBlock: BELTOD_clean_linker_0, # of connection points: 3
#     Node 2, Type 0, BuildingBlock: BELTOD_clean_linker_0, # of connection points: 3
#     Node 3, Type 0, BuildingBlock: BELTOD_clean_linker_0, # of connection points: 3
#     Node 4, Type 0, BuildingBlock: BELTOD_clean_linker_0, # of connection points: 3
#     Node 5, Type 0, BuildingBlock: BELTOD_clean_linker_0, # of connection points: 3
#     Node 6, Type 0, BuildingBlock: BELTOD_clean_linker_0, # of connection points: 3
#     Node 7, Type 0, BuildingBlock: BELTOD_clean_linker_0, # of connection points: 3
#     Node 8, Type 1, BuildingBlock: BETFAJ_clean_sbu_0, # of connection points: 6
#     Node 9, Type 1, BuildingBlock: BETFAJ_clean_sbu_0, # of connection points: 6
#     Node 10, Type 1, BuildingBlock: BETFAJ_clean_sbu_0, # of connection points: 6
#     Node 11, Type 1, BuildingBlock: BETFAJ_clean_sbu_0, # of connection points: 6
#     Edge 12, Type (0, 1), BuildingBlock: MIFKUJ_clean_linker_0, # of connection points: 2
#     Edge 13, Type (0, 1), BuildingBlock: MIFKUJ_clean_linker_0, # of connection points: 2
#     Edge 14, Type (0, 1), BuildingBlock: MIFKUJ_clean_linker_0, # of connection points: 2
#     Edge 15, Type (0, 1), BuildingBlock: MIFKUJ_clean_linker_0, # of connection points: 2
#     Edge 16, Type (0, 1), BuildingBlock: MIFKUJ_clean_linker_0, # of connection points: 2
#     Edge 17, Type (0, 1), BuildingBlock: MIFKUJ_clean_linker_0, # of connection points: 2
#     Edge 18, Type (0, 1), BuildingBlock: MIFKUJ_clean_linker_0, # of connection points: 2
#     Edge 19, Type (0, 1), BuildingBlock: MIFKUJ_clean_linker_0, # of connection points: 2
#     Edge 20, Type (0, 1), BuildingBlock: MIFKUJ_clean_linker_0, # of connection points: 2
#     Edge 21, Type (0, 1), BuildingBlock: MIFKUJ_clean_linker_0, # of connection points: 2
#     Edge 22, Type (0, 1), BuildingBlock: MIFKUJ_clean_linker_0, # of connection points: 2
#     Edge 23, Type (0, 1), BuildingBlock: MIFKUJ_clean_linker_0, # of connection points: 2
#     Edge 24, Type (0, 1), BuildingBlock: MIFKUJ_clean_linker_0, # of connection points: 2
#     Edge 25, Type (0, 1), BuildingBlock: MIFKUJ_clean_linker_0, # of connection points: 2
#     Edge 26, Type (0, 1), BuildingBlock: MIFKUJ_clean_linker_0, # of connection points: 2
#     Edge 27, Type (0, 1), BuildingBlock: MIFKUJ_clean_linker_0, # of connection points: 2
#     Edge 28, Type (0, 1), BuildingBlock: MIFKUJ_clean_linker_0, # of connection points: 2
#     Edge 29, Type (0, 1), BuildingBlock: MIFKUJ_clean_linker_0, # of connection points: 2
#     Edge 30, Type (0, 1), BuildingBlock: MIFKUJ_clean_linker_0, # of connection points: 2
#     Edge 31, Type (0, 1), BuildingBlock: MIFKUJ_clean_linker_0, # of connection points: 2
#     Edge 32, Type (0, 1), BuildingBlock: MIFKUJ_clean_linker_0, # of connection points: 2
#     Edge 33, Type (0, 1), BuildingBlock: MIFKUJ_clean_linker_0, # of connection points: 2
#     Edge 34, Type (0, 1), BuildingBlock: MIFKUJ_clean_linker_0, # of connection points: 2
#     Edge 35, Type (0, 1), BuildingBlock: MIFKUJ_clean_linker_0, # of connection points: 2
# Relax obj value: 0.077
# Max RMSD: 0.118
# Mean RMSD: 0.055
data_MOF--net-pyr--node1-BETFAJ_clean_sbu_0--node2-BELTOD_clean_linker_0--edge1-MIFKUJ_clean_linker_0
_symmetry_space_group_name_H-M    P1
_symmetry_Int_Tables_number       1
_symmetry_cell_setting            triclinic
loop_
_symmetry_equiv_pos_as_xyz
'x, y, z'
_cell_length_a     54.053113
_cell_length_b     58.375942
_cell_length_c     52.687495
_cell_angle_alpha  91.452254
_cell_angle_beta   89.031462
_cell_angle_gamma 99.008935
loop_
_atom_site_label
_atom_site_type_symbol
_atom_site_fract_x
_atom_site_fract_y
_atom_site_fract_z
_atom_type_partial_charge
P0 P 0.33037 0.28413 0.2439 0.0
H1 H 0.38001 0.28335 0.22103 0.0
H2 H 0.39888 0.25283 0.19889 0.0
H3 H 0.32887 0.20605 0.20594 0.0
H4 H 0.31036 0.23644 0.22836 0.0
H5 H 0.33196 0.33317 0.23176 0.0
H6 H 0.30449 0.35305 0.20676 0.0
H7 H 0.26133 0.28677 0.18551 0.0
H8 H 0.28941 0.26715 0.20969 0.0
H9 H 0.33537 0.2486 0.28071 0.0
H10 H 0.28019 0.29125 0.26201 0.0
O11 O 0.35299 0.30304 0.25737 0.0
H12 H 0.30585 0.22762 0.31094 0.0
H13 H 0.25042 0.26988 0.29119 0.0
C14 C 0.34396 0.26201 0.22674 0.0
C15 C 0.36878 0.2665 0.21784 0.0
C16 C 0.37948 0.24909 0.20505 0.0
C17 C 0.36544 0.22693 0.20088 0.0
C18 C 0.34035 0.22276 0.2093 0.0
C19 C 0.32969 0.24018 0.222 0.0
C20 C 0.31284 0.29868 0.2224 0.0
C21 C 0.31691 0.32293 0.22126 0.0
C22 C 0.30099 0.33428 0.20716 0.0
C23 C 0.28053 0.32156 0.19421 0.0
C24 C 0.27707 0.29717 0.19484 0.0
C25 C 0.29313 0.28587 0.20873 0.0
C26 C 0.30974 0.27096 0.2685 0.0
C27 C 0.31694 0.25348 0.28314 0.0
C28 C 0.29999 0.24142 0.30031 0.0
C29 C 0.27559 0.24679 0.30322 0.0
C30 C 0.26904 0.26531 0.28957 0.0
C31 C 0.28603 0.2774 0.27254 0.0
P32 P 0.37825 0.93243 0.56471 0.0
H33 H 0.42061 0.95391 0.5958 0.0
H34 H 0.42837 0.95386 0.6414 0.0
H35 H 0.35602 0.91171 0.65287 0.0
H36 H 0.34876 0.91138 0.60733 0.0
H37 H 0.41792 0.91034 0.54069 0.0
H38 H 0.42169 0.86949 0.53263 0.0
H39 H 0.34547 0.8493 0.55886 0.0
H40 H 0.34164 0.8901 0.56646 0.0
H41 H 0.34359 0.95669 0.59495 0.0
H42 H 0.34706 0.92628 0.51977 0.0
O43 O 0.40025 0.95079 0.54992 0.0
H44 H 0.30176 0.96483 0.5869 0.0
H45 H 0.30573 0.93582 0.5108 0.0
C46 C 0.38395 0.93296 0.59827 0.0
C47 C 0.40643 0.94471 0.60816 0.0
C48 C 0.41081 0.9447 0.63424 0.0
C49 C 0.39277 0.93285 0.65082 0.0
C50 C 0.37045 0.92075 0.64066 0.0
C51 C 0.36618 0.92071 0.61462 0.0
C52 C 0.37943 0.90321 0.55392 0.0
C53 C 0.4018 0.89716 0.54401 0.0
C54 C 0.40394 0.87386 0.5394 0.0
C55 C 0.38387 0.85633 0.54518 0.0
C56 C 0.36122 0.86252 0.55434 0.0
C57 C 0.35901 0.8858 0.55861 0.0
C58 C 0.34809 0.94018 0.55822 0.0
C59 C 0.33536 0.95175 0.57665 0.0
C60 C 0.31148 0.95674 0.57185 0.0
C61 C 0.30014 0.95084 0.54823 0.0
C62 C 0.31352 0.94009 0.52943 0.0
C63 C 0.33726 0.93478 0.53444 0.0
P64 P 0.65962 0.33364 0.83307 0.0
H65 H 0.69978 0.31842 0.86124 0.0
H66 H 0.73552 0.33825 0.88473 0.0
H67 H 0.7115 0.40405 0.87093 0.0
H68 H 0.67467 0.38366 0.84907 0.0
H69 H 0.62405 0.29259 0.81725 0.0
H70 H 0.60288 0.25873 0.8395 0.0
H71 H 0.63229 0.28914 0.91055 0.0
H72 H 0.65231 0.32343 0.88819 0.0
H73 H 0.67761 0.3747 0.80277 0.0
H74 H 0.60672 0.33137 0.81616 0.0
O75 O 0.67493 0.31893 0.81212 0.0
H76 H 0.65851 0.39566 0.77074 0.0
H77 H 0.58766 0.3518 0.78332 0.0
C78 C 0.6845 0.3494 0.85292 0.0
C79 C 0.702 0.33712 0.86352 0.0
C80 C 0.72282 0.34866 0.87675 0.0
C81 C 0.72721 0.37308 0.87952 0.0
C82 C 0.7091 0.38531 0.8695 0.0
C83 C 0.68794 0.37362 0.85661 0.0
C84 C 0.63977 0.3109 0.85085 0.0
C85 C 0.62544 0.29228 0.83772 0.0
C86 C 0.61363 0.27258 0.85056 0.0
C87 C 0.61598 0.2706 0.87706 0.0
C88 C 0.62966 0.28974 0.89028 0.0
C89 C 0.64131 0.30955 0.87739 0.0
C90 C 0.64359 0.35185 0.81292 0.0
C91 C 0.65772 0.37008 0.79947 0.0
C92 C 0.64677 0.382 0.78082 0.0
C93 C 0.62142 0.37559 0.77426 0.0
C94 C 0.60723 0.35727 0.78768 0.0
C95 C 0.61813 0.34564 0.80676 0.0
P96 P 0.83427 0.68187 0.33027 0.0
H97 H 0.85368 0.729 0.31433 0.0
H98 H 0.87452 0.76352 0.33617 0.0
H99 H 0.88019 0.72352 0.40323 0.0
H100 H 0.85767 0.68907 0.3813 0.0
H101 H 0.817 0.64619 0.29221 0.0
H102 H 0.83823 0.62507 0.26007 0.0
H103 H 0.90977 0.65543 0.2907 0.0
H104 H 0.88823 0.67688 0.32284 0.0
H105 H 0.79498 0.69778 0.36111 0.0
H106 H 0.82075 0.63252 0.34606 0.0
O107 O 0.81735 0.69398 0.30969 0.0
H108 H 0.75909 0.67799 0.38499 0.0
H109 H 0.78471 0.61246 0.3702 0.0
C110 C 0.85379 0.7063 0.34612 0.0
C111 C 0.85948 0.72752 0.33371 0.0
C112 C 0.87175 0.74744 0.34634 0.0
C113 C 0.8793 0.74681 0.3718 0.0
C114 C 0.87438 0.72515 0.3839 0.0
C115 C 0.86172 0.7052 0.37125 0.0
C116 C 0.85089 0.6631 0.31018 0.0
C117 C 0.83726 0.64808 0.29234 0.0
C118 C 0.84948 0.63614 0.27372 0.0
C119 C 0.87581 0.63864 0.27245 0.0
C120 C 0.88949 0.65298 0.29106 0.0
C121 C 0.87717 0.66524 0.30956 0.0
C122 C 0.81071 0.66676 0.35173 0.0
C123 C 0.79315 0.67919 0.36327 0.0
C124 C 0.77241 0.66777 0.37676 0.0
C125 C 0.76868 0.64352 0.37933 0.0
C126 C 0.78693 0.63114 0.36868 0.0
C127 C 0.80762 0.64262 0.35486 0.0
P128 P 0.7373 0.81892 0.85955 0.0
H129 H 0.70673 0.81419 0.90535 0.0
H130 H 0.66571 0.82464 0.91555 0.0
H131 H 0.65518 0.83725 0.83623 0.0
H132 H 0.69656 0.82739 0.82635 0.0
H133 H 0.78554 0.81006 0.87586 0.0
H134 H 0.80148 0.7747 0.88627 0.0
H135 H 0.72736 0.73538 0.87725 0.0
H136 H 0.71139 0.77119 0.86709 0.0
H137 H 0.75502 0.85835 0.82763 0.0
H138 H 0.73789 0.78393 0.81859 0.0
O139 O 0.75327 0.8417 0.875 0.0
H140 H 0.77229 0.861 0.78452 0.0
H141 H 0.7551 0.78645 0.77533 0.0
C142 C 0.70466 0.82002 0.86517 0.0
C143 C 0.69526 0.81857 0.89008 0.0
C144 C 0.67172 0.82447 0.89585 0.0
C145 C 0.65722 0.83201 0.87672 0.0
C146 C 0.66605 0.83187 0.85145 0.0
C147 C 0.68967 0.82606 0.84575 0.0
C148 C 0.74724 0.79327 0.87123 0.0
C149 C 0.77259 0.79393 0.87664 0.0
C150 C 0.78173 0.77365 0.88227 0.0
C151 C 0.7657 0.75224 0.88232 0.0
C152 C 0.74009 0.75167 0.87751 0.0
C153 C 0.73094 0.77208 0.8718 0.0
C154 C 0.74587 0.82092 0.82649 0.0
C155 C 0.75466 0.84261 0.81623 0.0
C156 C 0.76433 0.8441 0.79149 0.0
C157 C 0.76528 0.82388 0.77663 0.0
C158 C 0.75495 0.80227 0.78648 0.0
C159 C 0.74514 0.80083 0.8112 0.0
P160 P 0.78309 0.23692 0.39074 0.0
H161 H 0.77072 0.28165 0.40854 0.0
H162 H 0.73805 0.29217 0.43687 0.0
H163 H 0.71179 0.21954 0.45011 0.0
H164 H 0.74419 0.20918 0.42095 0.0
H165 H 0.81744 0.20797 0.36882 0.0
H166 H 0.84241 0.18127 0.3872 0.0
H167 H 0.81531 0.19794 0.46208 0.0
H168 H 0.79151 0.22533 0.44369 0.0
H169 H 0.76826 0.25345 0.34224 0.0
H170 H 0.7605 0.18869 0.38139 0.0
O171 O 0.80181 0.26064 0.381 0.0
H172 H 0.74483 0.23386 0.30642 0.0
H173 H 0.73677 0.16905 0.34592 0.0
C174 C 0.75994 0.24467 0.41281 0.0
C175 C 0.75807 0.268 0.41767 0.0
C176 C 0.73947 0.27397 0.43409 0.0
C177 C 0.72241 0.25669 0.446 0.0
C178 C 0.7245 0.23327 0.44115 0.0
C179 C 0.74305 0.22732 0.42457 0.0
C180 C 0.80211 0.21813 0.40479 0.0
C181 C 0.81698 0.20588 0.3892 0.0
C182 C 0.8311 0.19052 0.39973 0.0
C183 C 0.83061 0.1872 0.42611 0.0
C184 C 0.81625 0.20013 0.44172 0.0
C185 C 0.80233 0.21563 0.43116 0.0
C186 C 0.76663 0.22239 0.36412 0.0
C187 C 0.76165 0.23499 0.34304 0.0
C188 C 0.74807 0.22381 0.3227 0.0
C189 C 0.7391 0.19987 0.32327 0.0
C190 C 0.74383 0.18741 0.3447 0.0
C191 C 0.75735 0.19862 0.365 0.0
P192 P 0.3613 0.68176 0.18955 0.0
H193 H 0.33916 0.67827 0.13918 0.0
H194 H 0.29857 0.6607 0.12239 0.0
H195 H 0.27307 0.6416 0.19817 0.0
H196 H 0.31396 0.65939 0.21488 0.0
H197 H 0.40803 0.71485 0.19544 0.0
H198 H 0.42157 0.75435 0.18059 0.0
H199 H 0.34648 0.75694 0.15557 0.0
H200 H 0.33302 0.71771 0.17079 0.0
H201 H 0.35624 0.63485 0.20875 0.0
H202 H 0.38304 0.70353 0.23824 0.0
O203 O 0.3804 0.67022 0.16948 0.0
H204 H 0.37015 0.61806 0.24691 0.0
H205 H 0.39758 0.6868 0.27658 0.0
C206 C 0.32985 0.67019 0.17834 0.0
C207 C 0.3248 0.67049 0.15228 0.0
C208 C 0.30142 0.66045 0.14267 0.0
C209 C 0.28231 0.64958 0.15881 0.0
C210 C 0.28732 0.64952 0.18504 0.0
C211 C 0.31074 0.65983 0.1947 0.0
C212 C 0.36936 0.71307 0.18466 0.0
C213 C 0.39425 0.72414 0.18748 0.0
C214 C 0.40205 0.7468 0.17877 0.0
C215 C 0.38526 0.75899 0.16652 0.0
C216 C 0.36013 0.74812 0.16448 0.0
C217 C 0.35231 0.72558 0.17348 0.0
C218 C 0.36822 0.67055 0.22046 0.0
C219 C 0.36483 0.64642 0.22363 0.0
C220 C 0.37318 0.63677 0.24548 0.0
C221 C 0.38541 0.6509 0.26504 0.0
C222 C 0.38817 0.67521 0.26217 0.0
C223 C 0.37983 0.68489 0.24012 0.0
P224 P 0.17137 0.3413 0.71004 0.0
H225 H 0.19014 0.30092 0.68864 0.0
H226 H 0.17114 0.26588 0.66578 0.0
H227 H 0.10039 0.29146 0.66613 0.0
H228 H 0.11982 0.32686 0.6891 0.0
H229 H 0.21631 0.37305 0.72507 0.0
H230 H 0.25148 0.39432 0.70157 0.0
H231 H 0.21485 0.37167 0.63101 0.0
H232 H 0.17987 0.34993 0.65487 0.0
H233 H 0.12718 0.32636 0.74223 0.0
H234 H 0.17115 0.39135 0.72147 0.0
O235 O 0.1872 0.32956 0.7319 0.0
H236 H 0.10468 0.34652 0.77422 0.0
H237 H 0.1494 0.41157 0.75385 0.0
C238 C 0.15643 0.31651 0.691 0.0
C239 C 0.17053 0.29909 0.68379 0.0
C240 C 0.15953 0.27888 0.67079 0.0
C241 C 0.13402 0.27545 0.66432 0.0
C242 C 0.12006 0.29338 0.67073 0.0
C243 C 0.13113 0.31366 0.68398 0.0
C244 C 0.19537 0.35974 0.69185 0.0
C245 C 0.21568 0.37284 0.70453 0.0
C246 C 0.23585 0.38516 0.69096 0.0
C247 C 0.23635 0.38479 0.66419 0.0
C248 C 0.21551 0.37216 0.65154 0.0
C249 C 0.19528 0.35982 0.6652 0.0
C250 C 0.15061 0.35722 0.72883 0.0
C251 C 0.13163 0.34506 0.74408 0.0
C252 C 0.11901 0.35666 0.7628 0.0
C253 C 0.12518 0.38084 0.76708 0.0
C254 C 0.14371 0.39306 0.75115 0.0
C255 C 0.15628 0.38142 0.73242 0.0
Sm256 Sm 0.01176 0.02067 0.49166 0.0
Sm257 Sm 1.00795 1.0005 0.54306 0.0
C258 C 0.01326 0.04716 0.45152 0.0
C259 C 0.03332 0.0643 0.44099 0.0
C260 C 0.02776 0.08156 0.425 0.0
C261 C 0.04711 0.0976 0.41478 0.0
C262 C 0.07224 0.09638 0.4203 0.0
C263 C 0.07763 0.07926 0.43668 0.0
C264 C 0.05834 0.06345 0.44705 0.0
C265 C 0.05283 1.00099 0.50443 0.0
C266 C 0.03215 0.0542 0.54157 0.0
C267 C 1.00719 0.97347 0.5826 0.0
C268 C 0.98896 0.95348 0.59026 0.0
C269 C 0.99255 0.94142 0.61218 0.0
C270 C 0.97396 0.92365 0.62043 0.0
C271 C 0.95153 0.91788 0.60691 0.0
C272 C 0.94847 0.92951 0.58443 0.0
C273 C 0.96705 0.94715 0.57617 0.0
C274 C 0.96786 0.0215 0.53053 0.0
C275 C 0.98589 0.96729 0.49343 0.0
O276 O 1.00397 0.05276 0.47347 0.0
O277 O 0.01742 0.02571 0.45035 0.0
O278 O 0.04163 1.01349 0.51891 0.0
O279 O 0.04329 0.99937 0.482 0.0
O280 O 0.02203 0.05316 0.51873 0.0
O281 O 0.03309 0.03491 0.55388 0.0
O282 O 0.01995 0.97046 0.56178 0.0
O283 O 0.99878 0.99329 0.5835 0.0
O284 O 0.97842 1.00839 0.51615 0.0
O285 O 0.97745 0.02296 0.55299 0.0
O286 O 0.99541 0.96814 0.5165 0.0
O287 O 0.98624 0.98655 0.48071 0.0
H288 H 1.00852 0.08253 0.4203 0.0
H289 H 0.04248 0.11061 0.40214 0.0
H290 H 0.0968 0.07816 0.44155 0.0
H291 H 0.06296 0.05042 0.45969 0.0
H292 H 1.00937 0.94616 0.62324 0.0
H293 H 0.97667 0.91512 0.63797 0.0
H294 H 0.93147 0.92527 0.57355 0.0
H295 H 0.96403 0.95632 0.55914 0.0
Sm296 Sm 0.51508 0.02233 0.0425 0.0
Sm297 Sm 0.47126 0.0167 1.01292 0.0
C298 C 0.56055 0.03012 0.06227 0.0
C299 C 0.57498 0.04547 0.08127 0.0
C300 C 0.58076 0.06958 0.07818 0.0
C301 C 0.59457 0.08357 0.09659 0.0
C302 C 0.60279 0.07371 0.11841 0.0
C303 C 0.59689 0.0496 0.12138 0.0
C304 C 0.58327 0.03565 0.10295 0.0
C305 C 0.48017 0.98558 0.05966 0.0
C306 C 0.4726 0.04917 0.06421 0.0
C307 C 0.427 1.00886 0.99076 0.0
C308 C 0.41832 0.99676 0.96696 0.0
C309 C 0.42713 0.97629 0.959 0.0
C310 C 0.42192 0.96694 0.93465 0.0
C311 C 0.40814 0.97808 0.91778 0.0
C312 C 0.39849 0.99801 0.92615 0.0
C313 C 0.40349 1.00723 0.95058 0.0
C314 C 0.50714 0.05262 0.99562 0.0
C315 C 0.51327 0.98919 0.99126 0.0
O316 O 0.55495 0.03916 0.04108 0.0
O317 O 0.54229 1.01501 0.07108 0.0
O318 O 0.48573 0.98969 0.03656 0.0
O319 O 0.49241 1.00159 0.07416 0.0
O320 O 0.49707 0.05061 0.06276 0.0
O321 O 0.45823 0.03421 0.04955 0.0
O322 O 0.43321 0.99612 1.00893 0.0
O323 O 0.4429 0.02788 0.98794 0.0
O324 O 0.50074 0.04919 0.01864 0.0
O325 O 0.49544 0.0362 0.98123 0.0
O326 O 0.48896 0.98879 0.99177 0.0
O327 O 0.52774 1.00321 1.00675 0.0
H328 H 0.5747 0.07766 0.06158 0.0
H329 H 0.59906 0.10204 0.09357 0.0
H330 H 0.60255 0.04146 0.13812 0.0
H331 H 0.57909 0.01711 0.10574 0.0
H332 H 0.43891 0.96804 0.97118 0.0
H333 H 0.42979 0.9517 0.92858 0.0
H334 H 0.38765 1.00682 0.91354 0.0
H335 H 0.39667 0.0231 0.95632 0.0
Sm336 Sm 0.50929 0.49513 0.50217 0.0
Sm337 Sm 0.49504 0.53596 0.54221 0.0
C338 C 0.53658 0.47046 0.47422 0.0
C339 C 0.54464 0.44803 0.47811 0.0
C340 C 0.56704 0.44336 0.46694 0.0
C341 C 0.57635 0.42318 0.47285 0.0
C342 C 0.56338 0.4074 0.49006 0.0
C343 C 0.54068 0.41196 0.50088 0.0
C344 C 0.53146 0.43223 0.49508 0.0
C345 C 0.46417 0.48117 0.52797 0.0
C346 C 0.52194 0.49286 0.56428 0.0
C347 C 0.46854 0.56072 0.57115 0.0
C348 C 0.462 0.5842 0.57018 0.0
C349 C 0.43699 0.58732 0.5739 0.0
C350 C 0.43002 0.60914 0.57094 0.0
C351 C 0.44802 0.62822 0.56438 0.0
C352 C 0.47314 0.62513 0.56106 0.0
C353 C 0.48006 0.60327 0.56377 0.0
C354 C 0.54032 0.54963 0.51652 0.0
C355 C 0.482 0.53781 0.47997 0.0
O356 O 0.54633 0.48698 0.49006 0.0
O357 O 0.51254 0.47007 0.47043 0.0
O358 O 0.47909 0.49998 0.53006 0.0
O359 O 0.47311 0.46847 0.51044 0.0
O360 O 0.52467 0.48483 0.54067 0.0
O361 O 0.51049 0.51105 0.56963 0.0
O362 O 0.45857 0.54619 0.55338 0.0
O363 O 0.49203 0.55911 0.57572 0.0
O364 O 0.52514 0.53103 0.51445 0.0
O365 O 0.53152 0.56249 0.53398 0.0
O366 O 0.47898 0.54566 0.50364 0.0
O367 O 0.49393 0.51991 0.47466 0.0
H368 H 0.57759 0.45556 0.45409 0.0
H369 H 0.59374 0.41993 0.46401 0.0
H370 H 0.53045 0.40018 0.51434 0.0
H371 H 0.51437 0.43584 0.50429 0.0
H372 H 0.42277 0.57277 0.57866 0.0
H373 H 0.41056 0.61112 0.57381 0.0
H374 H 0.48732 0.63949 0.55572 0.0
H375 H 0.49943 0.60122 0.56039 0.0
Sm376 Sm 1.00951 0.48583 0.03255 0.0
Sm377 Sm 0.99841 0.53586 1.01017 0.0
C378 C 0.02808 0.44678 0.03532 0.0
C379 C 0.0454 0.43585 0.05046 0.0
C380 C 0.0611 0.42225 0.03782 0.0
C381 C 0.07907 0.41288 0.05113 0.0
C382 C 0.08164 0.41679 0.07748 0.0
C383 C 0.0656 0.43028 0.09019 0.0
C384 C 0.04768 0.43983 0.07675 0.0
C385 C 0.98844 0.51235 0.06958 0.0
C386 C 0.05045 0.53419 0.04298 0.0
C387 C 0.98059 0.575 1.00472 0.0
C388 C 0.9623 0.58335 0.9884 0.0
C389 C 0.94176 0.56802 0.97882 0.0
C390 C 0.92323 0.57645 0.96528 0.0
C391 C 0.92511 0.6003 0.96086 0.0
C392 C 0.94619 0.61546 0.96967 0.0
C393 C 0.96461 0.60704 0.98341 0.0
C394 C 0.01924 0.50905 0.97314 0.0
C395 C 0.95703 0.48784 1.00054 0.0
O396 O 0.03853 0.46445 0.02199 0.0
O397 O 1.00641 0.4496 0.04566 0.0
O398 O 0.99355 0.51685 0.0466 0.0
O399 O 0.99475 0.49216 0.07391 0.0
O400 O 0.04547 0.51114 0.04347 0.0
O401 O 0.03516 0.54708 0.03268 0.0
O402 O 0.97127 0.55906 0.0208 0.0
O403 O 1.00161 0.57108 0.99391 0.0
O404 O 0.01374 0.50452 0.99602 0.0
O405 O 0.01369 0.52953 0.96905 0.0
O406 O 0.96169 0.51091 1.0009 0.0
O407 O 0.97291 0.47486 1.00961 0.0
H408 H 0.0598 0.41926 0.01746 0.0
H409 H 0.09139 0.40305 0.04058 0.0
H410 H 0.06689 0.43347 0.1105 0.0
H411 H 0.03586 0.4505 0.08682 0.0
H412 H 0.93974 0.54961 0.98231 0.0
H413 H 0.9073 0.56437 0.9585 0.0
H414 H 0.94798 0.63395 0.96675 0.0
H415 H 0.98032 0.6191 0.99069 0.0
H416 H 0.2686 0.19962 0.30755 0.0
H417 H 0.23476 0.17521 0.32972 0.0
H418 H 0.20436 0.236 0.35522 0.0
H419 H 0.23895 0.26071 0.33409 0.0
H420 H 0.20005 0.20455 0.39181 0.0
H421 H 0.18056 0.20439 0.30352 0.0
H422 H 0.18809 0.19994 0.2575 0.0
H423 H 0.19521 0.12842 0.26691 0.0
H424 H 0.18808 0.13253 0.31306 0.0
H425 H 0.0766 0.14356 0.41726 0.0
H426 H 0.11159 0.1702 0.39887 0.0
H427 H 0.14932 0.11225 0.37899 0.0
H428 H 0.11448 0.08562 0.39724 0.0
H429 H 0.14876 0.14341 0.33965 0.0
H430 H 0.16836 0.14436 0.42859 0.0
H431 H 0.15967 0.14928 0.47434 0.0
H432 H 0.15072 0.22011 0.46313 0.0
H433 H 0.15898 0.2155 0.41722 0.0
C434 C 0.25511 0.20789 0.31837 0.0
C435 C 0.25643 0.23216 0.31886 0.0
C436 C 0.23557 0.19387 0.33078 0.0
C437 C 0.21673 0.20376 0.34365 0.0
C438 C 0.21859 0.22799 0.34521 0.0
C439 C 0.23825 0.24207 0.33293 0.0
C440 C 0.19461 0.18875 0.35449 0.0
C441 C 0.18864 0.19139 0.38033 0.0
C442 C 0.17986 0.17141 0.33957 0.0
C443 C 0.18402 0.16883 0.31179 0.0
C444 C 0.18392 0.18776 0.29581 0.0
C445 C 0.18809 0.18529 0.26969 0.0
C446 C 0.19219 0.16393 0.2593 0.0
C447 C 0.19206 0.14497 0.27499 0.0
C448 C 0.18794 0.14735 0.30113 0.0
C449 C 0.09232 0.13656 0.40883 0.0
C450 C 0.09293 0.11258 0.40874 0.0
C451 C 0.11231 0.15176 0.3985 0.0
C452 C 0.13307 0.14316 0.38777 0.0
C453 C 0.13348 0.1192 0.38726 0.0
C454 C 0.11367 0.10405 0.39779 0.0
C455 C 0.15441 0.15906 0.37694 0.0
C456 C 0.16017 0.15661 0.35108 0.0
C457 C 0.16878 0.17665 0.3918 0.0
C458 C 0.16402 0.17951 0.41942 0.0
C459 C 0.16433 0.16093 0.43584 0.0
C460 C 0.15952 0.16367 0.46181 0.0
C461 C 0.15458 0.18497 0.47162 0.0
C462 C 0.15451 0.2036 0.45549 0.0
C463 C 0.15927 0.20094 0.4295 0.0
H464 H 0.15085 0.18706 0.49173 0.0
H465 H 0.19541 0.16205 0.23907 0.0
H466 H 0.41322 0.97007 0.68015 0.0
H467 H 0.41775 0.97213 0.72615 0.0
H468 H 0.38524 0.89998 0.73084 0.0
H469 H 0.38099 0.89764 0.68462 0.0
H470 H 0.36399 0.92641 0.76497 0.0
H471 H 0.44632 0.91548 0.74203 0.0
H472 H 0.48666 0.92158 0.71875 0.0
H473 H 0.50176 0.99162 0.74801 0.0
H474 H 0.46132 0.98606 0.77118 0.0
H475 H 0.39432 0.93382 0.89886 0.0
H476 H 0.39269 0.92109 0.85399 0.0
H477 H 0.41587 0.99185 0.83154 0.0
H478 H 0.41746 1.00462 0.8761 0.0
H479 H 0.44323 0.95921 0.8077 0.0
H480 H 0.35728 0.96993 0.82624 0.0
H481 H 0.31712 0.9624 0.84979 0.0
H482 H 0.30983 0.89004 0.82917 0.0
H483 H 0.35016 0.89711 0.80578 0.0
C484 C 0.40748 0.9545 0.69086 0.0
C485 C 0.39677 0.93368 0.67868 0.0
C486 C 0.41003 0.95572 0.71718 0.0
C487 C 0.40203 0.93615 0.73188 0.0
C488 C 0.39152 0.91528 0.71983 0.0
C489 C 0.38903 0.91402 0.69344 0.0
C490 C 0.40359 0.93803 0.75992 0.0
C491 C 0.38142 0.93311 0.77438 0.0
C492 C 0.42631 0.94688 0.77216 0.0
C493 C 0.45066 0.9504 0.75821 0.0
C494 C 0.45813 0.93225 0.74334 0.0
C495 C 0.48104 0.9356 0.73019 0.0
C496 C 0.49674 0.95699 0.73186 0.0
C497 C 0.48957 0.97506 0.74672 0.0
C498 C 0.46666 0.97181 0.7599 0.0
C499 C 0.39896 0.94661 0.88429 0.0
C500 C 0.40582 0.97021 0.89088 0.0
C501 C 0.398 0.93934 0.85876 0.0
C502 C 0.40417 0.95557 0.83956 0.0
C503 C 0.41108 0.97909 0.84613 0.0
C504 C 0.41174 0.98638 0.87154 0.0
C505 C 0.40355 0.94828 0.81248 0.0
C506 C 0.42592 0.95215 0.79827 0.0
C507 C 0.3811 0.93822 0.80053 0.0
C508 C 0.35687 0.934 0.81455 0.0
C509 C 0.34723 0.95238 0.82694 0.0
C510 C 0.32442 0.94821 0.84021 0.0
C511 C 0.31098 0.92574 0.84105 0.0
C512 C 0.32029 0.90742 0.82855 0.0
C513 C 0.34312 0.9115 0.81528 0.0
H514 H 0.29331 0.92255 0.85132 0.0
H515 H 0.51448 0.95954 0.72167 0.0
H516 H 0.62691 0.42237 0.76434 0.0
H517 H 0.60977 0.44152 0.72919 0.0
H518 H 0.574 0.37514 0.70013 0.0
H519 H 0.59083 0.3559 0.73546 0.0
H520 H 0.59953 0.40434 0.66165 0.0
H521 H 0.53906 0.40921 0.72918 0.0
H522 H 0.52556 0.41936 0.77241 0.0
H523 H 0.55502 0.49101 0.7605 0.0
H524 H 0.56902 0.48123 0.71731 0.0
H525 H 0.52724 0.44687 0.5668 0.0
H526 H 0.54258 0.42664 0.60188 0.0
H527 H 0.5564 0.49102 0.64517 0.0
H528 H 0.53913 0.51083 0.61076 0.0
H529 H 0.54233 0.46199 0.6769 0.0
H530 H 0.6047 0.45943 0.61174 0.0
H531 H 0.6214 0.45135 0.56914 0.0
H532 H 0.59329 0.37883 0.57659 0.0
H533 H 0.57619 0.38651 0.61917 0.0
C534 C 0.61538 0.41178 0.75051 0.0
C535 C 0.61027 0.38748 0.753 0.0
C536 C 0.60548 0.42281 0.73037 0.0
C537 C 0.59044 0.40991 0.71178 0.0
C538 C 0.5855 0.38563 0.71406 0.0
C539 C 0.59502 0.37461 0.73448 0.0
C540 C 0.57987 0.42172 0.69013 0.0
C541 C 0.58678 0.41674 0.66497 0.0
C542 C 0.56382 0.43854 0.6942 0.0
C543 C 0.5553 0.44445 0.72011 0.0
C544 C 0.54284 0.4271 0.73586 0.0
C545 C 0.53507 0.43279 0.76034 0.0
C546 C 0.53949 0.4558 0.76922 0.0
C547 C 0.55164 0.47318 0.75361 0.0
C548 C 0.55948 0.46758 0.72912 0.0
C549 C 0.53356 0.45675 0.58379 0.0
C550 C 0.53198 0.4806 0.58575 0.0
C551 C 0.54268 0.44514 0.60395 0.0
C552 C 0.55156 0.45713 0.62643 0.0
C553 C 0.54985 0.48102 0.62834 0.0
C554 C 0.54 0.49248 0.60848 0.0
C555 C 0.56209 0.44489 0.64803 0.0
C556 C 0.55516 0.44971 0.67332 0.0
C557 C 0.57862 0.42831 0.64407 0.0
C558 C 0.58897 0.42359 0.61855 0.0
C559 C 0.60196 0.44178 0.60424 0.0
C560 C 0.61151 0.43727 0.58011 0.0
C561 C 0.60837 0.4146 0.57017 0.0
C562 C 0.59569 0.39638 0.58433 0.0
C563 C 0.5861 0.4008 0.60848 0.0
H564 H 0.61584 0.41115 0.55153 0.0
H565 H 0.53345 0.46018 0.78818 0.0
H566 H 0.86487 0.63611 0.22166 0.0
H567 H 0.88475 0.61668 0.18715 0.0
H568 H 0.93552 0.59458 0.24032 0.0
H569 H 0.91616 0.61489 0.27486 0.0
H570 H 0.96069 0.60473 0.19966 0.0
H571 H 0.88119 0.55739 0.21322 0.0
H572 H 0.83522 0.54857 0.21778 0.0
H573 H 0.82693 0.57122 0.14192 0.0
H574 H 0.87287 0.58046 0.13702 0.0
H575 H 0.99578 0.51293 0.12057 0.0
H576 H 0.978 0.53577 0.15387 0.0
H577 H 0.93894 0.56772 0.09723 0.0
H578 H 0.95676 0.54472 0.06384 0.0
H579 H 0.90823 0.55298 0.13875 0.0
H580 H 0.98914 0.59836 0.12554 0.0
H581 H 0.03522 0.60501 0.12175 0.0
H582 H 0.04083 0.58329 0.19841 0.0
H583 H 0.99474 0.57616 0.20254 0.0
C584 C 0.8802 0.62703 0.2261 0.0
C585 C 0.88863 0.62693 0.25126 0.0
C586 C 0.89157 0.61575 0.20623 0.0
C587 C 0.91142 0.60343 0.21086 0.0
C588 C 0.92025 0.60374 0.23594 0.0
C589 C 0.90911 0.6154 0.2558 0.0
C590 C 0.92285 0.59034 0.18966 0.0
C591 C 0.9491 0.59319 0.18663 0.0
C592 C 0.90807 0.57545 0.172 0.0
C593 C 0.88046 0.56983 0.17485 0.0
C594 C 0.86955 0.56063 0.19757 0.0
C595 C 0.84351 0.55554 0.20021 0.0
C596 C 0.82816 0.55939 0.18018 0.0
C597 C 0.83884 0.56828 0.15743 0.0
C598 C 0.86488 0.57343 0.15471 0.0
C599 C 0.98358 0.52498 0.11514 0.0
C600 C 0.97815 0.52732 0.08937 0.0
C601 C 0.97344 0.53812 0.13426 0.0
C602 C 0.95723 0.55379 0.12826 0.0
C603 C 0.95152 0.55596 0.1025 0.0
C604 C 0.96199 0.54301 0.0833 0.0
C605 C 0.94591 0.5674 0.1489 0.0
C606 C 0.91972 0.56458 0.1518 0.0
C607 C 0.96074 0.58204 0.16661 0.0
C608 C 0.98847 0.58652 0.16426 0.0
C609 C 1.00019 0.59483 0.14153 0.0
C610 C 0.02631 0.59871 0.13933 0.0
C611 C 0.04094 0.59452 0.1598 0.0
C612 C 0.02947 0.5865 0.18255 0.0
C613 C 1.00335 0.58255 0.18484 0.0
H614 H 0.06117 0.59754 0.15806 0.0
H615 H 0.808 0.55543 0.18226 0.0
H616 H 0.39654 0.23003 0.15905 0.0
H617 H 0.41477 0.19879 0.13765 0.0
H618 H 0.37809 0.15009 0.1918 0.0
H619 H 0.36037 0.18133 0.21371 0.0
H620 H 0.42559 0.14321 0.18272 0.0
H621 H 0.35405 0.15244 0.13342 0.0
H622 H 0.32724 0.17399 0.10881 0.0
H623 H 0.38725 0.19249 0.05512 0.0
H624 H 0.41455 0.17131 0.07962 0.0
H625 H 0.42284 0.0517 0.07107 0.0
H626 H 0.40425 0.08041 0.09639 0.0
H627 H 0.47782 0.11264 0.12003 0.0
H628 H 0.49657 0.08381 0.09503 0.0
H629 H 0.40997 0.12622 0.09112 0.0
H630 H 0.47345 0.1367 0.17939 0.0
H631 H 0.49769 0.11317 0.20463 0.0
H632 H 0.44871 0.05122 0.18167 0.0
H633 H 0.42399 0.0744 0.15658 0.0
C634 C 0.39257 0.21272 0.16656 0.0
C635 C 0.37689 0.20813 0.188 0.0
C636 C 0.40284 0.19486 0.1542 0.0
C637 C 0.39756 0.17207 0.16298 0.0
C638 C 0.38234 0.16753 0.18466 0.0
C639 C 0.37205 0.18536 0.19701 0.0
C640 C 0.40756 0.15287 0.14934 0.0
C641 C 0.42222 0.1395 0.16269 0.0
C642 C 0.40281 0.1478 0.12331 0.0
C643 C 0.38641 0.16047 0.10849 0.0
C644 C 0.36159 0.16125 0.11648 0.0
C645 C 0.3463 0.17338 0.10253 0.0
C646 C 0.35556 0.18465 0.08045 0.0
C647 C 0.38012 0.18377 0.07224 0.0
C648 C 0.3955 0.1717 0.08614 0.0
C649 C 0.43507 0.06473 0.08186 0.0
C650 C 0.4612 0.06545 0.08102 0.0
C651 C 0.42441 0.08119 0.09624 0.0
C652 C 0.43962 0.09861 0.11017 0.0
C653 C 0.46568 0.09917 0.10969 0.0
C654 C 0.47637 0.0827 0.09533 0.0
C655 C 0.42826 0.1167 0.12441 0.0
C656 C 0.41339 0.12992 0.11115 0.0
C657 C 0.43249 0.12137 0.15061 0.0
C658 C 0.44703 0.10728 0.16591 0.0
C659 C 0.4678 0.11807 0.17982 0.0
C660 C 0.48163 0.10479 0.19408 0.0
C661 C 0.4748 0.08071 0.19469 0.0
C662 C 0.45405 0.06986 0.18111 0.0
C663 C 0.44014 0.08306 0.16683 0.0
H664 H 0.48554 0.07046 0.20573 0.0
H665 H 0.34369 0.19402 0.06968 0.0
H666 H 0.27846 0.9881 0.56511 0.0
H667 H 0.23558 0.99483 0.55861 0.0
H668 H 0.22079 0.932 0.51299 0.0
H669 H 0.26319 0.92431 0.52045 0.0
H670 H 0.20626 0.97474 0.49186 0.0
H671 H 0.19766 0.92785 0.56696 0.0
H672 H 0.20838 0.9183 0.61034 0.0
H673 H 0.18984 0.98322 0.63859 0.0
H674 H 0.17937 0.99332 0.59529 0.0
H675 H 0.07617 0.96943 0.47868 0.0
H676 H 0.11749 0.95932 0.48693 0.0
H677 H 0.12588 1.00782 0.55063 0.0
H678 H 0.08403 0.01703 0.54318 0.0
H679 H 0.1442 0.97179 0.56268 0.0
H680 H 0.15402 0.02055 0.4906 0.0
H681 H 0.14492 0.03346 0.44802 0.0
H682 H 0.16334 0.97023 0.41481 0.0
H683 H 0.17223 0.95681 0.45725 0.0
C684 C 0.26606 0.97547 0.554 0.0
C685 C 0.27437 0.95558 0.54341 0.0
C686 C 0.24162 0.97947 0.55017 0.0
C687 C 0.22514 0.96385 0.53542 0.0
C688 C 0.23337 0.94426 0.52438 0.0
C689 C 0.25768 0.94002 0.52853 0.0
C690 C 0.19926 0.96803 0.53149 0.0
C691 C 0.19251 0.97379 0.5072 0.0
C692 C 0.18178 0.96753 0.55179 0.0
C693 C 0.18799 0.96144 0.57784 0.0
C694 C 0.1961 0.94019 0.58238 0.0
C695 C 0.20208 0.93465 0.60696 0.0
C696 C 0.19986 0.95017 0.6272 0.0
C697 C 0.19159 0.97123 0.6229 0.0
C698 C 0.18561 0.97686 0.59834 0.0
C699 C 0.08682 0.97778 0.49453 0.0
C700 C 0.07711 0.99411 0.51018 0.0
C701 C 0.11047 0.97212 0.49914 0.0
C702 C 0.12508 0.98321 0.51905 0.0
C703 C 0.11503 0.99909 0.53511 0.0
C704 C 0.09116 1.00439 0.53081 0.0
C705 C 0.15095 0.97853 0.52289 0.0
C706 C 0.15781 0.97271 0.54722 0.0
C707 C 0.16874 0.97951 0.5027 0.0
C708 C 0.16355 0.98758 0.47713 0.0
C709 C 0.15597 1.00933 0.47423 0.0
C710 C 0.15087 0.01675 0.45012 0.0
C711 C 0.15349 1.00265 0.42873 0.0
C712 C 0.16129 0.98112 0.4314 0.0
C713 C 0.16638 0.97361 0.45547 0.0
H714 H 0.14953 1.00842 0.41008 0.0
H715 H 0.20449 0.94585 0.64622 0.0
H716 H 0.73438 0.41496 0.90701 0.0
H717 H 0.7726 0.43474 0.92708 0.0
H718 H 0.81174 0.37916 0.90247 0.0
H719 H 0.77424 0.3598 0.88126 0.0
H720 H 0.8203 0.39219 0.95387 0.0
H721 H 0.82267 0.42894 0.87273 0.0
H722 H 0.80606 0.45033 0.8388 0.0
H723 H 0.80083 0.50725 0.89083 0.0
H724 H 0.81708 0.48603 0.92519 0.0
H725 H 0.94526 0.44266 0.98289 0.0
H726 H 0.90672 0.42392 0.96268 0.0
H727 H 0.87534 0.48721 0.9719 0.0
H728 H 0.91433 0.50632 0.99105 0.0
H729 H 0.86165 0.47043 0.92898 0.0
H730 H 0.85802 0.43559 1.01017 0.0
H731 H 0.87278 0.41504 0.04589 0.0
H732 H 0.87773 0.35587 0.99706 0.0
H733 H 0.86329 0.37618 0.96095 0.0
C734 C 0.75111 0.40696 0.90542 0.0
C735 C 0.75069 0.38547 0.89233 0.0
C736 C 0.77305 0.41834 0.91715 0.0
C737 C 0.79525 0.40853 0.9164 0.0
C738 C 0.79492 0.3871 0.90358 0.0
C739 C 0.77316 0.37589 0.89154 0.0
C740 C 0.81881 0.42049 0.9289 0.0
C741 C 0.82949 0.40919 0.94822 0.0
C742 C 0.83057 0.44302 0.92223 0.0
C743 C 0.82083 0.45579 0.9016 0.0
C744 C 0.81776 0.44593 0.877 0.0
C745 C 0.80846 0.45804 0.85768 0.0
C746 C 0.80232 0.48011 0.86268 0.0
C747 C 0.80555 0.49013 0.887 0.0
C748 C 0.81482 0.47808 0.9064 0.0
C749 C 0.93013 0.4526 0.98077 0.0
C750 C 0.93303 0.47605 0.98888 0.0
C751 C 0.90787 0.44177 0.96926 0.0
C752 C 0.8875 0.45382 0.96604 0.0
C753 C 0.89049 0.4773 0.97403 0.0
C754 C 0.9129 0.48826 0.98514 0.0
C755 C 0.86335 0.44215 0.9541 0.0
C756 C 0.85251 0.45347 0.93483 0.0
C757 C 0.85117 0.41979 0.96115 0.0
C758 C 0.85981 0.4075 0.9828 0.0
C759 C 0.86242 0.41825 1.00701 0.0
C760 C 0.8707 0.40664 0.02733 0.0
C761 C 0.87625 0.38419 0.02373 0.0
C762 C 0.87346 0.37328 0.99981 0.0
C763 C 0.8652 0.38482 0.97941 0.0
H764 H 0.88266 0.37523 0.03949 0.0
H765 H 0.79513 0.48946 0.84769 0.0
H766 H 0.72027 0.65103 0.37378 0.0
H767 H 0.68243 0.63275 0.39571 0.0
H768 H 0.72601 0.59035 0.43665 0.0
H769 H 0.764 0.60824 0.41403 0.0
H770 H 0.68307 0.56511 0.42659 0.0
H771 H 0.70556 0.64085 0.46365 0.0
H772 H 0.71686 0.68346 0.46434 0.0
H773 H 0.64625 0.68972 0.43121 0.0
H774 H 0.63467 0.64711 0.43002 0.0
H775 H 0.57921 0.58258 0.53027 0.0
H776 H 0.61817 0.59553 0.50716 0.0
H777 H 0.59442 0.54626 0.44656 0.0
H778 H 0.55578 0.53246 0.47053 0.0
H779 H 0.62864 0.61668 0.46743 0.0
H780 H 0.64391 0.53363 0.41107 0.0
H781 H 0.63453 0.49115 0.41544 0.0
H782 H 0.63424 0.49944 0.49665 0.0
H783 H 0.64394 0.54193 0.49276 0.0
C784 C 0.72189 0.63786 0.3875 0.0
C785 C 0.74539 0.63141 0.39231 0.0
C786 C 0.70012 0.62736 0.40013 0.0
C787 C 0.70114 0.6104 0.41846 0.0
C788 C 0.72448 0.60339 0.42275 0.0
C789 C 0.74629 0.61369 0.4098 0.0
C790 C 0.67804 0.60063 0.43352 0.0
C791 C 0.6712 0.57643 0.43551 0.0
C792 C 0.6625 0.61515 0.44575 0.0
C793 C 0.66935 0.64078 0.44653 0.0
C794 C 0.69251 0.65131 0.45636 0.0
C795 C 0.69896 0.67546 0.45686 0.0
C796 C 0.68231 0.68929 0.44776 0.0
C797 C 0.65915 0.67899 0.43821 0.0
C798 C 0.65262 0.65484 0.43764 0.0
C799 C 0.58242 0.57427 0.51215 0.0
C800 C 0.56446 0.55631 0.50239 0.0
C801 C 0.60475 0.58181 0.49879 0.0
C802 C 0.60974 0.57192 0.47497 0.0
C803 C 0.59164 0.55395 0.46509 0.0
C804 C 0.56941 0.54606 0.47878 0.0
C805 C 0.63345 0.5811 0.46049 0.0
C806 C 0.64042 0.60527 0.45854 0.0
C807 C 0.64943 0.56653 0.44903 0.0
C808 C 0.6444 0.54097 0.45159 0.0
C809 C 0.64199 0.52638 0.42985 0.0
C810 C 0.63658 0.5023 0.43225 0.0
C811 C 0.6337 0.49261 0.4563 0.0
C812 C 0.63639 0.50697 0.47802 0.0
C813 C 0.64183 0.53105 0.47573 0.0
H814 H 0.62942 0.47397 0.45812 0.0
H815 H 0.68734 0.70798 0.44816 0.0
H816 H 0.25584 0.30887 0.14968 0.0
H817 H 0.22289 0.32667 0.13074 0.0
H818 H 0.23094 0.37977 0.18982 0.0
H819 H 0.26282 0.36123 0.20979 0.0
H820 H 0.18377 0.36512 0.18296 0.0
H821 H 0.25265 0.3905 0.12752 0.0
H822 H 0.28858 0.38685 0.09908 0.0
H823 H 0.24015 0.34309 0.04792 0.0
H824 H 0.20397 0.34622 0.07624 0.0
H825 H 0.11123 0.43749 0.11619 0.0
H826 H 0.14533 0.42253 0.13704 0.0
H827 H 0.13185 0.3603 0.09025 0.0
H828 H 0.09717 0.37461 0.06998 0.0
H829 H 0.18272 0.38213 0.09125 0.0
H830 H 0.11408 0.35662 0.14894 0.0
H831 H 0.07881 0.36207 0.17758 0.0
H832 H 0.1284 0.40904 0.22468 0.0
H833 H 0.16392 0.40412 0.19609 0.0
C834 C 0.25056 0.32427 0.15875 0.0
C835 C 0.26204 0.33356 0.18131 0.0
C836 C 0.2319 0.33463 0.14769 0.0
C837 C 0.22461 0.35477 0.15865 0.0
C838 C 0.23628 0.36429 0.18095 0.0
C839 C 0.25476 0.3538 0.19219 0.0
C840 C 0.20415 0.36532 0.14739 0.0
C841 C 0.18379 0.36921 0.16299 0.0
C842 C 0.20391 0.37036 0.12124 0.0
C843 C 0.22563 0.36844 0.10413 0.0
C844 C 0.24969 0.37996 0.11031 0.0
C845 C 0.2701 0.378 0.09419 0.0
C846 C 0.26666 0.3647 0.07174 0.0
C847 C 0.24279 0.35337 0.06533 0.0
C848 C 0.22232 0.35525 0.0814 0.0
C849 C 0.11516 0.42042 0.11065 0.0
C850 C 0.10146 0.40731 0.09129 0.0
C851 C 0.13477 0.41198 0.12248 0.0
C852 C 0.14111 0.39036 0.11509 0.0
C853 C 0.12734 0.37711 0.09606 0.0
C854 C 0.10759 0.3854 0.08442 0.0
C855 C 0.16244 0.38166 0.12678 0.0
C856 C 0.1829 0.37816 0.11124 0.0
C857 C 0.16293 0.37728 0.153 0.0
C858 C 0.1416 0.38021 0.17022 0.0
C859 C 0.11742 0.36828 0.16527 0.0
C860 C 0.09739 0.37124 0.18152 0.0
C861 C 0.10135 0.38595 0.20289 0.0
C862 C 0.12536 0.39768 0.20809 0.0
C863 C 0.14545 0.39481 0.19188 0.0
H864 H 0.08582 0.3882 0.21546 0.0
H865 H 0.28249 0.36321 0.05928 0.0
H866 H 0.61004 0.22516 0.8587 0.0
H867 H 0.59214 0.18965 0.87997 0.0
H868 H 0.57978 0.22924 0.9478 0.0
H869 H 0.59709 0.26511 0.92644 0.0
H870 H 0.5983 0.18959 0.9596 0.0
H871 H 0.53106 0.20752 0.90929 0.0
H872 H 0.5109 0.21713 0.87015 0.0
H873 H 0.52483 0.1532 0.83486 0.0
H874 H 0.5454 0.14334 0.87368 0.0
H875 H 0.51991 0.09501 0.02055 0.0
H876 H 0.5382 0.13222 1.00227 0.0
H877 H 0.54255 0.09844 0.92892 0.0
H878 H 0.52337 0.06158 0.94695 0.0
H879 H 0.52749 0.1365 0.92118 0.0
H880 H 0.59563 0.11853 0.97041 0.0
H881 H 0.61579 0.10831 1.0093 0.0
H882 H 0.60118 0.17139 0.04607 0.0
H883 H 0.58058 0.18183 1.00751 0.0
C884 C 0.60319 0.2266 0.878 0.0
C885 C 0.60498 0.24849 0.8905 0.0
C886 C 0.59302 0.20604 0.89029 0.0
C887 C 0.58424 0.20649 0.91559 0.0
C888 C 0.58638 0.22819 0.92834 0.0
C889 C 0.59643 0.24883 0.916 0.0
C890 C 0.57265 0.1844 0.92843 0.0
C891 C 0.5826 0.17815 0.95133 0.0
C892 C 0.55243 0.16898 0.91764 0.0
C893 C 0.53997 0.1748 0.89432 0.0
C894 C 0.52999 0.19559 0.89312 0.0
C895 C 0.51846 0.20107 0.871 0.0
C896 C 0.51664 0.18581 0.85001 0.0
C897 C 0.52629 0.16501 0.85112 0.0
C898 C 0.53786 0.15946 0.87318 0.0
C899 C 0.52495 0.09549 1.00057 0.0
C900 C 0.52016 0.07517 0.98529 0.0
C901 C 0.53558 0.11687 0.99005 0.0
C902 C 0.54225 0.1185 0.96404 0.0
C903 C 0.53767 0.09804 0.94894 0.0
C904 C 0.52676 0.0768 0.95935 0.0
C905 C 0.55333 0.14135 0.95226 0.0
C906 C 0.54322 0.14784 0.92952 0.0
C907 C 0.57352 0.15685 0.96313 0.0
C908 C 0.58634 0.15085 0.98615 0.0
C909 C 0.5966 0.13017 0.98684 0.0
C910 C 0.60811 0.12433 1.00882 0.0
C911 C 0.60969 0.13915 0.03017 0.0
C912 C 0.59989 0.1599 0.02953 0.0
C913 C 0.58831 0.1658 1.00761 0.0
H914 H 0.61856 0.13458 0.04719 0.0
H915 H 0.50771 0.19009 0.8329 0.0
H916 H 0.90934 0.78534 0.35192 0.0
H917 H 0.92642 0.82155 0.37319 0.0
H918 H 0.89665 0.79458 0.44475 0.0
H919 H 0.87743 0.75888 0.42316 0.0
H920 H 0.89085 0.83636 0.44543 0.0
H921 H 0.96289 0.80185 0.42536 0.0
H922 H 0.99247 0.7831 0.39899 0.0
H923 H 1.00671 0.84302 0.35218 0.0
H924 H 0.97695 0.86201 0.37808 0.0
H925 H 0.96994 0.926 0.51722 0.0
H926 H 0.95211 0.88846 0.49791 0.0
H927 H 0.95909 0.9187 0.42389 0.0
H928 H 0.97643 0.9564 0.44309 0.0
H929 H 0.97739 0.87489 0.42654 0.0
H930 H 0.90341 0.90837 0.44964 0.0
H931 H 0.87611 0.92607 0.47978 0.0
H932 H 0.86878 0.8657 0.52586 0.0
H933 H 0.89633 0.84776 0.49615 0.0
C934 C 0.90595 0.78699 0.37213 0.0
C935 C 0.89163 0.76872 0.38552 0.0
C936 C 0.9163 0.80783 0.38449 0.0
C937 C 0.91347 0.81104 0.4109 0.0
C938 C 0.89937 0.79282 0.42442 0.0
C939 C 0.88858 0.77208 0.41197 0.0
C940 C 0.92472 0.83348 0.42416 0.0
C941 C 0.90993 0.84446 0.44148 0.0
C942 C 0.94962 0.84462 0.4192 0.0
C943 C 0.96749 0.83326 0.40352 0.0
C944 C 0.97218 0.81096 0.40933 0.0
C945 C 0.98901 0.8003 0.39449 0.0
C946 C 1.00141 0.81184 0.37389 0.0
C947 C 0.99706 0.83409 0.36812 0.0
C948 C 0.98023 0.84482 0.38289 0.0
C949 C 0.96763 0.92473 0.49683 0.0
C950 C 0.97463 0.94438 0.48177 0.0
C951 C 0.95736 0.90319 0.48579 0.0
C952 C 0.95415 0.9006 0.45936 0.0
C953 C 0.96134 0.92014 0.44429 0.0
C954 C 0.97118 0.94177 0.45535 0.0
C955 C 0.94343 0.87759 0.4474 0.0
C956 C 0.95836 0.86659 0.43041 0.0
C957 C 0.91894 0.86618 0.45314 0.0
C958 C 0.90212 0.87682 0.4708 0.0
C959 C 0.89612 0.89894 0.4663 0.0
C960 C 0.88058 0.909 0.48328 0.0
C961 C 0.87077 0.89704 0.50476 0.0
C962 C 0.87642 0.87495 0.50924 0.0
C963 C 0.89197 0.86482 0.49232 0.0
H964 H 0.85875 0.90487 0.51789 0.0
H965 H 0.01444 0.80356 0.36242 0.0
H966 H 0.37352 0.82494 0.58243 0.0
H967 H 0.38293 0.78541 0.5827 0.0
H968 H 0.41108 0.79247 0.50564 0.0
H969 H 0.40254 0.83253 0.50574 0.0
H970 H 0.36875 0.74715 0.55868 0.0
H971 H 0.45866 0.76168 0.49662 0.0
H972 H 0.4921 0.7935 0.48451 0.0
H973 H 0.48062 0.83008 0.55438 0.0
H974 H 0.44736 0.79836 0.56703 0.0
H975 H 0.40874 0.63813 0.53707 0.0
H976 H 0.39656 0.67622 0.53076 0.0
H977 H 0.45822 0.70812 0.57709 0.0
H978 H 0.47074 0.67014 0.58297 0.0
H979 H 0.45511 0.73344 0.5376 0.0
H980 H 0.39729 0.69783 0.60029 0.0
H981 H 0.36553 0.66727 0.6181 0.0
H982 H 0.31584 0.67512 0.55729 0.0
H983 H 0.34746 0.70553 0.53892 0.0
C984 C 0.38144 0.81794 0.56545 0.0
C985 C 0.38739 0.83173 0.54408 0.0
C986 C 0.38681 0.79536 0.56561 0.0
C987 C 0.39803 0.78603 0.54432 0.0
C988 C 0.40293 0.79945 0.52249 0.0
C989 C 0.39797 0.82225 0.5225 0.0
C990 C 0.40543 0.76266 0.5456 0.0
C991 C 0.38761 0.74414 0.55392 0.0
C992 C 0.43014 0.75875 0.53984 0.0
C993 C 0.45034 0.77778 0.53261 0.0
C994 C 0.46334 0.77649 0.50942 0.0
C995 C 0.48225 0.7945 0.50246 0.0
C996 C 0.48842 0.81384 0.51862 0.0
C997 C 0.47576 0.81514 0.54184 0.0
C998 C 0.45687 0.79716 0.5489 0.0
C999 C 0.41959 0.65329 0.54598 0.0
C1000 C 0.44058 0.65122 0.56063 0.0
C1001 C 0.41264 0.67502 0.54236 0.0
C1002 C 0.42632 0.69499 0.55369 0.0
C1003 C 0.44745 0.69296 0.5681 0.0
C1004 C 0.45456 0.67128 0.57149 0.0
C1005 C 0.41849 0.71802 0.55085 0.0
C1006 C 0.4362 0.73642 0.54212 0.0
C1007 C 0.39392 0.722 0.55706 0.0
C1008 C 0.37484 0.70377 0.56809 0.0
C1009 C 0.37966 0.69291 0.59061 0.0
C1010 C 0.36167 0.67564 0.60082 0.0
C1011 C 0.33871 0.66921 0.58879 0.0
C1012 C 0.33365 0.68009 0.56656 0.0
C1013 C 0.35159 0.69735 0.55625 0.0
H1014 H 0.3248 0.65583 0.59673 0.0
H1015 H 0.50303 0.82778 0.51319 0.0
H1016 H 0.76402 0.85488 0.7387 0.0
H1017 H 0.79307 0.86162 0.70262 0.0
H1018 H 0.82771 0.80319 0.72351 0.0
H1019 H 0.79905 0.79663 0.75989 0.0
H1020 H 0.86093 0.84274 0.72045 0.0
H1021 H 0.79723 0.80145 0.66797 0.0
H1022 H 0.75482 0.79121 0.65047 0.0
H1023 H 0.75917 0.85985 0.62155 0.0
H1024 H 0.80147 0.87063 0.6392 0.0
H1025 H 0.953 0.87502 0.62628 0.0
H1026 H 0.91887 0.84996 0.64791 0.0
H1027 H 0.86899 0.89901 0.63359 0.0
H1028 H 0.90274 0.92369 0.61152 0.0
H1029 H 0.84398 0.85649 0.63032 0.0
H1030 H 0.90175 0.90006 0.68971 0.0
H1031 H 0.94316 0.9128 0.70874 0.0
H1032 H 0.94847 0.84232 0.72635 0.0
H1033 H 0.90721 0.82915 0.7071 0.0
C1034 C 0.77753 0.84322 0.73531 0.0
C1035 C 0.77938 0.82534 0.75221 0.0
C1036 C 0.79396 0.84695 0.71457 0.0
C1037 C 0.81249 0.83284 0.71036 0.0
C1038 C 0.81347 0.8142 0.72638 0.0
C1039 C 0.79698 0.8104 0.74707 0.0
C1040 C 0.8328 0.83957 0.69153 0.0
C1041 C 0.85732 0.84514 0.70057 0.0
C1042 C 0.82793 0.84331 0.6658 0.0
C1043 C 0.8025 0.83688 0.65505 0.0
C1044 C 0.78908 0.81442 0.65805 0.0
C1045 C 0.76507 0.80851 0.64806 0.0
C1046 C 0.75429 0.82488 0.63494 0.0
C1047 C 0.76754 0.84718 0.63172 0.0
C1048 C 0.79156 0.85319 0.64167 0.0
C1049 C 0.93464 0.88023 0.6275 0.0
C1050 C 0.93053 0.90134 0.61742 0.0
C1051 C 0.91518 0.86593 0.63981 0.0
C1052 C 0.89149 0.87281 0.64273 0.0
C1053 C 0.88707 0.89331 0.63152 0.0
C1054 C 0.90639 0.90743 0.61895 0.0
C1055 C 0.87196 0.86003 0.6594 0.0
C1056 C 0.84763 0.85346 0.65004 0.0
C1057 C 0.87685 0.85569 0.68501 0.0
C1058 C 0.90157 0.8636 0.69669 0.0
C1059 C 0.91184 0.88728 0.69748 0.0
C1060 C 0.93526 0.89457 0.70832 0.0
C1061 C 0.94848 0.87837 0.71867 0.0
C1062 C 0.93825 0.85484 0.71827 0.0
C1063 C 0.91485 0.84745 0.7074 0.0
H1064 H 0.96661 0.88405 0.72707 0.0
H1065 H 0.7357 0.82026 0.62723 0.0
H1066 H 0.70233 0.21488 0.29593 0.0
H1067 H 0.67919 0.19499 0.2601 0.0
H1068 H 0.72024 0.13771 0.26629 0.0
H1069 H 0.74391 0.15776 0.30162 0.0
H1070 H 0.71744 0.15025 0.21762 0.0
H1071 H 0.66058 0.13361 0.28832 0.0
H1072 H 0.63527 0.14308 0.32537 0.0
H1073 H 0.59392 0.18214 0.27821 0.0
H1074 H 0.61924 0.17317 0.24092 0.0
H1075 H 0.6428 0.06382 0.14483 0.0
H1076 H 0.66551 0.08687 0.1787 0.0
H1077 H 0.61957 0.14022 0.16994 0.0
H1078 H 0.59585 0.11668 0.13677 0.0
H1079 H 0.62466 0.13178 0.21881 0.0
H1080 H 0.68061 0.14684 0.14756 0.0
H1081 H 0.70572 0.13667 0.11064 0.0
H1082 H 0.74875 0.1002 0.15892 0.0
H1083 H 0.72367 0.10988 0.19609 0.0
C1084 C 0.70656 0.19814 0.28952 0.0
C1085 C 0.72491 0.18786 0.30162 0.0
C1086 C 0.69317 0.18671 0.26921 0.0
C1087 C 0.69785 0.16479 0.26071 0.0
C1088 C 0.71631 0.1546 0.2726 0.0
C1089 C 0.72966 0.16598 0.29291 0.0
C1090 C 0.68371 0.1525 0.23925 0.0
C1091 C 0.69716 0.14599 0.21797 0.0
C1092 C 0.65723 0.14751 0.23948 0.0
C1093 C 0.642 0.15294 0.26188 0.0
C1094 C 0.64624 0.1444 0.28589 0.0
C1095 C 0.63186 0.14964 0.30693 0.0
C1096 C 0.61305 0.16327 0.30416 0.0
C1097 C 0.60854 0.17163 0.28033 0.0
C1098 C 0.62288 0.16646 0.25924 0.0
C1099 C 0.63736 0.08038 0.1502 0.0
C1100 C 0.61744 0.08837 0.13811 0.0
C1101 C 0.65058 0.09367 0.16938 0.0
C1102 C 0.64447 0.11542 0.17662 0.0
C1103 C 0.62467 0.12353 0.16456 0.0
C1104 C 0.61129 0.11015 0.14544 0.0
C1105 C 0.6584 0.12936 0.19722 0.0
C1106 C 0.64492 0.13618 0.21835 0.0
C1107 C 0.68488 0.13463 0.19687 0.0
C1108 C 0.70013 0.12895 0.17458 0.0
C1109 C 0.69532 0.13652 0.15028 0.0
C1110 C 0.70956 0.13086 0.12931 0.0
C1111 C 0.72878 0.11776 0.13243 0.0
C1112 C 0.73384 0.11034 0.15653 0.0
C1113 C 0.71965 0.11593 0.17756 0.0
H1114 H 0.73978 0.11338 0.11617 0.0
H1115 H 0.60193 0.1673 0.32047 0.0
H1116 H 0.40799 0.61168 0.26627 0.0
H1117 H 0.42377 0.59362 0.30262 0.0
H1118 H 0.40253 0.6473 0.35219 0.0
H1119 H 0.3868 0.66566 0.31566 0.0
H1120 H 0.44571 0.63809 0.36728 0.0
H1121 H 0.36825 0.58979 0.34806 0.0
H1122 H 0.33702 0.56551 0.32126 0.0
H1123 H 0.38913 0.51839 0.30531 0.0
H1124 H 0.42081 0.54256 0.33175 0.0
H1125 H 0.45867 0.57679 0.48161 0.0
H1126 H 0.44237 0.59629 0.44638 0.0
H1127 H 0.46575 0.54602 0.39362 0.0
H1128 H 0.48189 0.5263 0.42876 0.0
H1129 H 0.42046 0.55391 0.38114 0.0
H1130 H 0.49807 0.60308 0.40048 0.0
H1131 H 0.52856 0.62735 0.42807 0.0
H1132 H 0.47494 0.67282 0.4449 0.0
H1133 H 0.44401 0.64865 0.41764 0.0
C1134 C 0.40635 0.61963 0.28489 0.0
C1135 C 0.39568 0.64015 0.28774 0.0
C1136 C 0.41547 0.60918 0.30585 0.0
C1137 C 0.41403 0.61862 0.33061 0.0
C1138 C 0.40391 0.63941 0.3335 0.0
C1139 C 0.3949 0.64999 0.31245 0.0
C1140 C 0.42307 0.60683 0.35325 0.0
C1141 C 0.43982 0.61974 0.37042 0.0
C1142 C 0.41599 0.58272 0.35755 0.0
C1143 C 0.39698 0.56811 0.3417 0.0
C1144 C 0.37311 0.57434 0.33869 0.0
C1145 C 0.35532 0.56058 0.32358 0.0
C1146 C 0.36111 0.54045 0.31154 0.0
C1147 C 0.38468 0.534 0.31463 0.0
C1148 C 0.40256 0.54771 0.32969 0.0
C1149 C 0.4604 0.5698 0.46254 0.0
C1150 C 0.47178 0.54983 0.45831 0.0
C1151 C 0.45113 0.58113 0.44225 0.0
C1152 C 0.45295 0.57297 0.41697 0.0
C1153 C 0.46402 0.55287 0.41275 0.0
C1154 C 0.47336 0.54157 0.43301 0.0
C1155 C 0.44321 0.58512 0.39502 0.0
C1156 C 0.42631 0.57226 0.378 0.0
C1157 C 0.45004 0.60928 0.39097 0.0
C1158 C 0.46865 0.62392 0.40722 0.0
C1159 C 0.49273 0.61816 0.4102 0.0
C1160 C 0.5101 0.63192 0.42576 0.0
C1161 C 0.50367 0.65158 0.43828 0.0
C1162 C 0.47988 0.65757 0.43521 0.0
C1163 C 0.46243 0.64386 0.41969 0.0
H1164 H 0.51714 0.6622 0.45032 0.0
H1165 H 0.34731 0.52983 0.29985 0.0
H1166 H 0.11255 0.42508 0.76875 0.0
H1167 H 0.09487 0.44525 0.80422 0.0
H1168 H 0.09255 0.38487 0.85009 0.0
H1169 H 0.11048 0.36462 0.81481 0.0
H1170 H 0.05059 0.40314 0.85811 0.0
H1171 H 0.13828 0.43355 0.85786 0.0
H1172 H 0.17859 0.45175 0.83936 0.0
H1173 H 0.14669 0.51248 0.82262 0.0
H1174 H 0.10608 0.4945 0.84072 0.0
H1175 H 0.02663 0.46304 0.97498 0.0
H1176 H 0.04498 0.44024 0.94181 0.0
H1177 H 0.05368 0.49911 0.89279 0.0
H1178 H 0.03642 0.52197 0.92613 0.0
H1179 H 0.09347 0.48024 0.88783 0.0
H1180 H 1.00549 0.44969 0.88668 0.0
H1181 H 0.96509 0.43185 0.90533 0.0
H1182 H 0.99712 0.37181 0.92452 0.0
H1183 H 0.03782 0.38946 0.90631 0.0
C1184 C 0.10851 0.41603 0.78639 0.0
C1185 C 0.11321 0.39307 0.78862 0.0
C1186 C 0.09828 0.42767 0.80679 0.0
C1187 C 0.09254 0.41684 0.83023 0.0
C1188 C 0.09669 0.39376 0.83236 0.0
C1189 C 0.10692 0.38211 0.81197 0.0
C1190 C 0.08258 0.42962 0.85248 0.0
C1191 C 0.06019 0.41986 0.86478 0.0
C1192 C 0.09466 0.4517 0.86123 0.0
C1193 C 0.11908 0.46259 0.85043 0.0
C1194 C 0.13981 0.45072 0.85007 0.0
C1195 C 0.16272 0.46101 0.83968 0.0
C1196 C 0.16518 0.48323 0.82976 0.0
C1197 C 0.14475 0.49525 0.83028 0.0
C1198 C 0.12179 0.48503 0.84062 0.0
C1199 C 0.03284 0.47119 0.95732 0.0
C1200 C 0.03033 0.49448 0.95348 0.0
C1201 C 0.04306 0.45803 0.9381 0.0
C1202 C 0.05067 0.46773 0.91439 0.0
C1203 C 0.04816 0.49103 0.91073 0.0
C1204 C 0.03813 0.50414 0.92989 0.0
C1205 C 0.06126 0.45395 0.89329 0.0
C1206 C 0.08383 0.46351 0.88122 0.0
C1207 C 0.04929 0.43176 0.88473 0.0
C1208 C 0.02476 0.42099 0.89537 0.0
C1209 C 1.00395 0.43274 0.89502 0.0
C1210 C 0.981 0.42266 0.9055 0.0
C1211 C 0.97856 0.40074 0.91616 0.0
C1212 C 0.99905 0.38881 0.91629 0.0
C1213 C 0.02206 0.39884 0.90588 0.0
H1214 H 0.96078 0.39297 0.92428 0.0
H1215 H 0.18293 0.49117 0.82172 0.0
H1216 H 0.62069 0.81792 0.91242 0.0
H1217 H 0.58856 0.83988 0.92881 0.0
H1218 H 0.61138 0.89259 0.87357 0.0
H1219 H 0.64357 0.87106 0.85738 0.0
H1220 H 0.5991 0.8817 0.95083 0.0
H1221 H 0.56324 0.92086 0.86037 0.0
H1222 H 0.5527 0.90882 0.81616 0.0
H1223 H 0.53868 0.83746 0.83766 0.0
H1224 H 0.54875 0.84906 0.88207 0.0
H1225 H 0.56277 0.98857 0.98071 0.0
H1226 H 0.58111 0.95823 0.95794 0.0
H1227 H 0.5072 0.92093 0.94302 0.0
H1228 H 0.48864 0.95155 0.96521 0.0
H1229 H 0.53807 0.91821 0.90266 0.0
H1230 H 0.54061 0.90703 0.99242 0.0
H1231 H 0.55065 0.91933 0.03672 0.0
H1232 H 0.62902 0.9316 0.01768 0.0
H1233 H 0.6195 0.92014 0.97312 0.0
C1234 C 0.61859 0.83401 0.90352 0.0
C1235 C 0.6348 0.84277 0.88366 0.0
C1236 C 0.60017 0.84649 0.91285 0.0
C1237 C 0.59751 0.86782 0.90236 0.0
C1238 C 0.61277 0.87597 0.88167 0.0
C1239 C 0.63118 0.86356 0.87238 0.0
C1240 C 0.58112 0.88298 0.91482 0.0
C1241 C 0.58555 0.88948 0.94036 0.0
C1242 C 0.56331 0.89299 0.9012 0.0
C1243 C 0.55693 0.88585 0.87456 0.0
C1244 C 0.55777 0.9026 0.85571 0.0
C1245 C 0.55191 0.89585 0.8306 0.0
C1246 C 0.54508 0.87239 0.8241 0.0
C1247 C 0.54405 0.85562 0.84271 0.0
C1248 C 0.54987 0.86228 0.86785 0.0
C1249 C 0.55039 0.97407 0.97232 0.0
C1250 C 0.52427 0.97233 0.975 0.0
C1251 C 0.5609 0.9567 0.95939 0.0
C1252 C 0.54551 0.93709 0.9493 0.0
C1253 C 0.5194 0.93586 0.95081 0.0
C1254 C 0.50885 0.95336 0.96353 0.0
C1255 C 0.55676 0.91743 0.93833 0.0
C1256 C 0.55135 0.91014 0.91317 0.0
C1257 C 0.57355 0.90649 0.95235 0.0
C1258 C 0.57931 0.91283 0.97935 0.0
C1259 C 0.55998 0.91246 0.99763 0.0
C1260 C 0.56557 0.91929 0.02279 0.0
C1261 C 0.59042 0.92617 0.03 0.0
C1262 C 0.60977 0.92626 1.01207 0.0
C1263 C 0.60429 0.91963 0.98685 0.0
H1264 H 0.59469 0.93143 0.04948 0.0
H1265 H 0.54057 0.8672 0.80464 0.0
H1266 H 0.85632 0.19096 0.47084 0.0
H1267 H 0.87794 0.16203 0.48971 0.0
H1268 H 0.85926 0.11608 0.42506 0.0
H1269 H 0.83631 0.14434 0.40676 0.0
H1270 H 0.85219 0.09253 0.4667 0.0
H1271 H 0.91873 0.14771 0.43306 0.0
H1272 H 0.94354 0.18633 0.42641 0.0
H1273 H 0.95894 0.19346 0.50615 0.0
H1274 H 0.93392 0.155 0.51333 0.0
H1275 H 0.9449 0.01944 0.48481 0.0
H1276 H 0.91954 0.047 0.46853 0.0
H1277 H 0.92797 0.08598 0.53936 0.0
H1278 H 0.95313 0.05835 0.55583 0.0
H1279 H 0.93997 0.11279 0.49555 0.0
H1280 H 0.87368 0.05581 0.52781 0.0
H1281 H 0.85014 0.01638 0.53251 0.0
H1282 H 0.83595 1.01183 0.45246 0.0
H1283 H 0.85972 0.05114 0.44722 0.0
C1284 C 0.85657 0.17461 0.46073 0.0
C1285 C 0.84461 0.17001 0.43723 0.0
C1286 C 0.86921 0.15819 0.47142 0.0
C1287 C 0.87052 0.13701 0.45862 0.0
C1288 C 0.85856 0.13234 0.43522 0.0
C1289 C 0.8457 0.14865 0.42464 0.0
C1290 C 0.88414 0.11962 0.46975 0.0
C1291 C 0.87149 0.09691 0.47271 0.0
C1292 C 0.90918 0.12542 0.47802 0.0
C1293 C 0.92423 0.14857 0.47377 0.0
C1294 C 0.92723 0.15759 0.44921 0.0
C1295 C 0.94136 0.17944 0.44534 0.0
C1296 C 0.95275 0.19236 0.46585 0.0
C1297 C 0.95008 0.18344 0.49028 0.0
C1298 C 0.93594 0.16161 0.49426 0.0
C1299 C 0.94103 0.03372 0.49699 0.0
C1300 C 0.95085 0.0368 0.52157 0.0
C1301 C 0.92657 0.0494 0.48771 0.0
C1302 C 0.92188 0.06842 0.50282 0.0
C1303 C 0.9314 0.07135 0.52748 0.0
C1304 C 0.94564 0.05554 0.53687 0.0
C1305 C 0.90799 0.08585 0.49243 0.0
C1306 C 0.92064 0.10852 0.48959 0.0
C1307 C 0.8831 0.07993 0.48396 0.0
C1308 C 0.86869 0.05634 0.48709 0.0
C1309 C 0.86572 0.04633 0.51117 0.0
C1310 C 0.8523 0.02402 0.51394 0.0
C1311 C 0.84161 1.01158 0.49279 0.0
C1312 C 0.84426 0.02147 0.46883 0.0
C1313 C 0.85769 0.04378 0.46595 0.0
H1314 H 0.83123 0.99431 0.49497 0.0
H1315 H 0.96369 0.20927 0.46282 0.0
H1316 H 0.25469 0.66479 0.12091 0.0
H1317 H 0.21558 0.64539 0.10224 0.0
H1318 H 0.2143 0.58886 0.15352 0.0
H1319 H 0.25371 0.60804 0.17206 0.0
H1320 H 0.20299 0.57262 0.10554 0.0
H1321 H 0.17477 0.62914 0.1622 0.0
H1322 H 0.1739 0.66831 0.18049 0.0
H1323 H 0.15422 0.69169 0.108 0.0
H1324 H 0.1553 0.65272 0.08919 0.0
H1325 H 0.07956 0.51685 0.0778 0.0
H1326 H 0.11758 0.53627 0.09828 0.0
H1327 H 0.11391 0.59782 0.0558 0.0
H1328 H 0.07505 0.57876 0.03619 0.0
H1329 H 0.12803 0.61145 0.09993 0.0
H1330 H 0.15738 0.55619 0.04243 0.0
H1331 H 0.15877 0.51748 0.02308 0.0
H1332 H 0.17726 0.49235 0.09515 0.0
H1333 H 0.17571 0.53086 0.11499 0.0
C1334 C 0.2462 0.64819 0.12824 0.0
C1335 C 0.25759 0.63809 0.14812 0.0
C1336 C 0.2236 0.63715 0.11762 0.0
C1337 C 0.21164 0.61562 0.12648 0.0
C1338 C 0.22297 0.60544 0.14627 0.0
C1339 C 0.24549 0.61657 0.15705 0.0
C1340 C 0.18759 0.60363 0.11489 0.0
C1341 C 0.1865 0.58102 0.10464 0.0
C1342 C 0.1661 0.61464 0.11295 0.0
C1343 C 0.16535 0.63806 0.12423 0.0
C1344 C 0.17044 0.64268 0.15011 0.0
C1345 C 0.16988 0.66484 0.16058 0.0
C1346 C 0.16407 0.6825 0.1454 0.0
C1347 C 0.15875 0.67801 0.11973 0.0
C1348 C 0.15931 0.65588 0.10916 0.0
C1349 C 0.08684 0.5345 0.07269 0.0
C1350 C 0.07415 0.54609 0.05509 0.0
C1351 C 0.10884 0.54563 0.08437 0.0
C1352 C 0.11934 0.56853 0.07834 0.0
C1353 C 0.10652 0.58019 0.06091 0.0
C1354 C 0.08422 0.5692 0.04957 0.0
C1355 C 0.14336 0.58037 0.09035 0.0
C1356 C 0.14448 0.60298 0.10073 0.0
C1357 C 0.16499 0.56943 0.09217 0.0
C1358 C 0.16621 0.54635 0.08023 0.0
C1359 C 0.16162 0.54237 0.05417 0.0
C1360 C 0.16245 0.52047 0.04311 0.0
C1361 C 0.16804 0.50245 0.05789 0.0
C1362 C 0.17291 0.50632 0.08373 0.0
C1363 C 0.17209 0.52819 0.09489 0.0
H1364 H 0.16865 0.48551 0.0493 0.0
H1365 H 0.16364 0.69964 0.15354 0.0
H1366 H 0.2575 0.37067 0.61953 0.0
H1367 H 0.29512 0.38909 0.59732 0.0
H1368 H 0.30505 0.4441 0.65409 0.0
H1369 H 0.26679 0.42628 0.6759 0.0
H1370 H 0.31686 0.46209 0.60895 0.0
H1371 H 0.34007 0.39876 0.65379 0.0
H1372 H 0.33713 0.35827 0.66727 0.0
H1373 H 0.34804 0.33614 0.5901 0.0
H1374 H 0.35071 0.37648 0.5761 0.0
H1375 H 0.44537 0.50182 0.57051 0.0
H1376 H 0.40685 0.48769 0.59465 0.0
H1377 H 0.39085 0.42963 0.54202 0.0
H1378 H 0.42925 0.44343 0.51838 0.0
H1379 H 0.38309 0.41452 0.58783 0.0
H1380 H 0.35867 0.47867 0.54322 0.0
H1381 H 0.36318 0.51961 0.53086 0.0
H1382 H 0.35608 0.54068 0.60898 0.0
H1383 H 0.35182 0.49986 0.62183 0.0
C1384 C 0.26736 0.38688 0.62718 0.0
C1385 C 0.25889 0.39677 0.64977 0.0
C1386 C 0.28919 0.39731 0.61454 0.0
C1387 C 0.30344 0.41788 0.62415 0.0
C1388 C 0.29466 0.4282 0.64624 0.0
C1389 C 0.27278 0.4178 0.65888 0.0
C1390 C 0.32768 0.42824 0.61149 0.0
C1391 C 0.33144 0.45171 0.60463 0.0
C1392 C 0.34688 0.41488 0.60552 0.0
C1393 C 0.34535 0.39061 0.61387 0.0
C1394 C 0.34166 0.38524 0.63967 0.0
C1395 C 0.34007 0.36232 0.64741 0.0
C1396 C 0.34233 0.34464 0.62955 0.0
C1397 C 0.34626 0.34985 0.60391 0.0
C1398 C 0.34783 0.37274 0.59607 0.0
C1399 C 0.43345 0.48622 0.56398 0.0
C1400 C 0.44033 0.47388 0.54238 0.0
C1401 C 0.41136 0.4781 0.57779 0.0
C1402 C 0.39555 0.45757 0.57016 0.0
C1403 C 0.40253 0.44542 0.5485 0.0
C1404 C 0.42454 0.45342 0.53487 0.0
C1405 C 0.37208 0.44822 0.58475 0.0
C1406 C 0.36852 0.42492 0.59211 0.0
C1407 C 0.35319 0.46178 0.59126 0.0
C1408 C 0.35517 0.48625 0.5835 0.0
C1409 C 0.35819 0.49205 0.55777 0.0
C1410 C 0.36069 0.51523 0.55068 0.0
C1411 C 0.36 0.53274 0.56913 0.0
C1412 C 0.35666 0.5271 0.59471 0.0
C1413 C 0.35416 0.50394 0.60191 0.0
H1414 H 0.362 0.55068 0.56362 0.0
H1415 H 0.3411 0.3269 0.63558 0.0
H1416 H 0.80827 0.73989 0.86162 0.0
H1417 H 0.82811 0.70664 0.87176 0.0
H1418 H 0.76651 0.68209 0.92229 0.0
H1419 H 0.74681 0.71597 0.9127 0.0
H1420 H 0.80988 0.683 0.94509 0.0
H1421 H 0.77615 0.65185 0.86714 0.0
H1422 H 0.76547 0.65096 0.82179 0.0
H1423 H 0.84361 0.66219 0.80146 0.0
H1424 H 0.8548 0.6635 0.8467 0.0
H1425 H 0.87503 0.58974 0.97098 0.0
H1426 H 0.84137 0.60827 0.95404 0.0
H1427 H 0.89496 0.65062 0.90649 0.0
H1428 H 0.9287 0.63207 0.92326 0.0
H1429 H 0.84843 0.63393 0.88235 0.0
H1430 H 0.88052 0.67236 0.96079 0.0
H1431 H 0.89105 0.67329 1.00621 0.0
H1432 H 0.81432 0.64755 0.02518 0.0
H1433 H 0.80343 0.64615 0.97979 0.0
C1434 C 0.79887 0.72737 0.87482 0.0
C1435 C 0.77614 0.73067 0.88662 0.0
C1436 C 0.81007 0.70818 0.88034 0.0
C1437 C 0.79867 0.69172 0.89758 0.0
C1438 C 0.77555 0.69454 0.90882 0.0
C1439 C 0.76428 0.71381 0.90326 0.0
C1440 C 0.81232 0.67302 0.90556 0.0
C1441 C 0.81771 0.67182 0.93141 0.0
C1442 C 0.8229 0.65868 0.88768 0.0
C1443 C 0.81632 0.65789 0.86038 0.0
C1444 C 0.79108 0.6543 0.85302 0.0
C1445 C 0.78493 0.6537 0.82732 0.0
C1446 C 0.80385 0.65655 0.80876 0.0
C1447 C 0.82897 0.65998 0.81586 0.0
C1448 C 0.83523 0.66062 0.84154 0.0
C1449 C 0.87954 0.60265 0.95652 0.0
C1450 C 0.90448 0.6096 0.94853 0.0
C1451 C 0.86033 0.61325 0.94695 0.0
C1452 C 0.86576 0.63087 0.92917 0.0
C1453 C 0.89043 0.63701 0.92019 0.0
C1454 C 0.90968 0.62656 0.92991 0.0
C1455 C 0.84629 0.64447 0.92164 0.0
C1456 C 0.83997 0.64472 0.89597 0.0
C1457 C 0.83472 0.65789 0.93964 0.0
C1458 C 0.84123 0.65887 0.96691 0.0
C1459 C 0.86595 0.66671 0.97464 0.0
C1460 C 0.87197 0.66736 1.00037 0.0
C1461 C 0.85338 0.66041 0.01857 0.0
C1462 C 0.82871 0.65287 1.01106 0.0
C1463 C 0.8226 0.65215 0.98534 0.0
H1464 H 0.85807 0.66093 0.03848 0.0
H1465 H 0.79905 0.65607 0.78887 0.0
H1466 H 0.41832 0.79594 0.18614 0.0
H1467 H 0.43293 0.83365 0.16713 0.0
H1468 H 0.38718 0.81317 0.10176 0.0
H1469 H 0.37257 0.7754 0.12061 0.0
H1470 H 0.43425 0.83512 0.08753 0.0
H1471 H 0.36929 0.85069 0.14563 0.0
H1472 H 0.34746 0.85097 0.18708 0.0
H1473 H 0.41218 0.89273 0.21961 0.0
H1474 H 0.43454 0.89242 0.17842 0.0
H1475 H 0.4524 0.94856 0.03395 0.0
H1476 H 0.43461 0.91049 0.05061 0.0
H1477 H 0.46555 0.9315 0.12408 0.0
H1478 H 0.48197 0.96971 0.10785 0.0
H1479 H 0.42399 0.90845 0.1331 0.0
H1480 H 0.49038 0.89118 0.0769 0.0
H1481 H 0.51351 0.8903 0.03622 0.0
H1482 H 0.44839 0.85184 1.00098 0.0
H1483 H 0.42481 0.8525 0.04146 0.0
C1484 C 0.41137 0.79937 0.16768 0.0
C1485 C 0.39406 0.78243 0.1551 0.0
C1486 C 0.41967 0.8211 0.15684 0.0
C1487 C 0.41112 0.82658 0.13294 0.0
C1488 C 0.39412 0.8096 0.12018 0.0
C1489 C 0.38558 0.78797 0.13115 0.0
C1490 C 0.41979 0.84995 0.12139 0.0
C1491 C 0.43173 0.85115 0.09739 0.0
C1492 C 0.41709 0.87108 0.13423 0.0
C1493 C 0.40367 0.87134 0.159 0.0
C1494 C 0.37894 0.85977 0.16167 0.0
C1495 C 0.36646 0.85997 0.18511 0.0
C1496 C 0.37845 0.87181 0.20598 0.0
C1497 C 0.40293 0.88353 0.20344 0.0
C1498 C 0.41551 0.88337 0.18004 0.0
C1499 C 0.45529 0.94505 0.05368 0.0
C1500 C 0.46869 0.96232 0.06948 0.0
C1501 C 0.4453 0.92308 0.06323 0.0
C1502 C 0.44898 0.9175 0.08871 0.0
C1503 C 0.46221 0.93495 0.10443 0.0
C1504 C 0.47174 0.95696 0.09505 0.0
C1505 C 0.439 0.89384 0.0993 0.0
C1506 C 0.42667 0.89252 0.12314 0.0
C1507 C 0.44162 0.87261 0.08641 0.0
C1508 C 0.45577 0.87211 0.06212 0.0
C1509 C 0.48096 0.88265 0.06043 0.0
C1510 C 0.49415 0.88218 0.03742 0.0
C1511 C 0.48241 0.87116 0.01599 0.0
C1512 C 0.45745 0.86043 0.01757 0.0
C1513 C 0.44418 0.8608 0.04055 0.0
H1514 H 0.49267 0.87086 0.9982 0.0
H1515 H 0.36875 0.87194 0.22411 0.0
H1516 H 0.09973 0.26886 0.6253 0.0
H1517 H 0.08214 0.23244 0.6036 0.0
H1518 H 0.12382 0.19473 0.65249 0.0
H1519 H 0.14169 0.231 0.67385 0.0
H1520 H 0.12709 0.1778 0.60735 0.0
H1521 H 0.05722 0.19539 0.65783 0.0
H1522 H 0.02606 0.21925 0.67344 0.0
H1523 H 0.99821 0.22168 0.59786 0.0
H1524 H 0.02943 0.19807 0.58175 0.0
H1525 H 0.06152 0.06333 0.58397 0.0
H1526 H 0.07815 0.10107 0.60337 0.0
H1527 H 0.04288 0.13548 0.54581 0.0
H1528 H 0.02629 0.09777 0.5262 0.0
H1529 H 0.03603 0.15455 0.59339 0.0
H1530 H 0.10523 0.13622 0.54329 0.0
H1531 H 0.13605 0.11198 0.52779 0.0
H1532 H 0.16476 0.1106 0.60314 0.0
H1533 H 0.13388 0.13462 0.61916 0.0
C1534 C 0.10499 0.2528 0.63161 0.0
C1535 C 0.12228 0.25309 0.6514 0.0
C1536 C 0.09485 0.23185 0.61915 0.0
C1537 C 0.10131 0.21046 0.6264 0.0
C1538 C 0.11847 0.21078 0.64625 0.0
C1539 C 0.12876 0.23168 0.65851 0.0
C1540 C 0.09067 0.18782 0.61324 0.0
C1541 C 0.10712 0.17269 0.60468 0.0
C1542 C 0.06464 0.18103 0.6089 0.0
C1543 C 0.04584 0.19518 0.61855 0.0
C1544 C 0.04457 0.20116 0.64452 0.0
C1545 C 0.02688 0.21461 0.65346 0.0
C1546 C 0.01022 0.22204 0.63664 0.0
C1547 C 0.01116 0.21596 0.61086 0.0
C1548 C 0.02884 0.20253 0.60182 0.0
C1549 C 0.05729 0.07889 0.57535 0.0
C1550 C 0.04256 0.07733 0.55338 0.0
C1551 C 0.06692 0.10056 0.58647 0.0
C1552 C 0.062 0.12135 0.57607 0.0
C1553 C 0.04704 0.11983 0.5543 0.0
C1554 C 0.03763 0.09817 0.543 0.0
C1555 C 0.07244 0.14456 0.58791 0.0
C1556 C 0.05599 0.15975 0.59613 0.0
C1557 C 0.09843 0.1514 0.59202 0.0
C1558 C 0.11708 0.13702 0.58246 0.0
C1559 C 0.11798 0.13059 0.55659 0.0
C1560 C 0.13549 0.11693 0.5477 0.0
C1561 C 0.15231 0.10969 0.56449 0.0
C1562 C 0.1517 0.11619 0.59017 0.0
C1563 C 0.13422 0.12985 0.59916 0.0
H1564 H 0.16585 0.09911 0.55757 0.0
H1565 H 0.99653 0.23245 0.6436 0.0
H1566 H 0.72448 0.293 0.48014 0.0
H1567 H 0.68936 0.30821 0.49999 0.0
H1568 H 0.63841 0.25001 0.46957 0.0
H1569 H 0.67346 0.23543 0.44825 0.0
H1570 H 0.62377 0.28698 0.45661 0.0
H1571 H 0.64447 0.26139 0.53594 0.0
H1572 H 0.67062 0.25353 0.57159 0.0
H1573 H 0.69338 0.32664 0.5845 0.0
H1574 H 0.6677 0.33499 0.54869 0.0
H1575 H 0.53867 0.36286 0.49247 0.0
H1576 H 0.55726 0.32763 0.49821 0.0
H1577 H 0.6298 0.36945 0.50815 0.0
H1578 H 0.61137 0.40456 0.50261 0.0
H1579 H 0.62214 0.32987 0.53896 0.0
H1580 H 0.61198 0.35132 0.45005 0.0
H1581 H 0.58597 0.3589 0.41409 0.0
H1582 H 0.54252 0.29107 0.42077 0.0
H1583 H 0.56813 0.28325 0.457 0.0
C1584 C 0.70584 0.28329 0.47786 0.0
C1585 C 0.70175 0.26327 0.46217 0.0
C1586 C 0.68574 0.29178 0.48967 0.0
C1587 C 0.66114 0.28019 0.48647 0.0
C1588 C 0.65721 0.25923 0.47237 0.0
C1589 C 0.67732 0.25085 0.46028 0.0
C1590 C 0.63975 0.29215 0.494 0.0
C1591 C 0.62291 0.29564 0.475 0.0
C1592 C 0.63855 0.30363 0.5179 0.0
C1593 C 0.65413 0.29881 0.53952 0.0
C1594 C 0.65517 0.27581 0.54625 0.0
C1595 C 0.6699 0.27126 0.56652 0.0
C1596 C 0.68365 0.28957 0.58029 0.0
C1597 C 0.68268 0.31248 0.57383 0.0
C1598 C 0.66799 0.31712 0.55358 0.0
C1599 C 0.55847 0.3645 0.49648 0.0
C1600 C 0.57371 0.38635 0.49667 0.0
C1601 C 0.56902 0.34441 0.49979 0.0
C1602 C 0.5949 0.34599 0.50342 0.0
C1603 C 0.60977 0.36789 0.50543 0.0
C1604 C 0.5993 0.38789 0.50193 0.0
C1605 C 0.60739 0.32524 0.50121 0.0
C1606 C 0.62247 0.32025 0.5211 0.0
C1607 C 0.60692 0.31216 0.47823 0.0
C1608 C 0.59172 0.31682 0.45637 0.0
C1609 C 0.59677 0.3381 0.44393 0.0
C1610 C 0.58212 0.34243 0.42351 0.0
C1611 C 0.56255 0.3255 0.4152 0.0
C1612 C 0.55764 0.30419 0.42727 0.0
C1613 C 0.5722 0.2998 0.44774 0.0
H1614 H 0.55123 0.32888 0.39938 0.0
H1615 H 0.69505 0.28601 0.59598 0.0
loop_
_geom_bond_atom_site_label_1
_geom_bond_atom_site_label_2
_geom_bond_distance
_geom_bond_site_symmetry_2
_ccdc_geom_bond_type
P0 O11 1.490 . S
P0 C14 1.812 . S
P0 C20 1.803 . S
P0 C26 1.819 . S
H1 C15 0.941 . S
H2 C16 0.939 . S
H3 C18 0.940 . S
H4 C19 0.940 . S
H5 C21 0.939 . S
H6 C22 0.942 . S
H7 C24 0.940 . S
H8 C25 0.939 . S
H9 C27 0.941 . S
H10 C31 0.939 . S
O11 P0 1.490 . S
H12 C28 0.939 . S
H13 C30 0.940 . S
C14 P0 1.812 . S
C14 C15 1.389 . S
C14 C19 1.391 . S
C15 H1 0.941 . S
C15 C14 1.389 . S
C15 C16 1.397 . S
C16 H2 0.939 . S
C16 C15 1.397 . S
C16 C17 1.378 . S
C17 C16 1.378 . S
C17 C18 1.378 . S
C18 H3 0.940 . S
C18 C17 1.378 . S
C18 C19 1.396 . S
C19 H4 0.940 . S
C19 C14 1.391 . S
C19 C18 1.396 . S
C20 P0 1.803 . S
C20 C21 1.378 . S
C20 C25 1.400 . S
C21 H5 0.939 . S
C21 C20 1.378 . S
C21 C22 1.361 . S
C22 H6 0.942 . S
C22 C21 1.361 . S
C22 C23 1.369 . S
C23 C22 1.369 . S
C23 C24 1.404 . S
C24 H7 0.940 . S
C24 C23 1.404 . S
C24 C25 1.389 . S
C25 H8 0.939 . S
C25 C20 1.400 . S
C25 C24 1.389 . S
C26 P0 1.819 . S
C26 C27 1.391 . S
C26 C31 1.391 . S
C27 H9 0.941 . S
C27 C26 1.391 . S
C27 C28 1.396 . S
C28 H12 0.939 . S
C28 C27 1.396 . S
C28 C29 1.397 . S
C29 C28 1.397 . S
C29 C30 1.385 . S
C30 H13 0.940 . S
C30 C29 1.385 . S
C30 C31 1.388 . S
C31 H10 0.939 . S
C31 C26 1.391 . S
C31 C30 1.388 . S
P32 O43 1.490 . S
P32 C46 1.812 . S
P32 C52 1.803 . S
P32 C58 1.819 . S
H33 C47 0.941 . S
H34 C48 0.939 . S
H35 C50 0.940 . S
H36 C51 0.940 . S
H37 C53 0.939 . S
H38 C54 0.942 . S
H39 C56 0.940 . S
H40 C57 0.939 . S
H41 C59 0.941 . S
H42 C63 0.939 . S
O43 P32 1.490 . S
H44 C60 0.939 . S
H45 C62 0.940 . S
C46 P32 1.812 . S
C46 C47 1.389 . S
C46 C51 1.391 . S
C47 H33 0.941 . S
C47 C46 1.389 . S
C47 C48 1.397 . S
C48 H34 0.939 . S
C48 C47 1.397 . S
C48 C49 1.378 . S
C49 C48 1.378 . S
C49 C50 1.378 . S
C50 H35 0.940 . S
C50 C49 1.378 . S
C50 C51 1.396 . S
C51 H36 0.940 . S
C51 C46 1.391 . S
C51 C50 1.396 . S
C52 P32 1.803 . S
C52 C53 1.378 . S
C52 C57 1.400 . S
C53 H37 0.939 . S
C53 C52 1.378 . S
C53 C54 1.361 . S
C54 H38 0.942 . S
C54 C53 1.361 . S
C54 C55 1.369 . S
C55 C54 1.369 . S
C55 C56 1.404 . S
C56 H39 0.940 . S
C56 C55 1.404 . S
C56 C57 1.389 . S
C57 H40 0.939 . S
C57 C52 1.400 . S
C57 C56 1.389 . S
C58 P32 1.819 . S
C58 C59 1.391 . S
C58 C63 1.391 . S
C59 H41 0.941 . S
C59 C58 1.391 . S
C59 C60 1.396 . S
C60 H44 0.939 . S
C60 C59 1.396 . S
C60 C61 1.397 . S
C61 C60 1.397 . S
C61 C62 1.385 . S
C62 H45 0.940 . S
C62 C61 1.385 . S
C62 C63 1.388 . S
C63 H42 0.939 . S
C63 C58 1.391 . S
C63 C62 1.388 . S
P64 O75 1.490 . S
P64 C78 1.812 . S
P64 C84 1.803 . S
P64 C90 1.819 . S
H65 C79 0.941 . S
H66 C80 0.939 . S
H67 C82 0.940 . S
H68 C83 0.940 . S
H69 C85 0.939 . S
H70 C86 0.942 . S
H71 C88 0.940 . S
H72 C89 0.939 . S
H73 C91 0.941 . S
H74 C95 0.939 . S
O75 P64 1.490 . S
H76 C92 0.939 . S
H77 C94 0.940 . S
C78 P64 1.812 . S
C78 C79 1.389 . S
C78 C83 1.391 . S
C79 H65 0.941 . S
C79 C78 1.389 . S
C79 C80 1.397 . S
C80 H66 0.939 . S
C80 C79 1.397 . S
C80 C81 1.378 . S
C81 C80 1.378 . S
C81 C82 1.378 . S
C82 H67 0.940 . S
C82 C81 1.378 . S
C82 C83 1.396 . S
C83 H68 0.940 . S
C83 C78 1.391 . S
C83 C82 1.396 . S
C84 P64 1.803 . S
C84 C85 1.378 . S
C84 C89 1.400 . S
C85 H69 0.939 . S
C85 C84 1.378 . S
C85 C86 1.361 . S
C86 H70 0.942 . S
C86 C85 1.361 . S
C86 C87 1.369 . S
C87 C86 1.369 . S
C87 C88 1.404 . S
C88 H71 0.940 . S
C88 C87 1.404 . S
C88 C89 1.389 . S
C89 H72 0.939 . S
C89 C84 1.400 . S
C89 C88 1.389 . S
C90 P64 1.819 . S
C90 C91 1.391 . S
C90 C95 1.391 . S
C91 H73 0.941 . S
C91 C90 1.391 . S
C91 C92 1.396 . S
C92 H76 0.939 . S
C92 C91 1.396 . S
C92 C93 1.397 . S
C93 C92 1.397 . S
C93 C94 1.385 . S
C94 H77 0.940 . S
C94 C93 1.385 . S
C94 C95 1.388 . S
C95 H74 0.939 . S
C95 C90 1.391 . S
C95 C94 1.388 . S
P96 O107 1.490 . S
P96 C110 1.812 . S
P96 C116 1.803 . S
P96 C122 1.819 . S
H97 C111 0.941 . S
H98 C112 0.939 . S
H99 C114 0.940 . S
H100 C115 0.940 . S
H101 C117 0.939 . S
H102 C118 0.942 . S
H103 C120 0.940 . S
H104 C121 0.939 . S
H105 C123 0.941 . S
H106 C127 0.939 . S
O107 P96 1.490 . S
H108 C124 0.939 . S
H109 C126 0.940 . S
C110 P96 1.812 . S
C110 C111 1.389 . S
C110 C115 1.391 . S
C111 H97 0.941 . S
C111 C110 1.389 . S
C111 C112 1.397 . S
C112 H98 0.939 . S
C112 C111 1.397 . S
C112 C113 1.378 . S
C113 C112 1.378 . S
C113 C114 1.378 . S
C114 H99 0.940 . S
C114 C113 1.378 . S
C114 C115 1.396 . S
C115 H100 0.940 . S
C115 C110 1.391 . S
C115 C114 1.396 . S
C116 P96 1.803 . S
C116 C117 1.378 . S
C116 C121 1.400 . S
C117 H101 0.939 . S
C117 C116 1.378 . S
C117 C118 1.361 . S
C118 H102 0.942 . S
C118 C117 1.361 . S
C118 C119 1.369 . S
C119 C118 1.369 . S
C119 C120 1.404 . S
C120 H103 0.940 . S
C120 C119 1.404 . S
C120 C121 1.389 . S
C121 H104 0.939 . S
C121 C116 1.400 . S
C121 C120 1.389 . S
C122 P96 1.819 . S
C122 C123 1.391 . S
C122 C127 1.391 . S
C123 H105 0.941 . S
C123 C122 1.391 . S
C123 C124 1.396 . S
C124 H108 0.939 . S
C124 C123 1.396 . S
C124 C125 1.397 . S
C125 C124 1.397 . S
C125 C126 1.385 . S
C126 H109 0.940 . S
C126 C125 1.385 . S
C126 C127 1.388 . S
C127 H106 0.939 . S
C127 C122 1.391 . S
C127 C126 1.388 . S
P128 O139 1.490 . S
P128 C142 1.812 . S
P128 C148 1.803 . S
P128 C154 1.819 . S
H129 C143 0.941 . S
H130 C144 0.939 . S
H131 C146 0.940 . S
H132 C147 0.940 . S
H133 C149 0.939 . S
H134 C150 0.942 . S
H135 C152 0.940 . S
H136 C153 0.939 . S
H137 C155 0.941 . S
H138 C159 0.939 . S
O139 P128 1.490 . S
H140 C156 0.939 . S
H141 C158 0.940 . S
C142 P128 1.812 . S
C142 C143 1.389 . S
C142 C147 1.391 . S
C143 H129 0.941 . S
C143 C142 1.389 . S
C143 C144 1.397 . S
C144 H130 0.939 . S
C144 C143 1.397 . S
C144 C145 1.378 . S
C145 C144 1.378 . S
C145 C146 1.378 . S
C146 H131 0.940 . S
C146 C145 1.378 . S
C146 C147 1.396 . S
C147 H132 0.940 . S
C147 C142 1.391 . S
C147 C146 1.396 . S
C148 P128 1.803 . S
C148 C149 1.378 . S
C148 C153 1.400 . S
C149 H133 0.939 . S
C149 C148 1.378 . S
C149 C150 1.361 . S
C150 H134 0.942 . S
C150 C149 1.361 . S
C150 C151 1.369 . S
C151 C150 1.369 . S
C151 C152 1.404 . S
C152 H135 0.940 . S
C152 C151 1.404 . S
C152 C153 1.389 . S
C153 H136 0.939 . S
C153 C148 1.400 . S
C153 C152 1.389 . S
C154 P128 1.819 . S
C154 C155 1.391 . S
C154 C159 1.391 . S
C155 H137 0.941 . S
C155 C154 1.391 . S
C155 C156 1.396 . S
C156 H140 0.939 . S
C156 C155 1.396 . S
C156 C157 1.397 . S
C157 C156 1.397 . S
C157 C158 1.385 . S
C158 H141 0.940 . S
C158 C157 1.385 . S
C158 C159 1.388 . S
C159 H138 0.939 . S
C159 C154 1.391 . S
C159 C158 1.388 . S
P160 O171 1.490 . S
P160 C174 1.812 . S
P160 C180 1.803 . S
P160 C186 1.819 . S
H161 C175 0.941 . S
H162 C176 0.939 . S
H163 C178 0.940 . S
H164 C179 0.940 . S
H165 C181 0.939 . S
H166 C182 0.942 . S
H167 C184 0.940 . S
H168 C185 0.939 . S
H169 C187 0.941 . S
H170 C191 0.939 . S
O171 P160 1.490 . S
H172 C188 0.939 . S
H173 C190 0.940 . S
C174 P160 1.812 . S
C174 C175 1.389 . S
C174 C179 1.391 . S
C175 H161 0.941 . S
C175 C174 1.389 . S
C175 C176 1.397 . S
C176 H162 0.939 . S
C176 C175 1.397 . S
C176 C177 1.378 . S
C177 C176 1.378 . S
C177 C178 1.378 . S
C178 H163 0.940 . S
C178 C177 1.378 . S
C178 C179 1.396 . S
C179 H164 0.940 . S
C179 C174 1.391 . S
C179 C178 1.396 . S
C180 P160 1.803 . S
C180 C181 1.378 . S
C180 C185 1.400 . S
C181 H165 0.939 . S
C181 C180 1.378 . S
C181 C182 1.361 . S
C182 H166 0.942 . S
C182 C181 1.361 . S
C182 C183 1.369 . S
C183 C182 1.369 . S
C183 C184 1.404 . S
C184 H167 0.940 . S
C184 C183 1.404 . S
C184 C185 1.389 . S
C185 H168 0.939 . S
C185 C180 1.400 . S
C185 C184 1.389 . S
C186 P160 1.819 . S
C186 C187 1.391 . S
C186 C191 1.391 . S
C187 H169 0.941 . S
C187 C186 1.391 . S
C187 C188 1.396 . S
C188 H172 0.939 . S
C188 C187 1.396 . S
C188 C189 1.397 . S
C189 C188 1.397 . S
C189 C190 1.385 . S
C190 H173 0.940 . S
C190 C189 1.385 . S
C190 C191 1.388 . S
C191 H170 0.939 . S
C191 C186 1.391 . S
C191 C190 1.388 . S
P192 O203 1.490 . S
P192 C206 1.812 . S
P192 C212 1.803 . S
P192 C218 1.819 . S
H193 C207 0.941 . S
H194 C208 0.939 . S
H195 C210 0.940 . S
H196 C211 0.940 . S
H197 C213 0.939 . S
H198 C214 0.942 . S
H199 C216 0.940 . S
H200 C217 0.939 . S
H201 C219 0.941 . S
H202 C223 0.939 . S
O203 P192 1.490 . S
H204 C220 0.939 . S
H205 C222 0.940 . S
C206 P192 1.812 . S
C206 C207 1.389 . S
C206 C211 1.391 . S
C207 H193 0.941 . S
C207 C206 1.389 . S
C207 C208 1.397 . S
C208 H194 0.939 . S
C208 C207 1.397 . S
C208 C209 1.378 . S
C209 C208 1.378 . S
C209 C210 1.378 . S
C210 H195 0.940 . S
C210 C209 1.378 . S
C210 C211 1.396 . S
C211 H196 0.940 . S
C211 C206 1.391 . S
C211 C210 1.396 . S
C212 P192 1.803 . S
C212 C213 1.378 . S
C212 C217 1.400 . S
C213 H197 0.939 . S
C213 C212 1.378 . S
C213 C214 1.361 . S
C214 H198 0.942 . S
C214 C213 1.361 . S
C214 C215 1.369 . S
C215 C214 1.369 . S
C215 C216 1.404 . S
C216 H199 0.940 . S
C216 C215 1.404 . S
C216 C217 1.389 . S
C217 H200 0.939 . S
C217 C212 1.400 . S
C217 C216 1.389 . S
C218 P192 1.819 . S
C218 C219 1.391 . S
C218 C223 1.391 . S
C219 H201 0.941 . S
C219 C218 1.391 . S
C219 C220 1.396 . S
C220 H204 0.939 . S
C220 C219 1.396 . S
C220 C221 1.397 . S
C221 C220 1.397 . S
C221 C222 1.385 . S
C222 H205 0.940 . S
C222 C221 1.385 . S
C222 C223 1.388 . S
C223 H202 0.939 . S
C223 C218 1.391 . S
C223 C222 1.388 . S
P224 O235 1.490 . S
P224 C238 1.812 . S
P224 C244 1.803 . S
P224 C250 1.819 . S
H225 C239 0.941 . S
H226 C240 0.939 . S
H227 C242 0.940 . S
H228 C243 0.940 . S
H229 C245 0.939 . S
H230 C246 0.942 . S
H231 C248 0.940 . S
H232 C249 0.939 . S
H233 C251 0.941 . S
H234 C255 0.939 . S
O235 P224 1.490 . S
H236 C252 0.939 . S
H237 C254 0.940 . S
C238 P224 1.812 . S
C238 C239 1.389 . S
C238 C243 1.391 . S
C239 H225 0.941 . S
C239 C238 1.389 . S
C239 C240 1.397 . S
C240 H226 0.939 . S
C240 C239 1.397 . S
C240 C241 1.378 . S
C241 C240 1.378 . S
C241 C242 1.378 . S
C242 H227 0.940 . S
C242 C241 1.378 . S
C242 C243 1.396 . S
C243 H228 0.940 . S
C243 C238 1.391 . S
C243 C242 1.396 . S
C244 P224 1.803 . S
C244 C245 1.378 . S
C244 C249 1.400 . S
C245 H229 0.939 . S
C245 C244 1.378 . S
C245 C246 1.361 . S
C246 H230 0.942 . S
C246 C245 1.361 . S
C246 C247 1.369 . S
C247 C246 1.369 . S
C247 C248 1.404 . S
C248 H231 0.940 . S
C248 C247 1.404 . S
C248 C249 1.389 . S
C249 H232 0.939 . S
C249 C244 1.400 . S
C249 C248 1.389 . S
C250 P224 1.819 . S
C250 C251 1.391 . S
C250 C255 1.391 . S
C251 H233 0.941 . S
C251 C250 1.391 . S
C251 C252 1.396 . S
C252 H236 0.939 . S
C252 C251 1.396 . S
C252 C253 1.397 . S
C253 C252 1.397 . S
C253 C254 1.385 . S
C254 H237 0.940 . S
C254 C253 1.385 . S
C254 C255 1.388 . S
C255 H234 0.939 . S
C255 C250 1.391 . S
C255 C254 1.388 . S
Sm256 C258 2.846 . S
Sm256 O276 2.543 . S
Sm256 O277 2.450 . S
Sm256 O278 2.681 1_545 S
Sm256 O279 2.464 1_545 S
Sm256 O280 2.396 . S
Sm256 O284 2.386 1_455 S
Sm256 O287 2.408 1_445 S
Sm257 C267 2.824 1_545 S
Sm257 O278 2.374 1_645 S
Sm257 O281 2.432 1_655 S
Sm257 O282 2.514 1_545 S
Sm257 O283 2.438 1_545 S
Sm257 O284 2.695 . S
Sm257 O285 2.480 . S
Sm257 O286 2.377 1_545 S
C258 Sm256 2.846 . S
C258 C259 1.506 . S
C258 O276 1.261 . S
C258 O277 1.242 . S
C259 C258 1.506 . S
C259 C260 1.358 . S
C259 C264 1.382 . S
C260 C259 1.358 . S
C260 C261 1.385 . S
C260 H288 0.930 . S
C261 C260 1.385 . S
C261 C262 1.395 . S
C261 H289 0.929 . S
C262 C261 1.395 . S
C262 C263 1.335 . S
C263 C262 1.335 . S
C263 C264 1.398 . S
C263 H290 0.930 . S
C264 C259 1.382 . S
C264 C263 1.398 . S
C264 H291 0.929 . S
C265 O278 1.271 . S
C265 O279 1.251 . S
C266 O280 1.252 . S
C266 O281 1.272 . S
C267 Sm257 2.824 1_565 S
C267 C268 1.506 . S
C267 O282 1.261 . S
C267 O283 1.242 . S
C268 C267 1.506 . S
C268 C269 1.358 . S
C268 C273 1.382 . S
C269 C268 1.358 . S
C269 C270 1.385 . S
C269 H292 0.930 . S
C270 C269 1.385 . S
C270 C271 1.395 . S
C270 H293 0.929 . S
C271 C270 1.395 . S
C271 C272 1.335 . S
C272 C271 1.335 . S
C272 C273 1.398 . S
C272 H294 0.930 . S
C273 C268 1.382 . S
C273 C272 1.398 . S
C273 H295 0.929 . S
C274 O284 1.271 . S
C274 O285 1.251 . S
C275 O286 1.252 . S
C275 O287 1.272 . S
O276 Sm256 2.543 . S
O276 C258 1.261 . S
O277 Sm256 2.450 . S
O277 C258 1.242 . S
O278 Sm256 2.681 1_565 S
O278 Sm257 2.374 1_465 S
O278 C265 1.271 . S
O279 Sm256 2.464 1_565 S
O279 C265 1.251 . S
O280 Sm256 2.396 . S
O280 C266 1.252 . S
O281 Sm257 2.432 1_455 S
O281 C266 1.272 . S
O282 Sm257 2.514 1_565 S
O282 C267 1.261 . S
O283 Sm257 2.438 1_565 S
O283 C267 1.242 . S
O284 Sm256 2.386 1_655 S
O284 Sm257 2.695 . S
O284 C274 1.271 . S
O285 Sm257 2.480 . S
O285 C274 1.251 . S
O286 Sm257 2.377 1_565 S
O286 C275 1.252 . S
O287 Sm256 2.408 1_665 S
O287 C275 1.272 . S
H288 C260 0.930 . S
H289 C261 0.929 . S
H290 C263 0.930 . S
H291 C264 0.929 . S
H292 C269 0.930 . S
H293 C270 0.929 . S
H294 C272 0.930 . S
H295 C273 0.929 . S
Sm296 C298 2.846 . S
Sm296 O316 2.543 . S
Sm296 O317 2.450 . S
Sm296 O318 2.681 1_545 S
Sm296 O319 2.464 1_545 S
Sm296 O320 2.396 . S
Sm296 O324 2.386 . S
Sm296 O327 2.408 1_544 S
Sm297 C307 2.846 1_545 S
Sm297 O318 2.386 1_546 S
Sm297 O321 2.408 1_556 S
Sm297 O322 2.543 1_545 S
Sm297 O323 2.450 . S
Sm297 O324 2.681 1_556 S
Sm297 O325 2.464 . S
Sm297 O326 2.396 1_545 S
C298 Sm296 2.846 . S
C298 C299 1.506 . S
C298 O316 1.261 . S
C298 O317 1.242 . S
C299 C298 1.506 . S
C299 C300 1.358 . S
C299 C304 1.382 . S
C300 C299 1.358 . S
C300 C301 1.385 . S
C300 H328 0.930 . S
C301 C300 1.385 . S
C301 C302 1.395 . S
C301 H329 0.929 . S
C302 C301 1.395 . S
C302 C303 1.335 . S
C303 C302 1.335 . S
C303 C304 1.398 . S
C303 H330 0.930 . S
C304 C299 1.382 . S
C304 C303 1.398 . S
C304 H331 0.929 . S
C305 O318 1.271 . S
C305 O319 1.251 . S
C306 O320 1.252 . S
C306 O321 1.272 . S
C307 Sm297 2.846 1_565 S
C307 C308 1.506 . S
C307 O322 1.261 . S
C307 O323 1.242 1_565 S
C308 C307 1.506 . S
C308 C309 1.358 . S
C308 C313 1.382 . S
C309 C308 1.358 . S
C309 C310 1.385 . S
C309 H332 0.930 . S
C310 C309 1.385 . S
C310 C311 1.395 . S
C310 H333 0.929 . S
C311 C310 1.395 . S
C311 C312 1.335 . S
C312 C311 1.335 . S
C312 C313 1.398 . S
C312 H334 0.930 . S
C313 C308 1.382 . S
C313 C312 1.398 . S
C313 H335 0.929 . S
C314 O324 1.271 1_556 S
C314 O325 1.251 . S
C315 O326 1.252 . S
C315 O327 1.272 . S
O316 Sm296 2.543 . S
O316 C298 1.261 . S
O317 Sm296 2.450 . S
O317 C298 1.242 . S
O318 Sm296 2.681 1_565 S
O318 Sm297 2.386 1_564 S
O318 C305 1.271 . S
O319 Sm296 2.464 1_565 S
O319 C305 1.251 . S
O320 Sm296 2.396 . S
O320 C306 1.252 . S
O321 Sm297 2.408 1_554 S
O321 C306 1.272 . S
O322 Sm297 2.543 1_565 S
O322 C307 1.261 . S
O323 Sm297 2.450 . S
O323 C307 1.242 1_545 S
O324 Sm296 2.386 . S
O324 Sm297 2.681 1_554 S
O324 C314 1.271 1_554 S
O325 Sm297 2.464 . S
O325 C314 1.251 . S
O326 Sm297 2.396 1_565 S
O326 C315 1.252 . S
O327 Sm296 2.408 1_566 S
O327 C315 1.272 . S
H328 C300 0.930 . S
H329 C301 0.929 . S
H330 C303 0.930 . S
H331 C304 0.929 . S
H332 C309 0.930 . S
H333 C310 0.929 . S
H334 C312 0.930 . S
H335 C313 0.929 . S
Sm336 C338 2.846 . S
Sm336 O356 2.543 . S
Sm336 O357 2.450 . S
Sm336 O358 2.681 . S
Sm336 O359 2.464 . S
Sm336 O360 2.396 . S
Sm336 O364 2.386 . S
Sm336 O367 2.408 . S
Sm337 C347 2.846 . S
Sm337 O358 2.386 . S
Sm337 O361 2.408 . S
Sm337 O362 2.543 . S
Sm337 O363 2.450 . S
Sm337 O364 2.681 . S
Sm337 O365 2.464 . S
Sm337 O366 2.396 . S
C338 Sm336 2.846 . S
C338 C339 1.506 . S
C338 O356 1.261 . S
C338 O357 1.242 . S
C339 C338 1.506 . S
C339 C340 1.358 . S
C339 C344 1.382 . S
C340 C339 1.358 . S
C340 C341 1.385 . S
C340 H368 0.930 . S
C341 C340 1.385 . S
C341 C342 1.395 . S
C341 H369 0.929 . S
C342 C341 1.395 . S
C342 C343 1.335 . S
C343 C342 1.335 . S
C343 C344 1.398 . S
C343 H370 0.930 . S
C344 C339 1.382 . S
C344 C343 1.398 . S
C344 H371 0.929 . S
C345 O358 1.271 . S
C345 O359 1.251 . S
C346 O360 1.252 . S
C346 O361 1.272 . S
C347 Sm337 2.846 . S
C347 C348 1.506 . S
C347 O362 1.261 . S
C347 O363 1.242 . S
C348 C347 1.506 . S
C348 C349 1.358 . S
C348 C353 1.382 . S
C349 C348 1.358 . S
C349 C350 1.385 . S
C349 H372 0.930 . S
C350 C349 1.385 . S
C350 C351 1.395 . S
C350 H373 0.929 . S
C351 C350 1.395 . S
C351 C352 1.335 . S
C352 C351 1.335 . S
C352 C353 1.398 . S
C352 H374 0.930 . S
C353 C348 1.382 . S
C353 C352 1.398 . S
C353 H375 0.929 . S
C354 O364 1.271 . S
C354 O365 1.251 . S
C355 O366 1.252 . S
C355 O367 1.272 . S
O356 Sm336 2.543 . S
O356 C338 1.261 . S
O357 Sm336 2.450 . S
O357 C338 1.242 . S
O358 Sm336 2.681 . S
O358 Sm337 2.386 . S
O358 C345 1.271 . S
O359 Sm336 2.464 . S
O359 C345 1.251 . S
O360 Sm336 2.396 . S
O360 C346 1.252 . S
O361 Sm337 2.408 . S
O361 C346 1.272 . S
O362 Sm337 2.543 . S
O362 C347 1.261 . S
O363 Sm337 2.450 . S
O363 C347 1.242 . S
O364 Sm336 2.386 . S
O364 Sm337 2.681 . S
O364 C354 1.271 . S
O365 Sm337 2.464 . S
O365 C354 1.251 . S
O366 Sm337 2.396 . S
O366 C355 1.252 . S
O367 Sm336 2.408 . S
O367 C355 1.272 . S
H368 C340 0.930 . S
H369 C341 0.929 . S
H370 C343 0.930 . S
H371 C344 0.929 . S
H372 C349 0.930 . S
H373 C350 0.929 . S
H374 C352 0.930 . S
H375 C353 0.929 . S
Sm376 C378 2.846 . S
Sm376 O396 2.543 . S
Sm376 O397 2.450 . S
Sm376 O398 2.681 1_455 S
Sm376 O399 2.464 1_455 S
Sm376 O400 2.396 . S
Sm376 O404 2.386 1_554 S
Sm376 O407 2.408 1_455 S
Sm377 C387 2.846 . S
Sm377 O398 2.386 1_556 S
Sm377 O401 2.408 1_656 S
Sm377 O402 2.543 . S
Sm377 O403 2.450 . S
Sm377 O404 2.681 1_655 S
Sm377 O405 2.464 1_655 S
Sm377 O406 2.396 . S
C378 Sm376 2.846 . S
C378 C379 1.506 . S
C378 O396 1.261 . S
C378 O397 1.242 . S
C379 C378 1.506 . S
C379 C380 1.358 . S
C379 C384 1.382 . S
C380 C379 1.358 . S
C380 C381 1.385 . S
C380 H408 0.930 . S
C381 C380 1.385 . S
C381 C382 1.395 . S
C381 H409 0.929 . S
C382 C381 1.395 . S
C382 C383 1.335 . S
C383 C382 1.335 . S
C383 C384 1.398 . S
C383 H410 0.930 . S
C384 C379 1.382 . S
C384 C383 1.398 . S
C384 H411 0.929 . S
C385 O398 1.271 . S
C385 O399 1.251 . S
C386 O400 1.252 . S
C386 O401 1.272 . S
C387 Sm377 2.846 . S
C387 C388 1.506 . S
C387 O402 1.261 . S
C387 O403 1.242 . S
C388 C387 1.506 . S
C388 C389 1.358 . S
C388 C393 1.382 . S
C389 C388 1.358 . S
C389 C390 1.385 . S
C389 H412 0.930 . S
C390 C389 1.385 . S
C390 C391 1.395 . S
C390 H413 0.929 . S
C391 C390 1.395 . S
C391 C392 1.335 . S
C392 C391 1.335 . S
C392 C393 1.398 . S
C392 H414 0.930 . S
C393 C388 1.382 . S
C393 C392 1.398 . S
C393 H415 0.929 . S
C394 O404 1.271 . S
C394 O405 1.251 . S
C395 O406 1.252 . S
C395 O407 1.272 1_556 S
O396 Sm376 2.543 . S
O396 C378 1.261 . S
O397 Sm376 2.450 . S
O397 C378 1.242 . S
O398 Sm376 2.681 1_655 S
O398 Sm377 2.386 1_554 S
O398 C385 1.271 . S
O399 Sm376 2.464 1_655 S
O399 C385 1.251 . S
O400 Sm376 2.396 . S
O400 C386 1.252 . S
O401 Sm377 2.408 1_454 S
O401 C386 1.272 . S
O402 Sm377 2.543 . S
O402 C387 1.261 . S
O403 Sm377 2.450 . S
O403 C387 1.242 . S
O404 Sm376 2.386 1_556 S
O404 Sm377 2.681 1_455 S
O404 C394 1.271 . S
O405 Sm377 2.464 1_455 S
O405 C394 1.251 . S
O406 Sm377 2.396 . S
O406 C395 1.252 . S
O407 Sm376 2.408 1_655 S
O407 C395 1.272 1_554 S
H408 C380 0.930 . S
H409 C381 0.929 . S
H410 C383 0.930 . S
H411 C384 0.929 . S
H412 C389 0.930 . S
H413 C390 0.929 . S
H414 C392 0.930 . S
H415 C393 0.929 . S
H416 C434 0.951 . S
H417 C436 0.951 . S
H418 C438 0.950 . S
H419 C439 0.950 . S
H420 C441 0.950 . S
H421 C444 0.950 . S
H422 C445 0.950 . S
H423 C447 0.950 . S
H424 C448 0.950 . S
H425 C449 0.951 . S
H426 C451 0.951 . S
H427 C453 0.950 . S
H428 C454 0.950 . S
H429 C456 0.950 . S
H430 C459 0.950 . S
H431 C460 0.950 . S
H432 C462 0.950 . S
H433 C463 0.950 . S
C434 H416 0.951 . S
C434 C435 1.366 . S
C434 C436 1.388 . S
C435 C434 1.366 . S
C435 C439 1.385 . S
C436 H417 0.951 . S
C436 C434 1.388 . S
C436 C437 1.366 . S
C437 C436 1.366 . S
C437 C438 1.414 . S
C437 C440 1.499 . S
C438 H418 0.950 . S
C438 C437 1.414 . S
C438 C439 1.374 . S
C439 H419 0.950 . S
C439 C435 1.385 . S
C439 C438 1.374 . S
C440 C437 1.499 . S
C440 C441 1.373 . S
C440 C442 1.389 . S
C441 H420 0.950 . S
C441 C440 1.373 . S
C441 C457 1.377 . S
C442 C440 1.389 . S
C442 C443 1.524 . S
C442 C456 1.377 . S
C443 C442 1.524 . S
C443 C444 1.397 . S
C443 C448 1.363 . S
C444 H421 0.950 . S
C444 C443 1.397 . S
C444 C445 1.334 . S
C445 H422 0.950 . S
C445 C444 1.334 . S
C445 C446 1.287 . S
C446 C445 1.287 . S
C446 C447 1.524 . S
C446 H465 0.913 . S
C447 H423 0.950 . S
C447 C446 1.524 . S
C447 C448 1.415 . S
C448 H424 0.950 . S
C448 C443 1.363 . S
C448 C447 1.415 . S
C449 H425 0.951 . S
C449 C450 1.366 . S
C449 C451 1.388 . S
C450 C449 1.366 . S
C450 C454 1.385 . S
C451 H426 0.951 . S
C451 C449 1.388 . S
C451 C452 1.366 . S
C452 C451 1.366 . S
C452 C453 1.414 . S
C452 C455 1.499 . S
C453 H427 0.950 . S
C453 C452 1.414 . S
C453 C454 1.374 . S
C454 H428 0.950 . S
C454 C450 1.385 . S
C454 C453 1.374 . S
C455 C452 1.499 . S
C455 C456 1.373 . S
C455 C457 1.389 . S
C456 H429 0.950 . S
C456 C442 1.377 . S
C456 C455 1.373 . S
C457 C441 1.377 . S
C457 C455 1.389 . S
C457 C458 1.524 . S
C458 C457 1.524 . S
C458 C459 1.397 . S
C458 C463 1.363 . S
C459 H430 0.950 . S
C459 C458 1.397 . S
C459 C460 1.334 . S
C460 H431 0.950 . S
C460 C459 1.334 . S
C460 C461 1.287 . S
C461 C460 1.287 . S
C461 C462 1.524 . S
C461 H464 0.999 . S
C462 H432 0.950 . S
C462 C461 1.524 . S
C462 C463 1.415 . S
C463 H433 0.950 . S
C463 C458 1.363 . S
C463 C462 1.415 . S
H464 C461 0.999 . S
H465 C446 0.913 . S
H466 C484 0.951 . S
H467 C486 0.951 . S
H468 C488 0.950 . S
H469 C489 0.950 . S
H470 C491 0.950 . S
H471 C494 0.950 . S
H472 C495 0.950 . S
H473 C497 0.950 . S
H474 C498 0.950 . S
H475 C499 0.951 . S
H476 C501 0.951 . S
H477 C503 0.950 . S
H478 C504 0.950 . S
H479 C506 0.950 . S
H480 C509 0.950 . S
H481 C510 0.964 . S
H482 C512 0.950 . S
H483 C513 0.950 . S
C484 H466 0.951 . S
C484 C485 1.366 . S
C484 C486 1.388 . S
C485 C484 1.366 . S
C485 C489 1.385 . S
C486 H467 0.951 . S
C486 C484 1.388 . S
C486 C487 1.366 . S
C487 C486 1.366 . S
C487 C488 1.414 . S
C487 C490 1.499 . S
C488 H468 0.950 . S
C488 C487 1.414 . S
C488 C489 1.374 . S
C489 H469 0.950 . S
C489 C485 1.385 . S
C489 C488 1.374 . S
C490 C487 1.499 . S
C490 C491 1.373 . S
C490 C492 1.389 . S
C491 H470 0.950 . S
C491 C490 1.373 . S
C491 C507 1.377 . S
C492 C490 1.389 . S
C492 C493 1.524 . S
C492 C506 1.377 . S
C493 C492 1.524 . S
C493 C494 1.397 . S
C493 C498 1.363 . S
C494 H471 0.950 . S
C494 C493 1.397 . S
C494 C495 1.334 . S
C495 H472 0.950 . S
C495 C494 1.334 . S
C495 C496 1.287 . S
C496 C495 1.287 . S
C496 C497 1.524 . S
C496 H515 0.913 . S
C497 H473 0.950 . S
C497 C496 1.524 . S
C497 C498 1.415 . S
C498 H474 0.950 . S
C498 C493 1.363 . S
C498 C497 1.415 . S
C499 H475 0.951 . S
C499 C500 1.366 . S
C499 C501 1.388 . S
C500 C499 1.366 . S
C500 C504 1.385 . S
C501 H476 0.951 . S
C501 C499 1.388 . S
C501 C502 1.366 . S
C502 C501 1.366 . S
C502 C503 1.414 . S
C502 C505 1.499 . S
C503 H477 0.950 . S
C503 C502 1.414 . S
C503 C504 1.374 . S
C504 H478 0.950 . S
C504 C500 1.385 . S
C504 C503 1.374 . S
C505 C502 1.499 . S
C505 C506 1.373 . S
C505 C507 1.389 . S
C506 H479 0.950 . S
C506 C492 1.377 . S
C506 C505 1.373 . S
C507 C491 1.377 . S
C507 C505 1.389 . S
C507 C508 1.524 . S
C508 C507 1.524 . S
C508 C509 1.397 . S
C508 C513 1.363 . S
C509 H480 0.950 . S
C509 C508 1.397 . S
C509 C510 1.334 . S
C510 H481 0.964 . S
C510 C509 1.334 . S
C510 C511 1.287 . S
C511 C510 1.287 . S
C511 C512 1.524 . S
C511 H514 0.999 . S
C512 H482 0.950 . S
C512 C511 1.524 . S
C512 C513 1.415 . S
C513 H483 0.950 . S
C513 C508 1.363 . S
C513 C512 1.415 . S
H514 C511 0.999 . S
H515 C496 0.913 . S
H516 C534 0.951 . S
H517 C536 0.951 . S
H518 C538 0.950 . S
H519 C539 0.950 . S
H520 C541 0.950 . S
H521 C544 0.950 . S
H522 C545 0.950 . S
H523 C547 0.950 . S
H524 C548 0.950 . S
H525 C549 0.951 . S
H526 C551 0.951 . S
H527 C553 0.950 . S
H528 C554 0.950 . S
H529 C556 0.950 . S
H530 C559 0.950 . S
H531 C560 0.950 . S
H532 C562 0.950 . S
H533 C563 0.950 . S
C534 H516 0.951 . S
C534 C535 1.366 . S
C534 C536 1.388 . S
C535 C534 1.366 . S
C535 C539 1.385 . S
C536 H517 0.951 . S
C536 C534 1.388 . S
C536 C537 1.366 . S
C537 C536 1.366 . S
C537 C538 1.414 . S
C537 C540 1.499 . S
C538 H518 0.950 . S
C538 C537 1.414 . S
C538 C539 1.374 . S
C539 H519 0.950 . S
C539 C535 1.385 . S
C539 C538 1.374 . S
C540 C537 1.499 . S
C540 C541 1.373 . S
C540 C542 1.389 . S
C541 H520 0.950 . S
C541 C540 1.373 . S
C541 C557 1.377 . S
C542 C540 1.389 . S
C542 C543 1.524 . S
C542 C556 1.377 . S
C543 C542 1.524 . S
C543 C544 1.397 . S
C543 C548 1.363 . S
C544 H521 0.950 . S
C544 C543 1.397 . S
C544 C545 1.334 . S
C545 H522 0.950 . S
C545 C544 1.334 . S
C545 C546 1.287 . S
C546 C545 1.287 . S
C546 C547 1.524 . S
C546 H565 0.913 . S
C547 H523 0.950 . S
C547 C546 1.524 . S
C547 C548 1.415 . S
C548 H524 0.950 . S
C548 C543 1.363 . S
C548 C547 1.415 . S
C549 H525 0.951 . S
C549 C550 1.366 . S
C549 C551 1.388 . S
C550 C549 1.366 . S
C550 C554 1.385 . S
C551 H526 0.951 . S
C551 C549 1.388 . S
C551 C552 1.366 . S
C552 C551 1.366 . S
C552 C553 1.414 . S
C552 C555 1.499 . S
C553 H527 0.950 . S
C553 C552 1.414 . S
C553 C554 1.374 . S
C554 H528 0.950 . S
C554 C550 1.385 . S
C554 C553 1.374 . S
C555 C552 1.499 . S
C555 C556 1.373 . S
C555 C557 1.389 . S
C556 H529 0.950 . S
C556 C542 1.377 . S
C556 C555 1.373 . S
C557 C541 1.377 . S
C557 C555 1.389 . S
C557 C558 1.524 . S
C558 C557 1.524 . S
C558 C559 1.397 . S
C558 C563 1.363 . S
C559 H530 0.950 . S
C559 C558 1.397 . S
C559 C560 1.334 . S
C560 H531 0.950 . S
C560 C559 1.334 . S
C560 C561 1.287 . S
C561 C560 1.287 . S
C561 C562 1.524 . S
C561 H564 0.999 . S
C562 H532 0.950 . S
C562 C561 1.524 . S
C562 C563 1.415 . S
C563 H533 0.950 . S
C563 C558 1.363 . S
C563 C562 1.415 . S
H564 C561 0.999 . S
H565 C546 0.913 . S
H566 C584 0.951 . S
H567 C586 0.951 . S
H568 C588 0.950 . S
H569 C589 0.950 . S
H570 C591 0.950 . S
H571 C594 0.950 . S
H572 C595 0.950 . S
H573 C597 0.950 . S
H574 C598 0.950 . S
H575 C599 0.951 . S
H576 C601 0.951 . S
H577 C603 0.950 . S
H578 C604 0.950 . S
H579 C606 0.950 . S
H580 C609 0.950 . S
H581 C610 0.950 . S
H582 C612 0.950 . S
H583 C613 0.950 . S
C584 H566 0.951 . S
C584 C585 1.366 . S
C584 C586 1.388 . S
C585 C584 1.366 . S
C585 C589 1.385 . S
C586 H567 0.951 . S
C586 C584 1.388 . S
C586 C587 1.366 . S
C587 C586 1.366 . S
C587 C588 1.414 . S
C587 C590 1.499 . S
C588 H568 0.950 . S
C588 C587 1.414 . S
C588 C589 1.374 . S
C589 H569 0.950 . S
C589 C585 1.385 . S
C589 C588 1.374 . S
C590 C587 1.499 . S
C590 C591 1.373 . S
C590 C592 1.389 . S
C591 H570 0.950 . S
C591 C590 1.373 . S
C591 C607 1.377 . S
C592 C590 1.389 . S
C592 C593 1.524 . S
C592 C606 1.377 . S
C593 C592 1.524 . S
C593 C594 1.397 . S
C593 C598 1.363 . S
C594 H571 0.950 . S
C594 C593 1.397 . S
C594 C595 1.334 . S
C595 H572 0.950 . S
C595 C594 1.334 . S
C595 C596 1.287 . S
C596 C595 1.287 . S
C596 C597 1.524 . S
C596 H615 0.913 . S
C597 H573 0.950 . S
C597 C596 1.524 . S
C597 C598 1.415 . S
C598 H574 0.950 . S
C598 C593 1.363 . S
C598 C597 1.415 . S
C599 H575 0.951 . S
C599 C600 1.366 . S
C599 C601 1.388 . S
C600 C599 1.366 . S
C600 C604 1.385 . S
C601 H576 0.951 . S
C601 C599 1.388 . S
C601 C602 1.366 . S
C602 C601 1.366 . S
C602 C603 1.414 . S
C602 C605 1.499 . S
C603 H577 0.950 . S
C603 C602 1.414 . S
C603 C604 1.374 . S
C604 H578 0.950 . S
C604 C600 1.385 . S
C604 C603 1.374 . S
C605 C602 1.499 . S
C605 C606 1.373 . S
C605 C607 1.389 . S
C606 H579 0.950 . S
C606 C592 1.377 . S
C606 C605 1.373 . S
C607 C591 1.377 . S
C607 C605 1.389 . S
C607 C608 1.524 . S
C608 C607 1.524 . S
C608 C609 1.397 . S
C608 C613 1.363 . S
C609 H580 0.950 . S
C609 C608 1.397 . S
C609 C610 1.334 1_655 S
C610 H581 0.950 . S
C610 C609 1.334 1_455 S
C610 C611 1.287 . S
C611 C610 1.287 . S
C611 C612 1.524 . S
C611 H614 0.999 . S
C612 H582 0.950 . S
C612 C611 1.524 . S
C612 C613 1.415 1_455 S
C613 H583 0.950 . S
C613 C608 1.363 . S
C613 C612 1.415 1_655 S
H614 C611 0.999 . S
H615 C596 0.913 . S
H616 C634 0.951 . S
H617 C636 0.951 . S
H618 C638 0.950 . S
H619 C639 0.950 . S
H620 C641 0.950 . S
H621 C644 0.950 . S
H622 C645 0.950 . S
H623 C647 0.950 . S
H624 C648 0.950 . S
H625 C649 0.951 . S
H626 C651 0.951 . S
H627 C653 0.950 . S
H628 C654 0.950 . S
H629 C656 0.950 . S
H630 C659 0.950 . S
H631 C660 0.950 . S
H632 C662 0.950 . S
H633 C663 0.950 . S
C634 H616 0.951 . S
C634 C635 1.366 . S
C634 C636 1.388 . S
C635 C634 1.366 . S
C635 C639 1.385 . S
C636 H617 0.951 . S
C636 C634 1.388 . S
C636 C637 1.366 . S
C637 C636 1.366 . S
C637 C638 1.414 . S
C637 C640 1.499 . S
C638 H618 0.950 . S
C638 C637 1.414 . S
C638 C639 1.374 . S
C639 H619 0.950 . S
C639 C635 1.385 . S
C639 C638 1.374 . S
C640 C637 1.499 . S
C640 C641 1.373 . S
C640 C642 1.389 . S
C641 H620 0.950 . S
C641 C640 1.373 . S
C641 C657 1.377 . S
C642 C640 1.389 . S
C642 C643 1.524 . S
C642 C656 1.377 . S
C643 C642 1.524 . S
C643 C644 1.397 . S
C643 C648 1.363 . S
C644 H621 0.950 . S
C644 C643 1.397 . S
C644 C645 1.334 . S
C645 H622 0.950 . S
C645 C644 1.334 . S
C645 C646 1.287 . S
C646 C645 1.287 . S
C646 C647 1.524 . S
C646 H665 0.913 . S
C647 H623 0.950 . S
C647 C646 1.524 . S
C647 C648 1.415 . S
C648 H624 0.950 . S
C648 C643 1.363 . S
C648 C647 1.415 . S
C649 H625 0.951 . S
C649 C650 1.366 . S
C649 C651 1.388 . S
C650 C649 1.366 . S
C650 C654 1.385 . S
C651 H626 0.951 . S
C651 C649 1.388 . S
C651 C652 1.366 . S
C652 C651 1.366 . S
C652 C653 1.414 . S
C652 C655 1.499 . S
C653 H627 0.950 . S
C653 C652 1.414 . S
C653 C654 1.374 . S
C654 H628 0.950 . S
C654 C650 1.385 . S
C654 C653 1.374 . S
C655 C652 1.499 . S
C655 C656 1.373 . S
C655 C657 1.389 . S
C656 H629 0.950 . S
C656 C642 1.377 . S
C656 C655 1.373 . S
C657 C641 1.377 . S
C657 C655 1.389 . S
C657 C658 1.524 . S
C658 C657 1.524 . S
C658 C659 1.397 . S
C658 C663 1.363 . S
C659 H630 0.950 . S
C659 C658 1.397 . S
C659 C660 1.334 . S
C660 H631 0.950 . S
C660 C659 1.334 . S
C660 C661 1.287 . S
C661 C660 1.287 . S
C661 C662 1.524 . S
C661 H664 0.999 . S
C662 H632 0.950 . S
C662 C661 1.524 . S
C662 C663 1.415 . S
C663 H633 0.950 . S
C663 C658 1.363 . S
C663 C662 1.415 . S
H664 C661 0.999 . S
H665 C646 0.913 . S
H666 C684 0.951 . S
H667 C686 0.951 . S
H668 C688 0.950 . S
H669 C689 0.950 . S
H670 C691 0.950 . S
H671 C694 0.950 . S
H672 C695 0.950 . S
H673 C697 0.995 . S
H674 C698 0.950 . S
H675 C699 0.951 . S
H676 C701 0.951 . S
H677 C703 0.950 . S
H678 C704 0.950 1_545 S
H679 C706 0.950 . S
H680 C709 0.950 . S
H681 C710 0.950 . S
H682 C712 0.950 . S
H683 C713 0.950 . S
C684 H666 0.951 . S
C684 C685 1.366 . S
C684 C686 1.388 . S
C685 C684 1.366 . S
C685 C689 1.385 . S
C686 H667 0.951 . S
C686 C684 1.388 . S
C686 C687 1.366 . S
C687 C686 1.366 . S
C687 C688 1.414 . S
C687 C690 1.499 . S
C688 H668 0.950 . S
C688 C687 1.414 . S
C688 C689 1.374 . S
C689 H669 0.950 . S
C689 C685 1.385 . S
C689 C688 1.374 . S
C690 C687 1.499 . S
C690 C691 1.373 . S
C690 C692 1.389 . S
C691 H670 0.950 . S
C691 C690 1.373 . S
C691 C707 1.377 . S
C692 C690 1.389 . S
C692 C693 1.524 . S
C692 C706 1.377 . S
C693 C692 1.524 . S
C693 C694 1.397 . S
C693 C698 1.363 . S
C694 H671 0.950 . S
C694 C693 1.397 . S
C694 C695 1.334 . S
C695 H672 0.950 . S
C695 C694 1.334 . S
C695 C696 1.287 . S
C696 C695 1.287 . S
C696 C697 1.524 . S
C696 H715 0.913 . S
C697 H673 0.995 . S
C697 C696 1.524 . S
C697 C698 1.415 . S
C698 H674 0.950 . S
C698 C693 1.363 . S
C698 C697 1.415 . S
C699 H675 0.951 . S
C699 C700 1.366 . S
C699 C701 1.388 . S
C700 C699 1.366 . S
C700 C704 1.385 . S
C701 H676 0.951 . S
C701 C699 1.388 . S
C701 C702 1.366 . S
C702 C701 1.366 . S
C702 C703 1.414 . S
C702 C705 1.499 . S
C703 H677 0.950 . S
C703 C702 1.414 . S
C703 C704 1.374 . S
C704 H678 0.950 1_565 S
C704 C700 1.385 . S
C704 C703 1.374 . S
C705 C702 1.499 . S
C705 C706 1.373 . S
C705 C707 1.389 . S
C706 H679 0.950 . S
C706 C692 1.377 . S
C706 C705 1.373 . S
C707 C691 1.377 . S
C707 C705 1.389 . S
C707 C708 1.524 . S
C708 C707 1.524 . S
C708 C709 1.397 . S
C708 C713 1.363 . S
C709 H680 0.950 . S
C709 C708 1.397 . S
C709 C710 1.334 . S
C710 H681 0.950 . S
C710 C709 1.334 . S
C710 C711 1.287 . S
C711 C710 1.287 . S
C711 C712 1.524 . S
C711 H714 0.999 . S
C712 H682 0.950 . S
C712 C711 1.524 . S
C712 C713 1.415 . S
C713 H683 0.950 . S
C713 C708 1.363 . S
C713 C712 1.415 . S
H714 C711 0.999 . S
H715 C696 0.913 . S
H716 C734 0.951 . S
H717 C736 0.951 . S
H718 C738 0.950 . S
H719 C739 0.950 . S
H720 C741 0.950 . S
H721 C744 0.950 . S
H722 C745 0.950 . S
H723 C747 0.950 . S
H724 C748 0.950 . S
H725 C749 0.951 . S
H726 C751 0.951 . S
H727 C753 0.950 . S
H728 C754 0.950 1_554 S
H729 C756 0.950 . S
H730 C759 0.950 . S
H731 C760 0.950 . S
H732 C762 0.950 . S
H733 C763 0.950 . S
C734 H716 0.951 . S
C734 C735 1.366 . S
C734 C736 1.388 . S
C735 C734 1.366 . S
C735 C739 1.385 . S
C736 H717 0.951 . S
C736 C734 1.388 . S
C736 C737 1.366 . S
C737 C736 1.366 . S
C737 C738 1.414 . S
C737 C740 1.499 . S
C738 H718 0.950 . S
C738 C737 1.414 . S
C738 C739 1.374 . S
C739 H719 0.950 . S
C739 C735 1.385 . S
C739 C738 1.374 . S
C740 C737 1.499 . S
C740 C741 1.373 . S
C740 C742 1.389 . S
C741 H720 0.950 . S
C741 C740 1.373 . S
C741 C757 1.377 . S
C742 C740 1.389 . S
C742 C743 1.524 . S
C742 C756 1.377 . S
C743 C742 1.524 . S
C743 C744 1.397 . S
C743 C748 1.363 . S
C744 H721 0.950 . S
C744 C743 1.397 . S
C744 C745 1.334 . S
C745 H722 0.950 . S
C745 C744 1.334 . S
C745 C746 1.287 . S
C746 C745 1.287 . S
C746 C747 1.524 . S
C746 H765 0.913 . S
C747 H723 0.950 . S
C747 C746 1.524 . S
C747 C748 1.415 . S
C748 H724 0.950 . S
C748 C743 1.363 . S
C748 C747 1.415 . S
C749 H725 0.951 . S
C749 C750 1.366 . S
C749 C751 1.388 . S
C750 C749 1.366 . S
C750 C754 1.385 . S
C751 H726 0.951 . S
C751 C749 1.388 . S
C751 C752 1.366 . S
C752 C751 1.366 . S
C752 C753 1.414 . S
C752 C755 1.499 . S
C753 H727 0.950 . S
C753 C752 1.414 . S
C753 C754 1.374 . S
C754 H728 0.950 1_556 S
C754 C750 1.385 . S
C754 C753 1.374 . S
C755 C752 1.499 . S
C755 C756 1.373 . S
C755 C757 1.389 . S
C756 H729 0.950 . S
C756 C742 1.377 . S
C756 C755 1.373 . S
C757 C741 1.377 . S
C757 C755 1.389 . S
C757 C758 1.524 . S
C758 C757 1.524 . S
C758 C759 1.397 . S
C758 C763 1.363 . S
C759 H730 0.950 . S
C759 C758 1.397 . S
C759 C760 1.334 . S
C760 H731 0.950 . S
C760 C759 1.334 . S
C760 C761 1.287 . S
C761 C760 1.287 . S
C761 C762 1.524 . S
C761 H764 0.999 . S
C762 H732 0.950 . S
C762 C761 1.524 . S
C762 C763 1.415 . S
C763 H733 0.950 . S
C763 C758 1.363 . S
C763 C762 1.415 . S
H764 C761 0.999 . S
H765 C746 0.913 . S
H766 C784 0.951 . S
H767 C786 0.951 . S
H768 C788 0.950 . S
H769 C789 0.950 . S
H770 C791 0.950 . S
H771 C794 0.950 . S
H772 C795 0.950 . S
H773 C797 0.950 . S
H774 C798 0.950 . S
H775 C799 0.951 . S
H776 C801 0.951 . S
H777 C803 0.950 . S
H778 C804 0.950 . S
H779 C806 0.950 . S
H780 C809 0.950 . S
H781 C810 0.950 . S
H782 C812 0.950 . S
H783 C813 0.950 . S
C784 H766 0.951 . S
C784 C785 1.366 . S
C784 C786 1.388 . S
C785 C784 1.366 . S
C785 C789 1.385 . S
C786 H767 0.951 . S
C786 C784 1.388 . S
C786 C787 1.366 . S
C787 C786 1.366 . S
C787 C788 1.414 . S
C787 C790 1.499 . S
C788 H768 0.950 . S
C788 C787 1.414 . S
C788 C789 1.374 . S
C789 H769 0.950 . S
C789 C785 1.385 . S
C789 C788 1.374 . S
C790 C787 1.499 . S
C790 C791 1.373 . S
C790 C792 1.389 . S
C791 H770 0.950 . S
C791 C790 1.373 . S
C791 C807 1.377 . S
C792 C790 1.389 . S
C792 C793 1.524 . S
C792 C806 1.377 . S
C793 C792 1.524 . S
C793 C794 1.397 . S
C793 C798 1.363 . S
C794 H771 0.950 . S
C794 C793 1.397 . S
C794 C795 1.334 . S
C795 H772 0.950 . S
C795 C794 1.334 . S
C795 C796 1.287 . S
C796 C795 1.287 . S
C796 C797 1.524 . S
C796 H815 0.913 . S
C797 H773 0.950 . S
C797 C796 1.524 . S
C797 C798 1.415 . S
C798 H774 0.950 . S
C798 C793 1.363 . S
C798 C797 1.415 . S
C799 H775 0.951 . S
C799 C800 1.366 . S
C799 C801 1.388 . S
C800 C799 1.366 . S
C800 C804 1.385 . S
C801 H776 0.951 . S
C801 C799 1.388 . S
C801 C802 1.366 . S
C802 C801 1.366 . S
C802 C803 1.414 . S
C802 C805 1.499 . S
C803 H777 0.950 . S
C803 C802 1.414 . S
C803 C804 1.374 . S
C804 H778 0.950 . S
C804 C800 1.385 . S
C804 C803 1.374 . S
C805 C802 1.499 . S
C805 C806 1.373 . S
C805 C807 1.389 . S
C806 H779 0.950 . S
C806 C792 1.377 . S
C806 C805 1.373 . S
C807 C791 1.377 . S
C807 C805 1.389 . S
C807 C808 1.524 . S
C808 C807 1.524 . S
C808 C809 1.397 . S
C808 C813 1.363 . S
C809 H780 0.950 . S
C809 C808 1.397 . S
C809 C810 1.334 . S
C810 H781 0.950 . S
C810 C809 1.334 . S
C810 C811 1.287 . S
C811 C810 1.287 . S
C811 C812 1.524 . S
C811 H814 0.999 . S
C812 H782 0.950 . S
C812 C811 1.524 . S
C812 C813 1.415 . S
C813 H783 0.950 . S
C813 C808 1.363 . S
C813 C812 1.415 . S
H814 C811 0.999 . S
H815 C796 0.913 . S
H816 C834 0.951 . S
H817 C836 0.951 . S
H818 C838 0.950 . S
H819 C839 0.950 . S
H820 C841 0.950 . S
H821 C844 0.950 . S
H822 C845 0.950 . S
H823 C847 0.950 . S
H824 C848 0.950 . S
H825 C849 0.951 . S
H826 C851 0.951 . S
H827 C853 0.950 . S
H828 C854 0.950 . S
H829 C856 0.950 . S
H830 C859 0.950 . S
H831 C860 0.950 . S
H832 C862 0.950 . S
H833 C863 0.950 . S
C834 H816 0.951 . S
C834 C835 1.366 . S
C834 C836 1.388 . S
C835 C834 1.366 . S
C835 C839 1.385 . S
C836 H817 0.951 . S
C836 C834 1.388 . S
C836 C837 1.366 . S
C837 C836 1.366 . S
C837 C838 1.414 . S
C837 C840 1.499 . S
C838 H818 0.950 . S
C838 C837 1.414 . S
C838 C839 1.374 . S
C839 H819 0.950 . S
C839 C835 1.385 . S
C839 C838 1.374 . S
C840 C837 1.499 . S
C840 C841 1.373 . S
C840 C842 1.389 . S
C841 H820 0.950 . S
C841 C840 1.373 . S
C841 C857 1.377 . S
C842 C840 1.389 . S
C842 C843 1.524 . S
C842 C856 1.377 . S
C843 C842 1.524 . S
C843 C844 1.397 . S
C843 C848 1.363 . S
C844 H821 0.950 . S
C844 C843 1.397 . S
C844 C845 1.334 . S
C845 H822 0.950 . S
C845 C844 1.334 . S
C845 C846 1.287 . S
C846 C845 1.287 . S
C846 C847 1.524 . S
C846 H865 0.913 . S
C847 H823 0.950 . S
C847 C846 1.524 . S
C847 C848 1.415 . S
C848 H824 0.950 . S
C848 C843 1.363 . S
C848 C847 1.415 . S
C849 H825 0.951 . S
C849 C850 1.366 . S
C849 C851 1.388 . S
C850 C849 1.366 . S
C850 C854 1.385 . S
C851 H826 0.951 . S
C851 C849 1.388 . S
C851 C852 1.366 . S
C852 C851 1.366 . S
C852 C853 1.414 . S
C852 C855 1.499 . S
C853 H827 0.950 . S
C853 C852 1.414 . S
C853 C854 1.374 . S
C854 H828 0.950 . S
C854 C850 1.385 . S
C854 C853 1.374 . S
C855 C852 1.499 . S
C855 C856 1.373 . S
C855 C857 1.389 . S
C856 H829 0.950 . S
C856 C842 1.377 . S
C856 C855 1.373 . S
C857 C841 1.377 . S
C857 C855 1.389 . S
C857 C858 1.524 . S
C858 C857 1.524 . S
C858 C859 1.397 . S
C858 C863 1.363 . S
C859 H830 0.950 . S
C859 C858 1.397 . S
C859 C860 1.334 . S
C860 H831 0.950 . S
C860 C859 1.334 . S
C860 C861 1.287 . S
C861 C860 1.287 . S
C861 C862 1.524 . S
C861 H864 0.999 . S
C862 H832 0.950 . S
C862 C861 1.524 . S
C862 C863 1.415 . S
C863 H833 0.950 . S
C863 C858 1.363 . S
C863 C862 1.415 . S
H864 C861 0.999 . S
H865 C846 0.913 . S
H866 C884 0.951 . S
H867 C886 0.951 . S
H868 C888 0.950 . S
H869 C889 0.950 . S
H870 C891 0.950 . S
H871 C894 0.950 . S
H872 C895 0.950 . S
H873 C897 0.950 . S
H874 C898 0.950 . S
H875 C899 0.951 . S
H876 C901 0.951 . S
H877 C903 0.950 . S
H878 C904 0.950 . S
H879 C906 0.950 . S
H880 C909 0.950 . S
H881 C910 0.950 . S
H882 C912 0.950 . S
H883 C913 0.950 . S
C884 H866 0.951 . S
C884 C885 1.366 . S
C884 C886 1.388 . S
C885 C884 1.366 . S
C885 C889 1.385 . S
C886 H867 0.951 . S
C886 C884 1.388 . S
C886 C887 1.366 . S
C887 C886 1.366 . S
C887 C888 1.414 . S
C887 C890 1.499 . S
C888 H868 0.950 . S
C888 C887 1.414 . S
C888 C889 1.374 . S
C889 H869 0.950 . S
C889 C885 1.385 . S
C889 C888 1.374 . S
C890 C887 1.499 . S
C890 C891 1.373 . S
C890 C892 1.389 . S
C891 H870 0.950 . S
C891 C890 1.373 . S
C891 C907 1.377 . S
C892 C890 1.389 . S
C892 C893 1.524 . S
C892 C906 1.377 . S
C893 C892 1.524 . S
C893 C894 1.397 . S
C893 C898 1.363 . S
C894 H871 0.950 . S
C894 C893 1.397 . S
C894 C895 1.334 . S
C895 H872 0.950 . S
C895 C894 1.334 . S
C895 C896 1.287 . S
C896 C895 1.287 . S
C896 C897 1.524 . S
C896 H915 0.913 . S
C897 H873 0.950 . S
C897 C896 1.524 . S
C897 C898 1.415 . S
C898 H874 0.950 . S
C898 C893 1.363 . S
C898 C897 1.415 . S
C899 H875 0.951 . S
C899 C900 1.366 . S
C899 C901 1.388 . S
C900 C899 1.366 . S
C900 C904 1.385 . S
C901 H876 0.951 . S
C901 C899 1.388 . S
C901 C902 1.366 . S
C902 C901 1.366 . S
C902 C903 1.414 . S
C902 C905 1.499 . S
C903 H877 0.950 . S
C903 C902 1.414 . S
C903 C904 1.374 . S
C904 H878 0.950 . S
C904 C900 1.385 . S
C904 C903 1.374 . S
C905 C902 1.499 . S
C905 C906 1.373 . S
C905 C907 1.389 . S
C906 H879 0.950 . S
C906 C892 1.377 . S
C906 C905 1.373 . S
C907 C891 1.377 . S
C907 C905 1.389 . S
C907 C908 1.524 . S
C908 C907 1.524 . S
C908 C909 1.397 . S
C908 C913 1.363 . S
C909 H880 0.950 . S
C909 C908 1.397 . S
C909 C910 1.334 . S
C910 H881 0.950 . S
C910 C909 1.334 . S
C910 C911 1.287 1_556 S
C911 C910 1.287 1_554 S
C911 C912 1.524 . S
C911 H914 0.999 . S
C912 H882 0.950 . S
C912 C911 1.524 . S
C912 C913 1.415 1_554 S
C913 H883 0.950 . S
C913 C908 1.363 . S
C913 C912 1.415 1_556 S
H914 C911 0.999 . S
H915 C896 0.913 . S
H916 C934 0.951 . S
H917 C936 0.951 . S
H918 C938 0.950 . S
H919 C939 0.950 . S
H920 C941 0.950 . S
H921 C944 0.950 . S
H922 C945 0.950 . S
H923 C947 0.950 1_455 S
H924 C948 0.950 . S
H925 C949 0.951 . S
H926 C951 0.951 . S
H927 C953 0.950 . S
H928 C954 0.950 . S
H929 C956 0.950 . S
H930 C959 0.950 . S
H931 C960 0.950 . S
H932 C962 0.950 . S
H933 C963 0.950 . S
C934 H916 0.951 . S
C934 C935 1.366 . S
C934 C936 1.388 . S
C935 C934 1.366 . S
C935 C939 1.385 . S
C936 H917 0.951 . S
C936 C934 1.388 . S
C936 C937 1.366 . S
C937 C936 1.366 . S
C937 C938 1.414 . S
C937 C940 1.499 . S
C938 H918 0.950 . S
C938 C937 1.414 . S
C938 C939 1.374 . S
C939 H919 0.950 . S
C939 C935 1.385 . S
C939 C938 1.374 . S
C940 C937 1.499 . S
C940 C941 1.373 . S
C940 C942 1.389 . S
C941 H920 0.950 . S
C941 C940 1.373 . S
C941 C957 1.377 . S
C942 C940 1.389 . S
C942 C943 1.524 . S
C942 C956 1.377 . S
C943 C942 1.524 . S
C943 C944 1.397 . S
C943 C948 1.363 . S
C944 H921 0.950 . S
C944 C943 1.397 . S
C944 C945 1.334 . S
C945 H922 0.950 . S
C945 C944 1.334 . S
C945 C946 1.287 . S
C946 C945 1.287 . S
C946 C947 1.524 . S
C946 H965 0.913 1_655 S
C947 H923 0.950 1_655 S
C947 C946 1.524 . S
C947 C948 1.415 . S
C948 H924 0.950 . S
C948 C943 1.363 . S
C948 C947 1.415 . S
C949 H925 0.951 . S
C949 C950 1.366 . S
C949 C951 1.388 . S
C950 C949 1.366 . S
C950 C954 1.385 . S
C951 H926 0.951 . S
C951 C949 1.388 . S
C951 C952 1.366 . S
C952 C951 1.366 . S
C952 C953 1.414 . S
C952 C955 1.499 . S
C953 H927 0.950 . S
C953 C952 1.414 . S
C953 C954 1.374 . S
C954 H928 0.950 . S
C954 C950 1.385 . S
C954 C953 1.374 . S
C955 C952 1.499 . S
C955 C956 1.373 . S
C955 C957 1.389 . S
C956 H929 0.950 . S
C956 C942 1.377 . S
C956 C955 1.373 . S
C957 C941 1.377 . S
C957 C955 1.389 . S
C957 C958 1.524 . S
C958 C957 1.524 . S
C958 C959 1.397 . S
C958 C963 1.363 . S
C959 H930 0.950 . S
C959 C958 1.397 . S
C959 C960 1.334 . S
C960 H931 0.950 . S
C960 C959 1.334 . S
C960 C961 1.287 . S
C961 C960 1.287 . S
C961 C962 1.524 . S
C961 H964 0.999 . S
C962 H932 0.950 . S
C962 C961 1.524 . S
C962 C963 1.415 . S
C963 H933 0.950 . S
C963 C958 1.363 . S
C963 C962 1.415 . S
H964 C961 0.999 . S
H965 C946 0.913 1_455 S
H966 C984 0.951 . S
H967 C986 0.951 . S
H968 C988 0.950 . S
H969 C989 0.950 . S
H970 C991 0.950 . S
H971 C994 0.950 . S
H972 C995 0.950 . S
H973 C997 0.950 . S
H974 C998 0.950 . S
H975 C999 0.951 . S
H976 C1001 0.951 . S
H977 C1003 0.950 . S
H978 C1004 0.950 . S
H979 C1006 0.950 . S
H980 C1009 0.950 . S
H981 C1010 0.950 . S
H982 C1012 0.950 . S
H983 C1013 0.950 . S
C984 H966 0.951 . S
C984 C985 1.366 . S
C984 C986 1.388 . S
C985 C984 1.366 . S
C985 C989 1.385 . S
C986 H967 0.951 . S
C986 C984 1.388 . S
C986 C987 1.366 . S
C987 C986 1.366 . S
C987 C988 1.414 . S
C987 C990 1.499 . S
C988 H968 0.950 . S
C988 C987 1.414 . S
C988 C989 1.374 . S
C989 H969 0.950 . S
C989 C985 1.385 . S
C989 C988 1.374 . S
C990 C987 1.499 . S
C990 C991 1.373 . S
C990 C992 1.389 . S
C991 H970 0.950 . S
C991 C990 1.373 . S
C991 C1007 1.377 . S
C992 C990 1.389 . S
C992 C993 1.524 . S
C992 C1006 1.377 . S
C993 C992 1.524 . S
C993 C994 1.397 . S
C993 C998 1.363 . S
C994 H971 0.950 . S
C994 C993 1.397 . S
C994 C995 1.334 . S
C995 H972 0.950 . S
C995 C994 1.334 . S
C995 C996 1.287 . S
C996 C995 1.287 . S
C996 C997 1.524 . S
C996 H1015 0.913 . S
C997 H973 0.950 . S
C997 C996 1.524 . S
C997 C998 1.415 . S
C998 H974 0.950 . S
C998 C993 1.363 . S
C998 C997 1.415 . S
C999 H975 0.951 . S
C999 C1000 1.366 . S
C999 C1001 1.388 . S
C1000 C999 1.366 . S
C1000 C1004 1.385 . S
C1001 H976 0.951 . S
C1001 C999 1.388 . S
C1001 C1002 1.366 . S
C1002 C1001 1.366 . S
C1002 C1003 1.414 . S
C1002 C1005 1.499 . S
C1003 H977 0.950 . S
C1003 C1002 1.414 . S
C1003 C1004 1.374 . S
C1004 H978 0.950 . S
C1004 C1000 1.385 . S
C1004 C1003 1.374 . S
C1005 C1002 1.499 . S
C1005 C1006 1.373 . S
C1005 C1007 1.389 . S
C1006 H979 0.950 . S
C1006 C992 1.377 . S
C1006 C1005 1.373 . S
C1007 C991 1.377 . S
C1007 C1005 1.389 . S
C1007 C1008 1.524 . S
C1008 C1007 1.524 . S
C1008 C1009 1.397 . S
C1008 C1013 1.363 . S
C1009 H980 0.950 . S
C1009 C1008 1.397 . S
C1009 C1010 1.334 . S
C1010 H981 0.950 . S
C1010 C1009 1.334 . S
C1010 C1011 1.287 . S
C1011 C1010 1.287 . S
C1011 C1012 1.524 . S
C1011 H1014 0.999 . S
C1012 H982 0.950 . S
C1012 C1011 1.524 . S
C1012 C1013 1.415 . S
C1013 H983 0.950 . S
C1013 C1008 1.363 . S
C1013 C1012 1.415 . S
H1014 C1011 0.999 . S
H1015 C996 0.913 . S
H1016 C1034 0.951 . S
H1017 C1036 0.951 . S
H1018 C1038 0.950 . S
H1019 C1039 0.950 . S
H1020 C1041 0.950 . S
H1021 C1044 0.950 . S
H1022 C1045 0.950 . S
H1023 C1047 0.950 . S
H1024 C1048 0.950 . S
H1025 C1049 0.951 . S
H1026 C1051 0.951 . S
H1027 C1053 0.950 . S
H1028 C1054 0.950 . S
H1029 C1056 0.950 . S
H1030 C1059 0.950 . S
H1031 C1060 0.950 . S
H1032 C1062 0.950 . S
H1033 C1063 0.950 . S
C1034 H1016 0.951 . S
C1034 C1035 1.366 . S
C1034 C1036 1.388 . S
C1035 C1034 1.366 . S
C1035 C1039 1.385 . S
C1036 H1017 0.951 . S
C1036 C1034 1.388 . S
C1036 C1037 1.366 . S
C1037 C1036 1.366 . S
C1037 C1038 1.414 . S
C1037 C1040 1.499 . S
C1038 H1018 0.950 . S
C1038 C1037 1.414 . S
C1038 C1039 1.374 . S
C1039 H1019 0.950 . S
C1039 C1035 1.385 . S
C1039 C1038 1.374 . S
C1040 C1037 1.499 . S
C1040 C1041 1.373 . S
C1040 C1042 1.389 . S
C1041 H1020 0.950 . S
C1041 C1040 1.373 . S
C1041 C1057 1.377 . S
C1042 C1040 1.389 . S
C1042 C1043 1.524 . S
C1042 C1056 1.377 . S
C1043 C1042 1.524 . S
C1043 C1044 1.397 . S
C1043 C1048 1.363 . S
C1044 H1021 0.950 . S
C1044 C1043 1.397 . S
C1044 C1045 1.334 . S
C1045 H1022 0.950 . S
C1045 C1044 1.334 . S
C1045 C1046 1.287 . S
C1046 C1045 1.287 . S
C1046 C1047 1.524 . S
C1046 H1065 0.913 . S
C1047 H1023 0.950 . S
C1047 C1046 1.524 . S
C1047 C1048 1.415 . S
C1048 H1024 0.950 . S
C1048 C1043 1.363 . S
C1048 C1047 1.415 . S
C1049 H1025 0.951 . S
C1049 C1050 1.366 . S
C1049 C1051 1.388 . S
C1050 C1049 1.366 . S
C1050 C1054 1.385 . S
C1051 H1026 0.951 . S
C1051 C1049 1.388 . S
C1051 C1052 1.366 . S
C1052 C1051 1.366 . S
C1052 C1053 1.414 . S
C1052 C1055 1.499 . S
C1053 H1027 0.950 . S
C1053 C1052 1.414 . S
C1053 C1054 1.374 . S
C1054 H1028 0.950 . S
C1054 C1050 1.385 . S
C1054 C1053 1.374 . S
C1055 C1052 1.499 . S
C1055 C1056 1.373 . S
C1055 C1057 1.389 . S
C1056 H1029 0.950 . S
C1056 C1042 1.377 . S
C1056 C1055 1.373 . S
C1057 C1041 1.377 . S
C1057 C1055 1.389 . S
C1057 C1058 1.524 . S
C1058 C1057 1.524 . S
C1058 C1059 1.397 . S
C1058 C1063 1.363 . S
C1059 H1030 0.950 . S
C1059 C1058 1.397 . S
C1059 C1060 1.334 . S
C1060 H1031 0.950 . S
C1060 C1059 1.334 . S
C1060 C1061 1.287 . S
C1061 C1060 1.287 . S
C1061 C1062 1.524 . S
C1061 H1064 0.999 . S
C1062 H1032 0.950 . S
C1062 C1061 1.524 . S
C1062 C1063 1.415 . S
C1063 H1033 0.950 . S
C1063 C1058 1.363 . S
C1063 C1062 1.415 . S
H1064 C1061 0.999 . S
H1065 C1046 0.913 . S
H1066 C1084 0.951 . S
H1067 C1086 0.951 . S
H1068 C1088 0.950 . S
H1069 C1089 0.950 . S
H1070 C1091 0.950 . S
H1071 C1094 0.950 . S
H1072 C1095 0.950 . S
H1073 C1097 0.950 . S
H1074 C1098 0.950 . S
H1075 C1099 0.951 . S
H1076 C1101 0.951 . S
H1077 C1103 0.950 . S
H1078 C1104 0.950 . S
H1079 C1106 0.950 . S
H1080 C1109 0.950 . S
H1081 C1110 0.950 . S
H1082 C1112 0.950 . S
H1083 C1113 0.950 . S
C1084 H1066 0.951 . S
C1084 C1085 1.366 . S
C1084 C1086 1.388 . S
C1085 C1084 1.366 . S
C1085 C1089 1.385 . S
C1086 H1067 0.951 . S
C1086 C1084 1.388 . S
C1086 C1087 1.366 . S
C1087 C1086 1.366 . S
C1087 C1088 1.414 . S
C1087 C1090 1.499 . S
C1088 H1068 0.950 . S
C1088 C1087 1.414 . S
C1088 C1089 1.374 . S
C1089 H1069 0.950 . S
C1089 C1085 1.385 . S
C1089 C1088 1.374 . S
C1090 C1087 1.499 . S
C1090 C1091 1.373 . S
C1090 C1092 1.389 . S
C1091 H1070 0.950 . S
C1091 C1090 1.373 . S
C1091 C1107 1.377 . S
C1092 C1090 1.389 . S
C1092 C1093 1.524 . S
C1092 C1106 1.377 . S
C1093 C1092 1.524 . S
C1093 C1094 1.397 . S
C1093 C1098 1.363 . S
C1094 H1071 0.950 . S
C1094 C1093 1.397 . S
C1094 C1095 1.334 . S
C1095 H1072 0.950 . S
C1095 C1094 1.334 . S
C1095 C1096 1.287 . S
C1096 C1095 1.287 . S
C1096 C1097 1.524 . S
C1096 H1115 0.913 . S
C1097 H1073 0.950 . S
C1097 C1096 1.524 . S
C1097 C1098 1.415 . S
C1098 H1074 0.950 . S
C1098 C1093 1.363 . S
C1098 C1097 1.415 . S
C1099 H1075 0.951 . S
C1099 C1100 1.366 . S
C1099 C1101 1.388 . S
C1100 C1099 1.366 . S
C1100 C1104 1.385 . S
C1101 H1076 0.951 . S
C1101 C1099 1.388 . S
C1101 C1102 1.366 . S
C1102 C1101 1.366 . S
C1102 C1103 1.414 . S
C1102 C1105 1.499 . S
C1103 H1077 0.950 . S
C1103 C1102 1.414 . S
C1103 C1104 1.374 . S
C1104 H1078 0.950 . S
C1104 C1100 1.385 . S
C1104 C1103 1.374 . S
C1105 C1102 1.499 . S
C1105 C1106 1.373 . S
C1105 C1107 1.389 . S
C1106 H1079 0.950 . S
C1106 C1092 1.377 . S
C1106 C1105 1.373 . S
C1107 C1091 1.377 . S
C1107 C1105 1.389 . S
C1107 C1108 1.524 . S
C1108 C1107 1.524 . S
C1108 C1109 1.397 . S
C1108 C1113 1.363 . S
C1109 H1080 0.950 . S
C1109 C1108 1.397 . S
C1109 C1110 1.334 . S
C1110 H1081 0.950 . S
C1110 C1109 1.334 . S
C1110 C1111 1.287 . S
C1111 C1110 1.287 . S
C1111 C1112 1.524 . S
C1111 H1114 0.999 . S
C1112 H1082 0.950 . S
C1112 C1111 1.524 . S
C1112 C1113 1.415 . S
C1113 H1083 0.950 . S
C1113 C1108 1.363 . S
C1113 C1112 1.415 . S
H1114 C1111 0.999 . S
H1115 C1096 0.913 . S
H1116 C1134 0.951 . S
H1117 C1136 0.951 . S
H1118 C1138 0.950 . S
H1119 C1139 0.950 . S
H1120 C1141 0.950 . S
H1121 C1144 0.950 . S
H1122 C1145 0.950 . S
H1123 C1147 0.950 . S
H1124 C1148 0.950 . S
H1125 C1149 0.951 . S
H1126 C1151 0.951 . S
H1127 C1153 0.950 . S
H1128 C1154 0.950 . S
H1129 C1156 0.950 . S
H1130 C1159 0.950 . S
H1131 C1160 0.950 . S
H1132 C1162 0.950 . S
H1133 C1163 0.950 . S
C1134 H1116 0.951 . S
C1134 C1135 1.366 . S
C1134 C1136 1.388 . S
C1135 C1134 1.366 . S
C1135 C1139 1.385 . S
C1136 H1117 0.951 . S
C1136 C1134 1.388 . S
C1136 C1137 1.366 . S
C1137 C1136 1.366 . S
C1137 C1138 1.414 . S
C1137 C1140 1.499 . S
C1138 H1118 0.950 . S
C1138 C1137 1.414 . S
C1138 C1139 1.374 . S
C1139 H1119 0.950 . S
C1139 C1135 1.385 . S
C1139 C1138 1.374 . S
C1140 C1137 1.499 . S
C1140 C1141 1.373 . S
C1140 C1142 1.389 . S
C1141 H1120 0.950 . S
C1141 C1140 1.373 . S
C1141 C1157 1.377 . S
C1142 C1140 1.389 . S
C1142 C1143 1.524 . S
C1142 C1156 1.377 . S
C1143 C1142 1.524 . S
C1143 C1144 1.397 . S
C1143 C1148 1.363 . S
C1144 H1121 0.950 . S
C1144 C1143 1.397 . S
C1144 C1145 1.334 . S
C1145 H1122 0.950 . S
C1145 C1144 1.334 . S
C1145 C1146 1.287 . S
C1146 C1145 1.287 . S
C1146 C1147 1.524 . S
C1146 H1165 0.913 . S
C1147 H1123 0.950 . S
C1147 C1146 1.524 . S
C1147 C1148 1.415 . S
C1148 H1124 0.950 . S
C1148 C1143 1.363 . S
C1148 C1147 1.415 . S
C1149 H1125 0.951 . S
C1149 C1150 1.366 . S
C1149 C1151 1.388 . S
C1150 C1149 1.366 . S
C1150 C1154 1.385 . S
C1151 H1126 0.951 . S
C1151 C1149 1.388 . S
C1151 C1152 1.366 . S
C1152 C1151 1.366 . S
C1152 C1153 1.414 . S
C1152 C1155 1.499 . S
C1153 H1127 0.950 . S
C1153 C1152 1.414 . S
C1153 C1154 1.374 . S
C1154 H1128 0.950 . S
C1154 C1150 1.385 . S
C1154 C1153 1.374 . S
C1155 C1152 1.499 . S
C1155 C1156 1.373 . S
C1155 C1157 1.389 . S
C1156 H1129 0.950 . S
C1156 C1142 1.377 . S
C1156 C1155 1.373 . S
C1157 C1141 1.377 . S
C1157 C1155 1.389 . S
C1157 C1158 1.524 . S
C1158 C1157 1.524 . S
C1158 C1159 1.397 . S
C1158 C1163 1.363 . S
C1159 H1130 0.950 . S
C1159 C1158 1.397 . S
C1159 C1160 1.334 . S
C1160 H1131 0.950 . S
C1160 C1159 1.334 . S
C1160 C1161 1.287 . S
C1161 C1160 1.287 . S
C1161 C1162 1.524 . S
C1161 H1164 0.999 . S
C1162 H1132 0.950 . S
C1162 C1161 1.524 . S
C1162 C1163 1.415 . S
C1163 H1133 0.950 . S
C1163 C1158 1.363 . S
C1163 C1162 1.415 . S
H1164 C1161 0.999 . S
H1165 C1146 0.913 . S
H1166 C1184 0.951 . S
H1167 C1186 0.951 . S
H1168 C1188 0.950 . S
H1169 C1189 0.950 . S
H1170 C1191 0.950 . S
H1171 C1194 0.950 . S
H1172 C1195 0.950 . S
H1173 C1197 0.950 . S
H1174 C1198 0.950 . S
H1175 C1199 0.951 . S
H1176 C1201 0.951 . S
H1177 C1203 0.950 . S
H1178 C1204 0.950 . S
H1179 C1206 0.950 . S
H1180 C1209 0.950 . S
H1181 C1210 0.950 . S
H1182 C1212 0.950 1_655 S
H1183 C1213 0.950 . S
C1184 H1166 0.951 . S
C1184 C1185 1.366 . S
C1184 C1186 1.388 . S
C1185 C1184 1.366 . S
C1185 C1189 1.385 . S
C1186 H1167 0.951 . S
C1186 C1184 1.388 . S
C1186 C1187 1.366 . S
C1187 C1186 1.366 . S
C1187 C1188 1.414 . S
C1187 C1190 1.499 . S
C1188 H1168 0.950 . S
C1188 C1187 1.414 . S
C1188 C1189 1.374 . S
C1189 H1169 0.950 . S
C1189 C1185 1.385 . S
C1189 C1188 1.374 . S
C1190 C1187 1.499 . S
C1190 C1191 1.373 . S
C1190 C1192 1.389 . S
C1191 H1170 0.950 . S
C1191 C1190 1.373 . S
C1191 C1207 1.377 . S
C1192 C1190 1.389 . S
C1192 C1193 1.524 . S
C1192 C1206 1.377 . S
C1193 C1192 1.524 . S
C1193 C1194 1.397 . S
C1193 C1198 1.363 . S
C1194 H1171 0.950 . S
C1194 C1193 1.397 . S
C1194 C1195 1.334 . S
C1195 H1172 0.950 . S
C1195 C1194 1.334 . S
C1195 C1196 1.287 . S
C1196 C1195 1.287 . S
C1196 C1197 1.524 . S
C1196 H1215 0.913 . S
C1197 H1173 0.950 . S
C1197 C1196 1.524 . S
C1197 C1198 1.415 . S
C1198 H1174 0.950 . S
C1198 C1193 1.363 . S
C1198 C1197 1.415 . S
C1199 H1175 0.951 . S
C1199 C1200 1.366 . S
C1199 C1201 1.388 . S
C1200 C1199 1.366 . S
C1200 C1204 1.385 . S
C1201 H1176 0.951 . S
C1201 C1199 1.388 . S
C1201 C1202 1.366 . S
C1202 C1201 1.366 . S
C1202 C1203 1.414 . S
C1202 C1205 1.499 . S
C1203 H1177 0.950 . S
C1203 C1202 1.414 . S
C1203 C1204 1.374 . S
C1204 H1178 0.950 . S
C1204 C1200 1.385 . S
C1204 C1203 1.374 . S
C1205 C1202 1.499 . S
C1205 C1206 1.373 . S
C1205 C1207 1.389 . S
C1206 H1179 0.950 . S
C1206 C1192 1.377 . S
C1206 C1205 1.373 . S
C1207 C1191 1.377 . S
C1207 C1205 1.389 . S
C1207 C1208 1.524 . S
C1208 C1207 1.524 . S
C1208 C1209 1.397 . S
C1208 C1213 1.363 . S
C1209 H1180 0.950 . S
C1209 C1208 1.397 . S
C1209 C1210 1.334 1_455 S
C1210 H1181 0.950 . S
C1210 C1209 1.334 1_655 S
C1210 C1211 1.287 . S
C1211 C1210 1.287 . S
C1211 C1212 1.524 1_655 S
C1211 H1214 0.999 . S
C1212 H1182 0.950 1_455 S
C1212 C1211 1.524 1_455 S
C1212 C1213 1.415 . S
C1213 H1183 0.950 . S
C1213 C1208 1.363 . S
C1213 C1212 1.415 . S
H1214 C1211 0.999 . S
H1215 C1196 0.913 . S
H1216 C1234 0.951 . S
H1217 C1236 0.951 . S
H1218 C1238 0.950 . S
H1219 C1239 0.950 . S
H1220 C1241 0.950 . S
H1221 C1244 0.950 . S
H1222 C1245 0.950 . S
H1223 C1247 0.950 . S
H1224 C1248 0.950 . S
H1225 C1249 0.951 . S
H1226 C1251 0.951 . S
H1227 C1253 0.950 . S
H1228 C1254 0.950 . S
H1229 C1256 0.950 . S
H1230 C1259 0.950 . S
H1231 C1260 0.950 . S
H1232 C1262 0.950 . S
H1233 C1263 0.950 . S
C1234 H1216 0.951 . S
C1234 C1235 1.366 . S
C1234 C1236 1.388 . S
C1235 C1234 1.366 . S
C1235 C1239 1.385 . S
C1236 H1217 0.951 . S
C1236 C1234 1.388 . S
C1236 C1237 1.366 . S
C1237 C1236 1.366 . S
C1237 C1238 1.414 . S
C1237 C1240 1.499 . S
C1238 H1218 0.950 . S
C1238 C1237 1.414 . S
C1238 C1239 1.374 . S
C1239 H1219 0.950 . S
C1239 C1235 1.385 . S
C1239 C1238 1.374 . S
C1240 C1237 1.499 . S
C1240 C1241 1.373 . S
C1240 C1242 1.389 . S
C1241 H1220 0.950 . S
C1241 C1240 1.373 . S
C1241 C1257 1.377 . S
C1242 C1240 1.389 . S
C1242 C1243 1.524 . S
C1242 C1256 1.377 . S
C1243 C1242 1.524 . S
C1243 C1244 1.397 . S
C1243 C1248 1.363 . S
C1244 H1221 0.950 . S
C1244 C1243 1.397 . S
C1244 C1245 1.334 . S
C1245 H1222 0.950 . S
C1245 C1244 1.334 . S
C1245 C1246 1.287 . S
C1246 C1245 1.287 . S
C1246 C1247 1.524 . S
C1246 H1265 0.913 . S
C1247 H1223 0.950 . S
C1247 C1246 1.524 . S
C1247 C1248 1.415 . S
C1248 H1224 0.950 . S
C1248 C1243 1.363 . S
C1248 C1247 1.415 . S
C1249 H1225 0.951 . S
C1249 C1250 1.366 . S
C1249 C1251 1.388 . S
C1250 C1249 1.366 . S
C1250 C1254 1.385 . S
C1251 H1226 0.951 . S
C1251 C1249 1.388 . S
C1251 C1252 1.366 . S
C1252 C1251 1.366 . S
C1252 C1253 1.414 . S
C1252 C1255 1.499 . S
C1253 H1227 0.950 . S
C1253 C1252 1.414 . S
C1253 C1254 1.374 . S
C1254 H1228 0.950 . S
C1254 C1250 1.385 . S
C1254 C1253 1.374 . S
C1255 C1252 1.499 . S
C1255 C1256 1.373 . S
C1255 C1257 1.389 . S
C1256 H1229 0.950 . S
C1256 C1242 1.377 . S
C1256 C1255 1.373 . S
C1257 C1241 1.377 . S
C1257 C1255 1.389 . S
C1257 C1258 1.524 . S
C1258 C1257 1.524 . S
C1258 C1259 1.397 . S
C1258 C1263 1.363 . S
C1259 H1230 0.950 . S
C1259 C1258 1.397 . S
C1259 C1260 1.334 . S
C1260 H1231 0.950 . S
C1260 C1259 1.334 . S
C1260 C1261 1.287 . S
C1261 C1260 1.287 . S
C1261 C1262 1.524 . S
C1261 H1264 0.999 . S
C1262 H1232 0.950 . S
C1262 C1261 1.524 . S
C1262 C1263 1.415 . S
C1263 H1233 0.950 . S
C1263 C1258 1.363 . S
C1263 C1262 1.415 . S
H1264 C1261 0.999 . S
H1265 C1246 0.913 . S
H1266 C1284 0.951 . S
H1267 C1286 0.951 . S
H1268 C1288 0.950 . S
H1269 C1289 0.950 . S
H1270 C1291 0.950 . S
H1271 C1294 0.950 . S
H1272 C1295 0.950 . S
H1273 C1297 0.950 . S
H1274 C1298 0.950 . S
H1275 C1299 0.951 . S
H1276 C1301 0.951 . S
H1277 C1303 0.950 . S
H1278 C1304 0.950 . S
H1279 C1306 0.950 . S
H1280 C1309 0.950 . S
H1281 C1310 0.950 . S
H1282 C1312 0.950 1_565 S
H1283 C1313 0.950 . S
C1284 H1266 0.951 . S
C1284 C1285 1.366 . S
C1284 C1286 1.388 . S
C1285 C1284 1.366 . S
C1285 C1289 1.385 . S
C1286 H1267 0.951 . S
C1286 C1284 1.388 . S
C1286 C1287 1.366 . S
C1287 C1286 1.366 . S
C1287 C1288 1.414 . S
C1287 C1290 1.499 . S
C1288 H1268 0.950 . S
C1288 C1287 1.414 . S
C1288 C1289 1.374 . S
C1289 H1269 0.950 . S
C1289 C1285 1.385 . S
C1289 C1288 1.374 . S
C1290 C1287 1.499 . S
C1290 C1291 1.373 . S
C1290 C1292 1.389 . S
C1291 H1270 0.950 . S
C1291 C1290 1.373 . S
C1291 C1307 1.377 . S
C1292 C1290 1.389 . S
C1292 C1293 1.524 . S
C1292 C1306 1.377 . S
C1293 C1292 1.524 . S
C1293 C1294 1.397 . S
C1293 C1298 1.363 . S
C1294 H1271 0.950 . S
C1294 C1293 1.397 . S
C1294 C1295 1.334 . S
C1295 H1272 0.950 . S
C1295 C1294 1.334 . S
C1295 C1296 1.287 . S
C1296 C1295 1.287 . S
C1296 C1297 1.524 . S
C1296 H1315 0.913 . S
C1297 H1273 0.950 . S
C1297 C1296 1.524 . S
C1297 C1298 1.415 . S
C1298 H1274 0.950 . S
C1298 C1293 1.363 . S
C1298 C1297 1.415 . S
C1299 H1275 0.951 . S
C1299 C1300 1.366 . S
C1299 C1301 1.388 . S
C1300 C1299 1.366 . S
C1300 C1304 1.385 . S
C1301 H1276 0.951 . S
C1301 C1299 1.388 . S
C1301 C1302 1.366 . S
C1302 C1301 1.366 . S
C1302 C1303 1.414 . S
C1302 C1305 1.499 . S
C1303 H1277 0.950 . S
C1303 C1302 1.414 . S
C1303 C1304 1.374 . S
C1304 H1278 0.950 . S
C1304 C1300 1.385 . S
C1304 C1303 1.374 . S
C1305 C1302 1.499 . S
C1305 C1306 1.373 . S
C1305 C1307 1.389 . S
C1306 H1279 0.950 . S
C1306 C1292 1.377 . S
C1306 C1305 1.373 . S
C1307 C1291 1.377 . S
C1307 C1305 1.389 . S
C1307 C1308 1.524 . S
C1308 C1307 1.524 . S
C1308 C1309 1.397 . S
C1308 C1313 1.363 . S
C1309 H1280 0.950 . S
C1309 C1308 1.397 . S
C1309 C1310 1.334 . S
C1310 H1281 0.950 . S
C1310 C1309 1.334 . S
C1310 C1311 1.287 . S
C1311 C1310 1.287 . S
C1311 C1312 1.524 . S
C1311 H1314 0.999 . S
C1312 H1282 0.950 1_545 S
C1312 C1311 1.524 . S
C1312 C1313 1.415 . S
C1313 H1283 0.950 . S
C1313 C1308 1.363 . S
C1313 C1312 1.415 . S
H1314 C1311 0.999 . S
H1315 C1296 0.913 . S
H1316 C1334 0.951 . S
H1317 C1336 0.951 . S
H1318 C1338 0.950 . S
H1319 C1339 0.950 . S
H1320 C1341 0.950 . S
H1321 C1344 0.950 . S
H1322 C1345 0.950 . S
H1323 C1347 0.950 . S
H1324 C1348 0.950 . S
H1325 C1349 0.951 . S
H1326 C1351 0.951 . S
H1327 C1353 0.950 . S
H1328 C1354 0.950 . S
H1329 C1356 0.950 . S
H1330 C1359 0.950 . S
H1331 C1360 0.950 . S
H1332 C1362 0.950 . S
H1333 C1363 0.950 . S
C1334 H1316 0.951 . S
C1334 C1335 1.366 . S
C1334 C1336 1.388 . S
C1335 C1334 1.366 . S
C1335 C1339 1.385 . S
C1336 H1317 0.951 . S
C1336 C1334 1.388 . S
C1336 C1337 1.366 . S
C1337 C1336 1.366 . S
C1337 C1338 1.414 . S
C1337 C1340 1.499 . S
C1338 H1318 0.950 . S
C1338 C1337 1.414 . S
C1338 C1339 1.374 . S
C1339 H1319 0.950 . S
C1339 C1335 1.385 . S
C1339 C1338 1.374 . S
C1340 C1337 1.499 . S
C1340 C1341 1.373 . S
C1340 C1342 1.389 . S
C1341 H1320 0.950 . S
C1341 C1340 1.373 . S
C1341 C1357 1.377 . S
C1342 C1340 1.389 . S
C1342 C1343 1.524 . S
C1342 C1356 1.377 . S
C1343 C1342 1.524 . S
C1343 C1344 1.397 . S
C1343 C1348 1.363 . S
C1344 H1321 0.950 . S
C1344 C1343 1.397 . S
C1344 C1345 1.334 . S
C1345 H1322 0.950 . S
C1345 C1344 1.334 . S
C1345 C1346 1.287 . S
C1346 C1345 1.287 . S
C1346 C1347 1.524 . S
C1346 H1365 0.913 . S
C1347 H1323 0.950 . S
C1347 C1346 1.524 . S
C1347 C1348 1.415 . S
C1348 H1324 0.950 . S
C1348 C1343 1.363 . S
C1348 C1347 1.415 . S
C1349 H1325 0.951 . S
C1349 C1350 1.366 . S
C1349 C1351 1.388 . S
C1350 C1349 1.366 . S
C1350 C1354 1.385 . S
C1351 H1326 0.951 . S
C1351 C1349 1.388 . S
C1351 C1352 1.366 . S
C1352 C1351 1.366 . S
C1352 C1353 1.414 . S
C1352 C1355 1.499 . S
C1353 H1327 0.950 . S
C1353 C1352 1.414 . S
C1353 C1354 1.374 . S
C1354 H1328 0.950 . S
C1354 C1350 1.385 . S
C1354 C1353 1.374 . S
C1355 C1352 1.499 . S
C1355 C1356 1.373 . S
C1355 C1357 1.389 . S
C1356 H1329 0.950 . S
C1356 C1342 1.377 . S
C1356 C1355 1.373 . S
C1357 C1341 1.377 . S
C1357 C1355 1.389 . S
C1357 C1358 1.524 . S
C1358 C1357 1.524 . S
C1358 C1359 1.397 . S
C1358 C1363 1.363 . S
C1359 H1330 0.950 . S
C1359 C1358 1.397 . S
C1359 C1360 1.334 . S
C1360 H1331 0.950 . S
C1360 C1359 1.334 . S
C1360 C1361 1.287 . S
C1361 C1360 1.287 . S
C1361 C1362 1.524 . S
C1361 H1364 0.999 . S
C1362 H1332 0.950 . S
C1362 C1361 1.524 . S
C1362 C1363 1.415 . S
C1363 H1333 0.950 . S
C1363 C1358 1.363 . S
C1363 C1362 1.415 . S
H1364 C1361 0.999 . S
H1365 C1346 0.913 . S
H1366 C1384 0.951 . S
H1367 C1386 0.951 . S
H1368 C1388 0.950 . S
H1369 C1389 0.950 . S
H1370 C1391 0.950 . S
H1371 C1394 0.950 . S
H1372 C1395 0.950 . S
H1373 C1397 0.950 . S
H1374 C1398 0.950 . S
H1375 C1399 0.951 . S
H1376 C1401 0.951 . S
H1377 C1403 0.950 . S
H1378 C1404 0.950 . S
H1379 C1406 0.950 . S
H1380 C1409 0.950 . S
H1381 C1410 0.950 . S
H1382 C1412 0.950 . S
H1383 C1413 0.950 . S
C1384 H1366 0.951 . S
C1384 C1385 1.366 . S
C1384 C1386 1.388 . S
C1385 C1384 1.366 . S
C1385 C1389 1.385 . S
C1386 H1367 0.951 . S
C1386 C1384 1.388 . S
C1386 C1387 1.366 . S
C1387 C1386 1.366 . S
C1387 C1388 1.414 . S
C1387 C1390 1.499 . S
C1388 H1368 0.950 . S
C1388 C1387 1.414 . S
C1388 C1389 1.374 . S
C1389 H1369 0.950 . S
C1389 C1385 1.385 . S
C1389 C1388 1.374 . S
C1390 C1387 1.499 . S
C1390 C1391 1.373 . S
C1390 C1392 1.389 . S
C1391 H1370 0.950 . S
C1391 C1390 1.373 . S
C1391 C1407 1.377 . S
C1392 C1390 1.389 . S
C1392 C1393 1.524 . S
C1392 C1406 1.377 . S
C1393 C1392 1.524 . S
C1393 C1394 1.397 . S
C1393 C1398 1.363 . S
C1394 H1371 0.950 . S
C1394 C1393 1.397 . S
C1394 C1395 1.334 . S
C1395 H1372 0.950 . S
C1395 C1394 1.334 . S
C1395 C1396 1.287 . S
C1396 C1395 1.287 . S
C1396 C1397 1.524 . S
C1396 H1415 0.913 . S
C1397 H1373 0.950 . S
C1397 C1396 1.524 . S
C1397 C1398 1.415 . S
C1398 H1374 0.950 . S
C1398 C1393 1.363 . S
C1398 C1397 1.415 . S
C1399 H1375 0.951 . S
C1399 C1400 1.366 . S
C1399 C1401 1.388 . S
C1400 C1399 1.366 . S
C1400 C1404 1.385 . S
C1401 H1376 0.951 . S
C1401 C1399 1.388 . S
C1401 C1402 1.366 . S
C1402 C1401 1.366 . S
C1402 C1403 1.414 . S
C1402 C1405 1.499 . S
C1403 H1377 0.950 . S
C1403 C1402 1.414 . S
C1403 C1404 1.374 . S
C1404 H1378 0.950 . S
C1404 C1400 1.385 . S
C1404 C1403 1.374 . S
C1405 C1402 1.499 . S
C1405 C1406 1.373 . S
C1405 C1407 1.389 . S
C1406 H1379 0.950 . S
C1406 C1392 1.377 . S
C1406 C1405 1.373 . S
C1407 C1391 1.377 . S
C1407 C1405 1.389 . S
C1407 C1408 1.524 . S
C1408 C1407 1.524 . S
C1408 C1409 1.397 . S
C1408 C1413 1.363 . S
C1409 H1380 0.950 . S
C1409 C1408 1.397 . S
C1409 C1410 1.334 . S
C1410 H1381 0.950 . S
C1410 C1409 1.334 . S
C1410 C1411 1.287 . S
C1411 C1410 1.287 . S
C1411 C1412 1.524 . S
C1411 H1414 0.999 . S
C1412 H1382 0.950 . S
C1412 C1411 1.524 . S
C1412 C1413 1.415 . S
C1413 H1383 0.950 . S
C1413 C1408 1.363 . S
C1413 C1412 1.415 . S
H1414 C1411 0.999 . S
H1415 C1396 0.913 . S
H1416 C1434 0.951 . S
H1417 C1436 0.951 . S
H1418 C1438 0.950 . S
H1419 C1439 0.950 . S
H1420 C1441 0.950 . S
H1421 C1444 0.950 . S
H1422 C1445 0.950 . S
H1423 C1447 0.950 . S
H1424 C1448 0.950 . S
H1425 C1449 0.951 . S
H1426 C1451 0.951 . S
H1427 C1453 0.950 . S
H1428 C1454 0.950 . S
H1429 C1456 0.950 . S
H1430 C1459 0.950 . S
H1431 C1460 0.950 . S
H1432 C1462 0.950 . S
H1433 C1463 0.950 . S
C1434 H1416 0.951 . S
C1434 C1435 1.366 . S
C1434 C1436 1.388 . S
C1435 C1434 1.366 . S
C1435 C1439 1.385 . S
C1436 H1417 0.951 . S
C1436 C1434 1.388 . S
C1436 C1437 1.366 . S
C1437 C1436 1.366 . S
C1437 C1438 1.414 . S
C1437 C1440 1.499 . S
C1438 H1418 0.950 . S
C1438 C1437 1.414 . S
C1438 C1439 1.374 . S
C1439 H1419 0.950 . S
C1439 C1435 1.385 . S
C1439 C1438 1.374 . S
C1440 C1437 1.499 . S
C1440 C1441 1.373 . S
C1440 C1442 1.389 . S
C1441 H1420 0.950 . S
C1441 C1440 1.373 . S
C1441 C1457 1.377 . S
C1442 C1440 1.389 . S
C1442 C1443 1.524 . S
C1442 C1456 1.377 . S
C1443 C1442 1.524 . S
C1443 C1444 1.397 . S
C1443 C1448 1.363 . S
C1444 H1421 0.950 . S
C1444 C1443 1.397 . S
C1444 C1445 1.334 . S
C1445 H1422 0.950 . S
C1445 C1444 1.334 . S
C1445 C1446 1.287 . S
C1446 C1445 1.287 . S
C1446 C1447 1.524 . S
C1446 H1465 0.913 . S
C1447 H1423 0.950 . S
C1447 C1446 1.524 . S
C1447 C1448 1.415 . S
C1448 H1424 0.950 . S
C1448 C1443 1.363 . S
C1448 C1447 1.415 . S
C1449 H1425 0.951 . S
C1449 C1450 1.366 . S
C1449 C1451 1.388 . S
C1450 C1449 1.366 . S
C1450 C1454 1.385 . S
C1451 H1426 0.951 . S
C1451 C1449 1.388 . S
C1451 C1452 1.366 . S
C1452 C1451 1.366 . S
C1452 C1453 1.414 . S
C1452 C1455 1.499 . S
C1453 H1427 0.950 . S
C1453 C1452 1.414 . S
C1453 C1454 1.374 . S
C1454 H1428 0.950 . S
C1454 C1450 1.385 . S
C1454 C1453 1.374 . S
C1455 C1452 1.499 . S
C1455 C1456 1.373 . S
C1455 C1457 1.389 . S
C1456 H1429 0.950 . S
C1456 C1442 1.377 . S
C1456 C1455 1.373 . S
C1457 C1441 1.377 . S
C1457 C1455 1.389 . S
C1457 C1458 1.524 . S
C1458 C1457 1.524 . S
C1458 C1459 1.397 . S
C1458 C1463 1.363 . S
C1459 H1430 0.950 . S
C1459 C1458 1.397 . S
C1459 C1460 1.334 . S
C1460 H1431 0.950 . S
C1460 C1459 1.334 . S
C1460 C1461 1.287 . S
C1461 C1460 1.287 . S
C1461 C1462 1.524 . S
C1461 H1464 0.999 . S
C1462 H1432 0.950 . S
C1462 C1461 1.524 . S
C1462 C1463 1.415 . S
C1463 H1433 0.950 . S
C1463 C1458 1.363 . S
C1463 C1462 1.415 . S
H1464 C1461 0.999 . S
H1465 C1446 0.913 . S
H1466 C1484 0.951 . S
H1467 C1486 0.951 . S
H1468 C1488 0.950 . S
H1469 C1489 0.950 . S
H1470 C1491 0.950 . S
H1471 C1494 0.950 . S
H1472 C1495 0.950 . S
H1473 C1497 0.950 . S
H1474 C1498 0.950 . S
H1475 C1499 0.951 . S
H1476 C1501 0.951 . S
H1477 C1503 0.950 . S
H1478 C1504 0.950 . S
H1479 C1506 0.950 . S
H1480 C1509 0.950 . S
H1481 C1510 0.951 1_556 S
H1482 C1512 0.950 1_556 S
H1483 C1513 0.950 . S
C1484 H1466 0.951 . S
C1484 C1485 1.366 . S
C1484 C1486 1.388 . S
C1485 C1484 1.366 . S
C1485 C1489 1.385 . S
C1486 H1467 0.951 . S
C1486 C1484 1.388 . S
C1486 C1487 1.366 . S
C1487 C1486 1.366 . S
C1487 C1488 1.414 . S
C1487 C1490 1.499 . S
C1488 H1468 0.950 . S
C1488 C1487 1.414 . S
C1488 C1489 1.374 . S
C1489 H1469 0.950 . S
C1489 C1485 1.385 . S
C1489 C1488 1.374 . S
C1490 C1487 1.499 . S
C1490 C1491 1.373 . S
C1490 C1492 1.389 . S
C1491 H1470 0.950 . S
C1491 C1490 1.373 . S
C1491 C1507 1.377 . S
C1492 C1490 1.389 . S
C1492 C1493 1.524 . S
C1492 C1506 1.377 . S
C1493 C1492 1.524 . S
C1493 C1494 1.397 . S
C1493 C1498 1.363 . S
C1494 H1471 0.950 . S
C1494 C1493 1.397 . S
C1494 C1495 1.334 . S
C1495 H1472 0.950 . S
C1495 C1494 1.334 . S
C1495 C1496 1.287 . S
C1496 C1495 1.287 . S
C1496 C1497 1.524 . S
C1496 H1515 0.913 . S
C1497 H1473 0.950 . S
C1497 C1496 1.524 . S
C1497 C1498 1.415 . S
C1498 H1474 0.950 . S
C1498 C1493 1.363 . S
C1498 C1497 1.415 . S
C1499 H1475 0.951 . S
C1499 C1500 1.366 . S
C1499 C1501 1.388 . S
C1500 C1499 1.366 . S
C1500 C1504 1.385 . S
C1501 H1476 0.951 . S
C1501 C1499 1.388 . S
C1501 C1502 1.366 . S
C1502 C1501 1.366 . S
C1502 C1503 1.414 . S
C1502 C1505 1.499 . S
C1503 H1477 0.950 . S
C1503 C1502 1.414 . S
C1503 C1504 1.374 . S
C1504 H1478 0.950 . S
C1504 C1500 1.385 . S
C1504 C1503 1.374 . S
C1505 C1502 1.499 . S
C1505 C1506 1.373 . S
C1505 C1507 1.389 . S
C1506 H1479 0.950 . S
C1506 C1492 1.377 . S
C1506 C1505 1.373 . S
C1507 C1491 1.377 . S
C1507 C1505 1.389 . S
C1507 C1508 1.524 . S
C1508 C1507 1.524 . S
C1508 C1509 1.397 . S
C1508 C1513 1.363 . S
C1509 H1480 0.950 . S
C1509 C1508 1.397 . S
C1509 C1510 1.332 . S
C1510 H1481 0.951 1_554 S
C1510 C1509 1.332 . S
C1510 C1511 1.288 1_554 S
C1511 C1510 1.288 1_556 S
C1511 C1512 1.524 1_556 S
C1511 H1514 0.999 . S
C1512 H1482 0.950 1_554 S
C1512 C1511 1.524 1_554 S
C1512 C1513 1.415 . S
C1513 H1483 0.950 . S
C1513 C1508 1.363 . S
C1513 C1512 1.415 . S
H1514 C1511 0.999 . S
H1515 C1496 0.913 . S
H1516 C1534 0.951 . S
H1517 C1536 0.951 . S
H1518 C1538 0.950 . S
H1519 C1539 0.950 . S
H1520 C1541 0.950 . S
H1521 C1544 0.950 . S
H1522 C1545 0.950 . S
H1523 C1547 0.950 1_655 S
H1524 C1548 0.950 . S
H1525 C1549 0.951 . S
H1526 C1551 0.951 . S
H1527 C1553 0.950 . S
H1528 C1554 0.950 . S
H1529 C1556 0.950 . S
H1530 C1559 0.950 . S
H1531 C1560 0.950 . S
H1532 C1562 0.950 . S
H1533 C1563 0.950 . S
C1534 H1516 0.951 . S
C1534 C1535 1.366 . S
C1534 C1536 1.388 . S
C1535 C1534 1.366 . S
C1535 C1539 1.385 . S
C1536 H1517 0.951 . S
C1536 C1534 1.388 . S
C1536 C1537 1.366 . S
C1537 C1536 1.366 . S
C1537 C1538 1.414 . S
C1537 C1540 1.499 . S
C1538 H1518 0.950 . S
C1538 C1537 1.414 . S
C1538 C1539 1.374 . S
C1539 H1519 0.950 . S
C1539 C1535 1.385 . S
C1539 C1538 1.374 . S
C1540 C1537 1.499 . S
C1540 C1541 1.373 . S
C1540 C1542 1.389 . S
C1541 H1520 0.950 . S
C1541 C1540 1.373 . S
C1541 C1557 1.377 . S
C1542 C1540 1.389 . S
C1542 C1543 1.524 . S
C1542 C1556 1.377 . S
C1543 C1542 1.524 . S
C1543 C1544 1.397 . S
C1543 C1548 1.363 . S
C1544 H1521 0.950 . S
C1544 C1543 1.397 . S
C1544 C1545 1.334 . S
C1545 H1522 0.950 . S
C1545 C1544 1.334 . S
C1545 C1546 1.287 . S
C1546 C1545 1.287 . S
C1546 C1547 1.524 . S
C1546 H1565 0.913 1_455 S
C1547 H1523 0.950 1_455 S
C1547 C1546 1.524 . S
C1547 C1548 1.415 . S
C1548 H1524 0.950 . S
C1548 C1543 1.363 . S
C1548 C1547 1.415 . S
C1549 H1525 0.951 . S
C1549 C1550 1.366 . S
C1549 C1551 1.388 . S
C1550 C1549 1.366 . S
C1550 C1554 1.385 . S
C1551 H1526 0.951 . S
C1551 C1549 1.388 . S
C1551 C1552 1.366 . S
C1552 C1551 1.366 . S
C1552 C1553 1.414 . S
C1552 C1555 1.499 . S
C1553 H1527 0.950 . S
C1553 C1552 1.414 . S
C1553 C1554 1.374 . S
C1554 H1528 0.950 . S
C1554 C1550 1.385 . S
C1554 C1553 1.374 . S
C1555 C1552 1.499 . S
C1555 C1556 1.373 . S
C1555 C1557 1.389 . S
C1556 H1529 0.950 . S
C1556 C1542 1.377 . S
C1556 C1555 1.373 . S
C1557 C1541 1.377 . S
C1557 C1555 1.389 . S
C1557 C1558 1.524 . S
C1558 C1557 1.524 . S
C1558 C1559 1.397 . S
C1558 C1563 1.363 . S
C1559 H1530 0.950 . S
C1559 C1558 1.397 . S
C1559 C1560 1.334 . S
C1560 H1531 0.950 . S
C1560 C1559 1.334 . S
C1560 C1561 1.287 . S
C1561 C1560 1.287 . S
C1561 C1562 1.524 . S
C1561 H1564 0.999 . S
C1562 H1532 0.950 . S
C1562 C1561 1.524 . S
C1562 C1563 1.415 . S
C1563 H1533 0.950 . S
C1563 C1558 1.363 . S
C1563 C1562 1.415 . S
H1564 C1561 0.999 . S
H1565 C1546 0.913 1_655 S
H1566 C1584 0.951 . S
H1567 C1586 0.951 . S
H1568 C1588 0.950 . S
H1569 C1589 0.950 . S
H1570 C1591 0.950 . S
H1571 C1594 0.950 . S
H1572 C1595 0.950 . S
H1573 C1597 0.950 . S
H1574 C1598 0.950 . S
H1575 C1599 0.951 . S
H1576 C1601 0.951 . S
H1577 C1603 0.950 . S
H1578 C1604 0.950 . S
H1579 C1606 0.950 . S
H1580 C1609 0.950 . S
H1581 C1610 0.950 . S
H1582 C1612 0.950 . S
H1583 C1613 0.950 . S
C1584 H1566 0.951 . S
C1584 C1585 1.366 . S
C1584 C1586 1.388 . S
C1585 C1584 1.366 . S
C1585 C1589 1.385 . S
C1586 H1567 0.951 . S
C1586 C1584 1.388 . S
C1586 C1587 1.366 . S
C1587 C1586 1.366 . S
C1587 C1588 1.414 . S
C1587 C1590 1.499 . S
C1588 H1568 0.950 . S
C1588 C1587 1.414 . S
C1588 C1589 1.374 . S
C1589 H1569 0.950 . S
C1589 C1585 1.385 . S
C1589 C1588 1.374 . S
C1590 C1587 1.499 . S
C1590 C1591 1.373 . S
C1590 C1592 1.389 . S
C1591 H1570 0.950 . S
C1591 C1590 1.373 . S
C1591 C1607 1.377 . S
C1592 C1590 1.389 . S
C1592 C1593 1.524 . S
C1592 C1606 1.377 . S
C1593 C1592 1.524 . S
C1593 C1594 1.397 . S
C1593 C1598 1.363 . S
C1594 H1571 0.950 . S
C1594 C1593 1.397 . S
C1594 C1595 1.334 . S
C1595 H1572 0.950 . S
C1595 C1594 1.334 . S
C1595 C1596 1.287 . S
C1596 C1595 1.287 . S
C1596 C1597 1.524 . S
C1596 H1615 0.913 . S
C1597 H1573 0.950 . S
C1597 C1596 1.524 . S
C1597 C1598 1.415 . S
C1598 H1574 0.950 . S
C1598 C1593 1.363 . S
C1598 C1597 1.415 . S
C1599 H1575 0.951 . S
C1599 C1600 1.366 . S
C1599 C1601 1.388 . S
C1600 C1599 1.366 . S
C1600 C1604 1.385 . S
C1601 H1576 0.951 . S
C1601 C1599 1.388 . S
C1601 C1602 1.366 . S
C1602 C1601 1.366 . S
C1602 C1603 1.414 . S
C1602 C1605 1.499 . S
C1603 H1577 0.950 . S
C1603 C1602 1.414 . S
C1603 C1604 1.374 . S
C1604 H1578 0.950 . S
C1604 C1600 1.385 . S
C1604 C1603 1.374 . S
C1605 C1602 1.499 . S
C1605 C1606 1.373 . S
C1605 C1607 1.389 . S
C1606 H1579 0.950 . S
C1606 C1592 1.377 . S
C1606 C1605 1.373 . S
C1607 C1591 1.377 . S
C1607 C1605 1.389 . S
C1607 C1608 1.524 . S
C1608 C1607 1.524 . S
C1608 C1609 1.397 . S
C1608 C1613 1.363 . S
C1609 H1580 0.950 . S
C1609 C1608 1.397 . S
C1609 C1610 1.334 . S
C1610 H1581 0.950 . S
C1610 C1609 1.334 . S
C1610 C1611 1.287 . S
C1611 C1610 1.287 . S
C1611 C1612 1.524 . S
C1611 H1614 0.999 . S
C1612 H1582 0.950 . S
C1612 C1611 1.524 . S
C1612 C1613 1.415 . S
C1613 H1583 0.950 . S
C1613 C1608 1.363 . S
C1613 C1612 1.415 . S
H1614 C1611 0.999 . S
H1615 C1596 0.913 . S
C435 C29 1.207 . S
C450 C262 1.205 . S
C485 C49 0.877 . S
C500 C311 0.883 . S
C550 C346 2.486 . S
C535 C93 2.483 . S
C585 C119 2.231 . S
C600 C385 2.223 . S
C650 C306 2.331 . S
C635 C17 2.325 . S
C700 C265 0.907 . S
C685 C61 0.927 . S
C750 C395 1.861 . S
C735 C81 1.878 . S
C800 C354 1.581 . S
C785 C125 1.571 . S
C835 C23 1.634 . S
C850 C382 1.637 . S
C900 C314 2.280 . S
C885 C87 2.322 . S
C935 C113 2.327 . S
C950 C275 2.362 . S
C985 C55 0.725 . S
C1000 C351 0.721 . S
C1050 C271 1.167 . S
C1035 C157 1.064 . S
C1085 C189 0.934 . S
C1100 C302 0.945 . S
C1135 C221 2.435 . S
C1150 C355 2.440 . S
C1185 C253 2.311 . S
C1200 C394 2.315 . S
C1235 C145 2.229 . S
C1250 C315 2.422 . S
C1300 C274 0.848 . S
C1285 C183 0.856 . S
C1350 C386 1.907 . S
C1335 C209 1.906 . S
C1400 C345 1.527 . S
C1385 C247 1.520 . S
C1435 C151 1.523 . S
C1450 C391 1.650 . S
C1500 C305 2.278 . S
C1485 C215 2.313 . S
C1550 C266 2.313 . S
C1535 C241 2.271 . S
C1585 C177 0.716 . S
C1600 C342 0.715 . S
