# Generated by pormake.
# Topology pto, (3,4)-cn, num edge types: 1
# Building blocks:
#     Node 0, Type 0, BuildingBlock: OLANEW_clean_sbu_2, # of connection points: 3
#     Node 1, Type 0, BuildingBlock: OLANEW_clean_sbu_2, # of connection points: 3
#     Node 2, Type 0, BuildingBlock: OLANEW_clean_sbu_2, # of connection points: 3
#     Node 3, Type 0, BuildingBlock: OLANEW_clean_sbu_2, # of connection points: 3
#     Node 4, Type 0, BuildingBlock: OLANEW_clean_sbu_2, # of connection points: 3
#     Node 5, Type 0, BuildingBlock: OLANEW_clean_sbu_2, # of connection points: 3
#     Node 6, Type 0, BuildingBlock: OLANEW_clean_sbu_2, # of connection points: 3
#     Node 7, Type 0, BuildingBlock: OLANEW_clean_sbu_2, # of connection points: 3
#     Node 8, Type 1, BuildingBlock: AZAVOO_clean_linker_0, # of connection points: 4
#     Node 9, Type 1, BuildingBlock: AZAVOO_clean_linker_0, # of connection points: 4
#     Node 10, Type 1, BuildingBlock: AZAVOO_clean_linker_0, # of connection points: 4
#     Node 11, Type 1, BuildingBlock: AZAVOO_clean_linker_0, # of connection points: 4
#     Node 12, Type 1, BuildingBlock: AZAVOO_clean_linker_0, # of connection points: 4
#     Node 13, Type 1, BuildingBlock: AZAVOO_clean_linker_0, # of connection points: 4
#     Edge 14, Type (0, 1), BuildingBlock: KIFKEQ_clean_linker_1, # of connection points: 2
#     Edge 15, Type (0, 1), BuildingBlock: KIFKEQ_clean_linker_1, # of connection points: 2
#     Edge 16, Type (0, 1), BuildingBlock: KIFKEQ_clean_linker_1, # of connection points: 2
#     Edge 17, Type (0, 1), BuildingBlock: KIFKEQ_clean_linker_1, # of connection points: 2
#     Edge 18, Type (0, 1), BuildingBlock: KIFKEQ_clean_linker_1, # of connection points: 2
#     Edge 19, Type (0, 1), BuildingBlock: KIFKEQ_clean_linker_1, # of connection points: 2
#     Edge 20, Type (0, 1), BuildingBlock: KIFKEQ_clean_linker_1, # of connection points: 2
#     Edge 21, Type (0, 1), BuildingBlock: KIFKEQ_clean_linker_1, # of connection points: 2
#     Edge 22, Type (0, 1), BuildingBlock: KIFKEQ_clean_linker_1, # of connection points: 2
#     Edge 23, Type (0, 1), BuildingBlock: KIFKEQ_clean_linker_1, # of connection points: 2
#     Edge 24, Type (0, 1), BuildingBlock: KIFKEQ_clean_linker_1, # of connection points: 2
#     Edge 25, Type (0, 1), BuildingBlock: KIFKEQ_clean_linker_1, # of connection points: 2
#     Edge 26, Type (0, 1), BuildingBlock: KIFKEQ_clean_linker_1, # of connection points: 2
#     Edge 27, Type (0, 1), BuildingBlock: KIFKEQ_clean_linker_1, # of connection points: 2
#     Edge 28, Type (0, 1), BuildingBlock: KIFKEQ_clean_linker_1, # of connection points: 2
#     Edge 29, Type (0, 1), BuildingBlock: KIFKEQ_clean_linker_1, # of connection points: 2
#     Edge 30, Type (0, 1), BuildingBlock: KIFKEQ_clean_linker_1, # of connection points: 2
#     Edge 31, Type (0, 1), BuildingBlock: KIFKEQ_clean_linker_1, # of connection points: 2
#     Edge 32, Type (0, 1), BuildingBlock: KIFKEQ_clean_linker_1, # of connection points: 2
#     Edge 33, Type (0, 1), BuildingBlock: KIFKEQ_clean_linker_1, # of connection points: 2
#     Edge 34, Type (0, 1), BuildingBlock: KIFKEQ_clean_linker_1, # of connection points: 2
#     Edge 35, Type (0, 1), BuildingBlock: KIFKEQ_clean_linker_1, # of connection points: 2
#     Edge 36, Type (0, 1), BuildingBlock: KIFKEQ_clean_linker_1, # of connection points: 2
#     Edge 37, Type (0, 1), BuildingBlock: KIFKEQ_clean_linker_1, # of connection points: 2
# Relax obj value: 0.067
# Max RMSD: 0.223
# Mean RMSD: 0.134
data_MOF--net-pto--node1-OLANEW_clean_sbu_2--node2-AZAVOO_clean_linker_0--edge1-KIFKEQ_clean_linker_1
_symmetry_space_group_name_H-M    P1
_symmetry_Int_Tables_number       1
_symmetry_cell_setting            triclinic
loop_
_symmetry_equiv_pos_as_xyz
'x, y, z'
_cell_length_a     46.465903
_cell_length_b     51.027569
_cell_length_c     51.569975
_cell_angle_alpha  92.618767
_cell_angle_beta   89.313699
_cell_angle_gamma 118.22209
loop_
_atom_site_label
_atom_site_type_symbol
_atom_site_fract_x
_atom_site_fract_y
_atom_site_fract_z
_atom_type_partial_charge
O0 O 0.32555 0.48601 0.24841 0.0
Cd1 Cd 0.32319 0.51109 0.28928 0.0
O2 O 0.36373 0.52685 0.23203 0.0
Cd3 Cd 0.35272 0.5539 0.26026 0.0
O4 O 0.31875 0.57056 0.27172 0.0
C5 C 0.31094 0.58277 0.25415 0.0
O6 O 0.32511 0.5861 0.23144 0.0
C7 C 0.34606 0.49872 0.23064 0.0
C8 C 0.34128 0.48677 0.32939 0.0
O9 O 0.31119 0.47695 0.32316 0.0
O10 O 0.36282 0.50859 0.31705 0.0
O11 O 0.37319 0.05076 0.83044 0.0
Cd12 Cd 0.33865 0.03939 0.79165 0.0
O13 O 0.33354 0.01425 0.85077 0.0
Cd14 Cd 0.29757 0.99456 0.81921 0.0
O15 O 0.25587 0.95291 0.80509 0.0
C16 C 0.243 0.93396 0.82249 0.0
O17 O 0.25504 0.94135 0.84622 0.0
C18 C 0.36235 0.03601 0.85076 0.0
C19 C 0.36016 0.08514 0.75672 0.0
O20 O 0.34131 0.08387 0.77553 0.0
O21 O 0.36932 0.06506 0.75469 0.0
O22 O 0.92025 0.95783 0.3168 0.0
Cd23 Cd 0.95689 0.96069 0.2814 0.0
O24 O 0.88519 0.95072 0.28586 0.0
Cd25 Cd 0.84093 0.94897 0.26993 0.0
O26 O 0.80715 0.95637 0.24621 0.0
C27 C 0.78215 0.95765 0.25498 0.0
O28 O 0.7752 0.95372 0.27973 0.0
C29 C 0.89209 0.95343 0.30994 0.0
C30 C 0.96343 0.90932 0.27536 0.0
O31 O 0.98461 0.93222 0.2884 0.0
O32 O 0.93919 0.91073 0.2652 0.0
O33 O 0.71813 0.24048 0.81043 0.0
Cd34 Cd 0.68062 0.18813 0.81784 0.0
O35 O 0.70844 0.25542 0.84863 0.0
Cd36 Cd 0.66743 0.21233 0.85723 0.0
O37 O 0.61635 0.18896 0.86876 0.0
C38 C 0.59664 0.19367 0.85533 0.0
O39 O 0.60771 0.20954 0.83467 0.0
C40 C 0.72404 0.2613 0.82742 0.0
C41 C 0.67599 0.15213 0.77415 0.0
O42 O 0.65494 0.16135 0.77815 0.0
O43 O 0.699 0.15971 0.79093 0.0
O44 O 0.76597 0.84729 0.69716 0.0
Cd45 Cd 0.76118 0.81944 0.73581 0.0
O46 O 0.79077 0.89071 0.71848 0.0
Cd47 Cd 0.78698 0.87305 0.75676 0.0
O48 O 0.76657 0.87888 0.79351 0.0
C49 C 0.7492 0.89177 0.79086 0.0
O50 O 0.74525 0.89888 0.76748 0.0
C51 C 0.77913 0.87554 0.69739 0.0
C52 C 0.80472 0.79632 0.73835 0.0
O53 O 0.77793 0.78252 0.72536 0.0
O54 O 0.81128 0.82139 0.74978 0.0
O55 O 0.6309 0.3116 0.28629 0.0
Cd56 Cd 0.57636 0.26944 0.29079 0.0
O57 O 0.62152 0.34183 0.3126 0.0
Cd58 Cd 0.56898 0.31204 0.31152 0.0
O59 O 0.52232 0.29431 0.29083 0.0
C60 C 0.52308 0.28735 0.26696 0.0
O61 O 0.55071 0.2905 0.25715 0.0
C62 C 0.64113 0.33661 0.2986 0.0
C63 C 0.57851 0.22648 0.32084 0.0
O64 O 0.58244 0.22607 0.29621 0.0
O65 O 0.57323 0.24711 0.33122 0.0
O66 O 0.33509 0.51854 0.82935 0.0
Cd67 Cd 0.33015 0.5379 0.788 0.0
O68 O 0.38868 0.54401 0.82994 0.0
Cd69 Cd 0.39028 0.55178 0.78868 0.0
O70 O 0.39599 0.52579 0.75614 0.0
C71 C 0.40027 0.50437 0.7634 0.0
O72 O 0.40085 0.50062 0.7884 0.0
C73 C 0.3622 0.52686 0.84101 0.0
C74 C 0.28199 0.55589 0.78945 0.0
O75 O 0.2751 0.529 0.78294 0.0
O76 O 0.31176 0.57438 0.79527 0.0
O77 O 0.43004 0.01695 0.29306 0.0
Cd78 Cd 0.39462 0.99563 0.33027 0.0
O79 O 0.39014 0.0114 0.26709 0.0
Cd80 Cd 0.35123 0.98579 0.29389 0.0
O81 O 0.3072 0.94402 0.30046 0.0
C82 C 0.3089 0.92026 0.29492 0.0
O83 O 0.33699 0.92238 0.28732 0.0
C84 C 0.42037 0.02038 0.27111 0.0
C85 C 0.39952 0.03872 0.36788 0.0
O86 O 0.41939 0.02787 0.36787 0.0
O87 O 0.37748 0.02932 0.35004 0.0
H88 H 0.97467 0.43387 0.28185 0.0
H89 H 0.80037 0.60749 0.2171 0.0
H90 H 0.04109 0.59233 0.30042 0.0
H91 H 0.09293 0.59086 0.30254 0.0
H92 H 0.11654 0.62547 0.22579 0.0
H93 H 0.06477 0.62701 0.22396 0.0
H94 H 0.96823 0.5451 0.29901 0.0
H95 H 0.96732 0.49676 0.29917 0.0
H96 H 0.00635 0.50948 0.22149 0.0
H97 H 0.00681 0.55764 0.2215 0.0
H98 H 0.91734 0.5732 0.29969 0.0
H99 H 0.86416 0.52974 0.3052 0.0
H100 H 0.87454 0.49201 0.23123 0.0
H101 H 0.92781 0.53616 0.22554 0.0
H102 H 0.92739 0.63218 0.29241 0.0
H103 H 0.87629 0.63413 0.28635 0.0
H104 H 0.8681 0.59684 0.20808 0.0
H105 H 0.91944 0.59538 0.21431 0.0
H106 H 0.99372 0.67495 0.30079 0.0
H107 H 0.9904 0.72161 0.30245 0.0
H108 H 0.98006 0.71576 0.21899 0.0
H109 H 0.98255 0.66861 0.21752 0.0
H110 H 0.05591 0.65884 0.30412 0.0
H111 H 0.10576 0.70623 0.31128 0.0
H112 H 0.0994 0.72854 0.23244 0.0
H113 H 0.04953 0.68101 0.22548 0.0
O114 O 0.97526 0.45307 0.28139 0.0
O115 O 0.99557 0.4608 0.24154 0.0
O116 O 0.82606 0.62623 0.26036 0.0
O117 O 0.82068 0.60704 0.22001 0.0
C118 C 0.01778 0.61065 0.26071 0.0
C119 C 0.98773 0.58397 0.25999 0.0
C120 C 0.95799 0.58519 0.259 0.0
C121 C 0.95838 0.61289 0.2572 0.0
C122 C 0.98831 0.63949 0.25846 0.0
C123 C 0.01799 0.63844 0.26066 0.0
C124 C 0.04914 0.60964 0.26199 0.0
C125 C 0.05744 0.59945 0.28405 0.0
C126 C 0.08701 0.5986 0.2852 0.0
C127 C 0.10887 0.60807 0.26434 0.0
C128 C 0.10047 0.61842 0.24233 0.0
C129 C 0.07086 0.61917 0.24117 0.0
C130 C 0.98746 0.55478 0.26021 0.0
C131 C 0.97645 0.53734 0.28203 0.0
C132 C 0.97603 0.50978 0.28208 0.0
C133 C 0.98674 0.49924 0.26033 0.0
C134 C 0.99792 0.51692 0.23855 0.0
C135 C 0.99825 0.54443 0.23851 0.0
C136 C 0.9263 0.55794 0.26214 0.0
C137 C 0.90809 0.55564 0.28459 0.0
C138 C 0.87775 0.53086 0.2877 0.0
C139 C 0.86519 0.50765 0.26856 0.0
C140 C 0.88378 0.50958 0.2463 0.0
C141 C 0.91408 0.5347 0.24303 0.0
C142 C 0.92726 0.61394 0.2537 0.0
C143 C 0.91466 0.6247 0.27391 0.0
C144 C 0.8854 0.62565 0.27043 0.0
C145 C 0.86814 0.6157 0.24669 0.0
C146 C 0.88078 0.60474 0.22657 0.0
C147 C 0.91008 0.60386 0.23007 0.0
C148 C 0.98832 0.66853 0.25905 0.0
C149 C 0.99088 0.68385 0.28288 0.0
C150 C 0.98887 0.71031 0.28381 0.0
C151 C 0.98493 0.72207 0.26084 0.0
C152 C 0.98325 0.70711 0.2369 0.0
C153 C 0.98461 0.68029 0.23604 0.0
C154 C 0.04912 0.66655 0.26431 0.0
C155 C 0.0655 0.67387 0.28834 0.0
C156 C 0.09396 0.7009 0.29237 0.0
C157 C 0.10645 0.72117 0.27245 0.0
C158 C 0.09013 0.71357 0.24827 0.0
C159 C 0.06176 0.68644 0.24422 0.0
C160 C 0.98618 0.46992 0.26042 0.0
C161 C 0.83705 0.61669 0.24287 0.0
H162 H 0.02452 0.45921 0.83029 0.0
H163 H 0.76332 0.53668 0.74557 0.0
H164 H 0.03637 0.60458 0.83115 0.0
H165 H 0.08855 0.60405 0.83481 0.0
H166 H 0.10601 0.62204 0.75344 0.0
H167 H 0.0538 0.62269 0.75004 0.0
H168 H 0.97355 0.54435 0.83016 0.0
H169 H 0.99094 0.50686 0.83746 0.0
H170 H 0.03064 0.51796 0.76004 0.0
H171 H 0.01269 0.5551 0.75288 0.0
H172 H 0.90651 0.54481 0.8234 0.0
H173 H 0.86744 0.49253 0.82911 0.0
H174 H 0.89585 0.4688 0.75522 0.0
H175 H 0.93525 0.52121 0.74993 0.0
H176 H 0.90333 0.60497 0.81305 0.0
H177 H 0.84567 0.59185 0.80847 0.0
H178 H 0.84064 0.54428 0.73564 0.0
H179 H 0.89842 0.55785 0.74032 0.0
H180 H 0.96925 0.66637 0.8115 0.0
H181 H 0.95004 0.70243 0.80371 0.0
H182 H 0.91603 0.66118 0.72724 0.0
H183 H 0.93732 0.62669 0.73465 0.0
H184 H 0.0314 0.6603 0.82563 0.0
H185 H 0.07125 0.7131 0.82964 0.0
H186 H 0.06001 0.72116 0.74778 0.0
H187 H 0.02035 0.66793 0.74388 0.0
O188 O 0.01749 0.47382 0.82688 0.0
O189 O 0.03781 0.4806 0.78702 0.0
O190 O 0.79011 0.56712 0.78531 0.0
O191 O 0.78619 0.54225 0.74784 0.0
C192 C 0.00657 0.60606 0.78668 0.0
C193 C 0.98229 0.5759 0.78696 0.0
C194 C 0.94907 0.56822 0.78397 0.0
C195 C 0.94012 0.59058 0.77979 0.0
C196 C 0.96447 0.62074 0.77882 0.0
C197 C 0.99772 0.62854 0.7828 0.0
C198 C 0.04128 0.61348 0.7903 0.0
C199 C 0.05196 0.60931 0.81433 0.0
C200 C 0.08158 0.60873 0.81631 0.0
C201 C 0.10109 0.6125 0.7943 0.0
C202 C 0.09157 0.61918 0.77075 0.0
C203 C 0.06182 0.61963 0.76877 0.0
C204 C 0.99181 0.55235 0.79099 0.0
C205 C 0.98574 0.53844 0.81473 0.0
C206 C 0.99583 0.51713 0.81888 0.0
C207 C 0.01225 0.50945 0.79935 0.0
C208 C 0.01808 0.52337 0.77549 0.0
C209 C 0.00787 0.54457 0.77135 0.0
C210 C 0.92364 0.53676 0.78626 0.0
C211 C 0.90398 0.52833 0.80833 0.0
C212 C 0.88164 0.49845 0.81151 0.0
C213 C 0.87855 0.47643 0.79264 0.0
C214 C 0.89794 0.48512 0.77029 0.0
C215 C 0.92028 0.51503 0.76713 0.0
C216 C 0.90504 0.5824 0.777 0.0
C217 C 0.88975 0.59181 0.79608 0.0
C218 C 0.8568 0.58423 0.79344 0.0
C219 C 0.83853 0.567 0.77167 0.0
C220 C 0.85397 0.55755 0.75263 0.0
C221 C 0.88695 0.56521 0.75528 0.0
C222 C 0.95479 0.64395 0.77362 0.0
C223 C 0.95829 0.6656 0.79288 0.0
C224 C 0.94687 0.68594 0.78848 0.0
C225 C 0.93123 0.68471 0.76487 0.0
C226 C 0.92837 0.66324 0.74548 0.0
C227 C 0.94025 0.64327 0.74975 0.0
C228 C 0.02304 0.6603 0.78448 0.0
C229 C 0.03776 0.6734 0.80852 0.0
C230 C 0.06026 0.70361 0.81081 0.0
C231 C 0.06856 0.72136 0.78906 0.0
C232 C 0.05422 0.70803 0.76484 0.0
C233 C 0.03154 0.67772 0.76259 0.0
C234 C 0.02332 0.48711 0.80394 0.0
C235 C 0.80351 0.55886 0.76878 0.0
H236 H 0.38408 0.24879 0.36755 0.0
H237 H 0.4641 0.49426 0.58256 0.0
H238 H 0.36435 0.23338 0.50597 0.0
H239 H 0.36206 0.18872 0.48484 0.0
H240 H 0.46137 0.21719 0.50994 0.0
H241 H 0.46371 0.26259 0.53023 0.0
H242 H 0.36606 0.28123 0.47448 0.0
H243 H 0.36422 0.26609 0.42855 0.0
H244 H 0.46424 0.28253 0.4342 0.0
H245 H 0.46585 0.29798 0.48003 0.0
H246 H 0.36215 0.3291 0.50734 0.0
H247 H 0.35133 0.35733 0.4753 0.0
H248 H 0.45069 0.39275 0.44854 0.0
H249 H 0.46132 0.36421 0.48085 0.0
H250 H 0.37421 0.34701 0.56427 0.0
H251 H 0.37914 0.39482 0.58044 0.0
H252 H 0.47861 0.43933 0.55318 0.0
H253 H 0.47345 0.39128 0.53743 0.0
H254 H 0.37353 0.30056 0.5965 0.0
H255 H 0.3731 0.32924 0.63569 0.0
H256 H 0.47607 0.38876 0.62652 0.0
H257 H 0.47613 0.36009 0.58722 0.0
H258 H 0.36596 0.23765 0.56422 0.0
H259 H 0.35869 0.20392 0.59877 0.0
H260 H 0.4576 0.26187 0.62547 0.0
H261 H 0.46497 0.29504 0.59017 0.0
O262 O 0.38539 0.25502 0.38568 0.0
O263 O 0.43678 0.26366 0.38966 0.0
O264 O 0.41014 0.45111 0.58979 0.0
O265 O 0.46126 0.47513 0.57587 0.0
C266 C 0.41732 0.28079 0.52764 0.0
C267 C 0.41722 0.29974 0.50843 0.0
C268 C 0.41813 0.32706 0.51582 0.0
C269 C 0.4215 0.33647 0.54219 0.0
C270 C 0.42252 0.31799 0.56142 0.0
C271 C 0.41943 0.2897 0.55426 0.0
C272 C 0.41426 0.2513 0.51943 0.0
C273 C 0.38541 0.2297 0.50727 0.0
C274 C 0.38413 0.20409 0.49532 0.0
C275 C 0.41163 0.1994 0.49549 0.0
C276 C 0.43993 0.22034 0.50905 0.0
C277 C 0.44123 0.2461 0.52091 0.0
C278 C 0.41616 0.29091 0.48048 0.0
C279 C 0.38762 0.2818 0.46568 0.0
C280 C 0.38661 0.27304 0.43949 0.0
C281 C 0.4141 0.27313 0.42769 0.0
C282 C 0.44265 0.28224 0.44266 0.0
C283 C 0.44365 0.29107 0.46882 0.0
C284 C 0.41245 0.3446 0.4963 0.0
C285 C 0.38157 0.34296 0.49455 0.0
C286 C 0.37541 0.35895 0.47619 0.0
C287 C 0.40013 0.3771 0.45936 0.0
C288 C 0.43126 0.37903 0.46137 0.0
C289 C 0.43733 0.36272 0.47965 0.0
C290 C 0.42353 0.36574 0.54984 0.0
C291 C 0.39697 0.36714 0.56172 0.0
C292 C 0.39988 0.39447 0.57095 0.0
C293 C 0.42935 0.4209 0.56822 0.0
C294 C 0.45562 0.41942 0.55567 0.0
C295 C 0.45271 0.39204 0.54654 0.0
C296 C 0.42482 0.32836 0.58901 0.0
C297 C 0.39627 0.319 0.60362 0.0
C298 C 0.39605 0.33555 0.62592 0.0
C299 C 0.42442 0.36164 0.63384 0.0
C300 C 0.45371 0.36912 0.62056 0.0
C301 C 0.45391 0.35255 0.59835 0.0
C302 C 0.41602 0.26874 0.57461 0.0
C303 C 0.3862 0.24286 0.57733 0.0
C304 C 0.38198 0.22379 0.59727 0.0
C305 C 0.40748 0.23029 0.61505 0.0
C306 C 0.43756 0.25606 0.612 0.0
C307 C 0.44177 0.27512 0.59196 0.0
C308 C 0.41291 0.26368 0.39989 0.0
C309 C 0.43286 0.44989 0.57861 0.0
H310 H 0.57441 0.02904 0.85795 0.0
H311 H 0.72947 0.91747 0.05183 0.0
H312 H 0.59672 0.06614 0.99398 0.0
H313 H 0.55687 0.07664 0.97288 0.0
H314 H 0.47874 1.00109 0.00873 0.0
H315 H 0.51888 0.98969 0.02832 0.0
H316 H 0.63508 0.04146 0.95965 0.0
H317 H 0.61872 0.04265 0.91497 0.0
H318 H 0.52151 0.97266 0.93041 0.0
H319 H 0.53835 0.9714 0.9749 0.0
H320 H 0.68192 0.02054 0.98414 0.0
H321 H 0.70313 1.00065 0.9491 0.0
H322 H 0.60772 0.92391 0.93923 0.0
H323 H 0.58674 0.94426 0.97395 0.0
H324 H 0.69138 0.02797 0.04682 0.0
H325 H 0.73094 0.01087 0.05686 0.0
H326 H 0.66017 0.92092 0.03293 0.0
H327 H 0.62072 0.93827 0.0233 0.0
H328 H 0.65159 0.04898 0.0839 0.0
H329 H 0.67418 0.04544 0.12552 0.0
H330 H 0.62168 0.94941 0.11654 0.0
H331 H 0.59869 0.95325 0.07542 0.0
H332 H 0.5976 0.06735 0.06196 0.0
H333 H 0.57314 0.07735 0.10127 0.0
H334 H 0.52412 0.98337 0.11542 0.0
H335 H 0.54836 0.97364 0.07634 0.0
O336 O 0.58044 0.02803 0.87562 0.0
O337 O 0.53078 0.99217 0.88462 0.0
O338 O 0.74974 0.97144 0.06022 0.0
O339 O 0.71432 0.92485 0.04798 0.0
C340 C 0.58415 0.01586 0.01851 0.0
C341 C 0.59772 0.00619 0.99779 0.0
C342 C 0.62 0.99553 0.00299 0.0
C343 C 0.6291 0.9948 0.0288 0.0
C344 C 0.61478 0.00343 0.04953 0.0
C345 C 0.59195 0.01359 0.04445 0.0
C346 C 0.56072 0.02695 0.01243 0.0
C347 C 0.571 0.05232 0.99779 0.0
C348 C 0.5481 0.05834 0.98579 0.0
C349 C 0.51445 0.03935 0.98861 0.0
C350 C 0.50441 0.01571 0.00551 0.0
C351 C 0.52734 0.00941 0.01714 0.0
C352 C 0.58788 0.00642 0.9705 0.0
C353 C 0.61033 0.0263 0.95328 0.0
C354 C 0.60088 0.02698 0.9278 0.0
C355 C 0.56877 0.00779 0.91913 0.0
C356 C 0.5464 0.98776 0.93646 0.0
C357 C 0.55593 0.98703 0.96188 0.0
C358 C 0.6328 0.98389 0.98143 0.0
C359 C 0.66567 0.99947 0.97432 0.0
C360 C 0.67775 0.98796 0.95446 0.0
C361 C 0.65711 0.96066 0.94139 0.0
C362 C 0.62415 0.94516 0.94864 0.0
C363 C 0.61212 0.9567 0.96848 0.0
C364 C 0.65327 0.98438 0.03426 0.0
C365 C 0.68451 0.00459 0.04376 0.0
C366 C 0.70704 0.99476 0.04946 0.0
C367 C 0.69872 0.96451 0.04567 0.0
C368 C 0.66739 0.94435 0.03604 0.0
C369 C 0.64485 0.95421 0.03044 0.0
C370 C 0.62378 1.00138 0.0766 0.0
C371 C 0.64437 0.02723 0.09131 0.0
C372 C 0.65741 0.02515 0.11494 0.0
C373 C 0.65 0.99714 0.12419 0.0
C374 C 0.62767 0.97131 0.11012 0.0
C375 C 0.61466 0.97343 0.08655 0.0
C376 C 0.57492 0.01981 0.06646 0.0
C377 C 0.58123 0.04896 0.07342 0.0
C378 C 0.56731 0.05461 0.09582 0.0
C379 C 0.54715 0.03117 0.11159 0.0
C380 C 0.54009 1.00194 0.10396 0.0
C381 C 0.55374 0.99632 0.08158 0.0
C382 C 0.55873 0.00876 0.89212 0.0
C383 C 0.72254 0.95393 0.05175 0.0
H384 H 0.65807 0.99413 0.31963 0.0
H385 H 0.61645 0.1569 0.57211 0.0
H386 H 0.66192 0.95662 0.4562 0.0
H387 H 0.69338 0.9376 0.43001 0.0
H388 H 0.7816 0.01965 0.44719 0.0
H389 H 0.75002 0.03891 0.47215 0.0
H390 H 0.62772 0.98399 0.43032 0.0
H391 H 0.63164 0.9807 0.38299 0.0
H392 H 0.72452 0.06119 0.38663 0.0
H393 H 0.72018 0.06417 0.43396 0.0
H394 H 0.59965 0.02132 0.44902 0.0
H395 H 0.58114 0.05008 0.42353 0.0
H396 H 0.67213 0.12965 0.44118 0.0
H397 H 0.68988 0.10083 0.46703 0.0
H398 H 0.59256 0.03348 0.50434 0.0
H399 H 0.57052 0.06451 0.52448 0.0
H400 H 0.66784 0.12922 0.55001 0.0
H401 H 0.68958 0.09814 0.52952 0.0
H402 H 0.61684 0.01348 0.55151 0.0
H403 H 0.61829 0.02874 0.59721 0.0
H404 H 0.72391 0.07087 0.59654 0.0
H405 H 0.72209 0.05779 0.55037 0.0
H406 H 0.64605 0.96484 0.53381 0.0
H407 H 0.66479 0.93949 0.5633 0.0
H408 H 0.7649 1.00086 0.5459 0.0
H409 H 0.74612 0.02697 0.51746 0.0
O410 O 0.65694 0.99593 0.33831 0.0
O411 O 0.70462 0.03732 0.34124 0.0
O412 O 0.57501 0.11038 0.55018 0.0
O413 O 0.62452 0.14425 0.56389 0.0
C414 C 0.685 0.01222 0.47943 0.0
C415 C 0.67139 0.02587 0.46407 0.0
C416 C 0.65697 0.04213 0.47595 0.0
C417 C 0.6559 0.04466 0.50325 0.0
C418 C 0.66869 0.0303 0.51875 0.0
C419 C 0.683 0.0138 0.50678 0.0
C420 C 0.70391 0.9988 0.46661 0.0
C421 C 0.68812 0.97018 0.45464 0.0
C422 C 0.70599 0.95945 0.43968 0.0
C423 C 0.73989 0.97709 0.43696 0.0
C424 C 0.75561 0.00544 0.44945 0.0
C425 C 0.73768 0.01637 0.4638 0.0
C426 C 0.67365 0.0243 0.43541 0.0
C427 C 0.64882 1.00089 0.42079 0.0
C428 C 0.65116 0.99907 0.3938 0.0
C429 C 0.67841 0.02067 0.38102 0.0
C430 C 0.70321 0.04419 0.39585 0.0
C431 C 0.70081 0.04598 0.42284 0.0
C432 C 0.646 0.05909 0.45984 0.0
C433 C 0.61549 0.04495 0.44727 0.0
C434 C 0.60506 0.06139 0.43268 0.0
C435 C 0.62509 0.09221 0.43044 0.0
C436 C 0.65584 0.1061 0.44291 0.0
C437 C 0.66616 0.08968 0.4575 0.0
C438 C 0.64262 0.06355 0.51553 0.0
C439 C 0.60906 0.05442 0.51421 0.0
C440 C 0.59655 0.07215 0.52578 0.0
C441 C 0.61743 0.09935 0.53889 0.0
C442 C 0.65108 0.10841 0.5401 0.0
C443 C 0.66356 0.09069 0.52846 0.0
C444 C 0.66934 0.0347 0.5475 0.0
C445 C 0.64026 0.02584 0.56134 0.0
C446 C 0.64118 0.03438 0.58758 0.0
C447 C 0.67126 0.05145 0.60065 0.0
C448 C 0.70029 0.05848 0.58704 0.0
C449 C 0.69933 0.05053 0.56069 0.0
C450 C 0.69468 0.99734 0.52299 0.0
C451 C 0.67201 0.97261 0.53617 0.0
C452 C 0.6827 0.95823 0.55298 0.0
C453 C 0.71624 0.96811 0.5566 0.0
C454 C 0.73891 0.99251 0.54303 0.0
C455 C 0.7282 0.00726 0.52662 0.0
C456 C 0.6809 0.01859 0.35235 0.0
C457 C 0.60426 0.11823 0.55128 0.0
H458 H 0.4361 0.32815 0.84503 0.0
H459 H 0.39631 0.1379 0.07341 0.0
H460 H 0.42957 0.36579 0.98332 0.0
H461 H 0.42731 0.40692 0.9628 0.0
H462 H 0.32201 0.36154 0.96906 0.0
H463 H 0.32485 0.32097 0.99065 0.0
H464 H 0.44379 0.31911 0.95714 0.0
H465 H 0.45047 0.3262 0.91042 0.0
H466 H 0.3459 0.28974 0.90155 0.0
H467 H 0.33957 0.28251 0.9483 0.0
H468 H 0.45431 0.28296 0.99711 0.0
H469 H 0.47765 0.25578 0.97259 0.0
H470 H 0.38399 0.20022 0.93532 0.0
H471 H 0.36089 0.22823 0.9599 0.0
H472 H 0.44028 0.28026 0.05383 0.0
H473 H 0.45075 0.24308 0.07402 0.0
H474 H 0.36247 0.17299 0.03835 0.0
H475 H 0.35206 0.21045 0.01857 0.0
H476 H 0.42389 0.33039 0.07308 0.0
H477 H 0.42989 0.32463 0.11901 0.0
H478 H 0.34436 0.23811 0.11431 0.0
H479 H 0.33813 0.24436 0.06813 0.0
H480 H 0.41708 0.37119 0.03613 0.0
H481 H 0.41046 0.40546 0.06714 0.0
H482 H 0.31684 0.33436 0.08916 0.0
H483 H 0.32295 0.3007 0.05696 0.0
O484 O 0.43288 0.32497 0.86344 0.0
O485 O 0.37898 0.30608 0.85992 0.0
O486 O 0.43766 0.18996 0.08384 0.0
O487 O 0.39272 0.15307 0.06571 0.0
C488 C 0.3793 0.31532 1.00008 0.0
C489 C 0.38719 0.29619 0.9844 0.0
C490 C 0.39248 0.27423 0.99591 0.0
C491 C 0.38875 0.27067 0.02293 0.0
C492 C 0.38055 0.28959 0.0386 0.0
C493 C 0.37607 0.31211 0.02719 0.0
C494 C 0.37737 0.34039 0.98826 0.0
C495 C 0.40605 0.36485 0.98033 0.0
C496 C 0.40465 0.38824 0.96849 0.0
C497 C 0.37443 0.38745 0.96399 0.0
C498 C 0.34571 0.36306 0.97245 0.0
C499 C 0.34721 0.33976 0.9846 0.0
C500 C 0.39118 0.30004 0.95601 0.0
C501 C 0.42235 0.31243 0.94502 0.0
C502 C 0.4261 0.31656 0.91835 0.0
C503 C 0.39871 0.30849 0.90224 0.0
C504 C 0.36749 0.29615 0.9134 0.0
C505 C 0.36379 0.29198 0.94006 0.0
C506 C 0.40593 0.25743 0.98036 0.0
C507 C 0.4388 0.26483 0.98373 0.0
C508 C 0.45199 0.24908 0.96984 0.0
C509 C 0.43255 0.22548 0.95226 0.0
C510 C 0.39959 0.21828 0.94869 0.0
C511 C 0.38636 0.23418 0.96268 0.0
C512 C 0.39525 0.24803 0.03496 0.0
C513 C 0.42313 0.25687 0.05055 0.0
C514 C 0.4291 0.23559 0.06198 0.0
C515 C 0.40739 0.20504 0.05784 0.0
C516 C 0.37964 0.19631 0.04198 0.0
C517 C 0.37364 0.21763 0.03063 0.0
C518 C 0.38053 0.28785 0.06728 0.0
C519 C 0.40575 0.31065 0.08214 0.0
C520 C 0.40912 0.3073 0.10841 0.0
C521 C 0.38757 0.28089 0.12025 0.0
C522 C 0.36136 0.25864 0.10563 0.0
C523 C 0.35775 0.26218 0.07935 0.0
C524 C 0.37031 0.33354 0.04405 0.0
C525 C 0.3947 0.36327 0.04709 0.0
C526 C 0.39111 0.38269 0.06516 0.0
C527 C 0.36324 0.37264 0.08085 0.0
C528 C 0.33842 0.343 0.07721 0.0
C529 C 0.34191 0.32366 0.05891 0.0
C530 C 0.40279 0.31305 0.87393 0.0
C531 C 0.41362 0.18234 0.06995 0.0
H532 H 0.27184 0.57327 0.29668 0.0
H533 H 0.28898 0.6091 0.22034 0.0
H534 H 0.22455 0.58185 0.30127 0.0
H535 H 0.24153 0.61714 0.22476 0.0
H536 H 0.16919 0.64962 0.2486 0.0
H537 H 0.21991 0.64634 0.24834 0.0
H538 H 0.16977 0.5602 0.28194 0.0
H539 H 0.11911 0.56347 0.28219 0.0
C540 C 0.26569 0.58318 0.28097 0.0
C541 C 0.28409 0.59036 0.25809 0.0
C542 C 0.23847 0.58791 0.28354 0.0
C543 C 0.22916 0.60002 0.26332 0.0
C544 C 0.24822 0.60807 0.24081 0.0
C545 C 0.27534 0.60329 0.23823 0.0
C546 C 0.169 0.62995 0.25587 0.0
C547 C 0.14009 0.60674 0.2653 0.0
C548 C 0.19806 0.6281 0.25576 0.0
C549 C 0.19888 0.60299 0.26507 0.0
C550 C 0.17011 0.58005 0.27499 0.0
C551 C 0.14105 0.58191 0.27511 0.0
H552 H 0.21363 0.90951 0.77515 0.0
H553 H 0.21089 0.88987 0.85605 0.0
H554 H 0.16959 0.85898 0.7656 0.0
H555 H 0.16768 0.83963 0.84648 0.0
H556 H 0.07042 0.76086 0.82729 0.0
H557 H 0.11073 0.81302 0.83399 0.0
H558 H 0.16003 0.80722 0.76412 0.0
H559 H 0.11935 0.7549 0.7573 0.0
C560 C 0.20363 0.89448 0.79087 0.0
C561 C 0.21576 0.90375 0.81636 0.0
C562 C 0.17854 0.86549 0.78538 0.0
C563 C 0.16501 0.84528 0.80529 0.0
C564 C 0.1771 0.85473 0.83074 0.0
C565 C 0.2021 0.88355 0.83621 0.0
C566 C 0.08988 0.77071 0.81336 0.0
C567 C 0.09194 0.75367 0.79194 0.0
C568 C 0.113 0.80061 0.8172 0.0
C569 C 0.13885 0.81423 0.79976 0.0
C570 C 0.14029 0.79749 0.77781 0.0
C571 C 0.11703 0.76751 0.77392 0.0
H572 H 0.01843 0.90368 0.28188 0.0
H573 H 0.9159 0.85321 0.26179 0.0
H574 H 0.02366 0.85817 0.27709 0.0
H575 H 0.92113 0.8077 0.25753 0.0
H576 H 0.94142 0.73265 0.28892 0.0
H577 H 0.93606 0.77821 0.29138 0.0
H578 H 0.01613 0.8189 0.23822 0.0
H579 H 0.02109 0.77303 0.23541 0.0
C580 C 0.99704 0.88289 0.27648 0.0
C581 C 0.96675 0.88196 0.27223 0.0
C582 C 0.0001 0.85695 0.27362 0.0
C583 C 0.97279 0.82957 0.26697 0.0
C584 C 0.94249 0.82859 0.26278 0.0
C585 C 0.93956 0.85461 0.26513 0.0
C586 C 0.9578 0.75136 0.27777 0.0
C587 C 0.98168 0.74952 0.26202 0.0
C588 C 0.95463 0.77726 0.27906 0.0
C589 C 0.97571 0.80194 0.26499 0.0
C590 C -0.00029 0.80016 0.24932 0.0
C591 C 0.00245 0.774 0.24762 0.0
H592 H 0.74015 0.31098 0.85879 0.0
H593 H 0.76205 0.28237 0.78439 0.0
H594 H 0.77764 0.3625 0.8498 0.0
H595 H 0.79935 0.33415 0.77529 0.0
H596 H 0.88877 0.42836 0.78206 0.0
H597 H 0.85205 0.3762 0.79007 0.0
H598 H 0.78022 0.40013 0.82054 0.0
H599 H 0.81674 0.4522 0.81235 0.0
C600 C 0.75299 0.31564 0.84052 0.0
C601 C 0.748 0.2925 0.82229 0.0
C602 C 0.77432 0.34523 0.8353 0.0
C603 C 0.79128 0.35244 0.81176 0.0
C604 C 0.7868 0.32929 0.79369 0.0
C605 C 0.76533 0.29964 0.79887 0.0
C606 C 0.86496 0.42245 0.79014 0.0
C607 C 0.85574 0.4445 0.79662 0.0
C608 C 0.84396 0.39256 0.79478 0.0
C609 C 0.81331 0.38405 0.80608 0.0
C610 C 0.80392 0.40603 0.81224 0.0
C611 C 0.82485 0.43588 0.80755 0.0
H612 H 0.30155 0.44531 0.36298 0.0
H613 H 0.40266 0.49588 0.34123 0.0
H614 H 0.31678 0.41999 0.39463 0.0
H615 H 0.41784 0.46977 0.37229 0.0
H616 H 0.43657 0.43567 0.44799 0.0
H617 H 0.42298 0.46349 0.41741 0.0
H618 H 0.33443 0.38334 0.39561 0.0
H619 H 0.34771 0.35596 0.42656 0.0
C620 C 0.32705 0.45099 0.36493 0.0
C621 C 0.35087 0.47254 0.34954 0.0
C622 C 0.33578 0.4363 0.38296 0.0
C623 C 0.36853 0.44257 0.38586 0.0
C624 C 0.39245 0.46457 0.37078 0.0
C625 C 0.38373 0.47945 0.35288 0.0
C626 C 0.41435 0.42405 0.43648 0.0
C627 C 0.39308 0.39373 0.43976 0.0
C628 C 0.40654 0.43994 0.41895 0.0
C629 C 0.37743 0.42575 0.40418 0.0
C630 C 0.35663 0.39521 0.40709 0.0
C631 C 0.36429 0.37944 0.42474 0.0
H632 H 0.42786 0.07562 0.85661 0.0
H633 H 0.34502 0.01021 0.89746 0.0
H634 H 0.46371 0.07977 0.89275 0.0
H635 H 0.38065 0.01457 0.93333 0.0
H636 H 0.45972 0.99425 0.96569 0.0
H637 H 0.42247 0.99762 0.93525 0.0
H638 H 0.47762 0.09356 0.94074 0.0
H639 H 0.51482 0.09034 0.97216 0.0
C640 C 0.4172 0.06254 0.87343 0.0
C641 C 0.38364 0.0422 0.87391 0.0
C642 C 0.43772 0.06502 0.89417 0.0
C643 C 0.42502 0.04712 0.91567 0.0
C644 C 0.39122 0.02822 0.91679 0.0
C645 C 0.3708 0.0258 0.89621 0.0
C646 C 0.46353 0.01617 0.96115 0.0
C647 C 0.49021 0.04202 0.97172 0.0
C648 C 0.44219 0.01807 0.9435 0.0
C649 C 0.447 0.04586 0.93569 0.0
C650 C 0.47342 0.07183 0.94632 0.0
C651 C 0.49471 0.06994 0.96428 0.0
H652 H 0.90572 0.9863 0.35535 0.0
H653 H 0.82575 0.91954 0.30906 0.0
H654 H 0.86721 0.98824 0.38678 0.0
H655 H 0.78698 0.92057 0.34086 0.0
H656 H 0.72816 0.9593 0.38597 0.0
H657 H 0.76406 0.95074 0.35587 0.0
H658 H 0.83009 0.9637 0.41945 0.0
H659 H 0.79477 0.97369 0.44911 0.0
C660 C 0.87984 0.9718 0.35209 0.0
C661 C 0.86864 0.95325 0.32955 0.0
C662 C 0.8577 0.9727 0.37019 0.0
C663 C 0.82382 0.95459 0.36642 0.0
C664 C 0.81277 0.93531 0.34417 0.0
C665 C 0.83496 0.93474 0.32589 0.0
C666 C 0.7501 0.95977 0.39346 0.0
C667 C 0.75887 0.96722 0.41974 0.0
C668 C 0.7707 0.95481 0.37626 0.0
C669 C 0.80028 0.95683 0.38511 0.0
C670 C 0.808 0.96272 0.41178 0.0
C671 C 0.78767 0.96816 0.42885 0.0
H672 H 0.55521 0.21302 0.83785 0.0
H673 H 0.56436 0.15904 0.89602 0.0
H674 H 0.50812 0.21131 0.85987 0.0
H675 H 0.5159 0.15601 0.91757 0.0
H676 H 0.42307 0.20682 0.90082 0.0
H677 H 0.45419 0.18798 0.87496 0.0
H678 H 0.50826 0.1911 0.94375 0.0
H679 H 0.47581 0.20796 0.96963 0.0
C680 C 0.54656 0.2 0.85495 0.0
C681 C 0.56401 0.18677 0.86553 0.0
C682 C 0.51924 0.19879 0.86754 0.0
C683 C 0.50841 0.18397 0.89085 0.0
C684 C 0.52408 0.16834 0.90006 0.0
C685 C 0.55175 0.16991 0.88763 0.0
C686 C 0.4409 0.20258 0.91051 0.0
C687 C 0.44746 0.20952 0.9372 0.0
C688 C 0.45903 0.19208 0.89563 0.0
C689 C 0.48426 0.18853 0.90709 0.0
C690 C 0.48901 0.19335 0.93413 0.0
C691 C 0.47072 0.20354 0.94899 0.0
H692 H 0.39607 0.09127 0.71281 0.0
H693 H 0.34644 0.13167 0.75682 0.0
H694 H 0.40898 0.12751 0.67951 0.0
H695 H 0.36002 0.16835 0.72385 0.0
H696 H 0.35337 0.20338 0.64529 0.0
H697 H 0.34385 0.1696 0.68 0.0
H698 H 0.44092 0.17955 0.67002 0.0
H699 H 0.44994 0.21246 0.63441 0.0
C700 C 0.38823 0.10809 0.71553 0.0
C701 C 0.37003 0.10844 0.7374 0.0
C702 C 0.3958 0.12899 0.69649 0.0
C703 C 0.38539 0.15078 0.6989 0.0
C704 C 0.36793 0.15157 0.72114 0.0
C705 C 0.3603 0.13064 0.74013 0.0
C706 C 0.37261 0.19818 0.65031 0.0
C707 C 0.40233 0.21048 0.6369 0.0
C708 C 0.36731 0.1791 0.67049 0.0
C709 C 0.39164 0.17186 0.67788 0.0
C710 C 0.42153 0.18441 0.66467 0.0
C711 C 0.42683 0.20353 0.64443 0.0
H712 H 0.7929 0.97069 0.20398 0.0
H713 H 0.72538 0.95991 0.26607 0.0
H714 H 0.76021 0.98224 0.17484 0.0
H715 H 0.69264 0.97186 0.2367 0.0
H716 H 0.62603 0.95827 0.16369 0.0
H717 H 0.65751 0.94992 0.19696 0.0
H718 H 0.74614 0.02231 0.16893 0.0
H719 H 0.715 0.03002 0.13529 0.0
C720 C 0.77111 0.97085 0.21147 0.0
C721 C 0.76179 0.96439 0.23739 0.0
C722 C 0.75249 0.97772 0.19478 0.0
C723 C 0.72401 0.97824 0.20354 0.0
C724 C 0.71443 0.97153 0.22939 0.0
C725 C 0.73322 0.96478 0.24621 0.0
C726 C 0.65221 0.97252 0.16479 0.0
C727 C 0.66802 0.99471 0.14677 0.0
C728 C 0.67018 0.96789 0.18396 0.0
C729 C 0.70433 0.98525 0.18536 0.0
C730 C 0.7199 0.00829 0.16809 0.0
C731 C 0.70198 0.01295 0.14902 0.0
H732 H 0.6243 0.12209 0.74069 0.0
H733 H 0.72429 0.14165 0.75393 0.0
H734 H 0.62307 0.09487 0.70003 0.0
H735 H 0.72308 0.11482 0.71312 0.0
H736 H 0.71618 0.1056 0.62188 0.0
H737 H 0.71715 0.12672 0.66523 0.0
H738 H 0.62906 0.04764 0.68389 0.0
H739 H 0.62876 0.02547 0.64078 0.0
C740 C 0.64591 0.12042 0.73501 0.0
C741 C 0.67444 0.13411 0.75042 0.0
C742 C 0.64512 0.10471 0.71185 0.0
C743 C 0.673 0.10285 0.70351 0.0
C744 C 0.70132 0.11608 0.71912 0.0
C745 C 0.70195 0.13133 0.74248 0.0
C746 C 0.69744 0.0922 0.63531 0.0
C747 C 0.67248 0.06364 0.62769 0.0
C748 C 0.69794 0.10448 0.66013 0.0
C749 C 0.67321 0.08878 0.67783 0.0
C750 C 0.6483 0.06024 0.67047 0.0
C751 C 0.64809 0.04767 0.64573 0.0
H752 H 0.30604 0.43991 0.21803 0.0
H753 H 0.39221 0.51707 0.19258 0.0
H754 H 0.31019 0.41044 0.18103 0.0
H755 H 0.39623 0.48745 0.15551 0.0
H756 H 0.41207 0.41294 0.11302 0.0
H757 H 0.40798 0.44429 0.14836 0.0
H758 H 0.30487 0.40807 0.13232 0.0
H759 H 0.30898 0.37714 0.09643 0.0
C760 C 0.32588 0.45059 0.20456 0.0
C761 C 0.34883 0.48084 0.20828 0.0
C762 C 0.32809 0.43375 0.18327 0.0
C763 C 0.35347 0.44669 0.16537 0.0
C764 C 0.37653 0.47687 0.16912 0.0
C765 C 0.37415 0.49382 0.19029 0.0
C766 C 0.38862 0.41202 0.11664 0.0
C767 C 0.36085 0.39253 0.10179 0.0
C768 C 0.38629 0.42993 0.13697 0.0
C769 C 0.35611 0.42856 0.1431 0.0
C770 C 0.32838 0.40929 0.1282 0.0
C771 C 0.33074 0.39155 0.1077 0.0
H772 H 0.85393 0.81174 0.77387 0.0
H773 H 0.805 0.75069 0.70877 0.0
H774 H 0.88758 0.78732 0.77998 0.0
H775 H 0.83893 0.7266 0.71476 0.0
H776 H 0.92805 0.71021 0.71985 0.0
H777 H 0.89977 0.73921 0.71263 0.0
H778 H 0.87383 0.73445 0.79353 0.0
H779 H 0.90075 0.70439 0.8007 0.0
C780 C 0.85062 0.79335 0.76069 0.0
C781 C 0.82675 0.78306 0.74089 0.0
C782 C 0.86977 0.77933 0.76428 0.0
C783 C 0.8658 0.75509 0.74786 0.0
C784 C 0.84265 0.74539 0.72757 0.0
C785 C 0.82314 0.75909 0.72424 0.0
C786 C 0.91615 0.71511 0.73611 0.0
C787 C 0.91658 0.70469 0.76085 0.0
C788 C 0.90012 0.73187 0.73196 0.0
C789 C 0.88463 0.73902 0.75252 0.0
C790 C 0.88592 0.72953 0.7774 0.0
C791 C 0.90151 0.7124 0.7815 0.0
H792 H 0.67376 0.389 0.32709 0.0
H793 H 0.68544 0.33778 0.26266 0.0
H794 H 0.72842 0.42929 0.31998 0.0
H795 H 0.73967 0.37855 0.25489 0.0
H796 H 0.84776 0.44845 0.26248 0.0
H797 H 0.79448 0.40609 0.27074 0.0
H798 H 0.75576 0.46668 0.28978 0.0
H799 H 0.80911 0.50873 0.28226 0.0
C800 C 0.688 0.38634 0.3114 0.0
C801 C 0.67519 0.36023 0.29539 0.0
C802 C 0.71927 0.40955 0.30717 0.0
C803 C 0.73838 0.40738 0.28664 0.0
C804 C 0.72583 0.38092 0.27102 0.0
C805 C 0.69464 0.35757 0.27542 0.0
C806 C 0.82772 0.45256 0.26828 0.0
C807 C 0.83254 0.48181 0.27193 0.0
C808 C 0.79719 0.42835 0.273 0.0
C809 C 0.77083 0.43293 0.2812 0.0
C810 C 0.77565 0.46227 0.28416 0.0
C811 C 0.80616 0.4864 0.27971 0.0
H812 H 0.21645 0.5209 0.78157 0.0
H813 H 0.28925 0.61193 0.79929 0.0
H814 H 0.17386 0.53591 0.78336 0.0
H815 H 0.24643 0.62688 0.80131 0.0
H816 H 0.16192 0.64407 0.77326 0.0
H817 H 0.20638 0.6311 0.77222 0.0
H818 H 0.14784 0.55384 0.81638 0.0
H819 H 0.10334 0.56633 0.81686 0.0
C820 C 0.22338 0.54411 0.78588 0.0
C821 C 0.25624 0.5652 0.79035 0.0
C822 C 0.19894 0.55268 0.78705 0.0
C823 C 0.20677 0.58256 0.79261 0.0
C824 C 0.23967 0.60374 0.79681 0.0
C825 C 0.26415 0.59513 0.79578 0.0
C826 C 0.15868 0.6244 0.78279 0.0
C827 C 0.12922 0.60632 0.79525 0.0
C828 C 0.18417 0.61707 0.78235 0.0
C829 C 0.18054 0.59137 0.79413 0.0
C830 C 0.15126 0.5736 0.80689 0.0
C831 C 0.12592 0.58099 0.80746 0.0
H832 H 0.30495 0.86572 0.28448 0.0
H833 H 0.24574 0.9082 0.30427 0.0
H834 H 0.25591 0.81769 0.28023 0.0
H835 H 0.19664 0.85995 0.30037 0.0
H836 H 0.1168 0.77578 0.25791 0.0
H837 H 0.16564 0.82366 0.26512 0.0
H838 H 0.21153 0.7805 0.30536 0.0
H839 H 0.16303 0.73247 0.29744 0.0
C840 C 0.2815 0.86479 0.28821 0.0
C841 C 0.27926 0.89084 0.2946 0.0
C842 C 0.25339 0.8372 0.28589 0.0
C843 C 0.22236 0.83501 0.28984 0.0
C844 C 0.22016 0.86096 0.29684 0.0
C845 C 0.24831 0.88857 0.29926 0.0
C846 C 0.13742 0.77649 0.26811 0.0
C847 C 0.13611 0.75033 0.27702 0.0
C848 C 0.16524 0.80397 0.27253 0.0
C849 C 0.19243 0.8059 0.28589 0.0
C850 C 0.19108 0.77973 0.29484 0.0
C851 C 0.16321 0.75226 0.29051 0.0
H852 H 0.76058 0.85196 0.64767 0.0
H853 H 0.79176 0.93323 0.69488 0.0
H854 H 0.74822 0.8751 0.6118 0.0
H855 H 0.77884 0.9558 0.65929 0.0
H856 H 0.69916 0.95953 0.60715 0.0
H857 H 0.71899 0.93819 0.63957 0.0
H858 H 0.77853 0.92384 0.58166 0.0
H859 H 0.75908 0.94584 0.54916 0.0
C860 C 0.76535 0.87485 0.65026 0.0
C861 C 0.77692 0.89065 0.67422 0.0
C862 C 0.75831 0.88804 0.62974 0.0
C863 C 0.76226 0.91703 0.63302 0.0
C864 C 0.77532 0.9333 0.65644 0.0
C865 C 0.78285 0.92036 0.67675 0.0
C866 C 0.71637 0.95169 0.60135 0.0
C867 C 0.72759 0.95422 0.57574 0.0
C868 C 0.72785 0.93971 0.61987 0.0
C869 C 0.75036 0.92956 0.61304 0.0
C870 C 0.76118 0.93154 0.58731 0.0
C871 C 0.75016 0.94413 0.56884 0.0
H872 H 0.46954 0.2957 0.27554 0.0
H873 H 0.51281 0.26008 0.21904 0.0
H874 H 0.42712 0.28809 0.24382 0.0
H875 H 0.47081 0.2526 0.1876 0.0
H876 H 0.38758 0.23083 0.13642 0.0
H877 H 0.41192 0.22581 0.17629 0.0
H878 H 0.43118 0.31419 0.20281 0.0
H879 H 0.40609 0.31891 0.16321 0.0
C880 C 0.4696 0.2857 0.25657 0.0
C881 C 0.49467 0.27879 0.24963 0.0
C882 C 0.44542 0.28145 0.23843 0.0
C883 C 0.44568 0.2698 0.21323 0.0
C884 C 0.46966 0.26127 0.20694 0.0
C885 C 0.49394 0.26582 0.22489 0.0
C886 C 0.3959 0.24874 0.15118 0.0
C887 C 0.39528 0.27541 0.14661 0.0
C888 C 0.4101 0.24596 0.1739 0.0
C889 C 0.42386 0.26976 0.19248 0.0
C890 C 0.42067 0.29541 0.18891 0.0
C891 C 0.40657 0.29823 0.16615 0.0
H892 H 0.41108 0.45781 0.77366 0.0
H893 H 0.39883 0.50428 0.71022 0.0
H894 H 0.41795 0.42372 0.74283 0.0
H895 H 0.40506 0.46966 0.67929 0.0
H896 H 0.45123 0.42191 0.63188 0.0
H897 H 0.44621 0.45659 0.66328 0.0
H898 H 0.38652 0.38348 0.71145 0.0
H899 H 0.39259 0.34887 0.68039 0.0
C900 C 0.40973 0.46071 0.75311 0.0
C901 C 0.40441 0.48379 0.7444 0.0
C902 C 0.41348 0.44102 0.73544 0.0
C903 C 0.41199 0.4439 0.7086 0.0
C904 C 0.40674 0.46704 0.69985 0.0
C905 C 0.40299 0.48679 0.71756 0.0
C906 C 0.43758 0.4133 0.64943 0.0
C907 C 0.42261 0.38267 0.65382 0.0
C908 C 0.43427 0.43313 0.66723 0.0
C909 C 0.41588 0.42282 0.68984 0.0
C910 C 0.40114 0.3922 0.69435 0.0
C911 C 0.40441 0.37233 0.6765 0.0
H912 H 0.40738 0.02851 0.2214 0.0
H913 H 0.48576 0.03705 0.27126 0.0
H914 H 0.44258 0.0377 0.18391 0.0
H915 H 0.52119 0.04682 0.2337 0.0
H916 H 0.54688 0.0088 0.15847 0.0
H917 H 0.52037 0.01343 0.19807 0.0
H918 H 0.49159 0.07156 0.16052 0.0
H919 H 0.51765 0.06626 0.12045 0.0
C920 C 0.43235 0.03302 0.22447 0.0
C921 C 0.44356 0.03154 0.24931 0.0
C922 C 0.45263 0.03848 0.20295 0.0
C923 C 0.48456 0.0426 0.20576 0.0
C924 C 0.4965 0.04319 0.23084 0.0
C925 C 0.47622 0.03774 0.25239 0.0
C926 C 0.53502 0.02268 0.15871 0.0
C927 C 0.53392 0.03683 0.13629 0.0
C928 C 0.52019 0.02567 0.18151 0.0
C929 C 0.50383 0.04286 0.18246 0.0
C930 C 0.50379 0.05797 0.16032 0.0
C931 C 0.51885 0.0551 0.13746 0.0
H932 H 0.59559 0.18391 0.30521 0.0
H933 H 0.56723 0.2191 0.37282 0.0
H934 H 0.6036 0.14989 0.33213 0.0
H935 H 0.57431 0.18442 0.39967 0.0
H936 H 0.63302 0.14798 0.44252 0.0
H937 H 0.61891 0.17857 0.41609 0.0
H938 H 0.57682 0.10668 0.35775 0.0
H939 H 0.5925 0.07657 0.38367 0.0
C940 C 0.59066 0.18412 0.32577 0.0
C941 C 0.58103 0.20437 0.33691 0.0
C942 C 0.59503 0.16445 0.3412 0.0
C943 C 0.58972 0.16448 0.3681 0.0
C944 C 0.57915 0.18416 0.37909 0.0
C945 C 0.57493 0.20393 0.36368 0.0
C946 C 0.62094 0.13874 0.42398 0.0
C947 C 0.61421 0.10993 0.41509 0.0
C948 C 0.61241 0.15615 0.40897 0.0
C949 C 0.59676 0.14512 0.38475 0.0
C950 C 0.58923 0.116 0.37616 0.0
C951 C 0.59788 0.0986 0.39115 0.0
H952 H 0.41622 0.53748 0.8694 0.0
H953 H 0.31106 0.48434 0.86736 0.0
H954 H 0.41941 0.50714 0.90319 0.0
H955 H 0.31444 0.45385 0.90109 0.0
H956 H 0.33407 0.41281 0.97226 0.0
H957 H 0.33101 0.45096 0.94706 0.0
H958 H 0.40864 0.45439 0.89811 0.0
H959 H 0.41117 0.41603 0.92254 0.0
C960 C 0.39371 0.51976 0.87652 0.0
C961 C 0.36341 0.51302 0.86533 0.0
C962 C 0.39559 0.50229 0.8958 0.0
C963 C 0.36724 0.4778 0.9044 0.0
C964 C 0.33671 0.4726 0.89484 0.0
C965 C 0.33481 0.49004 0.87546 0.0
C966 C 0.35039 0.42164 0.95606 0.0
C967 C 0.37298 0.4114 0.94954 0.0
C968 C 0.34873 0.44358 0.94175 0.0
C969 C 0.36985 0.4559 0.92084 0.0
C970 C 0.39257 0.44586 0.91452 0.0
C971 C 0.39403 0.42383 0.92858 0.0
H972 H 0.44877 0.06959 0.40337 0.0
H973 H 0.35546 0.05897 0.37785 0.0
H974 H 0.45247 0.10709 0.43635 0.0
H975 H 0.35921 0.09636 0.41078 0.0
H976 H 0.36149 0.14229 0.48914 0.0
H977 H 0.35898 0.10262 0.45946 0.0
H978 H 0.45859 0.15901 0.43694 0.0
H979 H 0.46097 0.19899 0.46609 0.0
C980 C 0.42903 0.07519 0.40483 0.0
C981 C 0.40182 0.06133 0.38798 0.0
C982 C 0.43122 0.09673 0.42365 0.0
C983 C 0.40607 0.10455 0.42621 0.0
C984 C 0.37878 0.09051 0.40949 0.0
C985 C 0.37675 0.06925 0.39051 0.0
C986 C 0.38288 0.14628 0.47788 0.0
C987 C 0.41135 0.17396 0.47991 0.0
C988 C 0.38143 0.12353 0.4609 0.0
C989 C 0.4085 0.12781 0.44574 0.0
C990 C 0.43743 0.15498 0.44854 0.0
C991 C 0.4388 0.17785 0.46536 0.0
H992 H 0.75342 0.88202 0.8423 0.0
H993 H 0.71203 0.91994 0.79053 0.0
H994 H 0.73008 0.89676 0.87934 0.0
H995 H 0.68947 0.93512 0.82736 0.0
H996 H 0.62698 0.93375 0.89525 0.0
H997 H 0.64785 0.91452 0.85988 0.0
H998 H 0.73734 0.94209 0.90324 0.0
H999 H 0.71583 0.96018 0.93918 0.0
C1000 C 0.73935 0.89345 0.83882 0.0
C1001 C 0.73457 0.89978 0.81347 0.0
C1002 C 0.72614 0.90204 0.86004 0.0
C1003 C 0.70786 0.91707 0.8563 0.0
C1004 C 0.70296 0.92316 0.83091 0.0
C1005 C 0.71611 0.9146 0.80978 0.0
C1006 C 0.65091 0.93532 0.89742 0.0
C1007 C 0.66977 0.94856 0.92002 0.0
C1008 C 0.66303 0.92459 0.87702 0.0
C1009 C 0.69434 0.92693 0.87867 0.0
C1010 C 0.71302 0.93973 0.90144 0.0
C1011 C 0.70086 0.95044 0.92188 0.0
loop_
_geom_bond_atom_site_label_1
_geom_bond_atom_site_label_2
_geom_bond_distance
_geom_bond_site_symmetry_2
_ccdc_geom_bond_type
O0 Cd1 2.300 . S
O0 C7 1.275 . S
Cd1 O0 2.300 . S
Cd1 O9 2.381 . S
Cd1 O10 2.378 . S
O2 Cd3 2.385 . S
O2 C7 1.255 . S
Cd3 O2 2.385 . S
Cd3 O4 2.317 . S
O4 Cd3 2.317 . S
O4 C5 1.232 . S
C5 O4 1.232 . S
C5 O6 1.218 . S
O6 C5 1.218 . S
C7 O0 1.275 . S
C7 O2 1.255 . S
C8 O9 1.258 . S
C8 O10 1.256 . S
O9 Cd1 2.381 . S
O9 C8 1.258 . S
O10 Cd1 2.378 . S
O10 C8 1.256 . S
O11 Cd12 2.300 . S
O11 C18 1.275 . S
Cd12 O11 2.300 . S
Cd12 O20 2.381 . S
Cd12 O21 2.378 . S
O13 Cd14 2.385 . S
O13 C18 1.255 1_565 S
Cd14 O13 2.385 . S
Cd14 O15 2.317 . S
O15 Cd14 2.317 . S
O15 C16 1.232 . S
C16 O15 1.232 . S
C16 O17 1.218 . S
O17 C16 1.218 . S
C18 O11 1.275 . S
C18 O13 1.255 1_545 S
C19 O20 1.258 . S
C19 O21 1.256 . S
O20 Cd12 2.381 . S
O20 C19 1.258 . S
O21 Cd12 2.378 . S
O21 C19 1.256 . S
O22 Cd23 2.300 . S
O22 C29 1.275 . S
Cd23 O22 2.300 . S
Cd23 O31 2.381 . S
Cd23 O32 2.378 . S
O24 Cd25 2.385 . S
O24 C29 1.255 . S
Cd25 O24 2.385 . S
Cd25 O26 2.317 . S
O26 Cd25 2.317 . S
O26 C27 1.232 . S
C27 O26 1.232 . S
C27 O28 1.218 . S
O28 C27 1.218 . S
C29 O22 1.275 . S
C29 O24 1.255 . S
C30 O31 1.258 . S
C30 O32 1.256 . S
O31 Cd23 2.381 . S
O31 C30 1.258 . S
O32 Cd23 2.378 . S
O32 C30 1.256 . S
O33 Cd34 2.300 . S
O33 C40 1.275 . S
Cd34 O33 2.300 . S
Cd34 O42 2.381 . S
Cd34 O43 2.378 . S
O35 Cd36 2.385 . S
O35 C40 1.255 . S
Cd36 O35 2.385 . S
Cd36 O37 2.317 . S
O37 Cd36 2.317 . S
O37 C38 1.232 . S
C38 O37 1.232 . S
C38 O39 1.218 . S
O39 C38 1.218 . S
C40 O33 1.275 . S
C40 O35 1.255 . S
C41 O42 1.258 . S
C41 O43 1.256 . S
O42 Cd34 2.381 . S
O42 C41 1.258 . S
O43 Cd34 2.378 . S
O43 C41 1.256 . S
O44 Cd45 2.300 . S
O44 C51 1.275 . S
Cd45 O44 2.300 . S
Cd45 O53 2.381 . S
Cd45 O54 2.378 . S
O46 Cd47 2.385 . S
O46 C51 1.255 . S
Cd47 O46 2.385 . S
Cd47 O48 2.317 . S
O48 Cd47 2.317 . S
O48 C49 1.232 . S
C49 O48 1.232 . S
C49 O50 1.218 . S
O50 C49 1.218 . S
C51 O44 1.275 . S
C51 O46 1.255 . S
C52 O53 1.258 . S
C52 O54 1.256 . S
O53 Cd45 2.381 . S
O53 C52 1.258 . S
O54 Cd45 2.378 . S
O54 C52 1.256 . S
O55 Cd56 2.300 . S
O55 C62 1.275 . S
Cd56 O55 2.300 . S
Cd56 O64 2.381 . S
Cd56 O65 2.378 . S
O57 Cd58 2.385 . S
O57 C62 1.255 . S
Cd58 O57 2.385 . S
Cd58 O59 2.317 . S
O59 Cd58 2.317 . S
O59 C60 1.232 . S
C60 O59 1.232 . S
C60 O61 1.218 . S
O61 C60 1.218 . S
C62 O55 1.275 . S
C62 O57 1.255 . S
C63 O64 1.258 . S
C63 O65 1.256 . S
O64 Cd56 2.381 . S
O64 C63 1.258 . S
O65 Cd56 2.378 . S
O65 C63 1.256 . S
O66 Cd67 2.300 . S
O66 C73 1.275 . S
Cd67 O66 2.300 . S
Cd67 O75 2.381 . S
Cd67 O76 2.378 . S
O68 Cd69 2.385 . S
O68 C73 1.255 . S
Cd69 O68 2.385 . S
Cd69 O70 2.317 . S
O70 Cd69 2.317 . S
O70 C71 1.232 . S
C71 O70 1.232 . S
C71 O72 1.218 . S
O72 C71 1.218 . S
C73 O66 1.275 . S
C73 O68 1.255 . S
C74 O75 1.258 . S
C74 O76 1.256 . S
O75 Cd67 2.381 . S
O75 C74 1.258 . S
O76 Cd67 2.378 . S
O76 C74 1.256 . S
O77 Cd78 2.300 . S
O77 C84 1.275 . S
Cd78 O77 2.300 . S
Cd78 O86 2.381 1_565 S
Cd78 O87 2.378 1_565 S
O79 Cd80 2.385 . S
O79 C84 1.255 . S
Cd80 O79 2.385 . S
Cd80 O81 2.317 . S
O81 Cd80 2.317 . S
O81 C82 1.232 . S
C82 O81 1.232 . S
C82 O83 1.218 . S
O83 C82 1.218 . S
C84 O77 1.275 . S
C84 O79 1.255 . S
C85 O86 1.258 . S
C85 O87 1.256 . S
O86 Cd78 2.381 1_545 S
O86 C85 1.258 . S
O87 Cd78 2.378 1_545 S
O87 C85 1.256 . S
H88 O114 0.856 . S
H89 O117 0.854 . S
H90 C125 0.930 . S
H91 C126 0.930 . S
H92 C128 0.930 . S
H93 C129 0.930 . S
H94 C131 0.931 . S
H95 C132 0.930 . S
H96 C134 0.930 1_455 S
H97 C135 0.929 . S
H98 C137 0.930 . S
H99 C138 0.931 . S
H100 C140 0.930 . S
H101 C141 0.929 . S
H102 C143 0.931 . S
H103 C144 0.930 . S
H104 C146 0.930 . S
H105 C147 0.932 . S
H106 C149 0.930 . S
H107 C150 0.929 . S
H108 C152 0.931 . S
H109 C153 0.930 . S
H110 C155 0.929 . S
H111 C156 0.931 . S
H112 C158 0.930 . S
H113 C159 0.929 . S
O114 H88 0.856 . S
O114 C160 1.300 . S
O115 C160 1.209 . S
O116 C161 1.199 . S
O117 H89 0.854 . S
O117 C161 1.297 . S
C118 C119 1.404 1_455 S
C118 C123 1.397 . S
C118 C124 1.492 . S
C119 C118 1.404 1_655 S
C119 C120 1.396 . S
C119 C130 1.492 . S
C120 C119 1.396 . S
C120 C121 1.397 . S
C120 C136 1.509 . S
C121 C120 1.397 . S
C121 C122 1.412 . S
C121 C142 1.485 . S
C122 C121 1.412 . S
C122 C123 1.388 1_655 S
C122 C148 1.490 . S
C123 C118 1.397 . S
C123 C122 1.388 1_455 S
C123 C154 1.519 . S
C124 C118 1.492 . S
C124 C125 1.363 . S
C124 C129 1.390 . S
C125 H90 0.930 . S
C125 C124 1.363 . S
C125 C126 1.372 . S
C126 H91 0.930 . S
C126 C125 1.372 . S
C126 C127 1.383 . S
C127 C126 1.383 . S
C127 C128 1.395 . S
C128 H92 0.930 . S
C128 C127 1.395 . S
C128 C129 1.362 . S
C129 H93 0.930 . S
C129 C124 1.390 . S
C129 C128 1.362 . S
C130 C119 1.492 . S
C130 C131 1.377 . S
C130 C135 1.397 . S
C131 H94 0.931 . S
C131 C130 1.377 . S
C131 C132 1.376 . S
C132 H95 0.930 . S
C132 C131 1.376 . S
C132 C133 1.376 . S
C133 C132 1.376 . S
C133 C134 1.378 . S
C133 C160 1.486 . S
C134 H96 0.930 1_655 S
C134 C133 1.378 . S
C134 C135 1.376 . S
C135 H97 0.929 . S
C135 C130 1.397 . S
C135 C134 1.376 . S
C136 C120 1.509 . S
C136 C137 1.391 . S
C136 C141 1.386 . S
C137 H98 0.930 . S
C137 C136 1.391 . S
C137 C138 1.375 . S
C138 H99 0.931 . S
C138 C137 1.375 . S
C138 C139 1.375 . S
C139 C138 1.375 . S
C139 C140 1.361 . S
C140 H100 0.930 . S
C140 C139 1.361 . S
C140 C141 1.399 . S
C141 H101 0.929 . S
C141 C136 1.386 . S
C141 C140 1.399 . S
C142 C121 1.485 . S
C142 C143 1.394 . S
C142 C147 1.360 . S
C143 H102 0.931 . S
C143 C142 1.394 . S
C143 C144 1.372 . S
C144 H103 0.930 . S
C144 C143 1.372 . S
C144 C145 1.397 . S
C145 C144 1.397 . S
C145 C146 1.390 . S
C145 C161 1.476 . S
C146 H104 0.930 . S
C146 C145 1.390 . S
C146 C147 1.366 . S
C147 H105 0.932 . S
C147 C142 1.360 . S
C147 C146 1.366 . S
C148 C122 1.490 . S
C148 C149 1.380 . S
C148 C153 1.386 . S
C149 H106 0.930 . S
C149 C148 1.380 . S
C149 C150 1.381 . S
C150 H107 0.929 . S
C150 C149 1.381 . S
C150 C151 1.371 . S
C151 C150 1.371 . S
C151 C152 1.380 . S
C152 H108 0.931 . S
C152 C151 1.380 . S
C152 C153 1.387 . S
C153 H109 0.930 . S
C153 C148 1.386 . S
C153 C152 1.387 . S
C154 C123 1.519 . S
C154 C155 1.377 . S
C154 C159 1.361 . S
C155 H110 0.929 . S
C155 C154 1.377 . S
C155 C156 1.386 . S
C156 H111 0.931 . S
C156 C155 1.386 . S
C156 C157 1.363 . S
C157 C156 1.363 . S
C157 C158 1.385 . S
C158 H112 0.930 . S
C158 C157 1.385 . S
C158 C159 1.396 . S
C159 H113 0.929 . S
C159 C154 1.361 . S
C159 C158 1.396 . S
C160 O114 1.300 . S
C160 O115 1.209 . S
C160 C133 1.486 . S
C161 O116 1.199 . S
C161 O117 1.297 . S
C161 C145 1.476 . S
H162 O188 0.856 . S
H163 O191 0.854 . S
H164 C199 0.930 . S
H165 C200 0.930 . S
H166 C202 0.930 . S
H167 C203 0.930 . S
H168 C205 0.931 . S
H169 C206 0.930 . S
H170 C208 0.930 . S
H171 C209 0.929 . S
H172 C211 0.930 . S
H173 C212 0.931 . S
H174 C214 0.930 . S
H175 C215 0.929 . S
H176 C217 0.931 . S
H177 C218 0.930 . S
H178 C220 0.930 . S
H179 C221 0.932 . S
H180 C223 0.930 . S
H181 C224 0.929 . S
H182 C226 0.931 . S
H183 C227 0.930 . S
H184 C229 0.929 . S
H185 C230 0.931 . S
H186 C232 0.930 . S
H187 C233 0.929 . S
O188 H162 0.856 . S
O188 C234 1.300 . S
O189 C234 1.209 . S
O190 C235 1.199 . S
O191 H163 0.854 . S
O191 C235 1.297 . S
C192 C193 1.404 1_455 S
C192 C197 1.397 1_455 S
C192 C198 1.492 . S
C193 C192 1.404 1_655 S
C193 C194 1.396 . S
C193 C204 1.492 . S
C194 C193 1.396 . S
C194 C195 1.397 . S
C194 C210 1.509 . S
C195 C194 1.397 . S
C195 C196 1.412 . S
C195 C216 1.485 . S
C196 C195 1.412 . S
C196 C197 1.388 . S
C196 C222 1.490 . S
C197 C192 1.397 1_655 S
C197 C196 1.388 . S
C197 C228 1.519 1_655 S
C198 C192 1.492 . S
C198 C199 1.363 . S
C198 C203 1.390 . S
C199 H164 0.930 . S
C199 C198 1.363 . S
C199 C200 1.372 . S
C200 H165 0.930 . S
C200 C199 1.372 . S
C200 C201 1.383 . S
C201 C200 1.383 . S
C201 C202 1.395 . S
C202 H166 0.930 . S
C202 C201 1.395 . S
C202 C203 1.362 . S
C203 H167 0.930 . S
C203 C198 1.390 . S
C203 C202 1.362 . S
C204 C193 1.492 . S
C204 C205 1.377 . S
C204 C209 1.397 1_655 S
C205 H168 0.931 . S
C205 C204 1.377 . S
C205 C206 1.376 . S
C206 H169 0.930 . S
C206 C205 1.376 . S
C206 C207 1.376 1_655 S
C207 C206 1.376 1_455 S
C207 C208 1.378 . S
C207 C234 1.486 . S
C208 H170 0.930 . S
C208 C207 1.378 . S
C208 C209 1.376 . S
C209 H171 0.929 . S
C209 C204 1.397 1_455 S
C209 C208 1.376 . S
C210 C194 1.509 . S
C210 C211 1.391 . S
C210 C215 1.386 . S
C211 H172 0.930 . S
C211 C210 1.391 . S
C211 C212 1.375 . S
C212 H173 0.931 . S
C212 C211 1.375 . S
C212 C213 1.375 . S
C213 C212 1.375 . S
C213 C214 1.361 . S
C214 H174 0.930 . S
C214 C213 1.361 . S
C214 C215 1.399 . S
C215 H175 0.929 . S
C215 C210 1.386 . S
C215 C214 1.399 . S
C216 C195 1.485 . S
C216 C217 1.394 . S
C216 C221 1.360 . S
C217 H176 0.931 . S
C217 C216 1.394 . S
C217 C218 1.372 . S
C218 H177 0.930 . S
C218 C217 1.372 . S
C218 C219 1.397 . S
C219 C218 1.397 . S
C219 C220 1.390 . S
C219 C235 1.476 . S
C220 H178 0.930 . S
C220 C219 1.390 . S
C220 C221 1.366 . S
C221 H179 0.932 . S
C221 C216 1.360 . S
C221 C220 1.366 . S
C222 C196 1.490 . S
C222 C223 1.380 . S
C222 C227 1.386 . S
C223 H180 0.930 . S
C223 C222 1.380 . S
C223 C224 1.381 . S
C224 H181 0.929 . S
C224 C223 1.381 . S
C224 C225 1.371 . S
C225 C224 1.371 . S
C225 C226 1.380 . S
C226 H182 0.931 . S
C226 C225 1.380 . S
C226 C227 1.387 . S
C227 H183 0.930 . S
C227 C222 1.386 . S
C227 C226 1.387 . S
C228 C197 1.519 1_455 S
C228 C229 1.377 . S
C228 C233 1.361 . S
C229 H184 0.929 . S
C229 C228 1.377 . S
C229 C230 1.386 . S
C230 H185 0.931 . S
C230 C229 1.386 . S
C230 C231 1.363 . S
C231 C230 1.363 . S
C231 C232 1.385 . S
C232 H186 0.930 . S
C232 C231 1.385 . S
C232 C233 1.396 . S
C233 H187 0.929 . S
C233 C228 1.361 . S
C233 C232 1.396 . S
C234 O188 1.300 . S
C234 O189 1.209 . S
C234 C207 1.486 . S
C235 O190 1.199 . S
C235 O191 1.297 . S
C235 C219 1.476 . S
H236 O262 0.856 . S
H237 O265 0.854 . S
H238 C273 0.930 . S
H239 C274 0.930 . S
H240 C276 0.930 . S
H241 C277 0.930 . S
H242 C279 0.931 . S
H243 C280 0.930 . S
H244 C282 0.930 . S
H245 C283 0.929 . S
H246 C285 0.930 . S
H247 C286 0.931 . S
H248 C288 0.930 . S
H249 C289 0.929 . S
H250 C291 0.931 . S
H251 C292 0.930 . S
H252 C294 0.930 . S
H253 C295 0.932 . S
H254 C297 0.930 . S
H255 C298 0.929 . S
H256 C300 0.931 . S
H257 C301 0.930 . S
H258 C303 0.929 . S
H259 C304 0.931 . S
H260 C306 0.930 . S
H261 C307 0.929 . S
O262 H236 0.856 . S
O262 C308 1.300 . S
O263 C308 1.209 . S
O264 C309 1.199 . S
O265 H237 0.854 . S
O265 C309 1.297 . S
C266 C267 1.404 . S
C266 C271 1.397 . S
C266 C272 1.492 . S
C267 C266 1.404 . S
C267 C268 1.396 . S
C267 C278 1.492 . S
C268 C267 1.396 . S
C268 C269 1.397 . S
C268 C284 1.509 . S
C269 C268 1.397 . S
C269 C270 1.412 . S
C269 C290 1.485 . S
C270 C269 1.412 . S
C270 C271 1.388 . S
C270 C296 1.490 . S
C271 C266 1.397 . S
C271 C270 1.388 . S
C271 C302 1.519 . S
C272 C266 1.492 . S
C272 C273 1.363 . S
C272 C277 1.390 . S
C273 H238 0.930 . S
C273 C272 1.363 . S
C273 C274 1.372 . S
C274 H239 0.930 . S
C274 C273 1.372 . S
C274 C275 1.383 . S
C275 C274 1.383 . S
C275 C276 1.395 . S
C276 H240 0.930 . S
C276 C275 1.395 . S
C276 C277 1.362 . S
C277 H241 0.930 . S
C277 C272 1.390 . S
C277 C276 1.362 . S
C278 C267 1.492 . S
C278 C279 1.377 . S
C278 C283 1.397 . S
C279 H242 0.931 . S
C279 C278 1.377 . S
C279 C280 1.376 . S
C280 H243 0.930 . S
C280 C279 1.376 . S
C280 C281 1.376 . S
C281 C280 1.376 . S
C281 C282 1.378 . S
C281 C308 1.486 . S
C282 H244 0.930 . S
C282 C281 1.378 . S
C282 C283 1.376 . S
C283 H245 0.929 . S
C283 C278 1.397 . S
C283 C282 1.376 . S
C284 C268 1.509 . S
C284 C285 1.391 . S
C284 C289 1.386 . S
C285 H246 0.930 . S
C285 C284 1.391 . S
C285 C286 1.375 . S
C286 H247 0.931 . S
C286 C285 1.375 . S
C286 C287 1.375 . S
C287 C286 1.375 . S
C287 C288 1.361 . S
C288 H248 0.930 . S
C288 C287 1.361 . S
C288 C289 1.399 . S
C289 H249 0.929 . S
C289 C284 1.386 . S
C289 C288 1.399 . S
C290 C269 1.485 . S
C290 C291 1.394 . S
C290 C295 1.360 . S
C291 H250 0.931 . S
C291 C290 1.394 . S
C291 C292 1.372 . S
C292 H251 0.930 . S
C292 C291 1.372 . S
C292 C293 1.397 . S
C293 C292 1.397 . S
C293 C294 1.390 . S
C293 C309 1.476 . S
C294 H252 0.930 . S
C294 C293 1.390 . S
C294 C295 1.366 . S
C295 H253 0.932 . S
C295 C290 1.360 . S
C295 C294 1.366 . S
C296 C270 1.490 . S
C296 C297 1.380 . S
C296 C301 1.386 . S
C297 H254 0.930 . S
C297 C296 1.380 . S
C297 C298 1.381 . S
C298 H255 0.929 . S
C298 C297 1.381 . S
C298 C299 1.371 . S
C299 C298 1.371 . S
C299 C300 1.380 . S
C300 H256 0.931 . S
C300 C299 1.380 . S
C300 C301 1.387 . S
C301 H257 0.930 . S
C301 C296 1.386 . S
C301 C300 1.387 . S
C302 C271 1.519 . S
C302 C303 1.377 . S
C302 C307 1.361 . S
C303 H258 0.929 . S
C303 C302 1.377 . S
C303 C304 1.386 . S
C304 H259 0.931 . S
C304 C303 1.386 . S
C304 C305 1.363 . S
C305 C304 1.363 . S
C305 C306 1.385 . S
C306 H260 0.930 . S
C306 C305 1.385 . S
C306 C307 1.396 . S
C307 H261 0.929 . S
C307 C302 1.361 . S
C307 C306 1.396 . S
C308 O262 1.300 . S
C308 O263 1.209 . S
C308 C281 1.486 . S
C309 O264 1.199 . S
C309 O265 1.297 . S
C309 C293 1.476 . S
H310 O336 0.856 1_565 S
H311 O339 0.854 . S
H312 C347 0.930 . S
H313 C348 0.930 . S
H314 C350 0.930 . S
H315 C351 0.930 . S
H316 C353 0.931 . S
H317 C354 0.930 . S
H318 C356 0.930 . S
H319 C357 0.929 . S
H320 C359 0.930 1_545 S
H321 C360 0.941 . S
H322 C362 0.930 . S
H323 C363 0.929 . S
H324 C365 0.931 1_545 S
H325 C366 0.930 1_545 S
H326 C368 0.930 . S
H327 C369 0.932 . S
H328 C371 0.930 . S
H329 C372 0.929 . S
H330 C374 0.931 . S
H331 C375 0.930 . S
H332 C377 0.929 . S
H333 C378 0.931 . S
H334 C380 0.930 . S
H335 C381 0.929 . S
O336 H310 0.856 1_545 S
O336 C382 1.300 1_545 S
O337 C382 1.209 . S
O338 C383 1.199 . S
O339 H311 0.854 . S
O339 C383 1.297 . S
C340 C341 1.404 1_554 S
C340 C345 1.397 . S
C340 C346 1.492 1_565 S
C341 C340 1.404 1_556 S
C341 C342 1.396 . S
C341 C352 1.492 . S
C342 C341 1.396 . S
C342 C343 1.397 1_556 S
C342 C358 1.509 . S
C343 C342 1.397 1_554 S
C343 C344 1.412 . S
C343 C364 1.485 . S
C344 C343 1.412 . S
C344 C345 1.388 . S
C344 C370 1.490 . S
C345 C340 1.397 . S
C345 C344 1.388 . S
C345 C376 1.519 . S
C346 C340 1.492 1_545 S
C346 C347 1.363 1_554 S
C346 C351 1.390 1_545 S
C347 H312 0.930 . S
C347 C346 1.363 1_556 S
C347 C348 1.372 . S
C348 H313 0.930 . S
C348 C347 1.372 . S
C348 C349 1.389 . S
C349 C348 1.389 . S
C349 C350 1.385 1_546 S
C350 H314 0.930 . S
C350 C349 1.385 1_564 S
C350 C351 1.362 . S
C351 H315 0.930 . S
C351 C346 1.390 1_565 S
C351 C350 1.362 . S
C352 C341 1.492 . S
C352 C353 1.377 1_565 S
C352 C357 1.397 . S
C353 H316 0.931 . S
C353 C352 1.377 1_545 S
C353 C354 1.376 . S
C354 H317 0.930 . S
C354 C353 1.376 . S
C354 C355 1.376 1_545 S
C355 C354 1.376 1_565 S
C355 C356 1.378 . S
C355 C382 1.486 . S
C356 H318 0.930 . S
C356 C355 1.378 . S
C356 C357 1.376 . S
C357 H319 0.929 . S
C357 C352 1.397 . S
C357 C356 1.376 . S
C358 C342 1.509 . S
C358 C359 1.391 . S
C358 C363 1.386 . S
C359 H320 0.930 1_565 S
C359 C358 1.391 . S
C359 C360 1.375 . S
C360 H321 0.941 . S
C360 C359 1.375 . S
C360 C361 1.375 . S
C361 C360 1.375 . S
C361 C362 1.361 . S
C362 H322 0.930 . S
C362 C361 1.361 . S
C362 C363 1.399 . S
C363 H323 0.929 . S
C363 C358 1.386 . S
C363 C362 1.399 . S
C364 C343 1.485 . S
C364 C365 1.394 . S
C364 C369 1.360 . S
C365 H324 0.931 1_565 S
C365 C364 1.394 . S
C365 C366 1.372 . S
C366 H325 0.930 1_565 S
C366 C365 1.372 . S
C366 C367 1.397 . S
C367 C366 1.397 . S
C367 C368 1.390 . S
C367 C383 1.476 . S
C368 H326 0.930 . S
C368 C367 1.390 . S
C368 C369 1.366 . S
C369 H327 0.932 . S
C369 C364 1.360 . S
C369 C368 1.366 . S
C370 C344 1.490 . S
C370 C371 1.380 1_565 S
C370 C375 1.386 . S
C371 H328 0.930 . S
C371 C370 1.380 1_545 S
C371 C372 1.381 . S
C372 H329 0.929 . S
C372 C371 1.381 . S
C372 C373 1.354 1_545 S
C373 C372 1.354 1_565 S
C373 C374 1.395 . S
C374 H330 0.931 . S
C374 C373 1.395 . S
C374 C375 1.387 . S
C375 H331 0.930 . S
C375 C370 1.386 . S
C375 C374 1.387 . S
C376 C345 1.519 . S
C376 C377 1.377 1_565 S
C376 C381 1.361 . S
C377 H332 0.929 . S
C377 C376 1.377 1_545 S
C377 C378 1.386 . S
C378 H333 0.931 . S
C378 C377 1.386 . S
C378 C379 1.363 . S
C379 C378 1.363 . S
C379 C380 1.385 1_545 S
C380 H334 0.930 . S
C380 C379 1.385 1_565 S
C380 C381 1.396 . S
C381 H335 0.929 . S
C381 C376 1.361 . S
C381 C380 1.396 . S
C382 O336 1.300 1_565 S
C382 O337 1.209 . S
C382 C355 1.486 . S
C383 O338 1.199 . S
C383 O339 1.297 . S
C383 C367 1.476 . S
H384 O410 0.856 . S
H385 O413 0.854 . S
H386 C421 0.930 . S
H387 C422 0.930 . S
H388 C424 0.930 . S
H389 C425 0.930 . S
H390 C427 0.931 . S
H391 C428 0.928 . S
H392 C430 0.930 . S
H393 C431 0.929 . S
H394 C433 0.930 . S
H395 C434 0.931 . S
H396 C436 0.930 . S
H397 C437 0.929 . S
H398 C439 0.931 . S
H399 C440 0.930 . S
H400 C442 0.930 . S
H401 C443 0.932 . S
H402 C445 0.930 . S
H403 C446 0.929 . S
H404 C448 0.931 . S
H405 C449 0.930 . S
H406 C451 0.929 . S
H407 C452 0.931 . S
H408 C454 0.930 . S
H409 C455 0.929 . S
O410 H384 0.856 . S
O410 C456 1.300 . S
O411 C456 1.209 . S
O412 C457 1.199 . S
O413 H385 0.854 . S
O413 C457 1.297 . S
C414 C415 1.404 . S
C414 C419 1.397 . S
C414 C420 1.492 1_545 S
C415 C414 1.404 . S
C415 C416 1.396 . S
C415 C426 1.492 . S
C416 C415 1.396 . S
C416 C417 1.397 . S
C416 C432 1.509 . S
C417 C416 1.397 . S
C417 C418 1.412 . S
C417 C438 1.485 . S
C418 C417 1.412 . S
C418 C419 1.388 . S
C418 C444 1.490 . S
C419 C414 1.397 . S
C419 C418 1.388 . S
C419 C450 1.519 1_545 S
C420 C414 1.492 1_565 S
C420 C421 1.363 . S
C420 C425 1.390 . S
C421 H386 0.930 . S
C421 C420 1.363 . S
C421 C422 1.372 . S
C422 H387 0.930 . S
C422 C421 1.372 . S
C422 C423 1.383 . S
C423 C422 1.383 . S
C423 C424 1.395 . S
C424 H388 0.930 . S
C424 C423 1.395 . S
C424 C425 1.362 . S
C425 H389 0.930 . S
C425 C420 1.390 . S
C425 C424 1.362 . S
C426 C415 1.492 . S
C426 C427 1.377 . S
C426 C431 1.397 . S
C427 H390 0.931 . S
C427 C426 1.377 . S
C427 C428 1.376 . S
C428 H391 0.928 . S
C428 C427 1.376 . S
C428 C429 1.376 . S
C429 C428 1.376 . S
C429 C430 1.378 . S
C429 C456 1.486 . S
C430 H392 0.930 . S
C430 C429 1.378 . S
C430 C431 1.376 . S
C431 H393 0.929 . S
C431 C426 1.397 . S
C431 C430 1.376 . S
C432 C416 1.509 . S
C432 C433 1.391 . S
C432 C437 1.386 . S
C433 H394 0.930 . S
C433 C432 1.391 . S
C433 C434 1.375 . S
C434 H395 0.931 . S
C434 C433 1.375 . S
C434 C435 1.375 . S
C435 C434 1.375 . S
C435 C436 1.361 . S
C436 H396 0.930 . S
C436 C435 1.361 . S
C436 C437 1.399 . S
C437 H397 0.929 . S
C437 C432 1.386 . S
C437 C436 1.399 . S
C438 C417 1.485 . S
C438 C439 1.394 . S
C438 C443 1.360 . S
C439 H398 0.931 . S
C439 C438 1.394 . S
C439 C440 1.372 . S
C440 H399 0.930 . S
C440 C439 1.372 . S
C440 C441 1.397 . S
C441 C440 1.397 . S
C441 C442 1.390 . S
C441 C457 1.476 . S
C442 H400 0.930 . S
C442 C441 1.390 . S
C442 C443 1.366 . S
C443 H401 0.932 . S
C443 C438 1.360 . S
C443 C442 1.366 . S
C444 C418 1.490 . S
C444 C445 1.380 1_545 S
C444 C449 1.386 . S
C445 H402 0.930 . S
C445 C444 1.380 1_565 S
C445 C446 1.381 . S
C446 H403 0.929 . S
C446 C445 1.381 . S
C446 C447 1.371 1_565 S
C447 C446 1.371 1_545 S
C447 C448 1.380 . S
C448 H404 0.931 . S
C448 C447 1.380 . S
C448 C449 1.387 . S
C449 H405 0.930 . S
C449 C444 1.386 . S
C449 C448 1.387 . S
C450 C419 1.519 1_565 S
C450 C451 1.377 . S
C450 C455 1.361 1_565 S
C451 H406 0.929 . S
C451 C450 1.377 . S
C451 C452 1.386 . S
C452 H407 0.931 . S
C452 C451 1.386 . S
C452 C453 1.363 . S
C453 C452 1.363 . S
C453 C454 1.385 . S
C454 H408 0.930 . S
C454 C453 1.385 . S
C454 C455 1.396 1_565 S
C455 H409 0.929 . S
C455 C450 1.361 1_545 S
C455 C454 1.396 1_545 S
C456 O410 1.300 . S
C456 O411 1.209 . S
C456 C429 1.486 . S
C457 O412 1.199 . S
C457 O413 1.297 . S
C457 C441 1.476 . S
H458 O484 0.856 . S
H459 O487 0.854 . S
H460 C495 0.930 . S
H461 C496 0.930 . S
H462 C498 0.930 . S
H463 C499 0.930 . S
H464 C501 0.931 . S
H465 C502 0.930 . S
H466 C504 0.930 . S
H467 C505 0.929 . S
H468 C507 0.930 . S
H469 C508 0.931 . S
H470 C510 0.930 . S
H471 C511 0.929 . S
H472 C513 0.931 . S
H473 C514 0.930 . S
H474 C516 0.930 . S
H475 C517 0.932 . S
H476 C519 0.930 . S
H477 C520 0.929 . S
H478 C522 0.931 . S
H479 C523 0.930 . S
H480 C525 0.929 . S
H481 C526 0.931 . S
H482 C528 0.930 . S
H483 C529 0.929 . S
O484 H458 0.856 . S
O484 C530 1.300 . S
O485 C530 1.209 . S
O486 C531 1.199 . S
O487 H459 0.854 . S
O487 C531 1.297 . S
C488 C489 1.404 . S
C488 C493 1.397 1_556 S
C488 C494 1.492 . S
C489 C488 1.404 . S
C489 C490 1.396 . S
C489 C500 1.492 . S
C490 C489 1.396 . S
C490 C491 1.397 1_556 S
C490 C506 1.509 . S
C491 C490 1.397 1_554 S
C491 C492 1.412 . S
C491 C512 1.485 . S
C492 C491 1.412 . S
C492 C493 1.388 . S
C492 C518 1.490 . S
C493 C488 1.397 1_554 S
C493 C492 1.388 . S
C493 C524 1.519 . S
C494 C488 1.492 . S
C494 C495 1.363 . S
C494 C499 1.390 . S
C495 H460 0.930 . S
C495 C494 1.363 . S
C495 C496 1.372 . S
C496 H461 0.930 . S
C496 C495 1.372 . S
C496 C497 1.383 . S
C497 C496 1.383 . S
C497 C498 1.395 . S
C498 H462 0.930 . S
C498 C497 1.395 . S
C498 C499 1.362 . S
C499 H463 0.930 . S
C499 C494 1.390 . S
C499 C498 1.362 . S
C500 C489 1.492 . S
C500 C501 1.377 . S
C500 C505 1.397 . S
C501 H464 0.931 . S
C501 C500 1.377 . S
C501 C502 1.376 . S
C502 H465 0.930 . S
C502 C501 1.376 . S
C502 C503 1.376 . S
C503 C502 1.376 . S
C503 C504 1.378 . S
C503 C530 1.486 . S
C504 H466 0.930 . S
C504 C503 1.378 . S
C504 C505 1.376 . S
C505 H467 0.929 . S
C505 C500 1.397 . S
C505 C504 1.376 . S
C506 C490 1.509 . S
C506 C507 1.391 . S
C506 C511 1.386 . S
C507 H468 0.930 . S
C507 C506 1.391 . S
C507 C508 1.375 . S
C508 H469 0.931 . S
C508 C507 1.375 . S
C508 C509 1.375 . S
C509 C508 1.375 . S
C509 C510 1.361 . S
C510 H470 0.930 . S
C510 C509 1.361 . S
C510 C511 1.399 . S
C511 H471 0.929 . S
C511 C506 1.386 . S
C511 C510 1.399 . S
C512 C491 1.485 . S
C512 C513 1.394 . S
C512 C517 1.360 . S
C513 H472 0.931 . S
C513 C512 1.394 . S
C513 C514 1.372 . S
C514 H473 0.930 . S
C514 C513 1.372 . S
C514 C515 1.397 . S
C515 C514 1.397 . S
C515 C516 1.390 . S
C515 C531 1.476 . S
C516 H474 0.930 . S
C516 C515 1.390 . S
C516 C517 1.366 . S
C517 H475 0.932 . S
C517 C512 1.360 . S
C517 C516 1.366 . S
C518 C492 1.490 . S
C518 C519 1.380 . S
C518 C523 1.386 . S
C519 H476 0.930 . S
C519 C518 1.380 . S
C519 C520 1.381 . S
C520 H477 0.929 . S
C520 C519 1.381 . S
C520 C521 1.371 . S
C521 C520 1.371 . S
C521 C522 1.380 . S
C522 H478 0.931 . S
C522 C521 1.380 . S
C522 C523 1.387 . S
C523 H479 0.930 . S
C523 C518 1.386 . S
C523 C522 1.387 . S
C524 C493 1.519 . S
C524 C525 1.377 . S
C524 C529 1.361 . S
C525 H480 0.929 . S
C525 C524 1.377 . S
C525 C526 1.386 . S
C526 H481 0.931 . S
C526 C525 1.386 . S
C526 C527 1.363 . S
C527 C526 1.363 . S
C527 C528 1.385 . S
C528 H482 0.930 . S
C528 C527 1.385 . S
C528 C529 1.396 . S
C529 H483 0.929 . S
C529 C524 1.361 . S
C529 C528 1.396 . S
C530 O484 1.300 . S
C530 O485 1.209 . S
C530 C503 1.486 . S
C531 O486 1.199 . S
C531 O487 1.297 . S
C531 C515 1.476 . S
H532 C540 0.950 . S
H533 C545 0.950 . S
H534 C542 0.950 . S
H535 C544 0.950 . S
H536 C546 0.950 . S
H537 C548 0.950 . S
H538 C550 0.950 . S
H539 C551 0.950 . S
C540 H532 0.950 . S
C540 C541 1.386 . S
C540 C542 1.391 . S
C541 C540 1.386 . S
C541 C545 1.393 . S
C542 H534 0.950 . S
C542 C540 1.391 . S
C542 C543 1.400 . S
C543 C542 1.400 . S
C543 C544 1.398 . S
C543 C549 1.491 . S
C544 H535 0.950 . S
C544 C543 1.398 . S
C544 C545 1.391 . S
C545 H533 0.950 . S
C545 C541 1.393 . S
C545 C544 1.391 . S
C546 H536 0.950 . S
C546 C547 1.386 . S
C546 C548 1.391 . S
C547 C546 1.386 . S
C547 C551 1.393 . S
C548 H537 0.950 . S
C548 C546 1.391 . S
C548 C549 1.400 . S
C549 C543 1.491 . S
C549 C548 1.400 . S
C549 C550 1.398 . S
C550 H538 0.950 . S
C550 C549 1.398 . S
C550 C551 1.391 . S
C551 H539 0.950 . S
C551 C547 1.393 . S
C551 C550 1.391 . S
H552 C560 0.950 . S
H553 C565 0.950 . S
H554 C562 0.950 . S
H555 C564 0.950 . S
H556 C566 0.950 . S
H557 C568 0.950 . S
H558 C570 0.950 . S
H559 C571 0.950 . S
C560 H552 0.950 . S
C560 C561 1.386 . S
C560 C562 1.391 . S
C561 C560 1.386 . S
C561 C565 1.393 . S
C562 H554 0.950 . S
C562 C560 1.391 . S
C562 C563 1.400 . S
C563 C562 1.400 . S
C563 C564 1.398 . S
C563 C569 1.491 . S
C564 H555 0.950 . S
C564 C563 1.398 . S
C564 C565 1.391 . S
C565 H553 0.950 . S
C565 C561 1.393 . S
C565 C564 1.391 . S
C566 H556 0.950 . S
C566 C567 1.386 . S
C566 C568 1.391 . S
C567 C566 1.386 . S
C567 C571 1.393 . S
C568 H557 0.950 . S
C568 C566 1.391 . S
C568 C569 1.400 . S
C569 C563 1.491 . S
C569 C568 1.400 . S
C569 C570 1.398 . S
C570 H558 0.950 . S
C570 C569 1.398 . S
C570 C571 1.391 . S
C571 H559 0.950 . S
C571 C567 1.393 . S
C571 C570 1.391 . S
H572 C580 0.950 . S
H573 C585 0.950 . S
H574 C582 0.950 . S
H575 C584 0.950 . S
H576 C586 0.950 . S
H577 C588 0.950 . S
H578 C590 0.950 . S
H579 C591 0.949 1_455 S
C580 H572 0.950 . S
C580 C581 1.386 . S
C580 C582 1.391 . S
C581 C580 1.386 . S
C581 C585 1.393 . S
C582 H574 0.950 . S
C582 C580 1.391 . S
C582 C583 1.400 . S
C583 C582 1.400 . S
C583 C584 1.398 . S
C583 C589 1.491 . S
C584 H575 0.950 . S
C584 C583 1.398 . S
C584 C585 1.391 . S
C585 H573 0.950 . S
C585 C581 1.393 . S
C585 C584 1.391 . S
C586 H576 0.950 . S
C586 C587 1.386 . S
C586 C588 1.391 . S
C587 C586 1.386 . S
C587 C591 1.393 . S
C588 H577 0.950 . S
C588 C586 1.391 . S
C588 C589 1.400 . S
C589 C583 1.491 . S
C589 C588 1.400 . S
C589 C590 1.398 . S
C590 H578 0.950 . S
C590 C589 1.398 . S
C590 C591 1.391 . S
C591 H579 0.949 1_655 S
C591 C587 1.393 . S
C591 C590 1.391 . S
H592 C600 0.950 . S
H593 C605 0.950 . S
H594 C602 0.950 . S
H595 C604 0.950 . S
H596 C606 0.950 . S
H597 C608 0.950 . S
H598 C610 0.950 . S
H599 C611 0.950 . S
C600 H592 0.950 . S
C600 C601 1.386 . S
C600 C602 1.391 . S
C601 C600 1.386 . S
C601 C605 1.393 . S
C602 H594 0.950 . S
C602 C600 1.391 . S
C602 C603 1.400 . S
C603 C602 1.400 . S
C603 C604 1.398 . S
C603 C609 1.491 . S
C604 H595 0.950 . S
C604 C603 1.398 . S
C604 C605 1.391 . S
C605 H593 0.950 . S
C605 C601 1.393 . S
C605 C604 1.391 . S
C606 H596 0.950 . S
C606 C607 1.386 . S
C606 C608 1.391 . S
C607 C606 1.386 . S
C607 C611 1.393 . S
C608 H597 0.950 . S
C608 C606 1.391 . S
C608 C609 1.400 . S
C609 C603 1.491 . S
C609 C608 1.400 . S
C609 C610 1.398 . S
C610 H598 0.950 . S
C610 C609 1.398 . S
C610 C611 1.391 . S
C611 H599 0.950 . S
C611 C607 1.393 . S
C611 C610 1.391 . S
H612 C620 0.950 . S
H613 C625 0.950 . S
H614 C622 0.950 . S
H615 C624 0.950 . S
H616 C626 0.950 . S
H617 C628 0.950 . S
H618 C630 0.950 . S
H619 C631 0.950 . S
C620 H612 0.950 . S
C620 C621 1.386 . S
C620 C622 1.391 . S
C621 C620 1.386 . S
C621 C625 1.393 . S
C622 H614 0.950 . S
C622 C620 1.391 . S
C622 C623 1.400 . S
C623 C622 1.400 . S
C623 C624 1.398 . S
C623 C629 1.491 . S
C624 H615 0.950 . S
C624 C623 1.398 . S
C624 C625 1.391 . S
C625 H613 0.950 . S
C625 C621 1.393 . S
C625 C624 1.391 . S
C626 H616 0.950 . S
C626 C627 1.386 . S
C626 C628 1.391 . S
C627 C626 1.386 . S
C627 C631 1.393 . S
C628 H617 0.950 . S
C628 C626 1.391 . S
C628 C629 1.400 . S
C629 C623 1.491 . S
C629 C628 1.400 . S
C629 C630 1.398 . S
C630 H618 0.950 . S
C630 C629 1.398 . S
C630 C631 1.391 . S
C631 H619 0.950 . S
C631 C627 1.393 . S
C631 C630 1.391 . S
H632 C640 0.950 . S
H633 C645 0.950 . S
H634 C642 0.950 . S
H635 C644 0.950 . S
H636 C646 0.950 . S
H637 C648 0.950 . S
H638 C650 0.950 . S
H639 C651 0.950 . S
C640 H632 0.950 . S
C640 C641 1.386 . S
C640 C642 1.391 . S
C641 C640 1.386 . S
C641 C645 1.393 1_545 S
C642 H634 0.950 . S
C642 C640 1.391 . S
C642 C643 1.400 . S
C643 C642 1.400 . S
C643 C644 1.398 1_545 S
C643 C649 1.491 . S
C644 H635 0.950 . S
C644 C643 1.398 1_565 S
C644 C645 1.391 . S
C645 H633 0.950 . S
C645 C641 1.393 1_565 S
C645 C644 1.391 . S
C646 H636 0.950 . S
C646 C647 1.386 1_565 S
C646 C648 1.391 . S
C647 C646 1.386 1_545 S
C647 C651 1.393 . S
C648 H637 0.950 . S
C648 C646 1.391 . S
C648 C649 1.400 1_565 S
C649 C643 1.491 . S
C649 C648 1.400 1_545 S
C649 C650 1.398 . S
C650 H638 0.950 . S
C650 C649 1.398 . S
C650 C651 1.391 . S
C651 H639 0.950 . S
C651 C647 1.393 . S
C651 C650 1.391 . S
H652 C660 0.950 . S
H653 C665 0.950 . S
H654 C662 0.950 . S
H655 C664 0.950 . S
H656 C666 0.950 . S
H657 C668 0.950 . S
H658 C670 0.950 . S
H659 C671 0.950 . S
C660 H652 0.950 . S
C660 C661 1.386 . S
C660 C662 1.391 . S
C661 C660 1.386 . S
C661 C665 1.393 . S
C662 H654 0.950 . S
C662 C660 1.391 . S
C662 C663 1.400 . S
C663 C662 1.400 . S
C663 C664 1.398 . S
C663 C669 1.491 . S
C664 H655 0.950 . S
C664 C663 1.398 . S
C664 C665 1.391 . S
C665 H653 0.950 . S
C665 C661 1.393 . S
C665 C664 1.391 . S
C666 H656 0.950 . S
C666 C667 1.386 . S
C666 C668 1.391 . S
C667 C666 1.386 . S
C667 C671 1.393 . S
C668 H657 0.950 . S
C668 C666 1.391 . S
C668 C669 1.400 . S
C669 C663 1.491 . S
C669 C668 1.400 . S
C669 C670 1.398 . S
C670 H658 0.950 . S
C670 C669 1.398 . S
C670 C671 1.391 . S
C671 H659 0.950 . S
C671 C667 1.393 . S
C671 C670 1.391 . S
H672 C680 0.950 . S
H673 C685 0.950 . S
H674 C682 0.950 . S
H675 C684 0.950 . S
H676 C686 0.950 . S
H677 C688 0.950 . S
H678 C690 0.950 . S
H679 C691 0.950 . S
C680 H672 0.950 . S
C680 C681 1.386 . S
C680 C682 1.391 . S
C681 C680 1.386 . S
C681 C685 1.393 . S
C682 H674 0.950 . S
C682 C680 1.391 . S
C682 C683 1.400 . S
C683 C682 1.400 . S
C683 C684 1.398 . S
C683 C689 1.491 . S
C684 H675 0.950 . S
C684 C683 1.398 . S
C684 C685 1.391 . S
C685 H673 0.950 . S
C685 C681 1.393 . S
C685 C684 1.391 . S
C686 H676 0.950 . S
C686 C687 1.386 . S
C686 C688 1.391 . S
C687 C686 1.386 . S
C687 C691 1.393 . S
C688 H677 0.950 . S
C688 C686 1.391 . S
C688 C689 1.400 . S
C689 C683 1.491 . S
C689 C688 1.400 . S
C689 C690 1.398 . S
C690 H678 0.950 . S
C690 C689 1.398 . S
C690 C691 1.391 . S
C691 H679 0.950 . S
C691 C687 1.393 . S
C691 C690 1.391 . S
H692 C700 0.950 . S
H693 C705 0.950 . S
H694 C702 0.950 . S
H695 C704 0.950 . S
H696 C706 0.950 . S
H697 C708 0.950 . S
H698 C710 0.950 . S
H699 C711 0.950 . S
C700 H692 0.950 . S
C700 C701 1.386 . S
C700 C702 1.391 . S
C701 C700 1.386 . S
C701 C705 1.393 . S
C702 H694 0.950 . S
C702 C700 1.391 . S
C702 C703 1.400 . S
C703 C702 1.400 . S
C703 C704 1.398 . S
C703 C709 1.491 . S
C704 H695 0.950 . S
C704 C703 1.398 . S
C704 C705 1.391 . S
C705 H693 0.950 . S
C705 C701 1.393 . S
C705 C704 1.391 . S
C706 H696 0.950 . S
C706 C707 1.386 . S
C706 C708 1.391 . S
C707 C706 1.386 . S
C707 C711 1.393 . S
C708 H697 0.950 . S
C708 C706 1.391 . S
C708 C709 1.400 . S
C709 C703 1.491 . S
C709 C708 1.400 . S
C709 C710 1.398 . S
C710 H698 0.950 . S
C710 C709 1.398 . S
C710 C711 1.391 . S
C711 H699 0.950 . S
C711 C707 1.393 . S
C711 C710 1.391 . S
H712 C720 0.950 . S
H713 C725 0.950 . S
H714 C722 0.950 . S
H715 C724 0.950 . S
H716 C726 0.950 . S
H717 C728 0.950 . S
H718 C730 0.950 . S
H719 C731 0.950 . S
C720 H712 0.950 . S
C720 C721 1.386 . S
C720 C722 1.391 . S
C721 C720 1.386 . S
C721 C725 1.393 . S
C722 H714 0.950 . S
C722 C720 1.391 . S
C722 C723 1.400 . S
C723 C722 1.400 . S
C723 C724 1.398 . S
C723 C729 1.491 . S
C724 H715 0.950 . S
C724 C723 1.398 . S
C724 C725 1.391 . S
C725 H713 0.950 . S
C725 C721 1.393 . S
C725 C724 1.391 . S
C726 H716 0.950 . S
C726 C727 1.386 . S
C726 C728 1.391 . S
C727 C726 1.386 . S
C727 C731 1.393 . S
C728 H717 0.950 . S
C728 C726 1.391 . S
C728 C729 1.400 . S
C729 C723 1.491 . S
C729 C728 1.400 . S
C729 C730 1.398 . S
C730 H718 0.950 . S
C730 C729 1.398 . S
C730 C731 1.391 . S
C731 H719 0.950 . S
C731 C727 1.393 . S
C731 C730 1.391 . S
H732 C740 0.950 . S
H733 C745 0.950 . S
H734 C742 0.950 . S
H735 C744 0.950 . S
H736 C746 0.950 . S
H737 C748 0.950 . S
H738 C750 0.950 . S
H739 C751 0.939 1_565 S
C740 H732 0.950 . S
C740 C741 1.386 . S
C740 C742 1.391 . S
C741 C740 1.386 . S
C741 C745 1.393 . S
C742 H734 0.950 . S
C742 C740 1.391 . S
C742 C743 1.400 . S
C743 C742 1.400 . S
C743 C744 1.398 . S
C743 C749 1.491 . S
C744 H735 0.950 . S
C744 C743 1.398 . S
C744 C745 1.391 . S
C745 H733 0.950 . S
C745 C741 1.393 . S
C745 C744 1.391 . S
C746 H736 0.950 . S
C746 C747 1.386 . S
C746 C748 1.391 . S
C747 C746 1.386 . S
C747 C751 1.393 . S
C748 H737 0.950 . S
C748 C746 1.391 . S
C748 C749 1.400 . S
C749 C743 1.491 . S
C749 C748 1.400 . S
C749 C750 1.398 . S
C750 H738 0.950 . S
C750 C749 1.398 . S
C750 C751 1.391 . S
C751 H739 0.939 1_545 S
C751 C747 1.393 . S
C751 C750 1.391 . S
H752 C760 0.950 . S
H753 C765 0.950 . S
H754 C762 0.950 . S
H755 C764 0.950 . S
H756 C766 0.950 . S
H757 C768 0.950 . S
H758 C770 0.950 . S
H759 C771 0.950 . S
C760 H752 0.950 . S
C760 C761 1.386 . S
C760 C762 1.391 . S
C761 C760 1.386 . S
C761 C765 1.393 . S
C762 H754 0.950 . S
C762 C760 1.391 . S
C762 C763 1.400 . S
C763 C762 1.400 . S
C763 C764 1.398 . S
C763 C769 1.491 . S
C764 H755 0.950 . S
C764 C763 1.398 . S
C764 C765 1.391 . S
C765 H753 0.950 . S
C765 C761 1.393 . S
C765 C764 1.391 . S
C766 H756 0.950 . S
C766 C767 1.386 . S
C766 C768 1.391 . S
C767 C766 1.386 . S
C767 C771 1.393 . S
C768 H757 0.950 . S
C768 C766 1.391 . S
C768 C769 1.400 . S
C769 C763 1.491 . S
C769 C768 1.400 . S
C769 C770 1.398 . S
C770 H758 0.950 . S
C770 C769 1.398 . S
C770 C771 1.391 . S
C771 H759 0.950 . S
C771 C767 1.393 . S
C771 C770 1.391 . S
H772 C780 0.950 . S
H773 C785 0.950 . S
H774 C782 0.950 . S
H775 C784 0.950 . S
H776 C786 0.950 . S
H777 C788 0.950 . S
H778 C790 0.950 . S
H779 C791 0.950 . S
C780 H772 0.950 . S
C780 C781 1.386 . S
C780 C782 1.391 . S
C781 C780 1.386 . S
C781 C785 1.393 . S
C782 H774 0.950 . S
C782 C780 1.391 . S
C782 C783 1.400 . S
C783 C782 1.400 . S
C783 C784 1.398 . S
C783 C789 1.491 . S
C784 H775 0.950 . S
C784 C783 1.398 . S
C784 C785 1.391 . S
C785 H773 0.950 . S
C785 C781 1.393 . S
C785 C784 1.391 . S
C786 H776 0.950 . S
C786 C787 1.386 . S
C786 C788 1.391 . S
C787 C786 1.386 . S
C787 C791 1.393 . S
C788 H777 0.950 . S
C788 C786 1.391 . S
C788 C789 1.400 . S
C789 C783 1.491 . S
C789 C788 1.400 . S
C789 C790 1.398 . S
C790 H778 0.950 . S
C790 C789 1.398 . S
C790 C791 1.391 . S
C791 H779 0.950 . S
C791 C787 1.393 . S
C791 C790 1.391 . S
H792 C800 0.950 . S
H793 C805 0.950 . S
H794 C802 0.950 . S
H795 C804 0.950 . S
H796 C806 0.950 . S
H797 C808 0.950 . S
H798 C810 0.950 . S
H799 C811 0.950 . S
C800 H792 0.950 . S
C800 C801 1.386 . S
C800 C802 1.391 . S
C801 C800 1.386 . S
C801 C805 1.393 . S
C802 H794 0.950 . S
C802 C800 1.391 . S
C802 C803 1.400 . S
C803 C802 1.400 . S
C803 C804 1.398 . S
C803 C809 1.491 . S
C804 H795 0.950 . S
C804 C803 1.398 . S
C804 C805 1.391 . S
C805 H793 0.950 . S
C805 C801 1.393 . S
C805 C804 1.391 . S
C806 H796 0.950 . S
C806 C807 1.386 . S
C806 C808 1.391 . S
C807 C806 1.386 . S
C807 C811 1.393 . S
C808 H797 0.950 . S
C808 C806 1.391 . S
C808 C809 1.400 . S
C809 C803 1.491 . S
C809 C808 1.400 . S
C809 C810 1.398 . S
C810 H798 0.950 . S
C810 C809 1.398 . S
C810 C811 1.391 . S
C811 H799 0.950 . S
C811 C807 1.393 . S
C811 C810 1.391 . S
H812 C820 0.950 . S
H813 C825 0.950 . S
H814 C822 0.950 . S
H815 C824 0.950 . S
H816 C826 0.950 . S
H817 C828 0.950 . S
H818 C830 0.950 . S
H819 C831 0.950 . S
C820 H812 0.950 . S
C820 C821 1.386 . S
C820 C822 1.391 . S
C821 C820 1.386 . S
C821 C825 1.393 . S
C822 H814 0.950 . S
C822 C820 1.391 . S
C822 C823 1.400 . S
C823 C822 1.400 . S
C823 C824 1.398 . S
C823 C829 1.491 . S
C824 H815 0.950 . S
C824 C823 1.398 . S
C824 C825 1.391 . S
C825 H813 0.950 . S
C825 C821 1.393 . S
C825 C824 1.391 . S
C826 H816 0.950 . S
C826 C827 1.386 . S
C826 C828 1.391 . S
C827 C826 1.386 . S
C827 C831 1.393 . S
C828 H817 0.950 . S
C828 C826 1.391 . S
C828 C829 1.400 . S
C829 C823 1.491 . S
C829 C828 1.400 . S
C829 C830 1.398 . S
C830 H818 0.950 . S
C830 C829 1.398 . S
C830 C831 1.391 . S
C831 H819 0.950 . S
C831 C827 1.393 . S
C831 C830 1.391 . S
H832 C840 0.950 . S
H833 C845 0.950 . S
H834 C842 0.950 . S
H835 C844 0.950 . S
H836 C846 0.950 . S
H837 C848 0.950 . S
H838 C850 0.950 . S
H839 C851 0.950 . S
C840 H832 0.950 . S
C840 C841 1.386 . S
C840 C842 1.391 . S
C841 C840 1.386 . S
C841 C845 1.393 . S
C842 H834 0.950 . S
C842 C840 1.391 . S
C842 C843 1.400 . S
C843 C842 1.400 . S
C843 C844 1.398 . S
C843 C849 1.491 . S
C844 H835 0.950 . S
C844 C843 1.398 . S
C844 C845 1.391 . S
C845 H833 0.950 . S
C845 C841 1.393 . S
C845 C844 1.391 . S
C846 H836 0.950 . S
C846 C847 1.386 . S
C846 C848 1.391 . S
C847 C846 1.386 . S
C847 C851 1.393 . S
C848 H837 0.950 . S
C848 C846 1.391 . S
C848 C849 1.400 . S
C849 C843 1.491 . S
C849 C848 1.400 . S
C849 C850 1.398 . S
C850 H838 0.950 . S
C850 C849 1.398 . S
C850 C851 1.391 . S
C851 H839 0.950 . S
C851 C847 1.393 . S
C851 C850 1.391 . S
H852 C860 0.950 . S
H853 C865 0.950 . S
H854 C862 0.950 . S
H855 C864 0.950 . S
H856 C866 0.950 . S
H857 C868 0.950 . S
H858 C870 0.950 . S
H859 C871 0.950 . S
C860 H852 0.950 . S
C860 C861 1.386 . S
C860 C862 1.391 . S
C861 C860 1.386 . S
C861 C865 1.393 . S
C862 H854 0.950 . S
C862 C860 1.391 . S
C862 C863 1.400 . S
C863 C862 1.400 . S
C863 C864 1.398 . S
C863 C869 1.491 . S
C864 H855 0.950 . S
C864 C863 1.398 . S
C864 C865 1.391 . S
C865 H853 0.950 . S
C865 C861 1.393 . S
C865 C864 1.391 . S
C866 H856 0.950 . S
C866 C867 1.386 . S
C866 C868 1.391 . S
C867 C866 1.386 . S
C867 C871 1.393 . S
C868 H857 0.950 . S
C868 C866 1.391 . S
C868 C869 1.400 . S
C869 C863 1.491 . S
C869 C868 1.400 . S
C869 C870 1.398 . S
C870 H858 0.950 . S
C870 C869 1.398 . S
C870 C871 1.391 . S
C871 H859 0.950 . S
C871 C867 1.393 . S
C871 C870 1.391 . S
H872 C880 0.950 . S
H873 C885 0.950 . S
H874 C882 0.950 . S
H875 C884 0.950 . S
H876 C886 0.950 . S
H877 C888 0.950 . S
H878 C890 0.950 . S
H879 C891 0.950 . S
C880 H872 0.950 . S
C880 C881 1.386 . S
C880 C882 1.391 . S
C881 C880 1.386 . S
C881 C885 1.393 . S
C882 H874 0.950 . S
C882 C880 1.391 . S
C882 C883 1.400 . S
C883 C882 1.400 . S
C883 C884 1.398 . S
C883 C889 1.491 . S
C884 H875 0.950 . S
C884 C883 1.398 . S
C884 C885 1.391 . S
C885 H873 0.950 . S
C885 C881 1.393 . S
C885 C884 1.391 . S
C886 H876 0.950 . S
C886 C887 1.386 . S
C886 C888 1.391 . S
C887 C886 1.386 . S
C887 C891 1.393 . S
C888 H877 0.950 . S
C888 C886 1.391 . S
C888 C889 1.400 . S
C889 C883 1.491 . S
C889 C888 1.400 . S
C889 C890 1.398 . S
C890 H878 0.950 . S
C890 C889 1.398 . S
C890 C891 1.391 . S
C891 H879 0.950 . S
C891 C887 1.393 . S
C891 C890 1.391 . S
H892 C900 0.950 . S
H893 C905 0.950 . S
H894 C902 0.950 . S
H895 C904 0.950 . S
H896 C906 0.950 . S
H897 C908 0.950 . S
H898 C910 0.950 . S
H899 C911 0.950 . S
C900 H892 0.950 . S
C900 C901 1.386 . S
C900 C902 1.391 . S
C901 C900 1.386 . S
C901 C905 1.393 . S
C902 H894 0.950 . S
C902 C900 1.391 . S
C902 C903 1.400 . S
C903 C902 1.400 . S
C903 C904 1.398 . S
C903 C909 1.491 . S
C904 H895 0.950 . S
C904 C903 1.398 . S
C904 C905 1.391 . S
C905 H893 0.950 . S
C905 C901 1.393 . S
C905 C904 1.391 . S
C906 H896 0.950 . S
C906 C907 1.386 . S
C906 C908 1.391 . S
C907 C906 1.386 . S
C907 C911 1.393 . S
C908 H897 0.950 . S
C908 C906 1.391 . S
C908 C909 1.400 . S
C909 C903 1.491 . S
C909 C908 1.400 . S
C909 C910 1.398 . S
C910 H898 0.950 . S
C910 C909 1.398 . S
C910 C911 1.391 . S
C911 H899 0.950 . S
C911 C907 1.393 . S
C911 C910 1.391 . S
H912 C920 0.950 . S
H913 C925 0.950 . S
H914 C922 0.950 . S
H915 C924 0.950 . S
H916 C926 0.950 . S
H917 C928 0.950 . S
H918 C930 0.950 . S
H919 C931 0.954 . S
C920 H912 0.950 . S
C920 C921 1.386 . S
C920 C922 1.391 . S
C921 C920 1.386 . S
C921 C925 1.393 . S
C922 H914 0.950 . S
C922 C920 1.391 . S
C922 C923 1.400 . S
C923 C922 1.400 . S
C923 C924 1.398 . S
C923 C929 1.491 . S
C924 H915 0.950 . S
C924 C923 1.398 . S
C924 C925 1.391 . S
C925 H913 0.950 . S
C925 C921 1.393 . S
C925 C924 1.391 . S
C926 H916 0.950 . S
C926 C927 1.386 . S
C926 C928 1.391 . S
C927 C926 1.386 . S
C927 C931 1.393 . S
C928 H917 0.950 . S
C928 C926 1.391 . S
C928 C929 1.400 . S
C929 C923 1.491 . S
C929 C928 1.400 . S
C929 C930 1.398 . S
C930 H918 0.950 . S
C930 C929 1.398 . S
C930 C931 1.391 . S
C931 H919 0.954 . S
C931 C927 1.393 . S
C931 C930 1.391 . S
H932 C940 0.950 . S
H933 C945 0.950 . S
H934 C942 0.950 . S
H935 C944 0.950 . S
H936 C946 0.950 . S
H937 C948 0.950 . S
H938 C950 0.950 . S
H939 C951 0.950 . S
C940 H932 0.950 . S
C940 C941 1.386 . S
C940 C942 1.391 . S
C941 C940 1.386 . S
C941 C945 1.393 . S
C942 H934 0.950 . S
C942 C940 1.391 . S
C942 C943 1.400 . S
C943 C942 1.400 . S
C943 C944 1.398 . S
C943 C949 1.491 . S
C944 H935 0.950 . S
C944 C943 1.398 . S
C944 C945 1.391 . S
C945 H933 0.950 . S
C945 C941 1.393 . S
C945 C944 1.391 . S
C946 H936 0.950 . S
C946 C947 1.386 . S
C946 C948 1.391 . S
C947 C946 1.386 . S
C947 C951 1.393 . S
C948 H937 0.950 . S
C948 C946 1.391 . S
C948 C949 1.400 . S
C949 C943 1.491 . S
C949 C948 1.400 . S
C949 C950 1.398 . S
C950 H938 0.950 . S
C950 C949 1.398 . S
C950 C951 1.391 . S
C951 H939 0.950 . S
C951 C947 1.393 . S
C951 C950 1.391 . S
H952 C960 0.950 . S
H953 C965 0.950 . S
H954 C962 0.950 . S
H955 C964 0.950 . S
H956 C966 0.950 . S
H957 C968 0.950 . S
H958 C970 0.950 . S
H959 C971 0.950 . S
C960 H952 0.950 . S
C960 C961 1.386 . S
C960 C962 1.391 . S
C961 C960 1.386 . S
C961 C965 1.393 . S
C962 H954 0.950 . S
C962 C960 1.391 . S
C962 C963 1.400 . S
C963 C962 1.400 . S
C963 C964 1.398 . S
C963 C969 1.491 . S
C964 H955 0.950 . S
C964 C963 1.398 . S
C964 C965 1.391 . S
C965 H953 0.950 . S
C965 C961 1.393 . S
C965 C964 1.391 . S
C966 H956 0.950 . S
C966 C967 1.386 . S
C966 C968 1.391 . S
C967 C966 1.386 . S
C967 C971 1.393 . S
C968 H957 0.950 . S
C968 C966 1.391 . S
C968 C969 1.400 . S
C969 C963 1.491 . S
C969 C968 1.400 . S
C969 C970 1.398 . S
C970 H958 0.950 . S
C970 C969 1.398 . S
C970 C971 1.391 . S
C971 H959 0.950 . S
C971 C967 1.393 . S
C971 C970 1.391 . S
H972 C980 0.950 . S
H973 C985 0.950 . S
H974 C982 0.950 . S
H975 C984 0.950 . S
H976 C986 0.950 . S
H977 C988 0.950 . S
H978 C990 0.950 . S
H979 C991 0.950 . S
C980 H972 0.950 . S
C980 C981 1.386 . S
C980 C982 1.391 . S
C981 C980 1.386 . S
C981 C985 1.393 . S
C982 H974 0.950 . S
C982 C980 1.391 . S
C982 C983 1.400 . S
C983 C982 1.400 . S
C983 C984 1.398 . S
C983 C989 1.491 . S
C984 H975 0.950 . S
C984 C983 1.398 . S
C984 C985 1.391 . S
C985 H973 0.950 . S
C985 C981 1.393 . S
C985 C984 1.391 . S
C986 H976 0.950 . S
C986 C987 1.386 . S
C986 C988 1.391 . S
C987 C986 1.386 . S
C987 C991 1.393 . S
C988 H977 0.950 . S
C988 C986 1.391 . S
C988 C989 1.400 . S
C989 C983 1.491 . S
C989 C988 1.400 . S
C989 C990 1.398 . S
C990 H978 0.950 . S
C990 C989 1.398 . S
C990 C991 1.391 . S
C991 H979 0.950 . S
C991 C987 1.393 . S
C991 C990 1.391 . S
H992 C1000 0.950 . S
H993 C1005 0.950 . S
H994 C1002 0.950 . S
H995 C1004 0.950 . S
H996 C1006 0.950 . S
H997 C1008 0.950 . S
H998 C1010 0.950 . S
H999 C1011 0.950 . S
C1000 H992 0.950 . S
C1000 C1001 1.386 . S
C1000 C1002 1.391 . S
C1001 C1000 1.386 . S
C1001 C1005 1.393 . S
C1002 H994 0.950 . S
C1002 C1000 1.391 . S
C1002 C1003 1.400 . S
C1003 C1002 1.400 . S
C1003 C1004 1.398 . S
C1003 C1009 1.491 . S
C1004 H995 0.950 . S
C1004 C1003 1.398 . S
C1004 C1005 1.391 . S
C1005 H993 0.950 . S
C1005 C1001 1.393 . S
C1005 C1004 1.391 . S
C1006 H996 0.950 . S
C1006 C1007 1.386 . S
C1006 C1008 1.391 . S
C1007 C1006 1.386 . S
C1007 C1011 1.393 . S
C1008 H997 0.950 . S
C1008 C1006 1.391 . S
C1008 C1009 1.400 . S
C1009 C1003 1.491 . S
C1009 C1008 1.400 . S
C1009 C1010 1.398 . S
C1010 H998 0.950 . S
C1010 C1009 1.398 . S
C1010 C1011 1.391 . S
C1011 H999 0.950 . S
C1011 C1007 1.393 . S
C1011 C1010 1.391 . S
C547 C127 1.809 . S
C541 C5 1.701 . S
C567 C231 1.855 . S
C561 C16 1.485 . S
C587 C151 1.555 . S
C581 C30 1.538 . S
C607 C213 1.614 . S
C601 C40 1.596 . S
C627 C287 1.660 . S
C621 C8 1.696 . S
C647 C349 1.867 . S
C641 C18 1.901 . S
C661 C29 1.577 . S
C667 C423 1.560 . S
C687 C509 1.586 . S
C681 C38 1.601 . S
C707 C305 2.649 . S
C701 C19 2.658 . S
C721 C27 1.500 . S
C727 C373 1.778 . S
C747 C447 1.290 . S
C741 C41 1.368 . S
C767 C527 1.936 . S
C761 C7 1.978 . S
C781 C52 1.485 . S
C787 C225 1.473 . S
C807 C139 1.925 . S
C801 C62 1.999 . S
C821 C74 1.560 . S
C827 C201 1.528 . S
C841 C82 1.648 . S
C847 C157 1.974 . S
C867 C453 1.715 . S
C861 C51 1.709 . S
C887 C521 1.330 . S
C881 C60 1.223 . S
C907 C299 1.852 . S
C901 C71 1.827 . S
C921 C84 2.296 . S
C927 C379 2.400 1_565 S
C947 C435 1.212 . S
C941 C63 1.209 . S
C967 C497 1.288 . S
C961 C73 1.340 . S
C987 C275 1.944 . S
C981 C85 1.980 . S
C1001 C49 1.222 . S
C1007 C361 1.424 . S
