# Generated by pormake.
# Topology ssc, (4,4)-cn, num edge types: 1
# Building blocks:
#     Node 0, Type 0, BuildingBlock: CEKHIL_clean_sbu_0, # of connection points: 4
#     Node 1, Type 0, BuildingBlock: CEKHIL_clean_sbu_0, # of connection points: 4
#     Node 2, Type 0, BuildingBlock: CEKHIL_clean_sbu_0, # of connection points: 4
#     Node 3, Type 0, BuildingBlock: CEKHIL_clean_sbu_0, # of connection points: 4
#     Node 4, Type 0, BuildingBlock: CEKHIL_clean_sbu_0, # of connection points: 4
#     Node 5, Type 0, BuildingBlock: CEKHIL_clean_sbu_0, # of connection points: 4
#     Node 6, Type 0, BuildingBlock: CEKHIL_clean_sbu_0, # of connection points: 4
#     Node 7, Type 0, BuildingBlock: CEKHIL_clean_sbu_0, # of connection points: 4
#     Node 8, Type 0, BuildingBlock: CEKHIL_clean_sbu_0, # of connection points: 4
#     Node 9, Type 0, BuildingBlock: CEKHIL_clean_sbu_0, # of connection points: 4
#     Node 10, Type 0, BuildingBlock: CEKHIL_clean_sbu_0, # of connection points: 4
#     Node 11, Type 0, BuildingBlock: CEKHIL_clean_sbu_0, # of connection points: 4
#     Node 12, Type 1, BuildingBlock: GIZVER_clean_linker_0, # of connection points: 4
#     Node 13, Type 1, BuildingBlock: GIZVER_clean_linker_0, # of connection points: 4
#     Node 14, Type 1, BuildingBlock: GIZVER_clean_linker_0, # of connection points: 4
#     Node 15, Type 1, BuildingBlock: GIZVER_clean_linker_0, # of connection points: 4
#     Node 16, Type 1, BuildingBlock: GIZVER_clean_linker_0, # of connection points: 4
#     Node 17, Type 1, BuildingBlock: GIZVER_clean_linker_0, # of connection points: 4
#     Node 18, Type 1, BuildingBlock: GIZVER_clean_linker_0, # of connection points: 4
#     Node 19, Type 1, BuildingBlock: GIZVER_clean_linker_0, # of connection points: 4
#     Node 20, Type 1, BuildingBlock: GIZVER_clean_linker_0, # of connection points: 4
#     Node 21, Type 1, BuildingBlock: GIZVER_clean_linker_0, # of connection points: 4
#     Node 22, Type 1, BuildingBlock: GIZVER_clean_linker_0, # of connection points: 4
#     Node 23, Type 1, BuildingBlock: GIZVER_clean_linker_0, # of connection points: 4
#     Edge 24, Type (0, 1), BuildingBlock: XUDNAN_clean_linker_2, # of connection points: 2
#     Edge 25, Type (0, 1), BuildingBlock: XUDNAN_clean_linker_2, # of connection points: 2
#     Edge 26, Type (0, 1), BuildingBlock: XUDNAN_clean_linker_2, # of connection points: 2
#     Edge 27, Type (0, 1), BuildingBlock: XUDNAN_clean_linker_2, # of connection points: 2
#     Edge 28, Type (0, 1), BuildingBlock: XUDNAN_clean_linker_2, # of connection points: 2
#     Edge 29, Type (0, 1), BuildingBlock: XUDNAN_clean_linker_2, # of connection points: 2
#     Edge 30, Type (0, 1), BuildingBlock: XUDNAN_clean_linker_2, # of connection points: 2
#     Edge 31, Type (0, 1), BuildingBlock: XUDNAN_clean_linker_2, # of connection points: 2
#     Edge 32, Type (0, 1), BuildingBlock: XUDNAN_clean_linker_2, # of connection points: 2
#     Edge 33, Type (0, 1), BuildingBlock: XUDNAN_clean_linker_2, # of connection points: 2
#     Edge 34, Type (0, 1), BuildingBlock: XUDNAN_clean_linker_2, # of connection points: 2
#     Edge 35, Type (0, 1), BuildingBlock: XUDNAN_clean_linker_2, # of connection points: 2
#     Edge 36, Type (0, 1), BuildingBlock: XUDNAN_clean_linker_2, # of connection points: 2
#     Edge 37, Type (0, 1), BuildingBlock: XUDNAN_clean_linker_2, # of connection points: 2
#     Edge 38, Type (0, 1), BuildingBlock: XUDNAN_clean_linker_2, # of connection points: 2
#     Edge 39, Type (0, 1), BuildingBlock: XUDNAN_clean_linker_2, # of connection points: 2
#     Edge 40, Type (0, 1), BuildingBlock: XUDNAN_clean_linker_2, # of connection points: 2
#     Edge 41, Type (0, 1), BuildingBlock: XUDNAN_clean_linker_2, # of connection points: 2
#     Edge 42, Type (0, 1), BuildingBlock: XUDNAN_clean_linker_2, # of connection points: 2
#     Edge 43, Type (0, 1), BuildingBlock: XUDNAN_clean_linker_2, # of connection points: 2
#     Edge 44, Type (0, 1), BuildingBlock: XUDNAN_clean_linker_2, # of connection points: 2
#     Edge 45, Type (0, 1), BuildingBlock: XUDNAN_clean_linker_2, # of connection points: 2
#     Edge 46, Type (0, 1), BuildingBlock: XUDNAN_clean_linker_2, # of connection points: 2
#     Edge 47, Type (0, 1), BuildingBlock: XUDNAN_clean_linker_2, # of connection points: 2
#     Edge 48, Type (0, 1), BuildingBlock: XUDNAN_clean_linker_2, # of connection points: 2
#     Edge 49, Type (0, 1), BuildingBlock: XUDNAN_clean_linker_2, # of connection points: 2
#     Edge 50, Type (0, 1), BuildingBlock: XUDNAN_clean_linker_2, # of connection points: 2
#     Edge 51, Type (0, 1), BuildingBlock: XUDNAN_clean_linker_2, # of connection points: 2
#     Edge 52, Type (0, 1), BuildingBlock: XUDNAN_clean_linker_2, # of connection points: 2
#     Edge 53, Type (0, 1), BuildingBlock: XUDNAN_clean_linker_2, # of connection points: 2
#     Edge 54, Type (0, 1), BuildingBlock: XUDNAN_clean_linker_2, # of connection points: 2
#     Edge 55, Type (0, 1), BuildingBlock: XUDNAN_clean_linker_2, # of connection points: 2
#     Edge 56, Type (0, 1), BuildingBlock: XUDNAN_clean_linker_2, # of connection points: 2
#     Edge 57, Type (0, 1), BuildingBlock: XUDNAN_clean_linker_2, # of connection points: 2
#     Edge 58, Type (0, 1), BuildingBlock: XUDNAN_clean_linker_2, # of connection points: 2
#     Edge 59, Type (0, 1), BuildingBlock: XUDNAN_clean_linker_2, # of connection points: 2
#     Edge 60, Type (0, 1), BuildingBlock: XUDNAN_clean_linker_2, # of connection points: 2
#     Edge 61, Type (0, 1), BuildingBlock: XUDNAN_clean_linker_2, # of connection points: 2
#     Edge 62, Type (0, 1), BuildingBlock: XUDNAN_clean_linker_2, # of connection points: 2
#     Edge 63, Type (0, 1), BuildingBlock: XUDNAN_clean_linker_2, # of connection points: 2
#     Edge 64, Type (0, 1), BuildingBlock: XUDNAN_clean_linker_2, # of connection points: 2
#     Edge 65, Type (0, 1), BuildingBlock: XUDNAN_clean_linker_2, # of connection points: 2
#     Edge 66, Type (0, 1), BuildingBlock: XUDNAN_clean_linker_2, # of connection points: 2
#     Edge 67, Type (0, 1), BuildingBlock: XUDNAN_clean_linker_2, # of connection points: 2
#     Edge 68, Type (0, 1), BuildingBlock: XUDNAN_clean_linker_2, # of connection points: 2
#     Edge 69, Type (0, 1), BuildingBlock: XUDNAN_clean_linker_2, # of connection points: 2
#     Edge 70, Type (0, 1), BuildingBlock: XUDNAN_clean_linker_2, # of connection points: 2
#     Edge 71, Type (0, 1), BuildingBlock: XUDNAN_clean_linker_2, # of connection points: 2
# Relax obj value: 0.117
# Max RMSD: 0.302
# Mean RMSD: 0.276
data_MOF--net-ssc--node1-CEKHIL_clean_sbu_0--node2-GIZVER_clean_linker_0--edge1-XUDNAN_clean_linker_2
_symmetry_space_group_name_H-M    P1
_symmetry_Int_Tables_number       1
_symmetry_cell_setting            triclinic
loop_
_symmetry_equiv_pos_as_xyz
'x, y, z'
_cell_length_a     31.052556
_cell_length_b     31.098646
_cell_length_c     30.973724
_cell_angle_alpha  91.401332
_cell_angle_beta   90.025995
_cell_angle_gamma 93.471408
loop_
_atom_site_label
_atom_site_type_symbol
_atom_site_fract_x
_atom_site_fract_y
_atom_site_fract_z
_atom_type_partial_charge
Co0 Co 0.03913 0.266 0.12564 0.0
O1 O 0.08336 0.29129 0.0881 0.0
O2 O 0.01654 0.31219 0.09424 0.0
C3 C 0.07868 0.2617 0.18594 0.0
O4 O 0.98556 0.25214 0.16174 0.0
Co5 Co 0.04238 0.17453 0.16342 0.0
O6 O 0.98882 0.1885 0.19412 0.0
C7 C 0.01992 0.18276 0.07251 0.0
C8 C 0.05422 0.31709 0.0764 0.0
C9 C 0.97024 0.22307 0.18727 0.0
O10 O 0.01921 0.22383 0.0781 0.0
O11 O 0.03072 0.15726 0.10179 0.0
O12 O 0.06425 0.29831 0.17501 0.0
O13 O 0.07348 0.23046 0.15774 0.0
Co14 Co 0.03612 0.80058 0.44488 0.0
O15 O 0.07417 0.75911 0.46502 0.0
O16 O 0.00275 0.74956 0.46237 0.0
C17 C 0.07568 0.81655 0.38595 0.0
O18 O 0.98653 0.83385 0.42437 0.0
Co19 Co 0.05798 0.89625 0.43102 0.0
O20 O 0.01396 0.88684 0.38452 0.0
C21 C 0.04047 0.86528 0.51954 0.0
C22 C 0.03972 0.73426 0.47091 0.0
C23 C 0.98507 0.85696 0.39088 0.0
O24 O 0.03181 0.82671 0.50475 0.0
O25 O 0.05257 0.89657 0.49548 0.0
O26 O 0.04825 0.78329 0.38571 0.0
O27 O 0.07946 0.83884 0.42179 0.0
Co28 Co 0.52209 0.7988 0.6267 0.0
O29 O 0.56992 0.81166 0.58917 0.0
O30 O 0.51436 0.85247 0.59793 0.0
C31 C 0.56045 0.78056 0.68391 0.0
O32 O 0.46796 0.79698 0.66434 0.0
Co33 Co 0.50348 0.70577 0.65792 0.0
O34 O 0.46345 0.73361 0.6983 0.0
C35 C 0.48985 0.72509 0.56681 0.0
C36 C 0.5506 0.84572 0.57855 0.0
C37 C 0.45159 0.77165 0.69309 0.0
O38 O 0.49217 0.76551 0.5773 0.0
O39 O 0.49673 0.69579 0.59382 0.0
O40 O 0.55508 0.82092 0.67684 0.0
O41 O 0.5467 0.75327 0.65427 0.0
Co42 Co 0.48224 0.24385 0.92942 0.0
O43 O 0.51837 0.22965 0.97673 0.0
O44 O 0.4485 0.21033 0.97018 0.0
C45 C 0.52865 0.22727 0.87705 0.0
O46 O 0.43473 0.2487 0.88424 0.0
Co47 Co 0.50693 0.31603 0.86524 0.0
O48 O 0.46528 0.28186 0.82741 0.0
C49 C 0.4882 0.33796 0.95604 0.0
C50 C 0.48413 0.20925 0.99191 0.0
C51 C 0.436 0.25694 0.84371 0.0
O52 O 0.47025 0.29981 0.96074 0.0
O53 O 0.50696 0.34978 0.92114 0.0
O54 O 0.50458 0.19678 0.89456 0.0
O55 O 0.52604 0.26546 0.89372 0.0
Co56 Co 0.11349 0.02822 0.23959 0.0
O57 O 0.14982 0.00222 0.19747 0.0
O58 O 0.1526 0.993 0.26834 0.0
C59 C 0.05164 0.01437 0.20252 0.0
O60 O 0.0816 0.04602 0.29349 0.0
Co61 Co 0.06152 0.10684 0.22317 0.0
O62 O 0.03074 0.09114 0.27724 0.0
C63 C 0.15574 0.11837 0.23405 0.0
C64 C 0.16734 0.98433 0.23013 0.0
C65 C 0.0485 0.06672 0.30338 0.0
O66 O 0.15629 0.07899 0.24538 0.0
O67 O 0.12151 0.13537 0.22149 0.0
O68 O 0.06749 0.98495 0.22588 0.0
O69 O 0.07464 0.05031 0.2 0.0
Co70 Co 0.20759 0.90389 0.55163 0.0
O71 O 0.19877 0.96071 0.57547 0.0
O72 O 0.16027 0.92858 0.52234 0.0
C73 C 0.21536 0.86816 0.61323 0.0
O74 O 0.20544 0.84575 0.51925 0.0
Co75 Co 0.2941 0.86028 0.56276 0.0
O76 O 0.26036 0.80777 0.54125 0.0
C77 C 0.29034 0.9405 0.51602 0.0
C78 C 0.16838 0.96267 0.54676 0.0
C79 C 0.22448 0.81018 0.52172 0.0
O80 O 0.24978 0.93158 0.51024 0.0
O81 O 0.314 0.91743 0.53867 0.0
O82 O 0.17691 0.87559 0.59942 0.0
O83 O 0.24689 0.88695 0.59244 0.0
Co84 Co 0.41963 0.05601 0.79086 0.0
O85 O 0.37094 0.08458 0.7708 0.0
O86 O 0.38422 0.07132 0.83953 0.0
C87 C 0.47009 0.08963 0.74974 0.0
O88 O 0.46594 0.02873 0.82455 0.0
Co89 Co 0.47163 0.99761 0.73012 0.0
O90 O 0.51162 0.99564 0.78047 0.0
C91 C 0.37967 0.97882 0.74681 0.0
C92 C 0.35815 0.085 0.81084 0.0
C93 C 0.50061 0.00924 0.81782 0.0
O94 O 0.38488 -0.00024 0.78289 0.0
O95 O 0.40949 0.97766 0.71836 0.0
O96 O 0.45819 0.10822 0.78562 0.0
O97 O 0.44907 0.05419 0.73879 0.0
Co98 Co 0.25026 0.10001 0.05339 0.0
O99 O 0.27565 0.0613 0.09286 0.0
O100 O 0.29491 0.06985 0.02459 0.0
C101 C 0.24938 0.15905 0.09669 0.0
O102 O 0.2365 0.13796 0.00373 0.0
Co103 Co 0.16179 0.14057 0.06881 0.0
O104 O 0.18361 0.18052 0.02369 0.0
C105 C 0.16346 0.05154 0.03453 0.0
C106 C 0.30094 0.05147 0.06106 0.0
C107 C 0.21426 0.1709 0.99859 0.0
O108 O 0.20507 0.05396 0.0338 0.0
O109 O 0.14071 0.08159 0.04905 0.0
O110 O 0.28501 0.14892 0.07797 0.0
O111 O 0.21757 0.13049 0.09349 0.0
Co112 Co 0.81597 0.41705 0.03286 0.0
O113 O 0.79926 0.45881 0.07614 0.0
O114 O 0.77372 0.4523 0.00924 0.0
C115 C 0.8119 0.36028 0.07692 0.0
O116 O 0.81973 0.37778 0.98014 0.0
Co117 Co 0.89363 0.36056 0.03148 0.0
O118 O 0.85113 0.31965 0.00088 0.0
C119 C 0.90574 0.45226 0.00724 0.0
C120 C 0.77217 0.47051 0.04717 0.0
C121 C 0.82222 0.33689 0.97935 0.0
O122 O 0.86492 0.45672 0.01163 0.0
O123 O 0.92348 0.41695 0.01449 0.0
O124 O 0.77735 0.37455 0.06004 0.0
O125 O 0.84786 0.38171 0.06838 0.0
Co126 Co 0.91136 0.56391 0.25562 0.0
O127 O 0.8678 0.58118 0.21676 0.0
O128 O 0.86769 0.59295 0.28771 0.0
C129 C 0.96651 0.58672 0.21376 0.0
O130 O 0.95143 0.55314 0.30621 0.0
Co131 Co 0.97721 0.49662 0.22965 0.0
O132 O 0.00896 0.51995 0.28136 0.0
C133 C 0.88699 0.46847 0.24956 0.0
C134 C 0.84951 0.59762 0.25045 0.0
C135 C 0.98945 0.5396 0.31137 0.0
O136 O 0.87907 0.50678 0.26246 0.0
O137 O 0.92311 0.45823 0.23363 0.0
O138 O 0.94821 0.61399 0.23923 0.0
O139 O 0.94983 0.5478 0.2127 0.0
Co140 Co 0.79367 0.62578 0.52848 0.0
O141 O 0.806 0.58179 0.5689 0.0
O142 O 0.84475 0.59789 0.51072 0.0
C143 C 0.77929 0.67673 0.57779 0.0
O144 O 0.79594 0.67018 0.48127 0.0
Co145 Co 0.70594 0.66794 0.51997 0.0
O146 O 0.73891 0.71127 0.48543 0.0
C147 C 0.71408 0.57771 0.49157 0.0
C148 C 0.83932 0.57478 0.54478 0.0
C149 C 0.77603 0.70344 0.471 0.0
O150 O 0.75553 0.58237 0.49437 0.0
O151 O 0.68878 0.60698 0.50262 0.0
O152 O 0.81917 0.66996 0.56821 0.0
O153 O 0.75001 0.65121 0.55987 0.0
Co154 Co 0.60999 0.4595 0.75127 0.0
O155 O 0.6582 0.42909 0.72993 0.0
O156 O 0.6426 0.43926 0.79914 0.0
C157 C 0.55972 0.42957 0.7057 0.0
O158 O 0.56234 0.48687 0.78574 0.0
Co159 Co 0.56224 0.52246 0.69482 0.0
O160 O 0.51569 0.5106 0.73761 0.0
C161 C 0.64564 0.55099 0.73403 0.0
C162 C 0.6681 0.42381 0.77014 0.0
C163 C 0.52503 0.49952 0.77563 0.0
O164 O 0.64678 0.51473 0.75277 0.0
O165 O 0.61538 0.56051 0.70857 0.0
O166 O 0.57062 0.40938 0.73994 0.0
O167 O 0.58249 0.46467 0.6979 0.0
H168 H 0.08667 0.22798 0.80125 0.0
H169 H 0.04396 0.2443 0.67145 0.0
H170 H 0.05965 0.11734 0.71693 0.0
H171 H 0.06811 0.29705 0.78226 0.0
H172 H 0.08991 0.3031 0.72933 0.0
H173 H 0.98265 0.28047 0.78607 0.0
H174 H 0.91565 0.35872 0.69925 0.0
H175 H 0.05089 0.34422 0.68147 0.0
C176 C 0.07398 0.21351 0.77141 0.0
C177 C 0.0763 0.16901 0.76322 0.0
C178 C 0.05984 0.24063 0.7393 0.0
C179 C 0.04977 0.22317 0.69789 0.0
C180 C 0.04975 0.17864 0.68998 0.0
C181 C 0.05943 0.15167 0.72381 0.0
C182 C 0.06195 0.28877 0.74756 0.0
C183 C 0.02095 0.30818 0.73389 0.0
C184 C 0.98259 0.3001 0.75763 0.0
C185 C 0.94437 0.31785 0.74462 0.0
C186 C 0.94491 0.34374 0.70844 0.0
C187 C 0.98318 0.35452 0.68651 0.0
C188 C 0.02114 0.33586 0.69843 0.0
H189 H 0.07427 0.82211 0.70854 0.0
H190 H 0.00041 0.80788 0.82572 0.0
H191 H 0.07462 0.92536 0.80154 0.0
H192 H 0.01308 0.76143 0.71615 0.0
H193 H 0.05598 0.74841 0.74939 0.0
H194 H 0.93857 0.74622 0.73849 0.0
H195 H 0.91575 0.66325 0.84525 0.0
H196 H 0.04332 0.72093 0.82439 0.0
C197 C 0.06079 0.83602 0.73749 0.0
C198 C 0.07676 0.87683 0.75194 0.0
C199 C 0.03273 0.8105 0.76344 0.0
C200 C 0.01928 0.82762 0.80351 0.0
C201 C 0.03361 0.86949 0.817 0.0
C202 C 0.06022 0.89461 0.78971 0.0
C203 C 0.02457 0.76348 0.75022 0.0
C204 C 0.9942 0.73725 0.77867 0.0
C205 C 0.95046 0.7314 0.76713 0.0
C206 C 0.92268 0.70443 0.79119 0.0
C207 C 0.93777 0.68494 0.82772 0.0
C208 C 0.98092 0.69111 0.84069 0.0
C209 C 0.00951 0.71694 0.81561 0.0
H210 H 0.49471 0.66639 0.10815 0.0
H211 H 0.54282 0.74737 0.21546 0.0
H212 H 0.62812 0.66911 0.14416 0.0
H213 H 0.44963 0.72071 0.13735 0.0
H214 H 0.45347 0.70141 0.19072 0.0
H215 H 0.50598 0.79976 0.13585 0.0
H216 H 0.44169 0.88599 0.22209 0.0
H217 H 0.41163 0.75158 0.22597 0.0
C218 C 0.52128 0.67998 0.12783 0.0
C219 C 0.56257 0.66523 0.12158 0.0
C220 C 0.51406 0.71121 0.1605 0.0
C221 C 0.54822 0.72555 0.18848 0.0
C222 C 0.58936 0.71066 0.18185 0.0
C223 C 0.59634 0.68155 0.14801 0.0
C224 C 0.46874 0.72464 0.16773 0.0
C225 C 0.46542 0.77028 0.18494 0.0
C226 C 0.48586 0.80569 0.16365 0.0
C227 C 0.4764 0.84833 0.17541 0.0
C228 C 0.45072 0.85416 0.21236 0.0
C229 C 0.42345 0.82018 0.2264 0.0
C230 C 0.43322 0.77801 0.21552 0.0
H231 H 0.61367 0.23882 0.2833 0.0
H232 H 0.53799 0.27505 0.39351 0.0
H233 H 0.62433 0.36837 0.33376 0.0
H234 H 0.55981 0.18802 0.30798 0.0
H235 H 0.56884 0.19139 0.36483 0.0
H236 H 0.48973 0.22622 0.28069 0.0
H237 H 0.38033 0.19326 0.36014 0.0
H238 H 0.50799 0.17773 0.40838 0.0
C239 C 0.60207 0.26349 0.30495 0.0
C240 C 0.6215 0.30523 0.30431 0.0
C241 C 0.57019 0.25275 0.33567 0.0
C242 C 0.55932 0.28393 0.36709 0.0
C243 C 0.57795 0.32611 0.36559 0.0
C244 C 0.60741 0.33675 0.33288 0.0
C245 C 0.55233 0.20671 0.33786 0.0
C246 C 0.50429 0.20404 0.34456 0.0
C247 C 0.47661 0.21581 0.31141 0.0
C248 C 0.43195 0.21282 0.31773 0.0
C249 C 0.41508 0.19793 0.35681 0.0
C250 C 0.44207 0.18452 0.38942 0.0
C251 C 0.48684 0.18827 0.38341 0.0
H252 H 0.62639 0.98106 0.1936 0.0
H253 H 0.75742 0.03668 0.19592 0.0
H254 H 0.65382 0.10821 0.14789 0.0
H255 H 0.68392 0.93553 0.20706 0.0
H256 H 0.73629 0.95331 0.18819 0.0
H257 H 0.66301 0.9783 0.28296 0.0
H258 H 0.75991 0.95188 0.37559 0.0
H259 H 0.78646 0.93833 0.24055 0.0
C260 C 0.64954 0.0078 0.18787 0.0
C261 C 0.63546 0.04602 0.17164 0.0
C262 C 0.69382 0.00409 0.19599 0.0
C263 C 0.72353 0.03937 0.18879 0.0
C264 C 0.70928 0.07785 0.17256 0.0
C265 C 0.66537 0.07989 0.16285 0.0
C266 C 0.70965 0.96191 0.21019 0.0
C267 C 0.72527 0.96442 0.25639 0.0
C268 C 0.69628 0.9725 0.29028 0.0
C269 C 0.70882 0.96771 0.33336 0.0
C270 C 0.7513 0.95792 0.34239 0.0
C271 C 0.77847 0.94484 0.30922 0.0
C272 C 0.76616 0.95003 0.26622 0.0
H273 H 0.18027 0.23777 0.62947 0.0
H274 H 0.23214 0.36369 0.59487 0.0
H275 H 0.31666 0.26201 0.61361 0.0
H276 H 0.13101 0.29054 0.61333 0.0
H277 H 0.15349 0.34259 0.63039 0.0
H278 H 0.15587 0.27303 0.52779 0.0
H279 H 0.11663 0.37498 0.44863 0.0
H280 H 0.13135 0.39751 0.58507 0.0
C281 C 0.20728 0.25851 0.61884 0.0
C282 C 0.24925 0.24435 0.62188 0.0
C283 C 0.20065 0.30088 0.60625 0.0
C284 C 0.23667 0.32983 0.59959 0.0
C285 C 0.27849 0.31557 0.60273 0.0
C286 C 0.28402 0.27201 0.60953 0.0
C287 C 0.15557 0.31663 0.60527 0.0
C288 C 0.14509 0.33341 0.56142 0.0
C289 C 0.14687 0.30595 0.52457 0.0
C290 C 0.13806 0.3214 0.48359 0.0
C291 C 0.12581 0.3637 0.48002 0.0
C292 C 0.12402 0.39158 0.51599 0.0
C293 C 0.13319 0.37624 0.55698 0.0
H294 H 0.87166 0.02712 0.72404 0.0
H295 H 0.73736 0.98375 0.72436 0.0
H296 H 0.83452 0.89188 0.7251 0.0
H297 H 0.81523 0.07716 0.70863 0.0
H298 H 0.7592 0.05927 0.71124 0.0
H299 H 0.85772 0.06358 0.78507 0.0
H300 H 0.79239 0.12114 0.88975 0.0
H301 H 0.72497 0.09398 0.76976 0.0
C302 C 0.84712 0.00101 0.72563 0.0
C303 C 0.85921 0.95822 0.72694 0.0
C304 C 0.80332 0.01061 0.72605 0.0
C305 C 0.77113 0.9769 0.72577 0.0
C306 C 0.78282 0.93425 0.72625 0.0
C307 C 0.82644 0.92527 0.72754 0.0
C308 C 0.7912 0.05684 0.72689 0.0
C309 C 0.79041 0.07386 0.7729 0.0
C310 C 0.82805 0.07445 0.79832 0.0
C311 C 0.82813 0.08977 0.84099 0.0
C312 C 0.79068 0.10624 0.85783 0.0
C313 C 0.75349 0.10904 0.83227 0.0
C314 C 0.75323 0.09171 0.78995 0.0
H315 H 0.3005 0.76884 0.12873 0.0
H316 H 0.26283 0.66391 0.04019 0.0
H317 H 0.17114 0.71198 0.12921 0.0
H318 H 0.34784 0.75384 0.06934 0.0
H319 H 0.35156 0.69925 0.08344 0.0
H320 H 0.31554 0.77014 0.99451 0.0
H321 H 0.33554 0.67423 0.89543 0.0
H322 H 0.35678 0.64498 0.02799 0.0
C323 C 0.27595 0.7464 0.11522 0.0
C324 C 0.23406 0.74485 0.13246 0.0
C325 C 0.28667 0.71844 0.0809 0.0
C326 C 0.25515 0.68729 0.06504 0.0
C327 C 0.21342 0.68603 0.08201 0.0
C328 C 0.20317 0.71486 0.11515 0.0
C329 C 0.33246 0.72088 0.06396 0.0
C330 C 0.33497 0.70863 0.01667 0.0
C331 C 0.32377 0.73787 0.98506 0.0
C332 C 0.32339 0.72526 0.94127 0.0
C333 C 0.33416 0.68352 0.92939 0.0
C334 C 0.34664 0.65475 0.96031 0.0
C335 C 0.34713 0.66731 0.00399 0.0
H336 H 0.79274 0.76691 0.12667 0.0
H337 H 0.7892 0.85858 0.02515 0.0
H338 H 0.90932 0.83065 0.08382 0.0
H339 H 0.73068 0.76116 0.07448 0.0
H340 H 0.72385 0.81195 0.09918 0.0
H341 H 0.71808 0.74886 0.99615 0.0
H342 H 0.65516 0.84656 0.92896 0.0
H343 H 0.70691 0.87502 0.05564 0.0
C344 C 0.80966 0.78692 0.10318 0.0
C345 C 0.85369 0.79777 0.10869 0.0
C346 C 0.78616 0.80618 0.07081 0.0
C347 C 0.80731 0.83887 0.04596 0.0
C348 C 0.85196 0.84878 0.05099 0.0
C349 C 0.87518 0.82339 0.07846 0.0
C350 C 0.73776 0.79631 0.07012 0.0
C351 C 0.71521 0.8104 0.03033 0.0
C352 C 0.70752 0.7814 0.99504 0.0
C353 C 0.68496 0.79438 0.95891 0.0
C354 C 0.67228 0.83658 0.95726 0.0
C355 C 0.68069 0.86598 0.99147 0.0
C356 C 0.70125 0.85264 0.02857 0.0
H357 H 0.37659 0.55313 0.19146 0.0
H358 H 0.24557 0.49778 0.19234 0.0
H359 H 0.34913 0.42147 0.1513 0.0
H360 H 0.31226 0.59895 0.19178 0.0
H361 H 0.25943 0.57502 0.20057 0.0
H362 H 0.36961 0.59398 0.25375 0.0
H363 H 0.31554 0.6192 0.37744 0.0
H364 H 0.23148 0.57931 0.27156 0.0
C365 C 0.35383 0.52555 0.18754 0.0
C366 C 0.36854 0.48622 0.17227 0.0
C367 C 0.30961 0.52976 0.19614 0.0
C368 C 0.27978 0.4944 0.18754 0.0
C369 C 0.29408 0.45556 0.17031 0.0
C370 C 0.33834 0.45159 0.16446 0.0
C371 C 0.29394 0.57321 0.20965 0.0
C372 C 0.29997 0.58272 0.25753 0.0
C373 C 0.34161 0.59329 0.27453 0.0
C374 C 0.34693 0.60469 0.31829 0.0
C375 C 0.3107 0.60685 0.34464 0.0
C376 C 0.26877 0.59838 0.32843 0.0
C377 C 0.26365 0.58541 0.28478 0.0
H378 H 0.76197 0.26555 0.62478 0.0
H379 H 0.73441 0.16719 0.52852 0.0
H380 H 0.63187 0.23185 0.58988 0.0
H381 H 0.81641 0.25576 0.56188 0.0
H382 H 0.8151 0.20868 0.5927 0.0
H383 H 0.79083 0.2423 0.47877 0.0
H384 H 0.86181 0.14082 0.42239 0.0
H385 H 0.84849 0.15061 0.55977 0.0
C386 C 0.73894 0.24984 0.60235 0.0
C387 C 0.69492 0.24968 0.61172 0.0
C388 C 0.75359 0.22363 0.56849 0.0
C389 C 0.72343 0.19397 0.54768 0.0
C390 C 0.67916 0.19494 0.55756 0.0
C391 C 0.66579 0.23042 0.58187 0.0
C392 C 0.80183 0.22223 0.56291 0.0
C393 C 0.81581 0.19762 0.52342 0.0
C394 C 0.80793 0.21318 0.48203 0.0
C395 C 0.82372 0.19228 0.44515 0.0
C396 C 0.84686 0.15538 0.45034 0.0
C397 C 0.85602 0.14025 0.4914 0.0
C398 C 0.84023 0.16133 0.52794 0.0
H399 H 0.13128 0.47769 0.67227 0.0
H400 H 0.22223 0.55358 0.75253 0.0
H401 H 0.1305 0.61523 0.67512 0.0
H402 H 0.17565 0.44111 0.71961 0.0
H403 H 0.22731 0.46854 0.7122 0.0
H404 H 0.1506 0.50125 0.8001 0.0
H405 H 0.22313 0.44251 0.89858 0.0
H406 H 0.25158 0.41848 0.76618 0.0
C407 C 0.14284 0.50853 0.68629 0.0
C408 C 0.12583 0.54627 0.67173 0.0
C409 C 0.17644 0.51081 0.71706 0.0
C410 C 0.19431 0.55143 0.7314 0.0
C411 C 0.17695 0.58924 0.71729 0.0
C412 C 0.14203 0.5861 0.68852 0.0
C413 C 0.19633 0.46994 0.73008 0.0
C414 C 0.20535 0.46667 0.77791 0.0
C415 C 0.17814 0.48394 0.80972 0.0
C416 C 0.18405 0.47531 0.85375 0.0
C417 C 0.21933 0.45185 0.86534 0.0
C418 C 0.24113 0.42862 0.83404 0.0
C419 C 0.23569 0.43757 0.79049 0.0
H420 H 0.12132 0.37841 0.0696 0.0
H421 H 0.00411 0.32668 0.00662 0.0
H422 H 0.01653 0.37748 0.94719 0.0
H423 H 0.1054 0.49323 0.03596 0.0
H424 H 0.16254 0.50542 0.03018 0.0
H425 H 0.14303 0.46771 0.07002 0.0
H426 H 0.18932 0.40776 0.03746 0.0
H427 H 0.21076 0.44748 0.00092 0.0
H428 H 0.18692 0.39728 0.97992 0.0
H429 H 0.04783 0.4237 0.88992 0.0
H430 H 0.0979 0.45724 0.83792 0.0
H431 H 0.18862 0.49124 0.94155 0.0
C432 C 0.09814 0.3784 0.04346 0.0
C433 C 0.06194 0.34867 0.04221 0.0
C434 C 0.03197 0.3494 0.00793 0.0
C435 C 0.0386 0.37832 0.97429 0.0
C436 C 0.07433 0.40765 0.97642 0.0
C437 C 0.10337 0.40838 0.01038 0.0
C438 C 0.14 0.44211 0.00375 0.0
C439 C 0.13756 0.47935 0.03695 0.0
C440 C 0.18428 0.42239 0.00562 0.0
C441 C 0.12939 0.45673 0.95876 0.0
C442 C 0.09074 0.43727 0.9441 0.0
C443 C 0.07759 0.44006 0.90128 0.0
C444 C 0.10623 0.45992 0.87186 0.0
C445 C 0.14776 0.47645 0.88536 0.0
C446 C 0.15723 0.47873 0.93016 0.0
H447 H 0.96284 0.90255 0.32071 0.0
H448 H 0.94272 0.778 0.38025 0.0
H449 H 0.90839 0.7481 0.31353 0.0
H450 H 0.86062 0.89625 0.25278 0.0
H451 H 0.89052 0.92573 0.21257 0.0
H452 H 0.90462 0.93394 0.26875 0.0
H453 H 0.99045 0.86317 0.21798 0.0
H454 H 0.98385 0.91509 0.24361 0.0
H455 H 0.96385 0.90422 0.18987 0.0
H456 H 0.88523 0.72943 0.23689 0.0
H457 H 0.86123 0.72774 0.15976 0.0
H458 H 0.89155 0.86517 0.15432 0.0
C459 C 0.95006 0.86935 0.3201 0.0
C460 C 0.95558 0.84261 0.35549 0.0
C461 C 0.93866 0.79921 0.35352 0.0
C462 C 0.9194 0.78178 0.31565 0.0
C463 C 0.91643 0.80844 0.28051 0.0
C464 C 0.93008 0.85165 0.28283 0.0
C465 C 0.9245 0.87305 0.24011 0.0
C466 C 0.89326 0.90944 0.24391 0.0
C467 C 0.9683 0.88978 0.22185 0.0
C468 C 0.90521 0.83518 0.21369 0.0
C469 C 0.90156 0.79799 0.23712 0.0
C470 C 0.88649 0.75858 0.21848 0.0
C471 C 0.87274 0.75778 0.17521 0.0
C472 C 0.87351 0.79612 0.1519 0.0
C473 C 0.89068 0.83508 0.17133 0.0
H474 H 0.46623 0.64401 0.53488 0.0
H475 H 0.48955 0.77648 0.49587 0.0
H476 H 0.471 0.75455 0.42067 0.0
H477 H 0.50378 0.59144 0.43267 0.0
H478 H 0.46173 0.54903 0.43521 0.0
H479 H 0.48405 0.57351 0.48431 0.0
H480 H 0.40763 0.59222 0.50948 0.0
H481 H 0.38495 0.56742 0.46102 0.0
H482 H 0.37502 0.62264 0.47467 0.0
H483 H 0.44103 0.72017 0.35197 0.0
H484 H 0.39307 0.67905 0.29999 0.0
H485 H 0.38966 0.56928 0.38323 0.0
C486 C 0.4683 0.66832 0.51042 0.0
C487 C 0.47944 0.71197 0.52139 0.0
C488 C 0.48095 0.74283 0.4884 0.0
C489 C 0.47099 0.73059 0.44543 0.0
C490 C 0.45987 0.68729 0.43576 0.0
C491 C 0.4583 0.65668 0.46746 0.0
C492 C 0.44012 0.61343 0.45003 0.0
C493 C 0.47447 0.57987 0.4506 0.0
C494 C 0.39952 0.59805 0.47526 0.0
C495 C 0.42943 0.62501 0.40419 0.0
C496 C 0.44236 0.6674 0.39607 0.0
C497 C 0.43168 0.68669 0.35756 0.0
C498 C 0.40486 0.66296 0.32789 0.0
C499 C 0.38865 0.62078 0.33733 0.0
C500 C 0.40303 0.60093 0.37475 0.0
H501 H 0.54598 0.28473 0.81442 0.0
H502 H 0.57009 0.155 0.85212 0.0
H503 H 0.61917 0.14823 0.7892 0.0
H504 H 0.54205 0.25987 0.6986 0.0
H505 H 0.56576 0.31231 0.68552 0.0
H506 H 0.53288 0.30588 0.73305 0.0
H507 H 0.59526 0.3396 0.78078 0.0
H508 H 0.62805 0.34611 0.73316 0.0
H509 H 0.64724 0.31698 0.77841 0.0
H510 H 0.67019 0.15976 0.72582 0.0
H511 H 0.7107 0.18286 0.66115 0.0
H512 H 0.64444 0.30156 0.66086 0.0
C513 C 0.56064 0.25445 0.80917 0.0
C514 C 0.55436 0.22039 0.83801 0.0
C515 C 0.57457 0.18142 0.83011 0.0
C516 C 0.60244 0.17741 0.79464 0.0
C517 C 0.60835 0.21223 0.76716 0.0
C518 C 0.58683 0.24935 0.77337 0.0
C519 C 0.59751 0.28188 0.73909 0.0
C520 C 0.55718 0.29046 0.71245 0.0
C521 C 0.61828 0.32366 0.75914 0.0
C522 C 0.62977 0.25807 0.71293 0.0
C523 C 0.63602 0.21814 0.73 0.0
C524 C 0.66569 0.191 0.71247 0.0
C525 C 0.68886 0.20464 0.6761 0.0
C526 C 0.68121 0.24441 0.65681 0.0
C527 C 0.65155 0.27161 0.67567 0.0
H528 H -8e-05 0.70035 0.54116 0.0
H529 H 0.0892 0.67247 0.43854 0.0
H530 H 0.10437 0.60417 0.47282 0.0
H531 H 0.06386 0.67437 0.62145 0.0
H532 H 0.02258 0.65145 0.65636 0.0
H533 H 0.00911 0.69024 0.61754 0.0
H534 H 0.95054 0.63558 0.58184 0.0
H535 H 0.96276 0.60002 0.62425 0.0
H536 H 0.96537 0.58169 0.56863 0.0
H537 H 0.12433 0.55149 0.52524 0.0
H538 H 0.14806 0.51912 0.59201 0.0
H539 H 0.04833 0.58121 0.66307 0.0
C540 C 0.02123 0.67871 0.52519 0.0
C541 C 0.04301 0.69084 0.48719 0.0
C542 C 0.07211 0.6632 0.46767 0.0
C543 C 0.08062 0.62425 0.48669 0.0
C544 C 0.06012 0.61373 0.52537 0.0
C545 C 0.03096 0.64021 0.54444 0.0
C546 C 0.01936 0.62597 0.5895 0.0
C547 C 0.02937 0.66266 0.62314 0.0
C548 C 0.97171 0.60975 0.59114 0.0
C549 C 0.04914 0.58939 0.59419 0.0
C550 C 0.07131 0.58197 0.5562 0.0
C551 C 0.10581 0.55528 0.55451 0.0
C552 C 0.119 0.53674 0.59264 0.0
C553 C 0.09917 0.54684 0.63232 0.0
C554 C 0.06242 0.57147 0.63267 0.0
H555 H 0.53066 0.76909 0.76582 0.0
H556 H 0.64431 0.76356 0.68566 0.0
H557 H 0.68751 0.74832 0.74967 0.0
H558 H 0.58186 0.82417 0.85377 0.0
H559 H 0.54697 0.79651 0.89208 0.0
H560 H 0.52965 0.802 0.83722 0.0
H561 H 0.51458 0.71748 0.83689 0.0
H562 H 0.53853 0.71389 0.88963 0.0
H563 H 0.55955 0.68433 0.84437 0.0
H564 H 0.72063 0.75116 0.82256 0.0
H565 H 0.74069 0.76747 0.89833 0.0
H566 H 0.60563 0.76549 0.93218 0.0
C567 C 0.56451 0.76333 0.76194 0.0
C568 C 0.58452 0.76714 0.7213 0.0
C569 C 0.62872 0.76038 0.7168 0.0
C570 C 0.6534 0.75145 0.7529 0.0
C571 C 0.63326 0.74834 0.79298 0.0
C572 C 0.58963 0.75362 0.79766 0.0
C573 C 0.57686 0.75376 0.8448 0.0
C574 C 0.55773 0.79666 0.85787 0.0
C575 C 0.54552 0.71506 0.85447 0.0
C576 C 0.62029 0.7496 0.86603 0.0
C577 C 0.65246 0.74617 0.83552 0.0
C578 C 0.69598 0.75062 0.84694 0.0
C579 C 0.7071 0.75997 0.89015 0.0
C580 C 0.67464 0.76597 0.92114 0.0
C581 C 0.63086 0.75859 0.90933 0.0
H582 H 0.47439 0.32267 0.04214 0.0
H583 H 0.50435 0.42526 0.95255 0.0
H584 H 0.50275 0.47861 0.01247 0.0
H585 H 0.39924 0.36677 0.09914 0.0
H586 H 0.41433 0.34872 0.15155 0.0
H587 H 0.42992 0.31962 0.1041 0.0
H588 H 0.50986 0.33059 0.13021 0.0
H589 H 0.49344 0.36178 0.17658 0.0
H590 H 0.53332 0.3844 0.13999 0.0
H591 H 0.47225 0.52008 0.07143 0.0
H592 H 0.41816 0.54254 0.12367 0.0
H593 H 0.41816 0.41812 0.18313 0.0
C594 C 0.48111 0.35639 0.03531 0.0
C595 C 0.48858 0.36974 0.99255 0.0
C596 C 0.49795 0.41408 0.9849 0.0
C597 C 0.49739 0.44473 0.01872 0.0
C598 C 0.48812 0.43084 0.06021 0.0
C599 C 0.48127 0.38754 0.06892 0.0
C600 C 0.46697 0.38152 0.1152 0.0
C601 C 0.42515 0.3524 0.1176 0.0
C602 C 0.50306 0.36352 0.14208 0.0
C603 C 0.46002 0.4279 0.12863 0.0
C604 C 0.47436 0.45615 0.09709 0.0
C605 C 0.46234 0.49876 0.09718 0.0
C606 C 0.43161 0.51151 0.12731 0.0
C607 C 0.41349 0.48168 0.15694 0.0
C608 C 0.43164 0.44133 0.16058 0.0
H609 H 0.90387 0.16778 0.21264 0.0
H610 H 0.95683 0.29934 0.22714 0.0
H611 H 0.90866 0.3109 0.28869 0.0
H612 H 0.78825 0.19109 0.25037 0.0
H613 H 0.78285 0.14091 0.27841 0.0
H614 H 0.8136 0.14437 0.22924 0.0
H615 H 0.88062 0.11744 0.26634 0.0
H616 H 0.85026 0.11195 0.31521 0.0
H617 H 0.90051 0.14429 0.31531 0.0
H618 H 0.86744 0.30402 0.35642 0.0
H619 H 0.84207 0.27692 0.42643 0.0
H620 H 0.80971 0.15167 0.36675 0.0
C621 C 0.90329 0.19971 0.22732 0.0
C622 C 0.93341 0.23288 0.21492 0.0
C623 C 0.93309 0.27391 0.23545 0.0
C624 C 0.90551 0.2809 0.2703 0.0
C625 C 0.8768 0.24728 0.28278 0.0
C626 C 0.87487 0.2076 0.26134 0.0
C627 C 0.84639 0.17485 0.28524 0.0
C628 C 0.80527 0.16212 0.25927 0.0
C629 C 0.87096 0.13486 0.29619 0.0
C630 C 0.83601 0.20109 0.32531 0.0
C631 C 0.85264 0.2432 0.32269 0.0
C632 C 0.85294 0.2716 0.35831 0.0
C633 C 0.83817 0.25597 0.39808 0.0
C634 C 0.82382 0.21217 0.402 0.0
C635 C 0.82016 0.1854 0.36449 0.0
H636 H 0.97396 0.02532 0.32788 0.0
H637 H 0.08518 0.10169 0.37654 0.0
H638 H 0.05166 0.10536 0.44885 0.0
H639 H 0.89851 0.07667 0.36755 0.0
H640 H 0.86146 0.03314 0.38382 0.0
H641 H 0.90024 0.02366 0.34275 0.0
H642 H 0.92849 0.96183 0.38754 0.0
H643 H 0.89039 0.97221 0.43009 0.0
H644 H 0.94712 0.97246 0.44205 0.0
H645 H 0.99903 0.12136 0.50395 0.0
H646 H 0.93334 0.15186 0.53213 0.0
H647 H 0.85532 0.06128 0.45308 0.0
C648 C 0.99158 0.04129 0.3545 0.0
C649 C 0.03165 0.06335 0.34734 0.0
C650 C 0.05434 0.08449 0.38199 0.0
C651 C 0.03573 0.08624 0.42317 0.0
C652 C 0.995 0.06565 0.4292 0.0
C653 C 0.97361 0.0426 0.39592 0.0
C654 C 0.92766 0.02957 0.40839 0.0
C655 C 0.89512 0.04156 0.37359 0.0
C656 C 0.92315 0.98115 0.41753 0.0
C657 C 0.92407 0.05588 0.44994 0.0
C658 C 0.96407 0.07391 0.46308 0.0
C659 C 0.96787 0.10615 0.49526 0.0
C660 C 0.93023 0.12329 0.51137 0.0
C661 C 0.88956 0.1087 0.49445 0.0
C662 C 0.88631 0.07198 0.46682 0.0
H663 H 0.15734 0.82669 0.66767 0.0
H664 H 0.29053 0.82911 0.62531 0.0
H665 H 0.2992 0.76047 0.66 0.0
H666 H 0.18019 0.77546 0.77739 0.0
H667 H 0.12865 0.74573 0.77504 0.0
H668 H 0.13539 0.79845 0.75207 0.0
H669 H 0.10631 0.76493 0.67705 0.0
H670 H 0.10072 0.71263 0.70044 0.0
H671 H 0.13374 0.72098 0.65342 0.0
H672 H 0.29068 0.68657 0.6894 0.0
H673 H 0.26223 0.61304 0.70591 0.0
H674 H 0.13937 0.66262 0.7408 0.0
C675 C 0.189 0.81394 0.66771 0.0
C676 C 0.22296 0.83306 0.64315 0.0
C677 C 0.26372 0.81501 0.64339 0.0
C678 C 0.26943 0.77628 0.66396 0.0
C679 C 0.2353 0.75769 0.68738 0.0
C680 C 0.19613 0.77647 0.69033 0.0
C681 C 0.1633 0.74755 0.7135 0.0
C682 C 0.15104 0.76799 0.75705 0.0
C683 C 0.12367 0.73592 0.68451 0.0
C684 C 0.18913 0.70871 0.72058 0.0
C685 C 0.23088 0.71524 0.70582 0.0
C686 C 0.25855 0.68154 0.70257 0.0
C687 C 0.24229 0.63984 0.71246 0.0
C688 C 0.19873 0.63239 0.725 0.0
C689 C 0.17304 0.66775 0.73207 0.0
H690 H 0.58778 -0.00033 0.81928 0.0
H691 H 0.47471 0.00116 0.90127 0.0
H692 H 0.51864 0.98316 0.96359 0.0
H693 H 0.62846 0.91196 0.85913 0.0
H694 H 0.68464 0.93007 0.85632 0.0
H695 H 0.64647 0.9522 0.82109 0.0
H696 H 0.67132 0.02905 0.84965 0.0
H697 H 0.70891 0.00655 0.88594 0.0
H698 H 0.66915 0.04148 0.90671 0.0
H699 H 0.56939 0.95329 0.01326 0.0
H700 H 0.6192 0.90157 0.04075 0.0
H701 H 0.70193 0.92339 0.93026 0.0
C702 C 0.57269 0.99758 0.85073 0.0
C703 C 0.52801 0.00197 0.85553 0.0
C704 C 0.50908 0.99854 0.89697 0.0
C705 C 0.53391 0.98912 0.93282 0.0
C706 C 0.57794 0.98495 0.92724 0.0
C707 C 0.59728 0.98916 0.88716 0.0
C708 C 0.64346 0.97628 0.88832 0.0
C709 C 0.65114 0.94049 0.85426 0.0
C710 C 0.67507 0.01568 0.88231 0.0
C711 C 0.64557 0.96014 0.93404 0.0
C712 C 0.60806 0.96718 0.9566 0.0
C713 C 0.59947 0.94876 0.99663 0.0
C714 C 0.6281 0.91967 0.01232 0.0
C715 C 0.66434 0.90918 0.98765 0.0
C716 C 0.67489 0.93216 0.95001 0.0
H717 H 0.28352 0.23194 0.05933 0.0
H718 H 0.19275 0.18699 0.15623 0.0
H719 H 0.18194 0.26263 0.1794 0.0
H720 H 0.3343 0.31698 0.1066 0.0
H721 H 0.33357 0.35295 0.06158 0.0
H722 H 0.33017 0.29585 0.0519 0.0
H723 H 0.25929 0.30291 0.00935 0.0
H724 H 0.26237 0.36028 0.01988 0.0
H725 H 0.21479 0.32797 0.03482 0.0
H726 H 0.19678 0.34125 0.20204 0.0
H727 H 0.22846 0.41512 0.21667 0.0
H728 H 0.29556 0.41046 0.09427 0.0
C729 C 0.26142 0.23819 0.08546 0.0
C730 C 0.24132 0.20405 0.10852 0.0
C731 C 0.21054 0.21309 0.1405 0.0
C732 C 0.20348 0.25581 0.15301 0.0
C733 C 0.22514 0.28899 0.1308 0.0
C734 C 0.25184 0.28053 0.09628 0.0
C735 C 0.27069 0.32172 0.07719 0.0
C736 C 0.32014 0.32186 0.07425 0.0
C737 C 0.25058 0.32864 0.03268 0.0
C738 C 0.25582 0.3543 0.11033 0.0
C739 C 0.22848 0.33505 0.14039 0.0
C740 C 0.21659 0.35722 0.17792 0.0
C741 C 0.23465 0.39925 0.18598 0.0
C742 C 0.26437 0.41842 0.15659 0.0
C743 C 0.27262 0.39657 0.11712 0.0
H744 H 0.05113 0.95318 0.13955 0.0
H745 H 0.97428 0.05155 0.19588 0.0
H746 H 0.91519 0.03092 0.14373 0.0
H747 H 0.01736 0.96901 0.02919 0.0
H748 H 0.01548 0.9127 0.01292 0.0
H749 H 0.05363 0.93365 0.05337 0.0
H750 H 0.99314 0.85537 0.07013 0.0
H751 H 0.96948 0.87284 0.12006 0.0
H752 H 0.02667 0.8813 0.1114 0.0
H753 H 0.86051 0.98791 0.09698 0.0
H754 H 0.81723 0.92698 0.06425 0.0
H755 H 0.93391 0.86885 0.02305 0.0
C756 C 0.02191 0.97053 0.14051 0.0
C757 C 0.01659 0.00343 0.17168 0.0
C758 C 0.97847 0.02602 0.1721 0.0
C759 C 0.94506 0.01471 0.14248 0.0
C760 C 0.95123 0.98188 0.11188 0.0
C761 C 0.98899 0.96053 0.11053 0.0
C762 C 0.9873 0.92534 0.07604 0.0
C763 C 0.02039 0.93579 0.04066 0.0
C764 C 0.99453 0.88117 0.09561 0.0
C765 C 0.94157 0.92817 0.05966 0.0
C766 C 0.92114 0.96097 0.08085 0.0
C767 C 0.8764 0.96307 0.07912 0.0
C768 C 0.85184 0.92847 0.05956 0.0
C769 C 0.87231 0.8924 0.04214 0.0
C770 C 0.91754 0.89597 0.03633 0.0
H771 H 0.24618 0.72656 0.53008 0.0
H772 H 0.16051 0.80527 0.46113 0.0
H773 H 0.14433 0.74504 0.40857 0.0
H774 H 0.2943 0.67985 0.45157 0.0
H775 H 0.29492 0.62617 0.47218 0.0
H776 H 0.29084 0.671 0.50886 0.0
H777 H 0.22109 0.63432 0.54013 0.0
H778 H 0.22404 0.58951 0.50232 0.0
H779 H 0.17616 0.61934 0.50508 0.0
H780 H 0.15891 0.68919 0.35297 0.0
H781 H 0.19793 0.64142 0.30453 0.0
H782 H 0.25886 0.58784 0.41517 0.0
C783 C 0.22285 0.73061 0.50475 0.0
C784 C 0.20634 0.77125 0.49791 0.0
C785 C 0.17523 0.77505 0.46521 0.0
C786 C 0.16527 0.7408 0.43585 0.0
C787 C 0.18444 0.70196 0.44154 0.0
C788 C 0.2111 0.69604 0.47642 0.0
C789 C 0.23099 0.65285 0.47297 0.0
C790 C 0.28065 0.65786 0.47654 0.0
C791 C 0.21192 0.62218 0.50714 0.0
C792 C 0.21616 0.63824 0.42802 0.0
C793 C 0.18834 0.66643 0.41074 0.0
C794 C 0.17899 0.66565 0.36656 0.0
C795 C 0.20121 0.63805 0.33907 0.0
C796 C 0.23212 0.61135 0.35602 0.0
C797 C 0.2358 0.60836 0.40133 0.0
H798 H 0.47089 0.13405 0.67546 0.0
H799 H 0.5535 0.07387 0.76584 0.0
H800 H 0.61315 0.07805 0.71276 0.0
H801 H 0.50878 0.08702 0.5774 0.0
H802 H 0.50789 0.13551 0.5468 0.0
H803 H 0.471 0.12696 0.5911 0.0
H804 H 0.49918 0.19924 0.62908 0.0
H805 H 0.53332 0.20871 0.583 0.0
H806 H 0.55654 0.2096 0.63636 0.0
H807 H 0.66241 0.08651 0.64926 0.0
H808 H 0.70609 0.12206 0.5933 0.0
H809 H 0.59228 0.17767 0.54302 0.0
C810 C 0.50193 0.12271 0.68427 0.0
C811 C 0.50801 0.10387 0.72458 0.0
C812 C 0.54859 0.08874 0.73512 0.0
C813 C 0.58229 0.09029 0.70491 0.0
C814 C 0.57463 0.10707 0.66444 0.0
C815 C 0.53605 0.12457 0.65471 0.0
C816 C 0.53766 0.14479 0.61069 0.0
C817 C 0.50434 0.12221 0.57968 0.0
C818 C 0.53131 0.19346 0.61504 0.0
C819 C 0.58332 0.13608 0.59713 0.0
C820 C 0.60358 0.1132 0.62816 0.0
C821 C 0.64692 0.10456 0.62484 0.0
C822 C 0.67144 0.12429 0.59205 0.0
C823 C 0.65285 0.15406 0.56463 0.0
C824 C 0.60733 0.15524 0.56363 0.0
H825 H 0.16316 0.21831 0.94952 0.0
H826 H 0.29665 0.19365 0.97477 0.0
H827 H 0.32064 0.25453 0.92883 0.0
H828 H 0.17557 0.24868 0.8372 0.0
H829 H 0.13874 0.29103 0.84182 0.0
H830 H 0.13164 0.24443 0.87497 0.0
H831 H 0.13158 0.29191 0.94219 0.0
H832 H 0.14121 0.34074 0.91278 0.0
H833 H 0.17756 0.32759 0.9553 0.0
H834 H 0.32866 0.32735 0.89206 0.0
H835 H 0.31963 0.39665 0.85517 0.0
H836 H 0.18218 0.36523 0.84602 0.0
C837 C 0.19739 0.22508 0.9444 0.0
C838 C 0.2281 0.20156 0.96539 0.0
C839 C 0.27268 0.21128 0.95842 0.0
C840 C 0.28659 0.24592 0.93273 0.0
C841 C 0.2554 0.26961 0.91363 0.0
C842 C 0.21173 0.25861 0.91799 0.0
C843 C 0.18459 0.28976 0.8954 0.0
C844 C 0.15604 0.2671 0.86019 0.0
C845 C 0.15712 0.314 0.92829 0.0
C846 C 0.21978 0.31918 0.87652 0.0
C847 C 0.26043 0.30834 0.88868 0.0
C848 C 0.29719 0.33533 0.88083 0.0
C849 C 0.29202 0.37422 0.85957 0.0
C850 C 0.25057 0.38483 0.84629 0.0
C851 C 0.21445 0.35645 0.854 0.0
H852 H 0.34926 0.04116 0.13324 0.0
H853 H 0.33274 0.99653 0.0004 0.0
H854 H 0.39172 0.94718 0.00957 0.0
H855 H 0.46531 0.04054 0.13667 0.0
H856 H 0.46792 0.02136 0.19086 0.0
H857 H 0.42452 0.05372 0.17498 0.0
H858 H 0.36661 0.99544 0.19556 0.0
H859 H 0.40882 0.96392 0.21535 0.0
H860 H 0.3707 0.9407 0.17616 0.0
H861 H 0.44075 0.89246 0.03959 0.0
H862 H 0.4749 0.8415 0.08571 0.0
H863 H 0.47921 0.93669 0.19087 0.0
C864 C 0.35834 0.02136 0.10598 0.0
C865 C 0.33628 0.02228 0.0663 0.0
C866 C 0.34923 0.99607 0.03119 0.0
C867 C 0.38278 0.96815 0.03606 0.0
C868 C 0.40401 0.96805 0.07576 0.0
C869 C 0.39271 0.99461 0.10982 0.0
C870 C 0.41912 0.98726 0.14964 0.0
C871 C 0.44582 0.02818 0.16398 0.0
C872 C 0.38958 0.97078 0.18633 0.0
C873 C 0.44734 0.95249 0.13281 0.0
C874 C 0.43712 0.94071 0.09056 0.0
C875 C 0.45027 0.90229 0.07215 0.0
C876 C 0.47049 0.8735 0.09877 0.0
C877 C 0.4784 0.88385 0.14315 0.0
C878 C 0.4721 0.92653 0.15784 0.0
H879 H 0.88885 0.53779 0.00975 0.0
H880 H 0.9848 0.45004 0.96834 0.0
H881 H 0.02716 0.51019 0.93511 0.0
H882 H 0.88536 0.59395 0.91881 0.0
H883 H 0.87915 0.64602 0.94412 0.0
H884 H 0.86195 0.59813 0.97192 0.0
H885 H 0.91125 0.62293 0.03687 0.0
H886 H 0.92883 0.67089 0.00858 0.0
H887 H 0.96792 0.63535 0.02786 0.0
H888 H 0.04909 0.57472 0.89196 0.0
H889 H 0.04694 0.63659 0.84354 0.0
H890 H 0.94251 0.68565 0.9189 0.0
C891 C 0.91934 0.53144 0.99464 0.0
C892 C 0.93346 0.48918 0.99162 0.0
C893 C 0.97345 0.48216 0.97139 0.0
C894 C 0.99787 0.51619 0.95254 0.0
C895 C 0.98247 0.55735 0.95506 0.0
C896 C 0.9444 0.56518 0.97626 0.0
C897 C 0.93233 0.61107 0.97042 0.0
C898 C 0.88707 0.61232 0.95009 0.0
C899 C 0.93524 0.63658 0.01352 0.0
C900 C 0.96757 0.62677 0.93977 0.0
C901 C 0.9968 0.59568 0.93189 0.0
C902 C 0.02745 0.59998 0.89896 0.0
C903 C 0.02634 0.63547 0.87176 0.0
C904 C 0.99476 0.66594 0.87778 0.0
C905 C 0.96747 0.66311 0.91421 0.0
H906 H 0.76911 0.59319 0.28894 0.0
H907 H 0.84949 0.66374 0.19752 0.0
H908 H 0.79182 0.71432 0.18718 0.0
H909 H 0.67571 0.59771 0.22312 0.0
H910 H 0.63869 0.59957 0.26786 0.0
H911 H 0.6888 0.57432 0.27382 0.0
H912 H 0.70643 0.62471 0.34034 0.0
H913 H 0.65704 0.65138 0.33302 0.0
H914 H 0.70803 0.68223 0.3343 0.0
H915 H 0.72901 0.75685 0.18579 0.0
H916 H 0.65377 0.77074 0.16911 0.0
H917 H 0.60944 0.66887 0.25394 0.0
C918 C 0.77477 0.62009 0.2677 0.0
C919 C 0.81411 0.62616 0.24521 0.0
C920 C 0.81987 0.65989 0.21581 0.0
C921 C 0.78776 0.68878 0.21005 0.0
C922 C 0.74974 0.68294 0.23329 0.0
C923 C 0.74221 0.64849 0.2602 0.0
C924 C 0.69538 0.64501 0.27426 0.0
C925 C 0.67335 0.60161 0.25881 0.0
C926 C 0.69151 0.6512 0.32342 0.0
C927 C 0.67812 0.68278 0.25071 0.0
C928 C 0.71081 0.70547 0.22922 0.0
C929 C 0.70299 0.73959 0.20254 0.0
C930 C 0.66017 0.74791 0.19387 0.0
C931 C 0.62615 0.72122 0.21073 0.0
C932 C 0.63506 0.69059 0.24202 0.0
H933 H 0.6502 0.55917 0.43246 0.0
H934 H 0.73118 0.50132 0.52614 0.0
H935 H 0.68908 0.43161 0.51572 0.0
H936 H 0.5486 0.49869 0.4548 0.0
H937 H 0.53384 0.49232 0.39862 0.0
H938 H 0.56676 0.53895 0.41691 0.0
H939 H 0.62636 0.52179 0.36132 0.0
H940 H 0.59264 0.47649 0.34181 0.0
H941 H 0.64682 0.46874 0.35965 0.0
H942 H 0.64057 0.36829 0.4934 0.0
H943 H 0.60448 0.31181 0.44677 0.0
H944 H 0.55644 0.40956 0.36546 0.0
C945 C 0.65895 0.53167 0.45064 0.0
C946 C 0.6937 0.53521 0.48006 0.0
C947 C 0.70483 0.4988 0.50309 0.0
C948 C 0.68062 0.45945 0.49799 0.0
C949 C 0.64574 0.45715 0.46945 0.0
C950 C 0.63581 0.49194 0.44515 0.0
C951 C 0.60093 0.47946 0.41228 0.0
C952 C 0.56012 0.5038 0.42122 0.0
C953 C 0.6177 0.48703 0.36606 0.0
C954 C 0.59341 0.4319 0.42123 0.0
C955 C 0.61852 0.42004 0.45537 0.0
C956 C 0.62036 0.37717 0.46699 0.0
C957 C 0.59911 0.34524 0.44073 0.0
C958 C 0.57744 0.35653 0.40287 0.0
C959 C 0.57181 0.40037 0.39496 0.0
H960 H 0.23008 0.96688 0.28815 0.0
H961 H 0.18253 0.93587 0.15854 0.0
H962 H 0.24002 0.88538 0.148 0.0
H963 H 0.3395 0.96922 0.26067 0.0
H964 H 0.36001 0.94446 0.3078 0.0
H965 H 0.3126 0.975 0.31144 0.0
H966 H 0.26389 0.91169 0.34005 0.0
H967 H 0.31292 0.88353 0.34319 0.0
H968 H 0.26731 0.85951 0.31412 0.0
H969 H 0.30143 0.84156 0.14993 0.0
H970 H 0.36715 0.80372 0.16289 0.0
H971 H 0.38079 0.86617 0.28934 0.0
C972 C 0.23176 0.94915 0.25773 0.0
C973 C 0.202 0.95488 0.22409 0.0
C974 C 0.20531 0.93195 0.18445 0.0
C975 C 0.23763 0.90314 0.17829 0.0
C976 C 0.26665 0.89842 0.21186 0.0
C977 C 0.26446 0.92082 0.25073 0.0
C978 C 0.30163 0.91128 0.28028 0.0
C979 C 0.3302 0.95237 0.2906 0.0
C980 C 0.28539 0.89035 0.32199 0.0
C981 C 0.32447 0.87935 0.2519 0.0
C982 C 0.30332 0.87259 0.21283 0.0
C983 C 0.3178 0.8453 0.18073 0.0
C984 C 0.3546 0.82338 0.1888 0.0
C985 C 0.37782 0.83045 0.22793 0.0
C986 C 0.36244 0.85868 0.2601 0.0
H987 H 0.19626 0.04636 0.56363 0.0
H988 H 0.08606 0.96743 0.51817 0.0
H989 H 0.03911 0.02797 0.5311 0.0
H990 H 0.16571 0.09277 0.63863 0.0
H991 H 0.18373 0.14919 0.63498 0.0
H992 H 0.2113 0.10913 0.60553 0.0
H993 H 0.198 0.14185 0.53252 0.0
H994 H 0.17288 0.18567 0.55982 0.0
H995 H 0.14446 0.15518 0.51737 0.0
H996 H 0.00523 0.08051 0.58156 0.0
H997 H 0.98924 0.12893 0.64324 0.0
H998 H 0.12029 0.18335 0.64129 0.0
C999 C 0.16253 0.04261 0.5547 0.0
C1000 C 0.14376 0.00168 0.54269 0.0
C1001 C 0.10009 0.99791 0.52997 0.0
C1002 C 0.07352 0.03242 0.53642 0.0
C1003 C 0.09208 0.07144 0.5527 0.0
C1004 C 0.1363 0.07781 0.55807 0.0
C1005 C 0.14788 0.12158 0.57872 0.0
C1006 C 0.17901 0.11807 0.61683 0.0
C1007 C 0.16692 0.15292 0.5451 0.0
C1008 C 0.10356 0.13427 0.59285 0.0
C1009 C 0.0714 0.10581 0.57604 0.0
C1010 C 0.02943 0.10479 0.59263 0.0
C1011 C 0.02049 0.13231 0.62777 0.0
C1012 C 0.05323 0.16092 0.64548 0.0
C1013 C 0.09445 0.16325 0.62643 0.0
H1014 H 0.80217 0.4737 0.22962 0.0
H1015 H 0.89464 0.38748 0.27785 0.0
H1016 H 0.83544 0.33136 0.28772 0.0
H1017 H 0.71775 0.44578 0.29928 0.0
H1018 H 0.67535 0.44842 0.25987 0.0
H1019 H 0.72502 0.48045 0.2537 0.0
H1020 H 0.73474 0.44636 0.17732 0.0
H1021 H 0.68513 0.41385 0.18338 0.0
H1022 H 0.73447 0.38861 0.1707 0.0
H1023 H 0.76778 0.28927 0.30165 0.0
H1024 H 0.6931 0.26173 0.31542 0.0
H1025 H 0.64497 0.37218 0.25239 0.0
C1026 C 0.80994 0.44268 0.24167 0.0
C1027 C 0.85257 0.43452 0.25317 0.0
C1028 C 0.86202 0.39383 0.26867 0.0
C1029 C 0.82895 0.36187 0.27414 0.0
C1030 C 0.78724 0.37076 0.2626 0.0
C1031 C 0.7776 0.40991 0.24611 0.0
C1032 C 0.72973 0.41168 0.23793 0.0
C1033 C 0.71088 0.44876 0.26428 0.0
C1034 C 0.72047 0.41532 0.18945 0.0
C1035 C 0.71388 0.36806 0.25428 0.0
C1036 C 0.74768 0.34503 0.26835 0.0
C1037 C 0.74102 0.30625 0.28959 0.0
C1038 C 0.69856 0.29053 0.29671 0.0
C1039 C 0.66352 0.31413 0.28348 0.0
C1040 C 0.67132 0.35273 0.26099 0.0
H1041 H 0.7304 0.53677 0.72705 0.0
H1042 H 0.6422 0.6352 0.76008 0.0
H1043 H 0.70464 0.68594 0.77835 0.0
H1044 H 0.81025 0.56506 0.80746 0.0
H1045 H 0.85498 0.55428 0.77255 0.0
H1046 H 0.8035 0.52555 0.76401 0.0
H1047 H 0.80295 0.55121 0.68484 0.0
H1048 H 0.85436 0.58053 0.69413 0.0
H1049 H 0.80932 0.60783 0.67432 0.0
H1050 H 0.77703 0.72774 0.78891 0.0
H1051 H 0.85335 0.75334 0.79882 0.0
H1052 H 0.89298 0.62818 0.7561 0.0
C1053 C 0.72431 0.56936 0.73749 0.0
C1054 C 0.6819 0.5825 0.74187 0.0
C1055 C 0.67472 0.62505 0.75579 0.0
C1056 C 0.70976 0.65413 0.76589 0.0
C1057 C 0.75135 0.64064 0.76027 0.0
C1058 C 0.7587 0.5992 0.74639 0.0
C1059 C 0.80628 0.59252 0.74307 0.0
C1060 C 0.81951 0.55728 0.77361 0.0
C1061 C 0.81889 0.58237 0.69627 0.0
C1062 C 0.82469 0.63655 0.75747 0.0
C1063 C 0.7926 0.66402 0.76724 0.0
C1064 C 0.80216 0.70644 0.78147 0.0
C1065 C 0.84549 0.72097 0.78634 0.0
C1066 C 0.87839 0.69282 0.77734 0.0
C1067 C 0.86797 0.65038 0.76228 0.0
H1068 H 0.60981 0.82441 0.51902 0.0
H1069 H 0.52954 0.92786 0.55799 0.0
H1070 H 0.55867 0.97139 0.49714 0.0
H1071 H 0.70177 0.88651 0.48738 0.0
H1072 H 0.71333 0.85331 0.44077 0.0
H1073 H 0.68604 0.82971 0.48628 0.0
H1074 H 0.62244 0.80044 0.43903 0.0
H1075 H 0.64881 0.82239 0.39201 0.0
H1076 H 0.5949 0.83643 0.40528 0.0
H1077 H 0.60033 0.00414 0.43143 0.0
H1078 H 0.64893 0.02118 0.36916 0.0
H1079 H 0.69583 0.89302 0.37389 0.0
C1080 C 0.59851 0.85636 0.51511 0.0
C1081 C 0.56784 0.87304 0.54345 0.0
C1082 C 0.55327 0.91464 0.53665 0.0
C1083 C 0.56959 0.9395 0.50219 0.0
C1084 C 0.59984 0.92185 0.47463 0.0
C1085 C 0.61376 0.881 0.48078 0.0
C1086 C 0.64538 0.8683 0.44654 0.0
C1087 C 0.68921 0.85899 0.46646 0.0
C1088 C 0.62677 0.82962 0.4191 0.0
C1089 C 0.64839 0.90888 0.42082 0.0
C1090 C 0.62193 0.93959 0.43699 0.0
C1091 C 0.62096 0.98016 0.41846 0.0
C1092 C 0.6484 0.98959 0.38315 0.0
C1093 C 0.67623 0.95853 0.36729 0.0
C1094 C 0.67514 0.91752 0.3858 0.0
H1095 H 0.34827 0.26191 0.83976 0.0
H1096 H 0.45585 0.20267 0.77869 0.0
H1097 H 0.40732 0.17032 0.72192 0.0
H1098 H 0.26119 0.17681 0.80388 0.0
H1099 H 0.22276 0.21569 0.79242 0.0
H1100 H 0.26097 0.22543 0.83626 0.0
H1101 H 0.29296 0.29755 0.8026 0.0
H1102 H 0.25057 0.29016 0.76359 0.0
H1103 H 0.30603 0.2972 0.7464 0.0
H1104 H 0.35135 0.15645 0.66501 0.0
H1105 H 0.29979 0.17548 0.60897 0.0
H1106 H 0.22753 0.24354 0.70523 0.0
C1107 C 0.36095 0.24071 0.8153 0.0
C1108 C 0.40531 0.23384 0.81382 0.0
C1109 C 0.42162 0.20756 0.78049 0.0
C1110 C 0.39424 0.18879 0.74836 0.0
C1111 C 0.35059 0.19686 0.74982 0.0
C1112 C 0.33412 0.2226 0.78227 0.0
C1113 C 0.28845 0.23336 0.77184 0.0
C1114 C 0.25635 0.21171 0.80316 0.0
C1115 C 0.2842 0.28242 0.77099 0.0
C1116 C 0.28306 0.21275 0.72737 0.0
C1117 C 0.31837 0.19004 0.71591 0.0
C1118 C 0.32308 0.17325 0.67407 0.0
C1119 C 0.29316 0.18349 0.64245 0.0
C1120 C 0.25987 0.21115 0.65289 0.0
C1121 C 0.25222 0.22175 0.69657 0.0
H1122 H 0.95183 0.12552 0.06209 0.0
H1123 H 0.05005 0.1993 0.99154 0.0
H1124 H 0.01805 0.17095 0.92235 0.0
H1125 H 0.93357 0.03173 0.98562 0.0
H1126 H 0.87616 0.03026 0.99403 0.0
H1127 H 0.91244 0.04877 0.03695 0.0
H1128 H 0.87341 0.12007 0.04299 0.0
H1129 H 0.83758 0.10194 -0.00013 0.0
H1130 H 0.86893 0.15236 0.99583 0.0
H1131 H 0.97052 0.14209 0.86193 0.0
H1132 H 0.90776 0.12183 0.81521 0.0
H1133 H 0.83836 0.06973 0.92557 0.0
C1134 C 0.96724 0.13447 0.03196 0.0
C1135 C 0.00371 0.16362 0.03158 0.0
C1136 C 0.02232 0.17643 0.99198 0.0
C1137 C 0.00454 0.16028 0.95275 0.0
C1138 C 0.96788 0.13204 0.95404 0.0
C1139 C 0.94917 0.11964 0.99269 0.0
C1140 C 0.90612 0.09506 0.98556 0.0
C1141 C 0.90716 0.0487 0.00146 0.0
C1142 C 0.86938 0.11879 0.00733 0.0
C1143 C 0.90313 0.09611 0.93687 0.0
C1144 C 0.93944 0.11679 0.9192 0.0
C1145 C 0.9423 0.12512 0.87524 0.0
C1146 C 0.90658 0.11332 0.84891 0.0
C1147 C 0.86842 0.09393 0.8668 0.0
C1148 C 0.86733 0.08412 0.91105 0.0
H1149 H 0.06062 0.81726 0.29851 0.0
H1150 H 0.16177 0.82893 0.39486 0.0
H1151 H 0.21565 0.81616 0.33942 0.0
H1152 H 0.0995 0.74291 0.23111 0.0
H1153 H 0.08714 0.76689 0.18053 0.0
H1154 H 0.05614 0.77878 0.22782 0.0
H1155 H 0.07396 0.86017 0.21841 0.0
H1156 H 0.1056 0.84917 0.17104 0.0
H1157 H 0.12933 0.88061 0.2156 0.0
H1158 H 0.256 0.79017 0.27549 0.0
H1159 H 0.28079 0.75897 0.2067 0.0
H1160 H 0.15887 0.78459 0.14713 0.0
C1161 C 0.09446 0.81938 0.30733 0.0
C1162 C 0.10723 0.82254 0.35105 0.0
C1163 C 0.15143 0.82534 0.36174 0.0
C1164 C 0.18256 0.81941 0.3301 0.0
C1165 C 0.16934 0.81562 0.28722 0.0
C1166 C 0.12649 0.81751 0.27549 0.0
C1167 C 0.12091 0.8113 0.22712 0.0
C1168 C 0.08906 0.77267 0.21604 0.0
C1169 C 0.10662 0.85277 0.20682 0.0
C1170 C 0.16671 0.80241 0.21419 0.0
C1171 C 0.1941 0.80485 0.24942 0.0
C1172 C 0.23571 0.79042 0.24711 0.0
C1173 C 0.24967 0.77289 0.20782 0.0
C1174 C 0.22248 0.77078 0.17112 0.0
C1175 C 0.18091 0.78692 0.17431 0.0
H1176 H 0.50586 0.12734 0.98791 0.0
H1177 H 0.4729 0.22916 0.07728 0.0
H1178 H 0.49076 0.18382 0.13889 0.0
H1179 H 0.4713 0.03444 0.06107 0.0
H1180 H 0.51535 0.00341 0.04329 0.0
H1181 H 0.49009 0.0388 0.00666 0.0
H1182 H 0.56328 0.07883 0.99065 0.0
H1183 H 0.58967 0.04381 0.02572 0.0
H1184 H 0.59578 0.10134 0.03493 0.0
H1185 H 0.52533 0.13444 0.18838 0.0
H1186 H 0.58092 0.0913 0.21994 0.0
H1187 H 0.59249 0.02141 0.09859 0.0
C1188 C 0.5009 0.13914 0.02063 0.0
C1189 C 0.48747 0.18095 0.02849 0.0
C1190 C 0.48247 0.19663 0.07118 0.0
C1191 C 0.49231 0.17103 0.10615 0.0
C1192 C 0.50678 0.13002 0.09747 0.0
C1193 C 0.51082 0.11411 0.05564 0.0
C1194 C 0.53282 0.07204 0.05442 0.0
C1195 C 0.50058 0.03488 0.04055 0.0
C1196 C 0.57275 0.07421 0.02474 0.0
C1197 C 0.5449 0.06903 0.10154 0.0
C1198 C 0.52786 0.10174 0.12613 0.0
C1199 C 0.53815 0.10829 0.16969 0.0
C1200 C 0.56925 0.0832 0.1876 0.0
C1201 C 0.59009 0.05267 0.16173 0.0
C1202 C 0.57571 0.04351 0.11919 0.0
H1203 H 0.13165 0.31615 0.23359 0.0
H1204 H 0.05832 0.19364 0.23824 0.0
H1205 H 0.07632 0.18832 0.31561 0.0
H1206 H 0.21946 0.2867 0.31585 0.0
H1207 H 0.22318 0.3423 0.33323 0.0
H1208 H 0.21053 0.32825 0.27771 0.0
H1209 H 0.14179 0.37349 0.28805 0.0
H1210 H 0.15517 0.38307 0.34388 0.0
H1211 H 0.10324 0.35789 0.32926 0.0
H1212 H 0.09183 0.20384 0.3953 0.0
H1213 H 0.10395 0.23849 0.46766 0.0
H1214 H 0.17539 0.34554 0.40845 0.0
C1215 C 0.12085 0.28754 0.25063 0.0
C1216 C 0.094 0.25522 0.23012 0.0
C1217 C 0.07916 0.21867 0.25341 0.0
C1218 C 0.08946 0.21527 0.29732 0.0
C1219 C 0.1159 0.24803 0.31686 0.0
C1220 C 0.13231 0.28295 0.29383 0.0
C1221 C 0.15711 0.31552 0.3227 0.0
C1222 C 0.2054 0.31833 0.31159 0.0
C1223 C 0.1381 0.36008 0.32084 0.0
C1224 C 0.14957 0.29507 0.36596 0.0
C1225 C 0.12637 0.25581 0.36219 0.0
C1226 C 0.11111 0.23393 0.39857 0.0
C1227 C 0.11833 0.25363 0.43958 0.0
C1228 C 0.14051 0.29466 0.44348 0.0
C1229 C 0.15834 0.31411 0.40634 0.0
H1230 H 0.02737 0.94353 0.55491 0.0
H1231 H 0.03039 0.80927 0.58723 0.0
H1232 H 0.00327 0.82673 0.66017 0.0
H1233 H 0.04914 0.98989 0.67424 0.0
H1234 H 0.01426 0.03234 0.66231 0.0
H1235 H 0.04903 0.01178 0.62109 0.0
H1236 H 0.98104 0.99617 0.57109 0.0
H1237 H 0.94806 0.01678 0.61276 0.0
H1238 H 0.93638 0.96288 0.59121 0.0
H1239 H 0.96138 0.85553 0.72171 0.0
H1240 H 0.89983 0.88767 0.75704 0.0
H1241 H 0.92233 0.002 0.68084 0.0
C1242 C 0.02562 0.91834 0.57822 0.0
C1243 C 0.03226 0.87539 0.56566 0.0
C1244 C 0.02608 0.84259 0.59628 0.0
C1245 C 0.01133 0.85238 0.63806 0.0
C1246 C 0.00386 0.8952 0.64899 0.0
C1247 C 0.01133 0.92778 0.61979 0.0
C1248 C 0.99234 0.96916 0.63499 0.0
C1249 C 0.0283 0.00278 0.64898 0.0
C1250 C 0.9627 0.98716 0.60052 0.0
C1251 C 0.96744 0.95308 0.67381 0.0
C1252 C 0.97702 0.91144 0.68336 0.0
C1253 C 0.95417 0.88825 0.71473 0.0
C1254 C 0.91867 0.90664 0.73416 0.0
C1255 C 0.90484 0.9468 0.72035 0.0
C1256 C 0.93172 0.97145 0.6924 0.0
H1257 H 0.45669 0.82303 0.76567 0.0
H1258 H 0.36848 0.74473 0.68473 0.0
H1259 H 0.31202 0.74982 0.74011 0.0
H1260 H 0.44221 0.77587 0.8499 0.0
H1261 H 0.44039 0.81723 0.89178 0.0
H1262 H 0.46636 0.82959 0.84194 0.0
H1263 H 0.42047 0.89194 0.8264 0.0
H1264 H 0.39557 0.88354 0.87843 0.0
H1265 H 0.36268 0.88461 0.8307 0.0
H1266 H 0.27227 0.74591 0.8057 0.0
H1267 H 0.26159 0.71928 0.8792 0.0
H1268 H 0.37493 0.79563 0.92268 0.0
C1269 C 0.42428 0.80993 0.75857 0.0
C1270 C 0.41586 0.78539 0.72021 0.0
C1271 C 0.37452 0.76549 0.71294 0.0
C1272 C 0.34214 0.76857 0.74402 0.0
C1273 C 0.35128 0.79173 0.78226 0.0
C1274 C 0.39147 0.81246 0.78978 0.0
C1275 C 0.39648 0.82537 0.83727 0.0
C1276 C 0.43879 0.81083 0.85638 0.0
C1277 C 0.39366 0.87429 0.84355 0.0
C1278 C 0.35675 0.80176 0.85587 0.0
C1279 C 0.32927 0.78606 0.82319 0.0
C1280 C 0.29305 0.75878 0.83157 0.0
C1281 C 0.28698 0.74394 0.87352 0.0
C1282 C 0.31742 0.75574 0.90627 0.0
C1283 C 0.3508 0.78731 0.89817 0.0
H1284 H 0.53659 0.5399 0.85408 0.0
H1285 H 0.44012 0.47395 0.7713 0.0
H1286 H 0.38291 0.49364 0.82224 0.0
H1287 H 0.47739 0.52175 0.9614 0.0
H1288 H 0.49569 0.5748 0.98088 0.0
H1289 H 0.52924 0.54497 0.94484 0.0
H1290 H 0.53172 0.60927 0.89225 0.0
H1291 H 0.49777 0.63834 0.92793 0.0
H1292 H 0.48173 0.62809 0.87251 0.0
H1293 H 0.33606 0.53196 0.87266 0.0
H1294 H 0.30323 0.58906 0.91615 0.0
H1295 H 0.42907 0.63191 0.96634 0.0
C1296 C 0.50357 0.52814 0.84788 0.0
C1297 C 0.49251 0.50488 0.80945 0.0
C1298 C 0.44896 0.49144 0.801 0.0
C1299 C 0.41639 0.50226 0.82985 0.0
C1300 C 0.42798 0.52678 0.8668 0.0
C1301 C 0.47058 0.53957 0.87595 0.0
C1302 C 0.47381 0.57162 0.91363 0.0
C1303 C 0.49543 0.55216 0.95254 0.0
C1304 C 0.49762 0.61432 0.90078 0.0
C1305 C 0.42644 0.57698 0.92238 0.0
C1306 C 0.40053 0.54978 0.89595 0.0
C1307 C 0.35588 0.55246 0.89445 0.0
C1308 C 0.33745 0.5848 0.91929 0.0
C1309 C 0.36367 0.61385 0.94519 0.0
C1310 C 0.40838 0.60887 0.94799 0.0
H1311 H 0.74453 0.32278 0.11984 0.0
H1312 H 0.8758 0.30235 0.08058 0.0
H1313 H 0.86717 0.22686 0.10471 0.0
H1314 H 0.75127 0.25821 0.21722 0.0
H1315 H 0.69493 0.24042 0.21387 0.0
H1316 H 0.71283 0.29242 0.19382 0.0
H1317 H 0.67973 0.27139 0.11871 0.0
H1318 H 0.66154 0.21992 0.13944 0.0
H1319 H 0.69508 0.22244 0.09219 0.0
H1320 H 0.83718 0.14892 0.12222 0.0
H1321 H 0.79415 0.08263 0.14291 0.0
H1322 H 0.6906 0.16154 0.18488 0.0
C1323 C 0.77165 0.3026 0.11677 0.0
C1324 C 0.81032 0.31788 0.09736 0.0
C1325 C 0.84551 0.29092 0.09473 0.0
C1326 C 0.8409 0.24801 0.10828 0.0
C1327 C 0.80151 0.23339 0.12589 0.0
C1328 C 0.76813 0.26054 0.1314 0.0
C1329 C 0.72968 0.23821 0.15266 0.0
C1330 C 0.72166 0.25858 0.19712 0.0
C1331 C 0.68914 0.23802 0.12401 0.0
C1332 C 0.74566 0.19377 0.15665 0.0
C1333 C 0.7868 0.1909 0.14048 0.0
C1334 C 0.80542 0.15118 0.13619 0.0
C1335 C 0.78089 0.11371 0.14829 0.0
C1336 C 0.73869 0.11662 0.16526 0.0
C1337 C 0.72224 0.15764 0.17118 0.0
H1338 H 0.07406 0.53276 0.33076 0.0
H1339 H 0.9493 0.5468 0.39027 0.0
H1340 H 0.97968 0.52874 0.46083 0.0
H1341 H 0.09238 0.44148 0.37685 0.0
H1342 H 0.14993 0.45081 0.38312 0.0
H1343 H 0.12251 0.47772 0.34182 0.0
H1344 H 0.15318 0.55164 0.37297 0.0
H1345 H 0.1813 0.5234 0.41349 0.0
H1346 H 0.14621 0.56477 0.42932 0.0
H1347 H 0.01643 0.48746 0.51735 0.0
H1348 H 0.05628 0.4312 0.55272 0.0
H1349 H 0.15855 0.44808 0.45921 0.0
C1350 C 0.05359 0.53389 0.35902 0.0
C1351 C 0.00933 0.54096 0.35498 0.0
C1352 C 0.98341 0.54175 0.39258 0.0
C1353 C 0.00046 0.5315 0.43287 0.0
C1354 C 0.0436 0.52138 0.43511 0.0
C1355 C 0.07013 0.52363 0.39919 0.0
C1356 C 0.11266 0.50401 0.4075 0.0
C1357 C 0.11965 0.46629 0.37545 0.0
C1358 C 0.15052 0.53801 0.40576 0.0
C1359 C 0.10527 0.48833 0.45286 0.0
C1360 C 0.06536 0.49874 0.46853 0.0
C1361 C 0.0481 0.48012 0.50591 0.0
C1362 C 0.07101 0.4485 0.52615 0.0
C1363 C 0.11025 0.43559 0.50855 0.0
C1364 C 0.12897 0.45826 0.4737 0.0
H1365 H 0.75593 0.75711 0.55862 0.0
H1366 H 0.7741 0.67158 0.66433 0.0
H1367 H 0.75224 0.72794 0.71586 0.0
H1368 H 0.80064 0.8482 0.60283 0.0
H1369 H 0.76261 0.88457 0.58278 0.0
H1370 H 0.76973 0.83457 0.55454 0.0
H1371 H 0.68713 0.81388 0.56175 0.0
H1372 H 0.68107 0.86499 0.58922 0.0
H1373 H 0.66243 0.81556 0.61423 0.0
H1374 H 0.74739 0.79581 0.75622 0.0
H1375 H 0.76036 0.87073 0.78114 0.0
H1376 H 0.74284 0.91369 0.65106 0.0
C1377 C 0.75469 0.75033 0.59271 0.0
C1378 C 0.76729 0.71068 0.608 0.0
C1379 C 0.7654 0.7023 0.65245 0.0
C1380 C 0.75253 0.7338 0.68183 0.0
C1381 C 0.74116 0.77313 0.66624 0.0
C1382 C 0.7417 0.78147 0.62262 0.0
C1383 C 0.73278 0.82795 0.61475 0.0
C1384 C 0.7686 0.8501 0.58717 0.0
C1385 C 0.68821 0.8308 0.59374 0.0
C1386 C 0.73263 0.84555 0.66089 0.0
C1387 C 0.73532 0.81283 0.69015 0.0
C1388 C 0.74269 0.82141 0.73404 0.0
C1389 C 0.74991 0.86421 0.74811 0.0
C1390 C 0.75167 0.89759 0.71801 0.0
C1391 C 0.73973 0.88857 0.67467 0.0
H1392 H 0.49019 0.38063 0.73448 0.0
H1393 H 0.53704 0.45442 0.62526 0.0
H1394 H 0.46704 0.43885 0.58796 0.0
H1395 H 0.42948 0.29787 0.67608 0.0
H1396 H 0.38623 0.29442 0.71486 0.0
H1397 H 0.43992 0.3117 0.73213 0.0
H1398 H 0.4111 0.38185 0.76502 0.0
H1399 H 0.3573 0.365 0.74737 0.0
H1400 H 0.38149 0.41628 0.73139 0.0
H1401 H 0.39224 0.41132 0.56117 0.0
H1402 H 0.32049 0.37301 0.54775 0.0
H1403 H 0.32254 0.32329 0.67698 0.0
C1404 C 0.48585 0.3932 0.70257 0.0
C1405 C 0.51902 0.41829 0.68244 0.0
C1406 C 0.51193 0.43489 0.64104 0.0
C1407 C 0.47228 0.42638 0.61973 0.0
C1408 C 0.43992 0.4019 0.64069 0.0
C1409 C 0.44633 0.38571 0.6813 0.0
C1410 C 0.40657 0.36049 0.6971 0.0
C1411 C 0.41613 0.31335 0.70549 0.0
C1412 C 0.38803 0.38221 0.7376 0.0
C1413 C 0.37724 0.36394 0.65851 0.0
C1414 C 0.39672 0.38802 0.62624 0.0
C1415 C 0.37639 0.39291 0.58645 0.0
C1416 C 0.33567 0.37144 0.57911 0.0
C1417 C 0.3162 0.34576 0.61153 0.0
C1418 C 0.33672 0.34331 0.65198 0.0
H1419 H 0.7851 0.25971 0.00247 0.0
H1420 H 0.7863 0.35366 0.90217 0.0
H1421 H 0.73525 0.30602 0.85883 0.0
H1422 H 0.79438 0.17533 0.94727 0.0
H1423 H 0.75717 0.13757 0.97359 0.0
H1424 H 0.77898 0.18407 0.00269 0.0
H1425 H 0.70316 0.20798 0.01995 0.0
H1426 H 0.67985 0.16081 0.99168 0.0
H1427 H 0.66451 0.21366 0.97745 0.0
H1428 H 0.70602 0.24262 0.81926 0.0
H1429 H 0.71837 0.17217 0.78641 0.0
H1430 H 0.71878 0.11619 0.91253 0.0
C1431 C 0.77355 0.27041 0.97177 0.0
C1432 C 0.78984 0.30975 0.95486 0.0
C1433 C 0.7741 0.32341 0.9151 0.0
C1434 C 0.74463 0.29684 0.8908 0.0
C1435 C 0.72992 0.25735 0.90761 0.0
C1436 C 0.74326 0.24457 0.94776 0.0
C1437 C 0.72902 0.19798 0.95536 0.0
C1438 C 0.76712 0.17223 0.97044 0.0
C1439 C 0.69187 0.19493 0.98803 0.0
C1440 C 0.71275 0.18452 0.91056 0.0
C1441 C 0.71071 0.2199 0.8843 0.0
C1442 C 0.70704 0.21489 0.83953 0.0
C1443 C 0.71296 0.17422 0.82086 0.0
C1444 C 0.7209 0.13912 0.84726 0.0
C1445 C 0.71351 0.14311 0.89207 0.0
H1446 H 0.04837 0.56114 0.20992 0.0
H1447 H 0.95842 0.64086 0.14759 0.0
H1448 H 0.01179 0.65661 0.0898 0.0
H1449 H 0.13815 0.63325 0.19398 0.0
H1450 H 0.17536 0.59115 0.18819 0.0
H1451 H 0.12702 0.5821 0.21913 0.0
H1452 H 0.10961 0.51434 0.17122 0.0
H1453 H 0.15526 0.52526 0.13632 0.0
H1454 H 0.10135 0.51949 0.11416 0.0
H1455 H 0.07498 0.66778 0.04259 0.0
H1456 H 0.14894 0.69428 0.02483 0.0
H1457 H 0.1996 0.60874 0.11742 0.0
C1458 C 0.03999 0.58152 0.18372 0.0
C1459 C -0.00031 0.59978 0.18261 0.0
C1460 C 0.98952 0.62688 0.14866 0.0
C1461 C 0.01914 0.63509 0.11532 0.0
C1462 C 0.05854 0.61582 0.1166 0.0
C1463 C 0.06955 0.59083 0.15077 0.0
C1464 C 0.1165 0.58063 0.14889 0.0
C1465 C 0.14066 0.59785 0.18993 0.0
C1466 C 0.12099 0.53203 0.14222 0.0
C1467 C 0.13073 0.60523 0.10916 0.0
C1468 C 0.09627 0.62372 0.08995 0.0
C1469 C 0.10212 0.65295 0.05674 0.0
C1470 C 0.1443 0.6673 0.04617 0.0
C1471 C 0.17955 0.65311 0.06964 0.0
C1472 C 0.17299 0.61873 0.09818 0.0
H1473 H 0.75536 0.71928 0.3885 0.0
H1474 H 0.84336 0.7598 0.49177 0.0
H1475 H 0.871 0.82187 0.44886 0.0
H1476 H 0.83001 0.75971 0.29597 0.0
H1477 H 0.78279 0.77252 0.26626 0.0
H1478 H 0.78074 0.72764 0.30265 0.0
H1479 H 0.71511 0.76105 0.34103 0.0
H1480 H 0.71943 0.80576 0.30581 0.0
H1481 H 0.72255 0.815 0.36347 0.0
H1482 H 0.87255 0.88829 0.40466 0.0
H1483 H 0.84849 0.94991 0.3636 0.0
H1484 H 0.76753 0.86252 0.284 0.0
C1485 C 0.78161 0.74042 0.40108 0.0
C1486 C 0.79772 0.73501 0.44278 0.0
C1487 C 0.8313 0.76344 0.45932 0.0
C1488 C 0.84718 0.7986 0.43515 0.0
C1489 C 0.82972 0.804 0.39425 0.0
C1490 C 0.79824 0.77507 0.37707 0.0
C1491 C 0.78111 0.79031 0.33492 0.0
C1492 C 0.79444 0.76087 0.29756 0.0
C1493 C 0.73168 0.79323 0.33646 0.0
C1494 C 0.80463 0.83418 0.33292 0.0
C1495 C 0.83331 0.84138 0.36695 0.0
C1496 C 0.85169 0.88258 0.37686 0.0
C1497 C 0.83828 0.91742 0.35327 0.0
C1498 C 0.80723 0.9106 0.32009 0.0
C1499 C 0.79276 0.86822 0.30799 0.0
H1500 H 0.86374 0.5546 0.62502 0.0
H1501 H 0.8856 0.52441 0.49021 0.0
H1502 H 0.93591 0.46933 0.51089 0.0
H1503 H 0.97638 0.53989 0.66493 0.0
H1504 H 0.95414 0.51901 0.71419 0.0
H1505 H 0.92604 0.55826 0.68519 0.0
H1506 H 0.85837 0.50145 0.68615 0.0
H1507 H 0.89012 0.46353 0.71227 0.0
H1508 H 0.86376 0.44901 0.66171 0.0
H1509 H 0.97364 0.40891 0.54834 0.0
H1510 H 0.99852 0.35423 0.59858 0.0
H1511 H 0.96145 0.43376 0.70722 0.0
C1512 C 0.87949 0.53666 0.60008 0.0
C1513 C 0.87056 0.54315 0.55634 0.0
C1514 C 0.89204 0.51961 0.52407 0.0
C1515 C 0.92081 0.48853 0.53552 0.0
C1516 C 0.92885 0.48277 0.57928 0.0
C1517 C 0.9093 0.5069 0.61101 0.0
C1518 C 0.92124 0.49333 0.65571 0.0
C1519 C 0.94583 0.52987 0.68147 0.0
C1520 C 0.88102 0.47581 0.68035 0.0
C1521 C 0.95038 0.45779 0.64432 0.0
C1522 C 0.9539 0.45122 0.60021 0.0
C1523 C 0.97267 0.41484 0.58289 0.0
C1524 C 0.98707 0.38414 0.61148 0.0
C1525 C 0.9826 0.39056 0.65654 0.0
C1526 C 0.96637 0.42895 0.67283 0.0
H1527 H 0.37253 0.96048 0.48717 0.0
H1528 H 0.24978 0.01509 0.51373 0.0
H1529 H 0.28191 0.08759 0.49876 0.0
H1530 H 0.44356 0.05172 0.52732 0.0
H1531 H 0.48165 0.0473 0.48378 0.0
H1532 H 0.45144 -0.0001 0.50216 0.0
H1533 H 0.42194 0.98295 0.42485 0.0
H1534 H 0.45331 0.02916 0.40598 0.0
H1535 H 0.39594 0.02412 0.39634 0.0
H1536 H 0.32576 0.15315 0.47886 0.0
H1537 H 0.37259 0.20479 0.43843 0.0
H1538 H 0.46529 0.10729 0.41891 0.0
C1539 C 0.35262 0.98783 0.48993 0.0
C1540 C 0.30882 0.98243 0.50179 0.0
C1541 C 0.28338 0.01865 0.50448 0.0
C1542 C 0.30152 0.06 0.49672 0.0
C1543 C 0.345 0.06444 0.48575 0.0
C1544 C 0.36997 0.02927 0.48118 0.0
C1545 C 0.41406 0.04223 0.46318 0.0
C1546 C 0.44979 0.03484 0.49608 0.0
C1547 C 0.42173 0.01822 0.42003 0.0
C1548 C 0.40934 0.08989 0.45698 0.0
C1549 C 0.36986 0.10227 0.4718 0.0
C1550 C 0.35684 0.14397 0.46723 0.0
C1551 C 0.38365 0.17307 0.44432 0.0
C1552 C 0.42235 0.15988 0.42539 0.0
C1553 C 0.43634 0.11851 0.43376 0.0
H1554 H 0.29191 0.06158 0.75947 0.0
H1555 H 0.32183 0.12028 0.88481 0.0
H1556 H 0.24387 0.13223 0.8958 0.0
H1557 H 0.23402 0.13705 0.73349 0.0
H1558 H 0.19296 0.10985 0.70165 0.0
H1559 H 0.2449 0.08783 0.7046 0.0
H1560 H 0.21886 0.01586 0.73627 0.0
H1561 H 0.16487 0.03074 0.7253 0.0
H1562 H 0.1789 0.01403 0.77854 0.0
H1563 H 0.16415 0.15095 0.8842 0.0
H1564 H 0.09774 0.1762 0.85129 0.0
H1565 H 0.12638 0.10591 0.73309 0.0
C1566 C 0.28201 0.07595 0.78984 0.0
C1567 C 0.31254 0.09071 0.82092 0.0
C1568 C 0.29856 0.10911 0.86036 0.0
C1569 C 0.25433 0.11533 0.86709 0.0
C1570 C 0.22487 0.10188 0.83448 0.0
C1571 C 0.23861 0.08189 0.79692 0.0
C1572 C 0.20444 0.07901 0.7626 0.0
C1573 C 0.22015 0.10478 0.72319 0.0
C1574 C 0.19093 0.03207 0.75 0.0
C1575 C 0.16888 0.10059 0.78587 0.0
C1576 C 0.18057 0.11359 0.82742 0.0
C1577 C 0.1546 0.14001 0.85198 0.0
C1578 C 0.11707 0.15463 0.83278 0.0
C1579 C 0.10648 0.14377 0.78904 0.0
C1580 C 0.13187 0.1144 0.76674 0.0
H1581 H 0.09909 0.05615 0.97708 0.0
H1582 H 0.17654 0.96533 0.04103 0.0
H1583 H 0.1369 0.90498 0.00107 0.0
H1584 H 0.99538 0.99038 0.96234 0.0
H1585 H 0.98973 0.0121 0.90966 0.0
H1586 H 0.01806 0.04378 0.95137 0.0
H1587 H 0.08306 0.0517 0.89696 0.0
H1588 H 0.05389 0.01745 0.85807 0.0
H1589 H 0.10632 0.00366 0.87619 0.0
H1590 H 0.09216 0.85586 0.95114 0.0
H1591 H 0.05963 0.82347 0.88455 0.0
H1592 H 0.01318 0.94707 0.8514 0.0
C1593 C 0.10682 0.02339 0.9835 0.0
C1594 C 0.13994 0.0149 0.01268 0.0
C1595 C 0.15083 0.97208 0.019 0.0
C1596 C 0.12835 0.93781 0.99671 0.0
C1597 C 0.09567 0.9473 0.96803 0.0
C1598 C 0.08551 0.98919 0.96084 0.0
C1599 C 0.05443 0.99163 0.92346 0.0
C1600 C 0.01196 0.01061 0.93765 0.0
C1601 C 0.0757 0.0176 0.88651 0.0
C1602 C 0.04775 0.94431 0.91132 0.0
C1603 C 0.07119 0.9192 0.93788 0.0
C1604 C 0.07336 0.87505 0.93038 0.0
C1605 C 0.0541 0.85674 0.8928 0.0
C1606 C 0.03364 0.88282 0.8631 0.0
C1607 C 0.02781 0.92636 0.87413 0.0
H1608 H 0.70543 0.35946 0.72543 0.0
H1609 H 0.72069 0.44187 0.83982 0.0
H1610 H 0.79103 0.41166 0.85445 0.0
H1611 H 0.76233 0.26148 0.77216 0.0
H1612 H 0.77755 0.25149 0.71699 0.0
H1613 H 0.7276 0.27603 0.72924 0.0
H1614 H 0.75967 0.33561 0.67464 0.0
H1615 H 0.81126 0.31258 0.6725 0.0
H1616 H 0.8076 0.36753 0.69115 0.0
H1617 H 0.86304 0.37703 0.85198 0.0
H1618 H 0.93232 0.35083 0.82578 0.0
H1619 H 0.86617 0.28574 0.71765 0.0
C1620 C 0.72275 0.36987 0.75456 0.0
C1621 C 0.7074 0.40238 0.78195 0.0
C1622 C 0.73154 0.41623 0.81898 0.0
C1623 C 0.77131 0.39893 0.82775 0.0
C1624 C 0.78524 0.36614 0.80051 0.0
C1625 C 0.7613 0.35147 0.76488 0.0
C1626 C 0.78501 0.31933 0.738 0.0
C1627 C 0.76174 0.2744 0.73908 0.0
C1628 C 0.79126 0.33471 0.69135 0.0
C1629 C 0.82714 0.32002 0.76244 0.0
C1630 C 0.82646 0.34628 0.79912 0.0
C1631 C 0.86355 0.35557 0.82397 0.0
C1632 C 0.9027 0.33999 0.8093 0.0
C1633 C 0.9042 0.31564 0.7702 0.0
C1634 C 0.86547 0.3032 0.74832 0.0
H1635 H 0.75196 0.55038 0.02094 0.0
H1636 H 0.70632 0.44192 0.09699 0.0
H1637 H 0.63642 0.47476 0.10791 0.0
H1638 H 0.70756 0.62941 0.08923 0.0
H1639 H 0.69539 0.66407 0.0456 0.0
H1640 H 0.73869 0.62862 0.0401 0.0
H1641 H 0.70252 0.59664 0.96961 0.0
H1642 H 0.65817 0.631 0.97658 0.0
H1643 H 0.64793 0.57343 0.97145 0.0
H1644 H 0.57336 0.52025 0.11342 0.0
H1645 H 0.53123 0.583 0.13123 0.0
H1646 H 0.61783 0.66358 0.054 0.0
C1647 C 0.72716 0.5339 0.04004 0.0
C1648 C 0.73428 0.49412 0.05877 0.0
C1649 C 0.70144 0.47301 0.08337 0.0
C1650 C 0.66143 0.49094 0.08888 0.0
C1651 C 0.65491 0.53002 0.06952 0.0
C1652 C 0.68729 0.55186 0.04662 0.0
C1653 C 0.67414 0.59604 0.03433 0.0
C1654 C 0.70578 0.63161 0.05349 0.0
C1655 C 0.67048 0.59945 0.98506 0.0
C1656 C 0.6301 0.59628 0.05543 0.0
C1657 C 0.61883 0.55716 0.07395 0.0
C1658 C 0.58155 0.55088 0.09871 0.0
C1659 C 0.55733 0.58653 0.10813 0.0
C1660 C 0.57124 0.62778 0.09357 0.0
C1661 C 0.60604 0.632 0.06435 0.0
H1662 H 0.32294 0.9367 0.80036 0.0
H1663 H 0.33795 0.98097 0.66947 0.0
H1664 H 0.26124 0.95903 0.6544 0.0
H1665 H 0.25183 0.84008 0.76888 0.0
H1666 H 0.2217 0.84324 0.81847 0.0
H1667 H 0.27786 0.86135 0.81759 0.0
H1668 H 0.2586 0.93509 0.84913 0.0
H1669 H 0.20203 0.91881 0.84901 0.0
H1670 H 0.22109 0.96637 0.82098 0.0
H1671 H 0.1791 0.94187 0.6587 0.0
H1672 H 0.10397 0.91457 0.67559 0.0
H1673 H 0.14747 0.87553 0.80082 0.0
C1674 C 0.31046 0.9404 0.76816 0.0
C1675 C 0.33628 0.95991 0.73597 0.0
C1676 C 0.31866 0.96537 0.69439 0.0
C1677 C 0.27515 0.9532 0.68559 0.0
C1678 C 0.25032 0.93437 0.71835 0.0
C1679 C 0.26786 0.92676 0.75835 0.0
C1680 C 0.23492 0.90546 0.78793 0.0
C1681 C 0.2473 0.8598 0.79881 0.0
C1682 C 0.22878 0.93309 0.82916 0.0
C1683 C 0.19562 0.90408 0.75914 0.0
C1684 C 0.20465 0.92126 0.71927 0.0
C1685 C 0.17204 0.92638 0.68895 0.0
C1686 C 0.12957 0.91129 0.69883 0.0
C1687 C 0.12049 0.89266 0.73916 0.0
C1688 C 0.15391 0.88933 0.7695 0.0
H1689 H 0.23634 0.09076 0.22071 0.0
H1690 H 0.168 0.20514 0.24986 0.0
H1691 H 0.23716 0.24854 0.25347 0.0
H1692 H 0.3169 0.10812 0.29279 0.0
H1693 H 0.35915 0.0882 0.25924 0.0
H1694 H 0.30426 0.06935 0.24967 0.0
H1695 H 0.3104 0.09444 0.17005 0.0
H1696 H 0.36599 0.11226 0.18036 0.0
H1697 H 0.32906 0.14909 0.15933 0.0
H1698 H 0.31181 0.27543 0.27057 0.0
H1699 H 0.38449 0.28157 0.3033 0.0
H1700 H 0.40622 0.15174 0.25952 0.0
C1701 C 0.23598 0.12509 0.2274 0.0
C1702 C 0.19684 0.14475 0.23508 0.0
C1703 C 0.19756 0.18955 0.24403 0.0
C1704 C 0.23671 0.21443 0.24597 0.0
C1705 C 0.27484 0.19408 0.23858 0.0
C1706 C 0.27476 0.15037 0.22932 0.0
C1707 C 0.3201 0.13522 0.22793 0.0
C1708 C 0.32538 0.09811 0.2593 0.0
C1709 C 0.33215 0.12197 0.18164 0.0
C1710 C 0.3454 0.17628 0.24223 0.0
C1711 C 0.31889 0.2104 0.24646 0.0
C1712 C 0.33333 0.24962 0.26586 0.0
C1713 C 0.3748 0.25308 0.28402 0.0
C1714 C 0.40104 0.21756 0.2825 0.0
C1715 C 0.38726 0.17985 0.25905 0.0
loop_
_geom_bond_atom_site_label_1
_geom_bond_atom_site_label_2
_geom_bond_distance
_geom_bond_site_symmetry_2
_ccdc_geom_bond_type
Co0 O1 2.216 . S
Co0 O2 2.091 . S
Co0 O4 2.004 1_455 S
Co0 O10 2.021 1_455 S
Co0 O12 2.137 . S
Co0 O13 2.244 . S
O1 Co0 2.216 . S
O1 C8 1.247 . S
O2 Co0 2.091 . S
O2 C8 1.261 . S
C3 O12 1.247 . S
C3 O13 1.272 . S
O4 Co0 2.004 1_655 S
O4 C9 1.259 . S
Co5 O6 2.061 1_455 S
Co5 O11 2.052 1_455 S
Co5 O13 2.135 . S
O6 Co5 2.061 1_655 S
O6 C9 1.235 . S
C7 O10 1.238 . S
C7 O11 1.241 . S
C8 O1 1.247 . S
C8 O2 1.261 . S
C9 O4 1.259 . S
C9 O6 1.235 . S
O10 Co0 2.021 1_655 S
O10 C7 1.238 . S
O11 Co5 2.052 1_655 S
O11 C7 1.241 . S
O12 Co0 2.137 . S
O12 C3 1.247 . S
O13 Co0 2.244 . S
O13 C3 1.272 . S
O13 Co5 2.135 . S
Co14 O15 2.216 . S
Co14 O16 2.091 1_455 S
Co14 O18 2.004 1_455 S
Co14 O24 2.021 1_455 S
Co14 O26 2.137 . S
Co14 O27 2.244 . S
O15 Co14 2.216 . S
O15 C22 1.247 . S
O16 Co14 2.091 1_655 S
O16 C22 1.261 1_655 S
C17 O26 1.247 . S
C17 O27 1.272 . S
O18 Co14 2.004 1_655 S
O18 C23 1.259 . S
Co19 O20 2.061 1_455 S
Co19 O25 2.052 1_455 S
Co19 O27 2.135 . S
O20 Co19 2.061 1_655 S
O20 C23 1.235 . S
C21 O24 1.238 . S
C21 O25 1.241 . S
C22 O15 1.247 . S
C22 O16 1.261 1_455 S
C23 O18 1.259 . S
C23 O20 1.235 . S
O24 Co14 2.021 1_655 S
O24 C21 1.238 . S
O25 Co19 2.052 1_655 S
O25 C21 1.241 . S
O26 Co14 2.137 . S
O26 C17 1.247 . S
O27 Co14 2.244 . S
O27 C17 1.272 . S
O27 Co19 2.135 . S
Co28 O29 2.216 . S
Co28 O30 2.091 . S
Co28 O32 2.004 . S
Co28 O38 2.021 . S
Co28 O40 2.137 . S
Co28 O41 2.244 . S
O29 Co28 2.216 . S
O29 C36 1.247 . S
O30 Co28 2.091 . S
O30 C36 1.261 . S
C31 O40 1.247 . S
C31 O41 1.272 . S
O32 Co28 2.004 . S
O32 C37 1.259 . S
Co33 O34 2.061 . S
Co33 O39 2.052 . S
Co33 O41 2.135 . S
O34 Co33 2.061 . S
O34 C37 1.235 . S
C35 O38 1.238 . S
C35 O39 1.241 . S
C36 O29 1.247 . S
C36 O30 1.261 . S
C37 O32 1.259 . S
C37 O34 1.235 . S
O38 Co28 2.021 . S
O38 C35 1.238 . S
O39 Co33 2.052 . S
O39 C35 1.241 . S
O40 Co28 2.137 . S
O40 C31 1.247 . S
O41 Co28 2.244 . S
O41 C31 1.272 . S
O41 Co33 2.135 . S
Co42 O43 2.216 . S
Co42 O44 2.091 . S
Co42 O46 2.004 . S
Co42 O52 2.021 . S
Co42 O54 2.137 . S
Co42 O55 2.244 . S
O43 Co42 2.216 . S
O43 C50 1.247 . S
O44 Co42 2.091 . S
O44 C50 1.261 . S
C45 O54 1.247 . S
C45 O55 1.272 . S
O46 Co42 2.004 . S
O46 C51 1.259 . S
Co47 O48 2.061 . S
Co47 O53 2.052 . S
Co47 O55 2.135 . S
O48 Co47 2.061 . S
O48 C51 1.235 . S
C49 O52 1.238 . S
C49 O53 1.241 . S
C50 O43 1.247 . S
C50 O44 1.261 . S
C51 O46 1.259 . S
C51 O48 1.235 . S
O52 Co42 2.021 . S
O52 C49 1.238 . S
O53 Co47 2.052 . S
O53 C49 1.241 . S
O54 Co42 2.137 . S
O54 C45 1.247 . S
O55 Co42 2.244 . S
O55 C45 1.272 . S
O55 Co47 2.135 . S
Co56 O57 2.216 . S
Co56 O58 2.091 . S
Co56 O60 2.004 1_565 S
Co56 O66 2.021 1_565 S
Co56 O68 2.137 . S
Co56 O69 2.244 1_565 S
O57 Co56 2.216 . S
O57 C64 1.247 . S
O58 Co56 2.091 . S
O58 C64 1.261 . S
C59 O68 1.247 . S
C59 O69 1.272 1_565 S
O60 Co56 2.004 1_545 S
O60 C65 1.259 . S
Co61 O62 2.061 . S
Co61 O67 2.052 . S
Co61 O69 2.135 . S
O62 Co61 2.061 . S
O62 C65 1.235 . S
C63 O66 1.238 . S
C63 O67 1.241 . S
C64 O57 1.247 . S
C64 O58 1.261 . S
C65 O60 1.259 . S
C65 O62 1.235 . S
O66 Co56 2.021 1_545 S
O66 C63 1.238 . S
O67 Co61 2.052 . S
O67 C63 1.241 . S
O68 Co56 2.137 . S
O68 C59 1.247 . S
O69 Co56 2.244 1_545 S
O69 C59 1.272 1_545 S
O69 Co61 2.135 . S
Co70 O71 2.216 . S
Co70 O72 2.091 . S
Co70 O74 2.004 . S
Co70 O80 2.021 . S
Co70 O82 2.137 . S
Co70 O83 2.244 . S
O71 Co70 2.216 . S
O71 C78 1.247 . S
O72 Co70 2.091 . S
O72 C78 1.261 . S
C73 O82 1.247 . S
C73 O83 1.272 . S
O74 Co70 2.004 . S
O74 C79 1.259 . S
Co75 O76 2.061 . S
Co75 O81 2.052 . S
Co75 O83 2.135 . S
O76 Co75 2.061 . S
O76 C79 1.235 . S
C77 O80 1.238 . S
C77 O81 1.241 . S
C78 O71 1.247 . S
C78 O72 1.261 . S
C79 O74 1.259 . S
C79 O76 1.235 . S
O80 Co70 2.021 . S
O80 C77 1.238 . S
O81 Co75 2.052 . S
O81 C77 1.241 . S
O82 Co70 2.137 . S
O82 C73 1.247 . S
O83 Co70 2.244 . S
O83 C73 1.272 . S
O83 Co75 2.135 . S
Co84 O85 2.216 . S
Co84 O86 2.091 . S
Co84 O88 2.004 . S
Co84 O94 2.021 . S
Co84 O96 2.137 . S
Co84 O97 2.244 . S
O85 Co84 2.216 . S
O85 C92 1.247 . S
O86 Co84 2.091 . S
O86 C92 1.261 . S
C87 O96 1.247 . S
C87 O97 1.272 . S
O88 Co84 2.004 . S
O88 C93 1.259 . S
Co89 O90 2.061 . S
Co89 O95 2.052 . S
Co89 O97 2.135 1_565 S
O90 Co89 2.061 . S
O90 C93 1.235 1_565 S
C91 O94 1.238 1_565 S
C91 O95 1.241 . S
C92 O85 1.247 . S
C92 O86 1.261 . S
C93 O88 1.259 . S
C93 O90 1.235 1_545 S
O94 Co84 2.021 . S
O94 C91 1.238 1_545 S
O95 Co89 2.052 . S
O95 C91 1.241 . S
O96 Co84 2.137 . S
O96 C87 1.247 . S
O97 Co84 2.244 . S
O97 C87 1.272 . S
O97 Co89 2.135 1_545 S
Co98 O99 2.216 . S
Co98 O100 2.091 1_554 S
Co98 O102 2.004 1_554 S
Co98 O108 2.021 1_554 S
Co98 O110 2.137 . S
Co98 O111 2.244 . S
O99 Co98 2.216 . S
O99 C106 1.247 . S
O100 Co98 2.091 1_556 S
O100 C106 1.261 1_556 S
C101 O110 1.247 . S
C101 O111 1.272 . S
O102 Co98 2.004 1_556 S
O102 C107 1.259 . S
Co103 O104 2.061 1_554 S
Co103 O109 2.052 1_554 S
Co103 O111 2.135 . S
O104 Co103 2.061 1_556 S
O104 C107 1.235 . S
C105 O108 1.238 . S
C105 O109 1.241 . S
C106 O99 1.247 . S
C106 O100 1.261 1_554 S
C107 O102 1.259 . S
C107 O104 1.235 . S
O108 Co98 2.021 1_556 S
O108 C105 1.238 . S
O109 Co103 2.052 1_556 S
O109 C105 1.241 . S
O110 Co98 2.137 . S
O110 C101 1.247 . S
O111 Co98 2.244 . S
O111 C101 1.272 . S
O111 Co103 2.135 . S
Co112 O113 2.216 . S
Co112 O114 2.091 . S
Co112 O116 2.004 1_554 S
Co112 O122 2.021 1_554 S
Co112 O124 2.137 . S
Co112 O125 2.244 . S
O113 Co112 2.216 . S
O113 C120 1.247 . S
O114 Co112 2.091 . S
O114 C120 1.261 . S
C115 O124 1.247 . S
C115 O125 1.272 . S
O116 Co112 2.004 1_556 S
O116 C121 1.259 . S
Co117 O118 2.061 1_554 S
Co117 O123 2.052 . S
Co117 O125 2.135 . S
O118 Co117 2.061 1_556 S
O118 C121 1.235 . S
C119 O122 1.238 . S
C119 O123 1.241 1_556 S
C120 O113 1.247 . S
C120 O114 1.261 . S
C121 O116 1.259 . S
C121 O118 1.235 . S
O122 Co112 2.021 1_556 S
O122 C119 1.238 . S
O123 Co117 2.052 . S
O123 C119 1.241 1_554 S
O124 Co112 2.137 . S
O124 C115 1.247 . S
O125 Co112 2.244 . S
O125 C115 1.272 . S
O125 Co117 2.135 . S
Co126 O127 2.216 . S
Co126 O128 2.091 . S
Co126 O130 2.004 . S
Co126 O136 2.021 . S
Co126 O138 2.137 . S
Co126 O139 2.244 . S
O127 Co126 2.216 . S
O127 C134 1.247 . S
O128 Co126 2.091 . S
O128 C134 1.261 . S
C129 O138 1.247 . S
C129 O139 1.272 . S
O130 Co126 2.004 . S
O130 C135 1.259 . S
Co131 O132 2.061 . S
Co131 O137 2.052 . S
Co131 O139 2.135 . S
O132 Co131 2.061 . S
O132 C135 1.235 . S
C133 O136 1.238 . S
C133 O137 1.241 . S
C134 O127 1.247 . S
C134 O128 1.261 . S
C135 O130 1.259 . S
C135 O132 1.235 . S
O136 Co126 2.021 . S
O136 C133 1.238 . S
O137 Co131 2.052 . S
O137 C133 1.241 . S
O138 Co126 2.137 . S
O138 C129 1.247 . S
O139 Co126 2.244 . S
O139 C129 1.272 . S
O139 Co131 2.135 . S
Co140 O141 2.216 . S
Co140 O142 2.091 . S
Co140 O144 2.004 . S
Co140 O150 2.021 . S
Co140 O152 2.137 . S
Co140 O153 2.244 . S
O141 Co140 2.216 . S
O141 C148 1.247 . S
O142 Co140 2.091 . S
O142 C148 1.261 . S
C143 O152 1.247 . S
C143 O153 1.272 . S
O144 Co140 2.004 . S
O144 C149 1.259 . S
Co145 O146 2.061 . S
Co145 O151 2.052 . S
Co145 O153 2.135 . S
O146 Co145 2.061 . S
O146 C149 1.235 . S
C147 O150 1.238 . S
C147 O151 1.241 . S
C148 O141 1.247 . S
C148 O142 1.261 . S
C149 O144 1.259 . S
C149 O146 1.235 . S
O150 Co140 2.021 . S
O150 C147 1.238 . S
O151 Co145 2.052 . S
O151 C147 1.241 . S
O152 Co140 2.137 . S
O152 C143 1.247 . S
O153 Co140 2.244 . S
O153 C143 1.272 . S
O153 Co145 2.135 . S
Co154 O155 2.216 . S
Co154 O156 2.091 . S
Co154 O158 2.004 . S
Co154 O164 2.021 . S
Co154 O166 2.137 . S
Co154 O167 2.244 . S
O155 Co154 2.216 . S
O155 C162 1.247 . S
O156 Co154 2.091 . S
O156 C162 1.261 . S
C157 O166 1.247 . S
C157 O167 1.272 . S
O158 Co154 2.004 . S
O158 C163 1.259 . S
Co159 O160 2.061 . S
Co159 O165 2.052 . S
Co159 O167 2.135 . S
O160 Co159 2.061 . S
O160 C163 1.235 . S
C161 O164 1.238 . S
C161 O165 1.241 . S
C162 O155 1.247 . S
C162 O156 1.261 . S
C163 O158 1.259 . S
C163 O160 1.235 . S
O164 Co154 2.021 . S
O164 C161 1.238 . S
O165 Co159 2.052 . S
O165 C161 1.241 . S
O166 Co154 2.137 . S
O166 C157 1.247 . S
O167 Co154 2.244 . S
O167 C157 1.272 . S
O167 Co159 2.135 . S
H168 C176 0.930 . S
H169 C179 0.930 . S
H170 C181 0.930 . S
H171 C182 0.970 . S
H172 C182 0.970 . S
H173 C184 0.933 . S
H174 C186 0.930 . S
H175 C188 0.930 1_455 S
C176 H168 0.930 . S
C176 C177 1.382 . S
C176 C178 1.426 . S
C177 C176 1.382 . S
C177 C181 1.389 . S
C178 C176 1.426 . S
C178 C179 1.375 . S
C178 C182 1.532 . S
C179 H169 0.930 . S
C179 C178 1.375 . S
C179 C180 1.416 . S
C180 C179 1.416 . S
C180 C181 1.371 . S
C181 H170 0.930 . S
C181 C177 1.389 . S
C181 C180 1.371 . S
C182 H171 0.970 . S
C182 H172 0.970 . S
C182 C178 1.532 . S
C182 C183 1.499 . S
C183 C182 1.499 . S
C183 C184 1.370 1_455 S
C183 C188 1.415 1_455 S
C184 H173 0.933 . S
C184 C183 1.370 1_655 S
C184 C185 1.407 . S
C185 C184 1.407 . S
C185 C186 1.365 . S
C186 H174 0.930 . S
C186 C185 1.365 . S
C186 C187 1.393 . S
C187 C186 1.393 . S
C187 C188 1.387 . S
C188 H175 0.930 1_655 S
C188 C183 1.415 1_655 S
C188 C187 1.387 . S
H189 C197 0.930 . S
H190 C200 0.930 . S
H191 C202 0.930 . S
H192 C203 0.970 . S
H193 C203 0.970 . S
H194 C205 0.930 1_455 S
H195 C207 0.930 . S
H196 C209 0.930 1_455 S
C197 H189 0.930 . S
C197 C198 1.382 . S
C197 C199 1.426 . S
C198 C197 1.382 . S
C198 C202 1.389 . S
C199 C197 1.426 . S
C199 C200 1.375 . S
C199 C203 1.532 . S
C200 H190 0.930 . S
C200 C199 1.375 . S
C200 C201 1.416 . S
C201 C200 1.416 . S
C201 C202 1.371 . S
C202 H191 0.930 . S
C202 C198 1.389 . S
C202 C201 1.371 . S
C203 H192 0.970 . S
C203 H193 0.970 . S
C203 C199 1.532 . S
C203 C204 1.499 . S
C204 C203 1.499 . S
C204 C205 1.370 1_455 S
C204 C209 1.415 1_455 S
C205 H194 0.930 1_655 S
C205 C204 1.370 1_655 S
C205 C206 1.407 . S
C206 C205 1.407 . S
C206 C207 1.365 . S
C207 H195 0.930 . S
C207 C206 1.365 . S
C207 C208 1.393 . S
C208 C207 1.393 . S
C208 C209 1.387 . S
C209 H196 0.930 1_655 S
C209 C204 1.415 1_655 S
C209 C208 1.387 . S
H210 C218 0.930 . S
H211 C221 0.930 . S
H212 C223 0.930 . S
H213 C224 0.970 . S
H214 C224 0.970 . S
H215 C226 0.930 . S
H216 C228 0.930 . S
H217 C230 0.930 . S
C218 H210 0.930 . S
C218 C219 1.382 . S
C218 C220 1.426 . S
C219 C218 1.382 . S
C219 C223 1.389 . S
C220 C218 1.426 . S
C220 C221 1.375 . S
C220 C224 1.532 . S
C221 H211 0.930 . S
C221 C220 1.375 . S
C221 C222 1.416 . S
C222 C221 1.416 . S
C222 C223 1.371 . S
C223 H212 0.930 . S
C223 C219 1.389 . S
C223 C222 1.371 . S
C224 H213 0.970 . S
C224 H214 0.970 . S
C224 C220 1.532 . S
C224 C225 1.499 . S
C225 C224 1.499 . S
C225 C226 1.370 . S
C225 C230 1.415 . S
C226 H215 0.930 . S
C226 C225 1.370 . S
C226 C227 1.407 . S
C227 C226 1.407 . S
C227 C228 1.365 . S
C228 H216 0.930 . S
C228 C227 1.365 . S
C228 C229 1.393 . S
C229 C228 1.393 . S
C229 C230 1.387 . S
C230 H217 0.930 . S
C230 C225 1.415 . S
C230 C229 1.387 . S
H231 C239 0.930 . S
H232 C242 0.930 . S
H233 C244 0.930 . S
H234 C245 0.970 . S
H235 C245 0.970 . S
H236 C247 0.930 . S
H237 C249 0.930 . S
H238 C251 0.930 . S
C239 H231 0.930 . S
C239 C240 1.382 . S
C239 C241 1.426 . S
C240 C239 1.382 . S
C240 C244 1.389 . S
C241 C239 1.426 . S
C241 C242 1.375 . S
C241 C245 1.532 . S
C242 H232 0.930 . S
C242 C241 1.375 . S
C242 C243 1.416 . S
C243 C242 1.416 . S
C243 C244 1.371 . S
C244 H233 0.930 . S
C244 C240 1.389 . S
C244 C243 1.371 . S
C245 H234 0.970 . S
C245 H235 0.970 . S
C245 C241 1.532 . S
C245 C246 1.499 . S
C246 C245 1.499 . S
C246 C247 1.370 . S
C246 C251 1.415 . S
C247 H236 0.930 . S
C247 C246 1.370 . S
C247 C248 1.407 . S
C248 C247 1.407 . S
C248 C249 1.365 . S
C249 H237 0.930 . S
C249 C248 1.365 . S
C249 C250 1.393 . S
C250 C249 1.393 . S
C250 C251 1.387 . S
C251 H238 0.930 . S
C251 C246 1.415 . S
C251 C250 1.387 . S
H252 C260 0.930 . S
H253 C263 0.930 . S
H254 C265 0.930 . S
H255 C266 0.970 . S
H256 C266 0.970 . S
H257 C268 0.930 . S
H258 C270 0.930 . S
H259 C272 0.930 . S
C260 H252 0.930 . S
C260 C261 1.382 . S
C260 C262 1.426 . S
C261 C260 1.382 . S
C261 C265 1.389 . S
C262 C260 1.426 . S
C262 C263 1.375 . S
C262 C266 1.532 1_545 S
C263 H253 0.930 . S
C263 C262 1.375 . S
C263 C264 1.416 . S
C264 C263 1.416 . S
C264 C265 1.371 . S
C265 H254 0.930 . S
C265 C261 1.389 . S
C265 C264 1.371 . S
C266 H255 0.970 . S
C266 H256 0.970 . S
C266 C262 1.532 1_565 S
C266 C267 1.499 . S
C267 C266 1.499 . S
C267 C268 1.370 . S
C267 C272 1.415 . S
C268 H257 0.930 . S
C268 C267 1.370 . S
C268 C269 1.407 . S
C269 C268 1.407 . S
C269 C270 1.365 . S
C270 H258 0.930 . S
C270 C269 1.365 . S
C270 C271 1.393 . S
C271 C270 1.393 . S
C271 C272 1.387 . S
C272 H259 0.930 . S
C272 C267 1.415 . S
C272 C271 1.387 . S
H273 C281 0.930 . S
H274 C284 0.930 . S
H275 C286 0.930 . S
H276 C287 0.970 . S
H277 C287 0.970 . S
H278 C289 0.930 . S
H279 C291 0.930 . S
H280 C293 0.930 . S
C281 H273 0.930 . S
C281 C282 1.382 . S
C281 C283 1.426 . S
C282 C281 1.382 . S
C282 C286 1.389 . S
C283 C281 1.426 . S
C283 C284 1.375 . S
C283 C287 1.532 . S
C284 H274 0.930 . S
C284 C283 1.375 . S
C284 C285 1.416 . S
C285 C284 1.416 . S
C285 C286 1.371 . S
C286 H275 0.930 . S
C286 C282 1.389 . S
C286 C285 1.371 . S
C287 H276 0.970 . S
C287 H277 0.970 . S
C287 C283 1.532 . S
C287 C288 1.499 . S
C288 C287 1.499 . S
C288 C289 1.370 . S
C288 C293 1.415 . S
C289 H278 0.930 . S
C289 C288 1.370 . S
C289 C290 1.407 . S
C290 C289 1.407 . S
C290 C291 1.365 . S
C291 H279 0.930 . S
C291 C290 1.365 . S
C291 C292 1.393 . S
C292 C291 1.393 . S
C292 C293 1.387 . S
C293 H280 0.930 . S
C293 C288 1.415 . S
C293 C292 1.387 . S
H294 C302 0.930 . S
H295 C305 0.930 . S
H296 C307 0.930 . S
H297 C308 0.970 . S
H298 C308 0.970 . S
H299 C310 0.930 . S
H300 C312 0.930 . S
H301 C314 0.930 . S
C302 H294 0.930 . S
C302 C303 1.382 . S
C302 C304 1.426 1_565 S
C303 C302 1.382 . S
C303 C307 1.389 . S
C304 C302 1.426 1_545 S
C304 C305 1.375 1_545 S
C304 C308 1.532 . S
C305 H295 0.930 . S
C305 C304 1.375 1_565 S
C305 C306 1.416 . S
C306 C305 1.416 . S
C306 C307 1.371 . S
C307 H296 0.930 . S
C307 C303 1.389 . S
C307 C306 1.371 . S
C308 H297 0.970 . S
C308 H298 0.970 . S
C308 C304 1.532 . S
C308 C309 1.499 . S
C309 C308 1.499 . S
C309 C310 1.370 . S
C309 C314 1.415 . S
C310 H299 0.930 . S
C310 C309 1.370 . S
C310 C311 1.407 . S
C311 C310 1.407 . S
C311 C312 1.365 . S
C312 H300 0.930 . S
C312 C311 1.365 . S
C312 C313 1.393 . S
C313 C312 1.393 . S
C313 C314 1.387 . S
C314 H301 0.930 . S
C314 C309 1.415 . S
C314 C313 1.387 . S
H315 C323 0.930 . S
H316 C326 0.930 . S
H317 C328 0.930 . S
H318 C329 0.970 . S
H319 C329 0.970 . S
H320 C331 0.930 . S
H321 C333 0.930 . S
H322 C335 0.930 . S
C323 H315 0.930 . S
C323 C324 1.382 . S
C323 C325 1.426 . S
C324 C323 1.382 . S
C324 C328 1.389 . S
C325 C323 1.426 . S
C325 C326 1.375 . S
C325 C329 1.532 . S
C326 H316 0.930 . S
C326 C325 1.375 . S
C326 C327 1.416 . S
C327 C326 1.416 . S
C327 C328 1.371 . S
C328 H317 0.930 . S
C328 C324 1.389 . S
C328 C327 1.371 . S
C329 H318 0.970 . S
C329 H319 0.970 . S
C329 C325 1.532 . S
C329 C330 1.499 . S
C330 C329 1.499 . S
C330 C331 1.370 . S
C330 C335 1.415 . S
C331 H320 0.930 . S
C331 C330 1.370 . S
C331 C332 1.407 1_554 S
C332 C331 1.407 1_556 S
C332 C333 1.365 . S
C333 H321 0.930 . S
C333 C332 1.365 . S
C333 C334 1.393 . S
C334 C333 1.393 . S
C334 C335 1.387 1_556 S
C335 H322 0.930 . S
C335 C330 1.415 . S
C335 C334 1.387 1_554 S
H336 C344 0.930 . S
H337 C347 0.930 . S
H338 C349 0.930 . S
H339 C350 0.970 . S
H340 C350 0.970 . S
H341 C352 0.930 1_554 S
H342 C354 0.930 . S
H343 C356 0.930 . S
C344 H336 0.930 . S
C344 C345 1.382 . S
C344 C346 1.426 . S
C345 C344 1.382 . S
C345 C349 1.389 . S
C346 C344 1.426 . S
C346 C347 1.375 . S
C346 C350 1.532 . S
C347 H337 0.930 . S
C347 C346 1.375 . S
C347 C348 1.416 . S
C348 C347 1.416 . S
C348 C349 1.371 . S
C349 H338 0.930 . S
C349 C345 1.389 . S
C349 C348 1.371 . S
C350 H339 0.970 . S
C350 H340 0.970 . S
C350 C346 1.532 . S
C350 C351 1.499 . S
C351 C350 1.499 . S
C351 C352 1.370 1_554 S
C351 C356 1.415 . S
C352 H341 0.930 1_556 S
C352 C351 1.370 1_556 S
C352 C353 1.407 . S
C353 C352 1.407 . S
C353 C354 1.365 . S
C354 H342 0.930 . S
C354 C353 1.365 . S
C354 C355 1.393 . S
C355 C354 1.393 . S
C355 C356 1.387 1_556 S
C356 H343 0.930 . S
C356 C351 1.415 . S
C356 C355 1.387 1_554 S
H357 C365 0.930 . S
H358 C368 0.930 . S
H359 C370 0.930 . S
H360 C371 0.970 . S
H361 C371 0.970 . S
H362 C373 0.930 . S
H363 C375 0.930 . S
H364 C377 0.930 . S
C365 H357 0.930 . S
C365 C366 1.382 . S
C365 C367 1.426 . S
C366 C365 1.382 . S
C366 C370 1.389 . S
C367 C365 1.426 . S
C367 C368 1.375 . S
C367 C371 1.532 . S
C368 H358 0.930 . S
C368 C367 1.375 . S
C368 C369 1.416 . S
C369 C368 1.416 . S
C369 C370 1.371 . S
C370 H359 0.930 . S
C370 C366 1.389 . S
C370 C369 1.371 . S
C371 H360 0.970 . S
C371 H361 0.970 . S
C371 C367 1.532 . S
C371 C372 1.499 . S
C372 C371 1.499 . S
C372 C373 1.370 . S
C372 C377 1.415 . S
C373 H362 0.930 . S
C373 C372 1.370 . S
C373 C374 1.407 . S
C374 C373 1.407 . S
C374 C375 1.365 . S
C375 H363 0.930 . S
C375 C374 1.365 . S
C375 C376 1.393 . S
C376 C375 1.393 . S
C376 C377 1.387 . S
C377 H364 0.930 . S
C377 C372 1.415 . S
C377 C376 1.387 . S
H378 C386 0.930 . S
H379 C389 0.930 . S
H380 C391 0.930 . S
H381 C392 0.970 . S
H382 C392 0.970 . S
H383 C394 0.930 . S
H384 C396 0.930 . S
H385 C398 0.930 . S
C386 H378 0.930 . S
C386 C387 1.382 . S
C386 C388 1.426 . S
C387 C386 1.382 . S
C387 C391 1.389 . S
C388 C386 1.426 . S
C388 C389 1.375 . S
C388 C392 1.532 . S
C389 H379 0.930 . S
C389 C388 1.375 . S
C389 C390 1.416 . S
C390 C389 1.416 . S
C390 C391 1.371 . S
C391 H380 0.930 . S
C391 C387 1.389 . S
C391 C390 1.371 . S
C392 H381 0.970 . S
C392 H382 0.970 . S
C392 C388 1.532 . S
C392 C393 1.499 . S
C393 C392 1.499 . S
C393 C394 1.370 . S
C393 C398 1.415 . S
C394 H383 0.930 . S
C394 C393 1.370 . S
C394 C395 1.407 . S
C395 C394 1.407 . S
C395 C396 1.365 . S
C396 H384 0.930 . S
C396 C395 1.365 . S
C396 C397 1.393 . S
C397 C396 1.393 . S
C397 C398 1.387 . S
C398 H385 0.930 . S
C398 C393 1.415 . S
C398 C397 1.387 . S
H399 C407 0.930 . S
H400 C410 0.930 . S
H401 C412 0.930 . S
H402 C413 0.970 . S
H403 C413 0.970 . S
H404 C415 0.930 . S
H405 C417 0.930 . S
H406 C419 0.930 . S
C407 H399 0.930 . S
C407 C408 1.382 . S
C407 C409 1.426 . S
C408 C407 1.382 . S
C408 C412 1.389 . S
C409 C407 1.426 . S
C409 C410 1.375 . S
C409 C413 1.532 . S
C410 H400 0.930 . S
C410 C409 1.375 . S
C410 C411 1.416 . S
C411 C410 1.416 . S
C411 C412 1.371 . S
C412 H401 0.930 . S
C412 C408 1.389 . S
C412 C411 1.371 . S
C413 H402 0.970 . S
C413 H403 0.970 . S
C413 C409 1.532 . S
C413 C414 1.499 . S
C414 C413 1.499 . S
C414 C415 1.370 . S
C414 C419 1.415 . S
C415 H404 0.930 . S
C415 C414 1.370 . S
C415 C416 1.407 . S
C416 C415 1.407 . S
C416 C417 1.365 . S
C417 H405 0.930 . S
C417 C416 1.365 . S
C417 C418 1.393 . S
C418 C417 1.393 . S
C418 C419 1.387 . S
C419 H406 0.930 . S
C419 C414 1.415 . S
C419 C418 1.387 . S
H420 C432 0.930 . S
H421 C434 0.930 . S
H422 C435 0.930 . S
H423 C439 0.959 . S
H424 C439 0.959 . S
H425 C439 0.961 . S
H426 C440 0.960 . S
H427 C440 0.961 1_556 S
H428 C440 0.959 . S
H429 C443 0.929 . S
H430 C444 0.931 . S
H431 C446 0.930 . S
C432 H420 0.930 . S
C432 C433 1.399 . S
C432 C437 1.399 1_554 S
C433 C432 1.399 . S
C433 C434 1.376 . S
C434 H421 0.930 . S
C434 C433 1.376 . S
C434 C435 1.388 1_554 S
C435 H422 0.930 . S
C435 C434 1.388 1_556 S
C435 C436 1.390 . S
C436 C435 1.390 . S
C436 C437 1.394 . S
C436 C442 1.465 . S
C437 C432 1.399 1_556 S
C437 C436 1.394 . S
C437 C438 1.516 . S
C438 C437 1.516 . S
C438 C439 1.502 . S
C438 C440 1.561 1_556 S
C438 C441 1.526 . S
C439 H423 0.959 . S
C439 H424 0.959 . S
C439 H425 0.961 . S
C439 C438 1.502 . S
C440 H426 0.960 . S
C440 H427 0.961 1_554 S
C440 H428 0.959 . S
C440 C438 1.561 1_554 S
C441 C438 1.526 . S
C441 C442 1.396 . S
C441 C446 1.390 . S
C442 C436 1.465 . S
C442 C441 1.396 . S
C442 C443 1.399 . S
C443 H429 0.929 . S
C443 C442 1.399 . S
C443 C444 1.385 . S
C444 H430 0.931 . S
C444 C443 1.385 . S
C444 C445 1.389 . S
C445 C444 1.389 . S
C445 C446 1.387 . S
C446 H431 0.930 . S
C446 C441 1.390 . S
C446 C445 1.387 . S
H447 C459 0.930 . S
H448 C461 0.930 . S
H449 C462 0.930 . S
H450 C466 0.959 . S
H451 C466 0.959 . S
H452 C466 0.961 . S
H453 C467 0.960 . S
H454 C467 0.961 . S
H455 C467 0.959 . S
H456 C470 0.929 . S
H457 C471 0.931 . S
H458 C473 0.930 . S
C459 H447 0.930 . S
C459 C460 1.399 . S
C459 C464 1.399 . S
C460 C459 1.399 . S
C460 C461 1.376 . S
C461 H448 0.930 . S
C461 C460 1.376 . S
C461 C462 1.388 . S
C462 H449 0.930 . S
C462 C461 1.388 . S
C462 C463 1.390 . S
C463 C462 1.390 . S
C463 C464 1.394 . S
C463 C469 1.465 . S
C464 C459 1.399 . S
C464 C463 1.394 . S
C464 C465 1.516 . S
C465 C464 1.516 . S
C465 C466 1.502 . S
C465 C467 1.561 . S
C465 C468 1.526 . S
C466 H450 0.959 . S
C466 H451 0.959 . S
C466 H452 0.961 . S
C466 C465 1.502 . S
C467 H453 0.960 . S
C467 H454 0.961 . S
C467 H455 0.959 . S
C467 C465 1.561 . S
C468 C465 1.526 . S
C468 C469 1.396 . S
C468 C473 1.390 . S
C469 C463 1.465 . S
C469 C468 1.396 . S
C469 C470 1.399 . S
C470 H456 0.929 . S
C470 C469 1.399 . S
C470 C471 1.385 . S
C471 H457 0.931 . S
C471 C470 1.385 . S
C471 C472 1.389 . S
C472 C471 1.389 . S
C472 C473 1.387 . S
C473 H458 0.930 . S
C473 C468 1.390 . S
C473 C472 1.387 . S
H474 C486 0.930 . S
H475 C488 0.930 . S
H476 C489 0.930 . S
H477 C493 0.959 . S
H478 C493 0.959 . S
H479 C493 0.961 . S
H480 C494 0.960 . S
H481 C494 0.961 . S
H482 C494 0.959 . S
H483 C497 0.929 . S
H484 C498 0.931 . S
H485 C500 0.930 . S
C486 H474 0.930 . S
C486 C487 1.399 . S
C486 C491 1.399 . S
C487 C486 1.399 . S
C487 C488 1.376 . S
C488 H475 0.930 . S
C488 C487 1.376 . S
C488 C489 1.388 . S
C489 H476 0.930 . S
C489 C488 1.388 . S
C489 C490 1.390 . S
C490 C489 1.390 . S
C490 C491 1.394 . S
C490 C496 1.465 . S
C491 C486 1.399 . S
C491 C490 1.394 . S
C491 C492 1.516 . S
C492 C491 1.516 . S
C492 C493 1.502 . S
C492 C494 1.561 . S
C492 C495 1.526 . S
C493 H477 0.959 . S
C493 H478 0.959 . S
C493 H479 0.961 . S
C493 C492 1.502 . S
C494 H480 0.960 . S
C494 H481 0.961 . S
C494 H482 0.959 . S
C494 C492 1.561 . S
C495 C492 1.526 . S
C495 C496 1.396 . S
C495 C500 1.390 . S
C496 C490 1.465 . S
C496 C495 1.396 . S
C496 C497 1.399 . S
C497 H483 0.929 . S
C497 C496 1.399 . S
C497 C498 1.385 . S
C498 H484 0.931 . S
C498 C497 1.385 . S
C498 C499 1.389 . S
C499 C498 1.389 . S
C499 C500 1.387 . S
C500 H485 0.930 . S
C500 C495 1.390 . S
C500 C499 1.387 . S
H501 C513 0.930 . S
H502 C515 0.930 . S
H503 C516 0.930 . S
H504 C520 0.959 . S
H505 C520 0.959 . S
H506 C520 0.961 . S
H507 C521 0.960 . S
H508 C521 0.961 . S
H509 C521 0.959 . S
H510 C524 0.929 . S
H511 C525 0.931 . S
H512 C527 0.930 . S
C513 H501 0.930 . S
C513 C514 1.399 . S
C513 C518 1.399 . S
C514 C513 1.399 . S
C514 C515 1.376 . S
C515 H502 0.930 . S
C515 C514 1.376 . S
C515 C516 1.388 . S
C516 H503 0.930 . S
C516 C515 1.388 . S
C516 C517 1.390 . S
C517 C516 1.390 . S
C517 C518 1.394 . S
C517 C523 1.465 . S
C518 C513 1.399 . S
C518 C517 1.394 . S
C518 C519 1.516 . S
C519 C518 1.516 . S
C519 C520 1.502 . S
C519 C521 1.561 . S
C519 C522 1.526 . S
C520 H504 0.959 . S
C520 H505 0.959 . S
C520 H506 0.961 . S
C520 C519 1.502 . S
C521 H507 0.960 . S
C521 H508 0.961 . S
C521 H509 0.959 . S
C521 C519 1.561 . S
C522 C519 1.526 . S
C522 C523 1.396 . S
C522 C527 1.390 . S
C523 C517 1.465 . S
C523 C522 1.396 . S
C523 C524 1.399 . S
C524 H510 0.929 . S
C524 C523 1.399 . S
C524 C525 1.385 . S
C525 H511 0.931 . S
C525 C524 1.385 . S
C525 C526 1.389 . S
C526 C525 1.389 . S
C526 C527 1.387 . S
C527 H512 0.930 . S
C527 C522 1.390 . S
C527 C526 1.387 . S
H528 C540 0.930 . S
H529 C542 0.930 . S
H530 C543 0.930 . S
H531 C547 0.959 . S
H532 C547 0.959 . S
H533 C547 0.961 1_655 S
H534 C548 0.960 . S
H535 C548 0.961 . S
H536 C548 0.959 . S
H537 C551 0.929 . S
H538 C552 0.931 . S
H539 C554 0.930 . S
C540 H528 0.930 . S
C540 C541 1.399 . S
C540 C545 1.399 . S
C541 C540 1.399 . S
C541 C542 1.376 . S
C542 H529 0.930 . S
C542 C541 1.376 . S
C542 C543 1.388 . S
C543 H530 0.930 . S
C543 C542 1.388 . S
C543 C544 1.390 . S
C544 C543 1.390 . S
C544 C545 1.394 . S
C544 C550 1.465 . S
C545 C540 1.399 . S
C545 C544 1.394 . S
C545 C546 1.516 . S
C546 C545 1.516 . S
C546 C547 1.502 . S
C546 C548 1.561 . S
C546 C549 1.526 . S
C547 H531 0.959 . S
C547 H532 0.959 . S
C547 H533 0.961 1_455 S
C547 C546 1.502 . S
C548 H534 0.960 . S
C548 H535 0.961 . S
C548 H536 0.959 . S
C548 C546 1.561 . S
C549 C546 1.526 . S
C549 C550 1.396 . S
C549 C554 1.390 . S
C550 C544 1.465 . S
C550 C549 1.396 . S
C550 C551 1.399 . S
C551 H537 0.929 . S
C551 C550 1.399 . S
C551 C552 1.385 . S
C552 H538 0.931 . S
C552 C551 1.385 . S
C552 C553 1.389 . S
C553 C552 1.389 . S
C553 C554 1.387 . S
C554 H539 0.930 . S
C554 C549 1.390 . S
C554 C553 1.387 . S
H555 C567 0.930 . S
H556 C569 0.930 . S
H557 C570 0.930 . S
H558 C574 0.959 . S
H559 C574 0.959 . S
H560 C574 0.961 . S
H561 C575 0.960 . S
H562 C575 0.961 . S
H563 C575 0.959 . S
H564 C578 0.929 . S
H565 C579 0.931 . S
H566 C581 0.930 . S
C567 H555 0.930 . S
C567 C568 1.399 . S
C567 C572 1.399 . S
C568 C567 1.399 . S
C568 C569 1.376 . S
C569 H556 0.930 . S
C569 C568 1.376 . S
C569 C570 1.388 . S
C570 H557 0.930 . S
C570 C569 1.388 . S
C570 C571 1.390 . S
C571 C570 1.390 . S
C571 C572 1.394 . S
C571 C577 1.465 . S
C572 C567 1.399 . S
C572 C571 1.394 . S
C572 C573 1.516 . S
C573 C572 1.516 . S
C573 C574 1.502 . S
C573 C575 1.561 . S
C573 C576 1.526 . S
C574 H558 0.959 . S
C574 H559 0.959 . S
C574 H560 0.961 . S
C574 C573 1.502 . S
C575 H561 0.960 . S
C575 H562 0.961 . S
C575 H563 0.959 . S
C575 C573 1.561 . S
C576 C573 1.526 . S
C576 C577 1.396 . S
C576 C581 1.390 . S
C577 C571 1.465 . S
C577 C576 1.396 . S
C577 C578 1.399 . S
C578 H564 0.929 . S
C578 C577 1.399 . S
C578 C579 1.385 . S
C579 H565 0.931 . S
C579 C578 1.385 . S
C579 C580 1.389 . S
C580 C579 1.389 . S
C580 C581 1.387 . S
C581 H566 0.930 . S
C581 C576 1.390 . S
C581 C580 1.387 . S
H582 C594 0.930 . S
H583 C596 0.930 . S
H584 C597 0.930 . S
H585 C601 0.959 . S
H586 C601 0.959 . S
H587 C601 0.961 . S
H588 C602 0.960 . S
H589 C602 0.961 . S
H590 C602 0.959 . S
H591 C605 0.929 . S
H592 C606 0.931 . S
H593 C608 0.930 . S
C594 H582 0.930 . S
C594 C595 1.399 1_554 S
C594 C599 1.399 . S
C595 C594 1.399 1_556 S
C595 C596 1.376 . S
C596 H583 0.930 . S
C596 C595 1.376 . S
C596 C597 1.388 1_556 S
C597 H584 0.930 . S
C597 C596 1.388 1_554 S
C597 C598 1.390 . S
C598 C597 1.390 . S
C598 C599 1.394 . S
C598 C604 1.465 . S
C599 C594 1.399 . S
C599 C598 1.394 . S
C599 C600 1.516 . S
C600 C599 1.516 . S
C600 C601 1.502 . S
C600 C602 1.561 . S
C600 C603 1.526 . S
C601 H585 0.959 . S
C601 H586 0.959 . S
C601 H587 0.961 . S
C601 C600 1.502 . S
C602 H588 0.960 . S
C602 H589 0.961 . S
C602 H590 0.959 . S
C602 C600 1.561 . S
C603 C600 1.526 . S
C603 C604 1.396 . S
C603 C608 1.390 . S
C604 C598 1.465 . S
C604 C603 1.396 . S
C604 C605 1.399 . S
C605 H591 0.929 . S
C605 C604 1.399 . S
C605 C606 1.385 . S
C606 H592 0.931 . S
C606 C605 1.385 . S
C606 C607 1.389 . S
C607 C606 1.389 . S
C607 C608 1.387 . S
C608 H593 0.930 . S
C608 C603 1.390 . S
C608 C607 1.387 . S
H609 C621 0.930 . S
H610 C623 0.930 . S
H611 C624 0.930 . S
H612 C628 0.959 . S
H613 C628 0.959 . S
H614 C628 0.961 . S
H615 C629 0.960 . S
H616 C629 0.961 . S
H617 C629 0.959 . S
H618 C632 0.929 . S
H619 C633 0.931 . S
H620 C635 0.930 . S
C621 H609 0.930 . S
C621 C622 1.399 . S
C621 C626 1.399 . S
C622 C621 1.399 . S
C622 C623 1.376 . S
C623 H610 0.930 . S
C623 C622 1.376 . S
C623 C624 1.388 . S
C624 H611 0.930 . S
C624 C623 1.388 . S
C624 C625 1.390 . S
C625 C624 1.390 . S
C625 C626 1.394 . S
C625 C631 1.465 . S
C626 C621 1.399 . S
C626 C625 1.394 . S
C626 C627 1.516 . S
C627 C626 1.516 . S
C627 C628 1.502 . S
C627 C629 1.561 . S
C627 C630 1.526 . S
C628 H612 0.959 . S
C628 H613 0.959 . S
C628 H614 0.961 . S
C628 C627 1.502 . S
C629 H615 0.960 . S
C629 H616 0.961 . S
C629 H617 0.959 . S
C629 C627 1.561 . S
C630 C627 1.526 . S
C630 C631 1.396 . S
C630 C635 1.390 . S
C631 C625 1.465 . S
C631 C630 1.396 . S
C631 C632 1.399 . S
C632 H618 0.929 . S
C632 C631 1.399 . S
C632 C633 1.385 . S
C633 H619 0.931 . S
C633 C632 1.385 . S
C633 C634 1.389 . S
C634 C633 1.389 . S
C634 C635 1.387 . S
C635 H620 0.930 . S
C635 C630 1.390 . S
C635 C634 1.387 . S
H636 C648 0.930 . S
H637 C650 0.930 . S
H638 C651 0.930 . S
H639 C655 0.959 . S
H640 C655 0.959 . S
H641 C655 0.961 1_565 S
H642 C656 0.960 . S
H643 C656 0.961 . S
H644 C656 0.959 . S
H645 C659 0.929 . S
H646 C660 0.931 . S
H647 C662 0.930 . S
C648 H636 0.930 . S
C648 C649 1.399 . S
C648 C653 1.399 1_455 S
C649 C648 1.399 . S
C649 C650 1.376 . S
C650 H637 0.930 . S
C650 C649 1.376 . S
C650 C651 1.388 . S
C651 H638 0.930 . S
C651 C650 1.388 . S
C651 C652 1.390 1_455 S
C652 C651 1.390 1_655 S
C652 C653 1.394 . S
C652 C658 1.465 . S
C653 C648 1.399 1_655 S
C653 C652 1.394 . S
C653 C654 1.516 . S
C654 C653 1.516 . S
C654 C655 1.502 . S
C654 C656 1.561 . S
C654 C657 1.526 . S
C655 H639 0.959 . S
C655 H640 0.959 . S
C655 H641 0.961 1_545 S
C655 C654 1.502 . S
C656 H642 0.960 . S
C656 H643 0.961 . S
C656 H644 0.959 . S
C656 C654 1.561 . S
C657 C654 1.526 . S
C657 C658 1.396 . S
C657 C662 1.390 . S
C658 C652 1.465 . S
C658 C657 1.396 . S
C658 C659 1.399 . S
C659 H645 0.929 . S
C659 C658 1.399 . S
C659 C660 1.385 . S
C660 H646 0.931 . S
C660 C659 1.385 . S
C660 C661 1.389 . S
C661 C660 1.389 . S
C661 C662 1.387 . S
C662 H647 0.930 . S
C662 C657 1.390 . S
C662 C661 1.387 . S
H663 C675 0.930 . S
H664 C677 0.930 . S
H665 C678 0.930 . S
H666 C682 0.959 . S
H667 C682 0.959 . S
H668 C682 0.961 . S
H669 C683 0.960 . S
H670 C683 0.961 . S
H671 C683 0.959 . S
H672 C686 0.929 . S
H673 C687 0.931 . S
H674 C689 0.930 . S
C675 H663 0.930 . S
C675 C676 1.399 . S
C675 C680 1.399 . S
C676 C675 1.399 . S
C676 C677 1.376 . S
C677 H664 0.930 . S
C677 C676 1.376 . S
C677 C678 1.388 . S
C678 H665 0.930 . S
C678 C677 1.388 . S
C678 C679 1.390 . S
C679 C678 1.390 . S
C679 C680 1.394 . S
C679 C685 1.465 . S
C680 C675 1.399 . S
C680 C679 1.394 . S
C680 C681 1.516 . S
C681 C680 1.516 . S
C681 C682 1.502 . S
C681 C683 1.561 . S
C681 C684 1.526 . S
C682 H666 0.959 . S
C682 H667 0.959 . S
C682 H668 0.961 . S
C682 C681 1.502 . S
C683 H669 0.960 . S
C683 H670 0.961 . S
C683 H671 0.959 . S
C683 C681 1.561 . S
C684 C681 1.526 . S
C684 C685 1.396 . S
C684 C689 1.390 . S
C685 C679 1.465 . S
C685 C684 1.396 . S
C685 C686 1.399 . S
C686 H672 0.929 . S
C686 C685 1.399 . S
C686 C687 1.385 . S
C687 H673 0.931 . S
C687 C686 1.385 . S
C687 C688 1.389 . S
C688 C687 1.389 . S
C688 C689 1.387 . S
C689 H674 0.930 . S
C689 C684 1.390 . S
C689 C688 1.387 . S
H690 C702 0.930 . S
H691 C704 0.930 . S
H692 C705 0.930 . S
H693 C709 0.959 . S
H694 C709 0.959 . S
H695 C709 0.961 . S
H696 C710 0.960 . S
H697 C710 0.961 . S
H698 C710 0.959 . S
H699 C713 0.929 . S
H700 C714 0.931 . S
H701 C716 0.930 . S
C702 H690 0.930 . S
C702 C703 1.399 1_545 S
C702 C707 1.399 1_545 S
C703 C702 1.399 1_565 S
C703 C704 1.376 . S
C704 H691 0.930 . S
C704 C703 1.376 . S
C704 C705 1.388 . S
C705 H692 0.930 . S
C705 C704 1.388 . S
C705 C706 1.390 . S
C706 C705 1.390 . S
C706 C707 1.394 . S
C706 C712 1.465 . S
C707 C702 1.399 1_565 S
C707 C706 1.394 . S
C707 C708 1.516 . S
C708 C707 1.516 . S
C708 C709 1.502 1_565 S
C708 C710 1.561 1_565 S
C708 C711 1.526 . S
C709 H693 0.959 . S
C709 H694 0.959 . S
C709 H695 0.961 . S
C709 C708 1.502 1_545 S
C710 H696 0.960 . S
C710 H697 0.961 . S
C710 H698 0.959 . S
C710 C708 1.561 1_545 S
C711 C708 1.526 . S
C711 C712 1.396 . S
C711 C716 1.390 . S
C712 C706 1.465 . S
C712 C711 1.396 . S
C712 C713 1.399 . S
C713 H699 0.929 . S
C713 C712 1.399 . S
C713 C714 1.385 . S
C714 H700 0.931 . S
C714 C713 1.385 . S
C714 C715 1.389 . S
C715 C714 1.389 . S
C715 C716 1.387 . S
C716 H701 0.930 . S
C716 C711 1.390 . S
C716 C715 1.387 . S
H717 C729 0.930 . S
H718 C731 0.930 . S
H719 C732 0.930 . S
H720 C736 0.959 . S
H721 C736 0.959 . S
H722 C736 0.961 . S
H723 C737 0.960 . S
H724 C737 0.961 . S
H725 C737 0.959 . S
H726 C740 0.929 . S
H727 C741 0.931 . S
H728 C743 0.930 . S
C729 H717 0.930 . S
C729 C730 1.399 . S
C729 C734 1.399 . S
C730 C729 1.399 . S
C730 C731 1.376 . S
C731 H718 0.930 . S
C731 C730 1.376 . S
C731 C732 1.388 . S
C732 H719 0.930 . S
C732 C731 1.388 . S
C732 C733 1.390 . S
C733 C732 1.390 . S
C733 C734 1.394 . S
C733 C739 1.465 . S
C734 C729 1.399 . S
C734 C733 1.394 . S
C734 C735 1.516 . S
C735 C734 1.516 . S
C735 C736 1.502 . S
C735 C737 1.561 . S
C735 C738 1.526 . S
C736 H720 0.959 . S
C736 H721 0.959 . S
C736 H722 0.961 . S
C736 C735 1.502 . S
C737 H723 0.960 . S
C737 H724 0.961 . S
C737 H725 0.959 . S
C737 C735 1.561 . S
C738 C735 1.526 . S
C738 C739 1.396 . S
C738 C743 1.390 . S
C739 C733 1.465 . S
C739 C738 1.396 . S
C739 C740 1.399 . S
C740 H726 0.929 . S
C740 C739 1.399 . S
C740 C741 1.385 . S
C741 H727 0.931 . S
C741 C740 1.385 . S
C741 C742 1.389 . S
C742 C741 1.389 . S
C742 C743 1.387 . S
C743 H728 0.930 . S
C743 C738 1.390 . S
C743 C742 1.387 . S
H744 C756 0.930 . S
H745 C758 0.930 . S
H746 C759 0.930 . S
H747 C763 0.959 . S
H748 C763 0.959 . S
H749 C763 0.961 1_455 S
H750 C764 0.960 . S
H751 C764 0.961 . S
H752 C764 0.959 . S
H753 C767 0.929 . S
H754 C768 0.931 . S
H755 C770 0.930 . S
C756 H744 0.930 . S
C756 C757 1.399 . S
C756 C761 1.399 1_455 S
C757 C756 1.399 . S
C757 C758 1.376 1_565 S
C758 H745 0.930 . S
C758 C757 1.376 1_545 S
C758 C759 1.388 1_455 S
C759 H746 0.930 . S
C759 C758 1.388 1_655 S
C759 C760 1.390 1_545 S
C760 C759 1.390 1_565 S
C760 C761 1.394 . S
C760 C766 1.465 . S
C761 C756 1.399 1_655 S
C761 C760 1.394 . S
C761 C762 1.516 . S
C762 C761 1.516 . S
C762 C763 1.502 . S
C762 C764 1.561 . S
C762 C765 1.526 . S
C763 H747 0.959 . S
C763 H748 0.959 . S
C763 H749 0.961 1_655 S
C763 C762 1.502 . S
C764 H750 0.960 . S
C764 H751 0.961 . S
C764 H752 0.959 . S
C764 C762 1.561 . S
C765 C762 1.526 . S
C765 C766 1.396 . S
C765 C770 1.390 . S
C766 C760 1.465 . S
C766 C765 1.396 . S
C766 C767 1.399 . S
C767 H753 0.929 . S
C767 C766 1.399 . S
C767 C768 1.385 . S
C768 H754 0.931 . S
C768 C767 1.385 . S
C768 C769 1.389 . S
C769 C768 1.389 . S
C769 C770 1.387 . S
C770 H755 0.930 . S
C770 C765 1.390 . S
C770 C769 1.387 . S
H771 C783 0.930 . S
H772 C785 0.930 . S
H773 C786 0.930 . S
H774 C790 0.959 . S
H775 C790 0.959 . S
H776 C790 0.961 . S
H777 C791 0.960 . S
H778 C791 0.961 . S
H779 C791 0.959 . S
H780 C794 0.929 . S
H781 C795 0.931 . S
H782 C797 0.930 . S
C783 H771 0.930 . S
C783 C784 1.399 . S
C783 C788 1.399 . S
C784 C783 1.399 . S
C784 C785 1.376 . S
C785 H772 0.930 . S
C785 C784 1.376 . S
C785 C786 1.388 . S
C786 H773 0.930 . S
C786 C785 1.388 . S
C786 C787 1.390 . S
C787 C786 1.390 . S
C787 C788 1.394 . S
C787 C793 1.465 . S
C788 C783 1.399 . S
C788 C787 1.394 . S
C788 C789 1.516 . S
C789 C788 1.516 . S
C789 C790 1.502 . S
C789 C791 1.561 . S
C789 C792 1.526 . S
C790 H774 0.959 . S
C790 H775 0.959 . S
C790 H776 0.961 . S
C790 C789 1.502 . S
C791 H777 0.960 . S
C791 H778 0.961 . S
C791 H779 0.959 . S
C791 C789 1.561 . S
C792 C789 1.526 . S
C792 C793 1.396 . S
C792 C797 1.390 . S
C793 C787 1.465 . S
C793 C792 1.396 . S
C793 C794 1.399 . S
C794 H780 0.929 . S
C794 C793 1.399 . S
C794 C795 1.385 . S
C795 H781 0.931 . S
C795 C794 1.385 . S
C795 C796 1.389 . S
C796 C795 1.389 . S
C796 C797 1.387 . S
C797 H782 0.930 . S
C797 C792 1.390 . S
C797 C796 1.387 . S
H798 C810 0.930 . S
H799 C812 0.930 . S
H800 C813 0.930 . S
H801 C817 0.959 . S
H802 C817 0.959 . S
H803 C817 0.961 . S
H804 C818 0.960 . S
H805 C818 0.961 . S
H806 C818 0.959 . S
H807 C821 0.929 . S
H808 C822 0.931 . S
H809 C824 0.930 . S
C810 H798 0.930 . S
C810 C811 1.399 . S
C810 C815 1.399 . S
C811 C810 1.399 . S
C811 C812 1.376 . S
C812 H799 0.930 . S
C812 C811 1.376 . S
C812 C813 1.388 . S
C813 H800 0.930 . S
C813 C812 1.388 . S
C813 C814 1.390 . S
C814 C813 1.390 . S
C814 C815 1.394 . S
C814 C820 1.465 . S
C815 C810 1.399 . S
C815 C814 1.394 . S
C815 C816 1.516 . S
C816 C815 1.516 . S
C816 C817 1.502 . S
C816 C818 1.561 . S
C816 C819 1.526 . S
C817 H801 0.959 . S
C817 H802 0.959 . S
C817 H803 0.961 . S
C817 C816 1.502 . S
C818 H804 0.960 . S
C818 H805 0.961 . S
C818 H806 0.959 . S
C818 C816 1.561 . S
C819 C816 1.526 . S
C819 C820 1.396 . S
C819 C824 1.390 . S
C820 C814 1.465 . S
C820 C819 1.396 . S
C820 C821 1.399 . S
C821 H807 0.929 . S
C821 C820 1.399 . S
C821 C822 1.385 . S
C822 H808 0.931 . S
C822 C821 1.385 . S
C822 C823 1.389 . S
C823 C822 1.389 . S
C823 C824 1.387 . S
C824 H809 0.930 . S
C824 C819 1.390 . S
C824 C823 1.387 . S
H825 C837 0.930 . S
H826 C839 0.930 . S
H827 C840 0.930 . S
H828 C844 0.959 . S
H829 C844 0.959 . S
H830 C844 0.961 . S
H831 C845 0.960 . S
H832 C845 0.961 . S
H833 C845 0.959 . S
H834 C848 0.929 . S
H835 C849 0.931 . S
H836 C851 0.930 . S
C837 H825 0.930 . S
C837 C838 1.399 . S
C837 C842 1.399 . S
C838 C837 1.399 . S
C838 C839 1.376 . S
C839 H826 0.930 . S
C839 C838 1.376 . S
C839 C840 1.388 . S
C840 H827 0.930 . S
C840 C839 1.388 . S
C840 C841 1.390 . S
C841 C840 1.390 . S
C841 C842 1.394 . S
C841 C847 1.465 . S
C842 C837 1.399 . S
C842 C841 1.394 . S
C842 C843 1.516 . S
C843 C842 1.516 . S
C843 C844 1.502 . S
C843 C845 1.561 . S
C843 C846 1.526 . S
C844 H828 0.959 . S
C844 H829 0.959 . S
C844 H830 0.961 . S
C844 C843 1.502 . S
C845 H831 0.960 . S
C845 H832 0.961 . S
C845 H833 0.959 . S
C845 C843 1.561 . S
C846 C843 1.526 . S
C846 C847 1.396 . S
C846 C851 1.390 . S
C847 C841 1.465 . S
C847 C846 1.396 . S
C847 C848 1.399 . S
C848 H834 0.929 . S
C848 C847 1.399 . S
C848 C849 1.385 . S
C849 H835 0.931 . S
C849 C848 1.385 . S
C849 C850 1.389 . S
C850 C849 1.389 . S
C850 C851 1.387 . S
C851 H836 0.930 . S
C851 C846 1.390 . S
C851 C850 1.387 . S
H852 C864 0.930 . S
H853 C866 0.930 1_556 S
H854 C867 0.930 . S
H855 C871 0.957 1_565 S
H856 C871 0.955 1_565 S
H857 C871 0.972 . S
H858 C872 0.960 1_545 S
H859 C872 0.961 . S
H860 C872 0.959 . S
H861 C875 0.929 . S
H862 C876 0.931 . S
H863 C878 0.930 . S
C864 H852 0.930 . S
C864 C865 1.399 . S
C864 C869 1.399 1_545 S
C865 C864 1.399 . S
C865 C866 1.376 . S
C866 H853 0.930 1_554 S
C866 C865 1.376 . S
C866 C867 1.388 1_545 S
C867 H854 0.930 . S
C867 C866 1.388 1_565 S
C867 C868 1.390 . S
C868 C867 1.390 . S
C868 C869 1.394 . S
C868 C874 1.465 . S
C869 C864 1.399 1_565 S
C869 C868 1.394 . S
C869 C870 1.516 . S
C870 C869 1.516 . S
C870 C871 1.497 1_565 S
C870 C872 1.561 . S
C870 C873 1.526 . S
C871 H855 0.957 1_545 S
C871 H856 0.955 1_545 S
C871 H857 0.972 . S
C871 C870 1.497 1_545 S
C872 H858 0.960 1_565 S
C872 H859 0.961 . S
C872 H860 0.959 . S
C872 C870 1.561 . S
C873 C870 1.526 . S
C873 C874 1.396 . S
C873 C878 1.390 . S
C874 C868 1.465 . S
C874 C873 1.396 . S
C874 C875 1.399 . S
C875 H861 0.929 . S
C875 C874 1.399 . S
C875 C876 1.385 . S
C876 H862 0.931 . S
C876 C875 1.385 . S
C876 C877 1.389 . S
C877 C876 1.389 . S
C877 C878 1.387 . S
C878 H863 0.930 . S
C878 C873 1.390 . S
C878 C877 1.387 . S
H879 C891 0.930 . S
H880 C893 0.930 . S
H881 C894 0.930 . S
H882 C898 0.959 . S
H883 C898 0.959 . S
H884 C898 0.961 . S
H885 C899 0.960 1_554 S
H886 C899 0.961 . S
H887 C899 0.959 1_554 S
H888 C902 0.929 . S
H889 C903 0.931 . S
H890 C905 0.930 . S
C891 H879 0.930 . S
C891 C892 1.399 . S
C891 C896 1.399 . S
C892 C891 1.399 . S
C892 C893 1.376 . S
C893 H880 0.930 . S
C893 C892 1.376 . S
C893 C894 1.388 . S
C894 H881 0.930 . S
C894 C893 1.388 . S
C894 C895 1.390 . S
C895 C894 1.390 . S
C895 C896 1.394 . S
C895 C901 1.465 . S
C896 C891 1.399 . S
C896 C895 1.394 . S
C896 C897 1.516 . S
C897 C896 1.516 . S
C897 C898 1.502 . S
C897 C899 1.561 . S
C897 C900 1.526 . S
C898 H882 0.959 . S
C898 H883 0.959 . S
C898 H884 0.961 . S
C898 C897 1.502 . S
C899 H885 0.960 1_556 S
C899 H886 0.961 . S
C899 H887 0.959 1_556 S
C899 C897 1.561 . S
C900 C897 1.526 . S
C900 C901 1.396 . S
C900 C905 1.390 . S
C901 C895 1.465 . S
C901 C900 1.396 . S
C901 C902 1.399 . S
C902 H888 0.929 . S
C902 C901 1.399 . S
C902 C903 1.385 . S
C903 H889 0.931 . S
C903 C902 1.385 . S
C903 C904 1.389 . S
C904 C903 1.389 . S
C904 C905 1.387 . S
C905 H890 0.930 . S
C905 C900 1.390 . S
C905 C904 1.387 . S
H906 C918 0.930 . S
H907 C920 0.930 . S
H908 C921 0.930 . S
H909 C925 0.959 . S
H910 C925 0.959 . S
H911 C925 0.961 . S
H912 C926 0.960 . S
H913 C926 0.961 . S
H914 C926 0.959 . S
H915 C929 0.929 . S
H916 C930 0.931 . S
H917 C932 0.930 . S
C918 H906 0.930 . S
C918 C919 1.399 . S
C918 C923 1.399 . S
C919 C918 1.399 . S
C919 C920 1.376 . S
C920 H907 0.930 . S
C920 C919 1.376 . S
C920 C921 1.388 . S
C921 H908 0.930 . S
C921 C920 1.388 . S
C921 C922 1.390 . S
C922 C921 1.390 . S
C922 C923 1.394 . S
C922 C928 1.465 . S
C923 C918 1.399 . S
C923 C922 1.394 . S
C923 C924 1.516 . S
C924 C923 1.516 . S
C924 C925 1.502 . S
C924 C926 1.561 . S
C924 C927 1.526 . S
C925 H909 0.959 . S
C925 H910 0.959 . S
C925 H911 0.961 . S
C925 C924 1.502 . S
C926 H912 0.960 . S
C926 H913 0.961 . S
C926 H914 0.959 . S
C926 C924 1.561 . S
C927 C924 1.526 . S
C927 C928 1.396 . S
C927 C932 1.390 . S
C928 C922 1.465 . S
C928 C927 1.396 . S
C928 C929 1.399 . S
C929 H915 0.929 . S
C929 C928 1.399 . S
C929 C930 1.385 . S
C930 H916 0.931 . S
C930 C929 1.385 . S
C930 C931 1.389 . S
C931 C930 1.389 . S
C931 C932 1.387 . S
C932 H917 0.930 . S
C932 C927 1.390 . S
C932 C931 1.387 . S
H933 C945 0.930 . S
H934 C947 0.930 . S
H935 C948 0.930 . S
H936 C952 0.959 . S
H937 C952 0.959 . S
H938 C952 0.961 . S
H939 C953 0.960 . S
H940 C953 0.961 . S
H941 C953 0.959 . S
H942 C956 0.929 . S
H943 C957 0.931 . S
H944 C959 0.930 . S
C945 H933 0.930 . S
C945 C946 1.399 . S
C945 C950 1.399 . S
C946 C945 1.399 . S
C946 C947 1.376 . S
C947 H934 0.930 . S
C947 C946 1.376 . S
C947 C948 1.388 . S
C948 H935 0.930 . S
C948 C947 1.388 . S
C948 C949 1.390 . S
C949 C948 1.390 . S
C949 C950 1.394 . S
C949 C955 1.465 . S
C950 C945 1.399 . S
C950 C949 1.394 . S
C950 C951 1.516 . S
C951 C950 1.516 . S
C951 C952 1.502 . S
C951 C953 1.561 . S
C951 C954 1.526 . S
C952 H936 0.959 . S
C952 H937 0.959 . S
C952 H938 0.961 . S
C952 C951 1.502 . S
C953 H939 0.960 . S
C953 H940 0.961 . S
C953 H941 0.959 . S
C953 C951 1.561 . S
C954 C951 1.526 . S
C954 C955 1.396 . S
C954 C959 1.390 . S
C955 C949 1.465 . S
C955 C954 1.396 . S
C955 C956 1.399 . S
C956 H942 0.929 . S
C956 C955 1.399 . S
C956 C957 1.385 . S
C957 H943 0.931 . S
C957 C956 1.385 . S
C957 C958 1.389 . S
C958 C957 1.389 . S
C958 C959 1.387 . S
C959 H944 0.930 . S
C959 C954 1.390 . S
C959 C958 1.387 . S
H960 C972 0.930 . S
H961 C974 0.930 . S
H962 C975 0.930 . S
H963 C979 0.959 . S
H964 C979 0.959 . S
H965 C979 0.961 . S
H966 C980 0.960 . S
H967 C980 0.961 . S
H968 C980 0.959 . S
H969 C983 0.929 . S
H970 C984 0.931 . S
H971 C986 0.930 . S
C972 H960 0.930 . S
C972 C973 1.399 . S
C972 C977 1.399 . S
C973 C972 1.399 . S
C973 C974 1.376 . S
C974 H961 0.930 . S
C974 C973 1.376 . S
C974 C975 1.388 . S
C975 H962 0.930 . S
C975 C974 1.388 . S
C975 C976 1.390 . S
C976 C975 1.390 . S
C976 C977 1.394 . S
C976 C982 1.465 . S
C977 C972 1.399 . S
C977 C976 1.394 . S
C977 C978 1.516 . S
C978 C977 1.516 . S
C978 C979 1.502 . S
C978 C980 1.561 . S
C978 C981 1.526 . S
C979 H963 0.959 . S
C979 H964 0.959 . S
C979 H965 0.961 . S
C979 C978 1.502 . S
C980 H966 0.960 . S
C980 H967 0.961 . S
C980 H968 0.959 . S
C980 C978 1.561 . S
C981 C978 1.526 . S
C981 C982 1.396 . S
C981 C986 1.390 . S
C982 C976 1.465 . S
C982 C981 1.396 . S
C982 C983 1.399 . S
C983 H969 0.929 . S
C983 C982 1.399 . S
C983 C984 1.385 . S
C984 H970 0.931 . S
C984 C983 1.385 . S
C984 C985 1.389 . S
C985 C984 1.389 . S
C985 C986 1.387 . S
C986 H971 0.930 . S
C986 C981 1.390 . S
C986 C985 1.387 . S
H987 C999 0.930 . S
H988 C1001 0.930 . S
H989 C1002 0.930 . S
H990 C1006 0.959 . S
H991 C1006 0.959 . S
H992 C1006 0.961 . S
H993 C1007 0.960 . S
H994 C1007 0.961 . S
H995 C1007 0.959 . S
H996 C1010 0.929 . S
H997 C1011 0.931 . S
H998 C1013 0.930 . S
C999 H987 0.930 . S
C999 C1000 1.399 1_545 S
C999 C1004 1.399 . S
C1000 C999 1.399 1_565 S
C1000 C1001 1.376 . S
C1001 H988 0.930 . S
C1001 C1000 1.376 . S
C1001 C1002 1.388 1_565 S
C1002 H989 0.930 . S
C1002 C1001 1.388 1_545 S
C1002 C1003 1.390 . S
C1003 C1002 1.390 . S
C1003 C1004 1.394 . S
C1003 C1009 1.465 . S
C1004 C999 1.399 . S
C1004 C1003 1.394 . S
C1004 C1005 1.516 . S
C1005 C1004 1.516 . S
C1005 C1006 1.502 . S
C1005 C1007 1.561 . S
C1005 C1008 1.526 . S
C1006 H990 0.959 . S
C1006 H991 0.959 . S
C1006 H992 0.961 . S
C1006 C1005 1.502 . S
C1007 H993 0.960 . S
C1007 H994 0.961 . S
C1007 H995 0.959 . S
C1007 C1005 1.561 . S
C1008 C1005 1.526 . S
C1008 C1009 1.396 . S
C1008 C1013 1.390 . S
C1009 C1003 1.465 . S
C1009 C1008 1.396 . S
C1009 C1010 1.399 . S
C1010 H996 0.929 . S
C1010 C1009 1.399 . S
C1010 C1011 1.385 . S
C1011 H997 0.931 . S
C1011 C1010 1.385 . S
C1011 C1012 1.389 . S
C1012 C1011 1.389 . S
C1012 C1013 1.387 . S
C1013 H998 0.930 . S
C1013 C1008 1.390 . S
C1013 C1012 1.387 . S
H1014 C1026 0.930 . S
H1015 C1028 0.930 . S
H1016 C1029 0.930 . S
H1017 C1033 0.959 . S
H1018 C1033 0.959 . S
H1019 C1033 0.961 . S
H1020 C1034 0.960 . S
H1021 C1034 0.961 . S
H1022 C1034 0.959 . S
H1023 C1037 0.929 . S
H1024 C1038 0.931 . S
H1025 C1040 0.930 . S
C1026 H1014 0.930 . S
C1026 C1027 1.399 . S
C1026 C1031 1.399 . S
C1027 C1026 1.399 . S
C1027 C1028 1.376 . S
C1028 H1015 0.930 . S
C1028 C1027 1.376 . S
C1028 C1029 1.388 . S
C1029 H1016 0.930 . S
C1029 C1028 1.388 . S
C1029 C1030 1.390 . S
C1030 C1029 1.390 . S
C1030 C1031 1.394 . S
C1030 C1036 1.465 . S
C1031 C1026 1.399 . S
C1031 C1030 1.394 . S
C1031 C1032 1.516 . S
C1032 C1031 1.516 . S
C1032 C1033 1.502 . S
C1032 C1034 1.561 . S
C1032 C1035 1.526 . S
C1033 H1017 0.959 . S
C1033 H1018 0.959 . S
C1033 H1019 0.961 . S
C1033 C1032 1.502 . S
C1034 H1020 0.960 . S
C1034 H1021 0.961 . S
C1034 H1022 0.959 . S
C1034 C1032 1.561 . S
C1035 C1032 1.526 . S
C1035 C1036 1.396 . S
C1035 C1040 1.390 . S
C1036 C1030 1.465 . S
C1036 C1035 1.396 . S
C1036 C1037 1.399 . S
C1037 H1023 0.929 . S
C1037 C1036 1.399 . S
C1037 C1038 1.385 . S
C1038 H1024 0.931 . S
C1038 C1037 1.385 . S
C1038 C1039 1.389 . S
C1039 C1038 1.389 . S
C1039 C1040 1.387 . S
C1040 H1025 0.930 . S
C1040 C1035 1.390 . S
C1040 C1039 1.387 . S
H1041 C1053 0.930 . S
H1042 C1055 0.930 . S
H1043 C1056 0.930 . S
H1044 C1060 0.959 . S
H1045 C1060 0.959 . S
H1046 C1060 0.961 . S
H1047 C1061 0.960 . S
H1048 C1061 0.961 . S
H1049 C1061 0.959 . S
H1050 C1064 0.929 . S
H1051 C1065 0.931 . S
H1052 C1067 0.930 . S
C1053 H1041 0.930 . S
C1053 C1054 1.399 . S
C1053 C1058 1.399 . S
C1054 C1053 1.399 . S
C1054 C1055 1.376 . S
C1055 H1042 0.930 . S
C1055 C1054 1.376 . S
C1055 C1056 1.388 . S
C1056 H1043 0.930 . S
C1056 C1055 1.388 . S
C1056 C1057 1.390 . S
C1057 C1056 1.390 . S
C1057 C1058 1.394 . S
C1057 C1063 1.465 . S
C1058 C1053 1.399 . S
C1058 C1057 1.394 . S
C1058 C1059 1.516 . S
C1059 C1058 1.516 . S
C1059 C1060 1.502 . S
C1059 C1061 1.561 . S
C1059 C1062 1.526 . S
C1060 H1044 0.959 . S
C1060 H1045 0.959 . S
C1060 H1046 0.961 . S
C1060 C1059 1.502 . S
C1061 H1047 0.960 . S
C1061 H1048 0.961 . S
C1061 H1049 0.959 . S
C1061 C1059 1.561 . S
C1062 C1059 1.526 . S
C1062 C1063 1.396 . S
C1062 C1067 1.390 . S
C1063 C1057 1.465 . S
C1063 C1062 1.396 . S
C1063 C1064 1.399 . S
C1064 H1050 0.929 . S
C1064 C1063 1.399 . S
C1064 C1065 1.385 . S
C1065 H1051 0.931 . S
C1065 C1064 1.385 . S
C1065 C1066 1.389 . S
C1066 C1065 1.389 . S
C1066 C1067 1.387 . S
C1067 H1052 0.930 . S
C1067 C1062 1.390 . S
C1067 C1066 1.387 . S
H1068 C1080 0.930 . S
H1069 C1082 0.930 . S
H1070 C1083 0.930 . S
H1071 C1087 0.959 . S
H1072 C1087 0.959 . S
H1073 C1087 0.961 . S
H1074 C1088 0.960 . S
H1075 C1088 0.961 . S
H1076 C1088 0.959 . S
H1077 C1091 0.929 . S
H1078 C1092 0.931 1_545 S
H1079 C1094 0.930 . S
C1080 H1068 0.930 . S
C1080 C1081 1.399 . S
C1080 C1085 1.399 . S
C1081 C1080 1.399 . S
C1081 C1082 1.376 . S
C1082 H1069 0.930 . S
C1082 C1081 1.376 . S
C1082 C1083 1.388 . S
C1083 H1070 0.930 . S
C1083 C1082 1.388 . S
C1083 C1084 1.390 . S
C1084 C1083 1.390 . S
C1084 C1085 1.394 . S
C1084 C1090 1.465 . S
C1085 C1080 1.399 . S
C1085 C1084 1.394 . S
C1085 C1086 1.516 . S
C1086 C1085 1.516 . S
C1086 C1087 1.502 . S
C1086 C1088 1.561 . S
C1086 C1089 1.526 . S
C1087 H1071 0.959 . S
C1087 H1072 0.959 . S
C1087 H1073 0.961 . S
C1087 C1086 1.502 . S
C1088 H1074 0.960 . S
C1088 H1075 0.961 . S
C1088 H1076 0.959 . S
C1088 C1086 1.561 . S
C1089 C1086 1.526 . S
C1089 C1090 1.396 . S
C1089 C1094 1.390 . S
C1090 C1084 1.465 . S
C1090 C1089 1.396 . S
C1090 C1091 1.399 . S
C1091 H1077 0.929 . S
C1091 C1090 1.399 . S
C1091 C1092 1.385 . S
C1092 H1078 0.931 1_565 S
C1092 C1091 1.385 . S
C1092 C1093 1.389 . S
C1093 C1092 1.389 . S
C1093 C1094 1.387 . S
C1094 H1079 0.930 . S
C1094 C1089 1.390 . S
C1094 C1093 1.387 . S
H1095 C1107 0.930 . S
H1096 C1109 0.930 . S
H1097 C1110 0.930 . S
H1098 C1114 0.959 . S
H1099 C1114 0.959 . S
H1100 C1114 0.961 . S
H1101 C1115 0.960 . S
H1102 C1115 0.961 . S
H1103 C1115 0.959 . S
H1104 C1118 0.929 . S
H1105 C1119 0.931 . S
H1106 C1121 0.930 . S
C1107 H1095 0.930 . S
C1107 C1108 1.399 . S
C1107 C1112 1.399 . S
C1108 C1107 1.399 . S
C1108 C1109 1.376 . S
C1109 H1096 0.930 . S
C1109 C1108 1.376 . S
C1109 C1110 1.388 . S
C1110 H1097 0.930 . S
C1110 C1109 1.388 . S
C1110 C1111 1.390 . S
C1111 C1110 1.390 . S
C1111 C1112 1.394 . S
C1111 C1117 1.465 . S
C1112 C1107 1.399 . S
C1112 C1111 1.394 . S
C1112 C1113 1.516 . S
C1113 C1112 1.516 . S
C1113 C1114 1.502 . S
C1113 C1115 1.561 . S
C1113 C1116 1.526 . S
C1114 H1098 0.959 . S
C1114 H1099 0.959 . S
C1114 H1100 0.961 . S
C1114 C1113 1.502 . S
C1115 H1101 0.960 . S
C1115 H1102 0.961 . S
C1115 H1103 0.959 . S
C1115 C1113 1.561 . S
C1116 C1113 1.526 . S
C1116 C1117 1.396 . S
C1116 C1121 1.390 . S
C1117 C1111 1.465 . S
C1117 C1116 1.396 . S
C1117 C1118 1.399 . S
C1118 H1104 0.929 . S
C1118 C1117 1.399 . S
C1118 C1119 1.385 . S
C1119 H1105 0.931 . S
C1119 C1118 1.385 . S
C1119 C1120 1.389 . S
C1120 C1119 1.389 . S
C1120 C1121 1.387 . S
C1121 H1106 0.930 . S
C1121 C1116 1.390 . S
C1121 C1120 1.387 . S
H1122 C1134 0.930 . S
H1123 C1136 0.930 . S
H1124 C1137 0.930 . S
H1125 C1141 0.959 . S
H1126 C1141 0.959 . S
H1127 C1141 0.961 1_554 S
H1128 C1142 0.960 . S
H1129 C1142 0.962 . S
H1130 C1142 0.959 . S
H1131 C1145 0.929 . S
H1132 C1146 0.931 . S
H1133 C1148 0.930 . S
C1134 H1122 0.930 . S
C1134 C1135 1.399 . S
C1134 C1139 1.399 . S
C1135 C1134 1.399 . S
C1135 C1136 1.376 . S
C1136 H1123 0.930 . S
C1136 C1135 1.376 . S
C1136 C1137 1.388 1_554 S
C1137 H1124 0.930 . S
C1137 C1136 1.388 1_556 S
C1137 C1138 1.390 . S
C1138 C1137 1.390 . S
C1138 C1139 1.394 1_556 S
C1138 C1144 1.465 . S
C1139 C1134 1.399 . S
C1139 C1138 1.394 1_554 S
C1139 C1140 1.516 1_554 S
C1140 C1139 1.516 1_556 S
C1140 C1141 1.502 . S
C1140 C1142 1.561 1_556 S
C1140 C1143 1.526 . S
C1141 H1125 0.959 . S
C1141 H1126 0.959 . S
C1141 H1127 0.961 1_556 S
C1141 C1140 1.502 . S
C1142 H1128 0.960 . S
C1142 H1129 0.962 . S
C1142 H1130 0.959 . S
C1142 C1140 1.561 1_554 S
C1143 C1140 1.526 . S
C1143 C1144 1.396 . S
C1143 C1148 1.390 . S
C1144 C1138 1.465 . S
C1144 C1143 1.396 . S
C1144 C1145 1.399 . S
C1145 H1131 0.929 . S
C1145 C1144 1.399 . S
C1145 C1146 1.385 . S
C1146 H1132 0.931 . S
C1146 C1145 1.385 . S
C1146 C1147 1.389 . S
C1147 C1146 1.389 . S
C1147 C1148 1.387 . S
C1148 H1133 0.930 . S
C1148 C1143 1.390 . S
C1148 C1147 1.387 . S
H1149 C1161 0.930 . S
H1150 C1163 0.930 . S
H1151 C1164 0.930 . S
H1152 C1168 0.959 . S
H1153 C1168 0.959 . S
H1154 C1168 0.961 . S
H1155 C1169 0.960 . S
H1156 C1169 0.961 . S
H1157 C1169 0.959 . S
H1158 C1172 0.929 . S
H1159 C1173 0.931 . S
H1160 C1175 0.930 . S
C1161 H1149 0.930 . S
C1161 C1162 1.399 . S
C1161 C1166 1.399 . S
C1162 C1161 1.399 . S
C1162 C1163 1.376 . S
C1163 H1150 0.930 . S
C1163 C1162 1.376 . S
C1163 C1164 1.388 . S
C1164 H1151 0.930 . S
C1164 C1163 1.388 . S
C1164 C1165 1.390 . S
C1165 C1164 1.390 . S
C1165 C1166 1.394 . S
C1165 C1171 1.465 . S
C1166 C1161 1.399 . S
C1166 C1165 1.394 . S
C1166 C1167 1.516 . S
C1167 C1166 1.516 . S
C1167 C1168 1.502 . S
C1167 C1169 1.561 . S
C1167 C1170 1.526 . S
C1168 H1152 0.959 . S
C1168 H1153 0.959 . S
C1168 H1154 0.961 . S
C1168 C1167 1.502 . S
C1169 H1155 0.960 . S
C1169 H1156 0.961 . S
C1169 H1157 0.959 . S
C1169 C1167 1.561 . S
C1170 C1167 1.526 . S
C1170 C1171 1.396 . S
C1170 C1175 1.390 . S
C1171 C1165 1.465 . S
C1171 C1170 1.396 . S
C1171 C1172 1.399 . S
C1172 H1158 0.929 . S
C1172 C1171 1.399 . S
C1172 C1173 1.385 . S
C1173 H1159 0.931 . S
C1173 C1172 1.385 . S
C1173 C1174 1.389 . S
C1174 C1173 1.389 . S
C1174 C1175 1.387 . S
C1175 H1160 0.930 . S
C1175 C1170 1.390 . S
C1175 C1174 1.387 . S
H1176 C1188 0.930 . S
H1177 C1190 0.930 . S
H1178 C1191 0.930 . S
H1179 C1195 0.959 . S
H1180 C1195 0.959 . S
H1181 C1195 0.961 . S
H1182 C1196 0.960 . S
H1183 C1196 0.961 . S
H1184 C1196 0.959 . S
H1185 C1199 0.929 . S
H1186 C1200 0.931 . S
H1187 C1202 0.930 . S
C1188 H1176 0.930 . S
C1188 C1189 1.399 1_554 S
C1188 C1193 1.399 . S
C1189 C1188 1.399 1_556 S
C1189 C1190 1.376 1_556 S
C1190 H1177 0.930 . S
C1190 C1189 1.376 1_554 S
C1190 C1191 1.388 . S
C1191 H1178 0.930 . S
C1191 C1190 1.388 . S
C1191 C1192 1.390 . S
C1192 C1191 1.390 . S
C1192 C1193 1.394 . S
C1192 C1198 1.465 . S
C1193 C1188 1.399 . S
C1193 C1192 1.394 . S
C1193 C1194 1.516 . S
C1194 C1193 1.516 . S
C1194 C1195 1.502 . S
C1194 C1196 1.561 . S
C1194 C1197 1.526 . S
C1195 H1179 0.959 . S
C1195 H1180 0.959 . S
C1195 H1181 0.961 . S
C1195 C1194 1.502 . S
C1196 H1182 0.960 . S
C1196 H1183 0.961 . S
C1196 H1184 0.959 . S
C1196 C1194 1.561 . S
C1197 C1194 1.526 . S
C1197 C1198 1.396 . S
C1197 C1202 1.390 . S
C1198 C1192 1.465 . S
C1198 C1197 1.396 . S
C1198 C1199 1.399 . S
C1199 H1185 0.929 . S
C1199 C1198 1.399 . S
C1199 C1200 1.385 . S
C1200 H1186 0.931 . S
C1200 C1199 1.385 . S
C1200 C1201 1.389 . S
C1201 C1200 1.389 . S
C1201 C1202 1.387 . S
C1202 H1187 0.930 . S
C1202 C1197 1.390 . S
C1202 C1201 1.387 . S
H1203 C1215 0.930 . S
H1204 C1217 0.930 . S
H1205 C1218 0.930 . S
H1206 C1222 0.959 . S
H1207 C1222 0.959 . S
H1208 C1222 0.961 . S
H1209 C1223 0.960 . S
H1210 C1223 0.961 . S
H1211 C1223 0.959 . S
H1212 C1226 0.929 . S
H1213 C1227 0.931 . S
H1214 C1229 0.930 . S
C1215 H1203 0.930 . S
C1215 C1216 1.399 . S
C1215 C1220 1.399 . S
C1216 C1215 1.399 . S
C1216 C1217 1.376 . S
C1217 H1204 0.930 . S
C1217 C1216 1.376 . S
C1217 C1218 1.388 . S
C1218 H1205 0.930 . S
C1218 C1217 1.388 . S
C1218 C1219 1.390 . S
C1219 C1218 1.390 . S
C1219 C1220 1.394 . S
C1219 C1225 1.465 . S
C1220 C1215 1.399 . S
C1220 C1219 1.394 . S
C1220 C1221 1.516 . S
C1221 C1220 1.516 . S
C1221 C1222 1.502 . S
C1221 C1223 1.561 . S
C1221 C1224 1.526 . S
C1222 H1206 0.959 . S
C1222 H1207 0.959 . S
C1222 H1208 0.961 . S
C1222 C1221 1.502 . S
C1223 H1209 0.960 . S
C1223 H1210 0.961 . S
C1223 H1211 0.959 . S
C1223 C1221 1.561 . S
C1224 C1221 1.526 . S
C1224 C1225 1.396 . S
C1224 C1229 1.390 . S
C1225 C1219 1.465 . S
C1225 C1224 1.396 . S
C1225 C1226 1.399 . S
C1226 H1212 0.929 . S
C1226 C1225 1.399 . S
C1226 C1227 1.385 . S
C1227 H1213 0.931 . S
C1227 C1226 1.385 . S
C1227 C1228 1.389 . S
C1228 C1227 1.389 . S
C1228 C1229 1.387 . S
C1229 H1214 0.930 . S
C1229 C1224 1.390 . S
C1229 C1228 1.387 . S
H1230 C1242 0.930 1_455 S
H1231 C1244 0.930 . S
H1232 C1245 0.930 . S
H1233 C1249 0.959 . S
H1234 C1249 0.959 . S
H1235 C1249 0.961 . S
H1236 C1250 0.960 . S
H1237 C1250 0.961 . S
H1238 C1250 0.959 . S
H1239 C1253 0.929 . S
H1240 C1254 0.931 . S
H1241 C1256 0.930 . S
C1242 H1230 0.930 1_655 S
C1242 C1243 1.399 . S
C1242 C1247 1.399 . S
C1243 C1242 1.399 . S
C1243 C1244 1.376 . S
C1244 H1231 0.930 . S
C1244 C1243 1.376 . S
C1244 C1245 1.388 . S
C1245 H1232 0.930 . S
C1245 C1244 1.388 . S
C1245 C1246 1.390 . S
C1246 C1245 1.390 . S
C1246 C1247 1.394 . S
C1246 C1252 1.465 . S
C1247 C1242 1.399 . S
C1247 C1246 1.394 . S
C1247 C1248 1.516 . S
C1248 C1247 1.516 . S
C1248 C1249 1.502 1_655 S
C1248 C1250 1.561 . S
C1248 C1251 1.526 . S
C1249 H1233 0.959 . S
C1249 H1234 0.959 . S
C1249 H1235 0.961 . S
C1249 C1248 1.502 1_455 S
C1250 H1236 0.960 . S
C1250 H1237 0.961 . S
C1250 H1238 0.959 . S
C1250 C1248 1.561 . S
C1251 C1248 1.526 . S
C1251 C1252 1.396 . S
C1251 C1256 1.390 . S
C1252 C1246 1.465 . S
C1252 C1251 1.396 . S
C1252 C1253 1.399 . S
C1253 H1239 0.929 . S
C1253 C1252 1.399 . S
C1253 C1254 1.385 . S
C1254 H1240 0.931 . S
C1254 C1253 1.385 . S
C1254 C1255 1.389 . S
C1255 C1254 1.389 . S
C1255 C1256 1.387 . S
C1256 H1241 0.930 . S
C1256 C1251 1.390 . S
C1256 C1255 1.387 . S
H1257 C1269 0.930 . S
H1258 C1271 0.930 . S
H1259 C1272 0.930 . S
H1260 C1276 0.959 . S
H1261 C1276 0.959 . S
H1262 C1276 0.961 . S
H1263 C1277 0.960 . S
H1264 C1277 0.961 . S
H1265 C1277 0.959 . S
H1266 C1280 0.929 . S
H1267 C1281 0.931 . S
H1268 C1283 0.930 . S
C1269 H1257 0.930 . S
C1269 C1270 1.399 . S
C1269 C1274 1.399 . S
C1270 C1269 1.399 . S
C1270 C1271 1.376 . S
C1271 H1258 0.930 . S
C1271 C1270 1.376 . S
C1271 C1272 1.388 . S
C1272 H1259 0.930 . S
C1272 C1271 1.388 . S
C1272 C1273 1.390 . S
C1273 C1272 1.390 . S
C1273 C1274 1.394 . S
C1273 C1279 1.465 . S
C1274 C1269 1.399 . S
C1274 C1273 1.394 . S
C1274 C1275 1.516 . S
C1275 C1274 1.516 . S
C1275 C1276 1.502 . S
C1275 C1277 1.561 . S
C1275 C1278 1.526 . S
C1276 H1260 0.959 . S
C1276 H1261 0.959 . S
C1276 H1262 0.961 . S
C1276 C1275 1.502 . S
C1277 H1263 0.960 . S
C1277 H1264 0.961 . S
C1277 H1265 0.959 . S
C1277 C1275 1.561 . S
C1278 C1275 1.526 . S
C1278 C1279 1.396 . S
C1278 C1283 1.390 . S
C1279 C1273 1.465 . S
C1279 C1278 1.396 . S
C1279 C1280 1.399 . S
C1280 H1266 0.929 . S
C1280 C1279 1.399 . S
C1280 C1281 1.385 . S
C1281 H1267 0.931 . S
C1281 C1280 1.385 . S
C1281 C1282 1.389 . S
C1282 C1281 1.389 . S
C1282 C1283 1.387 . S
C1283 H1268 0.930 . S
C1283 C1278 1.390 . S
C1283 C1282 1.387 . S
H1284 C1296 0.930 . S
H1285 C1298 0.930 . S
H1286 C1299 0.930 . S
H1287 C1303 0.959 . S
H1288 C1303 0.959 1_554 S
H1289 C1303 0.961 . S
H1290 C1304 0.960 . S
H1291 C1304 0.961 . S
H1292 C1304 0.959 . S
H1293 C1307 0.929 . S
H1294 C1308 0.931 . S
H1295 C1310 0.930 . S
C1296 H1284 0.930 . S
C1296 C1297 1.399 . S
C1296 C1301 1.399 . S
C1297 C1296 1.399 . S
C1297 C1298 1.376 . S
C1298 H1285 0.930 . S
C1298 C1297 1.376 . S
C1298 C1299 1.388 . S
C1299 H1286 0.930 . S
C1299 C1298 1.388 . S
C1299 C1300 1.390 . S
C1300 C1299 1.390 . S
C1300 C1301 1.394 . S
C1300 C1306 1.465 . S
C1301 C1296 1.399 . S
C1301 C1300 1.394 . S
C1301 C1302 1.516 . S
C1302 C1301 1.516 . S
C1302 C1303 1.502 . S
C1302 C1304 1.561 . S
C1302 C1305 1.526 . S
C1303 H1287 0.959 . S
C1303 H1288 0.959 1_556 S
C1303 H1289 0.961 . S
C1303 C1302 1.502 . S
C1304 H1290 0.960 . S
C1304 H1291 0.961 . S
C1304 H1292 0.959 . S
C1304 C1302 1.561 . S
C1305 C1302 1.526 . S
C1305 C1306 1.396 . S
C1305 C1310 1.390 . S
C1306 C1300 1.465 . S
C1306 C1305 1.396 . S
C1306 C1307 1.399 . S
C1307 H1293 0.929 . S
C1307 C1306 1.399 . S
C1307 C1308 1.385 . S
C1308 H1294 0.931 . S
C1308 C1307 1.385 . S
C1308 C1309 1.389 . S
C1309 C1308 1.389 . S
C1309 C1310 1.387 . S
C1310 H1295 0.930 . S
C1310 C1305 1.390 . S
C1310 C1309 1.387 . S
H1311 C1323 0.930 . S
H1312 C1325 0.930 . S
H1313 C1326 0.930 . S
H1314 C1330 0.959 . S
H1315 C1330 0.959 . S
H1316 C1330 0.961 . S
H1317 C1331 0.960 . S
H1318 C1331 0.961 . S
H1319 C1331 0.959 . S
H1320 C1334 0.929 . S
H1321 C1335 0.931 . S
H1322 C1337 0.930 . S
C1323 H1311 0.930 . S
C1323 C1324 1.399 . S
C1323 C1328 1.399 . S
C1324 C1323 1.399 . S
C1324 C1325 1.376 . S
C1325 H1312 0.930 . S
C1325 C1324 1.376 . S
C1325 C1326 1.388 . S
C1326 H1313 0.930 . S
C1326 C1325 1.388 . S
C1326 C1327 1.390 . S
C1327 C1326 1.390 . S
C1327 C1328 1.394 . S
C1327 C1333 1.465 . S
C1328 C1323 1.399 . S
C1328 C1327 1.394 . S
C1328 C1329 1.516 . S
C1329 C1328 1.516 . S
C1329 C1330 1.502 . S
C1329 C1331 1.561 . S
C1329 C1332 1.526 . S
C1330 H1314 0.959 . S
C1330 H1315 0.959 . S
C1330 H1316 0.961 . S
C1330 C1329 1.502 . S
C1331 H1317 0.960 . S
C1331 H1318 0.961 . S
C1331 H1319 0.959 . S
C1331 C1329 1.561 . S
C1332 C1329 1.526 . S
C1332 C1333 1.396 . S
C1332 C1337 1.390 . S
C1333 C1327 1.465 . S
C1333 C1332 1.396 . S
C1333 C1334 1.399 . S
C1334 H1320 0.929 . S
C1334 C1333 1.399 . S
C1334 C1335 1.385 . S
C1335 H1321 0.931 . S
C1335 C1334 1.385 . S
C1335 C1336 1.389 . S
C1336 C1335 1.389 . S
C1336 C1337 1.387 . S
C1337 H1322 0.930 . S
C1337 C1332 1.390 . S
C1337 C1336 1.387 . S
H1338 C1350 0.930 . S
H1339 C1352 0.930 . S
H1340 C1353 0.930 . S
H1341 C1357 0.959 . S
H1342 C1357 0.959 . S
H1343 C1357 0.961 . S
H1344 C1358 0.960 . S
H1345 C1358 0.961 . S
H1346 C1358 0.959 . S
H1347 C1361 0.929 . S
H1348 C1362 0.931 . S
H1349 C1364 0.930 . S
C1350 H1338 0.930 . S
C1350 C1351 1.399 1_455 S
C1350 C1355 1.399 . S
C1351 C1350 1.399 1_655 S
C1351 C1352 1.376 . S
C1352 H1339 0.930 . S
C1352 C1351 1.376 . S
C1352 C1353 1.388 1_655 S
C1353 H1340 0.930 . S
C1353 C1352 1.388 1_455 S
C1353 C1354 1.390 . S
C1354 C1353 1.390 . S
C1354 C1355 1.394 . S
C1354 C1360 1.465 . S
C1355 C1350 1.399 . S
C1355 C1354 1.394 . S
C1355 C1356 1.516 . S
C1356 C1355 1.516 . S
C1356 C1357 1.502 . S
C1356 C1358 1.561 . S
C1356 C1359 1.526 . S
C1357 H1341 0.959 . S
C1357 H1342 0.959 . S
C1357 H1343 0.961 . S
C1357 C1356 1.502 . S
C1358 H1344 0.960 . S
C1358 H1345 0.961 . S
C1358 H1346 0.959 . S
C1358 C1356 1.561 . S
C1359 C1356 1.526 . S
C1359 C1360 1.396 . S
C1359 C1364 1.390 . S
C1360 C1354 1.465 . S
C1360 C1359 1.396 . S
C1360 C1361 1.399 . S
C1361 H1347 0.929 . S
C1361 C1360 1.399 . S
C1361 C1362 1.385 . S
C1362 H1348 0.931 . S
C1362 C1361 1.385 . S
C1362 C1363 1.389 . S
C1363 C1362 1.389 . S
C1363 C1364 1.387 . S
C1364 H1349 0.930 . S
C1364 C1359 1.390 . S
C1364 C1363 1.387 . S
H1365 C1377 0.930 . S
H1366 C1379 0.930 . S
H1367 C1380 0.930 . S
H1368 C1384 0.959 . S
H1369 C1384 0.959 . S
H1370 C1384 0.961 . S
H1371 C1385 0.960 . S
H1372 C1385 0.961 . S
H1373 C1385 0.959 . S
H1374 C1388 0.929 . S
H1375 C1389 0.931 . S
H1376 C1391 0.930 . S
C1377 H1365 0.930 . S
C1377 C1378 1.399 . S
C1377 C1382 1.399 . S
C1378 C1377 1.399 . S
C1378 C1379 1.376 . S
C1379 H1366 0.930 . S
C1379 C1378 1.376 . S
C1379 C1380 1.388 . S
C1380 H1367 0.930 . S
C1380 C1379 1.388 . S
C1380 C1381 1.390 . S
C1381 C1380 1.390 . S
C1381 C1382 1.394 . S
C1381 C1387 1.465 . S
C1382 C1377 1.399 . S
C1382 C1381 1.394 . S
C1382 C1383 1.516 . S
C1383 C1382 1.516 . S
C1383 C1384 1.502 . S
C1383 C1385 1.561 . S
C1383 C1386 1.526 . S
C1384 H1368 0.959 . S
C1384 H1369 0.959 . S
C1384 H1370 0.961 . S
C1384 C1383 1.502 . S
C1385 H1371 0.960 . S
C1385 H1372 0.961 . S
C1385 H1373 0.959 . S
C1385 C1383 1.561 . S
C1386 C1383 1.526 . S
C1386 C1387 1.396 . S
C1386 C1391 1.390 . S
C1387 C1381 1.465 . S
C1387 C1386 1.396 . S
C1387 C1388 1.399 . S
C1388 H1374 0.929 . S
C1388 C1387 1.399 . S
C1388 C1389 1.385 . S
C1389 H1375 0.931 . S
C1389 C1388 1.385 . S
C1389 C1390 1.389 . S
C1390 C1389 1.389 . S
C1390 C1391 1.387 . S
C1391 H1376 0.930 . S
C1391 C1386 1.390 . S
C1391 C1390 1.387 . S
H1392 C1404 0.930 . S
H1393 C1406 0.930 . S
H1394 C1407 0.930 . S
H1395 C1411 0.959 . S
H1396 C1411 0.959 . S
H1397 C1411 0.961 . S
H1398 C1412 0.960 . S
H1399 C1412 0.961 . S
H1400 C1412 0.959 . S
H1401 C1415 0.929 . S
H1402 C1416 0.931 . S
H1403 C1418 0.930 . S
C1404 H1392 0.930 . S
C1404 C1405 1.399 . S
C1404 C1409 1.399 . S
C1405 C1404 1.399 . S
C1405 C1406 1.376 . S
C1406 H1393 0.930 . S
C1406 C1405 1.376 . S
C1406 C1407 1.388 . S
C1407 H1394 0.930 . S
C1407 C1406 1.388 . S
C1407 C1408 1.390 . S
C1408 C1407 1.390 . S
C1408 C1409 1.394 . S
C1408 C1414 1.465 . S
C1409 C1404 1.399 . S
C1409 C1408 1.394 . S
C1409 C1410 1.516 . S
C1410 C1409 1.516 . S
C1410 C1411 1.502 . S
C1410 C1412 1.561 . S
C1410 C1413 1.526 . S
C1411 H1395 0.959 . S
C1411 H1396 0.959 . S
C1411 H1397 0.961 . S
C1411 C1410 1.502 . S
C1412 H1398 0.960 . S
C1412 H1399 0.961 . S
C1412 H1400 0.959 . S
C1412 C1410 1.561 . S
C1413 C1410 1.526 . S
C1413 C1414 1.396 . S
C1413 C1418 1.390 . S
C1414 C1408 1.465 . S
C1414 C1413 1.396 . S
C1414 C1415 1.399 . S
C1415 H1401 0.929 . S
C1415 C1414 1.399 . S
C1415 C1416 1.385 . S
C1416 H1402 0.931 . S
C1416 C1415 1.385 . S
C1416 C1417 1.389 . S
C1417 C1416 1.389 . S
C1417 C1418 1.387 . S
C1418 H1403 0.930 . S
C1418 C1413 1.390 . S
C1418 C1417 1.387 . S
H1419 C1431 0.930 . S
H1420 C1433 0.930 . S
H1421 C1434 0.930 . S
H1422 C1438 0.959 . S
H1423 C1438 0.959 . S
H1424 C1438 0.961 . S
H1425 C1439 0.960 . S
H1426 C1439 0.961 . S
H1427 C1439 0.959 . S
H1428 C1442 0.929 . S
H1429 C1443 0.931 . S
H1430 C1445 0.930 . S
C1431 H1419 0.930 . S
C1431 C1432 1.399 . S
C1431 C1436 1.399 . S
C1432 C1431 1.399 . S
C1432 C1433 1.376 . S
C1433 H1420 0.930 . S
C1433 C1432 1.376 . S
C1433 C1434 1.388 . S
C1434 H1421 0.930 . S
C1434 C1433 1.388 . S
C1434 C1435 1.390 . S
C1435 C1434 1.390 . S
C1435 C1436 1.394 . S
C1435 C1441 1.465 . S
C1436 C1431 1.399 . S
C1436 C1435 1.394 . S
C1436 C1437 1.516 . S
C1437 C1436 1.516 . S
C1437 C1438 1.502 . S
C1437 C1439 1.561 . S
C1437 C1440 1.526 . S
C1438 H1422 0.959 . S
C1438 H1423 0.959 . S
C1438 H1424 0.961 . S
C1438 C1437 1.502 . S
C1439 H1425 0.960 . S
C1439 H1426 0.961 . S
C1439 H1427 0.959 . S
C1439 C1437 1.561 . S
C1440 C1437 1.526 . S
C1440 C1441 1.396 . S
C1440 C1445 1.390 . S
C1441 C1435 1.465 . S
C1441 C1440 1.396 . S
C1441 C1442 1.399 . S
C1442 H1428 0.929 . S
C1442 C1441 1.399 . S
C1442 C1443 1.385 . S
C1443 H1429 0.931 . S
C1443 C1442 1.385 . S
C1443 C1444 1.389 . S
C1444 C1443 1.389 . S
C1444 C1445 1.387 . S
C1445 H1430 0.930 . S
C1445 C1440 1.390 . S
C1445 C1444 1.387 . S
H1446 C1458 0.930 . S
H1447 C1460 0.930 . S
H1448 C1461 0.930 . S
H1449 C1465 0.959 . S
H1450 C1465 0.959 . S
H1451 C1465 0.961 . S
H1452 C1466 0.960 . S
H1453 C1466 0.961 . S
H1454 C1466 0.959 . S
H1455 C1469 0.929 . S
H1456 C1470 0.931 . S
H1457 C1472 0.930 . S
C1458 H1446 0.930 . S
C1458 C1459 1.399 1_455 S
C1458 C1463 1.399 . S
C1459 C1458 1.399 1_655 S
C1459 C1460 1.376 . S
C1460 H1447 0.930 . S
C1460 C1459 1.376 . S
C1460 C1461 1.388 1_655 S
C1461 H1448 0.930 . S
C1461 C1460 1.388 1_455 S
C1461 C1462 1.390 . S
C1462 C1461 1.390 . S
C1462 C1463 1.394 . S
C1462 C1468 1.465 . S
C1463 C1458 1.399 . S
C1463 C1462 1.394 . S
C1463 C1464 1.516 . S
C1464 C1463 1.516 . S
C1464 C1465 1.502 . S
C1464 C1466 1.561 . S
C1464 C1467 1.526 . S
C1465 H1449 0.959 . S
C1465 H1450 0.959 . S
C1465 H1451 0.961 . S
C1465 C1464 1.502 . S
C1466 H1452 0.960 . S
C1466 H1453 0.961 . S
C1466 H1454 0.959 . S
C1466 C1464 1.561 . S
C1467 C1464 1.526 . S
C1467 C1468 1.396 . S
C1467 C1472 1.390 . S
C1468 C1462 1.465 . S
C1468 C1467 1.396 . S
C1468 C1469 1.399 . S
C1469 H1455 0.929 . S
C1469 C1468 1.399 . S
C1469 C1470 1.385 . S
C1470 H1456 0.931 . S
C1470 C1469 1.385 . S
C1470 C1471 1.389 . S
C1471 C1470 1.389 . S
C1471 C1472 1.387 . S
C1472 H1457 0.930 . S
C1472 C1467 1.390 . S
C1472 C1471 1.387 . S
H1473 C1485 0.930 . S
H1474 C1487 0.930 . S
H1475 C1488 0.930 . S
H1476 C1492 0.959 . S
H1477 C1492 0.959 . S
H1478 C1492 0.961 . S
H1479 C1493 0.960 . S
H1480 C1493 0.961 . S
H1481 C1493 0.959 . S
H1482 C1496 0.929 . S
H1483 C1497 0.931 . S
H1484 C1499 0.930 . S
C1485 H1473 0.930 . S
C1485 C1486 1.399 . S
C1485 C1490 1.399 . S
C1486 C1485 1.399 . S
C1486 C1487 1.376 . S
C1487 H1474 0.930 . S
C1487 C1486 1.376 . S
C1487 C1488 1.388 . S
C1488 H1475 0.930 . S
C1488 C1487 1.388 . S
C1488 C1489 1.390 . S
C1489 C1488 1.390 . S
C1489 C1490 1.394 . S
C1489 C1495 1.465 . S
C1490 C1485 1.399 . S
C1490 C1489 1.394 . S
C1490 C1491 1.516 . S
C1491 C1490 1.516 . S
C1491 C1492 1.502 . S
C1491 C1493 1.561 . S
C1491 C1494 1.526 . S
C1492 H1476 0.959 . S
C1492 H1477 0.959 . S
C1492 H1478 0.961 . S
C1492 C1491 1.502 . S
C1493 H1479 0.960 . S
C1493 H1480 0.961 . S
C1493 H1481 0.959 . S
C1493 C1491 1.561 . S
C1494 C1491 1.526 . S
C1494 C1495 1.396 . S
C1494 C1499 1.390 . S
C1495 C1489 1.465 . S
C1495 C1494 1.396 . S
C1495 C1496 1.399 . S
C1496 H1482 0.929 . S
C1496 C1495 1.399 . S
C1496 C1497 1.385 . S
C1497 H1483 0.931 . S
C1497 C1496 1.385 . S
C1497 C1498 1.389 . S
C1498 C1497 1.389 . S
C1498 C1499 1.387 . S
C1499 H1484 0.930 . S
C1499 C1494 1.390 . S
C1499 C1498 1.387 . S
H1500 C1512 0.930 . S
H1501 C1514 0.930 . S
H1502 C1515 0.930 . S
H1503 C1519 0.959 . S
H1504 C1519 0.959 . S
H1505 C1519 0.961 . S
H1506 C1520 0.960 . S
H1507 C1520 0.961 . S
H1508 C1520 0.959 . S
H1509 C1523 0.929 . S
H1510 C1524 0.931 . S
H1511 C1526 0.930 . S
C1512 H1500 0.930 . S
C1512 C1513 1.399 . S
C1512 C1517 1.399 . S
C1513 C1512 1.399 . S
C1513 C1514 1.376 . S
C1514 H1501 0.930 . S
C1514 C1513 1.376 . S
C1514 C1515 1.388 . S
C1515 H1502 0.930 . S
C1515 C1514 1.388 . S
C1515 C1516 1.390 . S
C1516 C1515 1.390 . S
C1516 C1517 1.394 . S
C1516 C1522 1.465 . S
C1517 C1512 1.399 . S
C1517 C1516 1.394 . S
C1517 C1518 1.516 . S
C1518 C1517 1.516 . S
C1518 C1519 1.502 . S
C1518 C1520 1.561 . S
C1518 C1521 1.526 . S
C1519 H1503 0.959 . S
C1519 H1504 0.959 . S
C1519 H1505 0.961 . S
C1519 C1518 1.502 . S
C1520 H1506 0.960 . S
C1520 H1507 0.961 . S
C1520 H1508 0.959 . S
C1520 C1518 1.561 . S
C1521 C1518 1.526 . S
C1521 C1522 1.396 . S
C1521 C1526 1.390 . S
C1522 C1516 1.465 . S
C1522 C1521 1.396 . S
C1522 C1523 1.399 . S
C1523 H1509 0.929 . S
C1523 C1522 1.399 . S
C1523 C1524 1.385 . S
C1524 H1510 0.931 . S
C1524 C1523 1.385 . S
C1524 C1525 1.389 . S
C1525 C1524 1.389 . S
C1525 C1526 1.387 . S
C1526 H1511 0.930 . S
C1526 C1521 1.390 . S
C1526 C1525 1.387 . S
H1527 C1539 0.930 . S
H1528 C1541 0.930 . S
H1529 C1542 0.930 . S
H1530 C1546 0.959 . S
H1531 C1546 0.959 . S
H1532 C1546 0.942 1_565 S
H1533 C1547 0.960 . S
H1534 C1547 0.961 . S
H1535 C1547 0.959 . S
H1536 C1550 0.929 . S
H1537 C1551 0.931 . S
H1538 C1553 0.930 . S
C1539 H1527 0.930 . S
C1539 C1540 1.399 . S
C1539 C1544 1.399 1_565 S
C1540 C1539 1.399 . S
C1540 C1541 1.376 1_565 S
C1541 H1528 0.930 . S
C1541 C1540 1.376 1_545 S
C1541 C1542 1.388 . S
C1542 H1529 0.930 . S
C1542 C1541 1.388 . S
C1542 C1543 1.390 . S
C1543 C1542 1.390 . S
C1543 C1544 1.394 . S
C1543 C1549 1.465 . S
C1544 C1539 1.399 1_545 S
C1544 C1543 1.394 . S
C1544 C1545 1.516 . S
C1545 C1544 1.516 . S
C1545 C1546 1.502 . S
C1545 C1547 1.561 . S
C1545 C1548 1.526 . S
C1546 H1530 0.959 . S
C1546 H1531 0.959 . S
C1546 H1532 0.942 1_545 S
C1546 C1545 1.502 . S
C1547 H1533 0.960 . S
C1547 H1534 0.961 . S
C1547 H1535 0.959 . S
C1547 C1545 1.561 . S
C1548 C1545 1.526 . S
C1548 C1549 1.396 . S
C1548 C1553 1.390 . S
C1549 C1543 1.465 . S
C1549 C1548 1.396 . S
C1549 C1550 1.399 . S
C1550 H1536 0.929 . S
C1550 C1549 1.399 . S
C1550 C1551 1.385 . S
C1551 H1537 0.931 . S
C1551 C1550 1.385 . S
C1551 C1552 1.389 . S
C1552 C1551 1.389 . S
C1552 C1553 1.387 . S
C1553 H1538 0.930 . S
C1553 C1548 1.390 . S
C1553 C1552 1.387 . S
H1554 C1566 0.930 . S
H1555 C1568 0.930 . S
H1556 C1569 0.930 . S
H1557 C1573 0.959 . S
H1558 C1573 0.959 . S
H1559 C1573 0.961 . S
H1560 C1574 0.960 . S
H1561 C1574 0.961 . S
H1562 C1574 0.959 . S
H1563 C1577 0.929 . S
H1564 C1578 0.931 . S
H1565 C1580 0.930 . S
C1566 H1554 0.930 . S
C1566 C1567 1.399 . S
C1566 C1571 1.399 . S
C1567 C1566 1.399 . S
C1567 C1568 1.376 . S
C1568 H1555 0.930 . S
C1568 C1567 1.376 . S
C1568 C1569 1.388 . S
C1569 H1556 0.930 . S
C1569 C1568 1.388 . S
C1569 C1570 1.390 . S
C1570 C1569 1.390 . S
C1570 C1571 1.394 . S
C1570 C1576 1.465 . S
C1571 C1566 1.399 . S
C1571 C1570 1.394 . S
C1571 C1572 1.516 . S
C1572 C1571 1.516 . S
C1572 C1573 1.502 . S
C1572 C1574 1.561 . S
C1572 C1575 1.526 . S
C1573 H1557 0.959 . S
C1573 H1558 0.959 . S
C1573 H1559 0.961 . S
C1573 C1572 1.502 . S
C1574 H1560 0.960 . S
C1574 H1561 0.961 . S
C1574 H1562 0.959 . S
C1574 C1572 1.561 . S
C1575 C1572 1.526 . S
C1575 C1576 1.396 . S
C1575 C1580 1.390 . S
C1576 C1570 1.465 . S
C1576 C1575 1.396 . S
C1576 C1577 1.399 . S
C1577 H1563 0.929 . S
C1577 C1576 1.399 . S
C1577 C1578 1.385 . S
C1578 H1564 0.931 . S
C1578 C1577 1.385 . S
C1578 C1579 1.389 . S
C1579 C1578 1.389 . S
C1579 C1580 1.387 . S
C1580 H1565 0.930 . S
C1580 C1575 1.390 . S
C1580 C1579 1.387 . S
H1581 C1593 0.930 1_554 S
H1582 C1595 0.930 . S
H1583 C1596 0.930 1_565 S
H1584 C1600 0.959 . S
H1585 C1600 0.959 . S
H1586 C1600 0.961 . S
H1587 C1601 0.960 1_545 S
H1588 C1601 0.961 . S
H1589 C1601 0.959 . S
H1590 C1604 0.929 . S
H1591 C1605 0.931 . S
H1592 C1607 0.930 . S
C1593 H1581 0.930 1_556 S
C1593 C1594 1.399 . S
C1593 C1598 1.399 1_545 S
C1594 C1593 1.399 . S
C1594 C1595 1.376 . S
C1595 H1582 0.930 . S
C1595 C1594 1.376 . S
C1595 C1596 1.388 . S
C1596 H1583 0.930 1_545 S
C1596 C1595 1.388 . S
C1596 C1597 1.390 1_545 S
C1597 C1596 1.390 1_565 S
C1597 C1598 1.394 . S
C1597 C1603 1.465 . S
C1598 C1593 1.399 1_565 S
C1598 C1597 1.394 . S
C1598 C1599 1.516 . S
C1599 C1598 1.516 . S
C1599 C1600 1.502 1_556 S
C1599 C1601 1.561 . S
C1599 C1602 1.526 . S
C1600 H1584 0.959 . S
C1600 H1585 0.959 . S
C1600 H1586 0.961 . S
C1600 C1599 1.502 1_554 S
C1601 H1587 0.960 1_565 S
C1601 H1588 0.961 . S
C1601 H1589 0.959 . S
C1601 C1599 1.561 . S
C1602 C1599 1.526 . S
C1602 C1603 1.396 . S
C1602 C1607 1.390 . S
C1603 C1597 1.465 . S
C1603 C1602 1.396 . S
C1603 C1604 1.399 . S
C1604 H1590 0.929 . S
C1604 C1603 1.399 . S
C1604 C1605 1.385 . S
C1605 H1591 0.931 . S
C1605 C1604 1.385 . S
C1605 C1606 1.389 . S
C1606 C1605 1.389 . S
C1606 C1607 1.387 . S
C1607 H1592 0.930 . S
C1607 C1602 1.390 . S
C1607 C1606 1.387 . S
H1608 C1620 0.930 . S
H1609 C1622 0.930 . S
H1610 C1623 0.930 . S
H1611 C1627 0.959 . S
H1612 C1627 0.959 . S
H1613 C1627 0.961 . S
H1614 C1628 0.960 . S
H1615 C1628 0.961 . S
H1616 C1628 0.959 . S
H1617 C1631 0.929 . S
H1618 C1632 0.931 . S
H1619 C1634 0.930 . S
C1620 H1608 0.930 . S
C1620 C1621 1.399 . S
C1620 C1625 1.399 . S
C1621 C1620 1.399 . S
C1621 C1622 1.376 . S
C1622 H1609 0.930 . S
C1622 C1621 1.376 . S
C1622 C1623 1.388 . S
C1623 H1610 0.930 . S
C1623 C1622 1.388 . S
C1623 C1624 1.390 . S
C1624 C1623 1.390 . S
C1624 C1625 1.394 . S
C1624 C1630 1.465 . S
C1625 C1620 1.399 . S
C1625 C1624 1.394 . S
C1625 C1626 1.516 . S
C1626 C1625 1.516 . S
C1626 C1627 1.502 . S
C1626 C1628 1.561 . S
C1626 C1629 1.526 . S
C1627 H1611 0.959 . S
C1627 H1612 0.959 . S
C1627 H1613 0.961 . S
C1627 C1626 1.502 . S
C1628 H1614 0.960 . S
C1628 H1615 0.961 . S
C1628 H1616 0.959 . S
C1628 C1626 1.561 . S
C1629 C1626 1.526 . S
C1629 C1630 1.396 . S
C1629 C1634 1.390 . S
C1630 C1624 1.465 . S
C1630 C1629 1.396 . S
C1630 C1631 1.399 . S
C1631 H1617 0.929 . S
C1631 C1630 1.399 . S
C1631 C1632 1.385 . S
C1632 H1618 0.931 . S
C1632 C1631 1.385 . S
C1632 C1633 1.389 . S
C1633 C1632 1.389 . S
C1633 C1634 1.387 . S
C1634 H1619 0.930 . S
C1634 C1629 1.390 . S
C1634 C1633 1.387 . S
H1635 C1647 0.930 . S
H1636 C1649 0.930 . S
H1637 C1650 0.930 . S
H1638 C1654 0.959 . S
H1639 C1654 0.959 . S
H1640 C1654 0.961 1_556 S
H1641 C1655 0.960 . S
H1642 C1655 0.961 . S
H1643 C1655 0.959 . S
H1644 C1658 0.929 . S
H1645 C1659 0.931 . S
H1646 C1661 0.930 . S
C1647 H1635 0.930 . S
C1647 C1648 1.399 . S
C1647 C1652 1.399 . S
C1648 C1647 1.399 . S
C1648 C1649 1.376 . S
C1649 H1636 0.930 . S
C1649 C1648 1.376 . S
C1649 C1650 1.388 . S
C1650 H1637 0.930 . S
C1650 C1649 1.388 . S
C1650 C1651 1.390 . S
C1651 C1650 1.390 . S
C1651 C1652 1.394 . S
C1651 C1657 1.465 . S
C1652 C1647 1.399 . S
C1652 C1651 1.394 . S
C1652 C1653 1.516 . S
C1653 C1652 1.516 . S
C1653 C1654 1.502 . S
C1653 C1655 1.561 . S
C1653 C1656 1.526 . S
C1654 H1638 0.959 . S
C1654 H1639 0.959 . S
C1654 H1640 0.961 1_554 S
C1654 C1653 1.502 . S
C1655 H1641 0.960 . S
C1655 H1642 0.961 . S
C1655 H1643 0.959 . S
C1655 C1653 1.561 . S
C1656 C1653 1.526 . S
C1656 C1657 1.396 . S
C1656 C1661 1.390 . S
C1657 C1651 1.465 . S
C1657 C1656 1.396 . S
C1657 C1658 1.399 . S
C1658 H1644 0.929 . S
C1658 C1657 1.399 . S
C1658 C1659 1.385 . S
C1659 H1645 0.931 . S
C1659 C1658 1.385 . S
C1659 C1660 1.389 . S
C1660 C1659 1.389 . S
C1660 C1661 1.387 . S
C1661 H1646 0.930 . S
C1661 C1656 1.390 . S
C1661 C1660 1.387 . S
H1662 C1674 0.930 . S
H1663 C1676 0.930 . S
H1664 C1677 0.930 . S
H1665 C1681 0.959 . S
H1666 C1681 0.959 . S
H1667 C1681 0.961 . S
H1668 C1682 0.960 . S
H1669 C1682 0.961 . S
H1670 C1682 0.959 . S
H1671 C1685 0.929 . S
H1672 C1686 0.931 . S
H1673 C1688 0.930 . S
C1674 H1662 0.930 . S
C1674 C1675 1.399 . S
C1674 C1679 1.399 . S
C1675 C1674 1.399 . S
C1675 C1676 1.376 . S
C1676 H1663 0.930 . S
C1676 C1675 1.376 . S
C1676 C1677 1.388 . S
C1677 H1664 0.930 . S
C1677 C1676 1.388 . S
C1677 C1678 1.390 . S
C1678 C1677 1.390 . S
C1678 C1679 1.394 . S
C1678 C1684 1.465 . S
C1679 C1674 1.399 . S
C1679 C1678 1.394 . S
C1679 C1680 1.516 . S
C1680 C1679 1.516 . S
C1680 C1681 1.502 . S
C1680 C1682 1.561 . S
C1680 C1683 1.526 . S
C1681 H1665 0.959 . S
C1681 H1666 0.959 . S
C1681 H1667 0.961 . S
C1681 C1680 1.502 . S
C1682 H1668 0.960 . S
C1682 H1669 0.961 . S
C1682 H1670 0.959 . S
C1682 C1680 1.561 . S
C1683 C1680 1.526 . S
C1683 C1684 1.396 . S
C1683 C1688 1.390 . S
C1684 C1678 1.465 . S
C1684 C1683 1.396 . S
C1684 C1685 1.399 . S
C1685 H1671 0.929 . S
C1685 C1684 1.399 . S
C1685 C1686 1.385 . S
C1686 H1672 0.931 . S
C1686 C1685 1.385 . S
C1686 C1687 1.389 . S
C1687 C1686 1.389 . S
C1687 C1688 1.387 . S
C1688 H1673 0.930 . S
C1688 C1683 1.390 . S
C1688 C1687 1.387 . S
H1689 C1701 0.930 . S
H1690 C1703 0.930 . S
H1691 C1704 0.930 . S
H1692 C1708 0.959 . S
H1693 C1708 0.959 . S
H1694 C1708 0.961 . S
H1695 C1709 0.960 . S
H1696 C1709 0.961 . S
H1697 C1709 0.959 . S
H1698 C1712 0.929 . S
H1699 C1713 0.931 . S
H1700 C1715 0.930 . S
C1701 H1689 0.930 . S
C1701 C1702 1.399 . S
C1701 C1706 1.399 . S
C1702 C1701 1.399 . S
C1702 C1703 1.376 . S
C1703 H1690 0.930 . S
C1703 C1702 1.376 . S
C1703 C1704 1.388 . S
C1704 H1691 0.930 . S
C1704 C1703 1.388 . S
C1704 C1705 1.390 . S
C1705 C1704 1.390 . S
C1705 C1706 1.394 . S
C1705 C1711 1.465 . S
C1706 C1701 1.399 . S
C1706 C1705 1.394 . S
C1706 C1707 1.516 . S
C1707 C1706 1.516 . S
C1707 C1708 1.502 . S
C1707 C1709 1.561 . S
C1707 C1710 1.526 . S
C1708 H1692 0.959 . S
C1708 H1693 0.959 . S
C1708 H1694 0.961 . S
C1708 C1707 1.502 . S
C1709 H1695 0.960 . S
C1709 H1696 0.961 . S
C1709 H1697 0.959 . S
C1709 C1707 1.561 . S
C1710 C1707 1.526 . S
C1710 C1711 1.396 . S
C1710 C1715 1.390 . S
C1711 C1705 1.465 . S
C1711 C1710 1.396 . S
C1711 C1712 1.399 . S
C1712 H1698 0.929 . S
C1712 C1711 1.399 . S
C1712 C1713 1.385 . S
C1713 H1699 0.931 . S
C1713 C1712 1.385 . S
C1713 C1714 1.389 . S
C1714 C1713 1.389 . S
C1714 C1715 1.387 . S
C1715 H1700 0.930 . S
C1715 C1710 1.390 . S
C1715 C1714 1.387 . S
C445 C416 1.206 . S
C433 C8 1.306 . S
C460 C23 1.179 . S
C472 C345 1.126 . S
C487 C35 1.344 . S
C499 C374 1.213 . S
C526 C387 0.865 . S
C514 C45 1.214 . S
C541 C22 1.333 . S
C553 C408 1.128 . S
C580 C353 0.959 . S
C568 C31 1.156 . S
C607 C366 1.184 . S
C595 C49 1.363 . S
C634 C395 1.131 . S
C622 C9 1.134 . S
C649 C65 1.272 . S
C661 C397 1.184 . S
C688 C411 1.065 . S
C676 C73 1.152 . S
C715 C355 1.196 . S
C703 C93 1.326 1_565 S
C742 C369 1.089 . S
C730 C101 1.171 . S
C757 C59 1.276 . S
C769 C348 1.265 . S
C784 C79 1.223 . S
C796 C376 1.040 . S
C811 C87 1.274 . S
C823 C390 1.262 . S
C850 C418 1.179 . S
C838 C107 1.199 . S
C877 C227 1.362 . S
C865 C106 1.372 . S
C904 C208 1.150 . S
C892 C119 1.303 . S
C931 C222 1.059 . S
C919 C134 1.248 . S
C958 C243 1.202 . S
C946 C147 1.292 . S
C973 C64 1.217 . S
C985 C229 0.944 . S
C1000 C78 1.365 . S
C1012 C180 1.302 . S
C1027 C133 1.248 . S
C1039 C240 0.859 . S
C1054 C161 1.219 . S
C1066 C206 0.952 . S
C1093 C269 1.293 . S
C1081 C36 1.331 . S
C1120 C282 1.044 . S
C1108 C51 1.130 . S
C1135 C7 1.343 . S
C1147 C311 1.223 . S
C1162 C17 1.206 . S
C1174 C324 0.862 . S
C1201 C261 1.189 . S
C1189 C50 1.311 . S
C1228 C290 1.119 . S
C1216 C3 1.139 . S
C1243 C21 1.358 . S
C1255 C303 1.145 . S
C1282 C332 1.013 . S
C1270 C37 1.187 . S
C1297 C163 1.246 . S
C1309 C334 1.281 . S
C1324 C115 1.135 . S
C1336 C264 1.042 . S
C1363 C292 1.215 . S
C1351 C135 1.309 . S
C1378 C143 1.144 . S
C1390 C306 0.892 . S
C1417 C285 1.269 . S
C1405 C157 1.329 . S
C1432 C121 1.213 . S
C1444 C313 1.033 . S
C1471 C327 1.167 . S
C1459 C129 1.309 . S
C1498 C271 1.163 . S
C1486 C149 1.182 . S
C1525 C187 1.332 . S
C1513 C148 1.367 . S
C1552 C250 1.278 . S
C1540 C77 1.340 . S
C1567 C92 1.211 . S
C1579 C177 1.132 . S
C1606 C201 1.155 . S
C1594 C105 1.317 . S
C1633 C185 1.152 . S
C1621 C162 1.173 . S
C1648 C120 1.350 . S
C1660 C219 1.138 . S
C1675 C91 1.191 . S
C1687 C198 1.056 . S
C1702 C63 1.189 . S
C1714 C248 0.930 . S
