# Generated by pormake.
# Topology anh, (6,3)-cn, num edge types: 1
# Building blocks:
#     Node 0, Type 0, BuildingBlock: BETGAK_clean_sbu_0, # of connection points: 6
#     Node 1, Type 0, BuildingBlock: BETGAK_clean_sbu_0, # of connection points: 6
#     Node 2, Type 0, BuildingBlock: BETGAK_clean_sbu_0, # of connection points: 6
#     Node 3, Type 1, BuildingBlock: ESEHIV_clean_linker_0, # of connection points: 3
#     Node 4, Type 1, BuildingBlock: ESEHIV_clean_linker_0, # of connection points: 3
#     Node 5, Type 1, BuildingBlock: ESEHIV_clean_linker_0, # of connection points: 3
#     Node 6, Type 1, BuildingBlock: ESEHIV_clean_linker_0, # of connection points: 3
#     Node 7, Type 1, BuildingBlock: ESEHIV_clean_linker_0, # of connection points: 3
#     Node 8, Type 1, BuildingBlock: ESEHIV_clean_linker_0, # of connection points: 3
#     Edge 9, Type (0, 1), BuildingBlock: XIVTED_clean_linker_0, # of connection points: 2
#     Edge 10, Type (0, 1), BuildingBlock: XIVTED_clean_linker_0, # of connection points: 2
#     Edge 11, Type (0, 1), BuildingBlock: XIVTED_clean_linker_0, # of connection points: 2
#     Edge 12, Type (0, 1), BuildingBlock: XIVTED_clean_linker_0, # of connection points: 2
#     Edge 13, Type (0, 1), BuildingBlock: XIVTED_clean_linker_0, # of connection points: 2
#     Edge 14, Type (0, 1), BuildingBlock: XIVTED_clean_linker_0, # of connection points: 2
#     Edge 15, Type (0, 1), BuildingBlock: XIVTED_clean_linker_0, # of connection points: 2
#     Edge 16, Type (0, 1), BuildingBlock: XIVTED_clean_linker_0, # of connection points: 2
#     Edge 17, Type (0, 1), BuildingBlock: XIVTED_clean_linker_0, # of connection points: 2
#     Edge 18, Type (0, 1), BuildingBlock: XIVTED_clean_linker_0, # of connection points: 2
#     Edge 19, Type (0, 1), BuildingBlock: XIVTED_clean_linker_0, # of connection points: 2
#     Edge 20, Type (0, 1), BuildingBlock: XIVTED_clean_linker_0, # of connection points: 2
#     Edge 21, Type (0, 1), BuildingBlock: XIVTED_clean_linker_0, # of connection points: 2
#     Edge 22, Type (0, 1), BuildingBlock: XIVTED_clean_linker_0, # of connection points: 2
#     Edge 23, Type (0, 1), BuildingBlock: XIVTED_clean_linker_0, # of connection points: 2
#     Edge 24, Type (0, 1), BuildingBlock: XIVTED_clean_linker_0, # of connection points: 2
#     Edge 25, Type (0, 1), BuildingBlock: XIVTED_clean_linker_0, # of connection points: 2
#     Edge 26, Type (0, 1), BuildingBlock: XIVTED_clean_linker_0, # of connection points: 2
# Relax obj value: 0.218
# Max RMSD: 0.224
# Mean RMSD: 0.165
data_MOF--net-anh--node1-BETGAK_clean_sbu_0--node2-ESEHIV_clean_linker_0--edge1-XIVTED_clean_linker_0
_symmetry_space_group_name_H-M    P1
_symmetry_Int_Tables_number       1
_symmetry_cell_setting            triclinic
loop_
_symmetry_equiv_pos_as_xyz
'x, y, z'
_cell_length_a     28.083013
_cell_length_b     35.328784
_cell_length_c     52.279268
_cell_angle_alpha  92.587199
_cell_angle_beta   88.253504
_cell_angle_gamma 130.46231
loop_
_atom_site_label
_atom_site_type_symbol
_atom_site_fract_x
_atom_site_fract_y
_atom_site_fract_z
_atom_type_partial_charge
La0 La 0.1733 0.53545 0.14167 0.0
La1 La 1.09317 0.56016 0.15906 0.0
C2 C 0.25458 0.53522 0.12047 0.0
C3 C 0.3226 0.5734 0.11718 0.0
C4 C 0.35967 0.61032 0.13637 0.0
C5 C 0.42461 0.63974 0.13585 0.0
C6 C 0.45334 0.63219 0.11629 0.0
C7 C 0.41643 0.59875 0.09573 0.0
C8 C 0.35149 0.5695 0.09624 0.0
C9 C 0.14397 0.524 0.19051 0.0
C10 C 0.23684 0.64972 0.15323 0.0
C11 C 1.02788 0.57192 0.18558 0.0
C12 C 0.95967 0.53422 0.18857 0.0
C13 C 0.92506 0.49781 0.16902 0.0
C14 C 0.86265 0.45654 0.17277 0.0
C15 C 0.83297 0.45041 0.19621 0.0
C16 C 0.86702 0.48735 0.21574 0.0
C17 C 0.93041 0.5288 0.21204 0.0
C18 C 1.08915 0.54036 0.10937 0.0
C19 C 1.03101 0.44809 0.14739 0.0
O20 O 0.23584 0.52271 0.1441 0.0
O21 O 0.21958 0.54026 0.10783 0.0
O22 O 0.14664 0.49398 0.17679 0.0
O23 O 0.15877 0.55883 0.17706 0.0
O24 O 0.24432 0.61656 0.14854 0.0
O25 O 0.18097 0.63632 0.15718 0.0
O26 O 1.04832 0.58997 0.1626 0.0
O27 O 1.05762 0.55873 0.19514 0.0
O28 O 1.04193 0.52932 0.12249 0.0
O29 O 0.13604 0.56392 0.12378 0.0
O30 O 1.0309 0.47954 0.16205 0.0
O31 O 1.08067 0.46355 0.1335 0.0
H32 H 0.33822 0.61395 0.15275 0.0
H33 H 0.45175 0.66544 0.15181 0.0
H34 H 0.43676 0.59151 0.08045 0.0
H35 H 0.32362 0.54139 0.08121 0.0
H36 H 0.94661 0.50048 0.15092 0.0
H37 H 0.83731 0.42967 0.15701 0.0
H38 H 0.84483 0.48387 0.23383 0.0
H39 H 0.95681 0.55596 0.22758 0.0
La40 La 0.66291 0.02656 0.47218 0.0
La41 La 0.57222 0.04224 0.46522 0.0
C42 C 0.72202 1.00038 0.48734 0.0
C43 C 0.71221 0.95553 0.49349 0.0
C44 C 0.76417 0.95823 0.49384 0.0
C45 C 0.75731 0.91704 0.50039 0.0
C46 C 0.69816 0.87216 0.50671 0.0
C47 C 0.64573 0.8692 0.50582 0.0
C48 C 0.65275 0.91068 0.49934 0.0
C49 C 0.65323 0.04384 0.42506 0.0
C50 C 0.51689 0.9332 0.46317 0.0
C51 C 0.52052 0.07617 0.45283 0.0
C52 C 0.53544 0.12341 0.46068 0.0
C53 C 0.57297 0.15045 0.48229 0.0
C54 C 0.58776 0.19534 0.48998 0.0
C55 C 0.56583 0.21459 0.47612 0.0
C56 C 0.52842 0.18743 0.45434 0.0
C57 C 0.51339 0.1422 0.44669 0.0
C58 C 0.58477 0.02776 0.51263 0.0
C59 C 0.71947 0.13648 0.47165 0.0
O60 O 0.71639 1.00541 0.46327 0.0
O61 O 0.69643 0.01307 0.50273 0.0
O62 O 0.70509 0.05997 0.43532 0.0
O63 O 0.6086 0.01685 0.44046 0.0
O64 O 0.57071 0.95041 0.47338 0.0
O65 O 0.51009 0.96385 0.45419 0.0
O66 O 0.50012 0.04481 0.47114 0.0
O67 O 0.56299 0.08033 0.43878 0.0
O68 O 0.53268 0.01203 0.50297 0.0
O69 O 0.62785 0.05332 0.49653 0.0
O70 O 0.66298 0.11846 0.46481 0.0
O71 O 0.72991 0.1069 0.47853 0.0
H72 H 0.81036 0.99247 0.48923 0.0
H73 H 0.79845 0.92036 0.50048 0.0
H74 H 0.59963 0.83528 0.51076 0.0
H75 H 0.61208 0.90796 0.49925 0.0
H76 H 0.59061 0.13663 0.49335 0.0
H77 H 0.61561 0.2145 0.50711 0.0
H78 H 0.51128 0.20132 0.44303 0.0
H79 H 0.48473 0.122 0.42984 0.0
La80 La 0.6613 0.57241 0.83742 0.0
La81 La 0.57124 0.46216 0.84044 0.0
C82 C 0.71851 0.66096 0.82541 0.0
C83 C 0.7025 0.69158 0.81829 0.0
C84 C 0.71972 0.73134 0.83461 0.0
C85 C 0.70701 0.76187 0.82795 0.0
C86 C 0.6773 0.75367 0.80466 0.0
C87 C 0.6597 0.71355 0.7884 0.0
C88 C 0.67204 0.6828 0.79515 0.0
C89 C 0.64273 0.53768 0.88327 0.0
C90 C 0.51307 0.51345 0.84307 0.0
C91 C 0.51862 0.37411 0.85146 0.0
C92 C 0.53337 0.34231 0.84342 0.0
C93 C 0.56911 0.35303 0.82126 0.0
C94 C 0.58374 0.32332 0.81352 0.0
C95 C 0.5636 0.28249 0.82793 0.0
C96 C 0.52852 0.27236 0.85039 0.0
C97 C 0.51351 0.30204 0.85805 0.0
C98 C 0.58922 0.49456 0.79384 0.0
C99 C 0.72122 0.52225 0.83781 0.0
O100 O 0.70643 0.64639 0.84905 0.0
O101 O 0.70433 0.62576 0.80906 0.0
O102 O 0.69655 0.57717 0.87534 0.0
O103 O 0.60206 0.52123 0.86642 0.0
O104 O 0.56844 0.55303 0.83428 0.0
O105 O 0.50578 0.47461 0.85073 0.0
O106 O 0.49948 0.38562 0.83323 0.0
O107 O 0.56056 0.41287 0.86605 0.0
O108 O 0.53699 0.45447 0.80223 0.0
O109 O 0.6307 0.51297 0.81076 0.0
O110 O 0.66316 0.47989 0.84134 0.0
O111 O 0.73203 0.56399 0.83355 0.0
H112 H 0.74338 0.739 0.85253 0.0
H113 H 0.72038 0.79185 0.84115 0.0
H114 H 0.63762 0.70651 0.77014 0.0
H115 H 0.65836 0.65258 0.78206 0.0
H116 H 0.58541 0.38431 0.80982 0.0
H117 H 0.60989 0.33191 0.79592 0.0
H118 H 0.51303 0.24175 0.86218 0.0
H119 H 0.48657 0.29365 0.87539 0.0
H120 H 0.56327 0.97272 0.22965 0.0
H121 H 0.71995 0.13038 0.23148 0.0
H122 H 0.64145 0.05039 0.15942 0.0
C123 C 0.59857 1.00711 0.22003 0.0
C124 C 0.5988 1.00623 0.19318 0.0
C125 C 0.64179 0.05159 0.23433 0.0
C126 C 0.68511 0.09573 0.22102 0.0
C127 C 0.68499 0.09593 0.19411 0.0
C128 C 0.64195 0.05078 0.18015 0.0
H129 H 0.65719 0.60787 0.60591 0.0
H130 H 0.63249 0.47471 0.5964 0.0
H131 H 0.64669 0.54946 0.53012 0.0
C132 C 0.65335 0.58062 0.59346 0.0
C133 C 0.65373 0.58396 0.56672 0.0
C134 C 0.6449 0.54102 0.60429 0.0
C135 C 0.63864 0.50524 0.58812 0.0
C136 C 0.63937 0.50802 0.56138 0.0
C137 C 0.64589 0.54705 0.55075 0.0
H138 H 1.03977 0.52732 0.91168 0.0
H139 H 0.18398 0.51748 0.91575 0.0
H140 H 0.11783 0.51681 0.84213 0.0
C141 C 1.07205 0.52426 0.90216 0.0
C142 C 1.07317 0.52204 0.87527 0.0
C143 C 0.11178 0.52282 0.91692 0.0
C144 C 0.15386 0.51932 0.90441 0.0
C145 C 0.15733 0.51735 0.87753 0.0
C146 C 0.11655 0.51887 0.86284 0.0
H147 H 1.04273 0.44864 0.38552 0.0
H148 H 0.19925 0.60644 0.3865 0.0
H149 H 0.11632 0.53147 0.45714 0.0
C150 C 1.07613 0.48392 0.39577 0.0
C151 C 1.0733 0.48513 0.42265 0.0
C152 C 0.12173 0.5272 0.38224 0.0
C153 C 0.16498 0.57205 0.39631 0.0
C154 C 0.16402 0.57373 0.42316 0.0
C155 C 0.1181 0.53013 0.43641 0.0
H156 H 0.6317 0.08858 0.70728 0.0
H157 H 0.62996 0.96606 0.7017 0.0
H158 H 0.63259 0.02585 0.7758 0.0
C159 C 0.63274 0.06223 0.7165 0.0
C160 C 0.63246 0.06149 0.74336 0.0
C161 C 0.63094 0.02746 0.70142 0.0
C162 C 0.63015 0.99232 0.71337 0.0
C163 C 0.6317 0.9919 0.74019 0.0
C164 C 0.6324 0.02642 0.75509 0.0
H165 H 0.60871 0.49716 0.05514 0.0
H166 H 0.55964 0.35583 0.06517 0.0
H167 H 0.59778 0.45009 0.13092 0.0
C168 C 0.60035 0.4701 0.06795 0.0
C169 C 0.60459 0.47902 0.0945 0.0
C170 C 0.58494 0.42627 0.05745 0.0
C171 C 0.57128 0.38959 0.07349 0.0
C172 C 0.57399 0.39728 0.10026 0.0
C173 C 0.59168 0.44247 0.11045 0.0
H174 H 0.50161 0.63156 0.16065 0.0
H175 H 0.68281 0.57354 0.07512 0.0
H176 H 0.54778 0.66725 0.08101 0.0
H177 H 0.55993 0.49073 0.13898 0.0
H178 H 0.68259 0.64108 0.08725 0.0
H179 H 0.57757 0.61986 0.16253 0.0
C180 C 0.52974 0.63933 0.1438 0.0
C181 C 0.51624 0.64816 0.12024 0.0
C182 C 0.65746 0.60869 0.099 0.0
C183 C 0.60198 0.63349 0.1223 0.0
C184 C 0.65663 0.56971 0.09192 0.0
C185 C 0.61886 0.52513 0.10531 0.0
C186 C 0.62115 0.60331 0.11983 0.0
C187 C 0.58892 0.52372 0.12771 0.0
C188 C 0.57291 0.63221 0.14491 0.0
C189 C 0.55492 0.65831 0.09926 0.0
N190 N 0.58977 0.56181 0.13396 0.0
N191 N 0.59475 0.64903 0.10051 0.0
H192 H 0.84459 0.18959 0.48182 0.0
H193 H 0.949 0.43343 0.41727 0.0
H194 H 0.71511 0.20789 0.45764 0.0
H195 H 1.07981 0.43128 0.45654 0.0
H196 H 0.86272 0.35142 0.4335 0.0
H197 H 0.93135 0.27803 0.47442 0.0
C198 C 0.83424 0.2122 0.47524 0.0
C199 C 0.7723 0.19095 0.47013 0.0
C200 C 0.91011 0.36895 0.43892 0.0
C201 C 0.87153 0.29215 0.46143 0.0
C202 C 0.9593 0.41579 0.42968 0.0
C203 C 1.02138 0.439 0.43566 0.0
C204 C 0.92295 0.34446 0.4539 0.0
C205 C 1.03243 0.41461 0.45168 0.0
C206 C 0.88386 0.26273 0.47103 0.0
C207 C 0.76194 0.22228 0.46167 0.0
N208 N 0.98368 0.36827 0.46 0.0
N209 N 0.81093 0.27096 0.45736 0.0
H210 H 0.57607 0.72974 0.77921 0.0
H211 H 0.70854 1.01007 0.7788 0.0
H212 H 0.75321 0.85508 0.81267 0.0
H213 H 0.56011 0.89207 0.72919 0.0
H214 H 0.71643 0.95128 0.7965 0.0
H215 H 0.56138 0.78666 0.76529 0.0
C216 C 0.61199 0.76918 0.7836 0.0
C217 C 0.66618 0.78751 0.79705 0.0
C218 C 0.68195 0.93822 0.78182 0.0
C219 C 0.64898 0.85282 0.78151 0.0
C220 C 0.67715 0.97165 0.77186 0.0
C221 C 0.63383 0.95593 0.75242 0.0
C222 C 0.64277 0.88863 0.77244 0.0
C223 C 0.59467 0.90583 0.74394 0.0
C224 C 0.60335 0.80161 0.77575 0.0
C225 C 0.71033 0.83899 0.80266 0.0
N226 N 0.60011 0.87398 0.75398 0.0
N227 N 0.7008 0.86978 0.79483 0.0
H228 H 0.76764 0.35187 0.18311 0.0
H229 H 0.61657 0.34622 0.09374 0.0
H230 H 0.74251 0.45353 0.21307 0.0
H231 H 0.51652 0.36861 0.14743 0.0
H232 H 0.64387 0.32026 0.12828 0.0
H233 H 0.66097 0.29747 0.16624 0.0
C234 C 0.73871 0.36172 0.18704 0.0
C235 C 0.76481 0.40854 0.19813 0.0
C236 C 0.6135 0.32857 0.13258 0.0
C237 C 0.64444 0.34766 0.17841 0.0
C238 C 0.59789 0.34361 0.11263 0.0
C239 C 0.56722 0.36232 0.11796 0.0
C240 C 0.60006 0.33398 0.158 0.0
C241 C 0.54342 0.35712 0.14279 0.0
C242 C 0.67802 0.3308 0.17729 0.0
C243 C 0.72491 0.41864 0.20372 0.0
N244 N 0.56273 0.3456 0.16216 0.0
N245 N 0.66712 0.38921 0.193 0.0
H246 H 0.51795 0.85679 0.46951 0.0
H247 H 0.15286 0.64272 0.43697 0.0
H248 H 0.39446 0.88505 0.45208 0.0
H249 H 0.2823 0.61617 0.43744 0.0
H250 H 0.23776 0.72988 0.45022 0.0
H251 H 0.42967 0.76718 0.46466 0.0
C252 C 0.4723 0.84424 0.46483 0.0
C253 C 0.46383 0.87866 0.46104 0.0
C254 C 0.24751 0.70488 0.44786 0.0
C255 C 0.36242 0.77603 0.45563 0.0
C256 C 0.19893 0.65511 0.4406 0.0
C257 C 0.21071 0.62238 0.43656 0.0
C258 C 0.30843 0.7221 0.45091 0.0
C259 C 0.27141 0.6403 0.44081 0.0
C260 C 0.42192 0.79304 0.46203 0.0
C261 C 0.40347 0.86005 0.45495 0.0
N262 N 0.31817 0.68905 0.44763 0.0
N263 N 0.35526 0.81015 0.45243 0.0
H264 H 0.48903 0.1808 0.8308 0.0
H265 H 0.70342 0.16183 0.73849 0.0
H266 H 0.67077 0.31 0.80462 0.0
H267 H 0.55354 0.03929 0.78325 0.0
H268 H 0.69098 0.21662 0.7618 0.0
H269 H 0.51067 0.12804 0.81331 0.0
C270 C 0.53381 0.19825 0.82169 0.0
C271 C 0.57786 0.25008 0.81904 0.0
C272 C 0.66122 0.17786 0.76672 0.0
C273 C 0.60231 0.18953 0.79845 0.0
C274 C 0.66816 0.1466 0.75336 0.0
C275 C 0.62933 0.09599 0.75892 0.0
C276 C 0.61442 0.15823 0.78552 0.0
C277 C 0.58469 0.07817 0.77849 0.0
C278 C 0.54597 0.16799 0.81158 0.0
C279 C 0.63468 0.27023 0.80663 0.0
N280 N 0.57796 0.10914 0.7909 0.0
N281 N 0.64498 0.23992 0.79661 0.0
H282 H 0.77473 0.87435 0.53897 0.0
H283 H 0.58792 0.58118 0.52767 0.0
H284 H 0.60781 0.77262 0.49335 0.0
H285 H 0.73795 0.68249 0.5811 0.0
H286 H 0.59885 0.651 0.51204 0.0
H287 H 0.76588 0.80464 0.552 0.0
C288 C 0.73635 0.83732 0.53155 0.0
C289 C 0.69209 0.82941 0.51494 0.0
C290 C 0.62941 0.65789 0.52715 0.0
C291 C 0.68131 0.74898 0.53002 0.0
C292 C 0.6235 0.61816 0.53594 0.0
C293 C 0.66186 0.626 0.55582 0.0
C294 C 0.67437 0.70584 0.53818 0.0
C295 C 0.70681 0.6746 0.566 0.0
C296 C 0.73112 0.79742 0.53913 0.0
C297 C 0.64271 0.78039 0.50634 0.0
N298 N 0.71176 0.71255 0.55709 0.0
N299 N 0.63873 0.74202 0.51392 0.0
H300 H 0.84865 0.60283 0.83764 0.0
H301 H 0.95524 0.44179 0.8585 0.0
H302 H 0.7186 0.44293 0.84197 0.0
H303 H 1.08181 0.6017 0.86431 0.0
H304 H 0.87048 0.44135 0.84703 0.0
H305 H 0.93549 0.60304 0.84257 0.0
C306 C 0.83808 0.56763 0.83943 0.0
C307 C 0.77544 0.52279 0.83938 0.0
C308 C 0.91702 0.47668 0.85028 0.0
C309 C 0.87605 0.52282 0.84508 0.0
C310 C 0.96578 0.47693 0.85646 0.0
C311 C 1.02654 0.52191 0.86162 0.0
C312 C 0.92841 0.52179 0.84941 0.0
C313 C 1.03637 0.5662 0.85978 0.0
C314 C 0.88802 0.56783 0.84231 0.0
C315 C 0.76565 0.47856 0.84191 0.0
N316 N 0.98818 0.56503 0.85393 0.0
N317 N 0.81498 0.47974 0.84465 0.0
H318 H 0.36054 0.69246 0.15439 0.0
H319 H 0.49168 0.97267 0.1695 0.0
H320 H 0.24184 0.73013 0.15568 0.0
H321 H 0.59817 0.92911 0.18805 0.0
H322 H 0.40423 0.88607 0.15589 0.0
H323 H 0.45197 0.7808 0.15886 0.0
C324 C 0.35355 0.71919 0.15545 0.0
C325 C 0.29309 0.70352 0.15487 0.0
C326 C 0.44715 0.89563 0.1625 0.0
C327 C 0.39812 0.80523 0.15985 0.0
C328 C 0.49715 0.94504 0.16995 0.0
C329 C 0.55214 0.95782 0.17956 0.0
C330 C 0.45246 0.85895 0.16467 0.0
C331 C 0.55663 0.92063 0.18044 0.0
C332 C 0.40593 0.76975 0.15804 0.0
C333 C 0.28738 0.74027 0.15628 0.0
N334 N 0.50738 0.87285 0.17321 0.0
N335 N 0.33913 0.78932 0.15876 0.0
H336 H 0.6761 0.29862 0.49676 0.0
H337 H 0.5573 0.45081 0.52183 0.0
H338 H 0.49141 0.24002 0.47532 0.0
H339 H 0.70709 0.4779 0.56384 0.0
H340 H 0.54224 0.38221 0.49778 0.0
H341 H 0.69751 0.37326 0.51466 0.0
C342 C 0.63991 0.30129 0.49581 0.0
C343 C 0.58136 0.26232 0.48484 0.0
C344 C 0.57866 0.40347 0.51214 0.0
C345 C 0.60634 0.3486 0.50495 0.0
C346 C 0.58749 0.4427 0.52571 0.0
C347 C 0.63323 0.46973 0.54491 0.0
C348 C 0.61655 0.39186 0.51759 0.0
C349 C 0.6709 0.45761 0.54936 0.0
C350 C 0.65238 0.34414 0.50593 0.0
C351 C 0.53725 0.26898 0.48348 0.0
N352 N 0.66172 0.41961 0.53583 0.0
N353 N 0.55051 0.31114 0.49355 0.0
H354 H 0.50867 0.58656 0.82996 0.0
H355 H 0.1575 0.44091 0.88292 0.0
H356 H 0.39346 0.4406 0.8616 0.0
H357 H 0.26484 0.58375 0.84861 0.0
H358 H 0.24178 0.4391 0.87289 0.0
H359 H 0.42071 0.58593 0.83485 0.0
C360 C 0.465 0.55425 0.83788 0.0
C361 C 0.45923 0.51356 0.84539 0.0
C362 C 0.24693 0.47065 0.86715 0.0
C363 C 0.35722 0.51267 0.85107 0.0
C364 C 0.19829 0.47147 0.87268 0.0
C365 C 0.20312 0.51211 0.86624 0.0
C366 C 0.30226 0.51118 0.8553 0.0
C367 C 0.25816 0.55113 0.8535 0.0
C368 C 0.41455 0.55395 0.84064 0.0
C369 C 0.40087 0.47295 0.85551 0.0
N370 N 0.30551 0.54988 0.84866 0.0
N371 N 0.35279 0.47366 0.85807 0.0
H372 H 0.91635 0.40754 0.16671 0.0
H373 H 0.77405 0.124 0.15723 0.0
H374 H 1.01762 0.36572 0.13111 0.0
H375 H 0.69732 0.17817 0.2026 0.0
H376 H 0.85553 0.20864 0.14132 0.0
H377 H 0.82792 0.32054 0.17341 0.0
C378 C 0.91994 0.38001 0.16007 0.0
C379 C 0.97505 0.3943 0.14852 0.0
C380 C 0.82038 0.20176 0.15452 0.0
C381 C 0.87299 0.29347 0.15649 0.0
C382 C 0.77376 0.15351 0.16344 0.0
C383 C 0.72922 0.14431 0.18132 0.0
C384 C 0.82175 0.24067 0.16339 0.0
C385 C 0.73107 0.1838 0.18897 0.0
C386 C 0.86917 0.33008 0.16398 0.0
C387 C 0.97621 0.35649 0.14016 0.0
N388 N 0.77654 0.23005 0.18006 0.0
N389 N 0.92613 0.30776 0.14455 0.0
H390 H 0.99076 0.48684 0.07591 0.0
H391 H 0.20935 0.57412 0.95121 0.0
H392 H 0.19204 0.5837 0.07866 0.0
H393 H 1.00775 0.47564 0.94795 0.0
H394 H 0.20362 0.57671 -0.00209 0.0
H395 H 0.99553 0.48125 0.02908 0.0
C396 C 1.03592 0.50672 0.06664 0.0
C397 C 1.09104 0.53545 0.08117 0.0
C398 C 0.16059 0.55449 0.987 0.0
C399 C 1.09705 0.52948 0.02763 0.0
C400 C 0.16381 0.55277 0.96028 0.0
C401 C 0.10896 0.52464 0.94549 0.0
C402 C 0.10207 0.52788 -0.0008 0.0
C403 C 1.05136 0.4984 0.95846 0.0
C404 C 1.03867 0.50355 0.03992 0.0
C405 C 0.14834 0.56055 0.06822 0.0
N406 N 1.04944 0.50067 0.98449 0.0
N407 N 0.14986 0.55706 0.04223 0.0
H408 H 0.55417 0.9736 0.39422 0.0
H409 H 0.67518 0.12715 0.26887 0.0
H410 H 0.73693 0.1196 0.39371 0.0
H411 H 0.60703 0.97649 0.26595 0.0
H412 H 0.67624 0.12677 0.31557 0.0
H413 H 0.5488 0.97583 0.34743 0.0
C414 C 0.59262 1.00636 0.38427 0.0
C415 C 0.64624 0.04641 0.39759 0.0
C416 C 0.66078 0.09388 0.30449 0.0
C417 C 0.63976 0.04951 0.34473 0.0
C418 C 0.66071 0.09405 0.27778 0.0
C419 C 0.6413 0.05183 0.263 0.0
C420 C 0.63947 0.0508 0.31661 0.0
C421 C 0.62113 1.00966 0.27616 0.0
C422 C 0.58966 1.00746 0.35772 0.0
C423 C 0.69504 0.08793 0.38395 0.0
N424 N 0.62027 1.0101 0.30217 0.0
N425 N 0.69054 0.08863 0.35818 0.0
H426 H 0.69967 0.56959 0.76974 0.0
H427 H 0.55492 0.45786 0.63044 0.0
H428 H 0.50449 0.44497 0.7555 0.0
H429 H 0.72114 0.61146 0.64204 0.0
H430 H 0.54338 0.4489 0.67677 0.0
H431 H 0.71558 0.58332 0.72335 0.0
C432 C 0.66022 0.54546 0.75691 0.0
C433 C 0.6007 0.50611 0.76642 0.0
C434 C 0.58243 0.48462 0.66922 0.0
C435 C 0.61871 0.52081 0.71369 0.0
C436 C 0.58928 0.48961 0.64279 0.0
C437 C 0.63909 0.53542 0.63243 0.0
C438 C 0.62609 0.52555 0.68553 0.0
C439 C 0.68187 0.57557 0.64933 0.0
C440 C 0.66931 0.55322 0.73052 0.0
C441 C 0.55121 0.47565 0.749 0.0
N442 N 0.67462 0.56968 0.67512 0.0
N443 N 0.56143 0.48338 0.72353 0.0
H444 H 0.49598 0.96197 0.54663 0.0
H445 H 0.70781 0.10524 0.66957 0.0
H446 H 0.69341 0.08698 0.54029 0.0
H447 H 0.54704 0.94853 0.66931 0.0
H448 H 0.69956 0.10373 0.62282 0.0
H449 H 0.50958 0.96015 0.59251 0.0
C450 C 0.54222 0.98889 0.55495 0.0
C451 C 0.59364 0.02475 0.53982 0.0
C452 C 0.66643 0.06965 0.63302 0.0
C453 C 0.60934 0.02342 0.59214 0.0
C454 C 0.67089 0.07057 0.65961 0.0
C455 C 0.62801 0.02694 0.67318 0.0
C456 C 0.61793 0.02504 0.62006 0.0
C457 C 0.58119 0.98286 0.65946 0.0
C458 C 0.54998 0.98774 0.58104 0.0
C459 C 0.65265 0.05873 0.55139 0.0
N460 N 0.57696 0.98312 0.63366 0.0
N461 N 0.65883 0.05765 0.577 0.0
H462 H 0.53049 0.46132 0.90388 0.0
H463 H 0.68503 0.45748 0.0284 0.0
H464 H 0.72946 0.5558 0.91627 0.0
H465 H 0.49141 0.39026 0.02373 0.0
H466 H 0.69796 0.47627 0.9829 0.0
H467 H 0.51219 0.41992 0.94377 0.0
C468 C 0.57031 0.47319 0.91501 0.0
C469 C 0.63155 0.5123 0.90705 0.0
C470 C 0.65221 0.45624 0.99162 0.0
C471 C 0.61107 0.465 0.95244 0.0
C472 C 0.64469 0.44492 0.01741 0.0
C473 C 0.58696 0.42186 0.02946 0.0
C474 C 0.60166 0.44474 0.97802 0.0
C475 C 0.53635 0.40747 0.01483 0.0
C476 C 0.55985 0.44949 0.93769 0.0
C477 C 0.68153 0.52614 0.92199 0.0
N478 N 0.54503 0.4197 0.98986 0.0
N479 N 0.67019 0.50262 0.94408 0.0
H480 H 1.07532 0.44249 0.22024 0.0
H481 H 0.22478 0.58546 0.35055 0.0
H482 H 0.19532 0.60261 0.22404 0.0
H483 H 1.02407 0.46567 0.34782 0.0
H484 H 0.22672 0.58489 0.30391 0.0
H485 H 1.06672 0.44206 0.26734 0.0
C486 C 1.09975 0.47742 0.23104 0.0
C487 C 0.13608 0.52265 0.21847 0.0
C488 C 0.18245 0.55882 0.31371 0.0
C489 C 0.12788 0.52244 0.27174 0.0
C490 C 0.18096 0.55925 0.34039 0.0
C491 C 0.12398 0.52589 0.35358 0.0
C492 C 0.12708 0.52382 0.29994 0.0
C493 C 1.06939 0.49162 0.33883 0.0
C494 C 1.09465 0.47711 0.25772 0.0
C495 C 0.16673 0.567 0.23313 0.0
N496 N 1.07238 0.49118 0.31281 0.0
N497 N 0.16278 0.56589 0.25909 0.0
loop_
_geom_bond_atom_site_label_1
_geom_bond_atom_site_label_2
_geom_bond_distance
_geom_bond_site_symmetry_2
_ccdc_geom_bond_type
La0 C2 2.928 . S
La0 O20 2.521 . S
La0 O21 2.628 . S
La0 O22 2.554 . S
La0 O23 2.757 . S
La0 O24 2.470 . S
La0 O29 2.482 . S
La0 O31 2.503 1_455 S
La1 C11 2.928 . S
La1 O23 2.482 1_655 S
La1 O25 2.503 1_655 S
La1 O26 2.521 . S
La1 O27 2.628 . S
La1 O28 2.554 . S
La1 O29 2.757 1_655 S
La1 O30 2.470 . S
C2 La0 2.928 . S
C2 C3 1.503 . S
C2 O20 1.261 . S
C2 O21 1.243 . S
C3 C2 1.503 . S
C3 C4 1.394 . S
C3 C8 1.373 . S
C4 C3 1.394 . S
C4 C5 1.380 . S
C4 H32 0.930 . S
C5 C4 1.380 . S
C5 C6 1.376 . S
C5 H33 0.930 . S
C6 C5 1.376 . S
C6 C7 1.370 . S
C7 C6 1.370 . S
C7 C8 1.396 . S
C7 H34 0.929 . S
C8 C3 1.373 . S
C8 C7 1.396 . S
C8 H35 0.929 . S
C9 O22 1.240 . S
C9 O23 1.289 . S
C10 O24 1.258 . S
C10 O25 1.256 . S
C11 La1 2.928 . S
C11 C12 1.503 . S
C11 O26 1.261 . S
C11 O27 1.243 . S
C12 C11 1.503 . S
C12 C13 1.394 . S
C12 C17 1.373 . S
C13 C12 1.394 . S
C13 C14 1.380 . S
C13 H36 0.930 . S
C14 C13 1.380 . S
C14 C15 1.376 . S
C14 H37 0.930 . S
C15 C14 1.376 . S
C15 C16 1.370 . S
C16 C15 1.370 . S
C16 C17 1.396 . S
C16 H38 0.929 . S
C17 C12 1.373 . S
C17 C16 1.396 . S
C17 H39 0.929 . S
C18 O28 1.240 1_455 S
C18 O29 1.289 . S
C19 O30 1.258 . S
C19 O31 1.256 . S
O20 La0 2.521 . S
O20 C2 1.261 . S
O21 La0 2.628 . S
O21 C2 1.243 . S
O22 La0 2.554 . S
O22 C9 1.240 . S
O23 La0 2.757 . S
O23 La1 2.482 1_455 S
O23 C9 1.289 . S
O24 La0 2.470 . S
O24 C10 1.258 . S
O25 La1 2.503 1_455 S
O25 C10 1.256 . S
O26 La1 2.521 . S
O26 C11 1.261 . S
O27 La1 2.628 . S
O27 C11 1.243 . S
O28 La1 2.554 . S
O28 C18 1.240 1_655 S
O29 La0 2.482 . S
O29 La1 2.757 1_455 S
O29 C18 1.289 . S
O30 La1 2.470 . S
O30 C19 1.258 . S
O31 La0 2.503 1_655 S
O31 C19 1.256 . S
H32 C4 0.930 . S
H33 C5 0.930 . S
H34 C7 0.929 . S
H35 C8 0.929 . S
H36 C13 0.930 . S
H37 C14 0.930 . S
H38 C16 0.929 . S
H39 C17 0.929 . S
La40 C42 2.928 . S
La40 O60 2.521 . S
La40 O61 2.628 . S
La40 O62 2.554 . S
La40 O63 2.757 1_565 S
La40 O64 2.470 . S
La40 O69 2.482 . S
La40 O71 2.503 1_565 S
La41 C51 2.928 . S
La41 O63 2.482 . S
La41 O65 2.503 1_545 S
La41 O66 2.521 . S
La41 O67 2.628 . S
La41 O68 2.554 . S
La41 O69 2.757 1_545 S
La41 O70 2.470 . S
C42 La40 2.928 . S
C42 C43 1.503 . S
C42 O60 1.261 . S
C42 O61 1.243 . S
C43 C42 1.503 . S
C43 C44 1.394 . S
C43 C48 1.373 . S
C44 C43 1.394 . S
C44 C45 1.380 . S
C44 H72 0.930 . S
C45 C44 1.380 . S
C45 C46 1.376 . S
C45 H73 0.930 . S
C46 C45 1.376 . S
C46 C47 1.370 . S
C47 C46 1.370 . S
C47 C48 1.396 . S
C47 H74 0.929 . S
C48 C43 1.373 . S
C48 C47 1.396 . S
C48 H75 0.929 . S
C49 O62 1.240 1_545 S
C49 O63 1.289 . S
C50 O64 1.258 . S
C50 O65 1.256 . S
C51 La41 2.928 . S
C51 C52 1.503 . S
C51 O66 1.261 . S
C51 O67 1.243 . S
C52 C51 1.503 . S
C52 C53 1.394 . S
C52 C57 1.373 . S
C53 C52 1.394 . S
C53 C54 1.380 . S
C53 H76 0.930 . S
C54 C53 1.380 . S
C54 C55 1.376 . S
C54 H77 0.930 . S
C55 C54 1.376 . S
C55 C56 1.370 . S
C56 C55 1.370 . S
C56 C57 1.396 . S
C56 H78 0.929 . S
C57 C52 1.373 . S
C57 C56 1.396 . S
C57 H79 0.929 . S
C58 O68 1.240 . S
C58 O69 1.289 1_545 S
C59 O70 1.258 . S
C59 O71 1.256 . S
O60 La40 2.521 . S
O60 C42 1.261 . S
O61 La40 2.628 . S
O61 C42 1.243 . S
O62 La40 2.554 . S
O62 C49 1.240 1_565 S
O63 La40 2.757 1_545 S
O63 La41 2.482 . S
O63 C49 1.289 . S
O64 La40 2.470 . S
O64 C50 1.258 . S
O65 La41 2.503 1_565 S
O65 C50 1.256 . S
O66 La41 2.521 . S
O66 C51 1.261 . S
O67 La41 2.628 . S
O67 C51 1.243 . S
O68 La41 2.554 . S
O68 C58 1.240 . S
O69 La40 2.482 . S
O69 La41 2.757 1_565 S
O69 C58 1.289 1_565 S
O70 La41 2.470 . S
O70 C59 1.258 . S
O71 La40 2.503 1_545 S
O71 C59 1.256 . S
H72 C44 0.930 . S
H73 C45 0.930 . S
H74 C47 0.929 . S
H75 C48 0.929 . S
H76 C53 0.930 . S
H77 C54 0.930 . S
H78 C56 0.929 . S
H79 C57 0.929 . S
La80 C82 2.928 . S
La80 O100 2.521 . S
La80 O101 2.628 . S
La80 O102 2.554 . S
La80 O103 2.757 . S
La80 O104 2.470 . S
La80 O109 2.482 . S
La80 O111 2.503 . S
La81 C91 2.928 . S
La81 O103 2.482 . S
La81 O105 2.503 . S
La81 O106 2.521 . S
La81 O107 2.628 . S
La81 O108 2.554 . S
La81 O109 2.757 . S
La81 O110 2.470 . S
C82 La80 2.928 . S
C82 C83 1.503 . S
C82 O100 1.261 . S
C82 O101 1.243 . S
C83 C82 1.503 . S
C83 C84 1.394 . S
C83 C88 1.373 . S
C84 C83 1.394 . S
C84 C85 1.380 . S
C84 H112 0.930 . S
C85 C84 1.380 . S
C85 C86 1.376 . S
C85 H113 0.930 . S
C86 C85 1.376 . S
C86 C87 1.370 . S
C87 C86 1.370 . S
C87 C88 1.396 . S
C87 H114 0.929 . S
C88 C83 1.373 . S
C88 C87 1.396 . S
C88 H115 0.929 . S
C89 O102 1.240 . S
C89 O103 1.289 . S
C90 O104 1.258 . S
C90 O105 1.256 . S
C91 La81 2.928 . S
C91 C92 1.503 . S
C91 O106 1.261 . S
C91 O107 1.243 . S
C92 C91 1.503 . S
C92 C93 1.394 . S
C92 C97 1.373 . S
C93 C92 1.394 . S
C93 C94 1.380 . S
C93 H116 0.930 . S
C94 C93 1.380 . S
C94 C95 1.376 . S
C94 H117 0.930 . S
C95 C94 1.376 . S
C95 C96 1.370 . S
C96 C95 1.370 . S
C96 C97 1.396 . S
C96 H118 0.929 . S
C97 C92 1.373 . S
C97 C96 1.396 . S
C97 H119 0.929 . S
C98 O108 1.240 . S
C98 O109 1.289 . S
C99 O110 1.258 . S
C99 O111 1.256 . S
O100 La80 2.521 . S
O100 C82 1.261 . S
O101 La80 2.628 . S
O101 C82 1.243 . S
O102 La80 2.554 . S
O102 C89 1.240 . S
O103 La80 2.757 . S
O103 La81 2.482 . S
O103 C89 1.289 . S
O104 La80 2.470 . S
O104 C90 1.258 . S
O105 La81 2.503 . S
O105 C90 1.256 . S
O106 La81 2.521 . S
O106 C91 1.261 . S
O107 La81 2.628 . S
O107 C91 1.243 . S
O108 La81 2.554 . S
O108 C98 1.240 . S
O109 La80 2.482 . S
O109 La81 2.757 . S
O109 C98 1.289 . S
O110 La81 2.470 . S
O110 C99 1.258 . S
O111 La80 2.503 . S
O111 C99 1.256 . S
H112 C84 0.930 . S
H113 C85 0.930 . S
H114 C87 0.929 . S
H115 C88 0.929 . S
H116 C93 0.930 . S
H117 C94 0.930 . S
H118 C96 0.929 . S
H119 C97 0.929 . S
H120 C123 0.931 . S
H121 C126 0.928 . S
H122 C128 0.930 . S
C123 H120 0.931 . S
C123 C124 1.413 . S
C123 C125 1.360 1_565 S
C124 C123 1.413 . S
C124 C128 1.429 1_565 S
C125 C123 1.360 1_545 S
C125 C126 1.372 . S
C126 H121 0.928 . S
C126 C125 1.372 . S
C126 C127 1.404 . S
C127 C126 1.404 . S
C127 C128 1.391 . S
C128 H122 0.930 . S
C128 C124 1.429 1_545 S
C128 C127 1.391 . S
H129 C132 0.931 . S
H130 C135 0.928 . S
H131 C137 0.930 . S
C132 H129 0.931 . S
C132 C133 1.413 . S
C132 C134 1.360 . S
C133 C132 1.413 . S
C133 C137 1.429 . S
C134 C132 1.360 . S
C134 C135 1.372 . S
C135 H130 0.928 . S
C135 C134 1.372 . S
C135 C136 1.404 . S
C136 C135 1.404 . S
C136 C137 1.391 . S
C137 H131 0.930 . S
C137 C133 1.429 . S
C137 C136 1.391 . S
H138 C141 0.931 1_655 S
H139 C144 0.928 . S
H140 C146 0.930 . S
C141 H138 0.931 1_455 S
C141 C142 1.413 . S
C141 C143 1.360 . S
C142 C141 1.413 . S
C142 C146 1.429 . S
C143 C141 1.360 . S
C143 C144 1.372 . S
C144 H139 0.928 . S
C144 C143 1.372 . S
C144 C145 1.404 . S
C145 C144 1.404 . S
C145 C146 1.391 . S
C146 H140 0.930 . S
C146 C142 1.429 . S
C146 C145 1.391 . S
H147 C150 0.931 . S
H148 C153 0.928 . S
H149 C155 0.930 . S
C150 H147 0.931 . S
C150 C151 1.413 . S
C150 C152 1.359 1_655 S
C151 C150 1.413 . S
C151 C155 1.429 1_655 S
C152 C150 1.359 1_455 S
C152 C153 1.373 . S
C153 H148 0.928 . S
C153 C152 1.373 . S
C153 C154 1.404 . S
C154 C153 1.404 . S
C154 C155 1.391 . S
C155 H149 0.930 . S
C155 C151 1.429 1_455 S
C155 C154 1.391 . S
H156 C159 0.931 . S
H157 C162 0.928 . S
H158 C164 0.930 . S
C159 H156 0.931 . S
C159 C160 1.413 . S
C159 C161 1.360 1_545 S
C160 C159 1.413 . S
C160 C164 1.429 . S
C161 C159 1.360 1_565 S
C161 C162 1.372 . S
C162 H157 0.928 . S
C162 C161 1.372 . S
C162 C163 1.404 . S
C163 C162 1.404 . S
C163 C164 1.391 1_565 S
C164 H158 0.930 . S
C164 C160 1.429 . S
C164 C163 1.391 1_545 S
H165 C168 0.931 . S
H166 C171 0.928 . S
H167 C173 0.930 . S
C168 H165 0.931 . S
C168 C169 1.413 . S
C168 C170 1.360 . S
C169 C168 1.413 . S
C169 C173 1.429 . S
C170 C168 1.360 . S
C170 C171 1.372 . S
C171 H166 0.928 . S
C171 C170 1.372 . S
C171 C172 1.404 . S
C172 C171 1.404 . S
C172 C173 1.391 . S
C173 H167 0.930 . S
C173 C169 1.429 . S
C173 C172 1.391 . S
H174 C180 0.930 . S
H175 C184 0.930 . S
H176 C189 0.929 . S
H177 C187 0.929 . S
H178 C182 0.929 . S
H179 C188 0.929 . S
C180 H174 0.930 . S
C180 C181 1.367 . S
C180 C188 1.378 . S
C181 C180 1.367 . S
C181 C189 1.433 . S
C182 H178 0.929 . S
C182 C184 1.378 . S
C182 C186 1.350 . S
C183 C186 1.463 . S
C183 C188 1.350 . S
C183 N191 1.427 . S
C184 H175 0.930 . S
C184 C182 1.378 . S
C184 C185 1.367 . S
C185 C184 1.367 . S
C185 C187 1.433 . S
C186 C182 1.350 . S
C186 C183 1.463 . S
C186 N190 1.427 . S
C187 H177 0.929 . S
C187 C185 1.433 . S
C187 N190 1.384 . S
C188 H179 0.929 . S
C188 C180 1.378 . S
C188 C183 1.350 . S
C189 H176 0.929 . S
C189 C181 1.433 . S
C189 N191 1.384 . S
N190 C186 1.427 . S
N190 C187 1.384 . S
N191 C183 1.427 . S
N191 C189 1.384 . S
H192 C198 0.930 . S
H193 C202 0.930 . S
H194 C207 0.929 . S
H195 C205 0.929 . S
H196 C200 0.929 . S
H197 C206 0.929 . S
C198 H192 0.930 . S
C198 C199 1.367 . S
C198 C206 1.378 . S
C199 C198 1.367 . S
C199 C207 1.433 . S
C200 H196 0.929 . S
C200 C202 1.378 . S
C200 C204 1.350 . S
C201 C204 1.463 . S
C201 C206 1.350 . S
C201 N209 1.427 . S
C202 H193 0.930 . S
C202 C200 1.378 . S
C202 C203 1.367 . S
C203 C202 1.367 . S
C203 C205 1.433 . S
C204 C200 1.350 . S
C204 C201 1.463 . S
C204 N208 1.427 . S
C205 H195 0.929 . S
C205 C203 1.433 . S
C205 N208 1.384 . S
C206 H197 0.929 . S
C206 C198 1.378 . S
C206 C201 1.350 . S
C207 H194 0.929 . S
C207 C199 1.433 . S
C207 N209 1.384 . S
N208 C204 1.427 . S
N208 C205 1.384 . S
N209 C201 1.427 . S
N209 C207 1.384 . S
H210 C216 0.930 . S
H211 C220 0.930 . S
H212 C225 0.929 . S
H213 C223 0.929 . S
H214 C218 0.929 . S
H215 C224 0.929 . S
C216 H210 0.930 . S
C216 C217 1.367 . S
C216 C224 1.378 . S
C217 C216 1.367 . S
C217 C225 1.433 . S
C218 H214 0.929 . S
C218 C220 1.378 . S
C218 C222 1.350 . S
C219 C222 1.463 . S
C219 C224 1.350 . S
C219 N227 1.427 . S
C220 H211 0.930 . S
C220 C218 1.378 . S
C220 C221 1.367 . S
C221 C220 1.367 . S
C221 C223 1.433 . S
C222 C218 1.350 . S
C222 C219 1.463 . S
C222 N226 1.427 . S
C223 H213 0.929 . S
C223 C221 1.433 . S
C223 N226 1.384 . S
C224 H215 0.929 . S
C224 C216 1.378 . S
C224 C219 1.350 . S
C225 H212 0.929 . S
C225 C217 1.433 . S
C225 N227 1.384 . S
N226 C222 1.427 . S
N226 C223 1.384 . S
N227 C219 1.427 . S
N227 C225 1.384 . S
H228 C234 0.930 . S
H229 C238 0.930 . S
H230 C243 0.929 . S
H231 C241 0.929 . S
H232 C236 0.929 . S
H233 C242 0.929 . S
C234 H228 0.930 . S
C234 C235 1.367 . S
C234 C242 1.378 . S
C235 C234 1.367 . S
C235 C243 1.433 . S
C236 H232 0.929 . S
C236 C238 1.378 . S
C236 C240 1.350 . S
C237 C240 1.463 . S
C237 C242 1.350 . S
C237 N245 1.427 . S
C238 H229 0.930 . S
C238 C236 1.378 . S
C238 C239 1.367 . S
C239 C238 1.367 . S
C239 C241 1.433 . S
C240 C236 1.350 . S
C240 C237 1.463 . S
C240 N244 1.427 . S
C241 H231 0.929 . S
C241 C239 1.433 . S
C241 N244 1.384 . S
C242 H233 0.929 . S
C242 C234 1.378 . S
C242 C237 1.350 . S
C243 H230 0.929 . S
C243 C235 1.433 . S
C243 N245 1.384 . S
N244 C240 1.427 . S
N244 C241 1.384 . S
N245 C237 1.427 . S
N245 C243 1.384 . S
H246 C252 0.930 . S
H247 C256 0.930 . S
H248 C261 0.929 . S
H249 C259 0.929 . S
H250 C254 0.929 . S
H251 C260 0.929 . S
C252 H246 0.930 . S
C252 C253 1.367 . S
C252 C260 1.378 . S
C253 C252 1.367 . S
C253 C261 1.433 . S
C254 H250 0.929 . S
C254 C256 1.378 . S
C254 C258 1.350 . S
C255 C258 1.463 . S
C255 C260 1.350 . S
C255 N263 1.427 . S
C256 H247 0.930 . S
C256 C254 1.378 . S
C256 C257 1.367 . S
C257 C256 1.367 . S
C257 C259 1.433 . S
C258 C254 1.350 . S
C258 C255 1.463 . S
C258 N262 1.427 . S
C259 H249 0.929 . S
C259 C257 1.433 . S
C259 N262 1.384 . S
C260 H251 0.929 . S
C260 C252 1.378 . S
C260 C255 1.350 . S
C261 H248 0.929 . S
C261 C253 1.433 . S
C261 N263 1.384 . S
N262 C258 1.427 . S
N262 C259 1.384 . S
N263 C255 1.427 . S
N263 C261 1.384 . S
H264 C270 0.930 . S
H265 C274 0.930 . S
H266 C279 0.929 . S
H267 C277 0.929 . S
H268 C272 0.929 . S
H269 C278 0.929 . S
C270 H264 0.930 . S
C270 C271 1.367 . S
C270 C278 1.378 . S
C271 C270 1.367 . S
C271 C279 1.433 . S
C272 H268 0.929 . S
C272 C274 1.378 . S
C272 C276 1.350 . S
C273 C276 1.463 . S
C273 C278 1.350 . S
C273 N281 1.427 . S
C274 H265 0.930 . S
C274 C272 1.378 . S
C274 C275 1.367 . S
C275 C274 1.367 . S
C275 C277 1.433 . S
C276 C272 1.350 . S
C276 C273 1.463 . S
C276 N280 1.427 . S
C277 H267 0.929 . S
C277 C275 1.433 . S
C277 N280 1.384 . S
C278 H269 0.929 . S
C278 C270 1.378 . S
C278 C273 1.350 . S
C279 H266 0.929 . S
C279 C271 1.433 . S
C279 N281 1.384 . S
N280 C276 1.427 . S
N280 C277 1.384 . S
N281 C273 1.427 . S
N281 C279 1.384 . S
H282 C288 0.930 . S
H283 C292 0.930 . S
H284 C297 0.929 . S
H285 C295 0.929 . S
H286 C290 0.929 . S
H287 C296 0.929 . S
C288 H282 0.930 . S
C288 C289 1.367 . S
C288 C296 1.378 . S
C289 C288 1.367 . S
C289 C297 1.433 . S
C290 H286 0.929 . S
C290 C292 1.378 . S
C290 C294 1.350 . S
C291 C294 1.463 . S
C291 C296 1.350 . S
C291 N299 1.427 . S
C292 H283 0.930 . S
C292 C290 1.378 . S
C292 C293 1.367 . S
C293 C292 1.367 . S
C293 C295 1.433 . S
C294 C290 1.350 . S
C294 C291 1.463 . S
C294 N298 1.427 . S
C295 H285 0.929 . S
C295 C293 1.433 . S
C295 N298 1.384 . S
C296 H287 0.929 . S
C296 C288 1.378 . S
C296 C291 1.350 . S
C297 H284 0.929 . S
C297 C289 1.433 . S
C297 N299 1.384 . S
N298 C294 1.427 . S
N298 C295 1.384 . S
N299 C291 1.427 . S
N299 C297 1.384 . S
H300 C306 0.930 . S
H301 C310 0.930 . S
H302 C315 0.929 . S
H303 C313 0.929 . S
H304 C308 0.929 . S
H305 C314 0.929 . S
C306 H300 0.930 . S
C306 C307 1.367 . S
C306 C314 1.378 . S
C307 C306 1.367 . S
C307 C315 1.433 . S
C308 H304 0.929 . S
C308 C310 1.378 . S
C308 C312 1.350 . S
C309 C312 1.463 . S
C309 C314 1.350 . S
C309 N317 1.427 . S
C310 H301 0.930 . S
C310 C308 1.378 . S
C310 C311 1.367 . S
C311 C310 1.367 . S
C311 C313 1.433 . S
C312 C308 1.350 . S
C312 C309 1.463 . S
C312 N316 1.427 . S
C313 H303 0.929 . S
C313 C311 1.433 . S
C313 N316 1.384 . S
C314 H305 0.929 . S
C314 C306 1.378 . S
C314 C309 1.350 . S
C315 H302 0.929 . S
C315 C307 1.433 . S
C315 N317 1.384 . S
N316 C312 1.427 . S
N316 C313 1.384 . S
N317 C309 1.427 . S
N317 C315 1.384 . S
H318 C324 0.930 . S
H319 C328 0.930 . S
H320 C333 0.929 . S
H321 C331 0.929 . S
H322 C326 0.929 . S
H323 C332 0.929 . S
C324 H318 0.930 . S
C324 C325 1.367 . S
C324 C332 1.378 . S
C325 C324 1.367 . S
C325 C333 1.433 . S
C326 H322 0.929 . S
C326 C328 1.378 . S
C326 C330 1.350 . S
C327 C330 1.463 . S
C327 C332 1.350 . S
C327 N335 1.427 . S
C328 H319 0.930 . S
C328 C326 1.378 . S
C328 C329 1.367 . S
C329 C328 1.367 . S
C329 C331 1.433 . S
C330 C326 1.350 . S
C330 C327 1.463 . S
C330 N334 1.427 . S
C331 H321 0.929 . S
C331 C329 1.433 . S
C331 N334 1.384 . S
C332 H323 0.929 . S
C332 C324 1.378 . S
C332 C327 1.350 . S
C333 H320 0.929 . S
C333 C325 1.433 . S
C333 N335 1.384 . S
N334 C330 1.427 . S
N334 C331 1.384 . S
N335 C327 1.427 . S
N335 C333 1.384 . S
H336 C342 0.930 . S
H337 C346 0.930 . S
H338 C351 0.929 . S
H339 C349 0.929 . S
H340 C344 0.929 . S
H341 C350 0.929 . S
C342 H336 0.930 . S
C342 C343 1.367 . S
C342 C350 1.378 . S
C343 C342 1.367 . S
C343 C351 1.433 . S
C344 H340 0.929 . S
C344 C346 1.378 . S
C344 C348 1.350 . S
C345 C348 1.463 . S
C345 C350 1.350 . S
C345 N353 1.427 . S
C346 H337 0.930 . S
C346 C344 1.378 . S
C346 C347 1.367 . S
C347 C346 1.367 . S
C347 C349 1.433 . S
C348 C344 1.350 . S
C348 C345 1.463 . S
C348 N352 1.427 . S
C349 H339 0.929 . S
C349 C347 1.433 . S
C349 N352 1.384 . S
C350 H341 0.929 . S
C350 C342 1.378 . S
C350 C345 1.350 . S
C351 H338 0.929 . S
C351 C343 1.433 . S
C351 N353 1.384 . S
N352 C348 1.427 . S
N352 C349 1.384 . S
N353 C345 1.427 . S
N353 C351 1.384 . S
H354 C360 0.930 . S
H355 C364 0.930 . S
H356 C369 0.929 . S
H357 C367 0.929 . S
H358 C362 0.929 . S
H359 C368 0.929 . S
C360 H354 0.930 . S
C360 C361 1.367 . S
C360 C368 1.378 . S
C361 C360 1.367 . S
C361 C369 1.433 . S
C362 H358 0.929 . S
C362 C364 1.378 . S
C362 C366 1.350 . S
C363 C366 1.463 . S
C363 C368 1.350 . S
C363 N371 1.427 . S
C364 H355 0.930 . S
C364 C362 1.378 . S
C364 C365 1.367 . S
C365 C364 1.367 . S
C365 C367 1.433 . S
C366 C362 1.350 . S
C366 C363 1.463 . S
C366 N370 1.427 . S
C367 H357 0.929 . S
C367 C365 1.433 . S
C367 N370 1.384 . S
C368 H359 0.929 . S
C368 C360 1.378 . S
C368 C363 1.350 . S
C369 H356 0.929 . S
C369 C361 1.433 . S
C369 N371 1.384 . S
N370 C366 1.427 . S
N370 C367 1.384 . S
N371 C363 1.427 . S
N371 C369 1.384 . S
H372 C378 0.930 . S
H373 C382 0.930 . S
H374 C387 0.929 . S
H375 C385 0.929 . S
H376 C380 0.929 . S
H377 C386 0.929 . S
C378 H372 0.930 . S
C378 C379 1.367 . S
C378 C386 1.378 . S
C379 C378 1.367 . S
C379 C387 1.433 . S
C380 H376 0.929 . S
C380 C382 1.378 . S
C380 C384 1.350 . S
C381 C384 1.463 . S
C381 C386 1.350 . S
C381 N389 1.427 . S
C382 H373 0.930 . S
C382 C380 1.378 . S
C382 C383 1.367 . S
C383 C382 1.367 . S
C383 C385 1.433 . S
C384 C380 1.350 . S
C384 C381 1.463 . S
C384 N388 1.427 . S
C385 H375 0.929 . S
C385 C383 1.433 . S
C385 N388 1.384 . S
C386 H377 0.929 . S
C386 C378 1.378 . S
C386 C381 1.350 . S
C387 H374 0.929 . S
C387 C379 1.433 . S
C387 N389 1.384 . S
N388 C384 1.427 . S
N388 C385 1.384 . S
N389 C381 1.427 . S
N389 C387 1.384 . S
H390 C396 0.930 . S
H391 C400 0.930 . S
H392 C405 0.929 . S
H393 C403 0.909 1_655 S
H394 C398 0.929 1_554 S
H395 C404 0.929 . S
C396 H390 0.930 . S
C396 C397 1.367 1_655 S
C396 C404 1.378 . S
C397 C396 1.367 1_455 S
C397 C405 1.433 . S
C398 H394 0.929 1_556 S
C398 C400 1.378 . S
C398 C402 1.350 1_556 S
C399 C402 1.463 . S
C399 C404 1.350 1_455 S
C399 N407 1.427 . S
C400 H391 0.930 . S
C400 C398 1.378 . S
C400 C401 1.367 . S
C401 C400 1.367 . S
C401 C403 1.454 . S
C402 C398 1.350 1_554 S
C402 C399 1.463 . S
C402 N406 1.427 1_454 S
C403 H393 0.909 1_455 S
C403 C401 1.454 . S
C403 N406 1.384 1_455 S
C404 H395 0.929 . S
C404 C396 1.378 . S
C404 C399 1.350 1_655 S
C405 H392 0.929 . S
C405 C397 1.433 . S
C405 N407 1.384 . S
N406 C402 1.427 1_656 S
N406 C403 1.384 1_655 S
N407 C399 1.427 . S
N407 C405 1.384 . S
H408 C414 0.930 . S
H409 C418 0.930 . S
H410 C423 0.929 . S
H411 C421 0.929 . S
H412 C416 0.929 . S
H413 C422 0.929 . S
C414 H408 0.930 . S
C414 C415 1.367 1_565 S
C414 C422 1.378 . S
C415 C414 1.367 1_545 S
C415 C423 1.433 . S
C416 H412 0.929 . S
C416 C418 1.378 . S
C416 C420 1.350 . S
C417 C420 1.463 . S
C417 C422 1.350 1_545 S
C417 N425 1.427 . S
C418 H409 0.930 . S
C418 C416 1.378 . S
C418 C419 1.367 . S
C419 C418 1.367 . S
C419 C421 1.433 1_545 S
C420 C416 1.350 . S
C420 C417 1.463 . S
C420 N424 1.427 1_545 S
C421 H411 0.929 . S
C421 C419 1.433 1_565 S
C421 N424 1.384 . S
C422 H413 0.929 . S
C422 C414 1.378 . S
C422 C417 1.350 1_565 S
C423 H410 0.929 . S
C423 C415 1.433 . S
C423 N425 1.384 . S
N424 C420 1.427 1_565 S
N424 C421 1.384 . S
N425 C417 1.427 . S
N425 C423 1.384 . S
H426 C432 0.930 . S
H427 C436 0.930 . S
H428 C441 0.929 . S
H429 C439 0.929 . S
H430 C434 0.929 . S
H431 C440 0.929 . S
C432 H426 0.930 . S
C432 C433 1.367 . S
C432 C440 1.378 . S
C433 C432 1.367 . S
C433 C441 1.433 . S
C434 H430 0.929 . S
C434 C436 1.378 . S
C434 C438 1.350 . S
C435 C438 1.463 . S
C435 C440 1.350 . S
C435 N443 1.427 . S
C436 H427 0.930 . S
C436 C434 1.378 . S
C436 C437 1.367 . S
C437 C436 1.367 . S
C437 C439 1.433 . S
C438 C434 1.350 . S
C438 C435 1.463 . S
C438 N442 1.427 . S
C439 H429 0.929 . S
C439 C437 1.433 . S
C439 N442 1.384 . S
C440 H431 0.929 . S
C440 C432 1.378 . S
C440 C435 1.350 . S
C441 H428 0.929 . S
C441 C433 1.433 . S
C441 N443 1.384 . S
N442 C438 1.427 . S
N442 C439 1.384 . S
N443 C435 1.427 . S
N443 C441 1.384 . S
H444 C450 0.930 . S
H445 C454 0.930 . S
H446 C459 0.929 . S
H447 C457 0.929 . S
H448 C452 0.929 . S
H449 C458 0.929 . S
C450 H444 0.930 . S
C450 C451 1.367 1_565 S
C450 C458 1.378 . S
C451 C450 1.367 1_545 S
C451 C459 1.433 . S
C452 H448 0.929 . S
C452 C454 1.378 . S
C452 C456 1.350 . S
C453 C456 1.463 . S
C453 C458 1.350 1_545 S
C453 N461 1.427 . S
C454 H445 0.930 . S
C454 C452 1.378 . S
C454 C455 1.365 . S
C455 C454 1.365 . S
C455 C457 1.435 1_545 S
C456 C452 1.350 . S
C456 C453 1.463 . S
C456 N460 1.427 1_545 S
C457 H447 0.929 . S
C457 C455 1.435 1_565 S
C457 N460 1.384 . S
C458 H449 0.929 . S
C458 C450 1.378 . S
C458 C453 1.350 1_565 S
C459 H446 0.929 . S
C459 C451 1.433 . S
C459 N461 1.384 . S
N460 C456 1.427 1_565 S
N460 C457 1.384 . S
N461 C453 1.427 . S
N461 C459 1.384 . S
H462 C468 0.930 . S
H463 C472 0.930 . S
H464 C477 0.929 . S
H465 C475 0.929 . S
H466 C470 0.932 . S
H467 C476 0.929 . S
C468 H462 0.930 . S
C468 C469 1.367 . S
C468 C476 1.378 . S
C469 C468 1.367 . S
C469 C477 1.433 . S
C470 H466 0.932 . S
C470 C472 1.367 1_556 S
C470 C474 1.357 . S
C471 C474 1.463 . S
C471 C476 1.350 . S
C471 N479 1.427 . S
C472 H463 0.930 . S
C472 C470 1.367 1_554 S
C472 C473 1.367 . S
C473 C472 1.367 . S
C473 C475 1.433 . S
C474 C470 1.357 . S
C474 C471 1.463 . S
C474 N478 1.427 . S
C475 H465 0.929 . S
C475 C473 1.433 . S
C475 N478 1.384 1_554 S
C476 H467 0.929 . S
C476 C468 1.378 . S
C476 C471 1.350 . S
C477 H464 0.929 . S
C477 C469 1.433 . S
C477 N479 1.384 . S
N478 C474 1.427 . S
N478 C475 1.384 1_556 S
N479 C471 1.427 . S
N479 C477 1.384 . S
H480 C486 0.930 . S
H481 C490 0.930 . S
H482 C495 0.929 . S
H483 C493 0.929 . S
H484 C488 0.929 . S
H485 C494 0.929 . S
C486 H480 0.930 . S
C486 C487 1.367 1_655 S
C486 C494 1.378 . S
C487 C486 1.367 1_455 S
C487 C495 1.433 . S
C488 H484 0.929 . S
C488 C490 1.378 . S
C488 C492 1.350 . S
C489 C492 1.463 . S
C489 C494 1.350 1_455 S
C489 N497 1.427 . S
C490 H481 0.930 . S
C490 C488 1.378 . S
C490 C491 1.367 . S
C491 C490 1.367 . S
C491 C493 1.433 1_455 S
C492 C488 1.350 . S
C492 C489 1.463 . S
C492 N496 1.427 1_455 S
C493 H483 0.929 . S
C493 C491 1.433 1_655 S
C493 N496 1.384 . S
C494 H485 0.929 . S
C494 C486 1.378 . S
C494 C489 1.350 1_655 S
C495 H482 0.929 . S
C495 C487 1.433 . S
C495 N497 1.384 . S
N496 C492 1.427 1_655 S
N496 C493 1.384 . S
N497 C489 1.427 . S
N497 C495 1.384 . S
C181 C6 0.692 . S
C185 C169 0.683 . S
C199 C59 1.817 . S
C203 C151 1.800 . S
C217 C86 1.326 . S
C221 C163 1.371 . S
C235 C15 0.627 . S
C239 C172 0.531 . S
C257 C154 1.832 . S
C253 C50 1.820 . S
C275 C160 1.395 . S
C271 C95 1.358 . S
C289 C46 1.272 . S
C293 C133 1.311 . S
C307 C99 3.010 . S
C311 C142 2.981 1_655 S
C325 C10 1.852 . S
C329 C124 1.890 . S
C347 C136 1.387 . S
C343 C55 1.334 . S
C365 C145 2.924 . S
C361 C90 2.901 . S
C379 C19 1.808 . S
C383 C127 1.802 . S
C401 C143 1.796 . S
C397 C18 1.717 . S
C415 C49 1.311 . S
C419 C125 1.363 . S
C433 C98 1.448 . S
C437 C134 1.506 . S
C455 C161 1.478 1_545 S
C451 C58 1.433 . S
C473 C170 1.035 . S
C469 C89 1.028 . S
C487 C9 1.305 . S
C491 C152 1.346 . S
