# Generated by pormake.
# Topology pyr, (3,6)-cn, num edge types: 1
# Building blocks:
#     Node 0, Type 0, BuildingBlock: BETDAH_clean_linker_0, # of connection points: 3
#     Node 1, Type 0, BuildingBlock: BETDAH_clean_linker_0, # of connection points: 3
#     Node 2, Type 0, BuildingBlock: BETDAH_clean_linker_0, # of connection points: 3
#     Node 3, Type 0, BuildingBlock: BETDAH_clean_linker_0, # of connection points: 3
#     Node 4, Type 0, BuildingBlock: BETDAH_clean_linker_0, # of connection points: 3
#     Node 5, Type 0, BuildingBlock: BETDAH_clean_linker_0, # of connection points: 3
#     Node 6, Type 0, BuildingBlock: BETDAH_clean_linker_0, # of connection points: 3
#     Node 7, Type 0, BuildingBlock: BETDAH_clean_linker_0, # of connection points: 3
#     Node 8, Type 1, BuildingBlock: PAMTUU_clean_sbu_0, # of connection points: 6
#     Node 9, Type 1, BuildingBlock: PAMTUU_clean_sbu_0, # of connection points: 6
#     Node 10, Type 1, BuildingBlock: PAMTUU_clean_sbu_0, # of connection points: 6
#     Node 11, Type 1, BuildingBlock: PAMTUU_clean_sbu_0, # of connection points: 6
#     Edge 12, Type (0, 1), BuildingBlock: EZIPEK_clean_linker_0, # of connection points: 2
#     Edge 13, Type (0, 1), BuildingBlock: EZIPEK_clean_linker_0, # of connection points: 2
#     Edge 14, Type (0, 1), BuildingBlock: EZIPEK_clean_linker_0, # of connection points: 2
#     Edge 15, Type (0, 1), BuildingBlock: EZIPEK_clean_linker_0, # of connection points: 2
#     Edge 16, Type (0, 1), BuildingBlock: EZIPEK_clean_linker_0, # of connection points: 2
#     Edge 17, Type (0, 1), BuildingBlock: EZIPEK_clean_linker_0, # of connection points: 2
#     Edge 18, Type (0, 1), BuildingBlock: EZIPEK_clean_linker_0, # of connection points: 2
#     Edge 19, Type (0, 1), BuildingBlock: EZIPEK_clean_linker_0, # of connection points: 2
#     Edge 20, Type (0, 1), BuildingBlock: EZIPEK_clean_linker_0, # of connection points: 2
#     Edge 21, Type (0, 1), BuildingBlock: EZIPEK_clean_linker_0, # of connection points: 2
#     Edge 22, Type (0, 1), BuildingBlock: EZIPEK_clean_linker_0, # of connection points: 2
#     Edge 23, Type (0, 1), BuildingBlock: EZIPEK_clean_linker_0, # of connection points: 2
#     Edge 24, Type (0, 1), BuildingBlock: EZIPEK_clean_linker_0, # of connection points: 2
#     Edge 25, Type (0, 1), BuildingBlock: EZIPEK_clean_linker_0, # of connection points: 2
#     Edge 26, Type (0, 1), BuildingBlock: EZIPEK_clean_linker_0, # of connection points: 2
#     Edge 27, Type (0, 1), BuildingBlock: EZIPEK_clean_linker_0, # of connection points: 2
#     Edge 28, Type (0, 1), BuildingBlock: EZIPEK_clean_linker_0, # of connection points: 2
#     Edge 29, Type (0, 1), BuildingBlock: EZIPEK_clean_linker_0, # of connection points: 2
#     Edge 30, Type (0, 1), BuildingBlock: EZIPEK_clean_linker_0, # of connection points: 2
#     Edge 31, Type (0, 1), BuildingBlock: EZIPEK_clean_linker_0, # of connection points: 2
#     Edge 32, Type (0, 1), BuildingBlock: EZIPEK_clean_linker_0, # of connection points: 2
#     Edge 33, Type (0, 1), BuildingBlock: EZIPEK_clean_linker_0, # of connection points: 2
#     Edge 34, Type (0, 1), BuildingBlock: EZIPEK_clean_linker_0, # of connection points: 2
#     Edge 35, Type (0, 1), BuildingBlock: EZIPEK_clean_linker_0, # of connection points: 2
# Relax obj value: 0.206
# Max RMSD: 0.182
# Mean RMSD: 0.136
data_MOF--net-pyr--node1-PAMTUU_clean_sbu_0--node2-BETDAH_clean_linker_0--edge1-EZIPEK_clean_linker_0
_symmetry_space_group_name_H-M    P1
_symmetry_Int_Tables_number       1
_symmetry_cell_setting            triclinic
loop_
_symmetry_equiv_pos_as_xyz
'x, y, z'
_cell_length_a     27.148139
_cell_length_b     29.070946
_cell_length_c     28.341304
_cell_angle_alpha  90.345677
_cell_angle_beta   90.102986
_cell_angle_gamma 109.3381
loop_
_atom_site_label
_atom_site_type_symbol
_atom_site_fract_x
_atom_site_fract_y
_atom_site_fract_z
_atom_type_partial_charge
H0 H 0.44449 0.26295 0.30804 0.0
H1 H 0.50664 0.3697 0.19995 0.0
H2 H 0.41039 0.39674 0.31 0.0
C3 C 0.45042 0.29882 0.2935 0.0
C4 C 0.42644 0.32938 0.31473 0.0
C5 C 0.47957 0.31308 0.25221 0.0
C6 C 0.48562 0.35907 0.23277 0.0
C7 C 0.45945 0.38877 0.25262 0.0
C8 C 0.43095 0.37429 0.29441 0.0
N9 N 0.45735 0.43013 0.22757 0.0
C10 C 0.41051 0.43944 0.2231 0.0
H11 H 0.27549 0.80929 0.80082 0.0
H12 H 0.13512 0.84555 0.79176 0.0
H13 H 0.17024 0.75586 0.68412 0.0
C14 C 0.23822 0.8044 0.78383 0.0
C15 C 0.22588 0.77839 0.74136 0.0
C16 C 0.20548 0.82842 0.80199 0.0
C17 C 0.15918 0.82518 0.77841 0.0
C18 C 0.14608 0.79883 0.7358 0.0
C19 C 0.17889 0.77431 0.718 0.0
N20 N 0.10375 0.80152 0.70784 0.0
C21 C 0.0901 0.84364 0.70693 0.0
H22 H 0.75802 0.38378 1.0006 0.0
H23 H 0.75609 0.48914 0.89421 0.0
H24 H 0.63088 0.35135 0.90203 0.0
C25 C 0.73944 0.39425 0.97053 0.0
C26 C 0.69195 0.36196 0.95361 0.0
C27 C 0.76299 0.44014 0.94976 0.0
C28 C 0.73837 0.45388 0.91037 0.0
C29 C 0.69031 0.4215 0.89276 0.0
C30 C 0.66786 0.37602 0.91495 0.0
N31 N 0.66155 0.43176 0.85396 0.0
C32 C 0.67243 0.47159 0.8232 0.0
H33 H 0.84881 0.78941 0.50647 0.0
H34 H 0.97 0.82799 0.40243 0.0
H35 H 0.85035 0.68664 0.39602 0.0
C36 C 0.86687 0.77996 0.47546 0.0
C37 C 0.84385 0.73414 0.45359 0.0
C38 C 0.91212 0.81421 0.45713 0.0
C39 C 0.93497 0.80171 0.41668 0.0
C40 C 0.91398 0.75571 0.39456 0.0
C41 C 0.86776 0.72178 0.41301 0.0
N42 N 0.94118 0.74702 0.3539 0.0
C43 C 0.93286 0.7053 0.32557 0.0
H44 H 0.76503 0.81727 0.88682 0.0
H45 H 0.66303 0.75617 1.00304 0.0
H46 H 0.61838 0.84188 0.89842 0.0
C47 C 0.72784 0.81021 0.90447 0.0
C48 C 0.69196 0.83118 0.88733 0.0
C49 C 0.71769 0.78315 0.94611 0.0
C50 C 0.67035 0.77577 0.96999 0.0
C51 C 0.6344 0.79717 0.95302 0.0
C52 C 0.64519 0.82436 0.9113 0.0
N53 N 0.59011 0.79511 0.98035 0.0
C54 C 0.57792 0.8372 0.98923 0.0
H55 H 0.95493 0.27188 0.38236 0.0
H56 H 0.99952 0.35377 0.51144 0.0
H57 H 0.91107 0.39898 0.40612 0.0
C58 C 0.9577 0.30392 0.40345 0.0
C59 C 0.93139 0.33541 0.38883 0.0
C60 C 0.98169 0.30984 0.44792 0.0
C61 C 0.98282 0.34999 0.47627 0.0
C62 C 0.95765 0.38242 0.46134 0.0
C63 C 0.93269 0.37548 0.41707 0.0
N64 N 0.95157 0.41751 0.49367 0.0
C65 C 0.90383 0.42509 0.49759 0.0
H66 H 0.34161 0.8006 0.1943 0.0
H67 H 0.34728 0.67889 0.27789 0.0
H68 H 0.47681 0.8135 0.27912 0.0
C69 C 0.36125 0.78535 0.22014 0.0
C70 C 0.41102 0.81369 0.23646 0.0
C71 C 0.33765 0.73679 0.23466 0.0
C72 C 0.3641 0.71677 0.26785 0.0
C73 C 0.41426 0.7447 0.28493 0.0
C74 C 0.43725 0.79285 0.26847 0.0
N75 N 0.44726 0.72248 0.30855 0.0
C76 C 0.4404 0.69977 0.35286 0.0
H77 H 0.25772 0.38059 0.68903 0.0
H78 H 0.25863 0.50524 0.77288 0.0
H79 H 0.12655 0.37288 0.77701 0.0
C80 C 0.23957 0.39713 0.71516 0.0
C81 C 0.19018 0.37017 0.73273 0.0
C82 C 0.26498 0.44576 0.72944 0.0
C83 C 0.24046 0.46727 0.7631 0.0
C84 C 0.19057 0.44092 0.78116 0.0
C85 C 0.16586 0.39252 0.76535 0.0
N86 N 0.15952 0.46557 0.80431 0.0
C87 C 0.1642 0.48357 0.85085 0.0
Tb88 Tb 0.10574 0.09612 0.57503 0.0
Tb89 Tb 0.99057 0.08335 0.62636 0.0
C90 C 1.00455 1.00468 0.55046 0.0
C91 C 0.23488 0.14905 0.52016 0.0
C92 C 0.30173 0.22352 0.46557 0.0
C93 C 0.30976 0.17841 0.46886 0.0
C94 C 0.27636 0.14125 0.49601 0.0
C95 C 0.22868 0.19511 0.51915 0.0
C96 C 0.26205 0.23231 0.49191 0.0
C97 C 0.19466 0.10761 0.54107 0.0
O98 O 0.07556 0.14227 0.53221 0.0
O99 O 0.99837 0.13576 0.57068 0.0
O100 O 0.04237 0.15089 0.65746 0.0
O101 O 0.12096 0.16082 0.62026 0.0
O102 O 0.90931 0.064 0.61679 0.0
O103 O 0.94581 0.09121 0.6838 0.0
O104 O 1.02304 0.04037 0.67114 0.0
O105 O 0.09301 1.03818 0.62604 0.0
O106 O 0.05251 1.03175 0.5398 0.0
O107 O 0.97656 1.01744 0.58277 0.0
C108 C 0.03367 0.15457 0.53829 0.0
O109 O 0.1861 0.11093 0.58604 0.0
O110 O 0.15138 0.09206 0.51683 0.0
C111 C 0.09158 0.17596 0.64924 0.0
C112 C 0.86298 1.03165 0.68573 0.0
C113 C 0.78993 0.96198 0.74045 0.0
C114 C 0.84234 0.96447 0.74063 0.0
C115 C 0.87867 0.99896 0.71327 0.0
C116 C 0.81009 1.02765 0.68378 0.0
C117 C 0.77352 0.99269 0.71092 0.0
C118 C 0.90191 0.0715 0.6612 0.0
C119 C 0.05985 1.02214 0.66067 0.0
H120 H 0.34009 0.17117 0.44837 0.0
H121 H 0.28133 0.10577 0.49627 0.0
H122 H 0.19654 0.20144 0.53749 0.0
H123 H 0.25526 0.26689 0.48932 0.0
H124 H 0.85539 0.94082 0.76325 0.0
H125 H 0.91929 1.00129 0.715 0.0
H126 H 0.79743 0.0525 0.66246 0.0
H127 H 0.73306 0.99101 0.71058 0.0
Tb128 Tb 0.60602 0.09907 0.12811 0.0
Tb129 Tb 0.49429 0.0845 0.07288 0.0
C130 C 0.56864 1.02467 1.04556 0.0
C131 C 0.72932 0.15041 0.19388 0.0
C132 C 0.79832 0.22898 0.24368 0.0
C133 C 0.79825 0.18139 0.25162 0.0
C134 C 0.76394 0.14228 0.22679 0.0
C135 C 0.73063 0.19824 0.18453 0.0
C136 C 0.76529 0.23751 0.20922 0.0
C137 C 0.68909 0.10862 0.17275 0.0
O138 O 0.62578 0.16551 0.0868 0.0
O139 O 0.5516 0.14881 1.0407 0.0
O140 O 0.49204 0.1263 0.13571 0.0
O141 O 0.5786 0.15543 0.15723 0.0
O142 O 0.45747 0.08621 1.00836 0.0
O143 O 0.41454 0.07654 0.07383 0.0
O144 O 0.47312 1.01874 0.11556 0.0
O145 O 0.54978 1.03183 0.15741 0.0
O146 O 0.60833 0.05931 0.0636 0.0
O147 O 0.52105 1.02647 1.04704 0.0
C148 C 0.59904 0.1768 1.05275 0.0
O149 O 0.64331 0.09744 0.19253 0.0
O150 O 0.68595 0.10809 0.12683 0.0
C151 C 0.53104 0.15733 0.15856 0.0
C152 C 0.37026 1.03636 1.00637 0.0
C153 C 0.3002 0.96381 0.95122 0.0
C154 C 0.29356 1.00941 0.95633 0.0
C155 C 0.32865 0.04566 0.9838 0.0
C156 C 0.37466 0.98965 1.00404 0.0
C157 C 0.33969 0.95346 0.97646 0.0
C158 C 0.41173 0.07665 1.02793 0.0
C159 C 0.50123 1.00512 0.14692 0.0
H160 H 0.82343 0.17439 0.27835 0.0
H161 H 0.7631 0.10556 0.23451 0.0
H162 H 0.7037 0.20497 0.15943 0.0
H163 H 0.76473 0.27407 0.20309 0.0
H164 H 0.26347 1.01788 0.93659 0.0
H165 H 0.32494 0.08162 0.98538 0.0
H166 H 0.40672 0.98208 1.02139 0.0
H167 H 0.34544 0.9185 0.97238 0.0
Tb168 Tb 0.55047 0.53836 0.56278 0.0
Tb169 Tb 0.55995 0.63837 0.61951 0.0
C170 C 0.50543 0.61698 0.51969 0.0
C171 C 0.597 0.44412 0.51596 0.0
C172 C 0.69392 0.42941 0.50765 0.0
C173 C 0.66534 0.43208 0.46709 0.0
C174 C 0.61704 0.43924 0.47124 0.0
C175 C 0.62456 0.43867 0.55649 0.0
C176 C 0.6726 0.43125 0.55231 0.0
C177 C 0.553 0.46308 0.51984 0.0
O178 O 0.63244 0.58372 0.5568 0.0
O179 O 0.62423 0.65889 0.56872 0.0
O180 O 0.61327 0.60921 0.65807 0.0
O181 O 0.57796 0.52939 0.63404 0.0
O182 O 0.57141 0.71351 0.61864 0.0
O183 O 0.55438 0.67334 0.68353 0.0
O184 O 0.49359 0.58188 0.65019 0.0
O185 O 0.47144 0.52596 0.58965 0.0
O186 O 0.52842 0.58442 0.51132 0.0
O187 O 0.50303 0.63287 0.56287 0.0
C188 C 0.65012 0.63131 0.55199 0.0
O189 O 0.53238 0.46213 0.5615 0.0
O190 O 0.56079 0.50487 0.49943 0.0
C191 C 0.60672 0.56255 0.66373 0.0
C192 C 0.50823 0.72698 0.66888 0.0
C193 C 0.4117 0.74019 0.68559 0.0
C194 C 0.44882 0.74822 0.72197 0.0
C195 C 0.49684 0.74159 0.71366 0.0
C196 C 0.47111 0.71977 0.63236 0.0
C197 C 0.42327 0.7264 0.64067 0.0
C198 C 0.55517 0.71296 0.66194 0.0
C199 C 0.46032 0.54358 0.62965 0.0
H200 H 0.68136 0.43057 0.43237 0.0
H201 H 0.5967 0.44364 0.43955 0.0
H202 H 0.61038 0.44256 0.59147 0.0
H203 H 0.69423 0.42904 0.58389 0.0
H204 H 0.44035 0.7591 0.75681 0.0
H205 H 0.52451 0.74661 0.74244 0.0
H206 H 0.47844 0.7079 0.5976 0.0
H207 H 0.39503 0.72025 0.61225 0.0
Tb208 Tb 0.05097 0.63638 0.06632 0.0
Tb209 Tb 0.04681 0.53728 0.12224 0.0
C210 C 0.09962 0.56034 1.02216 0.0
C211 C 0.99727 0.72425 1.01748 0.0
C212 C 0.90327 0.74236 1.0009 0.0
C213 C 0.94776 0.76594 0.97389 0.0
C214 C 0.99459 0.75678 0.98205 0.0
C215 C 0.953 0.70159 1.04497 0.0
C216 C 0.90632 0.71054 1.03682 0.0
C217 C 0.04384 0.70966 1.02321 0.0
O218 O 0.97034 0.58745 0.06018 0.0
O219 O 0.98216 0.51365 0.07116 0.0
O220 O 0.99212 0.56462 0.16127 0.0
O221 O 1.02362 0.64454 0.13772 0.0
O222 O 0.05021 0.4659 0.1207 0.0
O223 O 0.04459 0.50086 0.18649 0.0
O224 O 0.11124 0.59629 0.15323 0.0
O225 O 0.13074 0.6524 0.09354 0.0
O226 O 0.07507 0.59172 1.01444 0.0
O227 O 0.10333 0.54472 0.06507 0.0
C228 C 0.95493 0.53993 1.05426 0.0
O229 O 0.06174 0.71149 0.06612 0.0
O230 O 0.04054 0.66864 1.00263 0.0
C231 C 0.99675 0.61091 0.16735 0.0
C232 C 0.10515 0.45871 0.18217 0.0
C233 C 0.20317 0.44884 0.20049 0.0
C234 C 0.19689 0.49467 0.20352 0.0
C235 C 0.14836 0.49955 0.19454 0.0
C236 C 0.11105 0.41256 0.18035 0.0
C237 C 0.1598 0.4076 0.18965 0.0
C238 C 0.05621 0.46548 0.16624 0.0
C239 C 0.1431 0.63534 0.1332 0.0
H240 H 0.94586 0.79059 0.94597 0.0
H241 H 1.02819 0.77413 0.96012 0.0
H242 H 0.95438 0.67601 0.07197 0.0
H243 H 0.87236 0.69207 0.05793 0.0
H244 H 0.22991 0.52686 0.21174 0.0
H245 H 0.14515 0.53561 0.19608 0.0
H246 H 0.07843 0.3807 0.17045 0.0
H247 H 0.1641 0.37193 0.18711 0.0
C248 C 0.3384 0.28505 0.34718 0.0
C249 C 0.39189 0.31118 0.35556 0.0
C250 C 0.38145 0.29054 0.43942 0.0
C251 C 0.33042 0.25854 0.42944 0.0
N252 N 0.25972 0.22332 0.37443 0.0
N253 N 0.46537 0.34057 0.40844 0.0
C254 C 0.30835 0.25584 0.38364 0.0
C255 C 0.41362 0.31498 0.40155 0.0
N256 N 0.31654 0.28799 0.30424 0.0
N257 N 0.39872 0.29746 0.48511 0.0
H258 H 0.48925 0.36062 0.38174 0.0
H259 H 0.48534 0.34052 0.4398 0.0
H260 H 0.37581 0.27965 0.51335 0.0
H261 H 0.43379 0.32334 0.49557 0.0
H262 H 0.2766 0.27423 0.2975 0.0
H263 H 0.33778 0.30769 0.27606 0.0
H264 H 0.24414 0.21495 0.34064 0.0
H265 H 0.23569 0.20216 0.40041 0.0
C266 C 0.20792 0.85342 0.88725 0.0
C267 C 0.22532 0.8646 0.84023 0.0
C268 C 0.29123 0.94037 0.86627 0.0
C269 C 0.27247 0.93043 0.91308 0.0
N270 N 0.20873 0.88243 0.96795 0.0
N271 N 0.27523 0.92272 0.78313 0.0
C272 C 0.22937 0.88838 0.92355 0.0
C273 C 0.26435 0.90943 0.82919 0.0
N274 N 0.17232 0.80885 0.89723 0.0
N275 N 0.33622 0.97812 0.85749 0.0
H276 H 0.25735 0.90053 0.7547 0.0
H277 H 0.29865 0.95742 0.77295 0.0
H278 H 0.3573 1.00217 0.8835 0.0
H279 H 0.35521 0.98334 0.82507 0.0
H280 H 0.16203 0.7963 0.93134 0.0
H281 H 0.15517 0.78293 0.8712 0.0
H282 H 0.17427 0.85505 0.97691 0.0
H283 H 0.22418 0.90725 0.9953 0.0
C284 C 0.67837 0.49267 0.73695 0.0
C285 C 0.66645 0.50276 0.78389 0.0
C286 C 0.61868 0.55522 0.75268 0.0
C287 C 0.63111 0.54573 0.7055 0.0
N288 N 0.68295 0.51422 0.65389 0.0
N289 N 0.63621 0.55235 0.83681 0.0
C290 C 0.66406 0.51708 0.69807 0.0
C291 C 0.64036 0.5371 0.79175 0.0
N292 N 0.7018 0.45832 0.72931 0.0
N293 N 0.58326 0.57863 0.76035 0.0
H294 H 0.65144 0.5395 0.8658 0.0
H295 H 0.62238 0.58084 0.84495 0.0
H296 H 0.56541 0.59134 0.73317 0.0
H297 H 0.56805 0.58183 0.79343 0.0
H298 H 0.70556 0.44442 0.69607 0.0
H299 H 0.71513 0.44172 0.75679 0.0
H300 H 0.71162 0.49866 0.6468 0.0
H301 H 0.67331 0.53126 0.62474 0.0
C302 C 0.97247 0.64412 0.29557 0.0
C303 C 0.93935 0.6723 0.28788 0.0
C304 C 0.93353 0.64895 0.20353 0.0
C305 C 0.97276 0.62698 0.20985 0.0
N306 N 0.03253 0.60661 0.26213 0.0
N307 N 0.88913 0.70305 0.23424 0.0
C308 C 0.99245 0.6247 0.25613 0.0
C309 C 0.91971 0.67471 0.24179 0.0
N310 N 0.9848 0.63593 0.3408 0.0
N311 N 0.90839 0.64398 0.16108 0.0
H312 H 0.87616 0.72023 0.26164 0.0
H313 H 0.87884 0.7116 0.20083 0.0
H314 H 0.91688 0.62452 0.13309 0.0
H315 H 0.87616 0.65497 0.15491 0.0
H316 H 1.00456 0.61196 0.34952 0.0
H317 H 0.97091 0.64985 0.37003 0.0
H318 H 0.05292 0.60914 0.29371 0.0
H319 H 0.0481 0.59202 0.23454 0.0
C320 C 0.53269 0.25661 0.24841 0.0
C321 C 0.49731 0.27664 0.22656 0.0
C322 C 0.49375 0.22543 0.1572 0.0
C323 C 0.52158 0.19945 0.18208 0.0
N324 N 0.56158 0.18646 0.25478 0.0
N325 N 0.43455 0.27112 0.1641 0.0
C326 C 0.53987 0.21416 0.22859 0.0
C327 C 0.47519 0.25868 0.18199 0.0
N328 N 0.55986 0.27851 0.28769 0.0
N329 N 0.48677 0.22011 0.10945 0.0
H330 H 0.41755 0.29352 0.18184 0.0
H331 H 0.41404 0.25481 0.13388 0.0
H332 H 0.50245 0.19852 0.08903 0.0
H333 H 0.47098 0.24188 0.08949 0.0
H334 H 0.58976 0.26824 0.30253 0.0
H335 H 0.55596 0.31001 0.30264 0.0
H336 H 0.57091 0.19306 0.29041 0.0
H337 H 0.56557 0.15406 0.24235 0.0
C338 C 1.02872 0.89004 0.6989 0.0
C339 C 0.08039 0.8898 0.70445 0.0
C340 C 0.11298 0.97893 0.701 0.0
C341 C 0.06307 0.9785 0.68587 0.0
N342 N 0.97289 0.93201 0.66723 0.0
N343 N 0.17294 0.93351 0.70809 0.0
C344 C 1.02035 0.9338 0.68494 0.0
C345 C 0.12291 0.93415 0.70536 0.0
N346 N 0.98765 0.84835 0.70658 0.0
N347 N 0.1508 1.02237 0.71109 0.0
H348 H 0.18176 0.90138 0.71073 0.0
H349 H 0.20571 0.96441 0.70391 0.0
H350 H 0.14393 0.05559 0.70893 0.0
H351 H 0.1867 1.02509 0.72612 0.0
H352 H 0.94899 0.84746 0.70784 0.0
H353 H 0.99267 0.81554 0.71607 0.0
H354 H 0.94308 0.8995 0.65962 0.0
H355 H 0.96391 0.96254 0.65702 0.0
C356 C 0.81144 0.49854 1.01374 0.0
C357 C 0.81327 0.47262 0.97147 0.0
C358 C 0.90876 0.4947 0.98118 0.0
C359 C 0.90593 0.51579 1.02616 0.0
N360 N 0.85312 0.53126 0.08833 0.0
N361 N 0.8629 0.4419 0.91692 0.0
C362 C 0.85687 0.51634 1.04307 0.0
C363 C 0.86184 0.46982 0.95563 0.0
N364 N 0.76601 0.50612 1.0258 0.0
N365 N 0.95645 0.49975 0.9621 0.0
H366 H 0.82994 0.42509 0.89622 0.0
H367 H 0.89556 0.43306 0.90689 0.0
H368 H 0.99148 0.51734 0.97961 0.0
H369 H 0.96161 0.49002 0.92751 0.0
H370 H 0.76307 0.52871 1.05353 0.0
H371 H 0.7322 0.49327 1.00526 0.0
H372 H 0.8179 0.52841 0.1046 0.0
H373 H 0.88497 0.54206 0.11134 0.0
C374 C 0.74535 0.70698 0.45918 0.0
C375 C 0.79314 0.70116 0.47344 0.0
C376 C 0.74766 0.64997 0.53975 0.0
C377 C 0.69945 0.65439 0.52452 0.0
N378 N 0.65074 0.67807 0.46351 0.0
N379 N 0.83833 0.66016 0.52169 0.0
C380 C 0.69787 0.68035 0.48242 0.0
C381 C 0.79365 0.67017 0.51187 0.0
N382 N 0.74556 0.73925 0.42423 0.0
N383 N 0.75015 0.62893 0.58229 0.0
H384 H 0.87252 0.6748 0.50226 0.0
H385 H 0.84036 0.63429 0.54617 0.0
H386 H 0.71789 0.61544 0.60427 0.0
H387 H 0.7848 0.62863 0.59783 0.0
H388 H 0.71362 0.75014 0.41635 0.0
H389 H 0.77884 0.75752 0.40483 0.0
H390 H 0.64654 0.69178 0.43045 0.0
H391 H 0.61519 0.65847 0.47885 0.0
C392 C 0.33323 0.45563 0.25621 0.0
C393 C 0.35894 0.44343 0.21705 0.0
C394 C 0.28383 0.43746 0.16636 0.0
C395 C 0.25609 0.44499 0.20649 0.0
N396 N 0.25088 0.4537 0.2908 0.0
N397 N 0.35699 0.41596 0.1364 0.0
C398 C 0.27984 0.45197 0.25184 0.0
C399 C 0.33372 0.43232 0.17255 0.0
N400 N 0.36018 0.47181 0.2972 0.0
N401 N 0.26349 0.43729 0.12215 0.0
H402 H 0.39424 0.41317 0.13911 0.0
H403 H 0.33797 0.40184 0.10492 0.0
H404 H 0.22718 0.44114 0.11601 0.0
H405 H 0.28439 0.43746 0.09134 0.0
H406 H 0.34498 0.48542 0.32566 0.0
H407 H 0.39956 0.47565 0.30124 0.0
H408 H 0.26429 0.45365 0.32524 0.0
H409 H 0.2116 0.45086 0.28887 0.0
C410 C 0.64655 0.31367 1.02431 0.0
C411 C 0.6666 0.31405 0.97802 0.0
C412 C 0.63862 0.22404 0.97915 0.0
C413 C 0.62307 0.22409 1.02708 0.0
N414 N 0.62032 0.27025 0.0976 0.0
N415 N 0.68871 0.2701 0.91367 0.0
C416 C 0.62957 0.26932 1.05033 0.0
C417 C 0.66428 0.26928 0.95595 0.0
N418 N 0.64179 0.35552 1.04289 0.0
N419 N 0.62905 0.18068 0.95575 0.0
H420 H 0.70793 0.30228 0.8958 0.0
H421 H 0.69364 0.23942 0.89805 0.0
H422 H 0.61345 0.14695 0.97214 0.0
H423 H 0.63357 0.17801 0.91948 0.0
H424 H 0.62204 0.35659 0.07412 0.0
H425 H 0.65315 0.38855 1.02487 0.0
H426 H 0.6301 0.30219 0.11762 0.0
H427 H 0.60683 0.23893 0.11781 0.0
C428 C 0.91255 0.90015 0.47542 0.0
C429 C 0.93596 0.86328 0.48072 0.0
C430 C 1.00289 0.91823 0.53315 0.0
C431 C 0.98127 0.95613 0.52583 0.0
N432 N 0.91953 0.98533 0.48538 0.0
N433 N 1.00589 0.83821 0.51129 0.0
C434 C 0.93693 0.94749 0.49591 0.0
C435 C 0.98191 0.87275 0.50856 0.0
N436 N 0.86666 0.88976 0.45094 0.0
N437 N 0.04212 0.92482 0.56543 0.0
H438 H 0.98996 0.80328 0.49695 0.0
H439 H 0.04302 0.84479 0.52542 0.0
H440 H 0.05976 0.95768 0.58292 0.0
H441 H 0.05487 0.89697 0.57761 0.0
H442 H 0.84389 0.91235 0.45051 0.0
H443 H 0.84948 0.85696 0.43289 0.0
H444 H 0.89128 0.98355 0.45994 0.0
H445 H 0.93624 1.02017 0.49968 0.0
C446 C 0.30568 0.79882 0.69157 0.0
C447 C 0.26741 0.76361 0.71843 0.0
C448 C 0.31953 0.70908 0.71521 0.0
C449 C 0.36078 0.74709 0.69434 0.0
N450 N 0.39539 0.82908 0.66473 0.0
N451 N 0.23722 0.68602 0.75745 0.0
C452 C 0.35428 0.79206 0.68255 0.0
C453 C 0.27386 0.71864 0.73028 0.0
N454 N 0.29549 0.83882 0.6749 0.0
N455 N 0.32393 0.66382 0.72004 0.0
H456 H 0.20232 0.69114 0.76716 0.0
H457 H 0.24231 0.6552 0.77222 0.0
H458 H 0.35719 0.65588 0.70992 0.0
H459 H 0.29339 0.63324 0.73063 0.0
H460 H 0.31942 0.86334 0.65118 0.0
H461 H 0.26067 0.84544 0.68154 0.0
H462 H 0.39534 0.86463 0.66073 0.0
H463 H 0.43134 0.82526 0.65677 0.0
C464 C 0.73004 0.91633 0.85792 0.0
C465 C 0.70718 0.86583 0.84784 0.0
C466 C 0.73016 0.87974 0.7645 0.0
C467 C 0.75401 0.93002 0.77484 0.0
N468 N 0.76632 0.99837 0.82758 0.0
N469 N 0.67455 0.80039 0.79155 0.0
C470 C 0.75018 0.94904 0.82034 0.0
C471 C 0.70356 0.84784 0.80094 0.0
N472 N 0.73527 0.9326 0.90369 0.0
N473 N 0.73476 0.86248 0.72033 0.0
H474 H 0.65494 0.7763 0.81783 0.0
H475 H 0.66639 0.78587 0.75764 0.0
H476 H 0.75199 0.88538 0.69242 0.0
H477 H 0.72367 0.82559 0.7117 0.0
H478 H 0.75742 0.96788 0.91382 0.0
H479 H 0.72023 0.91004 0.93235 0.0
H480 H 0.75946 1.01462 0.85859 0.0
H481 H 0.78281 1.0235 0.80114 0.0
C482 C 0.91474 0.3225 0.30217 0.0
C483 C 0.89468 0.32019 0.34854 0.0
C484 C 0.80718 0.2742 0.31948 0.0
C485 C 0.82926 0.26839 0.2756 0.0
N486 N 0.90271 0.28779 0.22305 0.0
N487 N 0.82218 0.29153 0.40271 0.0
C488 C 0.8826 0.2935 0.266 0.0
C489 C 0.84072 0.29636 0.35749 0.0
N490 N 0.96451 0.3522 0.29317 0.0
N491 N 0.75417 0.25759 0.32493 0.0
H492 H 0.84514 0.30671 0.43198 0.0
H493 H 0.78477 0.26933 0.41184 0.0
H494 H 0.72853 0.24022 0.29789 0.0
H495 H 0.73546 0.26512 0.35457 0.0
H496 H 0.98043 0.35866 0.25948 0.0
H497 H 0.98851 0.37375 0.31935 0.0
H498 H 0.94239 0.30051 0.21535 0.0
H499 H 0.87942 0.26836 0.1954 0.0
C500 C 0.43449 0.62699 0.40361 0.0
C501 C 0.44909 0.67834 0.39815 0.0
C502 C 0.50067 0.68956 0.47176 0.0
C503 C 0.48393 0.63814 0.47887 0.0
N504 N 0.4258 0.55871 0.45598 0.0
N505 N 0.48643 0.75826 0.43244 0.0
C506 C 0.4482 0.60708 0.44597 0.0
C507 C 0.47884 0.70942 0.43417 0.0
N508 N 0.40863 0.59709 0.36772 0.0
N509 N 0.54032 0.71953 0.4987 0.0
H510 H 0.47147 0.77394 0.40531 0.0
H511 H 0.50304 0.78228 0.46002 0.0
H512 H 0.55949 0.70672 0.52471 0.0
H513 H 0.55804 0.75652 0.49197 0.0
H514 H 0.40262 0.55983 0.3667 0.0
H515 H 0.396 0.61022 0.33742 0.0
H516 H 0.39577 0.53495 0.43596 0.0
H517 H 0.43376 0.5432 0.48692 0.0
C518 C 0.17094 0.55415 0.90563 0.0
C519 C 0.15555 0.50302 0.89741 0.0
C520 C 0.10446 0.48923 0.97111 0.0
C521 C 0.12153 0.54036 0.98066 0.0
N522 N 0.17982 0.62046 0.96144 0.0
N523 N 0.1172 0.4218 0.92731 0.0
C524 C 0.15735 0.57251 0.94911 0.0
C525 C 0.12557 0.47063 0.93194 0.0
N526 N 0.19742 0.58533 0.87128 0.0
N527 N 0.06528 0.45844 0.9974 0.0
H528 H 0.13161 0.4071 0.89894 0.0
H529 H 0.10041 0.39662 0.95358 0.0
H530 H 0.04721 0.47031 1.02504 0.0
H531 H 0.04704 0.4218 0.98897 0.0
H532 H 0.20434 0.62276 0.87225 0.0
H533 H 0.20993 0.57326 0.84022 0.0
H534 H 0.20992 0.64496 0.9425 0.0
H535 H 0.1717 0.63482 0.99317 0.0
C536 C 0.58624 0.90039 1.04962 0.0
C537 C 0.57293 0.88369 1.00291 0.0
C538 C 0.55842 0.96033 0.98287 0.0
C539 C 0.57574 0.97864 1.02882 0.0
N540 N 0.61371 0.96814 0.10408 0.0
N541 N 0.54706 0.89613 0.92414 0.0
C542 C 0.59217 0.94943 0.06153 0.0
C543 C 0.55914 0.9132 0.96921 0.0
N544 N 0.59111 0.86861 0.08333 0.0
N545 N 0.541 0.98803 0.95252 0.0
H546 H 0.5428 0.86036 0.91438 0.0
H547 H 0.54264 0.91737 0.89609 0.0
H548 H 0.54412 1.0241 0.95982 0.0
H549 H 0.52206 0.97516 0.92075 0.0
H550 H 0.59376 0.87649 0.11933 0.0
H551 H 0.58725 0.83236 0.07596 0.0
H552 H 0.63244 0.95061 0.12616 0.0
H553 H 0.61716 1.00274 0.11637 0.0
C554 C 0.05006 0.27709 0.48023 0.0
C555 C 0.99735 0.26949 0.46774 0.0
C556 C 0.97461 0.18343 0.4883 0.0
C557 C 1.02486 0.19271 0.50821 0.0
N558 N 0.10867 0.25148 0.5297 0.0
N559 N 0.90695 0.21727 0.47012 0.0
C560 C 0.06252 0.24028 0.50559 0.0
C561 C 0.95886 0.22308 0.47438 0.0
N562 N 0.08824 0.31913 0.4675 0.0
N563 N 0.94203 0.13657 0.48226 0.0
H564 H 0.89312 0.24592 0.46282 0.0
H565 H 0.87749 0.18512 0.47907 0.0
H566 H 0.9532 0.10656 0.49069 0.0
H567 H 0.90665 0.12769 0.4641 0.0
H568 H 0.12791 0.32449 0.47163 0.0
H569 H 0.08041 0.34676 0.44881 0.0
H570 H 0.13461 0.28693 0.53315 0.0
H571 H 0.11896 0.22646 0.55013 0.0
C572 C 0.24096 0.71954 0.22027 0.0
C573 C 0.28667 0.70716 0.21164 0.0
C574 C 0.23718 0.64543 0.15336 0.0
C575 C 0.19343 0.66161 0.15834 0.0
N576 N 0.15492 0.71713 0.19354 0.0
N577 N 0.33033 0.66301 0.16459 0.0
C578 C 0.19577 0.69961 0.19096 0.0
C579 C 0.28522 0.67111 0.17692 0.0
N580 N 0.24034 0.74937 0.25758 0.0
N581 N 0.23269 0.60498 0.12658 0.0
H582 H 0.36621 0.68089 0.18065 0.0
H583 H 0.33309 0.64146 0.1359 0.0
H584 H 0.1991 0.58649 0.10734 0.0
H585 H 0.26068 0.58766 0.12621 0.0
H586 H 0.20699 0.75618 0.26901 0.0
H587 H 0.27235 0.76393 0.27999 0.0
H588 H 0.15612 0.74816 0.21267 0.0
H589 H 0.1209 0.70274 0.17357 0.0
C590 C 0.3195 0.51245 0.67453 0.0
C591 C 0.31617 0.47387 0.70644 0.0
C592 C 0.40539 0.4779 0.68388 0.0
C593 C 0.40986 0.51848 0.65446 0.0
N594 N 0.37479 0.58017 0.62854 0.0
N595 N 0.35985 0.42654 0.74829 0.0
C596 C 0.36804 0.5376 0.65202 0.0
C597 C 0.36033 0.4585 0.71296 0.0
N598 N 0.27565 0.52351 0.66367 0.0
N599 N 0.44412 0.45752 0.68377 0.0
H600 H 0.32813 0.41248 0.77083 0.0
H601 H 0.39241 0.41751 0.75824 0.0
H602 H 0.47823 0.47149 0.66414 0.0
H603 H 0.44083 0.42472 0.70021 0.0
H604 H 0.27424 0.54747 0.63695 0.0
H605 H 0.23929 0.50569 0.67854 0.0
H606 H 0.34836 0.59918 0.63026 0.0
H607 H 0.40875 0.59849 0.61006 0.0
C608 C 0.79748 0.80132 0.99703 0.0
C609 C 0.76031 0.7683 0.96683 0.0
C610 C 0.81594 0.71718 0.96032 0.0
C611 C 0.8529 0.75001 0.99083 0.0
N612 N 0.87502 0.81737 1.04581 0.0
N613 N 0.72843 0.69089 0.92672 0.0
C614 C 0.84238 0.79023 1.01163 0.0
C615 C 0.76774 0.72483 0.95079 0.0
N616 N 0.79091 0.8443 1.01005 0.0
N617 N 0.82781 0.67972 0.93924 0.0
H618 H 0.69292 0.69587 0.91907 0.0
H619 H 0.72904 0.65634 0.91764 0.0
H620 H 0.86219 0.67237 0.94621 0.0
H621 H 0.80532 0.65763 0.91273 0.0
H622 H 0.81959 0.87268 1.0269 0.0
H623 H 0.75761 0.85296 1.00164 0.0
H624 H 0.86669 0.84384 0.06606 0.0
H625 H 0.90887 0.81087 0.05663 0.0
C626 C 0.4446 0.90673 0.24169 0.0
C627 C 0.43746 0.86322 0.21529 0.0
C628 C 0.46637 0.9122 0.14371 0.0
C629 C 0.47789 0.95624 0.17052 0.0
N630 N 0.48286 0.99509 0.24665 0.0
N631 N 0.45414 0.82572 0.14385 0.0
C632 C 0.46883 0.95332 0.22011 0.0
C633 C 0.45215 0.86642 0.16712 0.0
N634 N 0.42622 0.90358 0.28682 0.0
N635 N 0.46743 0.91345 0.09559 0.0
H636 H 0.44467 0.79167 0.15982 0.0
H637 H 0.47039 0.82673 0.11043 0.0
H638 H 0.4768 0.94545 0.07655 0.0
H639 H 0.45396 0.88239 0.07436 0.0
H640 H 0.42468 0.93349 0.30638 0.0
H641 H 0.40887 0.87037 0.30371 0.0
H642 H 0.4832 0.99537 0.28339 0.0
H643 H 0.49702 1.02981 0.23198 0.0
C644 C 0.12375 0.31234 0.67801 0.0
C645 C 0.16258 0.31964 0.71361 0.0
C646 C 0.15602 0.23299 0.70635 0.0
C647 C 0.11497 0.22504 0.67271 0.0
N648 N 0.05455 0.2559 0.63151 0.0
N649 N 0.21099 0.286 0.76642 0.0
C650 C 0.09714 0.26432 0.66029 0.0
C651 C 0.17743 0.27963 0.72903 0.0
N652 N 0.11401 0.35178 0.65938 0.0
N653 N 0.17473 0.1959 0.71654 0.0
H654 H 0.22749 0.3195 0.78351 0.0
H655 H 0.21955 0.25766 0.78293 0.0
H656 H 0.15787 0.16056 0.70335 0.0
H657 H 0.20854 0.20049 0.73607 0.0
H658 H 0.09129 0.35003 0.62935 0.0
H659 H 0.13206 0.38733 0.67159 0.0
H660 H 0.03572 0.28128 0.62574 0.0
H661 H 0.03555 0.22233 0.61562 0.0
C662 C 0.84153 0.47097 0.49241 0.0
C663 C 0.85102 0.42656 0.50016 0.0
C664 C 0.75713 0.3831 0.50748 0.0
C665 C 0.74791 0.42816 0.50369 0.0
N666 N 0.7808 0.51597 0.49873 0.0
N667 N 0.81988 0.34141 0.52084 0.0
C668 C 0.78999 0.47245 0.49776 0.0
C669 C 0.80938 0.38286 0.5093 0.0
N670 N 0.8816 0.51144 0.47902 0.0
N671 N 0.71585 0.34052 0.50815 0.0
H672 H 0.8576 0.33957 0.5217 0.0
H673 H 0.79178 0.30977 0.53282 0.0
H674 H 0.67706 0.33948 0.50756 0.0
H675 H 0.71977 0.30616 0.5056 0.0
H676 H 0.87635 0.54353 0.46775 0.0
H677 H 0.92004 0.51184 0.47593 0.0
H678 H 0.81027 0.54971 0.49981 0.0
H679 H 0.74352 0.51855 0.50185 0.0
loop_
_geom_bond_atom_site_label_1
_geom_bond_atom_site_label_2
_geom_bond_distance
_geom_bond_site_symmetry_2
_ccdc_geom_bond_type
H0 C3 0.929 . S
H1 C6 0.929 . S
H2 C8 0.930 . S
C3 H0 0.929 . S
C3 C4 1.398 . S
C3 C5 1.396 . S
C4 C3 1.398 . S
C4 C8 1.407 . S
C5 C3 1.396 . S
C5 C6 1.394 . S
C6 H1 0.929 . S
C6 C5 1.394 . S
C6 C7 1.382 . S
C7 C6 1.382 . S
C7 C8 1.392 . S
C7 N9 1.420 . S
C8 H2 0.930 . S
C8 C4 1.407 . S
C8 C7 1.392 . S
N9 C7 1.420 . S
N9 C10 1.244 . S
C10 N9 1.244 . S
H11 C14 0.929 . S
H12 C17 0.929 . S
H13 C19 0.930 . S
C14 H11 0.929 . S
C14 C15 1.398 . S
C14 C16 1.396 . S
C15 C14 1.398 . S
C15 C19 1.407 . S
C16 C14 1.396 . S
C16 C17 1.394 . S
C17 H12 0.929 . S
C17 C16 1.394 . S
C17 C18 1.382 . S
C18 C17 1.382 . S
C18 C19 1.392 . S
C18 N20 1.420 . S
C19 H13 0.930 . S
C19 C15 1.407 . S
C19 C18 1.392 . S
N20 C18 1.420 . S
N20 C21 1.244 . S
C21 N20 1.244 . S
H22 C25 0.929 . S
H23 C28 0.929 . S
H24 C30 0.930 . S
C25 H22 0.929 . S
C25 C26 1.398 . S
C25 C27 1.396 . S
C26 C25 1.398 . S
C26 C30 1.407 . S
C27 C25 1.396 . S
C27 C28 1.394 . S
C28 H23 0.929 . S
C28 C27 1.394 . S
C28 C29 1.382 . S
C29 C28 1.382 . S
C29 C30 1.392 . S
C29 N31 1.420 . S
C30 H24 0.930 . S
C30 C26 1.407 . S
C30 C29 1.392 . S
N31 C29 1.420 . S
N31 C32 1.244 . S
C32 N31 1.244 . S
H33 C36 0.929 . S
H34 C39 0.929 . S
H35 C41 0.930 . S
C36 H33 0.929 . S
C36 C37 1.398 . S
C36 C38 1.396 . S
C37 C36 1.398 . S
C37 C41 1.407 . S
C38 C36 1.396 . S
C38 C39 1.394 . S
C39 H34 0.929 . S
C39 C38 1.394 . S
C39 C40 1.382 . S
C40 C39 1.382 . S
C40 C41 1.392 . S
C40 N42 1.420 . S
C41 H35 0.930 . S
C41 C37 1.407 . S
C41 C40 1.392 . S
N42 C40 1.420 . S
N42 C43 1.244 . S
C43 N42 1.244 . S
H44 C47 0.929 . S
H45 C50 0.929 . S
H46 C52 0.930 . S
C47 H44 0.929 . S
C47 C48 1.398 . S
C47 C49 1.396 . S
C48 C47 1.398 . S
C48 C52 1.407 . S
C49 C47 1.396 . S
C49 C50 1.394 . S
C50 H45 0.929 . S
C50 C49 1.394 . S
C50 C51 1.382 . S
C51 C50 1.382 . S
C51 C52 1.392 . S
C51 N53 1.420 . S
C52 H46 0.930 . S
C52 C48 1.407 . S
C52 C51 1.392 . S
N53 C51 1.420 . S
N53 C54 1.244 . S
C54 N53 1.244 . S
H55 C58 0.929 . S
H56 C61 0.929 . S
H57 C63 0.930 . S
C58 H55 0.929 . S
C58 C59 1.398 . S
C58 C60 1.396 . S
C59 C58 1.398 . S
C59 C63 1.407 . S
C60 C58 1.396 . S
C60 C61 1.394 . S
C61 H56 0.929 . S
C61 C60 1.394 . S
C61 C62 1.382 . S
C62 C61 1.382 . S
C62 C63 1.392 . S
C62 N64 1.420 . S
C63 H57 0.930 . S
C63 C59 1.407 . S
C63 C62 1.392 . S
N64 C62 1.420 . S
N64 C65 1.244 . S
C65 N64 1.244 . S
H66 C69 0.929 . S
H67 C72 0.929 . S
H68 C74 0.930 . S
C69 H66 0.929 . S
C69 C70 1.398 . S
C69 C71 1.396 . S
C70 C69 1.398 . S
C70 C74 1.407 . S
C71 C69 1.396 . S
C71 C72 1.394 . S
C72 H67 0.929 . S
C72 C71 1.394 . S
C72 C73 1.382 . S
C73 C72 1.382 . S
C73 C74 1.392 . S
C73 N75 1.420 . S
C74 H68 0.930 . S
C74 C70 1.407 . S
C74 C73 1.392 . S
N75 C73 1.420 . S
N75 C76 1.244 . S
C76 N75 1.244 . S
H77 C80 0.929 . S
H78 C83 0.929 . S
H79 C85 0.930 . S
C80 H77 0.929 . S
C80 C81 1.398 . S
C80 C82 1.396 . S
C81 C80 1.398 . S
C81 C85 1.407 . S
C82 C80 1.396 . S
C82 C83 1.394 . S
C83 H78 0.929 . S
C83 C82 1.394 . S
C83 C84 1.382 . S
C84 C83 1.382 . S
C84 C85 1.392 . S
C84 N86 1.420 . S
C85 H79 0.930 . S
C85 C81 1.407 . S
C85 C84 1.392 . S
N86 C84 1.420 . S
N86 C87 1.244 . S
C87 N86 1.244 . S
Tb88 C97 2.764 . S
Tb88 O98 2.325 . S
Tb88 O101 2.303 . S
Tb88 O105 2.322 1_545 S
Tb88 O106 2.349 1_545 S
Tb88 O109 2.415 . S
Tb88 O110 2.399 . S
Tb89 O99 2.322 . S
Tb89 O100 2.349 1_655 S
Tb89 O102 2.415 1_545 S
Tb89 O103 2.399 . S
Tb89 O104 2.325 1_645 S
Tb89 O107 2.303 1_545 S
Tb89 C118 2.764 1_545 S
C90 O106 1.261 1_655 S
C90 O107 1.257 . S
C91 C94 1.358 . S
C91 C95 1.332 . S
C91 C97 1.504 . S
C92 C93 1.373 . S
C92 C96 1.308 . S
C93 C92 1.373 . S
C93 C94 1.429 . S
C93 H120 0.932 . S
C94 C91 1.358 . S
C94 C93 1.429 . S
C94 H121 0.930 . S
C95 C91 1.332 . S
C95 C96 1.394 . S
C95 H122 0.932 . S
C96 C92 1.308 . S
C96 C95 1.394 . S
C96 H123 0.929 . S
C97 Tb88 2.764 . S
C97 C91 1.504 . S
C97 O109 1.239 . S
C97 O110 1.263 . S
O98 Tb88 2.325 . S
O98 C108 1.236 1_455 S
O99 Tb89 2.322 . S
O99 C108 1.257 . S
O100 Tb89 2.349 1_455 S
O100 C111 1.261 . S
O101 Tb88 2.303 . S
O101 C111 1.257 . S
O102 Tb89 2.415 1_565 S
O102 C118 1.239 . S
O103 Tb89 2.399 . S
O103 C118 1.263 1_545 S
O104 Tb89 2.325 1_465 S
O104 C119 1.236 . S
O105 Tb88 2.322 1_565 S
O105 C119 1.257 . S
O106 Tb88 2.349 1_565 S
O106 C90 1.261 1_455 S
O107 Tb89 2.303 1_565 S
O107 C90 1.257 . S
C108 O98 1.236 1_655 S
C108 O99 1.257 . S
O109 Tb88 2.415 . S
O109 C97 1.239 . S
O110 Tb88 2.399 . S
O110 C97 1.263 . S
C111 O100 1.261 . S
C111 O101 1.257 . S
C112 C115 1.358 . S
C112 C116 1.332 . S
C112 C118 1.504 . S
C113 C114 1.373 . S
C113 C117 1.308 . S
C114 C113 1.373 . S
C114 C115 1.429 . S
C114 H124 0.932 . S
C115 C112 1.358 . S
C115 C114 1.429 . S
C115 H125 0.930 . S
C116 C112 1.332 . S
C116 C117 1.394 . S
C116 H126 0.932 . S
C117 C113 1.308 . S
C117 C116 1.394 . S
C117 H127 0.929 . S
C118 Tb89 2.764 1_565 S
C118 O102 1.239 . S
C118 O103 1.263 1_565 S
C118 C112 1.504 . S
C119 O104 1.236 . S
C119 O105 1.257 . S
H120 C93 0.932 . S
H121 C94 0.930 . S
H122 C95 0.932 . S
H123 C96 0.929 . S
H124 C114 0.932 . S
H125 C115 0.930 . S
H126 C116 0.932 . S
H127 C117 0.929 . S
Tb128 C137 2.764 . S
Tb128 O138 2.325 . S
Tb128 O141 2.303 . S
Tb128 O145 2.322 1_545 S
Tb128 O146 2.349 1_545 S
Tb128 O149 2.415 . S
Tb128 O150 2.399 . S
Tb129 O139 2.322 . S
Tb129 O140 2.349 . S
Tb129 O142 2.415 1_544 S
Tb129 O143 2.399 1_544 S
Tb129 O144 2.325 1_545 S
Tb129 O147 2.303 1_545 S
Tb129 C158 2.764 1_544 S
C130 O146 1.261 . S
C130 O147 1.257 . S
C131 C134 1.358 . S
C131 C135 1.332 . S
C131 C137 1.504 . S
C132 C133 1.373 . S
C132 C136 1.308 . S
C133 C132 1.373 . S
C133 C134 1.429 . S
C133 H160 0.932 . S
C134 C131 1.358 . S
C134 C133 1.429 . S
C134 H161 0.930 . S
C135 C131 1.332 . S
C135 C136 1.394 . S
C135 H162 0.932 . S
C136 C132 1.308 . S
C136 C135 1.394 . S
C136 H163 0.929 . S
C137 Tb128 2.764 . S
C137 C131 1.504 . S
C137 O149 1.239 . S
C137 O150 1.263 . S
O138 Tb128 2.325 . S
O138 C148 1.236 . S
O139 Tb129 2.322 . S
O139 C148 1.257 . S
O140 Tb129 2.349 . S
O140 C151 1.261 . S
O141 Tb128 2.303 . S
O141 C151 1.257 . S
O142 Tb129 2.415 1_566 S
O142 C158 1.239 . S
O143 Tb129 2.399 1_566 S
O143 C158 1.263 . S
O144 Tb129 2.325 1_565 S
O144 C159 1.236 . S
O145 Tb128 2.322 1_565 S
O145 C159 1.257 . S
O146 Tb128 2.349 1_565 S
O146 C130 1.261 . S
O147 Tb129 2.303 1_565 S
O147 C130 1.257 . S
C148 O138 1.236 . S
C148 O139 1.257 . S
O149 Tb128 2.415 . S
O149 C137 1.239 . S
O150 Tb128 2.399 . S
O150 C137 1.263 . S
C151 O140 1.261 . S
C151 O141 1.257 . S
C152 C155 1.358 . S
C152 C156 1.332 . S
C152 C158 1.504 . S
C153 C154 1.373 . S
C153 C157 1.308 . S
C154 C153 1.373 . S
C154 C155 1.429 . S
C154 H164 0.932 . S
C155 C152 1.358 . S
C155 C154 1.429 . S
C155 H165 0.930 . S
C156 C152 1.332 . S
C156 C157 1.394 . S
C156 H166 0.932 . S
C157 C153 1.308 . S
C157 C156 1.394 . S
C157 H167 0.929 . S
C158 Tb129 2.764 1_566 S
C158 O142 1.239 . S
C158 O143 1.263 . S
C158 C152 1.504 . S
C159 O144 1.236 . S
C159 O145 1.257 . S
H160 C133 0.932 . S
H161 C134 0.930 . S
H162 C135 0.932 . S
H163 C136 0.929 . S
H164 C154 0.932 . S
H165 C155 0.930 . S
H166 C156 0.932 . S
H167 C157 0.929 . S
Tb168 C177 2.764 . S
Tb168 O178 2.325 . S
Tb168 O181 2.303 . S
Tb168 O185 2.322 . S
Tb168 O186 2.349 . S
Tb168 O189 2.415 . S
Tb168 O190 2.399 . S
Tb169 O179 2.322 . S
Tb169 O180 2.349 . S
Tb169 O182 2.415 . S
Tb169 O183 2.399 . S
Tb169 O184 2.325 . S
Tb169 O187 2.303 . S
Tb169 C198 2.764 . S
C170 O186 1.261 . S
C170 O187 1.257 . S
C171 C174 1.358 . S
C171 C175 1.332 . S
C171 C177 1.504 . S
C172 C173 1.373 . S
C172 C176 1.308 . S
C173 C172 1.373 . S
C173 C174 1.429 . S
C173 H200 0.932 . S
C174 C171 1.358 . S
C174 C173 1.429 . S
C174 H201 0.930 . S
C175 C171 1.332 . S
C175 C176 1.394 . S
C175 H202 0.932 . S
C176 C172 1.308 . S
C176 C175 1.394 . S
C176 H203 0.929 . S
C177 Tb168 2.764 . S
C177 C171 1.504 . S
C177 O189 1.239 . S
C177 O190 1.263 . S
O178 Tb168 2.325 . S
O178 C188 1.236 . S
O179 Tb169 2.322 . S
O179 C188 1.257 . S
O180 Tb169 2.349 . S
O180 C191 1.261 . S
O181 Tb168 2.303 . S
O181 C191 1.257 . S
O182 Tb169 2.415 . S
O182 C198 1.239 . S
O183 Tb169 2.399 . S
O183 C198 1.263 . S
O184 Tb169 2.325 . S
O184 C199 1.236 . S
O185 Tb168 2.322 . S
O185 C199 1.257 . S
O186 Tb168 2.349 . S
O186 C170 1.261 . S
O187 Tb169 2.303 . S
O187 C170 1.257 . S
C188 O178 1.236 . S
C188 O179 1.257 . S
O189 Tb168 2.415 . S
O189 C177 1.239 . S
O190 Tb168 2.399 . S
O190 C177 1.263 . S
C191 O180 1.261 . S
C191 O181 1.257 . S
C192 C195 1.358 . S
C192 C196 1.332 . S
C192 C198 1.504 . S
C193 C194 1.373 . S
C193 C197 1.308 . S
C194 C193 1.373 . S
C194 C195 1.429 . S
C194 H204 0.932 . S
C195 C192 1.358 . S
C195 C194 1.429 . S
C195 H205 0.930 . S
C196 C192 1.332 . S
C196 C197 1.394 . S
C196 H206 0.932 . S
C197 C193 1.308 . S
C197 C196 1.394 . S
C197 H207 0.929 . S
C198 Tb169 2.764 . S
C198 O182 1.239 . S
C198 O183 1.263 . S
C198 C192 1.504 . S
C199 O184 1.236 . S
C199 O185 1.257 . S
H200 C173 0.932 . S
H201 C174 0.930 . S
H202 C175 0.932 . S
H203 C176 0.929 . S
H204 C194 0.932 . S
H205 C195 0.930 . S
H206 C196 0.932 . S
H207 C197 0.929 . S
Tb208 C217 2.764 1_455 S
Tb208 O218 2.325 1_455 S
Tb208 O221 2.303 1_556 S
Tb208 O225 2.322 1_556 S
Tb208 O226 2.349 . S
Tb208 O229 2.415 1_455 S
Tb208 O230 2.399 . S
Tb209 O219 2.322 1_455 S
Tb209 O220 2.349 . S
Tb209 O222 2.415 . S
Tb209 O223 2.399 . S
Tb209 O224 2.325 . S
Tb209 O227 2.303 1_554 S
Tb209 C238 2.764 . S
C210 O226 1.261 . S
C210 O227 1.257 . S
C211 C214 1.358 . S
C211 C215 1.332 . S
C211 C217 1.504 . S
C212 C213 1.373 . S
C212 C216 1.308 . S
C213 C212 1.373 . S
C213 C214 1.429 . S
C213 H240 0.932 . S
C214 C211 1.358 . S
C214 C213 1.429 . S
C214 H241 0.930 . S
C215 C211 1.332 . S
C215 C216 1.394 . S
C215 H242 0.932 . S
C216 C212 1.308 . S
C216 C215 1.394 . S
C216 H243 0.929 . S
C217 Tb208 2.764 1_655 S
C217 C211 1.504 . S
C217 O229 1.239 . S
C217 O230 1.263 1_655 S
O218 Tb208 2.325 1_655 S
O218 C228 1.236 . S
O219 Tb209 2.322 1_655 S
O219 C228 1.257 1_554 S
O220 Tb209 2.349 . S
O220 C231 1.261 . S
O221 Tb208 2.303 1_554 S
O221 C231 1.257 . S
O222 Tb209 2.415 . S
O222 C238 1.239 . S
O223 Tb209 2.399 . S
O223 C238 1.263 . S
O224 Tb209 2.325 . S
O224 C239 1.236 . S
O225 Tb208 2.322 1_554 S
O225 C239 1.257 . S
O226 Tb208 2.349 . S
O226 C210 1.261 . S
O227 Tb209 2.303 1_556 S
O227 C210 1.257 . S
C228 O218 1.236 . S
C228 O219 1.257 1_556 S
O229 Tb208 2.415 1_655 S
O229 C217 1.239 . S
O230 Tb208 2.399 . S
O230 C217 1.263 1_455 S
C231 O220 1.261 . S
C231 O221 1.257 . S
C232 C235 1.358 . S
C232 C236 1.332 . S
C232 C238 1.504 . S
C233 C234 1.373 . S
C233 C237 1.308 . S
C234 C233 1.373 . S
C234 C235 1.429 . S
C234 H244 0.932 . S
C235 C232 1.358 . S
C235 C234 1.429 . S
C235 H245 0.930 . S
C236 C232 1.332 . S
C236 C237 1.394 . S
C236 H246 0.932 . S
C237 C233 1.308 . S
C237 C236 1.394 . S
C237 H247 0.929 . S
C238 Tb209 2.764 . S
C238 O222 1.239 . S
C238 O223 1.263 . S
C238 C232 1.504 . S
C239 O224 1.236 . S
C239 O225 1.257 . S
H240 C213 0.932 . S
H241 C214 0.930 . S
H242 C215 0.932 . S
H243 C216 0.929 . S
H244 C234 0.932 . S
H245 C235 0.930 . S
H246 C236 0.932 . S
H247 C237 0.929 . S
C248 C249 1.363 . S
C248 C254 1.379 . S
C248 N256 1.356 . S
C249 C248 1.363 . S
C249 C255 1.363 . S
C250 C251 1.363 . S
C250 C255 1.379 . S
C250 N257 1.356 . S
C251 C250 1.363 . S
C251 C254 1.363 . S
N252 C254 1.356 . S
N252 H264 0.984 . S
N252 H265 0.985 . S
N253 C255 1.356 . S
N253 H258 0.984 . S
N253 H259 0.985 . S
C254 C248 1.379 . S
C254 C251 1.363 . S
C254 N252 1.356 . S
C255 C249 1.363 . S
C255 C250 1.379 . S
C255 N253 1.356 . S
N256 C248 1.356 . S
N256 H262 0.984 . S
N256 H263 0.984 . S
N257 C250 1.356 . S
N257 H260 0.984 . S
N257 H261 0.985 . S
H258 N253 0.984 . S
H259 N253 0.985 . S
H260 N257 0.984 . S
H261 N257 0.985 . S
H262 N256 0.984 . S
H263 N256 0.984 . S
H264 N252 0.984 . S
H265 N252 0.985 . S
C266 C267 1.363 . S
C266 C272 1.379 . S
C266 N274 1.356 . S
C267 C266 1.363 . S
C267 C273 1.363 . S
C268 C269 1.363 . S
C268 C273 1.379 . S
C268 N275 1.356 . S
C269 C268 1.363 . S
C269 C272 1.363 . S
N270 C272 1.356 . S
N270 H282 0.984 . S
N270 H283 0.985 . S
N271 C273 1.356 . S
N271 H276 0.984 . S
N271 H277 0.985 . S
C272 C266 1.379 . S
C272 C269 1.363 . S
C272 N270 1.356 . S
C273 C267 1.363 . S
C273 C268 1.379 . S
C273 N271 1.356 . S
N274 C266 1.356 . S
N274 H280 0.984 . S
N274 H281 0.984 . S
N275 C268 1.356 . S
N275 H278 0.984 . S
N275 H279 0.985 . S
H276 N271 0.984 . S
H277 N271 0.985 . S
H278 N275 0.984 . S
H279 N275 0.985 . S
H280 N274 0.984 . S
H281 N274 0.984 . S
H282 N270 0.984 . S
H283 N270 0.985 . S
C284 C285 1.363 . S
C284 C290 1.379 . S
C284 N292 1.356 . S
C285 C284 1.363 . S
C285 C291 1.363 . S
C286 C287 1.363 . S
C286 C291 1.379 . S
C286 N293 1.356 . S
C287 C286 1.363 . S
C287 C290 1.363 . S
N288 C290 1.356 . S
N288 H300 0.984 . S
N288 H301 0.985 . S
N289 C291 1.356 . S
N289 H294 0.984 . S
N289 H295 0.985 . S
C290 C284 1.379 . S
C290 C287 1.363 . S
C290 N288 1.356 . S
C291 C285 1.363 . S
C291 C286 1.379 . S
C291 N289 1.356 . S
N292 C284 1.356 . S
N292 H298 0.984 . S
N292 H299 0.984 . S
N293 C286 1.356 . S
N293 H296 0.984 . S
N293 H297 0.985 . S
H294 N289 0.984 . S
H295 N289 0.985 . S
H296 N293 0.984 . S
H297 N293 0.985 . S
H298 N292 0.984 . S
H299 N292 0.984 . S
H300 N288 0.984 . S
H301 N288 0.985 . S
C302 C303 1.363 . S
C302 C308 1.379 . S
C302 N310 1.356 . S
C303 C302 1.363 . S
C303 C309 1.363 . S
C304 C305 1.363 . S
C304 C309 1.379 . S
C304 N311 1.356 . S
C305 C304 1.363 . S
C305 C308 1.363 . S
N306 C308 1.356 1_455 S
N306 H318 0.984 . S
N306 H319 0.985 . S
N307 C309 1.356 . S
N307 H312 0.984 . S
N307 H313 0.985 . S
C308 C302 1.379 . S
C308 C305 1.363 . S
C308 N306 1.356 1_655 S
C309 C303 1.363 . S
C309 C304 1.379 . S
C309 N307 1.356 . S
N310 C302 1.356 . S
N310 H316 0.984 . S
N310 H317 0.984 . S
N311 C304 1.356 . S
N311 H314 0.984 . S
N311 H315 0.985 . S
H312 N307 0.984 . S
H313 N307 0.985 . S
H314 N311 0.984 . S
H315 N311 0.985 . S
H316 N310 0.984 . S
H317 N310 0.984 . S
H318 N306 0.984 . S
H319 N306 0.985 . S
C320 C321 1.363 . S
C320 C326 1.379 . S
C320 N328 1.356 . S
C321 C320 1.363 . S
C321 C327 1.363 . S
C322 C323 1.363 . S
C322 C327 1.379 . S
C322 N329 1.356 . S
C323 C322 1.363 . S
C323 C326 1.363 . S
N324 C326 1.356 . S
N324 H336 0.984 . S
N324 H337 0.985 . S
N325 C327 1.356 . S
N325 H330 0.984 . S
N325 H331 0.985 . S
C326 C320 1.379 . S
C326 C323 1.363 . S
C326 N324 1.356 . S
C327 C321 1.363 . S
C327 C322 1.379 . S
C327 N325 1.356 . S
N328 C320 1.356 . S
N328 H334 0.984 . S
N328 H335 0.984 . S
N329 C322 1.356 . S
N329 H332 0.984 . S
N329 H333 0.985 . S
H330 N325 0.984 . S
H331 N325 0.985 . S
H332 N329 0.984 . S
H333 N329 0.985 . S
H334 N328 0.984 . S
H335 N328 0.984 . S
H336 N324 0.984 . S
H337 N324 0.985 . S
C338 C339 1.363 1_655 S
C338 C344 1.379 1_655 S
C338 N346 1.356 . S
C339 C338 1.363 1_455 S
C339 C345 1.363 . S
C340 C341 1.363 . S
C340 C345 1.379 . S
C340 N347 1.356 . S
C341 C340 1.363 . S
C341 C344 1.363 . S
N342 C344 1.356 1_655 S
N342 H354 0.984 . S
N342 H355 0.985 . S
N343 C345 1.356 . S
N343 H348 0.984 . S
N343 H349 0.985 . S
C344 C338 1.379 1_455 S
C344 C341 1.363 . S
C344 N342 1.356 1_455 S
C345 C339 1.363 . S
C345 C340 1.379 . S
C345 N343 1.356 . S
N346 C338 1.356 . S
N346 H352 0.984 . S
N346 H353 0.984 . S
N347 C340 1.356 . S
N347 H350 0.984 . S
N347 H351 0.985 . S
H348 N343 0.984 . S
H349 N343 0.985 . S
H350 N347 0.984 . S
H351 N347 0.985 . S
H352 N346 0.984 . S
H353 N346 0.984 . S
H354 N342 0.984 . S
H355 N342 0.985 . S
C356 C357 1.363 . S
C356 C362 1.379 . S
C356 N364 1.356 . S
C357 C356 1.363 . S
C357 C363 1.363 . S
C358 C359 1.363 . S
C358 C363 1.379 . S
C358 N365 1.356 . S
C359 C358 1.363 . S
C359 C362 1.363 . S
N360 C362 1.356 1_554 S
N360 H372 0.984 . S
N360 H373 0.985 . S
N361 C363 1.356 . S
N361 H366 0.984 . S
N361 H367 0.985 . S
C362 C356 1.379 . S
C362 C359 1.363 . S
C362 N360 1.356 1_556 S
C363 C357 1.363 . S
C363 C358 1.379 . S
C363 N361 1.356 . S
N364 C356 1.356 . S
N364 H370 0.984 1_556 S
N364 H371 0.984 . S
N365 C358 1.356 . S
N365 H368 0.984 . S
N365 H369 0.985 . S
H366 N361 0.984 . S
H367 N361 0.985 . S
H368 N365 0.984 . S
H369 N365 0.985 . S
H370 N364 0.984 1_554 S
H371 N364 0.984 . S
H372 N360 0.984 . S
H373 N360 0.985 . S
C374 C375 1.363 . S
C374 C380 1.379 . S
C374 N382 1.356 . S
C375 C374 1.363 . S
C375 C381 1.363 . S
C376 C377 1.363 . S
C376 C381 1.379 . S
C376 N383 1.356 . S
C377 C376 1.363 . S
C377 C380 1.363 . S
N378 C380 1.356 . S
N378 H390 0.984 . S
N378 H391 0.985 . S
N379 C381 1.356 . S
N379 H384 0.984 . S
N379 H385 0.985 . S
C380 C374 1.379 . S
C380 C377 1.363 . S
C380 N378 1.356 . S
C381 C375 1.363 . S
C381 C376 1.379 . S
C381 N379 1.356 . S
N382 C374 1.356 . S
N382 H388 0.984 . S
N382 H389 0.984 . S
N383 C376 1.356 . S
N383 H386 0.984 . S
N383 H387 0.985 . S
H384 N379 0.984 . S
H385 N379 0.985 . S
H386 N383 0.984 . S
H387 N383 0.985 . S
H388 N382 0.984 . S
H389 N382 0.984 . S
H390 N378 0.984 . S
H391 N378 0.985 . S
C392 C393 1.363 . S
C392 C398 1.379 . S
C392 N400 1.356 . S
C393 C392 1.363 . S
C393 C399 1.363 . S
C394 C395 1.363 . S
C394 C399 1.379 . S
C394 N401 1.356 . S
C395 C394 1.363 . S
C395 C398 1.363 . S
N396 C398 1.356 . S
N396 H408 0.984 . S
N396 H409 0.985 . S
N397 C399 1.356 . S
N397 H402 0.984 . S
N397 H403 0.985 . S
C398 C392 1.379 . S
C398 C395 1.363 . S
C398 N396 1.356 . S
C399 C393 1.363 . S
C399 C394 1.379 . S
C399 N397 1.356 . S
N400 C392 1.356 . S
N400 H406 0.984 . S
N400 H407 0.984 . S
N401 C394 1.356 . S
N401 H404 0.984 . S
N401 H405 0.985 . S
H402 N397 0.984 . S
H403 N397 0.985 . S
H404 N401 0.984 . S
H405 N401 0.985 . S
H406 N400 0.984 . S
H407 N400 0.984 . S
H408 N396 0.984 . S
H409 N396 0.985 . S
C410 C411 1.363 . S
C410 C416 1.379 1_556 S
C410 N418 1.356 1_556 S
C411 C410 1.363 . S
C411 C417 1.363 . S
C412 C413 1.363 . S
C412 C417 1.379 . S
C412 N419 1.356 . S
C413 C412 1.363 . S
C413 C416 1.363 1_556 S
N414 C416 1.356 . S
N414 H426 0.984 . S
N414 H427 0.985 . S
N415 C417 1.356 . S
N415 H420 0.984 . S
N415 H421 0.985 . S
C416 C410 1.379 1_554 S
C416 C413 1.363 1_554 S
C416 N414 1.356 . S
C417 C411 1.363 . S
C417 C412 1.379 . S
C417 N415 1.356 . S
N418 C410 1.356 1_554 S
N418 H424 0.984 . S
N418 H425 0.984 1_554 S
N419 C412 1.356 . S
N419 H422 0.984 . S
N419 H423 0.985 . S
H420 N415 0.984 . S
H421 N415 0.985 . S
H422 N419 0.984 . S
H423 N419 0.985 . S
H424 N418 0.984 . S
H425 N418 0.984 1_556 S
H426 N414 0.984 . S
H427 N414 0.985 . S
C428 C429 1.363 . S
C428 C434 1.379 . S
C428 N436 1.356 . S
C429 C428 1.363 . S
C429 C435 1.363 . S
C430 C431 1.363 . S
C430 C435 1.379 . S
C430 N437 1.356 . S
C431 C430 1.363 . S
C431 C434 1.363 . S
N432 C434 1.356 . S
N432 H444 0.985 1_655 S
N432 H445 0.984 1_655 S
N433 C435 1.356 . S
N433 H438 0.984 . S
N433 H439 0.985 . S
C434 C428 1.379 . S
C434 C431 1.363 . S
C434 N432 1.356 . S
C435 C429 1.363 . S
C435 C430 1.379 . S
C435 N433 1.356 . S
N436 C428 1.356 . S
N436 H442 0.984 . S
N436 H443 0.984 . S
N437 C430 1.356 . S
N437 H440 0.984 . S
N437 H441 0.985 . S
H438 N433 0.984 . S
H439 N433 0.985 . S
H440 N437 0.984 . S
H441 N437 0.985 . S
H442 N436 0.984 . S
H443 N436 0.984 . S
H444 N432 0.985 1_455 S
H445 N432 0.984 1_455 S
C446 C447 1.363 . S
C446 C452 1.379 . S
C446 N454 1.356 . S
C447 C446 1.363 . S
C447 C453 1.363 . S
C448 C449 1.363 . S
C448 C453 1.379 . S
C448 N455 1.356 . S
C449 C448 1.363 . S
C449 C452 1.363 . S
N450 C452 1.356 . S
N450 H462 0.984 . S
N450 H463 0.985 . S
N451 C453 1.356 . S
N451 H456 0.984 . S
N451 H457 0.985 . S
C452 C446 1.379 . S
C452 C449 1.363 . S
C452 N450 1.356 . S
C453 C447 1.363 . S
C453 C448 1.379 . S
C453 N451 1.356 . S
N454 C446 1.356 . S
N454 H460 0.984 . S
N454 H461 0.984 . S
N455 C448 1.356 . S
N455 H458 0.984 . S
N455 H459 0.985 . S
H456 N451 0.984 . S
H457 N451 0.985 . S
H458 N455 0.984 . S
H459 N455 0.985 . S
H460 N454 0.984 . S
H461 N454 0.984 . S
H462 N450 0.984 . S
H463 N450 0.985 . S
C464 C465 1.363 . S
C464 C470 1.379 . S
C464 N472 1.356 . S
C465 C464 1.363 . S
C465 C471 1.363 . S
C466 C467 1.363 . S
C466 C471 1.379 . S
C466 N473 1.356 . S
C467 C466 1.363 . S
C467 C470 1.363 . S
N468 C470 1.356 . S
N468 H480 0.984 . S
N468 H481 0.985 . S
N469 C471 1.356 . S
N469 H474 0.984 . S
N469 H475 0.985 . S
C470 C464 1.379 . S
C470 C467 1.363 . S
C470 N468 1.356 . S
C471 C465 1.363 . S
C471 C466 1.379 . S
C471 N469 1.356 . S
N472 C464 1.356 . S
N472 H478 0.984 . S
N472 H479 0.984 . S
N473 C466 1.356 . S
N473 H476 0.984 . S
N473 H477 0.985 . S
H474 N469 0.984 . S
H475 N469 0.985 . S
H476 N473 0.984 . S
H477 N473 0.985 . S
H478 N472 0.984 . S
H479 N472 0.984 . S
H480 N468 0.984 . S
H481 N468 0.985 . S
C482 C483 1.363 . S
C482 C488 1.379 . S
C482 N490 1.356 . S
C483 C482 1.363 . S
C483 C489 1.363 . S
C484 C485 1.363 . S
C484 C489 1.379 . S
C484 N491 1.356 . S
C485 C484 1.363 . S
C485 C488 1.363 . S
N486 C488 1.356 . S
N486 H498 0.984 . S
N486 H499 0.985 . S
N487 C489 1.356 . S
N487 H492 0.984 . S
N487 H493 0.985 . S
C488 C482 1.379 . S
C488 C485 1.363 . S
C488 N486 1.356 . S
C489 C483 1.363 . S
C489 C484 1.379 . S
C489 N487 1.356 . S
N490 C482 1.356 . S
N490 H496 0.984 . S
N490 H497 0.984 . S
N491 C484 1.356 . S
N491 H494 0.984 . S
N491 H495 0.985 . S
H492 N487 0.984 . S
H493 N487 0.985 . S
H494 N491 0.984 . S
H495 N491 0.985 . S
H496 N490 0.984 . S
H497 N490 0.984 . S
H498 N486 0.984 . S
H499 N486 0.985 . S
C500 C501 1.363 . S
C500 C506 1.379 . S
C500 N508 1.356 . S
C501 C500 1.363 . S
C501 C507 1.363 . S
C502 C503 1.363 . S
C502 C507 1.379 . S
C502 N509 1.356 . S
C503 C502 1.363 . S
C503 C506 1.363 . S
N504 C506 1.356 . S
N504 H516 0.984 . S
N504 H517 0.985 . S
N505 C507 1.356 . S
N505 H510 0.984 . S
N505 H511 0.985 . S
C506 C500 1.379 . S
C506 C503 1.363 . S
C506 N504 1.356 . S
C507 C501 1.363 . S
C507 C502 1.379 . S
C507 N505 1.356 . S
N508 C500 1.356 . S
N508 H514 0.984 . S
N508 H515 0.984 . S
N509 C502 1.356 . S
N509 H512 0.984 . S
N509 H513 0.985 . S
H510 N505 0.984 . S
H511 N505 0.985 . S
H512 N509 0.984 . S
H513 N509 0.985 . S
H514 N508 0.984 . S
H515 N508 0.984 . S
H516 N504 0.984 . S
H517 N504 0.985 . S
C518 C519 1.363 . S
C518 C524 1.379 . S
C518 N526 1.356 . S
C519 C518 1.363 . S
C519 C525 1.363 . S
C520 C521 1.363 . S
C520 C525 1.379 . S
C520 N527 1.356 . S
C521 C520 1.363 . S
C521 C524 1.363 . S
N522 C524 1.356 . S
N522 H534 0.984 . S
N522 H535 0.985 . S
N523 C525 1.356 . S
N523 H528 0.984 . S
N523 H529 0.985 . S
C524 C518 1.379 . S
C524 C521 1.363 . S
C524 N522 1.356 . S
C525 C519 1.363 . S
C525 C520 1.379 . S
C525 N523 1.356 . S
N526 C518 1.356 . S
N526 H532 0.984 . S
N526 H533 0.984 . S
N527 C520 1.356 . S
N527 H530 0.984 . S
N527 H531 0.985 . S
H528 N523 0.984 . S
H529 N523 0.985 . S
H530 N527 0.984 . S
H531 N527 0.985 . S
H532 N526 0.984 . S
H533 N526 0.984 . S
H534 N522 0.984 . S
H535 N522 0.985 . S
C536 C537 1.363 . S
C536 C542 1.379 1_556 S
C536 N544 1.356 1_556 S
C537 C536 1.363 . S
C537 C543 1.363 . S
C538 C539 1.363 . S
C538 C543 1.379 . S
C538 N545 1.356 . S
C539 C538 1.363 . S
C539 C542 1.363 1_556 S
N540 C542 1.356 . S
N540 H552 0.984 . S
N540 H553 0.985 . S
N541 C543 1.356 . S
N541 H546 0.984 . S
N541 H547 0.985 . S
C542 C536 1.379 1_554 S
C542 C539 1.363 1_554 S
C542 N540 1.356 . S
C543 C537 1.363 . S
C543 C538 1.379 . S
C543 N541 1.356 . S
N544 C536 1.356 1_554 S
N544 H550 0.984 . S
N544 H551 0.984 1_554 S
N545 C538 1.356 . S
N545 H548 0.984 1_565 S
N545 H549 0.985 . S
H546 N541 0.984 . S
H547 N541 0.985 . S
H548 N545 0.984 1_545 S
H549 N545 0.985 . S
H550 N544 0.984 . S
H551 N544 0.984 1_556 S
H552 N540 0.984 . S
H553 N540 0.985 . S
C554 C555 1.363 . S
C554 C560 1.379 1_655 S
C554 N562 1.356 1_655 S
C555 C554 1.363 . S
C555 C561 1.363 . S
C556 C557 1.363 . S
C556 C561 1.379 . S
C556 N563 1.356 . S
C557 C556 1.363 . S
C557 C560 1.363 1_655 S
N558 C560 1.356 . S
N558 H570 0.984 . S
N558 H571 0.985 . S
N559 C561 1.356 . S
N559 H564 0.984 . S
N559 H565 0.985 . S
C560 C554 1.379 1_455 S
C560 C557 1.363 1_455 S
C560 N558 1.356 . S
C561 C555 1.363 . S
C561 C556 1.379 . S
C561 N559 1.356 . S
N562 C554 1.356 1_455 S
N562 H568 0.984 . S
N562 H569 0.984 . S
N563 C556 1.356 . S
N563 H566 0.984 . S
N563 H567 0.985 . S
H564 N559 0.984 . S
H565 N559 0.985 . S
H566 N563 0.984 . S
H567 N563 0.985 . S
H568 N562 0.984 . S
H569 N562 0.984 . S
H570 N558 0.984 . S
H571 N558 0.985 . S
C572 C573 1.363 . S
C572 C578 1.379 . S
C572 N580 1.356 . S
C573 C572 1.363 . S
C573 C579 1.363 . S
C574 C575 1.363 . S
C574 C579 1.379 . S
C574 N581 1.356 . S
C575 C574 1.363 . S
C575 C578 1.363 . S
N576 C578 1.356 . S
N576 H588 0.984 . S
N576 H589 0.985 . S
N577 C579 1.356 . S
N577 H582 0.984 . S
N577 H583 0.985 . S
C578 C572 1.379 . S
C578 C575 1.363 . S
C578 N576 1.356 . S
C579 C573 1.363 . S
C579 C574 1.379 . S
C579 N577 1.356 . S
N580 C572 1.356 . S
N580 H586 0.984 . S
N580 H587 0.984 . S
N581 C574 1.356 . S
N581 H584 0.984 . S
N581 H585 0.985 . S
H582 N577 0.984 . S
H583 N577 0.985 . S
H584 N581 0.984 . S
H585 N581 0.985 . S
H586 N580 0.984 . S
H587 N580 0.984 . S
H588 N576 0.984 . S
H589 N576 0.985 . S
C590 C591 1.363 . S
C590 C596 1.379 . S
C590 N598 1.356 . S
C591 C590 1.363 . S
C591 C597 1.363 . S
C592 C593 1.363 . S
C592 C597 1.379 . S
C592 N599 1.356 . S
C593 C592 1.363 . S
C593 C596 1.363 . S
N594 C596 1.356 . S
N594 H606 0.984 . S
N594 H607 0.985 . S
N595 C597 1.356 . S
N595 H600 0.984 . S
N595 H601 0.985 . S
C596 C590 1.379 . S
C596 C593 1.363 . S
C596 N594 1.356 . S
C597 C591 1.363 . S
C597 C592 1.379 . S
C597 N595 1.356 . S
N598 C590 1.356 . S
N598 H604 0.984 . S
N598 H605 0.984 . S
N599 C592 1.356 . S
N599 H602 0.984 . S
N599 H603 0.985 . S
H600 N595 0.984 . S
H601 N595 0.985 . S
H602 N599 0.984 . S
H603 N599 0.985 . S
H604 N598 0.984 . S
H605 N598 0.984 . S
H606 N594 0.984 . S
H607 N594 0.985 . S
C608 C609 1.363 . S
C608 C614 1.379 . S
C608 N616 1.356 . S
C609 C608 1.363 . S
C609 C615 1.363 . S
C610 C611 1.363 . S
C610 C615 1.379 . S
C610 N617 1.356 . S
C611 C610 1.363 . S
C611 C614 1.363 . S
N612 C614 1.356 . S
N612 H624 0.984 . S
N612 H625 0.985 . S
N613 C615 1.356 . S
N613 H618 0.984 . S
N613 H619 0.985 . S
C614 C608 1.379 . S
C614 C611 1.363 . S
C614 N612 1.356 . S
C615 C609 1.363 . S
C615 C610 1.379 . S
C615 N613 1.356 . S
N616 C608 1.356 . S
N616 H622 0.984 . S
N616 H623 0.984 . S
N617 C610 1.356 . S
N617 H620 0.984 . S
N617 H621 0.985 . S
H618 N613 0.984 . S
H619 N613 0.985 . S
H620 N617 0.984 . S
H621 N617 0.985 . S
H622 N616 0.984 . S
H623 N616 0.984 . S
H624 N612 0.984 . S
H625 N612 0.985 . S
C626 C627 1.363 . S
C626 C632 1.379 . S
C626 N634 1.356 . S
C627 C626 1.363 . S
C627 C633 1.363 . S
C628 C629 1.363 . S
C628 C633 1.379 . S
C628 N635 1.356 . S
C629 C628 1.363 . S
C629 C632 1.363 . S
N630 C632 1.356 . S
N630 H642 0.984 . S
N630 H643 0.985 . S
N631 C633 1.356 . S
N631 H636 0.984 . S
N631 H637 0.985 . S
C632 C626 1.379 . S
C632 C629 1.363 . S
C632 N630 1.356 . S
C633 C627 1.363 . S
C633 C628 1.379 . S
C633 N631 1.356 . S
N634 C626 1.356 . S
N634 H640 0.984 . S
N634 H641 0.984 . S
N635 C628 1.356 . S
N635 H638 0.984 . S
N635 H639 0.985 . S
H636 N631 0.984 . S
H637 N631 0.985 . S
H638 N635 0.984 . S
H639 N635 0.985 . S
H640 N634 0.984 . S
H641 N634 0.984 . S
H642 N630 0.984 . S
H643 N630 0.985 . S
C644 C645 1.363 . S
C644 C650 1.379 . S
C644 N652 1.356 . S
C645 C644 1.363 . S
C645 C651 1.363 . S
C646 C647 1.363 . S
C646 C651 1.379 . S
C646 N653 1.356 . S
C647 C646 1.363 . S
C647 C650 1.363 . S
N648 C650 1.356 . S
N648 H660 0.984 . S
N648 H661 0.985 . S
N649 C651 1.356 . S
N649 H654 0.984 . S
N649 H655 0.985 . S
C650 C644 1.379 . S
C650 C647 1.363 . S
C650 N648 1.356 . S
C651 C645 1.363 . S
C651 C646 1.379 . S
C651 N649 1.356 . S
N652 C644 1.356 . S
N652 H658 0.984 . S
N652 H659 0.984 . S
N653 C646 1.356 . S
N653 H656 0.984 . S
N653 H657 0.985 . S
H654 N649 0.984 . S
H655 N649 0.985 . S
H656 N653 0.984 . S
H657 N653 0.985 . S
H658 N652 0.984 . S
H659 N652 0.984 . S
H660 N648 0.984 . S
H661 N648 0.985 . S
C662 C663 1.363 . S
C662 C668 1.379 . S
C662 N670 1.356 . S
C663 C662 1.363 . S
C663 C669 1.363 . S
C664 C665 1.363 . S
C664 C669 1.379 . S
C664 N671 1.356 . S
C665 C664 1.363 . S
C665 C668 1.363 . S
N666 C668 1.356 . S
N666 H678 0.984 . S
N666 H679 0.985 . S
N667 C669 1.356 . S
N667 H672 0.984 . S
N667 H673 0.985 . S
C668 C662 1.379 . S
C668 C665 1.363 . S
C668 N666 1.356 . S
C669 C663 1.363 . S
C669 C664 1.379 . S
C669 N667 1.356 . S
N670 C662 1.356 . S
N670 H676 0.984 . S
N670 H677 0.984 . S
N671 C664 1.356 . S
N671 H674 0.984 . S
N671 H675 0.985 . S
H672 N667 0.984 . S
H673 N667 0.985 . S
H674 N671 0.984 . S
H675 N671 0.985 . S
H676 N670 0.984 . S
H677 N670 0.984 . S
H678 N666 0.984 . S
H679 N666 0.985 . S
C249 C4 0.989 . S
C251 C92 1.017 . S
C267 C16 1.250 . S
C269 C153 1.277 . S
C287 C191 2.246 . S
C285 C32 2.276 . S
C303 C43 2.383 . S
C305 C231 2.331 1_655 S
C323 C151 1.738 . S
C321 C5 1.659 . S
C341 C119 1.747 . S
C339 C21 1.596 . S
C359 C228 1.836 . S
C357 C27 1.850 . S
C377 C188 1.842 . S
C375 C37 1.893 . S
C393 C10 1.201 . S
C395 C233 1.212 . S
C413 C148 2.586 1_556 S
C411 C26 2.583 . S
C429 C38 2.033 . S
C431 C90 2.000 . S
C447 C15 1.610 . S
C449 C193 1.687 . S
C467 C113 1.069 . S
C465 C48 1.047 . S
C483 C59 1.114 . S
C485 C132 1.128 . S
C501 C76 2.536 . S
C503 C170 2.469 . S
C519 C87 2.194 . S
C521 C210 2.190 . S
C537 C54 1.136 . S
C539 C130 1.227 1_556 S
C557 C108 2.238 . S
C555 C60 2.120 . S
C575 C239 1.759 . S
C573 C71 1.768 . S
C593 C199 1.937 . S
C591 C82 1.948 . S
C609 C49 1.505 . S
C611 C212 1.595 . S
C629 C159 2.110 . S
C627 C70 2.116 . S
C647 C111 2.405 . S
C645 C81 2.456 . S
C663 C65 1.350 . S
C665 C172 1.408 . S
