# Generated by pormake.
# Topology rtl, (3,6)-cn, num edge types: 1
# Building blocks:
#     Node 0, Type 0, BuildingBlock: ESEHIV_clean_linker_0, # of connection points: 3
#     Node 1, Type 0, BuildingBlock: ESEHIV_clean_linker_0, # of connection points: 3
#     Node 2, Type 0, BuildingBlock: ESEHIV_clean_linker_0, # of connection points: 3
#     Node 3, Type 0, BuildingBlock: ESEHIV_clean_linker_0, # of connection points: 3
#     Node 4, Type 1, BuildingBlock: KUMBUR_clean_sbu_1, # of connection points: 6
#     Node 5, Type 1, BuildingBlock: KUMBUR_clean_sbu_1, # of connection points: 6
#     Edge 6, Type (0, 1), BuildingBlock: AJUNOK_clean_linker_0, # of connection points: 2
#     Edge 7, Type (0, 1), BuildingBlock: AJUNOK_clean_linker_0, # of connection points: 2
#     Edge 8, Type (0, 1), BuildingBlock: AJUNOK_clean_linker_0, # of connection points: 2
#     Edge 9, Type (0, 1), BuildingBlock: AJUNOK_clean_linker_0, # of connection points: 2
#     Edge 10, Type (0, 1), BuildingBlock: AJUNOK_clean_linker_0, # of connection points: 2
#     Edge 11, Type (0, 1), BuildingBlock: AJUNOK_clean_linker_0, # of connection points: 2
#     Edge 12, Type (0, 1), BuildingBlock: AJUNOK_clean_linker_0, # of connection points: 2
#     Edge 13, Type (0, 1), BuildingBlock: AJUNOK_clean_linker_0, # of connection points: 2
#     Edge 14, Type (0, 1), BuildingBlock: AJUNOK_clean_linker_0, # of connection points: 2
#     Edge 15, Type (0, 1), BuildingBlock: AJUNOK_clean_linker_0, # of connection points: 2
#     Edge 16, Type (0, 1), BuildingBlock: AJUNOK_clean_linker_0, # of connection points: 2
#     Edge 17, Type (0, 1), BuildingBlock: AJUNOK_clean_linker_0, # of connection points: 2
# Relax obj value: 0.019
# Max RMSD: 0.145
# Mean RMSD: 0.087
data_MOF--net-rtl--node1-KUMBUR_clean_sbu_1--node2-ESEHIV_clean_linker_0--edge1-AJUNOK_clean_linker_0
_symmetry_space_group_name_H-M    P1
_symmetry_Int_Tables_number       1
_symmetry_cell_setting            triclinic
loop_
_symmetry_equiv_pos_as_xyz
'x, y, z'
_cell_length_a     22.150162
_cell_length_b     23.084007
_cell_length_c     20.991198
_cell_angle_alpha  72.668552
_cell_angle_beta   98.127504
_cell_angle_gamma 91.497436
loop_
_atom_site_label
_atom_site_type_symbol
_atom_site_fract_x
_atom_site_fract_y
_atom_site_fract_z
_atom_type_partial_charge
H0 H 0.15311 0.91393 0.01428 0.0
H1 H 0.28907 0.77786 0.12702 0.0
H2 H 0.24348 0.81118 0.9134 0.0
C3 C 0.18654 0.8798 0.0161 0.0
C4 C 0.19472 0.86647 0.95667 0.0
C5 C 0.22073 0.84797 0.07803 0.0
C6 C 0.26322 0.80331 0.07945 0.0
C7 C 0.27158 0.78998 0.02033 0.0
C8 C 0.2377 0.82203 0.95907 0.0
H9 H 0.62421 0.62695 0.69652 0.0
H10 H 0.72363 0.75565 0.55945 0.0
H11 H 0.75069 0.74242 0.77165 0.0
C12 C 0.65663 0.66352 0.687 0.0
C13 C 0.68281 0.6851 0.74005 0.0
C14 C 0.67297 0.68725 0.6225 0.0
C15 C 0.71414 0.73525 0.61049 0.0
C16 C 0.74372 0.75603 0.66353 0.0
C17 C 0.72754 0.73 0.72883 0.0
H18 H 0.8807 0.10815 0.13158 0.0
H19 H 0.78916 0.21188 0.23052 0.0
H20 H 0.74096 0.23939 0.0181 0.0
C21 C 0.84654 0.14166 0.12957 0.0
C22 C 0.8113 0.17169 0.06773 0.0
C23 C 0.83836 0.15582 0.18858 0.0
C24 C 0.79493 0.20015 0.18535 0.0
C25 C 0.76023 0.23082 0.12409 0.0
C26 C 0.76786 0.21568 0.06571 0.0
H27 H 0.40068 0.41221 0.44689 0.0
H28 H 0.2969 0.28345 0.57538 0.0
H29 H 0.27945 0.29631 0.36366 0.0
C30 C 0.36721 0.37666 0.45254 0.0
C31 C 0.34408 0.35554 0.39772 0.0
C32 C 0.34659 0.35342 0.51488 0.0
C33 C 0.30837 0.30337 0.52518 0.0
C34 C 0.28226 0.28165 0.47153 0.0
C35 C 0.30032 0.30903 0.40715 0.0
Tb36 Tb 0.06502 0.95227 0.5426 0.0
C37 C 0.9123 0.19149 0.49931 0.0
N38 N 0.96353 0.17439 0.54465 0.0
C39 C 0.99844 0.27703 0.51367 0.0
C40 C 0.90281 0.25194 0.45791 0.0
C41 C 1.00577 0.21643 0.55332 0.0
C42 C 0.94697 0.2948 0.46525 0.0
C43 C 0.81541 0.16356 0.44811 0.0
C44 C 0.86942 0.14787 0.49434 0.0
C45 C 0.80614 0.22344 0.40578 0.0
C46 C 0.84974 0.26755 0.4107 0.0
Tb47 Tb 0.97422 0.07327 0.60272 0.0
N48 N 0.88098 0.08997 0.53494 0.0
C49 C 0.77213 0.11875 0.44629 0.0
C50 C 0.83675 0.04744 0.53641 0.0
C51 C 0.78242 0.06072 0.49151 0.0
H52 H 0.04405 0.20355 0.59245 0.0
H53 H 0.74817 0.02628 0.49241 0.0
H54 H 0.99727 0.81954 0.57477 0.0
H55 H 0.29446 0.01362 0.6275 0.0
H56 H 0.84168 0.00367 0.57281 0.0
H57 H 0.73001 0.12888 0.41156 0.0
H58 H 0.19773 0.02733 0.5525 0.0
H59 H 0.03228 0.31004 0.52083 0.0
H60 H 0.76518 0.2362 0.36951 0.0
H61 H 0.84182 0.31367 0.37809 0.0
H62 H 0.01573 0.7166 0.65416 0.0
H63 H 0.9414 0.34175 0.43449 0.0
H64 H 0.3177 0.917 0.71811 0.0
N65 N 0.08051 0.8543 0.61013 0.0
C66 C 0.13401 0.84172 0.65245 0.0
C67 C 0.0493 0.75147 0.65449 0.0
C68 C 0.1468 0.78362 0.69865 0.0
C69 C 0.03853 0.81002 0.61005 0.0
C70 C 0.10357 0.73824 0.69925 0.0
N71 N 0.16092 0.94332 0.60449 0.0
C72 C 0.20449 0.98681 0.59401 0.0
C73 C 0.23162 0.87694 0.69294 0.0
C74 C 0.17544 0.88793 0.64994 0.0
C75 C 0.27395 0.92357 0.68622 0.0
C76 C 0.26079 0.97829 0.63552 0.0
H77 H 0.11165 0.69297 0.73395 0.0
H78 H 0.21231 0.72877 0.77931 0.0
H79 H 0.28683 0.81047 0.77409 0.0
O80 O 0.11306 0.97227 0.45916 0.0
O81 O 0.06084 0.93574 0.65018 0.0
O82 O 0.0604 0.03157 0.66027 0.0
O83 O 0.06146 0.89087 0.48548 0.0
O84 O 0.09146 0.04865 0.51125 0.0
O85 O 0.07103 0.091 0.59347 0.0
O86 O 0.92356 0.04722 0.684 0.0
O87 O 0.97478 0.08906 0.49446 0.0
O88 O 0.97907 0.99325 0.48433 0.0
O89 O 0.97532 0.1288 0.66636 0.0
O90 O 0.94496 0.97782 0.63049 0.0
O91 O 0.96826 0.93286 0.55121 0.0
C92 C 0.06907 0.97295 0.68701 0.0
C93 C 0.14628 0.88866 0.42985 0.0
C94 C 0.19516 0.85977 0.34618 0.0
C95 C 0.23752 0.82405 0.39868 0.0
C96 C 0.18892 0.85287 0.48135 0.0
C97 C 0.23436 0.82077 0.46568 0.0
C98 C 0.14972 0.89233 0.36241 0.0
C99 C 0.09924 0.09135 0.54177 0.0
C100 C 0.0976 0.92229 0.44509 0.0
C101 C 0.20187 0.77295 0.74298 0.0
C102 C 0.24419 0.81953 0.74015 0.0
C103 C 0.96762 0.05147 0.45789 0.0
C104 C 0.88747 0.12671 0.71842 0.0
C105 C 0.83707 0.15464 0.80168 0.0
C106 C 0.79291 0.18751 0.74923 0.0
C107 C 0.843 0.15968 0.66702 0.0
C108 C 0.88419 0.12392 0.78566 0.0
C109 C 0.79592 0.18985 0.68248 0.0
C110 C 0.93754 0.93485 0.60031 0.0
C111 C 0.93773 0.09513 0.70304 0.0
H112 H 0.27274 0.79806 0.38796 0.0
H113 H 0.18704 0.84963 0.53345 0.0
H114 H 0.26709 0.79301 0.50563 0.0
H115 H 0.1173 0.92095 0.32265 0.0
H116 H 0.7564 0.21208 0.75974 0.0
H117 H 0.84468 0.16218 0.61511 0.0
H118 H 0.91804 0.09744 0.8254 0.0
H119 H 0.76179 0.21542 0.64255 0.0
Tb120 Tb 0.46736 0.47913 1.00195 0.0
C121 C 0.70267 0.58133 0.09573 0.0
N122 N 0.67378 0.53172 0.13051 0.0
C123 C 0.76794 0.47445 0.15759 0.0
C124 C 0.76438 0.57843 0.08708 0.0
C125 C 0.70697 0.48011 0.16576 0.0
C126 C 0.79636 0.52335 0.11661 0.0
C127 C 0.70115 0.6903 0.04337 0.0
C128 C 0.6718 0.63648 0.07413 0.0
C129 C 0.76142 0.68717 0.03081 0.0
C130 C 0.79294 0.63125 0.05243 0.0
Tb131 Tb 0.57259 0.54652 0.13629 0.0
N132 N 0.6132 0.6375 0.08581 0.0
C133 C 0.66961 0.74563 0.02827 0.0
C134 C 0.5832 0.69135 0.07461 0.0
C135 C 0.61078 0.74622 0.04514 0.0
H136 H 0.6871 0.4431 0.20093 0.0
H137 H 0.58651 0.78881 0.03492 0.0
H138 H 0.33277 0.54341 0.98423 0.0
H139 H 0.53348 0.24233 0.06177 0.0
H140 H 0.53763 0.69164 0.08739 0.0
H141 H 0.69068 0.78812 1.00497 0.0
H142 H 0.5443 0.35232 0.01233 0.0
H143 H 0.79321 0.43265 0.18378 0.0
H144 H 0.78463 0.72789 1.00631 0.0
H145 H 0.8401 0.62977 0.04456 0.0
H146 H 0.23038 0.5123 0.01497 0.0
H147 H 0.8438 0.51911 0.11111 0.0
H148 H 0.43979 0.20205 0.10992 0.0
N149 N 0.37094 0.45437 0.02511 0.0
C150 C 0.3604 0.39461 0.05271 0.0
C151 C 0.2667 0.47877 0.02636 0.0
C152 C 0.30302 0.37461 0.07123 0.0
C153 C 0.32463 0.49631 1.00915 0.0
C154 C 0.25605 0.41775 0.05847 0.0
N155 N 0.46085 0.37534 0.03944 0.0
C156 C 0.50453 0.33591 0.03622 0.0
C157 C 0.39809 0.29096 0.08754 0.0
C158 C 0.40735 0.35371 0.06105 0.0
C159 C 0.44499 0.25064 0.08988 0.0
C160 C 0.49799 0.27321 0.06291 0.0
H161 H 0.21119 0.40428 0.07185 0.0
H162 H 0.25068 0.29598 0.11582 0.0
H163 H 0.33396 0.22257 0.12992 0.0
O164 O 0.45158 0.44193 0.92107 0.0
O165 O 0.43397 0.47599 0.09707 0.0
O166 O 0.52074 0.46425 0.17496 0.0
O167 O 0.43792 0.53741 0.90499 0.0
O168 O 0.56183 0.44677 0.03799 0.0
O169 O 0.58448 0.44894 0.14782 0.0
O170 O 0.53767 0.58724 0.20081 0.0
O171 O 0.56522 0.59306 0.02687 0.0
O172 O 0.55908 0.51147 0.98763 0.0
O173 O 0.62768 0.548 0.22617 0.0
O174 O 0.47922 0.58309 0.1038 0.0
O175 O 0.44647 0.57326 0.99653 0.0
C176 C 0.46219 0.45618 0.15913 0.0
C177 C 0.38183 0.49327 0.8267 0.0
C178 C 0.34176 0.46942 0.72339 0.0
C179 C 0.28544 0.49591 0.7238 0.0
C180 C 0.32548 0.51989 0.82635 0.0
C181 C 0.27744 0.52087 0.77515 0.0
C182 C 0.38953 0.46778 0.77543 0.0
C183 C 0.58888 0.4235 0.10015 0.0
C184 C 0.43461 0.49369 0.8774 0.0
C185 C 0.29428 0.31236 0.10059 0.0
C186 C 0.34176 0.27058 0.10874 0.0
C187 C 0.57429 0.56779 0.98076 0.0
C188 C 0.57525 0.54872 0.3158 0.0
C189 C 0.58339 0.55973 0.42832 0.0
C190 C 0.55281 0.50472 0.44974 0.0
C191 C 0.54669 0.4928 0.33811 0.0
C192 C 0.59362 0.58181 0.36096 0.0
C193 C 0.53485 0.47131 0.40474 0.0
C194 C 0.44462 0.59907 0.04457 0.0
C195 C 0.58586 0.5743 0.2457 0.0
H196 H 0.24754 0.49687 0.68472 0.0
H197 H 0.31876 0.54039 0.86496 0.0
H198 H 0.23398 0.54131 0.77504 0.0
H199 H 0.43326 0.44777 0.77523 0.0
H200 H 0.54422 0.487 0.5015 0.0
H201 H 0.5334 0.46611 0.30411 0.0
H202 H 0.61598 0.62493 0.34366 0.0
H203 H 0.5122 0.42845 0.42164 0.0
C204 C 0.19871 0.22896 0.53683 0.0
C205 C 0.23388 0.23361 0.48433 0.0
C206 C 0.15831 0.18166 0.55628 0.0
C207 C 0.14483 0.13982 0.51994 0.0
H208 H 0.20228 0.26166 0.56478 0.0
H209 H 0.13832 0.17779 0.6013 0.0
S210 S 0.22067 0.13112 0.37576 0.0
N211 N 0.25365 0.18853 0.3978 0.0
N212 N 0.16905 0.10643 0.42665 0.0
C213 C 0.17697 0.14498 0.46494 0.0
C214 C 0.22256 0.19051 0.44845 0.0
C215 C 0.36317 0.75159 0.98652 0.0
C216 C 0.31351 0.74021 0.02336 0.0
C217 C 0.40494 0.70504 0.99191 0.0
C218 C 0.39776 0.646 0.03387 0.0
H219 H 0.37053 0.79698 0.95481 0.0
H220 H 0.44382 0.71554 0.96462 0.0
S221 S 0.27084 0.59135 0.13285 0.0
N222 N 0.25657 0.66471 0.09796 0.0
N223 N 0.33473 0.57739 0.10755 0.0
C224 C 0.34703 0.63366 0.06853 0.0
C225 C 0.30485 0.68081 0.06334 0.0
C226 C 0.83027 0.80293 0.60017 0.0
C227 C 0.79334 0.80209 0.65004 0.0
C228 C 0.87531 0.84641 0.58381 0.0
C229 C 0.88887 0.88914 0.61927 0.0
H230 H 0.82462 0.76973 0.57277 0.0
H231 H 0.89913 0.84653 0.54225 0.0
S232 S 0.80541 0.90859 0.7537 0.0
N233 N 0.77103 0.85188 0.73156 0.0
N234 N 0.8609 0.92821 0.70713 0.0
C235 C 0.85333 0.88834 0.67042 0.0
C236 C 0.80487 0.84603 0.68456 0.0
C237 C 0.67471 0.27305 0.16476 0.0
C238 C 0.71862 0.28122 0.12046 0.0
C239 C 0.63404 0.32027 0.16027 0.0
C240 C 0.63617 0.37668 0.11124 0.0
H241 H 0.67087 0.2295 0.20192 0.0
H242 H 0.59941 0.31198 0.19344 0.0
S243 S 0.7484 0.42402 0.99105 0.0
N244 N 0.76608 0.35223 0.03173 0.0
N245 N 0.68911 0.44018 0.02267 0.0
C246 C 0.68138 0.38606 0.06885 0.0
C247 C 0.72283 0.33851 0.07365 0.0
C248 C 0.26197 0.86829 0.18642 0.0
C249 C 0.21134 0.85851 0.14246 0.0
C250 C 0.2559 0.87046 0.25125 0.0
C251 C 0.19898 0.8626 0.27497 0.0
H252 H 0.30695 0.8731 0.17099 0.0
H253 H 0.29637 0.87747 0.28347 0.0
S254 S 0.05222 0.83517 0.17955 0.0
N255 N 0.10234 0.84136 0.12672 0.0
N256 N 0.09082 0.84477 0.24888 0.0
C257 C 0.14764 0.85426 0.23084 0.0
C258 C 0.15385 0.85236 0.16457 0.0
C259 C 0.66652 0.59495 0.83603 0.0
C260 C 0.66337 0.65823 0.80721 0.0
C261 C 0.63817 0.56664 0.8925 0.0
C262 C 0.60628 0.60038 0.92325 0.0
H263 H 0.68909 0.56688 0.81304 0.0
H264 H 0.63996 0.51766 0.91088 0.0
S265 S 0.58138 0.76729 0.86414 0.0
N266 N 0.62453 0.754 0.81179 0.0
N267 N 0.57068 0.70057 0.91814 0.0
C268 C 0.60342 0.6639 0.89539 0.0
C269 C 0.63234 0.69286 0.83751 0.0
C270 C 0.90629 0.16383 0.29059 0.0
C271 C 0.87636 0.12697 0.25388 0.0
C272 C 0.93712 0.13865 0.35559 0.0
C273 C 0.93883 0.07555 0.38687 0.0
H274 H 0.90503 0.21277 0.26922 0.0
H275 H 0.95903 0.1692 0.38178 0.0
S276 S 0.86919 0.95913 0.31078 0.0
N277 N 0.85173 0.02435 0.25198 0.0
N278 N 0.90962 0.97646 0.37476 0.0
C279 C 0.91075 0.03791 0.34978 0.0
C280 C 0.8795 0.06376 0.28315 0.0
C281 C 0.3732 0.35424 0.63496 0.0
C282 C 0.35664 0.38629 0.56644 0.0
C283 C 0.37052 0.38214 0.68545 0.0
C284 C 0.35052 0.44281 0.66917 0.0
H285 H 0.38613 0.30665 0.64972 0.0
H286 H 0.38162 0.3553 0.7377 0.0
S287 S 0.30778 0.54827 0.49754 0.0
N288 N 0.32354 0.48333 0.48504 0.0
N289 N 0.31926 0.53563 0.58003 0.0
C290 C 0.33695 0.47623 0.60093 0.0
C291 C 0.34 0.44804 0.54953 0.0
C292 C 0.58803 0.64344 0.55945 0.0
C293 C 0.65 0.65852 0.56934 0.0
C294 C 0.56663 0.61129 0.51387 0.0
C295 C 0.60639 0.59359 0.47627 0.0
H296 H 0.55591 0.65623 0.58751 0.0
H297 H 0.51867 0.60046 0.50774 0.0
S298 S 0.77298 0.61879 0.48577 0.0
N299 N 0.75111 0.65083 0.53952 0.0
N300 N 0.71051 0.59163 0.45294 0.0
C301 C 0.66824 0.60852 0.48534 0.0
C302 C 0.69013 0.64077 0.53201 0.0
C303 C 0.77078 0.14713 0.96152 0.0
C304 C 0.82091 0.16011 1.00393 0.0
C305 C 0.77695 0.14347 0.89726 0.0
C306 C 0.83343 0.15311 0.87256 0.0
H307 H 0.72611 0.14089 0.97772 0.0
H308 H 0.73686 0.13393 0.86622 0.0
S309 S 0.97867 0.18925 0.96383 0.0
N310 N 0.92894 0.18222 0.01723 0.0
N311 N 0.94058 0.17626 0.89605 0.0
C312 C 0.88429 0.16477 0.91517 0.0
C313 C 0.87801 0.16808 0.9809 0.0
C314 C 0.38389 0.34568 0.29443 0.0
C315 C 0.36605 0.383 0.33111 0.0
C316 C 0.41329 0.36988 0.23714 0.0
C317 C 0.42589 0.43207 0.21477 0.0
H318 H 0.3776 0.29709 0.31179 0.0
H319 H 0.42816 0.33945 0.21168 0.0
S320 S 0.38463 0.55018 0.28855 0.0
N321 N 0.35821 0.48677 0.33579 0.0
N322 N 0.41681 0.53069 0.2315 0.0
C323 C 0.40651 0.47009 0.24918 0.0
C324 C 0.37567 0.44597 0.30643 0.0
C325 C 0.16378 0.95716 0.85723 0.0
C326 C 0.15643 0.89572 0.8919 0.0
C327 C 0.13355 0.98287 0.79149 0.0
C328 C 0.09524 0.94775 0.75866 0.0
H329 H 0.19487 0.98473 0.88003 0.0
H330 H 0.14213 0.02975 0.76535 0.0
S331 S 0.05484 0.7869 0.8324 0.0
N332 N 0.10441 0.802 0.89164 0.0
N333 N 0.04664 0.8502 0.76902 0.0
C334 C 0.08524 0.8871 0.79455 0.0
C335 C 0.11613 0.86109 0.86097 0.0
loop_
_geom_bond_atom_site_label_1
_geom_bond_atom_site_label_2
_geom_bond_distance
_geom_bond_site_symmetry_2
_ccdc_geom_bond_type
H0 C3 0.931 . S
H1 C6 0.928 . S
H2 C8 0.930 . S
C3 H0 0.931 . S
C3 C4 1.413 . S
C3 C5 1.360 1_556 S
C4 C3 1.413 . S
C4 C8 1.429 . S
C5 C3 1.360 1_554 S
C5 C6 1.372 . S
C6 H1 0.928 . S
C6 C5 1.372 . S
C6 C7 1.404 . S
C7 C6 1.404 . S
C7 C8 1.391 1_554 S
C8 H2 0.930 . S
C8 C4 1.429 . S
C8 C7 1.391 1_556 S
H9 C12 0.931 . S
H10 C15 0.928 . S
H11 C17 0.930 . S
C12 H9 0.931 . S
C12 C13 1.413 . S
C12 C14 1.360 . S
C13 C12 1.413 . S
C13 C17 1.429 . S
C14 C12 1.360 . S
C14 C15 1.372 . S
C15 H10 0.928 . S
C15 C14 1.372 . S
C15 C16 1.404 . S
C16 C15 1.404 . S
C16 C17 1.391 . S
C17 H11 0.930 . S
C17 C13 1.429 . S
C17 C16 1.391 . S
H18 C21 0.931 . S
H19 C24 0.928 . S
H20 C26 0.930 . S
C21 H18 0.931 . S
C21 C22 1.413 . S
C21 C23 1.360 . S
C22 C21 1.413 . S
C22 C26 1.429 . S
C23 C21 1.360 . S
C23 C24 1.372 . S
C24 H19 0.928 . S
C24 C23 1.372 . S
C24 C25 1.404 . S
C25 C24 1.404 . S
C25 C26 1.391 . S
C26 H20 0.930 . S
C26 C22 1.429 . S
C26 C25 1.391 . S
H27 C30 0.931 . S
H28 C33 0.928 . S
H29 C35 0.930 . S
C30 H27 0.931 . S
C30 C31 1.413 . S
C30 C32 1.360 . S
C31 C30 1.413 . S
C31 C35 1.429 . S
C32 C30 1.360 . S
C32 C33 1.372 . S
C33 H28 0.928 . S
C33 C32 1.372 . S
C33 C34 1.404 . S
C34 C33 1.404 . S
C34 C35 1.391 . S
C35 H29 0.930 . S
C35 C31 1.429 . S
C35 C34 1.391 . S
Tb36 N65 2.617 . S
Tb36 N71 2.572 . S
Tb36 O80 2.465 . S
Tb36 O81 2.387 . S
Tb36 O83 2.428 . S
Tb36 O84 2.308 1_565 S
Tb36 O88 2.349 1_465 S
Tb36 O91 2.393 1_455 S
Tb36 C100 2.802 . S
C37 N38 1.379 . S
C37 C40 1.416 . S
C37 C44 1.424 . S
N38 C37 1.379 . S
N38 C41 1.334 . S
N38 Tb47 2.617 . S
C39 C41 1.390 . S
C39 C42 1.339 . S
C39 H59 0.930 1_655 S
C40 C37 1.416 . S
C40 C42 1.416 . S
C40 C46 1.448 . S
C41 N38 1.334 . S
C41 C39 1.390 . S
C41 H52 0.930 1_655 S
C42 C39 1.339 . S
C42 C40 1.416 . S
C42 H63 0.930 . S
C43 C44 1.413 . S
C43 C45 1.427 . S
C43 C49 1.416 . S
C44 C37 1.424 . S
C44 C43 1.413 . S
C44 N48 1.361 . S
C45 C43 1.427 . S
C45 C46 1.328 . S
C45 H60 0.929 . S
C46 C40 1.448 . S
C46 C45 1.328 . S
C46 H61 0.930 . S
Tb47 N38 2.617 . S
Tb47 N48 2.572 . S
Tb47 O82 2.349 1_655 S
Tb47 O85 2.393 1_655 S
Tb47 O86 2.465 . S
Tb47 O87 2.387 . S
Tb47 O89 2.428 . S
Tb47 O90 2.308 1_545 S
Tb47 C111 2.802 . S
N48 C44 1.361 . S
N48 Tb47 2.572 . S
N48 C50 1.340 . S
C49 C43 1.416 . S
C49 C51 1.332 . S
C49 H57 0.931 . S
C50 N48 1.340 . S
C50 C51 1.407 . S
C50 H56 0.930 . S
C51 C49 1.332 . S
C51 C50 1.407 . S
C51 H53 0.929 . S
H52 C41 0.930 1_455 S
H53 C51 0.929 . S
H54 C69 0.930 1_655 S
H55 C76 0.929 . S
H56 C50 0.930 . S
H57 C49 0.931 . S
H58 C72 0.930 . S
H59 C39 0.930 1_455 S
H60 C45 0.929 . S
H61 C46 0.930 . S
H62 C67 0.930 1_655 S
H63 C42 0.930 . S
H64 C75 0.931 . S
N65 Tb36 2.617 . S
N65 C66 1.379 . S
N65 C69 1.334 . S
C66 N65 1.379 . S
C66 C68 1.416 . S
C66 C74 1.424 . S
C67 H62 0.930 1_455 S
C67 C69 1.390 . S
C67 C70 1.339 . S
C68 C66 1.416 . S
C68 C70 1.416 . S
C68 C101 1.448 . S
C69 H54 0.930 1_455 S
C69 N65 1.334 . S
C69 C67 1.390 . S
C70 C67 1.339 . S
C70 C68 1.416 . S
C70 H77 0.930 . S
N71 Tb36 2.572 . S
N71 C72 1.340 . S
N71 C74 1.361 . S
C72 H58 0.930 . S
C72 N71 1.340 . S
C72 C76 1.407 . S
C73 C74 1.413 . S
C73 C75 1.416 . S
C73 C102 1.427 . S
C74 C66 1.424 . S
C74 N71 1.361 . S
C74 C73 1.413 . S
C75 H64 0.931 . S
C75 C73 1.416 . S
C75 C76 1.332 . S
C76 H55 0.929 . S
C76 C72 1.407 . S
C76 C75 1.332 . S
H77 C70 0.930 . S
H78 C101 0.930 . S
H79 C102 0.929 . S
O80 Tb36 2.465 . S
O80 C100 1.264 . S
O81 Tb36 2.387 . S
O81 C92 1.264 . S
O82 Tb47 2.349 1_455 S
O82 C92 1.243 1_545 S
O83 Tb36 2.428 . S
O83 C100 1.256 . S
O84 Tb36 2.308 1_545 S
O84 C99 1.266 . S
O85 Tb47 2.393 1_455 S
O85 C99 1.248 . S
O86 Tb47 2.465 . S
O86 C111 1.264 . S
O87 Tb47 2.387 . S
O87 C103 1.264 . S
O88 Tb36 2.349 1_645 S
O88 C103 1.243 . S
O89 Tb47 2.428 . S
O89 C111 1.256 . S
O90 Tb47 2.308 1_565 S
O90 C110 1.266 . S
O91 Tb36 2.393 1_655 S
O91 C110 1.248 . S
C92 O81 1.264 . S
C92 O82 1.243 1_565 S
C93 C96 1.399 . S
C93 C98 1.383 . S
C93 C100 1.496 . S
C94 C95 1.399 . S
C94 C98 1.389 . S
C95 C94 1.399 . S
C95 C97 1.380 . S
C95 H112 0.929 . S
C96 C93 1.399 . S
C96 C97 1.392 . S
C96 H113 0.929 . S
C97 C95 1.380 . S
C97 C96 1.392 . S
C97 H114 0.929 . S
C98 C93 1.383 . S
C98 C94 1.389 . S
C98 H115 0.931 . S
C99 O84 1.266 . S
C99 O85 1.248 . S
C100 Tb36 2.802 . S
C100 O80 1.264 . S
C100 O83 1.256 . S
C100 C93 1.496 . S
C101 C68 1.448 . S
C101 H78 0.930 . S
C101 C102 1.328 . S
C102 C73 1.427 . S
C102 H79 0.929 . S
C102 C101 1.328 . S
C103 O87 1.264 . S
C103 O88 1.243 . S
C104 C107 1.399 . S
C104 C108 1.383 . S
C104 C111 1.496 . S
C105 C106 1.399 . S
C105 C108 1.389 . S
C106 C105 1.399 . S
C106 C109 1.380 . S
C106 H116 0.929 . S
C107 C104 1.399 . S
C107 C109 1.392 . S
C107 H117 0.929 . S
C108 C104 1.383 . S
C108 C105 1.389 . S
C108 H118 0.931 . S
C109 C106 1.380 . S
C109 C107 1.392 . S
C109 H119 0.929 . S
C110 O90 1.266 . S
C110 O91 1.248 . S
C111 Tb47 2.802 . S
C111 O86 1.264 . S
C111 O89 1.256 . S
C111 C104 1.496 . S
H112 C95 0.929 . S
H113 C96 0.929 . S
H114 C97 0.929 . S
H115 C98 0.931 . S
H116 C106 0.929 . S
H117 C107 0.929 . S
H118 C108 0.931 . S
H119 C109 0.929 . S
Tb120 N149 2.617 1_556 S
Tb120 N155 2.572 1_556 S
Tb120 O164 2.465 . S
Tb120 O165 2.387 1_556 S
Tb120 O167 2.428 . S
Tb120 O168 2.308 1_556 S
Tb120 O172 2.349 . S
Tb120 O175 2.393 . S
Tb120 C184 2.802 . S
C121 N122 1.379 . S
C121 C124 1.416 . S
C121 C128 1.424 . S
N122 C121 1.379 . S
N122 C125 1.334 . S
N122 Tb131 2.617 . S
C123 C125 1.390 . S
C123 C126 1.339 . S
C123 H143 0.930 . S
C124 C121 1.416 . S
C124 C126 1.416 . S
C124 C130 1.448 . S
C125 N122 1.334 . S
C125 C123 1.390 . S
C125 H136 0.930 . S
C126 C123 1.339 . S
C126 C124 1.416 . S
C126 H147 0.930 . S
C127 C128 1.413 . S
C127 C129 1.427 . S
C127 C133 1.416 . S
C128 C121 1.424 . S
C128 C127 1.413 . S
C128 N132 1.361 . S
C129 C127 1.427 . S
C129 C130 1.328 . S
C129 H144 0.929 . S
C130 C124 1.448 . S
C130 C129 1.328 . S
C130 H145 0.930 . S
Tb131 N122 2.617 . S
Tb131 N132 2.572 . S
Tb131 O166 2.349 . S
Tb131 O169 2.393 . S
Tb131 O170 2.465 . S
Tb131 O171 2.387 . S
Tb131 O173 2.428 . S
Tb131 O174 2.308 . S
Tb131 C195 2.802 . S
N132 C128 1.361 . S
N132 Tb131 2.572 . S
N132 C134 1.340 . S
C133 C127 1.416 . S
C133 C135 1.332 . S
C133 H141 0.931 . S
C134 N132 1.340 . S
C134 C135 1.407 . S
C134 H140 0.930 . S
C135 C133 1.332 . S
C135 C134 1.407 . S
C135 H137 0.929 . S
H136 C125 0.930 . S
H137 C135 0.929 . S
H138 C153 0.930 . S
H139 C160 0.929 . S
H140 C134 0.930 . S
H141 C133 0.931 . S
H142 C156 0.930 . S
H143 C123 0.930 . S
H144 C129 0.929 . S
H145 C130 0.930 . S
H146 C151 0.930 . S
H147 C126 0.930 . S
H148 C159 0.931 . S
N149 Tb120 2.617 1_554 S
N149 C150 1.379 . S
N149 C153 1.334 1_554 S
C150 N149 1.379 . S
C150 C152 1.416 . S
C150 C158 1.424 . S
C151 H146 0.930 . S
C151 C153 1.390 . S
C151 C154 1.339 1_556 S
C152 C150 1.416 . S
C152 C154 1.416 . S
C152 C185 1.448 . S
C153 H138 0.930 . S
C153 N149 1.334 1_556 S
C153 C151 1.390 . S
C154 C151 1.339 1_554 S
C154 C152 1.416 . S
C154 H161 0.930 . S
N155 Tb120 2.572 1_554 S
N155 C156 1.340 . S
N155 C158 1.361 . S
C156 H142 0.930 . S
C156 N155 1.340 . S
C156 C160 1.407 . S
C157 C158 1.413 . S
C157 C159 1.416 . S
C157 C186 1.427 . S
C158 C150 1.424 . S
C158 N155 1.361 . S
C158 C157 1.413 . S
C159 H148 0.931 . S
C159 C157 1.416 . S
C159 C160 1.332 . S
C160 H139 0.929 . S
C160 C156 1.407 . S
C160 C159 1.332 . S
H161 C154 0.930 . S
H162 C185 0.930 . S
H163 C186 0.929 . S
O164 Tb120 2.465 . S
O164 C184 1.264 . S
O165 Tb120 2.387 1_554 S
O165 C176 1.264 . S
O166 Tb131 2.349 . S
O166 C176 1.243 . S
O167 Tb120 2.428 . S
O167 C184 1.256 . S
O168 Tb120 2.308 1_554 S
O168 C183 1.266 . S
O169 Tb131 2.393 . S
O169 C183 1.248 . S
O170 Tb131 2.465 . S
O170 C195 1.264 . S
O171 Tb131 2.387 . S
O171 C187 1.264 1_554 S
O172 Tb120 2.349 . S
O172 C187 1.243 . S
O173 Tb131 2.428 . S
O173 C195 1.256 . S
O174 Tb131 2.308 . S
O174 C194 1.266 . S
O175 Tb120 2.393 . S
O175 C194 1.247 1_556 S
C176 O165 1.264 . S
C176 O166 1.243 . S
C177 C180 1.399 . S
C177 C182 1.383 . S
C177 C184 1.496 . S
C178 C179 1.399 . S
C178 C182 1.389 . S
C179 C178 1.399 . S
C179 C181 1.380 . S
C179 H196 0.929 . S
C180 C177 1.399 . S
C180 C181 1.392 . S
C180 H197 0.929 . S
C181 C179 1.380 . S
C181 C180 1.392 . S
C181 H198 0.929 . S
C182 C177 1.383 . S
C182 C178 1.389 . S
C182 H199 0.931 . S
C183 O168 1.266 . S
C183 O169 1.248 . S
C184 Tb120 2.802 . S
C184 O164 1.264 . S
C184 O167 1.256 . S
C184 C177 1.496 . S
C185 C152 1.448 . S
C185 H162 0.930 . S
C185 C186 1.328 . S
C186 C157 1.427 . S
C186 H163 0.929 . S
C186 C185 1.328 . S
C187 O171 1.264 1_556 S
C187 O172 1.243 . S
C188 C191 1.399 . S
C188 C192 1.383 . S
C188 C195 1.496 . S
C189 C190 1.399 . S
C189 C192 1.389 . S
C190 C189 1.399 . S
C190 C193 1.380 . S
C190 H200 0.929 . S
C191 C188 1.399 . S
C191 C193 1.392 . S
C191 H201 0.929 . S
C192 C188 1.383 . S
C192 C189 1.389 . S
C192 H202 0.931 . S
C193 C190 1.380 . S
C193 C191 1.392 . S
C193 H203 0.929 . S
C194 O174 1.266 . S
C194 O175 1.247 1_554 S
C195 Tb131 2.802 . S
C195 O170 1.264 . S
C195 O173 1.256 . S
C195 C188 1.496 . S
H196 C179 0.929 . S
H197 C180 0.929 . S
H198 C181 0.929 . S
H199 C182 0.931 . S
H200 C190 0.929 . S
H201 C191 0.929 . S
H202 C192 0.931 . S
H203 C193 0.929 . S
C204 C205 1.369 . S
C204 C206 1.419 . S
C204 H208 0.930 . S
C205 C204 1.369 . S
C205 C214 1.429 . S
C206 C204 1.419 . S
C206 C207 1.363 . S
C206 H209 0.929 . S
C207 C206 1.363 . S
C207 C213 1.428 . S
H208 C204 0.930 . S
H209 C206 0.929 . S
S210 N211 1.613 . S
S210 N212 1.610 . S
N211 S210 1.613 . S
N211 C214 1.350 . S
N212 S210 1.610 . S
N212 C213 1.351 . S
C213 C207 1.428 . S
C213 N212 1.351 . S
C213 C214 1.434 . S
C214 C205 1.429 . S
C214 N211 1.350 . S
C214 C213 1.434 . S
C215 C216 1.369 1_556 S
C215 C217 1.419 . S
C215 H219 0.930 . S
C216 C215 1.369 1_554 S
C216 C225 1.429 . S
C217 C215 1.419 . S
C217 C218 1.363 1_556 S
C217 H220 0.929 . S
C218 C217 1.363 1_554 S
C218 C224 1.428 . S
H219 C215 0.930 . S
H220 C217 0.929 . S
S221 N222 1.613 . S
S221 N223 1.610 . S
N222 S221 1.613 . S
N222 C225 1.350 . S
N223 S221 1.610 . S
N223 C224 1.351 . S
C224 C218 1.428 . S
C224 N223 1.351 . S
C224 C225 1.434 . S
C225 C216 1.429 . S
C225 N222 1.350 . S
C225 C224 1.434 . S
C226 C227 1.369 . S
C226 C228 1.419 . S
C226 H230 0.930 . S
C227 C226 1.369 . S
C227 C236 1.429 . S
C228 C226 1.419 . S
C228 C229 1.363 . S
C228 H231 0.929 . S
C229 C228 1.363 . S
C229 C235 1.428 . S
H230 C226 0.930 . S
H231 C228 0.929 . S
S232 N233 1.613 . S
S232 N234 1.610 . S
N233 S232 1.613 . S
N233 C236 1.350 . S
N234 S232 1.610 . S
N234 C235 1.351 . S
C235 C229 1.428 . S
C235 N234 1.351 . S
C235 C236 1.434 . S
C236 C227 1.429 . S
C236 N233 1.350 . S
C236 C235 1.434 . S
C237 C238 1.369 . S
C237 C239 1.419 . S
C237 H241 0.930 . S
C238 C237 1.369 . S
C238 C247 1.429 . S
C239 C237 1.419 . S
C239 C240 1.363 . S
C239 H242 0.929 . S
C240 C239 1.363 . S
C240 C246 1.428 . S
H241 C237 0.930 . S
H242 C239 0.929 . S
S243 N244 1.613 . S
S243 N245 1.610 . S
N244 S243 1.613 . S
N244 C247 1.350 1_556 S
N245 S243 1.610 . S
N245 C246 1.351 1_556 S
C246 C240 1.428 . S
C246 N245 1.351 1_554 S
C246 C247 1.434 . S
C247 C238 1.429 . S
C247 N244 1.350 1_554 S
C247 C246 1.434 . S
C248 C249 1.369 . S
C248 C250 1.419 . S
C248 H252 0.930 . S
C249 C248 1.369 . S
C249 C258 1.429 . S
C250 C248 1.419 . S
C250 C251 1.363 . S
C250 H253 0.929 . S
C251 C250 1.363 . S
C251 C257 1.428 . S
H252 C248 0.930 . S
H253 C250 0.929 . S
S254 N255 1.613 . S
S254 N256 1.610 . S
N255 S254 1.613 . S
N255 C258 1.350 . S
N256 S254 1.610 . S
N256 C257 1.351 . S
C257 C251 1.428 . S
C257 N256 1.351 . S
C257 C258 1.434 . S
C258 C249 1.429 . S
C258 N255 1.350 . S
C258 C257 1.434 . S
C259 C260 1.369 . S
C259 C261 1.419 . S
C259 H263 0.930 . S
C260 C259 1.369 . S
C260 C269 1.429 . S
C261 C259 1.419 . S
C261 C262 1.363 . S
C261 H264 0.929 . S
C262 C261 1.363 . S
C262 C268 1.428 . S
H263 C259 0.930 . S
H264 C261 0.929 . S
S265 N266 1.613 . S
S265 N267 1.610 . S
N266 S265 1.613 . S
N266 C269 1.350 . S
N267 S265 1.610 . S
N267 C268 1.351 . S
C268 C262 1.428 . S
C268 N267 1.351 . S
C268 C269 1.434 . S
C269 C260 1.429 . S
C269 N266 1.350 . S
C269 C268 1.434 . S
C270 C271 1.369 . S
C270 C272 1.419 . S
C270 H274 0.930 . S
C271 C270 1.369 . S
C271 C280 1.429 . S
C272 C270 1.419 . S
C272 C273 1.363 . S
C272 H275 0.929 . S
C273 C272 1.363 . S
C273 C279 1.428 . S
H274 C270 0.930 . S
H275 C272 0.929 . S
S276 N277 1.613 . S
S276 N278 1.610 . S
N277 S276 1.613 . S
N277 C280 1.350 . S
N278 S276 1.610 . S
N278 C279 1.351 . S
C279 C273 1.428 . S
C279 N278 1.351 . S
C279 C280 1.434 . S
C280 C271 1.429 . S
C280 N277 1.350 . S
C280 C279 1.434 . S
C281 C282 1.369 . S
C281 C283 1.419 . S
C281 H285 0.930 . S
C282 C281 1.369 . S
C282 C291 1.429 . S
C283 C281 1.419 . S
C283 C284 1.363 . S
C283 H286 0.929 . S
C284 C283 1.363 . S
C284 C290 1.428 . S
H285 C281 0.930 . S
H286 C283 0.929 . S
S287 N288 1.613 . S
S287 N289 1.610 . S
N288 S287 1.613 . S
N288 C291 1.350 . S
N289 S287 1.610 . S
N289 C290 1.351 . S
C290 C284 1.428 . S
C290 N289 1.351 . S
C290 C291 1.434 . S
C291 C282 1.429 . S
C291 N288 1.350 . S
C291 C290 1.434 . S
C292 C293 1.369 . S
C292 C294 1.419 . S
C292 H296 0.930 . S
C293 C292 1.369 . S
C293 C302 1.429 . S
C294 C292 1.419 . S
C294 C295 1.363 . S
C294 H297 0.929 . S
C295 C294 1.363 . S
C295 C301 1.428 . S
H296 C292 0.930 . S
H297 C294 0.929 . S
S298 N299 1.613 . S
S298 N300 1.610 . S
N299 S298 1.613 . S
N299 C302 1.350 . S
N300 S298 1.610 . S
N300 C301 1.351 . S
C301 C295 1.428 . S
C301 N300 1.351 . S
C301 C302 1.434 . S
C302 C293 1.429 . S
C302 N299 1.350 . S
C302 C301 1.434 . S
C303 C304 1.369 1_556 S
C303 C305 1.419 . S
C303 H307 0.930 . S
C304 C303 1.369 1_554 S
C304 C313 1.427 1_554 S
C305 C303 1.419 . S
C305 C306 1.363 . S
C305 H308 0.929 . S
C306 C305 1.363 . S
C306 C312 1.428 . S
H307 C303 0.930 . S
H308 C305 0.929 . S
S309 N310 1.613 . S
S309 N311 1.610 1_554 S
N310 S309 1.613 . S
N310 C313 1.346 1_554 S
N311 S309 1.610 1_556 S
N311 C312 1.351 . S
C312 C306 1.428 . S
C312 N311 1.351 . S
C312 C313 1.440 . S
C313 C304 1.427 1_556 S
C313 N310 1.346 1_556 S
C313 C312 1.440 . S
C314 C315 1.369 . S
C314 C316 1.419 . S
C314 H318 0.930 . S
C315 C314 1.369 . S
C315 C324 1.429 . S
C316 C314 1.419 . S
C316 C317 1.363 . S
C316 H319 0.929 . S
C317 C316 1.363 . S
C317 C323 1.428 . S
H318 C314 0.930 . S
H319 C316 0.929 . S
S320 N321 1.613 . S
S320 N322 1.610 . S
N321 S320 1.613 . S
N321 C324 1.350 . S
N322 S320 1.610 . S
N322 C323 1.351 . S
C323 C317 1.428 . S
C323 N322 1.351 . S
C323 C324 1.434 . S
C324 C315 1.429 . S
C324 N321 1.350 . S
C324 C323 1.434 . S
C325 C326 1.369 . S
C325 C327 1.419 . S
C325 H329 0.930 . S
C326 C325 1.369 . S
C326 C335 1.429 . S
C327 C325 1.419 . S
C327 C328 1.363 . S
C327 H330 0.929 . S
C328 C327 1.363 . S
C328 C334 1.428 . S
H329 C325 0.930 . S
H330 C327 0.929 . S
S331 N332 1.613 1_545 S
S331 N333 1.610 1_545 S
N332 S331 1.613 1_565 S
N332 C335 1.350 . S
N333 S331 1.610 1_565 S
N333 C334 1.351 . S
C334 C328 1.428 . S
C334 N333 1.351 . S
C334 C335 1.434 . S
C335 C326 1.429 . S
C335 N332 1.350 . S
C335 C334 1.434 . S
C207 C99 1.557 . S
C205 C34 1.573 . S
C216 C7 1.548 . S
C218 C194 1.542 . S
C227 C16 1.571 . S
C229 C110 1.558 . S
C238 C25 1.544 . S
C240 C183 1.541 . S
C251 C94 1.355 . S
C249 C5 1.522 . S
C262 C187 1.569 . S
C260 C13 1.562 . S
C271 C23 1.547 . S
C273 C103 1.565 . S
C282 C32 1.514 . S
C284 C178 1.361 . S
C295 C189 1.363 . S
C293 C14 1.511 . S
C306 C105 1.350 . S
C304 C22 1.520 . S
C317 C176 1.567 . S
C315 C31 1.558 . S
C326 C4 1.542 . S
C328 C92 1.563 . S
