# Generated by pormake.
# Topology anh, (6,3)-cn, num edge types: 1
# Building blocks:
#     Node 0, Type 0, BuildingBlock: HISSIN_clean_sbu_0, # of connection points: 6
#     Node 1, Type 0, BuildingBlock: HISSIN_clean_sbu_0, # of connection points: 6
#     Node 2, Type 0, BuildingBlock: HISSIN_clean_sbu_0, # of connection points: 6
#     Node 3, Type 1, BuildingBlock: PAMTOO_clean_linker_0, # of connection points: 3
#     Node 4, Type 1, BuildingBlock: PAMTOO_clean_linker_0, # of connection points: 3
#     Node 5, Type 1, BuildingBlock: PAMTOO_clean_linker_0, # of connection points: 3
#     Node 6, Type 1, BuildingBlock: PAMTOO_clean_linker_0, # of connection points: 3
#     Node 7, Type 1, BuildingBlock: PAMTOO_clean_linker_0, # of connection points: 3
#     Node 8, Type 1, BuildingBlock: PAMTOO_clean_linker_0, # of connection points: 3
#     Edge 9, Type (0, 1), BuildingBlock: UVAHIK_clean_linker_0, # of connection points: 2
#     Edge 10, Type (0, 1), BuildingBlock: UVAHIK_clean_linker_0, # of connection points: 2
#     Edge 11, Type (0, 1), BuildingBlock: UVAHIK_clean_linker_0, # of connection points: 2
#     Edge 12, Type (0, 1), BuildingBlock: UVAHIK_clean_linker_0, # of connection points: 2
#     Edge 13, Type (0, 1), BuildingBlock: UVAHIK_clean_linker_0, # of connection points: 2
#     Edge 14, Type (0, 1), BuildingBlock: UVAHIK_clean_linker_0, # of connection points: 2
#     Edge 15, Type (0, 1), BuildingBlock: UVAHIK_clean_linker_0, # of connection points: 2
#     Edge 16, Type (0, 1), BuildingBlock: UVAHIK_clean_linker_0, # of connection points: 2
#     Edge 17, Type (0, 1), BuildingBlock: UVAHIK_clean_linker_0, # of connection points: 2
#     Edge 18, Type (0, 1), BuildingBlock: UVAHIK_clean_linker_0, # of connection points: 2
#     Edge 19, Type (0, 1), BuildingBlock: UVAHIK_clean_linker_0, # of connection points: 2
#     Edge 20, Type (0, 1), BuildingBlock: UVAHIK_clean_linker_0, # of connection points: 2
#     Edge 21, Type (0, 1), BuildingBlock: UVAHIK_clean_linker_0, # of connection points: 2
#     Edge 22, Type (0, 1), BuildingBlock: UVAHIK_clean_linker_0, # of connection points: 2
#     Edge 23, Type (0, 1), BuildingBlock: UVAHIK_clean_linker_0, # of connection points: 2
#     Edge 24, Type (0, 1), BuildingBlock: UVAHIK_clean_linker_0, # of connection points: 2
#     Edge 25, Type (0, 1), BuildingBlock: UVAHIK_clean_linker_0, # of connection points: 2
#     Edge 26, Type (0, 1), BuildingBlock: UVAHIK_clean_linker_0, # of connection points: 2
# Relax obj value: 0.185
# Max RMSD: 0.144
# Mean RMSD: 0.114
data_MOF--net-anh--node1-HISSIN_clean_sbu_0--node2-PAMTOO_clean_linker_0--edge1-UVAHIK_clean_linker_0
_symmetry_space_group_name_H-M    P1
_symmetry_Int_Tables_number       1
_symmetry_cell_setting            triclinic
loop_
_symmetry_equiv_pos_as_xyz
'x, y, z'
_cell_length_a     39.216961
_cell_length_b     39.121695
_cell_length_c     64.097245
_cell_angle_alpha  88.798383
_cell_angle_beta   92.855905
_cell_angle_gamma 119.91122
loop_
_atom_site_label
_atom_site_type_symbol
_atom_site_fract_x
_atom_site_fract_y
_atom_site_fract_z
_atom_type_partial_charge
Eu0 Eu 0.13466 0.5121 0.16533 0.0
Eu1 Eu 0.18135 0.60812 0.16295 0.0
C2 C 0.16552 0.56415 0.20694 0.0
C3 C 1.05536 0.40593 0.1576 0.0
C4 C 1.0268 0.41711 0.1537 0.0
C5 C 1.0071 0.33861 0.14795 0.0
C6 C 0.98839 0.38908 0.14738 0.0
C7 C 1.04552 0.36671 0.15441 0.0
C8 C 0.97792 0.34936 0.14465 0.0
C9 C 0.09532 0.43517 0.16498 0.0
O10 O 0.23157 0.59472 0.16635 0.0
O11 O 0.19788 0.52806 0.15942 0.0
C12 C 0.23127 0.56158 0.16244 0.0
O13 O 0.12407 0.52998 0.13315 0.0
O14 O 0.22612 0.66683 0.17415 0.0
O15 O 0.18503 0.6604 0.14845 0.0
O16 O 0.18378 0.58545 0.13143 0.0
C17 C 0.15265 0.5563 0.12215 0.0
O18 O 1.08605 0.52676 0.17011 0.0
O19 O 0.11669 0.58996 0.15759 0.0
O20 O 0.16412 0.5925 0.19632 0.0
O21 O 0.11911 0.4562 0.15047 0.0
O22 O 0.09768 0.45653 0.18096 0.0
O23 O 0.16307 0.53365 0.19736 0.0
C24 C 0.24713 0.71954 0.14957 0.0
C25 C 0.2438 0.72658 0.12815 0.0
C26 C 0.30419 0.78507 0.15324 0.0
C27 C 0.26979 0.76307 0.1195 0.0
C28 C 0.27817 0.74873 0.16187 0.0
C29 C 0.29958 0.7931 0.13211 0.0
C30 C 0.21581 0.68476 0.15993 0.0
C31 C 1.0847 0.55825 0.16356 0.0
H32 H 1.03401 0.44741 0.15594 0.0
H33 H 1.00016 0.30841 0.14573 0.0
H34 H 0.96664 0.39837 0.14535 0.0
H35 H 1.06743 0.35775 0.15713 0.0
H36 H 0.22011 0.70462 0.11823 0.0
H37 H 0.32637 0.80771 0.1635 0.0
H38 H 0.26572 0.76828 0.10315 0.0
H39 H 0.28111 0.74423 0.17845 0.0
Eu40 Eu 0.74746 0.08776 0.49831 0.0
Eu41 Eu 0.70023 0.13639 0.49828 0.0
C42 C 0.72591 0.11155 0.54106 0.0
C43 C 0.77243 1.00864 0.48759 0.0
C44 C 0.73297 0.98278 0.48155 0.0
C45 C 0.78891 0.95887 0.47856 0.0
C46 C 0.72136 0.94491 0.47447 0.0
C47 C 0.80046 0.99679 0.48577 0.0
C48 C 0.74908 0.93225 0.47314 0.0
C49 C 0.78402 1.04764 0.49604 0.0
O50 O 0.7642 0.18487 0.5034 0.0
O51 O 0.79493 0.15154 0.49304 0.0
C52 C 0.79616 0.18471 0.49801 0.0
O53 O 0.71729 0.08166 0.46655 0.0
O54 O 0.68415 0.17571 0.51286 0.0
O55 O 0.65802 0.15012 0.48236 0.0
O56 O 0.72534 0.14306 0.46685 0.0
C57 C 0.71961 0.11215 0.45648 0.0
O58 O 0.68407 1.039 0.50226 0.0
O59 O 0.65183 0.07263 0.49237 0.0
O60 O 0.6965 0.11162 0.5305 0.0
O61 O 0.78689 0.07389 0.48229 0.0
O62 O 0.76545 1.04771 0.51238 0.0
O63 O 0.75405 0.11043 0.53134 0.0
C64 C 0.66589 0.21251 0.4899 0.0
C65 C 0.70264 0.24731 0.49041 0.0
C66 C 0.6341 0.25012 0.4797 0.0
C67 C 0.70488 0.28362 0.48623 0.0
C68 C 0.63192 0.21402 0.48389 0.0
C69 C 0.67042 0.2855 0.48146 0.0
C70 C 0.66164 0.17472 0.49689 0.0
C71 C 0.65131 1.0393 0.49689 0.0
H72 H 0.71097 0.99161 0.48277 0.0
H73 H 0.81104 0.95021 0.47751 0.0
H74 H 0.69036 0.92508 0.47083 0.0
H75 H 0.83113 1.01663 0.49021 0.0
H76 H 0.72931 0.24658 0.49479 0.0
H77 H 0.60686 0.25036 0.47643 0.0
H78 H 0.7333 0.3103 0.48754 0.0
H79 H 0.60336 0.18738 0.48337 0.0
Eu80 Eu 0.64596 0.61517 0.82964 0.0
Eu81 Eu 0.74209 0.6649 0.83339 0.0
C82 C 0.69095 0.63383 0.87449 0.0
C83 C 0.53689 0.56952 0.80935 0.0
C84 C 0.51651 0.58912 0.81431 0.0
C85 C 0.4882 0.53501 0.78118 0.0
C86 C 0.48171 0.58096 0.80309 0.0
C87 C 0.5229 0.54319 0.79232 0.0
C88 C 0.46657 0.55281 0.78689 0.0
C89 C 0.56981 0.57249 0.82298 0.0
O90 O 0.73033 0.60191 0.83552 0.0
O91 O 0.665 0.5696 0.82468 0.0
C92 C 0.69796 0.56941 0.82958 0.0
O93 O 0.66821 0.64652 0.79945 0.0
O94 O 0.79902 0.68202 0.849 0.0
O95 O 0.79611 0.71128 0.82042 0.0
O96 O 0.72314 0.64105 0.80043 0.0
C97 C 0.6957 0.64457 0.78979 0.0
O98 O 0.65836 0.6777 0.83553 0.0
O99 O 0.72405 0.71155 0.82853 0.0
O100 O 0.7217 0.66332 0.86604 0.0
O101 O 0.5954 0.56631 0.81404 0.0
O102 O 0.58618 0.60036 0.83713 0.0
O103 O 0.66127 0.60743 0.86292 0.0
C104 C 0.85158 0.704 0.82656 0.0
C105 C 0.88949 0.73699 0.82729 0.0
C106 C 0.87701 0.6653 0.81158 0.0
C107 C 0.92121 0.73407 0.82046 0.0
C108 C 0.84533 0.6683 0.81838 0.0
C109 C 0.91541 0.69802 0.8128 0.0
C110 C 0.81888 0.7071 0.83451 0.0
C111 C 0.69096 0.71105 0.83199 0.0
H112 H 0.5264 0.60937 0.82742 0.0
H113 H 0.47727 0.51335 0.7687 0.0
H114 H 0.46536 0.59476 0.80798 0.0
H115 H 0.53778 0.52743 0.78815 0.0
H116 H 0.89463 0.76486 0.83341 0.0
H117 H 0.87159 0.63695 0.80609 0.0
H118 H 0.95034 0.75987 0.8214 0.0
H119 H 0.81609 0.64259 0.81764 0.0
H120 H 0.64808 0.14413 0.23255 0.0
H121 H 0.53236 0.11187 0.25222 0.0
H122 H 0.55655 0.12786 0.18725 0.0
H123 H 0.51807 0.16711 0.20385 0.0
C124 C 0.49218 0.13776 0.20717 0.0
O125 O 0.50349 0.1114 0.21474 0.0
H126 H 0.47511 0.14225 0.21907 0.0
C127 C 0.61782 0.13643 0.22884 0.0
C128 C 0.60565 0.13711 0.20792 0.0
C129 C 0.59163 0.12659 0.24505 0.0
C130 C 0.5534 0.11986 0.24016 0.0
C131 C 0.54113 0.1209 0.21939 0.0
C132 C 0.56686 0.12852 0.20331 0.0
H133 H 0.59324 0.60175 0.56457 0.0
H134 H 0.49303 0.49936 0.58832 0.0
H135 H 0.50058 0.51942 0.52229 0.0
H136 H 0.42569 0.41459 0.54373 0.0
C137 C 0.45378 0.43532 0.55221 0.0
O138 O 0.458 0.47264 0.5516 0.0
H139 H 0.45106 0.42518 0.56869 0.0
C140 C 0.56543 0.57486 0.56169 0.0
C141 C 0.54964 0.56381 0.54114 0.0
C142 C 0.54557 0.55156 0.57873 0.0
C143 C 0.50886 0.51752 0.57529 0.0
C144 C 0.49278 0.50626 0.55494 0.0
C145 C 0.5132 0.52908 0.53794 0.0
H146 H 0.11923 0.54912 0.89108 0.0
H147 H 0.14187 0.45263 0.90029 0.0
H148 H 0.14454 0.49906 0.83911 0.0
H149 H 1.09191 0.41276 0.8466 0.0
C150 C 0.11978 0.41182 0.84902 0.0
O151 O 0.14787 0.44355 0.86078 0.0
H152 H 0.11253 0.38404 0.85743 0.0
C153 C 0.12711 0.52853 0.88496 0.0
C154 C 0.13124 0.52745 0.86336 0.0
C155 C 0.1321 0.50266 0.89872 0.0
C156 C 0.13814 0.47325 0.89027 0.0
C157 C 0.1415 0.47146 0.86875 0.0
C158 C 0.13986 0.49956 0.85555 0.0
H159 H 0.14327 0.52619 0.43363 0.0
H160 H 0.25327 0.63561 0.43685 0.0
H161 H 0.19527 0.58045 0.49339 0.0
H162 H 0.24786 0.67781 0.49415 0.0
C163 C 0.26464 0.67899 0.48042 0.0
O164 O 0.25953 0.64156 0.47733 0.0
H165 H 0.25195 0.68752 0.46673 0.0
C166 C 0.16687 0.54991 0.44282 0.0
C167 C 0.16509 0.54895 0.46468 0.0
C168 C 0.19807 0.58109 0.43259 0.0
C169 C 0.22851 0.61191 0.44451 0.0
C170 C 0.22788 0.61224 0.46638 0.0
C171 C 0.1957 0.58078 0.47651 0.0
H172 H 0.71393 0.06959 0.76734 0.0
H173 H 0.71581 0.18043 0.76879 0.0
H174 H 0.69874 0.11323 0.82529 0.0
H175 H 0.65525 0.16601 0.82208 0.0
C176 C 0.67413 0.1854 0.8096 0.0
O177 O 0.70683 0.18051 0.80876 0.0
H178 H 0.65622 0.17558 0.79464 0.0
C179 C 0.71215 0.09213 0.77601 0.0
C180 C 0.70614 0.08707 0.79753 0.0
C181 C 0.71519 0.12526 0.76542 0.0
C182 C 0.71257 0.15426 0.77667 0.0
C183 C 0.70653 0.15031 0.7982 0.0
C184 C 0.70282 0.11625 0.80864 0.0
H185 H 0.74163 0.58081 0.09889 0.0
H186 H 0.6272 0.56947 0.10263 0.0
H187 H 0.68711 0.55818 0.15821 0.0
H188 H 0.63049 0.61387 0.1393 0.0
C189 C 0.61626 0.58777 0.14973 0.0
O190 O 0.62164 0.55749 0.14258 0.0
H191 H 0.6315 0.59732 0.16537 0.0
C192 C 0.71711 0.57586 0.10809 0.0
C193 C 0.71888 0.56949 0.1297 0.0
C194 C 0.68437 0.57588 0.09813 0.0
C195 C 0.65283 0.56994 0.11011 0.0
C196 C 0.65353 0.56395 0.13174 0.0
C197 C 0.68655 0.56325 0.14156 0.0
C198 C 0.30619 0.59685 0.16525 0.0
C199 C 0.26992 0.56215 0.16108 0.0
C200 C 0.34229 0.59746 0.16393 0.0
C201 C 0.38824 0.54244 0.14155 0.0
H202 H 0.47444 0.60585 0.18094 0.0
C203 C 0.54937 0.57188 0.13262 0.0
C204 C 0.57273 0.57605 0.15085 0.0
C205 C 0.51152 0.56758 0.13373 0.0
C206 C 0.45073 0.58762 0.16986 0.0
H207 H 0.24409 0.50075 0.15211 0.0
H208 H 0.3066 0.50177 0.14987 0.0
H209 H 0.4116 0.60366 0.1833 0.0
H210 H 0.57356 0.57762 0.18461 0.0
H211 H 0.50788 0.56947 0.18662 0.0
H212 H 0.4274 0.52613 0.12824 0.0
C213 C 0.30727 0.52879 0.15403 0.0
C214 C 0.41453 0.58678 0.17106 0.0
C215 C 0.27115 0.52812 0.15546 0.0
C216 C 0.5565 0.57436 0.17022 0.0
C217 C 0.51882 0.57019 0.17135 0.0
C218 C 0.42458 0.54347 0.14027 0.0
C219 C 0.3436 0.56346 0.15828 0.0
C220 C 0.3825 0.56418 0.15694 0.0
C221 C 0.49584 0.56751 0.15313 0.0
C222 C 0.45656 0.56602 0.15444 0.0
H223 H 0.30683 0.62379 0.16956 0.0
H224 H 0.3693 0.62498 0.16706 0.0
H225 H 0.36474 0.52494 0.1302 0.0
H226 H 0.56105 0.57352 0.11744 0.0
H227 H 0.49523 0.56589 0.11928 0.0
C228 C 0.83793 0.25939 0.50236 0.0
C229 C 0.83465 0.22307 0.49693 0.0
C230 C 0.87392 0.29516 0.50102 0.0
C231 C 0.98324 0.33557 0.49608 0.0
H232 H 0.98374 0.43187 0.48008 0.0
C233 C 0.12494 0.47545 0.46953 0.0
C234 C 0.13129 0.5133 0.47413 0.0
C235 C 1.08989 0.4412 0.47455 0.0
C236 C 0.98435 0.40546 0.48486 0.0
H237 H 0.86764 0.19685 0.48561 0.0
H238 H 0.92947 0.25849 0.48295 0.0
H239 H 0.9212 0.37095 0.48386 0.0
H240 H 0.10527 0.54438 0.4879 0.0
H241 H 1.04399 0.48456 0.49692 0.0
H242 H 1.04634 0.36992 0.49675 0.0
C243 C 0.90455 0.25958 0.4887 0.0
C244 C 0.94818 0.3702 0.48705 0.0
C245 C 0.86867 0.2239 0.4901 0.0
C246 C 0.10175 0.51578 0.48446 0.0
C247 C 1.0663 0.48136 0.48934 0.0
C248 C 1.01931 0.37071 0.4938 0.0
C249 C 0.90803 0.29602 0.49415 0.0
C250 C 0.94684 0.33439 0.49251 0.0
C251 C 1.05948 0.4434 0.48418 0.0
C252 C 1.02064 0.40631 0.48795 0.0
H253 H 0.81262 0.26028 0.50771 0.0
H254 H 0.875 0.32214 0.50564 0.0
H255 H 0.98407 0.30926 0.50082 0.0
H256 H 0.14671 0.47236 0.46127 0.0
H257 H 1.08603 0.41294 0.47001 0.0
C258 C 0.65649 0.75154 0.83429 0.0
C259 C 0.69078 0.74952 0.83114 0.0
C260 C 0.65683 0.78781 0.83304 0.0
C261 C 0.7263 0.8979 0.83349 0.0
H262 H 0.63625 0.90275 0.80935 0.0
C263 C 0.73725 1.04539 0.80588 0.0
C264 C 0.70497 1.05142 0.80753 0.0
C265 C 0.73458 1.00916 0.81124 0.0
C266 C 0.66154 0.90205 0.81642 0.0
H267 H 0.75237 0.78502 0.82403 0.0
H268 H 0.75282 0.84724 0.8216 0.0
H269 H 0.63311 0.83901 0.81342 0.0
H270 H 0.64443 1.02367 0.81636 0.0
H271 H 0.63964 0.96022 0.82597 0.0
H272 H 0.75495 0.96088 0.8362 0.0
C273 C 0.72565 0.82109 0.82546 0.0
C274 C 0.65975 0.86523 0.81877 0.0
C275 C 0.72531 0.785 0.82672 0.0
C276 C 0.67008 1.02032 0.81527 0.0
C277 C 0.66722 0.98371 0.82047 0.0
C278 C 0.72812 0.93461 0.83108 0.0
C279 C 0.69148 0.82334 0.82862 0.0
C280 C 0.69231 0.86248 0.8271 0.0
C281 C 0.6993 0.97729 0.81824 0.0
C282 C 0.69599 0.93749 0.82226 0.0
H283 H 0.62926 0.72506 0.83772 0.0
H284 H 0.62991 0.78797 0.83581 0.0
H285 H 0.75177 0.89742 0.84046 0.0
H286 H 0.76434 0.06845 0.79963 0.0
H287 H 0.75984 1.00565 0.80897 0.0
C288 C 1.04465 0.59182 0.15503 0.0
C289 C 1.0461 0.55822 0.16218 0.0
C290 C 1.0089 0.59212 0.15312 0.0
C291 C 0.90399 0.54015 0.16964 0.0
H292 H 0.88976 0.59683 0.12289 0.0
C293 C 0.75355 0.53629 0.14843 0.0
C294 C 0.75523 0.56979 0.13884 0.0
C295 C 0.78825 0.5343 0.15286 0.0
C296 C 0.89316 0.58133 0.1363 0.0
H297 H 1.0099 0.49839 0.17309 0.0
H298 H 0.94756 0.49884 0.1697 0.0
H299 H 0.95012 0.59402 0.12717 0.0
H300 H 0.7952 0.62817 0.12745 0.0
H301 H 0.85506 0.62547 0.13572 0.0
H302 H 0.8467 0.52745 0.17868 0.0
C303 C 0.97437 0.52527 0.16571 0.0
C304 C 0.92815 0.57964 0.13875 0.0
C305 C 1.0103 0.52494 0.16757 0.0
C306 C 0.79266 0.60186 0.13481 0.0
C307 C 0.82715 0.60002 0.13932 0.0
C308 C 0.86885 0.54192 0.16721 0.0
C309 C 0.97294 0.55882 0.15827 0.0
C310 C 0.93452 0.55933 0.15555 0.0
C311 C 0.82569 0.56579 0.14784 0.0
C312 C 0.86289 0.56289 0.15057 0.0
H313 H 1.0713 0.61821 0.15078 0.0
H314 H 1.00963 0.61887 0.14772 0.0
H315 H 0.90754 0.52442 0.1829 0.0
H316 H 0.72527 0.51079 0.15146 0.0
H317 H 0.78545 0.5073 0.15935 0.0
C318 C 0.61091 0.96415 0.49772 0.0
C319 C 0.61261 1.00093 0.4955 0.0
C320 C 0.57466 0.9284 0.4962 0.0
C321 C 0.46546 0.88699 0.49936 0.0
H322 H 0.45733 0.79485 0.47293 0.0
C323 C 0.32106 0.73495 0.50166 0.0
C324 C 0.30806 0.71112 0.48357 0.0
C325 C 0.35888 0.76851 0.5034 0.0
C326 C 0.45885 0.82026 0.48029 0.0
H327 H 0.57642 1.028 0.4898 0.0
H328 H 0.51383 0.96631 0.4872 0.0
H329 H 0.52065 0.85628 0.47504 0.0
H330 H 0.3255 0.70423 0.45319 0.0
H331 H 0.39169 0.76249 0.45622 0.0
H332 H 0.40374 0.85136 0.5044 0.0
C333 C 0.54049 0.9649 0.49032 0.0
C334 C 0.4955 0.85561 0.48171 0.0
C335 C 0.5767 1.00057 0.4917 0.0
C336 C 0.33466 0.72143 0.46748 0.0
C337 C 0.3727 0.75503 0.46925 0.0
C338 C 0.42897 0.85165 0.49808 0.0
C339 C 0.53867 0.92805 0.49255 0.0
C340 C 0.49952 0.88976 0.49121 0.0
C341 C 0.38526 0.77971 0.48709 0.0
C342 C 0.42484 0.81752 0.48852 0.0
H343 H 0.6377 0.96287 0.5006 0.0
H344 H 0.57487 0.90096 0.49823 0.0
H345 H 0.46697 0.91215 0.50701 0.0
H346 H 0.30143 0.7283 0.51433 0.0
H347 H 0.36726 0.78596 0.51758 0.0
C348 C 0.66331 0.49549 0.82331 0.0
C349 C 0.69835 0.53115 0.82798 0.0
C350 C 0.66322 0.45959 0.82179 0.0
C351 C 0.72852 0.41635 0.81433 0.0
H352 H 0.63977 0.32125 0.83479 0.0
C353 C 0.70268 0.25738 0.79808 0.0
C354 C 0.68511 0.22833 0.81351 0.0
C355 C 0.70716 0.29526 0.80039 0.0
C356 C 0.66506 0.34742 0.82912 0.0
H357 H 0.76108 0.55619 0.83452 0.0
H358 H 0.76095 0.49377 0.83192 0.0
H359 H 0.64189 0.38418 0.83791 0.0
H360 H 0.65952 0.21719 0.84378 0.0
H361 H 0.66777 0.28282 0.848 0.0
H362 H 0.75176 0.37938 0.80569 0.0
C363 C 0.73338 0.49359 0.8293 0.0
C364 C 0.66604 0.38375 0.83068 0.0
C365 C 0.73342 0.52957 0.83094 0.0
C366 C 0.67332 0.23873 0.83159 0.0
C367 C 0.67765 0.27643 0.83388 0.0
C368 C 0.72741 0.37987 0.81264 0.0
C369 C 0.69821 0.45785 0.82478 0.0
C370 C 0.69772 0.41896 0.8233 0.0
C371 C 0.69394 0.30524 0.81816 0.0
C372 C 0.69566 0.34466 0.82004 0.0
H373 H 0.63563 0.49516 0.82082 0.0
H374 H 0.63556 0.43315 0.81797 0.0
H375 H 0.75333 0.44247 0.80827 0.0
H376 H 0.71165 0.25028 0.78385 0.0
H377 H 0.71959 0.3162 0.78782 0.0
C378 C 0.70408 0.86954 0.4534 0.0
C379 C 0.73556 0.89039 0.46803 0.0
C380 C 0.68614 0.82856 0.45174 0.0
C381 C 0.69243 0.7405 0.46893 0.0
H382 H 0.58322 0.69896 0.48177 0.0
C383 C 0.61194 0.61072 0.52365 0.0
C384 C 0.57057 0.58968 0.52335 0.0
C385 C 0.63174 0.6403 0.50908 0.0
C386 C 0.61322 0.70932 0.47758 0.0
H387 H 0.77494 0.88473 0.49106 0.0
H388 H 0.74399 0.81354 0.48795 0.0
H389 H 0.62081 0.76568 0.46915 0.0
H390 H 0.51766 0.58051 0.50602 0.0
H391 H 0.55219 0.6306 0.47996 0.0
H392 H 0.68512 0.68438 0.47804 0.0
C393 C 0.73322 0.82885 0.47774 0.0
C394 C 0.63488 0.74786 0.47035 0.0
C395 C 0.75096 0.86976 0.47953 0.0
C396 C 0.54954 0.59624 0.50685 0.0
C397 C 0.56939 0.62539 0.49202 0.0
C398 C 0.67056 0.70163 0.4759 0.0
C399 C 0.69958 0.8077 0.46451 0.0
C400 C 0.67513 0.76441 0.46686 0.0
C401 C 0.61066 0.64913 0.49356 0.0
C402 C 0.63118 0.6862 0.4813 0.0
H403 H 0.69213 0.88468 0.44392 0.0
H404 H 0.66053 0.81299 0.44123 0.0
H405 H 0.72334 0.75245 0.4661 0.0
H406 H 0.62915 0.60558 0.53574 0.0
H407 H 0.66349 0.65784 0.51091 0.0
C408 C 0.98335 0.70956 0.82124 0.0
C409 C 0.94944 0.69338 0.80785 0.0
C410 C 1.01259 0.69974 0.81883 0.0
C411 C 1.0748 0.67871 0.80901 0.0
H412 H 1.02431 0.56468 0.80793 0.0
C413 C 0.10357 0.53958 0.82964 0.0
C414 C 0.12416 0.55384 0.84897 0.0
C415 C 1.09165 0.56218 0.81754 0.0
C416 C 1.03938 0.59659 0.80767 0.0
H417 H 0.92145 0.65736 0.78019 0.0
H418 H 0.97248 0.63985 0.7761 0.0
H419 H 0.98611 0.59613 0.79857 0.0
H420 H 0.1518 0.6047 0.86966 0.0
H421 H 0.12918 0.6431 0.84923 0.0
H422 H 0.12779 0.67889 0.81907 0.0
C423 C 0.9761 0.65971 0.78863 0.0
C424 C 1.01732 0.61469 0.80228 0.0
C425 C 0.94684 0.66958 0.79103 0.0
C426 C 0.13502 0.59235 0.85514 0.0
C427 C 0.12264 0.61473 0.84318 0.0
C428 C 0.09703 0.66057 0.81428 0.0
C429 C 1.00851 0.67347 0.803 0.0
C430 C 1.03434 0.65581 0.80375 0.0
C431 C 0.09951 0.5993 0.82462 0.0
C432 C 1.07912 0.61919 0.81454 0.0
H433 H 0.98615 0.72771 0.83446 0.0
H434 H 1.03692 0.71046 0.83033 0.0
H435 H 1.08882 0.71053 0.80997 0.0
H436 H 1.09466 0.51008 0.82433 0.0
H437 H 1.07462 0.54973 0.8031 0.0
C438 C 0.30366 0.85135 0.11281 0.0
C439 C 0.32265 0.83406 0.12428 0.0
C440 C 0.32273 0.89216 0.10985 0.0
C441 C 0.41821 0.98571 0.12116 0.0
H442 H 0.34917 1.02113 0.14097 0.0
C443 C 0.48464 0.12701 0.16824 0.0
C444 C 0.46715 0.12001 0.18762 0.0
C445 C 0.46451 0.10187 0.15129 0.0
C446 C 0.36888 1.01194 0.13523 0.0
H447 H 0.37794 0.84529 0.13939 0.0
H448 H 0.41067 0.91616 0.13495 0.0
H449 H 0.3211 0.95519 0.12663 0.0
H450 H 0.41434 0.08336 0.20421 0.0
H451 H 0.3793 1.03933 0.17498 0.0
H452 H 0.46609 1.04084 0.13188 0.0
C453 C 0.38125 0.89859 0.12802 0.0
C454 C 0.35275 0.97415 0.12672 0.0
C455 C 0.3623 0.85786 0.13086 0.0
C456 C 0.42814 0.08965 0.18931 0.0
C457 C 0.40808 0.06447 0.17245 0.0
C458 C 0.43435 1.02329 0.12993 0.0
C459 C 0.36104 0.91647 0.11841 0.0
C460 C 0.37734 0.95971 0.12081 0.0
C461 C 0.42675 0.06905 0.15355 0.0
C462 C 0.40988 1.03584 0.13829 0.0
H463 H 0.27309 0.83384 0.1075 0.0
H464 H 0.30657 0.90486 0.102 0.0
H465 H 0.43796 0.97593 0.11618 0.0
H466 H 0.51485 0.15019 0.16662 0.0
H467 H 0.47951 0.10661 0.13687 0.0
C468 C 0.69206 0.35117 0.49763 0.0
C469 C 0.67074 0.3236 0.48162 0.0
C470 C 0.68304 0.38042 0.50219 0.0
C471 C 0.61737 0.42167 0.48746 0.0
H472 H 0.59274 0.40193 0.54584 0.0
C473 C 0.48602 0.42533 0.52143 0.0
C474 C 0.48766 0.43414 0.54267 0.0
C475 C 0.51739 0.42401 0.51281 0.0
C476 C 0.60011 0.40889 0.52966 0.0
H477 H 0.62793 0.30904 0.45576 0.0
H478 H 0.61125 0.35916 0.46414 0.0
H479 H 0.63606 0.38226 0.53155 0.0
H480 H 0.52411 0.45134 0.57125 0.0
H481 H 0.57956 0.45069 0.55614 0.0
H482 H 0.58 0.44715 0.48557 0.0
C483 C 0.63485 0.35829 0.47322 0.0
C484 C 0.62519 0.39759 0.52143 0.0
C485 C 0.64409 0.32922 0.46855 0.0
C486 C 0.52192 0.44365 0.55491 0.0
C487 C 0.55357 0.44316 0.54623 0.0
C488 C 0.59242 0.43337 0.49579 0.0
C489 C 0.65237 0.38239 0.49096 0.0
C490 C 0.63314 0.40267 0.5001 0.0
C491 C 0.55134 0.43229 0.5252 0.0
C492 C 0.58249 0.42592 0.51686 0.0
H493 H 0.71295 0.34792 0.50796 0.0
H494 H 0.69769 0.39925 0.51567 0.0
H495 H 0.62319 0.42619 0.471 0.0
H496 H 0.4601 0.41861 0.51164 0.0
H497 H 0.51436 0.41512 0.49663 0.0
C498 C 0.41152 0.56315 0.77256 0.0
C499 C 0.42579 0.5376 0.7783 0.0
C500 C 0.37129 0.54816 0.76786 0.0
C501 C 0.28717 0.51418 0.77952 0.0
H502 H 0.21628 0.40303 0.76818 0.0
C503 C 0.16145 0.39689 0.82665 0.0
C504 C 0.13685 0.41306 0.82838 0.0
C505 C 0.18654 0.40749 0.81008 0.0
C506 C 0.23551 0.43433 0.7709 0.0
H507 H 0.40967 0.47637 0.78266 0.0
H508 H 0.34018 0.45047 0.77549 0.0
H509 H 0.28337 0.43472 0.75615 0.0
H510 H 0.11626 0.44989 0.81328 0.0
H511 H 0.16187 0.47022 0.78481 0.0
H512 H 0.23951 0.51337 0.79473 0.0
C513 C 0.35951 0.48188 0.77375 0.0
C514 C 0.27409 0.45248 0.76427 0.0
C515 C 0.39961 0.49679 0.77805 0.0
C516 C 0.1353 0.43737 0.81235 0.0
C517 C 0.16111 0.44878 0.79603 0.0
C518 C 0.24837 0.49629 0.78564 0.0
C519 C 0.34448 0.5074 0.76933 0.0
C520 C 0.30122 0.49192 0.76984 0.0
C521 C 0.18807 0.43518 0.79529 0.0
C522 C 0.22303 0.45571 0.78253 0.0
H523 H 0.43125 0.59475 0.77239 0.0
H524 H 0.36106 0.56871 0.76402 0.0
H525 H 0.30683 0.54448 0.78423 0.0
H526 H 0.16342 0.37843 0.83894 0.0
H527 H 0.20742 0.397 0.81001 0.0
C528 C 0.91159 0.32765 0.12686 0.0
C529 C 0.9361 0.31908 0.14006 0.0
C530 C 0.87099 0.30168 0.12531 0.0
C531 C 0.79164 0.20149 0.13925 0.0
H532 H 0.7371 0.25635 0.15459 0.0
C533 C 0.66135 0.13448 0.192 0.0
C534 C 0.63407 0.14786 0.19118 0.0
C535 C 0.69202 0.1493 0.17829 0.0
C536 C 0.75128 0.24033 0.14972 0.0
H537 H 0.93728 0.27522 0.16093 0.0
H538 H 0.86679 0.22995 0.15804 0.0
H539 H 0.80397 0.29382 0.1432 0.0
H540 H 0.61565 0.18485 0.17416 0.0
H541 H 0.66871 0.21002 0.1498 0.0
H542 H 0.73934 0.14803 0.14661 0.0
C543 C 0.87893 0.2566 0.14878 0.0
C544 C 0.78979 0.26194 0.1432 0.0
C545 C 0.91945 0.28265 0.15045 0.0
C546 C 0.63629 0.17405 0.17525 0.0
C547 C 0.66691 0.18874 0.16141 0.0
C548 C 0.75293 0.1798 0.14561 0.0
C549 C 0.85414 0.26648 0.13678 0.0
C550 C 0.81093 0.24288 0.13877 0.0
C551 C 0.69598 0.17765 0.16329 0.0
C552 C 0.73294 0.19913 0.15183 0.0
H553 H 0.92361 0.35507 0.11826 0.0
H554 H 0.85259 0.3098 0.11575 0.0
H555 H 0.80709 0.18603 0.13561 0.0
H556 H 0.6599 0.11361 0.2038 0.0
H557 H 0.71393 0.14023 0.18037 0.0
C558 C 0.11324 0.53174 0.08854 0.0
C559 C 0.15006 0.55226 0.09924 0.0
C560 C 0.11074 0.52691 0.06689 0.0
C561 C 0.17089 0.56408 0.01962 0.0
H562 H 1.08441 0.46886 -0.00518 0.0
C563 C 0.14756 0.54531 0.93052 0.0
C564 C 0.13229 0.50748 0.92176 0.0
C565 C 0.14856 0.55039 0.95205 0.0
C566 C 0.10911 0.49539 0.00145 0.0
H567 H 0.21316 0.58338 0.09588 0.0
H568 H 0.20907 0.57334 0.05831 0.0
H569 H 1.08949 0.47794 0.03236 0.0
H570 H 0.10582 0.44521 0.92917 0.0
H571 H 0.11005 0.45433 0.96675 0.0
H572 H 0.19197 0.5804 0.98894 0.0
C573 C 0.18193 0.5622 0.06636 0.0
C574 C 0.11164 0.50099 0.02305 0.0
C575 C 0.18437 0.56781 0.08795 0.0
C576 C 0.11828 0.47487 0.93525 0.0
C577 C 0.12009 0.48006 0.95689 0.0
C578 C 0.16885 0.55809 -0.0019 0.0
C579 C 0.14506 0.54168 0.05549 0.0
C580 C 0.14245 0.53553 0.03245 0.0
C581 C 0.1353 0.51794 0.9656 0.0
C582 C 0.13777 0.52381 0.98866 0.0
H583 H 1.0863 0.51973 0.09688 0.0
H584 H 1.08182 0.51178 0.05912 0.0
H585 H 0.19474 0.59136 0.02611 0.0
H586 H 0.15942 0.57135 0.92081 0.0
H587 H 0.15973 0.57995 0.958 0.0
C588 C 0.72518 0.14542 0.42225 0.0
C589 C 0.71099 0.11038 0.43377 0.0
C590 C 0.71371 0.14439 0.40121 0.0
C591 C 0.69879 0.12747 0.35393 0.0
H592 H 0.5862 0.07855 0.34161 0.0
C593 C 0.62944 0.10646 0.2703 0.0
C594 C 0.60415 0.12209 0.26678 0.0
C595 C 0.64227 0.10308 0.29052 0.0
C596 C 0.61767 0.09222 0.34488 0.0
H597 H 0.67427 1.04675 0.43235 0.0
H598 H 0.65332 1.0451 0.3955 0.0
H599 H 0.61083 0.07519 0.3771 0.0
H600 H 0.572 0.14564 0.28205 0.0
H601 H 0.59348 0.13828 0.31751 0.0
H602 H 0.70568 0.14435 0.32171 0.0
C603 C 0.67367 0.07321 0.40279 0.0
C604 C 0.6317 0.09003 0.36505 0.0
C605 C 0.68585 0.07416 0.42376 0.0
C606 C 0.59112 0.13315 0.28412 0.0
C607 C 0.60348 0.12908 0.30442 0.0
C608 C 0.68475 0.12899 0.33368 0.0
C609 C 0.68722 0.10838 0.39144 0.0
C610 C 0.67238 0.10802 0.36977 0.0
C611 C 0.62951 0.11444 0.30773 0.0
C612 C 0.64411 0.11176 0.32905 0.0
H613 H 0.74463 0.17372 0.42961 0.0
H614 H 0.72437 0.17189 0.39278 0.0
H615 H 0.73028 0.14155 0.35724 0.0
H616 H 0.63922 0.09651 0.25743 0.0
H617 H 0.66195 0.09121 0.29273 0.0
C618 C 0.68016 0.66606 0.7558 0.0
C619 C 0.69255 0.64263 0.76687 0.0
C620 C 0.67 0.65978 0.73452 0.0
C621 C 0.669 0.6033 0.68781 0.0
H622 H 0.57858 0.61451 0.67117 0.0
C623 C 0.56969 0.5359 0.61242 0.0
C624 C 0.56372 0.56268 0.60005 0.0
C625 C 0.58842 0.54705 0.63224 0.0
C626 C 0.60399 0.61151 0.67558 0.0
H627 H 0.70559 0.59529 0.7645 0.0
H628 H 0.68608 0.58282 0.72739 0.0
H629 H 0.60723 0.63225 0.70646 0.0
H630 H 0.57212 0.62173 0.59854 0.0
H631 H 0.60382 0.64087 0.63355 0.0
H632 H 0.66401 0.58066 0.65688 0.0
C633 C 0.68528 0.60693 0.73489 0.0
C634 C 0.62075 0.622 0.69577 0.0
C635 C 0.69646 0.61397 0.75616 0.0
C636 C 0.57642 0.60062 0.60784 0.0
C637 C 0.59445 0.6115 0.6278 0.0
C638 C 0.65167 0.5921 0.66766 0.0
C639 C 0.67073 0.62899 0.72395 0.0
C640 C 0.65368 0.61834 0.70216 0.0
C641 C 0.60075 0.58488 0.64012 0.0
C642 C 0.61916 0.59633 0.66139 0.0
H643 H 0.67726 0.68858 0.76377 0.0
H644 H 0.66035 0.67835 0.72653 0.0
H645 H 0.69452 0.60043 0.69203 0.0
H646 H 0.56042 0.5066 0.6066 0.0
H647 H 0.59274 0.52597 0.64155 0.0
C648 C 0.75598 0.11011 0.57657 0.0
C649 C 0.72743 0.11397 0.56422 0.0
C650 C 0.75729 0.11312 0.5984 0.0
C651 C 0.72672 0.15352 0.64071 0.0
H652 H 0.73786 0.0774 0.67572 0.0
C653 C 0.69816 0.13932 0.72908 0.0
C654 C 0.72098 0.12904 0.74253 0.0
C655 C 0.70145 0.1397 0.7074 0.0
C656 C 0.73537 0.09935 0.66623 0.0
H657 H 0.67788 0.12409 0.56527 0.0
H658 H 0.68028 0.12935 0.60308 0.0
H659 H 0.73949 0.07376 0.63788 0.0
H660 H 0.76652 0.11294 0.74382 0.0
H661 H 0.77287 0.11435 0.70614 0.0
H662 H 0.72274 0.17928 0.66896 0.0
C663 C 0.70182 0.12425 0.59594 0.0
C664 C 0.73624 0.09716 0.64451 0.0
C665 C 0.7003 0.12092 0.57422 0.0
C666 C 0.74806 0.12038 0.73385 0.0
C667 C 0.75156 0.12102 0.71222 0.0
C668 C 0.72612 0.15588 0.66243 0.0
C669 C 0.73034 0.12048 0.60832 0.0
C670 C 0.73152 0.12398 0.63147 0.0
C671 C 0.7279 0.13012 0.69865 0.0
C672 C 0.73008 0.12862 0.67551 0.0
H673 H 0.77733 0.10477 0.56938 0.0
H674 H 0.77976 0.11029 0.6075 0.0
H675 H 0.7236 0.17502 0.63112 0.0
H676 H 0.67676 0.14575 0.73528 0.0
H677 H 0.68235 0.14637 0.6975 0.0
C678 C 0.65718 0.59751 0.90665 0.0
C679 C 0.68954 0.62966 0.89759 0.0
C680 C 0.65597 0.59257 0.92831 0.0
C681 C 0.69826 0.64514 0.97855 0.0
H682 H 0.66099 0.53961 0.00015 0.0
C683 C 0.67041 0.60694 0.0664 0.0
C684 C 0.68329 0.58179 0.0751 0.0
C685 C 0.67063 0.61326 0.04479 0.0
C686 C 0.67167 0.56931 -0.00559 0.0
H687 H 0.74584 0.68219 0.90442 0.0
H688 H 0.74376 0.67344 0.94231 0.0
H689 H 0.66346 0.55039 0.96257 0.0
H690 H 0.7056 0.54286 0.06781 0.0
H691 H 0.70635 0.55414 0.03028 0.0
H692 H 0.70704 0.66406 0.01049 0.0
C693 C 0.71917 0.65219 0.93257 0.0
C694 C 0.6727 0.57544 0.97282 0.0
C695 C 0.72045 0.65709 0.91083 0.0
C696 C 0.69589 0.56275 0.06166 0.0
C697 C 0.69594 0.56891 0.0401 0.0
C698 C 0.69707 0.63896 0.00018 0.0
C699 C 0.68704 0.61966 0.94156 0.0
C700 C 0.68605 0.61342 0.9646 0.0
C701 C 0.68345 0.59434 0.03137 0.0
C702 C 0.68389 0.60097 0.00837 0.0
H703 H 0.63271 0.57583 0.89701 0.0
H704 H 0.63049 0.56754 0.93469 0.0
H705 H 0.70838 0.67471 0.97275 0.0
H706 H 0.66077 0.62225 0.07633 0.0
H707 H 0.66045 0.63272 0.03857 0.0
C708 C 0.16687 0.5346 0.24194 0.0
C709 C 0.16993 0.56662 0.2301 0.0
C710 C 0.17092 0.53685 0.26376 0.0
C711 C 0.21229 0.60756 0.30777 0.0
H712 H 0.13943 0.51836 0.34027 0.0
C713 C 0.20692 0.61505 0.39784 0.0
C714 C 0.19856 0.58101 0.40938 0.0
C715 C 0.20474 0.61405 0.37596 0.0
C716 C 0.16044 0.54336 0.33148 0.0
H717 H 0.17994 0.62627 0.23203 0.0
H718 H 0.18707 0.63015 0.2701 0.0
H719 H 0.133 0.51503 0.30229 0.0
H720 H 0.18314 0.51973 0.407 0.0
H721 H 0.18004 0.51809 0.36896 0.0
H722 H 0.24001 0.63579 0.33695 0.0
C723 C 0.18171 0.60337 0.26246 0.0
C724 C 0.15665 0.54145 0.30966 0.0
C725 C 0.17737 0.60102 0.24063 0.0
C726 C 0.18909 0.54628 0.39856 0.0
C727 C 0.18716 0.54533 0.37672 0.0
C728 C 0.21626 0.6094 0.32962 0.0
C729 C 0.17842 0.57126 0.27429 0.0
C730 C 0.18252 0.57349 0.29753 0.0
C731 C 0.19441 0.57903 0.3651 0.0
C732 C 0.1904 0.57729 0.34179 0.0
H733 H 0.1612 0.50765 0.23437 0.0
H734 H 0.16864 0.51175 0.27239 0.0
H735 H 0.233 0.63259 0.29888 0.0
H736 H 0.21397 0.64216 0.40574 0.0
H737 H 0.21009 0.64047 0.36758 0.0
loop_
_geom_bond_atom_site_label_1
_geom_bond_atom_site_label_2
_geom_bond_distance
_geom_bond_site_symmetry_2
_ccdc_geom_bond_type
Eu0 C9 2.828 . S
Eu0 O11 2.392 1_655 S
Eu0 O13 2.418 . S
Eu0 O18 2.373 . S
Eu0 O21 2.488 . S
Eu0 O22 2.471 . S
Eu0 O23 2.349 . S
Eu1 O10 2.373 . S
Eu1 O14 2.488 . S
Eu1 O15 2.471 . S
Eu1 O16 2.349 . S
Eu1 O19 2.392 1_455 S
Eu1 O20 2.418 . S
Eu1 C30 2.828 . S
C2 O20 1.244 . S
C2 O23 1.265 1_455 S
C3 C4 1.379 . S
C3 C7 1.373 . S
C3 C9 1.505 . S
C4 C3 1.379 . S
C4 C6 1.369 . S
C4 H32 0.930 . S
C5 C7 1.383 . S
C5 C8 1.382 . S
C5 H33 0.930 . S
C6 C4 1.369 . S
C6 C8 1.392 . S
C6 H34 0.930 . S
C7 C3 1.373 . S
C7 C5 1.383 . S
C7 H35 0.931 . S
C8 C5 1.382 . S
C8 C6 1.392 . S
C9 Eu0 2.828 . S
C9 C3 1.505 . S
C9 O21 1.249 . S
C9 O22 1.244 . S
O10 Eu1 2.373 . S
O10 C12 1.258 . S
O11 Eu0 2.392 1_455 S
O11 C12 1.242 . S
C12 O10 1.258 . S
C12 O11 1.242 . S
O13 Eu0 2.418 . S
O13 C17 1.244 1_655 S
O14 Eu1 2.488 . S
O14 C30 1.249 . S
O15 Eu1 2.471 . S
O15 C30 1.244 . S
O16 Eu1 2.349 . S
O16 C17 1.265 . S
C17 O13 1.244 1_455 S
C17 O16 1.265 . S
O18 Eu0 2.373 . S
O18 C31 1.258 . S
O19 Eu1 2.392 1_655 S
O19 C31 1.242 . S
O20 Eu1 2.418 . S
O20 C2 1.244 . S
O21 Eu0 2.488 . S
O21 C9 1.249 . S
O22 Eu0 2.471 . S
O22 C9 1.244 . S
O23 Eu0 2.349 . S
O23 C2 1.265 1_655 S
C24 C25 1.379 . S
C24 C28 1.373 . S
C24 C30 1.505 . S
C25 C24 1.379 . S
C25 C27 1.369 . S
C25 H36 0.930 . S
C26 C28 1.383 . S
C26 C29 1.382 . S
C26 H37 0.930 . S
C27 C25 1.369 . S
C27 C29 1.392 . S
C27 H38 0.930 . S
C28 C24 1.373 . S
C28 C26 1.383 . S
C28 H39 0.931 . S
C29 C26 1.382 . S
C29 C27 1.392 . S
C30 Eu1 2.828 . S
C30 O14 1.249 . S
C30 O15 1.244 . S
C30 C24 1.505 . S
C31 O18 1.258 . S
C31 O19 1.242 . S
H32 C4 0.930 . S
H33 C5 0.930 . S
H34 C6 0.930 . S
H35 C7 0.931 . S
H36 C25 0.930 . S
H37 C26 0.930 . S
H38 C27 0.930 . S
H39 C28 0.931 . S
Eu40 C49 2.828 . S
Eu40 O51 2.392 1_565 S
Eu40 O53 2.418 1_565 S
Eu40 O58 2.373 . S
Eu40 O61 2.488 . S
Eu40 O62 2.471 . S
Eu40 O63 2.349 1_565 S
Eu41 O50 2.373 . S
Eu41 O54 2.488 . S
Eu41 O55 2.471 . S
Eu41 O56 2.349 . S
Eu41 O59 2.392 1_545 S
Eu41 O60 2.418 . S
Eu41 C70 2.828 . S
C42 O60 1.244 . S
C42 O63 1.265 . S
C43 C44 1.379 . S
C43 C47 1.373 . S
C43 C49 1.505 . S
C44 C43 1.379 . S
C44 C46 1.369 . S
C44 H72 0.930 . S
C45 C47 1.383 . S
C45 C48 1.382 . S
C45 H73 0.930 . S
C46 C44 1.369 . S
C46 C48 1.392 . S
C46 H74 0.930 . S
C47 C43 1.373 . S
C47 C45 1.383 . S
C47 H75 0.931 . S
C48 C45 1.382 . S
C48 C46 1.392 . S
C49 Eu40 2.828 . S
C49 C43 1.505 . S
C49 O61 1.249 . S
C49 O62 1.244 . S
O50 Eu41 2.373 . S
O50 C52 1.258 . S
O51 Eu40 2.392 1_545 S
O51 C52 1.242 . S
C52 O50 1.258 . S
C52 O51 1.242 . S
O53 Eu40 2.418 1_545 S
O53 C57 1.244 . S
O54 Eu41 2.488 . S
O54 C70 1.249 . S
O55 Eu41 2.471 . S
O55 C70 1.244 . S
O56 Eu41 2.349 . S
O56 C57 1.265 . S
C57 O53 1.244 . S
C57 O56 1.265 . S
O58 Eu40 2.373 . S
O58 C71 1.258 . S
O59 Eu41 2.392 1_565 S
O59 C71 1.242 . S
O60 Eu41 2.418 . S
O60 C42 1.244 . S
O61 Eu40 2.488 . S
O61 C49 1.249 . S
O62 Eu40 2.471 . S
O62 C49 1.244 . S
O63 Eu40 2.349 1_545 S
O63 C42 1.265 . S
C64 C65 1.379 . S
C64 C68 1.373 . S
C64 C70 1.505 . S
C65 C64 1.379 . S
C65 C67 1.369 . S
C65 H76 0.930 . S
C66 C68 1.383 . S
C66 C69 1.382 . S
C66 H77 0.930 . S
C67 C65 1.369 . S
C67 C69 1.392 . S
C67 H78 0.930 . S
C68 C64 1.373 . S
C68 C66 1.383 . S
C68 H79 0.931 . S
C69 C66 1.382 . S
C69 C67 1.392 . S
C70 Eu41 2.828 . S
C70 O54 1.249 . S
C70 O55 1.244 . S
C70 C64 1.505 . S
C71 O58 1.258 . S
C71 O59 1.242 . S
H72 C44 0.930 . S
H73 C45 0.930 . S
H74 C46 0.930 . S
H75 C47 0.931 . S
H76 C65 0.930 . S
H77 C66 0.930 . S
H78 C67 0.930 . S
H79 C68 0.931 . S
Eu80 C89 2.828 . S
Eu80 O91 2.392 . S
Eu80 O93 2.418 . S
Eu80 O98 2.373 . S
Eu80 O101 2.488 . S
Eu80 O102 2.471 . S
Eu80 O103 2.349 . S
Eu81 O90 2.373 . S
Eu81 O94 2.488 . S
Eu81 O95 2.471 . S
Eu81 O96 2.349 . S
Eu81 O99 2.392 . S
Eu81 O100 2.418 . S
Eu81 C110 2.828 . S
C82 O100 1.244 . S
C82 O103 1.265 . S
C83 C84 1.379 . S
C83 C87 1.373 . S
C83 C89 1.505 . S
C84 C83 1.379 . S
C84 C86 1.369 . S
C84 H112 0.930 . S
C85 C87 1.383 . S
C85 C88 1.382 . S
C85 H113 0.930 . S
C86 C84 1.369 . S
C86 C88 1.392 . S
C86 H114 0.930 . S
C87 C83 1.373 . S
C87 C85 1.383 . S
C87 H115 0.931 . S
C88 C85 1.382 . S
C88 C86 1.392 . S
C89 Eu80 2.828 . S
C89 C83 1.505 . S
C89 O101 1.249 . S
C89 O102 1.244 . S
O90 Eu81 2.373 . S
O90 C92 1.258 . S
O91 Eu80 2.392 . S
O91 C92 1.242 . S
C92 O90 1.258 . S
C92 O91 1.242 . S
O93 Eu80 2.418 . S
O93 C97 1.244 . S
O94 Eu81 2.488 . S
O94 C110 1.249 . S
O95 Eu81 2.471 . S
O95 C110 1.244 . S
O96 Eu81 2.349 . S
O96 C97 1.265 . S
C97 O93 1.244 . S
C97 O96 1.265 . S
O98 Eu80 2.373 . S
O98 C111 1.258 . S
O99 Eu81 2.392 . S
O99 C111 1.242 . S
O100 Eu81 2.418 . S
O100 C82 1.244 . S
O101 Eu80 2.488 . S
O101 C89 1.249 . S
O102 Eu80 2.471 . S
O102 C89 1.244 . S
O103 Eu80 2.349 . S
O103 C82 1.265 . S
C104 C105 1.379 . S
C104 C108 1.373 . S
C104 C110 1.505 . S
C105 C104 1.379 . S
C105 C107 1.369 . S
C105 H116 0.930 . S
C106 C108 1.383 . S
C106 C109 1.382 . S
C106 H117 0.930 . S
C107 C105 1.369 . S
C107 C109 1.392 . S
C107 H118 0.930 . S
C108 C104 1.373 . S
C108 C106 1.383 . S
C108 H119 0.931 . S
C109 C106 1.382 . S
C109 C107 1.392 . S
C110 Eu81 2.828 . S
C110 O94 1.249 . S
C110 O95 1.244 . S
C110 C104 1.505 . S
C111 O98 1.258 . S
C111 O99 1.242 . S
H112 C84 0.930 . S
H113 C85 0.930 . S
H114 C86 0.930 . S
H115 C87 0.931 . S
H116 C105 0.930 . S
H117 C106 0.930 . S
H118 C107 0.930 . S
H119 C108 0.931 . S
H120 C127 0.929 . S
H121 C130 0.930 1_565 S
H122 C132 0.929 . S
H123 C124 0.969 . S
C124 H123 0.969 . S
C124 O125 1.550 . S
C124 H126 0.973 . S
O125 C124 1.550 . S
O125 C131 1.412 1_565 S
H126 C124 0.973 . S
C127 H120 0.929 . S
C127 C128 1.400 . S
C127 C129 1.364 . S
C128 C127 1.400 . S
C128 C132 1.377 . S
C129 C127 1.364 . S
C129 C130 1.374 . S
C130 H121 0.930 1_545 S
C130 C129 1.374 . S
C130 C131 1.383 . S
C131 O125 1.412 1_545 S
C131 C130 1.383 . S
C131 C132 1.394 . S
C132 H122 0.929 . S
C132 C128 1.377 . S
C132 C131 1.394 . S
H133 C140 0.929 . S
H134 C143 0.930 . S
H135 C145 0.929 . S
H136 C137 0.969 . S
C137 H136 0.969 . S
C137 O138 1.550 . S
C137 H139 0.973 . S
O138 C137 1.550 . S
O138 C144 1.412 . S
H139 C137 0.973 . S
C140 H133 0.929 . S
C140 C141 1.400 . S
C140 C142 1.364 . S
C141 C140 1.400 . S
C141 C145 1.377 . S
C142 C140 1.364 . S
C142 C143 1.374 . S
C143 H134 0.930 . S
C143 C142 1.374 . S
C143 C144 1.383 . S
C144 O138 1.412 . S
C144 C143 1.383 . S
C144 C145 1.394 . S
C145 H135 0.929 . S
C145 C141 1.377 . S
C145 C144 1.394 . S
H146 C153 0.929 . S
H147 C156 0.930 . S
H148 C158 0.929 . S
H149 C150 0.969 . S
C150 H149 0.969 . S
C150 O151 1.550 . S
C150 H152 0.973 . S
O151 C150 1.550 . S
O151 C157 1.412 . S
H152 C150 0.973 . S
C153 H146 0.929 . S
C153 C154 1.400 . S
C153 C155 1.364 . S
C154 C153 1.400 . S
C154 C158 1.377 . S
C155 C153 1.364 . S
C155 C156 1.374 . S
C156 H147 0.930 . S
C156 C155 1.374 . S
C156 C157 1.383 . S
C157 O151 1.412 . S
C157 C156 1.383 . S
C157 C158 1.394 . S
C158 H148 0.929 . S
C158 C154 1.377 . S
C158 C157 1.394 . S
H159 C166 0.929 . S
H160 C169 0.930 . S
H161 C171 0.929 . S
H162 C163 0.969 . S
C163 H162 0.969 . S
C163 O164 1.550 . S
C163 H165 0.973 . S
O164 C163 1.550 . S
O164 C170 1.412 . S
H165 C163 0.973 . S
C166 H159 0.929 . S
C166 C167 1.400 . S
C166 C168 1.364 . S
C167 C166 1.400 . S
C167 C171 1.377 . S
C168 C166 1.364 . S
C168 C169 1.374 . S
C169 H160 0.930 . S
C169 C168 1.374 . S
C169 C170 1.383 . S
C170 O164 1.412 . S
C170 C169 1.383 . S
C170 C171 1.394 . S
C171 H161 0.929 . S
C171 C167 1.377 . S
C171 C170 1.394 . S
H172 C179 0.929 1_565 S
H173 C182 0.930 . S
H174 C184 0.929 . S
H175 C176 0.969 . S
C176 H175 0.969 . S
C176 O177 1.550 . S
C176 H178 0.973 . S
O177 C176 1.550 . S
O177 C183 1.412 . S
H178 C176 0.973 . S
C179 H172 0.929 1_545 S
C179 C180 1.400 . S
C179 C181 1.364 . S
C180 C179 1.400 . S
C180 C184 1.377 . S
C181 C179 1.364 . S
C181 C182 1.374 . S
C182 H173 0.930 . S
C182 C181 1.374 . S
C182 C183 1.383 . S
C183 O177 1.412 . S
C183 C182 1.383 . S
C183 C184 1.394 . S
C184 H174 0.929 . S
C184 C180 1.377 . S
C184 C183 1.394 . S
H185 C192 0.929 . S
H186 C195 0.930 . S
H187 C197 0.929 . S
H188 C189 0.969 . S
C189 H188 0.969 . S
C189 O190 1.550 . S
C189 H191 0.973 . S
O190 C189 1.550 . S
O190 C196 1.412 . S
H191 C189 0.973 . S
C192 H185 0.929 . S
C192 C193 1.400 . S
C192 C194 1.364 . S
C193 C192 1.400 . S
C193 C197 1.377 . S
C194 C192 1.364 . S
C194 C195 1.374 . S
C195 H186 0.930 . S
C195 C194 1.374 . S
C195 C196 1.383 . S
C196 O190 1.412 . S
C196 C195 1.383 . S
C196 C197 1.394 . S
C197 H187 0.929 . S
C197 C193 1.377 . S
C197 C196 1.394 . S
C198 C199 1.349 . S
C198 C200 1.327 . S
C198 H223 0.950 . S
C199 C198 1.349 . S
C199 C215 1.349 . S
C200 C198 1.327 . S
C200 C219 1.429 . S
C200 H224 0.950 . S
C201 C218 1.574 . S
C201 C220 1.368 . S
C201 H225 0.949 . S
H202 C206 0.949 . S
C203 C204 1.349 . S
C203 C205 1.327 . S
C203 H226 0.950 . S
C204 C203 1.349 . S
C204 C216 1.349 . S
C205 C203 1.327 . S
C205 C221 1.429 . S
C205 H227 0.950 . S
C206 H202 0.949 . S
C206 C214 1.574 . S
C206 C222 1.368 . S
H207 C215 0.950 . S
H208 C213 0.950 . S
H209 C214 0.949 . S
H210 C216 0.950 . S
H211 C217 0.950 . S
H212 C218 0.949 . S
C213 H208 0.950 . S
C213 C215 1.327 . S
C213 C219 1.429 . S
C214 C206 1.574 . S
C214 H209 0.949 . S
C214 C220 1.368 . S
C215 C199 1.349 . S
C215 H207 0.950 . S
C215 C213 1.327 . S
C216 C204 1.349 . S
C216 H210 0.950 . S
C216 C217 1.327 . S
C217 H211 0.950 . S
C217 C216 1.327 . S
C217 C221 1.429 . S
C218 C201 1.574 . S
C218 H212 0.949 . S
C218 C222 1.368 . S
C219 C200 1.429 . S
C219 C213 1.429 . S
C219 C220 1.523 . S
C220 C201 1.368 . S
C220 C214 1.368 . S
C220 C219 1.523 . S
C221 C205 1.429 . S
C221 C217 1.429 . S
C221 C222 1.523 . S
C222 C206 1.368 . S
C222 C218 1.368 . S
C222 C221 1.523 . S
H223 C198 0.950 . S
H224 C200 0.950 . S
H225 C201 0.949 . S
H226 C203 0.950 . S
H227 C205 0.950 . S
C228 C229 1.349 . S
C228 C230 1.327 . S
C228 H253 0.950 . S
C229 C228 1.349 . S
C229 C245 1.349 . S
C230 C228 1.327 . S
C230 C249 1.429 . S
C230 H254 0.950 . S
C231 C248 1.574 . S
C231 C250 1.368 . S
C231 H255 0.949 . S
H232 C236 0.949 . S
C233 C234 1.349 . S
C233 C235 1.327 . S
C233 H256 0.950 . S
C234 C233 1.349 . S
C234 C246 1.349 . S
C235 C233 1.327 . S
C235 C251 1.429 . S
C235 H257 0.950 . S
C236 H232 0.949 . S
C236 C244 1.574 . S
C236 C252 1.368 . S
H237 C245 0.950 . S
H238 C243 0.950 . S
H239 C244 0.949 . S
H240 C246 0.950 . S
H241 C247 0.950 . S
H242 C248 0.949 . S
C243 H238 0.950 . S
C243 C245 1.327 . S
C243 C249 1.429 . S
C244 C236 1.574 . S
C244 H239 0.949 . S
C244 C250 1.368 . S
C245 C229 1.349 . S
C245 H237 0.950 . S
C245 C243 1.327 . S
C246 C234 1.349 . S
C246 H240 0.950 . S
C246 C247 1.327 . S
C247 H241 0.950 . S
C247 C246 1.327 . S
C247 C251 1.429 . S
C248 C231 1.574 . S
C248 H242 0.949 . S
C248 C252 1.368 . S
C249 C230 1.429 . S
C249 C243 1.429 . S
C249 C250 1.523 . S
C250 C231 1.368 . S
C250 C244 1.368 . S
C250 C249 1.523 . S
C251 C235 1.429 . S
C251 C247 1.429 . S
C251 C252 1.523 . S
C252 C236 1.368 . S
C252 C248 1.368 . S
C252 C251 1.523 . S
H253 C228 0.950 . S
H254 C230 0.950 . S
H255 C231 0.949 . S
H256 C233 0.950 . S
H257 C235 0.950 . S
C258 C259 1.349 . S
C258 C260 1.327 . S
C258 H283 0.950 . S
C259 C258 1.349 . S
C259 C275 1.349 . S
C260 C258 1.327 . S
C260 C279 1.429 . S
C260 H284 0.950 . S
C261 C278 1.574 . S
C261 C280 1.368 . S
C261 H285 0.949 . S
H262 C266 0.949 . S
C263 C264 1.349 . S
C263 C265 1.327 . S
C263 H286 0.950 . S
C264 C263 1.349 . S
C264 C276 1.349 . S
C265 C263 1.327 . S
C265 C281 1.429 . S
C265 H287 0.950 . S
C266 H262 0.949 . S
C266 C274 1.574 . S
C266 C282 1.368 . S
H267 C275 0.950 . S
H268 C273 0.950 . S
H269 C274 0.949 . S
H270 C276 0.950 . S
H271 C277 0.950 . S
H272 C278 0.949 . S
C273 H268 0.950 . S
C273 C275 1.327 . S
C273 C279 1.429 . S
C274 C266 1.574 . S
C274 H269 0.949 . S
C274 C280 1.368 . S
C275 C259 1.349 . S
C275 H267 0.950 . S
C275 C273 1.327 . S
C276 C264 1.349 . S
C276 H270 0.950 . S
C276 C277 1.327 . S
C277 H271 0.950 . S
C277 C276 1.327 . S
C277 C281 1.429 . S
C278 C261 1.574 . S
C278 H272 0.949 . S
C278 C282 1.368 . S
C279 C260 1.429 . S
C279 C273 1.429 . S
C279 C280 1.523 . S
C280 C261 1.368 . S
C280 C274 1.368 . S
C280 C279 1.523 . S
C281 C265 1.429 . S
C281 C277 1.429 . S
C281 C282 1.523 . S
C282 C266 1.368 . S
C282 C278 1.368 . S
C282 C281 1.523 . S
H283 C258 0.950 . S
H284 C260 0.950 . S
H285 C261 0.949 . S
H286 C263 0.950 . S
H287 C265 0.950 . S
C288 C289 1.349 . S
C288 C290 1.327 . S
C288 H313 0.950 . S
C289 C288 1.349 . S
C289 C305 1.349 . S
C290 C288 1.327 . S
C290 C309 1.429 . S
C290 H314 0.950 . S
C291 C308 1.574 . S
C291 C310 1.368 . S
C291 H315 0.949 . S
H292 C296 0.949 . S
C293 C294 1.349 . S
C293 C295 1.327 . S
C293 H316 0.950 . S
C294 C293 1.349 . S
C294 C306 1.349 . S
C295 C293 1.327 . S
C295 C311 1.429 . S
C295 H317 0.950 . S
C296 H292 0.949 . S
C296 C304 1.574 . S
C296 C312 1.368 . S
H297 C305 0.950 . S
H298 C303 0.950 . S
H299 C304 0.949 . S
H300 C306 0.950 . S
H301 C307 0.950 . S
H302 C308 0.949 . S
C303 H298 0.950 . S
C303 C305 1.327 . S
C303 C309 1.429 . S
C304 C296 1.574 . S
C304 H299 0.949 . S
C304 C310 1.368 . S
C305 C289 1.349 . S
C305 H297 0.950 . S
C305 C303 1.327 . S
C306 C294 1.349 . S
C306 H300 0.950 . S
C306 C307 1.327 . S
C307 H301 0.950 . S
C307 C306 1.327 . S
C307 C311 1.429 . S
C308 C291 1.574 . S
C308 H302 0.949 . S
C308 C312 1.368 . S
C309 C290 1.429 . S
C309 C303 1.429 . S
C309 C310 1.523 . S
C310 C291 1.368 . S
C310 C304 1.368 . S
C310 C309 1.523 . S
C311 C295 1.429 . S
C311 C307 1.429 . S
C311 C312 1.523 . S
C312 C296 1.368 . S
C312 C308 1.368 . S
C312 C311 1.523 . S
H313 C288 0.950 . S
H314 C290 0.950 . S
H315 C291 0.949 . S
H316 C293 0.950 . S
H317 C295 0.950 . S
C318 C319 1.349 . S
C318 C320 1.327 . S
C318 H343 0.950 . S
C319 C318 1.349 . S
C319 C335 1.349 . S
C320 C318 1.327 . S
C320 C339 1.429 . S
C320 H344 0.950 . S
C321 C338 1.574 . S
C321 C340 1.368 . S
C321 H345 0.949 . S
H322 C326 0.949 . S
C323 C324 1.349 . S
C323 C325 1.327 . S
C323 H346 0.950 . S
C324 C323 1.349 . S
C324 C336 1.349 . S
C325 C323 1.327 . S
C325 C341 1.429 . S
C325 H347 0.950 . S
C326 H322 0.949 . S
C326 C334 1.574 . S
C326 C342 1.368 . S
H327 C335 0.950 . S
H328 C333 0.950 . S
H329 C334 0.949 . S
H330 C336 0.950 . S
H331 C337 0.950 . S
H332 C338 0.949 . S
C333 H328 0.950 . S
C333 C335 1.327 . S
C333 C339 1.429 . S
C334 C326 1.574 . S
C334 H329 0.949 . S
C334 C340 1.368 . S
C335 C319 1.349 . S
C335 H327 0.950 . S
C335 C333 1.327 . S
C336 C324 1.349 . S
C336 H330 0.950 . S
C336 C337 1.327 . S
C337 H331 0.950 . S
C337 C336 1.327 . S
C337 C341 1.429 . S
C338 C321 1.574 . S
C338 H332 0.949 . S
C338 C342 1.368 . S
C339 C320 1.429 . S
C339 C333 1.429 . S
C339 C340 1.523 . S
C340 C321 1.368 . S
C340 C334 1.368 . S
C340 C339 1.523 . S
C341 C325 1.429 . S
C341 C337 1.429 . S
C341 C342 1.523 . S
C342 C326 1.368 . S
C342 C338 1.368 . S
C342 C341 1.523 . S
H343 C318 0.950 . S
H344 C320 0.950 . S
H345 C321 0.949 . S
H346 C323 0.950 . S
H347 C325 0.950 . S
C348 C349 1.349 . S
C348 C350 1.327 . S
C348 H373 0.950 . S
C349 C348 1.349 . S
C349 C365 1.349 . S
C350 C348 1.327 . S
C350 C369 1.429 . S
C350 H374 0.950 . S
C351 C368 1.574 . S
C351 C370 1.368 . S
C351 H375 0.949 . S
H352 C356 0.949 . S
C353 C354 1.349 . S
C353 C355 1.327 . S
C353 H376 0.950 . S
C354 C353 1.349 . S
C354 C366 1.349 . S
C355 C353 1.327 . S
C355 C371 1.429 . S
C355 H377 0.950 . S
C356 H352 0.949 . S
C356 C364 1.574 . S
C356 C372 1.368 . S
H357 C365 0.950 . S
H358 C363 0.950 . S
H359 C364 0.949 . S
H360 C366 0.950 . S
H361 C367 0.950 . S
H362 C368 0.949 . S
C363 H358 0.950 . S
C363 C365 1.327 . S
C363 C369 1.429 . S
C364 C356 1.574 . S
C364 H359 0.949 . S
C364 C370 1.368 . S
C365 C349 1.349 . S
C365 H357 0.950 . S
C365 C363 1.327 . S
C366 C354 1.349 . S
C366 H360 0.950 . S
C366 C367 1.327 . S
C367 H361 0.950 . S
C367 C366 1.327 . S
C367 C371 1.429 . S
C368 C351 1.574 . S
C368 H362 0.949 . S
C368 C372 1.368 . S
C369 C350 1.429 . S
C369 C363 1.429 . S
C369 C370 1.523 . S
C370 C351 1.368 . S
C370 C364 1.368 . S
C370 C369 1.523 . S
C371 C355 1.429 . S
C371 C367 1.429 . S
C371 C372 1.523 . S
C372 C356 1.368 . S
C372 C368 1.368 . S
C372 C371 1.523 . S
H373 C348 0.950 . S
H374 C350 0.950 . S
H375 C351 0.949 . S
H376 C353 0.950 . S
H377 C355 0.950 . S
C378 C379 1.349 . S
C378 C380 1.327 . S
C378 H403 0.950 . S
C379 C378 1.349 . S
C379 C395 1.349 . S
C380 C378 1.327 . S
C380 C399 1.429 . S
C380 H404 0.950 . S
C381 C398 1.574 . S
C381 C400 1.368 . S
C381 H405 0.949 . S
H382 C386 0.949 . S
C383 C384 1.349 . S
C383 C385 1.327 . S
C383 H406 0.950 . S
C384 C383 1.349 . S
C384 C396 1.349 . S
C385 C383 1.327 . S
C385 C401 1.429 . S
C385 H407 0.950 . S
C386 H382 0.949 . S
C386 C394 1.574 . S
C386 C402 1.368 . S
H387 C395 0.950 . S
H388 C393 0.950 . S
H389 C394 0.949 . S
H390 C396 0.950 . S
H391 C397 0.950 . S
H392 C398 0.949 . S
C393 H388 0.950 . S
C393 C395 1.327 . S
C393 C399 1.429 . S
C394 C386 1.574 . S
C394 H389 0.949 . S
C394 C400 1.368 . S
C395 C379 1.349 . S
C395 H387 0.950 . S
C395 C393 1.327 . S
C396 C384 1.349 . S
C396 H390 0.950 . S
C396 C397 1.327 . S
C397 H391 0.950 . S
C397 C396 1.327 . S
C397 C401 1.429 . S
C398 C381 1.574 . S
C398 H392 0.949 . S
C398 C402 1.368 . S
C399 C380 1.429 . S
C399 C393 1.429 . S
C399 C400 1.523 . S
C400 C381 1.368 . S
C400 C394 1.368 . S
C400 C399 1.523 . S
C401 C385 1.429 . S
C401 C397 1.429 . S
C401 C402 1.523 . S
C402 C386 1.368 . S
C402 C398 1.368 . S
C402 C401 1.523 . S
H403 C378 0.950 . S
H404 C380 0.950 . S
H405 C381 0.949 . S
H406 C383 0.950 . S
H407 C385 0.950 . S
C408 C409 1.349 . S
C408 C410 1.327 . S
C408 H433 0.950 . S
C409 C408 1.349 . S
C409 C425 1.349 . S
C410 C408 1.327 . S
C410 C429 1.429 . S
C410 H434 0.950 . S
C411 C428 1.574 . S
C411 C430 1.368 . S
C411 H435 0.949 . S
H412 C416 0.949 . S
C413 C414 1.349 . S
C413 C415 1.327 1_455 S
C413 H436 0.950 . S
C414 C413 1.349 . S
C414 C426 1.349 . S
C415 C413 1.327 1_655 S
C415 C431 1.429 . S
C415 H437 0.950 . S
C416 H412 0.949 . S
C416 C424 1.574 . S
C416 C432 1.368 . S
H417 C425 0.950 . S
H418 C423 0.950 . S
H419 C424 0.949 . S
H420 C426 0.950 . S
H421 C427 0.955 . S
H422 C428 0.949 . S
C423 H418 0.950 . S
C423 C425 1.327 . S
C423 C429 1.429 . S
C424 C416 1.574 . S
C424 H419 0.949 . S
C424 C430 1.368 . S
C425 C409 1.349 . S
C425 H417 0.950 . S
C425 C423 1.327 . S
C426 C414 1.349 . S
C426 H420 0.950 . S
C426 C427 1.327 . S
C427 H421 0.955 . S
C427 C426 1.327 . S
C427 C431 1.429 1_455 S
C428 C411 1.574 . S
C428 H422 0.949 . S
C428 C432 1.368 . S
C429 C410 1.429 . S
C429 C423 1.429 . S
C429 C430 1.523 . S
C430 C411 1.368 . S
C430 C424 1.368 . S
C430 C429 1.523 . S
C431 C415 1.429 . S
C431 C427 1.429 1_655 S
C431 C432 1.523 . S
C432 C416 1.368 . S
C432 C428 1.368 . S
C432 C431 1.523 . S
H433 C408 0.950 . S
H434 C410 0.950 . S
H435 C411 0.949 . S
H436 C413 0.950 . S
H437 C415 0.950 . S
C438 C439 1.349 . S
C438 C440 1.327 . S
C438 H463 0.950 . S
C439 C438 1.349 . S
C439 C455 1.349 . S
C440 C438 1.327 . S
C440 C459 1.429 . S
C440 H464 0.950 . S
C441 C458 1.574 . S
C441 C460 1.368 . S
C441 H465 0.949 . S
H442 C446 0.949 . S
C443 C444 1.349 . S
C443 C445 1.327 . S
C443 H466 0.950 . S
C444 C443 1.349 . S
C444 C456 1.349 . S
C445 C443 1.327 . S
C445 C461 1.429 . S
C445 H467 0.950 . S
C446 H442 0.949 . S
C446 C454 1.574 . S
C446 C462 1.368 . S
H447 C455 0.950 . S
H448 C453 0.950 . S
H449 C454 0.949 . S
H450 C456 0.950 . S
H451 C457 0.950 . S
H452 C458 0.949 . S
C453 H448 0.950 . S
C453 C455 1.327 . S
C453 C459 1.429 . S
C454 C446 1.574 . S
C454 H449 0.949 . S
C454 C460 1.368 . S
C455 C439 1.349 . S
C455 H447 0.950 . S
C455 C453 1.327 . S
C456 C444 1.349 . S
C456 H450 0.950 . S
C456 C457 1.327 . S
C457 H451 0.950 . S
C457 C456 1.327 . S
C457 C461 1.429 . S
C458 C441 1.574 . S
C458 H452 0.949 . S
C458 C462 1.368 . S
C459 C440 1.429 . S
C459 C453 1.429 . S
C459 C460 1.523 . S
C460 C441 1.368 . S
C460 C454 1.368 . S
C460 C459 1.523 . S
C461 C445 1.429 . S
C461 C457 1.429 . S
C461 C462 1.523 . S
C462 C446 1.368 . S
C462 C458 1.368 . S
C462 C461 1.523 . S
H463 C438 0.950 . S
H464 C440 0.950 . S
H465 C441 0.949 . S
H466 C443 0.950 . S
H467 C445 0.950 . S
C468 C469 1.349 . S
C468 C470 1.327 . S
C468 H493 0.950 . S
C469 C468 1.349 . S
C469 C485 1.349 . S
C470 C468 1.327 . S
C470 C489 1.429 . S
C470 H494 0.950 . S
C471 C488 1.574 . S
C471 C490 1.368 . S
C471 H495 0.949 . S
H472 C476 0.949 . S
C473 C474 1.349 . S
C473 C475 1.327 . S
C473 H496 0.950 . S
C474 C473 1.349 . S
C474 C486 1.349 . S
C475 C473 1.327 . S
C475 C491 1.429 . S
C475 H497 0.950 . S
C476 H472 0.949 . S
C476 C484 1.574 . S
C476 C492 1.368 . S
H477 C485 0.950 . S
H478 C483 0.950 . S
H479 C484 0.949 . S
H480 C486 0.950 . S
H481 C487 0.950 . S
H482 C488 0.949 . S
C483 H478 0.950 . S
C483 C485 1.327 . S
C483 C489 1.429 . S
C484 C476 1.574 . S
C484 H479 0.949 . S
C484 C490 1.368 . S
C485 C469 1.349 . S
C485 H477 0.950 . S
C485 C483 1.327 . S
C486 C474 1.349 . S
C486 H480 0.950 . S
C486 C487 1.327 . S
C487 H481 0.950 . S
C487 C486 1.327 . S
C487 C491 1.429 . S
C488 C471 1.574 . S
C488 H482 0.949 . S
C488 C492 1.368 . S
C489 C470 1.429 . S
C489 C483 1.429 . S
C489 C490 1.523 . S
C490 C471 1.368 . S
C490 C484 1.368 . S
C490 C489 1.523 . S
C491 C475 1.429 . S
C491 C487 1.429 . S
C491 C492 1.523 . S
C492 C476 1.368 . S
C492 C488 1.368 . S
C492 C491 1.523 . S
H493 C468 0.950 . S
H494 C470 0.950 . S
H495 C471 0.949 . S
H496 C473 0.950 . S
H497 C475 0.950 . S
C498 C499 1.349 . S
C498 C500 1.327 . S
C498 H523 0.950 . S
C499 C498 1.349 . S
C499 C515 1.349 . S
C500 C498 1.327 . S
C500 C519 1.429 . S
C500 H524 0.950 . S
C501 C518 1.574 . S
C501 C520 1.368 . S
C501 H525 0.949 . S
H502 C506 0.949 . S
C503 C504 1.349 . S
C503 C505 1.327 . S
C503 H526 0.950 . S
C504 C503 1.349 . S
C504 C516 1.349 . S
C505 C503 1.327 . S
C505 C521 1.429 . S
C505 H527 0.950 . S
C506 H502 0.949 . S
C506 C514 1.574 . S
C506 C522 1.368 . S
H507 C515 0.950 . S
H508 C513 0.950 . S
H509 C514 0.949 . S
H510 C516 0.950 . S
H511 C517 0.950 . S
H512 C518 0.949 . S
C513 H508 0.950 . S
C513 C515 1.327 . S
C513 C519 1.429 . S
C514 C506 1.574 . S
C514 H509 0.949 . S
C514 C520 1.368 . S
C515 C499 1.349 . S
C515 H507 0.950 . S
C515 C513 1.327 . S
C516 C504 1.349 . S
C516 H510 0.950 . S
C516 C517 1.327 . S
C517 H511 0.950 . S
C517 C516 1.327 . S
C517 C521 1.429 . S
C518 C501 1.574 . S
C518 H512 0.949 . S
C518 C522 1.368 . S
C519 C500 1.429 . S
C519 C513 1.429 . S
C519 C520 1.523 . S
C520 C501 1.368 . S
C520 C514 1.368 . S
C520 C519 1.523 . S
C521 C505 1.429 . S
C521 C517 1.429 . S
C521 C522 1.523 . S
C522 C506 1.368 . S
C522 C518 1.368 . S
C522 C521 1.523 . S
H523 C498 0.950 . S
H524 C500 0.950 . S
H525 C501 0.949 . S
H526 C503 0.950 . S
H527 C505 0.950 . S
C528 C529 1.349 . S
C528 C530 1.327 . S
C528 H553 0.950 . S
C529 C528 1.349 . S
C529 C545 1.349 . S
C530 C528 1.327 . S
C530 C549 1.429 . S
C530 H554 0.950 . S
C531 C548 1.574 . S
C531 C550 1.368 . S
C531 H555 0.949 . S
H532 C536 0.949 . S
C533 C534 1.349 . S
C533 C535 1.327 . S
C533 H556 0.950 . S
C534 C533 1.349 . S
C534 C546 1.349 . S
C535 C533 1.327 . S
C535 C551 1.429 . S
C535 H557 0.950 . S
C536 H532 0.949 . S
C536 C544 1.574 . S
C536 C552 1.368 . S
H537 C545 0.950 . S
H538 C543 0.950 . S
H539 C544 0.949 . S
H540 C546 0.950 . S
H541 C547 0.950 . S
H542 C548 0.949 . S
C543 H538 0.950 . S
C543 C545 1.327 . S
C543 C549 1.429 . S
C544 C536 1.574 . S
C544 H539 0.949 . S
C544 C550 1.368 . S
C545 C529 1.349 . S
C545 H537 0.950 . S
C545 C543 1.327 . S
C546 C534 1.349 . S
C546 H540 0.950 . S
C546 C547 1.327 . S
C547 H541 0.950 . S
C547 C546 1.327 . S
C547 C551 1.429 . S
C548 C531 1.574 . S
C548 H542 0.949 . S
C548 C552 1.368 . S
C549 C530 1.429 . S
C549 C543 1.429 . S
C549 C550 1.523 . S
C550 C531 1.368 . S
C550 C544 1.368 . S
C550 C549 1.523 . S
C551 C535 1.429 . S
C551 C547 1.429 . S
C551 C552 1.523 . S
C552 C536 1.368 . S
C552 C548 1.368 . S
C552 C551 1.523 . S
H553 C528 0.950 . S
H554 C530 0.950 . S
H555 C531 0.949 . S
H556 C533 0.950 . S
H557 C535 0.950 . S
C558 C559 1.349 1_655 S
C558 C560 1.327 . S
C558 H583 0.950 . S
C559 C558 1.349 1_455 S
C559 C575 1.349 . S
C560 C558 1.327 . S
C560 C579 1.429 1_655 S
C560 H584 0.950 . S
C561 C578 1.574 . S
C561 C580 1.368 . S
C561 H585 0.949 . S
H562 C566 0.949 1_655 S
C563 C564 1.349 . S
C563 C565 1.327 . S
C563 H586 0.950 . S
C564 C563 1.349 . S
C564 C576 1.349 . S
C565 C563 1.327 . S
C565 C581 1.429 . S
C565 H587 0.950 . S
C566 H562 0.949 1_455 S
C566 C574 1.574 1_556 S
C566 C582 1.368 . S
H567 C575 0.950 . S
H568 C573 0.950 . S
H569 C574 0.949 1_655 S
H570 C576 0.950 . S
H571 C577 0.950 . S
H572 C578 0.947 1_556 S
C573 H568 0.950 . S
C573 C575 1.327 . S
C573 C579 1.429 . S
C574 C566 1.574 1_554 S
C574 H569 0.949 1_455 S
C574 C580 1.368 . S
C575 C559 1.349 . S
C575 H567 0.950 . S
C575 C573 1.327 . S
C576 C564 1.349 . S
C576 H570 0.950 . S
C576 C577 1.327 . S
C577 H571 0.950 . S
C577 C576 1.327 . S
C577 C581 1.429 . S
C578 C561 1.574 . S
C578 H572 0.947 1_554 S
C578 C582 1.368 1_554 S
C579 C560 1.429 1_455 S
C579 C573 1.429 . S
C579 C580 1.523 . S
C580 C561 1.368 . S
C580 C574 1.368 . S
C580 C579 1.523 . S
C581 C565 1.429 . S
C581 C577 1.429 . S
C581 C582 1.523 . S
C582 C566 1.368 . S
C582 C578 1.368 1_556 S
C582 C581 1.523 . S
H583 C558 0.950 . S
H584 C560 0.950 . S
H585 C561 0.949 . S
H586 C563 0.950 . S
H587 C565 0.950 . S
C588 C589 1.349 . S
C588 C590 1.328 1_545 S
C588 H613 0.949 1_545 S
C589 C588 1.349 . S
C589 C605 1.349 . S
C590 C588 1.328 1_565 S
C590 C609 1.424 1_565 S
C590 H614 0.953 . S
C591 C608 1.574 . S
C591 C610 1.368 . S
C591 H615 0.949 . S
H592 C596 0.949 . S
C593 C594 1.349 . S
C593 C595 1.327 . S
C593 H616 0.950 . S
C594 C593 1.349 . S
C594 C606 1.349 . S
C595 C593 1.327 . S
C595 C611 1.429 . S
C595 H617 0.950 . S
C596 H592 0.949 . S
C596 C604 1.574 . S
C596 C612 1.368 1_565 S
H597 C605 0.950 . S
H598 C603 0.950 . S
H599 C604 0.949 . S
H600 C606 0.950 1_565 S
H601 C607 0.944 1_565 S
H602 C608 0.949 . S
C603 H598 0.950 . S
C603 C605 1.327 . S
C603 C609 1.429 . S
C604 C596 1.574 . S
C604 H599 0.949 . S
C604 C610 1.368 1_565 S
C605 C589 1.349 . S
C605 H597 0.950 . S
C605 C603 1.327 . S
C606 C594 1.349 . S
C606 H600 0.950 1_545 S
C606 C607 1.329 . S
C607 H601 0.944 1_545 S
C607 C606 1.329 . S
C607 C611 1.433 . S
C608 C591 1.574 . S
C608 H602 0.949 . S
C608 C612 1.368 . S
C609 C590 1.424 1_545 S
C609 C603 1.429 . S
C609 C610 1.523 . S
C610 C591 1.368 . S
C610 C604 1.368 1_545 S
C610 C609 1.523 . S
C611 C595 1.429 . S
C611 C607 1.433 . S
C611 C612 1.523 . S
C612 C596 1.368 1_545 S
C612 C608 1.368 . S
C612 C611 1.523 . S
H613 C588 0.949 1_565 S
H614 C590 0.953 . S
H615 C591 0.949 . S
H616 C593 0.950 . S
H617 C595 0.950 . S
C618 C619 1.349 . S
C618 C620 1.327 . S
C618 H643 0.950 . S
C619 C618 1.349 . S
C619 C635 1.349 . S
C620 C618 1.327 . S
C620 C639 1.429 . S
C620 H644 0.950 . S
C621 C638 1.574 . S
C621 C640 1.368 . S
C621 H645 0.949 . S
H622 C626 0.949 . S
C623 C624 1.349 . S
C623 C625 1.327 . S
C623 H646 0.950 . S
C624 C623 1.349 . S
C624 C636 1.349 . S
C625 C623 1.327 . S
C625 C641 1.429 . S
C625 H647 0.950 . S
C626 H622 0.949 . S
C626 C634 1.574 . S
C626 C642 1.368 . S
H627 C635 0.950 . S
H628 C633 0.950 . S
H629 C634 0.949 . S
H630 C636 0.950 . S
H631 C637 0.950 . S
H632 C638 0.949 . S
C633 H628 0.950 . S
C633 C635 1.327 . S
C633 C639 1.429 . S
C634 C626 1.574 . S
C634 H629 0.949 . S
C634 C640 1.368 . S
C635 C619 1.349 . S
C635 H627 0.950 . S
C635 C633 1.327 . S
C636 C624 1.349 . S
C636 H630 0.950 . S
C636 C637 1.327 . S
C637 H631 0.950 . S
C637 C636 1.327 . S
C637 C641 1.429 . S
C638 C621 1.574 . S
C638 H632 0.949 . S
C638 C642 1.368 . S
C639 C620 1.429 . S
C639 C633 1.429 . S
C639 C640 1.523 . S
C640 C621 1.368 . S
C640 C634 1.368 . S
C640 C639 1.523 . S
C641 C625 1.429 . S
C641 C637 1.429 . S
C641 C642 1.523 . S
C642 C626 1.368 . S
C642 C638 1.368 . S
C642 C641 1.523 . S
H643 C618 0.950 . S
H644 C620 0.950 . S
H645 C621 0.949 . S
H646 C623 0.950 . S
H647 C625 0.950 . S
C648 C649 1.349 1_565 S
C648 C650 1.327 . S
C648 H673 0.950 . S
C649 C648 1.349 1_545 S
C649 C665 1.349 . S
C650 C648 1.327 . S
C650 C669 1.429 1_565 S
C650 H674 0.950 . S
C651 C668 1.574 . S
C651 C670 1.368 . S
C651 H675 0.949 . S
H652 C656 0.949 1_565 S
C653 C654 1.349 . S
C653 C655 1.327 . S
C653 H676 0.950 . S
C654 C653 1.349 . S
C654 C666 1.349 . S
C655 C653 1.327 . S
C655 C671 1.429 . S
C655 H677 0.950 . S
C656 H652 0.949 1_545 S
C656 C664 1.576 . S
C656 C672 1.368 . S
H657 C665 0.950 . S
H658 C663 0.950 . S
H659 C664 0.935 1_565 S
H660 C666 0.950 1_565 S
H661 C667 0.950 1_565 S
H662 C668 0.949 . S
C663 H658 0.950 . S
C663 C665 1.327 . S
C663 C669 1.429 . S
C664 C656 1.576 . S
C664 H659 0.935 1_545 S
C664 C670 1.382 . S
C665 C649 1.349 . S
C665 H657 0.950 . S
C665 C663 1.327 . S
C666 C654 1.349 . S
C666 H660 0.950 1_545 S
C666 C667 1.327 . S
C667 H661 0.950 1_545 S
C667 C666 1.327 . S
C667 C671 1.429 . S
C668 C651 1.574 . S
C668 H662 0.949 . S
C668 C672 1.368 . S
C669 C650 1.429 1_545 S
C669 C663 1.429 . S
C669 C670 1.523 . S
C670 C651 1.368 . S
C670 C664 1.382 . S
C670 C669 1.523 . S
C671 C655 1.429 . S
C671 C667 1.429 . S
C671 C672 1.523 . S
C672 C656 1.368 . S
C672 C668 1.368 . S
C672 C671 1.523 . S
H673 C648 0.950 . S
H674 C650 0.950 . S
H675 C651 0.949 . S
H676 C653 0.950 . S
H677 C655 0.950 . S
C678 C679 1.349 . S
C678 C680 1.327 . S
C678 H703 0.950 . S
C679 C678 1.349 . S
C679 C695 1.349 . S
C680 C678 1.327 . S
C680 C699 1.429 . S
C680 H704 0.950 . S
C681 C698 1.574 . S
C681 C700 1.368 . S
C681 H705 0.949 . S
H682 C686 0.949 1_554 S
C683 C684 1.349 . S
C683 C685 1.327 . S
C683 H706 0.950 . S
C684 C683 1.349 . S
C684 C696 1.349 . S
C685 C683 1.327 . S
C685 C701 1.429 . S
C685 H707 0.950 . S
C686 H682 0.949 1_556 S
C686 C694 1.574 . S
C686 C702 1.368 1_556 S
H687 C695 0.950 . S
H688 C693 0.950 . S
H689 C694 0.949 . S
H690 C696 0.950 . S
H691 C697 0.950 . S
H692 C698 0.949 1_554 S
C693 H688 0.950 . S
C693 C695 1.327 . S
C693 C699 1.429 . S
C694 C686 1.574 . S
C694 H689 0.949 . S
C694 C700 1.368 . S
C695 C679 1.349 . S
C695 H687 0.950 . S
C695 C693 1.327 . S
C696 C684 1.349 . S
C696 H690 0.950 . S
C696 C697 1.327 . S
C697 H691 0.950 . S
C697 C696 1.327 . S
C697 C701 1.429 . S
C698 C681 1.574 . S
C698 H692 0.949 1_556 S
C698 C702 1.368 1_556 S
C699 C680 1.429 . S
C699 C693 1.429 . S
C699 C700 1.523 . S
C700 C681 1.368 . S
C700 C694 1.368 . S
C700 C699 1.523 . S
C701 C685 1.429 . S
C701 C697 1.429 . S
C701 C702 1.523 . S
C702 C686 1.368 1_554 S
C702 C698 1.368 1_554 S
C702 C701 1.523 . S
H703 C678 0.950 . S
H704 C680 0.950 . S
H705 C681 0.949 . S
H706 C683 0.950 . S
H707 C685 0.950 . S
C708 C709 1.349 . S
C708 C710 1.327 . S
C708 H733 0.950 . S
C709 C708 1.349 . S
C709 C725 1.349 . S
C710 C708 1.327 . S
C710 C729 1.429 . S
C710 H734 0.950 . S
C711 C728 1.574 . S
C711 C730 1.368 . S
C711 H735 0.949 . S
H712 C716 0.949 . S
C713 C714 1.349 . S
C713 C715 1.327 . S
C713 H736 0.950 . S
C714 C713 1.349 . S
C714 C726 1.349 . S
C715 C713 1.327 . S
C715 C731 1.429 . S
C715 H737 0.950 . S
C716 H712 0.949 . S
C716 C724 1.574 . S
C716 C732 1.368 . S
H717 C725 0.950 . S
H718 C723 0.950 . S
H719 C724 0.949 . S
H720 C726 0.950 . S
H721 C727 0.950 . S
H722 C728 0.949 . S
C723 H718 0.950 . S
C723 C725 1.327 . S
C723 C729 1.429 . S
C724 C716 1.574 . S
C724 H719 0.949 . S
C724 C730 1.368 . S
C725 C709 1.349 . S
C725 H717 0.950 . S
C725 C723 1.327 . S
C726 C714 1.349 . S
C726 H720 0.950 . S
C726 C727 1.327 . S
C727 H721 0.950 . S
C727 C726 1.327 . S
C727 C731 1.429 . S
C728 C711 1.574 . S
C728 H722 0.949 . S
C728 C732 1.368 . S
C729 C710 1.429 . S
C729 C723 1.429 . S
C729 C730 1.523 . S
C730 C711 1.368 . S
C730 C724 1.368 . S
C730 C729 1.523 . S
C731 C715 1.429 . S
C731 C727 1.429 . S
C731 C732 1.523 . S
C732 C716 1.368 . S
C732 C728 1.368 . S
C732 C731 1.523 . S
H733 C708 0.950 . S
H734 C710 0.950 . S
H735 C711 0.949 . S
H736 C713 0.950 . S
H737 C715 0.950 . S
C199 C12 2.982 . S
C204 C189 2.796 . S
C229 C52 2.824 . S
C234 C167 2.792 1_655 S
C259 C111 2.872 . S
C264 C180 2.834 1_565 S
C289 C31 3.004 . S
C294 C193 2.961 . S
C324 C163 2.967 . S
C319 C71 3.171 . S
C354 C176 2.914 . S
C349 C92 3.116 . S
C379 C48 0.241 . S
C384 C141 0.256 . S
C409 C109 0.283 . S
C414 C154 0.193 . S
C439 C29 0.420 . S
C444 C124 0.483 . S
C474 C137 0.478 . S
C469 C69 0.381 . S
C504 C150 0.498 . S
C499 C88 0.345 . S
C529 C8 0.192 . S
C534 C128 0.219 . S
C564 C155 1.292 . S
C559 C17 1.271 . S
C589 C57 1.309 . S
C594 C129 1.323 . S
C619 C97 1.250 . S
C624 C142 1.289 . S
C654 C181 1.788 . S
C649 C42 1.698 . S
C684 C194 1.740 . S
C679 C82 1.721 . S
C709 C2 1.707 . S
C714 C168 1.774 . S
