# Generated by pormake.
# Topology pyr, (3,6)-cn, num edge types: 1
# Building blocks:
#     Node 0, Type 0, BuildingBlock: BELTOD_clean_linker_0, # of connection points: 3
#     Node 1, Type 0, BuildingBlock: BELTOD_clean_linker_0, # of connection points: 3
#     Node 2, Type 0, BuildingBlock: BELTOD_clean_linker_0, # of connection points: 3
#     Node 3, Type 0, BuildingBlock: BELTOD_clean_linker_0, # of connection points: 3
#     Node 4, Type 0, BuildingBlock: BELTOD_clean_linker_0, # of connection points: 3
#     Node 5, Type 0, BuildingBlock: BELTOD_clean_linker_0, # of connection points: 3
#     Node 6, Type 0, BuildingBlock: BELTOD_clean_linker_0, # of connection points: 3
#     Node 7, Type 0, BuildingBlock: BELTOD_clean_linker_0, # of connection points: 3
#     Node 8, Type 1, BuildingBlock: PAMTUU_clean_sbu_0, # of connection points: 6
#     Node 9, Type 1, BuildingBlock: PAMTUU_clean_sbu_0, # of connection points: 6
#     Node 10, Type 1, BuildingBlock: PAMTUU_clean_sbu_0, # of connection points: 6
#     Node 11, Type 1, BuildingBlock: PAMTUU_clean_sbu_0, # of connection points: 6
#     Edge 12, Type (0, 1), BuildingBlock: AJUNOK_clean_linker_0, # of connection points: 2
#     Edge 13, Type (0, 1), BuildingBlock: AJUNOK_clean_linker_0, # of connection points: 2
#     Edge 14, Type (0, 1), BuildingBlock: AJUNOK_clean_linker_0, # of connection points: 2
#     Edge 15, Type (0, 1), BuildingBlock: AJUNOK_clean_linker_0, # of connection points: 2
#     Edge 16, Type (0, 1), BuildingBlock: AJUNOK_clean_linker_0, # of connection points: 2
#     Edge 17, Type (0, 1), BuildingBlock: AJUNOK_clean_linker_0, # of connection points: 2
#     Edge 18, Type (0, 1), BuildingBlock: AJUNOK_clean_linker_0, # of connection points: 2
#     Edge 19, Type (0, 1), BuildingBlock: AJUNOK_clean_linker_0, # of connection points: 2
#     Edge 20, Type (0, 1), BuildingBlock: AJUNOK_clean_linker_0, # of connection points: 2
#     Edge 21, Type (0, 1), BuildingBlock: AJUNOK_clean_linker_0, # of connection points: 2
#     Edge 22, Type (0, 1), BuildingBlock: AJUNOK_clean_linker_0, # of connection points: 2
#     Edge 23, Type (0, 1), BuildingBlock: AJUNOK_clean_linker_0, # of connection points: 2
#     Edge 24, Type (0, 1), BuildingBlock: AJUNOK_clean_linker_0, # of connection points: 2
#     Edge 25, Type (0, 1), BuildingBlock: AJUNOK_clean_linker_0, # of connection points: 2
#     Edge 26, Type (0, 1), BuildingBlock: AJUNOK_clean_linker_0, # of connection points: 2
#     Edge 27, Type (0, 1), BuildingBlock: AJUNOK_clean_linker_0, # of connection points: 2
#     Edge 28, Type (0, 1), BuildingBlock: AJUNOK_clean_linker_0, # of connection points: 2
#     Edge 29, Type (0, 1), BuildingBlock: AJUNOK_clean_linker_0, # of connection points: 2
#     Edge 30, Type (0, 1), BuildingBlock: AJUNOK_clean_linker_0, # of connection points: 2
#     Edge 31, Type (0, 1), BuildingBlock: AJUNOK_clean_linker_0, # of connection points: 2
#     Edge 32, Type (0, 1), BuildingBlock: AJUNOK_clean_linker_0, # of connection points: 2
#     Edge 33, Type (0, 1), BuildingBlock: AJUNOK_clean_linker_0, # of connection points: 2
#     Edge 34, Type (0, 1), BuildingBlock: AJUNOK_clean_linker_0, # of connection points: 2
#     Edge 35, Type (0, 1), BuildingBlock: AJUNOK_clean_linker_0, # of connection points: 2
# Relax obj value: 0.146
# Max RMSD: 0.148
# Mean RMSD: 0.061
data_MOF--net-pyr--node1-PAMTUU_clean_sbu_0--node2-BELTOD_clean_linker_0--edge1-AJUNOK_clean_linker_0
_symmetry_space_group_name_H-M    P1
_symmetry_Int_Tables_number       1
_symmetry_cell_setting            triclinic
loop_
_symmetry_equiv_pos_as_xyz
'x, y, z'
_cell_length_a     33.279199
_cell_length_b     35.047232
_cell_length_c     33.387805
_cell_angle_alpha  90.283659
_cell_angle_beta   89.466921
_cell_angle_gamma 101.80322
loop_
_atom_site_label
_atom_site_type_symbol
_atom_site_fract_x
_atom_site_fract_y
_atom_site_fract_z
_atom_type_partial_charge
P0 P 0.40526 0.32958 0.24311 0.0
H1 H 0.4769 0.32249 0.19323 0.0
H2 H 0.49851 0.26588 0.16277 0.0
H3 H 0.39055 0.19033 0.21195 0.0
H4 H 0.36879 0.24663 0.24136 0.0
H5 H 0.37752 0.4032 0.23833 0.0
H6 H 0.31706 0.42057 0.20762 0.0
H7 H 0.2857 0.30589 0.15446 0.0
H8 H 0.34596 0.28898 0.18437 0.0
H9 H 0.43686 0.28963 0.30806 0.0
H10 H 0.32579 0.33063 0.28327 0.0
O11 O 0.44529 0.36636 0.24958 0.0
H12 H 0.4012 0.24895 0.36226 0.0
H13 H 0.29088 0.29099 0.33793 0.0
C14 C 0.42156 0.28868 0.21994 0.0
C15 C 0.45803 0.29371 0.19749 0.0
C16 C 0.47046 0.26138 0.18039 0.0
C17 C 0.44643 0.22369 0.18549 0.0
C18 C 0.40967 0.219 0.20757 0.0
C19 C 0.39735 0.25117 0.22455 0.0
C20 C 0.36673 0.34503 0.21321 0.0
C21 C 0.35833 0.38227 0.21902 0.0
C22 C 0.32365 0.39203 0.20178 0.0
C23 C 0.29688 0.36464 0.17845 0.0
C24 C 0.30623 0.32787 0.17156 0.0
C25 C 0.34076 0.31813 0.18888 0.0
C26 C 0.38387 0.3126 0.2911 0.0
C27 C 0.40544 0.29119 0.31529 0.0
C28 C 0.38516 0.26801 0.34618 0.0
C29 C 0.34349 0.26702 0.35392 0.0
C30 C 0.32318 0.29167 0.33255 0.0
C31 C 0.3432 0.31423 0.30114 0.0
P32 P 0.19447 0.80846 0.70329 0.0
H33 H 0.27172 0.82028 0.7448 0.0
H34 H 0.28988 0.83348 0.81472 0.0
H35 H 0.1614 0.80968 0.84762 0.0
H36 H 0.14326 0.7952 0.77711 0.0
H37 H 0.2177 0.78796 0.62304 0.0
H38 H 0.25705 0.73943 0.60281 0.0
H39 H 0.22993 0.68173 0.71672 0.0
H40 H 0.19053 0.73037 0.73686 0.0
H41 H 0.15284 0.86245 0.74473 0.0
H42 H 0.13546 0.79219 0.63736 0.0
O43 O 0.23038 0.84333 0.68276 0.0
H44 H 0.10423 0.89992 0.7211 0.0
H45 H 0.0876 0.83137 0.61272 0.0
C46 C 0.2062 0.80894 0.75574 0.0
C47 C 0.24743 0.8171 0.7671 0.0
C48 C 0.25777 0.82417 0.8071 0.0
C49 C 0.22695 0.82323 0.83628 0.0
C50 C 0.18561 0.81102 0.82544 0.0
C51 C 0.17529 0.80319 0.78527 0.0
C52 C 0.20218 0.76336 0.68181 0.0
C53 C 0.2184 0.76375 0.64289 0.0
C54 C 0.24093 0.73593 0.63132 0.0
C55 C 0.24718 0.70732 0.65857 0.0
C56 C 0.22597 0.70384 0.69539 0.0
C57 C 0.20332 0.73161 0.70685 0.0
C58 C 0.14702 0.82351 0.69343 0.0
C59 C 0.13681 0.85337 0.71716 0.0
C60 C 0.10926 0.87525 0.70345 0.0
C61 C 0.09246 0.86855 0.66514 0.0
C62 C 0.09986 0.83666 0.64264 0.0
C63 C 0.1272 0.81431 0.65669 0.0
P64 P 0.68305 0.35013 0.84728 0.0
H65 H 0.75374 0.41359 0.82883 0.0
H66 H 0.8121 0.44752 0.86763 0.0
H67 H 0.75751 0.39037 0.97491 0.0
H68 H 0.69941 0.35565 0.93553 0.0
H69 H 0.70763 0.28186 0.88044 0.0
H70 H 0.67455 0.22496 0.9181 0.0
H71 H 0.56186 0.26759 0.92085 0.0
H72 H 0.59528 0.32476 0.88115 0.0
H73 H 0.71309 0.38397 0.76966 0.0
H74 H 0.60106 0.37686 0.83734 0.0
O75 O 0.71304 0.32788 0.81899 0.0
H76 H 0.68524 0.41598 0.71532 0.0
H77 H 0.57226 0.40855 0.78165 0.0
C78 C 0.72109 0.38227 0.87885 0.0
C79 C 0.7535 0.40899 0.86086 0.0
C80 C 0.78724 0.4286 0.88337 0.0
C81 C 0.78994 0.42242 0.92497 0.0
C82 C 0.75702 0.3961 0.9431 0.0
C83 C 0.72325 0.37638 0.92046 0.0
C84 C 0.65434 0.30819 0.87677 0.0
C85 C 0.67565 0.2793 0.88869 0.0
C86 C 0.65663 0.24655 0.91112 0.0
C87 C 0.61534 0.24125 0.92379 0.0
C88 C 0.59365 0.27018 0.91191 0.0
C89 C 0.6129 0.30326 0.88902 0.0
C90 C 0.65932 0.37641 0.8082 0.0
C91 C 0.68213 0.38878 0.77303 0.0
C92 C 0.66583 0.40707 0.74121 0.0
C93 C 0.62563 0.41418 0.74267 0.0
C94 C 0.60311 0.40336 0.77862 0.0
C95 C 0.61962 0.38481 0.81078 0.0
P96 P 0.85061 0.70372 0.33701 0.0
H97 H 0.89914 0.77756 0.30615 0.0
H98 H 0.93275 0.83849 0.33818 0.0
H99 H 0.91176 0.78349 0.45393 0.0
H100 H 0.87741 0.72267 0.42156 0.0
H101 H 0.82594 0.67658 0.25553 0.0
H102 H 0.85608 0.64345 0.2024 0.0
H103 H 0.95597 0.63285 0.27994 0.0
H104 H 0.92554 0.66704 0.33375 0.0
H105 H 0.79747 0.72751 0.39825 0.0
H106 H 0.81963 0.61834 0.35324 0.0
O107 O 0.82047 0.72631 0.31012 0.0
H108 H 0.7415 0.69305 0.44014 0.0
H109 H 0.76384 0.58315 0.39635 0.0
C110 C 0.8856 0.7449 0.36106 0.0
C111 C 0.90267 0.77812 0.33837 0.0
C112 C 0.92207 0.81328 0.35693 0.0
C113 C 0.92542 0.81652 0.39901 0.0
C114 C 0.90966 0.78264 0.42159 0.0
C115 C 0.89022 0.74744 0.40294 0.0
C116 C 0.87349 0.67538 0.29911 0.0
C117 C 0.85447 0.66751 0.26155 0.0
C118 C 0.87199 0.64847 0.23069 0.0
C119 C 0.90918 0.63589 0.23602 0.0
C120 C 0.9275 0.64221 0.27428 0.0
C121 C 0.91007 0.66188 0.30526 0.0
C122 C 0.81395 0.67582 0.37305 0.0
C123 C 0.79118 0.69593 0.39827 0.0
C124 C 0.75895 0.676 0.42259 0.0
C125 C 0.74806 0.63494 0.42271 0.0
C126 C 0.77109 0.6147 0.39745 0.0
C127 C 0.80347 0.63483 0.37291 0.0
P128 P 0.70779 0.83153 0.86584 0.0
H129 H 0.69258 0.8441 0.94974 0.0
H130 H 0.63817 0.86973 0.98269 0.0
H131 H 0.5667 0.85167 0.8743 0.0
H132 H 0.62194 0.82663 0.84111 0.0
H133 H 0.77175 0.80267 0.82408 0.0
H134 H 0.81109 0.75387 0.84062 0.0
H135 H 0.7336 0.72034 0.94428 0.0
H136 H 0.69344 0.76945 0.9271 0.0
H137 H 0.70614 0.90229 0.82263 0.0
H138 H 0.69449 0.78033 0.79432 0.0
O139 O 0.74359 0.8686 0.88243 0.0
H140 H 0.71377 0.9183 0.75173 0.0
H141 H 0.70284 0.79636 0.72279 0.0
C142 C 0.66163 0.83422 0.89288 0.0
C143 C 0.66462 0.84434 0.93346 0.0
C144 C 0.63342 0.85904 0.95224 0.0
C145 C 0.59865 0.86372 0.93067 0.0
C146 C 0.5937 0.84942 0.89125 0.0
C147 C 0.62512 0.83478 0.8724 0.0
C148 C 0.7288 0.78889 0.87359 0.0
C149 C 0.76188 0.78371 0.84936 0.0
C150 C 0.78447 0.75575 0.85887 0.0
C151 C 0.77495 0.73286 0.89334 0.0
C152 C 0.74119 0.73737 0.91725 0.0
C153 C 0.71819 0.76526 0.90739 0.0
C154 C 0.7018 0.84046 0.81358 0.0
C155 C 0.70435 0.87888 0.801 0.0
C156 C 0.70824 0.88792 0.76045 0.0
C157 C 0.70967 0.85857 0.73198 0.0
C158 C 0.70242 0.81948 0.74434 0.0
C159 C 0.69801 0.81041 0.7851 0.0
P160 P 0.91333 0.32303 0.33394 0.0
H161 H 0.88814 0.39782 0.34534 0.0
H162 H 0.82457 0.41392 0.3716 0.0
H163 H 0.78105 0.29377 0.40534 0.0
H164 H 0.84426 0.27763 0.37853 0.0
H165 H 0.97657 0.28073 0.31098 0.0
H166 H 1.00196 0.22792 0.34369 0.0
H167 H 0.93587 0.24624 0.45155 0.0
H168 H 0.91076 0.299 0.41898 0.0
H169 H 0.87821 0.34631 0.26045 0.0
H170 H 0.88909 0.23903 0.31834 0.0
O171 O 0.94632 0.36232 0.3174 0.0
H172 H 0.83249 0.30858 0.21034 0.0
H173 H 0.84547 0.20189 0.26776 0.0
C174 C 0.87143 0.33674 0.36103 0.0
C175 C 0.86541 0.37513 0.35927 0.0
C176 C 0.82897 0.38423 0.37388 0.0
C177 C 0.79801 0.35499 0.39029 0.0
C178 C 0.80464 0.31684 0.39313 0.0
C179 C 0.84084 0.3077 0.37811 0.0
C180 C 0.94065 0.29283 0.36207 0.0
C181 C 0.96835 0.27398 0.34199 0.0
C182 C 0.98277 0.24382 0.36061 0.0
C183 C 0.96982 0.23238 0.39965 0.0
C184 C 0.94528 0.25385 0.42097 0.0
C185 C 0.93091 0.284 0.40234 0.0
C186 C 0.88833 0.29555 0.29233 0.0
C187 C 0.87216 0.31477 0.26149 0.0
C188 C 0.84602 0.29336 0.2331 0.0
C189 C 0.83627 0.25254 0.23517 0.0
C190 C 0.85342 0.23337 0.26526 0.0
C191 C 0.87869 0.25469 0.29399 0.0
P192 P 0.37773 0.67809 0.21856 0.0
H193 H 0.35001 0.67384 0.13567 0.0
H194 H 0.28577 0.6462 0.10186 0.0
H195 H 0.22864 0.61093 0.21586 0.0
H196 H 0.29347 0.63929 0.24992 0.0
H197 H 0.45801 0.73326 0.21617 0.0
H198 H 0.48052 0.80002 0.19182 0.0
H199 H 0.35436 0.8075 0.17293 0.0
H200 H 0.33206 0.74041 0.19705 0.0
H201 H 0.3487 0.60238 0.25993 0.0
H202 H 0.43236 0.70989 0.28703 0.0
O203 O 0.41019 0.65954 0.18962 0.0
H204 H 0.36972 0.57291 0.32021 0.0
H205 H 0.45565 0.67981 0.34632 0.0
C206 C 0.32735 0.65856 0.19558 0.0
C207 C 0.32373 0.66037 0.15368 0.0
C208 C 0.28665 0.64459 0.13421 0.0
C209 C 0.25148 0.62626 0.15586 0.0
C210 C 0.25496 0.62452 0.19799 0.0
C211 C 0.29221 0.64083 0.21761 0.0
C212 C 0.39309 0.7312 0.20937 0.0
C213 C 0.43494 0.74947 0.20794 0.0
C214 C 0.44788 0.78806 0.1938 0.0
C215 C 0.41947 0.81005 0.18038 0.0
C216 C 0.37744 0.79193 0.18268 0.0
C217 C 0.36451 0.75333 0.19699 0.0
C218 C 0.38738 0.6593 0.26885 0.0
C219 C 0.37099 0.6202 0.27921 0.0
C220 C 0.38414 0.60278 0.31361 0.0
C221 C 0.4155 0.62319 0.33864 0.0
C222 C 0.43141 0.66265 0.32854 0.0
C223 C 0.41783 0.6802 0.2943 0.0
P224 P 0.18462 0.35154 0.73922 0.0
H225 H 0.21431 0.28883 0.69935 0.0
H226 H 0.18337 0.23241 0.65948 0.0
H227 H 0.06669 0.26787 0.66591 0.0
H228 H 0.0981 0.32424 0.70789 0.0
H229 H 0.27363 0.3545 0.73916 0.0
H230 H 0.331 0.38757 0.69847 0.0
H231 H 0.24959 0.44516 0.63288 0.0
H232 H 0.19138 0.41167 0.67448 0.0
H233 H 0.12004 0.32578 0.79918 0.0
H234 H 0.18484 0.43635 0.75448 0.0
O235 O 0.20674 0.32837 0.77359 0.0
H236 H 0.09135 0.35841 0.85356 0.0
H237 H 0.15359 0.46995 0.80737 0.0
C238 C 0.15892 0.3114 0.70673 0.0
C239 C 0.18207 0.28488 0.69206 0.0
C240 C 0.16423 0.25247 0.66865 0.0
C241 C 0.12241 0.24541 0.65815 0.0
C242 C 0.09897 0.27203 0.67301 0.0
C243 C 0.11698 0.30461 0.69693 0.0
C244 C 0.22767 0.38086 0.71081 0.0
C245 C 0.26769 0.37463 0.71659 0.0
C246 C 0.30084 0.39344 0.69282 0.0
C247 C 0.29542 0.41932 0.66221 0.0
C248 C 0.25534 0.42597 0.65651 0.0
C249 C 0.22186 0.40677 0.68034 0.0
C250 C 0.15388 0.37818 0.77131 0.0
C251 C 0.12666 0.35734 0.79983 0.0
C252 C 0.1099 0.37643 0.83131 0.0
C253 C 0.11884 0.41752 0.83534 0.0
C254 C 0.14554 0.43845 0.80602 0.0
C255 C 0.16305 0.41914 0.77492 0.0
Tb256 Tb 0.06557 0.03995 0.49739 0.0
Tb257 Tb 0.97514 0.03515 0.53887 0.0
C258 C 0.99009 0.96906 0.47906 0.0
C259 C 0.16752 0.07836 0.45313 0.0
C260 C 0.2312 0.14104 0.43168 0.0
C261 C 0.23859 0.10303 0.43449 0.0
C262 C 0.20694 0.07192 0.44508 0.0
C263 C 0.1602 0.11634 0.45157 0.0
C264 C 0.1917 0.1474 0.44062 0.0
C265 C 0.13424 0.04541 0.46314 0.0
O266 O 0.04489 0.09156 0.47821 0.0
O267 O 0.97765 0.06295 0.48071 0.0
O268 O 1.01197 0.09034 0.56222 0.0
O269 O 0.07759 0.08395 0.54529 0.0
O270 O 0.91292 0.03138 0.52644 0.0
O271 O 0.93527 0.03993 0.58701 0.0
O272 O 1.00356 0.9998 0.57879 0.0
O273 O 0.06135 0.99466 0.54164 0.0
O274 O 0.0224 0.99396 0.46495 0.0
O275 O 0.97093 0.97744 0.51161 0.0
C276 C 1.00685 0.09182 0.46944 0.0
O277 O 0.12817 0.0386 0.50128 0.0
O278 O 0.09986 0.0439 0.44406 0.0
C279 C 0.05222 0.10249 0.56424 0.0
C280 C 0.86865 1.00289 0.57807 0.0
C281 C 0.80512 0.94519 0.6095 0.0
C282 C 0.80952 0.98428 0.6217 0.0
C283 C 0.84101 1.01288 0.60605 0.0
C284 C 0.86362 0.96417 0.56464 0.0
C285 C 0.83185 0.93552 0.58008 0.0
C286 C 0.90304 0.03304 0.56413 0.0
C287 C 0.03672 0.98562 0.57255 0.0
H288 H 0.26874 0.09729 0.42792 0.0
H289 H 0.21311 0.04277 0.44654 0.0
H290 H 0.12991 0.12184 0.45798 0.0
H291 H 0.18469 0.1761 0.43778 0.0
H292 H 0.78974 0.99251 0.64473 0.0
H293 H 0.84448 0.04265 0.61664 0.0
H294 H 0.88469 0.95598 0.54286 0.0
H295 H 0.82886 0.9057 0.56985 0.0
Tb296 Tb 0.55172 0.03604 0.08471 0.0
Tb297 Tb 0.46489 1.02901 0.0387 0.0
C298 C 0.5275 0.97783 1.01318 0.0
C299 C 0.65143 0.07656 0.13109 0.0
C300 C 0.71238 0.14028 0.15491 0.0
C301 C 0.71804 0.1019 0.15992 0.0
C302 C 0.68776 0.07028 0.14806 0.0
C303 C 0.64589 0.11475 0.12518 0.0
C304 C 0.67626 0.14645 0.13686 0.0
C305 C 0.61914 0.04318 0.12041 0.0
O306 O 0.56553 0.0776 1.03439 0.0
O307 O 0.50086 0.08576 1.01809 0.0
O308 O 0.46095 0.06186 0.09348 0.0
O309 O 0.52886 0.08665 0.10368 0.0
O310 O 0.4297 0.03271 0.9876 0.0
O311 O 0.40078 1.01844 0.0453 0.0
O312 O 0.4598 0.97274 0.06967 0.0
O313 O 0.50719 0.99224 0.11866 0.0
O314 O 0.54532 0.98432 0.04801 0.0
O315 O 0.50099 0.99798 1.00048 0.0
C316 C 0.5412 0.09735 1.01601 0.0
O317 O 0.58398 0.04154 0.13868 0.0
O318 O 0.61471 0.03593 0.08215 0.0
C319 C 0.49034 0.08813 0.1092 0.0
C320 C 0.36672 0.98681 0.98952 0.0
C321 C 0.31107 0.92359 0.95606 0.0
C322 C 0.2975 0.94816 0.98425 0.0
C323 C 0.32511 0.97968 1.00066 0.0
C324 C 0.38067 0.96129 0.96274 0.0
C325 C 0.35305 0.93013 0.94601 0.0
C326 C 0.39525 1.02027 1.00688 0.0
C327 C 0.4764 0.96612 0.10401 0.0
H328 H 0.74541 0.0963 0.17407 0.0
H329 H 0.69241 0.04093 0.15277 0.0
H330 H 0.61791 0.11997 0.11199 0.0
H331 H 0.67138 0.17569 0.13204 0.0
H332 H 0.26548 0.94337 0.99313 0.0
H333 H 0.31395 0.99868 1.02186 0.0
H334 H 0.41277 0.96572 0.9542 0.0
H335 H 0.36439 0.9119 0.92412 0.0
Tb336 Tb 0.5225 0.48254 0.51577 0.0
Tb337 Tb 0.52193 0.55991 0.56721 0.0
C338 C 0.48326 0.55026 0.47887 0.0
C339 C 0.56709 0.40874 0.46512 0.0
C340 C 0.64086 0.3878 0.44066 0.0
C341 C 0.60436 0.37413 0.41948 0.0
C342 C 0.56767 0.38454 0.43168 0.0
C343 C 0.60343 0.42199 0.48654 0.0
C344 C 0.6399 0.41132 0.47463 0.0
C345 C 0.52975 0.42286 0.47592 0.0
O346 O 0.57527 0.52528 0.49327 0.0
O347 O 0.58568 0.56942 0.5448 0.0
O348 O 0.53925 0.51837 0.61038 0.0
O349 O 0.56416 0.4792 0.56621 0.0
O350 O 0.52661 0.62062 0.57168 0.0
O351 O 0.51405 0.58409 0.62365 0.0
O352 O 0.45811 0.52791 0.56883 0.0
O353 O 0.46843 0.46676 0.55527 0.0
O354 O 0.48147 0.5123 0.48134 0.0
O355 O 0.50187 0.57379 0.50704 0.0
C356 C 0.59808 0.55564 0.51101 0.0
O357 O 0.52052 0.42221 0.51393 0.0
O358 O 0.52699 0.45591 0.45979 0.0
C359 C 0.55961 0.49044 0.60345 0.0
C360 C 0.47527 0.63277 0.6172 0.0
C361 C 0.39779 0.65184 0.63082 0.0
C362 C 0.41602 0.63285 0.66046 0.0
C363 C 0.45437 0.62354 0.65378 0.0
C364 C 0.45758 0.65283 0.58799 0.0
C365 C 0.41932 0.66239 0.59481 0.0
C366 C 0.5131 0.61802 0.60852 0.0
C367 C 0.44541 0.48989 0.57022 0.0
H368 H 0.60432 0.35564 0.39338 0.0
H369 H 0.54001 0.37435 0.41459 0.0
H370 H 0.60382 0.44132 0.51197 0.0
H371 H 0.66767 0.42244 0.49127 0.0
H372 H 0.40023 0.62447 0.68857 0.0
H373 H 0.46718 0.60811 0.67689 0.0
H374 H 0.47288 0.66057 0.55952 0.0
H375 H 0.40668 0.67818 0.57192 0.0
Tb376 Tb 0.02301 0.56473 1.01308 0.0
Tb377 Tb 0.01827 0.48728 0.06548 0.0
C378 C 0.05684 0.49464 0.97709 0.0
C379 C 0.9821 0.63797 0.96036 0.0
C380 C 0.90956 0.66192 0.93911 0.0
C381 C 0.94446 0.6703 0.91407 0.0
C382 C 0.98055 0.65838 0.92466 0.0
C383 C 0.94718 0.62948 0.98527 0.0
C384 C 0.91134 0.64171 0.97495 0.0
C385 C 0.01868 0.62269 0.97029 0.0
O386 O 0.96728 0.52435 0.99322 0.0
O387 O 0.9548 0.47921 0.04368 0.0
O388 O 0.99493 0.52649 0.10764 0.0
O389 O 0.9833 0.5733 0.06414 0.0
O390 O 1.01284 0.42645 0.06739 0.0
O391 O 0.02474 0.46097 0.12086 0.0
O392 O 0.08213 0.51991 0.07203 0.0
O393 O 0.07609 0.58091 0.05239 0.0
O394 O 0.06471 0.53278 0.98166 0.0
O395 O 0.03349 0.47259 1.00358 0.0
C396 C 0.94304 0.4947 1.01092 0.0
O397 O 0.02931 0.62537 1.00781 0.0
O398 O 0.01902 0.58823 0.95581 0.0
C399 C 0.98083 0.55831 0.10047 0.0
C400 C 0.06255 0.41254 0.11132 0.0
C401 C 0.13807 0.39261 0.12961 0.0
C402 C 0.10305 0.37896 0.1535 0.0
C403 C 0.06551 0.3889 0.14441 0.0
C404 C 0.09727 0.42555 0.087 0.0
C405 C 0.13469 0.41574 0.09609 0.0
C406 C 0.02503 0.42737 0.10436 0.0
C407 C 0.09654 0.55788 0.0708 0.0
H408 H 0.94391 0.68637 0.88652 0.0
H409 H 1.00703 0.66474 0.90486 0.0
H410 H 0.94738 0.61287 1.01245 0.0
H411 H 0.88479 0.6348 0.99462 0.0
H412 H 0.1049 0.36111 0.17955 0.0
H413 H 0.03915 0.37902 0.16375 0.0
H414 H 0.09577 0.44436 0.06164 0.0
H415 H 0.16132 0.42745 0.07773 0.0
C416 C 0.31306 0.19704 0.36262 0.0
C417 C 0.31917 0.23517 0.37785 0.0
C418 C 0.28558 0.16659 0.38111 0.0
C419 C 0.26343 0.17314 0.4157 0.0
H420 H 0.32832 0.19106 0.33516 0.0
H421 H 0.28042 0.13805 0.36717 0.0
S422 S 0.27241 0.26732 0.4697 0.0
N423 N 0.30333 0.2778 0.43051 0.0
N424 N 0.25251 0.22019 0.4665 0.0
C425 C 0.27082 0.21096 0.43227 0.0
C426 C 0.29849 0.2421 0.41302 0.0
C427 C 0.27025 0.83163 0.89742 0.0
C428 C 0.23862 0.84223 0.87521 0.0
C429 C 0.29131 0.85674 0.9265 0.0
C430 C 0.2817 0.89345 0.93397 0.0
H431 H 0.28074 0.80509 0.89019 0.0
H432 H 0.31708 0.84852 0.94132 0.0
S433 S 0.19837 0.93282 0.88651 0.0
N434 N 0.1959 0.88982 0.86521 0.0
N435 N 0.23592 0.93744 0.91927 0.0
C436 C 0.24776 0.90281 0.91437 0.0
C437 C 0.22608 0.87704 0.88508 0.0
C438 C 0.5858 0.46286 0.71196 0.0
C439 C 0.60806 0.43278 0.70687 0.0
C440 C 0.5709 0.48138 0.67889 0.0
C441 C 0.57698 0.4708 0.63853 0.0
H442 H 0.58034 0.47281 0.74192 0.0
H443 H 0.5543 0.50426 0.68519 0.0
S444 S 0.63062 0.39177 0.60797 0.0
N445 N 0.63331 0.39215 0.65732 0.0
N446 N 0.60596 0.42646 0.59625 0.0
C447 C 0.59861 0.44031 0.63309 0.0
C448 C 0.61388 0.42158 0.6667 0.0
C449 C 0.94182 0.58139 0.20637 0.0
C450 C 0.92837 0.61682 0.2015 0.0
C451 C 0.95806 0.56264 0.17391 0.0
C452 C 0.96215 0.57835 0.13468 0.0
H453 H 0.93917 0.56759 0.2355 0.0
H454 H 0.96755 0.53545 0.17979 0.0
S455 S 0.93468 0.67235 0.10621 0.0
N456 N 0.92251 0.66778 0.15424 0.0
N457 N 0.95273 0.6333 0.09414 0.0
C458 C 0.94948 0.61422 0.12971 0.0
C459 C 0.93278 0.63312 0.16266 0.0
C460 C 0.42978 0.16265 0.14478 0.0
C461 C 0.45861 0.18918 0.167 0.0
C462 C 0.44008 0.12963 0.12709 0.0
C463 C 0.47971 0.12182 0.13083 0.0
H464 H 0.39907 0.16775 0.14052 0.0
H465 H 0.41691 0.11056 0.10967 0.0
S466 S 0.56568 0.18096 0.18839 0.0
N467 N 0.52778 0.20457 0.19363 0.0
N468 N 0.54752 0.14267 0.16008 0.0
C469 C 0.50873 0.14784 0.15357 0.0
C470 C 0.49812 0.1815 0.17165 0.0
C471 C 0.03589 0.89268 0.63001 0.0
C472 C 0.07589 0.89966 0.64551 0.0
C473 C 0.02191 0.92175 0.60843 0.0
C474 C 0.04797 0.95808 0.60121 0.0
H475 H 1.01573 0.86447 0.63394 0.0
H476 H 0.99144 0.91516 0.59568 0.0
S477 S 0.15499 0.99064 0.63563 0.0
N478 N 0.14083 0.94574 0.65277 0.0
N479 N 0.11479 0.99976 0.61176 0.0
C480 C 0.08756 0.96551 0.61723 0.0
C481 C 0.10151 0.93641 0.63951 0.0
C482 C 0.84558 0.42133 0.97741 0.0
C483 C 0.82749 0.44214 0.94876 0.0
C484 C 0.8819 0.43854 0.99817 0.0
C485 C 0.90223 0.47751 0.99139 0.0
H486 H 0.83222 0.39099 0.98313 0.0
H487 H 0.89475 0.4207 1.01891 0.0
S488 S 0.86529 0.54666 0.92341 0.0
N489 N 0.83136 0.50549 0.91794 0.0
N490 N 0.89907 0.53723 0.95585 0.0
C491 C 0.88369 0.49902 0.96384 0.0
C492 C 0.8467 0.48159 0.94291 0.0
C493 C 0.68322 0.5822 0.4306 0.0
C494 C 0.71149 0.61376 0.44721 0.0
C495 C 0.64755 0.56357 0.45165 0.0
C496 C 0.63787 0.57529 0.49058 0.0
H497 H 0.68803 0.57236 0.40053 0.0
H498 H 0.62692 0.53997 0.43663 0.0
S499 S 0.70344 0.65391 0.5497 0.0
N500 N 0.72847 0.65386 0.50678 0.0
N501 N 0.66156 0.61953 0.54564 0.0
C502 C 0.6664 0.60615 0.50803 0.0
C503 C 0.70291 0.62509 0.48661 0.0
C504 C 0.23126 0.38663 0.19201 0.0
C505 C 0.25738 0.37296 0.16452 0.0
C506 C 0.19258 0.3924 0.18053 0.0
C507 C 0.17864 0.38492 0.14108 0.0
H508 H 0.24047 0.39224 0.22287 0.0
H509 H 0.17359 0.40318 0.20266 0.0
S510 S 0.23552 0.34925 0.05751 0.0
N511 N 0.26696 0.35272 0.09595 0.0
N512 N 0.19392 0.36306 0.07445 0.0
C513 C 0.20454 0.37148 0.11319 0.0
C514 C 0.24394 0.36554 0.12491 0.0
C515 C 0.55564 0.18418 0.94137 0.0
C516 C 0.59577 0.20564 0.94891 0.0
C517 C 0.53823 0.14972 0.96298 0.0
C518 C 0.56002 0.13449 0.99322 0.0
H519 H 0.53768 0.19361 0.91791 0.0
H520 H 0.50753 0.13453 0.95539 0.0
S521 S 0.66398 0.18176 1.02877 0.0
N522 N 0.65488 0.21042 0.99233 0.0
N523 N 0.62315 0.14606 1.03135 0.0
C524 C 0.59968 0.15623 1.00175 0.0
C525 C 0.61718 0.19146 0.98016 0.0
C526 C 0.92404 0.86782 0.45337 0.0
C527 C 0.94328 0.85528 0.41926 0.0
C528 C 0.93915 0.90423 0.47209 0.0
C529 C 0.97455 0.93035 0.4579 0.0
H530 H 0.8964 0.84956 0.46551 0.0
H531 H 0.92266 0.91191 0.49798 0.0
S532 S 0.03846 0.91096 0.37108 0.0
N533 N 1.00129 0.87178 0.37337 0.0
N534 N 0.02925 0.93971 0.40788 0.0
C535 C 0.99445 0.91797 0.42409 0.0
C536 C 0.97902 0.88083 0.40502 0.0
C537 C 0.31281 0.69188 0.68179 0.0
C538 C 0.28216 0.68762 0.6524 0.0
C539 C 0.34957 0.67937 0.67484 0.0
C540 C 0.35715 0.662 0.63825 0.0
H541 H 0.30923 0.70674 0.70973 0.0
H542 H 0.37287 0.68475 0.69779 0.0
S543 S 0.28458 0.63965 0.55353 0.0
N544 N 0.26027 0.66207 0.58665 0.0
N545 N 0.32924 0.63769 0.57373 0.0
C546 C 0.32596 0.65588 0.60929 0.0
C547 C 0.28853 0.6689 0.61632 0.0
C548 C 0.71212 0.89865 0.67023 0.0
C549 C 0.7271 0.87038 0.692 0.0
C550 C 0.73608 0.92039 0.64029 0.0
C551 C 0.77585 0.91469 0.63138 0.0
H552 H 0.68316 0.90615 0.67862 0.0
H553 H 0.72467 0.94377 0.62613 0.0
S554 S 0.8269 0.84074 0.67652 0.0
N555 N 0.78204 0.83479 0.69968 0.0
N556 N 0.82728 0.87591 0.64375 0.0
C557 C 0.78945 0.88389 0.65021 0.0
C558 C 0.76495 0.86162 0.6805 0.0
C559 C 0.81571 0.20204 0.18254 0.0
C560 C 0.80489 0.22947 0.20912 0.0
C561 C 0.78549 0.17458 0.1633 0.0
C562 C 0.74348 0.17333 0.1705 0.0
H563 H 0.8477 0.20091 0.17782 0.0
H564 H 0.79505 0.15328 0.14374 0.0
S565 S 0.69975 0.23927 0.23783 0.0
N566 N 0.74994 0.25467 0.24117 0.0
N567 N 0.69285 0.20246 0.20584 0.0
C568 C 0.7324 0.20161 0.19605 0.0
C569 C 0.76323 0.2298 0.21525 0.0
C570 C 0.44349 0.62404 0.41054 0.0
C571 C 0.43199 0.60353 0.37438 0.0
C572 C 0.45932 0.60669 0.44375 0.0
C573 C 0.46462 0.56759 0.44317 0.0
H574 H 0.43995 0.65395 0.41351 0.0
H575 H 0.46746 0.62434 0.47032 0.0
S576 S 0.44226 0.50104 0.35542 0.0
N577 N 0.42963 0.54169 0.34007 0.0
N578 N 0.45799 0.50938 0.40199 0.0
C579 C 0.4534 0.54671 0.40725 0.0
C580 C 0.43755 0.56445 0.37327 0.0
C581 C 0.12536 0.47191 0.88885 0.0
C582 C 0.10183 0.43801 0.8706 0.0
C583 C 0.11077 0.49041 0.92248 0.0
C584 C 0.07209 0.47571 0.94037 0.0
H585 H 0.15588 0.48404 0.8776 0.0
H586 H 0.13046 0.51598 0.93514 0.0
S587 S 0.99558 0.39118 0.90235 0.0
N588 N 0.03518 0.39361 0.87166 0.0
N589 N 1.00931 0.42673 0.93514 0.0
C590 C 0.04792 0.44249 0.92211 0.0
C591 C 0.06229 0.42416 0.88743 0.0
C592 C 0.55935 0.88338 0.98851 0.0
C593 C 0.57131 0.88815 0.94806 0.0
C594 C 0.5428 0.9117 1.0087 0.0
C595 C 0.53705 0.94554 0.98906 0.0
H596 H 0.56497 0.85863 1.00528 0.0
H597 H 0.53601 0.90784 0.04042 0.0
S598 S 0.55924 0.97031 0.88243 0.0
N599 N 0.5735 0.92825 0.88833 0.0
N600 N 0.54098 0.98085 0.92637 0.0
C601 C 0.5456 0.94928 0.94793 0.0
C602 C 0.56307 0.92066 0.92736 0.0
C603 C 0.01936 0.19042 0.41842 0.0
C604 C 0.97885 0.19617 0.41676 0.0
C605 C 0.02809 0.15621 0.43472 0.0
C606 C 0.99654 0.12627 0.4494 0.0
H607 H 0.04451 0.21281 0.40768 0.0
H608 H 0.05988 0.15346 0.43614 0.0
S609 S 0.88485 0.12642 0.44898 0.0
N610 N 0.90674 0.16865 0.42907 0.0
N611 N 0.92279 0.10442 0.4596 0.0
C612 C 0.95573 0.1314 0.44683 0.0
C613 C 0.94699 0.16633 0.43058 0.0
C614 C 0.19006 0.57085 0.14158 0.0
C615 C 0.21171 0.60931 0.13429 0.0
C616 C 0.15375 0.55426 0.1205 0.0
C617 C 0.13667 0.57544 0.09147 0.0
H618 H 0.20162 0.55312 0.1634 0.0
H619 H 0.13866 0.52461 0.1275 0.0
S620 S 0.18059 0.67782 0.06182 0.0
N621 N 0.21253 0.66822 0.09608 0.0
N622 N 0.14499 0.6377 0.05719 0.0
C623 C 0.15795 0.61407 0.0842 0.0
C624 C 0.19509 0.63073 0.1053 0.0
C625 C 0.35895 0.41544 0.62088 0.0
C626 C 0.33166 0.43803 0.63623 0.0
C627 C 0.39454 0.43218 0.59875 0.0
C628 C 0.40516 0.47257 0.59097 0.0
H629 H 0.35289 0.38434 0.6262 0.0
H630 H 0.41439 0.41316 0.5884 0.0
S631 S 0.34393 0.54509 0.62385 0.0
N632 N 0.31772 0.50325 0.64133 0.0
N633 N 0.38416 0.5347 0.60015 0.0
C634 C 0.37772 0.49551 0.60557 0.0
C635 C 0.34123 0.47832 0.62791 0.0
C636 C 0.82116 0.71472 0.94511 0.0
C637 C 0.80395 0.70871 0.9067 0.0
C638 C 0.85446 0.69825 0.95588 0.0
C639 C 0.87173 0.67539 0.92855 0.0
H640 H 0.81033 0.73401 0.96621 0.0
H641 H 0.86797 0.70492 0.98514 0.0
S642 S 0.83372 0.64579 0.82679 0.0
N643 N 0.80347 0.67461 0.84307 0.0
N644 N 0.86631 0.64377 0.86335 0.0
C645 C 0.85326 0.66721 0.891 0.0
C646 C 0.81927 0.68382 0.88008 0.0
C647 C 0.41567 0.86172 0.12725 0.0
C648 C 0.43355 0.85076 0.16252 0.0
C649 C 0.42923 0.89872 0.10911 0.0
C650 C 0.46138 0.92729 0.1253 0.0
H651 H 0.39134 0.84109 0.11277 0.0
H652 H 0.4145 0.90474 0.08181 0.0
S653 S 0.5171 0.91497 0.21895 0.0
N654 N 0.4842 0.87308 0.21396 0.0
N655 N 0.50961 0.94175 0.18026 0.0
C656 C 0.47901 0.91701 0.16104 0.0
C657 C 0.46527 0.87922 0.17942 0.0
C658 C 0.06478 0.18685 0.64156 0.0
C659 C 0.10381 0.21008 0.63257 0.0
C660 C 0.0482 0.15261 0.61941 0.0
C661 C 0.06989 0.13949 0.58728 0.0
H662 H 0.04711 0.19467 0.66656 0.0
H663 H 0.01836 0.13587 0.62812 0.0
S664 S 0.17078 0.19193 0.54756 0.0
N665 N 0.16158 0.21888 0.58592 0.0
N666 N 0.13134 0.15479 0.54572 0.0
C667 C 0.10838 0.16299 0.57727 0.0
C668 C 0.12501 0.19801 0.59942 0.0
C669 C 0.74264 0.35476 0.44158 0.0
C670 C 0.75798 0.36369 0.40262 0.0
C671 C 0.70461 0.36251 0.45364 0.0
C672 C 0.68032 0.37873 0.42691 0.0
H673 H 0.76039 0.3421 0.46297 0.0
H674 H 0.694 0.35557 0.48403 0.0
S675 S 0.70638 0.40655 0.32138 0.0
N676 N 0.74586 0.38905 0.33721 0.0
N677 N 0.67431 0.40348 0.35983 0.0
C678 C 0.69516 0.38739 0.38777 0.0
C679 C 0.73404 0.37994 0.37565 0.0
loop_
_geom_bond_atom_site_label_1
_geom_bond_atom_site_label_2
_geom_bond_distance
_geom_bond_site_symmetry_2
_ccdc_geom_bond_type
P0 O11 1.490 . S
P0 C14 1.812 . S
P0 C20 1.803 . S
P0 C26 1.819 . S
H1 C15 0.941 . S
H2 C16 0.939 . S
H3 C18 0.940 . S
H4 C19 0.940 . S
H5 C21 0.939 . S
H6 C22 0.942 . S
H7 C24 0.940 . S
H8 C25 0.939 . S
H9 C27 0.941 . S
H10 C31 0.939 . S
O11 P0 1.490 . S
H12 C28 0.939 . S
H13 C30 0.940 . S
C14 P0 1.812 . S
C14 C15 1.389 . S
C14 C19 1.391 . S
C15 H1 0.941 . S
C15 C14 1.389 . S
C15 C16 1.397 . S
C16 H2 0.939 . S
C16 C15 1.397 . S
C16 C17 1.378 . S
C17 C16 1.378 . S
C17 C18 1.378 . S
C18 H3 0.940 . S
C18 C17 1.378 . S
C18 C19 1.396 . S
C19 H4 0.940 . S
C19 C14 1.391 . S
C19 C18 1.396 . S
C20 P0 1.803 . S
C20 C21 1.378 . S
C20 C25 1.400 . S
C21 H5 0.939 . S
C21 C20 1.378 . S
C21 C22 1.361 . S
C22 H6 0.942 . S
C22 C21 1.361 . S
C22 C23 1.369 . S
C23 C22 1.369 . S
C23 C24 1.404 . S
C24 H7 0.940 . S
C24 C23 1.404 . S
C24 C25 1.389 . S
C25 H8 0.939 . S
C25 C20 1.400 . S
C25 C24 1.389 . S
C26 P0 1.819 . S
C26 C27 1.391 . S
C26 C31 1.391 . S
C27 H9 0.941 . S
C27 C26 1.391 . S
C27 C28 1.396 . S
C28 H12 0.939 . S
C28 C27 1.396 . S
C28 C29 1.397 . S
C29 C28 1.397 . S
C29 C30 1.385 . S
C30 H13 0.940 . S
C30 C29 1.385 . S
C30 C31 1.388 . S
C31 H10 0.939 . S
C31 C26 1.391 . S
C31 C30 1.388 . S
P32 O43 1.490 . S
P32 C46 1.812 . S
P32 C52 1.803 . S
P32 C58 1.819 . S
H33 C47 0.941 . S
H34 C48 0.939 . S
H35 C50 0.940 . S
H36 C51 0.940 . S
H37 C53 0.939 . S
H38 C54 0.942 . S
H39 C56 0.940 . S
H40 C57 0.939 . S
H41 C59 0.941 . S
H42 C63 0.939 . S
O43 P32 1.490 . S
H44 C60 0.939 . S
H45 C62 0.940 . S
C46 P32 1.812 . S
C46 C47 1.389 . S
C46 C51 1.391 . S
C47 H33 0.941 . S
C47 C46 1.389 . S
C47 C48 1.397 . S
C48 H34 0.939 . S
C48 C47 1.397 . S
C48 C49 1.378 . S
C49 C48 1.378 . S
C49 C50 1.378 . S
C50 H35 0.940 . S
C50 C49 1.378 . S
C50 C51 1.396 . S
C51 H36 0.940 . S
C51 C46 1.391 . S
C51 C50 1.396 . S
C52 P32 1.803 . S
C52 C53 1.378 . S
C52 C57 1.400 . S
C53 H37 0.939 . S
C53 C52 1.378 . S
C53 C54 1.361 . S
C54 H38 0.942 . S
C54 C53 1.361 . S
C54 C55 1.369 . S
C55 C54 1.369 . S
C55 C56 1.404 . S
C56 H39 0.940 . S
C56 C55 1.404 . S
C56 C57 1.389 . S
C57 H40 0.939 . S
C57 C52 1.400 . S
C57 C56 1.389 . S
C58 P32 1.819 . S
C58 C59 1.391 . S
C58 C63 1.391 . S
C59 H41 0.941 . S
C59 C58 1.391 . S
C59 C60 1.396 . S
C60 H44 0.939 . S
C60 C59 1.396 . S
C60 C61 1.397 . S
C61 C60 1.397 . S
C61 C62 1.385 . S
C62 H45 0.940 . S
C62 C61 1.385 . S
C62 C63 1.388 . S
C63 H42 0.939 . S
C63 C58 1.391 . S
C63 C62 1.388 . S
P64 O75 1.490 . S
P64 C78 1.812 . S
P64 C84 1.803 . S
P64 C90 1.819 . S
H65 C79 0.941 . S
H66 C80 0.939 . S
H67 C82 0.940 . S
H68 C83 0.940 . S
H69 C85 0.939 . S
H70 C86 0.942 . S
H71 C88 0.940 . S
H72 C89 0.939 . S
H73 C91 0.941 . S
H74 C95 0.939 . S
O75 P64 1.490 . S
H76 C92 0.939 . S
H77 C94 0.940 . S
C78 P64 1.812 . S
C78 C79 1.389 . S
C78 C83 1.391 . S
C79 H65 0.941 . S
C79 C78 1.389 . S
C79 C80 1.397 . S
C80 H66 0.939 . S
C80 C79 1.397 . S
C80 C81 1.378 . S
C81 C80 1.378 . S
C81 C82 1.378 . S
C82 H67 0.940 . S
C82 C81 1.378 . S
C82 C83 1.396 . S
C83 H68 0.940 . S
C83 C78 1.391 . S
C83 C82 1.396 . S
C84 P64 1.803 . S
C84 C85 1.378 . S
C84 C89 1.400 . S
C85 H69 0.939 . S
C85 C84 1.378 . S
C85 C86 1.361 . S
C86 H70 0.942 . S
C86 C85 1.361 . S
C86 C87 1.369 . S
C87 C86 1.369 . S
C87 C88 1.404 . S
C88 H71 0.940 . S
C88 C87 1.404 . S
C88 C89 1.389 . S
C89 H72 0.939 . S
C89 C84 1.400 . S
C89 C88 1.389 . S
C90 P64 1.819 . S
C90 C91 1.391 . S
C90 C95 1.391 . S
C91 H73 0.941 . S
C91 C90 1.391 . S
C91 C92 1.396 . S
C92 H76 0.939 . S
C92 C91 1.396 . S
C92 C93 1.397 . S
C93 C92 1.397 . S
C93 C94 1.385 . S
C94 H77 0.940 . S
C94 C93 1.385 . S
C94 C95 1.388 . S
C95 H74 0.939 . S
C95 C90 1.391 . S
C95 C94 1.388 . S
P96 O107 1.490 . S
P96 C110 1.812 . S
P96 C116 1.803 . S
P96 C122 1.819 . S
H97 C111 0.941 . S
H98 C112 0.939 . S
H99 C114 0.940 . S
H100 C115 0.940 . S
H101 C117 0.939 . S
H102 C118 0.942 . S
H103 C120 0.940 . S
H104 C121 0.939 . S
H105 C123 0.941 . S
H106 C127 0.939 . S
O107 P96 1.490 . S
H108 C124 0.939 . S
H109 C126 0.940 . S
C110 P96 1.812 . S
C110 C111 1.389 . S
C110 C115 1.391 . S
C111 H97 0.941 . S
C111 C110 1.389 . S
C111 C112 1.397 . S
C112 H98 0.939 . S
C112 C111 1.397 . S
C112 C113 1.378 . S
C113 C112 1.378 . S
C113 C114 1.378 . S
C114 H99 0.940 . S
C114 C113 1.378 . S
C114 C115 1.396 . S
C115 H100 0.940 . S
C115 C110 1.391 . S
C115 C114 1.396 . S
C116 P96 1.803 . S
C116 C117 1.378 . S
C116 C121 1.400 . S
C117 H101 0.939 . S
C117 C116 1.378 . S
C117 C118 1.361 . S
C118 H102 0.942 . S
C118 C117 1.361 . S
C118 C119 1.369 . S
C119 C118 1.369 . S
C119 C120 1.404 . S
C120 H103 0.940 . S
C120 C119 1.404 . S
C120 C121 1.389 . S
C121 H104 0.939 . S
C121 C116 1.400 . S
C121 C120 1.389 . S
C122 P96 1.819 . S
C122 C123 1.391 . S
C122 C127 1.391 . S
C123 H105 0.941 . S
C123 C122 1.391 . S
C123 C124 1.396 . S
C124 H108 0.939 . S
C124 C123 1.396 . S
C124 C125 1.397 . S
C125 C124 1.397 . S
C125 C126 1.385 . S
C126 H109 0.940 . S
C126 C125 1.385 . S
C126 C127 1.388 . S
C127 H106 0.939 . S
C127 C122 1.391 . S
C127 C126 1.388 . S
P128 O139 1.490 . S
P128 C142 1.812 . S
P128 C148 1.803 . S
P128 C154 1.819 . S
H129 C143 0.941 . S
H130 C144 0.939 . S
H131 C146 0.940 . S
H132 C147 0.940 . S
H133 C149 0.939 . S
H134 C150 0.942 . S
H135 C152 0.940 . S
H136 C153 0.939 . S
H137 C155 0.941 . S
H138 C159 0.939 . S
O139 P128 1.490 . S
H140 C156 0.939 . S
H141 C158 0.940 . S
C142 P128 1.812 . S
C142 C143 1.389 . S
C142 C147 1.391 . S
C143 H129 0.941 . S
C143 C142 1.389 . S
C143 C144 1.397 . S
C144 H130 0.939 . S
C144 C143 1.397 . S
C144 C145 1.378 . S
C145 C144 1.378 . S
C145 C146 1.378 . S
C146 H131 0.940 . S
C146 C145 1.378 . S
C146 C147 1.396 . S
C147 H132 0.940 . S
C147 C142 1.391 . S
C147 C146 1.396 . S
C148 P128 1.803 . S
C148 C149 1.378 . S
C148 C153 1.400 . S
C149 H133 0.939 . S
C149 C148 1.378 . S
C149 C150 1.361 . S
C150 H134 0.942 . S
C150 C149 1.361 . S
C150 C151 1.369 . S
C151 C150 1.369 . S
C151 C152 1.404 . S
C152 H135 0.940 . S
C152 C151 1.404 . S
C152 C153 1.389 . S
C153 H136 0.939 . S
C153 C148 1.400 . S
C153 C152 1.389 . S
C154 P128 1.819 . S
C154 C155 1.391 . S
C154 C159 1.391 . S
C155 H137 0.941 . S
C155 C154 1.391 . S
C155 C156 1.396 . S
C156 H140 0.939 . S
C156 C155 1.396 . S
C156 C157 1.397 . S
C157 C156 1.397 . S
C157 C158 1.385 . S
C158 H141 0.940 . S
C158 C157 1.385 . S
C158 C159 1.388 . S
C159 H138 0.939 . S
C159 C154 1.391 . S
C159 C158 1.388 . S
P160 O171 1.490 . S
P160 C174 1.812 . S
P160 C180 1.803 . S
P160 C186 1.819 . S
H161 C175 0.941 . S
H162 C176 0.939 . S
H163 C178 0.940 . S
H164 C179 0.940 . S
H165 C181 0.939 . S
H166 C182 0.942 1_455 S
H167 C184 0.940 . S
H168 C185 0.939 . S
H169 C187 0.941 . S
H170 C191 0.939 . S
O171 P160 1.490 . S
H172 C188 0.939 . S
H173 C190 0.940 . S
C174 P160 1.812 . S
C174 C175 1.389 . S
C174 C179 1.391 . S
C175 H161 0.941 . S
C175 C174 1.389 . S
C175 C176 1.397 . S
C176 H162 0.939 . S
C176 C175 1.397 . S
C176 C177 1.378 . S
C177 C176 1.378 . S
C177 C178 1.378 . S
C178 H163 0.940 . S
C178 C177 1.378 . S
C178 C179 1.396 . S
C179 H164 0.940 . S
C179 C174 1.391 . S
C179 C178 1.396 . S
C180 P160 1.803 . S
C180 C181 1.378 . S
C180 C185 1.400 . S
C181 H165 0.939 . S
C181 C180 1.378 . S
C181 C182 1.361 . S
C182 H166 0.942 1_655 S
C182 C181 1.361 . S
C182 C183 1.369 . S
C183 C182 1.369 . S
C183 C184 1.404 . S
C184 H167 0.940 . S
C184 C183 1.404 . S
C184 C185 1.389 . S
C185 H168 0.939 . S
C185 C180 1.400 . S
C185 C184 1.389 . S
C186 P160 1.819 . S
C186 C187 1.391 . S
C186 C191 1.391 . S
C187 H169 0.941 . S
C187 C186 1.391 . S
C187 C188 1.396 . S
C188 H172 0.939 . S
C188 C187 1.396 . S
C188 C189 1.397 . S
C189 C188 1.397 . S
C189 C190 1.385 . S
C190 H173 0.940 . S
C190 C189 1.385 . S
C190 C191 1.388 . S
C191 H170 0.939 . S
C191 C186 1.391 . S
C191 C190 1.388 . S
P192 O203 1.490 . S
P192 C206 1.812 . S
P192 C212 1.803 . S
P192 C218 1.819 . S
H193 C207 0.941 . S
H194 C208 0.939 . S
H195 C210 0.940 . S
H196 C211 0.940 . S
H197 C213 0.939 . S
H198 C214 0.942 . S
H199 C216 0.940 . S
H200 C217 0.939 . S
H201 C219 0.941 . S
H202 C223 0.939 . S
O203 P192 1.490 . S
H204 C220 0.939 . S
H205 C222 0.940 . S
C206 P192 1.812 . S
C206 C207 1.389 . S
C206 C211 1.391 . S
C207 H193 0.941 . S
C207 C206 1.389 . S
C207 C208 1.397 . S
C208 H194 0.939 . S
C208 C207 1.397 . S
C208 C209 1.378 . S
C209 C208 1.378 . S
C209 C210 1.378 . S
C210 H195 0.940 . S
C210 C209 1.378 . S
C210 C211 1.396 . S
C211 H196 0.940 . S
C211 C206 1.391 . S
C211 C210 1.396 . S
C212 P192 1.803 . S
C212 C213 1.378 . S
C212 C217 1.400 . S
C213 H197 0.939 . S
C213 C212 1.378 . S
C213 C214 1.361 . S
C214 H198 0.942 . S
C214 C213 1.361 . S
C214 C215 1.369 . S
C215 C214 1.369 . S
C215 C216 1.404 . S
C216 H199 0.940 . S
C216 C215 1.404 . S
C216 C217 1.389 . S
C217 H200 0.939 . S
C217 C212 1.400 . S
C217 C216 1.389 . S
C218 P192 1.819 . S
C218 C219 1.391 . S
C218 C223 1.391 . S
C219 H201 0.941 . S
C219 C218 1.391 . S
C219 C220 1.396 . S
C220 H204 0.939 . S
C220 C219 1.396 . S
C220 C221 1.397 . S
C221 C220 1.397 . S
C221 C222 1.385 . S
C222 H205 0.940 . S
C222 C221 1.385 . S
C222 C223 1.388 . S
C223 H202 0.939 . S
C223 C218 1.391 . S
C223 C222 1.388 . S
P224 O235 1.490 . S
P224 C238 1.812 . S
P224 C244 1.803 . S
P224 C250 1.819 . S
H225 C239 0.941 . S
H226 C240 0.939 . S
H227 C242 0.940 . S
H228 C243 0.940 . S
H229 C245 0.939 . S
H230 C246 0.942 . S
H231 C248 0.940 . S
H232 C249 0.939 . S
H233 C251 0.941 . S
H234 C255 0.939 . S
O235 P224 1.490 . S
H236 C252 0.939 . S
H237 C254 0.940 . S
C238 P224 1.812 . S
C238 C239 1.389 . S
C238 C243 1.391 . S
C239 H225 0.941 . S
C239 C238 1.389 . S
C239 C240 1.397 . S
C240 H226 0.939 . S
C240 C239 1.397 . S
C240 C241 1.378 . S
C241 C240 1.378 . S
C241 C242 1.378 . S
C242 H227 0.940 . S
C242 C241 1.378 . S
C242 C243 1.396 . S
C243 H228 0.940 . S
C243 C238 1.391 . S
C243 C242 1.396 . S
C244 P224 1.803 . S
C244 C245 1.378 . S
C244 C249 1.400 . S
C245 H229 0.939 . S
C245 C244 1.378 . S
C245 C246 1.361 . S
C246 H230 0.942 . S
C246 C245 1.361 . S
C246 C247 1.369 . S
C247 C246 1.369 . S
C247 C248 1.404 . S
C248 H231 0.940 . S
C248 C247 1.404 . S
C248 C249 1.389 . S
C249 H232 0.939 . S
C249 C244 1.400 . S
C249 C248 1.389 . S
C250 P224 1.819 . S
C250 C251 1.391 . S
C250 C255 1.391 . S
C251 H233 0.941 . S
C251 C250 1.391 . S
C251 C252 1.396 . S
C252 H236 0.939 . S
C252 C251 1.396 . S
C252 C253 1.397 . S
C253 C252 1.397 . S
C253 C254 1.385 . S
C254 H237 0.940 . S
C254 C253 1.385 . S
C254 C255 1.388 . S
C255 H234 0.939 . S
C255 C250 1.391 . S
C255 C254 1.388 . S
Tb256 C265 2.764 . S
Tb256 O266 2.325 . S
Tb256 O269 2.303 . S
Tb256 O273 2.322 1_545 S
Tb256 O274 2.349 1_545 S
Tb256 O277 2.415 . S
Tb256 O278 2.399 . S
Tb257 O267 2.322 . S
Tb257 O268 2.349 . S
Tb257 O270 2.415 1_545 S
Tb257 O271 2.399 1_545 S
Tb257 O272 2.325 1_645 S
Tb257 O275 2.303 1_545 S
Tb257 C286 2.764 1_545 S
C258 O274 1.261 1_655 S
C258 O275 1.257 . S
C259 C262 1.358 . S
C259 C263 1.332 . S
C259 C265 1.504 . S
C260 C261 1.373 . S
C260 C264 1.308 . S
C261 C260 1.373 . S
C261 C262 1.429 . S
C261 H288 0.932 . S
C262 C259 1.358 . S
C262 C261 1.429 . S
C262 H289 0.930 . S
C263 C259 1.332 . S
C263 C264 1.394 . S
C263 H290 0.932 . S
C264 C260 1.308 . S
C264 C263 1.394 . S
C264 H291 0.929 . S
C265 Tb256 2.764 . S
C265 C259 1.504 . S
C265 O277 1.239 . S
C265 O278 1.263 . S
O266 Tb256 2.325 . S
O266 C276 1.236 1_455 S
O267 Tb257 2.322 . S
O267 C276 1.257 . S
O268 Tb257 2.349 . S
O268 C279 1.261 1_655 S
O269 Tb256 2.303 . S
O269 C279 1.257 . S
O270 Tb257 2.415 1_565 S
O270 C286 1.239 . S
O271 Tb257 2.399 1_565 S
O271 C286 1.263 . S
O272 Tb257 2.325 1_465 S
O272 C287 1.236 . S
O273 Tb256 2.322 1_565 S
O273 C287 1.257 . S
O274 Tb256 2.349 1_565 S
O274 C258 1.261 1_455 S
O275 Tb257 2.303 1_565 S
O275 C258 1.257 . S
C276 O266 1.236 1_655 S
C276 O267 1.257 . S
O277 Tb256 2.415 . S
O277 C265 1.239 . S
O278 Tb256 2.399 . S
O278 C265 1.263 . S
C279 O268 1.261 1_455 S
C279 O269 1.257 . S
C280 C283 1.358 . S
C280 C284 1.332 . S
C280 C286 1.504 . S
C281 C282 1.373 . S
C281 C285 1.308 . S
C282 C281 1.373 . S
C282 C283 1.429 . S
C282 H292 0.932 . S
C283 C280 1.358 . S
C283 C282 1.429 . S
C283 H293 0.930 . S
C284 C280 1.332 . S
C284 C285 1.394 . S
C284 H294 0.932 . S
C285 C281 1.308 . S
C285 C284 1.394 . S
C285 H295 0.929 . S
C286 Tb257 2.764 1_565 S
C286 O270 1.239 . S
C286 O271 1.263 . S
C286 C280 1.504 . S
C287 O272 1.236 . S
C287 O273 1.257 . S
H288 C261 0.932 . S
H289 C262 0.930 . S
H290 C263 0.932 . S
H291 C264 0.929 . S
H292 C282 0.932 . S
H293 C283 0.930 . S
H294 C284 0.932 . S
H295 C285 0.929 . S
Tb296 C305 2.764 . S
Tb296 O306 2.304 1_554 S
Tb296 O309 2.303 . S
Tb296 O313 2.322 1_545 S
Tb296 O314 2.368 1_545 S
Tb296 O317 2.415 . S
Tb296 O318 2.399 . S
Tb297 O307 2.322 . S
Tb297 O308 2.349 1_556 S
Tb297 O310 2.415 1_545 S
Tb297 O311 2.399 1_545 S
Tb297 O312 2.325 1_546 S
Tb297 O315 2.303 1_545 S
Tb297 C326 2.764 1_545 S
C298 O314 1.239 1_556 S
C298 O315 1.257 . S
C299 C302 1.358 . S
C299 C303 1.332 . S
C299 C305 1.504 . S
C300 C301 1.373 . S
C300 C304 1.308 . S
C301 C300 1.373 . S
C301 C302 1.429 . S
C301 H328 0.932 . S
C302 C299 1.358 . S
C302 C301 1.429 . S
C302 H329 0.930 . S
C303 C299 1.332 . S
C303 C304 1.394 . S
C303 H330 0.932 . S
C304 C300 1.308 . S
C304 C303 1.394 . S
C304 H331 0.929 . S
C305 Tb296 2.764 . S
C305 C299 1.504 . S
C305 O317 1.239 . S
C305 O318 1.263 . S
O306 Tb296 2.304 1_556 S
O306 C316 1.255 . S
O307 Tb297 2.322 . S
O307 C316 1.257 . S
O308 Tb297 2.349 1_554 S
O308 C319 1.261 . S
O309 Tb296 2.303 . S
O309 C319 1.257 . S
O310 Tb297 2.415 1_565 S
O310 C326 1.239 . S
O311 Tb297 2.399 1_565 S
O311 C326 1.263 . S
O312 Tb297 2.325 1_564 S
O312 C327 1.236 . S
O313 Tb296 2.322 1_565 S
O313 C327 1.257 . S
O314 Tb296 2.368 1_565 S
O314 C298 1.239 1_554 S
O315 Tb297 2.303 1_565 S
O315 C298 1.257 . S
C316 O306 1.255 . S
C316 O307 1.257 . S
O317 Tb296 2.415 . S
O317 C305 1.239 . S
O318 Tb296 2.399 . S
O318 C305 1.263 . S
C319 O308 1.261 . S
C319 O309 1.257 . S
C320 C323 1.358 . S
C320 C324 1.332 . S
C320 C326 1.504 . S
C321 C322 1.373 . S
C321 C325 1.308 . S
C322 C321 1.373 . S
C322 C323 1.429 . S
C322 H332 0.932 . S
C323 C320 1.358 . S
C323 C322 1.429 . S
C323 H333 0.930 . S
C324 C320 1.332 . S
C324 C325 1.394 . S
C324 H334 0.932 . S
C325 C321 1.308 . S
C325 C324 1.394 . S
C325 H335 0.929 . S
C326 Tb297 2.764 1_565 S
C326 O310 1.239 . S
C326 O311 1.263 . S
C326 C320 1.504 . S
C327 O312 1.236 . S
C327 O313 1.257 . S
H328 C301 0.932 . S
H329 C302 0.930 . S
H330 C303 0.932 . S
H331 C304 0.929 . S
H332 C322 0.932 . S
H333 C323 0.930 . S
H334 C324 0.932 . S
H335 C325 0.929 . S
Tb336 C345 2.764 . S
Tb336 O346 2.325 . S
Tb336 O349 2.303 . S
Tb336 O353 2.322 . S
Tb336 O354 2.349 . S
Tb336 O357 2.415 . S
Tb336 O358 2.399 . S
Tb337 O347 2.322 . S
Tb337 O348 2.349 . S
Tb337 O350 2.415 . S
Tb337 O351 2.399 . S
Tb337 O352 2.325 . S
Tb337 O355 2.303 . S
Tb337 C366 2.764 . S
C338 O354 1.261 . S
C338 O355 1.257 . S
C339 C342 1.358 . S
C339 C343 1.332 . S
C339 C345 1.504 . S
C340 C341 1.373 . S
C340 C344 1.308 . S
C341 C340 1.373 . S
C341 C342 1.429 . S
C341 H368 0.932 . S
C342 C339 1.358 . S
C342 C341 1.429 . S
C342 H369 0.930 . S
C343 C339 1.332 . S
C343 C344 1.394 . S
C343 H370 0.932 . S
C344 C340 1.308 . S
C344 C343 1.394 . S
C344 H371 0.929 . S
C345 Tb336 2.764 . S
C345 C339 1.504 . S
C345 O357 1.239 . S
C345 O358 1.263 . S
O346 Tb336 2.325 . S
O346 C356 1.236 . S
O347 Tb337 2.322 . S
O347 C356 1.257 . S
O348 Tb337 2.349 . S
O348 C359 1.261 . S
O349 Tb336 2.303 . S
O349 C359 1.257 . S
O350 Tb337 2.415 . S
O350 C366 1.239 . S
O351 Tb337 2.399 . S
O351 C366 1.263 . S
O352 Tb337 2.325 . S
O352 C367 1.236 . S
O353 Tb336 2.322 . S
O353 C367 1.257 . S
O354 Tb336 2.349 . S
O354 C338 1.261 . S
O355 Tb337 2.303 . S
O355 C338 1.257 . S
C356 O346 1.236 . S
C356 O347 1.257 . S
O357 Tb336 2.415 . S
O357 C345 1.239 . S
O358 Tb336 2.399 . S
O358 C345 1.263 . S
C359 O348 1.261 . S
C359 O349 1.257 . S
C360 C363 1.358 . S
C360 C364 1.332 . S
C360 C366 1.504 . S
C361 C362 1.373 . S
C361 C365 1.308 . S
C362 C361 1.373 . S
C362 C363 1.429 . S
C362 H372 0.932 . S
C363 C360 1.358 . S
C363 C362 1.429 . S
C363 H373 0.930 . S
C364 C360 1.332 . S
C364 C365 1.394 . S
C364 H374 0.932 . S
C365 C361 1.308 . S
C365 C364 1.394 . S
C365 H375 0.929 . S
C366 Tb337 2.764 . S
C366 O350 1.239 . S
C366 O351 1.263 . S
C366 C360 1.504 . S
C367 O352 1.236 . S
C367 O353 1.257 . S
H368 C341 0.932 . S
H369 C342 0.930 . S
H370 C343 0.932 . S
H371 C344 0.929 . S
H372 C362 0.932 . S
H373 C363 0.930 . S
H374 C364 0.932 . S
H375 C365 0.929 . S
Tb376 C385 2.764 . S
Tb376 O386 2.325 . S
Tb376 O389 2.303 1_556 S
Tb376 O393 2.322 1_655 S
Tb376 O394 2.349 1_655 S
Tb376 O397 2.415 . S
Tb376 O398 2.399 . S
Tb377 O387 2.322 1_455 S
Tb377 O388 2.349 1_455 S
Tb377 O390 2.415 . S
Tb377 O391 2.399 . S
Tb377 O392 2.325 . S
Tb377 O395 2.303 1_554 S
Tb377 C406 2.764 . S
C378 O394 1.261 . S
C378 O395 1.257 . S
C379 C382 1.358 . S
C379 C383 1.332 . S
C379 C385 1.504 . S
C380 C381 1.373 . S
C380 C384 1.308 . S
C381 C380 1.373 . S
C381 C382 1.429 . S
C381 H408 0.932 . S
C382 C379 1.358 . S
C382 C381 1.429 . S
C382 H409 0.930 . S
C383 C379 1.332 . S
C383 C384 1.394 . S
C383 H410 0.932 . S
C384 C380 1.308 . S
C384 C383 1.394 . S
C384 H411 0.929 . S
C385 Tb376 2.764 . S
C385 C379 1.504 . S
C385 O397 1.239 . S
C385 O398 1.263 . S
O386 Tb376 2.325 . S
O386 C396 1.236 . S
O387 Tb377 2.322 1_655 S
O387 C396 1.257 1_554 S
O388 Tb377 2.349 1_655 S
O388 C399 1.261 . S
O389 Tb376 2.303 1_554 S
O389 C399 1.257 . S
O390 Tb377 2.415 . S
O390 C406 1.239 . S
O391 Tb377 2.399 . S
O391 C406 1.263 . S
O392 Tb377 2.325 . S
O392 C407 1.236 . S
O393 Tb376 2.322 1_455 S
O393 C407 1.257 1_556 S
O394 Tb376 2.349 1_455 S
O394 C378 1.261 . S
O395 Tb377 2.303 1_556 S
O395 C378 1.257 . S
C396 O386 1.236 . S
C396 O387 1.257 1_556 S
O397 Tb376 2.415 . S
O397 C385 1.239 . S
O398 Tb376 2.399 . S
O398 C385 1.263 . S
C399 O388 1.261 . S
C399 O389 1.257 . S
C400 C403 1.358 . S
C400 C404 1.332 . S
C400 C406 1.504 . S
C401 C402 1.373 . S
C401 C405 1.308 . S
C402 C401 1.373 . S
C402 C403 1.429 . S
C402 H412 0.932 . S
C403 C400 1.358 . S
C403 C402 1.429 . S
C403 H413 0.930 . S
C404 C400 1.332 . S
C404 C405 1.394 . S
C404 H414 0.932 . S
C405 C401 1.308 . S
C405 C404 1.394 . S
C405 H415 0.929 . S
C406 Tb377 2.764 . S
C406 O390 1.239 . S
C406 O391 1.263 . S
C406 C400 1.504 . S
C407 O392 1.236 . S
C407 O393 1.257 1_554 S
H408 C381 0.932 . S
H409 C382 0.930 . S
H410 C383 0.932 . S
H411 C384 0.929 . S
H412 C402 0.932 . S
H413 C403 0.930 . S
H414 C404 0.932 . S
H415 C405 0.929 . S
C416 C417 1.369 . S
C416 C418 1.419 . S
C416 H420 0.930 . S
C417 C416 1.369 . S
C417 C426 1.429 . S
C418 C416 1.419 . S
C418 C419 1.363 . S
C418 H421 0.929 . S
C419 C418 1.363 . S
C419 C425 1.428 . S
H420 C416 0.930 . S
H421 C418 0.929 . S
S422 N423 1.613 . S
S422 N424 1.610 . S
N423 S422 1.613 . S
N423 C426 1.350 . S
N424 S422 1.610 . S
N424 C425 1.351 . S
C425 C419 1.428 . S
C425 N424 1.351 . S
C425 C426 1.434 . S
C426 C417 1.429 . S
C426 N423 1.350 . S
C426 C425 1.434 . S
C427 C428 1.369 . S
C427 C429 1.419 . S
C427 H431 0.930 . S
C428 C427 1.369 . S
C428 C437 1.429 . S
C429 C427 1.419 . S
C429 C430 1.363 . S
C429 H432 0.929 . S
C430 C429 1.363 . S
C430 C436 1.428 . S
H431 C427 0.930 . S
H432 C429 0.929 . S
S433 N434 1.613 . S
S433 N435 1.610 . S
N434 S433 1.613 . S
N434 C437 1.350 . S
N435 S433 1.610 . S
N435 C436 1.351 . S
C436 C430 1.428 . S
C436 N435 1.351 . S
C436 C437 1.434 . S
C437 C428 1.429 . S
C437 N434 1.350 . S
C437 C436 1.434 . S
C438 C439 1.369 . S
C438 C440 1.419 . S
C438 H442 0.930 . S
C439 C438 1.369 . S
C439 C448 1.429 . S
C440 C438 1.419 . S
C440 C441 1.363 . S
C440 H443 0.929 . S
C441 C440 1.363 . S
C441 C447 1.428 . S
H442 C438 0.930 . S
H443 C440 0.929 . S
S444 N445 1.613 . S
S444 N446 1.610 . S
N445 S444 1.613 . S
N445 C448 1.350 . S
N446 S444 1.610 . S
N446 C447 1.351 . S
C447 C441 1.428 . S
C447 N446 1.351 . S
C447 C448 1.434 . S
C448 C439 1.429 . S
C448 N445 1.350 . S
C448 C447 1.434 . S
C449 C450 1.369 . S
C449 C451 1.419 . S
C449 H453 0.930 . S
C450 C449 1.369 . S
C450 C459 1.429 . S
C451 C449 1.419 . S
C451 C452 1.363 . S
C451 H454 0.929 . S
C452 C451 1.363 . S
C452 C458 1.428 . S
H453 C449 0.930 . S
H454 C451 0.929 . S
S455 N456 1.613 . S
S455 N457 1.610 . S
N456 S455 1.613 . S
N456 C459 1.350 . S
N457 S455 1.610 . S
N457 C458 1.351 . S
C458 C452 1.428 . S
C458 N457 1.351 . S
C458 C459 1.434 . S
C459 C450 1.429 . S
C459 N456 1.350 . S
C459 C458 1.434 . S
C460 C461 1.369 . S
C460 C462 1.419 . S
C460 H464 0.930 . S
C461 C460 1.369 . S
C461 C470 1.429 . S
C462 C460 1.419 . S
C462 C463 1.363 . S
C462 H465 0.929 . S
C463 C462 1.363 . S
C463 C469 1.428 . S
H464 C460 0.930 . S
H465 C462 0.929 . S
S466 N467 1.613 . S
S466 N468 1.610 . S
N467 S466 1.613 . S
N467 C470 1.350 . S
N468 S466 1.610 . S
N468 C469 1.351 . S
C469 C463 1.428 . S
C469 N468 1.351 . S
C469 C470 1.434 . S
C470 C461 1.429 . S
C470 N467 1.350 . S
C470 C469 1.434 . S
C471 C472 1.389 . S
C471 C473 1.416 . S
C471 H475 0.912 1_455 S
C472 C471 1.389 . S
C472 C481 1.429 . S
C473 C471 1.416 . S
C473 C474 1.363 . S
C473 H476 0.929 1_455 S
C474 C473 1.363 . S
C474 C480 1.428 . S
H475 C471 0.912 1_655 S
H476 C473 0.929 1_655 S
S477 N478 1.613 . S
S477 N479 1.610 . S
N478 S477 1.613 . S
N478 C481 1.350 . S
N479 S477 1.610 . S
N479 C480 1.351 . S
C480 C474 1.428 . S
C480 N479 1.351 . S
C480 C481 1.434 . S
C481 C472 1.429 . S
C481 N478 1.350 . S
C481 C480 1.434 . S
C482 C483 1.369 . S
C482 C484 1.419 . S
C482 H486 0.930 . S
C483 C482 1.369 . S
C483 C492 1.429 . S
C484 C482 1.419 . S
C484 C485 1.363 . S
C484 H487 0.929 . S
C485 C484 1.363 . S
C485 C491 1.428 . S
H486 C482 0.930 . S
H487 C484 0.929 . S
S488 N489 1.613 . S
S488 N490 1.610 . S
N489 S488 1.613 . S
N489 C492 1.350 . S
N490 S488 1.610 . S
N490 C491 1.351 . S
C491 C485 1.428 . S
C491 N490 1.351 . S
C491 C492 1.434 . S
C492 C483 1.429 . S
C492 N489 1.350 . S
C492 C491 1.434 . S
C493 C494 1.369 . S
C493 C495 1.419 . S
C493 H497 0.930 . S
C494 C493 1.369 . S
C494 C503 1.429 . S
C495 C493 1.419 . S
C495 C496 1.363 . S
C495 H498 0.929 . S
C496 C495 1.363 . S
C496 C502 1.428 . S
H497 C493 0.930 . S
H498 C495 0.929 . S
S499 N500 1.613 . S
S499 N501 1.610 . S
N500 S499 1.613 . S
N500 C503 1.350 . S
N501 S499 1.610 . S
N501 C502 1.351 . S
C502 C496 1.428 . S
C502 N501 1.351 . S
C502 C503 1.434 . S
C503 C494 1.429 . S
C503 N500 1.350 . S
C503 C502 1.434 . S
C504 C505 1.369 . S
C504 C506 1.419 . S
C504 H508 0.930 . S
C505 C504 1.369 . S
C505 C514 1.429 . S
C506 C504 1.419 . S
C506 C507 1.363 . S
C506 H509 0.929 . S
C507 C506 1.363 . S
C507 C513 1.428 . S
H508 C504 0.930 . S
H509 C506 0.929 . S
S510 N511 1.613 . S
S510 N512 1.610 . S
N511 S510 1.613 . S
N511 C514 1.350 . S
N512 S510 1.610 . S
N512 C513 1.351 . S
C513 C507 1.428 . S
C513 N512 1.351 . S
C513 C514 1.434 . S
C514 C505 1.429 . S
C514 N511 1.350 . S
C514 C513 1.434 . S
C515 C516 1.369 . S
C515 C517 1.419 . S
C515 H519 0.930 . S
C516 C515 1.369 . S
C516 C525 1.429 . S
C517 C515 1.419 . S
C517 C518 1.363 . S
C517 H520 0.929 . S
C518 C517 1.363 . S
C518 C524 1.428 . S
H519 C515 0.930 . S
H520 C517 0.929 . S
S521 N522 1.613 . S
S521 N523 1.610 . S
N522 S521 1.613 . S
N522 C525 1.350 . S
N523 S521 1.610 . S
N523 C524 1.351 . S
C524 C518 1.428 . S
C524 N523 1.351 . S
C524 C525 1.434 . S
C525 C516 1.429 . S
C525 N522 1.350 . S
C525 C524 1.434 . S
C526 C527 1.369 . S
C526 C528 1.419 . S
C526 H530 0.930 . S
C527 C526 1.369 . S
C527 C536 1.429 . S
C528 C526 1.419 . S
C528 C529 1.363 . S
C528 H531 0.929 . S
C529 C528 1.363 . S
C529 C535 1.428 . S
H530 C526 0.930 . S
H531 C528 0.929 . S
S532 N533 1.634 . S
S532 N534 1.610 . S
N533 S532 1.634 . S
N533 C536 1.327 1_455 S
N534 S532 1.610 . S
N534 C535 1.351 1_455 S
C535 C529 1.428 . S
C535 N534 1.351 1_655 S
C535 C536 1.434 . S
C536 C527 1.429 . S
C536 N533 1.327 1_655 S
C536 C535 1.434 . S
C537 C538 1.369 . S
C537 C539 1.419 . S
C537 H541 0.930 . S
C538 C537 1.369 . S
C538 C547 1.429 . S
C539 C537 1.419 . S
C539 C540 1.363 . S
C539 H542 0.929 . S
C540 C539 1.363 . S
C540 C546 1.428 . S
H541 C537 0.930 . S
H542 C539 0.929 . S
S543 N544 1.613 . S
S543 N545 1.610 . S
N544 S543 1.613 . S
N544 C547 1.350 . S
N545 S543 1.610 . S
N545 C546 1.351 . S
C546 C540 1.428 . S
C546 N545 1.351 . S
C546 C547 1.434 . S
C547 C538 1.429 . S
C547 N544 1.350 . S
C547 C546 1.434 . S
C548 C549 1.369 . S
C548 C550 1.419 . S
C548 H552 0.930 . S
C549 C548 1.369 . S
C549 C558 1.429 . S
C550 C548 1.419 . S
C550 C551 1.363 . S
C550 H553 0.929 . S
C551 C550 1.363 . S
C551 C557 1.428 . S
H552 C548 0.930 . S
H553 C550 0.929 . S
S554 N555 1.613 . S
S554 N556 1.610 . S
N555 S554 1.613 . S
N555 C558 1.350 . S
N556 S554 1.610 . S
N556 C557 1.351 . S
C557 C551 1.428 . S
C557 N556 1.351 . S
C557 C558 1.434 . S
C558 C549 1.429 . S
C558 N555 1.350 . S
C558 C557 1.434 . S
C559 C560 1.369 . S
C559 C561 1.419 . S
C559 H563 0.930 . S
C560 C559 1.369 . S
C560 C569 1.429 . S
C561 C559 1.419 . S
C561 C562 1.363 . S
C561 H564 0.929 . S
C562 C561 1.363 . S
C562 C568 1.428 . S
H563 C559 0.930 . S
H564 C561 0.929 . S
S565 N566 1.613 . S
S565 N567 1.610 . S
N566 S565 1.613 . S
N566 C569 1.350 . S
N567 S565 1.610 . S
N567 C568 1.351 . S
C568 C562 1.428 . S
C568 N567 1.351 . S
C568 C569 1.434 . S
C569 C560 1.429 . S
C569 N566 1.350 . S
C569 C568 1.434 . S
C570 C571 1.369 . S
C570 C572 1.419 . S
C570 H574 0.930 . S
C571 C570 1.369 . S
C571 C580 1.429 . S
C572 C570 1.419 . S
C572 C573 1.363 . S
C572 H575 0.929 . S
C573 C572 1.363 . S
C573 C579 1.428 . S
H574 C570 0.930 . S
H575 C572 0.929 . S
S576 N577 1.613 . S
S576 N578 1.610 . S
N577 S576 1.613 . S
N577 C580 1.350 . S
N578 S576 1.610 . S
N578 C579 1.351 . S
C579 C573 1.428 . S
C579 N578 1.351 . S
C579 C580 1.434 . S
C580 C571 1.429 . S
C580 N577 1.350 . S
C580 C579 1.434 . S
C581 C582 1.369 . S
C581 C583 1.419 . S
C581 H585 0.930 . S
C582 C581 1.369 . S
C582 C591 1.429 . S
C583 C581 1.419 . S
C583 C584 1.363 . S
C583 H586 0.929 . S
C584 C583 1.363 . S
C584 C590 1.428 . S
H585 C581 0.930 . S
H586 C583 0.929 . S
S587 N588 1.613 1_655 S
S587 N589 1.610 1_655 S
N588 S587 1.613 1_455 S
N588 C591 1.350 . S
N589 S587 1.610 1_455 S
N589 C590 1.351 . S
C590 C584 1.428 . S
C590 N589 1.351 . S
C590 C591 1.434 . S
C591 C582 1.429 . S
C591 N588 1.350 . S
C591 C590 1.434 . S
C592 C593 1.369 . S
C592 C594 1.419 . S
C592 H596 0.930 . S
C593 C592 1.369 . S
C593 C602 1.429 . S
C594 C592 1.419 . S
C594 C595 1.363 . S
C594 H597 0.929 . S
C595 C594 1.363 . S
C595 C601 1.428 . S
H596 C592 0.930 . S
H597 C594 0.929 . S
S598 N599 1.613 . S
S598 N600 1.610 . S
N599 S598 1.613 . S
N599 C602 1.350 . S
N600 S598 1.610 . S
N600 C601 1.351 . S
C601 C595 1.428 . S
C601 N600 1.351 . S
C601 C602 1.434 . S
C602 C593 1.429 . S
C602 N599 1.350 . S
C602 C601 1.434 . S
C603 C604 1.369 1_455 S
C603 C605 1.417 . S
C603 H607 0.930 . S
C604 C603 1.369 1_655 S
C604 C613 1.429 . S
C605 C603 1.417 . S
C605 C606 1.347 1_455 S
C605 H608 0.949 . S
C606 C605 1.347 1_655 S
C606 C612 1.428 . S
H607 C603 0.930 . S
H608 C605 0.949 . S
S609 N610 1.613 . S
S609 N611 1.610 . S
N610 S609 1.613 . S
N610 C613 1.350 . S
N611 S609 1.610 . S
N611 C612 1.351 . S
C612 C606 1.428 . S
C612 N611 1.351 . S
C612 C613 1.434 . S
C613 C604 1.429 . S
C613 N610 1.350 . S
C613 C612 1.434 . S
C614 C615 1.369 . S
C614 C616 1.419 . S
C614 H618 0.930 . S
C615 C614 1.369 . S
C615 C624 1.429 . S
C616 C614 1.419 . S
C616 C617 1.363 . S
C616 H619 0.929 . S
C617 C616 1.363 . S
C617 C623 1.428 . S
H618 C614 0.930 . S
H619 C616 0.929 . S
S620 N621 1.613 . S
S620 N622 1.610 . S
N621 S620 1.613 . S
N621 C624 1.350 . S
N622 S620 1.610 . S
N622 C623 1.351 . S
C623 C617 1.428 . S
C623 N622 1.351 . S
C623 C624 1.434 . S
C624 C615 1.429 . S
C624 N621 1.350 . S
C624 C623 1.434 . S
C625 C626 1.369 . S
C625 C627 1.419 . S
C625 H629 0.930 . S
C626 C625 1.369 . S
C626 C635 1.429 . S
C627 C625 1.419 . S
C627 C628 1.363 . S
C627 H630 0.929 . S
C628 C627 1.363 . S
C628 C634 1.428 . S
H629 C625 0.930 . S
H630 C627 0.929 . S
S631 N632 1.613 . S
S631 N633 1.610 . S
N632 S631 1.613 . S
N632 C635 1.350 . S
N633 S631 1.610 . S
N633 C634 1.351 . S
C634 C628 1.428 . S
C634 N633 1.351 . S
C634 C635 1.434 . S
C635 C626 1.429 . S
C635 N632 1.350 . S
C635 C634 1.434 . S
C636 C637 1.369 . S
C636 C638 1.419 . S
C636 H640 0.930 . S
C637 C636 1.369 . S
C637 C646 1.429 . S
C638 C636 1.419 . S
C638 C639 1.363 . S
C638 H641 0.929 . S
C639 C638 1.363 . S
C639 C645 1.428 . S
H640 C636 0.930 . S
H641 C638 0.929 . S
S642 N643 1.613 . S
S642 N644 1.610 . S
N643 S642 1.613 . S
N643 C646 1.350 . S
N644 S642 1.610 . S
N644 C645 1.351 . S
C645 C639 1.428 . S
C645 N644 1.351 . S
C645 C646 1.434 . S
C646 C637 1.429 . S
C646 N643 1.350 . S
C646 C645 1.434 . S
C647 C648 1.369 . S
C647 C649 1.419 . S
C647 H651 0.930 . S
C648 C647 1.369 . S
C648 C657 1.429 . S
C649 C647 1.419 . S
C649 C650 1.363 . S
C649 H652 0.929 . S
C650 C649 1.363 . S
C650 C656 1.428 . S
H651 C647 0.930 . S
H652 C649 0.929 . S
S653 N654 1.613 . S
S653 N655 1.610 . S
N654 S653 1.613 . S
N654 C657 1.350 . S
N655 S653 1.610 . S
N655 C656 1.351 . S
C656 C650 1.428 . S
C656 N655 1.351 . S
C656 C657 1.434 . S
C657 C648 1.429 . S
C657 N654 1.350 . S
C657 C656 1.434 . S
C658 C659 1.369 . S
C658 C660 1.419 . S
C658 H662 0.930 . S
C659 C658 1.369 . S
C659 C668 1.429 . S
C660 C658 1.419 . S
C660 C661 1.363 . S
C660 H663 0.938 . S
C661 C660 1.363 . S
C661 C667 1.428 . S
H662 C658 0.930 . S
H663 C660 0.938 . S
S664 N665 1.613 . S
S664 N666 1.610 . S
N665 S664 1.613 . S
N665 C668 1.350 . S
N666 S664 1.610 . S
N666 C667 1.351 . S
C667 C661 1.428 . S
C667 N666 1.351 . S
C667 C668 1.434 . S
C668 C659 1.429 . S
C668 N665 1.350 . S
C668 C667 1.434 . S
C669 C670 1.369 . S
C669 C671 1.419 . S
C669 H673 0.930 . S
C670 C669 1.369 . S
C670 C679 1.429 . S
C671 C669 1.419 . S
C671 C672 1.363 . S
C671 H674 0.929 . S
C672 C671 1.363 . S
C672 C678 1.428 . S
H673 C669 0.930 . S
H674 C671 0.929 . S
S675 N676 1.613 . S
S675 N677 1.610 . S
N676 S675 1.613 . S
N676 C679 1.350 . S
N677 S675 1.610 . S
N677 C678 1.351 . S
C678 C672 1.428 . S
C678 N677 1.351 . S
C678 C679 1.434 . S
C679 C670 1.429 . S
C679 N676 1.350 . S
C679 C678 1.434 . S
C417 C29 1.056 . S
C419 C260 1.055 . S
C428 C49 1.021 . S
C430 C321 1.168 . S
C441 C359 2.573 . S
C439 C93 2.562 . S
C450 C119 2.332 . S
C452 C399 2.335 . S
C463 C319 1.365 . S
C461 C17 1.341 . S
C474 C287 2.126 . S
C472 C61 1.766 . S
C485 C396 1.819 . S
C483 C81 1.788 . S
C496 C356 1.956 . S
C494 C125 1.942 . S
C505 C23 1.306 . S
C507 C401 1.281 . S
C518 C316 2.378 . S
C516 C87 2.302 . S
C527 C113 2.243 . S
C529 C258 2.243 . S
C538 C55 1.385 . S
C540 C361 1.623 . S
C551 C281 1.068 . S
C549 C157 0.927 . S
C560 C189 1.194 . S
C562 C300 1.201 . S
C571 C221 2.592 . S
C573 C338 2.542 . S
C582 C253 2.389 . S
C584 C378 2.410 . S
C593 C145 1.243 . S
C595 C298 1.454 . S
C606 C276 2.115 . S
C604 C183 2.071 . S
C617 C407 1.851 . S
C615 C209 1.836 . S
C628 C367 1.916 . S
C626 C247 1.899 . S
C637 C151 1.227 . S
C639 C380 1.319 . S
C650 C327 2.375 . S
C648 C215 2.361 . S
C661 C279 2.223 . S
C659 C241 2.203 . S
C670 C177 1.631 . S
C672 C340 1.613 . S
