# Generated by pormake.
# Topology eea, (3,6)-cn, num edge types: 1
# Building blocks:
#     Node 0, Type 0, BuildingBlock: VETTIZ_charged_linker_0, # of connection points: 3
#     Node 1, Type 0, BuildingBlock: VETTIZ_charged_linker_0, # of connection points: 3
#     Node 2, Type 0, BuildingBlock: VETTIZ_charged_linker_0, # of connection points: 3
#     Node 3, Type 0, BuildingBlock: VETTIZ_charged_linker_0, # of connection points: 3
#     Node 4, Type 0, BuildingBlock: VETTIZ_charged_linker_0, # of connection points: 3
#     Node 5, Type 0, BuildingBlock: VETTIZ_charged_linker_0, # of connection points: 3
#     Node 6, Type 0, BuildingBlock: VETTIZ_charged_linker_0, # of connection points: 3
#     Node 7, Type 0, BuildingBlock: VETTIZ_charged_linker_0, # of connection points: 3
#     Node 8, Type 0, BuildingBlock: VETTIZ_charged_linker_0, # of connection points: 3
#     Node 9, Type 0, BuildingBlock: VETTIZ_charged_linker_0, # of connection points: 3
#     Node 10, Type 0, BuildingBlock: VETTIZ_charged_linker_0, # of connection points: 3
#     Node 11, Type 0, BuildingBlock: VETTIZ_charged_linker_0, # of connection points: 3
#     Node 12, Type 0, BuildingBlock: VETTIZ_charged_linker_0, # of connection points: 3
#     Node 13, Type 0, BuildingBlock: VETTIZ_charged_linker_0, # of connection points: 3
#     Node 14, Type 0, BuildingBlock: VETTIZ_charged_linker_0, # of connection points: 3
#     Node 15, Type 0, BuildingBlock: VETTIZ_charged_linker_0, # of connection points: 3
#     Node 16, Type 0, BuildingBlock: VETTIZ_charged_linker_0, # of connection points: 3
#     Node 17, Type 0, BuildingBlock: VETTIZ_charged_linker_0, # of connection points: 3
#     Node 18, Type 1, BuildingBlock: LEVNOQ01_clean_sbu_1, # of connection points: 6
#     Node 19, Type 1, BuildingBlock: LEVNOQ01_clean_sbu_1, # of connection points: 6
#     Node 20, Type 1, BuildingBlock: LEVNOQ01_clean_sbu_1, # of connection points: 6
#     Node 21, Type 1, BuildingBlock: LEVNOQ01_clean_sbu_1, # of connection points: 6
#     Node 22, Type 1, BuildingBlock: LEVNOQ01_clean_sbu_1, # of connection points: 6
#     Node 23, Type 1, BuildingBlock: LEVNOQ01_clean_sbu_1, # of connection points: 6
#     Node 24, Type 1, BuildingBlock: LEVNOQ01_clean_sbu_1, # of connection points: 6
#     Node 25, Type 1, BuildingBlock: LEVNOQ01_clean_sbu_1, # of connection points: 6
#     Node 26, Type 1, BuildingBlock: LEVNOQ01_clean_sbu_1, # of connection points: 6
#     Edge 27, Type (0, 1), BuildingBlock: AJUNOK_clean_linker_0, # of connection points: 2
#     Edge 28, Type (0, 1), BuildingBlock: AJUNOK_clean_linker_0, # of connection points: 2
#     Edge 29, Type (0, 1), BuildingBlock: AJUNOK_clean_linker_0, # of connection points: 2
#     Edge 30, Type (0, 1), BuildingBlock: AJUNOK_clean_linker_0, # of connection points: 2
#     Edge 31, Type (0, 1), BuildingBlock: AJUNOK_clean_linker_0, # of connection points: 2
#     Edge 32, Type (0, 1), BuildingBlock: AJUNOK_clean_linker_0, # of connection points: 2
#     Edge 33, Type (0, 1), BuildingBlock: AJUNOK_clean_linker_0, # of connection points: 2
#     Edge 34, Type (0, 1), BuildingBlock: AJUNOK_clean_linker_0, # of connection points: 2
#     Edge 35, Type (0, 1), BuildingBlock: AJUNOK_clean_linker_0, # of connection points: 2
#     Edge 36, Type (0, 1), BuildingBlock: AJUNOK_clean_linker_0, # of connection points: 2
#     Edge 37, Type (0, 1), BuildingBlock: AJUNOK_clean_linker_0, # of connection points: 2
#     Edge 38, Type (0, 1), BuildingBlock: AJUNOK_clean_linker_0, # of connection points: 2
#     Edge 39, Type (0, 1), BuildingBlock: AJUNOK_clean_linker_0, # of connection points: 2
#     Edge 40, Type (0, 1), BuildingBlock: AJUNOK_clean_linker_0, # of connection points: 2
#     Edge 41, Type (0, 1), BuildingBlock: AJUNOK_clean_linker_0, # of connection points: 2
#     Edge 42, Type (0, 1), BuildingBlock: AJUNOK_clean_linker_0, # of connection points: 2
#     Edge 43, Type (0, 1), BuildingBlock: AJUNOK_clean_linker_0, # of connection points: 2
#     Edge 44, Type (0, 1), BuildingBlock: AJUNOK_clean_linker_0, # of connection points: 2
#     Edge 45, Type (0, 1), BuildingBlock: AJUNOK_clean_linker_0, # of connection points: 2
#     Edge 46, Type (0, 1), BuildingBlock: AJUNOK_clean_linker_0, # of connection points: 2
#     Edge 47, Type (0, 1), BuildingBlock: AJUNOK_clean_linker_0, # of connection points: 2
#     Edge 48, Type (0, 1), BuildingBlock: AJUNOK_clean_linker_0, # of connection points: 2
#     Edge 49, Type (0, 1), BuildingBlock: AJUNOK_clean_linker_0, # of connection points: 2
#     Edge 50, Type (0, 1), BuildingBlock: AJUNOK_clean_linker_0, # of connection points: 2
#     Edge 51, Type (0, 1), BuildingBlock: AJUNOK_clean_linker_0, # of connection points: 2
#     Edge 52, Type (0, 1), BuildingBlock: AJUNOK_clean_linker_0, # of connection points: 2
#     Edge 53, Type (0, 1), BuildingBlock: AJUNOK_clean_linker_0, # of connection points: 2
#     Edge 54, Type (0, 1), BuildingBlock: AJUNOK_clean_linker_0, # of connection points: 2
#     Edge 55, Type (0, 1), BuildingBlock: AJUNOK_clean_linker_0, # of connection points: 2
#     Edge 56, Type (0, 1), BuildingBlock: AJUNOK_clean_linker_0, # of connection points: 2
#     Edge 57, Type (0, 1), BuildingBlock: AJUNOK_clean_linker_0, # of connection points: 2
#     Edge 58, Type (0, 1), BuildingBlock: AJUNOK_clean_linker_0, # of connection points: 2
#     Edge 59, Type (0, 1), BuildingBlock: AJUNOK_clean_linker_0, # of connection points: 2
#     Edge 60, Type (0, 1), BuildingBlock: AJUNOK_clean_linker_0, # of connection points: 2
#     Edge 61, Type (0, 1), BuildingBlock: AJUNOK_clean_linker_0, # of connection points: 2
#     Edge 62, Type (0, 1), BuildingBlock: AJUNOK_clean_linker_0, # of connection points: 2
#     Edge 63, Type (0, 1), BuildingBlock: AJUNOK_clean_linker_0, # of connection points: 2
#     Edge 64, Type (0, 1), BuildingBlock: AJUNOK_clean_linker_0, # of connection points: 2
#     Edge 65, Type (0, 1), BuildingBlock: AJUNOK_clean_linker_0, # of connection points: 2
#     Edge 66, Type (0, 1), BuildingBlock: AJUNOK_clean_linker_0, # of connection points: 2
#     Edge 67, Type (0, 1), BuildingBlock: AJUNOK_clean_linker_0, # of connection points: 2
#     Edge 68, Type (0, 1), BuildingBlock: AJUNOK_clean_linker_0, # of connection points: 2
#     Edge 69, Type (0, 1), BuildingBlock: AJUNOK_clean_linker_0, # of connection points: 2
#     Edge 70, Type (0, 1), BuildingBlock: AJUNOK_clean_linker_0, # of connection points: 2
#     Edge 71, Type (0, 1), BuildingBlock: AJUNOK_clean_linker_0, # of connection points: 2
#     Edge 72, Type (0, 1), BuildingBlock: AJUNOK_clean_linker_0, # of connection points: 2
#     Edge 73, Type (0, 1), BuildingBlock: AJUNOK_clean_linker_0, # of connection points: 2
#     Edge 74, Type (0, 1), BuildingBlock: AJUNOK_clean_linker_0, # of connection points: 2
#     Edge 75, Type (0, 1), BuildingBlock: AJUNOK_clean_linker_0, # of connection points: 2
#     Edge 76, Type (0, 1), BuildingBlock: AJUNOK_clean_linker_0, # of connection points: 2
#     Edge 77, Type (0, 1), BuildingBlock: AJUNOK_clean_linker_0, # of connection points: 2
#     Edge 78, Type (0, 1), BuildingBlock: AJUNOK_clean_linker_0, # of connection points: 2
#     Edge 79, Type (0, 1), BuildingBlock: AJUNOK_clean_linker_0, # of connection points: 2
#     Edge 80, Type (0, 1), BuildingBlock: AJUNOK_clean_linker_0, # of connection points: 2
# Relax obj value: 0.096
# Max RMSD: 0.184
# Mean RMSD: 0.093
data_MOF--net-eea--node1-LEVNOQ01_clean_sbu_1--node2-VETTIZ_charged_linker_0--edge1-AJUNOK_clean_linker_0
_symmetry_space_group_name_H-M    P1
_symmetry_Int_Tables_number       1
_symmetry_cell_setting            triclinic
loop_
_symmetry_equiv_pos_as_xyz
'x, y, z'
_cell_length_a     52.047886
_cell_length_b     51.803736
_cell_length_c     53.77901
_cell_angle_alpha  89.890297
_cell_angle_beta   89.959892
_cell_angle_gamma 120.02708
loop_
_atom_site_label
_atom_site_type_symbol
_atom_site_fract_x
_atom_site_fract_y
_atom_site_fract_z
_atom_type_partial_charge
C0 C 0.20432 0.17258 0.37301 0.0
C1 C 0.20223 0.19389 0.38776 0.0
C2 C 0.21681 0.20167 0.41091 0.0
C3 C 0.2322 0.16492 0.40531 0.0
C4 C 0.21862 0.15789 0.38234 0.0
C5 C 0.21861 0.13152 0.37061 0.0
H6 H 0.23547 0.01165 0.38744 0.0
C7 C 0.24277 0.1438 0.41049 0.0
C8 C 0.23436 0.12379 0.3905 0.0
H9 H 0.19208 0.02922 0.32667 0.0
H10 H 0.20882 0.07886 0.34267 0.0
H11 H 0.29313 0.07443 0.38815 0.0
H12 H 0.21203 0.03771 0.43 0.0
H13 H 0.24187 0.05522 0.45086 0.0
H14 H 0.23843 0.02509 0.43215 0.0
H15 H 0.28791 0.05293 0.41578 0.0
H16 H 0.30317 0.09286 0.41694 0.0
C17 C 0.23718 0.14201 0.34643 0.0
C18 C 0.18591 0.10643 0.36658 0.0
C19 C 0.2894 0.14643 0.49386 0.0
C20 C 0.29953 0.12835 0.50448 0.0
C21 C 0.29991 0.10588 0.49015 0.0
C22 C 0.28961 0.10099 0.46564 0.0
C23 C 0.27821 0.11829 0.45565 0.0
C24 C 0.27911 0.14119 0.4694 0.0
C25 C 0.26646 0.15754 0.45555 0.0
C26 C 0.25735 0.14024 0.43136 0.0
C27 C 0.26386 0.11705 0.43178 0.0
C28 C 0.29163 0.1901 0.45149 0.0
C29 C 0.23942 0.15439 0.47039 0.0
C30 C 0.22902 0.02594 0.37787 0.0
C31 C 0.21151 0.01619 0.3564 0.0
C32 C 0.20499 0.03605 0.34364 0.0
C33 C 0.21452 0.0647 0.35298 0.0
C34 C 0.23027 0.0733 0.37546 0.0
C35 C 0.23791 0.05433 0.38714 0.0
C36 C 0.25442 0.06692 0.41094 0.0
C37 C 0.25425 0.09607 0.4122 0.0
C38 C 0.23998 0.09966 0.39147 0.0
C39 C 0.28627 0.07194 0.40801 0.0
C40 C 0.23602 0.04522 0.43223 0.0
H41 H 0.24234 0.19412 0.43754 0.0
H42 H 0.19452 0.16686 0.35466 0.0
H43 H 0.16984 0.11066 0.37688 0.0
H44 H 0.18167 0.08455 0.37365 0.0
H45 H 0.17964 0.10416 0.34663 0.0
H46 H 0.25863 0.16284 0.34974 0.0
H47 H 0.22514 0.14668 0.33165 0.0
H48 H 0.24286 0.12547 0.33933 0.0
H49 H 0.2887 0.16375 0.50459 0.0
H50 H 0.30807 0.09207 0.498 0.0
H51 H 0.2902 0.08341 0.45566 0.0
H52 H 0.31261 0.19078 0.44608 0.0
H53 H 0.29602 0.20335 0.46879 0.0
H54 H 0.2869 0.20144 0.43627 0.0
H55 H 0.22916 0.13392 0.48212 0.0
H56 H 0.22117 0.15182 0.45824 0.0
H57 H 0.246 0.17373 0.48291 0.0
H58 H 0.21599 0.21832 0.4225 0.0
C59 C 0.23202 0.18751 0.41965 0.0
C60 C 0.95164 0.18317 0.35886 0.0
C61 C 0.97188 0.21077 0.36923 0.0
C62 C 0.96377 0.22126 0.39023 0.0
C63 C 0.91647 0.17569 0.39164 0.0
C64 C 0.92391 0.16617 0.3702 0.0
C65 C 0.89962 0.13615 0.36187 0.0
H66 H 0.76552 0.01512 0.3839 0.0
C67 C 0.88688 0.15219 0.39966 0.0
C68 C 0.87668 0.12917 0.38207 0.0
H69 H 0.82669 0.0282 0.32451 0.0
H70 H 0.86062 0.07818 0.33937 0.0
H71 H 0.80889 0.0363 0.42385 0.0
H72 H 0.77411 0.08256 0.38282 0.0
H73 H 0.77612 0.09365 0.41401 0.0
H74 H 0.75398 0.05469 0.40605 0.0
H75 H 0.77615 0.03635 0.43394 0.0
H76 H 0.81258 0.06387 0.4446 0.0
C77 C 0.91175 0.11419 0.36206 0.0
C78 C 0.88852 0.13996 0.33616 0.0
C79 C 0.8476 0.1548 0.48578 0.0
C80 C 0.82145 0.13421 0.49816 0.0
C81 C 0.79891 0.11008 0.48516 0.0
C82 C 0.80284 0.10545 0.46025 0.0
C83 C 0.82978 0.12495 0.44839 0.0
C84 C 0.85128 0.14975 0.46074 0.0
C85 C 0.87811 0.16818 0.44456 0.0
C86 C 0.86974 0.14904 0.42123 0.0
C87 C 0.8416 0.12373 0.42388 0.0
C88 C 0.9056 0.17029 0.4576 0.0
C89 C 0.88052 0.19881 0.43956 0.0
C90 C 0.78622 0.02896 0.37413 0.0
C91 C 0.79388 0.01824 0.35327 0.0
C92 C 0.82084 0.03637 0.34086 0.0
C93 C 0.84029 0.06524 0.34944 0.0
C94 C 0.83262 0.07563 0.37075 0.0
C95 C 0.80597 0.05751 0.38268 0.0
C96 C 0.80219 0.07124 0.40585 0.0
C97 C 0.83097 0.10078 0.4059 0.0
C98 C 0.84852 0.10336 0.38522 0.0
C99 C 0.79963 0.05101 0.42827 0.0
C100 C 0.77509 0.07567 0.40225 0.0
H101 H 0.93126 0.21266 0.41771 0.0
H102 H 0.95738 0.17493 0.34249 0.0
H103 H 0.88675 0.1605 0.33575 0.0
H104 H 0.8661 0.12155 0.3316 0.0
H105 H 0.90409 0.14194 0.32116 0.0
H106 H 0.93014 0.12112 0.37566 0.0
H107 H 0.92047 0.113 0.3435 0.0
H108 H 0.89493 0.09146 0.36802 0.0
H109 H 0.86496 0.17378 0.49556 0.0
H110 H 0.77853 0.09439 0.49453 0.0
H111 H 0.7851 0.08631 0.45144 0.0
H112 H 0.9008 0.14787 0.46399 0.0
H113 H 0.9119 0.18506 0.47412 0.0
H114 H 0.92517 0.17874 0.44536 0.0
H115 H 0.85884 0.19782 0.4422 0.0
H116 H 0.8869 0.20633 0.42009 0.0
H117 H 0.89671 0.21621 0.4523 0.0
H118 H 0.97924 0.24264 0.39832 0.0
C119 C 0.93609 0.20385 0.4015 0.0
C120 C 0.94645 0.75793 0.35238 0.0
C121 C 0.96932 0.75588 0.3642 0.0
C122 C 0.96444 0.74279 0.38798 0.0
C123 C 0.91494 0.73607 0.38871 0.0
C124 C 0.9196 0.74817 0.36502 0.0
C125 C 0.8941 0.75153 0.35616 0.0
H126 H 0.76751 0.75066 0.38345 0.0
C127 C 0.88557 0.73032 0.39739 0.0
C128 C 0.87326 0.73924 0.37827 0.0
H129 H 0.81952 0.78245 0.31623 0.0
H130 H 0.85125 0.76342 0.33053 0.0
H131 H 0.76824 0.6878 0.38696 0.0
H132 H 0.819 0.77483 0.41922 0.0
H133 H 0.81331 0.74932 0.44297 0.0
H134 H 0.78175 0.74869 0.42868 0.0
H135 H 0.75456 0.69977 0.41245 0.0
H136 H 0.77637 0.68189 0.41739 0.0
C137 C 0.88076 0.73193 0.33275 0.0
C138 C 0.90571 0.78525 0.35193 0.0
C139 C 0.85035 0.69405 0.48594 0.0
C140 C 0.82445 0.68798 0.49899 0.0
C141 C 0.80216 0.69081 0.48666 0.0
C142 C 0.80569 0.69991 0.46179 0.0
C143 C 0.83188 0.70648 0.44906 0.0
C144 C 0.85347 0.70299 0.46093 0.0
C145 C 0.87955 0.71057 0.44412 0.0
C146 C 0.87018 0.71963 0.42038 0.0
C147 C 0.84239 0.71741 0.4236 0.0
C148 C 0.88161 0.68205 0.44037 0.0
C149 C 0.90753 0.73693 0.45589 0.0
C150 C 0.78558 0.75315 0.37174 0.0
C151 C 0.7916 0.76832 0.34903 0.0
C152 C 0.81486 0.77096 0.33394 0.0
C153 C 0.83325 0.76012 0.34239 0.0
C154 C 0.8283 0.74695 0.36618 0.0
C155 C 0.80416 0.74284 0.38 0.0
C156 C 0.80243 0.72918 0.40499 0.0
C157 C 0.83018 0.72671 0.40441 0.0
C158 C 0.84531 0.73721 0.38174 0.0
C159 C 0.77387 0.69813 0.40575 0.0
C160 C 0.80399 0.75135 0.42516 0.0
H161 H 0.93491 0.72308 0.41839 0.0
H162 H 0.94983 0.76801 0.33412 0.0
H163 H 0.9235 0.79907 0.36545 0.0
H164 H 0.88863 0.79158 0.35493 0.0
H165 H 0.91513 0.79229 0.33295 0.0
H166 H 0.88092 0.71062 0.33462 0.0
H167 H 0.89372 0.7435 0.31584 0.0
H168 H 0.85725 0.72528 0.32976 0.0
H169 H 0.8677 0.69176 0.49498 0.0
H170 H 0.78216 0.68642 0.49644 0.0
H171 H 0.78806 0.70202 0.45359 0.0
H172 H 0.85909 0.66212 0.43858 0.0
H173 H 0.89271 0.67821 0.45642 0.0
H174 H 0.89335 0.68259 0.4231 0.0
H175 H 0.90198 0.75279 0.465 0.0
H176 H 0.92481 0.75051 0.44212 0.0
H177 H 0.91725 0.72892 0.47025 0.0
H178 H 0.98186 0.74072 0.39716 0.0
C179 C 0.93726 0.73262 0.40023 0.0
C180 C 0.18045 0.2255 0.64286 0.0
C181 C 0.20857 0.23225 0.63392 0.0
C182 C 0.22065 0.2511 0.6131 0.0
C183 C 0.17564 0.25309 0.60837 0.0
C184 C 0.16447 0.23649 0.62987 0.0
C185 C 0.13388 0.23114 0.63588 0.0
H186 H 0.01208 0.23512 0.59707 0.0
C187 C 0.15257 0.258 0.59742 0.0
C188 C 0.12812 0.24576 0.61361 0.0
H189 H 0.02335 0.1993 0.66614 0.0
H190 H 0.07503 0.21729 0.6559 0.0
H191 H 0.07964 0.29802 0.5965 0.0
H192 H 0.04045 0.21023 0.5648 0.0
H193 H 0.0671 0.23401 0.54329 0.0
H194 H 0.03606 0.2391 0.55057 0.0
H195 H 0.05093 0.28406 0.57338 0.0
H196 H 0.0895 0.30126 0.56474 0.0
C197 C 0.13566 0.24749 0.66045 0.0
C198 C 0.11229 0.19705 0.63678 0.0
C199 C 0.1656 0.2945 0.50826 0.0
C200 C 0.14635 0.29668 0.49131 0.0
C201 C 0.11862 0.29189 0.49969 0.0
C202 C 0.10981 0.28402 0.52452 0.0
C203 C 0.12873 0.28039 0.54103 0.0
C204 C 0.15627 0.28608 0.53285 0.0
C205 C 0.17299 0.27999 0.55252 0.0
C206 C 0.15079 0.26929 0.57382 0.0
C207 C 0.12492 0.2695 0.56701 0.0
C208 C 0.20161 0.30973 0.55876 0.0
C209 C 0.17845 0.255 0.54263 0.0
C210 C 0.02571 0.23117 0.61 0.0
C211 C 0.0136 0.21518 0.63212 0.0
C212 C 0.0322 0.21126 0.64884 0.0
C213 C 0.06208 0.22157 0.64278 0.0
C214 C 0.0733 0.23578 0.61973 0.0
C215 C 0.0553 0.24095 0.60408 0.0
C216 C 0.07033 0.25536 0.57999 0.0
C217 C 0.10047 0.25818 0.58371 0.0
C218 C 0.10212 0.2466 0.60698 0.0
C219 C 0.07267 0.28628 0.57832 0.0
C220 C 0.05266 0.23385 0.55842 0.0
H221 H 0.21464 0.27525 0.58436 0.0
H222 H 0.17096 0.21158 0.65915 0.0
H223 H 0.11704 0.18582 0.6213 0.0
H224 H 0.08886 0.19084 0.63446 0.0
H225 H 0.11457 0.1874 0.65453 0.0
H226 H 0.15727 0.26862 0.66198 0.0
H227 H 0.13354 0.23348 0.67685 0.0
H228 H 0.11872 0.25434 0.66163 0.0
H229 H 0.18703 0.29811 0.50224 0.0
H230 H 0.10369 0.29401 0.48692 0.0
H231 H 0.08837 0.28042 0.52978 0.0
H232 H 0.19927 0.3294 0.55413 0.0
H233 H 0.221 0.31202 0.54821 0.0
H234 H 0.20675 0.31201 0.5789 0.0
H235 H 0.1584 0.23752 0.53292 0.0
H236 H 0.18299 0.24299 0.5573 0.0
H237 H 0.19715 0.26409 0.52914 0.0
H238 H 0.24226 0.25664 0.60589 0.0
C239 C 0.20446 0.2617 0.60044 0.0
C240 C 0.76528 0.80265 0.63531 0.0
C241 C 0.76328 0.77785 0.62293 0.0
C242 C 0.74393 0.76576 0.60251 0.0
C243 C 0.73289 0.80587 0.60454 0.0
C244 C 0.74994 0.81633 0.6258 0.0
C245 C 0.75135 0.84425 0.63548 0.0
H246 H 0.74306 0.96596 0.60703 0.0
C247 C 0.72321 0.82722 0.59747 0.0
C248 C 0.73361 0.84962 0.61575 0.0
H249 H 0.77298 0.94786 0.67646 0.0
H250 H 0.75656 0.89733 0.66287 0.0
H251 H 0.76335 0.93373 0.57101 0.0
H252 H 0.68182 0.90734 0.60927 0.0
H253 H 0.67062 0.88467 0.58269 0.0
H254 H 0.68895 0.92477 0.57933 0.0
H255 H 0.73853 0.94742 0.56416 0.0
H256 H 0.73488 0.91482 0.54931 0.0
C257 C 0.78435 0.86916 0.63593 0.0
C258 C 0.7359 0.83736 0.66119 0.0
C259 C 0.6839 0.82445 0.51013 0.0
C260 C 0.67831 0.84488 0.49742 0.0
C261 C 0.67819 0.86823 0.51043 0.0
C262 C 0.68527 0.87236 0.53563 0.0
C263 C 0.69339 0.85346 0.54773 0.0
C264 C 0.69154 0.82925 0.53539 0.0
C265 C 0.70103 0.81172 0.55163 0.0
C266 C 0.70973 0.83013 0.57542 0.0
C267 C 0.70568 0.85475 0.57259 0.0
C268 C 0.7279 0.81208 0.53886 0.0
C269 C 0.67401 0.78013 0.55571 0.0
C270 C 0.7455 0.95112 0.61975 0.0
C271 C 0.75951 0.96114 0.64279 0.0
C272 C 0.76279 0.94093 0.65833 0.0
C273 C 0.75317 0.91163 0.65049 0.0
C274 C 0.74026 0.9025 0.62687 0.0
C275 C 0.73541 0.92179 0.61257 0.0
C276 C 0.71941 0.90801 0.58892 0.0
C277 C 0.71657 0.87752 0.59071 0.0
C278 C 0.72958 0.87461 0.61259 0.0
C279 C 0.73979 0.92686 0.56708 0.0
C280 C 0.68869 0.90619 0.58989 0.0
H281 H 0.71468 0.76972 0.57744 0.0
H282 H 0.77917 0.81171 0.6516 0.0
H283 H 0.71766 0.81375 0.66239 0.0
H284 H 0.72506 0.8507 0.66479 0.0
H285 H 0.75182 0.84111 0.6764 0.0
H286 H 0.79534 0.86984 0.61799 0.0
H287 H 0.79652 0.86518 0.65103 0.0
H288 H 0.78755 0.89162 0.63853 0.0
H289 H 0.68351 0.80597 0.50039 0.0
H290 H 0.67311 0.8836 0.50092 0.0
H291 H 0.68549 0.89101 0.54434 0.0
H292 H 0.74383 0.83484 0.53188 0.0
H293 H 0.72062 0.79664 0.52275 0.0
H294 H 0.74089 0.80615 0.55134 0.0
H295 H 0.65283 0.78051 0.55526 0.0
H296 H 0.67426 0.77085 0.57419 0.0
H297 H 0.67279 0.76447 0.54105 0.0
H298 H 0.74169 0.74637 0.59291 0.0
C299 C 0.72851 0.77949 0.5934 0.0
C300 C 0.04035 0.79176 0.638 0.0
C301 C 0.02058 0.76382 0.62757 0.0
C302 C 0.02898 0.75481 0.60577 0.0
C303 C 0.07467 0.80199 0.60381 0.0
C304 C 0.06718 0.81055 0.62572 0.0
C305 C 0.09015 0.84174 0.63318 0.0
H306 H 0.20984 0.9725 0.59906 0.0
C307 C 0.10274 0.82708 0.59463 0.0
C308 C 0.11214 0.85049 0.61179 0.0
H309 H 0.16374 0.95202 0.66954 0.0
H310 H 0.13106 0.90112 0.65607 0.0
H311 H 0.21879 0.92011 0.60109 0.0
H312 H 0.15364 0.93258 0.56263 0.0
H313 H 0.16819 0.91722 0.54158 0.0
H314 H 0.19272 0.9523 0.55595 0.0
H315 H 0.22595 0.93608 0.57055 0.0
H316 H 0.20913 0.89629 0.57534 0.0
C317 C 0.10397 0.8402 0.65822 0.0
C318 C 0.075 0.86092 0.63394 0.0
C319 C 0.13873 0.8239 0.50754 0.0
C320 C 0.16228 0.84559 0.49317 0.0
C321 C 0.1841 0.87186 0.50452 0.0
C322 C 0.18127 0.8775 0.52946 0.0
C323 C 0.15613 0.85689 0.54297 0.0
C324 C 0.13608 0.83001 0.5324 0.0
C325 C 0.11088 0.81081 0.54974 0.0
C326 C 0.1188 0.83114 0.57221 0.0
C327 C 0.14482 0.85825 0.56772 0.0
C328 C 0.11214 0.78214 0.55561 0.0
C329 C 0.0816 0.80516 0.53737 0.0
C330 C 0.1928 0.9571 0.6117 0.0
C331 C 0.18947 0.96611 0.63538 0.0
C332 C 0.16657 0.94553 0.65105 0.0
C333 C 0.14784 0.91601 0.64331 0.0
C334 C 0.15224 0.90715 0.61974 0.0
C335 C 0.1748 0.92756 0.60466 0.0
C336 C 0.17855 0.91407 0.58141 0.0
C337 C 0.15387 0.88215 0.58453 0.0
C338 C 0.13802 0.87824 0.60668 0.0
C339 C 0.20971 0.91685 0.5819 0.0
C340 C 0.17319 0.92979 0.55909 0.0
H341 H 0.06072 0.76554 0.5773 0.0
H342 H 0.03485 0.79906 0.65503 0.0
H343 H 0.06094 0.85674 0.61717 0.0
H344 H 0.09085 0.88506 0.63399 0.0
H345 H 0.0605 0.85542 0.65058 0.0
H346 H 0.10474 0.81917 0.65979 0.0
H347 H 0.09086 0.84101 0.6742 0.0
H348 H 0.1273 0.8582 0.66017 0.0
H349 H 0.12189 0.8033 0.49921 0.0
H350 H 0.20234 0.88884 0.49373 0.0
H351 H 0.19795 0.89844 0.53679 0.0
H352 H 0.13505 0.78593 0.55357 0.0
H353 H 0.0976 0.76367 0.54291 0.0
H354 H 0.10595 0.77466 0.5751 0.0
H355 H 0.08463 0.82589 0.52841 0.0
H356 H 0.06319 0.79853 0.55064 0.0
H357 H 0.0744 0.78777 0.52278 0.0
H358 H 0.01414 0.73354 0.5972 0.0
C359 C 0.05595 0.77357 0.59402 0.0
C360 C 0.87745 0.51166 0.70288 0.0
C361 C 0.87885 0.53482 0.71751 0.0
C362 C 0.89641 0.54348 0.73916 0.0
C363 C 0.90659 0.50302 0.73331 0.0
C364 C 0.89092 0.49576 0.71129 0.0
C365 C 0.88784 0.46793 0.6997 0.0
H366 H 0.89354 0.34148 0.71666 0.0
C367 C 0.9142 0.47965 0.73855 0.0
C368 C 0.90297 0.4588 0.71907 0.0
H369 H 0.86272 0.36638 0.65142 0.0
H370 H 0.87801 0.41506 0.66944 0.0
H371 H 0.95354 0.40288 0.71983 0.0
H372 H 0.86943 0.36692 0.75671 0.0
H373 H 0.89607 0.38674 0.77953 0.0
H374 H 0.89606 0.35579 0.76424 0.0
H375 H 0.94306 0.3767 0.74496 0.0
H376 H 0.96195 0.41644 0.75034 0.0
C377 C 0.90497 0.47647 0.67474 0.0
C378 C 0.85431 0.44499 0.69723 0.0
C379 C 0.9609 0.47912 0.82116 0.0
C380 C 0.96564 0.45765 0.83291 0.0
C381 C 0.95939 0.43148 0.82034 0.0
C382 C 0.94809 0.42654 0.79616 0.0
C383 C 0.94256 0.44781 0.7848 0.0
C384 C 0.94917 0.47369 0.7972 0.0
C385 C 0.94 0.49278 0.78293 0.0
C386 C 0.92732 0.47428 0.75959 0.0
C387 C 0.92891 0.44811 0.76094 0.0
C388 C 0.9681 0.523 0.77715 0.0
C389 C 0.91611 0.49531 0.79836 0.0
C390 C 0.88965 0.35729 0.70649 0.0
C391 C 0.87621 0.35015 0.68314 0.0
C392 C 0.87253 0.37151 0.6698 0.0
C393 C 0.88141 0.39958 0.68024 0.0
C394 C 0.89401 0.40607 0.70417 0.0
C395 C 0.89866 0.3853 0.71644 0.0
C396 C 0.91405 0.39632 0.7408 0.0
C397 C 0.91715 0.42689 0.74165 0.0
C398 C 0.90494 0.43245 0.72046 0.0
C399 C 0.94467 0.39806 0.73916 0.0
C400 C 0.89312 0.37542 0.76152 0.0
H401 H 0.92307 0.53501 0.76392 0.0
H402 H 0.8653 0.50538 0.68553 0.0
H403 H 0.84211 0.44503 0.71422 0.0
H404 H 0.84945 0.42184 0.69525 0.0
H405 H 0.84452 0.45042 0.6811 0.0
H406 H 0.92563 0.49854 0.67611 0.0
H407 H 0.89128 0.47791 0.65955 0.0
H408 H 0.91245 0.46073 0.6693 0.0
H409 H 0.96525 0.49926 0.83082 0.0
H410 H 0.96308 0.41486 0.82931 0.0
H411 H 0.94345 0.40601 0.78754 0.0
H412 H 0.9865 0.51953 0.77081 0.0
H413 H 0.97582 0.53732 0.79397 0.0
H414 H 0.96464 0.53537 0.76201 0.0
H415 H 0.90452 0.47638 0.81162 0.0
H416 H 0.89808 0.4942 0.78673 0.0
H417 H 0.92613 0.51619 0.80942 0.0
H418 H 0.89845 0.56174 0.75041 0.0
C419 C 0.91049 0.52782 0.74703 0.0
C420 C 0.61917 0.51775 0.68899 0.0
C421 C 0.64033 0.54444 0.70015 0.0
C422 C 0.63506 0.55148 0.72423 0.0
C423 C 0.58759 0.50593 0.72557 0.0
C424 C 0.5929 0.49896 0.70195 0.0
C425 C 0.56744 0.47022 0.69255 0.0
H426 H 0.43617 0.34683 0.71662 0.0
C427 C 0.55795 0.48223 0.73367 0.0
C428 C 0.54595 0.46137 0.71424 0.0
H429 H 0.48801 0.36762 0.6491 0.0
H430 H 0.52319 0.41625 0.66554 0.0
H431 H 0.4859 0.36963 0.75313 0.0
H432 H 0.44016 0.41029 0.71992 0.0
H433 H 0.44874 0.42526 0.75 0.0
H434 H 0.4253 0.38548 0.74599 0.0
H435 H 0.44959 0.36144 0.76276 0.0
H436 H 0.4827 0.39084 0.77689 0.0
C437 C 0.57878 0.44799 0.6887 0.0
C438 C 0.55499 0.47689 0.66875 0.0
C439 C 0.51865 0.48214 0.82092 0.0
C440 C 0.49229 0.46141 0.83308 0.0
C441 C 0.4704 0.4369 0.81996 0.0
C442 C 0.47485 0.43243 0.79516 0.0
C443 C 0.50174 0.4524 0.78342 0.0
C444 C 0.52299 0.47707 0.79602 0.0
C445 C 0.55004 0.49573 0.78006 0.0
C446 C 0.54157 0.47765 0.7561 0.0
C447 C 0.51337 0.45238 0.75849 0.0
C448 C 0.57717 0.49672 0.79281 0.0
C449 C 0.5529 0.52668 0.77621 0.0
C450 C 0.45481 0.36194 0.70511 0.0
C451 C 0.4597 0.35315 0.68183 0.0
C452 C 0.48432 0.37354 0.66751 0.0
C453 C 0.50458 0.40178 0.67702 0.0
C454 C 0.49996 0.40958 0.70098 0.0
C455 C 0.47489 0.39002 0.71415 0.0
C456 C 0.47291 0.40167 0.73902 0.0
C457 C 0.50153 0.43122 0.73915 0.0
C458 C 0.51746 0.43579 0.71698 0.0
C459 C 0.47253 0.37986 0.75913 0.0
C460 C 0.44531 0.40576 0.73898 0.0
H461 H 0.60612 0.53898 0.75525 0.0
H462 H 0.62265 0.51206 0.6704 0.0
H463 H 0.55702 0.49929 0.66975 0.0
H464 H 0.53102 0.46123 0.66616 0.0
H465 H 0.56718 0.47649 0.65193 0.0
H466 H 0.59354 0.4495 0.70427 0.0
H467 H 0.59171 0.4529 0.67116 0.0
H468 H 0.56085 0.42452 0.68845 0.0
H469 H 0.53565 0.50137 0.83072 0.0
H470 H 0.44979 0.42113 0.82901 0.0
H471 H 0.45733 0.41314 0.78633 0.0
H472 H 0.57108 0.47451 0.80073 0.0
H473 H 0.58549 0.51311 0.80826 0.0
H474 H 0.59562 0.50208 0.77985 0.0
H475 H 0.53064 0.52462 0.77453 0.0
H476 H 0.56455 0.53768 0.75881 0.0
H477 H 0.56444 0.54166 0.79215 0.0
H478 H 0.65129 0.57199 0.7331 0.0
C479 C 0.60886 0.53236 0.73701 0.0
C480 C 0.61671 0.0956 0.6903 0.0
C481 C 0.6376 0.09017 0.70219 0.0
C482 C 0.62924 0.07233 0.72379 0.0
C483 C 0.58122 0.0688 0.72335 0.0
C484 C 0.58856 0.08457 0.70119 0.0
C485 C 0.5641 0.08983 0.69231 0.0
H486 H 0.4319 0.08022 0.71661 0.0
C487 C 0.55169 0.06299 0.73121 0.0
C488 C 0.54116 0.07469 0.71281 0.0
H489 H 0.49087 0.12642 0.65533 0.0
H490 H 0.52306 0.10712 0.66806 0.0
H491 H 0.43778 0.01919 0.71585 0.0
H492 H 0.47706 0.10287 0.75384 0.0
H493 H 0.47815 0.07851 0.77568 0.0
H494 H 0.44279 0.07164 0.76407 0.0
H495 H 0.41923 0.02821 0.73949 0.0
H496 H 0.44149 0.01148 0.74707 0.0
C497 C 0.55277 0.07395 0.66705 0.0
C498 C 0.57629 0.12392 0.69135 0.0
C499 C 0.5136 0.02444 0.81867 0.0
C500 C 0.48713 0.01784 0.83101 0.0
C501 C 0.46457 0.01927 0.81783 0.0
C502 C 0.46859 0.02806 0.79288 0.0
C503 C 0.49556 0.03574 0.78098 0.0
C504 C 0.51721 0.03305 0.79356 0.0
C505 C 0.54377 0.04089 0.77728 0.0
C506 C 0.53504 0.0504 0.75337 0.0
C507 C 0.50702 0.04766 0.75594 0.0
C508 C 0.54615 0.01247 0.77356 0.0
C509 C 0.57134 0.0671 0.78959 0.0
C510 C 0.45156 0.08585 0.7057 0.0
C511 C 0.45924 0.10505 0.68527 0.0
C512 C 0.48475 0.11174 0.67131 0.0
C513 C 0.50343 0.10076 0.67889 0.0
C514 C 0.49652 0.08341 0.70075 0.0
C515 C 0.47057 0.07586 0.71337 0.0
C516 C 0.46748 0.05966 0.73723 0.0
C517 C 0.49598 0.05868 0.73716 0.0
C518 C 0.51291 0.0723 0.71573 0.0
C519 C 0.43998 0.02801 0.73506 0.0
C520 C 0.46608 0.07882 0.75891 0.0
H521 H 0.59644 0.04872 0.75112 0.0
H522 H 0.62263 0.10931 0.67372 0.0
H523 H 0.59277 0.13552 0.70639 0.0
H524 H 0.559 0.12994 0.6945 0.0
H525 H 0.58748 0.13351 0.67332 0.0
H526 H 0.5504 0.05138 0.66756 0.0
H527 H 0.56854 0.08678 0.65184 0.0
H528 H 0.53061 0.07033 0.66219 0.0
H529 H 0.53101 0.02289 0.82838 0.0
H530 H 0.44403 0.01417 0.82704 0.0
H531 H 0.45076 0.02923 0.78402 0.0
H532 H 0.52449 -0.00821 0.77676 0.0
H533 H 0.56245 0.01197 0.78659 0.0
H534 H 0.55231 0.0104 0.75425 0.0
H535 H 0.56641 0.08478 0.79539 0.0
H536 H 0.59068 0.07806 0.77709 0.0
H537 H 0.57803 0.05944 0.80642 0.0
H538 H 0.64493 0.06755 0.73299 0.0
C539 C 0.60117 0.06152 0.73434 0.0
C540 C 0.84391 0.55862 0.9788 0.0
C541 C 0.87049 0.5625 0.96895 0.0
C542 C 0.88042 0.57593 0.9455 0.0
C543 C 0.83691 0.58081 0.94141 0.0
C544 C 0.82755 0.56814 0.96473 0.0
C545 C 0.79834 0.56524 0.9719 0.0
H546 H 0.67708 0.57073 0.93713 0.0
C547 C 0.81458 0.58746 0.93135 0.0
C548 C 0.79207 0.57872 0.94922 0.0
H549 H 0.6906 0.53359 0.00448 0.0
H550 H 0.74222 0.55322 -0.00643 0.0
H551 H 0.73914 0.63247 0.93779 0.0
H552 H 0.71052 0.54862 0.90126 0.0
H553 H 0.7283 0.57776 0.87943 0.0
H554 H 0.69575 0.57276 0.89499 0.0
H555 H 0.7197 0.62381 0.90876 0.0
H556 H 0.75966 0.64104 0.91002 0.0
C557 C 0.80312 0.58425 -0.00453 0.0
C558 C 0.77545 0.53155 0.97508 0.0
C559 C 0.8232 0.62395 0.84215 0.0
C560 C 0.80604 0.63266 0.82803 0.0
C561 C 0.78229 0.63376 0.8397 0.0
C562 C 0.77491 0.62508 0.86452 0.0
C563 C 0.79127 0.615 0.87795 0.0
C564 C 0.81566 0.61564 0.86711 0.0
C565 C 0.83184 0.60653 0.88509 0.0
C566 C 0.81237 0.59923 0.90811 0.0
C567 C 0.78825 0.6035 0.90353 0.0
C568 C 0.86338 0.6336 0.88926 0.0
C569 C 0.83144 0.57854 0.87453 0.0
C570 C 0.69133 0.56703 0.94953 0.0
C571 C 0.6799 0.55023 0.97139 0.0
C572 C 0.69902 0.54638 0.98748 0.0
C573 C 0.72883 0.55753 0.98096 0.0
C574 C 0.73931 0.57221 0.95799 0.0
C575 C 0.72089 0.57754 0.94307 0.0
C576 C 0.73539 0.59267 0.91902 0.0
C577 C 0.76519 0.59428 0.92142 0.0
C578 C 0.76727 0.5822 0.94423 0.0
C579 C 0.73855 0.62406 0.91865 0.0
C580 C 0.71662 0.57212 0.89741 0.0
H581 H 0.87227 0.59492 0.91379 0.0
H582 H 0.83603 0.54832 -0.00315 0.0
H583 H 0.78112 0.51756 0.96316 0.0
H584 H 0.75286 0.52566 0.96914 0.0
H585 H 0.77464 0.52421 -0.00538 0.0
H586 H 0.82464 0.60556 -0.00556 0.0
H587 H 0.8035 0.57223 0.01247 0.0
H588 H 0.78611 0.59088 -0.00228 0.0
H589 H 0.84163 0.62292 0.83387 0.0
H590 H 0.7692 0.64116 0.82951 0.0
H591 H 0.7564 0.62607 0.8722 0.0
H592 H 0.86424 0.65508 0.88512 0.0
H593 H 0.87999 0.63236 0.87712 0.0
H594 H 0.87059 0.63565 0.90887 0.0
H595 H 0.80898 0.56237 0.86738 0.0
H596 H 0.83655 0.56624 0.88858 0.0
H597 H 0.84744 0.58459 0.85891 0.0
H598 H 0.90104 0.57902 0.93782 0.0
C599 C 0.86377 0.58514 0.93165 0.0
C600 C 0.42759 0.14019 0.96751 0.0
C601 C 0.4201 0.11197 0.95818 0.0
C602 C 0.39946 0.09987 0.93857 0.0
C603 C 0.39623 0.14495 0.9367 0.0
C604 C 0.41535 0.15612 0.95667 0.0
C605 C 0.42183 0.18675 0.96404 0.0
H606 H 0.42559 0.31243 0.92784 0.0
C607 C 0.38889 0.16784 0.92886 0.0
C608 C 0.40353 0.19227 0.94506 0.0
H609 H 0.46365 0.29869 -0.00537 0.0
H610 H 0.43905 0.24597 0.98631 0.0
H611 H 0.42802 0.28335 0.89234 0.0
H612 H 0.35947 0.25131 0.94473 0.0
H613 H 0.34236 0.23406 0.91662 0.0
H614 H 0.36487 0.27426 0.91799 0.0
H615 H 0.39216 0.27504 0.88224 0.0
H616 H 0.40491 0.24871 0.87842 0.0
C617 C 0.45564 0.20813 0.9608 0.0
C618 C 0.41028 0.18529 0.99085 0.0
C619 C 0.34347 0.16222 0.84394 0.0
C620 C 0.33757 0.18257 0.83146 0.0
C621 C 0.33851 0.20648 0.84438 0.0
C622 C 0.34737 0.21145 0.8692 0.0
C623 C 0.35593 0.19268 0.88086 0.0
C624 C 0.35246 0.16762 0.86887 0.0
C625 C 0.36159 0.14978 0.88512 0.0
C626 C 0.37316 0.16973 0.90799 0.0
C627 C 0.37044 0.19513 0.9048 0.0
C628 C 0.38646 0.14724 0.87153 0.0
C629 C 0.33377 0.11933 0.89111 0.0
C630 C 0.42899 0.29835 0.94073 0.0
C631 C 0.44844 0.31043 0.96098 0.0
C632 C 0.45082 0.29062 0.97772 0.0
C633 C 0.43607 0.25985 0.97316 0.0
C634 C 0.41838 0.24861 0.95184 0.0
C635 C 0.41384 0.2676 0.93689 0.0
C636 C 0.39108 0.2514 0.91716 0.0
C637 C 0.38581 0.22001 0.92064 0.0
C638 C 0.40184 0.21846 0.94096 0.0
C639 C 0.40449 0.2652 0.89125 0.0
C640 C 0.36295 0.2529 0.92423 0.0
H641 H 0.37193 0.10601 0.9129 0.0
H642 H 0.44315 0.14998 0.98273 0.0
H643 H 0.38998 0.16343 -0.00551 0.0
H644 H 0.40346 0.20206 -0.00581 0.0
H645 H 0.4272 0.18813 0.00483 0.0
H646 H 0.46353 0.20359 0.94299 0.0
H647 H 0.46821 0.20519 0.97616 0.0
H648 H 0.4621 0.23181 0.95995 0.0
H649 H 0.34213 0.14328 0.83423 0.0
H650 H 0.33331 0.22182 0.835 0.0
H651 H 0.34823 0.2303 0.87807 0.0
H652 H 0.40403 0.16956 0.86495 0.0
H653 H 0.37751 0.13241 0.8551 0.0
H654 H 0.39763 0.13854 0.88341 0.0
H655 H 0.31305 0.1205 0.88967 0.0
H656 H 0.33391 0.11204 0.91046 0.0
H657 H 0.33168 0.10175 0.8781 0.0
H658 H 0.39247 0.07771 0.93166 0.0
C659 C 0.38738 0.11618 0.92786 0.0
C660 C 0.70265 0.13541 0.96782 0.0
C661 C 0.68229 0.10719 0.95841 0.0
C662 C 0.69072 0.09556 0.93833 0.0
C663 C 0.73812 0.1412 0.93574 0.0
C664 C 0.73049 0.15187 0.95636 0.0
C665 C 0.75454 0.18263 0.9635 0.0
H666 H 0.88612 0.30507 0.9358 0.0
C667 C 0.7676 0.16466 0.92699 0.0
C668 C 0.77744 0.18892 0.94339 0.0
H669 H 0.82777 0.29348 -0.0028 0.0
H670 H 0.79413 0.24253 0.98436 0.0
H671 H 0.88235 0.24225 0.94081 0.0
H672 H 0.83726 0.27591 0.89652 0.0
H673 H 0.84082 0.25092 0.87707 0.0
H674 H 0.87372 0.28283 0.88899 0.0
H675 H 0.89879 0.26513 0.91385 0.0
H676 H 0.87724 0.22495 0.91177 0.0
C677 C 0.76616 0.1808 0.98955 0.0
C678 C 0.74173 0.20393 0.96193 0.0
C679 C 0.80729 0.15723 0.84219 0.0
C680 C 0.83265 0.17783 0.82874 0.0
C681 C 0.85501 0.20301 0.84098 0.0
C682 C 0.8512 0.20902 0.86557 0.0
C683 C 0.82462 0.1898 0.87805 0.0
C684 C 0.80373 0.16368 0.86689 0.0
C685 C 0.77719 0.14585 0.88357 0.0
C686 C 0.78484 0.16682 0.90568 0.0
C687 C 0.81251 0.19253 0.90203 0.0
C688 C 0.77646 0.11655 0.89085 0.0
C689 C 0.7491 0.14116 0.86972 0.0
C690 C 0.86607 0.29152 0.94646 0.0
C691 C 0.85929 0.30319 0.96729 0.0
C692 C 0.83305 0.28499 0.98075 0.0
C693 C 0.81374 0.25542 0.97338 0.0
C694 C 0.82072 0.24416 0.95222 0.0
C695 C 0.84661 0.26221 0.9393 0.0
C696 C 0.85038 0.24714 0.91701 0.0
C697 C 0.82252 0.21687 0.91862 0.0
C698 C 0.80516 0.21516 0.9392 0.0
C699 C 0.87873 0.24484 0.92078 0.0
C700 C 0.8508 0.26501 0.8936 0.0
H701 H 0.7234 0.10265 0.9114 0.0
H702 H 0.69684 0.14463 0.98347 0.0
H703 H 0.72479 0.19694 0.94697 0.0
H704 H 0.75859 0.22701 0.95701 0.0
H705 H 0.7309 0.20411 0.97969 0.0
H706 H 0.76804 0.16039 0.99122 0.0
H707 H 0.75087 0.17988 0.00439 0.0
H708 H 0.78865 0.19957 -0.00669 0.0
H709 H 0.79012 0.13724 0.83336 0.0
H710 H 0.87478 0.21901 0.83108 0.0
H711 H 0.86854 0.22924 0.87344 0.0
H712 H 0.79925 0.11981 0.89177 0.0
H713 H 0.76374 0.09866 0.87709 0.0
H714 H 0.76707 0.1086 0.90961 0.0
H715 H 0.75331 0.16225 0.86067 0.0
H716 H 0.7299 0.13455 0.88207 0.0
H717 H 0.74254 0.12397 0.85501 0.0
H718 H 0.67532 0.07376 0.93089 0.0
C719 C 0.71852 0.11239 0.92697 0.0
C720 C 0.55215 0.84434 0.02979 0.0
C721 C 0.559 0.87172 0.04037 0.0
C722 C 0.57665 0.8817 0.06188 0.0
C723 C 0.57882 0.83604 0.06293 0.0
C724 C 0.56251 0.82704 0.04119 0.0
C725 C 0.55747 0.79746 0.03217 0.0
H726 H 0.56649 0.67373 0.05409 0.0
C727 C 0.58492 0.81225 0.07056 0.0
C728 C 0.57268 0.78971 0.05247 0.0
H729 H 0.52839 0.6927 0.99024 0.0
H730 H 0.54285 0.74162 0.00669 0.0
H731 H 0.62463 0.73537 0.0551 0.0
H732 H 0.54225 0.70104 0.09456 0.0
H733 H 0.57027 0.72133 0.11626 0.0
H734 H 0.56907 0.68983 0.10103 0.0
H735 H 0.6163 0.71171 0.08181 0.0
H736 H 0.63433 0.75181 0.08463 0.0
C737 C 0.57335 0.80232 0.00676 0.0
C738 C 0.52355 0.77552 0.03145 0.0
C739 C 0.62721 0.81418 0.15609 0.0
C740 C 0.6323 0.79335 0.16869 0.0
C741 C 0.63004 0.76875 0.15581 0.0
C742 C 0.62082 0.76378 0.13104 0.0
C743 C 0.6137 0.78356 0.11915 0.0
C744 C 0.61802 0.8089 0.13127 0.0
C745 C 0.60989 0.82765 0.11527 0.0
C746 C 0.59838 0.80838 0.09213 0.0
C747 C 0.60049 0.78256 0.09475 0.0
C748 C 0.63847 0.85768 0.10984 0.0
C749 C 0.58531 0.83075 0.12882 0.0
C750 C 0.56099 0.68836 0.04387 0.0
C751 C 0.54606 0.67953 0.02114 0.0
C752 C 0.5398 0.69925 0.00794 0.0
C753 C 0.54825 0.72755 0.01748 0.0
C754 C 0.56309 0.73608 0.04044 0.0
C755 C 0.56947 0.71669 0.05302 0.0
C756 C 0.58587 0.72954 0.07679 0.0
C757 C 0.58812 0.75984 0.07658 0.0
C758 C 0.57453 0.76348 0.05543 0.0
C759 C 0.61684 0.73213 0.07473 0.0
C760 C 0.56616 0.70949 0.09841 0.0
H761 H 0.59972 0.87243 0.08979 0.0
H762 H 0.53918 0.8367 0.01288 0.0
H763 H 0.51233 0.77938 0.04746 0.0
H764 H 0.51759 0.75195 0.0331 0.0
H765 H 0.51365 0.77843 0.01413 0.0
H766 H 0.59421 0.82429 0.00615 0.0
H767 H 0.55904 0.80184 0.99125 0.0
H768 H 0.58042 0.7858 0.00314 0.0
H769 H 0.62957 0.83367 0.16559 0.0
H770 H 0.63423 0.75272 0.16524 0.0
H771 H 0.61857 0.7441 0.12245 0.0
H772 H 0.65827 0.8548 0.10903 0.0
H773 H 0.64255 0.87434 0.12453 0.0
H774 H 0.63792 0.86707 0.09151 0.0
H775 H 0.56854 0.80902 0.13701 0.0
H776 H 0.57276 0.83738 0.11644 0.0
H777 H 0.59479 0.84721 0.14417 0.0
H778 H 0.58246 0.9031 0.06993 0.0
C779 C 0.58661 0.86394 0.07327 0.0
C780 C 0.28166 0.84246 0.02099 0.0
C781 C 0.30203 0.8707 0.0303 0.0
C782 C 0.29377 0.88266 0.05018 0.0
C783 C 0.2464 0.83705 0.05313 0.0
C784 C 0.25383 0.82612 0.03254 0.0
C785 C 0.22997 0.79496 0.02609 0.0
H786 H 0.11081 0.66833 0.0665 0.0
C787 C 0.21739 0.81348 0.06254 0.0
C788 C 0.20747 0.78874 0.04662 0.0
H789 H 0.15974 0.68087 -0.00183 0.0
H790 H 0.18871 0.73373 0.00619 0.0
H791 H 0.14813 0.69914 0.1006 0.0
H792 H 0.1049 0.7289 0.05192 0.0
H793 H 0.10729 0.74675 0.08026 0.0
H794 H 0.08945 0.70651 0.07928 0.0
H795 H 0.11788 0.70288 0.11173 0.0
H796 H 0.15586 0.73205 0.1158 0.0
C797 C 0.24361 0.7744 0.02755 0.0
C798 C 0.21737 0.79578 0.00024 0.0
C799 C 0.181 0.82064 0.14911 0.0
C800 C 0.15593 0.79992 0.16278 0.0
C801 C 0.13347 0.77458 0.15092 0.0
C802 C 0.13662 0.76874 0.12619 0.0
C803 C 0.16281 0.78806 0.11335 0.0
C804 C 0.184 0.81419 0.12426 0.0
C805 C 0.2098 0.83218 0.10686 0.0
C806 C 0.20103 0.81143 0.08442 0.0
C807 C 0.1739 0.78544 0.08893 0.0
C808 C 0.23836 0.83634 0.11944 0.0
C809 C 0.21071 0.86183 0.10057 0.0
C810 C 0.12766 0.68217 0.05308 0.0
C811 C 0.13389 0.66975 0.03241 0.0
C812 C 0.15567 0.68925 0.01525 0.0
C813 C 0.17215 0.7201 0.01964 0.0
C814 C 0.16648 0.73174 0.04117 0.0
C815 C 0.1436 0.71291 0.05674 0.0
C816 C 0.13842 0.7291 0.07734 0.0
C817 C 0.16413 0.76041 0.07324 0.0
C818 C 0.18053 0.76202 0.05199 0.0
C819 C 0.13999 0.7152 0.10266 0.0
C820 C 0.10837 0.72767 0.07222 0.0
H821 H 0.26115 0.8759 0.07708 0.0
H822 H 0.28767 0.83295 0.00569 0.0
H823 H 0.215 0.81589 -0.00165 0.0
H824 H 0.1949 0.77662 -0.00285 0.0
H825 H 0.2323 0.79653 0.98513 0.0
H826 H 0.25975 0.78113 0.04312 0.0
H827 H 0.25558 0.77556 0.0101 0.0
H828 H 0.22718 0.75092 0.03137 0.0
H829 H 0.19821 0.8407 0.15783 0.0
H830 H 0.11363 0.759 0.16099 0.0
H831 H 0.11894 0.74882 0.11834 0.0
H832 H 0.23484 0.81462 0.12656 0.0
H833 H 0.24468 0.85191 0.13541 0.0
H834 H 0.25749 0.84493 0.10671 0.0
H835 H 0.18857 0.85986 0.10297 0.0
H836 H 0.21668 0.86844 0.08088 0.0
H837 H 0.22654 0.88022 0.11277 0.0
H838 H 0.30935 0.90448 0.05748 0.0
C839 C 0.26598 0.86601 0.06159 0.0
C840 C 0.27872 0.42846 0.0172 0.0
C841 C 0.3016 0.4263 0.02883 0.0
C842 C 0.29699 0.41323 0.05259 0.0
C843 C 0.24752 0.40633 0.05363 0.0
C844 C 0.25196 0.41853 0.03 0.0
C845 C 0.22624 0.42165 0.02135 0.0
H846 H 0.09828 0.41747 0.0494 0.0
C847 C 0.21825 0.40039 0.06252 0.0
C848 C 0.20567 0.40924 0.04362 0.0
H849 H 0.15127 0.45266 0.98301 0.0
H850 H 0.18343 0.43388 -0.00338 0.0
H851 H 0.10325 0.35443 0.05361 0.0
H852 H 0.14646 0.4429 0.08386 0.0
H853 H 0.14823 0.42061 0.10748 0.0
H854 H 0.11249 0.41369 0.09675 0.0
H855 H 0.08636 0.36727 0.07577 0.0
H856 H 0.10859 0.3513 0.08554 0.0
C857 C 0.21282 0.40193 -0.00197 0.0
C858 C 0.23746 0.4553 0.01709 0.0
C859 C 0.18353 0.36198 0.15046 0.0
C860 C 0.15836 0.35682 0.16415 0.0
C861 C 0.13669 0.36152 0.15295 0.0
C862 C 0.13992 0.37112 0.12821 0.0
C863 C 0.16535 0.37653 0.11472 0.0
C864 C 0.18667 0.37201 0.12586 0.0
C865 C 0.21262 0.37987 0.10885 0.0
C866 C 0.20314 0.38956 0.08557 0.0
C867 C 0.17549 0.38747 0.08923 0.0
C868 C 0.21453 0.35138 0.10434 0.0
C869 C 0.24072 0.40591 0.12083 0.0
C870 C 0.1165 0.4205 0.03761 0.0
C871 C 0.12283 0.4367 0.01543 0.0
C872 C 0.14643 0.44034 0.00031 0.0
C873 C 0.16507 0.42968 0.00838 0.0
C874 C 0.16001 0.41578 0.03186 0.0
C875 C 0.13551 0.41067 0.04566 0.0
C876 C 0.13445 0.3976 0.07076 0.0
C877 C 0.16278 0.39627 0.07013 0.0
C878 C 0.17762 0.40681 0.04735 0.0
C879 C 0.10666 0.36605 0.07173 0.0
C880 C 0.13524 0.41954 0.09088 0.0
H881 H 0.26778 0.39342 0.08311 0.0
H882 H 0.28197 0.4386 -0.00102 0.0
H883 H 0.25636 0.46946 0.02959 0.0
H884 H 0.22061 0.46159 0.02152 0.0
H885 H 0.24521 0.46203 -0.00235 0.0
H886 H 0.21244 0.38038 0.00021 0.0
H887 H 0.22612 0.41317 0.98117 0.0
H888 H 0.18951 0.3958 -0.00526 0.0
H889 H 0.20047 0.35847 0.15882 0.0
H890 H 0.11703 0.35725 0.16323 0.0
H891 H 0.12255 0.37412 0.12062 0.0
H892 H 0.19197 0.3316 0.10219 0.0
H893 H 0.22544 0.34694 0.1202 0.0
H894 H 0.22641 0.35241 0.08702 0.0
H895 H 0.23515 0.42094 0.13135 0.0
H896 H 0.25738 0.42057 0.10703 0.0
H897 H 0.25124 0.39748 0.13404 0.0
H898 H 0.31451 0.41119 0.06162 0.0
C899 C 0.26996 0.40299 0.06499 0.0
C900 C 0.51304 0.8888 0.31145 0.0
C901 C 0.5413 0.89553 0.3032 0.0
C902 C 0.55411 0.91428 0.28246 0.0
C903 C 0.50926 0.91642 0.27648 0.0
C904 C 0.49762 0.89998 0.29802 0.0
C905 C 0.46719 0.89507 0.30374 0.0
H906 H 0.34838 0.90545 0.26695 0.0
C907 C 0.48647 0.92158 0.26518 0.0
C908 C 0.46195 0.90971 0.28129 0.0
H909 H 0.35858 0.86723 0.33498 0.0
H910 H 0.40895 0.88119 0.32325 0.0
H911 H 0.41732 0.96528 0.26428 0.0
H912 H 0.37328 0.87678 0.23375 0.0
H913 H 0.40035 0.89906 0.21188 0.0
H914 H 0.37083 0.90657 0.21911 0.0
H915 H 0.38776 0.95196 0.24195 0.0
H916 H 0.42579 0.96734 0.23226 0.0
C917 C 0.46911 0.91176 0.32816 0.0
C918 C 0.4452 0.86103 0.30469 0.0
C919 C 0.50002 0.9585 0.176 0.0
C920 C 0.48109 0.96156 0.15922 0.0
C921 C 0.45333 0.95665 0.1676 0.0
C922 C 0.44438 0.9484 0.19234 0.0
C923 C 0.46315 0.94446 0.20876 0.0
C924 C 0.49055 0.94974 0.20053 0.0
C925 C 0.50712 0.94343 0.22024 0.0
C926 C 0.48492 0.93294 0.24153 0.0
C927 C 0.45926 0.93363 0.23472 0.0
C928 C 0.53594 0.97294 0.22649 0.0
C929 C 0.5123 0.91826 0.21046 0.0
C930 C 0.36179 0.9006 0.27941 0.0
C931 C 0.35006 0.88562 0.30193 0.0
C932 C 0.36754 0.87891 0.31758 0.0
C933 C 0.39664 0.88703 0.3107 0.0
C934 C 0.40796 0.90144 0.28774 0.0
C935 C 0.39059 0.90808 0.27259 0.0
C936 C 0.40538 0.92166 0.24822 0.0
C937 C 0.43494 0.92298 0.25149 0.0
C938 C 0.43631 0.91111 0.27466 0.0
C939 C 0.40921 0.95321 0.24634 0.0
C940 C 0.38657 0.90018 0.22702 0.0
H941 H 0.54882 0.9383 0.25302 0.0
H942 H 0.503 0.87466 0.32755 0.0
H943 H 0.45081 0.84929 0.29023 0.0
H944 H 0.42209 0.85505 0.30072 0.0
H945 H 0.44595 0.85158 0.32305 0.0
H946 H 0.49085 0.93275 0.32964 0.0
H947 H 0.46678 0.89786 0.34469 0.0
H948 H 0.45241 0.91893 0.32918 0.0
H949 H 0.52138 0.96199 0.16993 0.0
H950 H 0.43857 0.9592 0.15494 0.0
H951 H 0.42303 0.945 0.19764 0.0
H952 H 0.53379 -0.00724 0.22203 0.0
H953 H 0.55517 0.97506 0.21579 0.0
H954 H 0.54119 0.97504 0.24659 0.0
H955 H 0.49177 0.9003 0.20167 0.0
H956 H 0.51799 0.90712 0.22512 0.0
H957 H 0.53021 0.92696 0.19625 0.0
H958 H 0.57596 0.91965 0.27596 0.0
C959 C 0.53826 0.92484 0.26908 0.0
C960 C 0.09425 0.46735 0.29785 0.0
C961 C 0.09452 0.44395 0.28477 0.0
C962 C 0.07909 0.43468 0.26201 0.0
C963 C 0.06666 0.47389 0.26446 0.0
C964 C 0.081 0.48245 0.28711 0.0
C965 C 0.08257 0.51039 0.29697 0.0
H966 H 0.08665 0.63641 0.26361 0.0
C967 C 0.0571 0.49542 0.25759 0.0
C968 C 0.0668 0.51715 0.27638 0.0
H969 H 0.11647 0.61846 0.33321 0.0
H970 H 0.09448 0.56636 0.32174 0.0
H971 H 0.09329 0.59342 0.22532 0.0
H972 H 0.02342 0.58597 0.27179 0.0
H973 H 0.00493 0.55497 0.25185 0.0
H974 H 0.02304 0.59235 0.23922 0.0
H975 H 0.07536 0.61546 0.22456 0.0
H976 H 0.05986 0.5812 0.20841 0.0
C977 C 0.11574 0.53494 0.29986 0.0
C978 C 0.06474 0.50274 0.32152 0.0
C979 C 0.01563 0.49409 0.17145 0.0
C980 C 0.00622 0.51271 0.16052 0.0
C981 C 0.00209 0.53252 0.17553 0.0
C982 C 0.01003 0.53591 0.2006 0.0
C983 C 0.02285 0.51991 0.21044 0.0
C984 C 0.02337 0.49778 0.19669 0.0
C985 C 0.03475 0.48095 0.21174 0.0
C986 C 0.04271 0.4982 0.23611 0.0
C987 C 0.03681 0.52174 0.23453 0.0
C988 C 0.06239 0.48378 0.19832 0.0
C989 C 0.00908 0.4485 0.21513 0.0
C990 C 0.08783 0.62146 0.27696 0.0
C991 C 0.10357 0.63204 0.29931 0.0
C992 C 0.10526 0.61135 0.31549 0.0
C993 C 0.09231 0.58111 0.30899 0.0
C994 C 0.07705 0.57134 0.28635 0.0
C995 C 0.07373 0.59115 0.27148 0.0
C996 C 0.054 0.57644 0.24957 0.0
C997 C 0.04901 0.54503 0.25216 0.0
C998 C 0.0631 0.54236 0.27344 0.0
C999 C 0.07141 0.59235 0.22564 0.0
C1000 C 0.0249 0.5775 0.25314 0.0
H1001 H 0.05384 0.44136 0.23448 0.0
H1002 H 0.10474 0.47439 0.31585 0.0
H1003 H 0.04283 0.48207 0.31941 0.0
H1004 H 0.06002 0.52045 0.32721 0.0
H1005 H 0.07688 0.49899 0.3368 0.0
H1006 H 0.1312 0.52809 0.29202 0.0
H1007 H 0.12189 0.5405 0.31971 0.0
H1008 H 0.1211 0.55567 0.28971 0.0
H1009 H 0.0177 0.47773 0.16044 0.0
H1010 H -0.00597 0.54637 0.16759 0.0
H1011 H 0.00724 0.55181 0.21114 0.0
H1012 H 0.07644 0.50672 0.19079 0.0
H1013 H 0.05582 0.46797 0.18251 0.0
H1014 H 0.07715 0.48013 0.21069 0.0
H1015 H 0.98742 0.44774 0.217 0.0
H1016 H 0.0112 0.438 0.23232 0.0
H1017 H 0.00747 0.43451 0.19892 0.0
H1018 H 0.07866 0.41663 0.25155 0.0
C1019 C 0.06485 0.44923 0.25199 0.0
C1020 C 0.37213 0.46498 0.30843 0.0
C1021 C 0.35181 0.43691 0.29894 0.0
C1022 C 0.35847 0.42677 0.2769 0.0
C1023 C 0.40474 0.47315 0.27327 0.0
C1024 C 0.3986 0.48257 0.29542 0.0
C1025 C 0.42286 0.51302 0.30277 0.0
H1026 H 0.55142 0.6372 0.27412 0.0
C1027 C 0.43342 0.49707 0.26389 0.0
C1028 C 0.4443 0.52033 0.28124 0.0
H1029 H 0.49543 0.6209 0.3384 0.0
H1030 H 0.46226 0.57066 0.32439 0.0
H1031 H 0.55049 0.57718 0.27404 0.0
H1032 H 0.49697 0.60583 0.23533 0.0
H1033 H 0.50688 0.58697 0.21379 0.0
H1034 H 0.53552 0.61968 0.22879 0.0
H1035 H 0.56307 0.59853 0.24586 0.0
H1036 H 0.54174 0.55825 0.2455 0.0
C1037 C 0.43631 0.51012 0.32759 0.0
C1038 C 0.40969 0.53408 0.3038 0.0
C1039 C 0.46727 0.49362 0.17606 0.0
C1040 C 0.49193 0.51444 0.16216 0.0
C1041 C 0.51549 0.53878 0.17424 0.0
C1042 C 0.51339 0.54379 0.19948 0.0
C1043 C 0.48731 0.52448 0.21256 0.0
C1044 C 0.4654 0.49908 0.20126 0.0
C1045 C 0.43988 0.48056 0.21858 0.0
C1046 C 0.44928 0.50028 0.24152 0.0
C1047 C 0.47681 0.5261 0.23758 0.0
C1048 C 0.43893 0.45059 0.22347 0.0
C1049 C 0.41117 0.47718 0.20687 0.0
C1050 C 0.53175 0.62287 0.28494 0.0
C1051 C 0.5255 0.63288 0.30704 0.0
C1052 C 0.50033 0.61348 0.32114 0.0
C1053 C 0.48123 0.5844 0.31301 0.0
C1054 C 0.48748 0.57479 0.29058 0.0
C1055 C 0.51246 0.59387 0.27705 0.0
C1056 C 0.51525 0.58021 0.25342 0.0
C1057 C 0.4878 0.54961 0.25503 0.0
C1058 C 0.47163 0.54667 0.27674 0.0
C1059 C 0.54418 0.57855 0.25452 0.0
C1060 C 0.51378 0.59904 0.23156 0.0
H1061 H 0.38853 0.43607 0.24714 0.0
H1062 H 0.36747 0.47305 0.32545 0.0
H1063 H 0.39067 0.5267 0.29079 0.0
H1064 H 0.42564 0.55709 0.29784 0.0
H1065 H 0.40149 0.53464 0.32275 0.0
H1066 H 0.4375 0.48926 0.32796 0.0
H1067 H 0.42259 0.5094 0.34369 0.0
H1068 H 0.45939 0.52823 0.33044 0.0
H1069 H 0.44939 0.47409 0.16727 0.0
H1070 H 0.5349 0.55467 0.16388 0.0
H1071 H 0.53161 0.56324 0.20755 0.0
H1072 H 0.4612 0.45283 0.22105 0.0
H1073 H 0.4235 0.433 0.21049 0.0
H1074 H 0.43255 0.44269 0.24284 0.0
H1075 H 0.41515 0.49899 0.19956 0.0
H1076 H 0.39272 0.46971 0.22022 0.0
H1077 H 0.40358 0.46116 0.19116 0.0
H1078 H 0.34284 0.4051 0.26936 0.0
C1079 C 0.38486 0.44475 0.26401 0.0
O1080 O 0.47348 0.95811 0.93768 0.0
Mg1081 Mg 0.5092 0.97162 0.96261 0.0
O1082 O 0.48916 0.00252 0.95224 0.0
Mg1083 Mg 0.49156 -0.00893 -0.0048 0.0
O1084 O 0.50421 0.95237 -0.00376 0.0
O1085 O 0.52281 0.94167 0.96242 0.0
O1086 O 0.4939 0.97863 0.03808 0.0
O1087 O 0.44206 0.95508 -0.00631 0.0
Mg1088 Mg 0.47431 0.00898 0.02776 0.0
O1089 O 0.47864 0.03002 -0.0051 0.0
O1090 O 0.50996 0.0228 0.05308 0.0
O1091 O 0.43493 0.96615 0.03154 0.0
O1092 O 0.46059 0.03867 0.02989 0.0
C1093 C 0.55827 0.03134 0.97758 0.0
C1094 C 0.47739 0.98391 0.93454 0.0
C1095 C 0.51608 0.93821 0.98571 0.0
C1096 C 0.50529 -0.00328 0.05615 0.0
C1097 C 0.42555 0.94926 0.01272 0.0
C1098 C 0.46694 0.04371 0.00659 0.0
O1099 O 0.54887 0.01373 0.95921 0.0
O1100 O 0.5414 0.02699 -0.00382 0.0
O1101 O 0.01011 0.52823 0.93003 0.0
Mg1102 Mg 0.01877 0.55811 0.9589 0.0
O1103 O -0.01076 0.48637 0.95205 0.0
Mg1104 Mg -0.00535 0.49682 -0.00573 0.0
O1105 O 0.03049 0.54506 0.99006 0.0
O1106 O 0.06401 0.58136 0.96777 0.0
O1107 O 0.00357 0.51089 0.03763 0.0
O1108 O 0.03055 0.48444 0.99258 0.0
Mg1109 Mg 0.97848 0.45993 0.02694 0.0
O1110 O 0.95571 0.44492 -0.00528 0.0
O1111 O 0.96041 0.47773 0.05171 0.0
O1112 O 0.02301 0.46793 0.03085 0.0
O1113 O 0.95272 0.4157 0.02712 0.0
C1114 C 0.95968 0.53571 0.98775 0.0
C1115 C -0.00266 0.50014 0.93134 0.0
C1116 C 0.05804 0.56448 0.98697 0.0
C1117 C 0.98448 0.50145 0.05519 0.0
C1118 C 0.0387 0.47571 0.01133 0.0
C1119 C 0.94443 0.41878 0.00531 0.0
O1120 O 0.98096 0.5566 0.97549 0.0
O1121 O 0.95933 0.51167 -0.00594 0.0
O1122 O 0.46734 0.45669 0.06111 0.0
Mg1123 Mg 0.44916 0.42637 0.03209 0.0
O1124 O 0.49435 0.49819 0.03923 0.0
Mg1125 Mg 0.49047 0.48704 -0.00305 0.0
O1126 O 0.4756 0.43832 0.0019 0.0
O1127 O 0.47177 0.40289 0.02597 0.0
O1128 O 0.4848 0.47059 0.95368 0.0
O1129 O 0.53871 0.4976 -0.00143 0.0
Mg1130 Mg 0.50902 0.51957 0.96537 0.0
O1131 O 0.50606 0.5404 -0.00439 0.0
O1132 O 0.47276 0.50267 0.94102 0.0
O1133 O 0.54528 0.51168 0.95975 0.0
O1134 O 0.52856 0.56333 0.96007 0.0
C1135 C 0.41611 0.45161 0.00273 0.0
C1136 C 0.48471 0.4845 0.05986 0.0
C1137 C 0.48295 0.41848 0.00618 0.0
C1138 C 0.47497 0.48015 0.93635 0.0
C1139 C 0.55468 0.5054 0.97919 0.0
C1140 C 0.52033 0.56468 0.98231 0.0
O1141 O 0.4144 0.42896 0.01373 0.0
O1142 O 0.44089 0.47493 -0.0026 0.0
O1143 O 0.1653 0.29379 0.26315 0.0
Mg1144 Mg 0.18829 0.29018 0.29328 0.0
O1145 O 0.15588 0.32528 0.28333 0.0
Mg1146 Mg 0.15963 0.32041 0.32668 0.0
O1147 O 0.16454 0.27903 0.32491 0.0
O1148 O 0.17796 0.24905 0.30667 0.0
O1149 O 0.16206 0.31171 0.36981 0.0
O1150 O 0.10978 0.2896 0.32892 0.0
Mg1151 Mg 0.1476 0.3485 0.36087 0.0
O1152 O 0.15284 0.36276 0.32531 0.0
O1153 O 0.18328 0.35657 0.38454 0.0
O1154 O 0.10505 0.30905 0.36414 0.0
O1155 O 0.14422 0.38532 0.35745 0.0
C1156 C 0.23239 0.35019 0.31659 0.0
C1157 C 0.15689 0.31284 0.26311 0.0
C1158 C 0.16679 0.25527 0.32559 0.0
C1159 C 0.17487 0.32943 0.38785 0.0
C1160 C 0.09418 0.28931 0.34724 0.0
C1161 C 0.14765 0.38321 0.33395 0.0
O1162 O 0.22871 0.32811 0.30359 0.0
O1163 O 0.21058 0.35191 0.32557 0.0
O1164 O 0.68799 0.83714 0.2748 0.0
Mg1165 Mg 0.67342 0.85812 0.3004 0.0
O1166 O 0.64438 0.80855 0.2903 0.0
Mg1167 Mg 0.66021 0.82537 0.33197 0.0
O1168 O 0.69794 0.87764 0.33076 0.0
O1169 O 0.69979 0.90179 0.29527 0.0
O1170 O 0.6741 0.8406 0.37533 0.0
O1171 O 0.6975 0.81506 0.32532 0.0
Mg1172 Mg 0.64873 0.79252 0.36073 0.0
O1173 O 0.62302 0.77288 0.33146 0.0
O1174 O 0.62939 0.80839 0.386 0.0
O1175 O 0.69344 0.80083 0.36393 0.0
O1176 O 0.62483 0.74833 0.36518 0.0
C1177 C 0.61498 0.84587 0.31887 0.0
C1178 C 0.66237 0.81511 0.27225 0.0
C1179 C 0.70873 0.90199 0.3176 0.0
C1180 C 0.6539 0.83022 0.39199 0.0
C1181 C 0.70754 0.80754 0.34361 0.0
C1182 C 0.61374 0.74817 0.34377 0.0
O1183 O 0.6299 0.85279 0.29892 0.0
O1184 O 0.62324 0.8366 0.33734 0.0
O1185 O 0.12806 0.79484 0.38616 0.0
Mg1186 Mg 0.12243 0.77313 0.35262 0.0
O1187 O 0.16734 0.8336 0.37048 0.0
Mg1188 Mg 0.16026 0.8234 0.32789 0.0
O1189 O 0.15305 0.77442 0.32872 0.0
O1190 O 0.13051 0.7396 0.3585 0.0
O1191 O 0.1539 0.80959 0.2841 0.0
O1192 O 0.20958 0.83707 0.32746 0.0
Mg1193 Mg 0.1773 0.85874 0.29773 0.0
O1194 O 0.17105 0.87566 0.32928 0.0
O1195 O 0.14246 0.84234 0.27219 0.0
O1196 O 0.21764 0.85855 0.29108 0.0
O1197 O 0.19213 0.9019 0.29453 0.0
C1198 C 0.08411 0.78569 0.32956 0.0
C1199 C 0.15063 0.82011 0.3889 0.0
C1200 C 0.14594 0.74856 0.33834 0.0
C1201 C 0.1443 0.81975 0.26709 0.0
C1202 C 0.22666 0.84964 0.30915 0.0
C1203 C 0.18305 0.9008 0.31691 0.0
O1204 O 0.08351 0.76151 0.33397 0.0
O1205 O 0.10902 0.81019 0.3295 0.0
O1206 O 0.81109 0.62309 0.60334 0.0
Mg1207 Mg 0.84159 0.62506 0.62989 0.0
O1208 O 0.82669 0.66703 0.61961 0.0
Mg1209 Mg 0.82887 0.66202 0.66325 0.0
O1210 O 0.82916 0.61734 0.66597 0.0
O1211 O 0.83369 0.58458 0.64198 0.0
O1212 O 0.82986 0.6602 0.70668 0.0
O1213 O 0.77691 0.63506 0.66508 0.0
Mg1214 Mg 0.79844 0.70137 0.68974 0.0
O1215 O 0.83046 0.70761 0.66283 0.0
O1216 O 0.80913 0.68549 0.72246 0.0
O1217 O 0.7585 0.66314 0.67875 0.0
O1218 O 0.83067 0.70794 0.66242 0.0
C1219 C 0.89666 0.6834 0.64629 0.0
C1220 C 0.81576 0.64928 0.60126 0.0
C1221 C 0.82951 0.59258 0.6636 0.0
C1222 C 0.82123 0.66954 0.72513 0.0
C1223 C 0.75484 0.63852 0.67047 0.0
C1224 C 0.83693 0.72597 0.6447 0.0
O1225 O 0.88645 0.66149 0.63123 0.0
O1226 O 0.87966 0.68749 0.66086 0.0
O1227 O 0.35685 0.16563 0.61477 0.0
Mg1228 Mg 0.34136 0.18927 0.63637 0.0
O1229 O 0.31043 0.14133 0.62375 0.0
Mg1230 Mg 0.32342 0.15742 0.66636 0.0
O1231 O 0.36273 0.21002 0.66693 0.0
O1232 O 0.37239 0.23118 0.6288 0.0
O1233 O 0.33342 0.17133 0.70966 0.0
O1234 O 0.3606 0.14627 0.66317 0.0
Mg1235 Mg 0.30859 0.11988 0.69802 0.0
O1236 O 0.28594 0.10597 0.66584 0.0
O1237 O 0.29041 0.13712 0.72289 0.0
O1238 O 0.35334 0.12829 0.70094 0.0
O1239 O 0.28167 0.07573 0.69784 0.0
C1240 C 0.28282 0.1819 0.64966 0.0
C1241 C 0.33101 0.14676 0.60835 0.0
C1242 C 0.3776 0.23282 0.65226 0.0
C1243 C 0.31387 0.16123 0.72687 0.0
C1244 C 0.36909 0.13703 0.68143 0.0
C1245 C 0.27381 0.07974 0.67614 0.0
O1246 O 0.30044 0.18934 0.6313 0.0
O1247 O 0.28699 0.16968 0.66848 0.0
O1248 O 0.85033 0.14892 0.71711 0.0
Mg1249 Mg 0.81203 0.12435 0.69491 0.0
O1250 O 0.82881 0.17342 0.70568 0.0
Mg1251 Mg 0.82573 0.15816 0.66267 0.0
O1252 O 0.81347 0.10631 0.66253 0.0
O1253 O 0.8016 0.08182 0.69923 0.0
O1254 O 0.82109 0.14113 0.6197 0.0
O1255 O 0.87513 0.1712 0.66441 0.0
Mg1256 Mg 0.84098 0.18922 0.63221 0.0
O1257 O 0.83864 0.21106 0.66191 0.0
O1258 O 0.80383 0.16945 0.60852 0.0
O1259 O 0.87891 0.18411 0.62543 0.0
O1260 O 0.85784 0.23241 0.62501 0.0
C1261 C 0.76094 0.13319 0.68177 0.0
C1262 C 0.84288 0.16791 0.72228 0.0
C1263 C 0.80539 0.08222 0.67556 0.0
C1264 C 0.80873 0.14875 0.60309 0.0
C1265 C 0.88989 0.1787 0.64432 0.0
C1266 C 0.85104 0.23459 0.64757 0.0
O1267 O 0.77201 0.12634 0.6999 0.0
O1268 O 0.77616 0.14418 0.66209 0.0
C1269 C 0.34274 0.91166 0.0057 0.0
C1270 C 0.33296 0.88676 0.02138 0.0
C1271 C 0.37313 0.93061 0.00111 0.0
C1272 C 0.39445 0.92534 0.01238 0.0
H1273 H 0.32694 0.91728 -0.00203 0.0
H1274 H 0.38007 0.95053 0.99003 0.0
S1275 S 0.37995 0.86216 0.05357 0.0
N1276 N 0.34663 0.85671 0.04678 0.0
N1277 N 0.40382 0.89287 0.03867 0.0
C1278 C 0.38485 0.89981 0.02711 0.0
C1279 C 0.35399 0.88031 0.03147 0.0
C1280 C 0.08482 0.44206 0.99168 0.0
C1281 C 0.10648 0.45233 0.01033 0.0
C1282 C 0.06385 0.45148 0.99108 0.0
C1283 C 0.06394 0.4709 0.00936 0.0
H1284 H 0.08288 0.42529 0.97861 0.0
H1285 H 0.04632 0.44198 0.97733 0.0
S1286 S 0.11905 0.50745 0.05945 0.0
N1287 N 0.12928 0.48573 0.04533 0.0
N1288 N 0.08927 0.50276 0.04454 0.0
C1289 C 0.08673 0.48286 0.02692 0.0
C1290 C 0.10827 0.47375 0.02728 0.0
C1291 C 0.52143 0.62407 0.02439 0.0
C1292 C 0.53869 0.65038 0.0107 0.0
C1293 C 0.51554 0.59633 0.01518 0.0
C1294 C 0.52699 0.59411 0.99208 0.0
H1295 H 0.51241 0.62498 0.04232 0.0
H1296 H 0.50195 0.57658 0.02623 0.0
S1297 S 0.57559 0.65741 0.9502 0.0
N1298 N 0.56831 0.67305 0.97379 0.0
N1299 N 0.55778 0.62134 0.95631 0.0
C1300 C 0.54476 0.62059 0.97845 0.0
C1301 C 0.55046 0.64863 0.98779 0.0
C1302 C 0.91044 0.3415 0.97939 0.0
C1303 C 0.88073 0.33374 0.97551 0.0
C1304 C 0.93127 0.36984 0.98787 0.0
C1305 C 0.92327 0.39159 0.99226 0.0
H1306 H 0.91743 0.32522 0.97656 0.0
H1307 H 0.95368 0.37459 0.99162 0.0
S1308 S 0.84888 0.38313 0.98386 0.0
N1309 N 0.84453 0.35037 0.9759 0.0
N1310 N 0.88415 0.40411 0.99165 0.0
C1311 C 0.89398 0.3846 0.98774 0.0
C1312 C 0.87254 0.35549 0.97944 0.0
C1313 C 0.62832 0.51809 0.95649 0.0
C1314 C 0.6476 0.5349 0.97583 0.0
C1315 C 0.59779 0.50681 0.9584 0.0
C1316 C 0.58545 0.51156 0.97989 0.0
H1317 H 0.63706 0.51461 0.93931 0.0
H1318 H 0.58387 0.49529 0.94259 0.0
S1319 S 0.6261 0.55234 0.03647 0.0
N1320 N 0.65218 0.55449 0.01761 0.0
N1321 N 0.5944 0.53263 0.02152 0.0
C1322 C 0.60419 0.52663 5e-05 0.0
C1323 C 0.63543 0.53848 -0.00204 0.0
C1324 C 0.43444 0.09372 -0.00436 0.0
C1325 C 0.43326 0.09514 0.96962 0.0
C1326 C 0.4466 0.07814 0.00721 0.0
C1327 C 0.458 0.06308 -0.00671 0.0
H1328 H 0.42534 0.10426 0.00727 0.0
H1329 H 0.44637 0.07744 0.02734 0.0
S1330 S 0.4618 0.0614 0.92442 0.0
N1331 N 0.44597 0.08159 0.93009 0.0
N1332 N 0.46832 0.05157 0.95189 0.0
C1333 C 0.45762 0.06485 0.96719 0.0
C1334 C 0.44525 0.08092 0.95535 0.0
C1335 C 0.64018 0.06038 0.97565 0.0
C1336 C 0.65167 0.0902 0.96829 0.0
C1337 C 0.60991 0.04212 0.98068 0.0
C1338 C 0.59014 0.05303 0.97852 0.0
H1339 H 0.65447 0.05077 0.97644 0.0
H1340 H 0.60162 0.01883 0.985 0.0
S1341 S 0.60917 0.12971 0.96117 0.0
N1342 N 0.64119 0.13026 0.96032 0.0
N1343 N 0.58403 0.09556 0.96973 0.0
C1344 C 0.60145 0.08312 0.97252 0.0
C1345 C 0.63236 0.10184 0.96745 0.0
C1346 C 0.88347 0.52365 0.97836 0.0
C1347 C 0.88843 0.55257 0.98243 0.0
C1348 C 0.90581 0.51678 0.98332 0.0
C1349 C 0.93362 0.53889 0.99207 0.0
H1350 H 0.86338 0.50718 0.96918 0.0
H1351 H 0.90242 0.49519 0.97775 0.0
S1352 S 0.95496 0.61599 0.01027 0.0
N1353 N 0.92091 0.60179 -0.00073 0.0
N1354 N 0.96312 0.58905 0.00848 0.0
C1355 C 0.93744 0.56676 -0.00117 0.0
C1356 C 0.91472 0.57361 -0.00605 0.0
C1357 C 0.44897 0.35912 0.9608 0.0
C1358 C 0.46376 0.34314 0.96584 0.0
C1359 C 0.45962 0.38788 0.96995 0.0
C1360 C 0.48463 0.40117 0.98544 0.0
H1361 H 0.42754 0.34862 0.95176 0.0
H1362 H 0.44564 0.39776 0.96793 0.0
S1363 S 0.53634 0.37328 -0.00214 0.0
N1364 N 0.50937 0.34657 0.98142 0.0
N1365 N 0.52752 0.39963 0.00092 0.0
C1366 C 0.50179 0.38741 0.98782 0.0
C1367 C 0.49162 0.35848 0.97767 0.0
C1368 C 0.08523 0.62165 0.03365 0.0
C1369 C 0.11578 0.63703 0.02778 0.0
C1370 C 0.06634 0.59292 0.02471 0.0
C1371 C 0.07702 0.57934 0.00838 0.0
H1372 H 0.07504 0.63266 0.04315 0.0
H1373 H 0.04264 0.58363 0.02723 0.0
S1374 S 0.15579 0.60497 -0.00556 0.0
N1375 N 0.15674 0.63219 0.01111 0.0
N1376 N 0.12037 0.57932 0.99203 0.0
C1377 C 0.10778 0.59219 0.0056 0.0
C1378 C 0.12734 0.62102 0.01552 0.0
C1379 C 0.35581 0.46164 0.02834 0.0
C1380 C 0.33078 0.43824 0.01685 0.0
C1381 C 0.38442 0.46903 0.02086 0.0
C1382 C 0.38868 0.45278 0.00204 0.0
H1383 H 0.35321 0.47293 0.04426 0.0
H1384 H 0.40313 0.48536 0.03159 0.0
S1385 S 0.33047 0.39258 0.96389 0.0
N1386 N 0.31194 0.40162 0.98368 0.0
N1387 N 0.366 0.41477 0.97023 0.0
C1388 C 0.36394 0.43113 0.98903 0.0
C1389 C 0.3348 0.424 -0.00369 0.0
C1390 C 0.51808 0.88104 0.02828 0.0
C1391 C 0.5485 0.89017 0.02824 0.0
C1392 C 0.50745 0.89719 0.01508 0.0
C1393 C 0.52693 0.92226 0.00099 0.0
H1394 H 0.50248 0.86117 0.03836 0.0
H1395 H 0.48389 0.88954 0.01525 0.0
S1396 S 0.60849 0.95557 -0.00442 0.0
N1397 N 0.59792 0.92632 0.01392 0.0
N1398 N 0.5779 0.95611 0.98841 0.0
C1399 C 0.55738 0.93175 0.00113 0.0
C1400 C 0.56821 0.91579 0.01495 0.0
C1401 C 0.01213 0.25797 0.35153 0.0
C1402 C 0.00203 0.22848 0.35911 0.0
C1403 C 0.0421 0.27718 0.3463 0.0
C1404 C 0.06268 0.26734 0.34836 0.0
H1405 H -0.00305 0.26655 0.35072 0.0
H1406 H 0.04945 0.30019 0.34155 0.0
S1407 S 0.04731 0.192 0.36645 0.0
N1408 N 0.0146 0.18997 0.36754 0.0
N1409 N 0.07124 0.22633 0.35735 0.0
C1410 C 0.05276 0.23757 0.35462 0.0
C1411 C 0.02222 0.21798 0.36007 0.0
C1412 C 0.77637 0.80511 0.35945 0.0
C1413 C 0.77485 0.78339 0.34292 0.0
C1414 C 0.75547 0.81447 0.35851 0.0
C1415 C 0.7328 0.80277 0.34072 0.0
H1416 H 0.79267 0.81342 0.37424 0.0
H1417 H 0.75616 0.82984 0.3725 0.0
S1418 S 0.72043 0.74698 0.29227 0.0
N1419 N 0.74996 0.75156 0.30756 0.0
N1420 N 0.7109 0.76986 0.30527 0.0
C1421 C 0.7323 0.7827 0.32292 0.0
C1422 C 0.75337 0.77282 0.32413 0.0
C1423 C 0.20592 0.98231 0.32165 0.0
C1424 C 0.20135 0.98587 0.34676 0.0
C1425 C 0.19906 0.95451 0.31233 0.0
C1426 C 0.18737 0.92897 0.32772 0.0
H1427 H 0.21581 0.00135 0.30921 0.0
H1428 H 0.20366 0.95337 0.29284 0.0
S1429 S 0.16845 0.926 0.39453 0.0
N1430 N 0.1822 0.96135 0.38666 0.0
N1431 N 0.16967 0.90882 0.36909 0.0
C1432 C 0.1816 0.93196 0.35274 0.0
C1433 C 0.18857 0.96047 0.36228 0.0
C1434 C 0.55789 0.66609 0.3402 0.0
C1435 C 0.54637 0.6629 0.31617 0.0
C1436 C 0.57947 0.69388 0.34887 0.0
C1437 C 0.59029 0.71954 0.33384 0.0
H1438 H 0.55074 0.64683 0.35217 0.0
H1439 H 0.58789 0.69503 0.36749 0.0
S1440 S 0.5658 0.72288 0.26968 0.0
N1441 N 0.54604 0.68736 0.27763 0.0
N1442 N 0.587 0.74002 0.29389 0.0
C1443 C 0.57845 0.71673 0.30984 0.0
C1444 C 0.55641 0.68826 0.301 0.0
C1445 C 0.29707 0.84576 0.30494 0.0
C1446 C 0.31898 0.87583 0.30803 0.0
C1447 C 0.26683 0.83692 0.30622 0.0
C1448 C 0.25796 0.85803 0.31049 0.0
H1449 H 0.30337 0.8293 0.3004 0.0
H1450 H 0.2504 0.8138 0.3029 0.0
S1451 S 0.3067 0.93863 0.32264 0.0
N1452 N 0.32983 0.92607 0.31758 0.0
N1453 N 0.27297 0.90947 0.31997 0.0
C1454 C 0.27962 0.88779 0.31482 0.0
C1455 C 0.31024 0.89673 0.31358 0.0
C1456 C 0.09828 0.39813 0.29296 0.0
C1457 C 0.11084 0.4293 0.29473 0.0
C1458 C 0.11207 0.38358 0.30383 0.0
C1459 C 0.13865 0.39959 0.31715 0.0
H1460 H 0.07695 0.38464 0.28412 0.0
H1461 H 0.10081 0.35944 0.30324 0.0
S1462 S 0.18271 0.48138 0.3249 0.0
N1463 N 0.15366 0.47587 0.30838 0.0
N1464 N 0.17816 0.44795 0.33031 0.0
C1465 C 0.15211 0.43065 0.3183 0.0
C1466 C 0.13856 0.44564 0.30671 0.0
C1467 C 0.31516 0.38897 0.31795 0.0
C1468 C 0.32295 0.41808 0.31098 0.0
C1469 C 0.28559 0.36758 0.32233 0.0
C1470 C 0.26295 0.37468 0.31983 0.0
H1471 H 0.33175 0.38216 0.31818 0.0
H1472 H 0.28016 0.3448 0.3259 0.0
S1473 S 0.27263 0.44909 0.30592 0.0
N1474 N 0.30657 0.4541 0.30486 0.0
N1475 N 0.25059 0.41365 0.31327 0.0
C1476 C 0.27079 0.40448 0.31555 0.0
C1477 C 0.30102 0.42632 0.31101 0.0
C1478 C 0.54627 0.85068 0.30847 0.0
C1479 C 0.55661 0.88083 0.31403 0.0
C1480 C 0.56449 0.83821 0.31206 0.0
C1481 C 0.59313 0.85546 0.32181 0.0
H1482 H 0.52501 0.83744 0.29941 0.0
H1483 H 0.55692 0.81569 0.30572 0.0
S1484 S 0.62929 0.93445 0.34137 0.0
N1485 N 0.59632 0.9269 0.33114 0.0
N1486 N 0.63028 0.90321 0.33856 0.0
C1487 C 0.60279 0.88488 0.32914 0.0
C1488 C 0.58453 0.89767 0.32511 0.0
C1489 C 0.14441 0.67857 0.31925 0.0
C1490 C 0.11748 0.66428 0.30587 0.0
C1491 C 0.15624 0.70796 0.32778 0.0
C1492 C 0.14242 0.72451 0.32202 0.0
H1493 H 0.15585 0.66664 0.32409 0.0
H1494 H 0.17528 0.71718 0.34004 0.0
S1495 S 0.07245 0.69887 0.28735 0.0
N1496 N 0.07713 0.66966 0.2882 0.0
N1497 N 0.10182 0.72579 0.30128 0.0
C1498 C 0.11705 0.71155 0.30703 0.0
C1499 C 0.10389 0.68119 0.29972 0.0
C1500 C 0.74681 0.98349 0.33265 0.0
C1501 C 0.77297 0.98837 0.34421 0.0
C1502 C 0.72588 0.9551 0.32449 0.0
C1503 C 0.73025 0.93072 0.32818 0.0
H1504 H 0.74265 0.0018 0.32979 0.0
H1505 H 0.70607 0.95216 0.31528 0.0
S1506 S 0.79482 0.93202 0.35827 0.0
N1507 N 0.80223 0.96698 0.35937 0.0
N1508 N 0.76222 0.91299 0.34444 0.0
C1509 C 0.75601 0.93516 0.34023 0.0
C1510 C 0.77764 0.96427 0.34813 0.0
C1511 C 0.00189 0.75461 0.33072 0.0
C1512 C -0.00137 0.7681 0.35218 0.0
C1513 C 0.03019 0.76283 0.32148 0.0
C1514 C 0.05594 0.78532 0.33305 0.0
H1515 H 0.98261 0.7363 0.32204 0.0
H1516 H 0.03205 0.75019 0.30625 0.0
S1517 S 0.05873 0.82927 0.38832 0.0
N1518 N 0.02297 0.80625 0.38367 0.0
N1519 N 0.07615 0.82226 0.36598 0.0
C1520 C 0.05272 0.80052 0.35333 0.0
C1521 C 0.02401 0.79169 0.36305 0.0
C1522 C 0.19889 0.23992 0.38023 0.0
C1523 C 0.18603 0.20876 0.3783 0.0
C1524 C 0.18834 0.25527 0.36587 0.0
C1525 C 0.16514 0.23993 0.34885 0.0
H1526 H 0.21893 0.25287 0.39095 0.0
H1527 H 0.20098 0.27943 0.36566 0.0
S1528 S 0.11867 0.15821 0.3421 0.0
N1529 N 0.14405 0.1628 0.36279 0.0
N1530 N 0.1259 0.19209 0.33442 0.0
C1531 C 0.14966 0.20876 0.34925 0.0
C1532 C 0.1598 0.19303 0.36428 0.0
C1533 C 0.67276 0.59513 0.68317 0.0
C1534 C 0.66744 0.56605 0.68673 0.0
C1535 C 0.70049 0.61792 0.67529 0.0
C1536 C 0.7242 0.61262 0.67109 0.0
H1537 H 0.65578 0.60062 0.68775 0.0
H1538 H 0.70384 0.64028 0.67411 0.0
S1539 S 0.7197 0.53881 0.67361 0.0
N1540 N 0.68634 0.53191 0.68219 0.0
N1541 N 0.73898 0.57493 0.66762 0.0
C1542 C 0.71824 0.58293 0.67225 0.0
C1543 C 0.68972 0.55958 0.68012 0.0
C1544 C 0.43686 0.13417 0.70106 0.0
C1545 C 0.44153 0.11968 0.68091 0.0
C1546 C 0.41422 0.14115 0.70055 0.0
C1547 C 0.39594 0.13455 0.67964 0.0
H1548 H 0.44957 0.13831 0.71802 0.0
H1549 H 0.41023 0.15069 0.717 0.0
S1550 S 0.40135 0.10011 0.62094 0.0
N1551 N 0.42774 0.10118 0.63876 0.0
N1552 N 0.38561 0.11543 0.63735 0.0
C1553 C 0.402 0.12249 0.65851 0.0
C1554 C 0.42481 0.11483 0.65922 0.0
C1555 C 0.84726 0.29468 0.68486 0.0
C1556 C 0.868 0.32092 0.67254 0.0
C1557 C 0.8419 0.26668 0.67686 0.0
C1558 C 0.85732 0.26416 0.65642 0.0
H1559 H 0.8354 0.29593 0.70096 0.0
H1560 H 0.82559 0.24696 0.6867 0.0
S1561 S 0.91587 0.32687 0.61944 0.0
N1562 N 0.90498 0.34308 0.63998 0.0
N1563 N 0.89548 0.29074 0.62489 0.0
C1564 C 0.87842 0.29047 0.64417 0.0
C1565 C 0.8836 0.31881 0.65223 0.0
C1566 C 0.20158 0.0139 0.65647 0.0
C1567 C 0.21121 -0.00367 0.64411 0.0
C1568 C 0.22209 0.04212 0.66566 0.0
C1569 C 0.25263 0.05352 0.66243 0.0
H1570 H 0.17813 0.00563 0.65935 0.0
H1571 H 0.21412 0.05467 0.67599 0.0
S1572 S 0.28947 0.01678 0.63187 0.0
N1573 N 0.25365 -0.0075 0.62968 0.0
N1574 N 0.29183 0.046 0.64626 0.0
C1575 C 0.26258 0.0367 0.6497 0.0
C1576 C 0.24192 0.00793 0.64066 0.0
C1577 C 0.97081 0.20714 0.65922 0.0
C1578 C 0.98133 0.20174 0.63684 0.0
C1579 C 0.94058 0.19792 0.66229 0.0
C1580 C 0.92017 0.18328 0.64298 0.0
H1581 H 0.98619 0.21978 0.67393 0.0
H1582 H 0.93348 0.20376 0.67926 0.0
S1583 S 0.93563 0.15904 0.58278 0.0
N1584 N 0.96824 0.17697 0.59667 0.0
N1585 N 0.91179 0.16049 0.60218 0.0
C1586 C 0.93012 0.17603 0.62127 0.0
C1587 C 0.96063 0.18504 0.61827 0.0
C1588 C 0.76991 0.73445 0.63315 0.0
C1589 C 0.78239 0.76541 0.63021 0.0
C1590 C 0.78778 0.72197 0.63815 0.0
C1591 C 0.81875 0.73996 0.64032 0.0
H1592 H 0.74618 0.71974 0.63132 0.0
H1593 H 0.7774 0.69797 0.63964 0.0
S1594 S 0.86249 0.822 0.63389 0.0
N1595 N 0.82776 0.81376 0.62964 0.0
N1596 N 0.86127 0.78993 0.63899 0.0
C1597 C 0.83158 0.77081 0.63737 0.0
C1598 C 0.81339 0.78366 0.6325 0.0
C1599 C 0.97875 0.71339 0.63868 0.0
C1600 C -0.00966 0.74444 0.63781 0.0
C1601 C 0.94849 0.69382 0.64255 0.0
C1602 C 0.92881 0.70456 0.64628 0.0
H1603 H -0.00705 0.70407 0.6351 0.0
H1604 H 0.94029 0.67005 0.64185 0.0
S1605 S 0.94814 0.78375 0.64867 0.0
N1606 N 0.97993 0.78504 0.64284 0.0
N1607 N 0.92309 0.74802 0.65122 0.0
C1608 C 0.94033 0.7355 0.64754 0.0
C1609 C 0.97114 0.75553 0.6431 0.0
C1610 C 0.25571 0.2366 0.64885 0.0
C1611 C 0.22514 0.21847 0.64443 0.0
C1612 C 0.27392 0.22418 0.65182 0.0
C1613 C 0.26211 0.19321 0.65088 0.0
H1614 H 0.26592 0.26067 0.64841 0.0
H1615 H 0.29764 0.23896 0.65376 0.0
S1616 S 0.18325 0.13578 0.64286 0.0
N1617 N 0.18349 0.16778 0.64136 0.0
N1618 N 0.21802 0.14444 0.64773 0.0
C1619 C 0.23139 0.17463 0.64856 0.0
C1620 C 0.21275 0.1873 0.64524 0.0
C1621 C 0.79958 0.00853 0.66151 0.0
C1622 C 0.77159 -0.00719 0.64999 0.0
C1623 C 0.8115 0.0384 0.66848 0.0
C1624 C 0.79628 0.05376 0.66342 0.0
H1625 H 0.8123 -0.00235 0.66538 0.0
H1626 H 0.83241 0.04937 0.67837 0.0
S1627 S 0.72219 0.02331 0.6347 0.0
N1628 N 0.72843 -0.00496 0.63508 0.0
N1629 N 0.7521 0.05175 0.64675 0.0
C1630 C 0.76879 0.03882 0.65145 0.0
C1631 C 0.75612 0.00819 0.64505 0.0
C1632 C 0.40852 0.30979 0.67744 0.0
C1633 C 0.43928 0.32234 0.67349 0.0
C1634 C 0.38875 0.27994 0.67197 0.0
C1635 C 0.39905 0.26181 0.66212 0.0
H1636 H 0.39961 0.32321 0.6847 0.0
H1637 H 0.36518 0.27124 0.67467 0.0
S1638 S 0.47678 0.28322 0.64795 0.0
N1639 N 0.47891 0.31377 0.65947 0.0
N1640 N 0.44115 0.25781 0.64794 0.0
C1641 C 0.42944 0.27385 0.65772 0.0
C1642 C 0.44974 0.30415 0.66366 0.0
C1643 C 0.69098 0.12195 0.71191 0.0
C1644 C 0.66904 0.10523 0.69424 0.0
C1645 C 0.72092 0.1326 0.70688 0.0
C1646 C 0.73021 0.12722 0.68397 0.0
H1647 H 0.68482 0.12581 0.7302 0.0
H1648 H 0.73687 0.14424 0.7214 0.0
S1649 S 0.68185 0.08696 0.63049 0.0
N1650 N 0.65863 0.08552 0.65218 0.0
N1651 N 0.71544 0.10597 0.64263 0.0
C1652 C 0.70879 0.11231 0.66542 0.0
C1653 C 0.67803 0.10121 0.6706 0.0
C1654 C 0.87617 0.58107 0.70917 0.0
C1655 C 0.86209 0.54976 0.70985 0.0
C1656 C 0.86288 0.5954 0.69704 0.0
C1657 C 0.83537 0.57883 0.68503 0.0
H1658 H 0.89852 0.59453 0.71621 0.0
H1659 H 0.87568 0.6194 0.69472 0.0
S1660 S 0.78653 0.49695 0.68654 0.0
N1661 N 0.81647 0.50302 0.70196 0.0
N1662 N 0.79252 0.53012 0.67783 0.0
C1663 C 0.8198 0.54783 0.68783 0.0
C1664 C 0.83295 0.53323 0.70058 0.0
C1665 C 0.47157 0.95046 0.11389 0.0
C1666 C 0.48988 0.96928 0.13287 0.0
C1667 C 0.47827 0.95834 0.08878 0.0
C1668 C 0.50318 0.98563 0.08183 0.0
H1669 H 0.45158 0.9298 0.11852 0.0
H1670 H 0.46278 0.9438 0.07483 0.0
S1671 S 0.55913 0.0417 0.12446 0.0
N1672 N 0.53494 0.0153 0.14309 0.0
N1673 N 0.54711 0.03057 0.09587 0.0
C1674 C 0.52227 0.00404 0.10062 0.0
C1675 C 0.51573 -0.00425 0.12616 0.0
C1676 C 0.97511 0.50837 0.12373 0.0
C1677 C 0.00206 0.51277 0.13338 0.0
C1678 C 0.97043 0.50724 0.09803 0.0
C1679 C -0.00725 0.51107 0.08114 0.0
H1680 H 0.95714 0.50464 0.13613 0.0
H1681 H 0.94873 0.50203 0.09132 0.0
S1682 S 0.06846 0.52666 0.09728 0.0
N1683 N 0.05218 0.52345 0.12438 0.0
N1684 N 0.04357 0.52166 0.07596 0.0
C1685 C 0.02046 0.51737 0.0906 0.0
C1686 C 0.02502 0.51801 0.11678 0.0
C1687 C 0.51636 0.51174 0.12296 0.0
C1688 C 0.49229 0.51172 0.13491 0.0
C1689 C 0.51541 0.506 0.09741 0.0
C1690 C 0.49064 0.50067 0.08321 0.0
H1691 H 0.53521 0.51453 0.13366 0.0
H1692 H 0.53314 0.5037 0.0891 0.0
S1693 S 0.42379 0.50188 0.10502 0.0
N1694 N 0.44445 0.50886 0.13015 0.0
N1695 N 0.44274 0.49793 0.08217 0.0
C1696 C 0.46746 0.50262 0.09459 0.0
C1697 C 0.46826 0.50819 0.12049 0.0
C1698 C 0.00385 0.48787 0.86371 0.0
C1699 C 0.97629 0.4628 0.8586 0.0
C1700 C 0.01151 0.49822 0.88796 0.0
C1701 C -0.00828 0.48394 0.90781 0.0
H1702 H 0.01873 0.50064 0.84868 0.0
H1703 H 0.03234 0.51866 0.89097 0.0
S1704 S 0.91849 0.41489 0.90421 0.0
N1705 N 0.93047 0.42185 0.87514 0.0
N1706 N 0.94491 0.44148 0.92117 0.0
C1707 C 0.96523 0.45722 0.90323 0.0
C1708 C 0.95743 0.44662 0.8784 0.0
C1709 C 0.48382 0.48924 0.86655 0.0
C1710 C 0.48705 0.46507 0.8594 0.0
C1711 C 0.47795 0.4927 0.89131 0.0
C1712 C 0.47573 0.47241 0.90996 0.0
H1713 H 0.48578 0.50554 0.85289 0.0
H1714 H 0.47628 0.51215 0.89591 0.0
S1715 S 0.48136 0.40459 0.9001 0.0
N1716 N 0.48632 0.4197 0.87216 0.0
N1717 N 0.47626 0.42669 0.91907 0.0
C1718 C 0.47836 0.44777 0.90282 0.0
C1719 C 0.48382 0.44399 0.87745 0.0
C1720 C 0.50267 0.02953 0.87543 0.0
C1721 C 0.48292 0.00967 0.85766 0.0
C1722 C 0.49939 0.02189 0.90074 0.0
C1723 C 0.47656 -0.00608 0.909 0.0
H1724 H 0.52092 0.05097 0.86968 0.0
H1725 H 0.5157 0.0374 0.91372 0.0
S1726 S 0.41832 0.93476 0.86988 0.0
N1727 N 0.439 0.96165 0.85005 0.0
N1728 N 0.43321 0.94696 0.89755 0.0
C1729 C 0.45622 0.97428 0.89145 0.0
C1730 C 0.4593 0.98224 0.86578 0.0
C1731 C 0.18107 0.32929 0.45797 0.0
C1732 C 0.1549 0.30315 0.46479 0.0
C1733 C 0.1885 0.33676 0.43287 0.0
C1734 C 0.17035 0.31802 0.41372 0.0
H1735 H 0.19528 0.34464 0.47214 0.0
H1736 H 0.20804 0.35788 0.42841 0.0
S1737 S 0.10088 0.24537 0.42215 0.0
N1738 N 0.11188 0.25748 0.45072 0.0
N1739 N 0.12598 0.27099 0.40356 0.0
C1740 C 0.14499 0.29089 0.42042 0.0
C1741 C 0.13718 0.28364 0.44596 0.0
C1742 C 0.64665 0.81803 0.46147 0.0
C1743 C 0.67269 0.84223 0.47055 0.0
C1744 C 0.64035 0.81537 0.4361 0.0
C1745 C 0.66019 0.83654 0.41876 0.0
H1746 H 0.63099 0.80111 0.47409 0.0
H1747 H 0.62003 0.79594 0.43006 0.0
S1748 S 0.73142 0.9044 0.43379 0.0
N1749 N 0.7182 0.88827 0.46101 0.0
N1750 N 0.70682 0.8828 0.41285 0.0
C1751 C 0.6863 0.86104 0.42776 0.0
C1752 C 0.69244 0.864 0.45378 0.0
C1753 C 0.13544 0.83576 0.45324 0.0
C1754 C 0.16164 0.8425 0.46592 0.0
C1755 C 0.13303 0.83082 0.4277 0.0
C1756 C 0.15682 0.83277 0.4139 0.0
H1757 H 0.11638 0.83361 0.46326 0.0
H1758 H 0.11196 0.82425 0.4188 0.0
S1759 S 0.23077 0.85152 0.43792 0.0
N1760 N 0.21239 0.85233 0.4627 0.0
N1761 N 0.20781 0.84325 0.41419 0.0
C1762 C 0.18372 0.84112 0.42596 0.0
C1763 C 0.18615 0.84594 0.45217 0.0
C1764 C 0.66419 0.79732 0.20471 0.0
C1765 C 0.63841 0.79626 0.19556 0.0
C1766 C 0.67102 0.80163 0.23007 0.0
C1767 C 0.65189 0.8042 0.24704 0.0
H1768 H 0.67966 0.79593 0.19206 0.0
H1769 H 0.69183 0.8039 0.23635 0.0
S1770 S 0.58057 0.80068 0.23245 0.0
N1771 N 0.59296 0.79654 0.20533 0.0
N1772 N 0.60551 0.8041 0.25313 0.0
C1773 C 0.62531 0.80165 0.23825 0.0
C1774 C 0.61867 0.79788 0.21241 0.0
C1775 C 0.15083 0.82891 0.1972 0.0
C1776 C 0.15274 0.80418 0.18944 0.0
C1777 C 0.14638 0.83266 0.22224 0.0
C1778 C 0.14426 0.8121 0.24058 0.0
H1779 H 0.15256 0.84534 0.18378 0.0
H1780 H 0.14554 0.85247 0.22727 0.0
S1781 S 0.14742 0.74317 0.22932 0.0
N1782 N 0.15149 0.75829 0.20147 0.0
N1783 N 0.14387 0.76575 0.24888 0.0
C1784 C 0.14586 0.78704 0.23292 0.0
C1785 C 0.14995 0.78301 0.20727 0.0
C1786 C 0.15191 0.3171 0.19339 0.0
C1787 C 0.15409 0.34487 0.18965 0.0
C1788 C 0.15062 0.30611 0.21733 0.0
C1789 C 0.15197 0.32271 0.23856 0.0
H1790 H 0.15188 0.30405 0.17765 0.0
H1791 H 0.14977 0.28487 0.21913 0.0
S1792 S 0.15538 0.39604 0.23833 0.0
N1793 N 0.15537 0.38803 0.20859 0.0
N1794 N 0.15357 0.3677 0.25399 0.0
C1795 C 0.15261 0.34997 0.235 0.0
C1796 C 0.15361 0.36102 0.21042 0.0
C1797 C 0.78743 0.62867 0.78465 0.0
C1798 C 0.81171 0.63975 0.80106 0.0
C1799 C 0.79123 0.63738 0.7597 0.0
C1800 C 0.81946 0.65708 0.75003 0.0
H1801 H 0.76513 0.61369 0.79129 0.0
H1802 H 0.77175 0.62934 0.74802 0.0
S1803 S 0.89058 0.69095 0.78419 0.0
N1804 N 0.86535 0.67062 0.80531 0.0
N1805 N 0.8723 0.68624 0.75792 0.0
C1806 C 0.84416 0.66715 0.76563 0.0
C1807 C 0.84033 0.65857 0.79128 0.0
C1808 C 0.3028 0.16324 0.79593 0.0
C1809 C 0.33189 0.17993 0.80466 0.0
C1810 C 0.29712 0.15937 0.77043 0.0
C1811 C 0.3204 0.17188 0.75283 0.0
H1812 H 0.28444 0.15254 0.80891 0.0
H1813 H 0.27433 0.14535 0.76455 0.0
S1814 S 0.40036 0.22046 0.76697 0.0
N1815 N 0.38401 0.21138 0.79449 0.0
N1816 N 0.37355 0.2039 0.74627 0.0
C1817 C 0.34952 0.19014 0.76149 0.0
C1818 C 0.35522 0.1941 0.78753 0.0
C1819 C 0.86118 0.17867 0.79084 0.0
C1820 C 0.83492 0.17519 0.80148 0.0
C1821 C 0.86424 0.1779 0.76497 0.0
C1822 C 0.84149 0.17444 0.74881 0.0
H1823 H 0.87929 0.18153 0.80262 0.0
H1824 H 0.88435 0.17951 0.75756 0.0
S1825 S 0.76869 0.16521 0.76749 0.0
N1826 N 0.78603 0.16865 0.79399 0.0
N1827 N 0.79186 0.16761 0.74541 0.0
C1828 C 0.8154 0.17161 0.75924 0.0
C1829 C 0.81207 0.1718 0.78556 0.0
C1830 C 0.29623 0.10869 0.54756 0.0
C1831 C 0.3092 0.13267 0.53061 0.0
C1832 C 0.30356 0.11303 0.5729 0.0
C1833 C 0.32456 0.14131 0.58173 0.0
H1834 H 0.27969 0.08669 0.54129 0.0
H1835 H 0.29269 0.09434 0.58561 0.0
S1836 S 0.36463 0.21117 0.54485 0.0
N1837 N 0.34391 0.18541 0.52438 0.0
N1838 N 0.35784 0.19366 0.57181 0.0
C1839 C 0.33795 0.16529 0.56487 0.0
C1840 C 0.33024 0.16095 0.53931 0.0
C1841 C 0.80494 0.15351 0.53315 0.0
C1842 C 0.81768 0.13685 0.5249 0.0
C1843 C 0.80032 0.15551 0.55852 0.0
C1844 C 0.80851 0.14108 0.57654 0.0
H1845 H 0.79872 0.16522 0.51992 0.0
H1846 H 0.79116 0.16937 0.56402 0.0
S1847 S 0.84105 0.09303 0.56354 0.0
N1848 N 0.83696 0.10433 0.53584 0.0
N1849 N 0.82872 0.10826 0.58378 0.0
C1850 C 0.82044 0.1235 0.56824 0.0
C1851 C 0.825 0.12142 0.54233 0.0
C1852 C 0.8421 0.69671 0.54309 0.0
C1853 C 0.8206 0.6788 0.52546 0.0
C1854 C 0.83932 0.68794 0.56811 0.0
C1855 C 0.81528 0.66064 0.57619 0.0
H1856 H 0.86133 0.71751 0.53744 0.0
H1857 H 0.85684 0.70193 0.58095 0.0
S1858 S 0.7523 0.60655 0.53765 0.0
N1859 N 0.77373 0.63339 0.51805 0.0
N1860 N 0.76895 0.61652 0.56494 0.0
C1861 C 0.79327 0.64296 0.55889 0.0
C1862 C 0.79581 0.65214 0.53355 0.0
loop_
_geom_bond_atom_site_label_1
_geom_bond_atom_site_label_2
_geom_bond_distance
_geom_bond_site_symmetry_2
_ccdc_geom_bond_type
C0 C1 1.391 . S
C0 C4 1.391 . S
C0 H42 0.948 . S
C1 C0 1.391 . S
C1 C2 1.391 . S
C2 C1 1.391 . S
C2 H58 0.947 . S
C2 C59 1.392 . S
C3 C4 1.391 . S
C3 C7 1.397 . S
C3 C59 1.419 . S
C4 C0 1.391 . S
C4 C3 1.391 . S
C4 C5 1.399 . S
C5 C4 1.399 . S
C5 C8 1.396 . S
C5 C17 1.453 . S
C5 C18 1.684 . S
H6 C30 0.948 . S
C7 C3 1.397 . S
C7 C8 1.394 . S
C7 C26 1.723 . S
C8 C5 1.396 . S
C8 C7 1.394 . S
C8 C38 1.723 . S
H9 C32 0.947 . S
H10 C33 0.948 . S
H11 C39 0.982 . S
H12 C40 0.979 . S
H13 C40 0.980 . S
H14 C40 0.983 . S
H15 C39 0.979 . S
H16 C39 0.977 . S
C17 C5 1.453 . S
C17 H46 0.982 . S
C17 H47 0.979 . S
C17 H48 0.977 . S
C18 C5 1.684 . S
C18 H43 0.979 . S
C18 H44 0.980 . S
C18 H45 0.983 . S
C19 C20 1.391 . S
C19 C24 1.391 . S
C19 H49 0.948 . S
C20 C19 1.391 . S
C20 C21 1.391 . S
C21 C20 1.391 . S
C21 C22 1.392 . S
C21 H50 0.947 . S
C22 C21 1.392 . S
C22 C23 1.419 . S
C22 H51 0.948 . S
C23 C22 1.419 . S
C23 C24 1.391 . S
C23 C27 1.397 . S
C24 C19 1.391 . S
C24 C23 1.391 . S
C24 C25 1.399 . S
C25 C24 1.399 . S
C25 C26 1.396 . S
C25 C28 1.453 . S
C25 C29 1.684 . S
C26 C7 1.723 . S
C26 C25 1.396 . S
C26 C27 1.394 . S
C27 C23 1.397 . S
C27 C26 1.394 . S
C27 C37 1.723 . S
C28 C25 1.453 . S
C28 H52 0.982 . S
C28 H53 0.979 . S
C28 H54 0.977 . S
C29 C25 1.684 . S
C29 H55 0.979 . S
C29 H56 0.980 . S
C29 H57 0.983 . S
C30 H6 0.948 . S
C30 C31 1.391 . S
C30 C35 1.391 . S
C31 C30 1.391 . S
C31 C32 1.391 . S
C32 H9 0.947 . S
C32 C31 1.391 . S
C32 C33 1.392 . S
C33 H10 0.948 . S
C33 C32 1.392 . S
C33 C34 1.419 . S
C34 C33 1.419 . S
C34 C35 1.391 . S
C34 C38 1.397 . S
C35 C30 1.391 . S
C35 C34 1.391 . S
C35 C36 1.399 . S
C36 C35 1.399 . S
C36 C37 1.396 . S
C36 C39 1.453 . S
C36 C40 1.684 . S
C37 C27 1.723 . S
C37 C36 1.396 . S
C37 C38 1.394 . S
C38 C8 1.723 . S
C38 C34 1.397 . S
C38 C37 1.394 . S
C39 H11 0.982 . S
C39 H15 0.979 . S
C39 H16 0.977 . S
C39 C36 1.453 . S
C40 H12 0.979 . S
C40 H13 0.980 . S
C40 H14 0.983 . S
C40 C36 1.684 . S
H41 C59 0.948 . S
H42 C0 0.948 . S
H43 C18 0.979 . S
H44 C18 0.980 . S
H45 C18 0.983 . S
H46 C17 0.982 . S
H47 C17 0.979 . S
H48 C17 0.977 . S
H49 C19 0.948 . S
H50 C21 0.947 . S
H51 C22 0.948 . S
H52 C28 0.982 . S
H53 C28 0.979 . S
H54 C28 0.977 . S
H55 C29 0.979 . S
H56 C29 0.980 . S
H57 C29 0.983 . S
H58 C2 0.947 . S
C59 C2 1.392 . S
C59 C3 1.419 . S
C59 H41 0.948 . S
C60 C61 1.391 . S
C60 C64 1.391 . S
C60 H102 0.948 . S
C61 C60 1.391 . S
C61 C62 1.391 . S
C62 C61 1.391 . S
C62 H118 0.947 . S
C62 C119 1.392 . S
C63 C64 1.391 . S
C63 C67 1.397 . S
C63 C119 1.419 . S
C64 C60 1.391 . S
C64 C63 1.391 . S
C64 C65 1.399 . S
C65 C64 1.399 . S
C65 C68 1.396 . S
C65 C77 1.453 . S
C65 C78 1.684 . S
H66 C90 0.948 . S
C67 C63 1.397 . S
C67 C68 1.394 . S
C67 C86 1.723 . S
C68 C65 1.396 . S
C68 C67 1.394 . S
C68 C98 1.723 . S
H69 C92 0.947 . S
H70 C93 0.948 . S
H71 C99 0.982 . S
H72 C100 0.979 . S
H73 C100 0.980 . S
H74 C100 0.983 . S
H75 C99 0.979 . S
H76 C99 0.977 . S
C77 C65 1.453 . S
C77 H106 0.982 . S
C77 H107 0.979 . S
C77 H108 0.977 . S
C78 C65 1.684 . S
C78 H103 0.979 . S
C78 H104 0.980 . S
C78 H105 0.983 . S
C79 C80 1.391 . S
C79 C84 1.391 . S
C79 H109 0.948 . S
C80 C79 1.391 . S
C80 C81 1.391 . S
C81 C80 1.391 . S
C81 C82 1.392 . S
C81 H110 0.947 . S
C82 C81 1.392 . S
C82 C83 1.419 . S
C82 H111 0.948 . S
C83 C82 1.419 . S
C83 C84 1.391 . S
C83 C87 1.397 . S
C84 C79 1.391 . S
C84 C83 1.391 . S
C84 C85 1.399 . S
C85 C84 1.399 . S
C85 C86 1.396 . S
C85 C88 1.453 . S
C85 C89 1.684 . S
C86 C67 1.723 . S
C86 C85 1.396 . S
C86 C87 1.394 . S
C87 C83 1.397 . S
C87 C86 1.394 . S
C87 C97 1.723 . S
C88 C85 1.453 . S
C88 H112 0.982 . S
C88 H113 0.979 . S
C88 H114 0.977 . S
C89 C85 1.684 . S
C89 H115 0.979 . S
C89 H116 0.980 . S
C89 H117 0.983 . S
C90 H66 0.948 . S
C90 C91 1.391 . S
C90 C95 1.391 . S
C91 C90 1.391 . S
C91 C92 1.391 . S
C92 H69 0.947 . S
C92 C91 1.391 . S
C92 C93 1.392 . S
C93 H70 0.948 . S
C93 C92 1.392 . S
C93 C94 1.419 . S
C94 C93 1.419 . S
C94 C95 1.391 . S
C94 C98 1.397 . S
C95 C90 1.391 . S
C95 C94 1.391 . S
C95 C96 1.399 . S
C96 C95 1.399 . S
C96 C97 1.396 . S
C96 C99 1.453 . S
C96 C100 1.684 . S
C97 C87 1.723 . S
C97 C96 1.396 . S
C97 C98 1.394 . S
C98 C68 1.723 . S
C98 C94 1.397 . S
C98 C97 1.394 . S
C99 H71 0.982 . S
C99 H75 0.979 . S
C99 H76 0.977 . S
C99 C96 1.453 . S
C100 H72 0.979 . S
C100 H73 0.980 . S
C100 H74 0.983 . S
C100 C96 1.684 . S
H101 C119 0.948 . S
H102 C60 0.948 . S
H103 C78 0.979 . S
H104 C78 0.980 . S
H105 C78 0.983 . S
H106 C77 0.982 . S
H107 C77 0.979 . S
H108 C77 0.977 . S
H109 C79 0.948 . S
H110 C81 0.947 . S
H111 C82 0.948 . S
H112 C88 0.982 . S
H113 C88 0.979 . S
H114 C88 0.977 . S
H115 C89 0.979 . S
H116 C89 0.980 . S
H117 C89 0.983 . S
H118 C62 0.947 . S
C119 C62 1.392 . S
C119 C63 1.419 . S
C119 H101 0.948 . S
C120 C121 1.391 . S
C120 C124 1.391 . S
C120 H162 0.948 . S
C121 C120 1.391 . S
C121 C122 1.391 . S
C122 C121 1.391 . S
C122 H178 0.947 . S
C122 C179 1.392 . S
C123 C124 1.391 . S
C123 C127 1.397 . S
C123 C179 1.419 . S
C124 C120 1.391 . S
C124 C123 1.391 . S
C124 C125 1.399 . S
C125 C124 1.399 . S
C125 C128 1.396 . S
C125 C137 1.453 . S
C125 C138 1.684 . S
H126 C150 0.948 . S
C127 C123 1.397 . S
C127 C128 1.394 . S
C127 C146 1.723 . S
C128 C125 1.396 . S
C128 C127 1.394 . S
C128 C158 1.723 . S
H129 C152 0.947 . S
H130 C153 0.948 . S
H131 C159 0.982 . S
H132 C160 0.979 . S
H133 C160 0.980 . S
H134 C160 0.983 . S
H135 C159 0.979 . S
H136 C159 0.977 . S
C137 C125 1.453 . S
C137 H166 0.982 . S
C137 H167 0.979 . S
C137 H168 0.977 . S
C138 C125 1.684 . S
C138 H163 0.979 . S
C138 H164 0.980 . S
C138 H165 0.983 . S
C139 C140 1.391 . S
C139 C144 1.391 . S
C139 H169 0.948 . S
C140 C139 1.391 . S
C140 C141 1.391 . S
C141 C140 1.391 . S
C141 C142 1.392 . S
C141 H170 0.947 . S
C142 C141 1.392 . S
C142 C143 1.419 . S
C142 H171 0.948 . S
C143 C142 1.419 . S
C143 C144 1.391 . S
C143 C147 1.397 . S
C144 C139 1.391 . S
C144 C143 1.391 . S
C144 C145 1.399 . S
C145 C144 1.399 . S
C145 C146 1.396 . S
C145 C148 1.453 . S
C145 C149 1.684 . S
C146 C127 1.723 . S
C146 C145 1.396 . S
C146 C147 1.394 . S
C147 C143 1.397 . S
C147 C146 1.394 . S
C147 C157 1.723 . S
C148 C145 1.453 . S
C148 H172 0.982 . S
C148 H173 0.979 . S
C148 H174 0.977 . S
C149 C145 1.684 . S
C149 H175 0.979 . S
C149 H176 0.980 . S
C149 H177 0.983 . S
C150 H126 0.948 . S
C150 C151 1.391 . S
C150 C155 1.391 . S
C151 C150 1.391 . S
C151 C152 1.391 . S
C152 H129 0.947 . S
C152 C151 1.391 . S
C152 C153 1.392 . S
C153 H130 0.948 . S
C153 C152 1.392 . S
C153 C154 1.419 . S
C154 C153 1.419 . S
C154 C155 1.391 . S
C154 C158 1.397 . S
C155 C150 1.391 . S
C155 C154 1.391 . S
C155 C156 1.399 . S
C156 C155 1.399 . S
C156 C157 1.396 . S
C156 C159 1.453 . S
C156 C160 1.684 . S
C157 C147 1.723 . S
C157 C156 1.396 . S
C157 C158 1.394 . S
C158 C128 1.723 . S
C158 C154 1.397 . S
C158 C157 1.394 . S
C159 H131 0.982 . S
C159 H135 0.979 . S
C159 H136 0.977 . S
C159 C156 1.453 . S
C160 H132 0.979 . S
C160 H133 0.980 . S
C160 H134 0.983 . S
C160 C156 1.684 . S
H161 C179 0.948 . S
H162 C120 0.948 . S
H163 C138 0.979 . S
H164 C138 0.980 . S
H165 C138 0.983 . S
H166 C137 0.982 . S
H167 C137 0.979 . S
H168 C137 0.977 . S
H169 C139 0.948 . S
H170 C141 0.947 . S
H171 C142 0.948 . S
H172 C148 0.982 . S
H173 C148 0.979 . S
H174 C148 0.977 . S
H175 C149 0.979 . S
H176 C149 0.980 . S
H177 C149 0.983 . S
H178 C122 0.947 . S
C179 C122 1.392 . S
C179 C123 1.419 . S
C179 H161 0.948 . S
C180 C181 1.391 . S
C180 C184 1.391 . S
C180 H222 0.948 . S
C181 C180 1.391 . S
C181 C182 1.391 . S
C182 C181 1.391 . S
C182 H238 0.947 . S
C182 C239 1.392 . S
C183 C184 1.391 . S
C183 C187 1.397 . S
C183 C239 1.419 . S
C184 C180 1.391 . S
C184 C183 1.391 . S
C184 C185 1.399 . S
C185 C184 1.399 . S
C185 C188 1.396 . S
C185 C197 1.453 . S
C185 C198 1.684 . S
H186 C210 0.948 . S
C187 C183 1.397 . S
C187 C188 1.394 . S
C187 C206 1.723 . S
C188 C185 1.396 . S
C188 C187 1.394 . S
C188 C218 1.723 . S
H189 C212 0.947 . S
H190 C213 0.948 . S
H191 C219 0.982 . S
H192 C220 0.979 . S
H193 C220 0.980 . S
H194 C220 0.983 . S
H195 C219 0.979 . S
H196 C219 0.977 . S
C197 C185 1.453 . S
C197 H226 0.982 . S
C197 H227 0.979 . S
C197 H228 0.977 . S
C198 C185 1.684 . S
C198 H223 0.979 . S
C198 H224 0.980 . S
C198 H225 0.983 . S
C199 C200 1.391 . S
C199 C204 1.391 . S
C199 H229 0.948 . S
C200 C199 1.391 . S
C200 C201 1.391 . S
C201 C200 1.391 . S
C201 C202 1.392 . S
C201 H230 0.947 . S
C202 C201 1.392 . S
C202 C203 1.419 . S
C202 H231 0.948 . S
C203 C202 1.419 . S
C203 C204 1.391 . S
C203 C207 1.397 . S
C204 C199 1.391 . S
C204 C203 1.391 . S
C204 C205 1.399 . S
C205 C204 1.399 . S
C205 C206 1.396 . S
C205 C208 1.453 . S
C205 C209 1.684 . S
C206 C187 1.723 . S
C206 C205 1.396 . S
C206 C207 1.394 . S
C207 C203 1.397 . S
C207 C206 1.394 . S
C207 C217 1.723 . S
C208 C205 1.453 . S
C208 H232 0.982 . S
C208 H233 0.979 . S
C208 H234 0.977 . S
C209 C205 1.684 . S
C209 H235 0.979 . S
C209 H236 0.980 . S
C209 H237 0.983 . S
C210 H186 0.948 . S
C210 C211 1.391 . S
C210 C215 1.391 . S
C211 C210 1.391 . S
C211 C212 1.391 . S
C212 H189 0.947 . S
C212 C211 1.391 . S
C212 C213 1.392 . S
C213 H190 0.948 . S
C213 C212 1.392 . S
C213 C214 1.419 . S
C214 C213 1.419 . S
C214 C215 1.391 . S
C214 C218 1.397 . S
C215 C210 1.391 . S
C215 C214 1.391 . S
C215 C216 1.399 . S
C216 C215 1.399 . S
C216 C217 1.396 . S
C216 C219 1.453 . S
C216 C220 1.684 . S
C217 C207 1.723 . S
C217 C216 1.396 . S
C217 C218 1.394 . S
C218 C188 1.723 . S
C218 C214 1.397 . S
C218 C217 1.394 . S
C219 H191 0.982 . S
C219 H195 0.979 . S
C219 H196 0.977 . S
C219 C216 1.453 . S
C220 H192 0.979 . S
C220 H193 0.980 . S
C220 H194 0.983 . S
C220 C216 1.684 . S
H221 C239 0.948 . S
H222 C180 0.948 . S
H223 C198 0.979 . S
H224 C198 0.980 . S
H225 C198 0.983 . S
H226 C197 0.982 . S
H227 C197 0.979 . S
H228 C197 0.977 . S
H229 C199 0.948 . S
H230 C201 0.947 . S
H231 C202 0.948 . S
H232 C208 0.982 . S
H233 C208 0.979 . S
H234 C208 0.977 . S
H235 C209 0.979 . S
H236 C209 0.980 . S
H237 C209 0.983 . S
H238 C182 0.947 . S
C239 C182 1.392 . S
C239 C183 1.419 . S
C239 H221 0.948 . S
C240 C241 1.391 . S
C240 C244 1.391 . S
C240 H282 0.948 . S
C241 C240 1.391 . S
C241 C242 1.391 . S
C242 C241 1.391 . S
C242 H298 0.947 . S
C242 C299 1.392 . S
C243 C244 1.391 . S
C243 C247 1.397 . S
C243 C299 1.419 . S
C244 C240 1.391 . S
C244 C243 1.391 . S
C244 C245 1.399 . S
C245 C244 1.399 . S
C245 C248 1.396 . S
C245 C257 1.453 . S
C245 C258 1.684 . S
H246 C270 0.948 . S
C247 C243 1.397 . S
C247 C248 1.394 . S
C247 C266 1.723 . S
C248 C245 1.396 . S
C248 C247 1.394 . S
C248 C278 1.723 . S
H249 C272 0.947 . S
H250 C273 0.948 . S
H251 C279 0.982 . S
H252 C280 0.979 . S
H253 C280 0.980 . S
H254 C280 0.983 . S
H255 C279 0.979 . S
H256 C279 0.977 . S
C257 C245 1.453 . S
C257 H286 0.982 . S
C257 H287 0.979 . S
C257 H288 0.977 . S
C258 C245 1.684 . S
C258 H283 0.979 . S
C258 H284 0.980 . S
C258 H285 0.983 . S
C259 C260 1.391 . S
C259 C264 1.391 . S
C259 H289 0.948 . S
C260 C259 1.391 . S
C260 C261 1.391 . S
C261 C260 1.391 . S
C261 C262 1.392 . S
C261 H290 0.947 . S
C262 C261 1.392 . S
C262 C263 1.419 . S
C262 H291 0.948 . S
C263 C262 1.419 . S
C263 C264 1.391 . S
C263 C267 1.397 . S
C264 C259 1.391 . S
C264 C263 1.391 . S
C264 C265 1.399 . S
C265 C264 1.399 . S
C265 C266 1.396 . S
C265 C268 1.453 . S
C265 C269 1.684 . S
C266 C247 1.723 . S
C266 C265 1.396 . S
C266 C267 1.394 . S
C267 C263 1.397 . S
C267 C266 1.394 . S
C267 C277 1.723 . S
C268 C265 1.453 . S
C268 H292 0.982 . S
C268 H293 0.979 . S
C268 H294 0.977 . S
C269 C265 1.684 . S
C269 H295 0.979 . S
C269 H296 0.980 . S
C269 H297 0.983 . S
C270 H246 0.948 . S
C270 C271 1.391 . S
C270 C275 1.391 . S
C271 C270 1.391 . S
C271 C272 1.391 . S
C272 H249 0.947 . S
C272 C271 1.391 . S
C272 C273 1.392 . S
C273 H250 0.948 . S
C273 C272 1.392 . S
C273 C274 1.419 . S
C274 C273 1.419 . S
C274 C275 1.391 . S
C274 C278 1.397 . S
C275 C270 1.391 . S
C275 C274 1.391 . S
C275 C276 1.399 . S
C276 C275 1.399 . S
C276 C277 1.396 . S
C276 C279 1.453 . S
C276 C280 1.684 . S
C277 C267 1.723 . S
C277 C276 1.396 . S
C277 C278 1.394 . S
C278 C248 1.723 . S
C278 C274 1.397 . S
C278 C277 1.394 . S
C279 H251 0.982 . S
C279 H255 0.979 . S
C279 H256 0.977 . S
C279 C276 1.453 . S
C280 H252 0.979 . S
C280 H253 0.980 . S
C280 H254 0.983 . S
C280 C276 1.684 . S
H281 C299 0.948 . S
H282 C240 0.948 . S
H283 C258 0.979 . S
H284 C258 0.980 . S
H285 C258 0.983 . S
H286 C257 0.982 . S
H287 C257 0.979 . S
H288 C257 0.977 . S
H289 C259 0.948 . S
H290 C261 0.947 . S
H291 C262 0.948 . S
H292 C268 0.982 . S
H293 C268 0.979 . S
H294 C268 0.977 . S
H295 C269 0.979 . S
H296 C269 0.980 . S
H297 C269 0.983 . S
H298 C242 0.947 . S
C299 C242 1.392 . S
C299 C243 1.419 . S
C299 H281 0.948 . S
C300 C301 1.391 . S
C300 C304 1.391 . S
C300 H342 0.948 . S
C301 C300 1.391 . S
C301 C302 1.391 . S
C302 C301 1.391 . S
C302 H358 0.947 . S
C302 C359 1.392 . S
C303 C304 1.391 . S
C303 C307 1.397 . S
C303 C359 1.419 . S
C304 C300 1.391 . S
C304 C303 1.391 . S
C304 C305 1.399 . S
C305 C304 1.399 . S
C305 C308 1.396 . S
C305 C317 1.453 . S
C305 C318 1.684 . S
H306 C330 0.948 . S
C307 C303 1.397 . S
C307 C308 1.394 . S
C307 C326 1.723 . S
C308 C305 1.396 . S
C308 C307 1.394 . S
C308 C338 1.723 . S
H309 C332 0.947 . S
H310 C333 0.948 . S
H311 C339 0.982 . S
H312 C340 0.979 . S
H313 C340 0.980 . S
H314 C340 0.983 . S
H315 C339 0.979 . S
H316 C339 0.977 . S
C317 C305 1.453 . S
C317 H346 0.982 . S
C317 H347 0.979 . S
C317 H348 0.977 . S
C318 C305 1.684 . S
C318 H343 0.979 . S
C318 H344 0.980 . S
C318 H345 0.983 . S
C319 C320 1.391 . S
C319 C324 1.391 . S
C319 H349 0.948 . S
C320 C319 1.391 . S
C320 C321 1.391 . S
C321 C320 1.391 . S
C321 C322 1.392 . S
C321 H350 0.947 . S
C322 C321 1.392 . S
C322 C323 1.419 . S
C322 H351 0.948 . S
C323 C322 1.419 . S
C323 C324 1.391 . S
C323 C327 1.397 . S
C324 C319 1.391 . S
C324 C323 1.391 . S
C324 C325 1.399 . S
C325 C324 1.399 . S
C325 C326 1.396 . S
C325 C328 1.453 . S
C325 C329 1.684 . S
C326 C307 1.723 . S
C326 C325 1.396 . S
C326 C327 1.394 . S
C327 C323 1.397 . S
C327 C326 1.394 . S
C327 C337 1.723 . S
C328 C325 1.453 . S
C328 H352 0.982 . S
C328 H353 0.979 . S
C328 H354 0.977 . S
C329 C325 1.684 . S
C329 H355 0.979 . S
C329 H356 0.980 . S
C329 H357 0.983 . S
C330 H306 0.948 . S
C330 C331 1.391 . S
C330 C335 1.391 . S
C331 C330 1.391 . S
C331 C332 1.391 . S
C332 H309 0.947 . S
C332 C331 1.391 . S
C332 C333 1.392 . S
C333 H310 0.948 . S
C333 C332 1.392 . S
C333 C334 1.419 . S
C334 C333 1.419 . S
C334 C335 1.391 . S
C334 C338 1.397 . S
C335 C330 1.391 . S
C335 C334 1.391 . S
C335 C336 1.399 . S
C336 C335 1.399 . S
C336 C337 1.396 . S
C336 C339 1.453 . S
C336 C340 1.684 . S
C337 C327 1.723 . S
C337 C336 1.396 . S
C337 C338 1.394 . S
C338 C308 1.723 . S
C338 C334 1.397 . S
C338 C337 1.394 . S
C339 H311 0.982 . S
C339 H315 0.979 . S
C339 H316 0.977 . S
C339 C336 1.453 . S
C340 H312 0.979 . S
C340 H313 0.980 . S
C340 H314 0.983 . S
C340 C336 1.684 . S
H341 C359 0.948 . S
H342 C300 0.948 . S
H343 C318 0.979 . S
H344 C318 0.980 . S
H345 C318 0.983 . S
H346 C317 0.982 . S
H347 C317 0.979 . S
H348 C317 0.977 . S
H349 C319 0.948 . S
H350 C321 0.947 . S
H351 C322 0.948 . S
H352 C328 0.982 . S
H353 C328 0.979 . S
H354 C328 0.977 . S
H355 C329 0.979 . S
H356 C329 0.980 . S
H357 C329 0.983 . S
H358 C302 0.947 . S
C359 C302 1.392 . S
C359 C303 1.419 . S
C359 H341 0.948 . S
C360 C361 1.391 . S
C360 C364 1.391 . S
C360 H402 0.948 . S
C361 C360 1.391 . S
C361 C362 1.391 . S
C362 C361 1.391 . S
C362 H418 0.947 . S
C362 C419 1.392 . S
C363 C364 1.391 . S
C363 C367 1.397 . S
C363 C419 1.419 . S
C364 C360 1.391 . S
C364 C363 1.391 . S
C364 C365 1.399 . S
C365 C364 1.399 . S
C365 C368 1.396 . S
C365 C377 1.453 . S
C365 C378 1.684 . S
H366 C390 0.948 . S
C367 C363 1.397 . S
C367 C368 1.394 . S
C367 C386 1.723 . S
C368 C365 1.396 . S
C368 C367 1.394 . S
C368 C398 1.723 . S
H369 C392 0.947 . S
H370 C393 0.948 . S
H371 C399 0.982 . S
H372 C400 0.979 . S
H373 C400 0.980 . S
H374 C400 0.983 . S
H375 C399 0.979 . S
H376 C399 0.977 . S
C377 C365 1.453 . S
C377 H406 0.982 . S
C377 H407 0.979 . S
C377 H408 0.977 . S
C378 C365 1.684 . S
C378 H403 0.979 . S
C378 H404 0.980 . S
C378 H405 0.983 . S
C379 C380 1.391 . S
C379 C384 1.391 . S
C379 H409 0.948 . S
C380 C379 1.391 . S
C380 C381 1.391 . S
C381 C380 1.391 . S
C381 C382 1.392 . S
C381 H410 0.947 . S
C382 C381 1.392 . S
C382 C383 1.419 . S
C382 H411 0.948 . S
C383 C382 1.419 . S
C383 C384 1.391 . S
C383 C387 1.397 . S
C384 C379 1.391 . S
C384 C383 1.391 . S
C384 C385 1.399 . S
C385 C384 1.399 . S
C385 C386 1.396 . S
C385 C388 1.453 . S
C385 C389 1.684 . S
C386 C367 1.723 . S
C386 C385 1.396 . S
C386 C387 1.394 . S
C387 C383 1.397 . S
C387 C386 1.394 . S
C387 C397 1.723 . S
C388 C385 1.453 . S
C388 H412 0.982 . S
C388 H413 0.979 . S
C388 H414 0.977 . S
C389 C385 1.684 . S
C389 H415 0.979 . S
C389 H416 0.980 . S
C389 H417 0.983 . S
C390 H366 0.948 . S
C390 C391 1.391 . S
C390 C395 1.391 . S
C391 C390 1.391 . S
C391 C392 1.391 . S
C392 H369 0.947 . S
C392 C391 1.391 . S
C392 C393 1.392 . S
C393 H370 0.948 . S
C393 C392 1.392 . S
C393 C394 1.419 . S
C394 C393 1.419 . S
C394 C395 1.391 . S
C394 C398 1.397 . S
C395 C390 1.391 . S
C395 C394 1.391 . S
C395 C396 1.399 . S
C396 C395 1.399 . S
C396 C397 1.396 . S
C396 C399 1.453 . S
C396 C400 1.684 . S
C397 C387 1.723 . S
C397 C396 1.396 . S
C397 C398 1.394 . S
C398 C368 1.723 . S
C398 C394 1.397 . S
C398 C397 1.394 . S
C399 H371 0.982 . S
C399 H375 0.979 . S
C399 H376 0.977 . S
C399 C396 1.453 . S
C400 H372 0.979 . S
C400 H373 0.980 . S
C400 H374 0.983 . S
C400 C396 1.684 . S
H401 C419 0.948 . S
H402 C360 0.948 . S
H403 C378 0.979 . S
H404 C378 0.980 . S
H405 C378 0.983 . S
H406 C377 0.982 . S
H407 C377 0.979 . S
H408 C377 0.977 . S
H409 C379 0.948 . S
H410 C381 0.947 . S
H411 C382 0.948 . S
H412 C388 0.982 . S
H413 C388 0.979 . S
H414 C388 0.977 . S
H415 C389 0.979 . S
H416 C389 0.980 . S
H417 C389 0.983 . S
H418 C362 0.947 . S
C419 C362 1.392 . S
C419 C363 1.419 . S
C419 H401 0.948 . S
C420 C421 1.391 . S
C420 C424 1.391 . S
C420 H462 0.948 . S
C421 C420 1.391 . S
C421 C422 1.391 . S
C422 C421 1.391 . S
C422 H478 0.947 . S
C422 C479 1.392 . S
C423 C424 1.391 . S
C423 C427 1.397 . S
C423 C479 1.419 . S
C424 C420 1.391 . S
C424 C423 1.391 . S
C424 C425 1.399 . S
C425 C424 1.399 . S
C425 C428 1.396 . S
C425 C437 1.453 . S
C425 C438 1.684 . S
H426 C450 0.948 . S
C427 C423 1.397 . S
C427 C428 1.394 . S
C427 C446 1.723 . S
C428 C425 1.396 . S
C428 C427 1.394 . S
C428 C458 1.723 . S
H429 C452 0.947 . S
H430 C453 0.948 . S
H431 C459 0.982 . S
H432 C460 0.979 . S
H433 C460 0.980 . S
H434 C460 0.983 . S
H435 C459 0.979 . S
H436 C459 0.977 . S
C437 C425 1.453 . S
C437 H466 0.982 . S
C437 H467 0.979 . S
C437 H468 0.977 . S
C438 C425 1.684 . S
C438 H463 0.979 . S
C438 H464 0.980 . S
C438 H465 0.983 . S
C439 C440 1.391 . S
C439 C444 1.391 . S
C439 H469 0.948 . S
C440 C439 1.391 . S
C440 C441 1.391 . S
C441 C440 1.391 . S
C441 C442 1.392 . S
C441 H470 0.947 . S
C442 C441 1.392 . S
C442 C443 1.419 . S
C442 H471 0.948 . S
C443 C442 1.419 . S
C443 C444 1.391 . S
C443 C447 1.397 . S
C444 C439 1.391 . S
C444 C443 1.391 . S
C444 C445 1.399 . S
C445 C444 1.399 . S
C445 C446 1.396 . S
C445 C448 1.453 . S
C445 C449 1.684 . S
C446 C427 1.723 . S
C446 C445 1.396 . S
C446 C447 1.394 . S
C447 C443 1.397 . S
C447 C446 1.394 . S
C447 C457 1.723 . S
C448 C445 1.453 . S
C448 H472 0.982 . S
C448 H473 0.979 . S
C448 H474 0.977 . S
C449 C445 1.684 . S
C449 H475 0.979 . S
C449 H476 0.980 . S
C449 H477 0.983 . S
C450 H426 0.948 . S
C450 C451 1.391 . S
C450 C455 1.391 . S
C451 C450 1.391 . S
C451 C452 1.391 . S
C452 H429 0.947 . S
C452 C451 1.391 . S
C452 C453 1.392 . S
C453 H430 0.948 . S
C453 C452 1.392 . S
C453 C454 1.419 . S
C454 C453 1.419 . S
C454 C455 1.391 . S
C454 C458 1.397 . S
C455 C450 1.391 . S
C455 C454 1.391 . S
C455 C456 1.399 . S
C456 C455 1.399 . S
C456 C457 1.396 . S
C456 C459 1.453 . S
C456 C460 1.684 . S
C457 C447 1.723 . S
C457 C456 1.396 . S
C457 C458 1.394 . S
C458 C428 1.723 . S
C458 C454 1.397 . S
C458 C457 1.394 . S
C459 H431 0.982 . S
C459 H435 0.979 . S
C459 H436 0.977 . S
C459 C456 1.453 . S
C460 H432 0.979 . S
C460 H433 0.980 . S
C460 H434 0.983 . S
C460 C456 1.684 . S
H461 C479 0.948 . S
H462 C420 0.948 . S
H463 C438 0.979 . S
H464 C438 0.980 . S
H465 C438 0.983 . S
H466 C437 0.982 . S
H467 C437 0.979 . S
H468 C437 0.977 . S
H469 C439 0.948 . S
H470 C441 0.947 . S
H471 C442 0.948 . S
H472 C448 0.982 . S
H473 C448 0.979 . S
H474 C448 0.977 . S
H475 C449 0.979 . S
H476 C449 0.980 . S
H477 C449 0.983 . S
H478 C422 0.947 . S
C479 C422 1.392 . S
C479 C423 1.419 . S
C479 H461 0.948 . S
C480 C481 1.391 . S
C480 C484 1.391 . S
C480 H522 0.948 . S
C481 C480 1.391 . S
C481 C482 1.391 . S
C482 C481 1.391 . S
C482 H538 0.947 . S
C482 C539 1.392 . S
C483 C484 1.391 . S
C483 C487 1.397 . S
C483 C539 1.419 . S
C484 C480 1.391 . S
C484 C483 1.391 . S
C484 C485 1.399 . S
C485 C484 1.399 . S
C485 C488 1.396 . S
C485 C497 1.453 . S
C485 C498 1.684 . S
H486 C510 0.948 . S
C487 C483 1.397 . S
C487 C488 1.394 . S
C487 C506 1.723 . S
C488 C485 1.396 . S
C488 C487 1.394 . S
C488 C518 1.723 . S
H489 C512 0.947 . S
H490 C513 0.948 . S
H491 C519 0.982 . S
H492 C520 0.979 . S
H493 C520 0.980 . S
H494 C520 0.983 . S
H495 C519 0.979 . S
H496 C519 0.977 . S
C497 C485 1.453 . S
C497 H526 0.982 . S
C497 H527 0.979 . S
C497 H528 0.977 . S
C498 C485 1.684 . S
C498 H523 0.979 . S
C498 H524 0.980 . S
C498 H525 0.983 . S
C499 C500 1.391 . S
C499 C504 1.391 . S
C499 H529 0.948 . S
C500 C499 1.391 . S
C500 C501 1.391 . S
C501 C500 1.391 . S
C501 C502 1.392 . S
C501 H530 0.947 . S
C502 C501 1.392 . S
C502 C503 1.419 . S
C502 H531 0.948 . S
C503 C502 1.419 . S
C503 C504 1.391 . S
C503 C507 1.397 . S
C504 C499 1.391 . S
C504 C503 1.391 . S
C504 C505 1.399 . S
C505 C504 1.399 . S
C505 C506 1.396 . S
C505 C508 1.453 . S
C505 C509 1.684 . S
C506 C487 1.723 . S
C506 C505 1.396 . S
C506 C507 1.394 . S
C507 C503 1.397 . S
C507 C506 1.394 . S
C507 C517 1.723 . S
C508 C505 1.453 . S
C508 H532 0.982 . S
C508 H533 0.979 . S
C508 H534 0.977 . S
C509 C505 1.684 . S
C509 H535 0.979 . S
C509 H536 0.980 . S
C509 H537 0.983 . S
C510 H486 0.948 . S
C510 C511 1.391 . S
C510 C515 1.391 . S
C511 C510 1.391 . S
C511 C512 1.391 . S
C512 H489 0.947 . S
C512 C511 1.391 . S
C512 C513 1.392 . S
C513 H490 0.948 . S
C513 C512 1.392 . S
C513 C514 1.419 . S
C514 C513 1.419 . S
C514 C515 1.391 . S
C514 C518 1.397 . S
C515 C510 1.391 . S
C515 C514 1.391 . S
C515 C516 1.399 . S
C516 C515 1.399 . S
C516 C517 1.396 . S
C516 C519 1.453 . S
C516 C520 1.684 . S
C517 C507 1.723 . S
C517 C516 1.396 . S
C517 C518 1.394 . S
C518 C488 1.723 . S
C518 C514 1.397 . S
C518 C517 1.394 . S
C519 H491 0.982 . S
C519 H495 0.979 . S
C519 H496 0.977 . S
C519 C516 1.453 . S
C520 H492 0.979 . S
C520 H493 0.980 . S
C520 H494 0.983 . S
C520 C516 1.684 . S
H521 C539 0.948 . S
H522 C480 0.948 . S
H523 C498 0.979 . S
H524 C498 0.980 . S
H525 C498 0.983 . S
H526 C497 0.982 . S
H527 C497 0.979 . S
H528 C497 0.977 . S
H529 C499 0.948 . S
H530 C501 0.947 . S
H531 C502 0.948 . S
H532 C508 0.982 . S
H533 C508 0.979 . S
H534 C508 0.977 . S
H535 C509 0.979 . S
H536 C509 0.980 . S
H537 C509 0.983 . S
H538 C482 0.947 . S
C539 C482 1.392 . S
C539 C483 1.419 . S
C539 H521 0.948 . S
C540 C541 1.391 . S
C540 C544 1.391 . S
C540 H582 0.948 1_556 S
C541 C540 1.391 . S
C541 C542 1.391 . S
C542 C541 1.391 . S
C542 H598 0.947 . S
C542 C599 1.392 . S
C543 C544 1.391 . S
C543 C547 1.397 . S
C543 C599 1.419 . S
C544 C540 1.391 . S
C544 C543 1.391 . S
C544 C545 1.399 . S
C545 C544 1.399 . S
C545 C548 1.396 . S
C545 C557 1.453 1_556 S
C545 C558 1.684 . S
H546 C570 0.948 . S
C547 C543 1.397 . S
C547 C548 1.394 . S
C547 C566 1.723 . S
C548 C545 1.396 . S
C548 C547 1.394 . S
C548 C578 1.723 . S
H549 C572 0.947 1_554 S
H550 C573 0.948 . S
H551 C579 0.982 . S
H552 C580 0.979 . S
H553 C580 0.980 . S
H554 C580 0.983 . S
H555 C579 0.979 . S
H556 C579 0.977 . S
C557 C545 1.453 1_554 S
C557 H586 0.982 . S
C557 H587 0.979 . S
C557 H588 0.977 . S
C558 C545 1.684 . S
C558 H583 0.979 . S
C558 H584 0.980 . S
C558 H585 0.983 1_556 S
C559 C560 1.391 . S
C559 C564 1.391 . S
C559 H589 0.948 . S
C560 C559 1.391 . S
C560 C561 1.391 . S
C561 C560 1.391 . S
C561 C562 1.392 . S
C561 H590 0.947 . S
C562 C561 1.392 . S
C562 C563 1.419 . S
C562 H591 0.948 . S
C563 C562 1.419 . S
C563 C564 1.391 . S
C563 C567 1.397 . S
C564 C559 1.391 . S
C564 C563 1.391 . S
C564 C565 1.399 . S
C565 C564 1.399 . S
C565 C566 1.396 . S
C565 C568 1.453 . S
C565 C569 1.684 . S
C566 C547 1.723 . S
C566 C565 1.396 . S
C566 C567 1.394 . S
C567 C563 1.397 . S
C567 C566 1.394 . S
C567 C577 1.723 . S
C568 C565 1.453 . S
C568 H592 0.982 . S
C568 H593 0.979 . S
C568 H594 0.977 . S
C569 C565 1.684 . S
C569 H595 0.979 . S
C569 H596 0.980 . S
C569 H597 0.983 . S
C570 H546 0.948 . S
C570 C571 1.391 . S
C570 C575 1.391 . S
C571 C570 1.391 . S
C571 C572 1.391 . S
C572 H549 0.947 1_556 S
C572 C571 1.391 . S
C572 C573 1.392 . S
C573 H550 0.948 . S
C573 C572 1.392 . S
C573 C574 1.419 . S
C574 C573 1.419 . S
C574 C575 1.391 . S
C574 C578 1.397 . S
C575 C570 1.391 . S
C575 C574 1.391 . S
C575 C576 1.399 . S
C576 C575 1.399 . S
C576 C577 1.396 . S
C576 C579 1.453 . S
C576 C580 1.684 . S
C577 C567 1.723 . S
C577 C576 1.396 . S
C577 C578 1.394 . S
C578 C548 1.723 . S
C578 C574 1.397 . S
C578 C577 1.394 . S
C579 H551 0.982 . S
C579 H555 0.979 . S
C579 H556 0.977 . S
C579 C576 1.453 . S
C580 H552 0.979 . S
C580 H553 0.980 . S
C580 H554 0.983 . S
C580 C576 1.684 . S
H581 C599 0.948 . S
H582 C540 0.948 1_554 S
H583 C558 0.979 . S
H584 C558 0.980 . S
H585 C558 0.983 1_554 S
H586 C557 0.982 . S
H587 C557 0.979 . S
H588 C557 0.977 . S
H589 C559 0.948 . S
H590 C561 0.947 . S
H591 C562 0.948 . S
H592 C568 0.982 . S
H593 C568 0.979 . S
H594 C568 0.977 . S
H595 C569 0.979 . S
H596 C569 0.980 . S
H597 C569 0.983 . S
H598 C542 0.947 . S
C599 C542 1.392 . S
C599 C543 1.419 . S
C599 H581 0.948 . S
C600 C601 1.391 . S
C600 C604 1.391 . S
C600 H642 0.948 1_556 S
C601 C600 1.391 . S
C601 C602 1.391 . S
C602 C601 1.391 . S
C602 H658 0.947 . S
C602 C659 1.392 . S
C603 C604 1.391 . S
C603 C607 1.397 . S
C603 C659 1.419 . S
C604 C600 1.391 . S
C604 C603 1.391 . S
C604 C605 1.399 . S
C605 C604 1.399 . S
C605 C608 1.396 . S
C605 C617 1.453 . S
C605 C618 1.684 1_556 S
H606 C630 0.948 . S
C607 C603 1.397 . S
C607 C608 1.394 . S
C607 C626 1.723 . S
C608 C605 1.396 . S
C608 C607 1.394 . S
C608 C638 1.723 . S
H609 C632 0.947 . S
H610 C633 0.948 1_554 S
H611 C639 0.982 . S
H612 C640 0.979 . S
H613 C640 0.980 . S
H614 C640 0.983 . S
H615 C639 0.979 . S
H616 C639 0.977 . S
C617 C605 1.453 . S
C617 H646 0.982 . S
C617 H647 0.979 1_556 S
C617 H648 0.977 . S
C618 C605 1.684 1_554 S
C618 H643 0.979 . S
C618 H644 0.980 . S
C618 H645 0.983 . S
C619 C620 1.391 . S
C619 C624 1.391 . S
C619 H649 0.948 . S
C620 C619 1.391 . S
C620 C621 1.391 . S
C621 C620 1.391 . S
C621 C622 1.392 . S
C621 H650 0.947 . S
C622 C621 1.392 . S
C622 C623 1.419 . S
C622 H651 0.948 . S
C623 C622 1.419 . S
C623 C624 1.391 . S
C623 C627 1.397 . S
C624 C619 1.391 . S
C624 C623 1.391 . S
C624 C625 1.399 . S
C625 C624 1.399 . S
C625 C626 1.396 . S
C625 C628 1.453 . S
C625 C629 1.684 . S
C626 C607 1.723 . S
C626 C625 1.396 . S
C626 C627 1.394 . S
C627 C623 1.397 . S
C627 C626 1.394 . S
C627 C637 1.723 . S
C628 C625 1.453 . S
C628 H652 0.982 . S
C628 H653 0.979 . S
C628 H654 0.977 . S
C629 C625 1.684 . S
C629 H655 0.979 . S
C629 H656 0.980 . S
C629 H657 0.983 . S
C630 H606 0.948 . S
C630 C631 1.391 . S
C630 C635 1.391 . S
C631 C630 1.391 . S
C631 C632 1.391 1_556 S
C632 H609 0.947 . S
C632 C631 1.391 1_554 S
C632 C633 1.392 1_554 S
C633 H610 0.948 1_556 S
C633 C632 1.392 1_556 S
C633 C634 1.419 . S
C634 C633 1.419 . S
C634 C635 1.391 . S
C634 C638 1.397 . S
C635 C630 1.391 . S
C635 C634 1.391 . S
C635 C636 1.399 . S
C636 C635 1.399 . S
C636 C637 1.396 . S
C636 C639 1.453 . S
C636 C640 1.684 . S
C637 C627 1.723 . S
C637 C636 1.396 . S
C637 C638 1.394 . S
C638 C608 1.723 . S
C638 C634 1.397 . S
C638 C637 1.394 . S
C639 H611 0.982 . S
C639 H615 0.979 . S
C639 H616 0.977 . S
C639 C636 1.453 . S
C640 H612 0.979 . S
C640 H613 0.980 . S
C640 H614 0.983 . S
C640 C636 1.684 . S
H641 C659 0.948 . S
H642 C600 0.948 1_554 S
H643 C618 0.979 . S
H644 C618 0.980 . S
H645 C618 0.983 . S
H646 C617 0.982 . S
H647 C617 0.979 1_554 S
H648 C617 0.977 . S
H649 C619 0.948 . S
H650 C621 0.947 . S
H651 C622 0.948 . S
H652 C628 0.982 . S
H653 C628 0.979 . S
H654 C628 0.977 . S
H655 C629 0.979 . S
H656 C629 0.980 . S
H657 C629 0.983 . S
H658 C602 0.947 . S
C659 C602 1.392 . S
C659 C603 1.419 . S
C659 H641 0.948 . S
C660 C661 1.391 . S
C660 C664 1.391 . S
C660 H702 0.948 1_556 S
C661 C660 1.391 . S
C661 C662 1.391 . S
C662 C661 1.391 . S
C662 H718 0.947 . S
C662 C719 1.392 . S
C663 C664 1.391 . S
C663 C667 1.397 . S
C663 C719 1.419 . S
C664 C660 1.391 . S
C664 C663 1.391 . S
C664 C665 1.399 . S
C665 C664 1.399 . S
C665 C668 1.396 . S
C665 C677 1.427 1_556 S
C665 C678 1.684 . S
H666 C690 0.948 . S
C667 C663 1.397 . S
C667 C668 1.394 . S
C667 C686 1.723 . S
C668 C665 1.396 . S
C668 C667 1.394 . S
C668 C698 1.723 . S
H669 C692 0.947 1_554 S
H670 C693 0.948 . S
H671 C699 0.982 . S
H672 C700 0.979 . S
H673 C700 0.980 . S
H674 C700 0.983 . S
H675 C699 0.979 . S
H676 C699 0.977 . S
C677 C665 1.427 1_554 S
C677 H706 0.979 1_554 S
C677 H707 1.004 . S
C677 H708 0.981 . S
C678 C665 1.684 . S
C678 H703 0.979 . S
C678 H704 0.980 . S
C678 H705 0.983 1_556 S
C679 C680 1.391 . S
C679 C684 1.391 . S
C679 H709 0.948 . S
C680 C679 1.391 . S
C680 C681 1.391 . S
C681 C680 1.391 . S
C681 C682 1.392 . S
C681 H710 0.947 . S
C682 C681 1.392 . S
C682 C683 1.419 . S
C682 H711 0.948 . S
C683 C682 1.419 . S
C683 C684 1.391 . S
C683 C687 1.397 . S
C684 C679 1.391 . S
C684 C683 1.391 . S
C684 C685 1.399 . S
C685 C684 1.399 . S
C685 C686 1.396 . S
C685 C688 1.453 . S
C685 C689 1.684 . S
C686 C667 1.723 . S
C686 C685 1.396 . S
C686 C687 1.394 . S
C687 C683 1.397 . S
C687 C686 1.394 . S
C687 C697 1.723 . S
C688 C685 1.453 . S
C688 H712 0.982 . S
C688 H713 0.979 . S
C688 H714 0.977 . S
C689 C685 1.684 . S
C689 H715 0.979 . S
C689 H716 0.980 . S
C689 H717 0.983 . S
C690 H666 0.948 . S
C690 C691 1.391 . S
C690 C695 1.391 . S
C691 C690 1.391 . S
C691 C692 1.391 . S
C692 H669 0.947 1_556 S
C692 C691 1.391 . S
C692 C693 1.392 . S
C693 H670 0.948 . S
C693 C692 1.392 . S
C693 C694 1.419 . S
C694 C693 1.419 . S
C694 C695 1.391 . S
C694 C698 1.397 . S
C695 C690 1.391 . S
C695 C694 1.391 . S
C695 C696 1.399 . S
C696 C695 1.399 . S
C696 C697 1.396 . S
C696 C699 1.453 . S
C696 C700 1.684 . S
C697 C687 1.723 . S
C697 C696 1.396 . S
C697 C698 1.394 . S
C698 C668 1.723 . S
C698 C694 1.397 . S
C698 C697 1.394 . S
C699 H671 0.982 . S
C699 H675 0.979 . S
C699 H676 0.977 . S
C699 C696 1.453 . S
C700 H672 0.979 . S
C700 H673 0.980 . S
C700 H674 0.983 . S
C700 C696 1.684 . S
H701 C719 0.948 . S
H702 C660 0.948 1_554 S
H703 C678 0.979 . S
H704 C678 0.980 . S
H705 C678 0.983 1_554 S
H706 C677 0.979 1_556 S
H707 C677 1.004 . S
H708 C677 0.981 . S
H709 C679 0.948 . S
H710 C681 0.947 . S
H711 C682 0.948 . S
H712 C688 0.982 . S
H713 C688 0.979 . S
H714 C688 0.977 . S
H715 C689 0.979 . S
H716 C689 0.980 . S
H717 C689 0.983 . S
H718 C662 0.947 . S
C719 C662 1.392 . S
C719 C663 1.419 . S
C719 H701 0.948 . S
C720 C721 1.391 . S
C720 C724 1.391 . S
C720 H762 0.948 . S
C721 C720 1.391 . S
C721 C722 1.391 . S
C722 C721 1.391 . S
C722 H778 0.947 . S
C722 C779 1.392 . S
C723 C724 1.391 . S
C723 C727 1.397 . S
C723 C779 1.419 . S
C724 C720 1.391 . S
C724 C723 1.391 . S
C724 C725 1.399 . S
C725 C724 1.399 . S
C725 C728 1.396 . S
C725 C737 1.453 . S
C725 C738 1.684 . S
H726 C750 0.948 . S
C727 C723 1.397 . S
C727 C728 1.394 . S
C727 C746 1.723 . S
C728 C725 1.396 . S
C728 C727 1.394 . S
C728 C758 1.723 . S
H729 C752 0.947 1_556 S
H730 C753 0.948 . S
H731 C759 0.982 . S
H732 C760 0.979 . S
H733 C760 0.980 . S
H734 C760 0.983 . S
H735 C759 0.979 . S
H736 C759 0.977 . S
C737 C725 1.453 . S
C737 H766 0.982 . S
C737 H767 0.979 1_554 S
C737 H768 0.977 . S
C738 C725 1.684 . S
C738 H763 0.979 . S
C738 H764 0.980 . S
C738 H765 0.983 1_554 S
C739 C740 1.391 . S
C739 C744 1.391 . S
C739 H769 0.948 . S
C740 C739 1.391 . S
C740 C741 1.391 . S
C741 C740 1.391 . S
C741 C742 1.392 . S
C741 H770 0.947 . S
C742 C741 1.392 . S
C742 C743 1.419 . S
C742 H771 0.948 . S
C743 C742 1.419 . S
C743 C744 1.391 . S
C743 C747 1.397 . S
C744 C739 1.391 . S
C744 C743 1.391 . S
C744 C745 1.399 . S
C745 C744 1.399 . S
C745 C746 1.396 . S
C745 C748 1.453 . S
C745 C749 1.684 . S
C746 C727 1.723 . S
C746 C745 1.396 . S
C746 C747 1.394 . S
C747 C743 1.397 . S
C747 C746 1.394 . S
C747 C757 1.723 . S
C748 C745 1.453 . S
C748 H772 0.982 . S
C748 H773 0.979 . S
C748 H774 0.977 . S
C749 C745 1.684 . S
C749 H775 0.979 . S
C749 H776 0.980 . S
C749 H777 0.983 . S
C750 H726 0.948 . S
C750 C751 1.391 . S
C750 C755 1.391 . S
C751 C750 1.391 . S
C751 C752 1.391 . S
C752 H729 0.947 1_554 S
C752 C751 1.391 . S
C752 C753 1.392 . S
C753 H730 0.948 . S
C753 C752 1.392 . S
C753 C754 1.419 . S
C754 C753 1.419 . S
C754 C755 1.391 . S
C754 C758 1.397 . S
C755 C750 1.391 . S
C755 C754 1.391 . S
C755 C756 1.399 . S
C756 C755 1.399 . S
C756 C757 1.396 . S
C756 C759 1.453 . S
C756 C760 1.684 . S
C757 C747 1.723 . S
C757 C756 1.396 . S
C757 C758 1.394 . S
C758 C728 1.723 . S
C758 C754 1.397 . S
C758 C757 1.394 . S
C759 H731 0.982 . S
C759 H735 0.979 . S
C759 H736 0.977 . S
C759 C756 1.453 . S
C760 H732 0.979 . S
C760 H733 0.980 . S
C760 H734 0.983 . S
C760 C756 1.684 . S
H761 C779 0.948 . S
H762 C720 0.948 . S
H763 C738 0.979 . S
H764 C738 0.980 . S
H765 C738 0.983 1_556 S
H766 C737 0.982 . S
H767 C737 0.979 1_556 S
H768 C737 0.977 . S
H769 C739 0.948 . S
H770 C741 0.947 . S
H771 C742 0.948 . S
H772 C748 0.982 . S
H773 C748 0.979 . S
H774 C748 0.977 . S
H775 C749 0.979 . S
H776 C749 0.980 . S
H777 C749 0.983 . S
H778 C722 0.947 . S
C779 C722 1.392 . S
C779 C723 1.419 . S
C779 H761 0.948 . S
C780 C781 1.391 . S
C780 C784 1.391 . S
C780 H822 0.912 1_554 S
C781 C780 1.391 . S
C781 C782 1.391 . S
C782 C781 1.391 . S
C782 H838 0.947 . S
C782 C839 1.392 . S
C783 C784 1.391 . S
C783 C787 1.397 . S
C783 C839 1.419 . S
C784 C780 1.391 . S
C784 C783 1.391 . S
C784 C785 1.399 . S
C785 C784 1.399 . S
C785 C788 1.396 . S
C785 C797 1.453 . S
C785 C798 1.684 1_554 S
H786 C810 0.948 . S
C787 C783 1.397 . S
C787 C788 1.394 . S
C787 C806 1.723 . S
C788 C785 1.396 . S
C788 C787 1.394 . S
C788 C818 1.723 . S
H789 C812 0.947 1_556 S
H790 C813 0.948 . S
H791 C819 0.982 . S
H792 C820 0.979 . S
H793 C820 0.980 . S
H794 C820 0.983 . S
H795 C819 0.979 . S
H796 C819 0.977 . S
C797 C785 1.453 . S
C797 H826 0.982 . S
C797 H827 1.017 . S
C797 H828 0.977 . S
C798 C785 1.684 1_556 S
C798 H823 0.979 . S
C798 H824 0.980 . S
C798 H825 0.983 . S
C799 C800 1.391 . S
C799 C804 1.391 . S
C799 H829 0.948 . S
C800 C799 1.391 . S
C800 C801 1.391 . S
C801 C800 1.391 . S
C801 C802 1.392 . S
C801 H830 0.947 . S
C802 C801 1.392 . S
C802 C803 1.419 . S
C802 H831 0.948 . S
C803 C802 1.419 . S
C803 C804 1.391 . S
C803 C807 1.397 . S
C804 C799 1.391 . S
C804 C803 1.391 . S
C804 C805 1.399 . S
C805 C804 1.399 . S
C805 C806 1.396 . S
C805 C808 1.453 . S
C805 C809 1.684 . S
C806 C787 1.723 . S
C806 C805 1.396 . S
C806 C807 1.394 . S
C807 C803 1.397 . S
C807 C806 1.394 . S
C807 C817 1.723 . S
C808 C805 1.453 . S
C808 H832 0.982 . S
C808 H833 0.979 . S
C808 H834 0.977 . S
C809 C805 1.684 . S
C809 H835 0.979 . S
C809 H836 0.980 . S
C809 H837 0.983 . S
C810 H786 0.948 . S
C810 C811 1.391 . S
C810 C815 1.391 . S
C811 C810 1.391 . S
C811 C812 1.391 . S
C812 H789 0.947 1_554 S
C812 C811 1.391 . S
C812 C813 1.392 . S
C813 H790 0.948 . S
C813 C812 1.392 . S
C813 C814 1.419 . S
C814 C813 1.419 . S
C814 C815 1.391 . S
C814 C818 1.397 . S
C815 C810 1.391 . S
C815 C814 1.391 . S
C815 C816 1.399 . S
C816 C815 1.399 . S
C816 C817 1.396 . S
C816 C819 1.453 . S
C816 C820 1.684 . S
C817 C807 1.723 . S
C817 C816 1.396 . S
C817 C818 1.394 . S
C818 C788 1.723 . S
C818 C814 1.397 . S
C818 C817 1.394 . S
C819 H791 0.982 . S
C819 H795 0.979 . S
C819 H796 0.977 . S
C819 C816 1.453 . S
C820 H792 0.979 . S
C820 H793 0.980 . S
C820 H794 0.983 . S
C820 C816 1.684 . S
H821 C839 0.948 . S
H822 C780 0.912 1_556 S
H823 C798 0.979 . S
H824 C798 0.980 . S
H825 C798 0.983 . S
H826 C797 0.982 . S
H827 C797 1.017 . S
H828 C797 0.977 . S
H829 C799 0.948 . S
H830 C801 0.947 . S
H831 C802 0.948 . S
H832 C808 0.982 . S
H833 C808 0.979 . S
H834 C808 0.977 . S
H835 C809 0.979 . S
H836 C809 0.980 . S
H837 C809 0.983 . S
H838 C782 0.947 . S
C839 C782 1.392 . S
C839 C783 1.419 . S
C839 H821 0.948 . S
C840 C841 1.391 . S
C840 C844 1.391 . S
C840 H882 0.948 . S
C841 C840 1.391 . S
C841 C842 1.391 . S
C842 C841 1.391 . S
C842 H898 0.947 . S
C842 C899 1.392 . S
C843 C844 1.391 . S
C843 C847 1.397 . S
C843 C899 1.419 . S
C844 C840 1.391 . S
C844 C843 1.391 . S
C844 C845 1.399 . S
C845 C844 1.399 . S
C845 C848 1.396 . S
C845 C857 1.453 . S
C845 C858 1.684 . S
H846 C870 0.948 . S
C847 C843 1.397 . S
C847 C848 1.394 . S
C847 C866 1.723 . S
C848 C845 1.396 . S
C848 C847 1.394 . S
C848 C878 1.723 . S
H849 C872 0.947 1_556 S
H850 C873 0.948 . S
H851 C879 0.982 . S
H852 C880 0.979 . S
H853 C880 0.980 . S
H854 C880 0.983 . S
H855 C879 0.979 . S
H856 C879 0.977 . S
C857 C845 1.453 . S
C857 H886 0.982 . S
C857 H887 0.979 1_554 S
C857 H888 0.977 . S
C858 C845 1.684 . S
C858 H883 0.979 . S
C858 H884 0.980 . S
C858 H885 1.005 . S
C859 C860 1.391 . S
C859 C864 1.391 . S
C859 H889 0.948 . S
C860 C859 1.391 . S
C860 C861 1.391 . S
C861 C860 1.391 . S
C861 C862 1.392 . S
C861 H890 0.947 . S
C862 C861 1.392 . S
C862 C863 1.419 . S
C862 H891 0.948 . S
C863 C862 1.419 . S
C863 C864 1.391 . S
C863 C867 1.397 . S
C864 C859 1.391 . S
C864 C863 1.391 . S
C864 C865 1.399 . S
C865 C864 1.399 . S
C865 C866 1.396 . S
C865 C868 1.453 . S
C865 C869 1.684 . S
C866 C847 1.723 . S
C866 C865 1.396 . S
C866 C867 1.394 . S
C867 C863 1.397 . S
C867 C866 1.394 . S
C867 C877 1.723 . S
C868 C865 1.453 . S
C868 H892 0.982 . S
C868 H893 0.979 . S
C868 H894 0.977 . S
C869 C865 1.684 . S
C869 H895 0.979 . S
C869 H896 0.980 . S
C869 H897 0.983 . S
C870 H846 0.948 . S
C870 C871 1.391 . S
C870 C875 1.391 . S
C871 C870 1.391 . S
C871 C872 1.391 . S
C872 H849 0.947 1_554 S
C872 C871 1.391 . S
C872 C873 1.392 . S
C873 H850 0.948 . S
C873 C872 1.392 . S
C873 C874 1.419 . S
C874 C873 1.419 . S
C874 C875 1.391 . S
C874 C878 1.397 . S
C875 C870 1.391 . S
C875 C874 1.391 . S
C875 C876 1.399 . S
C876 C875 1.399 . S
C876 C877 1.396 . S
C876 C879 1.453 . S
C876 C880 1.684 . S
C877 C867 1.723 . S
C877 C876 1.396 . S
C877 C878 1.394 . S
C878 C848 1.723 . S
C878 C874 1.397 . S
C878 C877 1.394 . S
C879 H851 0.982 . S
C879 H855 0.979 . S
C879 H856 0.977 . S
C879 C876 1.453 . S
C880 H852 0.979 . S
C880 H853 0.980 . S
C880 H854 0.983 . S
C880 C876 1.684 . S
H881 C899 0.948 . S
H882 C840 0.948 . S
H883 C858 0.979 . S
H884 C858 0.980 . S
H885 C858 1.005 . S
H886 C857 0.982 . S
H887 C857 0.979 1_556 S
H888 C857 0.977 . S
H889 C859 0.948 . S
H890 C861 0.947 . S
H891 C862 0.948 . S
H892 C868 0.982 . S
H893 C868 0.979 . S
H894 C868 0.977 . S
H895 C869 0.979 . S
H896 C869 0.980 . S
H897 C869 0.983 . S
H898 C842 0.947 . S
C899 C842 1.392 . S
C899 C843 1.419 . S
C899 H881 0.948 . S
C900 C901 1.391 . S
C900 C904 1.391 . S
C900 H942 0.948 . S
C901 C900 1.391 . S
C901 C902 1.391 . S
C902 C901 1.391 . S
C902 H958 0.947 . S
C902 C959 1.392 . S
C903 C904 1.391 . S
C903 C907 1.397 . S
C903 C959 1.419 . S
C904 C900 1.391 . S
C904 C903 1.391 . S
C904 C905 1.399 . S
C905 C904 1.399 . S
C905 C908 1.396 . S
C905 C917 1.453 . S
C905 C918 1.684 . S
H906 C930 0.948 . S
C907 C903 1.397 . S
C907 C908 1.394 . S
C907 C926 1.723 . S
C908 C905 1.396 . S
C908 C907 1.394 . S
C908 C938 1.723 . S
H909 C932 0.947 . S
H910 C933 0.948 . S
H911 C939 0.982 . S
H912 C940 0.979 . S
H913 C940 0.980 . S
H914 C940 0.983 . S
H915 C939 0.979 . S
H916 C939 0.977 . S
C917 C905 1.453 . S
C917 H946 0.982 . S
C917 H947 0.979 . S
C917 H948 0.977 . S
C918 C905 1.684 . S
C918 H943 0.979 . S
C918 H944 0.980 . S
C918 H945 0.983 . S
C919 C920 1.391 . S
C919 C924 1.391 . S
C919 H949 0.948 . S
C920 C919 1.391 . S
C920 C921 1.391 . S
C921 C920 1.391 . S
C921 C922 1.392 . S
C921 H950 0.947 . S
C922 C921 1.392 . S
C922 C923 1.419 . S
C922 H951 0.948 . S
C923 C922 1.419 . S
C923 C924 1.391 . S
C923 C927 1.397 . S
C924 C919 1.391 . S
C924 C923 1.391 . S
C924 C925 1.399 . S
C925 C924 1.399 . S
C925 C926 1.396 . S
C925 C928 1.453 . S
C925 C929 1.684 . S
C926 C907 1.723 . S
C926 C925 1.396 . S
C926 C927 1.394 . S
C927 C923 1.397 . S
C927 C926 1.394 . S
C927 C937 1.723 . S
C928 C925 1.453 . S
C928 H952 0.982 . S
C928 H953 0.979 . S
C928 H954 0.977 . S
C929 C925 1.684 . S
C929 H955 0.979 . S
C929 H956 0.980 . S
C929 H957 0.983 . S
C930 H906 0.948 . S
C930 C931 1.391 . S
C930 C935 1.391 . S
C931 C930 1.391 . S
C931 C932 1.391 . S
C932 H909 0.947 . S
C932 C931 1.391 . S
C932 C933 1.392 . S
C933 H910 0.948 . S
C933 C932 1.392 . S
C933 C934 1.419 . S
C934 C933 1.419 . S
C934 C935 1.391 . S
C934 C938 1.397 . S
C935 C930 1.391 . S
C935 C934 1.391 . S
C935 C936 1.399 . S
C936 C935 1.399 . S
C936 C937 1.396 . S
C936 C939 1.453 . S
C936 C940 1.684 . S
C937 C927 1.723 . S
C937 C936 1.396 . S
C937 C938 1.394 . S
C938 C908 1.723 . S
C938 C934 1.397 . S
C938 C937 1.394 . S
C939 H911 0.982 . S
C939 H915 0.979 . S
C939 H916 0.977 . S
C939 C936 1.453 . S
C940 H912 0.979 . S
C940 H913 0.980 . S
C940 H914 0.983 . S
C940 C936 1.684 . S
H941 C959 0.948 . S
H942 C900 0.948 . S
H943 C918 0.979 . S
H944 C918 0.980 . S
H945 C918 0.983 . S
H946 C917 0.982 . S
H947 C917 0.979 . S
H948 C917 0.977 . S
H949 C919 0.948 . S
H950 C921 0.947 . S
H951 C922 0.948 . S
H952 C928 0.982 . S
H953 C928 0.979 . S
H954 C928 0.977 . S
H955 C929 0.979 . S
H956 C929 0.980 . S
H957 C929 0.983 . S
H958 C902 0.947 . S
C959 C902 1.392 . S
C959 C903 1.419 . S
C959 H941 0.948 . S
C960 C961 1.391 . S
C960 C964 1.391 . S
C960 H1002 0.948 . S
C961 C960 1.391 . S
C961 C962 1.391 . S
C962 C961 1.391 . S
C962 H1018 0.947 . S
C962 C1019 1.392 . S
C963 C964 1.391 . S
C963 C967 1.397 . S
C963 C1019 1.419 . S
C964 C960 1.391 . S
C964 C963 1.391 . S
C964 C965 1.399 . S
C965 C964 1.399 . S
C965 C968 1.396 . S
C965 C977 1.453 . S
C965 C978 1.684 . S
H966 C990 0.948 . S
C967 C963 1.397 . S
C967 C968 1.394 . S
C967 C986 1.723 . S
C968 C965 1.396 . S
C968 C967 1.394 . S
C968 C998 1.723 . S
H969 C992 0.947 . S
H970 C993 0.948 . S
H971 C999 0.982 . S
H972 C1000 0.979 . S
H973 C1000 0.980 . S
H974 C1000 0.983 . S
H975 C999 0.979 . S
H976 C999 0.977 . S
C977 C965 1.453 . S
C977 H1006 0.982 . S
C977 H1007 0.979 . S
C977 H1008 0.977 . S
C978 C965 1.684 . S
C978 H1003 0.979 . S
C978 H1004 0.980 . S
C978 H1005 0.983 . S
C979 C980 1.391 . S
C979 C984 1.391 . S
C979 H1009 0.948 . S
C980 C979 1.391 . S
C980 C981 1.391 . S
C981 C980 1.391 . S
C981 C982 1.392 . S
C981 H1010 0.947 . S
C982 C981 1.392 . S
C982 C983 1.419 . S
C982 H1011 0.948 . S
C983 C982 1.419 . S
C983 C984 1.391 . S
C983 C987 1.397 . S
C984 C979 1.391 . S
C984 C983 1.391 . S
C984 C985 1.399 . S
C985 C984 1.399 . S
C985 C986 1.396 . S
C985 C988 1.453 . S
C985 C989 1.684 . S
C986 C967 1.723 . S
C986 C985 1.396 . S
C986 C987 1.394 . S
C987 C983 1.397 . S
C987 C986 1.394 . S
C987 C997 1.723 . S
C988 C985 1.453 . S
C988 H1012 0.982 . S
C988 H1013 0.979 . S
C988 H1014 0.977 . S
C989 C985 1.684 . S
C989 H1015 0.979 . S
C989 H1016 0.980 . S
C989 H1017 0.983 . S
C990 H966 0.948 . S
C990 C991 1.391 . S
C990 C995 1.391 . S
C991 C990 1.391 . S
C991 C992 1.391 . S
C992 H969 0.947 . S
C992 C991 1.391 . S
C992 C993 1.392 . S
C993 H970 0.948 . S
C993 C992 1.392 . S
C993 C994 1.419 . S
C994 C993 1.419 . S
C994 C995 1.391 . S
C994 C998 1.397 . S
C995 C990 1.391 . S
C995 C994 1.391 . S
C995 C996 1.399 . S
C996 C995 1.399 . S
C996 C997 1.396 . S
C996 C999 1.453 . S
C996 C1000 1.684 . S
C997 C987 1.723 . S
C997 C996 1.396 . S
C997 C998 1.394 . S
C998 C968 1.723 . S
C998 C994 1.397 . S
C998 C997 1.394 . S
C999 H971 0.982 . S
C999 H975 0.979 . S
C999 H976 0.977 . S
C999 C996 1.453 . S
C1000 H972 0.979 . S
C1000 H973 0.980 . S
C1000 H974 0.983 . S
C1000 C996 1.684 . S
H1001 C1019 0.948 . S
H1002 C960 0.948 . S
H1003 C978 0.979 . S
H1004 C978 0.980 . S
H1005 C978 0.983 . S
H1006 C977 0.982 . S
H1007 C977 0.979 . S
H1008 C977 0.977 . S
H1009 C979 0.948 . S
H1010 C981 0.947 . S
H1011 C982 0.948 . S
H1012 C988 0.982 . S
H1013 C988 0.979 . S
H1014 C988 0.977 . S
H1015 C989 0.979 . S
H1016 C989 0.980 . S
H1017 C989 0.983 . S
H1018 C962 0.947 . S
C1019 C962 1.392 . S
C1019 C963 1.419 . S
C1019 H1001 0.948 . S
C1020 C1021 1.391 . S
C1020 C1024 1.391 . S
C1020 H1062 0.948 . S
C1021 C1020 1.391 . S
C1021 C1022 1.391 . S
C1022 C1021 1.391 . S
C1022 H1078 0.947 . S
C1022 C1079 1.392 . S
C1023 C1024 1.391 . S
C1023 C1027 1.397 . S
C1023 C1079 1.419 . S
C1024 C1020 1.391 . S
C1024 C1023 1.391 . S
C1024 C1025 1.399 . S
C1025 C1024 1.399 . S
C1025 C1028 1.396 . S
C1025 C1037 1.453 . S
C1025 C1038 1.684 . S
H1026 C1050 0.948 . S
C1027 C1023 1.397 . S
C1027 C1028 1.394 . S
C1027 C1046 1.723 . S
C1028 C1025 1.396 . S
C1028 C1027 1.394 . S
C1028 C1058 1.723 . S
H1029 C1052 0.947 . S
H1030 C1053 0.948 . S
H1031 C1059 0.982 . S
H1032 C1060 0.979 . S
H1033 C1060 0.980 . S
H1034 C1060 0.983 . S
H1035 C1059 0.979 . S
H1036 C1059 0.977 . S
C1037 C1025 1.453 . S
C1037 H1066 0.982 . S
C1037 H1067 0.979 . S
C1037 H1068 0.977 . S
C1038 C1025 1.684 . S
C1038 H1063 0.979 . S
C1038 H1064 0.980 . S
C1038 H1065 0.983 . S
C1039 C1040 1.391 . S
C1039 C1044 1.391 . S
C1039 H1069 0.948 . S
C1040 C1039 1.391 . S
C1040 C1041 1.391 . S
C1041 C1040 1.391 . S
C1041 C1042 1.392 . S
C1041 H1070 0.947 . S
C1042 C1041 1.392 . S
C1042 C1043 1.419 . S
C1042 H1071 0.948 . S
C1043 C1042 1.419 . S
C1043 C1044 1.391 . S
C1043 C1047 1.397 . S
C1044 C1039 1.391 . S
C1044 C1043 1.391 . S
C1044 C1045 1.399 . S
C1045 C1044 1.399 . S
C1045 C1046 1.396 . S
C1045 C1048 1.453 . S
C1045 C1049 1.684 . S
C1046 C1027 1.723 . S
C1046 C1045 1.396 . S
C1046 C1047 1.394 . S
C1047 C1043 1.397 . S
C1047 C1046 1.394 . S
C1047 C1057 1.723 . S
C1048 C1045 1.453 . S
C1048 H1072 0.982 . S
C1048 H1073 0.979 . S
C1048 H1074 0.977 . S
C1049 C1045 1.684 . S
C1049 H1075 0.979 . S
C1049 H1076 0.980 . S
C1049 H1077 0.983 . S
C1050 H1026 0.948 . S
C1050 C1051 1.391 . S
C1050 C1055 1.391 . S
C1051 C1050 1.391 . S
C1051 C1052 1.391 . S
C1052 H1029 0.947 . S
C1052 C1051 1.391 . S
C1052 C1053 1.392 . S
C1053 H1030 0.948 . S
C1053 C1052 1.392 . S
C1053 C1054 1.419 . S
C1054 C1053 1.419 . S
C1054 C1055 1.391 . S
C1054 C1058 1.397 . S
C1055 C1050 1.391 . S
C1055 C1054 1.391 . S
C1055 C1056 1.399 . S
C1056 C1055 1.399 . S
C1056 C1057 1.396 . S
C1056 C1059 1.453 . S
C1056 C1060 1.684 . S
C1057 C1047 1.723 . S
C1057 C1056 1.396 . S
C1057 C1058 1.394 . S
C1058 C1028 1.723 . S
C1058 C1054 1.397 . S
C1058 C1057 1.394 . S
C1059 H1031 0.982 . S
C1059 H1035 0.979 . S
C1059 H1036 0.977 . S
C1059 C1056 1.453 . S
C1060 H1032 0.979 . S
C1060 H1033 0.980 . S
C1060 H1034 0.983 . S
C1060 C1056 1.684 . S
H1061 C1079 0.948 . S
H1062 C1020 0.948 . S
H1063 C1038 0.979 . S
H1064 C1038 0.980 . S
H1065 C1038 0.983 . S
H1066 C1037 0.982 . S
H1067 C1037 0.979 . S
H1068 C1037 0.977 . S
H1069 C1039 0.948 . S
H1070 C1041 0.947 . S
H1071 C1042 0.948 . S
H1072 C1048 0.982 . S
H1073 C1048 0.979 . S
H1074 C1048 0.977 . S
H1075 C1049 0.979 . S
H1076 C1049 0.980 . S
H1077 C1049 0.983 . S
H1078 C1022 0.947 . S
C1079 C1022 1.392 . S
C1079 C1023 1.419 . S
C1079 H1061 0.948 . S
O1080 Mg1081 1.990 . S
O1080 C1094 1.256 . S
Mg1081 O1080 1.990 . S
Mg1081 O1084 2.180 1_556 S
Mg1081 O1085 2.117 . S
Mg1081 O1099 2.030 1_565 S
O1082 Mg1083 2.072 1_556 S
O1082 C1094 1.259 1_545 S
Mg1083 O1082 2.072 1_554 S
Mg1083 O1084 2.099 1_545 S
Mg1083 O1086 2.079 . S
Mg1083 O1087 2.072 1_545 S
Mg1083 O1089 2.099 . S
Mg1083 O1100 2.079 . S
O1084 Mg1081 2.180 1_554 S
O1084 Mg1083 2.099 1_565 S
O1084 C1095 1.281 . S
O1085 Mg1081 2.117 . S
O1085 C1095 1.238 1_556 S
O1086 Mg1083 2.079 . S
O1086 C1096 1.264 . S
O1087 Mg1083 2.072 1_565 S
O1087 C1097 1.260 . S
Mg1088 O1089 2.180 . S
Mg1088 O1090 2.049 . S
Mg1088 O1091 1.990 1_545 S
Mg1088 O1092 2.117 . S
O1089 Mg1083 2.099 . S
O1089 Mg1088 2.180 . S
O1089 C1098 1.285 . S
O1090 Mg1088 2.049 . S
O1090 C1096 1.234 . S
O1091 Mg1088 1.990 1_565 S
O1091 C1097 1.253 . S
O1092 Mg1088 2.117 . S
O1092 C1098 1.254 . S
C1093 O1099 1.248 . S
C1093 O1100 1.264 1_556 S
C1094 O1080 1.256 . S
C1094 O1082 1.259 1_565 S
C1095 O1084 1.281 . S
C1095 O1085 1.238 1_554 S
C1096 O1086 1.264 . S
C1096 O1090 1.234 . S
C1097 O1087 1.260 . S
C1097 O1091 1.253 . S
C1098 O1089 1.285 . S
C1098 O1092 1.254 . S
O1099 Mg1081 2.030 1_545 S
O1099 C1093 1.248 . S
O1100 Mg1083 2.079 . S
O1100 C1093 1.264 1_554 S
O1101 Mg1102 1.990 . S
O1101 C1115 1.253 . S
Mg1102 O1101 1.990 . S
Mg1102 O1105 2.180 1_556 S
Mg1102 O1106 2.117 . S
Mg1102 O1120 2.030 1_455 S
O1103 Mg1104 2.072 1_556 S
O1103 C1115 1.260 1_655 S
Mg1104 O1103 2.072 1_554 S
Mg1104 O1105 2.097 1_655 S
Mg1104 O1107 2.081 . S
Mg1104 O1108 2.052 1_655 S
Mg1104 O1110 2.101 . S
Mg1104 O1121 2.099 . S
O1105 Mg1102 2.180 1_554 S
O1105 Mg1104 2.097 1_455 S
O1105 C1116 1.279 . S
O1106 Mg1102 2.117 . S
O1106 C1116 1.250 1_556 S
O1107 Mg1104 2.081 . S
O1107 C1117 1.264 1_655 S
O1108 Mg1104 2.052 1_455 S
O1108 C1118 1.260 . S
Mg1109 O1110 2.180 . S
Mg1109 O1111 2.030 1_655 S
Mg1109 O1112 1.990 1_655 S
Mg1109 O1113 2.117 . S
O1110 Mg1104 2.101 . S
O1110 Mg1109 2.180 . S
O1110 C1119 1.276 1_554 S
O1111 Mg1109 2.030 1_455 S
O1111 C1117 1.248 . S
O1112 Mg1109 1.990 1_455 S
O1112 C1118 1.253 . S
O1113 Mg1109 2.117 . S
O1113 C1119 1.249 1_554 S
C1114 O1120 1.248 . S
C1114 O1121 1.264 1_556 S
C1115 O1101 1.253 . S
C1115 O1103 1.260 1_455 S
C1116 O1105 1.279 . S
C1116 O1106 1.250 1_554 S
C1117 O1107 1.264 1_455 S
C1117 O1111 1.248 . S
C1118 O1108 1.260 . S
C1118 O1112 1.253 . S
C1119 O1110 1.276 1_556 S
C1119 O1113 1.249 1_556 S
O1120 Mg1102 2.030 1_655 S
O1120 C1114 1.248 . S
O1121 Mg1104 2.099 . S
O1121 C1114 1.264 1_554 S
O1122 Mg1123 1.990 . S
O1122 C1136 1.253 . S
Mg1123 O1122 1.990 . S
Mg1123 O1126 2.180 . S
Mg1123 O1127 2.117 . S
Mg1123 O1141 2.030 . S
O1124 Mg1125 2.057 1_554 S
O1124 C1136 1.260 . S
Mg1125 O1124 2.057 1_556 S
Mg1125 O1126 2.097 1_556 S
Mg1125 O1128 2.094 . S
Mg1125 O1129 2.074 . S
Mg1125 O1131 2.101 . S
Mg1125 O1142 2.078 1_556 S
O1126 Mg1123 2.180 . S
O1126 Mg1125 2.097 1_554 S
O1126 C1137 1.279 . S
O1127 Mg1123 2.117 . S
O1127 C1137 1.250 . S
O1128 Mg1125 2.094 . S
O1128 C1138 1.264 . S
O1129 Mg1125 2.074 . S
O1129 C1139 1.260 . S
Mg1130 O1131 2.180 . S
Mg1130 O1132 2.030 . S
Mg1130 O1133 1.990 . S
Mg1130 O1134 2.127 . S
O1131 Mg1125 2.101 . S
O1131 Mg1130 2.180 . S
O1131 C1140 1.279 1_556 S
O1132 Mg1130 2.030 . S
O1132 C1138 1.248 . S
O1133 Mg1130 1.990 . S
O1133 C1139 1.253 . S
O1134 Mg1130 2.127 . S
O1134 C1140 1.247 1_556 S
C1135 O1141 1.248 . S
C1135 O1142 1.264 . S
C1136 O1122 1.253 . S
C1136 O1124 1.260 . S
C1137 O1126 1.279 . S
C1137 O1127 1.250 . S
C1138 O1128 1.264 . S
C1138 O1132 1.248 . S
C1139 O1129 1.260 . S
C1139 O1133 1.253 . S
C1140 O1131 1.279 1_554 S
C1140 O1134 1.247 1_554 S
O1141 Mg1123 2.030 . S
O1141 C1135 1.248 . S
O1142 Mg1125 2.078 1_554 S
O1142 C1135 1.264 . S
O1143 Mg1144 1.990 . S
O1143 C1157 1.253 . S
Mg1144 O1143 1.990 . S
Mg1144 O1147 2.180 . S
Mg1144 O1148 2.117 . S
Mg1144 O1162 2.030 . S
O1145 Mg1146 2.072 . S
O1145 C1157 1.260 . S
Mg1146 O1145 2.072 . S
Mg1146 O1147 2.099 . S
Mg1146 O1149 2.079 . S
Mg1146 O1150 2.072 . S
Mg1146 O1152 2.099 . S
Mg1146 O1163 2.079 . S
O1147 Mg1144 2.180 . S
O1147 Mg1146 2.099 . S
O1147 C1158 1.279 . S
O1148 Mg1144 2.117 . S
O1148 C1158 1.250 . S
O1149 Mg1146 2.079 . S
O1149 C1159 1.264 . S
O1150 Mg1146 2.072 . S
O1150 C1160 1.260 . S
Mg1151 O1152 2.180 . S
Mg1151 O1153 2.030 . S
Mg1151 O1154 1.990 . S
Mg1151 O1155 2.117 . S
O1152 Mg1146 2.099 . S
O1152 Mg1151 2.180 . S
O1152 C1161 1.279 . S
O1153 Mg1151 2.030 . S
O1153 C1159 1.248 . S
O1154 Mg1151 1.990 . S
O1154 C1160 1.253 . S
O1155 Mg1151 2.117 . S
O1155 C1161 1.250 . S
C1156 O1162 1.248 . S
C1156 O1163 1.264 . S
C1157 O1143 1.253 . S
C1157 O1145 1.260 . S
C1158 O1147 1.279 . S
C1158 O1148 1.250 . S
C1159 O1149 1.264 . S
C1159 O1153 1.248 . S
C1160 O1150 1.260 . S
C1160 O1154 1.253 . S
C1161 O1152 1.279 . S
C1161 O1155 1.250 . S
O1162 Mg1144 2.030 . S
O1162 C1156 1.248 . S
O1163 Mg1146 2.079 . S
O1163 C1156 1.264 . S
O1164 Mg1165 1.990 . S
O1164 C1178 1.253 . S
Mg1165 O1164 1.990 . S
Mg1165 O1168 2.180 . S
Mg1165 O1169 2.117 . S
Mg1165 O1183 2.030 . S
O1166 Mg1167 2.072 . S
O1166 C1178 1.260 . S
Mg1167 O1166 2.072 . S
Mg1167 O1168 2.099 . S
Mg1167 O1170 2.079 . S
Mg1167 O1171 2.072 . S
Mg1167 O1173 2.099 . S
Mg1167 O1184 2.079 . S
O1168 Mg1165 2.180 . S
O1168 Mg1167 2.099 . S
O1168 C1179 1.279 . S
O1169 Mg1165 2.117 . S
O1169 C1179 1.250 . S
O1170 Mg1167 2.079 . S
O1170 C1180 1.264 . S
O1171 Mg1167 2.072 . S
O1171 C1181 1.260 . S
Mg1172 O1173 2.180 . S
Mg1172 O1174 2.030 . S
Mg1172 O1175 1.990 . S
Mg1172 O1176 2.117 . S
O1173 Mg1167 2.099 . S
O1173 Mg1172 2.180 . S
O1173 C1182 1.279 . S
O1174 Mg1172 2.030 . S
O1174 C1180 1.248 . S
O1175 Mg1172 1.990 . S
O1175 C1181 1.253 . S
O1176 Mg1172 2.117 . S
O1176 C1182 1.250 . S
C1177 O1183 1.248 . S
C1177 O1184 1.264 . S
C1178 O1164 1.253 . S
C1178 O1166 1.260 . S
C1179 O1168 1.279 . S
C1179 O1169 1.250 . S
C1180 O1170 1.264 . S
C1180 O1174 1.248 . S
C1181 O1171 1.260 . S
C1181 O1175 1.253 . S
C1182 O1173 1.279 . S
C1182 O1176 1.250 . S
O1183 Mg1165 2.030 . S
O1183 C1177 1.248 . S
O1184 Mg1167 2.079 . S
O1184 C1177 1.264 . S
O1185 Mg1186 1.990 . S
O1185 C1199 1.253 . S
Mg1186 O1185 1.990 . S
Mg1186 O1189 2.180 . S
Mg1186 O1190 2.117 . S
Mg1186 O1204 2.030 . S
O1187 Mg1188 2.072 . S
O1187 C1199 1.260 . S
Mg1188 O1187 2.072 . S
Mg1188 O1189 2.099 . S
Mg1188 O1191 2.079 . S
Mg1188 O1192 2.072 . S
Mg1188 O1194 2.099 . S
Mg1188 O1205 2.079 . S
O1189 Mg1186 2.180 . S
O1189 Mg1188 2.099 . S
O1189 C1200 1.279 . S
O1190 Mg1186 2.117 . S
O1190 C1200 1.250 . S
O1191 Mg1188 2.079 . S
O1191 C1201 1.264 . S
O1192 Mg1188 2.072 . S
O1192 C1202 1.260 . S
Mg1193 O1194 2.180 . S
Mg1193 O1195 2.030 . S
Mg1193 O1196 1.990 . S
Mg1193 O1197 2.117 . S
O1194 Mg1188 2.099 . S
O1194 Mg1193 2.180 . S
O1194 C1203 1.279 . S
O1195 Mg1193 2.030 . S
O1195 C1201 1.248 . S
O1196 Mg1193 1.990 . S
O1196 C1202 1.253 . S
O1197 Mg1193 2.117 . S
O1197 C1203 1.250 . S
C1198 O1204 1.248 . S
C1198 O1205 1.264 . S
C1199 O1185 1.253 . S
C1199 O1187 1.260 . S
C1200 O1189 1.279 . S
C1200 O1190 1.250 . S
C1201 O1191 1.264 . S
C1201 O1195 1.248 . S
C1202 O1192 1.260 . S
C1202 O1196 1.253 . S
C1203 O1194 1.279 . S
C1203 O1197 1.250 . S
O1204 Mg1186 2.030 . S
O1204 C1198 1.248 . S
O1205 Mg1188 2.079 . S
O1205 C1198 1.264 . S
O1206 Mg1207 1.990 . S
O1206 C1220 1.253 . S
Mg1207 O1206 1.990 . S
Mg1207 O1210 2.180 . S
Mg1207 O1211 2.117 . S
Mg1207 O1225 2.030 . S
O1208 Mg1209 2.072 . S
O1208 C1220 1.260 . S
Mg1209 O1208 2.072 . S
Mg1209 O1210 2.099 . S
Mg1209 O1212 2.079 . S
Mg1209 O1213 2.072 . S
Mg1209 O1215 2.099 . S
Mg1209 O1226 2.079 . S
O1210 Mg1207 2.180 . S
O1210 Mg1209 2.099 . S
O1210 C1221 1.279 . S
O1211 Mg1207 2.117 . S
O1211 C1221 1.250 . S
O1212 Mg1209 2.079 . S
O1212 C1222 1.264 . S
O1213 Mg1209 2.072 . S
O1213 C1223 1.260 . S
Mg1214 O1215 2.180 . S
Mg1214 O1216 2.030 . S
Mg1214 O1217 1.990 . S
Mg1214 O1218 2.117 . S
O1215 Mg1209 2.099 . S
O1215 Mg1214 2.180 . S
O1215 C1224 1.279 . S
O1216 Mg1214 2.030 . S
O1216 C1222 1.248 . S
O1217 Mg1214 1.990 . S
O1217 C1223 1.253 . S
O1218 Mg1214 2.117 . S
O1218 C1224 1.250 . S
C1219 O1225 1.248 . S
C1219 O1226 1.264 . S
C1220 O1206 1.253 . S
C1220 O1208 1.260 . S
C1221 O1210 1.279 . S
C1221 O1211 1.250 . S
C1222 O1212 1.264 . S
C1222 O1216 1.248 . S
C1223 O1213 1.260 . S
C1223 O1217 1.253 . S
C1224 O1215 1.279 . S
C1224 O1218 1.250 . S
O1225 Mg1207 2.030 . S
O1225 C1219 1.248 . S
O1226 Mg1209 2.079 . S
O1226 C1219 1.264 . S
O1227 Mg1228 1.990 . S
O1227 C1241 1.253 . S
Mg1228 O1227 1.990 . S
Mg1228 O1231 2.180 . S
Mg1228 O1232 2.117 . S
Mg1228 O1246 2.030 . S
O1229 Mg1230 2.072 . S
O1229 C1241 1.260 . S
Mg1230 O1229 2.072 . S
Mg1230 O1231 2.099 . S
Mg1230 O1233 2.079 . S
Mg1230 O1234 2.072 . S
Mg1230 O1236 2.099 . S
Mg1230 O1247 2.079 . S
O1231 Mg1228 2.180 . S
O1231 Mg1230 2.099 . S
O1231 C1242 1.279 . S
O1232 Mg1228 2.117 . S
O1232 C1242 1.250 . S
O1233 Mg1230 2.079 . S
O1233 C1243 1.264 . S
O1234 Mg1230 2.072 . S
O1234 C1244 1.260 . S
Mg1235 O1236 2.180 . S
Mg1235 O1237 2.030 . S
Mg1235 O1238 1.990 . S
Mg1235 O1239 2.117 . S
O1236 Mg1230 2.099 . S
O1236 Mg1235 2.180 . S
O1236 C1245 1.279 . S
O1237 Mg1235 2.030 . S
O1237 C1243 1.248 . S
O1238 Mg1235 1.990 . S
O1238 C1244 1.253 . S
O1239 Mg1235 2.117 . S
O1239 C1245 1.250 . S
C1240 O1246 1.248 . S
C1240 O1247 1.264 . S
C1241 O1227 1.253 . S
C1241 O1229 1.260 . S
C1242 O1231 1.279 . S
C1242 O1232 1.250 . S
C1243 O1233 1.264 . S
C1243 O1237 1.248 . S
C1244 O1234 1.260 . S
C1244 O1238 1.253 . S
C1245 O1236 1.279 . S
C1245 O1239 1.250 . S
O1246 Mg1228 2.030 . S
O1246 C1240 1.248 . S
O1247 Mg1230 2.079 . S
O1247 C1240 1.264 . S
O1248 Mg1249 1.990 . S
O1248 C1262 1.253 . S
Mg1249 O1248 1.990 . S
Mg1249 O1252 2.180 . S
Mg1249 O1253 2.117 . S
Mg1249 O1267 2.030 . S
O1250 Mg1251 2.072 . S
O1250 C1262 1.260 . S
Mg1251 O1250 2.072 . S
Mg1251 O1252 2.099 . S
Mg1251 O1254 2.079 . S
Mg1251 O1255 2.072 . S
Mg1251 O1257 2.099 . S
Mg1251 O1268 2.079 . S
O1252 Mg1249 2.180 . S
O1252 Mg1251 2.099 . S
O1252 C1263 1.279 . S
O1253 Mg1249 2.117 . S
O1253 C1263 1.250 . S
O1254 Mg1251 2.079 . S
O1254 C1264 1.264 . S
O1255 Mg1251 2.072 . S
O1255 C1265 1.260 . S
Mg1256 O1257 2.180 . S
Mg1256 O1258 2.030 . S
Mg1256 O1259 1.990 . S
Mg1256 O1260 2.117 . S
O1257 Mg1251 2.099 . S
O1257 Mg1256 2.180 . S
O1257 C1266 1.279 . S
O1258 Mg1256 2.030 . S
O1258 C1264 1.248 . S
O1259 Mg1256 1.990 . S
O1259 C1265 1.253 . S
O1260 Mg1256 2.117 . S
O1260 C1266 1.250 . S
C1261 O1267 1.248 . S
C1261 O1268 1.264 . S
C1262 O1248 1.253 . S
C1262 O1250 1.260 . S
C1263 O1252 1.279 . S
C1263 O1253 1.250 . S
C1264 O1254 1.264 . S
C1264 O1258 1.248 . S
C1265 O1255 1.260 . S
C1265 O1259 1.253 . S
C1266 O1257 1.279 . S
C1266 O1260 1.250 . S
O1267 Mg1249 2.030 . S
O1267 C1261 1.248 . S
O1268 Mg1251 2.079 . S
O1268 C1261 1.264 . S
C1269 C1270 1.369 . S
C1269 C1271 1.419 . S
C1269 H1273 0.933 . S
C1270 C1269 1.369 . S
C1270 C1279 1.429 . S
C1271 C1269 1.419 . S
C1271 C1272 1.363 . S
C1271 H1274 0.927 . S
C1272 C1271 1.363 . S
C1272 C1278 1.428 . S
H1273 C1269 0.933 . S
H1274 C1271 0.927 . S
S1275 N1276 1.613 . S
S1275 N1277 1.610 . S
N1276 S1275 1.613 . S
N1276 C1279 1.350 . S
N1277 S1275 1.610 . S
N1277 C1278 1.351 . S
C1278 C1272 1.428 . S
C1278 N1277 1.351 . S
C1278 C1279 1.434 . S
C1279 C1270 1.429 . S
C1279 N1276 1.350 . S
C1279 C1278 1.434 . S
C1280 C1281 1.369 . S
C1280 C1282 1.419 . S
C1280 H1284 0.911 1_554 S
C1281 C1280 1.369 . S
C1281 C1290 1.429 . S
C1282 C1280 1.419 . S
C1282 C1283 1.363 . S
C1282 H1285 0.929 1_554 S
C1283 C1282 1.363 . S
C1283 C1289 1.428 . S
H1284 C1280 0.911 1_556 S
H1285 C1282 0.929 1_556 S
S1286 N1287 1.613 . S
S1286 N1288 1.610 . S
N1287 S1286 1.613 . S
N1287 C1290 1.350 . S
N1288 S1286 1.610 . S
N1288 C1289 1.351 . S
C1289 C1283 1.428 . S
C1289 N1288 1.351 . S
C1289 C1290 1.434 . S
C1290 C1281 1.429 . S
C1290 N1287 1.350 . S
C1290 C1289 1.434 . S
C1291 C1292 1.369 . S
C1291 C1293 1.419 . S
C1291 H1295 0.930 . S
C1292 C1291 1.369 . S
C1292 C1301 1.429 1_554 S
C1293 C1291 1.419 . S
C1293 C1294 1.363 . S
C1293 H1296 0.929 . S
C1294 C1293 1.363 . S
C1294 C1300 1.428 1_554 S
H1295 C1291 0.930 . S
H1296 C1293 0.929 . S
S1297 N1298 1.613 . S
S1297 N1299 1.610 . S
N1298 S1297 1.613 . S
N1298 C1301 1.350 . S
N1299 S1297 1.610 . S
N1299 C1300 1.351 . S
C1300 C1294 1.428 1_556 S
C1300 N1299 1.351 . S
C1300 C1301 1.434 . S
C1301 C1292 1.429 1_556 S
C1301 N1298 1.350 . S
C1301 C1300 1.434 . S
C1302 C1303 1.369 . S
C1302 C1304 1.419 . S
C1302 H1306 0.930 . S
C1303 C1302 1.369 . S
C1303 C1312 1.429 . S
C1304 C1302 1.419 . S
C1304 C1305 1.363 . S
C1304 H1307 0.929 . S
C1305 C1304 1.363 . S
C1305 C1311 1.428 . S
H1306 C1302 0.930 . S
H1307 C1304 0.929 . S
S1308 N1309 1.613 . S
S1308 N1310 1.610 . S
N1309 S1308 1.613 . S
N1309 C1312 1.350 . S
N1310 S1308 1.610 . S
N1310 C1311 1.351 . S
C1311 C1305 1.428 . S
C1311 N1310 1.351 . S
C1311 C1312 1.434 . S
C1312 C1303 1.429 . S
C1312 N1309 1.350 . S
C1312 C1311 1.434 . S
C1313 C1314 1.369 . S
C1313 C1315 1.419 . S
C1313 H1317 0.930 . S
C1314 C1313 1.369 . S
C1314 C1323 1.429 1_556 S
C1315 C1313 1.419 . S
C1315 C1316 1.363 . S
C1315 H1318 0.929 . S
C1316 C1315 1.363 . S
C1316 C1322 1.428 1_556 S
H1317 C1313 0.930 . S
H1318 C1315 0.929 . S
S1319 N1320 1.613 . S
S1319 N1321 1.610 . S
N1320 S1319 1.613 . S
N1320 C1323 1.350 . S
N1321 S1319 1.610 . S
N1321 C1322 1.351 . S
C1322 C1316 1.428 1_554 S
C1322 N1321 1.351 . S
C1322 C1323 1.434 . S
C1323 C1314 1.429 1_554 S
C1323 N1320 1.350 . S
C1323 C1322 1.434 . S
C1324 C1325 1.369 1_554 S
C1324 C1326 1.419 . S
C1324 H1328 0.930 . S
C1325 C1324 1.369 1_556 S
C1325 C1334 1.429 . S
C1326 C1324 1.419 . S
C1326 C1327 1.363 1_554 S
C1326 H1329 0.929 . S
C1327 C1326 1.363 1_556 S
C1327 C1333 1.428 . S
H1328 C1324 0.930 . S
H1329 C1326 0.929 . S
S1330 N1331 1.613 . S
S1330 N1332 1.610 . S
N1331 S1330 1.613 . S
N1331 C1334 1.350 . S
N1332 S1330 1.610 . S
N1332 C1333 1.351 . S
C1333 C1327 1.428 . S
C1333 N1332 1.351 . S
C1333 C1334 1.434 . S
C1334 C1325 1.429 . S
C1334 N1331 1.350 . S
C1334 C1333 1.434 . S
C1335 C1336 1.369 . S
C1335 C1337 1.419 . S
C1335 H1339 0.930 1_556 S
C1336 C1335 1.369 . S
C1336 C1345 1.429 . S
C1337 C1335 1.419 . S
C1337 C1338 1.363 . S
C1337 H1340 0.929 1_556 S
C1338 C1337 1.363 . S
C1338 C1344 1.428 . S
H1339 C1335 0.930 1_554 S
H1340 C1337 0.929 1_554 S
S1341 N1342 1.613 . S
S1341 N1343 1.610 . S
N1342 S1341 1.613 . S
N1342 C1345 1.350 . S
N1343 S1341 1.610 . S
N1343 C1344 1.351 . S
C1344 C1338 1.428 . S
C1344 N1343 1.351 . S
C1344 C1345 1.434 . S
C1345 C1336 1.429 . S
C1345 N1342 1.350 . S
C1345 C1344 1.434 . S
C1346 C1347 1.369 . S
C1346 C1348 1.419 . S
C1346 H1350 0.930 . S
C1347 C1346 1.369 . S
C1347 C1356 1.429 . S
C1348 C1346 1.419 . S
C1348 C1349 1.363 . S
C1348 H1351 0.929 . S
C1349 C1348 1.363 . S
C1349 C1355 1.428 . S
H1350 C1346 0.930 . S
H1351 C1348 0.929 . S
S1352 N1353 1.613 . S
S1352 N1354 1.610 . S
N1353 S1352 1.613 . S
N1353 C1356 1.350 . S
N1354 S1352 1.610 . S
N1354 C1355 1.351 . S
C1355 C1349 1.428 . S
C1355 N1354 1.351 . S
C1355 C1356 1.434 . S
C1356 C1347 1.429 . S
C1356 N1353 1.350 . S
C1356 C1355 1.434 . S
C1357 C1358 1.355 1_554 S
C1357 C1359 1.421 . S
C1357 H1361 0.945 . S
C1358 C1357 1.355 1_556 S
C1358 C1367 1.429 . S
C1359 C1357 1.421 . S
C1359 C1360 1.363 1_554 S
C1359 H1362 0.929 . S
C1360 C1359 1.363 1_556 S
C1360 C1366 1.428 . S
H1361 C1357 0.945 . S
H1362 C1359 0.929 . S
S1363 N1364 1.613 . S
S1363 N1365 1.610 . S
N1364 S1363 1.613 . S
N1364 C1367 1.350 . S
N1365 S1363 1.610 . S
N1365 C1366 1.351 . S
C1366 C1360 1.428 . S
C1366 N1365 1.351 . S
C1366 C1367 1.434 . S
C1367 C1358 1.429 . S
C1367 N1364 1.350 . S
C1367 C1366 1.434 . S
C1368 C1369 1.369 . S
C1368 C1370 1.419 . S
C1368 H1372 0.930 . S
C1369 C1368 1.369 . S
C1369 C1378 1.429 . S
C1370 C1368 1.419 . S
C1370 C1371 1.363 . S
C1370 H1373 0.929 . S
C1371 C1370 1.363 . S
C1371 C1377 1.428 . S
H1372 C1368 0.930 . S
H1373 C1370 0.929 . S
S1374 N1375 1.613 . S
S1374 N1376 1.610 . S
N1375 S1374 1.613 . S
N1375 C1378 1.350 . S
N1376 S1374 1.610 . S
N1376 C1377 1.351 . S
C1377 C1371 1.428 . S
C1377 N1376 1.351 . S
C1377 C1378 1.434 . S
C1378 C1369 1.429 . S
C1378 N1375 1.350 . S
C1378 C1377 1.434 . S
C1379 C1380 1.369 . S
C1379 C1381 1.419 . S
C1379 H1383 0.930 . S
C1380 C1379 1.369 . S
C1380 C1389 1.429 1_554 S
C1381 C1379 1.419 . S
C1381 C1382 1.363 . S
C1381 H1384 0.929 . S
C1382 C1381 1.363 . S
C1382 C1388 1.428 1_554 S
H1383 C1379 0.930 . S
H1384 C1381 0.929 . S
S1385 N1386 1.613 . S
S1385 N1387 1.610 . S
N1386 S1385 1.613 . S
N1386 C1389 1.350 . S
N1387 S1385 1.610 . S
N1387 C1388 1.351 . S
C1388 C1382 1.428 1_556 S
C1388 N1387 1.351 . S
C1388 C1389 1.434 . S
C1389 C1380 1.429 1_556 S
C1389 N1386 1.350 . S
C1389 C1388 1.434 . S
C1390 C1391 1.369 . S
C1390 C1392 1.419 . S
C1390 H1394 0.930 . S
C1391 C1390 1.369 . S
C1391 C1400 1.429 . S
C1392 C1390 1.419 . S
C1392 C1393 1.363 . S
C1392 H1395 0.929 . S
C1393 C1392 1.363 . S
C1393 C1399 1.428 . S
H1394 C1390 0.930 . S
H1395 C1392 0.929 . S
S1396 N1397 1.613 . S
S1396 N1398 1.610 . S
N1397 S1396 1.613 . S
N1397 C1400 1.350 1_556 S
N1398 S1396 1.610 . S
N1398 C1399 1.351 1_556 S
C1399 C1393 1.428 . S
C1399 N1398 1.351 1_554 S
C1399 C1400 1.434 . S
C1400 C1391 1.429 . S
C1400 N1397 1.350 1_554 S
C1400 C1399 1.434 . S
C1401 C1402 1.369 . S
C1401 C1403 1.419 . S
C1401 H1405 0.930 . S
C1402 C1401 1.369 . S
C1402 C1411 1.429 . S
C1403 C1401 1.419 . S
C1403 C1404 1.363 . S
C1403 H1406 0.929 . S
C1404 C1403 1.363 . S
C1404 C1410 1.428 . S
H1405 C1401 0.930 . S
H1406 C1403 0.929 . S
S1407 N1408 1.613 . S
S1407 N1409 1.610 . S
N1408 S1407 1.613 . S
N1408 C1411 1.350 . S
N1409 S1407 1.610 . S
N1409 C1410 1.351 . S
C1410 C1404 1.428 . S
C1410 N1409 1.351 . S
C1410 C1411 1.434 . S
C1411 C1402 1.429 . S
C1411 N1408 1.350 . S
C1411 C1410 1.434 . S
C1412 C1413 1.369 . S
C1412 C1414 1.419 . S
C1412 H1416 0.930 . S
C1413 C1412 1.369 . S
C1413 C1422 1.429 . S
C1414 C1412 1.419 . S
C1414 C1415 1.363 . S
C1414 H1417 0.929 . S
C1415 C1414 1.363 . S
C1415 C1421 1.428 . S
H1416 C1412 0.930 . S
H1417 C1414 0.929 . S
S1418 N1419 1.613 . S
S1418 N1420 1.610 . S
N1419 S1418 1.613 . S
N1419 C1422 1.350 . S
N1420 S1418 1.610 . S
N1420 C1421 1.351 . S
C1421 C1415 1.428 . S
C1421 N1420 1.351 . S
C1421 C1422 1.434 . S
C1422 C1413 1.429 . S
C1422 N1419 1.350 . S
C1422 C1421 1.434 . S
C1423 C1424 1.369 . S
C1423 C1425 1.419 . S
C1423 H1427 0.930 . S
C1424 C1423 1.369 . S
C1424 C1433 1.429 . S
C1425 C1423 1.419 . S
C1425 C1426 1.363 . S
C1425 H1428 0.929 . S
C1426 C1425 1.363 . S
C1426 C1432 1.428 . S
H1427 C1423 0.930 . S
H1428 C1425 0.929 . S
S1429 N1430 1.613 . S
S1429 N1431 1.610 . S
N1430 S1429 1.613 . S
N1430 C1433 1.350 . S
N1431 S1429 1.610 . S
N1431 C1432 1.351 . S
C1432 C1426 1.428 . S
C1432 N1431 1.351 . S
C1432 C1433 1.434 . S
C1433 C1424 1.429 . S
C1433 N1430 1.350 . S
C1433 C1432 1.434 . S
C1434 C1435 1.369 . S
C1434 C1436 1.419 . S
C1434 H1438 0.930 . S
C1435 C1434 1.369 . S
C1435 C1444 1.429 . S
C1436 C1434 1.419 . S
C1436 C1437 1.363 . S
C1436 H1439 0.929 . S
C1437 C1436 1.363 . S
C1437 C1443 1.428 . S
H1438 C1434 0.930 . S
H1439 C1436 0.929 . S
S1440 N1441 1.613 . S
S1440 N1442 1.610 . S
N1441 S1440 1.613 . S
N1441 C1444 1.350 . S
N1442 S1440 1.610 . S
N1442 C1443 1.351 . S
C1443 C1437 1.428 . S
C1443 N1442 1.351 . S
C1443 C1444 1.434 . S
C1444 C1435 1.429 . S
C1444 N1441 1.350 . S
C1444 C1443 1.434 . S
C1445 C1446 1.369 . S
C1445 C1447 1.419 . S
C1445 H1449 0.930 . S
C1446 C1445 1.369 . S
C1446 C1455 1.429 . S
C1447 C1445 1.419 . S
C1447 C1448 1.363 . S
C1447 H1450 0.929 . S
C1448 C1447 1.363 . S
C1448 C1454 1.428 . S
H1449 C1445 0.930 . S
H1450 C1447 0.929 . S
S1451 N1452 1.613 . S
S1451 N1453 1.610 . S
N1452 S1451 1.613 . S
N1452 C1455 1.350 . S
N1453 S1451 1.610 . S
N1453 C1454 1.351 . S
C1454 C1448 1.428 . S
C1454 N1453 1.351 . S
C1454 C1455 1.434 . S
C1455 C1446 1.429 . S
C1455 N1452 1.350 . S
C1455 C1454 1.434 . S
C1456 C1457 1.369 . S
C1456 C1458 1.419 . S
C1456 H1460 0.930 . S
C1457 C1456 1.369 . S
C1457 C1466 1.429 . S
C1458 C1456 1.419 . S
C1458 C1459 1.363 . S
C1458 H1461 0.929 . S
C1459 C1458 1.363 . S
C1459 C1465 1.428 . S
H1460 C1456 0.930 . S
H1461 C1458 0.929 . S
S1462 N1463 1.613 . S
S1462 N1464 1.610 . S
N1463 S1462 1.613 . S
N1463 C1466 1.350 . S
N1464 S1462 1.610 . S
N1464 C1465 1.351 . S
C1465 C1459 1.428 . S
C1465 N1464 1.351 . S
C1465 C1466 1.434 . S
C1466 C1457 1.429 . S
C1466 N1463 1.350 . S
C1466 C1465 1.434 . S
C1467 C1468 1.369 . S
C1467 C1469 1.419 . S
C1467 H1471 0.930 . S
C1468 C1467 1.369 . S
C1468 C1477 1.429 . S
C1469 C1467 1.419 . S
C1469 C1470 1.363 . S
C1469 H1472 0.929 . S
C1470 C1469 1.363 . S
C1470 C1476 1.428 . S
H1471 C1467 0.930 . S
H1472 C1469 0.929 . S
S1473 N1474 1.613 . S
S1473 N1475 1.610 . S
N1474 S1473 1.613 . S
N1474 C1477 1.350 . S
N1475 S1473 1.610 . S
N1475 C1476 1.351 . S
C1476 C1470 1.428 . S
C1476 N1475 1.351 . S
C1476 C1477 1.434 . S
C1477 C1468 1.429 . S
C1477 N1474 1.350 . S
C1477 C1476 1.434 . S
C1478 C1479 1.369 . S
C1478 C1480 1.419 . S
C1478 H1482 0.930 . S
C1479 C1478 1.369 . S
C1479 C1488 1.429 . S
C1480 C1478 1.419 . S
C1480 C1481 1.363 . S
C1480 H1483 0.929 . S
C1481 C1480 1.363 . S
C1481 C1487 1.428 . S
H1482 C1478 0.930 . S
H1483 C1480 0.929 . S
S1484 N1485 1.613 . S
S1484 N1486 1.610 . S
N1485 S1484 1.613 . S
N1485 C1488 1.350 . S
N1486 S1484 1.610 . S
N1486 C1487 1.351 . S
C1487 C1481 1.428 . S
C1487 N1486 1.351 . S
C1487 C1488 1.434 . S
C1488 C1479 1.429 . S
C1488 N1485 1.350 . S
C1488 C1487 1.434 . S
C1489 C1490 1.369 . S
C1489 C1491 1.419 . S
C1489 H1493 0.930 . S
C1490 C1489 1.369 . S
C1490 C1499 1.429 . S
C1491 C1489 1.419 . S
C1491 C1492 1.363 . S
C1491 H1494 0.929 . S
C1492 C1491 1.363 . S
C1492 C1498 1.428 . S
H1493 C1489 0.930 . S
H1494 C1491 0.929 . S
S1495 N1496 1.613 . S
S1495 N1497 1.610 . S
N1496 S1495 1.613 . S
N1496 C1499 1.350 . S
N1497 S1495 1.610 . S
N1497 C1498 1.351 . S
C1498 C1492 1.428 . S
C1498 N1497 1.351 . S
C1498 C1499 1.434 . S
C1499 C1490 1.429 . S
C1499 N1496 1.350 . S
C1499 C1498 1.434 . S
C1500 C1501 1.369 . S
C1500 C1502 1.419 . S
C1500 H1504 0.930 . S
C1501 C1500 1.369 . S
C1501 C1510 1.429 . S
C1502 C1500 1.419 . S
C1502 C1503 1.363 . S
C1502 H1505 0.929 . S
C1503 C1502 1.363 . S
C1503 C1509 1.428 . S
H1504 C1500 0.930 . S
H1505 C1502 0.929 . S
S1506 N1507 1.613 . S
S1506 N1508 1.610 . S
N1507 S1506 1.613 . S
N1507 C1510 1.350 . S
N1508 S1506 1.610 . S
N1508 C1509 1.351 . S
C1509 C1503 1.428 . S
C1509 N1508 1.351 . S
C1509 C1510 1.434 . S
C1510 C1501 1.429 . S
C1510 N1507 1.350 . S
C1510 C1509 1.434 . S
C1511 C1512 1.369 . S
C1511 C1513 1.419 . S
C1511 H1515 0.930 . S
C1512 C1511 1.369 . S
C1512 C1521 1.429 . S
C1513 C1511 1.419 . S
C1513 C1514 1.363 . S
C1513 H1516 0.929 . S
C1514 C1513 1.363 . S
C1514 C1520 1.428 . S
H1515 C1511 0.930 . S
H1516 C1513 0.929 . S
S1517 N1518 1.613 . S
S1517 N1519 1.610 . S
N1518 S1517 1.613 . S
N1518 C1521 1.350 . S
N1519 S1517 1.610 . S
N1519 C1520 1.351 . S
C1520 C1514 1.428 . S
C1520 N1519 1.351 . S
C1520 C1521 1.434 . S
C1521 C1512 1.429 . S
C1521 N1518 1.350 . S
C1521 C1520 1.434 . S
C1522 C1523 1.369 . S
C1522 C1524 1.419 . S
C1522 H1526 0.930 . S
C1523 C1522 1.369 . S
C1523 C1532 1.429 . S
C1524 C1522 1.419 . S
C1524 C1525 1.363 . S
C1524 H1527 0.929 . S
C1525 C1524 1.363 . S
C1525 C1531 1.428 . S
H1526 C1522 0.930 . S
H1527 C1524 0.929 . S
S1528 N1529 1.613 . S
S1528 N1530 1.610 . S
N1529 S1528 1.613 . S
N1529 C1532 1.350 . S
N1530 S1528 1.610 . S
N1530 C1531 1.351 . S
C1531 C1525 1.428 . S
C1531 N1530 1.351 . S
C1531 C1532 1.434 . S
C1532 C1523 1.429 . S
C1532 N1529 1.350 . S
C1532 C1531 1.434 . S
C1533 C1534 1.369 . S
C1533 C1535 1.419 . S
C1533 H1537 0.930 . S
C1534 C1533 1.369 . S
C1534 C1543 1.429 . S
C1535 C1533 1.419 . S
C1535 C1536 1.363 . S
C1535 H1538 0.929 . S
C1536 C1535 1.363 . S
C1536 C1542 1.428 . S
H1537 C1533 0.930 . S
H1538 C1535 0.929 . S
S1539 N1540 1.613 . S
S1539 N1541 1.610 . S
N1540 S1539 1.613 . S
N1540 C1543 1.350 . S
N1541 S1539 1.610 . S
N1541 C1542 1.351 . S
C1542 C1536 1.428 . S
C1542 N1541 1.351 . S
C1542 C1543 1.434 . S
C1543 C1534 1.429 . S
C1543 N1540 1.350 . S
C1543 C1542 1.434 . S
C1544 C1545 1.369 . S
C1544 C1546 1.419 . S
C1544 H1548 0.930 . S
C1545 C1544 1.369 . S
C1545 C1554 1.429 . S
C1546 C1544 1.419 . S
C1546 C1547 1.363 . S
C1546 H1549 0.929 . S
C1547 C1546 1.363 . S
C1547 C1553 1.428 . S
H1548 C1544 0.930 . S
H1549 C1546 0.929 . S
S1550 N1551 1.613 . S
S1550 N1552 1.610 . S
N1551 S1550 1.613 . S
N1551 C1554 1.350 . S
N1552 S1550 1.610 . S
N1552 C1553 1.351 . S
C1553 C1547 1.428 . S
C1553 N1552 1.351 . S
C1553 C1554 1.434 . S
C1554 C1545 1.429 . S
C1554 N1551 1.350 . S
C1554 C1553 1.434 . S
C1555 C1556 1.369 . S
C1555 C1557 1.419 . S
C1555 H1559 0.930 . S
C1556 C1555 1.369 . S
C1556 C1565 1.429 . S
C1557 C1555 1.419 . S
C1557 C1558 1.363 . S
C1557 H1560 0.929 . S
C1558 C1557 1.363 . S
C1558 C1564 1.428 . S
H1559 C1555 0.930 . S
H1560 C1557 0.929 . S
S1561 N1562 1.613 . S
S1561 N1563 1.610 . S
N1562 S1561 1.613 . S
N1562 C1565 1.350 . S
N1563 S1561 1.610 . S
N1563 C1564 1.351 . S
C1564 C1558 1.428 . S
C1564 N1563 1.351 . S
C1564 C1565 1.434 . S
C1565 C1556 1.429 . S
C1565 N1562 1.350 . S
C1565 C1564 1.434 . S
C1566 C1567 1.369 . S
C1566 C1568 1.419 . S
C1566 H1570 0.930 . S
C1567 C1566 1.369 . S
C1567 C1576 1.429 . S
C1568 C1566 1.419 . S
C1568 C1569 1.363 . S
C1568 H1571 0.929 . S
C1569 C1568 1.363 . S
C1569 C1575 1.428 . S
H1570 C1566 0.930 . S
H1571 C1568 0.929 . S
S1572 N1573 1.613 . S
S1572 N1574 1.610 . S
N1573 S1572 1.613 . S
N1573 C1576 1.350 . S
N1574 S1572 1.610 . S
N1574 C1575 1.351 . S
C1575 C1569 1.428 . S
C1575 N1574 1.351 . S
C1575 C1576 1.434 . S
C1576 C1567 1.429 . S
C1576 N1573 1.350 . S
C1576 C1575 1.434 . S
C1577 C1578 1.369 . S
C1577 C1579 1.419 . S
C1577 H1581 0.930 . S
C1578 C1577 1.369 . S
C1578 C1587 1.429 . S
C1579 C1577 1.419 . S
C1579 C1580 1.363 . S
C1579 H1582 0.929 . S
C1580 C1579 1.363 . S
C1580 C1586 1.428 . S
H1581 C1577 0.930 . S
H1582 C1579 0.929 . S
S1583 N1584 1.613 . S
S1583 N1585 1.610 . S
N1584 S1583 1.613 . S
N1584 C1587 1.350 . S
N1585 S1583 1.610 . S
N1585 C1586 1.351 . S
C1586 C1580 1.428 . S
C1586 N1585 1.351 . S
C1586 C1587 1.434 . S
C1587 C1578 1.429 . S
C1587 N1584 1.350 . S
C1587 C1586 1.434 . S
C1588 C1589 1.369 . S
C1588 C1590 1.419 . S
C1588 H1592 0.930 . S
C1589 C1588 1.369 . S
C1589 C1598 1.429 . S
C1590 C1588 1.419 . S
C1590 C1591 1.363 . S
C1590 H1593 0.929 . S
C1591 C1590 1.363 . S
C1591 C1597 1.428 . S
H1592 C1588 0.930 . S
H1593 C1590 0.929 . S
S1594 N1595 1.613 . S
S1594 N1596 1.610 . S
N1595 S1594 1.613 . S
N1595 C1598 1.350 . S
N1596 S1594 1.610 . S
N1596 C1597 1.351 . S
C1597 C1591 1.428 . S
C1597 N1596 1.351 . S
C1597 C1598 1.434 . S
C1598 C1589 1.429 . S
C1598 N1595 1.350 . S
C1598 C1597 1.434 . S
C1599 C1600 1.369 1_655 S
C1599 C1601 1.419 . S
C1599 H1603 0.930 . S
C1600 C1599 1.369 1_455 S
C1600 C1609 1.429 1_455 S
C1601 C1599 1.419 . S
C1601 C1602 1.363 . S
C1601 H1604 0.929 . S
C1602 C1601 1.363 . S
C1602 C1608 1.428 . S
H1603 C1599 0.930 . S
H1604 C1601 0.929 . S
S1605 N1606 1.613 1_655 S
S1605 N1607 1.610 . S
N1606 S1605 1.613 1_455 S
N1606 C1609 1.350 1_455 S
N1607 S1605 1.610 . S
N1607 C1608 1.351 . S
C1608 C1602 1.428 . S
C1608 N1607 1.351 . S
C1608 C1609 1.434 . S
C1609 C1600 1.429 1_655 S
C1609 N1606 1.350 1_655 S
C1609 C1608 1.434 . S
C1610 C1611 1.369 . S
C1610 C1612 1.419 . S
C1610 H1614 0.930 . S
C1611 C1610 1.369 . S
C1611 C1620 1.429 . S
C1612 C1610 1.419 . S
C1612 C1613 1.363 . S
C1612 H1615 0.929 . S
C1613 C1612 1.363 . S
C1613 C1619 1.428 . S
H1614 C1610 0.930 . S
H1615 C1612 0.929 . S
S1616 N1617 1.613 . S
S1616 N1618 1.610 . S
N1617 S1616 1.613 . S
N1617 C1620 1.350 . S
N1618 S1616 1.610 . S
N1618 C1619 1.351 . S
C1619 C1613 1.428 . S
C1619 N1618 1.351 . S
C1619 C1620 1.434 . S
C1620 C1611 1.429 . S
C1620 N1617 1.350 . S
C1620 C1619 1.434 . S
C1621 C1622 1.369 . S
C1621 C1623 1.419 . S
C1621 H1625 0.930 . S
C1622 C1621 1.369 . S
C1622 C1631 1.429 . S
C1623 C1621 1.419 . S
C1623 C1624 1.363 . S
C1623 H1626 0.929 . S
C1624 C1623 1.363 . S
C1624 C1630 1.428 . S
H1625 C1621 0.930 . S
H1626 C1623 0.929 . S
S1627 N1628 1.613 . S
S1627 N1629 1.610 . S
N1628 S1627 1.613 . S
N1628 C1631 1.350 . S
N1629 S1627 1.610 . S
N1629 C1630 1.351 . S
C1630 C1624 1.428 . S
C1630 N1629 1.351 . S
C1630 C1631 1.434 . S
C1631 C1622 1.429 . S
C1631 N1628 1.350 . S
C1631 C1630 1.434 . S
C1632 C1633 1.369 . S
C1632 C1634 1.419 . S
C1632 H1636 0.930 . S
C1633 C1632 1.369 . S
C1633 C1642 1.429 . S
C1634 C1632 1.419 . S
C1634 C1635 1.363 . S
C1634 H1637 0.929 . S
C1635 C1634 1.363 . S
C1635 C1641 1.428 . S
H1636 C1632 0.930 . S
H1637 C1634 0.929 . S
S1638 N1639 1.613 . S
S1638 N1640 1.610 . S
N1639 S1638 1.613 . S
N1639 C1642 1.350 . S
N1640 S1638 1.610 . S
N1640 C1641 1.351 . S
C1641 C1635 1.428 . S
C1641 N1640 1.351 . S
C1641 C1642 1.434 . S
C1642 C1633 1.429 . S
C1642 N1639 1.350 . S
C1642 C1641 1.434 . S
C1643 C1644 1.369 . S
C1643 C1645 1.419 . S
C1643 H1647 0.930 . S
C1644 C1643 1.369 . S
C1644 C1653 1.429 . S
C1645 C1643 1.419 . S
C1645 C1646 1.363 . S
C1645 H1648 0.929 . S
C1646 C1645 1.363 . S
C1646 C1652 1.428 . S
H1647 C1643 0.930 . S
H1648 C1645 0.929 . S
S1649 N1650 1.613 . S
S1649 N1651 1.610 . S
N1650 S1649 1.613 . S
N1650 C1653 1.350 . S
N1651 S1649 1.610 . S
N1651 C1652 1.351 . S
C1652 C1646 1.428 . S
C1652 N1651 1.351 . S
C1652 C1653 1.434 . S
C1653 C1644 1.429 . S
C1653 N1650 1.350 . S
C1653 C1652 1.434 . S
C1654 C1655 1.369 . S
C1654 C1656 1.419 . S
C1654 H1658 0.930 . S
C1655 C1654 1.369 . S
C1655 C1664 1.429 . S
C1656 C1654 1.419 . S
C1656 C1657 1.363 . S
C1656 H1659 0.929 . S
C1657 C1656 1.363 . S
C1657 C1663 1.428 . S
H1658 C1654 0.930 . S
H1659 C1656 0.929 . S
S1660 N1661 1.613 . S
S1660 N1662 1.610 . S
N1661 S1660 1.613 . S
N1661 C1664 1.350 . S
N1662 S1660 1.610 . S
N1662 C1663 1.351 . S
C1663 C1657 1.428 . S
C1663 N1662 1.351 . S
C1663 C1664 1.434 . S
C1664 C1655 1.429 . S
C1664 N1661 1.350 . S
C1664 C1663 1.434 . S
C1665 C1666 1.369 . S
C1665 C1667 1.419 . S
C1665 H1669 0.930 . S
C1666 C1665 1.369 . S
C1666 C1675 1.429 1_565 S
C1667 C1665 1.419 . S
C1667 C1668 1.364 . S
C1667 H1670 0.929 . S
C1668 C1667 1.364 . S
C1668 C1674 1.429 1_565 S
H1669 C1665 0.930 . S
H1670 C1667 0.929 . S
S1671 N1672 1.613 . S
S1671 N1673 1.610 . S
N1672 S1671 1.613 . S
N1672 C1675 1.350 . S
N1673 S1671 1.610 . S
N1673 C1674 1.351 . S
C1674 C1668 1.429 1_545 S
C1674 N1673 1.351 . S
C1674 C1675 1.434 . S
C1675 C1666 1.429 1_545 S
C1675 N1672 1.350 . S
C1675 C1674 1.434 . S
C1676 C1677 1.369 1_655 S
C1676 C1678 1.419 . S
C1676 H1680 0.930 . S
C1677 C1676 1.369 1_455 S
C1677 C1686 1.429 . S
C1678 C1676 1.419 . S
C1678 C1679 1.363 1_655 S
C1678 H1681 0.929 . S
C1679 C1678 1.363 1_455 S
C1679 C1685 1.428 . S
H1680 C1676 0.930 . S
H1681 C1678 0.929 . S
S1682 N1683 1.613 . S
S1682 N1684 1.610 . S
N1683 S1682 1.613 . S
N1683 C1686 1.350 . S
N1684 S1682 1.610 . S
N1684 C1685 1.351 . S
C1685 C1679 1.428 . S
C1685 N1684 1.351 . S
C1685 C1686 1.434 . S
C1686 C1677 1.429 . S
C1686 N1683 1.350 . S
C1686 C1685 1.434 . S
C1687 C1688 1.369 . S
C1687 C1689 1.419 . S
C1687 H1691 0.930 . S
C1688 C1687 1.369 . S
C1688 C1697 1.429 . S
C1689 C1687 1.419 . S
C1689 C1690 1.363 . S
C1689 H1692 0.929 . S
C1690 C1689 1.363 . S
C1690 C1696 1.428 . S
H1691 C1687 0.930 . S
H1692 C1689 0.929 . S
S1693 N1694 1.613 . S
S1693 N1695 1.610 . S
N1694 S1693 1.613 . S
N1694 C1697 1.350 . S
N1695 S1693 1.610 . S
N1695 C1696 1.351 . S
C1696 C1690 1.428 . S
C1696 N1695 1.351 . S
C1696 C1697 1.434 . S
C1697 C1688 1.429 . S
C1697 N1694 1.350 . S
C1697 C1696 1.434 . S
C1698 C1699 1.369 1_455 S
C1698 C1700 1.419 . S
C1698 H1702 0.930 . S
C1699 C1698 1.369 1_655 S
C1699 C1708 1.429 . S
C1700 C1698 1.419 . S
C1700 C1701 1.363 1_455 S
C1700 H1703 0.929 . S
C1701 C1700 1.363 1_655 S
C1701 C1707 1.428 . S
H1702 C1698 0.930 . S
H1703 C1700 0.929 . S
S1704 N1705 1.613 . S
S1704 N1706 1.610 . S
N1705 S1704 1.613 . S
N1705 C1708 1.350 . S
N1706 S1704 1.610 . S
N1706 C1707 1.351 . S
C1707 C1701 1.428 . S
C1707 N1706 1.351 . S
C1707 C1708 1.434 . S
C1708 C1699 1.429 . S
C1708 N1705 1.350 . S
C1708 C1707 1.434 . S
C1709 C1710 1.369 . S
C1709 C1711 1.419 . S
C1709 H1713 0.930 . S
C1710 C1709 1.369 . S
C1710 C1719 1.429 . S
C1711 C1709 1.419 . S
C1711 C1712 1.363 . S
C1711 H1714 0.929 . S
C1712 C1711 1.363 . S
C1712 C1718 1.428 . S
H1713 C1709 0.930 . S
H1714 C1711 0.929 . S
S1715 N1716 1.613 . S
S1715 N1717 1.610 . S
N1716 S1715 1.613 . S
N1716 C1719 1.350 . S
N1717 S1715 1.610 . S
N1717 C1718 1.351 . S
C1718 C1712 1.428 . S
C1718 N1717 1.351 . S
C1718 C1719 1.434 . S
C1719 C1710 1.429 . S
C1719 N1716 1.350 . S
C1719 C1718 1.434 . S
C1720 C1721 1.369 . S
C1720 C1722 1.419 . S
C1720 H1724 0.930 . S
C1721 C1720 1.369 . S
C1721 C1730 1.429 1_545 S
C1722 C1720 1.419 . S
C1722 C1723 1.363 . S
C1722 H1725 0.929 . S
C1723 C1722 1.363 . S
C1723 C1729 1.428 1_545 S
H1724 C1720 0.930 . S
H1725 C1722 0.929 . S
S1726 N1727 1.613 . S
S1726 N1728 1.610 . S
N1727 S1726 1.613 . S
N1727 C1730 1.350 . S
N1728 S1726 1.610 . S
N1728 C1729 1.351 . S
C1729 C1723 1.428 1_565 S
C1729 N1728 1.351 . S
C1729 C1730 1.434 . S
C1730 C1721 1.429 1_565 S
C1730 N1727 1.350 . S
C1730 C1729 1.434 . S
C1731 C1732 1.369 . S
C1731 C1733 1.419 . S
C1731 H1735 0.930 . S
C1732 C1731 1.369 . S
C1732 C1741 1.429 . S
C1733 C1731 1.419 . S
C1733 C1734 1.363 . S
C1733 H1736 0.929 . S
C1734 C1733 1.363 . S
C1734 C1740 1.428 . S
H1735 C1731 0.930 . S
H1736 C1733 0.929 . S
S1737 N1738 1.613 . S
S1737 N1739 1.610 . S
N1738 S1737 1.613 . S
N1738 C1741 1.350 . S
N1739 S1737 1.610 . S
N1739 C1740 1.351 . S
C1740 C1734 1.428 . S
C1740 N1739 1.351 . S
C1740 C1741 1.434 . S
C1741 C1732 1.429 . S
C1741 N1738 1.350 . S
C1741 C1740 1.434 . S
C1742 C1743 1.369 . S
C1742 C1744 1.419 . S
C1742 H1746 0.930 . S
C1743 C1742 1.369 . S
C1743 C1752 1.429 . S
C1744 C1742 1.419 . S
C1744 C1745 1.363 . S
C1744 H1747 0.929 . S
C1745 C1744 1.363 . S
C1745 C1751 1.428 . S
H1746 C1742 0.930 . S
H1747 C1744 0.929 . S
S1748 N1749 1.613 . S
S1748 N1750 1.610 . S
N1749 S1748 1.613 . S
N1749 C1752 1.350 . S
N1750 S1748 1.610 . S
N1750 C1751 1.351 . S
C1751 C1745 1.428 . S
C1751 N1750 1.351 . S
C1751 C1752 1.434 . S
C1752 C1743 1.429 . S
C1752 N1749 1.350 . S
C1752 C1751 1.434 . S
C1753 C1754 1.369 . S
C1753 C1755 1.419 . S
C1753 H1757 0.930 . S
C1754 C1753 1.369 . S
C1754 C1763 1.429 . S
C1755 C1753 1.419 . S
C1755 C1756 1.363 . S
C1755 H1758 0.929 . S
C1756 C1755 1.363 . S
C1756 C1762 1.428 . S
H1757 C1753 0.930 . S
H1758 C1755 0.929 . S
S1759 N1760 1.613 . S
S1759 N1761 1.610 . S
N1760 S1759 1.613 . S
N1760 C1763 1.350 . S
N1761 S1759 1.610 . S
N1761 C1762 1.351 . S
C1762 C1756 1.428 . S
C1762 N1761 1.351 . S
C1762 C1763 1.434 . S
C1763 C1754 1.429 . S
C1763 N1760 1.350 . S
C1763 C1762 1.434 . S
C1764 C1765 1.369 . S
C1764 C1766 1.419 . S
C1764 H1768 0.930 . S
C1765 C1764 1.369 . S
C1765 C1774 1.429 . S
C1766 C1764 1.419 . S
C1766 C1767 1.363 . S
C1766 H1769 0.929 . S
C1767 C1766 1.363 . S
C1767 C1773 1.428 . S
H1768 C1764 0.930 . S
H1769 C1766 0.929 . S
S1770 N1771 1.613 . S
S1770 N1772 1.610 . S
N1771 S1770 1.613 . S
N1771 C1774 1.350 . S
N1772 S1770 1.610 . S
N1772 C1773 1.351 . S
C1773 C1767 1.428 . S
C1773 N1772 1.351 . S
C1773 C1774 1.434 . S
C1774 C1765 1.429 . S
C1774 N1771 1.350 . S
C1774 C1773 1.434 . S
C1775 C1776 1.369 . S
C1775 C1777 1.419 . S
C1775 H1779 0.930 . S
C1776 C1775 1.369 . S
C1776 C1785 1.429 . S
C1777 C1775 1.419 . S
C1777 C1778 1.363 . S
C1777 H1780 0.929 . S
C1778 C1777 1.363 . S
C1778 C1784 1.428 . S
H1779 C1775 0.930 . S
H1780 C1777 0.929 . S
S1781 N1782 1.613 . S
S1781 N1783 1.610 . S
N1782 S1781 1.613 . S
N1782 C1785 1.350 . S
N1783 S1781 1.610 . S
N1783 C1784 1.351 . S
C1784 C1778 1.428 . S
C1784 N1783 1.351 . S
C1784 C1785 1.434 . S
C1785 C1776 1.429 . S
C1785 N1782 1.350 . S
C1785 C1784 1.434 . S
C1786 C1787 1.369 . S
C1786 C1788 1.419 . S
C1786 H1790 0.930 . S
C1787 C1786 1.369 . S
C1787 C1796 1.429 . S
C1788 C1786 1.419 . S
C1788 C1789 1.363 . S
C1788 H1791 0.929 . S
C1789 C1788 1.363 . S
C1789 C1795 1.428 . S
H1790 C1786 0.930 . S
H1791 C1788 0.929 . S
S1792 N1793 1.613 . S
S1792 N1794 1.610 . S
N1793 S1792 1.613 . S
N1793 C1796 1.350 . S
N1794 S1792 1.610 . S
N1794 C1795 1.351 . S
C1795 C1789 1.428 . S
C1795 N1794 1.351 . S
C1795 C1796 1.434 . S
C1796 C1787 1.429 . S
C1796 N1793 1.350 . S
C1796 C1795 1.434 . S
C1797 C1798 1.369 . S
C1797 C1799 1.419 . S
C1797 H1801 0.930 . S
C1798 C1797 1.369 . S
C1798 C1807 1.429 . S
C1799 C1797 1.419 . S
C1799 C1800 1.363 . S
C1799 H1802 0.929 . S
C1800 C1799 1.363 . S
C1800 C1806 1.428 . S
H1801 C1797 0.930 . S
H1802 C1799 0.929 . S
S1803 N1804 1.613 . S
S1803 N1805 1.610 . S
N1804 S1803 1.613 . S
N1804 C1807 1.350 . S
N1805 S1803 1.610 . S
N1805 C1806 1.351 . S
C1806 C1800 1.428 . S
C1806 N1805 1.351 . S
C1806 C1807 1.434 . S
C1807 C1798 1.429 . S
C1807 N1804 1.350 . S
C1807 C1806 1.434 . S
C1808 C1809 1.369 . S
C1808 C1810 1.419 . S
C1808 H1812 0.930 . S
C1809 C1808 1.369 . S
C1809 C1818 1.429 . S
C1810 C1808 1.419 . S
C1810 C1811 1.363 . S
C1810 H1813 0.929 . S
C1811 C1810 1.363 . S
C1811 C1817 1.428 . S
H1812 C1808 0.930 . S
H1813 C1810 0.929 . S
S1814 N1815 1.613 . S
S1814 N1816 1.610 . S
N1815 S1814 1.613 . S
N1815 C1818 1.350 . S
N1816 S1814 1.610 . S
N1816 C1817 1.351 . S
C1817 C1811 1.428 . S
C1817 N1816 1.351 . S
C1817 C1818 1.434 . S
C1818 C1809 1.429 . S
C1818 N1815 1.350 . S
C1818 C1817 1.434 . S
C1819 C1820 1.369 . S
C1819 C1821 1.419 . S
C1819 H1823 0.930 . S
C1820 C1819 1.369 . S
C1820 C1829 1.429 . S
C1821 C1819 1.419 . S
C1821 C1822 1.363 . S
C1821 H1824 0.929 . S
C1822 C1821 1.363 . S
C1822 C1828 1.428 . S
H1823 C1819 0.930 . S
H1824 C1821 0.929 . S
S1825 N1826 1.613 . S
S1825 N1827 1.610 . S
N1826 S1825 1.613 . S
N1826 C1829 1.350 . S
N1827 S1825 1.610 . S
N1827 C1828 1.351 . S
C1828 C1822 1.428 . S
C1828 N1827 1.351 . S
C1828 C1829 1.434 . S
C1829 C1820 1.429 . S
C1829 N1826 1.350 . S
C1829 C1828 1.434 . S
C1830 C1831 1.369 . S
C1830 C1832 1.419 . S
C1830 H1834 0.930 . S
C1831 C1830 1.369 . S
C1831 C1840 1.429 . S
C1832 C1830 1.419 . S
C1832 C1833 1.363 . S
C1832 H1835 0.929 . S
C1833 C1832 1.363 . S
C1833 C1839 1.428 . S
H1834 C1830 0.930 . S
H1835 C1832 0.929 . S
S1836 N1837 1.613 . S
S1836 N1838 1.610 . S
N1837 S1836 1.613 . S
N1837 C1840 1.350 . S
N1838 S1836 1.610 . S
N1838 C1839 1.351 . S
C1839 C1833 1.428 . S
C1839 N1838 1.351 . S
C1839 C1840 1.434 . S
C1840 C1831 1.429 . S
C1840 N1837 1.350 . S
C1840 C1839 1.434 . S
C1841 C1842 1.369 . S
C1841 C1843 1.419 . S
C1841 H1845 0.930 . S
C1842 C1841 1.369 . S
C1842 C1851 1.429 . S
C1843 C1841 1.419 . S
C1843 C1844 1.363 . S
C1843 H1846 0.929 . S
C1844 C1843 1.363 . S
C1844 C1850 1.428 . S
H1845 C1841 0.930 . S
H1846 C1843 0.929 . S
S1847 N1848 1.613 . S
S1847 N1849 1.610 . S
N1848 S1847 1.613 . S
N1848 C1851 1.350 . S
N1849 S1847 1.610 . S
N1849 C1850 1.351 . S
C1850 C1844 1.428 . S
C1850 N1849 1.351 . S
C1850 C1851 1.434 . S
C1851 C1842 1.429 . S
C1851 N1848 1.350 . S
C1851 C1850 1.434 . S
C1852 C1853 1.369 . S
C1852 C1854 1.419 . S
C1852 H1856 0.930 . S
C1853 C1852 1.369 . S
C1853 C1862 1.429 . S
C1854 C1852 1.419 . S
C1854 C1855 1.363 . S
C1854 H1857 0.929 . S
C1855 C1854 1.363 . S
C1855 C1861 1.428 . S
H1856 C1852 0.930 . S
H1857 C1854 0.929 . S
S1858 N1859 1.613 . S
S1858 N1860 1.610 . S
N1859 S1858 1.613 . S
N1859 C1862 1.350 . S
N1860 S1858 1.610 . S
N1860 C1861 1.351 . S
C1861 C1855 1.428 . S
C1861 N1860 1.351 . S
C1861 C1862 1.434 . S
C1862 C1853 1.429 . S
C1862 N1859 1.350 . S
C1862 C1861 1.434 . S
C1270 C781 1.488 . S
C1272 C1097 1.423 . S
C1281 C871 1.477 . S
C1283 C1118 1.420 . S
C1292 C751 1.442 . S
C1294 C1140 1.178 . S
C1303 C691 1.441 . S
C1305 C1119 1.199 . S
C1316 C1139 1.424 . S
C1314 C571 1.498 . S
C1325 C601 1.450 . S
C1327 C1098 1.182 1_556 S
C1338 C1093 1.404 . S
C1336 C661 1.407 . S
C1349 C1114 1.391 . S
C1347 C541 1.380 . S
C1358 C631 1.567 . S
C1360 C1137 1.233 1_556 S
C1369 C811 1.514 . S
C1371 C1116 1.204 . S
C1380 C841 1.371 . S
C1382 C1135 1.361 . S
C1393 C1095 1.225 . S
C1391 C721 1.436 . S
C1404 C1160 1.424 . S
C1402 C61 1.488 1_455 S
C1413 C151 1.486 . S
C1415 C1181 1.412 . S
C1424 C31 1.436 1_565 S
C1426 C1203 1.193 . S
C1435 C1051 1.443 . S
C1437 C1182 1.196 . S
C1446 C931 1.500 . S
C1448 C1202 1.421 . S
C1457 C961 1.454 . S
C1459 C1161 1.193 . S
C1468 C1021 1.410 . S
C1470 C1156 1.404 . S
C1479 C901 1.383 . S
C1481 C1177 1.392 . S
C1492 C1200 1.224 . S
C1490 C991 1.572 . S
C1501 C91 1.514 1_565 S
C1503 C1179 1.207 . S
C1514 C1198 1.361 . S
C1512 C121 1.358 1_455 S
C1523 C1 1.436 . S
C1525 C1158 1.223 . S
C1536 C1223 1.424 . S
C1534 C421 1.493 . S
C1545 C511 1.480 . S
C1547 C1244 1.419 . S
C1558 C1266 1.178 . S
C1556 C391 1.443 . S
C1569 C1245 1.188 . S
C1567 C331 1.450 1_545 S
C1580 C1265 1.425 . S
C1578 C211 1.495 1_655 S
C1589 C241 1.450 . S
C1591 C1224 1.196 . S
C1600 C301 1.414 . S
C1602 C1219 1.403 . S
C1611 C181 1.380 . S
C1613 C1240 1.402 . S
C1624 C1263 1.229 . S
C1622 C271 1.570 1_545 S
C1633 C451 1.516 . S
C1635 C1242 1.197 . S
C1644 C481 1.371 . S
C1646 C1261 1.364 . S
C1655 C361 1.429 . S
C1657 C1221 1.230 . S
C1666 C920 1.407 . S
C1668 C1096 1.399 1_565 S
C1679 C1117 1.442 . S
C1677 C980 1.468 . S
C1688 C1040 1.474 . S
C1690 C1136 1.489 . S
C1699 C380 1.511 . S
C1701 C1115 1.531 1_655 S
C1710 C440 1.470 . S
C1712 C1138 1.444 . S
C1723 C1094 1.494 1_545 S
C1721 C500 1.479 . S
C1732 C200 1.398 . S
C1734 C1159 1.399 . S
C1743 C260 1.466 . S
C1745 C1180 1.445 . S
C1754 C320 1.469 . S
C1756 C1199 1.495 . S
C1765 C740 1.518 . S
C1767 C1178 1.527 . S
C1778 C1201 1.444 . S
C1776 C800 1.470 . S
C1787 C860 1.474 . S
C1789 C1157 1.496 . S
C1798 C560 1.406 . S
C1800 C1222 1.404 . S
C1809 C620 1.466 . S
C1811 C1243 1.444 . S
C1822 C1262 1.488 . S
C1820 C680 1.476 . S
C1831 C20 1.520 . S
C1833 C1241 1.526 . S
C1842 C80 1.471 . S
C1844 C1264 1.443 . S
C1853 C140 1.476 . S
C1855 C1220 1.497 . S
