# Generated by pormake.
# Topology pyr, (3,6)-cn, num edge types: 1
# Building blocks:
#     Node 0, Type 0, BuildingBlock: ESEHIV_clean_linker_0, # of connection points: 3
#     Node 1, Type 0, BuildingBlock: ESEHIV_clean_linker_0, # of connection points: 3
#     Node 2, Type 0, BuildingBlock: ESEHIV_clean_linker_0, # of connection points: 3
#     Node 3, Type 0, BuildingBlock: ESEHIV_clean_linker_0, # of connection points: 3
#     Node 4, Type 0, BuildingBlock: ESEHIV_clean_linker_0, # of connection points: 3
#     Node 5, Type 0, BuildingBlock: ESEHIV_clean_linker_0, # of connection points: 3
#     Node 6, Type 0, BuildingBlock: ESEHIV_clean_linker_0, # of connection points: 3
#     Node 7, Type 0, BuildingBlock: ESEHIV_clean_linker_0, # of connection points: 3
#     Node 8, Type 1, BuildingBlock: PAMTOO_clean_sbu_0, # of connection points: 6
#     Node 9, Type 1, BuildingBlock: PAMTOO_clean_sbu_0, # of connection points: 6
#     Node 10, Type 1, BuildingBlock: PAMTOO_clean_sbu_0, # of connection points: 6
#     Node 11, Type 1, BuildingBlock: PAMTOO_clean_sbu_0, # of connection points: 6
#     Edge 12, Type (0, 1), BuildingBlock: EZIPEK_clean_linker_0, # of connection points: 2
#     Edge 13, Type (0, 1), BuildingBlock: EZIPEK_clean_linker_0, # of connection points: 2
#     Edge 14, Type (0, 1), BuildingBlock: EZIPEK_clean_linker_0, # of connection points: 2
#     Edge 15, Type (0, 1), BuildingBlock: EZIPEK_clean_linker_0, # of connection points: 2
#     Edge 16, Type (0, 1), BuildingBlock: EZIPEK_clean_linker_0, # of connection points: 2
#     Edge 17, Type (0, 1), BuildingBlock: EZIPEK_clean_linker_0, # of connection points: 2
#     Edge 18, Type (0, 1), BuildingBlock: EZIPEK_clean_linker_0, # of connection points: 2
#     Edge 19, Type (0, 1), BuildingBlock: EZIPEK_clean_linker_0, # of connection points: 2
#     Edge 20, Type (0, 1), BuildingBlock: EZIPEK_clean_linker_0, # of connection points: 2
#     Edge 21, Type (0, 1), BuildingBlock: EZIPEK_clean_linker_0, # of connection points: 2
#     Edge 22, Type (0, 1), BuildingBlock: EZIPEK_clean_linker_0, # of connection points: 2
#     Edge 23, Type (0, 1), BuildingBlock: EZIPEK_clean_linker_0, # of connection points: 2
#     Edge 24, Type (0, 1), BuildingBlock: EZIPEK_clean_linker_0, # of connection points: 2
#     Edge 25, Type (0, 1), BuildingBlock: EZIPEK_clean_linker_0, # of connection points: 2
#     Edge 26, Type (0, 1), BuildingBlock: EZIPEK_clean_linker_0, # of connection points: 2
#     Edge 27, Type (0, 1), BuildingBlock: EZIPEK_clean_linker_0, # of connection points: 2
#     Edge 28, Type (0, 1), BuildingBlock: EZIPEK_clean_linker_0, # of connection points: 2
#     Edge 29, Type (0, 1), BuildingBlock: EZIPEK_clean_linker_0, # of connection points: 2
#     Edge 30, Type (0, 1), BuildingBlock: EZIPEK_clean_linker_0, # of connection points: 2
#     Edge 31, Type (0, 1), BuildingBlock: EZIPEK_clean_linker_0, # of connection points: 2
#     Edge 32, Type (0, 1), BuildingBlock: EZIPEK_clean_linker_0, # of connection points: 2
#     Edge 33, Type (0, 1), BuildingBlock: EZIPEK_clean_linker_0, # of connection points: 2
#     Edge 34, Type (0, 1), BuildingBlock: EZIPEK_clean_linker_0, # of connection points: 2
#     Edge 35, Type (0, 1), BuildingBlock: EZIPEK_clean_linker_0, # of connection points: 2
# Relax obj value: 0.214
# Max RMSD: 0.198
# Mean RMSD: 0.084
data_MOF--net-pyr--node1-PAMTOO_clean_sbu_0--node2-ESEHIV_clean_linker_0--edge1-EZIPEK_clean_linker_0
_symmetry_space_group_name_H-M    P1
_symmetry_Int_Tables_number       1
_symmetry_cell_setting            triclinic
loop_
_symmetry_equiv_pos_as_xyz
'x, y, z'
_cell_length_a     24.812431
_cell_length_b     26.291753
_cell_length_c     26.173779
_cell_angle_alpha  90.48091
_cell_angle_beta   90.216388
_cell_angle_gamma 105.89934
loop_
_atom_site_label
_atom_site_type_symbol
_atom_site_fract_x
_atom_site_fract_y
_atom_site_fract_z
_atom_type_partial_charge
H0 H 0.35252 0.33282 0.31854 0.0
H1 H 0.5067 0.29127 0.31262 0.0
H2 H 0.45415 0.37229 0.18624 0.0
C3 C 0.39184 0.33537 0.2993 0.0
C4 C 0.40046 0.35626 0.2504 0.0
C5 C 0.43125 0.31365 0.3219 0.0
C6 C 0.47997 0.31291 0.2955 0.0
C7 C 0.4875 0.32969 0.24425 0.0
C8 C 0.44958 0.35615 0.22404 0.0
H9 H 0.07869 0.8639 0.81848 0.0
H10 H 0.20911 0.78812 0.84157 0.0
H11 H 0.1417 0.79347 0.69115 0.0
C12 C 0.10284 0.83826 0.80394 0.0
C13 C 0.10367 0.82857 0.75122 0.0
C14 C 0.1421 0.82521 0.83613 0.0
C15 C 0.17685 0.79572 0.81707 0.0
C16 C 0.17687 0.78399 0.76482 0.0
C17 C 0.13873 0.79875 0.73207 0.0
H18 H 0.70492 0.35178 0.96368 0.0
H19 H 0.72698 0.47588 0.85328 0.0
H20 H 0.58203 0.33984 0.84411 0.0
C21 C 0.69032 0.36782 0.92992 0.0
C22 C 0.64029 0.33912 0.90603 0.0
C23 C 0.72179 0.41693 0.91158 0.0
C24 C 0.70276 0.438 0.86761 0.0
C25 C 0.65215 0.41079 0.84256 0.0
C26 C 0.62108 0.36105 0.86231 0.0
H27 H 0.84853 0.75291 0.46403 0.0
H28 H 0.96654 0.7615 0.34188 0.0
H29 H 0.8302 0.62017 0.36177 0.0
C30 C 0.86327 0.73482 0.43149 0.0
C31 C 0.8339 0.68331 0.41632 0.0
C32 C 0.91106 0.76353 0.40522 0.0
C33 C 0.92982 0.73963 0.36248 0.0
C34 C 0.90099 0.68748 0.34631 0.0
C35 C 0.853 0.65979 0.37378 0.0
H36 H 0.58262 0.85162 0.85389 0.0
H37 H 0.71646 0.78413 0.87955 0.0
H38 H 0.61925 0.80893 1.00684 0.0
C39 C 0.60211 0.83126 0.8805 0.0
C40 C 0.58731 0.82634 0.93271 0.0
C41 C 0.648 0.81599 0.86182 0.0
C42 C 0.67953 0.79374 0.8942 0.0
C43 C 0.66896 0.79119 0.94645 0.0
C44 C 0.62337 0.80756 0.96579 0.0
H45 H 0.84973 0.32883 0.29281 0.0
H46 H 1.00761 0.29407 0.31877 0.0
H47 H 0.8951 0.29334 0.44349 0.0
C48 C 0.8808 0.32072 0.31836 0.0
C49 C 0.87028 0.31834 0.37095 0.0
C50 C 0.92974 0.31074 0.29853 0.0
C51 C 0.96908 0.30071 0.33296 0.0
C52 C 0.95434 0.28974 0.38423 0.0
C53 C 0.90636 0.30122 0.40377 0.0
H54 H 0.35579 0.76663 0.20402 0.0
H55 H 0.32973 0.63259 0.30347 0.0
H56 H 0.47388 0.76768 0.32524 0.0
C57 C 0.3694 0.74712 0.23597 0.0
C58 C 0.4183 0.77363 0.26301 0.0
C59 C 0.33736 0.69616 0.24966 0.0
C60 C 0.35481 0.6714 0.29224 0.0
C61 C 0.4045 0.6963 0.32024 0.0
C62 C 0.43601 0.74762 0.30459 0.0
H63 H 0.07892 0.35348 0.8109 0.0
H64 H 0.19607 0.35552 0.68949 0.0
H65 H 0.22677 0.48559 0.79656 0.0
C66 C 0.11711 0.37323 0.79117 0.0
C67 C 0.15033 0.42321 0.80941 0.0
C68 C 0.13372 0.34848 0.7478 0.0
C69 C 0.18324 0.37435 0.72258 0.0
C70 C 0.21714 0.4235 0.73953 0.0
C71 C 0.20058 0.44776 0.78312 0.0
Dy72 Dy 0.08774 0.06771 0.56563 0.0
Dy73 Dy 0.95472 1.05008 0.5851 0.0
C74 C 0.04798 0.14919 0.63688 0.0
O75 O 0.06216 1.03031 0.64087 0.0
O76 O 0.97717 0.97972 0.61796 0.0
O77 O 0.16944 0.08575 0.60148 0.0
O78 O 0.15823 1.05755 0.52313 0.0
O79 O 0.95284 0.99025 0.52273 0.0
O80 O 0.04565 0.99113 0.52268 0.0
O81 O 0.97812 0.11822 0.532 0.0
O82 O 0.06811 0.12114 0.50684 0.0
O83 O 0.87016 1.03951 0.55743 0.0
O84 O 0.88882 1.0471 0.63878 0.0
C85 C 1.02387 0.9853 0.64342 0.0
O86 O 0.08427 0.14411 0.60216 0.0
O87 O 1.00046 0.11202 0.64305 0.0
C88 C 0.24119 0.12082 0.54373 0.0
C89 C 0.32627 0.19326 0.49237 0.0
C90 C 0.27337 0.20222 0.497 0.0
C91 C 0.23096 0.16619 0.52279 0.0
C92 C 0.29543 0.11449 0.54359 0.0
C93 C 0.3383 0.15112 0.51835 0.0
C94 C 0.19398 0.07761 0.55954 0.0
C95 C 0.9932 0.96987 0.50807 0.0
C96 C 1.02292 0.1379 0.50442 0.0
C97 C 0.80396 0.98951 0.61431 0.0
C98 C 0.73391 0.90965 0.67127 0.0
C99 C 0.77945 0.89974 0.64549 0.0
C100 C 0.81464 0.93984 0.61699 0.0
C101 C 0.75399 0.99647 0.63364 0.0
C102 C 0.7187 0.95635 0.66192 0.0
C103 C 0.84983 1.03608 0.60353 0.0
H104 H 0.26371 0.23474 0.47724 0.0
H105 H 0.18922 0.17166 0.52316 0.0
H106 H 0.30369 0.07965 0.55999 0.0
H107 H 0.37911 0.14397 0.51495 0.0
H108 H 0.79179 0.86399 0.65279 0.0
H109 H 0.85332 0.93413 0.60218 0.0
H110 H 0.74541 1.03468 0.63176 0.0
H111 H 0.6837 0.9644 0.68189 0.0
Dy112 Dy 0.46584 0.06213 0.0981 0.0
Dy113 Dy 0.59869 0.07463 0.10998 0.0
C114 C 0.50755 0.9813 0.16977 0.0
O115 O 0.49563 0.10775 0.16982 0.0
O116 O 0.58142 0.14847 0.14037 0.0
O117 O 0.38539 1.04698 0.13511 0.0
O118 O 0.3943 0.07103 1.05595 0.0
O119 O 0.59282 0.12025 1.03806 0.0
O120 O 0.50861 0.1367 1.05394 0.0
O121 O 0.56767 0.99798 1.06766 0.0
O122 O 0.48164 1.0048 1.03958 0.0
O123 O 0.68076 0.08077 0.07845 0.0
O124 O 0.67011 0.08836 0.16025 0.0
C125 C 0.53815 0.1497 0.16822 0.0
O126 O 0.46852 0.98807 0.13855 0.0
O127 O 0.55754 1.01603 0.17166 0.0
C128 C 0.31184 1.00884 0.07854 0.0
C129 C 0.23157 0.93436 1.0222 0.0
C130 C 0.28039 0.92229 1.03874 0.0
C131 C 0.32054 0.95954 1.06681 0.0
C132 C 0.26011 1.01818 1.06763 0.0
C133 C 0.21969 0.98072 1.03976 0.0
C134 C 0.35959 1.05289 0.09309 0.0
C135 C 0.55661 0.14762 1.0291 0.0
C136 C 0.52218 0.98123 1.03955 0.0
C137 C 0.75103 0.14558 0.12295 0.0
C138 C 0.84307 0.2367 0.12901 0.0
C139 C 0.83759 0.20146 0.08743 0.0
C140 C 0.79211 0.15601 0.08465 0.0
C141 C 0.7544 0.18303 0.16226 0.0
C142 C 0.79986 0.22784 0.16531 0.0
C143 C 0.7055 0.09558 0.12235 0.0
H144 H 0.29018 0.88682 1.02514 0.0
H145 H 0.36041 0.95187 1.07515 0.0
H146 H 0.25298 1.05612 1.07657 0.0
H147 H 0.1823 0.99058 1.02682 0.0
H148 H 0.86947 0.20775 1.05829 0.0
H149 H 0.78992 0.12822 1.0534 0.0
H150 H 0.72312 0.17689 0.19203 0.0
H151 H 0.80304 0.2538 0.19823 0.0
Dy152 Dy 0.52224 0.49513 0.54686 0.0
Dy153 Dy 0.53204 0.60276 0.61144 0.0
C154 C 0.57625 0.50954 0.66224 0.0
O155 O 0.43423 0.48422 0.57705 0.0
O156 O 0.4563 0.54511 0.64247 0.0
O157 O 0.51451 0.41123 0.54288 0.0
O158 O 0.52241 0.45628 0.47358 0.0
O159 O 0.47212 0.60366 0.54566 0.0
O160 O 0.50626 0.55414 0.48982 0.0
O161 O 0.60703 0.6239 0.55958 0.0
O162 O 0.61266 0.54041 0.53962 0.0
O163 O 0.54081 0.68686 0.61384 0.0
O164 O 0.52761 0.642 0.68365 0.0
C165 C 0.42126 0.50476 0.61999 0.0
O166 O 0.54898 0.47734 0.62611 0.0
O167 O 0.58364 0.56115 0.659 0.0
C168 C 0.57291 0.39295 0.47834 0.0
C169 C 0.66845 0.36488 0.44417 0.0
C170 C 0.66945 0.39099 0.49126 0.0
C171 C 0.62215 0.40514 0.50809 0.0
C172 C 0.57163 0.3661 0.43159 0.0
C173 C 0.61911 0.35209 0.41462 0.0
C174 C 0.52493 0.41212 0.49413 0.0
C175 C 0.47932 0.59014 0.4981 0.0
C176 C 0.6331 0.59205 0.53787 0.0
C177 C 0.47524 0.70286 0.67268 0.0
C178 C 0.37394 0.72523 0.69793 0.0
C179 C 0.3807 0.70479 0.64951 0.0
C180 C 0.43085 0.69338 0.63707 0.0
C181 C 0.46854 0.72371 0.72096 0.0
C182 C 0.41823 0.7349 0.7335 0.0
C183 C 0.52566 0.6856 0.66154 0.0
H184 H 0.70722 0.40132 0.51445 0.0
H185 H 0.62439 0.42657 0.54388 0.0
H186 H 0.5345 0.35697 0.40769 0.0
H187 H 0.6177 0.33202 0.37815 0.0
H188 H 0.3471 0.6975 0.62153 0.0
H189 H 0.43455 0.67643 0.59985 0.0
H190 H 0.50175 0.73046 0.74925 0.0
H191 H 0.41376 0.75108 0.77095 0.0
Dy192 Dy 0.03344 0.61382 1.05111 0.0
Dy193 Dy 1.02446 0.50139 0.10876 0.0
C194 C 0.97649 0.59034 0.16486 0.0
O195 O 0.11991 0.62944 0.08629 0.0
O196 O 0.10459 0.5569 0.13842 0.0
O197 O 0.04765 0.69871 1.05445 0.0
O198 O 1.0162 0.65595 0.98496 0.0
O199 O 0.06626 0.49305 1.03332 0.0
O200 O 0.07403 0.5721 0.99274 0.0
O201 O 0.9436 0.48063 1.06466 0.0
O202 O 0.94764 0.5618 1.02988 0.0
O203 O 1.01605 0.41727 0.10717 0.0
O204 O 0.03329 0.46072 0.17839 0.0
C205 C 0.13562 0.60337 0.12386 0.0
O206 O 1.0009 0.62424 0.12977 0.0
O207 O 0.97306 0.5395 0.16033 0.0
C208 C 0.97309 0.72074 1.01153 0.0
C209 C 0.86985 0.74602 1.00827 0.0
C210 C 0.8875 0.72698 1.05339 0.0
C211 C 0.93874 0.71448 1.055 0.0
C212 C 0.95615 0.74141 0.96692 0.0
C213 C 0.90489 0.75409 0.96534 0.0
C214 C 1.02251 0.69971 1.01082 0.0
C215 C 0.0798 0.52359 0.99294 0.0
C216 C 0.92272 0.51113 1.0355 0.0
C217 C 0.08522 0.40091 0.16146 0.0
C218 C 0.19101 0.38628 0.1822 0.0
C219 C 0.1806 0.40681 0.13517 0.0
C220 C 0.12816 0.41435 0.12497 0.0
C221 C 0.09513 0.37877 0.20791 0.0
C222 C 0.14787 0.37148 0.21825 0.0
C223 C 0.03386 0.41753 0.15407 0.0
H224 H 0.86104 0.72071 0.08686 0.0
H225 H 0.95078 0.69851 0.08982 0.0
H226 H 0.9817 0.74614 0.93287 0.0
H227 H 0.89182 0.76885 0.93021 0.0
H228 H 0.21353 0.41837 0.10704 0.0
H229 H 0.12182 0.43241 0.08925 0.0
H230 H 0.06284 0.36897 0.23678 0.0
H231 H 0.15546 0.3554 0.2547 0.0
C232 C 0.39555 0.22596 0.36376 0.0
C233 C 0.41481 0.28195 0.36848 0.0
C234 C 0.3893 0.27683 0.4589 0.0
C235 C 0.36405 0.22199 0.45246 0.0
N236 N 0.33495 0.14512 0.39697 0.0
N237 N 0.42412 0.36169 0.41806 0.0
C238 C 0.3659 0.19643 0.40474 0.0
C239 C 0.41048 0.30772 0.41552 0.0
N240 N 0.40315 0.2009 0.31941 0.0
N241 N 0.39278 0.29913 0.50657 0.0
H242 H 0.44315 0.38583 0.38807 0.0
H243 H 0.41361 0.38243 0.44879 0.0
H244 H 0.37791 0.27703 0.53906 0.0
H245 H 0.41424 0.3383 0.51456 0.0
H246 H 0.39784 0.16026 0.31685 0.0
H247 H 0.41759 0.22031 0.28558 0.0
H248 H 0.32836 0.12682 0.36119 0.0
H249 H 0.31149 0.12158 0.42526 0.0
C250 C 0.19167 0.90802 0.88301 0.0
C251 C 0.15836 0.85458 0.8848 0.0
C252 C 0.16596 0.85623 0.97823 0.0
C253 C 0.20325 0.9076 0.97573 0.0
N254 N 0.26144 0.97807 0.92517 0.0
N255 N 0.12006 0.77521 0.93274 0.0
C256 C 0.21843 0.93257 0.92804 0.0
C257 C 0.14702 0.82795 0.93209 0.0
N258 N 0.19892 0.93542 0.8382 0.0
N259 N 0.14809 0.83493 1.02465 0.0
H260 H 0.10231 0.75395 0.90013 0.0
H261 H 0.11948 0.752 0.96483 0.0
H262 H 0.16174 0.85471 1.05905 0.0
H263 H 0.11665 0.79972 1.02885 0.0
H264 H 0.21552 0.97631 0.83655 0.0
H265 H 0.1853 0.91863 0.80278 0.0
H266 H 0.27935 0.99393 0.89088 0.0
H267 H 0.28338 0.9977 0.95684 0.0
C268 C 0.59699 0.47008 0.80251 0.0
C269 C 0.6318 0.43546 0.79619 0.0
C270 C 0.63564 0.45455 0.70317 0.0
C271 C 0.59727 0.48587 0.70888 0.0
N272 N 0.53406 0.5156 0.76384 0.0
N273 N 0.67873 0.38974 0.73912 0.0
C274 C 0.57623 0.49169 0.75863 0.0
C275 C 0.64942 0.4263 0.74602 0.0
N276 N 0.5844 0.48318 0.85079 0.0
N277 N 0.66096 0.45359 0.65704 0.0
H278 H 0.69065 0.3695 0.76937 0.0
H279 H 0.68759 0.37645 0.70339 0.0
H280 H 0.65282 0.47432 0.62547 0.0
H281 H 0.69354 0.43637 0.65108 0.0
H282 H 0.56517 0.51293 0.85863 0.0
H283 H 0.59686 0.46688 0.88349 0.0
H284 H 0.51222 0.5158 0.79769 0.0
H285 H 0.51737 0.5314 0.73316 0.0
C286 C 0.95956 0.63183 0.30531 0.0
C287 C 0.92003 0.66182 0.29996 0.0
C288 C 0.91164 0.63829 0.20775 0.0
C289 C 0.95453 0.61191 0.21219 0.0
N290 N 0.0256 0.5911 0.26453 0.0
N291 N 0.86297 0.69856 0.24467 0.0
C292 C 0.97991 0.61044 0.26094 0.0
C293 C 0.89734 0.6663 0.25072 0.0
N294 N 0.97716 0.62301 0.35314 0.0
N295 N 0.88298 0.63501 0.16266 0.0
H296 H 0.85045 0.71844 0.27512 0.0
H297 H 0.85015 0.70882 0.20923 0.0
H298 H 0.89287 0.6159 0.13049 0.0
H299 H 0.84694 0.64752 0.1581 0.0
H300 H 1.00061 0.59655 0.36059 0.0
H301 H 0.96479 0.63931 0.38607 0.0
H302 H 0.05026 0.59452 0.29732 0.0
H303 H 0.04185 0.57531 0.2334 0.0
C304 C 0.494 0.27637 0.16693 0.0
C305 C 0.52151 0.30386 0.21006 0.0
C306 C 0.57299 0.23622 0.21722 0.0
C307 C 0.53158 0.20195 0.18527 0.0
N308 N 0.44845 0.19153 0.13145 0.0
N309 N 0.60161 0.3199 0.26505 0.0
C310 C 0.49007 0.22222 0.16146 0.0
C311 C 0.56662 0.28718 0.23099 0.0
N312 N 0.4782 0.3031 0.12784 0.0
N313 N 0.61688 0.21947 0.23535 0.0
H314 H 0.59756 0.35769 0.27303 0.0
H315 H 0.6334 0.31006 0.28532 0.0
H316 H 0.62036 0.1813 0.22888 0.0
H317 H 0.65051 0.24336 0.25579 0.0
H318 H 0.46061 0.2846 0.09393 0.0
H319 H 0.49271 0.34417 0.12569 0.0
H320 H 0.41589 0.20553 0.1172 0.0
H321 H 0.44343 0.15177 0.12386 0.0
C322 C 1.02212 0.85982 0.71877 0.0
C323 C 0.08003 0.86218 0.71683 0.0
C324 C 0.09441 0.9343 0.65598 0.0
C325 C 0.03975 0.93926 0.6656 0.0
N326 N 0.95201 0.90811 0.71032 0.0
N327 N 0.1737 0.91222 0.69178 0.0
C328 C 1.00323 0.90195 0.69768 0.0
C329 C 0.11682 0.90206 0.68753 0.0
N330 N 0.98538 0.81737 0.74073 0.0
N331 N 0.1249 0.95895 0.61552 0.0
H332 H 0.19357 0.89186 0.71577 0.0
H333 H 0.20139 0.94518 0.67544 0.0
H334 H 0.10934 0.9806 0.58918 0.0
H335 H 0.1626 0.952 0.6044 0.0
H336 H 0.94207 0.81098 0.73939 0.0
H337 H 0.99819 0.78601 0.75605 0.0
H338 H 0.92612 0.88517 0.73761 0.0
H339 H 0.93725 0.93901 0.69684 0.0
C340 C 0.77475 0.48499 0.97655 0.0
C341 C 0.77505 0.44502 0.93965 0.0
C342 C 0.8727 0.44992 0.96424 0.0
C343 C 0.87091 0.48686 1.00391 0.0
N344 N 0.81786 0.53435 1.05219 0.0
N345 N 0.82245 0.38602 0.90092 0.0
C346 C 0.82135 0.50331 1.0109 0.0
C347 C 0.82362 0.42664 0.93427 0.0
N348 N 0.72966 0.50533 0.97885 0.0
N349 N 0.92215 0.43862 0.95366 0.0
H350 H 0.78917 0.37058 0.87576 0.0
H351 H 0.85296 0.36563 0.89992 0.0
H352 H 0.9587 0.45376 0.97493 0.0
H353 H 0.92847 0.41747 0.92151 0.0
H354 H 0.72863 0.53808 1.00099 0.0
H355 H 0.69423 0.49167 0.95573 0.0
H356 H 0.78166 0.54429 1.06284 0.0
H357 H 0.85026 0.54641 0.07879 0.0
C358 C 0.7293 0.66231 0.42972 0.0
C359 C 0.78182 0.65551 0.44505 0.0
C360 C 0.73669 0.60461 0.51987 0.0
C361 C 0.68491 0.61479 0.50665 0.0
N362 N 0.63222 0.6557 0.45006 0.0
N363 N 0.83729 0.62351 0.50595 0.0
C364 C 0.68142 0.64439 0.46187 0.0
C365 C 0.78585 0.62721 0.49033 0.0
N366 N 0.72502 0.68493 0.38351 0.0
N367 N 0.73889 0.57337 0.5609 0.0
H368 H 0.87346 0.63748 0.48428 0.0
H369 H 0.84507 0.6091 0.54132 0.0
H370 H 0.70549 0.56005 0.5859 0.0
H371 H 0.77275 0.55864 0.56918 0.0
H372 H 0.68729 0.68603 0.36679 0.0
H373 H 0.75922 0.69942 0.35959 0.0
H374 H 0.62842 0.6827 0.42238 0.0
H375 H 0.59502 0.64013 0.46962 0.0
C376 C 0.31442 0.32755 0.19567 0.0
C377 C 0.35227 0.36835 0.2243 0.0
C378 C 0.28797 0.42412 0.21739 0.0
C379 C 0.24767 0.3811 0.19411 0.0
N380 N 0.22002 0.29138 0.1624 0.0
N381 N 0.37532 0.45414 0.26482 0.0
C382 C 0.26044 0.33284 0.18306 0.0
C383 C 0.33937 0.41655 0.23532 0.0
N384 N 0.32998 0.28355 0.181 0.0
N385 N 0.27709 0.47223 0.22202 0.0
H386 H 0.41465 0.45107 0.27626 0.0
H387 H 0.36507 0.48685 0.28022 0.0
H388 H 0.23904 0.47865 0.21111 0.0
H389 H 0.30687 0.50672 0.23339 0.0
H390 H 0.30721 0.25521 0.15537 0.0
H391 H 0.36788 0.27672 0.19159 0.0
H392 H 0.22386 0.25308 0.15906 0.0
H393 H 0.18068 0.2944 0.15104 0.0
C394 C 0.58446 0.29092 0.97971 0.0
C395 C 0.60809 0.28797 0.93097 0.0
C396 C 0.589 0.19097 0.94236 0.0
C397 C 0.57295 0.19556 0.99412 0.0
N398 N 0.57162 0.25494 1.06437 0.0
N399 N 0.63746 0.23501 0.86716 0.0
C400 C 0.57428 0.24682 1.01317 0.0
C401 C 0.61123 0.23777 0.91244 0.0
N402 N 0.57255 0.33654 0.99463 0.0
N403 N 0.58209 0.14189 0.92138 0.0
H404 H 0.6525 0.26786 0.84395 0.0
H405 H 0.64721 0.20107 0.85417 0.0
H406 H 0.56617 0.10733 0.94201 0.0
H407 H 0.58765 0.13535 0.8827 0.0
H408 H 0.5506 0.33948 1.02791 0.0
H409 H 0.57951 0.36953 0.97108 0.0
H410 H 0.57895 0.29236 0.08107 0.0
H411 H 0.5702 0.22506 0.09024 0.0
C412 C 0.97986 0.82541 0.46469 0.0
C413 C 0.94026 0.81868 0.42426 0.0
C414 C 0.94405 0.91349 0.43222 0.0
C415 C 0.9778 0.9185 0.47722 0.0
N416 N 1.01884 0.87439 0.54102 0.0
N417 N 0.88101 0.85543 0.37157 0.0
C418 C 0.99398 0.87331 0.49429 0.0
C419 C 0.92162 0.86264 0.40844 0.0
N420 N 1.00369 0.78557 0.47526 0.0
N421 N 0.9347 0.95767 0.41118 0.0
H422 H 0.86572 0.81972 0.35177 0.0
H423 H 0.86022 0.88369 0.36268 0.0
H424 H 0.95075 0.99523 0.42704 0.0
H425 H 0.91556 0.9579 0.37575 0.0
H426 H 0.03717 0.78985 0.50057 0.0
H427 H 0.99353 0.7498 0.45503 0.0
H428 H 0.02609 0.84125 0.55818 0.0
H429 H 0.02658 0.907 0.56526 0.0
C430 C 0.2776 0.80775 0.73746 0.0
C431 C 0.22574 0.76843 0.74371 0.0
C432 C 0.27112 0.69955 0.7204 0.0
C433 C 0.32162 0.73945 0.71076 0.0
N434 N 0.36872 0.8315 0.69756 0.0
N435 N 0.17058 0.67792 0.73429 0.0
C436 C 0.32348 0.79355 0.71537 0.0
C437 C 0.22164 0.71457 0.73273 0.0
N438 N 0.28412 0.85835 0.7546 0.0
N439 N 0.27112 0.64754 0.71999 0.0
H440 H 0.13398 0.68755 0.74465 0.0
H441 H 0.16375 0.63897 0.7218 0.0
H442 H 0.30658 0.63518 0.71136 0.0
H443 H 0.23734 0.61691 0.73188 0.0
H444 H 0.3228 0.8867 0.75636 0.0
H445 H 0.25229 0.87101 0.77175 0.0
H446 H 0.36964 0.87123 0.69481 0.0
H447 H 0.40314 0.82265 0.68066 0.0
C448 C 0.65293 0.80893 0.76631 0.0
C449 C 0.67209 0.83679 0.81236 0.0
C450 C 0.7394 0.90518 0.76547 0.0
C451 C 0.7148 0.8814 0.71904 0.0
N452 N 0.64665 0.81285 0.67387 0.0
N453 N 0.72794 0.91513 0.85609 0.0
C454 C 0.6713 0.83359 0.71894 0.0
C455 C 0.71396 0.88586 0.81209 0.0
N456 N 0.61827 0.75872 0.76804 0.0
N457 N 0.78773 0.94573 0.76508 0.0
H458 H 0.71084 0.90256 0.89163 0.0
H459 H 0.75303 0.95404 0.85675 0.0
H460 H 0.80796 0.96174 0.7317 0.0
H461 H 0.81083 0.96023 0.79794 0.0
H462 H 0.60819 0.73413 0.73606 0.0
H463 H 0.60331 0.74017 0.80229 0.0
H464 H 0.61056 0.78139 0.67178 0.0
H465 H 0.66041 0.82941 0.63854 0.0
C466 C 0.91909 0.34257 0.2097 0.0
C467 C 0.93496 0.30542 0.24178 0.0
C468 C 0.9361 0.25205 0.16526 0.0
C469 C 0.89753 0.27517 0.14248 0.0
N470 N 0.86694 0.35302 0.13313 0.0
N471 N 0.95704 0.21984 0.24575 0.0
C472 C 0.89589 0.32535 0.16062 0.0
C473 C 0.94534 0.25951 0.21835 0.0
N474 N 0.92419 0.39273 0.22709 0.0
N475 N 0.95873 0.21906 0.1376 0.0
H476 H 0.95877 0.21864 0.28514 0.0
H477 H 0.9592 0.1844 0.22884 0.0
H478 H 0.95163 0.21376 0.09837 0.0
H479 H 0.98927 0.20278 0.15254 0.0
H480 H 0.91529 0.42206 0.20478 0.0
H481 H 0.94252 0.40591 0.2625 0.0
H482 H 0.8586 0.3876 0.14618 0.0
H483 H 0.8501 0.33937 0.09728 0.0
C484 C 0.43424 0.69437 0.41482 0.0
C485 C 0.4231 0.66885 0.36611 0.0
C486 C 0.43943 0.58898 0.40633 0.0
C487 C 0.45874 0.61709 0.45284 0.0
N488 N 0.48943 0.70388 0.49246 0.0
N489 N 0.43088 0.59478 0.31437 0.0
C490 C 0.46013 0.67183 0.45468 0.0
C491 C 0.43023 0.61697 0.36159 0.0
N492 N 0.41877 0.73955 0.42407 0.0
N493 N 0.427 0.53509 0.40487 0.0
H494 H 0.42672 0.61425 0.28067 0.0
H495 H 0.44244 0.5599 0.30881 0.0
H496 H 0.42817 0.51245 0.43713 0.0
H497 H 0.40866 0.51274 0.37308 0.0
H498 H 0.42139 0.75696 0.46026 0.0
H499 H 0.39753 0.75605 0.39722 0.0
H500 H 0.49532 0.74469 0.49308 0.0
H501 H 0.51432 0.69118 0.51878 0.0
C502 C 0.15641 0.44575 0.90527 0.0
C503 C 0.13295 0.4499 0.85625 0.0
C504 C 0.07372 0.50141 0.89646 0.0
C505 C 0.10025 0.50078 0.94499 0.0
N506 N 0.17535 0.48051 0.9919 0.0
N507 N 0.07614 0.48996 0.80409 0.0
C508 C 0.14383 0.47497 0.94827 0.0
C509 C 0.09372 0.48028 0.85166 0.0
N510 N 0.19005 0.41282 0.91112 0.0
N511 N 0.02714 0.51945 0.89325 0.0
H512 H 0.08859 0.47433 0.77081 0.0
H513 H 0.05307 0.5169 0.79729 0.0
H514 H 1.01007 0.5342 0.92446 0.0
H515 H 1.00205 0.51512 0.86065 0.0
H516 H 0.20334 0.40298 0.94655 0.0
H517 H 0.20103 0.39183 0.88071 0.0
H518 H 0.21111 0.46736 0.99547 0.0
H519 H 0.1691 0.5032 1.02296 0.0
C520 C 0.5238 0.84142 1.00509 0.0
C521 C 0.54243 0.8502 0.95398 0.0
C522 C 0.52183 0.93558 0.9544 0.0
C523 C 0.5166 0.93275 1.0081 0.0
N524 N 0.48452 0.87502 0.07895 0.0
N525 N 0.50328 0.88023 0.87935 0.0
C526 C 0.50884 0.88293 1.03208 0.0
C527 C 0.52554 0.89001 0.92722 0.0
N528 N 0.51793 0.79292 1.02611 0.0
N529 N 0.52323 0.98103 0.92916 0.0
H530 H 0.49451 0.84241 0.86302 0.0
H531 H 0.48638 0.90688 0.86002 0.0
H532 H 0.51854 1.01476 0.94773 0.0
H533 H 0.53145 0.98507 0.89009 0.0
H534 H 0.50897 0.78419 1.06437 0.0
H535 H 0.52181 0.76093 1.00389 0.0
H536 H 0.4757 0.8395 0.09852 0.0
H537 H 0.46798 0.90332 0.09585 0.0
C538 C 1.02199 0.27071 0.44888 0.0
C539 C 0.97878 0.25237 0.4121 0.0
C540 C 0.98287 0.16145 0.42484 0.0
C541 C 1.01896 0.17846 0.467 0.0
N542 N 0.07362 0.24871 0.52066 0.0
N543 N 0.9112 0.17893 0.37102 0.0
C544 C 0.03938 0.23312 0.47917 0.0
C545 C 0.95754 0.19736 0.4014 0.0
N546 N 0.04617 0.32376 0.45463 0.0
N547 N 0.97319 0.11074 0.40712 0.0
H548 H 0.89064 0.2035 0.35295 0.0
H549 H 0.89041 0.1389 0.36696 0.0
H550 H 0.99328 0.08449 0.42294 0.0
H551 H 0.9509 0.09698 0.37363 0.0
H552 H 0.08125 0.33968 0.47751 0.0
H553 H 0.03326 0.3519 0.43357 0.0
H554 H 0.08451 0.28702 0.53557 0.0
H555 H 0.08953 0.22235 0.54141 0.0
C556 C 0.28364 0.62814 0.18402 0.0
C557 C 0.2847 0.6701 0.2191 0.0
C558 C 0.19082 0.67193 0.18765 0.0
C559 C 0.18846 0.6281 0.15444 0.0
N560 N 0.22941 0.55935 0.12691 0.0
N561 N 0.23526 0.72574 0.26049 0.0
C562 C 0.23391 0.60462 0.15462 0.0
C563 C 0.23714 0.69034 0.2224 0.0
N564 N 0.33111 0.6121 0.17721 0.0
N565 N 0.14845 0.69597 0.18632 0.0
H566 H 0.26778 0.73951 0.28681 0.0
H567 H 0.19987 0.73806 0.26908 0.0
H568 H 0.11223 0.68192 0.16433 0.0
H569 H 0.15044 0.73177 0.20455 0.0
H570 H 0.33565 0.58608 0.14841 0.0
H571 H 0.36784 0.6278 0.19813 0.0
H572 H 0.25762 0.53659 0.12971 0.0
H573 H 0.19526 0.5425 0.10322 0.0
C574 C 0.31463 0.42189 0.71285 0.0
C575 C 0.27088 0.44734 0.71111 0.0
C576 C 0.32531 0.51013 0.64813 0.0
C577 C 0.36659 0.48169 0.64661 0.0
N578 N 0.3977 0.40699 0.67341 0.0
N579 N 0.23113 0.51164 0.67217 0.0
C580 C 0.36017 0.43637 0.67764 0.0
C581 C 0.27543 0.49057 0.67753 0.0
N582 N 0.31361 0.38507 0.7497 0.0
N583 N 0.33416 0.55638 0.62185 0.0
H584 H 0.19451 0.49907 0.69344 0.0
H585 H 0.22896 0.53909 0.64435 0.0
H586 H 0.36816 0.5702 0.59756 0.0
H587 H 0.30963 0.58251 0.62615 0.0
H588 H 0.34662 0.36873 0.7568 0.0
H589 H 0.28166 0.37431 0.7766 0.0
H590 H 0.39242 0.37044 0.69068 0.0
H591 H 0.43222 0.4171 0.64922 0.0
C592 C 0.71407 0.72505 0.98141 0.0
C593 C 0.71211 0.7783 0.97968 0.0
C594 C 0.80863 0.8077 1.01248 0.0
C595 C 0.81365 0.75575 1.00495 0.0
N596 N 0.77178 0.66394 0.98368 0.0
N597 N 0.75612 0.87101 0.9945 0.0
C598 C 0.7662 0.71384 0.99072 0.0
C599 C 0.75864 0.81978 0.99665 0.0
N600 N 0.66589 0.68555 0.97338 0.0
N601 N 0.85183 0.84535 1.03461 0.0
H602 H 0.71943 0.88109 0.98548 0.0
H603 H 0.79072 0.90361 0.99954 0.0
H604 H 0.88922 0.83772 1.04588 0.0
H605 H 0.84907 0.88267 1.04568 0.0
H606 H 0.66282 0.64555 0.9778 0.0
H607 H 0.62746 0.69344 0.96666 0.0
H608 H 0.74079 0.63293 0.96755 0.0
H609 H 0.80884 0.65398 0.99159 0.0
C610 C 0.49706 0.83979 0.21591 0.0
C611 C 0.44889 0.82968 0.24761 0.0
C612 C 0.4454 0.92209 0.23528 0.0
C613 C 0.49311 0.93214 0.2028 0.0
N614 N 0.57128 0.90336 0.1711 0.0
N615 N 0.38468 0.86412 0.29634 0.0
C616 C 0.5215 0.89205 0.19656 0.0
C617 C 0.42549 0.87191 0.25999 0.0
N618 N 0.51756 0.79857 0.2017 0.0
N619 N 0.4185 0.96059 0.24202 0.0
H620 H 0.36952 0.82819 0.31508 0.0
H621 H 0.36906 0.89403 0.31117 0.0
H622 H 0.43466 0.99912 0.22893 0.0
H623 H 0.37938 0.95418 0.25898 0.0
H624 H 0.54755 0.80105 0.17345 0.0
H625 H 0.50181 0.76045 0.21589 0.0
H626 H 0.59713 0.87819 0.16995 0.0
H627 H 0.58901 0.93956 0.15384 0.0
C628 C 0.06081 0.28968 0.68847 0.0
C629 C 0.10179 0.29448 0.72772 0.0
C630 C 0.10368 0.20231 0.71052 0.0
C631 C 0.06274 0.19749 0.6712 0.0
N632 N 0.99522 0.23307 0.6285 0.0
N633 N 0.15434 0.25281 0.78276 0.0
C634 C 0.03884 0.24006 0.66228 0.0
C635 C 0.12052 0.24977 0.74084 0.0
N636 N 0.04482 0.33345 0.67466 0.0
N637 N 0.12764 0.16189 0.71795 0.0
H638 H 0.16735 0.28691 0.80538 0.0
H639 H 0.16576 0.22072 0.79777 0.0
H640 H 0.11442 0.12575 0.69854 0.0
H641 H 0.16238 0.16477 0.74132 0.0
H642 H 1.02071 0.33514 0.64244 0.0
H643 H 0.05812 0.36941 0.69439 0.0
H644 H 0.97206 0.26022 0.62353 0.0
H645 H 0.97947 0.19815 0.60762 0.0
C646 C 0.77122 0.28791 0.4032 0.0
C647 C 0.81875 0.32997 0.39069 0.0
C648 C 0.76565 0.3943 0.40809 0.0
C649 C 0.71995 0.35263 0.42514 0.0
N650 N 0.6819 0.2608 0.44664 0.0
N651 N 0.86466 0.42346 0.38803 0.0
C652 C 0.72343 0.29965 0.42481 0.0
C653 C 0.81694 0.3833 0.39509 0.0
N654 N 0.77103 0.23682 0.39284 0.0
N655 N 0.75937 0.44407 0.40263 0.0
H656 H 0.9029 0.41694 0.37801 0.0
H657 H 0.86762 0.46297 0.39614 0.0
H658 H 0.72234 0.45364 0.41145 0.0
H659 H 0.78899 0.47484 0.38526 0.0
H660 H 0.73547 0.20489 0.39571 0.0
H661 H 0.80527 0.22665 0.37722 0.0
H662 H 0.6849 0.22257 0.45264 0.0
H663 H 0.64618 0.26782 0.46273 0.0
loop_
_geom_bond_atom_site_label_1
_geom_bond_atom_site_label_2
_geom_bond_distance
_geom_bond_site_symmetry_2
_ccdc_geom_bond_type
H0 C3 0.931 . S
H1 C6 0.928 . S
H2 C8 0.930 . S
C3 H0 0.931 . S
C3 C4 1.413 . S
C3 C5 1.360 . S
C4 C3 1.413 . S
C4 C8 1.429 . S
C5 C3 1.360 . S
C5 C6 1.372 . S
C6 H1 0.928 . S
C6 C5 1.372 . S
C6 C7 1.404 . S
C7 C6 1.404 . S
C7 C8 1.391 . S
C8 H2 0.930 . S
C8 C4 1.429 . S
C8 C7 1.391 . S
H9 C12 0.931 . S
H10 C15 0.928 . S
H11 C17 0.930 . S
C12 H9 0.931 . S
C12 C13 1.413 . S
C12 C14 1.360 . S
C13 C12 1.413 . S
C13 C17 1.429 . S
C14 C12 1.360 . S
C14 C15 1.372 . S
C15 H10 0.928 . S
C15 C14 1.372 . S
C15 C16 1.404 . S
C16 C15 1.404 . S
C16 C17 1.391 . S
C17 H11 0.930 . S
C17 C13 1.429 . S
C17 C16 1.391 . S
H18 C21 0.931 . S
H19 C24 0.928 . S
H20 C26 0.930 . S
C21 H18 0.931 . S
C21 C22 1.413 . S
C21 C23 1.360 . S
C22 C21 1.413 . S
C22 C26 1.429 . S
C23 C21 1.360 . S
C23 C24 1.372 . S
C24 H19 0.928 . S
C24 C23 1.372 . S
C24 C25 1.404 . S
C25 C24 1.404 . S
C25 C26 1.391 . S
C26 H20 0.930 . S
C26 C22 1.429 . S
C26 C25 1.391 . S
H27 C30 0.931 . S
H28 C33 0.928 . S
H29 C35 0.930 . S
C30 H27 0.931 . S
C30 C31 1.413 . S
C30 C32 1.360 . S
C31 C30 1.413 . S
C31 C35 1.429 . S
C32 C30 1.360 . S
C32 C33 1.372 . S
C33 H28 0.928 . S
C33 C32 1.372 . S
C33 C34 1.404 . S
C34 C33 1.404 . S
C34 C35 1.391 . S
C35 H29 0.930 . S
C35 C31 1.429 . S
C35 C34 1.391 . S
H36 C39 0.931 . S
H37 C42 0.928 . S
H38 C44 0.930 . S
C39 H36 0.931 . S
C39 C40 1.413 . S
C39 C41 1.360 . S
C40 C39 1.413 . S
C40 C44 1.429 . S
C41 C39 1.360 . S
C41 C42 1.372 . S
C42 H37 0.928 . S
C42 C41 1.372 . S
C42 C43 1.404 . S
C43 C42 1.404 . S
C43 C44 1.391 . S
C44 H38 0.930 . S
C44 C40 1.429 . S
C44 C43 1.391 . S
H45 C48 0.931 . S
H46 C51 0.928 . S
H47 C53 0.930 . S
C48 H45 0.931 . S
C48 C49 1.413 . S
C48 C50 1.360 . S
C49 C48 1.413 . S
C49 C53 1.429 . S
C50 C48 1.360 . S
C50 C51 1.372 . S
C51 H46 0.928 . S
C51 C50 1.372 . S
C51 C52 1.404 . S
C52 C51 1.404 . S
C52 C53 1.391 . S
C53 H47 0.930 . S
C53 C49 1.429 . S
C53 C52 1.391 . S
H54 C57 0.931 . S
H55 C60 0.928 . S
H56 C62 0.930 . S
C57 H54 0.931 . S
C57 C58 1.413 . S
C57 C59 1.360 . S
C58 C57 1.413 . S
C58 C62 1.429 . S
C59 C57 1.360 . S
C59 C60 1.372 . S
C60 H55 0.928 . S
C60 C59 1.372 . S
C60 C61 1.404 . S
C61 C60 1.404 . S
C61 C62 1.391 . S
C62 H56 0.930 . S
C62 C58 1.429 . S
C62 C61 1.391 . S
H63 C66 0.931 . S
H64 C69 0.928 . S
H65 C71 0.930 . S
C66 H63 0.931 . S
C66 C67 1.413 . S
C66 C68 1.360 . S
C67 C66 1.413 . S
C67 C71 1.429 . S
C68 C66 1.360 . S
C68 C69 1.372 . S
C69 H64 0.928 . S
C69 C68 1.372 . S
C69 C70 1.404 . S
C70 C69 1.404 . S
C70 C71 1.391 . S
C71 H65 0.930 . S
C71 C67 1.429 . S
C71 C70 1.391 . S
Dy72 O75 2.307 1_545 S
Dy72 O77 2.395 . S
Dy72 O78 2.379 . S
Dy72 O80 2.339 1_545 S
Dy72 O82 2.298 . S
Dy72 O86 2.275 . S
Dy72 C94 2.738 . S
Dy73 O76 2.298 . S
Dy73 O79 2.275 . S
Dy73 O81 2.307 1_565 S
Dy73 O83 2.395 . S
Dy73 O84 2.379 . S
Dy73 O87 2.339 1_565 S
Dy73 C103 2.738 . S
C74 O86 1.254 . S
C74 O87 1.257 1_455 S
O75 Dy72 2.307 1_565 S
O75 C85 1.266 . S
O76 Dy73 2.298 . S
O76 C85 1.236 1_655 S
O77 Dy72 2.395 . S
O77 C94 1.255 . S
O78 Dy72 2.379 . S
O78 C94 1.249 . S
O79 Dy73 2.275 . S
O79 C95 1.254 . S
O80 Dy72 2.339 1_565 S
O80 C95 1.257 1_455 S
O81 Dy73 2.307 1_545 S
O81 C96 1.266 . S
O82 Dy72 2.298 . S
O82 C96 1.236 1_455 S
O83 Dy73 2.395 . S
O83 C103 1.255 . S
O84 Dy73 2.379 . S
O84 C103 1.249 . S
C85 O75 1.266 . S
C85 O76 1.236 1_455 S
O86 Dy72 2.275 . S
O86 C74 1.254 . S
O87 Dy73 2.339 1_545 S
O87 C74 1.257 1_655 S
C88 C91 1.344 . S
C88 C92 1.328 . S
C88 C94 1.516 . S
C89 C90 1.304 . S
C89 C93 1.323 . S
C90 C89 1.304 . S
C90 C91 1.371 . S
C90 H104 0.930 . S
C91 C88 1.344 . S
C91 C90 1.371 . S
C91 H105 0.931 . S
C92 C88 1.328 . S
C92 C93 1.433 . S
C92 H106 0.931 . S
C93 C89 1.323 . S
C93 C92 1.433 . S
C93 H107 0.933 . S
C94 Dy72 2.738 . S
C94 O77 1.255 . S
C94 O78 1.249 . S
C94 C88 1.516 . S
C95 O79 1.254 . S
C95 O80 1.257 1_655 S
C96 O81 1.266 . S
C96 O82 1.236 1_655 S
C97 C100 1.344 . S
C97 C101 1.328 . S
C97 C103 1.516 . S
C98 C99 1.304 . S
C98 C102 1.323 . S
C99 C98 1.304 . S
C99 C100 1.371 . S
C99 H108 0.930 . S
C100 C97 1.344 . S
C100 C99 1.371 . S
C100 H109 0.931 . S
C101 C97 1.328 . S
C101 C102 1.433 . S
C101 H110 0.931 . S
C102 C98 1.323 . S
C102 C101 1.433 . S
C102 H111 0.933 . S
C103 Dy73 2.738 . S
C103 O83 1.255 . S
C103 O84 1.249 . S
C103 C97 1.516 . S
H104 C90 0.930 . S
H105 C91 0.931 . S
H106 C92 0.931 . S
H107 C93 0.933 . S
H108 C99 0.930 . S
H109 C100 0.931 . S
H110 C101 0.931 . S
H111 C102 0.933 . S
Dy112 O115 2.307 1_566 S
Dy112 O117 2.395 . S
Dy112 O118 2.379 . S
Dy112 O120 2.339 1_565 S
Dy112 O122 2.298 . S
Dy112 O126 2.275 1_556 S
Dy112 C134 2.738 . S
Dy113 O116 2.298 . S
Dy113 O119 2.275 1_554 S
Dy113 O121 2.307 1_544 S
Dy113 O123 2.395 . S
Dy113 O124 2.379 . S
Dy113 O127 2.339 1_545 S
Dy113 C143 2.738 . S
C114 O126 1.254 . S
C114 O127 1.257 . S
O115 Dy112 2.307 1_544 S
O115 C125 1.266 . S
O116 Dy113 2.298 . S
O116 C125 1.236 . S
O117 Dy112 2.395 . S
O117 C134 1.255 . S
O118 Dy112 2.379 . S
O118 C134 1.249 . S
O119 Dy113 2.275 1_556 S
O119 C135 1.254 . S
O120 Dy112 2.339 1_545 S
O120 C135 1.257 . S
O121 Dy113 2.307 1_566 S
O121 C136 1.266 . S
O122 Dy112 2.298 . S
O122 C136 1.236 . S
O123 Dy113 2.395 . S
O123 C143 1.255 . S
O124 Dy113 2.379 . S
O124 C143 1.249 . S
C125 O115 1.266 . S
C125 O116 1.236 . S
O126 Dy112 2.275 1_554 S
O126 C114 1.254 . S
O127 Dy113 2.339 1_565 S
O127 C114 1.257 . S
C128 C131 1.344 . S
C128 C132 1.328 . S
C128 C134 1.516 . S
C129 C130 1.304 . S
C129 C133 1.323 . S
C130 C129 1.304 . S
C130 C131 1.371 . S
C130 H144 0.930 . S
C131 C128 1.344 . S
C131 C130 1.371 . S
C131 H145 0.931 . S
C132 C128 1.328 . S
C132 C133 1.433 . S
C132 H146 0.931 . S
C133 C129 1.323 . S
C133 C132 1.433 . S
C133 H147 0.933 . S
C134 Dy112 2.738 . S
C134 O117 1.255 . S
C134 O118 1.249 . S
C134 C128 1.516 . S
C135 O119 1.254 . S
C135 O120 1.257 . S
C136 O121 1.266 . S
C136 O122 1.236 . S
C137 C140 1.344 . S
C137 C141 1.328 . S
C137 C143 1.516 . S
C138 C139 1.304 . S
C138 C142 1.323 . S
C139 C138 1.304 . S
C139 C140 1.371 . S
C139 H148 0.930 . S
C140 C137 1.344 . S
C140 C139 1.371 . S
C140 H149 0.931 . S
C141 C137 1.328 . S
C141 C142 1.433 . S
C141 H150 0.931 . S
C142 C138 1.323 . S
C142 C141 1.433 . S
C142 H151 0.933 . S
C143 Dy113 2.738 . S
C143 O123 1.255 . S
C143 O124 1.249 . S
C143 C137 1.516 . S
H144 C130 0.930 . S
H145 C131 0.931 . S
H146 C132 0.931 . S
H147 C133 0.933 . S
H148 C139 0.930 . S
H149 C140 0.931 . S
H150 C141 0.931 . S
H151 C142 0.933 . S
Dy152 O155 2.307 . S
Dy152 O157 2.395 . S
Dy152 O158 2.379 . S
Dy152 O160 2.339 . S
Dy152 O162 2.298 . S
Dy152 O166 2.275 . S
Dy152 C174 2.738 . S
Dy153 O156 2.298 . S
Dy153 O159 2.275 . S
Dy153 O161 2.307 . S
Dy153 O163 2.395 . S
Dy153 O164 2.379 . S
Dy153 O167 2.339 . S
Dy153 C183 2.738 . S
C154 O166 1.254 . S
C154 O167 1.257 . S
O155 Dy152 2.307 . S
O155 C165 1.266 . S
O156 Dy153 2.298 . S
O156 C165 1.236 . S
O157 Dy152 2.395 . S
O157 C174 1.255 . S
O158 Dy152 2.379 . S
O158 C174 1.249 . S
O159 Dy153 2.275 . S
O159 C175 1.254 . S
O160 Dy152 2.339 . S
O160 C175 1.257 . S
O161 Dy153 2.307 . S
O161 C176 1.266 . S
O162 Dy152 2.298 . S
O162 C176 1.236 . S
O163 Dy153 2.395 . S
O163 C183 1.255 . S
O164 Dy153 2.379 . S
O164 C183 1.249 . S
C165 O155 1.266 . S
C165 O156 1.236 . S
O166 Dy152 2.275 . S
O166 C154 1.254 . S
O167 Dy153 2.339 . S
O167 C154 1.257 . S
C168 C171 1.344 . S
C168 C172 1.328 . S
C168 C174 1.516 . S
C169 C170 1.304 . S
C169 C173 1.323 . S
C170 C169 1.304 . S
C170 C171 1.371 . S
C170 H184 0.930 . S
C171 C168 1.344 . S
C171 C170 1.371 . S
C171 H185 0.931 . S
C172 C168 1.328 . S
C172 C173 1.433 . S
C172 H186 0.931 . S
C173 C169 1.323 . S
C173 C172 1.433 . S
C173 H187 0.933 . S
C174 Dy152 2.738 . S
C174 O157 1.255 . S
C174 O158 1.249 . S
C174 C168 1.516 . S
C175 O159 1.254 . S
C175 O160 1.257 . S
C176 O161 1.266 . S
C176 O162 1.236 . S
C177 C180 1.344 . S
C177 C181 1.328 . S
C177 C183 1.516 . S
C178 C179 1.304 . S
C178 C182 1.323 . S
C179 C178 1.304 . S
C179 C180 1.371 . S
C179 H188 0.930 . S
C180 C177 1.344 . S
C180 C179 1.371 . S
C180 H189 0.931 . S
C181 C177 1.328 . S
C181 C182 1.433 . S
C181 H190 0.931 . S
C182 C178 1.323 . S
C182 C181 1.433 . S
C182 H191 0.933 . S
C183 Dy153 2.738 . S
C183 O163 1.255 . S
C183 O164 1.249 . S
C183 C177 1.516 . S
H184 C170 0.930 . S
H185 C171 0.931 . S
H186 C172 0.931 . S
H187 C173 0.933 . S
H188 C179 0.930 . S
H189 C180 0.931 . S
H190 C181 0.931 . S
H191 C182 0.933 . S
Dy192 O195 2.307 1_656 S
Dy192 O197 2.395 . S
Dy192 O198 2.379 . S
Dy192 O200 2.339 1_655 S
Dy192 O202 2.298 . S
Dy192 O206 2.275 1_556 S
Dy192 C214 2.738 . S
Dy193 O196 2.298 . S
Dy193 O199 2.275 1_554 S
Dy193 O201 2.307 1_455 S
Dy193 O203 2.395 . S
Dy193 O204 2.379 . S
Dy193 O207 2.339 1_455 S
Dy193 C223 2.738 . S
C194 O206 1.254 . S
C194 O207 1.257 . S
O195 Dy192 2.307 1_454 S
O195 C205 1.266 . S
O196 Dy193 2.298 . S
O196 C205 1.236 . S
O197 Dy192 2.395 . S
O197 C214 1.255 . S
O198 Dy192 2.379 . S
O198 C214 1.249 . S
O199 Dy193 2.275 1_556 S
O199 C215 1.254 . S
O200 Dy192 2.339 1_455 S
O200 C215 1.257 . S
O201 Dy193 2.307 1_655 S
O201 C216 1.266 1_554 S
O202 Dy192 2.298 . S
O202 C216 1.236 . S
O203 Dy193 2.395 . S
O203 C223 1.255 . S
O204 Dy193 2.379 . S
O204 C223 1.249 . S
C205 O195 1.266 . S
C205 O196 1.236 . S
O206 Dy192 2.275 1_554 S
O206 C194 1.254 . S
O207 Dy193 2.339 1_655 S
O207 C194 1.257 . S
C208 C211 1.344 . S
C208 C212 1.328 . S
C208 C214 1.516 . S
C209 C210 1.304 . S
C209 C213 1.323 . S
C210 C209 1.304 . S
C210 C211 1.371 . S
C210 H224 0.930 . S
C211 C208 1.344 . S
C211 C210 1.371 . S
C211 H225 0.931 . S
C212 C208 1.328 . S
C212 C213 1.433 . S
C212 H226 0.931 . S
C213 C209 1.323 . S
C213 C212 1.433 . S
C213 H227 0.933 . S
C214 Dy192 2.738 . S
C214 O197 1.255 . S
C214 O198 1.249 . S
C214 C208 1.516 . S
C215 O199 1.254 . S
C215 O200 1.257 . S
C216 O201 1.266 1_556 S
C216 O202 1.236 . S
C217 C220 1.344 . S
C217 C221 1.328 . S
C217 C223 1.516 . S
C218 C219 1.304 . S
C218 C222 1.323 . S
C219 C218 1.304 . S
C219 C220 1.371 . S
C219 H228 0.930 . S
C220 C217 1.344 . S
C220 C219 1.371 . S
C220 H229 0.931 . S
C221 C217 1.328 . S
C221 C222 1.433 . S
C221 H230 0.931 . S
C222 C218 1.323 . S
C222 C221 1.433 . S
C222 H231 0.933 . S
C223 Dy193 2.738 . S
C223 O203 1.255 . S
C223 O204 1.249 . S
C223 C217 1.516 . S
H224 C210 0.930 . S
H225 C211 0.931 . S
H226 C212 0.931 . S
H227 C213 0.933 . S
H228 C219 0.930 . S
H229 C220 0.931 . S
H230 C221 0.931 . S
H231 C222 0.933 . S
C232 C233 1.363 . S
C232 C238 1.379 . S
C232 N240 1.356 . S
C233 C232 1.363 . S
C233 C239 1.363 . S
C234 C235 1.363 . S
C234 C239 1.379 . S
C234 N241 1.356 . S
C235 C234 1.363 . S
C235 C238 1.363 . S
N236 C238 1.356 . S
N236 H248 0.984 . S
N236 H249 0.985 . S
N237 C239 1.356 . S
N237 H242 0.984 . S
N237 H243 0.985 . S
C238 C232 1.379 . S
C238 C235 1.363 . S
C238 N236 1.356 . S
C239 C233 1.363 . S
C239 C234 1.379 . S
C239 N237 1.356 . S
N240 C232 1.356 . S
N240 H246 0.984 . S
N240 H247 0.984 . S
N241 C234 1.356 . S
N241 H244 0.984 . S
N241 H245 0.985 . S
H242 N237 0.984 . S
H243 N237 0.985 . S
H244 N241 0.984 . S
H245 N241 0.985 . S
H246 N240 0.984 . S
H247 N240 0.984 . S
H248 N236 0.984 . S
H249 N236 0.985 . S
C250 C251 1.363 . S
C250 C256 1.379 . S
C250 N258 1.356 . S
C251 C250 1.363 . S
C251 C257 1.363 . S
C252 C253 1.363 . S
C252 C257 1.379 . S
C252 N259 1.356 . S
C253 C252 1.363 . S
C253 C256 1.363 . S
N254 C256 1.356 . S
N254 H266 0.984 . S
N254 H267 0.985 . S
N255 C257 1.356 . S
N255 H260 0.984 . S
N255 H261 0.985 . S
C256 C250 1.379 . S
C256 C253 1.363 . S
C256 N254 1.356 . S
C257 C251 1.363 . S
C257 C252 1.379 . S
C257 N255 1.356 . S
N258 C250 1.356 . S
N258 H264 0.984 . S
N258 H265 0.984 . S
N259 C252 1.356 . S
N259 H262 0.984 . S
N259 H263 0.985 . S
H260 N255 0.984 . S
H261 N255 0.985 . S
H262 N259 0.984 . S
H263 N259 0.985 . S
H264 N258 0.984 . S
H265 N258 0.984 . S
H266 N254 0.984 . S
H267 N254 0.985 . S
C268 C269 1.363 . S
C268 C274 1.379 . S
C268 N276 1.356 . S
C269 C268 1.363 . S
C269 C275 1.363 . S
C270 C271 1.363 . S
C270 C275 1.379 . S
C270 N277 1.356 . S
C271 C270 1.363 . S
C271 C274 1.363 . S
N272 C274 1.356 . S
N272 H284 0.984 . S
N272 H285 0.985 . S
N273 C275 1.356 . S
N273 H278 0.984 . S
N273 H279 0.985 . S
C274 C268 1.379 . S
C274 C271 1.363 . S
C274 N272 1.356 . S
C275 C269 1.363 . S
C275 C270 1.379 . S
C275 N273 1.356 . S
N276 C268 1.356 . S
N276 H282 0.984 . S
N276 H283 0.984 . S
N277 C270 1.356 . S
N277 H280 0.984 . S
N277 H281 0.985 . S
H278 N273 0.984 . S
H279 N273 0.985 . S
H280 N277 0.984 . S
H281 N277 0.985 . S
H282 N276 0.984 . S
H283 N276 0.984 . S
H284 N272 0.984 . S
H285 N272 0.985 . S
C286 C287 1.363 . S
C286 C292 1.379 . S
C286 N294 1.356 . S
C287 C286 1.363 . S
C287 C293 1.363 . S
C288 C289 1.363 . S
C288 C293 1.379 . S
C288 N295 1.356 . S
C289 C288 1.363 . S
C289 C292 1.363 . S
N290 C292 1.356 1_455 S
N290 H302 0.984 . S
N290 H303 0.985 . S
N291 C293 1.356 . S
N291 H296 0.984 . S
N291 H297 0.985 . S
C292 C286 1.379 . S
C292 C289 1.363 . S
C292 N290 1.356 1_655 S
C293 C287 1.363 . S
C293 C288 1.379 . S
C293 N291 1.356 . S
N294 C286 1.356 . S
N294 H300 0.984 1_655 S
N294 H301 0.984 . S
N295 C288 1.356 . S
N295 H298 0.984 . S
N295 H299 0.985 . S
H296 N291 0.984 . S
H297 N291 0.985 . S
H298 N295 0.984 . S
H299 N295 0.985 . S
H300 N294 0.984 1_455 S
H301 N294 0.984 . S
H302 N290 0.984 . S
H303 N290 0.985 . S
C304 C305 1.363 . S
C304 C310 1.379 . S
C304 N312 1.356 . S
C305 C304 1.363 . S
C305 C311 1.363 . S
C306 C307 1.363 . S
C306 C311 1.379 . S
C306 N313 1.356 . S
C307 C306 1.363 . S
C307 C310 1.363 . S
N308 C310 1.356 . S
N308 H320 0.984 . S
N308 H321 0.985 . S
N309 C311 1.356 . S
N309 H314 0.984 . S
N309 H315 0.985 . S
C310 C304 1.379 . S
C310 C307 1.363 . S
C310 N308 1.356 . S
C311 C305 1.363 . S
C311 C306 1.379 . S
C311 N309 1.356 . S
N312 C304 1.356 . S
N312 H318 0.984 . S
N312 H319 0.984 . S
N313 C306 1.356 . S
N313 H316 0.984 . S
N313 H317 0.985 . S
H314 N309 0.984 . S
H315 N309 0.985 . S
H316 N313 0.984 . S
H317 N313 0.985 . S
H318 N312 0.984 . S
H319 N312 0.984 . S
H320 N308 0.984 . S
H321 N308 0.985 . S
C322 C323 1.363 . S
C322 C328 1.379 . S
C322 N330 1.356 . S
C323 C322 1.363 . S
C323 C329 1.363 . S
C324 C325 1.363 . S
C324 C329 1.379 . S
C324 N331 1.356 . S
C325 C324 1.363 . S
C325 C328 1.363 . S
N326 C328 1.356 . S
N326 H338 0.984 . S
N326 H339 0.985 . S
N327 C329 1.356 . S
N327 H332 0.984 . S
N327 H333 0.985 . S
C328 C322 1.379 . S
C328 C325 1.363 . S
C328 N326 1.356 . S
C329 C323 1.363 . S
C329 C324 1.379 . S
C329 N327 1.356 . S
N330 C322 1.356 . S
N330 H336 0.984 . S
N330 H337 0.984 . S
N331 C324 1.356 . S
N331 H334 0.984 . S
N331 H335 0.985 . S
H332 N327 0.984 . S
H333 N327 0.985 . S
H334 N331 0.984 . S
H335 N331 0.985 . S
H336 N330 0.984 . S
H337 N330 0.984 . S
H338 N326 0.984 . S
H339 N326 0.985 . S
C340 C341 1.363 . S
C340 C346 1.379 . S
C340 N348 1.356 . S
C341 C340 1.363 . S
C341 C347 1.363 . S
C342 C343 1.363 . S
C342 C347 1.379 . S
C342 N349 1.356 . S
C343 C342 1.363 . S
C343 C346 1.363 . S
N344 C346 1.356 . S
N344 H356 0.984 1_556 S
N344 H357 0.985 1_556 S
N345 C347 1.356 . S
N345 H350 0.984 . S
N345 H351 0.985 . S
C346 C340 1.379 . S
C346 C343 1.363 . S
C346 N344 1.356 . S
C347 C341 1.363 . S
C347 C342 1.379 . S
C347 N345 1.356 . S
N348 C340 1.356 . S
N348 H354 0.984 . S
N348 H355 0.984 . S
N349 C342 1.356 . S
N349 H352 0.984 . S
N349 H353 0.985 . S
H350 N345 0.984 . S
H351 N345 0.985 . S
H352 N349 0.984 . S
H353 N349 0.985 . S
H354 N348 0.984 . S
H355 N348 0.984 . S
H356 N344 0.984 1_554 S
H357 N344 0.985 1_554 S
C358 C359 1.363 . S
C358 C364 1.379 . S
C358 N366 1.356 . S
C359 C358 1.363 . S
C359 C365 1.363 . S
C360 C361 1.363 . S
C360 C365 1.379 . S
C360 N367 1.356 . S
C361 C360 1.363 . S
C361 C364 1.363 . S
N362 C364 1.356 . S
N362 H374 0.984 . S
N362 H375 0.985 . S
N363 C365 1.356 . S
N363 H368 0.984 . S
N363 H369 0.985 . S
C364 C358 1.379 . S
C364 C361 1.363 . S
C364 N362 1.356 . S
C365 C359 1.363 . S
C365 C360 1.379 . S
C365 N363 1.356 . S
N366 C358 1.356 . S
N366 H372 0.984 . S
N366 H373 0.984 . S
N367 C360 1.356 . S
N367 H370 0.984 . S
N367 H371 0.985 . S
H368 N363 0.984 . S
H369 N363 0.985 . S
H370 N367 0.984 . S
H371 N367 0.985 . S
H372 N366 0.984 . S
H373 N366 0.984 . S
H374 N362 0.984 . S
H375 N362 0.985 . S
C376 C377 1.363 . S
C376 C382 1.379 . S
C376 N384 1.356 . S
C377 C376 1.363 . S
C377 C383 1.363 . S
C378 C379 1.363 . S
C378 C383 1.379 . S
C378 N385 1.356 . S
C379 C378 1.363 . S
C379 C382 1.363 . S
N380 C382 1.356 . S
N380 H392 0.984 . S
N380 H393 0.985 . S
N381 C383 1.356 . S
N381 H386 0.984 . S
N381 H387 0.985 . S
C382 C376 1.379 . S
C382 C379 1.363 . S
C382 N380 1.356 . S
C383 C377 1.363 . S
C383 C378 1.379 . S
C383 N381 1.356 . S
N384 C376 1.356 . S
N384 H390 0.984 . S
N384 H391 0.984 . S
N385 C378 1.356 . S
N385 H388 0.984 . S
N385 H389 0.985 . S
H386 N381 0.984 . S
H387 N381 0.985 . S
H388 N385 0.984 . S
H389 N385 0.985 . S
H390 N384 0.984 . S
H391 N384 0.984 . S
H392 N380 0.984 . S
H393 N380 0.985 . S
C394 C395 1.363 . S
C394 C400 1.379 . S
C394 N402 1.356 . S
C395 C394 1.363 . S
C395 C401 1.363 . S
C396 C397 1.363 . S
C396 C401 1.379 . S
C396 N403 1.356 . S
C397 C396 1.363 . S
C397 C400 1.363 . S
N398 C400 1.356 . S
N398 H410 0.984 . S
N398 H411 0.985 . S
N399 C401 1.356 . S
N399 H404 0.984 . S
N399 H405 0.985 . S
C400 C394 1.379 . S
C400 C397 1.363 . S
C400 N398 1.356 . S
C401 C395 1.363 . S
C401 C396 1.379 . S
C401 N399 1.356 . S
N402 C394 1.356 . S
N402 H408 0.984 . S
N402 H409 0.984 . S
N403 C396 1.356 . S
N403 H406 0.984 . S
N403 H407 0.985 . S
H404 N399 0.984 . S
H405 N399 0.985 . S
H406 N403 0.984 . S
H407 N403 0.985 . S
H408 N402 0.984 . S
H409 N402 0.984 . S
H410 N398 0.984 . S
H411 N398 0.985 . S
C412 C413 1.363 . S
C412 C418 1.379 . S
C412 N420 1.356 . S
C413 C412 1.363 . S
C413 C419 1.363 . S
C414 C415 1.363 . S
C414 C419 1.379 . S
C414 N421 1.356 . S
C415 C414 1.363 . S
C415 C418 1.363 . S
N416 C418 1.356 . S
N416 H428 0.984 . S
N416 H429 0.985 . S
N417 C419 1.356 . S
N417 H422 0.984 . S
N417 H423 0.985 . S
C418 C412 1.379 . S
C418 C415 1.363 . S
C418 N416 1.356 . S
C419 C413 1.363 . S
C419 C414 1.379 . S
C419 N417 1.356 . S
N420 C412 1.356 . S
N420 H426 0.984 . S
N420 H427 0.984 . S
N421 C414 1.356 . S
N421 H424 0.984 . S
N421 H425 0.985 . S
H422 N417 0.984 . S
H423 N417 0.985 . S
H424 N421 0.984 . S
H425 N421 0.985 . S
H426 N420 0.984 . S
H427 N420 0.984 . S
H428 N416 0.984 . S
H429 N416 0.985 . S
C430 C431 1.363 . S
C430 C436 1.379 . S
C430 N438 1.356 . S
C431 C430 1.363 . S
C431 C437 1.363 . S
C432 C433 1.363 . S
C432 C437 1.379 . S
C432 N439 1.356 . S
C433 C432 1.363 . S
C433 C436 1.363 . S
N434 C436 1.356 . S
N434 H446 0.984 . S
N434 H447 0.985 . S
N435 C437 1.356 . S
N435 H440 0.984 . S
N435 H441 0.985 . S
C436 C430 1.379 . S
C436 C433 1.363 . S
C436 N434 1.356 . S
C437 C431 1.363 . S
C437 C432 1.379 . S
C437 N435 1.356 . S
N438 C430 1.356 . S
N438 H444 0.984 . S
N438 H445 0.984 . S
N439 C432 1.356 . S
N439 H442 0.984 . S
N439 H443 0.985 . S
H440 N435 0.984 . S
H441 N435 0.985 . S
H442 N439 0.984 . S
H443 N439 0.985 . S
H444 N438 0.984 . S
H445 N438 0.984 . S
H446 N434 0.984 . S
H447 N434 0.985 . S
C448 C449 1.363 . S
C448 C454 1.379 . S
C448 N456 1.356 . S
C449 C448 1.363 . S
C449 C455 1.363 . S
C450 C451 1.363 . S
C450 C455 1.379 . S
C450 N457 1.356 . S
C451 C450 1.363 . S
C451 C454 1.363 . S
N452 C454 1.356 . S
N452 H464 0.984 . S
N452 H465 0.985 . S
N453 C455 1.356 . S
N453 H458 0.984 . S
N453 H459 0.985 . S
C454 C448 1.379 . S
C454 C451 1.363 . S
C454 N452 1.356 . S
C455 C449 1.363 . S
C455 C450 1.379 . S
C455 N453 1.356 . S
N456 C448 1.356 . S
N456 H462 0.984 . S
N456 H463 0.984 . S
N457 C450 1.356 . S
N457 H460 0.984 . S
N457 H461 0.985 . S
H458 N453 0.984 . S
H459 N453 0.985 . S
H460 N457 0.984 . S
H461 N457 0.985 . S
H462 N456 0.984 . S
H463 N456 0.984 . S
H464 N452 0.984 . S
H465 N452 0.985 . S
C466 C467 1.363 . S
C466 C472 1.379 . S
C466 N474 1.356 . S
C467 C466 1.363 . S
C467 C473 1.363 . S
C468 C469 1.363 . S
C468 C473 1.379 . S
C468 N475 1.356 . S
C469 C468 1.363 . S
C469 C472 1.363 . S
N470 C472 1.356 . S
N470 H482 0.984 . S
N470 H483 0.985 . S
N471 C473 1.356 . S
N471 H476 0.984 . S
N471 H477 0.985 . S
C472 C466 1.379 . S
C472 C469 1.363 . S
C472 N470 1.356 . S
C473 C467 1.363 . S
C473 C468 1.379 . S
C473 N471 1.356 . S
N474 C466 1.356 . S
N474 H480 0.984 . S
N474 H481 0.984 . S
N475 C468 1.356 . S
N475 H478 0.984 . S
N475 H479 0.985 . S
H476 N471 0.984 . S
H477 N471 0.985 . S
H478 N475 0.984 . S
H479 N475 0.985 . S
H480 N474 0.984 . S
H481 N474 0.984 . S
H482 N470 0.984 . S
H483 N470 0.985 . S
C484 C485 1.363 . S
C484 C490 1.379 . S
C484 N492 1.356 . S
C485 C484 1.363 . S
C485 C491 1.363 . S
C486 C487 1.363 . S
C486 C491 1.379 . S
C486 N493 1.356 . S
C487 C486 1.363 . S
C487 C490 1.363 . S
N488 C490 1.356 . S
N488 H500 0.984 . S
N488 H501 0.985 . S
N489 C491 1.356 . S
N489 H494 0.984 . S
N489 H495 0.985 . S
C490 C484 1.379 . S
C490 C487 1.363 . S
C490 N488 1.356 . S
C491 C485 1.363 . S
C491 C486 1.379 . S
C491 N489 1.356 . S
N492 C484 1.356 . S
N492 H498 0.984 . S
N492 H499 0.984 . S
N493 C486 1.356 . S
N493 H496 0.984 . S
N493 H497 0.985 . S
H494 N489 0.984 . S
H495 N489 0.985 . S
H496 N493 0.984 . S
H497 N493 0.985 . S
H498 N492 0.984 . S
H499 N492 0.984 . S
H500 N488 0.984 . S
H501 N488 0.985 . S
C502 C503 1.363 . S
C502 C508 1.379 . S
C502 N510 1.356 . S
C503 C502 1.363 . S
C503 C509 1.363 . S
C504 C505 1.363 . S
C504 C509 1.379 . S
C504 N511 1.356 . S
C505 C504 1.363 . S
C505 C508 1.363 . S
N506 C508 1.356 . S
N506 H518 0.984 . S
N506 H519 0.985 . S
N507 C509 1.356 . S
N507 H512 0.984 . S
N507 H513 0.985 . S
C508 C502 1.379 . S
C508 C505 1.363 . S
C508 N506 1.356 . S
C509 C503 1.363 . S
C509 C504 1.379 . S
C509 N507 1.356 . S
N510 C502 1.356 . S
N510 H516 0.984 . S
N510 H517 0.984 . S
N511 C504 1.356 . S
N511 H514 0.984 . S
N511 H515 0.985 . S
H512 N507 0.984 . S
H513 N507 0.985 . S
H514 N511 0.984 . S
H515 N511 0.985 . S
H516 N510 0.984 . S
H517 N510 0.984 . S
H518 N506 0.984 . S
H519 N506 0.985 . S
C520 C521 1.363 . S
C520 C526 1.379 . S
C520 N528 1.356 . S
C521 C520 1.363 . S
C521 C527 1.363 . S
C522 C523 1.363 . S
C522 C527 1.379 . S
C522 N529 1.356 . S
C523 C522 1.363 . S
C523 C526 1.363 . S
N524 C526 1.356 . S
N524 H536 0.984 . S
N524 H537 0.985 . S
N525 C527 1.356 . S
N525 H530 0.984 . S
N525 H531 0.985 . S
C526 C520 1.379 . S
C526 C523 1.363 . S
C526 N524 1.356 . S
C527 C521 1.363 . S
C527 C522 1.379 . S
C527 N525 1.356 . S
N528 C520 1.356 . S
N528 H534 0.984 . S
N528 H535 0.984 . S
N529 C522 1.356 . S
N529 H532 0.984 . S
N529 H533 0.985 . S
H530 N525 0.984 . S
H531 N525 0.985 . S
H532 N529 0.984 . S
H533 N529 0.985 . S
H534 N528 0.984 . S
H535 N528 0.984 . S
H536 N524 0.984 . S
H537 N524 0.985 . S
C538 C539 1.363 1_455 S
C538 C544 1.379 . S
C538 N546 1.356 . S
C539 C538 1.363 1_655 S
C539 C545 1.363 . S
C540 C541 1.363 . S
C540 C545 1.379 . S
C540 N547 1.356 . S
C541 C540 1.363 . S
C541 C544 1.363 1_655 S
N542 C544 1.356 . S
N542 H554 0.984 . S
N542 H555 0.985 . S
N543 C545 1.356 . S
N543 H548 0.984 . S
N543 H549 0.985 . S
C544 C538 1.379 . S
C544 C541 1.363 1_455 S
C544 N542 1.356 . S
C545 C539 1.363 . S
C545 C540 1.379 . S
C545 N543 1.356 . S
N546 C538 1.356 . S
N546 H552 0.984 . S
N546 H553 0.984 . S
N547 C540 1.356 . S
N547 H550 0.984 . S
N547 H551 0.985 . S
H548 N543 0.984 . S
H549 N543 0.985 . S
H550 N547 0.984 . S
H551 N547 0.985 . S
H552 N546 0.984 . S
H553 N546 0.984 . S
H554 N542 0.984 . S
H555 N542 0.985 . S
C556 C557 1.363 . S
C556 C562 1.379 . S
C556 N564 1.356 . S
C557 C556 1.363 . S
C557 C563 1.363 . S
C558 C559 1.363 . S
C558 C563 1.379 . S
C558 N565 1.356 . S
C559 C558 1.363 . S
C559 C562 1.363 . S
N560 C562 1.356 . S
N560 H572 0.984 . S
N560 H573 0.985 . S
N561 C563 1.356 . S
N561 H566 0.984 . S
N561 H567 0.985 . S
C562 C556 1.379 . S
C562 C559 1.363 . S
C562 N560 1.356 . S
C563 C557 1.363 . S
C563 C558 1.379 . S
C563 N561 1.356 . S
N564 C556 1.356 . S
N564 H570 0.984 . S
N564 H571 0.984 . S
N565 C558 1.356 . S
N565 H568 0.984 . S
N565 H569 0.985 . S
H566 N561 0.984 . S
H567 N561 0.985 . S
H568 N565 0.984 . S
H569 N565 0.985 . S
H570 N564 0.984 . S
H571 N564 0.984 . S
H572 N560 0.984 . S
H573 N560 0.985 . S
C574 C575 1.363 . S
C574 C580 1.379 . S
C574 N582 1.356 . S
C575 C574 1.363 . S
C575 C581 1.363 . S
C576 C577 1.363 . S
C576 C581 1.379 . S
C576 N583 1.356 . S
C577 C576 1.363 . S
C577 C580 1.363 . S
N578 C580 1.356 . S
N578 H590 0.984 . S
N578 H591 0.985 . S
N579 C581 1.356 . S
N579 H584 0.984 . S
N579 H585 0.985 . S
C580 C574 1.379 . S
C580 C577 1.363 . S
C580 N578 1.356 . S
C581 C575 1.363 . S
C581 C576 1.379 . S
C581 N579 1.356 . S
N582 C574 1.356 . S
N582 H588 0.984 . S
N582 H589 0.984 . S
N583 C576 1.356 . S
N583 H586 0.984 . S
N583 H587 0.985 . S
H584 N579 0.984 . S
H585 N579 0.985 . S
H586 N583 0.984 . S
H587 N583 0.985 . S
H588 N582 0.984 . S
H589 N582 0.984 . S
H590 N578 0.984 . S
H591 N578 0.985 . S
C592 C593 1.363 . S
C592 C598 1.379 . S
C592 N600 1.356 . S
C593 C592 1.363 . S
C593 C599 1.363 . S
C594 C595 1.363 . S
C594 C599 1.379 . S
C594 N601 1.356 . S
C595 C594 1.363 . S
C595 C598 1.363 . S
N596 C598 1.356 . S
N596 H608 0.984 . S
N596 H609 0.985 . S
N597 C599 1.356 . S
N597 H602 0.984 . S
N597 H603 0.985 . S
C598 C592 1.379 . S
C598 C595 1.363 . S
C598 N596 1.356 . S
C599 C593 1.363 . S
C599 C594 1.379 . S
C599 N597 1.356 . S
N600 C592 1.356 . S
N600 H606 0.984 . S
N600 H607 0.984 . S
N601 C594 1.356 . S
N601 H604 0.984 . S
N601 H605 0.985 . S
H602 N597 0.984 . S
H603 N597 0.985 . S
H604 N601 0.984 . S
H605 N601 0.985 . S
H606 N600 0.984 . S
H607 N600 0.984 . S
H608 N596 0.984 . S
H609 N596 0.985 . S
C610 C611 1.363 . S
C610 C616 1.379 . S
C610 N618 1.356 . S
C611 C610 1.363 . S
C611 C617 1.363 . S
C612 C613 1.363 . S
C612 C617 1.379 . S
C612 N619 1.356 . S
C613 C612 1.363 . S
C613 C616 1.363 . S
N614 C616 1.356 . S
N614 H626 0.984 . S
N614 H627 0.985 . S
N615 C617 1.356 . S
N615 H620 0.984 . S
N615 H621 0.985 . S
C616 C610 1.379 . S
C616 C613 1.363 . S
C616 N614 1.356 . S
C617 C611 1.363 . S
C617 C612 1.379 . S
C617 N615 1.356 . S
N618 C610 1.356 . S
N618 H624 0.984 . S
N618 H625 0.984 . S
N619 C612 1.356 . S
N619 H622 0.984 . S
N619 H623 0.985 . S
H620 N615 0.984 . S
H621 N615 0.985 . S
H622 N619 0.984 . S
H623 N619 0.985 . S
H624 N618 0.984 . S
H625 N618 0.984 . S
H626 N614 0.984 . S
H627 N614 0.985 . S
C628 C629 1.363 . S
C628 C634 1.379 . S
C628 N636 1.356 . S
C629 C628 1.363 . S
C629 C635 1.363 . S
C630 C631 1.363 . S
C630 C635 1.379 . S
C630 N637 1.356 . S
C631 C630 1.363 . S
C631 C634 1.363 . S
N632 C634 1.356 . S
N632 H644 0.984 . S
N632 H645 0.985 . S
N633 C635 1.356 . S
N633 H638 0.984 . S
N633 H639 0.985 . S
C634 C628 1.379 . S
C634 C631 1.363 . S
C634 N632 1.356 . S
C635 C629 1.363 . S
C635 C630 1.379 . S
C635 N633 1.356 . S
N636 C628 1.356 . S
N636 H642 0.984 . S
N636 H643 0.984 . S
N637 C630 1.356 . S
N637 H640 0.984 . S
N637 H641 0.985 . S
H638 N633 0.984 . S
H639 N633 0.985 . S
H640 N637 0.984 . S
H641 N637 0.985 . S
H642 N636 0.984 . S
H643 N636 0.984 . S
H644 N632 0.984 . S
H645 N632 0.985 . S
C646 C647 1.363 . S
C646 C652 1.379 . S
C646 N654 1.356 . S
C647 C646 1.363 . S
C647 C653 1.363 . S
C648 C649 1.363 . S
C648 C653 1.379 . S
C648 N655 1.356 . S
C649 C648 1.363 . S
C649 C652 1.363 . S
N650 C652 1.356 . S
N650 H662 0.984 . S
N650 H663 0.985 . S
N651 C653 1.356 . S
N651 H656 0.984 . S
N651 H657 0.985 . S
C652 C646 1.379 . S
C652 C649 1.363 . S
C652 N650 1.356 . S
C653 C647 1.363 . S
C653 C648 1.379 . S
C653 N651 1.356 . S
N654 C646 1.356 . S
N654 H660 0.984 . S
N654 H661 0.984 . S
N655 C648 1.356 . S
N655 H658 0.984 . S
N655 H659 0.985 . S
H656 N651 0.984 . S
H657 N651 0.985 . S
H658 N655 0.984 . S
H659 N655 0.985 . S
H660 N654 0.984 . S
H661 N654 0.984 . S
H662 N650 0.984 . S
H663 N650 0.985 . S
C233 C5 0.984 . S
C235 C89 1.010 . S
C251 C14 0.970 . S
C253 C129 1.003 . S
C271 C154 2.505 . S
C269 C25 2.564 . S
C287 C34 2.562 . S
C289 C194 2.503 . S
C307 C125 1.549 . S
C305 C7 1.441 . S
C325 C85 1.565 . S
C323 C13 1.451 . S
C343 C216 1.827 . S
C341 C23 1.871 . S
C361 C176 1.825 . S
C359 C31 1.870 . S
C377 C4 1.301 . S
C379 C218 1.341 . S
C397 C135 2.237 . S
C395 C22 2.284 . S
C413 C32 2.295 . S
C415 C95 2.249 . S
C431 C16 1.281 . S
C433 C178 1.336 . S
C451 C98 1.003 . S
C449 C41 0.975 . S
C467 C50 0.977 . S
C469 C138 1.008 . S
C485 C61 2.558 . S
C487 C175 2.501 . S
C503 C67 2.569 . S
C505 C215 2.511 . S
C521 C40 1.458 . S
C523 C136 1.564 . S
C541 C96 1.550 . S
C539 C52 1.430 . S
C559 C205 1.831 . S
C557 C59 1.875 . S
C577 C165 1.824 . S
C575 C70 1.865 . S
C593 C43 1.289 . S
C595 C209 1.335 . S
C613 C114 2.248 . S
C611 C58 2.295 . S
C631 C74 2.235 . S
C629 C68 2.277 . S
C647 C49 1.296 . S
C649 C169 1.341 . S
