# Generated by pormake.
# Topology zzz, (3,6)-cn, num edge types: 1
# Building blocks:
#     Node 0, Type 0, BuildingBlock: KAKCAD_clean_linker_0, # of connection points: 3
#     Node 1, Type 0, BuildingBlock: KAKCAD_clean_linker_0, # of connection points: 3
#     Node 2, Type 0, BuildingBlock: KAKCAD_clean_linker_0, # of connection points: 3
#     Node 3, Type 0, BuildingBlock: KAKCAD_clean_linker_0, # of connection points: 3
#     Node 4, Type 0, BuildingBlock: KAKCAD_clean_linker_0, # of connection points: 3
#     Node 5, Type 0, BuildingBlock: KAKCAD_clean_linker_0, # of connection points: 3
#     Node 6, Type 0, BuildingBlock: KAKCAD_clean_linker_0, # of connection points: 3
#     Node 7, Type 0, BuildingBlock: KAKCAD_clean_linker_0, # of connection points: 3
#     Node 8, Type 1, BuildingBlock: INOVEN_clean_sbu_0, # of connection points: 6
#     Node 9, Type 1, BuildingBlock: INOVEN_clean_sbu_0, # of connection points: 6
#     Node 10, Type 1, BuildingBlock: INOVEN_clean_sbu_0, # of connection points: 6
#     Node 11, Type 1, BuildingBlock: INOVEN_clean_sbu_0, # of connection points: 6
#     Edge 12, Type (0, 1), BuildingBlock: OJICUG_clean_linker_0, # of connection points: 2
#     Edge 13, Type (0, 1), BuildingBlock: OJICUG_clean_linker_0, # of connection points: 2
#     Edge 14, Type (0, 1), BuildingBlock: OJICUG_clean_linker_0, # of connection points: 2
#     Edge 15, Type (0, 1), BuildingBlock: OJICUG_clean_linker_0, # of connection points: 2
#     Edge 16, Type (0, 1), BuildingBlock: OJICUG_clean_linker_0, # of connection points: 2
#     Edge 17, Type (0, 1), BuildingBlock: OJICUG_clean_linker_0, # of connection points: 2
#     Edge 18, Type (0, 1), BuildingBlock: OJICUG_clean_linker_0, # of connection points: 2
#     Edge 19, Type (0, 1), BuildingBlock: OJICUG_clean_linker_0, # of connection points: 2
#     Edge 20, Type (0, 1), BuildingBlock: OJICUG_clean_linker_0, # of connection points: 2
#     Edge 21, Type (0, 1), BuildingBlock: OJICUG_clean_linker_0, # of connection points: 2
#     Edge 22, Type (0, 1), BuildingBlock: OJICUG_clean_linker_0, # of connection points: 2
#     Edge 23, Type (0, 1), BuildingBlock: OJICUG_clean_linker_0, # of connection points: 2
#     Edge 24, Type (0, 1), BuildingBlock: OJICUG_clean_linker_0, # of connection points: 2
#     Edge 25, Type (0, 1), BuildingBlock: OJICUG_clean_linker_0, # of connection points: 2
#     Edge 26, Type (0, 1), BuildingBlock: OJICUG_clean_linker_0, # of connection points: 2
#     Edge 27, Type (0, 1), BuildingBlock: OJICUG_clean_linker_0, # of connection points: 2
#     Edge 28, Type (0, 1), BuildingBlock: OJICUG_clean_linker_0, # of connection points: 2
#     Edge 29, Type (0, 1), BuildingBlock: OJICUG_clean_linker_0, # of connection points: 2
#     Edge 30, Type (0, 1), BuildingBlock: OJICUG_clean_linker_0, # of connection points: 2
#     Edge 31, Type (0, 1), BuildingBlock: OJICUG_clean_linker_0, # of connection points: 2
#     Edge 32, Type (0, 1), BuildingBlock: OJICUG_clean_linker_0, # of connection points: 2
#     Edge 33, Type (0, 1), BuildingBlock: OJICUG_clean_linker_0, # of connection points: 2
#     Edge 34, Type (0, 1), BuildingBlock: OJICUG_clean_linker_0, # of connection points: 2
#     Edge 35, Type (0, 1), BuildingBlock: OJICUG_clean_linker_0, # of connection points: 2
# Relax obj value: 0.481
# Max RMSD: 0.263
# Mean RMSD: 0.252
data_MOF--net-zzz--node1-INOVEN_clean_sbu_0--node2-KAKCAD_clean_linker_0--edge1-OJICUG_clean_linker_0
_symmetry_space_group_name_H-M    P1
_symmetry_Int_Tables_number       1
_symmetry_cell_setting            triclinic
loop_
_symmetry_equiv_pos_as_xyz
'x, y, z'
_cell_length_a     46.470187
_cell_length_b     46.454736
_cell_length_c     14.356805
_cell_angle_alpha  89.875476
_cell_angle_beta   89.912014
_cell_angle_gamma 89.989774
loop_
_atom_site_label
_atom_site_type_symbol
_atom_site_fract_x
_atom_site_fract_y
_atom_site_fract_z
_atom_type_partial_charge
C0 C 0.77813 0.39611 0.06766 0.0
C1 C 0.80306 0.38339 0.10533 0.0
C2 C 0.75917 0.4113 0.12494 0.0
C3 C 0.76402 0.4128 0.22154 0.0
C4 C 0.78509 0.39467 0.2603 0.0
C5 C 0.80477 0.38053 0.20288 0.0
C6 C 0.75193 0.43716 0.27699 0.0
C7 C 0.72519 0.44937 0.25526 0.0
C8 C 0.71669 0.47612 0.29225 0.0
C9 C 0.73536 0.49047 0.35531 0.0
C10 C 0.76159 0.47736 0.38272 0.0
C11 C 0.76949 0.45111 0.34222 0.0
C12 C 0.78279 0.49039 0.44872 0.0
C13 C 0.79861 0.515 0.42376 0.0
C14 C 0.79243 0.47392 0.52499 0.0
C15 C 0.81823 0.48054 0.57072 0.0
C16 C 0.83535 0.50395 0.54181 0.0
C17 C 0.68924 0.48891 0.25638 0.0
C18 C 0.689 0.51585 0.21175 0.0
C19 C 0.66442 0.47165 0.25023 0.0
C20 C 0.64105 0.47983 0.19452 0.0
C21 C 0.64157 0.50577 0.14346 0.0
C22 C 0.66545 0.52422 0.15627 0.0
C23 C 0.8245 0.52175 0.46988 0.0
H24 H 0.77492 0.39717 0.99307 0.0
H25 H 0.74272 0.42421 0.09176 0.0
H26 H 0.7884 0.39385 0.33492 0.0
H27 H 0.82298 0.37026 0.23599 0.0
H28 H 0.71142 0.43869 0.20528 0.0
H29 H 0.79063 0.44253 0.35789 0.0
H30 H 0.72941 0.51126 0.38341 0.0
H31 H 0.79208 0.52784 0.36439 0.0
H32 H 0.78099 0.45453 0.54493 0.0
H33 H 0.82561 0.46603 0.62473 0.0
H34 H 0.70777 0.52964 0.21465 0.0
H35 H 0.66385 0.45084 0.28419 0.0
H36 H 0.83655 0.54035 0.44653 0.0
H37 H 0.66652 0.54475 0.12072 0.0
H38 H 0.62343 0.46479 0.18729 0.0
C39 C 0.12386 0.78945 0.09031 0.0
C40 C 0.14285 0.80719 0.14058 0.0
C41 C 0.10825 0.76794 0.13571 0.0
C42 C 0.11126 0.76391 0.23207 0.0
C43 C 0.1335 0.77834 0.2789 0.0
C44 C 0.14941 0.79965 0.23317 0.0
C45 C 0.08701 0.75113 0.28492 0.0
C46 C 0.07401 0.72555 0.25587 0.0
C47 C 0.0471 0.7169 0.29146 0.0
C48 C 0.03286 0.73498 0.35685 0.0
C49 C 0.04652 0.76038 0.38949 0.0
C50 C 0.07358 0.76777 0.35343 0.0
C51 C 0.03305 0.78157 0.4548 0.0
C52 C 1.00871 0.79749 0.42801 0.0
C53 C 0.04882 0.79107 0.53257 0.0
C54 C 0.04187 0.8169 0.57785 0.0
C55 C 0.01884 0.83415 0.54696 0.0
C56 C 0.03431 0.68983 0.2529 0.0
C57 C 1.00735 0.68986 0.20871 0.0
C58 C 0.05153 0.66502 0.24524 0.0
C59 C 0.04323 0.64184 0.18907 0.0
C60 C 0.0172 0.64254 0.13888 0.0
C61 C 0.99888 0.6665 0.15262 0.0
C62 C 1.00166 0.8234 0.47359 0.0
H63 H 0.11821 0.79432 0.01887 0.0
H64 H 0.09133 0.75707 0.09765 0.0
H65 H 0.13661 0.77516 0.35299 0.0
H66 H 0.16463 0.81222 0.2731 0.0
H67 H 0.08433 0.713 0.20164 0.0
H68 H 0.08324 0.78808 0.37363 0.0
H69 H 0.01171 0.72923 0.3826 0.0
H70 H 0.99638 0.79106 0.36758 0.0
H71 H 0.06795 0.77953 0.55416 0.0
H72 H 0.05588 0.82419 0.63314 0.0
H73 H 0.9936 0.70864 0.21278 0.0
H74 H 0.07236 0.66424 0.27874 0.0
H75 H 0.98334 0.83557 0.44872 0.0
H76 H 0.97831 0.66773 0.11759 0.0
H77 H 0.05821 0.62419 0.18098 0.0
C78 C 0.73242 0.1203 0.07957 0.0
C79 C 0.71657 0.14208 0.12496 0.0
C80 C 0.75364 0.105 0.12698 0.0
C81 C 0.75923 0.11086 0.22089 0.0
C82 C 0.74671 0.13522 0.26197 0.0
C83 C 0.72595 0.1511 0.2136 0.0
C84 C 0.77184 0.08782 0.27909 0.0
C85 C 0.79735 0.0742 0.25266 0.0
C86 C 0.80579 0.04795 0.29337 0.0
C87 C 0.78753 0.03495 0.36101 0.0
C88 C 0.76213 0.04928 0.39085 0.0
C89 C 0.75499 0.07578 0.34988 0.0
C90 C 0.74074 0.03687 0.45792 0.0
C91 C 0.72575 0.01145 0.43678 0.0
C92 C 0.73043 0.05404 0.53151 0.0
C93 C 0.70475 0.04721 0.57808 0.0
C94 C 0.68846 0.02291 0.55263 0.0
C95 C 0.83285 0.03447 0.25748 0.0
C96 C 0.83255 1.00744 0.2139 0.0
C97 C 0.8579 0.05133 0.24997 0.0
C98 C 0.88107 0.04263 0.19423 0.0
C99 C 0.88009 0.01656 0.14433 0.0
C100 C 0.8559 0.99855 0.15825 0.0
C101 C 0.69997 1.00454 0.48356 0.0
H102 H 0.72641 0.1125 1.01142 0.0
H103 H 0.76308 0.08634 0.09355 0.0
H104 H 0.75114 0.14044 0.33404 0.0
H105 H 0.71539 0.16866 0.24941 0.0
H106 H 0.81 0.08343 0.19649 0.0
H107 H 0.73471 0.08597 0.36786 0.0
H108 H 0.79312 0.01422 0.39053 0.0
H109 H 0.73284 0.99797 0.3797 0.0
H110 H 0.74128 0.07396 0.54885 0.0
H111 H 0.69682 0.06212 0.62995 0.0
H112 H 0.81354 0.994 0.21779 0.0
H113 H 0.85881 0.07226 0.28278 0.0
H114 H 0.68851 0.9853 0.463 0.0
H115 H 0.85446 0.97796 0.12343 0.0
H116 H 0.89891 0.05739 0.18594 0.0
C117 C 0.47577 0.70395 0.57563 0.0
C118 C 0.50022 0.68776 0.55076 0.0
C119 C 0.46901 0.72963 0.529 0.0
C120 C 0.48641 0.74005 0.45593 0.0
C121 C 0.51197 0.72518 0.43543 0.0
C122 C 0.5188 0.69939 0.48227 0.0
C123 C 0.47417 0.76146 0.38867 0.0
C124 C 0.48853 0.78692 0.35938 0.0
C125 C 0.47571 0.8052 0.29158 0.0
C126 C 0.44964 0.79675 0.25018 0.0
C127 C 0.43597 0.7712 0.2762 0.0
C128 C 0.44783 0.75429 0.34708 0.0
C129 C 0.41303 0.75867 0.21776 0.0
C130 C 0.38851 0.74633 0.25861 0.0
C131 C 0.41908 0.75303 0.12397 0.0
C132 C 0.40371 0.73193 0.07639 0.0
C133 C 0.38169 0.71627 0.12151 0.0
C134 C 0.48915 0.83243 0.25668 0.0
C135 C 0.47225 0.85748 0.25059 0.0
C136 C 0.51613 0.83234 0.21252 0.0
C137 C 0.52493 0.85596 0.15771 0.0
C138 C 0.50686 0.88018 0.14522 0.0
C139 C 0.48084 0.8809 0.19569 0.0
C140 C 0.37257 0.72571 0.21007 0.0
H141 H 0.46071 0.69591 0.62705 0.0
H142 H 0.44899 0.7404 0.54585 0.0
H143 H 0.52562 0.73236 0.37877 0.0
H144 H 0.53817 0.68801 0.46218 0.0
H145 H 0.50913 0.79256 0.3895 0.0
H146 H 0.43762 0.73399 0.36475 0.0
H147 H 0.44055 0.80947 0.19399 0.0
H148 H 0.38316 0.75081 0.33061 0.0
H149 H 0.43787 0.76233 0.09077 0.0
H150 H 0.41163 0.72586 1.00835 0.0
H151 H 0.45136 0.85817 0.28385 0.0
H152 H 0.5296 0.81332 0.2153 0.0
H153 H 0.35484 0.71531 0.24569 0.0
H154 H 0.46603 0.89874 0.18846 0.0
H155 H 0.54548 0.8547 0.1224 0.0
C156 C 0.22757 0.65135 0.28974 0.0
C157 C 0.21816 0.6427 0.37899 0.0
C158 C 0.24785 0.63491 0.24122 0.0
C159 C 0.25995 0.61037 0.28274 0.0
C160 C 0.25436 0.60475 0.37691 0.0
C161 C 0.23358 0.62059 0.42447 0.0
C162 C 0.27228 0.58712 0.22504 0.0
C163 C 0.29773 0.57337 0.25132 0.0
C164 C 0.30601 0.54707 0.21095 0.0
C165 C 0.28764 0.53413 0.14384 0.0
C166 C 0.26229 0.54858 0.11418 0.0
C167 C 0.25529 0.57512 0.15484 0.0
C168 C 0.24086 0.53633 0.04723 0.0
C169 C 0.23075 0.5536 0.97346 0.0
C170 C 0.2257 0.51097 0.06844 0.0
C171 C 0.19998 0.50419 0.02139 0.0
C172 C 0.1887 0.52264 0.95196 0.0
C173 C 0.33309 0.53355 0.24651 0.0
C174 C 0.35824 0.55031 0.25237 0.0
C175 C 0.33273 0.5067 0.29166 0.0
C176 C 0.35614 0.49793 0.34718 0.0
C177 C 0.38043 0.51588 0.35948 0.0
C178 C 0.38146 0.54173 0.30802 0.0
C179 C 0.20514 0.5469 0.92663 0.0
H180 H 0.21742 0.66913 0.25374 0.0
H181 H 0.2523 0.63995 0.1689 0.0
H182 H 0.26348 0.58596 0.41064 0.0
H183 H 0.22756 0.61302 0.49303 0.0
H184 H 0.31049 0.58258 0.30702 0.0
H185 H 0.23508 0.58544 0.13695 0.0
H186 H 0.29314 0.51338 0.11449 0.0
H187 H 0.24173 0.57348 0.95606 0.0
H188 H 0.23263 0.49742 0.12567 0.0
H189 H 0.18841 0.48497 0.04192 0.0
H190 H 0.35918 0.5711 0.21834 0.0
H191 H 0.31364 0.49335 0.28909 0.0
H192 H 0.19739 0.56188 0.87455 0.0
H193 H 0.39937 0.55644 0.31498 0.0
H194 H 0.35465 0.47749 0.38318 0.0
C195 C 0.87145 0.22695 0.29374 0.0
C196 C 0.88037 0.21753 0.38261 0.0
C197 C 0.88776 0.2472 0.2444 0.0
C198 C 0.91242 0.25927 0.28478 0.0
C199 C 0.91839 0.25364 0.37863 0.0
C200 C 0.90268 0.23288 0.42697 0.0
C201 C 0.9354 0.27172 0.22605 0.0
C202 C 0.94886 0.29741 0.25116 0.0
C203 C 0.97485 0.30604 0.2092 0.0
C204 C 0.98784 0.28769 0.14192 0.0
C205 C 0.97369 0.26202 0.11368 0.0
C206 C 0.9474 0.25474 0.15575 0.0
C207 C 0.98598 0.24058 0.04669 0.0
C208 C 0.96869 0.23037 0.97334 0.0
C209 C 0.01129 0.22537 0.06789 0.0
C210 C 0.018 0.19954 0.02128 0.0
C211 C 0.99954 0.18817 0.9523 0.0
C212 C 0.98801 0.33349 0.24325 0.0
C213 C 0.97066 0.35822 0.25142 0.0
C214 C 0.01541 0.3339 0.28443 0.0
C215 C 0.02426 0.3576 0.3384 0.0
C216 C 1.00588 0.38147 0.35294 0.0
C217 C 0.97937 0.38174 0.30544 0.0
C218 C 0.97532 0.20466 0.92693 0.0
H219 H 0.85353 0.21684 0.25862 0.0
H220 H 0.88248 0.25168 0.17233 0.0
H221 H 0.9373 0.26274 0.41142 0.0
H222 H 0.91048 0.22682 0.49516 0.0
H223 H 0.93965 0.31011 0.30708 0.0
H224 H 0.9373 0.23436 0.13879 0.0
H225 H 1.00837 0.29344 0.11133 0.0
H226 H 0.94882 0.24136 0.95606 0.0
H227 H 0.02483 0.23234 0.12487 0.0
H228 H 0.03718 0.18795 0.04184 0.0
H229 H 0.94939 0.35861 0.22059 0.0
H230 H 0.02923 0.31517 0.28005 0.0
H231 H 0.96033 0.19685 0.87522 0.0
H232 H 0.96432 0.3993 0.31438 0.0
H233 H 0.04516 0.35669 0.37141 0.0
C234 C 0.2986 0.87008 0.29994 0.0
C235 C 0.30802 0.8788 0.38887 0.0
C236 C 0.27814 0.88635 0.25167 0.0
C237 C 0.26589 0.91076 0.2932 0.0
C238 C 0.27151 0.91642 0.38719 0.0
C239 C 0.29246 0.90074 0.4345 0.0
C240 C 0.253 0.93377 0.23563 0.0
C241 C 0.22732 0.94693 0.26246 0.0
C242 C 0.21799 0.9727 0.22059 0.0
C243 C 0.2358 0.98589 0.15196 0.0
C244 C 0.26158 0.97215 0.12245 0.0
C245 C 0.26945 0.94598 0.16423 0.0
C246 C 0.28255 0.98479 0.05438 0.0
C247 C 0.2929 0.96763 0.98081 0.0
C248 C 0.29731 1.0104 0.0748 0.0
C249 C 0.32293 0.01751 0.02738 0.0
C250 C 0.33453 0.99916 0.95839 0.0
C251 C 0.19027 0.98529 0.25518 0.0
C252 C 0.1665 0.96701 0.26978 0.0
C253 C 0.18858 0.01365 0.28863 0.0
C254 C 0.16455 0.02274 0.34098 0.0
C255 C 0.14158 1.00371 0.36091 0.0
C256 C 0.14262 0.97601 0.32155 0.0
C257 C 0.31842 0.97467 0.9336 0.0
H258 H 0.30891 0.85242 0.26392 0.0
H259 H 0.27363 0.88128 0.17952 0.0
H260 H 0.26223 0.93511 0.42092 0.0
H261 H 0.29851 0.90833 0.50286 0.0
H262 H 0.2151 0.93755 0.31937 0.0
H263 H 0.28989 0.93616 0.14605 0.0
H264 H 0.22954 1.00626 0.12121 0.0
H265 H 0.28225 0.94755 0.96407 0.0
H266 H 0.2902 0.02387 0.13187 0.0
H267 H 0.33422 0.03691 0.04745 0.0
H268 H 0.16709 0.94497 0.24539 0.0
H269 H 0.20654 0.02824 0.27934 0.0
H270 H 0.32641 0.95976 0.88183 0.0
H271 H 0.12581 0.96044 0.33531 0.0
H272 H 0.16443 0.04444 0.36832 0.0
C273 C 0.50361 0.32159 0.02065 0.0
C274 C 0.52199 0.33319 0.95155 0.0
C275 C 0.51058 0.29582 0.06741 0.0
C276 C 0.53608 0.28094 0.04623 0.0
C277 C 0.55325 0.29132 0.97255 0.0
C278 C 0.54636 0.31698 0.926 0.0
C279 C 0.54852 0.25959 0.1133 0.0
C280 C 0.53421 0.23421 0.14356 0.0
C281 C 0.54724 0.21601 0.21118 0.0
C282 C 0.57348 0.22447 0.25144 0.0
C283 C 0.58708 0.24998 0.22462 0.0
C284 C 0.57501 0.26678 0.15384 0.0
C285 C 0.61011 0.26264 0.28239 0.0
C286 C 0.60429 0.26823 0.37637 0.0
C287 C 0.63441 0.27522 0.24082 0.0
C288 C 0.65028 0.296 0.28886 0.0
C289 C 0.6413 0.30536 0.37768 0.0
C290 C 0.53378 0.18896 0.24745 0.0
C291 C 0.50693 0.18936 0.29246 0.0
C292 C 0.55057 0.16384 0.25395 0.0
C293 C 0.542 0.14066 0.31005 0.0
C294 C 0.51614 0.14173 0.36133 0.0
C295 C 0.49817 0.16601 0.34847 0.0
C296 C 0.61958 0.28948 0.42348 0.0
H297 H 0.4843 0.33298 0.04125 0.0
H298 H 0.49709 0.28868 0.12454 0.0
H299 H 0.57323 0.28054 0.95514 0.0
H300 H 0.56128 0.32499 0.8741 0.0
H301 H 0.51349 0.22859 0.11438 0.0
H302 H 0.58517 0.28706 0.13556 0.0
H303 H 0.58273 0.21183 0.30755 0.0
H304 H 0.58568 0.25876 0.41015 0.0
H305 H 0.6396 0.27079 0.16866 0.0
H306 H 0.66778 0.30659 0.2527 0.0
H307 H 0.49357 0.20845 0.28938 0.0
H308 H 0.57135 0.16288 0.22001 0.0
H309 H 0.61181 0.29547 0.49175 0.0
H310 H 0.47774 0.16752 0.38439 0.0
H311 H 0.55671 0.12275 0.31748 0.0
Gd312 Gd 0.03036 1.00552 0.81698 0.0
Gd313 Gd 0.98876 0.0171 0.67826 0.0
C314 C 1.00957 0.95247 0.68635 0.0
C315 C 0.06268 0.98676 0.95064 0.0
C316 C 0.084 0.96374 0.96286 0.0
C317 C 0.1068 0.96759 0.02536 0.0
C318 C 0.08157 0.93773 0.91415 0.0
C319 C 0.12237 0.91821 0.99967 0.0
C320 C 0.1005 0.91511 0.93265 0.0
C321 C 0.12594 0.94505 0.04326 0.0
C322 C 0.05541 0.02066 0.65141 0.0
C323 C 1.00932 0.07018 0.81 0.0
C324 C 0.95745 0.03511 0.54094 0.0
C325 C 0.93554 0.05713 0.52291 0.0
C326 C 0.91814 0.06808 0.59457 0.0
C327 C 0.93278 0.06808 0.43269 0.0
C328 C 0.89719 0.10285 0.48676 0.0
C329 C 0.91393 0.09074 0.41473 0.0
C330 C 0.89895 0.09063 0.57649 0.0
C331 C 0.96368 1.00201 0.84379 0.0
O332 O 0.01906 0.95976 0.76988 0.0
O333 O 1.00065 0.97276 0.62914 0.0
O334 O 0.0702 1.00767 0.89503 0.0
O335 O 0.03594 0.97872 0.9391 0.0
O336 O 0.06315 0.03005 0.73219 0.0
O337 O 0.03425 1.00389 0.66152 0.0
O338 O 0.99937 0.06291 0.72689 0.0
O339 O 0.01879 0.04992 0.86651 0.0
O340 O 0.94996 0.01403 0.59604 0.0
O341 O 0.9835 0.04451 0.55696 0.0
O342 O 0.95559 0.99303 0.76283 0.0
O343 O 0.98491 0.01869 0.83378 0.0
H344 H 0.1093 0.98774 0.06236 0.0
H345 H 0.06439 0.93449 0.8644 0.0
H346 H 0.09685 0.89467 0.89849 0.0
H347 H 0.14285 0.94825 0.09378 0.0
H348 H 0.91991 0.05969 0.66481 0.0
H349 H 0.946 0.05979 0.37655 0.0
H350 H 0.91386 0.09972 0.3451 0.0
H351 H 0.88618 0.09901 0.63342 0.0
Gd352 Gd 0.51699 0.03191 0.82607 0.0
Gd353 Gd 0.50589 0.99086 0.6836 0.0
C354 C 0.57038 0.01248 0.69381 0.0
C355 C 0.53463 0.06232 0.96573 0.0
C356 C 0.55655 0.08422 0.985 0.0
C357 C 0.56717 0.10236 0.91459 0.0
C358 C 0.56773 0.08624 0.07501 0.0
C359 C 0.60198 0.12268 0.02305 0.0
C360 C 0.59025 0.10514 0.09389 0.0
C361 C 0.58957 0.1216 0.93363 0.0
C362 C 0.50214 0.05784 0.6617 0.0
C363 C 0.45244 1.01031 0.81582 0.0
C364 C 0.48847 0.96023 0.54423 0.0
C365 C 0.46693 0.93792 0.52573 0.0
C366 C 0.45678 0.9197 0.59666 0.0
C367 C 0.45566 0.93551 0.43594 0.0
C368 C 0.42222 0.8985 0.48919 0.0
C369 C 0.4335 0.91613 0.4178 0.0
C370 C 0.43473 0.89999 0.57837 0.0
C371 C 0.52087 0.96501 0.84779 0.0
O372 O 0.56293 0.02179 0.77754 0.0
O373 O 0.55028 1.00342 0.63631 0.0
O374 O 0.51355 0.07007 0.91123 0.0
O375 O 0.54415 0.0364 0.94797 0.0
O376 O 0.49326 0.06571 0.74309 0.0
O377 O 0.51875 0.03653 0.67079 0.0
O378 O 0.45992 1.00083 0.73228 0.0
O379 O 0.4725 0.01959 0.8731 0.0
O380 O 0.50984 0.95284 0.5981 0.0
O381 O 0.47853 0.98596 0.56233 0.0
O382 O 0.52986 0.95726 0.76642 0.0
O383 O 0.50411 0.98622 0.83879 0.0
H384 H 0.55862 0.10117 0.84453 0.0
H385 H 0.55971 0.07242 0.13019 0.0
H386 H 0.59939 0.10469 0.16317 0.0
H387 H 0.59767 0.13498 0.87763 0.0
H388 H 0.46541 0.92119 0.66655 0.0
H389 H 0.46333 0.94937 0.38038 0.0
H390 H 0.42425 0.91629 0.34867 0.0
H391 H 0.42698 0.88656 0.63477 0.0
Gd392 Gd 0.49048 0.51607 0.82264 0.0
Gd393 Gd 0.53156 0.50491 0.68004 0.0
C394 C 0.51036 0.56954 0.69106 0.0
C395 C 0.46 0.53372 0.96244 0.0
C396 C 0.4382 0.55576 0.9816 0.0
C397 C 0.42036 0.56661 0.91095 0.0
C398 C 0.43599 0.56685 0.07169 0.0
C399 C 0.40002 0.6015 0.01932 0.0
C400 C 0.41723 0.58952 0.09042 0.0
C401 C 0.40126 0.58917 0.92982 0.0
C402 C 0.46455 0.50156 0.6583 0.0
C403 C 0.51164 0.45141 0.81142 0.0
C404 C 0.56211 0.48742 0.54018 0.0
C405 C 0.58392 0.46544 0.52027 0.0
C406 C 0.60209 0.45469 0.59018 0.0
C407 C 0.58585 0.45437 0.43009 0.0
C408 C 0.62225 0.41996 0.48091 0.0
C409 C 0.60468 0.43183 0.41056 0.0
C410 C 0.62127 0.43226 0.57049 0.0
C411 C 0.55734 0.51946 0.8445 0.0
O412 O 0.50085 0.56202 0.77462 0.0
O413 O 0.51945 0.54949 0.6334 0.0
O414 O 0.45222 0.51271 0.90781 0.0
O415 O 0.48599 0.54311 0.94482 0.0
O416 O 0.45667 0.49257 0.73965 0.0
O417 O 0.48595 0.51806 0.66736 0.0
O418 O 0.52119 0.45895 0.72792 0.0
O419 O 0.50252 0.47145 0.86911 0.0
O420 O 0.56989 0.50831 0.59526 0.0
O421 O 0.53613 0.47799 0.5576 0.0
O422 O 0.5652 0.52857 0.76326 0.0
O423 O 0.53605 0.50284 0.83525 0.0
H424 H 0.4217 0.55814 0.84081 0.0
H425 H 0.44957 0.55865 0.12705 0.0
H426 H 0.41755 0.59858 0.15978 0.0
H427 H 0.38812 0.59745 0.87363 0.0
H428 H 0.60098 0.46315 0.66037 0.0
H429 H 0.57202 0.4625 0.37528 0.0
H430 H 0.60416 0.42278 0.34119 0.0
H431 H 0.63468 0.42406 0.62613 0.0
Gd432 Gd 1.00651 0.49163 0.81328 0.0
Gd433 Gd 0.01818 0.53333 0.67501 0.0
C434 C 0.95355 0.51259 0.68238 0.0
C435 C 0.98722 0.45903 0.94586 0.0
C436 C 0.96412 0.43767 0.95152 0.0
C437 C 0.94796 0.4309 0.8721 0.0
C438 C 0.95701 0.42519 0.03731 0.0
C439 C 0.91529 0.40226 0.96686 0.0
C440 C 0.93278 0.40755 0.045 0.0
C441 C 0.92376 0.41325 0.87965 0.0
C442 C 0.02158 0.46661 0.64777 0.0
C443 C 0.07107 0.51267 0.80757 0.0
C444 C 0.03627 0.56479 0.53778 0.0
C445 C 0.05819 0.5868 0.51949 0.0
C446 C 0.06895 0.60438 0.59078 0.0
C447 C 0.06917 0.58953 0.42929 0.0
C448 C 0.1036 0.62548 0.48268 0.0
C449 C 0.09167 0.60854 0.41101 0.0
C450 C 0.09135 0.62374 0.57237 0.0
C451 C 1.00295 0.55839 0.84022 0.0
O452 O 0.96079 0.50299 0.76593 0.0
O453 O 0.97388 0.52156 0.62539 0.0
O454 O 1.00891 0.45206 0.89277 0.0
O455 O 0.97885 0.48564 0.93342 0.0
O456 O 0.03086 0.45876 0.72867 0.0
O457 O 1.00493 0.48786 0.65769 0.0
O458 O 0.06391 0.52261 0.72422 0.0
O459 O 0.05073 0.50322 0.86385 0.0
O460 O 0.01513 0.5722 0.59261 0.0
O461 O 0.04576 0.53876 0.55417 0.0
O462 O 0.99401 0.56645 0.75907 0.0
O463 O 0.01962 0.53713 0.83064 0.0
H464 H 0.9534 0.44022 0.80507 0.0
H465 H 0.96942 0.43012 0.09912 0.0
H466 H 0.92664 0.39978 0.11338 0.0
H467 H 0.91084 0.4094 0.8182 0.0
H468 H 0.06053 0.60265 0.66099 0.0
H469 H 0.06102 0.57617 0.37343 0.0
H470 H 0.10067 0.60859 0.34144 0.0
H471 H 0.09958 0.63666 0.62903 0.0
C472 C 0.09001 0.99992 0.41996 0.0
C473 C 0.11803 1.01137 0.42884 0.0
H474 H 0.04833 0.99385 0.48244 0.0
C475 C 0.12403 0.02813 0.50818 0.0
H476 H 0.08417 0.98739 0.35938 0.0
C477 C 0.10324 0.03218 0.57798 0.0
C478 C 0.07585 0.01944 0.57118 0.0
H479 H 0.14526 0.03708 0.51894 0.0
H480 H 0.10908 0.04441 0.63925 0.0
C481 C 0.06927 1.00379 0.49029 0.0
C482 C 0.49545 0.12635 0.51737 0.0
C483 C 0.50949 0.11901 0.43357 0.0
H484 H 0.48184 0.11297 0.65347 0.0
C485 C 0.51911 0.09032 0.42344 0.0
H486 H 0.48808 0.14812 0.52956 0.0
C487 C 0.51602 0.07018 0.49612 0.0
C488 C 0.50289 0.07801 0.58062 0.0
H489 H 0.52948 0.08339 0.35976 0.0
H490 H 0.52442 0.04863 0.4868 0.0
C491 C 0.49205 0.10614 0.58934 0.0
C492 C 0.39597 0.49505 0.51509 0.0
C493 C 0.40322 0.50923 0.4313 0.0
H494 H 0.40947 0.48125 0.65072 0.0
C495 C 0.43188 0.51893 0.4208 0.0
H496 H 0.37424 0.48763 0.52763 0.0
C497 C 0.45207 0.51576 0.49309 0.0
C498 C 0.44435 0.50248 0.57755 0.0
H499 H 0.43875 0.5294 0.35713 0.0
H500 H 0.4736 0.52421 0.48347 0.0
C501 C 0.41623 0.49159 0.58663 0.0
C502 C 0.02816 0.39787 0.50521 0.0
C503 C 0.01289 0.40459 0.42319 0.0
H504 H 0.04314 0.41198 0.63866 0.0
C505 C 1.00248 0.43303 0.41321 0.0
H506 H 0.0362 0.37632 0.51728 0.0
C507 C 1.00602 0.45348 0.4845 0.0
C508 C 0.02038 0.44625 0.56743 0.0
H509 H 0.99114 0.4395 0.3508 0.0
H510 H 0.99698 0.4748 0.47545 0.0
C511 C 0.03197 0.41838 0.57577 0.0
C512 C 0.93142 0.01956 0.08167 0.0
C513 C 0.90278 1.00974 0.07229 0.0
H514 H 0.97299 0.02491 0.01762 0.0
C515 C 0.89545 0.99532 0.98931 0.0
H516 H 0.93834 0.03021 0.14475 0.0
C517 C 0.91559 0.99179 0.91732 0.0
C518 C 0.94366 1.00284 0.92518 0.0
H519 H 0.87372 0.98778 0.97768 0.0
H520 H 0.90875 0.9813 0.85378 0.0
C521 C 0.95149 0.01632 1.00895 0.0
C522 C 0.5279 0.89622 0.99042 0.0
C523 C 0.51355 0.90319 0.074 0.0
H524 H 0.54174 0.91011 0.85514 0.0
C525 C 0.50365 0.93177 0.08475 0.0
H526 H 0.53549 0.87456 0.97775 0.0
C527 C 0.50674 0.95214 1.01275 0.0
C528 C 0.52015 0.94468 0.9284 0.0
H529 H 0.49304 0.93841 0.14834 0.0
H530 H 0.4981 0.97359 0.02246 0.0
C531 C 0.53129 0.91667 0.91917 0.0
C532 C 0.59022 0.5019 0.08163 0.0
C533 C 0.61871 0.51211 0.07155 0.0
H534 H 0.5486 0.49614 0.01865 0.0
C535 C 0.62576 0.52661 0.98816 0.0
H536 H 0.58351 0.49115 0.14498 0.0
C537 C 0.60548 0.52995 0.91663 0.0
C538 C 0.57753 0.51861 0.92531 0.0
H539 H 0.64737 0.53442 0.9759 0.0
H540 H 0.6121 0.54056 0.85287 0.0
C541 C 0.57 0.50496 1.00936 0.0
C542 C 0.02072 0.59116 0.07705 0.0
C543 C 1.01063 0.61972 0.06717 0.0
H544 H 0.0263 0.54953 1.01398 0.0
C545 C 0.99604 0.62683 0.98417 0.0
H546 H 0.03152 0.5844 0.14015 0.0
C547 C 0.99257 0.60655 0.91272 0.0
C548 C 1.00383 0.57855 0.92112 0.0
H549 H 0.98828 0.64848 0.97214 0.0
H550 H 0.98191 0.61323 0.8492 0.0
C551 C 0.01753 0.57096 1.00488 0.0
C552 C 0.86709 0.16585 0.35446 0.0
C553 C 0.87224 0.18832 0.41812 0.0
H554 H 0.86937 0.12082 0.32775 0.0
C555 C 0.8766 0.18092 0.51227 0.0
H556 H 0.86293 0.17006 0.28163 0.0
C557 C 0.88189 0.15234 0.53766 0.0
C558 C 0.88166 0.13048 0.46998 0.0
H559 H 0.87892 0.19739 0.56494 0.0
H560 H 0.88895 0.1481 0.60814 0.0
C561 C 0.87136 0.13725 0.38061 0.0
C562 C 0.35987 0.8671 0.35787 0.0
C563 C 0.33747 0.87114 0.42281 0.0
H564 H 0.40462 0.87123 0.32915 0.0
C565 C 0.345 0.87518 0.51688 0.0
H566 H 0.35556 0.86327 0.28496 0.0
C567 C 0.37346 0.88125 0.54135 0.0
C568 C 0.39508 0.88218 0.47268 0.0
H569 H 0.32861 0.87671 0.57031 0.0
H570 H 0.3777 0.88802 0.61207 0.0
C571 C 0.38836 0.87223 0.38297 0.0
C572 C 0.65252 0.35741 0.34691 0.0
C573 C 0.64861 0.33489 0.41167 0.0
H574 H 0.64873 0.40232 0.31919 0.0
C575 C 0.64466 0.34228 0.50594 0.0
H576 H 0.65621 0.35318 0.27383 0.0
C577 C 0.63884 0.37075 0.5311 0.0
C578 C 0.63801 0.39255 0.46294 0.0
H579 H 0.64316 0.32581 0.55916 0.0
H580 H 0.63225 0.3749 0.60213 0.0
C581 C 0.64765 0.38591 0.37268 0.0
C582 C 0.16644 0.65575 0.34996 0.0
C583 C 0.1889 0.65084 0.41397 0.0
H584 H 0.12144 0.6532 0.32299 0.0
C585 C 0.18147 0.64667 0.50822 0.0
H586 H 0.17067 0.65978 0.27703 0.0
C587 C 0.15292 0.64127 0.53355 0.0
C588 C 0.1311 0.64122 0.46568 0.0
H589 H 0.1979 0.64457 0.56112 0.0
H590 H 0.14867 0.63434 0.60424 0.0
C591 C 0.13786 0.65139 0.37603 0.0
C592 C 0.15102 0.84227 1.0091 0.0
C593 C 0.14889 0.83677 0.1053 0.0
H594 H 0.14468 0.87292 0.89922 0.0
C595 C 0.14534 0.86027 0.16604 0.0
H596 H 0.15458 0.82485 0.96044 0.0
C597 C 0.1398 0.88771 0.13105 0.0
C598 C 0.13771 0.8923 0.03458 0.0
H599 H 0.14347 0.85713 0.24054 0.0
H600 H 0.13406 0.90448 0.17995 0.0
C601 C 0.14531 0.8698 0.97398 0.0
C602 C 0.66455 0.15328 0.15579 0.0
C603 C 0.68701 0.14933 0.09096 0.0
H604 H 0.61971 0.14939 0.18399 0.0
C605 C 0.67955 0.14526 0.99685 0.0
H606 H 0.66883 0.15707 0.22875 0.0
C607 C 0.65108 0.13934 0.97205 0.0
C608 C 0.62935 0.13854 0.04041 0.0
H609 H 0.69597 0.14373 0.94354 0.0
H610 H 0.64687 0.13266 0.90121 0.0
C611 C 0.63605 0.1483 0.13037 0.0
C612 C 0.3784 0.67936 0.99318 0.0
C613 C 0.37419 0.68681 0.08728 0.0
H614 H 0.39086 0.6466 0.89755 0.0
C615 C 0.36979 0.66435 0.15191 0.0
H616 H 0.38025 0.69581 0.93999 0.0
C617 C 0.37449 0.63579 0.1264 0.0
C618 C 0.38441 0.62904 0.03655 0.0
H619 H 0.36586 0.66862 0.22484 0.0
H620 H 0.37304 0.61942 0.17987 0.0
C621 C 0.38404 0.65084 0.96831 0.0
C622 C 0.83475 0.40032 0.97491 0.0
C623 C 0.82968 0.38042 0.04741 0.0
H624 H 0.86572 0.42261 0.89269 0.0
C625 C 0.8527 0.36274 0.07618 0.0
H626 H 0.81806 0.4146 0.95005 0.0
C627 C 0.88067 0.36795 0.04385 0.0
C628 C 0.88595 0.39038 0.98028 0.0
H629 H 0.84961 0.34636 0.12898 0.0
H630 H 0.89836 0.35574 0.07312 0.0
C631 C 0.86247 0.40513 0.94166 0.0
C632 C 0.01472 0.13592 0.96868 0.0
C633 C 1.00398 0.1584 0.91254 0.0
H634 H 0.02477 0.09108 0.98115 0.0
C635 C 0.99587 0.15156 0.82039 0.0
H636 H 0.02071 0.13986 0.04034 0.0
C637 C 0.99787 0.12319 0.78647 0.0
C638 C 1.00813 0.10074 0.84347 0.0
H639 H 0.98783 0.16814 0.77413 0.0
H640 H 0.99111 0.11883 0.71574 0.0
C641 C 0.01679 0.10766 0.93473 0.0
C642 C 0.37122 0.99594 0.82619 0.0
C643 C 0.36422 1.00397 0.91836 0.0
H644 H 0.4041 0.99158 0.72143 0.0
C645 C 0.38652 0.01495 0.97442 0.0
H646 H 0.35478 0.98771 0.78003 0.0
C647 C 0.41475 0.01735 0.9404 0.0
C648 C 0.42186 1.00878 0.84913 0.0
H649 H 0.38245 0.02089 0.0461 0.0
H650 H 0.43119 0.02551 0.98682 0.0
C651 C 0.39959 0.99828 0.79215 0.0
C652 C 0.52533 0.37008 0.81995 0.0
C653 C 0.51735 0.36299 0.91219 0.0
H654 H 0.52984 0.40312 0.71569 0.0
C655 C 0.50663 0.38526 0.96895 0.0
H656 H 0.53337 0.35365 0.77332 0.0
C657 C 0.50442 0.41358 0.93551 0.0
C658 C 0.51295 0.42077 0.84416 0.0
H659 H 0.50075 0.3811 0.04071 0.0
H660 H 0.49646 0.43 0.9824 0.0
C661 C 0.52319 0.39853 0.7865 0.0
C662 C 0.15236 0.52618 0.81925 0.0
C663 C 0.15904 0.51812 0.91168 0.0
H664 H 0.11982 0.53085 0.71387 0.0
C665 C 0.13649 0.5074 0.96758 0.0
H666 H 0.169 0.5342 0.77318 0.0
C667 C 0.10831 0.50527 0.93311 0.0
C668 C 0.10155 0.51388 0.84157 0.0
H669 H 0.14032 0.50145 0.03943 0.0
H670 H 0.09166 0.49731 0.97935 0.0
C671 C 0.12406 0.52413 0.7848 0.0
C672 C 1.00559 0.8868 0.5272 0.0
C673 C 0.01448 0.86406 0.58561 0.0
H674 H 0.99712 0.93188 0.51242 0.0
C675 C 0.02092 0.87075 0.67927 0.0
H676 H 1.00097 0.88298 0.45439 0.0
C677 C 0.01909 0.89921 0.71253 0.0
C678 C 1.01064 0.92187 0.65336 0.0
H679 H 0.02748 0.854 0.72725 0.0
H680 H 0.02447 0.90343 0.78459 0.0
C681 C 1.00363 0.91512 0.56051 0.0
C682 C 0.65168 0.02619 0.68446 0.0
C683 C 0.65868 0.01832 0.59216 0.0
H684 H 0.61876 0.03059 0.78903 0.0
C685 C 0.63634 1.00771 0.53556 0.0
H686 H 0.66816 0.03415 0.73099 0.0
C687 C 0.60806 1.0055 0.56924 0.0
C688 C 0.60097 0.01389 0.66069 0.0
H689 H 0.64042 1.00192 0.46377 0.0
H690 H 0.59158 0.99761 0.52247 0.0
C691 C 0.62327 0.02404 0.71817 0.0
C692 C 0.49662 0.65086 0.68224 0.0
C693 C 0.50477 0.65796 0.59018 0.0
H694 H 0.49192 0.61782 0.7864 0.0
C695 C 0.51561 0.63569 0.53363 0.0
H696 H 0.48847 0.66729 0.72871 0.0
C697 C 0.51776 0.60737 0.5671 0.0
C698 C 0.50907 0.60018 0.65828 0.0
H699 H 0.52163 0.63986 0.462 0.0
H700 H 0.52582 0.59095 0.52036 0.0
C701 C 0.49871 0.62241 0.71574 0.0
C702 C 0.87198 0.50065 0.67388 0.0
C703 C 0.86523 0.5081 0.58095 0.0
H704 H 0.90471 0.49606 0.77872 0.0
C705 C 0.88788 0.51782 0.52355 0.0
H706 H 0.85531 0.4934 0.72114 0.0
C707 C 0.91618 0.51962 0.55711 0.0
C708 C 0.92299 0.51163 0.64919 0.0
H709 H 0.88403 0.52322 0.45127 0.0
H710 H 0.93288 0.52683 0.50979 0.0
C711 C 0.90042 0.5023 0.70736 0.0
loop_
_geom_bond_atom_site_label_1
_geom_bond_atom_site_label_2
_geom_bond_distance
_geom_bond_site_symmetry_2
_ccdc_geom_bond_type
C0 C1 1.386 . S
C0 C2 1.397 . S
C0 H24 0.931 . S
C1 C0 1.386 . S
C1 C5 1.397 . S
C2 C0 1.397 . S
C2 C3 1.384 . S
C2 H25 0.930 . S
C3 C2 1.384 . S
C3 C4 1.377 . S
C3 C6 1.481 . S
C4 C3 1.377 . S
C4 C5 1.389 . S
C4 H26 0.929 . S
C5 C1 1.397 . S
C5 C4 1.389 . S
C5 H27 0.931 . S
C6 C3 1.481 . S
C6 C7 1.387 . S
C6 C11 1.390 . S
C7 C6 1.387 . S
C7 C8 1.401 . S
C7 H28 0.930 . S
C8 C7 1.401 . S
C8 C9 1.376 . S
C8 C17 1.511 . S
C9 C8 1.376 . S
C9 C10 1.392 . S
C9 H30 0.931 . S
C10 C9 1.392 . S
C10 C11 1.361 . S
C10 C12 1.500 . S
C11 C6 1.390 . S
C11 C10 1.361 . S
C11 H29 0.931 . S
C12 C10 1.500 . S
C12 C13 1.371 . S
C12 C14 1.365 . S
C13 C12 1.371 . S
C13 C23 1.386 . S
C13 H31 0.931 . S
C14 C12 1.365 . S
C14 C15 1.409 . S
C14 H32 0.929 . S
C15 C14 1.409 . S
C15 C16 1.380 . S
C15 H33 0.930 . S
C16 C15 1.380 . S
C16 C23 1.357 . S
C17 C8 1.511 . S
C17 C18 1.341 . S
C17 C19 1.371 . S
C18 C17 1.341 . S
C18 C22 1.394 . S
C18 H34 0.930 . S
C19 C17 1.371 . S
C19 C20 1.392 . S
C19 H35 0.931 . S
C20 C19 1.392 . S
C20 C21 1.331 . S
C20 H38 0.932 . S
C21 C20 1.331 . S
C21 C22 1.336 . S
C22 C18 1.394 . S
C22 C21 1.336 . S
C22 H37 0.929 . S
C23 C13 1.386 . S
C23 C16 1.357 . S
C23 H36 0.928 . S
H24 C0 0.931 . S
H25 C2 0.930 . S
H26 C4 0.929 . S
H27 C5 0.931 . S
H28 C7 0.930 . S
H29 C11 0.931 . S
H30 C9 0.931 . S
H31 C13 0.931 . S
H32 C14 0.929 . S
H33 C15 0.930 . S
H34 C18 0.930 . S
H35 C19 0.931 . S
H36 C23 0.928 . S
H37 C22 0.929 . S
H38 C20 0.932 . S
C39 C40 1.394 . S
C39 C41 1.397 . S
C39 H63 0.931 . S
C40 C39 1.394 . S
C40 C44 1.389 1_655 S
C41 C39 1.397 . S
C41 C42 1.389 . S
C41 H64 0.930 . S
C42 C41 1.389 . S
C42 C43 1.373 1_655 S
C42 C45 1.480 . S
C43 C42 1.373 1_455 S
C43 C44 1.389 . S
C43 H65 0.929 . S
C44 C40 1.389 1_455 S
C44 C43 1.389 . S
C44 H66 0.931 . S
C45 C42 1.480 . S
C45 C46 1.388 . S
C45 C50 1.390 . S
C46 C45 1.388 . S
C46 C47 1.402 . S
C46 H67 0.930 . S
C47 C46 1.402 . S
C47 C48 1.377 . S
C47 C56 1.513 . S
C48 C47 1.377 . S
C48 C49 1.392 . S
C48 H69 0.931 . S
C49 C48 1.392 . S
C49 C50 1.361 . S
C49 C51 1.499 1_655 S
C50 C45 1.390 . S
C50 C49 1.361 . S
C50 H68 0.931 . S
C51 C49 1.499 1_455 S
C51 C52 1.361 1_455 S
C51 C53 1.376 . S
C52 C51 1.361 1_655 S
C52 C62 1.386 . S
C52 H70 0.931 . S
C53 C51 1.376 . S
C53 C54 1.409 . S
C53 H71 0.929 . S
C54 C53 1.409 . S
C54 C55 1.380 . S
C54 H72 0.930 . S
C55 C54 1.380 . S
C55 C62 1.357 1_455 S
C56 C47 1.513 . S
C56 C57 1.341 . S
C56 C58 1.371 1_655 S
C57 C56 1.341 . S
C57 C61 1.394 . S
C57 H73 0.930 . S
C58 C56 1.371 1_455 S
C58 C59 1.392 . S
C58 H74 0.931 . S
C59 C58 1.392 . S
C59 C60 1.322 1_455 S
C59 H77 0.932 . S
C60 C59 1.322 1_655 S
C60 C61 1.345 . S
C61 C57 1.394 . S
C61 C60 1.345 . S
C61 H76 0.929 . S
C62 C52 1.386 . S
C62 C55 1.357 1_655 S
C62 H75 0.928 . S
H63 C39 0.931 . S
H64 C41 0.930 . S
H65 C43 0.929 . S
H66 C44 0.931 . S
H67 C46 0.930 . S
H68 C50 0.931 . S
H69 C48 0.931 . S
H70 C52 0.931 . S
H71 C53 0.929 . S
H72 C54 0.930 . S
H73 C57 0.930 . S
H74 C58 0.931 . S
H75 C62 0.928 . S
H76 C61 0.929 . S
H77 C59 0.932 . S
C78 C79 1.394 . S
C78 C80 1.397 . S
C78 H102 0.931 . S
C79 C78 1.394 . S
C79 C83 1.389 1_565 S
C80 C78 1.397 . S
C80 C81 1.389 . S
C80 H103 0.930 . S
C81 C80 1.389 . S
C81 C82 1.373 1_565 S
C81 C84 1.480 . S
C82 C81 1.373 1_545 S
C82 C83 1.389 . S
C82 H104 0.929 . S
C83 C79 1.389 1_545 S
C83 C82 1.389 . S
C83 H105 0.931 . S
C84 C81 1.480 . S
C84 C85 1.388 . S
C84 C89 1.390 . S
C85 C84 1.388 . S
C85 C86 1.402 . S
C85 H106 0.930 . S
C86 C85 1.402 . S
C86 C87 1.377 . S
C86 C95 1.513 . S
C87 C86 1.377 . S
C87 C88 1.392 . S
C87 H108 0.931 . S
C88 C87 1.392 . S
C88 C89 1.361 . S
C88 C90 1.499 1_565 S
C89 C84 1.390 . S
C89 C88 1.361 . S
C89 H107 0.931 . S
C90 C88 1.499 1_545 S
C90 C91 1.361 1_545 S
C90 C92 1.376 . S
C91 C90 1.361 1_565 S
C91 C101 1.386 . S
C91 H109 0.931 . S
C92 C90 1.376 . S
C92 C93 1.409 . S
C92 H110 0.929 . S
C93 C92 1.409 . S
C93 C94 1.380 . S
C93 H111 0.930 . S
C94 C93 1.380 . S
C94 C101 1.357 1_545 S
C95 C86 1.513 . S
C95 C96 1.341 . S
C95 C97 1.371 1_565 S
C96 C95 1.341 . S
C96 C100 1.394 . S
C96 H112 0.930 . S
C97 C95 1.371 1_545 S
C97 C98 1.392 . S
C97 H113 0.931 . S
C98 C97 1.392 . S
C98 C99 1.322 1_545 S
C98 H116 0.932 . S
C99 C98 1.322 1_565 S
C99 C100 1.345 . S
C100 C96 1.394 . S
C100 C99 1.345 . S
C100 H115 0.929 . S
C101 C91 1.386 . S
C101 C94 1.357 1_565 S
C101 H114 0.928 . S
H102 C78 0.931 . S
H103 C80 0.930 . S
H104 C82 0.929 . S
H105 C83 0.931 . S
H106 C85 0.930 . S
H107 C89 0.931 . S
H108 C87 0.931 . S
H109 C91 0.931 . S
H110 C92 0.929 . S
H111 C93 0.930 . S
H112 C96 0.930 . S
H113 C97 0.931 . S
H114 C101 0.928 . S
H115 C100 0.929 . S
H116 C98 0.932 . S
C117 C118 1.386 . S
C117 C119 1.397 . S
C117 H141 0.931 . S
C118 C117 1.386 . S
C118 C122 1.397 . S
C119 C117 1.397 . S
C119 C120 1.384 . S
C119 H142 0.930 . S
C120 C119 1.384 . S
C120 C121 1.377 . S
C120 C123 1.481 . S
C121 C120 1.377 . S
C121 C122 1.389 . S
C121 H143 0.929 . S
C122 C118 1.397 . S
C122 C121 1.389 . S
C122 H144 0.931 . S
C123 C120 1.481 . S
C123 C124 1.387 . S
C123 C128 1.390 . S
C124 C123 1.387 . S
C124 C125 1.401 . S
C124 H145 0.930 . S
C125 C124 1.401 . S
C125 C126 1.376 . S
C125 C134 1.511 . S
C126 C125 1.376 . S
C126 C127 1.392 . S
C126 H147 0.931 . S
C127 C126 1.392 . S
C127 C128 1.361 . S
C127 C129 1.500 . S
C128 C123 1.390 . S
C128 C127 1.361 . S
C128 H146 0.931 . S
C129 C127 1.500 . S
C129 C130 1.371 . S
C129 C131 1.365 . S
C130 C129 1.371 . S
C130 C140 1.386 . S
C130 H148 0.931 . S
C131 C129 1.365 . S
C131 C132 1.409 . S
C131 H149 0.929 . S
C132 C131 1.409 . S
C132 C133 1.380 . S
C132 H150 0.930 . S
C133 C132 1.380 . S
C133 C140 1.357 . S
C134 C125 1.511 . S
C134 C135 1.341 . S
C134 C136 1.371 . S
C135 C134 1.341 . S
C135 C139 1.394 . S
C135 H151 0.930 . S
C136 C134 1.371 . S
C136 C137 1.392 . S
C136 H152 0.931 . S
C137 C136 1.392 . S
C137 C138 1.331 . S
C137 H155 0.932 . S
C138 C137 1.331 . S
C138 C139 1.336 . S
C139 C135 1.394 . S
C139 C138 1.336 . S
C139 H154 0.929 . S
C140 C130 1.386 . S
C140 C133 1.357 . S
C140 H153 0.928 . S
H141 C117 0.931 . S
H142 C119 0.930 . S
H143 C121 0.929 . S
H144 C122 0.931 . S
H145 C124 0.930 . S
H146 C128 0.931 . S
H147 C126 0.931 . S
H148 C130 0.931 . S
H149 C131 0.929 . S
H150 C132 0.930 . S
H151 C135 0.930 . S
H152 C136 0.931 . S
H153 C140 0.928 . S
H154 C139 0.929 . S
H155 C137 0.932 . S
C156 C157 1.386 . S
C156 C158 1.397 . S
C156 H180 0.931 . S
C157 C156 1.386 . S
C157 C161 1.397 . S
C158 C156 1.397 . S
C158 C159 1.384 . S
C158 H181 0.930 . S
C159 C158 1.384 . S
C159 C160 1.377 . S
C159 C162 1.481 . S
C160 C159 1.377 . S
C160 C161 1.389 . S
C160 H182 0.929 . S
C161 C157 1.397 . S
C161 C160 1.389 . S
C161 H183 0.931 . S
C162 C159 1.481 . S
C162 C163 1.387 . S
C162 C167 1.390 . S
C163 C162 1.387 . S
C163 C164 1.401 . S
C163 H184 0.930 . S
C164 C163 1.401 . S
C164 C165 1.376 1_554 S
C164 C173 1.511 . S
C165 C164 1.376 1_556 S
C165 C166 1.392 . S
C165 H186 0.931 . S
C166 C165 1.392 . S
C166 C167 1.361 1_556 S
C166 C168 1.500 . S
C167 C162 1.390 . S
C167 C166 1.361 1_554 S
C167 H185 0.931 . S
C168 C166 1.500 . S
C168 C169 1.371 . S
C168 C170 1.365 . S
C169 C168 1.371 . S
C169 C179 1.386 . S
C169 H187 0.931 . S
C170 C168 1.365 . S
C170 C171 1.409 . S
C170 H188 0.929 . S
C171 C170 1.409 . S
C171 C172 1.380 . S
C171 H189 0.930 . S
C172 C171 1.380 . S
C172 C179 1.357 . S
C173 C164 1.511 . S
C173 C174 1.341 . S
C173 C175 1.371 . S
C174 C173 1.341 . S
C174 C178 1.394 . S
C174 H190 0.930 . S
C175 C173 1.371 . S
C175 C176 1.392 . S
C175 H191 0.931 1_554 S
C176 C175 1.392 . S
C176 C177 1.331 . S
C176 H194 0.932 1_554 S
C177 C176 1.331 . S
C177 C178 1.336 . S
C178 C174 1.394 . S
C178 C177 1.336 . S
C178 H193 0.929 . S
C179 C169 1.386 . S
C179 C172 1.357 . S
C179 H192 0.928 . S
H180 C156 0.931 . S
H181 C158 0.930 . S
H182 C160 0.929 . S
H183 C161 0.931 . S
H184 C163 0.930 . S
H185 C167 0.931 . S
H186 C165 0.931 . S
H187 C169 0.931 . S
H188 C170 0.929 . S
H189 C171 0.930 . S
H190 C174 0.930 . S
H191 C175 0.931 1_556 S
H192 C179 0.928 . S
H193 C178 0.929 . S
H194 C176 0.932 1_556 S
C195 C196 1.389 . S
C195 C197 1.397 . S
C195 H219 0.931 . S
C196 C195 1.389 . S
C196 C200 1.394 1_655 S
C197 C195 1.397 . S
C197 C198 1.383 . S
C197 H220 0.930 . S
C198 C197 1.383 . S
C198 C199 1.378 1_655 S
C198 C201 1.480 . S
C199 C198 1.378 1_455 S
C199 C200 1.389 . S
C199 H221 0.929 . S
C200 C196 1.394 1_455 S
C200 C199 1.389 . S
C200 H222 0.931 . S
C201 C198 1.480 . S
C201 C202 1.388 . S
C201 C206 1.390 . S
C202 C201 1.388 . S
C202 C203 1.402 . S
C202 H223 0.930 . S
C203 C202 1.402 . S
C203 C204 1.376 1_554 S
C203 C212 1.512 . S
C204 C203 1.376 1_556 S
C204 C205 1.392 1_655 S
C204 H225 0.933 . S
C205 C204 1.392 1_455 S
C205 C206 1.361 1_456 S
C205 C207 1.499 . S
C206 C201 1.390 . S
C206 C205 1.361 1_654 S
C206 H224 0.931 . S
C207 C205 1.499 . S
C207 C208 1.357 1_455 S
C207 C209 1.380 . S
C208 C207 1.357 1_655 S
C208 C218 1.386 . S
C208 H226 0.931 . S
C209 C207 1.380 . S
C209 C210 1.409 . S
C209 H227 0.929 . S
C210 C209 1.409 . S
C210 C211 1.384 . S
C210 H228 0.930 . S
C211 C210 1.384 . S
C211 C218 1.353 1_455 S
C212 C203 1.512 . S
C212 C213 1.341 . S
C212 C214 1.371 1_655 S
C213 C212 1.341 . S
C213 C217 1.394 . S
C213 H229 0.930 . S
C214 C212 1.371 1_455 S
C214 C215 1.392 . S
C214 H230 0.931 1_554 S
C215 C214 1.392 . S
C215 C216 1.325 1_455 S
C215 H233 0.932 1_554 S
C216 C215 1.325 1_655 S
C216 C217 1.342 . S
C217 C213 1.394 . S
C217 C216 1.342 . S
C217 H232 0.929 . S
C218 C208 1.386 . S
C218 C211 1.353 1_655 S
C218 H231 0.928 . S
H219 C195 0.931 . S
H220 C197 0.930 . S
H221 C199 0.929 . S
H222 C200 0.931 . S
H223 C202 0.930 . S
H224 C206 0.931 . S
H225 C204 0.933 . S
H226 C208 0.931 . S
H227 C209 0.929 . S
H228 C210 0.930 . S
H229 C213 0.930 . S
H230 C214 0.931 1_556 S
H231 C218 0.928 . S
H232 C217 0.929 . S
H233 C215 0.932 1_556 S
C234 C235 1.389 . S
C234 C236 1.397 . S
C234 H258 0.931 . S
C235 C234 1.389 . S
C235 C239 1.394 1_565 S
C236 C234 1.397 . S
C236 C237 1.383 . S
C236 H259 0.930 . S
C237 C236 1.383 . S
C237 C238 1.378 1_565 S
C237 C240 1.480 . S
C238 C237 1.378 1_545 S
C238 C239 1.389 . S
C238 H260 0.929 . S
C239 C235 1.394 1_545 S
C239 C238 1.389 . S
C239 H261 0.931 . S
C240 C237 1.480 . S
C240 C241 1.388 . S
C240 C245 1.390 . S
C241 C240 1.388 . S
C241 C242 1.402 . S
C241 H262 0.930 . S
C242 C241 1.402 . S
C242 C243 1.376 1_554 S
C242 C251 1.512 . S
C243 C242 1.376 1_556 S
C243 C244 1.392 1_565 S
C243 H264 0.934 . S
C244 C243 1.392 1_545 S
C244 C245 1.361 1_546 S
C244 C246 1.499 . S
C245 C240 1.390 . S
C245 C244 1.361 1_564 S
C245 H263 0.931 . S
C246 C244 1.499 . S
C246 C247 1.357 1_545 S
C246 C248 1.380 . S
C247 C246 1.357 1_565 S
C247 C257 1.386 . S
C247 H265 0.931 . S
C248 C246 1.380 . S
C248 C249 1.409 . S
C248 H266 0.929 . S
C249 C248 1.409 . S
C249 C250 1.384 . S
C249 H267 0.930 . S
C250 C249 1.384 . S
C250 C257 1.353 1_545 S
C251 C242 1.512 . S
C251 C252 1.341 . S
C251 C253 1.371 1_565 S
C252 C251 1.341 . S
C252 C256 1.394 . S
C252 H268 0.930 . S
C253 C251 1.371 1_545 S
C253 C254 1.392 . S
C253 H269 0.931 1_554 S
C254 C253 1.392 . S
C254 C255 1.325 1_545 S
C254 H272 0.932 1_554 S
C255 C254 1.325 1_565 S
C255 C256 1.342 . S
C256 C252 1.394 . S
C256 C255 1.342 . S
C256 H271 0.929 . S
C257 C247 1.386 . S
C257 C250 1.353 1_565 S
C257 H270 0.928 . S
H258 C234 0.931 . S
H259 C236 0.930 . S
H260 C238 0.929 . S
H261 C239 0.931 . S
H262 C241 0.930 . S
H263 C245 0.931 . S
H264 C243 0.934 . S
H265 C247 0.931 . S
H266 C248 0.929 . S
H267 C249 0.930 . S
H268 C252 0.930 . S
H269 C253 0.931 1_556 S
H270 C257 0.928 . S
H271 C256 0.929 . S
H272 C254 0.932 1_556 S
C273 C274 1.386 . S
C273 C275 1.397 . S
C273 H297 0.931 . S
C274 C273 1.386 . S
C274 C278 1.397 . S
C275 C273 1.397 . S
C275 C276 1.384 . S
C275 H298 0.930 . S
C276 C275 1.384 . S
C276 C277 1.377 . S
C276 C279 1.481 . S
C277 C276 1.377 . S
C277 C278 1.389 . S
C277 H299 0.929 . S
C278 C274 1.397 . S
C278 C277 1.389 . S
C278 H300 0.931 . S
C279 C276 1.481 . S
C279 C280 1.387 . S
C279 C284 1.390 1_556 S
C280 C279 1.387 . S
C280 C281 1.401 1_556 S
C280 H301 0.930 . S
C281 C280 1.401 1_554 S
C281 C282 1.376 . S
C281 C290 1.511 . S
C282 C281 1.376 . S
C282 C283 1.392 . S
C282 H303 0.931 . S
C283 C282 1.392 . S
C283 C284 1.361 . S
C283 C285 1.500 . S
C284 C279 1.390 1_554 S
C284 C283 1.361 . S
C284 H302 0.931 . S
C285 C283 1.500 . S
C285 C286 1.371 . S
C285 C287 1.365 . S
C286 C285 1.371 . S
C286 C296 1.386 . S
C286 H304 0.931 . S
C287 C285 1.365 . S
C287 C288 1.409 . S
C287 H305 0.929 . S
C288 C287 1.409 . S
C288 C289 1.380 . S
C288 H306 0.930 . S
C289 C288 1.380 . S
C289 C296 1.357 . S
C290 C281 1.511 . S
C290 C291 1.341 . S
C290 C292 1.371 . S
C291 C290 1.341 . S
C291 C295 1.394 . S
C291 H307 0.930 1_554 S
C292 C290 1.371 . S
C292 C293 1.392 . S
C292 H308 0.931 . S
C293 C292 1.392 . S
C293 C294 1.331 . S
C293 H311 0.932 . S
C294 C293 1.331 . S
C294 C295 1.336 . S
C295 C291 1.394 . S
C295 C294 1.336 . S
C295 H310 0.929 1_554 S
C296 C286 1.386 . S
C296 C289 1.357 . S
C296 H309 0.928 . S
H297 C273 0.931 . S
H298 C275 0.930 . S
H299 C277 0.929 . S
H300 C278 0.931 . S
H301 C280 0.930 . S
H302 C284 0.931 . S
H303 C282 0.931 . S
H304 C286 0.931 . S
H305 C287 0.929 . S
H306 C288 0.930 . S
H307 C291 0.930 1_556 S
H308 C292 0.931 . S
H309 C296 0.928 . S
H310 C295 0.929 1_556 S
H311 C293 0.932 . S
Gd312 C315 2.818 . S
Gd312 O332 2.377 . S
Gd312 O334 2.448 . S
Gd312 O335 2.506 . S
Gd312 O336 2.435 . S
Gd312 O337 2.717 1_565 S
Gd312 O339 2.395 1_565 S
Gd312 O343 2.327 1_455 S
Gd313 C324 2.818 . S
Gd313 O333 2.395 1_545 S
Gd313 O337 2.327 1_655 S
Gd313 O338 2.377 . S
Gd313 O340 2.448 . S
Gd313 O341 2.506 . S
Gd313 O342 2.435 . S
Gd313 O343 2.717 1_545 S
C314 O332 1.240 1_655 S
C314 O333 1.240 . S
C315 Gd312 2.818 . S
C315 C316 1.510 . S
C315 O334 1.249 . S
C315 O335 1.252 . S
C316 C315 1.510 . S
C316 C317 1.404 . S
C316 C318 1.352 1_556 S
C317 C316 1.404 . S
C317 C321 1.389 1_556 S
C317 H344 0.930 . S
C318 C316 1.352 1_554 S
C318 C320 1.374 . S
C318 H345 0.931 1_454 S
C319 C320 1.359 . S
C319 C321 1.364 . S
C320 C318 1.374 . S
C320 C319 1.359 . S
C320 H346 0.962 . S
C321 C317 1.389 1_554 S
C321 C319 1.364 . S
C321 H347 0.931 . S
C322 O336 1.256 . S
C322 O337 1.257 1_565 S
C323 O338 1.240 1_455 S
C323 O339 1.240 . S
C324 Gd313 2.818 . S
C324 C325 1.510 . S
C324 O340 1.249 . S
C324 O341 1.252 . S
C325 C324 1.510 . S
C325 C326 1.404 . S
C325 C327 1.352 . S
C326 C325 1.404 . S
C326 C330 1.389 . S
C326 H348 0.930 . S
C327 C325 1.352 . S
C327 C329 1.374 . S
C327 H349 0.931 1_655 S
C328 C329 1.359 . S
C328 C330 1.364 . S
C329 C327 1.374 . S
C329 C328 1.359 . S
C329 H350 0.955 . S
C330 C326 1.389 . S
C330 C328 1.364 . S
C330 H351 0.931 . S
C331 O342 1.256 . S
C331 O343 1.257 1_545 S
O332 Gd312 2.377 . S
O332 C314 1.240 1_455 S
O333 Gd313 2.395 1_565 S
O333 C314 1.240 . S
O334 Gd312 2.448 . S
O334 C315 1.249 . S
O335 Gd312 2.506 . S
O335 C315 1.252 . S
O336 Gd312 2.435 . S
O336 C322 1.256 . S
O337 Gd312 2.717 1_545 S
O337 Gd313 2.327 1_455 S
O337 C322 1.257 1_545 S
O338 Gd313 2.377 . S
O338 C323 1.240 1_655 S
O339 Gd312 2.395 1_545 S
O339 C323 1.240 . S
O340 Gd313 2.448 . S
O340 C324 1.249 . S
O341 Gd313 2.506 . S
O341 C324 1.252 . S
O342 Gd313 2.435 . S
O342 C331 1.256 . S
O343 Gd312 2.327 1_655 S
O343 Gd313 2.717 1_565 S
O343 C331 1.257 1_565 S
H344 C317 0.930 . S
H345 C318 0.931 1_656 S
H346 C320 0.962 . S
H347 C321 0.931 . S
H348 C326 0.930 . S
H349 C327 0.931 1_455 S
H350 C329 0.955 . S
H351 C330 0.931 . S
Gd352 C355 2.818 . S
Gd352 O372 2.377 . S
Gd352 O374 2.448 . S
Gd352 O375 2.506 . S
Gd352 O376 2.435 . S
Gd352 O377 2.717 . S
Gd352 O379 2.395 . S
Gd352 O383 2.327 1_545 S
Gd353 C364 2.818 . S
Gd353 O373 2.395 . S
Gd353 O377 2.327 1_565 S
Gd353 O378 2.377 . S
Gd353 O380 2.448 . S
Gd353 O381 2.506 . S
Gd353 O382 2.435 . S
Gd353 O383 2.717 . S
C354 O372 1.240 1_565 S
C354 O373 1.240 . S
C355 Gd352 2.818 . S
C355 C356 1.510 . S
C355 O374 1.249 . S
C355 O375 1.252 . S
C356 C355 1.510 . S
C356 C357 1.404 . S
C356 C358 1.352 1_556 S
C357 C356 1.404 . S
C357 C361 1.389 1_556 S
C357 H384 0.930 . S
C358 C356 1.352 1_554 S
C358 C360 1.374 . S
C358 H385 0.931 1_544 S
C359 C360 1.359 . S
C359 C361 1.364 . S
C360 C358 1.374 . S
C360 C359 1.359 . S
C360 H386 0.945 . S
C361 C357 1.389 1_554 S
C361 C359 1.364 . S
C361 H387 0.931 . S
C362 O376 1.256 . S
C362 O377 1.257 . S
C363 O378 1.240 1_545 S
C363 O379 1.240 . S
C364 Gd353 2.818 . S
C364 C365 1.510 . S
C364 O380 1.249 . S
C364 O381 1.252 . S
C365 C364 1.510 . S
C365 C366 1.404 . S
C365 C367 1.352 . S
C366 C365 1.404 . S
C366 C370 1.389 . S
C366 H388 0.930 . S
C367 C365 1.352 . S
C367 C369 1.374 . S
C367 H389 0.931 1_565 S
C368 C369 1.359 . S
C368 C370 1.364 . S
C369 C367 1.374 . S
C369 C368 1.359 . S
C369 H390 0.938 . S
C370 C366 1.389 . S
C370 C368 1.364 . S
C370 H391 0.931 . S
C371 O382 1.256 . S
C371 O383 1.257 . S
O372 Gd352 2.377 . S
O372 C354 1.240 1_545 S
O373 Gd353 2.395 . S
O373 C354 1.240 . S
O374 Gd352 2.448 . S
O374 C355 1.249 . S
O375 Gd352 2.506 . S
O375 C355 1.252 . S
O376 Gd352 2.435 . S
O376 C362 1.256 . S
O377 Gd352 2.717 . S
O377 Gd353 2.327 1_545 S
O377 C362 1.257 . S
O378 Gd353 2.377 . S
O378 C363 1.240 1_565 S
O379 Gd352 2.395 . S
O379 C363 1.240 . S
O380 Gd353 2.448 . S
O380 C364 1.249 . S
O381 Gd353 2.506 . S
O381 C364 1.252 . S
O382 Gd353 2.435 . S
O382 C371 1.256 . S
O383 Gd352 2.327 1_565 S
O383 Gd353 2.717 . S
O383 C371 1.257 . S
H384 C357 0.930 . S
H385 C358 0.931 1_566 S
H386 C360 0.945 . S
H387 C361 0.931 . S
H388 C366 0.930 . S
H389 C367 0.931 1_545 S
H390 C369 0.938 . S
H391 C370 0.931 . S
Gd392 C395 2.818 . S
Gd392 O412 2.377 . S
Gd392 O414 2.448 . S
Gd392 O415 2.506 . S
Gd392 O416 2.435 . S
Gd392 O417 2.717 . S
Gd392 O419 2.395 . S
Gd392 O423 2.327 . S
Gd393 C404 2.818 . S
Gd393 O413 2.395 . S
Gd393 O417 2.327 . S
Gd393 O418 2.377 . S
Gd393 O420 2.448 . S
Gd393 O421 2.506 . S
Gd393 O422 2.435 . S
Gd393 O423 2.717 . S
C394 O412 1.240 . S
C394 O413 1.240 . S
C395 Gd392 2.818 . S
C395 C396 1.510 . S
C395 O414 1.249 . S
C395 O415 1.252 . S
C396 C395 1.510 . S
C396 C397 1.404 . S
C396 C398 1.352 1_556 S
C397 C396 1.404 . S
C397 C401 1.389 1_556 S
C397 H424 0.930 . S
C398 C396 1.352 1_554 S
C398 C400 1.374 . S
C398 H425 0.931 1_554 S
C399 C400 1.359 . S
C399 C401 1.364 . S
C400 C398 1.374 . S
C400 C399 1.359 . S
C400 H426 0.931 . S
C401 C397 1.389 1_554 S
C401 C399 1.364 . S
C401 H427 0.931 . S
C402 O416 1.256 . S
C402 O417 1.257 . S
C403 O418 1.240 . S
C403 O419 1.240 . S
C404 Gd393 2.818 . S
C404 C405 1.510 . S
C404 O420 1.249 . S
C404 O421 1.252 . S
C405 C404 1.510 . S
C405 C406 1.404 . S
C405 C407 1.352 . S
C406 C405 1.404 . S
C406 C410 1.389 . S
C406 H428 0.930 . S
C407 C405 1.352 . S
C407 C409 1.374 . S
C407 H429 0.931 . S
C408 C409 1.359 . S
C408 C410 1.364 . S
C409 C407 1.374 . S
C409 C408 1.359 . S
C409 H430 0.931 . S
C410 C406 1.389 . S
C410 C408 1.364 . S
C410 H431 0.931 . S
C411 O422 1.256 . S
C411 O423 1.257 . S
O412 Gd392 2.377 . S
O412 C394 1.240 . S
O413 Gd393 2.395 . S
O413 C394 1.240 . S
O414 Gd392 2.448 . S
O414 C395 1.249 . S
O415 Gd392 2.506 . S
O415 C395 1.252 . S
O416 Gd392 2.435 . S
O416 C402 1.256 . S
O417 Gd392 2.717 . S
O417 Gd393 2.327 . S
O417 C402 1.257 . S
O418 Gd393 2.377 . S
O418 C403 1.240 . S
O419 Gd392 2.395 . S
O419 C403 1.240 . S
O420 Gd393 2.448 . S
O420 C404 1.249 . S
O421 Gd393 2.506 . S
O421 C404 1.252 . S
O422 Gd393 2.435 . S
O422 C411 1.256 . S
O423 Gd392 2.327 . S
O423 Gd393 2.717 . S
O423 C411 1.257 . S
H424 C397 0.930 . S
H425 C398 0.931 1_556 S
H426 C400 0.931 . S
H427 C401 0.931 . S
H428 C406 0.930 . S
H429 C407 0.931 . S
H430 C409 0.931 . S
H431 C410 0.931 . S
Gd432 C435 2.818 . S
Gd432 O452 2.377 . S
Gd432 O454 2.448 . S
Gd432 O455 2.506 . S
Gd432 O456 2.435 . S
Gd432 O457 2.717 1_655 S
Gd432 O459 2.395 1_655 S
Gd432 O463 2.327 . S
Gd433 C444 2.818 . S
Gd433 O453 2.395 1_455 S
Gd433 O457 2.327 . S
Gd433 O458 2.377 . S
Gd433 O460 2.448 . S
Gd433 O461 2.506 . S
Gd433 O462 2.435 . S
Gd433 O463 2.717 1_455 S
C434 O452 1.240 . S
C434 O453 1.240 . S
C435 Gd432 2.818 . S
C435 C436 1.510 . S
C435 O454 1.249 . S
C435 O455 1.252 . S
C436 C435 1.510 . S
C436 C437 1.404 . S
C436 C438 1.352 1_556 S
C437 C436 1.404 . S
C437 C441 1.389 1_556 S
C437 H464 0.930 . S
C438 C436 1.352 1_554 S
C438 C440 1.374 . S
C438 H465 0.931 1_554 S
C439 C440 1.359 . S
C439 C441 1.364 . S
C440 C438 1.374 . S
C440 C439 1.359 . S
C440 H466 0.931 . S
C441 C437 1.389 1_554 S
C441 C439 1.364 . S
C441 H467 0.931 . S
C442 O456 1.272 . S
C442 O457 1.249 1_655 S
C443 O458 1.240 . S
C443 O459 1.240 . S
C444 Gd433 2.818 . S
C444 C445 1.510 . S
C444 O460 1.249 . S
C444 O461 1.252 . S
C445 C444 1.510 . S
C445 C446 1.404 . S
C445 C447 1.352 . S
C446 C445 1.404 . S
C446 C450 1.389 . S
C446 H468 0.930 . S
C447 C445 1.352 . S
C447 C449 1.374 . S
C447 H469 0.931 . S
C448 C449 1.359 . S
C448 C450 1.364 . S
C449 C447 1.374 . S
C449 C448 1.359 . S
C449 H470 0.931 . S
C450 C446 1.389 . S
C450 C448 1.364 . S
C450 H471 0.931 . S
C451 O462 1.256 . S
C451 O463 1.257 1_455 S
O452 Gd432 2.377 . S
O452 C434 1.240 . S
O453 Gd433 2.395 1_655 S
O453 C434 1.240 . S
O454 Gd432 2.448 . S
O454 C435 1.249 . S
O455 Gd432 2.506 . S
O455 C435 1.252 . S
O456 Gd432 2.435 . S
O456 C442 1.272 . S
O457 Gd432 2.717 1_455 S
O457 Gd433 2.327 . S
O457 C442 1.249 1_455 S
O458 Gd433 2.377 . S
O458 C443 1.240 . S
O459 Gd432 2.395 1_455 S
O459 C443 1.240 . S
O460 Gd433 2.448 . S
O460 C444 1.249 . S
O461 Gd433 2.506 . S
O461 C444 1.252 . S
O462 Gd433 2.435 . S
O462 C451 1.256 . S
O463 Gd432 2.327 . S
O463 Gd433 2.717 1_655 S
O463 C451 1.257 1_655 S
H464 C437 0.930 . S
H465 C438 0.931 1_556 S
H466 C440 0.931 . S
H467 C441 0.931 . S
H468 C446 0.930 . S
H469 C447 0.931 . S
H470 C449 0.931 . S
H471 C450 0.931 . S
C472 C473 1.359 1_565 S
C472 H476 0.950 . S
C472 C481 1.390 . S
C473 C472 1.359 1_545 S
C473 C475 1.417 . S
H474 C481 0.950 . S
C475 C473 1.417 . S
C475 C477 1.390 . S
C475 H479 0.950 . S
H476 C472 0.950 . S
C477 C475 1.390 . S
C477 C478 1.387 . S
C477 H480 0.950 . S
C478 C477 1.387 . S
C478 C481 1.387 1_545 S
H479 C475 0.950 . S
H480 C477 0.950 . S
C481 C472 1.390 . S
C481 H474 0.950 . S
C481 C478 1.387 1_565 S
C482 C483 1.387 . S
C482 H486 0.950 . S
C482 C491 1.390 . S
C483 C482 1.387 . S
C483 C485 1.387 . S
H484 C491 0.950 . S
C485 C483 1.387 . S
C485 C487 1.390 . S
C485 H489 0.950 . S
H486 C482 0.950 . S
C487 C485 1.390 . S
C487 C488 1.387 . S
C487 H490 0.950 . S
C488 C487 1.387 . S
C488 C491 1.387 . S
H489 C485 0.950 . S
H490 C487 0.950 . S
C491 C482 1.390 . S
C491 H484 0.950 . S
C491 C488 1.387 . S
C492 C493 1.387 . S
C492 H496 0.950 . S
C492 C501 1.390 . S
C493 C492 1.387 . S
C493 C495 1.387 . S
H494 C501 0.950 . S
C495 C493 1.387 . S
C495 C497 1.390 . S
C495 H499 0.950 . S
H496 C492 0.950 . S
C497 C495 1.390 . S
C497 C498 1.387 . S
C497 H500 0.950 . S
C498 C497 1.387 . S
C498 C501 1.387 . S
H499 C495 0.950 . S
H500 C497 0.950 . S
C501 C492 1.390 . S
C501 H494 0.950 . S
C501 C498 1.387 . S
C502 C503 1.411 . S
C502 H506 0.950 . S
C502 C511 1.390 . S
C503 C502 1.411 . S
C503 C505 1.366 1_455 S
H504 C511 0.950 . S
C505 C503 1.366 1_655 S
C505 C507 1.390 . S
C505 H509 0.950 . S
H506 C502 0.950 . S
C507 C505 1.390 . S
C507 C508 1.387 1_655 S
C507 H510 0.950 . S
C508 C507 1.387 1_455 S
C508 C511 1.387 . S
H509 C505 0.950 . S
H510 C507 0.950 . S
C511 C502 1.390 . S
C511 H504 0.950 . S
C511 C508 1.387 . S
C512 C513 1.369 1_545 S
C512 H516 0.950 . S
C512 C521 1.390 . S
C513 C512 1.369 1_565 S
C513 C515 1.407 . S
H514 C521 0.950 . S
C515 C513 1.407 . S
C515 C517 1.390 . S
C515 H519 0.950 . S
H516 C512 0.950 . S
C517 C515 1.390 . S
C517 C518 1.387 . S
C517 H520 0.950 . S
C518 C517 1.387 . S
C518 C521 1.387 1_565 S
H519 C515 0.950 . S
H520 C517 0.950 . S
C521 C512 1.390 . S
C521 H514 0.950 . S
C521 C518 1.387 1_545 S
C522 C523 1.387 . S
C522 H526 0.950 . S
C522 C531 1.390 . S
C523 C522 1.387 . S
C523 C525 1.387 . S
H524 C531 0.950 . S
C525 C523 1.387 . S
C525 C527 1.390 . S
C525 H529 0.950 . S
H526 C522 0.950 . S
C527 C525 1.390 . S
C527 C528 1.387 . S
C527 H530 0.950 . S
C528 C527 1.387 . S
C528 C531 1.387 . S
H529 C525 0.950 . S
H530 C527 0.950 . S
C531 C522 1.390 . S
C531 H524 0.950 . S
C531 C528 1.387 . S
C532 C533 1.387 . S
C532 H536 0.950 . S
C532 C541 1.390 . S
C533 C532 1.387 . S
C533 C535 1.387 . S
H534 C541 0.950 . S
C535 C533 1.387 . S
C535 C537 1.390 . S
C535 H539 0.950 . S
H536 C532 0.950 . S
C537 C535 1.390 . S
C537 C538 1.387 . S
C537 H540 0.950 . S
C538 C537 1.387 . S
C538 C541 1.387 . S
H539 C535 0.950 . S
H540 C537 0.950 . S
C541 C532 1.390 . S
C541 H534 0.950 . S
C541 C538 1.387 . S
C542 C543 1.370 1_455 S
C542 H546 0.950 . S
C542 C551 1.390 . S
C543 C542 1.370 1_655 S
C543 C545 1.406 . S
H544 C551 0.950 . S
C545 C543 1.406 . S
C545 C547 1.390 . S
C545 H549 0.950 . S
H546 C542 0.950 . S
C547 C545 1.390 . S
C547 C548 1.387 . S
C547 H550 0.950 . S
C548 C547 1.387 . S
C548 C551 1.387 1_655 S
H549 C545 0.950 . S
H550 C547 0.950 . S
C551 C542 1.390 . S
C551 H544 0.950 . S
C551 C548 1.387 1_455 S
C552 C553 1.387 . S
C552 H556 0.950 . S
C552 C561 1.390 . S
C553 C552 1.387 . S
C553 C555 1.387 . S
H554 C561 0.950 . S
C555 C553 1.387 . S
C555 C557 1.390 . S
C555 H559 0.950 1_655 S
H556 C552 0.950 . S
C557 C555 1.390 . S
C557 C558 1.387 . S
C557 H560 0.950 . S
C558 C557 1.387 . S
C558 C561 1.387 . S
H559 C555 0.950 1_455 S
H560 C557 0.950 . S
C561 C552 1.390 . S
C561 H554 0.950 . S
C561 C558 1.387 . S
C562 C563 1.387 . S
C562 H566 0.950 . S
C562 C571 1.390 . S
C563 C562 1.387 . S
C563 C565 1.387 1_565 S
H564 C571 0.950 . S
C565 C563 1.387 1_545 S
C565 C567 1.390 1_545 S
C565 H569 0.950 . S
H566 C562 0.950 . S
C567 C565 1.390 1_565 S
C567 C568 1.387 . S
C567 H570 0.950 . S
C568 C567 1.387 . S
C568 C571 1.387 . S
H569 C565 0.950 . S
H570 C567 0.950 . S
C571 C562 1.390 . S
C571 H564 0.950 . S
C571 C568 1.387 . S
C572 C573 1.387 . S
C572 H576 0.950 . S
C572 C581 1.390 . S
C573 C572 1.387 . S
C573 C575 1.387 . S
H574 C581 0.950 . S
C575 C573 1.387 . S
C575 C577 1.390 . S
C575 H579 0.950 . S
H576 C572 0.950 . S
C577 C575 1.390 . S
C577 C578 1.387 . S
C577 H580 0.950 . S
C578 C577 1.387 . S
C578 C581 1.387 . S
H579 C575 0.950 . S
H580 C577 0.950 . S
C581 C572 1.390 . S
C581 H574 0.950 . S
C581 C578 1.387 . S
C582 C583 1.387 . S
C582 H586 0.950 . S
C582 C591 1.390 . S
C583 C582 1.387 . S
C583 C585 1.387 . S
H584 C591 0.950 . S
C585 C583 1.387 . S
C585 C587 1.390 . S
C585 H589 0.950 . S
H586 C582 0.950 . S
C587 C585 1.390 . S
C587 C588 1.387 . S
C587 H590 0.950 . S
C588 C587 1.387 . S
C588 C591 1.387 . S
H589 C585 0.950 . S
H590 C587 0.950 . S
C591 C582 1.390 . S
C591 H584 0.950 . S
C591 C588 1.387 . S
C592 C593 1.387 . S
C592 H596 0.950 . S
C592 C601 1.390 . S
C593 C592 1.387 . S
C593 C595 1.387 . S
H594 C601 0.950 1_556 S
C595 C593 1.387 . S
C595 C597 1.390 . S
C595 H599 0.950 1_455 S
H596 C592 0.950 . S
C597 C595 1.390 . S
C597 C598 1.387 . S
C597 H600 0.950 . S
C598 C597 1.387 . S
C598 C601 1.387 . S
H599 C595 0.950 1_655 S
H600 C597 0.950 . S
C601 C592 1.390 . S
C601 H594 0.950 1_554 S
C601 C598 1.387 . S
C602 C603 1.387 . S
C602 H606 0.950 . S
C602 C611 1.390 . S
C603 C602 1.387 . S
C603 C605 1.387 . S
H604 C611 0.950 . S
C605 C603 1.387 . S
C605 C607 1.390 . S
C605 H609 0.950 1_544 S
H606 C602 0.950 . S
C607 C605 1.390 . S
C607 C608 1.387 . S
C607 H610 0.950 1_554 S
C608 C607 1.387 . S
C608 C611 1.387 . S
H609 C605 0.950 1_566 S
H610 C607 0.950 1_556 S
C611 C602 1.390 . S
C611 H604 0.950 . S
C611 C608 1.387 . S
C612 C613 1.387 . S
C612 H616 0.950 1_554 S
C612 C621 1.390 . S
C613 C612 1.387 . S
C613 C615 1.387 . S
H614 C621 0.950 1_556 S
C615 C613 1.387 . S
C615 C617 1.390 . S
C615 H619 0.950 . S
H616 C612 0.950 1_556 S
C617 C615 1.390 . S
C617 C618 1.387 . S
C617 H620 0.950 . S
C618 C617 1.387 . S
C618 C621 1.387 . S
H619 C615 0.950 . S
H620 C617 0.950 . S
C621 C612 1.390 . S
C621 H614 0.950 1_554 S
C621 C618 1.387 . S
C622 C623 1.387 . S
C622 H626 0.950 1_554 S
C622 C631 1.390 . S
C623 C622 1.387 . S
C623 C625 1.387 . S
H624 C631 0.950 1_556 S
C625 C623 1.387 . S
C625 C627 1.390 . S
C625 H629 0.950 . S
H626 C622 0.950 1_556 S
C627 C625 1.390 . S
C627 C628 1.387 . S
C627 H630 0.950 . S
C628 C627 1.387 . S
C628 C631 1.387 . S
H629 C625 0.950 . S
H630 C627 0.950 . S
C631 C622 1.390 . S
C631 H624 0.950 1_554 S
C631 C628 1.387 . S
C632 C633 1.387 . S
C632 H636 0.950 . S
C632 C641 1.390 . S
C633 C632 1.387 . S
C633 C635 1.387 1_455 S
H634 C641 0.950 . S
C635 C633 1.387 1_655 S
C635 C637 1.390 . S
C635 H639 0.950 . S
H636 C632 0.950 . S
C637 C635 1.390 . S
C637 C638 1.387 1_655 S
C637 H640 0.950 . S
C638 C637 1.387 1_455 S
C638 C641 1.387 . S
H639 C635 0.950 . S
H640 C637 0.950 . S
C641 C632 1.390 . S
C641 H634 0.950 . S
C641 C638 1.387 . S
C642 C643 1.387 1_565 S
C642 H646 0.950 . S
C642 C651 1.390 . S
C643 C642 1.387 1_545 S
C643 C645 1.387 . S
H644 C651 0.950 . S
C645 C643 1.387 . S
C645 C647 1.390 . S
C645 H649 0.950 . S
H646 C642 0.950 . S
C647 C645 1.390 . S
C647 C648 1.387 . S
C647 H650 0.950 . S
C648 C647 1.387 . S
C648 C651 1.387 1_545 S
H649 C645 0.950 . S
H650 C647 0.950 . S
C651 C642 1.390 . S
C651 H644 0.950 . S
C651 C648 1.387 1_565 S
C652 C653 1.387 . S
C652 H656 0.950 . S
C652 C661 1.390 . S
C653 C652 1.387 . S
C653 C655 1.387 . S
H654 C661 0.950 . S
C655 C653 1.387 . S
C655 C657 1.390 . S
C655 H659 0.950 . S
H656 C652 0.950 . S
C657 C655 1.390 . S
C657 C658 1.387 . S
C657 H660 0.950 . S
C658 C657 1.387 . S
C658 C661 1.387 . S
H659 C655 0.950 . S
H660 C657 0.950 . S
C661 C652 1.390 . S
C661 H654 0.950 . S
C661 C658 1.387 . S
C662 C663 1.387 . S
C662 H666 0.950 . S
C662 C671 1.390 . S
C663 C662 1.387 . S
C663 C665 1.387 . S
H664 C671 0.950 . S
C665 C663 1.387 . S
C665 C667 1.390 . S
C665 H669 0.950 . S
H666 C662 0.950 . S
C667 C665 1.390 . S
C667 C668 1.387 . S
C667 H670 0.950 . S
C668 C667 1.387 . S
C668 C671 1.387 . S
H669 C665 0.950 . S
H670 C667 0.950 . S
C671 C662 1.390 . S
C671 H664 0.950 . S
C671 C668 1.387 . S
C672 C673 1.387 . S
C672 H676 0.950 . S
C672 C681 1.390 . S
C673 C672 1.387 . S
C673 C675 1.387 1_655 S
H674 C681 0.950 . S
C675 C673 1.387 1_455 S
C675 C677 1.390 . S
C675 H679 0.950 . S
H676 C672 0.950 . S
C677 C675 1.390 . S
C677 C678 1.387 1_455 S
C677 H680 0.950 . S
C678 C677 1.387 1_655 S
C678 C681 1.387 . S
H679 C675 0.950 . S
H680 C677 0.950 . S
C681 C672 1.390 . S
C681 H674 0.950 . S
C681 C678 1.387 . S
C682 C683 1.387 1_545 S
C682 H686 0.950 . S
C682 C691 1.390 . S
C683 C682 1.387 1_565 S
C683 C685 1.387 . S
H684 C691 0.950 . S
C685 C683 1.387 . S
C685 C687 1.390 . S
C685 H689 0.950 . S
H686 C682 0.950 . S
C687 C685 1.390 . S
C687 C688 1.387 . S
C687 H690 0.950 . S
C688 C687 1.387 . S
C688 C691 1.387 1_565 S
H689 C685 0.950 . S
H690 C687 0.950 . S
C691 C682 1.390 . S
C691 H684 0.950 . S
C691 C688 1.387 1_545 S
C692 C693 1.387 . S
C692 H696 0.950 . S
C692 C701 1.390 . S
C693 C692 1.387 . S
C693 C695 1.387 . S
H694 C701 0.950 . S
C695 C693 1.387 . S
C695 C697 1.390 . S
C695 H699 0.950 . S
H696 C692 0.950 . S
C697 C695 1.390 . S
C697 C698 1.387 . S
C697 H700 0.950 . S
C698 C697 1.387 . S
C698 C701 1.387 . S
H699 C695 0.950 . S
H700 C697 0.950 . S
C701 C692 1.390 . S
C701 H694 0.950 . S
C701 C698 1.387 . S
C702 C703 1.387 . S
C702 H706 0.950 . S
C702 C711 1.390 . S
C703 C702 1.387 . S
C703 C705 1.387 . S
H704 C711 0.950 . S
C705 C703 1.387 . S
C705 C707 1.390 . S
C705 H709 0.950 . S
H706 C702 0.950 . S
C707 C705 1.390 . S
C707 C708 1.387 . S
C707 H710 0.950 . S
C708 C707 1.387 . S
C708 C711 1.387 . S
H709 C705 0.950 . S
H710 C707 0.950 . S
C711 C702 1.390 . S
C711 H704 0.950 . S
C711 C708 1.387 . S
C473 C255 2.545 1_545 S
C478 C322 2.861 1_545 S
C488 C362 2.880 . S
C483 C294 2.521 . S
C498 C402 2.868 . S
C493 C177 2.552 . S
C508 C442 2.867 1_455 S
C503 C216 2.550 1_455 S
C518 C331 2.861 1_564 S
C513 C99 2.544 . S
C523 C138 2.528 . S
C528 C371 2.882 1_554 S
C533 C21 2.549 . S
C538 C411 2.867 1_554 S
C543 C60 2.550 . S
C548 C451 2.868 1_654 S
C558 C328 0.797 . S
C553 C196 0.806 . S
C568 C368 0.800 . S
C563 C235 0.812 . S
C578 C408 0.784 . S
C573 C289 0.792 . S
C583 C157 0.799 . S
C588 C448 0.785 . S
C593 C40 0.808 1_455 S
C598 C319 0.799 . S
C608 C359 0.805 . S
C603 C79 0.815 1_545 S
C618 C399 0.784 . S
C613 C133 0.794 . S
C623 C1 0.803 . S
C628 C439 0.794 . S
C633 C211 3.214 . S
C638 C323 3.742 . S
C643 C250 3.196 . S
C648 C363 3.731 . S
C658 C403 3.734 . S
C653 C274 3.206 . S
C668 C443 3.738 . S
C663 C172 3.198 . S
C673 C55 3.212 1_655 S
C678 C314 3.749 . S
C688 C354 3.732 . S
C683 C94 3.199 1_565 S
C698 C394 3.736 . S
C693 C118 3.211 . S
C703 C16 3.207 . S
C708 C434 3.743 . S
