# Generated by pormake.
# Topology cml, (3,6)-cn, num edge types: 1
# Building blocks:
#     Node 0, Type 0, BuildingBlock: BELTOD_clean_linker_0, # of connection points: 3
#     Node 1, Type 0, BuildingBlock: BELTOD_clean_linker_0, # of connection points: 3
#     Node 2, Type 0, BuildingBlock: BELTOD_clean_linker_0, # of connection points: 3
#     Node 3, Type 0, BuildingBlock: BELTOD_clean_linker_0, # of connection points: 3
#     Node 4, Type 0, BuildingBlock: BELTOD_clean_linker_0, # of connection points: 3
#     Node 5, Type 0, BuildingBlock: BELTOD_clean_linker_0, # of connection points: 3
#     Node 6, Type 0, BuildingBlock: BELTOD_clean_linker_0, # of connection points: 3
#     Node 7, Type 0, BuildingBlock: BELTOD_clean_linker_0, # of connection points: 3
#     Node 8, Type 1, BuildingBlock: OJICUG_clean_sbu_0, # of connection points: 6
#     Node 9, Type 1, BuildingBlock: OJICUG_clean_sbu_0, # of connection points: 6
#     Node 10, Type 1, BuildingBlock: OJICUG_clean_sbu_0, # of connection points: 6
#     Node 11, Type 1, BuildingBlock: OJICUG_clean_sbu_0, # of connection points: 6
#     Edge 12, Type (0, 1), None
#     Edge 13, Type (0, 1), None
#     Edge 14, Type (0, 1), None
#     Edge 15, Type (0, 1), None
#     Edge 16, Type (0, 1), None
#     Edge 17, Type (0, 1), None
#     Edge 18, Type (0, 1), None
#     Edge 19, Type (0, 1), None
#     Edge 20, Type (0, 1), None
#     Edge 21, Type (0, 1), None
#     Edge 22, Type (0, 1), None
#     Edge 23, Type (0, 1), None
#     Edge 24, Type (0, 1), None
#     Edge 25, Type (0, 1), None
#     Edge 26, Type (0, 1), None
#     Edge 27, Type (0, 1), None
#     Edge 28, Type (0, 1), None
#     Edge 29, Type (0, 1), None
#     Edge 30, Type (0, 1), None
#     Edge 31, Type (0, 1), None
#     Edge 32, Type (0, 1), None
#     Edge 33, Type (0, 1), None
#     Edge 34, Type (0, 1), None
#     Edge 35, Type (0, 1), None
# Relax obj value: 0.064
# Max RMSD: 0.080
# Mean RMSD: 0.076
data_MOF--net-cml--node1-OJICUG_clean_sbu_0--node2-BELTOD_clean_linker_0--edge1-none
_symmetry_space_group_name_H-M    P1
_symmetry_Int_Tables_number       1
_symmetry_cell_setting            triclinic
loop_
_symmetry_equiv_pos_as_xyz
'x, y, z'
_cell_length_a     23.571894
_cell_length_b     23.529841
_cell_length_c     22.066955
_cell_angle_alpha  89.399742
_cell_angle_beta   89.509832
_cell_angle_gamma 89.63471
loop_
_atom_site_label
_atom_site_type_symbol
_atom_site_fract_x
_atom_site_fract_y
_atom_site_fract_z
_atom_type_partial_charge
P0 P 0.31193 0.32238 0.95004 0.0
H1 H 0.36573 0.22896 0.01676 0.0
H2 H 0.41103 0.22875 0.11547 0.0
H3 H 0.33433 0.39199 0.1543 0.0
H4 H 0.28758 0.39091 0.05588 0.0
H5 H 0.25457 0.32138 0.83525 0.0
H6 H 0.15843 0.29741 0.80715 0.0
H7 H 0.1124 0.28106 -0.00314 0.0
H8 H 0.2086 0.307 0.02452 0.0
H9 H 0.41301 0.37813 -0.00804 0.0
H10 H 0.27472 0.41826 0.87108 0.0
O11 O 0.34867 0.2751 0.90948 0.0
H12 H 0.45488 0.47028 0.97049 0.0
H13 H 0.31938 0.50924 0.84614 0.0
C14 C 0.32452 0.31049 0.02893 0.0
C15 C 0.35687 0.26357 0.04743 0.0
C16 C 0.38295 0.26373 0.10378 0.0
C17 C 0.37753 0.31132 0.14149 0.0
C18 C 0.34011 0.35543 0.1254 0.0
C19 C 0.313 0.35454 0.0696 0.0
C20 C 0.23864 0.31576 0.93173 0.0
C21 C 0.22328 0.31443 0.87077 0.0
C22 C 0.16816 0.30076 0.85486 0.0
C23 C 0.1279 0.28666 0.89988 0.0
C24 C 0.14257 0.29144 0.9612 0.0
C25 C 0.19769 0.30612 0.97704 0.0
C26 C 0.3402 0.39147 0.93387 0.0
C27 C 0.39104 0.40704 0.96157 0.0
C28 C 0.41481 0.45985 0.94972 0.0
C29 C 0.38946 0.49686 0.90778 0.0
C30 C 0.33881 0.48142 0.87956 0.0
C31 C 0.31378 0.42917 0.89322 0.0
P32 P 0.74141 0.56792 0.51473 0.0
H33 H 0.68891 0.46106 0.54346 0.0
H34 H 0.61376 0.40778 0.49622 0.0
H35 H 0.60649 0.53214 0.35045 0.0
H36 H 0.6823 0.5857 0.39894 0.0
H37 H 0.82172 0.54939 0.41654 0.0
H38 H 0.88519 0.61436 0.36156 0.0
H39 H 0.80494 0.75673 0.45129 0.0
H40 H 0.74297 0.69231 0.50596 0.0
H41 H 0.75723 0.57811 0.64523 0.0
H42 H 0.6388 0.63813 0.51058 0.0
O43 O 0.78878 0.52433 0.5469 0.0
H44 H 0.69459 0.61328 0.72536 0.0
H45 H 0.57616 0.67417 0.59095 0.0
C46 C 0.6918 0.52635 0.47395 0.0
C47 C 0.67177 0.47637 0.50087 0.0
C48 C 0.62831 0.44635 0.474 0.0
C49 C 0.60381 0.46604 0.41968 0.0
C50 C 0.6246 0.51594 0.39219 0.0
C51 C 0.6681 0.54629 0.41959 0.0
C52 C 0.77868 0.61604 0.46604 0.0
C53 C 0.81732 0.59476 0.42326 0.0
C54 C 0.85318 0.63182 0.3917 0.0
C55 C 0.85058 0.69037 0.40314 0.0
C56 C 0.80848 0.71164 0.44239 0.0
C57 C 0.77288 0.6747 0.47376 0.0
C58 C 0.70185 0.60443 0.5723 0.0
C59 C 0.71847 0.60008 0.63284 0.0
C60 C 0.68297 0.62064 0.6785 0.0
C61 C 0.6308 0.64637 0.66402 0.0
C62 C 0.61657 0.65521 0.60307 0.0
C63 C 0.65187 0.63394 0.55735 0.0
P64 P 0.75762 0.40862 0.03233 0.0
H65 H 0.74391 0.42882 0.16156 0.0
H66 H 0.67376 0.39564 0.23555 0.0
H67 H 0.60423 0.28261 0.10304 0.0
H68 H 0.67432 0.31673 0.02816 0.0
H69 H 0.81018 0.41766 0.91244 0.0
H70 H 0.87115 0.35248 0.85517 0.0
H71 H 0.84586 0.22388 -0.00561 0.0
H72 H 0.78708 0.28922 0.05124 0.0
H73 H 0.72846 0.52841 0.04222 0.0
H74 H 0.68287 0.38726 0.92997 0.0
O75 O 0.80719 0.44798 0.06501 0.0
H76 H 0.65931 0.58855 -0.00956 0.0
H77 H 0.61319 0.4471 0.87756 0.0
C78 C 0.71453 0.3749 0.08962 0.0
C79 C 0.71488 0.39564 0.14878 0.0
C80 C 0.67507 0.3764 0.19113 0.0
C81 C 0.63447 0.33598 0.17501 0.0
C82 C 0.63615 0.31266 0.11681 0.0
C83 C 0.6757 0.33255 0.07404 0.0
C84 C 0.79331 0.35785 0.98542 0.0
C85 C 0.81695 0.37492 0.92969 0.0
C86 C 0.85176 0.33765 0.89706 0.0
C87 C 0.86361 0.28299 0.9202 0.0
C88 C 0.83775 0.26559 0.975 0.0
C89 C 0.80363 0.30294 0.00764 0.0
C90 C 0.71149 0.45388 -0.01102 0.0
C91 C 0.70416 0.51067 0.00562 0.0
C92 C 0.66432 0.5449 0.9761 0.0
C93 C 0.63062 0.52268 0.92974 0.0
C94 C 0.63863 0.46569 0.91277 0.0
C95 C 0.67852 0.43145 0.94253 0.0
P96 P 0.29433 0.6513 0.46361 0.0
H97 H 0.31798 0.61476 0.34011 0.0
H98 H 0.35546 0.5257 0.30118 0.0
H99 H 0.33189 0.44728 0.47793 0.0
H100 H 0.29273 0.53654 0.51573 0.0
H101 H 0.23321 0.75156 0.50463 0.0
H102 H 0.13783 0.78644 0.48173 0.0
H103 H 0.09965 0.62702 0.39639 0.0
H104 H 0.19358 0.59125 0.42175 0.0
H105 H 0.40593 0.61342 0.49648 0.0
H106 H 0.26101 0.68746 0.5879 0.0
O107 O 0.3267 0.69962 0.41982 0.0
H108 H 0.45706 0.60932 0.59174 0.0
H109 H 0.3138 0.68643 0.6833 0.0
C110 C 0.30554 0.58257 0.43131 0.0
C111 C 0.31961 0.57797 0.36996 0.0
C112 C 0.34081 0.52681 0.34781 0.0
C113 C 0.34882 0.47997 0.38719 0.0
C114 C 0.32749 0.48288 0.44678 0.0
C115 C 0.30548 0.53397 0.46856 0.0
C116 C 0.22042 0.66881 0.46528 0.0
C117 C 0.20334 0.72307 0.48385 0.0
C118 C 0.14896 0.74299 0.47064 0.0
C119 C 0.112 0.70932 0.43702 0.0
C120 C 0.12772 0.6536 0.42229 0.0
C121 C 0.18152 0.63325 0.43682 0.0
C122 C 0.32963 0.65041 0.53518 0.0
C123 C 0.38506 0.62873 0.53714 0.0
C124 C 0.41413 0.62611 0.59156 0.0
C125 C 0.38892 0.647 0.64464 0.0
C126 C 0.33376 0.66985 0.64271 0.0
C127 C 0.30384 0.67081 0.58822 0.0
P128 P 0.81193 0.82238 0.95004 0.0
H129 H 0.86573 0.72896 0.01675 0.0
H130 H 0.91103 0.72875 0.11547 0.0
H131 H 0.83433 0.89199 0.1543 0.0
H132 H 0.78758 0.8909 0.05588 0.0
H133 H 0.75457 0.82138 0.83525 0.0
H134 H 0.65843 0.79741 0.80715 0.0
H135 H 0.6124 0.78106 -0.00314 0.0
H136 H 0.7086 0.807 0.02451 0.0
H137 H 0.91301 0.87813 -0.00804 0.0
H138 H 0.77472 0.91826 0.87108 0.0
O139 O 0.84868 0.7751 0.90948 0.0
H140 H 0.95488 0.97028 0.97049 0.0
H141 H 0.81938 0.00924 0.84614 0.0
C142 C 0.82452 0.81049 0.02893 0.0
C143 C 0.85687 0.76357 0.04743 0.0
C144 C 0.88295 0.76373 0.10378 0.0
C145 C 0.87753 0.81132 0.14149 0.0
C146 C 0.84012 0.85543 0.1254 0.0
C147 C 0.813 0.85454 0.0696 0.0
C148 C 0.73864 0.81576 0.93173 0.0
C149 C 0.72328 0.81442 0.87077 0.0
C150 C 0.66816 0.80076 0.85486 0.0
C151 C 0.6279 0.78666 0.89988 0.0
C152 C 0.64257 0.79144 0.9612 0.0
C153 C 0.69769 0.80612 0.97703 0.0
C154 C 0.84021 0.89147 0.93387 0.0
C155 C 0.89104 0.90703 0.96157 0.0
C156 C 0.91481 0.95985 0.94972 0.0
C157 C 0.88946 -0.00314 0.90778 0.0
C158 C 0.83881 0.98142 0.87956 0.0
C159 C 0.81378 0.92916 0.89322 0.0
P160 P 0.24141 0.06792 0.51473 0.0
H161 H 0.18891 0.96106 0.54346 0.0
H162 H 0.11376 0.90778 0.49622 0.0
H163 H 0.10649 0.03214 0.35045 0.0
H164 H 0.1823 0.0857 0.39894 0.0
H165 H 0.32173 0.04939 0.41654 0.0
H166 H 0.38519 0.11436 0.36156 0.0
H167 H 0.30494 0.25673 0.45129 0.0
H168 H 0.24297 0.19231 0.50596 0.0
H169 H 0.25723 0.07811 0.64523 0.0
H170 H 0.1388 0.13813 0.51058 0.0
O171 O 0.28878 0.02433 0.5469 0.0
H172 H 0.1946 0.11329 0.72536 0.0
H173 H 0.07616 0.17417 0.59095 0.0
C174 C 0.1918 0.02635 0.47395 0.0
C175 C 0.17177 0.97637 0.50087 0.0
C176 C 0.12831 0.94635 0.474 0.0
C177 C 0.10381 0.96603 0.41968 0.0
C178 C 0.1246 0.01594 0.39219 0.0
C179 C 0.1681 0.04629 0.41959 0.0
C180 C 0.27868 0.11604 0.46604 0.0
C181 C 0.31732 0.09476 0.42326 0.0
C182 C 0.35318 0.13182 0.3917 0.0
C183 C 0.35058 0.19037 0.40314 0.0
C184 C 0.30848 0.21164 0.44239 0.0
C185 C 0.27288 0.1747 0.47376 0.0
C186 C 0.20185 0.10443 0.5723 0.0
C187 C 0.21847 0.10008 0.63284 0.0
C188 C 0.18297 0.12064 0.6785 0.0
C189 C 0.1308 0.14637 0.66402 0.0
C190 C 0.11657 0.15521 0.60307 0.0
C191 C 0.15187 0.13394 0.55735 0.0
P192 P 0.25762 0.90862 0.03233 0.0
H193 H 0.24391 0.92882 0.16156 0.0
H194 H 0.17376 0.89564 0.23555 0.0
H195 H 0.10423 0.78261 0.10304 0.0
H196 H 0.17432 0.81673 0.02816 0.0
H197 H 0.31018 0.91766 0.91244 0.0
H198 H 0.37115 0.85248 0.85517 0.0
H199 H 0.34586 0.72388 -0.00561 0.0
H200 H 0.28708 0.78922 0.05124 0.0
H201 H 0.22846 0.02841 0.04222 0.0
H202 H 0.18287 0.88726 0.92997 0.0
O203 O 0.30719 0.94798 0.06501 0.0
H204 H 0.15931 0.08855 -0.00956 0.0
H205 H 0.11319 0.9471 0.87756 0.0
C206 C 0.21453 0.8749 0.08962 0.0
C207 C 0.21488 0.89564 0.14878 0.0
C208 C 0.17507 0.8764 0.19113 0.0
C209 C 0.13447 0.83597 0.17501 0.0
C210 C 0.13615 0.81266 0.11681 0.0
C211 C 0.1757 0.83255 0.07404 0.0
C212 C 0.29331 0.85785 0.98542 0.0
C213 C 0.31695 0.87492 0.92969 0.0
C214 C 0.35176 0.83765 0.89706 0.0
C215 C 0.36361 0.78299 0.9202 0.0
C216 C 0.33775 0.76559 0.975 0.0
C217 C 0.30363 0.80294 0.00764 0.0
C218 C 0.21149 0.95388 -0.01102 0.0
C219 C 0.20416 0.01067 0.00562 0.0
C220 C 0.16432 0.0449 0.9761 0.0
C221 C 0.13062 0.02268 0.92974 0.0
C222 C 0.13863 0.96569 0.91277 0.0
C223 C 0.17852 0.93145 0.94253 0.0
P224 P 0.79433 0.1513 0.4636 0.0
H225 H 0.81798 0.11476 0.3401 0.0
H226 H 0.85546 0.0257 0.30118 0.0
H227 H 0.83189 0.94728 0.47793 0.0
H228 H 0.79273 0.03654 0.51573 0.0
H229 H 0.73321 0.25156 0.50462 0.0
H230 H 0.63783 0.28644 0.48173 0.0
H231 H 0.59965 0.12702 0.39639 0.0
H232 H 0.69358 0.09125 0.42175 0.0
H233 H 0.90593 0.11342 0.49648 0.0
H234 H 0.76101 0.18746 0.5879 0.0
O235 O 0.82671 0.19962 0.41982 0.0
H236 H 0.95706 0.10932 0.59174 0.0
H237 H 0.8138 0.18643 0.6833 0.0
C238 C 0.80554 0.08257 0.43131 0.0
C239 C 0.81961 0.07797 0.36996 0.0
C240 C 0.84081 0.02681 0.34781 0.0
C241 C 0.84882 0.97997 0.38719 0.0
C242 C 0.8275 0.98288 0.44677 0.0
C243 C 0.80548 0.03397 0.46856 0.0
C244 C 0.72042 0.16881 0.46528 0.0
C245 C 0.70334 0.22307 0.48385 0.0
C246 C 0.64896 0.24299 0.47064 0.0
C247 C 0.612 0.20932 0.43702 0.0
C248 C 0.62772 0.1536 0.42229 0.0
C249 C 0.68152 0.13325 0.43681 0.0
C250 C 0.82963 0.15041 0.53518 0.0
C251 C 0.88506 0.12873 0.53714 0.0
C252 C 0.91413 0.12611 0.59156 0.0
C253 C 0.88892 0.147 0.64464 0.0
C254 C 0.83376 0.16985 0.64271 0.0
C255 C 0.80384 0.17081 0.58822 0.0
Sc256 Sc -0.0046 0.75238 0.28603 0.0
Sc257 Sc -0.01434 0.90197 0.27606 0.0
Sc258 Sc 0.96952 0.8342 0.41674 0.0
O259 O 0.9835 0.82941 0.32617 0.0
C260 C 0.89582 0.72833 0.38183 0.0
C261 C 0.91537 0.81722 0.19349 0.0
C262 C 0.88889 0.93436 0.36992 0.0
C263 C 0.08378 0.82981 0.2134 0.0
C264 C 0.06266 0.73556 0.40806 0.0
C265 C 0.05696 0.93378 0.393 0.0
O266 O 0.92641 0.71413 0.33662 0.0
O267 O 0.92896 0.86698 0.2101 0.0
O268 O 0.90436 0.89845 0.4099 0.0
O269 O 0.06621 0.78098 0.22988 0.0
O270 O 0.03407 0.77217 0.43729 0.0
O271 O 0.04323 0.94262 0.33797 0.0
O272 O 0.05501 0.72503 0.3525 0.0
O273 O 0.05871 0.8756 0.22701 0.0
O274 O 0.03349 0.8965 0.4265 0.0
O275 O 0.93657 0.77217 0.21607 0.0
O276 O 0.90509 0.77186 0.41354 0.0
O277 O 0.91348 0.93902 0.31896 0.0
Sc278 Sc -0.00781 0.22405 0.78027 0.0
Sc279 Sc 0.00617 0.07846 0.78722 0.0
Sc280 Sc -0.00255 0.15342 0.91941 0.0
O281 O -0.0019 0.15235 0.82925 0.0
C282 C 0.07496 0.2586 0.88239 0.0
C283 C 0.0871 0.15103 0.71135 0.0
C284 C 0.08585 0.05822 0.90148 0.0
C285 C 0.92223 0.14773 0.70034 0.0
C286 C 0.90717 0.24624 0.89181 0.0
C287 C 0.92158 0.04588 0.8862 0.0
O288 O 0.06305 0.25742 0.82643 0.0
O289 O 0.08193 0.10803 0.74598 0.0
O290 O 0.07502 0.1064 0.92412 0.0
O291 O 0.92111 0.19234 0.73201 0.0
O292 O 0.92046 0.20082 0.91988 0.0
O293 O 0.93038 0.04923 0.8295 0.0
O294 O 0.93344 0.2634 0.84428 0.0
O295 O 0.95707 0.10713 0.70998 0.0
O296 O 0.94849 0.07542 0.92462 0.0
O297 O 0.05136 0.19218 0.71081 0.0
O298 O 0.04789 0.23008 0.92256 0.0
O299 O 0.05764 0.03869 0.85746 0.0
Sc300 Sc 0.4954 0.25238 0.28603 0.0
Sc301 Sc 0.48566 0.40197 0.27606 0.0
Sc302 Sc 0.46952 0.3342 0.41674 0.0
O303 O 0.4835 0.32941 0.32617 0.0
C304 C 0.39582 0.22833 0.38184 0.0
C305 C 0.41537 0.31722 0.19349 0.0
C306 C 0.38889 0.43436 0.36992 0.0
C307 C 0.58378 0.32981 0.2134 0.0
C308 C 0.56266 0.23556 0.40806 0.0
C309 C 0.55696 0.43378 0.393 0.0
O310 O 0.42641 0.21413 0.33662 0.0
O311 O 0.42896 0.36698 0.2101 0.0
O312 O 0.40436 0.39845 0.4099 0.0
O313 O 0.56621 0.28098 0.22988 0.0
O314 O 0.53407 0.27217 0.43729 0.0
O315 O 0.54323 0.44262 0.33797 0.0
O316 O 0.55501 0.22503 0.3525 0.0
O317 O 0.55871 0.3756 0.22701 0.0
O318 O 0.53349 0.3965 0.4265 0.0
O319 O 0.43657 0.27217 0.21607 0.0
O320 O 0.40509 0.27186 0.41354 0.0
O321 O 0.41348 0.43902 0.31896 0.0
Sc322 Sc 0.49219 0.72405 0.78027 0.0
Sc323 Sc 0.50617 0.57846 0.78722 0.0
Sc324 Sc 0.49745 0.65342 0.91941 0.0
O325 O 0.4981 0.65235 0.82925 0.0
C326 C 0.57496 0.7586 0.88239 0.0
C327 C 0.5871 0.65103 0.71135 0.0
C328 C 0.58585 0.55822 0.90148 0.0
C329 C 0.42223 0.64773 0.70034 0.0
C330 C 0.40717 0.74624 0.89181 0.0
C331 C 0.42158 0.54588 0.8862 0.0
O332 O 0.56305 0.75742 0.82643 0.0
O333 O 0.58193 0.60803 0.74598 0.0
O334 O 0.57502 0.6064 0.92412 0.0
O335 O 0.42111 0.69234 0.73201 0.0
O336 O 0.42046 0.70082 0.91988 0.0
O337 O 0.43038 0.54924 0.8295 0.0
O338 O 0.43344 0.7634 0.84428 0.0
O339 O 0.45707 0.60713 0.70998 0.0
O340 O 0.44849 0.57542 0.92462 0.0
O341 O 0.55136 0.69218 0.71081 0.0
O342 O 0.54789 0.73008 0.92256 0.0
O343 O 0.55764 0.53869 0.85746 0.0
loop_
_geom_bond_atom_site_label_1
_geom_bond_atom_site_label_2
_geom_bond_distance
_geom_bond_site_symmetry_2
_ccdc_geom_bond_type
P0 O11 1.490 . S
P0 C14 1.812 1_556 S
P0 C20 1.803 . S
P0 C26 1.819 . S
H1 C15 0.941 . S
H2 C16 0.939 . S
H3 C18 0.940 . S
H4 C19 0.940 . S
H5 C21 0.939 . S
H6 C22 0.942 . S
H7 C24 0.940 1_554 S
H8 C25 0.939 1_554 S
H9 C27 0.941 . S
H10 C31 0.939 . S
O11 P0 1.490 . S
H12 C28 0.939 . S
H13 C30 0.940 . S
C14 P0 1.812 1_554 S
C14 C15 1.389 . S
C14 C19 1.391 . S
C15 H1 0.941 . S
C15 C14 1.389 . S
C15 C16 1.397 . S
C16 H2 0.939 . S
C16 C15 1.397 . S
C16 C17 1.378 . S
C17 C16 1.378 . S
C17 C18 1.378 . S
C18 H3 0.940 . S
C18 C17 1.378 . S
C18 C19 1.396 . S
C19 H4 0.940 . S
C19 C14 1.391 . S
C19 C18 1.396 . S
C20 P0 1.803 . S
C20 C21 1.378 . S
C20 C25 1.400 . S
C21 H5 0.939 . S
C21 C20 1.378 . S
C21 C22 1.361 . S
C22 H6 0.942 . S
C22 C21 1.361 . S
C22 C23 1.369 . S
C23 C22 1.369 . S
C23 C24 1.404 . S
C24 H7 0.940 1_556 S
C24 C23 1.404 . S
C24 C25 1.389 . S
C25 H8 0.939 1_556 S
C25 C20 1.400 . S
C25 C24 1.389 . S
C26 P0 1.819 . S
C26 C27 1.391 . S
C26 C31 1.391 . S
C27 H9 0.941 . S
C27 C26 1.391 . S
C27 C28 1.396 . S
C28 H12 0.939 . S
C28 C27 1.396 . S
C28 C29 1.397 . S
C29 C28 1.397 . S
C29 C30 1.385 . S
C30 H13 0.940 . S
C30 C29 1.385 . S
C30 C31 1.388 . S
C31 H10 0.939 . S
C31 C26 1.391 . S
C31 C30 1.388 . S
P32 O43 1.490 . S
P32 C46 1.812 . S
P32 C52 1.803 . S
P32 C58 1.819 . S
H33 C47 0.941 . S
H34 C48 0.939 . S
H35 C50 0.940 . S
H36 C51 0.940 . S
H37 C53 0.939 . S
H38 C54 0.942 . S
H39 C56 0.940 . S
H40 C57 0.939 . S
H41 C59 0.941 . S
H42 C63 0.939 . S
O43 P32 1.490 . S
H44 C60 0.939 . S
H45 C62 0.940 . S
C46 P32 1.812 . S
C46 C47 1.389 . S
C46 C51 1.391 . S
C47 H33 0.941 . S
C47 C46 1.389 . S
C47 C48 1.397 . S
C48 H34 0.939 . S
C48 C47 1.397 . S
C48 C49 1.378 . S
C49 C48 1.378 . S
C49 C50 1.378 . S
C50 H35 0.940 . S
C50 C49 1.378 . S
C50 C51 1.396 . S
C51 H36 0.940 . S
C51 C46 1.391 . S
C51 C50 1.396 . S
C52 P32 1.803 . S
C52 C53 1.378 . S
C52 C57 1.400 . S
C53 H37 0.939 . S
C53 C52 1.378 . S
C53 C54 1.361 . S
C54 H38 0.942 . S
C54 C53 1.361 . S
C54 C55 1.369 . S
C55 C54 1.369 . S
C55 C56 1.404 . S
C56 H39 0.940 . S
C56 C55 1.404 . S
C56 C57 1.389 . S
C57 H40 0.939 . S
C57 C52 1.400 . S
C57 C56 1.389 . S
C58 P32 1.819 . S
C58 C59 1.391 . S
C58 C63 1.391 . S
C59 H41 0.941 . S
C59 C58 1.391 . S
C59 C60 1.396 . S
C60 H44 0.939 . S
C60 C59 1.396 . S
C60 C61 1.397 . S
C61 C60 1.397 . S
C61 C62 1.385 . S
C62 H45 0.940 . S
C62 C61 1.385 . S
C62 C63 1.388 . S
C63 H42 0.939 . S
C63 C58 1.391 . S
C63 C62 1.388 . S
P64 O75 1.490 . S
P64 C78 1.812 . S
P64 C84 1.803 . S
P64 C90 1.819 1_554 S
H65 C79 0.941 . S
H66 C80 0.939 . S
H67 C82 0.940 . S
H68 C83 0.940 . S
H69 C85 0.939 . S
H70 C86 0.942 . S
H71 C88 0.940 . S
H72 C89 0.939 1_554 S
H73 C91 0.941 . S
H74 C95 0.939 . S
O75 P64 1.490 . S
H76 C92 0.939 . S
H77 C94 0.940 . S
C78 P64 1.812 . S
C78 C79 1.389 . S
C78 C83 1.391 . S
C79 H65 0.941 . S
C79 C78 1.389 . S
C79 C80 1.397 . S
C80 H66 0.939 . S
C80 C79 1.397 . S
C80 C81 1.378 . S
C81 C80 1.378 . S
C81 C82 1.378 . S
C82 H67 0.940 . S
C82 C81 1.378 . S
C82 C83 1.396 . S
C83 H68 0.940 . S
C83 C78 1.391 . S
C83 C82 1.396 . S
C84 P64 1.803 . S
C84 C85 1.378 1_554 S
C84 C89 1.400 1_554 S
C85 H69 0.939 . S
C85 C84 1.378 1_556 S
C85 C86 1.361 . S
C86 H70 0.942 . S
C86 C85 1.361 . S
C86 C87 1.369 . S
C87 C86 1.369 . S
C87 C88 1.404 . S
C88 H71 0.940 . S
C88 C87 1.404 . S
C88 C89 1.389 . S
C89 H72 0.939 1_556 S
C89 C84 1.400 1_556 S
C89 C88 1.389 . S
C90 P64 1.819 1_556 S
C90 C91 1.391 1_556 S
C90 C95 1.391 . S
C91 H73 0.941 . S
C91 C90 1.391 1_554 S
C91 C92 1.396 1_554 S
C92 H76 0.939 . S
C92 C91 1.396 1_556 S
C92 C93 1.397 . S
C93 C92 1.397 . S
C93 C94 1.385 . S
C94 H77 0.940 . S
C94 C93 1.385 . S
C94 C95 1.388 . S
C95 H74 0.939 . S
C95 C90 1.391 . S
C95 C94 1.388 . S
P96 O107 1.490 . S
P96 C110 1.812 . S
P96 C116 1.803 . S
P96 C122 1.819 . S
H97 C111 0.941 . S
H98 C112 0.939 . S
H99 C114 0.940 . S
H100 C115 0.940 . S
H101 C117 0.939 . S
H102 C118 0.942 . S
H103 C120 0.940 . S
H104 C121 0.939 . S
H105 C123 0.941 . S
H106 C127 0.939 . S
O107 P96 1.490 . S
H108 C124 0.939 . S
H109 C126 0.940 . S
C110 P96 1.812 . S
C110 C111 1.389 . S
C110 C115 1.391 . S
C111 H97 0.941 . S
C111 C110 1.389 . S
C111 C112 1.397 . S
C112 H98 0.939 . S
C112 C111 1.397 . S
C112 C113 1.378 . S
C113 C112 1.378 . S
C113 C114 1.378 . S
C114 H99 0.940 . S
C114 C113 1.378 . S
C114 C115 1.396 . S
C115 H100 0.940 . S
C115 C110 1.391 . S
C115 C114 1.396 . S
C116 P96 1.803 . S
C116 C117 1.378 . S
C116 C121 1.400 . S
C117 H101 0.939 . S
C117 C116 1.378 . S
C117 C118 1.361 . S
C118 H102 0.942 . S
C118 C117 1.361 . S
C118 C119 1.369 . S
C119 C118 1.369 . S
C119 C120 1.404 . S
C120 H103 0.940 . S
C120 C119 1.404 . S
C120 C121 1.389 . S
C121 H104 0.939 . S
C121 C116 1.400 . S
C121 C120 1.389 . S
C122 P96 1.819 . S
C122 C123 1.391 . S
C122 C127 1.391 . S
C123 H105 0.941 . S
C123 C122 1.391 . S
C123 C124 1.396 . S
C124 H108 0.939 . S
C124 C123 1.396 . S
C124 C125 1.397 . S
C125 C124 1.397 . S
C125 C126 1.385 . S
C126 H109 0.940 . S
C126 C125 1.385 . S
C126 C127 1.388 . S
C127 H106 0.939 . S
C127 C122 1.391 . S
C127 C126 1.388 . S
P128 O139 1.490 . S
P128 C142 1.812 1_556 S
P128 C148 1.803 . S
P128 C154 1.819 . S
H129 C143 0.941 . S
H130 C144 0.939 . S
H131 C146 0.940 . S
H132 C147 0.940 . S
H133 C149 0.939 . S
H134 C150 0.942 . S
H135 C152 0.940 1_554 S
H136 C153 0.939 1_554 S
H137 C155 0.941 . S
H138 C159 0.939 . S
O139 P128 1.490 . S
H140 C156 0.939 . S
H141 C158 0.940 . S
C142 P128 1.812 1_554 S
C142 C143 1.389 . S
C142 C147 1.391 . S
C143 H129 0.941 . S
C143 C142 1.389 . S
C143 C144 1.397 . S
C144 H130 0.939 . S
C144 C143 1.397 . S
C144 C145 1.378 . S
C145 C144 1.378 . S
C145 C146 1.378 . S
C146 H131 0.940 . S
C146 C145 1.378 . S
C146 C147 1.396 . S
C147 H132 0.940 . S
C147 C142 1.391 . S
C147 C146 1.396 . S
C148 P128 1.803 . S
C148 C149 1.378 . S
C148 C153 1.400 . S
C149 H133 0.939 . S
C149 C148 1.378 . S
C149 C150 1.361 . S
C150 H134 0.942 . S
C150 C149 1.361 . S
C150 C151 1.369 . S
C151 C150 1.369 . S
C151 C152 1.404 . S
C152 H135 0.940 1_556 S
C152 C151 1.404 . S
C152 C153 1.389 . S
C153 H136 0.939 1_556 S
C153 C148 1.400 . S
C153 C152 1.389 . S
C154 P128 1.819 . S
C154 C155 1.391 . S
C154 C159 1.391 . S
C155 H137 0.941 . S
C155 C154 1.391 . S
C155 C156 1.396 1_565 S
C156 H140 0.939 . S
C156 C155 1.396 1_545 S
C156 C157 1.397 . S
C157 C156 1.397 . S
C157 C158 1.385 . S
C158 H141 0.940 . S
C158 C157 1.385 . S
C158 C159 1.388 1_545 S
C159 H138 0.939 . S
C159 C154 1.391 . S
C159 C158 1.388 1_565 S
P160 O171 1.487 1_545 S
P160 C174 1.812 . S
P160 C180 1.803 . S
P160 C186 1.819 . S
H161 C175 0.941 . S
H162 C176 0.939 . S
H163 C178 0.940 1_545 S
H164 C179 0.940 . S
H165 C181 0.939 . S
H166 C182 0.942 . S
H167 C184 0.940 . S
H168 C185 0.939 . S
H169 C187 0.941 . S
H170 C191 0.939 . S
O171 P160 1.487 1_565 S
H172 C188 0.939 . S
H173 C190 0.940 . S
C174 P160 1.812 . S
C174 C175 1.389 1_545 S
C174 C179 1.391 . S
C175 H161 0.941 . S
C175 C174 1.389 1_565 S
C175 C176 1.397 . S
C176 H162 0.939 . S
C176 C175 1.397 . S
C176 C177 1.378 . S
C177 C176 1.378 . S
C177 C178 1.378 . S
C178 H163 0.940 1_565 S
C178 C177 1.378 . S
C178 C179 1.396 1_565 S
C179 H164 0.940 . S
C179 C174 1.391 . S
C179 C178 1.396 1_545 S
C180 P160 1.803 . S
C180 C181 1.378 . S
C180 C185 1.400 . S
C181 H165 0.939 . S
C181 C180 1.378 . S
C181 C182 1.361 . S
C182 H166 0.942 . S
C182 C181 1.361 . S
C182 C183 1.369 . S
C183 C182 1.369 . S
C183 C184 1.404 . S
C184 H167 0.940 . S
C184 C183 1.404 . S
C184 C185 1.389 . S
C185 H168 0.939 . S
C185 C180 1.400 . S
C185 C184 1.389 . S
C186 P160 1.819 . S
C186 C187 1.391 . S
C186 C191 1.391 . S
C187 H169 0.941 . S
C187 C186 1.391 . S
C187 C188 1.396 . S
C188 H172 0.939 . S
C188 C187 1.396 . S
C188 C189 1.397 . S
C189 C188 1.397 . S
C189 C190 1.385 . S
C190 H173 0.940 . S
C190 C189 1.385 . S
C190 C191 1.388 . S
C191 H170 0.939 . S
C191 C186 1.391 . S
C191 C190 1.388 . S
P192 O203 1.490 . S
P192 C206 1.812 . S
P192 C212 1.803 . S
P192 C218 1.819 1_554 S
H193 C207 0.941 . S
H194 C208 0.939 . S
H195 C210 0.940 . S
H196 C211 0.940 . S
H197 C213 0.939 . S
H198 C214 0.942 . S
H199 C216 0.940 . S
H200 C217 0.939 1_554 S
H201 C219 0.941 . S
H202 C223 0.939 . S
O203 P192 1.490 . S
H204 C220 0.939 . S
H205 C222 0.940 1_565 S
C206 P192 1.812 . S
C206 C207 1.389 . S
C206 C211 1.391 . S
C207 H193 0.941 . S
C207 C206 1.389 . S
C207 C208 1.397 . S
C208 H194 0.939 . S
C208 C207 1.397 . S
C208 C209 1.378 . S
C209 C208 1.378 . S
C209 C210 1.378 . S
C210 H195 0.940 . S
C210 C209 1.378 . S
C210 C211 1.396 . S
C211 H196 0.940 . S
C211 C206 1.391 . S
C211 C210 1.396 . S
C212 P192 1.803 . S
C212 C213 1.378 1_554 S
C212 C217 1.400 1_554 S
C213 H197 0.939 . S
C213 C212 1.378 1_556 S
C213 C214 1.361 . S
C214 H198 0.942 . S
C214 C213 1.361 . S
C214 C215 1.369 . S
C215 C214 1.369 . S
C215 C216 1.404 . S
C216 H199 0.940 . S
C216 C215 1.404 . S
C216 C217 1.389 . S
C217 H200 0.939 1_556 S
C217 C212 1.400 1_556 S
C217 C216 1.389 . S
C218 P192 1.819 1_556 S
C218 C219 1.391 1_566 S
C218 C223 1.391 . S
C219 H201 0.941 . S
C219 C218 1.391 1_544 S
C219 C220 1.396 1_554 S
C220 H204 0.939 . S
C220 C219 1.396 1_556 S
C220 C221 1.397 . S
C221 C220 1.397 . S
C221 C222 1.385 . S
C222 H205 0.940 1_545 S
C222 C221 1.385 . S
C222 C223 1.388 1_545 S
C223 H202 0.939 . S
C223 C218 1.391 . S
C223 C222 1.388 1_565 S
P224 O235 1.490 . S
P224 C238 1.812 . S
P224 C244 1.803 . S
P224 C250 1.819 . S
H225 C239 0.941 . S
H226 C240 0.939 1_565 S
H227 C242 0.940 . S
H228 C243 0.940 . S
H229 C245 0.939 . S
H230 C246 0.942 . S
H231 C248 0.940 . S
H232 C249 0.939 . S
H233 C251 0.941 . S
H234 C255 0.939 . S
O235 P224 1.490 . S
H236 C252 0.939 . S
H237 C254 0.940 . S
C238 P224 1.812 . S
C238 C239 1.389 . S
C238 C243 1.391 . S
C239 H225 0.941 . S
C239 C238 1.389 . S
C239 C240 1.397 . S
C240 H226 0.939 1_545 S
C240 C239 1.397 . S
C240 C241 1.378 1_545 S
C241 C240 1.378 1_565 S
C241 C242 1.378 . S
C242 H227 0.940 . S
C242 C241 1.378 . S
C242 C243 1.396 1_565 S
C243 H228 0.940 . S
C243 C238 1.391 . S
C243 C242 1.396 1_545 S
C244 P224 1.803 . S
C244 C245 1.378 . S
C244 C249 1.400 . S
C245 H229 0.939 . S
C245 C244 1.378 . S
C245 C246 1.361 . S
C246 H230 0.942 . S
C246 C245 1.361 . S
C246 C247 1.369 . S
C247 C246 1.369 . S
C247 C248 1.404 . S
C248 H231 0.940 . S
C248 C247 1.404 . S
C248 C249 1.389 . S
C249 H232 0.939 . S
C249 C244 1.400 . S
C249 C248 1.389 . S
C250 P224 1.819 . S
C250 C251 1.391 . S
C250 C255 1.391 . S
C251 H233 0.941 . S
C251 C250 1.391 . S
C251 C252 1.396 . S
C252 H236 0.939 . S
C252 C251 1.396 . S
C252 C253 1.397 . S
C253 C252 1.397 . S
C253 C254 1.385 . S
C254 H237 0.940 . S
C254 C253 1.385 . S
C254 C255 1.388 . S
C255 H234 0.939 . S
C255 C250 1.391 . S
C255 C254 1.388 . S
Sc256 O259 2.025 . S
Sc256 O266 2.105 1_455 S
Sc256 O269 2.105 . S
Sc256 O272 2.105 . S
Sc256 O275 2.105 1_455 S
Sc257 O259 2.025 . S
Sc257 O267 2.105 1_455 S
Sc257 O271 2.105 . S
Sc257 O273 2.105 . S
Sc257 O277 2.105 1_455 S
Sc258 O259 2.025 . S
Sc258 O268 2.105 1_455 S
Sc258 O270 2.105 . S
Sc258 O274 2.105 . S
Sc258 O276 2.105 1_455 S
O259 Sc256 2.025 . S
O259 Sc257 2.025 . S
O259 Sc258 2.025 . S
C260 O266 1.268 . S
C260 O276 1.268 . S
C261 O267 1.268 . S
C261 O275 1.268 . S
C262 O268 1.268 . S
C262 O277 1.268 . S
C263 O269 1.268 . S
C263 O273 1.268 . S
C264 O270 1.268 . S
C264 O272 1.268 . S
C265 O271 1.268 . S
C265 O274 1.268 . S
O266 Sc256 2.105 1_655 S
O266 C260 1.268 . S
O267 Sc257 2.105 1_655 S
O267 C261 1.268 . S
O268 Sc258 2.105 1_655 S
O268 C262 1.268 . S
O269 Sc256 2.105 . S
O269 C263 1.268 . S
O270 Sc258 2.105 . S
O270 C264 1.268 . S
O271 Sc257 2.105 . S
O271 C265 1.268 . S
O272 Sc256 2.105 . S
O272 C264 1.268 . S
O273 Sc257 2.105 . S
O273 C263 1.268 . S
O274 Sc258 2.105 . S
O274 C265 1.268 . S
O275 Sc256 2.105 1_655 S
O275 C261 1.268 . S
O276 Sc258 2.105 1_655 S
O276 C260 1.268 . S
O277 Sc257 2.105 1_655 S
O277 C262 1.268 . S
Sc278 O281 2.025 . S
Sc278 O288 2.105 . S
Sc278 O291 2.105 1_455 S
Sc278 O294 2.105 1_455 S
Sc278 O297 2.105 . S
Sc279 O281 2.025 . S
Sc279 O289 2.105 . S
Sc279 O293 2.105 1_455 S
Sc279 O295 2.105 1_455 S
Sc279 O299 2.105 . S
Sc280 O281 2.025 . S
Sc280 O290 2.105 . S
Sc280 O292 2.105 1_455 S
Sc280 O296 2.105 1_455 S
Sc280 O298 2.105 . S
O281 Sc278 2.025 . S
O281 Sc279 2.025 . S
O281 Sc280 2.025 . S
C282 O288 1.268 . S
C282 O298 1.268 . S
C283 O289 1.268 . S
C283 O297 1.268 . S
C284 O290 1.268 . S
C284 O299 1.268 . S
C285 O291 1.268 . S
C285 O295 1.268 . S
C286 O292 1.268 . S
C286 O294 1.268 . S
C287 O293 1.268 . S
C287 O296 1.268 . S
O288 Sc278 2.105 . S
O288 C282 1.268 . S
O289 Sc279 2.105 . S
O289 C283 1.268 . S
O290 Sc280 2.105 . S
O290 C284 1.268 . S
O291 Sc278 2.105 1_655 S
O291 C285 1.268 . S
O292 Sc280 2.105 1_655 S
O292 C286 1.268 . S
O293 Sc279 2.105 1_655 S
O293 C287 1.268 . S
O294 Sc278 2.105 1_655 S
O294 C286 1.268 . S
O295 Sc279 2.105 1_655 S
O295 C285 1.268 . S
O296 Sc280 2.105 1_655 S
O296 C287 1.268 . S
O297 Sc278 2.105 . S
O297 C283 1.268 . S
O298 Sc280 2.105 . S
O298 C282 1.268 . S
O299 Sc279 2.105 . S
O299 C284 1.268 . S
Sc300 O303 2.025 . S
Sc300 O310 2.105 . S
Sc300 O313 2.105 . S
Sc300 O316 2.105 . S
Sc300 O319 2.105 . S
Sc301 O303 2.025 . S
Sc301 O311 2.105 . S
Sc301 O315 2.105 . S
Sc301 O317 2.105 . S
Sc301 O321 2.105 . S
Sc302 O303 2.025 . S
Sc302 O312 2.105 . S
Sc302 O314 2.105 . S
Sc302 O318 2.105 . S
Sc302 O320 2.105 . S
O303 Sc300 2.025 . S
O303 Sc301 2.025 . S
O303 Sc302 2.025 . S
C304 O310 1.268 . S
C304 O320 1.268 . S
C305 O311 1.268 . S
C305 O319 1.268 . S
C306 O312 1.268 . S
C306 O321 1.268 . S
C307 O313 1.268 . S
C307 O317 1.268 . S
C308 O314 1.268 . S
C308 O316 1.268 . S
C309 O315 1.268 . S
C309 O318 1.268 . S
O310 Sc300 2.105 . S
O310 C304 1.268 . S
O311 Sc301 2.105 . S
O311 C305 1.268 . S
O312 Sc302 2.105 . S
O312 C306 1.268 . S
O313 Sc300 2.105 . S
O313 C307 1.268 . S
O314 Sc302 2.105 . S
O314 C308 1.268 . S
O315 Sc301 2.105 . S
O315 C309 1.268 . S
O316 Sc300 2.105 . S
O316 C308 1.268 . S
O317 Sc301 2.105 . S
O317 C307 1.268 . S
O318 Sc302 2.105 . S
O318 C309 1.268 . S
O319 Sc300 2.105 . S
O319 C305 1.268 . S
O320 Sc302 2.105 . S
O320 C304 1.268 . S
O321 Sc301 2.105 . S
O321 C306 1.268 . S
Sc322 O325 2.025 . S
Sc322 O332 2.105 . S
Sc322 O335 2.105 . S
Sc322 O338 2.105 . S
Sc322 O341 2.105 . S
Sc323 O325 2.025 . S
Sc323 O333 2.105 . S
Sc323 O337 2.105 . S
Sc323 O339 2.105 . S
Sc323 O343 2.105 . S
Sc324 O325 2.025 . S
Sc324 O334 2.105 . S
Sc324 O336 2.105 . S
Sc324 O340 2.105 . S
Sc324 O342 2.105 . S
O325 Sc322 2.025 . S
O325 Sc323 2.025 . S
O325 Sc324 2.025 . S
C326 O332 1.268 . S
C326 O342 1.268 . S
C327 O333 1.268 . S
C327 O341 1.268 . S
C328 O334 1.268 . S
C328 O343 1.268 . S
C329 O335 1.268 . S
C329 O339 1.268 . S
C330 O336 1.268 . S
C330 O338 1.268 . S
C331 O337 1.268 . S
C331 O340 1.268 . S
O332 Sc322 2.105 . S
O332 C326 1.268 . S
O333 Sc323 2.105 . S
O333 C327 1.268 . S
O334 Sc324 2.105 . S
O334 C328 1.268 . S
O335 Sc322 2.105 . S
O335 C329 1.268 . S
O336 Sc324 2.105 . S
O336 C330 1.268 . S
O337 Sc323 2.105 . S
O337 C331 1.268 . S
O338 Sc322 2.105 . S
O338 C330 1.268 . S
O339 Sc323 2.105 . S
O339 C329 1.268 . S
O340 Sc324 2.105 . S
O340 C331 1.268 . S
O341 Sc322 2.105 . S
O341 C327 1.268 . S
O342 Sc324 2.105 . S
O342 C326 1.268 . S
O343 Sc323 2.105 . S
O343 C328 1.268 . S
C23 C282 1.524 . S
C260 C55 1.689 . S
C286 C87 1.754 . S
C264 C119 1.459 . S
C326 C151 1.525 . S
C304 C183 1.689 . S
C215 C330 1.753 . S
C308 C247 1.460 . S
C29 C331 1.716 . S
C309 C49 1.872 . S
C93 C328 1.991 . S
C113 C306 1.624 . S
C287 C157 1.718 . S
C177 C265 1.870 . S
C284 C221 1.989 . S
C262 C241 1.625 . S
C305 C17 1.634 . S
C327 C61 2.028 . S
C81 C307 1.962 . S
C329 C125 1.639 . S
C261 C145 1.636 . S
C189 C283 2.026 . S
C209 C263 1.960 . S
C253 C285 1.641 . S
