# Generated by pormake.
# Topology dag, (6,3)-cn, num edge types: 1
# Building blocks:
#     Node 0, Type 0, BuildingBlock: IZENUY_clean_sbu_0, # of connection points: 6
#     Node 1, Type 0, BuildingBlock: IZENUY_clean_sbu_0, # of connection points: 6
#     Node 2, Type 0, BuildingBlock: IZENUY_clean_sbu_0, # of connection points: 6
#     Node 3, Type 0, BuildingBlock: IZENUY_clean_sbu_0, # of connection points: 6
#     Node 4, Type 1, BuildingBlock: MIDCAF_clean_linker_0, # of connection points: 3
#     Node 5, Type 1, BuildingBlock: MIDCAF_clean_linker_0, # of connection points: 3
#     Node 6, Type 1, BuildingBlock: MIDCAF_clean_linker_0, # of connection points: 3
#     Node 7, Type 1, BuildingBlock: MIDCAF_clean_linker_0, # of connection points: 3
#     Node 8, Type 1, BuildingBlock: MIDCAF_clean_linker_0, # of connection points: 3
#     Node 9, Type 1, BuildingBlock: MIDCAF_clean_linker_0, # of connection points: 3
#     Node 10, Type 1, BuildingBlock: MIDCAF_clean_linker_0, # of connection points: 3
#     Node 11, Type 1, BuildingBlock: MIDCAF_clean_linker_0, # of connection points: 3
#     Edge 12, Type (0, 1), BuildingBlock: XIVTED_clean_linker_0, # of connection points: 2
#     Edge 13, Type (0, 1), BuildingBlock: XIVTED_clean_linker_0, # of connection points: 2
#     Edge 14, Type (0, 1), BuildingBlock: XIVTED_clean_linker_0, # of connection points: 2
#     Edge 15, Type (0, 1), BuildingBlock: XIVTED_clean_linker_0, # of connection points: 2
#     Edge 16, Type (0, 1), BuildingBlock: XIVTED_clean_linker_0, # of connection points: 2
#     Edge 17, Type (0, 1), BuildingBlock: XIVTED_clean_linker_0, # of connection points: 2
#     Edge 18, Type (0, 1), BuildingBlock: XIVTED_clean_linker_0, # of connection points: 2
#     Edge 19, Type (0, 1), BuildingBlock: XIVTED_clean_linker_0, # of connection points: 2
#     Edge 20, Type (0, 1), BuildingBlock: XIVTED_clean_linker_0, # of connection points: 2
#     Edge 21, Type (0, 1), BuildingBlock: XIVTED_clean_linker_0, # of connection points: 2
#     Edge 22, Type (0, 1), BuildingBlock: XIVTED_clean_linker_0, # of connection points: 2
#     Edge 23, Type (0, 1), BuildingBlock: XIVTED_clean_linker_0, # of connection points: 2
#     Edge 24, Type (0, 1), BuildingBlock: XIVTED_clean_linker_0, # of connection points: 2
#     Edge 25, Type (0, 1), BuildingBlock: XIVTED_clean_linker_0, # of connection points: 2
#     Edge 26, Type (0, 1), BuildingBlock: XIVTED_clean_linker_0, # of connection points: 2
#     Edge 27, Type (0, 1), BuildingBlock: XIVTED_clean_linker_0, # of connection points: 2
#     Edge 28, Type (0, 1), BuildingBlock: XIVTED_clean_linker_0, # of connection points: 2
#     Edge 29, Type (0, 1), BuildingBlock: XIVTED_clean_linker_0, # of connection points: 2
#     Edge 30, Type (0, 1), BuildingBlock: XIVTED_clean_linker_0, # of connection points: 2
#     Edge 31, Type (0, 1), BuildingBlock: XIVTED_clean_linker_0, # of connection points: 2
#     Edge 32, Type (0, 1), BuildingBlock: XIVTED_clean_linker_0, # of connection points: 2
#     Edge 33, Type (0, 1), BuildingBlock: XIVTED_clean_linker_0, # of connection points: 2
#     Edge 34, Type (0, 1), BuildingBlock: XIVTED_clean_linker_0, # of connection points: 2
#     Edge 35, Type (0, 1), BuildingBlock: XIVTED_clean_linker_0, # of connection points: 2
# Relax obj value: 0.260
# Max RMSD: 0.197
# Mean RMSD: 0.161
data_MOF--net-dag--node1-IZENUY_clean_sbu_0--node2-MIDCAF_clean_linker_0--edge1-XIVTED_clean_linker_0
_symmetry_space_group_name_H-M    P1
_symmetry_Int_Tables_number       1
_symmetry_cell_setting            triclinic
loop_
_symmetry_equiv_pos_as_xyz
'x, y, z'
_cell_length_a     46.540921
_cell_length_b     48.312991
_cell_length_c     40.85583
_cell_angle_alpha  95.065151
_cell_angle_beta   90.241474
_cell_angle_gamma 90.035569
loop_
_atom_site_label
_atom_site_type_symbol
_atom_site_fract_x
_atom_site_fract_y
_atom_site_fract_z
_atom_type_partial_charge
Fe0 Fe 0.18739 0.84089 0.09491 0.0
Fe1 Fe 0.13617 0.859 0.0545 0.0
O2 O 0.1568 0.83238 0.06998 0.0
Fe3 Fe 0.14655 0.79719 0.06034 0.0
O4 O 0.15984 0.78497 0.0991 0.0
O5 O 0.17276 0.82328 0.12826 0.0
O6 O 0.17171 0.873 0.11531 0.0
C7 C 0.14579 0.88116 0.11751 0.0
C8 C 0.2049 0.79413 0.05255 0.0
O9 O 0.1277 0.87375 0.09541 0.0
C10 C 0.13671 0.82171 0.00074 0.0
O11 O 0.20448 0.85945 0.0636 0.0
O12 O 0.16623 0.88294 0.05107 0.0
O13 O 0.18032 0.78961 0.0401 0.0
O14 O 0.20822 0.81018 0.07867 0.0
C15 C 0.09407 0.82072 0.07196 0.0
O16 O 0.14357 0.84575 0.01265 0.0
O17 O 0.13153 0.80273 0.01947 0.0
C18 C 0.19302 0.87887 0.04966 0.0
O19 O 0.102 0.84011 0.0551 0.0
O20 O 0.11187 0.80284 0.08009 0.0
C21 C 0.16514 0.79823 0.1266 0.0
Fe22 Fe 0.68758 0.65765 0.49657 0.0
Fe23 Fe 0.6487 0.70472 0.52638 0.0
O24 O 0.65671 0.6687 0.51929 0.0
Fe25 Fe 0.6339 0.64366 0.53461 0.0
O26 O 0.66274 0.63015 0.55856 0.0
O27 O 0.69394 0.62664 0.5184 0.0
O28 O 0.71089 0.67638 0.52643 0.0
C29 C 0.70919 0.70214 0.53444 0.0
C30 C 0.64806 0.61982 0.47103 0.0
O31 O 0.68664 0.71561 0.52846 0.0
C32 C 0.59415 0.67996 0.5137 0.0
O33 O 0.68695 0.68642 0.47042 0.0
O34 O 0.64658 0.70846 0.48253 0.0
O35 O 0.63963 0.6173 0.50006 0.0
O36 O 0.66598 0.63835 0.46531 0.0
C37 C 0.63607 0.68671 0.58629 0.0
O38 O 0.60942 0.70009 0.52572 0.0
O39 O 0.60359 0.65544 0.51169 0.0
C40 C 0.66629 0.70143 0.4624 0.0
O41 O 0.6501 0.70355 0.57066 0.0
O42 O 0.62411 0.66549 0.57178 0.0
C43 C 0.68604 0.6208 0.54656 0.0
Fe44 Fe 0.85246 0.19899 0.03533 0.0
Fe45 Fe 0.86224 0.13603 0.03311 0.0
O46 O 0.8412 0.16448 0.02299 0.0
Fe47 Fe 0.809 0.15836 0.00034 0.0
O48 O 0.8118 0.18979 0.97885 0.0
O49 O 0.85408 0.20755 0.99287 0.0
O50 O 0.89111 0.19121 0.03241 0.0
C51 C 0.90431 0.17149 0.01641 0.0
C52 C 0.7922 0.20055 0.04499 0.0
O53 O 0.8927 0.14796 0.01063 0.0
C54 C 0.80871 0.11608 0.04417 0.0
O55 O 0.85166 0.19267 0.07858 0.0
O56 O 0.8753 0.15319 0.072 0.0
O57 O 0.78793 0.17589 0.03308 0.0
O58 O 0.81582 0.21274 0.04052 0.0
C59 C 0.84375 0.11958 0.96838 0.0
O60 O 0.83307 0.12242 0.0562 0.0
O61 O 0.8004 0.12557 0.0178 0.0
C62 C 0.86484 0.17302 0.09048 0.0
O63 O 0.85285 0.11352 0.99607 0.0
O64 O 0.82813 0.14058 0.96599 0.0
C65 C 0.83366 0.20389 0.97253 0.0
Fe66 Fe 0.36987 0.3563 0.5591 0.0
Fe67 Fe 0.31622 0.34226 0.59772 0.0
O68 O 0.34689 0.33141 0.57444 0.0
Fe69 Fe 0.35486 0.29561 0.56625 0.0
O70 O 0.38923 0.29962 0.58731 0.0
O71 O 0.40261 0.33523 0.56118 0.0
O72 O 0.37827 0.37122 0.60013 0.0
C73 C 0.35993 0.38023 0.6211 0.0
C74 C 0.36741 0.31807 0.50626 0.0
O75 O 0.33357 0.3737 0.61775 0.0
C76 C 0.29672 0.29579 0.55606 0.0
O77 O 0.34172 0.38205 0.55402 0.0
O78 O 0.30154 0.36099 0.56494 0.0
O79 O 0.3712 0.29931 0.52571 0.0
O80 O 0.36245 0.34277 0.51728 0.0
C81 C 0.33456 0.29929 0.63178 0.0
O82 O 0.29373 0.31255 0.58158 0.0
O83 O 0.32128 0.28961 0.54481 0.0
C84 C 0.31476 0.37956 0.5513 0.0
O85 O 0.32848 0.32469 0.63236 0.0
O86 O 0.33975 0.28516 0.60488 0.0
C87 C 0.40863 0.31563 0.57869 0.0
C88 C 0.94998 0.13902 0.32901 0.0
C89 C 0.95198 0.16183 0.30989 0.0
C90 C 0.97665 0.17879 0.31335 0.0
C91 C -0.00022 0.1715 0.33283 0.0
H92 H 0.06537 0.1941 0.41369 0.0
H93 H 0.10198 0.22253 0.44376 0.0
H94 H 0.16026 0.15278 0.43585 0.0
H95 H 0.12422 0.12454 0.40572 0.0
H96 H 0.11356 0.07836 0.34562 0.0
H97 H 0.12841 0.03771 0.31038 0.0
H98 H 0.03935 0.0152 0.29327 0.0
H99 H 0.02452 0.05645 0.32746 0.0
H100 H 0.97217 0.11236 0.35989 0.0
H101 H 0.93099 0.12603 0.32803 0.0
H102 H 0.97921 0.19643 0.29903 0.0
H103 H 0.01932 0.18372 0.33309 0.0
N104 N 0.04465 0.1507 0.37916 0.0
N105 N 0.0776 0.11377 0.37469 0.0
N106 N 0.03275 0.10865 0.34886 0.0
C107 C 0.0706 0.13998 0.38694 0.0
C108 C 0.05881 0.09796 0.35566 0.0
C109 C 0.02554 0.13489 0.36049 0.0
C110 C 0.09188 0.15707 0.40691 0.0
C111 C 0.08595 0.18478 0.41849 0.0
C112 C 0.10684 0.20105 0.43586 0.0
C113 C 0.13407 0.18996 0.44183 0.0
C114 C 0.13966 0.16208 0.43109 0.0
C115 C 0.11887 0.14584 0.41389 0.0
C116 C 0.06783 0.07089 0.33899 0.0
C117 C 0.09714 0.06451 0.33477 0.0
C118 C 0.10567 0.04108 0.31459 0.0
C119 C 0.0851 0.02334 0.29847 0.0
C120 C 0.0558 0.0288 0.30452 0.0
C121 C 0.04728 0.05237 0.32434 0.0
C122 C 0.99883 0.1469 0.34862 0.0
C123 C 0.9734 0.13131 0.34762 0.0
C124 C 0.45123 0.53564 0.80026 0.0
C125 C 0.42215 0.52895 0.79418 0.0
C126 C 0.40095 0.54651 0.80915 0.0
C127 C 0.40865 0.57089 0.82821 0.0
H128 H 0.38524 0.6282 0.90691 0.0
H129 H 0.34933 0.65423 0.93944 0.0
H130 H 0.3987 0.72944 0.93454 0.0
H131 H 0.43527 0.70322 0.90204 0.0
H132 H 0.48829 0.70013 0.84449 0.0
H133 H 0.52702 0.71945 0.81305 0.0
H134 H 0.56245 0.63703 0.7929 0.0
H135 H 0.52469 0.61816 0.82465 0.0
H136 H 0.48149 0.56519 0.82201 0.0
H137 H 0.46817 0.52225 0.78997 0.0
H138 H 0.37835 0.54222 0.80486 0.0
H139 H 0.39179 0.58455 0.83819 0.0
N140 N 0.42752 0.62112 0.86804 0.0
N141 N 0.45869 0.65957 0.87011 0.0
N142 N 0.47063 0.61811 0.83886 0.0
C143 C 0.4339 0.64767 0.87974 0.0
C144 C 0.47728 0.64469 0.84981 0.0
C145 C 0.44583 0.6062 0.84769 0.0
C146 C 0.41309 0.66363 0.90142 0.0
C147 C 0.38867 0.65026 0.91274 0.0
C148 C 0.36794 0.66521 0.93137 0.0
C149 C 0.37097 0.69396 0.93919 0.0
C150 C 0.39583 0.70727 0.92898 0.0
C151 C 0.4167 0.69225 0.91023 0.0
C152 C 0.50319 0.65756 0.83666 0.0
C153 C 0.50486 0.68635 0.83407 0.0
C154 C 0.52692 0.69737 0.81584 0.0
C155 C 0.54779 0.67982 0.80014 0.0
C156 C 0.54709 0.65135 0.80486 0.0
C157 C 0.52514 0.6404 0.82286 0.0
C158 C 0.4377 0.5784 0.83234 0.0
C159 C 0.4589 0.56018 0.81886 0.0
C160 C 0.70088 0.80641 0.24119 0.0
C161 C 0.71312 0.78337 0.25467 0.0
C162 C 0.73907 0.77246 0.24162 0.0
C163 C 0.75255 0.78435 0.21584 0.0
H164 H 0.83447 0.79387 0.17328 0.0
H165 H 0.88521 0.78724 0.15963 0.0
H166 H 0.87073 0.82235 0.06729 0.0
H167 H 0.82046 0.82976 0.08136 0.0
H168 H 0.76765 0.87649 0.08071 0.0
H169 H 0.7604 0.92402 0.06716 0.0
H170 H 0.71991 0.94421 0.16115 0.0
H171 H 0.72706 0.89635 0.17476 0.0
H172 H 0.70439 0.83615 0.20562 0.0
H173 H 0.68078 0.81514 0.2505 0.0
H174 H 0.74938 0.75504 0.25182 0.0
H175 H 0.77265 0.77547 0.20671 0.0
N176 N 0.78073 0.81007 0.16372 0.0
N177 N 0.78308 0.84494 0.12751 0.0
N178 N 0.74434 0.84378 0.16379 0.0
C179 C 0.79461 0.8221 0.13947 0.0
C180 C 0.75807 0.85595 0.13953 0.0
C181 C 0.75533 0.82056 0.17568 0.0
C182 C 0.8236 0.81281 0.12866 0.0
C183 C 0.84204 0.79963 0.14978 0.0
C184 C 0.87111 0.79578 0.14193 0.0
C185 C 0.88216 0.80484 0.1127 0.0
C186 C 0.86311 0.81589 0.09045 0.0
C187 C 0.83424 0.82 0.09843 0.0
C188 C 0.74821 0.8828 0.12892 0.0
C189 C 0.75658 0.89087 0.09817 0.0
C190 C 0.75223 0.91807 0.09032 0.0
C191 C 0.73976 0.93785 0.11321 0.0
C192 C 0.72974 0.92938 0.14316 0.0
C193 C 0.73369 0.90197 0.15084 0.0
C194 C 0.74049 0.80754 0.20247 0.0
C195 C 0.71439 0.81835 0.21534 0.0
C196 C 0.79728 0.31584 0.75795 0.0
C197 C 0.78735 0.29074 0.76871 0.0
C198 C 0.7627 0.27824 0.75386 0.0
C199 C 0.74824 0.29055 0.72895 0.0
H200 H 0.66993 0.28824 0.67909 0.0
H201 H 0.62113 0.27451 0.66219 0.0
H202 H 0.62315 0.33306 0.58813 0.0
H203 H 0.67166 0.34608 0.60414 0.0
H204 H 0.72953 0.38485 0.59819 0.0
H205 H 0.73576 0.43234 0.58398 0.0
H206 H 0.76993 0.45589 0.6809 0.0
H207 H 0.76395 0.40796 0.69513 0.0
H208 H 0.79103 0.34756 0.72529 0.0
H209 H 0.81632 0.32587 0.76874 0.0
H210 H 0.75415 0.25915 0.76198 0.0
H211 H 0.72921 0.28035 0.71834 0.0
N212 N 0.71754 0.31739 0.67924 0.0
N213 N 0.71296 0.3535 0.64503 0.0
N214 N 0.75175 0.35334 0.68172 0.0
C215 C 0.70281 0.32955 0.65557 0.0
C216 C 0.73729 0.36552 0.6579 0.0
C217 C 0.74221 0.32902 0.69221 0.0
C218 C 0.67469 0.31847 0.64319 0.0
C219 C 0.66011 0.29779 0.6588 0.0
C220 C 0.63206 0.29006 0.64929 0.0
C221 C 0.61812 0.30273 0.62388 0.0
C222 C 0.63325 0.32251 0.60746 0.0
C223 C 0.66113 0.33021 0.61691 0.0
C224 C 0.74605 0.39282 0.64782 0.0
C225 C 0.73898 0.40001 0.61623 0.0
C226 C 0.74273 0.42716 0.60803 0.0
C227 C 0.75324 0.4478 0.6314 0.0
C228 C 0.7617 0.44035 0.6625 0.0
C229 C 0.75842 0.41295 0.67054 0.0
C230 C 0.75801 0.31574 0.71824 0.0
C231 C 0.78281 0.32819 0.73293 0.0
C232 C 0.45582 0.35592 0.28759 0.0
C233 C 0.45542 0.32727 0.29133 0.0
C234 C 0.47562 0.31004 0.27403 0.0
C235 C 0.49689 0.32149 0.25515 0.0
H236 H 0.56848 0.30296 0.19672 0.0
H237 H 0.60537 0.27507 0.16744 0.0
H238 H 0.65007 0.34999 0.14685 0.0
H239 H 0.61375 0.37783 0.17688 0.0
H240 H 0.60828 0.42629 0.24163 0.0
H241 H 0.62283 0.4684 0.27482 0.0
H242 H 0.53445 0.48378 0.30267 0.0
H243 H 0.51994 0.44145 0.27019 0.0
H244 H 0.47741 0.38965 0.26788 0.0
H245 H 0.44087 0.36993 0.30078 0.0
H246 H 0.47566 0.28784 0.27608 0.0
H247 H 0.51298 0.30784 0.24343 0.0
N248 N 0.54256 0.34803 0.21978 0.0
N249 N 0.57331 0.3866 0.21958 0.0
N250 N 0.53021 0.39029 0.24885 0.0
C251 C 0.56719 0.35965 0.20945 0.0
C252 C 0.55485 0.40208 0.23922 0.0
C253 C 0.52382 0.36337 0.23928 0.0
C254 C 0.58826 0.34266 0.18943 0.0
C255 C 0.58607 0.31351 0.18576 0.0
C256 C 0.60718 0.29749 0.16883 0.0
C257 C 0.63084 0.31026 0.15503 0.0
C258 C 0.63249 0.33944 0.15781 0.0
C259 C 0.61153 0.35543 0.17489 0.0
C260 C 0.56301 0.43019 0.25375 0.0
C261 C 0.59185 0.43893 0.25428 0.0
C262 C 0.60022 0.46316 0.27326 0.0
C263 C 0.57987 0.47916 0.2919 0.0
C264 C 0.55075 0.47152 0.28926 0.0
C265 C 0.54243 0.4473 0.2705 0.0
C266 C 0.49845 0.35041 0.25349 0.0
C267 C 0.47705 0.36733 0.26892 0.0
C268 C 0.29581 0.18214 0.8437 0.0
C269 C 0.28457 0.20676 0.83291 0.0
C270 C 0.26028 0.21882 0.84868 0.0
C271 C 0.24726 0.20639 0.87437 0.0
H272 H 0.16429 0.19125 0.90947 0.0
H273 H 0.1132 0.1984 0.92085 0.0
H274 H 0.12339 0.16244 0.0132 0.0
H275 H 0.17441 0.15489 0.00179 0.0
H276 H 0.23197 0.1129 0.00733 0.0
H277 H 0.24191 0.06619 0.02239 0.0
H278 H 0.28611 0.04717 0.93045 0.0
H279 H 0.27639 0.0942 0.91539 0.0
H280 H 0.29193 0.15066 0.87715 0.0
H281 H 0.31464 0.17249 0.83217 0.0
H282 H 0.25085 0.23758 0.84066 0.0
H283 H 0.22839 0.21619 0.88564 0.0
N284 N 0.21726 0.17703 0.92206 0.0
N285 N 0.21569 0.14253 0.95878 0.0
N286 N 0.25555 0.14564 0.92433 0.0
C287 C 0.20322 0.16444 0.94574 0.0
C288 C 0.24179 0.13299 0.94824 0.0
C289 C 0.24358 0.16799 0.91148 0.0
C290 C 0.17336 0.17234 0.95465 0.0
C291 C 0.15577 0.18529 0.93247 0.0
C292 C 0.12651 0.18924 0.93884 0.0
C293 C 0.11441 0.18083 0.96779 0.0
C294 C 0.13225 0.16922 0.99076 0.0
C295 C 0.1614 0.1648 0.98414 0.0
C296 C 0.25308 0.10706 0.96002 0.0
C297 C 0.24445 0.099 0.99069 0.0
C298 C 0.25036 0.07231 0.99943 0.0
C299 C 0.26463 0.05302 0.97748 0.0
C300 C 0.27496 0.06165 0.94774 0.0
C301 C 0.26948 0.08857 0.93921 0.0
C302 C 0.25825 0.1816 0.88502 0.0
C303 C 0.28286 0.16974 0.86959 0.0
C304 C 0.23522 0.72269 0.34769 0.0
C305 C 0.21321 0.70825 0.32979 0.0
C306 C 0.20507 0.68188 0.33854 0.0
C307 C 0.21881 0.67015 0.36455 0.0
H308 H 0.233 0.59421 0.40943 0.0
H309 H 0.22727 0.54647 0.42419 0.0
H310 H 0.2653 0.56986 0.51918 0.0
H311 H 0.27141 0.61729 0.50438 0.0
H312 H 0.32584 0.66422 0.50129 0.0
H313 H 0.3762 0.67505 0.51379 0.0
H314 H 0.38405 0.71246 0.42216 0.0
H315 H 0.33358 0.70207 0.40973 0.0
H316 H 0.26612 0.72264 0.38639 0.0
H317 H 0.24228 0.74288 0.34127 0.0
H318 H 0.18805 0.67034 0.3253 0.0
H319 H 0.21218 0.64971 0.37052 0.0
N320 N 0.24706 0.64805 0.42052 0.0
N321 N 0.28655 0.64833 0.45645 0.0
N322 N 0.28194 0.68319 0.42048 0.0
C323 C 0.26173 0.63642 0.44467 0.0
C324 C 0.29688 0.67162 0.4444 0.0
C325 C 0.25684 0.67177 0.40868 0.0
C326 C 0.25292 0.60937 0.45566 0.0
C327 C 0.23943 0.5893 0.43377 0.0
C328 C 0.23626 0.56199 0.44212 0.0
C329 C 0.24594 0.5545 0.47275 0.0
C330 C 0.25743 0.5751 0.49551 0.0
C331 C 0.2611 0.6022 0.48695 0.0
C332 C 0.32578 0.68208 0.4544 0.0
C333 C 0.33814 0.67524 0.4841 0.0
C334 C 0.3669 0.68157 0.49136 0.0
C335 C 0.38396 0.69442 0.46881 0.0
C336 C 0.37132 0.70241 0.43984 0.0
C337 C 0.34241 0.69656 0.43285 0.0
C338 C 0.24118 0.68446 0.38209 0.0
C339 C 0.24906 0.71094 0.37344 0.0
C340 C 0.93163 0.97799 0.78354 0.0
C341 C 0.90185 0.98263 0.78428 0.0
C342 C 0.88365 0.96404 0.76578 0.0
C343 C 0.89488 0.94048 0.7481 0.0
H344 H 0.87577 0.87865 0.67844 0.0
H345 H 0.84322 0.84943 0.64463 0.0
H346 H 0.90422 0.78189 0.6423 0.0
H347 H 0.93689 0.81113 0.67728 0.0
H348 H 0.98506 0.81658 0.73848 0.0
H349 H 0.02338 0.79841 0.77165 0.0
H350 H 0.04955 0.88235 0.80352 0.0
H351 H 0.01197 0.90037 0.7702 0.0
H352 H 0.96577 0.95047 0.76738 0.0
H353 H 0.94607 0.99196 0.79781 0.0
H354 H 0.86062 0.96727 0.76592 0.0
H355 H 0.88011 0.92602 0.7351 0.0
N356 N 0.91942 0.89122 0.71359 0.0
N357 N 0.9529 0.85505 0.71496 0.0
N358 N 0.96059 0.89751 0.74635 0.0
C359 C 0.92795 0.86505 0.70313 0.0
C360 C 0.96944 0.8713 0.73647 0.0
C361 C 0.93562 0.90761 0.73506 0.0
C362 C 0.90904 0.84729 0.68076 0.0
C363 C 0.8825 0.85765 0.67069 0.0
C364 C 0.86381 0.84089 0.65098 0.0
C365 C 0.87112 0.81332 0.64054 0.0
C366 C 0.89782 0.80297 0.65017 0.0
C367 C 0.9166 0.81978 0.67007 0.0
C368 C 0.9952 0.85995 0.752 0.0
C369 C 0.99942 0.83112 0.752 0.0
C370 C 0.02125 0.8207 0.77116 0.0
C371 C 0.03943 0.8389 0.79042 0.0
C372 C 0.03622 0.86767 0.78875 0.0
C373 C 0.0144 0.87805 0.76982 0.0
C374 C 0.92449 0.93478 0.74911 0.0
C375 C 0.94285 0.95416 0.76631 0.0
H376 H 0.09392 0.90722 0.12567 0.0
H377 H 0.13226 0.98865 0.2994 0.0
H378 H 0.17672 0.90064 0.17249 0.0
H379 H 0.05856 0.00639 0.24016 0.0
H380 H 0.14741 0.95336 0.25616 0.0
H381 H 0.07902 0.94031 0.17066 0.0
C382 C 0.10904 0.91272 0.14542 0.0
C383 C 0.13674 0.9012 0.14511 0.0
C384 C 0.12787 0.96494 0.25279 0.0
C385 C 0.11962 0.93924 0.19705 0.0
C386 C 0.11923 0.98516 0.27741 0.0
C387 C 0.09399 0.00057 0.2736 0.0
C388 C 0.1111 0.96 0.22422 0.0
C389 C 0.07783 0.99477 0.24467 0.0
C390 C 0.10048 0.93169 0.17115 0.0
C391 C 0.15524 0.90912 0.17157 0.0
N392 N 0.08666 0.97503 0.2212 0.0
N393 N 0.14635 0.92767 0.19651 0.0
H394 H 0.61431 0.73406 0.6187 0.0
H395 H 0.60398 0.66435 0.78852 0.0
H396 H 0.64547 0.65213 0.63362 0.0
H397 H 0.5378 0.71805 0.75533 0.0
H398 H 0.6319 0.67183 0.73953 0.0
H399 H 0.5984 0.73946 0.67645 0.0
C400 C 0.61847 0.71759 0.63443 0.0
C401 C 0.63104 0.69259 0.62168 0.0
C402 C 0.61152 0.6824 0.74343 0.0
C403 C 0.61346 0.6987 0.68711 0.0
C404 C 0.5955 0.67809 0.77129 0.0
C405 C 0.56806 0.68994 0.77568 0.0
C406 C 0.60027 0.69898 0.71998 0.0
C407 C 0.55871 0.70832 0.75299 0.0
C408 C 0.60931 0.72061 0.66715 0.0
C409 C 0.6357 0.67165 0.64269 0.0
N410 N 0.57461 0.71196 0.72583 0.0
N411 N 0.62687 0.67514 0.6744 0.0
H412 H 0.76285 0.08716 0.01627 0.0
H413 H 0.7579 0.98119 0.15559 0.0
H414 H 0.8162 0.09436 0.10337 0.0
H415 H 0.72531 0.96207 0.05717 0.0
H416 H 0.76874 0.02841 0.1422 0.0
H417 H 0.73906 0.04695 0.03649 0.0
C418 C 0.76933 0.08054 0.03985 0.0
C419 C 0.79188 0.0939 0.05793 0.0
C420 C 0.75879 0.01401 0.12371 0.0
C421 C 0.76463 0.04797 0.08117 0.0
C422 C 0.75233 0.98715 0.13142 0.0
C423 C 0.7409 0.96765 0.10734 0.0
C424 C 0.75366 0.02143 0.09176 0.0
C425 C 0.73446 0.9764 0.07629 0.0
C426 C 0.75576 0.05754 0.0513 0.0
C427 C 0.79921 0.08445 0.08839 0.0
N428 N 0.74117 0.0026 0.06928 0.0
N429 N 0.78576 0.06193 0.09895 0.0
H430 H 0.43147 0.2883 0.62892 0.0
H431 H 0.59224 0.2983 0.56318 0.0
H432 H 0.45501 0.32853 0.5427 0.0
H433 H 0.57358 0.29481 0.66619 0.0
H434 H 0.54077 0.29748 0.55144 0.0
H435 H 0.48271 0.27967 0.63925 0.0
C436 C 0.44739 0.29512 0.6121 0.0
C437 C 0.43908 0.30936 0.58509 0.0
C438 C 0.548 0.29662 0.57657 0.0
C439 C 0.49723 0.29913 0.59635 0.0
C440 C 0.57736 0.29715 0.58333 0.0
C441 C 0.58732 0.29721 0.61583 0.0
C442 C 0.52834 0.29585 0.60239 0.0
C443 C 0.56695 0.29481 0.64077 0.0
C444 C 0.47651 0.29024 0.61802 0.0
C445 C 0.46049 0.31778 0.56403 0.0
N446 N 0.53837 0.29448 0.63357 0.0
N447 N 0.48854 0.31247 0.57005 0.0
H448 H 0.60762 0.57926 0.47423 0.0
H449 H 0.6215 0.51913 0.28604 0.0
H450 H 0.66485 0.61472 0.40618 0.0
H451 H 0.55992 0.49056 0.3543 0.0
H452 H 0.63816 0.55427 0.32899 0.0
H453 H 0.59045 0.54647 0.42992 0.0
C454 C 0.61668 0.58012 0.44996 0.0
C455 C 0.63786 0.59971 0.44403 0.0
C456 C 0.62086 0.54041 0.33441 0.0
C457 C 0.6181 0.56207 0.39286 0.0
C458 C 0.61141 0.52031 0.30996 0.0
C459 C 0.58917 0.50194 0.31649 0.0
C460 C 0.60812 0.54194 0.36564 0.0
C461 C 0.57675 0.50454 0.34787 0.0
C462 C 0.60676 0.56139 0.42457 0.0
C463 C 0.64857 0.59989 0.41193 0.0
N464 N 0.58647 0.52403 0.37122 0.0
N465 N 0.63863 0.58128 0.38753 0.0
H466 H 0.94231 0.2103 0.04358 0.0
H467 H 0.07207 0.16226 0.92505 0.0
H468 H 0.93573 0.14097 0.96966 0.0
H469 H 0.08548 0.20218 0.02256 0.0
H470 H 0.02023 0.16165 0.9354 0.0
H471 H 0.99332 0.21468 0.03049 0.0
C472 C 0.95153 0.19613 0.02443 0.0
C473 C 0.9348 0.17512 0.00778 0.0
C474 C 0.03454 0.17067 0.95443 0.0
C475 C 0.99296 0.18024 0.99257 0.0
C476 C 0.06402 0.17122 0.94848 0.0
C477 C 0.08298 0.18229 0.97303 0.0
C478 C 0.02394 0.18165 0.98496 0.0
C479 C 0.07153 0.19333 0.0031 0.0
C480 C 0.98064 0.19858 0.01712 0.0
C481 C 0.94791 0.1573 0.98327 0.0
N482 N 0.04269 0.19281 0.00821 0.0
N483 N 0.97622 0.16032 0.97631 0.0
H484 H 0.26191 0.40148 0.56782 0.0
H485 H 0.26816 0.51162 0.43316 0.0
H486 H 0.33129 0.40644 0.4989 0.0
H487 H 0.22922 0.53053 0.52812 0.0
H488 H 0.27972 0.46504 0.44843 0.0
H489 H 0.23883 0.44136 0.54487 0.0
C490 C 0.27197 0.41064 0.54748 0.0
C491 C 0.29863 0.40095 0.53536 0.0
C492 C 0.26818 0.47924 0.46566 0.0
C493 C 0.27232 0.44592 0.50894 0.0
C494 C 0.26136 0.5057 0.45689 0.0
C495 C 0.24786 0.52495 0.47952 0.0
C496 C 0.26116 0.47189 0.49712 0.0
C497 C 0.23988 0.51632 0.51012 0.0
C498 C 0.25889 0.43337 0.53456 0.0
C499 C 0.31088 0.41355 0.50913 0.0
N500 N 0.24681 0.49042 0.51816 0.0
N501 N 0.29764 0.43542 0.49679 0.0
H502 H 0.15477 0.8525 0.95191 0.0
H503 H 0.03059 0.79721 0.83073 0.0
H504 H 0.10157 0.78211 0.96919 0.0
H505 H 0.094 0.85726 0.80648 0.0
H506 H 0.05987 0.78685 0.87781 0.0
H507 H 0.13657 0.85055 0.8957 0.0
C508 C 0.13951 0.83639 0.94372 0.0
C509 C 0.12934 0.81771 0.96541 0.0
C510 C 0.06764 0.80195 0.86188 0.0
C511 C 0.10808 0.81554 0.9011 0.0
C512 C 0.051 0.80775 0.83479 0.0
C513 C 0.05959 0.82851 0.81487 0.0
C514 C 0.09292 0.81717 0.86929 0.0
C515 C 0.08617 0.84162 0.82163 0.0
C516 C 0.12915 0.83524 0.91157 0.0
C517 C 0.10985 0.79704 0.95334 0.0
N518 N 0.10164 0.83606 0.84853 0.0
N519 N 0.09945 0.79681 0.92215 0.0
H520 H 0.84739 0.06342 0.9662 0.0
H521 H 0.91581 0.03809 0.7914 0.0
H522 H 0.85244 0.13147 0.90482 0.0
H523 H 0.8609 0.97705 0.83026 0.0
H524 H 0.8984 0.07298 0.83438 0.0
H525 H 0.85835 0.03105 0.9185 0.0
C526 C 0.85078 0.0715 0.94261 0.0
C527 C 0.84906 0.10007 0.9393 0.0
C528 C 0.88993 0.05202 0.83306 0.0
C529 C 0.86201 0.06329 0.88493 0.0
C530 C 0.89988 0.03219 0.80875 0.0
C531 C 0.88966 0.00478 0.80736 0.0
C532 C 0.87034 0.04404 0.85652 0.0
C533 C 0.86909 0.99804 0.83036 0.0
C534 C 0.85686 0.05305 0.91543 0.0
C535 C 0.85348 0.10951 0.9082 0.0
N536 N 0.86043 0.01743 0.85432 0.0
N537 N 0.86021 0.09114 0.88215 0.0
H538 H 0.3479 0.34672 0.45623 0.0
H539 H 0.46838 0.28905 0.33494 0.0
H540 H 0.40108 0.27692 0.4759 0.0
H541 H 0.39938 0.34141 0.30582 0.0
H542 H 0.44118 0.2799 0.38372 0.0
H543 H 0.36347 0.34167 0.3991 0.0
C544 C 0.36262 0.3301 0.44837 0.0
C545 C 0.37355 0.31246 0.47089 0.0
C546 C 0.43172 0.29294 0.36633 0.0
C547 C 0.39177 0.30674 0.40557 0.0
C548 C 0.44717 0.29804 0.33827 0.0
C549 C 0.43642 0.3165 0.31649 0.0
C550 C 0.40551 0.30668 0.37288 0.0
C551 C 0.40888 0.32768 0.32239 0.0
C552 C 0.37142 0.32714 0.4157 0.0
C553 C 0.39227 0.29106 0.45934 0.0
N554 N 0.39464 0.32302 0.35032 0.0
N555 N 0.40124 0.28912 0.42757 0.0
H556 H 0.245 0.90024 0.07114 0.0
H557 H 0.2484 0.00917 0.93507 0.0
H558 H 0.18148 0.90424 0.99457 0.0
H559 H 0.27923 0.02941 0.03403 0.0
H560 H 0.23772 0.96202 0.94881 0.0
H561 H 0.27053 0.93951 0.0498 0.0
C562 C 0.23684 0.909 0.04944 0.0
C563 C 0.21103 0.89934 0.03469 0.0
C564 C 0.24742 0.97663 0.96728 0.0
C565 C 0.2401 0.94351 0.01011 0.0
C566 C 0.25375 0.00344 0.9594 0.0
C567 C 0.26448 0.02325 0.98357 0.0
C568 C 0.25208 0.96953 0.99942 0.0
C569 C 0.27065 0.01478 0.01484 0.0
C570 C 0.25129 0.93137 0.03742 0.0
C571 C 0.20116 0.91139 0.00679 0.0
N572 N 0.26409 0.98856 0.02202 0.0
N573 N 0.21568 0.93291 0.99542 0.0
H574 H 0.56138 0.64894 0.46884 0.0
H575 H 0.41298 0.71647 0.52362 0.0
H576 H 0.55811 0.72143 0.53845 0.0
H577 H 0.42616 0.67689 0.42607 0.0
H578 H 0.46519 0.7157 0.53303 0.0
H579 H 0.51055 0.65555 0.45607 0.0
C580 C 0.54995 0.66629 0.48136 0.0
C581 C 0.5639 0.68466 0.50475 0.0
C582 C 0.4566 0.70752 0.50945 0.0
C583 C 0.50579 0.69208 0.4906 0.0
C584 C 0.42693 0.70789 0.50414 0.0
C585 C 0.41538 0.6968 0.47401 0.0
C586 C 0.47465 0.69535 0.48476 0.0
C587 C 0.43427 0.68587 0.44952 0.0
C588 C 0.52104 0.67012 0.47396 0.0
C589 C 0.54814 0.70688 0.52015 0.0
N590 N 0.46296 0.68508 0.45557 0.0
N591 N 0.51976 0.70979 0.51312 0.0
H592 H 0.32852 0.40147 0.67434 0.0
H593 H 0.44965 0.51038 0.73724 0.0
H594 H 0.41238 0.40543 0.63012 0.0
H595 H 0.37589 0.4932 0.79608 0.0
H596 H 0.43527 0.47284 0.69704 0.0
H597 H 0.34415 0.43614 0.7182 0.0
C598 C 0.35019 0.40959 0.67384 0.0
C599 C 0.36909 0.40063 0.64835 0.0
C600 C 0.42231 0.47712 0.71885 0.0
C601 C 0.38704 0.44029 0.69838 0.0
C602 C 0.43064 0.49848 0.74207 0.0
C603 C 0.41409 0.50501 0.77038 0.0
C604 C 0.397 0.46222 0.72357 0.0
C605 C 0.38918 0.48922 0.77451 0.0
C606 C 0.35912 0.4293 0.69894 0.0
C607 C 0.397 0.41174 0.64913 0.0
N608 N 0.38131 0.46865 0.75128 0.0
N609 N 0.40503 0.43107 0.67359 0.0
H610 H 0.05127 0.85687 0.06009 0.0
H611 H 0.9232 0.76554 0.12475 0.0
H612 H 0.06609 0.7782 0.09992 0.0
H613 H 0.91308 0.84604 0.0879 0.0
H614 H 0.97526 0.76871 0.11593 0.0
H615 H 0.00029 0.85216 0.07012 0.0
C616 C 0.04381 0.83852 0.07096 0.0
C617 C 0.06308 0.81783 0.07901 0.0
C618 C 0.96154 0.78558 0.10969 0.0
C619 C 0.00422 0.81229 0.09068 0.0
C620 C 0.93187 0.78382 0.11478 0.0
C621 C 0.91364 0.80541 0.10671 0.0
C622 C 0.97299 0.80915 0.0966 0.0
C623 C 0.92607 0.82856 0.09378 0.0
C624 C 0.01457 0.83586 0.07673 0.0
C625 C 0.05201 0.79464 0.09327 0.0
N626 N 0.95484 0.82977 0.08916 0.0
N627 N 0.02324 0.79245 0.0986 0.0
H628 H 0.73307 0.59115 0.52395 0.0
H629 H 0.73092 0.49155 0.66987 0.0
H630 H 0.67584 0.6021 0.60705 0.0
H631 H 0.77151 0.47074 0.57621 0.0
H632 H 0.72002 0.53782 0.65313 0.0
H633 H 0.75609 0.55271 0.54873 0.0
C634 C 0.72548 0.58567 0.54756 0.0
C635 C 0.7021 0.59958 0.56315 0.0
C636 C 0.73173 0.52328 0.63646 0.0
C637 C 0.72851 0.55558 0.59167 0.0
C638 C 0.7382 0.49698 0.64612 0.0
C639 C 0.75191 0.47727 0.62424 0.0
C640 C 0.73915 0.52987 0.60479 0.0
C641 C 0.76057 0.48526 0.59361 0.0
C642 C 0.73867 0.5637 0.56168 0.0
C643 C 0.6935 0.59171 0.59391 0.0
N644 N 0.7538 0.51088 0.58466 0.0
N645 N 0.70654 0.57005 0.60703 0.0
H646 H 0.86984 0.21828 0.13653 0.0
H647 H 0.9233 0.12079 0.27242 0.0
H648 H 0.87252 0.12868 0.12538 0.0
H649 H 0.93298 0.21013 0.28446 0.0
H650 H 0.89525 0.12505 0.22336 0.0
H651 H 0.88468 0.21715 0.19439 0.0
C652 C 0.87317 0.19843 0.14638 0.0
C653 C 0.87045 0.17354 0.1261 0.0
C654 C 0.90322 0.14383 0.23682 0.0
C655 C 0.88707 0.17208 0.1918 0.0
C656 C 0.91904 0.14147 0.26535 0.0
C657 C 0.93088 0.16514 0.28288 0.0
C658 C 0.89941 0.16999 0.22504 0.0
C659 C 0.92489 0.19121 0.27148 0.0
C660 C 0.88168 0.19779 0.17928 0.0
C661 C 0.87491 0.14838 0.13999 0.0
N662 N 0.9099 0.19292 0.24301 0.0
N663 N 0.88311 0.14833 0.17181 0.0
H664 H 0.16391 0.74194 0.13267 0.0
H665 H 0.19573 0.76191 0.32601 0.0
H666 H 0.16841 0.82138 0.18987 0.0
H667 H 0.20017 0.68253 0.26891 0.0
H668 H 0.17884 0.783 0.27738 0.0
H669 H 0.17032 0.71885 0.18327 0.0
C670 C 0.16593 0.75452 0.15586 0.0
C671 C 0.16601 0.78365 0.15697 0.0
C672 C 0.18328 0.76092 0.27548 0.0
C673 C 0.17334 0.7574 0.21483 0.0
C674 C 0.19302 0.74889 0.30323 0.0
C675 C 0.19973 0.72049 0.30141 0.0
C676 C 0.18033 0.7445 0.24552 0.0
C677 C 0.1952 0.7045 0.27142 0.0
C678 C 0.16966 0.74133 0.18471 0.0
C679 C 0.16862 0.79888 0.18773 0.0
N680 N 0.18607 0.71678 0.24454 0.0
N681 N 0.17236 0.7856 0.21533 0.0
H682 H 0.75704 0.68076 0.56235 0.0
H683 H 0.83609 0.82777 0.59073 0.0
H684 H 0.7196 0.75798 0.53752 0.0
H685 H 0.85851 0.75815 0.64515 0.0
H686 H 0.79804 0.7999 0.56298 0.0
H687 H 0.79889 0.70661 0.58537 0.0
C688 C 0.75767 0.70311 0.56161 0.0
C689 C 0.73476 0.71727 0.5481 0.0
C690 C 0.81137 0.79069 0.5809 0.0
C691 C 0.78255 0.74678 0.57403 0.0
C692 C 0.83307 0.8066 0.59684 0.0
C693 C 0.85029 0.79546 0.62074 0.0
C694 C 0.80693 0.76331 0.58862 0.0
C695 C 0.84586 0.7676 0.62686 0.0
C696 C 0.7815 0.71781 0.5748 0.0
C697 C 0.73667 0.74623 0.54787 0.0
N698 N 0.82449 0.75251 0.61103 0.0
N699 N 0.76018 0.76001 0.56056 0.0
H700 H 0.79483 0.25197 0.07856 0.0
H701 H 0.62631 0.26167 0.11472 0.0
H702 H 0.73563 0.18521 0.05 0.0
H703 H 0.6888 0.32006 0.15834 0.0
H704 H 0.66545 0.23422 0.08861 0.0
H705 H 0.75555 0.27826 0.10548 0.0
C706 C 0.77356 0.24282 0.07792 0.0
C707 C 0.76853 0.21635 0.06188 0.0
C708 C 0.67054 0.25304 0.10392 0.0
C709 C 0.72336 0.24644 0.0927 0.0
C710 C 0.64823 0.26868 0.11895 0.0
C711 C 0.65421 0.29333 0.13868 0.0
C712 C 0.69905 0.26216 0.10855 0.0
C713 C 0.68305 0.30153 0.14287 0.0
C714 C 0.75113 0.25784 0.09339 0.0
C715 C 0.74051 0.20553 0.06206 0.0
N716 N 0.70433 0.28604 0.12789 0.0
N717 N 0.71894 0.22068 0.07712 0.0
H718 H 0.32809 0.32384 0.69413 0.0
H719 H 0.30332 0.18079 0.77445 0.0
H720 H 0.33592 0.24338 0.63983 0.0
H721 H 0.29477 0.26187 0.82691 0.0
H722 H 0.32015 0.20283 0.72635 0.0
H723 H 0.32053 0.30105 0.7442 0.0
C724 C 0.32835 0.30134 0.69273 0.0
C725 C 0.3323 0.2855 0.6626 0.0
C726 C 0.3148 0.21577 0.74847 0.0
C727 C 0.32355 0.2592 0.72007 0.0
C728 C 0.30536 0.2032 0.776 0.0
C729 C 0.29737 0.21954 0.80464 0.0
C730 C 0.31628 0.24489 0.74962 0.0
C731 C 0.30019 0.2485 0.80515 0.0
C732 C 0.32405 0.28833 0.7214 0.0
C733 C 0.33277 0.25642 0.66246 0.0
N734 N 0.30923 0.26023 0.77802 0.0
N735 N 0.32817 0.24419 0.69072 0.0
H736 H 0.6894 0.67626 0.40698 0.0
H737 H 0.68745 0.81037 0.30898 0.0
H738 H 0.64515 0.75098 0.44379 0.0
H739 H 0.70794 0.72833 0.26473 0.0
H740 H 0.67014 0.78962 0.3578 0.0
H741 H 0.69521 0.69528 0.35422 0.0
C742 C 0.68078 0.69669 0.40382 0.0
C743 C 0.66708 0.71224 0.42982 0.0
C744 C 0.6781 0.77618 0.33721 0.0
C745 C 0.67387 0.73433 0.36946 0.0
C746 C 0.6879 0.78798 0.30928 0.0
C747 C 0.69958 0.77109 0.28289 0.0
C748 C 0.68023 0.74735 0.3388 0.0
C749 C 0.69981 0.74223 0.2848 0.0
C750 C 0.68397 0.7075 0.37363 0.0
C751 C 0.65592 0.7384 0.42431 0.0
N752 N 0.69061 0.73133 0.31238 0.0
N753 N 0.65996 0.74887 0.39479 0.0
H754 H 0.85536 0.25481 0.95918 0.0
H755 H 0.79845 0.23566 0.77339 0.0
H756 H 0.81286 0.18151 0.91452 0.0
H757 H 0.80937 0.31642 0.82618 0.0
H758 H 0.81622 0.21418 0.82135 0.0
H759 H 0.85046 0.27631 0.90685 0.0
C760 C 0.8454 0.24318 0.93826 0.0
C761 C 0.83409 0.21659 0.94111 0.0
C762 C 0.81498 0.23663 0.82233 0.0
C763 C 0.82886 0.2406 0.8817 0.0
C764 C 0.80472 0.24889 0.79503 0.0
C765 C 0.80184 0.27785 0.79601 0.0
C766 C 0.82249 0.25338 0.85091 0.0
C767 C 0.81116 0.29401 0.82439 0.0
C768 C 0.84254 0.25542 0.90858 0.0
C769 C 0.82141 0.20226 0.91342 0.0
N770 N 0.82078 0.28153 0.85093 0.0
N771 N 0.8191 0.21445 0.88493 0.0
H772 H 0.23969 0.2989 0.57462 0.0
H773 H 0.19007 0.19242 0.42347 0.0
H774 H 0.29616 0.2609 0.49998 0.0
H775 H 0.13067 0.22743 0.49661 0.0
H776 H 0.22868 0.21925 0.45105 0.0
H777 H 0.19891 0.27469 0.54641 0.0
C778 C 0.24354 0.28552 0.55238 0.0
C779 C 0.27146 0.2818 0.53981 0.0
C780 C 0.20725 0.22117 0.46119 0.0
C781 C 0.22504 0.25426 0.50748 0.0
C782 C 0.18519 0.20571 0.44549 0.0
C783 C 0.15718 0.20743 0.45799 0.0
C784 C 0.20143 0.23857 0.48977 0.0
C785 C 0.15199 0.22554 0.48617 0.0
C786 C 0.22027 0.27175 0.5363 0.0
C787 C 0.27514 0.26432 0.51082 0.0
N788 N 0.17398 0.24033 0.50128 0.0
N789 N 0.25228 0.25124 0.49577 0.0
H790 H 0.20417 0.755 0.0002 0.0
H791 H 0.37487 0.73564 0.98973 0.0
H792 H 0.26245 0.79959 0.06853 0.0
H793 H 0.31341 0.68872 0.9279 0.0
H794 H 0.33492 0.76061 0.01823 0.0
H795 H 0.24478 0.73154 0.97314 0.0
C796 C 0.22554 0.75985 0.00964 0.0
C797 C 0.22982 0.77931 0.03682 0.0
C798 C 0.33026 0.7448 0.99846 0.0
C799 C 0.2768 0.75236 0.00556 0.0
C800 C 0.35302 0.73067 0.98209 0.0
C801 C 0.34745 0.70989 0.95658 0.0
C802 C 0.30181 0.7382 0.98903 0.0
C803 C 0.31874 0.70419 0.9478 0.0
C804 C 0.24882 0.74638 0.99409 0.0
C805 C 0.25812 0.78466 0.04776 0.0
N806 N 0.2971 0.71822 0.96396 0.0
N807 N 0.28059 0.77127 0.03204 0.0
loop_
_geom_bond_atom_site_label_1
_geom_bond_atom_site_label_2
_geom_bond_distance
_geom_bond_site_symmetry_2
_ccdc_geom_bond_type
Fe0 O2 1.918 . S
Fe0 O5 1.997 . S
Fe0 O6 2.002 . S
Fe0 O11 1.976 . S
Fe0 O14 1.996 . S
Fe1 O2 1.918 . S
Fe1 O9 1.997 . S
Fe1 O12 1.996 . S
Fe1 O16 1.976 . S
Fe1 O19 2.002 . S
O2 Fe0 1.918 . S
O2 Fe1 1.918 . S
O2 Fe3 1.918 . S
Fe3 O2 1.918 . S
Fe3 O4 2.002 . S
Fe3 O13 1.976 . S
Fe3 O17 1.996 . S
Fe3 O20 1.997 . S
O4 Fe3 2.002 . S
O4 C21 1.295 . S
O5 Fe0 1.997 . S
O5 C21 1.235 . S
O6 Fe0 2.002 . S
O6 C7 1.295 . S
C7 O6 1.295 . S
C7 O9 1.235 . S
C8 O13 1.287 . S
C8 O14 1.255 . S
O9 Fe1 1.997 . S
O9 C7 1.235 . S
C10 O16 1.287 . S
C10 O17 1.255 . S
O11 Fe0 1.976 . S
O11 C18 1.287 . S
O12 Fe1 1.996 . S
O12 C18 1.255 . S
O13 Fe3 1.976 . S
O13 C8 1.287 . S
O14 Fe0 1.996 . S
O14 C8 1.255 . S
C15 O19 1.295 . S
C15 O20 1.235 . S
O16 Fe1 1.976 . S
O16 C10 1.287 . S
O17 Fe3 1.996 . S
O17 C10 1.255 . S
C18 O11 1.287 . S
C18 O12 1.255 . S
O19 Fe1 2.002 . S
O19 C15 1.295 . S
O20 Fe3 1.997 . S
O20 C15 1.235 . S
C21 O4 1.295 . S
C21 O5 1.235 . S
Fe22 O24 1.918 . S
Fe22 O27 1.997 . S
Fe22 O28 2.002 . S
Fe22 O33 1.976 . S
Fe22 O36 1.996 . S
Fe23 O24 1.918 . S
Fe23 O31 1.997 . S
Fe23 O34 1.996 . S
Fe23 O38 1.976 . S
Fe23 O41 2.002 . S
O24 Fe22 1.918 . S
O24 Fe23 1.918 . S
O24 Fe25 1.918 . S
Fe25 O24 1.918 . S
Fe25 O26 2.002 . S
Fe25 O35 1.976 . S
Fe25 O39 1.996 . S
Fe25 O42 1.997 . S
O26 Fe25 2.002 . S
O26 C43 1.295 . S
O27 Fe22 1.997 . S
O27 C43 1.235 . S
O28 Fe22 2.002 . S
O28 C29 1.295 . S
C29 O28 1.295 . S
C29 O31 1.235 . S
C30 O35 1.287 . S
C30 O36 1.255 . S
O31 Fe23 1.997 . S
O31 C29 1.235 . S
C32 O38 1.287 . S
C32 O39 1.255 . S
O33 Fe22 1.976 . S
O33 C40 1.287 . S
O34 Fe23 1.996 . S
O34 C40 1.255 . S
O35 Fe25 1.976 . S
O35 C30 1.287 . S
O36 Fe22 1.996 . S
O36 C30 1.255 . S
C37 O41 1.295 . S
C37 O42 1.235 . S
O38 Fe23 1.976 . S
O38 C32 1.287 . S
O39 Fe25 1.996 . S
O39 C32 1.255 . S
C40 O33 1.287 . S
C40 O34 1.255 . S
O41 Fe23 2.002 . S
O41 C37 1.295 . S
O42 Fe25 1.997 . S
O42 C37 1.235 . S
C43 O26 1.295 . S
C43 O27 1.235 . S
Fe44 O46 1.918 . S
Fe44 O49 1.997 1_554 S
Fe44 O50 2.002 . S
Fe44 O55 1.976 . S
Fe44 O58 1.996 . S
Fe45 O46 1.918 . S
Fe45 O53 1.997 . S
Fe45 O56 1.996 . S
Fe45 O60 1.976 . S
Fe45 O63 2.002 1_554 S
O46 Fe44 1.918 . S
O46 Fe45 1.918 . S
O46 Fe47 1.918 . S
Fe47 O46 1.918 . S
Fe47 O48 2.002 1_554 S
Fe47 O57 1.976 . S
Fe47 O61 1.996 . S
Fe47 O64 1.997 1_554 S
O48 Fe47 2.002 1_556 S
O48 C65 1.295 . S
O49 Fe44 1.997 1_556 S
O49 C65 1.235 . S
O50 Fe44 2.002 . S
O50 C51 1.295 . S
C51 O50 1.295 . S
C51 O53 1.235 . S
C52 O57 1.287 . S
C52 O58 1.255 . S
O53 Fe45 1.997 . S
O53 C51 1.235 . S
C54 O60 1.287 . S
C54 O61 1.255 . S
O55 Fe44 1.976 . S
O55 C62 1.287 . S
O56 Fe45 1.996 . S
O56 C62 1.255 . S
O57 Fe47 1.976 . S
O57 C52 1.287 . S
O58 Fe44 1.996 . S
O58 C52 1.255 . S
C59 O63 1.295 . S
C59 O64 1.235 . S
O60 Fe45 1.976 . S
O60 C54 1.287 . S
O61 Fe47 1.996 . S
O61 C54 1.255 . S
C62 O55 1.287 . S
C62 O56 1.255 . S
O63 Fe45 2.002 1_556 S
O63 C59 1.295 . S
O64 Fe47 1.997 1_556 S
O64 C59 1.235 . S
C65 O48 1.295 . S
C65 O49 1.235 . S
Fe66 O68 1.918 . S
Fe66 O71 1.997 . S
Fe66 O72 2.002 . S
Fe66 O77 1.976 . S
Fe66 O80 1.996 . S
Fe67 O68 1.918 . S
Fe67 O75 1.997 . S
Fe67 O78 1.996 . S
Fe67 O82 1.976 . S
Fe67 O85 2.002 . S
O68 Fe66 1.918 . S
O68 Fe67 1.918 . S
O68 Fe69 1.918 . S
Fe69 O68 1.918 . S
Fe69 O70 2.002 . S
Fe69 O79 1.976 . S
Fe69 O83 1.996 . S
Fe69 O86 1.997 . S
O70 Fe69 2.002 . S
O70 C87 1.295 . S
O71 Fe66 1.997 . S
O71 C87 1.235 . S
O72 Fe66 2.002 . S
O72 C73 1.295 . S
C73 O72 1.295 . S
C73 O75 1.235 . S
C74 O79 1.287 . S
C74 O80 1.255 . S
O75 Fe67 1.997 . S
O75 C73 1.235 . S
C76 O82 1.287 . S
C76 O83 1.255 . S
O77 Fe66 1.976 . S
O77 C84 1.287 . S
O78 Fe67 1.996 . S
O78 C84 1.255 . S
O79 Fe69 1.976 . S
O79 C74 1.287 . S
O80 Fe66 1.996 . S
O80 C74 1.255 . S
C81 O85 1.295 . S
C81 O86 1.235 . S
O82 Fe67 1.976 . S
O82 C76 1.287 . S
O83 Fe69 1.996 . S
O83 C76 1.255 . S
C84 O77 1.287 . S
C84 O78 1.255 . S
O85 Fe67 2.002 . S
O85 C81 1.295 . S
O86 Fe69 1.997 . S
O86 C81 1.235 . S
C87 O70 1.295 . S
C87 O71 1.235 . S
C88 C89 1.384 . S
C88 H101 0.947 . S
C88 C123 1.382 1_655 S
C89 C88 1.384 . S
C89 C90 1.378 . S
C90 C89 1.378 . S
C90 C91 1.378 1_655 S
C90 H102 0.952 . S
C91 C90 1.378 1_455 S
C91 H103 0.950 . S
C91 C122 1.383 . S
H92 C111 0.947 . S
H93 C112 0.946 . S
H94 C114 0.953 . S
H95 C115 0.945 . S
H96 C117 0.952 . S
H97 C118 0.949 . S
H98 C120 0.950 . S
H99 C121 0.948 . S
H100 C123 0.951 . S
H101 C88 0.947 . S
H102 C90 0.952 . S
H103 C91 0.950 . S
N104 C107 1.382 . S
N104 C109 1.363 . S
N105 C107 1.371 . S
N105 C108 1.372 . S
N106 C108 1.361 . S
N106 C109 1.377 . S
C107 N104 1.382 . S
C107 N105 1.371 . S
C107 C110 1.480 . S
C108 N105 1.372 . S
C108 N106 1.361 . S
C108 C116 1.457 . S
C109 N104 1.363 . S
C109 N106 1.377 . S
C109 C122 1.479 . S
C110 C107 1.480 . S
C110 C111 1.383 . S
C110 C115 1.385 . S
C111 H92 0.947 . S
C111 C110 1.383 . S
C111 C112 1.388 . S
C112 H93 0.946 . S
C112 C111 1.388 . S
C112 C113 1.384 . S
C113 C112 1.384 . S
C113 C114 1.377 . S
C114 H94 0.953 . S
C114 C113 1.377 . S
C114 C115 1.369 . S
C115 H95 0.945 . S
C115 C110 1.385 . S
C115 C114 1.369 . S
C116 C108 1.457 . S
C116 C117 1.372 . S
C116 C121 1.364 . S
C117 H96 0.952 . S
C117 C116 1.372 . S
C117 C118 1.389 . S
C118 H97 0.949 . S
C118 C117 1.389 . S
C118 C119 1.387 . S
C119 C118 1.387 . S
C119 C120 1.372 . S
C120 H98 0.950 . S
C120 C119 1.372 . S
C120 C121 1.379 . S
C121 H99 0.948 . S
C121 C116 1.364 . S
C121 C120 1.379 . S
C122 C91 1.383 . S
C122 C109 1.479 . S
C122 C123 1.398 . S
C123 C88 1.382 1_455 S
C123 H100 0.951 . S
C123 C122 1.398 . S
C124 C125 1.384 . S
C124 H137 0.947 . S
C124 C159 1.382 . S
C125 C124 1.384 . S
C125 C126 1.378 . S
C126 C125 1.378 . S
C126 C127 1.378 . S
C126 H138 0.952 . S
C127 C126 1.378 . S
C127 H139 0.950 . S
C127 C158 1.383 . S
H128 C147 0.947 . S
H129 C148 0.946 . S
H130 C150 0.953 . S
H131 C151 0.945 . S
H132 C153 0.952 . S
H133 C154 0.949 . S
H134 C156 0.950 . S
H135 C157 0.948 . S
H136 C159 0.951 . S
H137 C124 0.947 . S
H138 C126 0.952 . S
H139 C127 0.950 . S
N140 C143 1.382 . S
N140 C145 1.363 . S
N141 C143 1.371 . S
N141 C144 1.372 . S
N142 C144 1.361 . S
N142 C145 1.377 . S
C143 N140 1.382 . S
C143 N141 1.371 . S
C143 C146 1.480 . S
C144 N141 1.372 . S
C144 N142 1.361 . S
C144 C152 1.457 . S
C145 N140 1.363 . S
C145 N142 1.377 . S
C145 C158 1.479 . S
C146 C143 1.480 . S
C146 C147 1.383 . S
C146 C151 1.385 . S
C147 H128 0.947 . S
C147 C146 1.383 . S
C147 C148 1.388 . S
C148 H129 0.946 . S
C148 C147 1.388 . S
C148 C149 1.384 . S
C149 C148 1.384 . S
C149 C150 1.377 . S
C150 H130 0.953 . S
C150 C149 1.377 . S
C150 C151 1.369 . S
C151 H131 0.945 . S
C151 C146 1.385 . S
C151 C150 1.369 . S
C152 C144 1.457 . S
C152 C153 1.372 . S
C152 C157 1.364 . S
C153 H132 0.952 . S
C153 C152 1.372 . S
C153 C154 1.389 . S
C154 H133 0.949 . S
C154 C153 1.389 . S
C154 C155 1.387 . S
C155 C154 1.387 . S
C155 C156 1.372 . S
C156 H134 0.950 . S
C156 C155 1.372 . S
C156 C157 1.379 . S
C157 H135 0.948 . S
C157 C152 1.364 . S
C157 C156 1.379 . S
C158 C127 1.383 . S
C158 C145 1.479 . S
C158 C159 1.398 . S
C159 C124 1.382 . S
C159 H136 0.951 . S
C159 C158 1.398 . S
C160 C161 1.384 . S
C160 H173 0.947 . S
C160 C195 1.382 . S
C161 C160 1.384 . S
C161 C162 1.378 . S
C162 C161 1.378 . S
C162 C163 1.378 . S
C162 H174 0.952 . S
C163 C162 1.378 . S
C163 H175 0.950 . S
C163 C194 1.383 . S
H164 C183 0.947 . S
H165 C184 0.946 . S
H166 C186 0.953 . S
H167 C187 0.945 . S
H168 C189 0.952 . S
H169 C190 0.949 . S
H170 C192 0.950 . S
H171 C193 0.948 . S
H172 C195 0.951 . S
H173 C160 0.947 . S
H174 C162 0.952 . S
H175 C163 0.950 . S
N176 C179 1.382 . S
N176 C181 1.363 . S
N177 C179 1.371 . S
N177 C180 1.372 . S
N178 C180 1.361 . S
N178 C181 1.377 . S
C179 N176 1.382 . S
C179 N177 1.371 . S
C179 C182 1.480 . S
C180 N177 1.372 . S
C180 N178 1.361 . S
C180 C188 1.457 . S
C181 N176 1.363 . S
C181 N178 1.377 . S
C181 C194 1.479 . S
C182 C179 1.480 . S
C182 C183 1.383 . S
C182 C187 1.385 . S
C183 H164 0.947 . S
C183 C182 1.383 . S
C183 C184 1.388 . S
C184 H165 0.946 . S
C184 C183 1.388 . S
C184 C185 1.384 . S
C185 C184 1.384 . S
C185 C186 1.377 . S
C186 H166 0.953 . S
C186 C185 1.377 . S
C186 C187 1.369 . S
C187 H167 0.945 . S
C187 C182 1.385 . S
C187 C186 1.369 . S
C188 C180 1.457 . S
C188 C189 1.372 . S
C188 C193 1.364 . S
C189 H168 0.952 . S
C189 C188 1.372 . S
C189 C190 1.389 . S
C190 H169 0.949 . S
C190 C189 1.389 . S
C190 C191 1.387 . S
C191 C190 1.387 . S
C191 C192 1.372 . S
C192 H170 0.950 . S
C192 C191 1.372 . S
C192 C193 1.379 . S
C193 H171 0.948 . S
C193 C188 1.364 . S
C193 C192 1.379 . S
C194 C163 1.383 . S
C194 C181 1.479 . S
C194 C195 1.398 . S
C195 C160 1.382 . S
C195 H172 0.951 . S
C195 C194 1.398 . S
C196 C197 1.384 . S
C196 H209 0.947 . S
C196 C231 1.382 . S
C197 C196 1.384 . S
C197 C198 1.378 . S
C198 C197 1.378 . S
C198 C199 1.378 . S
C198 H210 0.952 . S
C199 C198 1.378 . S
C199 H211 0.950 . S
C199 C230 1.383 . S
H200 C219 0.947 . S
H201 C220 0.946 . S
H202 C222 0.953 . S
H203 C223 0.945 . S
H204 C225 0.952 . S
H205 C226 0.949 . S
H206 C228 0.950 . S
H207 C229 0.948 . S
H208 C231 0.951 . S
H209 C196 0.947 . S
H210 C198 0.952 . S
H211 C199 0.950 . S
N212 C215 1.382 . S
N212 C217 1.363 . S
N213 C215 1.371 . S
N213 C216 1.372 . S
N214 C216 1.361 . S
N214 C217 1.377 . S
C215 N212 1.382 . S
C215 N213 1.371 . S
C215 C218 1.480 . S
C216 N213 1.372 . S
C216 N214 1.361 . S
C216 C224 1.457 . S
C217 N212 1.363 . S
C217 N214 1.377 . S
C217 C230 1.479 . S
C218 C215 1.480 . S
C218 C219 1.383 . S
C218 C223 1.385 . S
C219 H200 0.947 . S
C219 C218 1.383 . S
C219 C220 1.388 . S
C220 H201 0.946 . S
C220 C219 1.388 . S
C220 C221 1.384 . S
C221 C220 1.384 . S
C221 C222 1.377 . S
C222 H202 0.953 . S
C222 C221 1.377 . S
C222 C223 1.369 . S
C223 H203 0.945 . S
C223 C218 1.385 . S
C223 C222 1.369 . S
C224 C216 1.457 . S
C224 C225 1.372 . S
C224 C229 1.364 . S
C225 H204 0.952 . S
C225 C224 1.372 . S
C225 C226 1.389 . S
C226 H205 0.949 . S
C226 C225 1.389 . S
C226 C227 1.387 . S
C227 C226 1.387 . S
C227 C228 1.372 . S
C228 H206 0.950 . S
C228 C227 1.372 . S
C228 C229 1.379 . S
C229 H207 0.948 . S
C229 C224 1.364 . S
C229 C228 1.379 . S
C230 C199 1.383 . S
C230 C217 1.479 . S
C230 C231 1.398 . S
C231 C196 1.382 . S
C231 H208 0.951 . S
C231 C230 1.398 . S
C232 C233 1.384 . S
C232 H245 0.947 . S
C232 C267 1.382 . S
C233 C232 1.384 . S
C233 C234 1.378 . S
C234 C233 1.378 . S
C234 C235 1.378 . S
C234 H246 0.952 . S
C235 C234 1.378 . S
C235 H247 0.950 . S
C235 C266 1.383 . S
H236 C255 0.947 . S
H237 C256 0.946 . S
H238 C258 0.953 . S
H239 C259 0.945 . S
H240 C261 0.952 . S
H241 C262 0.949 . S
H242 C264 0.950 . S
H243 C265 0.948 . S
H244 C267 0.951 . S
H245 C232 0.947 . S
H246 C234 0.952 . S
H247 C235 0.950 . S
N248 C251 1.382 . S
N248 C253 1.363 . S
N249 C251 1.371 . S
N249 C252 1.372 . S
N250 C252 1.361 . S
N250 C253 1.377 . S
C251 N248 1.382 . S
C251 N249 1.371 . S
C251 C254 1.480 . S
C252 N249 1.372 . S
C252 N250 1.361 . S
C252 C260 1.457 . S
C253 N248 1.363 . S
C253 N250 1.377 . S
C253 C266 1.479 . S
C254 C251 1.480 . S
C254 C255 1.383 . S
C254 C259 1.385 . S
C255 H236 0.947 . S
C255 C254 1.383 . S
C255 C256 1.388 . S
C256 H237 0.946 . S
C256 C255 1.388 . S
C256 C257 1.384 . S
C257 C256 1.384 . S
C257 C258 1.377 . S
C258 H238 0.953 . S
C258 C257 1.377 . S
C258 C259 1.369 . S
C259 H239 0.945 . S
C259 C254 1.385 . S
C259 C258 1.369 . S
C260 C252 1.457 . S
C260 C261 1.372 . S
C260 C265 1.364 . S
C261 H240 0.952 . S
C261 C260 1.372 . S
C261 C262 1.389 . S
C262 H241 0.949 . S
C262 C261 1.389 . S
C262 C263 1.387 . S
C263 C262 1.387 . S
C263 C264 1.372 . S
C264 H242 0.950 . S
C264 C263 1.372 . S
C264 C265 1.379 . S
C265 H243 0.948 . S
C265 C260 1.364 . S
C265 C264 1.379 . S
C266 C235 1.383 . S
C266 C253 1.479 . S
C266 C267 1.398 . S
C267 C232 1.382 . S
C267 H244 0.951 . S
C267 C266 1.398 . S
C268 C269 1.384 . S
C268 H281 0.947 . S
C268 C303 1.382 . S
C269 C268 1.384 . S
C269 C270 1.378 . S
C270 C269 1.378 . S
C270 C271 1.378 . S
C270 H282 0.952 . S
C271 C270 1.378 . S
C271 H283 0.950 . S
C271 C302 1.383 . S
H272 C291 0.947 . S
H273 C292 0.946 . S
H274 C294 0.955 . S
H275 C295 0.945 . S
H276 C297 0.952 . S
H277 C298 0.949 . S
H278 C300 0.950 . S
H279 C301 0.948 . S
H280 C303 0.951 . S
H281 C268 0.947 . S
H282 C270 0.952 . S
H283 C271 0.950 . S
N284 C287 1.382 . S
N284 C289 1.363 . S
N285 C287 1.371 . S
N285 C288 1.372 . S
N286 C288 1.361 . S
N286 C289 1.377 . S
C287 N284 1.382 . S
C287 N285 1.371 . S
C287 C290 1.480 . S
C288 N285 1.372 . S
C288 N286 1.361 . S
C288 C296 1.457 . S
C289 N284 1.363 . S
C289 N286 1.377 . S
C289 C302 1.479 . S
C290 C287 1.480 . S
C290 C291 1.383 . S
C290 C295 1.385 . S
C291 H272 0.947 . S
C291 C290 1.383 . S
C291 C292 1.388 . S
C292 H273 0.946 . S
C292 C291 1.388 . S
C292 C293 1.384 . S
C293 C292 1.384 . S
C293 C294 1.377 . S
C294 H274 0.955 . S
C294 C293 1.377 . S
C294 C295 1.369 . S
C295 H275 0.945 . S
C295 C290 1.385 . S
C295 C294 1.369 . S
C296 C288 1.457 . S
C296 C297 1.372 . S
C296 C301 1.364 . S
C297 H276 0.952 . S
C297 C296 1.372 . S
C297 C298 1.389 . S
C298 H277 0.949 . S
C298 C297 1.389 . S
C298 C299 1.387 . S
C299 C298 1.387 . S
C299 C300 1.372 . S
C300 H278 0.950 . S
C300 C299 1.372 . S
C300 C301 1.379 . S
C301 H279 0.948 . S
C301 C296 1.364 . S
C301 C300 1.379 . S
C302 C271 1.383 . S
C302 C289 1.479 . S
C302 C303 1.398 . S
C303 C268 1.382 . S
C303 H280 0.951 . S
C303 C302 1.398 . S
C304 C305 1.384 . S
C304 H317 0.947 . S
C304 C339 1.382 . S
C305 C304 1.384 . S
C305 C306 1.378 . S
C306 C305 1.378 . S
C306 C307 1.378 . S
C306 H318 0.952 . S
C307 C306 1.378 . S
C307 H319 0.950 . S
C307 C338 1.383 . S
H308 C327 0.947 . S
H309 C328 0.946 . S
H310 C330 0.953 . S
H311 C331 0.945 . S
H312 C333 0.952 . S
H313 C334 0.949 . S
H314 C336 0.950 . S
H315 C337 0.948 . S
H316 C339 0.951 . S
H317 C304 0.947 . S
H318 C306 0.952 . S
H319 C307 0.950 . S
N320 C323 1.382 . S
N320 C325 1.363 . S
N321 C323 1.371 . S
N321 C324 1.372 . S
N322 C324 1.361 . S
N322 C325 1.377 . S
C323 N320 1.382 . S
C323 N321 1.371 . S
C323 C326 1.480 . S
C324 N321 1.372 . S
C324 N322 1.361 . S
C324 C332 1.457 . S
C325 N320 1.363 . S
C325 N322 1.377 . S
C325 C338 1.479 . S
C326 C323 1.480 . S
C326 C327 1.383 . S
C326 C331 1.385 . S
C327 H308 0.947 . S
C327 C326 1.383 . S
C327 C328 1.388 . S
C328 H309 0.946 . S
C328 C327 1.388 . S
C328 C329 1.384 . S
C329 C328 1.384 . S
C329 C330 1.377 . S
C330 H310 0.953 . S
C330 C329 1.377 . S
C330 C331 1.369 . S
C331 H311 0.945 . S
C331 C326 1.385 . S
C331 C330 1.369 . S
C332 C324 1.457 . S
C332 C333 1.372 . S
C332 C337 1.364 . S
C333 H312 0.952 . S
C333 C332 1.372 . S
C333 C334 1.389 . S
C334 H313 0.949 . S
C334 C333 1.389 . S
C334 C335 1.387 . S
C335 C334 1.387 . S
C335 C336 1.372 . S
C336 H314 0.950 . S
C336 C335 1.372 . S
C336 C337 1.379 . S
C337 H315 0.948 . S
C337 C332 1.364 . S
C337 C336 1.379 . S
C338 C307 1.383 . S
C338 C325 1.479 . S
C338 C339 1.398 . S
C339 C304 1.382 . S
C339 H316 0.951 . S
C339 C338 1.398 . S
C340 C341 1.384 . S
C340 H353 0.947 . S
C340 C375 1.382 . S
C341 C340 1.384 . S
C341 C342 1.378 . S
C342 C341 1.378 . S
C342 C343 1.378 . S
C342 H354 0.952 . S
C343 C342 1.378 . S
C343 H355 0.950 . S
C343 C374 1.383 . S
H344 C363 0.947 . S
H345 C364 0.946 . S
H346 C366 0.953 . S
H347 C367 0.945 . S
H348 C369 0.952 . S
H349 C370 0.949 . S
H350 C372 0.950 . S
H351 C373 0.948 . S
H352 C375 0.951 . S
H353 C340 0.947 . S
H354 C342 0.952 . S
H355 C343 0.950 . S
N356 C359 1.382 . S
N356 C361 1.363 . S
N357 C359 1.371 . S
N357 C360 1.372 . S
N358 C360 1.361 . S
N358 C361 1.377 . S
C359 N356 1.382 . S
C359 N357 1.371 . S
C359 C362 1.480 . S
C360 N357 1.372 . S
C360 N358 1.361 . S
C360 C368 1.457 . S
C361 N356 1.363 . S
C361 N358 1.377 . S
C361 C374 1.479 . S
C362 C359 1.480 . S
C362 C363 1.383 . S
C362 C367 1.385 . S
C363 H344 0.947 . S
C363 C362 1.383 . S
C363 C364 1.388 . S
C364 H345 0.946 . S
C364 C363 1.388 . S
C364 C365 1.384 . S
C365 C364 1.384 . S
C365 C366 1.377 . S
C366 H346 0.953 . S
C366 C365 1.377 . S
C366 C367 1.369 . S
C367 H347 0.945 . S
C367 C362 1.385 . S
C367 C366 1.369 . S
C368 C360 1.457 . S
C368 C369 1.372 . S
C368 C373 1.364 . S
C369 H348 0.952 . S
C369 C368 1.372 . S
C369 C370 1.389 1_655 S
C370 H349 0.949 . S
C370 C369 1.389 1_455 S
C370 C371 1.387 . S
C371 C370 1.387 . S
C371 C372 1.372 . S
C372 H350 0.950 . S
C372 C371 1.372 . S
C372 C373 1.379 1_455 S
C373 H351 0.948 . S
C373 C368 1.364 . S
C373 C372 1.379 1_655 S
C374 C343 1.383 . S
C374 C361 1.479 . S
C374 C375 1.398 . S
C375 C340 1.382 . S
C375 H352 0.951 . S
C375 C374 1.398 . S
H376 C382 0.930 . S
H377 C386 0.930 . S
H378 C391 0.929 . S
H379 C389 0.929 . S
H380 C384 0.929 . S
H381 C390 0.929 . S
C382 H376 0.930 . S
C382 C383 1.367 . S
C382 C390 1.378 . S
C383 C382 1.367 . S
C383 C391 1.433 . S
C384 H380 0.929 . S
C384 C386 1.378 . S
C384 C388 1.350 . S
C385 C388 1.463 . S
C385 C390 1.350 . S
C385 N393 1.427 . S
C386 H377 0.930 . S
C386 C384 1.378 . S
C386 C387 1.382 . S
C387 C386 1.382 . S
C387 C389 1.429 1_565 S
C388 C384 1.350 . S
C388 C385 1.463 . S
C388 N392 1.427 . S
C389 H379 0.929 . S
C389 C387 1.429 1_545 S
C389 N392 1.384 1_545 S
C390 H381 0.929 . S
C390 C382 1.378 . S
C390 C385 1.350 . S
C391 H378 0.929 . S
C391 C383 1.433 . S
C391 N393 1.384 . S
N392 C388 1.427 . S
N392 C389 1.384 1_565 S
N393 C385 1.427 . S
N393 C391 1.384 . S
H394 C400 0.930 . S
H395 C404 0.930 . S
H396 C409 0.929 . S
H397 C407 0.929 . S
H398 C402 0.929 . S
H399 C408 0.929 . S
C400 H394 0.930 . S
C400 C401 1.367 . S
C400 C408 1.378 . S
C401 C400 1.367 . S
C401 C409 1.433 . S
C402 H398 0.929 . S
C402 C404 1.378 . S
C402 C406 1.350 . S
C403 C406 1.463 . S
C403 C408 1.350 . S
C403 N411 1.427 . S
C404 H395 0.930 . S
C404 C402 1.378 . S
C404 C405 1.367 . S
C405 C404 1.367 . S
C405 C407 1.433 . S
C406 C402 1.350 . S
C406 C403 1.463 . S
C406 N410 1.427 . S
C407 H397 0.929 . S
C407 C405 1.433 . S
C407 N410 1.384 . S
C408 H399 0.929 . S
C408 C400 1.378 . S
C408 C403 1.350 . S
C409 H396 0.929 . S
C409 C401 1.433 . S
C409 N411 1.384 . S
N410 C406 1.427 . S
N410 C407 1.384 . S
N411 C403 1.427 . S
N411 C409 1.384 . S
H412 C418 0.930 . S
H413 C422 0.930 . S
H414 C427 0.929 . S
H415 C425 0.929 . S
H416 C420 0.929 . S
H417 C426 0.929 . S
C418 H412 0.930 . S
C418 C419 1.367 . S
C418 C426 1.378 . S
C419 C418 1.367 . S
C419 C427 1.433 . S
C420 H416 0.929 . S
C420 C422 1.378 1_545 S
C420 C424 1.350 . S
C421 C424 1.463 . S
C421 C426 1.350 . S
C421 N429 1.427 . S
C422 H413 0.930 . S
C422 C420 1.378 1_565 S
C422 C423 1.367 . S
C423 C422 1.367 . S
C423 C425 1.433 . S
C424 C420 1.350 . S
C424 C421 1.463 . S
C424 N428 1.427 1_545 S
C425 H415 0.929 . S
C425 C423 1.433 . S
C425 N428 1.384 . S
C426 H417 0.929 . S
C426 C418 1.378 . S
C426 C421 1.350 . S
C427 H414 0.929 . S
C427 C419 1.433 . S
C427 N429 1.384 . S
N428 C424 1.427 1_565 S
N428 C425 1.384 . S
N429 C421 1.427 . S
N429 C427 1.384 . S
H430 C436 0.930 . S
H431 C440 0.930 . S
H432 C445 0.929 . S
H433 C443 0.929 . S
H434 C438 0.929 . S
H435 C444 0.929 . S
C436 H430 0.930 . S
C436 C437 1.367 . S
C436 C444 1.378 . S
C437 C436 1.367 . S
C437 C445 1.433 . S
C438 H434 0.929 . S
C438 C440 1.378 . S
C438 C442 1.350 . S
C439 C442 1.463 . S
C439 C444 1.350 . S
C439 N447 1.427 . S
C440 H431 0.930 . S
C440 C438 1.378 . S
C440 C441 1.367 . S
C441 C440 1.367 . S
C441 C443 1.433 . S
C442 C438 1.350 . S
C442 C439 1.463 . S
C442 N446 1.427 . S
C443 H433 0.929 . S
C443 C441 1.433 . S
C443 N446 1.384 . S
C444 H435 0.929 . S
C444 C436 1.378 . S
C444 C439 1.350 . S
C445 H432 0.929 . S
C445 C437 1.433 . S
C445 N447 1.384 . S
N446 C442 1.427 . S
N446 C443 1.384 . S
N447 C439 1.427 . S
N447 C445 1.384 . S
H448 C454 0.930 . S
H449 C458 0.930 . S
H450 C463 0.929 . S
H451 C461 0.929 . S
H452 C456 0.929 . S
H453 C462 0.929 . S
C454 H448 0.930 . S
C454 C455 1.367 . S
C454 C462 1.378 . S
C455 C454 1.367 . S
C455 C463 1.433 . S
C456 H452 0.929 . S
C456 C458 1.378 . S
C456 C460 1.350 . S
C457 C460 1.463 . S
C457 C462 1.350 . S
C457 N465 1.427 . S
C458 H449 0.930 . S
C458 C456 1.378 . S
C458 C459 1.367 . S
C459 C458 1.367 . S
C459 C461 1.433 . S
C460 C456 1.350 . S
C460 C457 1.463 . S
C460 N464 1.427 . S
C461 H451 0.929 . S
C461 C459 1.433 . S
C461 N464 1.384 . S
C462 H453 0.929 . S
C462 C454 1.378 . S
C462 C457 1.350 . S
C463 H450 0.929 . S
C463 C455 1.433 . S
C463 N465 1.384 . S
N464 C460 1.427 . S
N464 C461 1.384 . S
N465 C457 1.427 . S
N465 C463 1.384 . S
H466 C472 0.930 . S
H467 C476 0.930 . S
H468 C481 0.929 . S
H469 C479 0.929 . S
H470 C474 0.929 . S
H471 C480 0.929 . S
C472 H466 0.930 . S
C472 C473 1.367 1_554 S
C472 C480 1.378 . S
C473 C472 1.367 1_556 S
C473 C481 1.433 . S
C474 H470 0.929 . S
C474 C476 1.378 . S
C474 C478 1.350 . S
C475 C478 1.463 1_655 S
C475 C480 1.350 1_556 S
C475 N483 1.427 . S
C476 H467 0.930 . S
C476 C474 1.378 . S
C476 C477 1.367 . S
C477 C476 1.367 . S
C477 C479 1.433 1_556 S
C478 C474 1.350 . S
C478 C475 1.463 1_455 S
C478 N482 1.427 1_556 S
C479 H469 0.929 . S
C479 C477 1.433 1_554 S
C479 N482 1.384 . S
C480 H471 0.929 . S
C480 C472 1.378 . S
C480 C475 1.350 1_554 S
C481 H468 0.929 . S
C481 C473 1.433 . S
C481 N483 1.384 . S
N482 C478 1.427 1_554 S
N482 C479 1.384 . S
N483 C475 1.427 . S
N483 C481 1.384 . S
H484 C490 0.930 . S
H485 C494 0.930 . S
H486 C499 0.929 . S
H487 C497 0.929 . S
H488 C492 0.929 . S
H489 C498 0.929 . S
C490 H484 0.930 . S
C490 C491 1.367 . S
C490 C498 1.378 . S
C491 C490 1.367 . S
C491 C499 1.433 . S
C492 H488 0.929 . S
C492 C494 1.378 . S
C492 C496 1.350 . S
C493 C496 1.463 . S
C493 C498 1.350 . S
C493 N501 1.427 . S
C494 H485 0.930 . S
C494 C492 1.378 . S
C494 C495 1.367 . S
C495 C494 1.367 . S
C495 C497 1.433 . S
C496 C492 1.350 . S
C496 C493 1.463 . S
C496 N500 1.427 . S
C497 H487 0.929 . S
C497 C495 1.433 . S
C497 N500 1.384 . S
C498 H489 0.929 . S
C498 C490 1.378 . S
C498 C493 1.350 . S
C499 H486 0.929 . S
C499 C491 1.433 . S
C499 N501 1.384 . S
N500 C496 1.427 . S
N500 C497 1.384 . S
N501 C493 1.427 . S
N501 C499 1.384 . S
H502 C508 0.930 . S
H503 C512 0.930 . S
H504 C517 0.929 . S
H505 C515 0.929 . S
H506 C510 0.929 . S
H507 C516 0.929 . S
C508 H502 0.930 . S
C508 C509 1.367 . S
C508 C516 1.378 . S
C509 C508 1.367 . S
C509 C517 1.433 . S
C510 H506 0.929 . S
C510 C512 1.378 . S
C510 C514 1.350 . S
C511 C514 1.463 . S
C511 C516 1.350 . S
C511 N519 1.427 . S
C512 H503 0.930 . S
C512 C510 1.378 . S
C512 C513 1.367 . S
C513 C512 1.367 . S
C513 C515 1.433 . S
C514 C510 1.350 . S
C514 C511 1.463 . S
C514 N518 1.427 . S
C515 H505 0.929 . S
C515 C513 1.433 . S
C515 N518 1.384 . S
C516 H507 0.929 . S
C516 C508 1.378 . S
C516 C511 1.350 . S
C517 H504 0.929 . S
C517 C509 1.433 . S
C517 N519 1.384 . S
N518 C514 1.427 . S
N518 C515 1.384 . S
N519 C511 1.427 . S
N519 C517 1.384 . S
H520 C526 0.930 . S
H521 C530 0.930 . S
H522 C535 0.929 . S
H523 C533 0.929 . S
H524 C528 0.929 . S
H525 C534 0.929 . S
C526 H520 0.930 . S
C526 C527 1.367 . S
C526 C534 1.378 . S
C527 C526 1.367 . S
C527 C535 1.433 . S
C528 H524 0.929 . S
C528 C530 1.378 . S
C528 C532 1.350 . S
C529 C532 1.463 . S
C529 C534 1.350 . S
C529 N537 1.427 . S
C530 H521 0.930 . S
C530 C528 1.378 . S
C530 C531 1.367 1_545 S
C531 C530 1.367 1_565 S
C531 C533 1.433 . S
C532 C528 1.350 . S
C532 C529 1.463 . S
C532 N536 1.427 . S
C533 H523 0.929 . S
C533 C531 1.433 . S
C533 N536 1.384 1_565 S
C534 H525 0.929 . S
C534 C526 1.378 . S
C534 C529 1.350 . S
C535 H522 0.929 . S
C535 C527 1.433 . S
C535 N537 1.384 . S
N536 C532 1.427 . S
N536 C533 1.384 1_545 S
N537 C529 1.427 . S
N537 C535 1.384 . S
H538 C544 0.930 . S
H539 C548 0.930 . S
H540 C553 0.929 . S
H541 C551 0.929 . S
H542 C546 0.929 . S
H543 C552 0.929 . S
C544 H538 0.930 . S
C544 C545 1.367 . S
C544 C552 1.378 . S
C545 C544 1.367 . S
C545 C553 1.433 . S
C546 H542 0.929 . S
C546 C548 1.378 . S
C546 C550 1.350 . S
C547 C550 1.463 . S
C547 C552 1.350 . S
C547 N555 1.427 . S
C548 H539 0.930 . S
C548 C546 1.378 . S
C548 C549 1.367 . S
C549 C548 1.367 . S
C549 C551 1.433 . S
C550 C546 1.350 . S
C550 C547 1.463 . S
C550 N554 1.427 . S
C551 H541 0.929 . S
C551 C549 1.433 . S
C551 N554 1.384 . S
C552 H543 0.929 . S
C552 C544 1.378 . S
C552 C547 1.350 . S
C553 H540 0.929 . S
C553 C545 1.433 . S
C553 N555 1.384 . S
N554 C550 1.427 . S
N554 C551 1.384 . S
N555 C547 1.427 . S
N555 C553 1.384 . S
H556 C562 0.930 . S
H557 C566 0.930 . S
H558 C571 0.929 . S
H559 C569 0.929 . S
H560 C564 0.929 . S
H561 C570 0.929 . S
C562 H556 0.930 . S
C562 C563 1.367 . S
C562 C570 1.378 . S
C563 C562 1.367 . S
C563 C571 1.433 . S
C564 H560 0.929 . S
C564 C566 1.378 1_554 S
C564 C568 1.350 1_545 S
C565 C568 1.463 . S
C565 C570 1.350 . S
C565 N573 1.427 . S
C566 H557 0.930 . S
C566 C564 1.378 1_556 S
C566 C567 1.367 . S
C567 C566 1.367 . S
C567 C569 1.433 . S
C568 C564 1.350 1_565 S
C568 C565 1.463 . S
C568 N572 1.425 1_554 S
C569 H559 0.929 . S
C569 C567 1.433 . S
C569 N572 1.388 1_545 S
C570 H561 0.929 . S
C570 C562 1.378 . S
C570 C565 1.350 . S
C571 H558 0.929 . S
C571 C563 1.433 . S
C571 N573 1.384 . S
N572 C568 1.425 1_556 S
N572 C569 1.388 1_565 S
N573 C565 1.427 . S
N573 C571 1.384 . S
H574 C580 0.930 . S
H575 C584 0.930 . S
H576 C589 0.929 . S
H577 C587 0.929 . S
H578 C582 0.929 . S
H579 C588 0.929 . S
C580 H574 0.930 . S
C580 C581 1.367 . S
C580 C588 1.378 . S
C581 C580 1.367 . S
C581 C589 1.433 . S
C582 H578 0.929 . S
C582 C584 1.378 . S
C582 C586 1.350 . S
C583 C586 1.463 . S
C583 C588 1.350 . S
C583 N591 1.427 . S
C584 H575 0.930 . S
C584 C582 1.378 . S
C584 C585 1.367 . S
C585 C584 1.367 . S
C585 C587 1.433 . S
C586 C582 1.350 . S
C586 C583 1.463 . S
C586 N590 1.427 . S
C587 H577 0.929 . S
C587 C585 1.433 . S
C587 N590 1.384 . S
C588 H579 0.929 . S
C588 C580 1.378 . S
C588 C583 1.350 . S
C589 H576 0.929 . S
C589 C581 1.433 . S
C589 N591 1.384 . S
N590 C586 1.427 . S
N590 C587 1.384 . S
N591 C583 1.427 . S
N591 C589 1.384 . S
H592 C598 0.930 . S
H593 C602 0.930 . S
H594 C607 0.929 . S
H595 C605 0.929 . S
H596 C600 0.929 . S
H597 C606 0.929 . S
C598 H592 0.930 . S
C598 C599 1.367 . S
C598 C606 1.378 . S
C599 C598 1.367 . S
C599 C607 1.433 . S
C600 H596 0.929 . S
C600 C602 1.378 . S
C600 C604 1.350 . S
C601 C604 1.463 . S
C601 C606 1.350 . S
C601 N609 1.427 . S
C602 H593 0.930 . S
C602 C600 1.378 . S
C602 C603 1.367 . S
C603 C602 1.367 . S
C603 C605 1.433 . S
C604 C600 1.350 . S
C604 C601 1.463 . S
C604 N608 1.427 . S
C605 H595 0.929 . S
C605 C603 1.433 . S
C605 N608 1.384 . S
C606 H597 0.929 . S
C606 C598 1.378 . S
C606 C601 1.350 . S
C607 H594 0.929 . S
C607 C599 1.433 . S
C607 N609 1.384 . S
N608 C604 1.427 . S
N608 C605 1.384 . S
N609 C601 1.427 . S
N609 C607 1.384 . S
H610 C616 0.930 . S
H611 C620 0.930 . S
H612 C625 0.929 . S
H613 C623 0.929 . S
H614 C618 0.929 . S
H615 C624 0.929 1_655 S
C616 H610 0.930 . S
C616 C617 1.367 . S
C616 C624 1.378 . S
C617 C616 1.367 . S
C617 C625 1.433 . S
C618 H614 0.929 . S
C618 C620 1.378 . S
C618 C622 1.350 . S
C619 C622 1.463 1_455 S
C619 C624 1.350 . S
C619 N627 1.427 . S
C620 H611 0.930 . S
C620 C618 1.378 . S
C620 C621 1.367 . S
C621 C620 1.367 . S
C621 C623 1.433 . S
C622 C618 1.350 . S
C622 C619 1.463 1_655 S
C622 N626 1.427 . S
C623 H613 0.929 . S
C623 C621 1.433 . S
C623 N626 1.384 . S
C624 H615 0.929 1_455 S
C624 C616 1.378 . S
C624 C619 1.350 . S
C625 H612 0.929 . S
C625 C617 1.433 . S
C625 N627 1.384 . S
N626 C622 1.427 . S
N626 C623 1.384 . S
N627 C619 1.427 . S
N627 C625 1.384 . S
H628 C634 0.930 . S
H629 C638 0.930 . S
H630 C643 0.929 . S
H631 C641 0.929 . S
H632 C636 0.929 . S
H633 C642 0.929 . S
C634 H628 0.930 . S
C634 C635 1.367 . S
C634 C642 1.378 . S
C635 C634 1.367 . S
C635 C643 1.433 . S
C636 H632 0.929 . S
C636 C638 1.378 . S
C636 C640 1.350 . S
C637 C640 1.463 . S
C637 C642 1.350 . S
C637 N645 1.427 . S
C638 H629 0.930 . S
C638 C636 1.378 . S
C638 C639 1.367 . S
C639 C638 1.367 . S
C639 C641 1.433 . S
C640 C636 1.350 . S
C640 C637 1.463 . S
C640 N644 1.427 . S
C641 H631 0.929 . S
C641 C639 1.433 . S
C641 N644 1.384 . S
C642 H633 0.929 . S
C642 C634 1.378 . S
C642 C637 1.350 . S
C643 H630 0.929 . S
C643 C635 1.433 . S
C643 N645 1.384 . S
N644 C640 1.427 . S
N644 C641 1.384 . S
N645 C637 1.427 . S
N645 C643 1.384 . S
H646 C652 0.930 . S
H647 C656 0.930 . S
H648 C661 0.929 . S
H649 C659 0.929 . S
H650 C654 0.929 . S
H651 C660 0.929 . S
C652 H646 0.930 . S
C652 C653 1.367 . S
C652 C660 1.378 . S
C653 C652 1.367 . S
C653 C661 1.433 . S
C654 H650 0.929 . S
C654 C656 1.378 . S
C654 C658 1.350 . S
C655 C658 1.463 . S
C655 C660 1.350 . S
C655 N663 1.427 . S
C656 H647 0.930 . S
C656 C654 1.378 . S
C656 C657 1.367 . S
C657 C656 1.367 . S
C657 C659 1.433 . S
C658 C654 1.350 . S
C658 C655 1.463 . S
C658 N662 1.427 . S
C659 H649 0.929 . S
C659 C657 1.433 . S
C659 N662 1.384 . S
C660 H651 0.929 . S
C660 C652 1.378 . S
C660 C655 1.350 . S
C661 H648 0.929 . S
C661 C653 1.433 . S
C661 N663 1.384 . S
N662 C658 1.427 . S
N662 C659 1.384 . S
N663 C655 1.427 . S
N663 C661 1.384 . S
H664 C670 0.930 . S
H665 C674 0.930 . S
H666 C679 0.929 . S
H667 C677 0.929 . S
H668 C672 0.929 . S
H669 C678 0.929 . S
C670 H664 0.930 . S
C670 C671 1.367 . S
C670 C678 1.378 . S
C671 C670 1.367 . S
C671 C679 1.433 . S
C672 H668 0.929 . S
C672 C674 1.378 . S
C672 C676 1.350 . S
C673 C676 1.463 . S
C673 C678 1.350 . S
C673 N681 1.427 . S
C674 H665 0.930 . S
C674 C672 1.378 . S
C674 C675 1.367 . S
C675 C674 1.367 . S
C675 C677 1.433 . S
C676 C672 1.350 . S
C676 C673 1.463 . S
C676 N680 1.427 . S
C677 H667 0.929 . S
C677 C675 1.433 . S
C677 N680 1.384 . S
C678 H669 0.929 . S
C678 C670 1.378 . S
C678 C673 1.350 . S
C679 H666 0.929 . S
C679 C671 1.433 . S
C679 N681 1.384 . S
N680 C676 1.427 . S
N680 C677 1.384 . S
N681 C673 1.427 . S
N681 C679 1.384 . S
H682 C688 0.930 . S
H683 C692 0.930 . S
H684 C697 0.929 . S
H685 C695 0.929 . S
H686 C690 0.929 . S
H687 C696 0.929 . S
C688 H682 0.930 . S
C688 C689 1.367 . S
C688 C696 1.378 . S
C689 C688 1.367 . S
C689 C697 1.433 . S
C690 H686 0.929 . S
C690 C692 1.378 . S
C690 C694 1.350 . S
C691 C694 1.463 . S
C691 C696 1.350 . S
C691 N699 1.427 . S
C692 H683 0.930 . S
C692 C690 1.378 . S
C692 C693 1.367 . S
C693 C692 1.367 . S
C693 C695 1.433 . S
C694 C690 1.350 . S
C694 C691 1.463 . S
C694 N698 1.427 . S
C695 H685 0.929 . S
C695 C693 1.433 . S
C695 N698 1.384 . S
C696 H687 0.929 . S
C696 C688 1.378 . S
C696 C691 1.350 . S
C697 H684 0.929 . S
C697 C689 1.433 . S
C697 N699 1.384 . S
N698 C694 1.427 . S
N698 C695 1.384 . S
N699 C691 1.427 . S
N699 C697 1.384 . S
H700 C706 0.930 . S
H701 C710 0.930 . S
H702 C715 0.929 . S
H703 C713 0.929 . S
H704 C708 0.929 . S
H705 C714 0.929 . S
C706 H700 0.930 . S
C706 C707 1.367 . S
C706 C714 1.378 . S
C707 C706 1.367 . S
C707 C715 1.433 . S
C708 H704 0.929 . S
C708 C710 1.378 . S
C708 C712 1.350 . S
C709 C712 1.463 . S
C709 C714 1.350 . S
C709 N717 1.427 . S
C710 H701 0.930 . S
C710 C708 1.378 . S
C710 C711 1.367 . S
C711 C710 1.367 . S
C711 C713 1.433 . S
C712 C708 1.350 . S
C712 C709 1.463 . S
C712 N716 1.427 . S
C713 H703 0.929 . S
C713 C711 1.433 . S
C713 N716 1.384 . S
C714 H705 0.929 . S
C714 C706 1.378 . S
C714 C709 1.350 . S
C715 H702 0.929 . S
C715 C707 1.433 . S
C715 N717 1.384 . S
N716 C712 1.427 . S
N716 C713 1.384 . S
N717 C709 1.427 . S
N717 C715 1.384 . S
H718 C724 0.930 . S
H719 C728 0.930 . S
H720 C733 0.929 . S
H721 C731 0.929 . S
H722 C726 0.929 . S
H723 C732 0.929 . S
C724 H718 0.930 . S
C724 C725 1.367 . S
C724 C732 1.378 . S
C725 C724 1.367 . S
C725 C733 1.433 . S
C726 H722 0.929 . S
C726 C728 1.378 . S
C726 C730 1.350 . S
C727 C730 1.463 . S
C727 C732 1.350 . S
C727 N735 1.427 . S
C728 H719 0.930 . S
C728 C726 1.378 . S
C728 C729 1.367 . S
C729 C728 1.367 . S
C729 C731 1.433 . S
C730 C726 1.350 . S
C730 C727 1.463 . S
C730 N734 1.427 . S
C731 H721 0.929 . S
C731 C729 1.433 . S
C731 N734 1.384 . S
C732 H723 0.929 . S
C732 C724 1.378 . S
C732 C727 1.350 . S
C733 H720 0.929 . S
C733 C725 1.433 . S
C733 N735 1.384 . S
N734 C730 1.427 . S
N734 C731 1.384 . S
N735 C727 1.427 . S
N735 C733 1.384 . S
H736 C742 0.930 . S
H737 C746 0.930 . S
H738 C751 0.929 . S
H739 C749 0.929 . S
H740 C744 0.929 . S
H741 C750 0.929 . S
C742 H736 0.930 . S
C742 C743 1.367 . S
C742 C750 1.378 . S
C743 C742 1.367 . S
C743 C751 1.433 . S
C744 H740 0.929 . S
C744 C746 1.378 . S
C744 C748 1.350 . S
C745 C748 1.463 . S
C745 C750 1.350 . S
C745 N753 1.427 . S
C746 H737 0.930 . S
C746 C744 1.378 . S
C746 C747 1.367 . S
C747 C746 1.367 . S
C747 C749 1.433 . S
C748 C744 1.350 . S
C748 C745 1.463 . S
C748 N752 1.427 . S
C749 H739 0.929 . S
C749 C747 1.433 . S
C749 N752 1.384 . S
C750 H741 0.929 . S
C750 C742 1.378 . S
C750 C745 1.350 . S
C751 H738 0.929 . S
C751 C743 1.433 . S
C751 N753 1.384 . S
N752 C748 1.427 . S
N752 C749 1.384 . S
N753 C745 1.427 . S
N753 C751 1.384 . S
H754 C760 0.930 . S
H755 C764 0.930 . S
H756 C769 0.929 . S
H757 C767 0.929 . S
H758 C762 0.929 . S
H759 C768 0.929 . S
C760 H754 0.930 . S
C760 C761 1.367 . S
C760 C768 1.378 . S
C761 C760 1.367 . S
C761 C769 1.433 . S
C762 H758 0.929 . S
C762 C764 1.378 . S
C762 C766 1.350 . S
C763 C766 1.463 . S
C763 C768 1.350 . S
C763 N771 1.427 . S
C764 H755 0.930 . S
C764 C762 1.378 . S
C764 C765 1.367 . S
C765 C764 1.367 . S
C765 C767 1.433 . S
C766 C762 1.350 . S
C766 C763 1.463 . S
C766 N770 1.427 . S
C767 H757 0.929 . S
C767 C765 1.433 . S
C767 N770 1.384 . S
C768 H759 0.929 . S
C768 C760 1.378 . S
C768 C763 1.350 . S
C769 H756 0.929 . S
C769 C761 1.433 . S
C769 N771 1.384 . S
N770 C766 1.427 . S
N770 C767 1.384 . S
N771 C763 1.427 . S
N771 C769 1.384 . S
H772 C778 0.930 . S
H773 C782 0.930 . S
H774 C787 0.929 . S
H775 C785 0.929 . S
H776 C780 0.929 . S
H777 C786 0.929 . S
C778 H772 0.930 . S
C778 C779 1.367 . S
C778 C786 1.378 . S
C779 C778 1.367 . S
C779 C787 1.433 . S
C780 H776 0.929 . S
C780 C782 1.378 . S
C780 C784 1.350 . S
C781 C784 1.463 . S
C781 C786 1.350 . S
C781 N789 1.427 . S
C782 H773 0.930 . S
C782 C780 1.378 . S
C782 C783 1.367 . S
C783 C782 1.367 . S
C783 C785 1.433 . S
C784 C780 1.350 . S
C784 C781 1.463 . S
C784 N788 1.427 . S
C785 H775 0.929 . S
C785 C783 1.433 . S
C785 N788 1.384 . S
C786 H777 0.929 . S
C786 C778 1.378 . S
C786 C781 1.350 . S
C787 H774 0.929 . S
C787 C779 1.433 . S
C787 N789 1.384 . S
N788 C784 1.427 . S
N788 C785 1.384 . S
N789 C781 1.427 . S
N789 C787 1.384 . S
H790 C796 0.930 . S
H791 C800 0.930 . S
H792 C805 0.929 . S
H793 C803 0.929 . S
H794 C798 0.929 . S
H795 C804 0.929 1_556 S
C796 H790 0.930 . S
C796 C797 1.367 . S
C796 C804 1.378 . S
C797 C796 1.367 . S
C797 C805 1.433 . S
C798 H794 0.929 . S
C798 C800 1.378 . S
C798 C802 1.350 . S
C799 C802 1.463 1_554 S
C799 C804 1.350 . S
C799 N807 1.427 . S
C800 H791 0.930 . S
C800 C798 1.378 . S
C800 C801 1.367 . S
C801 C800 1.367 . S
C801 C803 1.433 . S
C802 C798 1.350 . S
C802 C799 1.463 1_556 S
C802 N806 1.427 . S
C803 H793 0.929 . S
C803 C801 1.433 . S
C803 N806 1.384 . S
C804 H795 0.929 1_554 S
C804 C796 1.378 . S
C804 C799 1.350 . S
C805 H792 0.929 . S
C805 C797 1.433 . S
C805 N807 1.384 . S
N806 C802 1.427 . S
N806 C803 1.384 . S
N807 C799 1.427 . S
N807 C805 1.384 . S
C383 C7 1.585 . S
C387 C119 1.475 1_565 S
C401 C37 1.524 . S
C405 C155 1.386 . S
C419 C54 1.706 . S
C423 C191 1.572 . S
C441 C221 1.471 . S
C437 C87 1.488 . S
C459 C263 1.447 . S
C455 C30 1.537 . S
C473 C51 1.525 1_556 S
C477 C293 1.510 . S
C491 C84 1.752 . S
C495 C329 1.615 . S
C509 C10 1.485 1_556 S
C513 C371 1.351 . S
C527 C59 1.582 . S
C531 C341 1.521 . S
C549 C233 1.349 . S
C545 C74 1.467 . S
C567 C299 1.652 . S
C563 C18 1.752 . S
C581 C32 1.515 . S
C585 C335 1.501 . S
C603 C125 1.498 . S
C599 C73 1.581 . S
C617 C15 1.511 . S
C621 C185 1.461 . S
C639 C227 1.699 . S
C635 C43 1.782 . S
C657 C89 1.356 . S
C653 C62 1.470 . S
C675 C305 1.540 . S
C671 C21 1.574 . S
C693 C365 1.326 . S
C689 C29 1.361 . S
C707 C52 1.312 . S
C711 C257 1.261 . S
C729 C269 1.508 . S
C725 C81 1.552 . S
C747 C161 1.453 . S
C743 C40 1.527 . S
C761 C65 1.546 . S
C765 C197 1.494 . S
C783 C113 1.253 . S
C779 C76 1.319 . S
C801 C149 1.315 . S
C797 C8 1.365 . S
