# Generated by pormake.
# Topology pyr, (3,6)-cn, num edge types: 1
# Building blocks:
#     Node 0, Type 0, BuildingBlock: CUQRIR_clean_linker_1, # of connection points: 3
#     Node 1, Type 0, BuildingBlock: CUQRIR_clean_linker_1, # of connection points: 3
#     Node 2, Type 0, BuildingBlock: CUQRIR_clean_linker_1, # of connection points: 3
#     Node 3, Type 0, BuildingBlock: CUQRIR_clean_linker_1, # of connection points: 3
#     Node 4, Type 0, BuildingBlock: CUQRIR_clean_linker_1, # of connection points: 3
#     Node 5, Type 0, BuildingBlock: CUQRIR_clean_linker_1, # of connection points: 3
#     Node 6, Type 0, BuildingBlock: CUQRIR_clean_linker_1, # of connection points: 3
#     Node 7, Type 0, BuildingBlock: CUQRIR_clean_linker_1, # of connection points: 3
#     Node 8, Type 1, BuildingBlock: FUNLAD_clean_sbu_0, # of connection points: 6
#     Node 9, Type 1, BuildingBlock: FUNLAD_clean_sbu_0, # of connection points: 6
#     Node 10, Type 1, BuildingBlock: FUNLAD_clean_sbu_0, # of connection points: 6
#     Node 11, Type 1, BuildingBlock: FUNLAD_clean_sbu_0, # of connection points: 6
#     Edge 12, Type (0, 1), BuildingBlock: ZUJKAS_clean_linker_0, # of connection points: 2
#     Edge 13, Type (0, 1), BuildingBlock: ZUJKAS_clean_linker_0, # of connection points: 2
#     Edge 14, Type (0, 1), BuildingBlock: ZUJKAS_clean_linker_0, # of connection points: 2
#     Edge 15, Type (0, 1), BuildingBlock: ZUJKAS_clean_linker_0, # of connection points: 2
#     Edge 16, Type (0, 1), BuildingBlock: ZUJKAS_clean_linker_0, # of connection points: 2
#     Edge 17, Type (0, 1), BuildingBlock: ZUJKAS_clean_linker_0, # of connection points: 2
#     Edge 18, Type (0, 1), BuildingBlock: ZUJKAS_clean_linker_0, # of connection points: 2
#     Edge 19, Type (0, 1), BuildingBlock: ZUJKAS_clean_linker_0, # of connection points: 2
#     Edge 20, Type (0, 1), BuildingBlock: ZUJKAS_clean_linker_0, # of connection points: 2
#     Edge 21, Type (0, 1), BuildingBlock: ZUJKAS_clean_linker_0, # of connection points: 2
#     Edge 22, Type (0, 1), BuildingBlock: ZUJKAS_clean_linker_0, # of connection points: 2
#     Edge 23, Type (0, 1), BuildingBlock: ZUJKAS_clean_linker_0, # of connection points: 2
#     Edge 24, Type (0, 1), BuildingBlock: ZUJKAS_clean_linker_0, # of connection points: 2
#     Edge 25, Type (0, 1), BuildingBlock: ZUJKAS_clean_linker_0, # of connection points: 2
#     Edge 26, Type (0, 1), BuildingBlock: ZUJKAS_clean_linker_0, # of connection points: 2
#     Edge 27, Type (0, 1), BuildingBlock: ZUJKAS_clean_linker_0, # of connection points: 2
#     Edge 28, Type (0, 1), BuildingBlock: ZUJKAS_clean_linker_0, # of connection points: 2
#     Edge 29, Type (0, 1), BuildingBlock: ZUJKAS_clean_linker_0, # of connection points: 2
#     Edge 30, Type (0, 1), BuildingBlock: ZUJKAS_clean_linker_0, # of connection points: 2
#     Edge 31, Type (0, 1), BuildingBlock: ZUJKAS_clean_linker_0, # of connection points: 2
#     Edge 32, Type (0, 1), BuildingBlock: ZUJKAS_clean_linker_0, # of connection points: 2
#     Edge 33, Type (0, 1), BuildingBlock: ZUJKAS_clean_linker_0, # of connection points: 2
#     Edge 34, Type (0, 1), BuildingBlock: ZUJKAS_clean_linker_0, # of connection points: 2
#     Edge 35, Type (0, 1), BuildingBlock: ZUJKAS_clean_linker_0, # of connection points: 2
# Relax obj value: 0.152
# Max RMSD: 0.221
# Mean RMSD: 0.150
data_MOF--net-pry--node1-FUNLAD_clean_sbu_0--node2-CUQRIR_clean_linker_1--edge1-ZUJKAS_clean_linker_0
_symmetry_space_group_name_H-M    P1
_symmetry_Int_Tables_number       1
_symmetry_cell_setting            triclinic
loop_
_symmetry_equiv_pos_as_xyz
'x, y, z'
_cell_length_a     43.57932
_cell_length_b     45.543716
_cell_length_c     45.391539
_cell_angle_alpha  88.358787
_cell_angle_beta   91.984712
_cell_angle_gamma 88.162739
loop_
_atom_site_label
_atom_site_type_symbol
_atom_site_fract_x
_atom_site_fract_y
_atom_site_fract_z
_atom_type_partial_charge
C0 C 0.17426 0.24298 0.20358 0.0
N1 N 0.19351 0.21946 0.21031 0.0
N2 N 0.18223 0.25694 0.17824 0.0
C3 C 0.14772 0.2525 0.22182 0.0
C4 C 0.20709 0.24096 0.16986 0.0
N5 N 0.21397 0.21826 0.18922 0.0
C6 C 0.22416 0.24687 0.14216 0.0
H7 H 0.1267 0.24185 0.21353 0.0
H8 H 0.14374 0.27667 0.21997 0.0
H9 H 0.15155 0.2459 0.24537 0.0
H10 H 0.24356 0.26128 0.14735 0.0
H11 H 0.20893 0.25804 0.12493 0.0
H12 H 0.23377 0.22615 0.13342 0.0
C13 C 0.38694 0.90051 0.68442 0.0
N14 N 0.38081 0.92186 0.70379 0.0
N15 N 0.41028 0.88229 0.6948 0.0
C16 C 0.36888 0.89652 0.65597 0.0
C17 C 0.41791 0.89325 0.7215 0.0
N18 N 0.39987 0.91726 0.72717 0.0
C19 C 0.4444 0.88169 0.74108 0.0
H20 H 0.34467 0.90439 0.65759 0.0
H21 H 0.36918 0.87311 0.64983 0.0
H22 H 0.37933 0.90958 0.63815 0.0
H23 H 0.45528 0.8998 0.753 0.0
H24 H 0.46195 0.87015 0.7281 0.0
H25 H 0.43575 0.86587 0.75762 0.0
C26 C 0.60602 0.50297 0.97087 0.0
N27 N 0.63006 0.49242 0.98811 0.0
N28 N 0.61232 0.52922 0.95807 0.0
C29 C 0.57896 0.48503 0.96186 0.0
C30 C 0.64087 0.53453 0.96904 0.0
N31 N 0.65177 0.51213 0.98702 0.0
C32 C 0.65994 0.55949 0.95865 0.0
H33 H 0.58343 0.47497 0.94038 0.0
H34 H 0.55789 0.49927 0.9591 0.0
H35 H 0.575 0.46728 0.97841 0.0
H36 H 0.64523 0.57749 0.94816 0.0
H37 H 0.67639 0.55134 0.94239 0.0
H38 H 0.67348 0.56806 0.9775 0.0
C39 C 0.91235 0.61586 0.43981 0.0
N40 N 0.93515 0.633 0.43069 0.0
N41 N 0.90103 0.62549 0.46532 0.0
C42 C 0.90028 0.59018 0.4234 0.0
C43 C 0.91798 0.64911 0.47151 0.0
N44 N 0.93892 0.65351 0.45059 0.0
C45 C 0.91107 0.67052 0.49529 0.0
H46 H 0.88153 0.59799 0.40767 0.0
H47 H 0.8908 0.57386 0.43895 0.0
H48 H 0.91872 0.57953 0.41076 0.0
H49 H 0.88929 0.66596 0.50616 0.0
H50 H 0.9098 0.6933 0.48586 0.0
H51 H 0.9301 0.66919 0.5122 0.0
C52 C 0.86904 0.90869 0.87466 0.0
N53 N 0.89254 0.90345 0.85641 0.0
N54 N 0.85618 0.93587 0.86935 0.0
C55 C 0.8586 0.88708 0.89769 0.0
C56 C 0.87285 0.94716 0.84732 0.0
N57 N 0.8953 0.92768 0.83963 0.0
C58 C 0.86721 0.97724 0.83323 0.0
H59 H 0.84531 0.86989 0.88667 0.0
H60 H 0.84372 0.8976 0.91391 0.0
H61 H 0.87877 0.87613 0.9095 0.0
H62 H 0.8847 0.99219 0.842 0.0
H63 H 0.84417 0.98656 0.83797 0.0
H64 H 0.86961 0.97635 0.809 0.0
C65 C 0.71603 0.23995 0.38986 0.0
N66 N 0.72207 0.21649 0.37291 0.0
N67 N 0.68777 0.2521 0.383 0.0
C68 C 0.7369 0.24978 0.41453 0.0
C69 C 0.67674 0.23501 0.36132 0.0
N70 N 0.6974 0.21323 0.35531 0.0
C71 C 0.64626 0.2403 0.34514 0.0
H72 H 0.74991 0.23077 0.42521 0.0
H73 H 0.7237 0.26134 0.43143 0.0
H74 H 0.75365 0.2651 0.40532 0.0
H75 H 0.63882 0.26381 0.34548 0.0
H76 H 0.62881 0.22703 0.35613 0.0
H77 H 0.64737 0.23345 0.32194 0.0
C78 C 0.42336 0.61804 0.09066 0.0
N79 N 0.44766 0.63428 0.09835 0.0
N80 N 0.41404 0.62415 0.06224 0.0
C81 C 0.40554 0.60003 0.11215 0.0
C82 C 0.43388 0.64456 0.0531 0.0
N83 N 0.45395 0.65114 0.07514 0.0
C84 C 0.43343 0.65849 0.02263 0.0
H85 H 0.40726 0.57659 0.10625 0.0
H86 H 0.38089 0.60705 0.11069 0.0
H87 H 0.41414 0.60195 0.13525 0.0
H88 H 0.42028 0.67975 0.02229 0.0
H89 H 0.42247 0.64397 1.0064 0.0
H90 H 0.4572 0.66301 1.01618 0.0
C91 C 0.10751 0.50072 0.57793 0.0
N92 N 0.13069 0.49034 0.56162 0.0
N93 N 0.11369 0.5277 0.58805 0.0
C94 C 0.08167 0.48241 0.58865 0.0
C95 C 0.14142 0.53334 0.57689 0.0
N96 N 0.15185 0.51061 0.56113 0.0
C97 C 0.15955 0.56008 0.58343 0.0
H98 H 0.05947 0.4947 0.58472 0.0
H99 H 0.08486 0.4781 0.61277 0.0
H100 H 0.08039 0.46114 0.57748 0.0
H101 H 0.17692 0.55459 0.60135 0.0
H102 H 0.14429 0.57837 0.59045 0.0
H103 H 0.17198 0.56711 0.56364 0.0
C104 C 0.08615 0.08041 0.47387 0.0
N105 N 0.06787 0.12566 0.55045 0.0
C106 C 0.09709 0.13456 0.5471 0.0
C107 C 0.10437 0.16369 0.55105 0.0
C108 C 0.08138 0.18415 0.55832 0.0
C109 C 0.05174 0.17423 0.56337 0.0
C110 C 0.04539 0.14463 0.55915 0.0
Zn111 Zn 0.05926 0.08466 0.53555 0.0
C112 C 1.00065 0.08373 0.49888 0.0
N113 N 0.04673 1.0008 0.49911 0.0
C114 C 0.06978 0.98505 0.48679 0.0
C115 C 0.01856 0.98943 0.50253 0.0
C116 C 1.01294 0.96085 0.49422 0.0
C117 C 0.03651 0.94374 0.48223 0.0
C118 C 0.0651 0.95631 0.47802 0.0
Zn119 Zn 0.05407 0.04137 0.51512 0.0
O120 O 0.08197 0.09702 0.49554 0.0
C121 C 0.11223 0.04247 0.55242 0.0
O122 O 0.07676 0.05427 0.47556 0.0
H123 H 1.00054 1.00236 0.51229 0.0
H124 H 0.11461 0.11941 0.53975 0.0
H125 H 0.09202 0.99455 0.48436 0.0
O126 O 0.10171 0.06846 0.5557 0.0
O127 O 0.09722 0.02555 0.5358 0.0
H128 H 0.02224 0.13718 0.5614 0.0
O129 O 0.0315 0.02883 0.55486 0.0
O130 O 0.03666 0.07148 0.57541 0.0
O131 O 1.01096 0.0577 0.49493 0.0
O132 O 0.01619 0.10031 0.5154 0.0
C133 C 0.02754 0.04513 0.57684 0.0
H134 H 0.12761 0.17037 0.54739 0.0
H135 H 0.03335 0.18943 0.56891 0.0
H136 H 0.99041 0.95213 0.49739 0.0
H137 H 0.0839 0.94375 0.46898 0.0
C138 C 0.59271 0.04892 0.01969 0.0
N139 N 0.54879 0.13226 0.01928 0.0
C140 C 0.57846 0.14044 0.02247 0.0
C141 C 0.58602 0.16962 0.01843 0.0
C142 C 0.56287 0.19094 1.01132 0.0
C143 C 0.5326 0.18189 1.0065 0.0
C144 C 0.52598 0.15216 1.01076 0.0
Zn145 Zn 0.54085 0.09049 0.03434 0.0
C146 C 0.50656 0.05329 0.99282 0.0
N147 N 0.53069 1.00487 0.0716 0.0
C148 C 0.55558 0.9903 0.0846 0.0
C149 C 0.50386 0.99116 0.06648 0.0
C150 C 0.50186 0.96118 0.07311 0.0
C151 C 0.52772 0.94526 0.08509 0.0
C152 C 0.55457 0.96035 0.09164 0.0
Zn153 Zn 0.53582 0.04648 0.05542 0.0
O154 O 0.58213 0.07495 1.01463 0.0
C155 C 0.57054 0.08339 0.09667 0.0
O156 O 0.57827 0.03206 0.03674 0.0
H157 H 0.48437 1.0032 0.05615 0.0
H158 H 0.59627 0.12459 0.0298 0.0
H159 H 0.57676 1.0016 0.08827 0.0
O160 O 0.56624 0.10078 0.07438 0.0
O161 O 0.55986 0.05778 0.09547 0.0
H162 H 0.5025 0.14528 1.00868 0.0
O163 O 0.49339 0.06126 0.07394 0.0
O164 O 0.49894 0.10518 0.0541 0.0
O165 O 0.51179 0.03566 1.01488 0.0
O166 O 0.51563 0.07959 0.99447 0.0
C167 C 0.48357 0.08779 0.06992 0.0
H168 H 0.60971 0.17561 0.02186 0.0
H169 H 0.51409 0.19775 1.00105 0.0
H170 H 0.48057 0.95042 0.06813 0.0
H171 H 0.5751 0.94885 0.10062 0.0
C172 C 0.54977 0.51039 0.50917 0.0
N173 N 0.53855 0.54257 0.59514 0.0
C174 C 0.52503 0.51875 0.60727 0.0
C175 C 0.52431 0.51506 0.638 0.0
C176 C 0.53722 0.53636 0.65594 0.0
C177 C 0.55238 0.5597 0.64282 0.0
C178 C 0.55286 0.56235 0.61232 0.0
Zn179 Zn 0.5328 0.55511 0.55174 0.0
C180 C 0.58921 0.5825 0.52922 0.0
N181 N 0.51969 0.58897 0.46377 0.0
C182 C 0.50657 0.57068 0.44418 0.0
C183 C 0.52957 0.61578 0.45503 0.0
C184 C 0.52675 0.62495 0.42538 0.0
C185 C 0.5138 0.60624 0.40462 0.0
C186 C 0.50341 0.5789 0.4144 0.0
Zn187 Zn 0.52569 0.57463 0.50659 0.0
O188 O 0.54801 0.51311 0.53693 0.0
C189 C 0.46941 0.54654 0.52846 0.0
O190 O 0.54175 0.53222 0.4921 0.0
H191 H 0.54004 0.62991 0.47099 0.0
H192 H 0.51353 0.50346 0.59319 0.0
H193 H 0.49879 0.5495 0.45162 0.0
O194 O 0.48677 0.54134 0.55122 0.0
O195 O 0.4799 0.56022 0.50639 0.0
H196 H 0.56319 0.58131 0.60241 0.0
O197 O 0.5102 0.61691 0.52189 0.0
O198 O 0.51749 0.59725 0.56617 0.0
O199 O 0.57134 0.58855 0.50704 0.0
O200 O 0.57899 0.56873 0.55134 0.0
C201 C 0.50938 0.61936 0.54972 0.0
H202 H 0.51252 0.49671 0.64757 0.0
H203 H 0.56295 0.57629 0.65607 0.0
H204 H 0.53523 0.64613 0.4187 0.0
H205 H 0.49284 0.56402 0.39919 0.0
C206 C 0.01388 0.63268 0.98657 0.0
N207 N 0.02191 0.59815 0.07437 0.0
C208 C 0.03255 0.62411 0.08397 0.0
C209 C 0.03122 0.63088 0.11379 0.0
C210 C 0.01927 0.61048 0.13374 0.0
C211 C 1.00772 0.5843 0.12305 0.0
C212 C 1.00911 0.57862 0.09315 0.0
Zn213 Zn 0.02772 0.58547 0.03213 0.0
C214 C 0.97094 0.56018 1.00652 0.0
N215 N 0.04104 0.55594 0.9452 0.0
C216 C 0.05825 0.57391 0.92849 0.0
C217 C 0.02638 0.53291 0.93323 0.0
C218 C 0.02819 0.52777 0.90307 0.0
C219 C 0.04563 0.54625 0.88544 0.0
C220 C 0.06108 0.56928 0.89857 0.0
Zn221 Zn 0.03502 0.56798 0.98764 0.0
O222 O 0.01373 0.62879 1.01449 0.0
C223 C 0.09185 0.59224 1.01411 0.0
O224 O 0.02168 0.61119 0.97088 0.0
H225 H 1.01264 0.51902 0.94687 0.0
H226 H 0.04278 0.63923 0.06865 0.0
H227 H 0.06905 0.59257 0.9381 0.0
O228 O 0.07421 0.59751 0.03514 0.0
O229 O 0.08126 0.5803 0.99116 0.0
H230 H 1.00061 0.5582 0.08507 0.0
O231 O 0.04904 0.52494 1.00477 0.0
O232 O 0.04186 0.54211 0.04872 0.0
O233 O 0.98836 0.55541 0.98515 0.0
O234 O 0.98157 0.57282 0.02909 0.0
C235 C 0.04987 0.5209 0.03268 0.0
H236 H 0.04032 0.65132 0.12132 0.0
H237 H 0.99787 0.56827 0.13773 0.0
H238 H 0.01597 0.50977 0.89359 0.0
H239 H 0.07429 0.58433 0.88558 0.0
H240 H 0.21107 0.2308 0.26608 0.0
H241 H 0.19703 0.20341 0.31087 0.0
H242 H 0.15594 0.13772 0.25705 0.0
H243 H 0.16993 0.16543 0.21231 0.0
H244 H 0.13377 0.19188 0.32236 0.0
H245 H 0.20531 0.08863 0.32304 0.0
H246 H 0.21547 0.12153 0.3029 0.0
H247 H 0.18549 0.09918 0.28874 0.0
C248 C 0.2 0.20997 0.26398 0.0
C249 C 0.19196 0.19993 0.23586 0.0
C250 C 0.19173 0.19446 0.2895 0.0
C251 C 0.17551 0.16834 0.2875 0.0
C252 C 0.16883 0.15751 0.25932 0.0
H253 H 0.08959 0.05533 0.41943 0.0
H254 H 0.11103 0.07622 0.37446 0.0
C255 C 0.17693 0.17322 0.23375 0.0
C256 C 0.16309 0.15421 0.31463 0.0
H257 H 0.16711 0.09179 0.35871 0.0
C258 C 0.14118 0.17003 0.33037 0.0
C259 C 0.17235 0.12554 0.32495 0.0
C260 C 0.1961 0.10768 0.30924 0.0
C261 C 0.12811 0.15801 0.35581 0.0
C262 C 0.13787 0.12956 0.36666 0.0
C263 C 0.15962 0.1136 0.35071 0.0
C264 C 0.12583 0.1162 0.39447 0.0
C265 C 0.10323 0.17573 0.37024 0.0
C266 C 0.12752 0.13116 0.42115 0.0
C267 C 0.11497 0.1194 0.44681 0.0
C268 C 0.10085 0.09201 0.44676 0.0
C269 C 0.10019 0.07648 0.42035 0.0
C270 C 0.1125 0.08844 0.39455 0.0
H271 H 0.09168 0.19195 0.35443 0.0
H272 H 0.08556 0.16136 0.37938 0.0
H273 H 0.11363 0.18815 0.38852 0.0
H274 H 0.13849 0.15212 0.42216 0.0
H275 H 0.11629 0.1319 0.46674 0.0
H276 H 0.41165 0.97527 0.72972 0.0
H277 H 0.42614 1.00203 0.77436 0.0
H278 H 0.40885 0.92511 0.82804 0.0
H279 H 0.39462 0.89859 0.78356 0.0
H280 H 0.39756 0.01503 0.82893 0.0
H281 H 0.49956 0.94012 0.84761 0.0
H282 H 0.47725 0.94181 0.81333 0.0
H283 H 0.46396 0.92147 0.84468 0.0
C284 C 0.41022 0.96446 0.75116 0.0
C285 C 0.40212 0.93485 0.75323 0.0
C286 C 0.4187 0.97964 0.77665 0.0
C287 C 0.41934 0.96543 0.80466 0.0
C288 C 0.40928 0.93644 0.80676 0.0
H289 H 0.48319 0.99903 0.98353 0.0
H290 H 0.46115 0.97999 0.93801 0.0
C291 C 0.40089 0.92134 0.78137 0.0
C292 C 0.432 0.98006 0.8315 0.0
H293 H 0.48823 0.97248 0.88604 0.0
C294 C 0.4175 1.00584 0.84132 0.0
C295 C 0.45814 0.96826 0.84775 0.0
C296 C 0.47586 0.94156 0.83772 0.0
C297 C 0.42773 0.01944 0.86735 0.0
C298 C 0.4536 1.00732 0.88386 0.0
C299 C 0.46833 0.98181 0.87368 0.0
C300 C 0.46554 0.02011 0.91205 0.0
C301 C 0.41007 0.04611 0.87745 0.0
C302 C 0.4755 0.0492 0.91303 0.0
C303 C 0.48814 0.06029 0.93928 0.0
C304 C 0.49136 0.04251 0.9652 0.0
C305 C 0.48111 1.0135 0.96416 0.0
C306 C 0.46849 1.00249 0.938 0.0
H307 H 0.38657 0.04792 0.86714 0.0
H308 H 0.40823 0.0455 0.9018 0.0
H309 H 0.42233 0.06616 0.87104 0.0
H310 H 0.47423 0.06317 0.8933 0.0
H311 H 0.49595 0.08263 0.93908 0.0
H312 H 0.5562 0.55365 0.94379 0.0
H313 H 0.53348 0.56085 0.8934 0.0
H314 H 0.61915 0.53113 0.85771 0.0
H315 H 0.64134 0.52358 0.90756 0.0
H316 H 0.58995 0.58222 0.82829 0.0
H317 H 0.51318 0.48766 0.84259 0.0
H318 H 0.51154 0.51631 0.86907 0.0
H319 H 0.54556 0.49329 0.86745 0.0
C320 C 0.57013 0.54934 0.92501 0.0
C321 C 0.60051 0.53853 0.92927 0.0
C322 C 0.5572 0.55321 0.89642 0.0
C323 C 0.57466 0.54627 0.87198 0.0
C324 C 0.6054 0.53672 0.87631 0.0
H325 H 0.55492 0.49227 0.6956 0.0
H326 H 0.55817 0.49578 0.74957 0.0
C327 C 0.61814 0.5327 0.90469 0.0
C328 C 0.56107 0.54723 0.84173 0.0
H329 H 0.51564 0.50873 0.79488 0.0
C330 C 0.57325 0.56658 0.82099 0.0
C331 C 0.53972 0.52637 0.83242 0.0
C332 C 0.52674 0.50454 0.85389 0.0
C333 C 0.56548 0.56499 0.79089 0.0
C334 C 0.5445 0.54379 0.78146 0.0
C335 C 0.53156 0.52501 0.80231 0.0
C336 C 0.53757 0.53968 0.74978 0.0
C337 C 0.58105 0.58497 0.76932 0.0
C338 C 0.52372 0.56264 0.73238 0.0
C339 C 0.52215 0.56076 0.70178 0.0
C340 C 0.53402 0.53571 0.68818 0.0
C341 C 0.54564 0.51175 0.70569 0.0
C342 C 0.5475 0.51377 0.7364 0.0
H343 H 0.60122 0.59555 0.77962 0.0
H344 H 0.5888 0.57261 0.75004 0.0
H345 H 0.56449 0.60262 0.76115 0.0
H346 H 0.51541 0.58256 0.74238 0.0
H347 H 0.51272 0.57936 0.68862 0.0
H348 H 0.90482 0.63763 0.37826 0.0
H349 H 0.92689 0.63537 0.32947 0.0
H350 H 0.01788 0.62725 0.37008 0.0
H351 H 0.99547 0.62949 0.41923 0.0
H352 H 1.0112 0.66726 0.31879 0.0
H353 H 0.96411 0.55768 0.29857 0.0
H354 H 0.93581 0.58432 0.30957 0.0
H355 H 0.96685 0.57282 0.33486 0.0
C356 C 0.92948 0.63503 0.37666 0.0
C357 C 0.94854 0.63283 0.4022 0.0
C358 C 0.94206 0.63393 0.34892 0.0
C359 C 0.97392 0.63054 0.34628 0.0
C360 C 0.99319 0.62961 0.37176 0.0
H361 H 0.04023 0.57341 0.1784 0.0
H362 H 0.03513 0.57961 0.23134 0.0
C363 C 0.98051 0.63079 0.39965 0.0
C364 C 0.98662 0.62706 0.31678 0.0
H365 H 0.98171 0.58409 0.25671 0.0
C366 C 1.00515 0.64893 0.30525 0.0
C367 C 0.97902 0.60289 0.29944 0.0
C368 C 0.96061 0.57792 0.3113 0.0
C369 C 0.01524 0.64783 0.27621 0.0
C370 C 1.00607 0.62451 0.25828 0.0
C371 C 0.98856 0.6021 0.27034 0.0
C372 C 1.01339 0.62299 0.2267 0.0
C373 C 0.03558 0.67159 0.26505 0.0
C374 C 1.00338 0.64555 0.20651 0.0
C375 C 1.00653 0.64213 0.17622 0.0
C376 C 0.01917 0.61585 0.1657 0.0
C377 C 0.03008 0.59375 0.18598 0.0
C378 C 0.02729 0.59732 0.21618 0.0
H379 H 0.04828 0.6819 0.28349 0.0
H380 H 0.05241 0.66281 0.24945 0.0
H381 H 0.02112 0.68903 0.25332 0.0
H382 H 0.99189 0.66525 0.21404 0.0
H383 H 0.99774 0.65937 0.16098 0.0
H384 H 0.2141 0.16431 0.1665 0.0
H385 H 0.25962 0.13654 0.15028 0.0
H386 H 0.31807 0.20112 0.1884 0.0
H387 H 0.27252 0.2285 0.20456 0.0
H388 H 0.29973 0.15898 0.11061 0.0
H389 H 0.36431 0.12489 0.21379 0.0
H390 H 0.32427 0.13649 0.21317 0.0
H391 H 0.35364 0.16331 0.21191 0.0
C392 C 0.23679 0.17169 0.1725 0.0
C393 C 0.23996 0.19801 0.18748 0.0
C394 C 0.26278 0.1561 0.16293 0.0
C395 C 0.29249 0.16648 0.16829 0.0
C396 C 0.29562 0.19215 0.18451 0.0
H397 H 0.45476 0.14231 0.06393 0.0
H398 H 0.40831 0.16 0.08758 0.0
C399 C 0.26963 0.20774 0.19392 0.0
C400 C 0.31977 0.15242 0.15442 0.0
H401 H 0.39213 0.12291 0.16931 0.0
C402 C 0.3198 0.15087 0.12352 0.0
C403 C 0.34604 0.14161 0.1711 0.0
C404 C 0.34706 0.14136 0.20435 0.0
C405 C 0.34547 0.13962 0.10891 0.0
C406 C 0.37219 0.1299 0.12551 0.0
C407 C 0.37187 0.13063 0.15646 0.0
C408 C 0.40067 0.11905 0.11113 0.0
C409 C 0.34364 0.13808 0.07574 0.0
C410 C 0.41241 0.09026 0.11681 0.0
C411 C 0.43907 0.08004 0.10328 0.0
C412 C 0.45487 0.09846 0.08393 0.0
C413 C 0.4432 0.12739 0.07853 0.0
C414 C 0.41648 0.13754 0.09197 0.0
H415 H 0.31946 0.13886 0.06707 0.0
H416 H 0.35532 0.15716 0.066 0.0
H417 H 0.35524 0.11768 0.06829 0.0
H418 H 0.40079 0.07557 0.13158 0.0
H419 H 0.44737 0.05769 0.10813 0.0
H420 H 0.32431 0.91823 0.72521 0.0
H421 H 0.27784 0.94295 0.7028 0.0
H422 H 0.33434 0.99686 0.64866 0.0
H423 H 0.38054 0.97153 0.67069 0.0
H424 H 0.25226 0.99954 0.69278 0.0
H425 H 0.28649 0.95044 0.58796 0.0
H426 H 0.30542 0.94045 0.62294 0.0
H427 H 0.31471 0.97385 0.6036 0.0
C428 C 0.32668 0.93637 0.70959 0.0
C429 C 0.35591 0.94336 0.69996 0.0
C430 C 0.30016 0.95022 0.69646 0.0
C431 C 0.30249 0.97125 0.67341 0.0
C432 C 0.33185 0.98027 0.6659 0.0
H433 H 0.15132 0.07474 0.586 0.0
H434 H 0.19674 0.05755 0.61533 0.0
C435 C 0.35827 0.96627 0.67889 0.0
C436 C 0.27459 0.9816 0.65546 0.0
H437 H 0.24285 0.98284 0.58534 0.0
C438 C 0.25022 0.99593 0.66929 0.0
C439 C 0.27147 0.97626 0.62488 0.0
C440 C 0.29574 0.95915 0.60897 0.0
C441 C 0.22325 1.00561 0.65333 0.0
C442 C 0.22068 1.00134 0.6225 0.0
C443 C 0.24482 0.98648 0.60883 0.0
C444 C 0.19318 1.01192 0.60403 0.0
C445 C 0.19746 0.0197 0.66984 0.0
C446 C 0.17651 0.99232 0.58675 0.0
C447 C 0.15061 1.0022 0.56952 0.0
C448 C 0.1408 0.03196 0.56911 0.0
C449 C 0.15797 0.05163 0.58591 0.0
C450 C 0.18388 0.04177 0.60298 0.0
H451 H 0.19907 1.01346 0.6937 0.0
H452 H 0.19883 0.04395 0.66778 0.0
H453 H 0.1747 1.0134 0.66075 0.0
H454 H 0.18329 0.96922 0.58692 0.0
H455 H 0.13801 0.98642 0.55691 0.0
H456 H 0.69227 0.4845 0.95365 0.0
H457 H 0.7484 0.48459 0.95992 0.0
H458 H 0.73938 0.5305 0.04117 0.0
H459 H 0.68309 0.52977 0.03492 0.0
H460 H 0.77741 0.53807 0.96113 0.0
H461 H 0.80982 0.46993 0.06142 0.0
H462 H 0.77359 0.46667 0.04136 0.0
H463 H 0.77901 0.49642 0.06598 0.0
C464 C 0.70244 0.49331 0.97347 0.0
C465 C 0.68376 0.50647 0.99423 0.0
C466 C 0.73437 0.49366 0.97691 0.0
C467 C 0.74806 0.50726 1.00117 0.0
C468 C 0.72932 0.51928 0.02266 0.0
H469 H 0.92713 0.5705 0.0469 0.0
H470 H 0.87364 0.55597 0.04492 0.0
C471 C 0.69731 0.51888 0.01917 0.0
C472 C 0.78145 0.51246 1.00177 0.0
H473 H 0.84816 0.5009 0.0427 0.0
C474 C 0.79298 0.52967 0.97879 0.0
C475 C 0.80156 0.5017 0.02498 0.0
C476 C 0.7905 0.48243 0.04974 0.0
C477 C 0.82395 0.53708 0.97871 0.0
C478 C 0.84411 0.52643 1.00197 0.0
C479 C 0.83266 0.50896 0.02485 0.0
C480 C 0.87691 0.53411 1.00341 0.0
C481 C 0.83453 0.55712 0.95428 0.0
C482 C 0.89662 0.5263 0.98087 0.0
C483 C 0.92718 0.5348 0.98178 0.0
C484 C 0.93865 0.55099 1.00543 0.0
C485 C 0.919 0.55817 0.02829 0.0
C486 C 0.88845 0.5498 0.02727 0.0
H487 H 0.81493 0.56915 0.94255 0.0
H488 H 0.85067 0.57341 0.963 0.0
H489 H 0.84667 0.54379 0.93794 0.0
H490 H 0.88833 0.51369 0.96254 0.0
H491 H 0.9418 0.52865 0.96399 0.0
H492 H 0.84724 0.63386 0.43575 0.0
H493 H 0.79609 0.6244 0.45383 0.0
H494 H 0.83675 0.59451 0.53787 0.0
H495 H 0.88829 0.60409 0.51946 0.0
H496 H 0.77526 0.56924 0.47596 0.0
H497 H 0.7697 0.65758 0.55831 0.0
H498 H 0.79698 0.65771 0.52924 0.0
H499 H 0.80271 0.63271 0.56033 0.0
C500 C 0.84513 0.62503 0.45796 0.0
C501 C 0.87135 0.61932 0.47623 0.0
C502 C 0.81606 0.61978 0.46831 0.0
C503 C 0.81271 0.60895 0.4972 0.0
C504 C 0.83892 0.6032 0.51561 0.0
H505 H 0.63431 0.57087 0.57193 0.0
H506 H 0.68972 0.57664 0.56745 0.0
C507 C 0.86817 0.60846 0.50515 0.0
C508 C 0.78153 0.6033 0.50733 0.0
H509 H 0.72539 0.63001 0.55094 0.0
C510 C 0.76446 0.58227 0.4926 0.0
C511 C 0.76764 0.62032 0.52911 0.0
C512 C 0.78501 0.64351 0.54515 0.0
C513 C 0.73347 0.57844 0.49839 0.0
C514 C 0.71917 0.59637 0.51915 0.0
C515 C 0.73653 0.61647 0.53491 0.0
C516 C 0.68576 0.5956 0.52323 0.0
C517 C 0.71606 0.5556 0.48183 0.0
C518 C 0.66534 0.60526 0.50016 0.0
C519 C 0.6338 0.60209 0.50261 0.0
C520 C 0.62213 0.58918 0.52821 0.0
C521 C 0.6426 0.58078 0.55187 0.0
C522 C 0.67422 0.58405 0.54939 0.0
H523 H 0.73179 0.53907 0.47221 0.0
H524 H 0.7002 0.54406 0.49652 0.0
H525 H 0.7021 0.56658 0.46353 0.0
H526 H 0.67392 0.61457 0.47993 0.0
H527 H 0.61869 0.60894 0.48406 0.0
H528 H 0.21062 0.30617 0.16085 0.0
H529 H 0.1873 0.34997 0.1354 0.0
H530 H 0.09828 0.3115 0.13882 0.0
H531 H 0.12205 0.26693 0.16271 0.0
H532 H 0.10414 0.33698 0.08673 0.0
H533 H 0.14049 0.41606 0.17017 0.0
H534 H 0.17268 0.39636 0.15587 0.0
H535 H 0.14479 0.37687 0.17655 0.0
C536 C 0.18611 0.30703 0.15597 0.0
C537 C 0.16816 0.28315 0.1639 0.0
C538 C 0.17267 0.33228 0.14177 0.0
C539 C 0.14078 0.33457 0.13567 0.0
C540 C 0.12285 0.31055 0.14341 0.0
H541 H 0.04454 0.502 0.09003 0.0
H542 H 0.0649 0.45636 0.11392 0.0
C543 C 0.13638 0.28515 0.15731 0.0
C544 C 0.12626 0.36165 0.12072 0.0
H545 H 0.12081 0.43661 0.12418 0.0
C546 C 0.10768 0.35874 0.09506 0.0
C547 C 0.13029 0.39019 0.13166 0.0
C548 C 0.14786 0.39508 0.16024 0.0
C549 C 0.09354 0.38336 0.07992 0.0
C550 C 0.09876 0.412 0.09009 0.0
C551 C 0.11697 0.41484 0.116 0.0
C552 C 0.08515 0.43929 0.07475 0.0
C553 C 0.0725 0.37821 0.0536 0.0
C554 C 0.08954 0.44528 0.0446 0.0
C555 C 0.07742 0.47131 0.0307 0.0
C556 C 0.06114 0.49233 0.04674 0.0
C557 C 0.0569 0.48637 0.07692 0.0
C558 C 0.06865 0.46021 0.09067 0.0
H559 H 0.06332 0.35574 0.05444 0.0
H560 H 0.05285 0.39438 0.05221 0.0
H561 H 0.08561 0.38043 0.03317 0.0
H562 H 0.1029 0.43011 0.03185 0.0
H563 H 0.0815 0.4753 1.00755 0.0
H564 H 0.65038 0.44972 0.95394 0.0
H565 H 0.64368 0.397 0.96249 0.0
H566 H 0.61037 0.41409 0.04897 0.0
H567 H 0.6171 0.46707 0.04009 0.0
H568 H 0.6624 0.35349 1.00585 0.0
H569 H 0.53675 0.37944 1.0035 0.0
H570 H 0.56443 0.40593 0.99263 0.0
H571 H 0.55893 0.39788 0.03103 0.0
C572 C 0.64304 0.44192 0.97524 0.0
C573 C 0.63471 0.46202 0.99662 0.0
C574 C 0.63889 0.41196 0.98001 0.0
C575 C 0.62605 0.40178 1.00614 0.0
C576 C 0.61996 0.42163 0.0285 0.0
H577 H 0.59802 0.21867 0.05182 0.0
H578 H 0.61327 0.26974 0.0507 0.0
C579 C 0.62414 0.45169 0.02367 0.0
C580 C 0.61618 0.37105 1.00843 0.0
H581 H 0.55233 0.3296 1.01089 0.0
C582 C 0.63838 0.3482 1.00716 0.0
C583 C 0.58472 0.36436 1.00932 0.0
C584 C 0.55973 0.38813 1.00893 0.0
C585 C 0.62998 0.31871 1.00708 0.0
C586 C 0.59858 0.312 1.00879 0.0
C587 C 0.57637 0.33487 1.00979 0.0
C588 C 0.58837 0.28132 1.00975 0.0
C589 C 0.65471 0.29506 1.00446 0.0
C590 C 0.5683 0.2712 0.98766 0.0
C591 C 0.55937 0.24193 0.9883 0.0
C592 C 0.57047 0.22243 1.01104 0.0
C593 C 0.58973 0.233 0.0336 0.0
C594 C 0.5985 0.26215 0.033 0.0
H595 H 0.67597 0.30402 0.9954 0.0
H596 H 0.66064 0.28522 0.02665 0.0
H597 H 0.6467 0.27732 0.99008 0.0
H598 H 0.56001 0.2858 0.96965 0.0
H599 H 0.54448 0.23438 0.97067 0.0
H600 H 0.98266 0.67288 0.48761 0.0
H601 H 1.0052 0.72166 0.48581 0.0
H602 H 0.95614 0.74162 0.4031 0.0
H603 H 0.93273 0.69341 0.40564 0.0
H604 H 0.03944 0.75447 0.44472 0.0
H605 H 0.92217 0.80263 0.45932 0.0
H606 H 0.93099 0.76379 0.46399 0.0
H607 H 0.92614 0.7803 0.42762 0.0
C608 C 0.97726 0.68763 0.46888 0.0
C609 C 0.95615 0.67965 0.44677 0.0
C610 C 0.99014 0.7153 0.46776 0.0
C611 C 0.98199 0.73531 0.4445 0.0
C612 C 0.96244 0.72658 0.42138 0.0
H613 H 0.05287 0.91427 0.43295 0.0
H614 H 0.04179 0.8633 0.42117 0.0
C615 C 0.94937 0.699 0.42265 0.0
C616 C 0.99128 0.76617 0.44621 0.0
H617 H 0.96236 0.83555 0.45603 0.0
C618 C 0.02266 0.77231 0.44693 0.0
C619 C 0.96923 0.78923 0.44948 0.0
C620 C 0.93526 0.78377 0.45033 0.0
C621 C 0.03261 0.80096 0.45129 0.0
C622 C 1.01052 0.82393 0.45465 0.0
C623 C 0.97918 0.81785 0.4533 0.0
C624 C 0.01917 0.85407 0.46196 0.0
C625 C 0.0666 0.80625 0.45342 0.0
C626 C 1.00995 0.86571 0.48864 0.0
C627 C 0.01602 0.89467 0.49528 0.0
C628 C 0.03138 0.91265 0.47533 0.0
C629 C 0.04118 0.90082 0.44882 0.0
C630 C 0.03495 0.87174 0.4421 0.0
H631 H 0.08048 0.78538 0.45595 0.0
H632 H 0.07347 0.81794 0.43303 0.0
H633 H 0.07214 0.82026 0.47238 0.0
H634 H 0.99781 0.85239 0.50428 0.0
H635 H 1.00865 0.90301 0.51609 0.0
H636 H 0.41782 0.82691 0.71778 0.0
H637 H 0.43665 0.78316 0.69257 0.0
H638 H 0.44879 0.83626 0.61387 0.0
H639 H 0.4313 0.88002 0.63955 0.0
H640 H 0.41257 0.75748 0.64513 0.0
H641 H 0.52961 0.79171 0.61906 0.0
H642 H 0.50604 0.81129 0.6444 0.0
H643 H 0.50029 0.81751 0.60522 0.0
C644 C 0.42518 0.82923 0.69532 0.0
C645 C 0.42323 0.85685 0.68065 0.0
C646 C 0.4357 0.80422 0.68082 0.0
C647 C 0.44462 0.80629 0.65133 0.0
C648 C 0.44283 0.834 0.63676 0.0
H649 H 0.49615 0.67373 0.52287 0.0
H650 H 0.47987 0.71932 0.54655 0.0
C651 C 0.4325 0.85899 0.65133 0.0
C652 C 0.45432 0.77933 0.63546 0.0
H653 H 0.51189 0.7491 0.59533 0.0
C654 C 0.43438 0.75567 0.63441 0.0
C655 C 0.48274 0.77679 0.62125 0.0
C656 C 0.50604 0.80055 0.62274 0.0
C657 C 0.44188 0.72988 0.61945 0.0
C658 C 0.4702 0.72741 0.60523 0.0
C659 C 0.49008 0.75106 0.60604 0.0
C660 C 0.48012 0.69989 0.59062 0.0
C661 C 0.41923 0.70552 0.61868 0.0
C662 C 0.48603 0.67391 0.60749 0.0
C663 C 0.49545 0.64798 0.59411 0.0
C664 C 0.49918 0.64728 0.56341 0.0
C665 C 0.49338 0.6734 0.5465 0.0
C666 C 0.48414 0.69949 0.56002 0.0
H667 H 0.39585 0.71336 0.62442 0.0
H668 H 0.41794 0.6958 0.59653 0.0
H669 H 0.42694 0.68789 0.6349 0.0
H670 H 0.48354 0.67372 0.63116 0.0
H671 H 0.49979 0.62841 0.60794 0.0
H672 H 0.89803 0.89887 0.78845 0.0
H673 H 0.92416 0.91535 0.7439 0.0
H674 H 0.96329 0.98601 0.79237 0.0
H675 H 0.93801 0.96888 0.83671 0.0
H676 H 0.91383 0.96638 0.71446 0.0
H677 H 0.03682 0.96069 0.74864 0.0
H678 H 1.00804 0.94296 0.76984 0.0
H679 H 0.01458 0.98155 0.77367 0.0
C680 C 0.91328 0.91713 0.78974 0.0
C681 C 0.91637 0.93236 0.81609 0.0
C682 C 0.92791 0.92684 0.76421 0.0
C683 C 0.94609 0.95192 0.76454 0.0
C684 C 0.95017 0.96627 0.79137 0.0
H685 H 0.02423 0.06908 0.63196 0.0
H686 H 1.00415 0.04655 0.67693 0.0
C687 C 0.93566 0.9565 0.81679 0.0
C688 C 0.95841 0.96467 0.73655 0.0
H689 H 0.02325 0.99094 0.70572 0.0
C690 C 0.93785 0.97139 0.71253 0.0
C691 C 0.98975 0.97155 0.73375 0.0
C692 C 1.01361 0.96354 0.75775 0.0
C693 C 0.94747 0.98525 0.68637 0.0
C694 C 0.97865 0.99252 0.68379 0.0
C695 C 0.99929 0.98567 0.70767 0.0
C696 C 0.99036 1.0066 0.65626 0.0
C697 C 0.92394 0.99269 0.66191 0.0
C698 C 0.98949 0.99175 0.62955 0.0
C699 C 1.00102 1.00453 0.60387 0.0
C700 C 0.01375 0.03261 0.60407 0.0
C701 C 0.01443 0.04758 0.63082 0.0
C702 C 1.00306 0.03463 0.65663 0.0
H703 H 0.90012 0.9923 0.66984 0.0
H704 H 0.92778 0.01474 0.65188 0.0
H705 H 0.92608 0.9763 0.64442 0.0
H706 H 0.98028 0.96998 0.62863 0.0
H707 H 1.00018 0.99218 0.58383 0.0
H708 H 0.66533 0.16378 0.35599 0.0
H709 H 0.64882 0.13615 0.3128 0.0
H710 H 0.70163 0.19241 0.25728 0.0
H711 H 0.71892 0.21896 0.3008 0.0
H712 H 0.61413 0.15607 0.26877 0.0
H713 H 0.72223 0.11648 0.22104 0.0
H714 H 0.72121 0.13097 0.25758 0.0
H715 H 0.72195 0.15542 0.22569 0.0
C716 C 0.6744 0.16922 0.33468 0.0
C717 C 0.69408 0.19284 0.33173 0.0
C718 C 0.66469 0.15374 0.30991 0.0
C719 C 0.67416 0.16177 0.2815 0.0
C720 C 0.69463 0.18495 0.2788 0.0
H721 H 0.60277 0.13367 0.10357 0.0
H722 H 0.62842 0.15094 0.14845 0.0
C723 C 0.70461 0.20016 0.30368 0.0
C724 C 0.66028 0.14794 0.2547 0.0
H725 H 0.67716 0.117 0.18893 0.0
C726 C 0.62805 0.14718 0.25158 0.0
C727 C 0.67817 0.13632 0.23193 0.0
C728 C 0.71279 0.13454 0.23435 0.0
C729 C 0.61339 0.13591 0.22635 0.0
C730 C 0.63126 0.12502 0.20339 0.0
C731 C 0.66343 0.12548 0.20646 0.0
C732 C 0.61676 0.11363 0.17585 0.0
C733 C 0.57877 0.13633 0.22401 0.0
C734 C 0.60193 0.08667 0.17613 0.0
C735 C 0.5874 0.07656 0.1504 0.0
C736 C 0.58715 0.09333 0.12381 0.0
C737 C 0.60236 0.12018 0.12359 0.0
C738 C 0.61714 0.13009 0.14924 0.0
H739 H 0.56816 0.14903 0.24178 0.0
H740 H 0.5705 0.146 0.20232 0.0
H741 H 0.57078 0.11346 0.22551 0.0
H742 H 0.60145 0.07349 0.19635 0.0
H743 H 0.57596 0.05582 0.15146 0.0
H744 H 0.43816 0.68047 0.13296 0.0
H745 H 0.45546 0.68438 0.18479 0.0
H746 H 0.4999 0.59847 0.18199 0.0
H747 H 0.48317 0.59512 0.12998 0.0
H748 H 0.4388 0.64699 0.22917 0.0
H749 H 0.56547 0.64542 0.22359 0.0
H750 H 0.54031 0.65337 0.19169 0.0
H751 H 0.54864 0.61594 0.20398 0.0
C752 C 0.45232 0.6629 0.14339 0.0
C753 C 0.45985 0.63767 0.1278 0.0
C754 C 0.46206 0.66503 0.17287 0.0
C755 C 0.47941 0.64193 0.18708 0.0
C756 C 0.48726 0.61688 0.17125 0.0
H757 H 0.5267 0.57224 0.35785 0.0
H758 H 0.51954 0.58526 0.3054 0.0
C759 C 0.4776 0.61483 0.14176 0.0
C760 C 0.48663 0.64252 0.21915 0.0
H761 H 0.54516 0.63233 0.27072 0.0
C762 C 0.46209 0.64436 0.2383 0.0
C763 C 0.51704 0.6391 0.23094 0.0
C764 C 0.54439 0.63864 0.21146 0.0
C765 C 0.467 0.64124 0.26894 0.0
C766 C 0.49729 0.63655 0.28065 0.0
C767 C 0.52196 0.63585 0.26159 0.0
C768 C 0.50349 0.62986 0.31239 0.0
C769 C 0.43964 0.64148 0.28846 0.0
C770 C 0.49732 0.65086 0.33361 0.0
C771 C 0.50122 0.64343 0.36365 0.0
C772 C 0.51131 0.61488 0.37286 0.0
C773 C 0.51836 0.59424 0.35144 0.0
C774 C 0.51454 0.6017 0.3215 0.0
H775 H 0.41758 0.64042 0.27557 0.0
H776 H 0.44139 0.62266 0.3046 0.0
H777 H 0.43914 0.66202 0.30102 0.0
H778 H 0.48907 0.67282 0.32693 0.0
H779 H 0.49554 0.65976 0.37964 0.0
H780 H 0.05525 0.54639 0.59679 0.0
H781 H 0.03318 0.55644 0.64495 0.0
H782 H 0.12322 0.5446 0.68685 0.0
H783 H 0.14477 0.53328 0.63948 0.0
H784 H 0.04288 0.51134 0.69502 0.0
H785 H 0.08368 0.622 0.72135 0.0
H786 H 0.07838 0.60988 0.68396 0.0
H787 H 0.112 0.59809 0.7057 0.0
C788 C 0.07023 0.54657 0.61631 0.0
C789 C 0.10169 0.53946 0.61452 0.0
C790 C 0.0577 0.5523 0.64364 0.0
C791 C 0.07671 0.55156 0.66925 0.0
C792 C 0.10833 0.54584 0.6672 0.0
H793 H 0.09643 0.5449 0.85249 0.0
H794 H 0.09836 0.54643 0.79873 0.0
C795 C 0.12067 0.53965 0.64013 0.0
C796 C 0.06378 0.5533 0.69876 0.0
H797 H 0.07116 0.59077 0.76233 0.0
C798 C 0.04825 0.529 0.70968 0.0
C799 C 0.07109 0.57633 0.71761 0.0
C800 C 0.08699 0.60322 0.70656 0.0
C801 C 0.0419 0.5261 0.73972 0.0
C802 C 0.05087 0.54839 0.75897 0.0
C803 C 0.06454 0.57359 0.74754 0.0
C804 C 0.0491 0.54495 0.79135 0.0
C805 C 0.02761 0.49838 0.75094 0.0
C806 C 0.02078 0.54292 0.80497 0.0
C807 C 0.01967 0.54171 0.83575 0.0
C808 C 0.04685 0.54293 0.85322 0.0
C809 C 0.07516 0.54408 0.83948 0.0
C810 C 0.07627 0.54504 0.80884 0.0
H811 H 0.02725 0.4811 0.73416 0.0
H812 H 0.04029 0.48946 0.77106 0.0
H813 H 1.00357 0.50347 0.75687 0.0
H814 H 0.99953 0.54326 0.79185 0.0
H815 H 0.99754 0.54124 0.84588 0.0
H816 H 0.85528 0.95346 0.92547 0.0
H817 H 0.81075 0.97307 0.95137 0.0
H818 H 0.75494 0.96879 0.8713 0.0
H819 H 0.79939 0.94827 0.84588 0.0
H820 H 0.77495 0.02174 0.94343 0.0
H821 H 0.70323 0.92473 0.92825 0.0
H822 H 0.74345 0.92438 0.92008 0.0
H823 H 0.71524 0.94051 0.89404 0.0
C824 C 0.83342 0.95679 0.91357 0.0
C825 C 0.83054 0.9493 0.88384 0.0
C826 C 0.80802 0.96799 0.92828 0.0
C827 C 0.77918 0.97192 0.91353 0.0
C828 C 0.77662 0.96528 0.88346 0.0
H829 H 0.6251 0.07727 0.97734 0.0
H830 H 0.67019 0.05895 0.95212 0.0
C831 C 0.80201 0.95388 0.86883 0.0
C832 C 0.75198 0.98304 0.92964 0.0
H833 H 0.67849 0.96709 0.94723 0.0
C834 C 0.7539 1.00973 0.9443 0.0
C835 C 0.72458 0.9672 0.93133 0.0
C836 C 0.72152 0.93748 0.91785 0.0
C837 C 0.7292 0.02118 0.96012 0.0
C838 C 0.70136 1.00593 0.9608 0.0
C839 C 0.69961 0.97902 0.94652 0.0
C840 C 0.6739 0.01729 0.97638 0.0
C841 C 0.73351 0.0492 0.97651 0.0
C842 C 0.66018 0.99977 0.99794 0.0
C843 C 0.63404 1.01007 1.01217 0.0
C844 C 0.62095 0.03818 1.00518 0.0
C845 C 0.63468 0.05565 0.98354 0.0
C846 C 0.66067 0.04525 0.96918 0.0
H847 H 0.75822 0.05305 0.98129 0.0
H848 H 0.72401 0.06806 0.9627 0.0
H849 H 0.72143 0.04874 0.99764 0.0
H850 H 0.66976 0.97807 1.00384 0.0
H851 H 0.62407 0.99595 0.02863 0.0
H852 H 0.72531 0.15978 0.39204 0.0
H853 H 0.77228 0.13218 0.40972 0.0
H854 H 0.82702 0.20386 0.38042 0.0
H855 H 0.7801 0.23116 0.36277 0.0
H856 H 0.85443 0.14697 0.37101 0.0
H857 H 0.81693 0.15915 0.48595 0.0
H858 H 0.7903 0.1418 0.46142 0.0
H859 H 0.79888 0.17972 0.4551 0.0
C860 C 0.7475 0.16904 0.38848 0.0
C861 C 0.74922 0.19742 0.37585 0.0
C862 C 0.77429 0.15352 0.39895 0.0
C863 C 0.80326 0.16613 0.39693 0.0
C864 C 0.80505 0.19364 0.38236 0.0
H865 H 0.97089 0.1373 0.50435 0.0
H866 H 0.92328 0.15578 0.47909 0.0
C867 C 0.7783 0.20916 0.37209 0.0
C868 C 0.83138 0.15197 0.4118 0.0
H869 H 0.86406 0.13362 0.47983 0.0
C870 C 0.85645 0.14383 0.39478 0.0
C871 C 0.83434 0.14835 0.4429 0.0
C872 C 0.80885 0.1579 0.46255 0.0
C873 C 0.88417 0.1321 0.40795 0.0
C874 C 0.88698 0.12816 0.43903 0.0
C875 C 0.86194 0.13639 0.45603 0.0
C876 C 0.916 0.1165 0.45444 0.0
C877 C 0.91058 0.12483 0.38851 0.0
C878 C 0.92776 0.08803 0.44944 0.0
C879 C 0.95502 0.07732 0.46397 0.0
C880 C 0.97123 0.09481 0.48393 0.0
C881 C 0.95918 0.12319 0.48913 0.0
C882 C 0.93187 0.13382 0.47468 0.0
H883 H 0.90732 0.13535 0.36618 0.0
H884 H 0.93261 0.13195 0.39854 0.0
H885 H 0.91235 0.10068 0.38594 0.0
H886 H 0.91574 0.07397 0.43439 0.0
H887 H 0.96345 0.05534 0.45945 0.0
H888 H 0.37296 0.66609 0.04203 0.0
H889 H 0.3192 0.65971 0.02827 0.0
H890 H 0.33112 0.5662 0.04494 0.0
H891 H 0.38613 0.57238 0.05587 0.0
H892 H 0.29098 0.57668 1.00085 0.0
H893 H 0.26032 0.6486 0.09214 0.0
H894 H 0.28221 0.66777 0.0655 0.0
H895 H 0.29937 0.6367 0.0862 0.0
C896 C 0.36451 0.64404 0.04148 0.0
C897 C 0.38373 0.61967 0.04987 0.0
C898 C 0.33356 0.64048 0.03431 0.0
C899 C 0.32088 0.61264 0.03667 0.0
C900 C 0.34035 0.58798 0.04337 0.0
H901 H 0.12685 0.59265 0.06481 0.0
H902 H 0.1826 0.59619 0.06962 0.0
C903 C 0.37164 0.59147 0.04972 0.0
C904 C 0.28715 0.60963 0.03371 0.0
H905 H 0.2194 0.63683 0.05887 0.0
C906 C 0.27529 0.58967 1.01365 0.0
C907 C 0.26671 0.62605 0.051 0.0
C908 C 0.27783 0.6457 0.07514 0.0
C909 C 0.24351 0.58608 1.00998 0.0
C910 C 0.22304 0.60388 0.02594 0.0
C911 C 0.235 0.62351 0.04629 0.0
C912 C 0.18916 0.60198 0.02271 0.0
C913 C 0.23242 0.56264 0.98971 0.0
C914 C 0.17413 0.60469 0.99484 0.0
C915 C 0.14233 0.60199 0.99203 0.0
C916 C 0.12492 0.59757 1.01714 0.0
C917 C 0.13974 0.59624 0.04511 0.0
C918 C 0.1716 0.59817 0.04785 0.0
H919 H 0.25041 0.54514 0.98714 0.0
H920 H 0.21155 0.55229 0.99801 0.0
H921 H 0.22685 0.57267 0.96753 0.0
H922 H 0.18696 0.60877 0.97522 0.0
H923 H 0.13135 0.60335 0.97022 0.0
H924 H 0.19997 0.49893 0.59823 0.0
H925 H 0.25442 0.49807 0.58591 0.0
H926 H 0.22833 0.51108 0.49377 0.0
H927 H 0.17367 0.51204 0.50642 0.0
H928 H 0.29033 0.46363 0.54527 0.0
H929 H 0.28038 0.58322 0.51568 0.0
H930 H 0.2515 0.56472 0.5361 0.0
H931 H 0.25399 0.55975 0.49716 0.0
C932 C 0.20609 0.50106 0.57537 0.0
C933 C 0.18314 0.50574 0.55318 0.0
C934 C 0.23699 0.50053 0.56832 0.0
C935 C 0.24533 0.50488 0.53899 0.0
C936 C 0.22229 0.50801 0.51657 0.0
H937 H 0.42771 0.55072 0.48199 0.0
H938 H 0.37384 0.53724 0.48148 0.0
C939 C 0.19127 0.50842 0.52368 0.0
C940 C 0.27807 0.50848 0.53255 0.0
H941 H 0.32933 0.56055 0.51451 0.0
C942 C 0.2989 0.4847 0.53822 0.0
C943 C 0.28908 0.53604 0.52342 0.0
C944 C 0.26772 0.56253 0.51789 0.0
C945 C 0.33063 0.48787 0.53536 0.0
C946 C 0.34174 0.51572 0.52728 0.0
C947 C 0.32077 0.53923 0.52072 0.0
C948 C 0.37502 0.52154 0.52696 0.0
C949 C 0.3519 0.46137 0.54104 0.0
C950 C 0.39357 0.51726 0.55274 0.0
C951 C 0.4244 0.52486 0.5531 0.0
C952 C 0.43716 0.53724 0.52777 0.0
C953 C 0.41859 0.54129 0.50191 0.0
C954 C 0.38781 0.53355 0.50154 0.0
H955 H 0.33976 0.4406 0.53755 0.0
H956 H 0.37187 0.46194 0.52652 0.0
H957 H 0.3606 0.46112 0.56432 0.0
H958 H 0.38401 0.50875 0.57284 0.0
H959 H 0.43802 0.5216 0.57341 0.0
H960 H 0.87505 0.84888 0.84487 0.0
H961 H 0.90069 0.80343 0.86403 0.0
H962 H 0.97979 0.85229 0.89041 0.0
H963 H 0.95282 0.89816 0.87285 0.0
H964 H 0.94739 0.77026 0.85791 0.0
H965 H 0.9623 0.8175 0.96834 0.0
H966 H 0.94151 0.8369 0.93843 0.0
H967 H 0.98289 0.83684 0.94079 0.0
C968 C 0.89825 0.84972 0.85406 0.0
C969 C 0.91187 0.877 0.85757 0.0
C970 C 0.91291 0.82373 0.86525 0.0
C971 C 0.94187 0.82426 0.87989 0.0
C972 C 0.95696 0.85121 0.88043 0.0
H973 H 0.03299 0.65448 0.93399 0.0
H974 H 0.01791 0.70098 0.90865 0.0
C975 C 0.94192 0.87739 0.8697 0.0
C976 C 0.955 0.79692 0.8957 0.0
H977 H 0.98323 0.76961 0.96276 0.0
C978 C 0.95524 0.77022 0.88085 0.0
C979 C 0.96463 0.79635 0.92595 0.0
C980 C 0.96254 0.82334 0.94442 0.0
C981 C 0.96446 0.74331 0.89515 0.0
C982 C 0.97536 0.74294 0.92503 0.0
C983 C 0.97528 0.76965 0.93986 0.0
C984 C 0.98617 0.71513 0.9415 0.0
C985 C 0.96097 0.71548 0.87823 0.0
C986 C 0.97507 0.70794 0.96954 0.0
C987 C 0.98462 0.68164 0.98468 0.0
C988 C 1.00514 0.66165 0.97193 0.0
C989 C 0.01675 0.66914 0.94425 0.0
C990 C 1.00784 0.6957 0.92952 0.0
H991 H 0.94309 0.71835 0.86024 0.0
H992 H 0.98299 0.70977 0.86789 0.0
H993 H 0.9547 0.69682 0.89285 0.0
H994 H 0.95855 0.72246 0.97959 0.0
H995 H 0.97526 0.67658 1.00595 0.0
H996 H 0.51421 0.65685 0.08931 0.0
H997 H 0.54016 0.7035 0.09805 0.0
H998 H 0.45526 0.75163 0.07577 0.0
H999 H 0.42966 0.70553 0.0675 0.0
H1000 H 0.54088 0.75733 0.05516 0.0
H1001 H 0.48569 0.7769 0.1613 0.0
H1002 H 0.4906 0.74069 0.14643 0.0
H1003 H 0.45969 0.765 0.13279 0.0
C1004 C 0.50151 0.67756 0.08586 0.0
C1005 C 0.47031 0.67793 0.077 0.0
C1006 C 0.51615 0.70399 0.09097 0.0
C1007 C 0.49944 0.73081 0.08773 0.0
C1008 C 0.46843 0.73108 0.07848 0.0
H1009 H 0.50405 0.90694 0.04616 0.0
H1010 H 0.50469 0.85346 0.05048 0.0
C1011 C 0.45398 0.70488 0.07329 0.0
C1012 C 0.51364 0.75904 0.09376 0.0
H1013 H 0.50207 0.81986 0.13451 0.0
C1014 C 0.53319 0.77082 0.07296 0.0
C1015 C 0.50387 0.77632 0.11726 0.0
C1016 C 0.48403 0.76402 0.14092 0.0
C1017 C 0.54097 0.80044 0.07357 0.0
C1018 C 0.52845 0.81856 0.09525 0.0
C1019 C 0.51131 0.80601 0.11767 0.0
C1020 C 0.52934 0.85095 0.09275 0.0
C1021 C 0.56137 0.81241 0.05022 0.0
C1022 C 0.5421 0.86729 0.11558 0.0
C1023 C 0.54143 0.89802 0.11333 0.0
C1024 C 0.52757 0.91279 0.08841 0.0
C1025 C 0.51452 0.89625 0.06581 0.0
C1026 C 0.51533 0.86567 0.06802 0.0
H1027 H 0.57704 0.7949 0.04215 0.0
H1028 H 0.54688 0.82107 0.03113 0.0
H1029 H 0.57533 0.83054 0.05868 0.0
H1030 H 0.5526 0.85628 0.13505 0.0
H1031 H 0.55148 0.91022 0.13117 0.0
H1032 H 0.10917 0.46227 0.5145 0.0
H1033 H 0.10552 0.40866 0.51105 0.0
H1034 H 0.15757 0.39682 0.5934 0.0
H1035 H 0.16158 0.45033 0.59628 0.0
H1036 H 0.17087 0.35327 0.55343 0.0
H1037 H 0.04531 0.36984 0.56626 0.0
H1038 H 0.05978 0.38894 0.53478 0.0
H1039 H 0.07202 0.39887 0.57129 0.0
C1040 C 0.12077 0.44797 0.5311 0.0
C1041 C 0.13584 0.45994 0.55548 0.0
C1042 C 0.11837 0.41753 0.52941 0.0
C1043 C 0.13066 0.39888 0.55235 0.0
C1044 C 0.14783 0.41084 0.57555 0.0
H1045 H 0.06559 0.22504 0.59892 0.0
H1046 H 0.07855 0.27717 0.59863 0.0
C1047 C 0.15035 0.44123 0.57711 0.0
C1048 C 0.12328 0.36739 0.5537 0.0
H1049 H 0.06334 0.3212 0.5584 0.0
C1050 C 0.14739 0.34621 0.55446 0.0
C1051 C 0.09265 0.35833 0.55592 0.0
C1052 C 0.06594 0.38014 0.55733 0.0
C1053 C 0.14162 0.31609 0.5567 0.0
C1054 C 0.11088 0.307 0.55759 0.0
C1055 C 0.08685 0.32822 0.55745 0.0
C1056 C 0.10311 0.27557 0.55801 0.0
C1057 C 0.16854 0.29435 0.55864 0.0
C1058 C 0.112 0.25768 0.53498 0.0
C1059 C 0.10475 0.2281 0.53518 0.0
C1060 C 0.08815 0.21583 0.55826 0.0
C1061 C 0.07843 0.23394 0.58091 0.0
C1062 C 0.08591 0.26361 0.5808 0.0
H1063 H 0.18986 0.30473 0.56669 0.0
H1064 H 0.16396 0.27536 0.57355 0.0
H1065 H 0.17273 0.28599 0.53636 0.0
H1066 H 0.12439 0.26666 0.5167 0.0
H1067 H 0.11189 0.21485 0.51703 0.0
H1068 H 0.71016 0.3065 0.38709 0.0
H1069 H 0.68569 0.34945 0.40928 0.0
H1070 H 0.60759 0.29785 0.43007 0.0
H1071 H 0.63209 0.25501 0.40752 0.0
H1072 H 0.58945 0.35148 0.40775 0.0
H1073 H 0.6785 0.36501 0.49583 0.0
H1074 H 0.69382 0.3657 0.45965 0.0
H1075 H 0.67723 0.3327 0.47379 0.0
C1076 C 0.68786 0.3044 0.39658 0.0
C1077 C 0.67306 0.27746 0.39575 0.0
C1078 C 0.67392 0.32887 0.40939 0.0
C1079 C 0.64497 0.32688 0.42197 0.0
C1080 C 0.62996 0.30002 0.42071 0.0
H1081 H 0.56788 0.45867 0.53859 0.0
H1082 H 0.58934 0.41372 0.51776 0.0
C1083 C 0.64388 0.27557 0.40778 0.0
C1084 C 0.63012 0.35288 0.43591 0.0
H1085 H 0.64134 0.40432 0.48843 0.0
C1086 C 0.60078 0.36292 0.42549 0.0
C1087 C 0.64453 0.36768 0.45944 0.0
C1088 C 0.67511 0.35707 0.47307 0.0
C1089 C 0.58585 0.38757 0.43737 0.0
C1090 C 0.60085 0.40315 0.46 0.0
C1091 C 0.62988 0.3927 0.4709 0.0
C1092 C 0.58696 0.43036 0.47257 0.0
C1093 C 0.55387 0.39634 0.42585 0.0
C1094 C 0.57859 0.45495 0.45428 0.0
C1095 C 0.56613 0.48063 0.46611 0.0
C1096 C 0.562 0.48257 0.49665 0.0
C1097 C 0.57057 0.458 0.51499 0.0
C1098 C 0.58294 0.43225 0.50309 0.0
H1099 H 0.54223 0.37758 0.41568 0.0
H1100 H 0.5395 0.40476 0.4437 0.0
H1101 H 0.5553 0.41397 0.40862 0.0
H1102 H 0.58213 0.45449 0.4308 0.0
H1103 H 0.56011 0.49913 0.45128 0.0
loop_
_geom_bond_atom_site_label_1
_geom_bond_atom_site_label_2
_geom_bond_distance
_geom_bond_site_symmetry_2
_ccdc_geom_bond_type
C0 N1 1.317 . S
C0 N2 1.348 . S
C0 C3 1.485 . S
N1 C0 1.317 . S
N1 N5 1.370 . S
N2 C0 1.348 . S
N2 C4 1.346 . S
C3 C0 1.485 . S
C3 H7 0.960 . S
C3 H8 0.961 . S
C3 H9 0.960 . S
C4 N2 1.346 . S
C4 N5 1.307 . S
C4 C6 1.486 . S
N5 N1 1.370 . S
N5 C4 1.307 . S
C6 C4 1.486 . S
C6 H10 0.960 . S
C6 H11 0.960 . S
C6 H12 0.959 . S
H7 C3 0.960 . S
H8 C3 0.961 . S
H9 C3 0.960 . S
H10 C6 0.960 . S
H11 C6 0.960 . S
H12 C6 0.959 . S
C13 N14 1.317 . S
C13 N15 1.348 . S
C13 C16 1.485 . S
N14 C13 1.317 . S
N14 N18 1.370 . S
N15 C13 1.348 . S
N15 C17 1.346 . S
C16 C13 1.485 . S
C16 H20 0.960 . S
C16 H21 0.961 . S
C16 H22 0.960 . S
C17 N15 1.346 . S
C17 N18 1.307 . S
C17 C19 1.486 . S
N18 N14 1.370 . S
N18 C17 1.307 . S
C19 C17 1.486 . S
C19 H23 0.960 . S
C19 H24 0.960 . S
C19 H25 0.959 . S
H20 C16 0.960 . S
H21 C16 0.961 . S
H22 C16 0.960 . S
H23 C19 0.960 . S
H24 C19 0.960 . S
H25 C19 0.959 . S
C26 N27 1.317 . S
C26 N28 1.348 . S
C26 C29 1.485 . S
N27 C26 1.317 . S
N27 N31 1.370 . S
N28 C26 1.348 . S
N28 C30 1.346 . S
C29 C26 1.485 . S
C29 H33 0.960 . S
C29 H34 0.961 . S
C29 H35 0.960 . S
C30 N28 1.346 . S
C30 N31 1.307 . S
C30 C32 1.486 . S
N31 N27 1.370 . S
N31 C30 1.307 . S
C32 C30 1.486 . S
C32 H36 0.960 . S
C32 H37 0.960 . S
C32 H38 0.959 . S
H33 C29 0.960 . S
H34 C29 0.961 . S
H35 C29 0.960 . S
H36 C32 0.960 . S
H37 C32 0.960 . S
H38 C32 0.959 . S
C39 N40 1.317 . S
C39 N41 1.348 . S
C39 C42 1.485 . S
N40 C39 1.317 . S
N40 N44 1.370 . S
N41 C39 1.348 . S
N41 C43 1.346 . S
C42 C39 1.485 . S
C42 H46 0.960 . S
C42 H47 0.961 . S
C42 H48 0.960 . S
C43 N41 1.346 . S
C43 N44 1.307 . S
C43 C45 1.486 . S
N44 N40 1.370 . S
N44 C43 1.307 . S
C45 C43 1.486 . S
C45 H49 0.960 . S
C45 H50 0.960 . S
C45 H51 0.959 . S
H46 C42 0.960 . S
H47 C42 0.961 . S
H48 C42 0.960 . S
H49 C45 0.960 . S
H50 C45 0.960 . S
H51 C45 0.959 . S
C52 N53 1.317 . S
C52 N54 1.348 . S
C52 C55 1.485 . S
N53 C52 1.317 . S
N53 N57 1.370 . S
N54 C52 1.348 . S
N54 C56 1.346 . S
C55 C52 1.485 . S
C55 H59 0.960 . S
C55 H60 0.961 . S
C55 H61 0.960 . S
C56 N54 1.346 . S
C56 N57 1.307 . S
C56 C58 1.486 . S
N57 N53 1.370 . S
N57 C56 1.307 . S
C58 C56 1.486 . S
C58 H62 0.960 1_565 S
C58 H63 0.960 . S
C58 H64 0.959 . S
H59 C55 0.960 . S
H60 C55 0.961 . S
H61 C55 0.960 . S
H62 C58 0.960 1_545 S
H63 C58 0.960 . S
H64 C58 0.959 . S
C65 N66 1.317 . S
C65 N67 1.348 . S
C65 C68 1.485 . S
N66 C65 1.317 . S
N66 N70 1.370 . S
N67 C65 1.348 . S
N67 C69 1.346 . S
C68 C65 1.485 . S
C68 H72 0.960 . S
C68 H73 0.961 . S
C68 H74 0.960 . S
C69 N67 1.346 . S
C69 N70 1.307 . S
C69 C71 1.486 . S
N70 N66 1.370 . S
N70 C69 1.307 . S
C71 C69 1.486 . S
C71 H75 0.960 . S
C71 H76 0.960 . S
C71 H77 0.959 . S
H72 C68 0.960 . S
H73 C68 0.961 . S
H74 C68 0.960 . S
H75 C71 0.960 . S
H76 C71 0.960 . S
H77 C71 0.959 . S
C78 N79 1.317 . S
C78 N80 1.348 . S
C78 C81 1.485 . S
N79 C78 1.317 . S
N79 N83 1.370 . S
N80 C78 1.348 . S
N80 C82 1.346 . S
C81 C78 1.485 . S
C81 H85 0.960 . S
C81 H86 0.961 . S
C81 H87 0.960 . S
C82 N80 1.346 . S
C82 N83 1.307 . S
C82 C84 1.486 . S
N83 N79 1.370 . S
N83 C82 1.307 . S
C84 C82 1.486 . S
C84 H88 0.960 . S
C84 H89 0.960 . S
C84 H90 0.959 . S
H85 C81 0.960 . S
H86 C81 0.961 . S
H87 C81 0.960 . S
H88 C84 0.960 . S
H89 C84 0.960 . S
H90 C84 0.959 . S
C91 N92 1.317 . S
C91 N93 1.348 . S
C91 C94 1.485 . S
N92 C91 1.317 . S
N92 N96 1.370 . S
N93 C91 1.348 . S
N93 C95 1.346 . S
C94 C91 1.485 . S
C94 H98 0.960 . S
C94 H99 0.961 . S
C94 H100 0.960 . S
C95 N93 1.346 . S
C95 N96 1.307 . S
C95 C97 1.486 . S
N96 N92 1.370 . S
N96 C95 1.307 . S
C97 C95 1.486 . S
C97 H101 0.960 . S
C97 H102 0.960 . S
C97 H103 0.959 . S
H98 C94 0.960 . S
H99 C94 0.961 . S
H100 C94 0.960 . S
H101 C97 0.960 . S
H102 C97 0.960 . S
H103 C97 0.959 . S
C104 O120 1.251 . S
C104 O122 1.254 . S
N105 C106 1.333 . S
N105 C110 1.307 . S
N105 Zn111 2.020 . S
C106 N105 1.333 . S
C106 C107 1.379 . S
C106 H124 0.952 . S
C107 C106 1.379 . S
C107 C108 1.390 . S
C107 H134 0.949 . S
C108 C107 1.390 . S
C108 C109 1.357 . S
C109 C108 1.357 . S
C109 C110 1.370 . S
C109 H135 0.950 . S
C110 N105 1.307 . S
C110 C109 1.370 . S
C110 H128 0.948 . S
Zn111 N105 2.020 . S
Zn111 O120 2.039 . S
Zn111 O126 2.034 . S
Zn111 O130 2.025 . S
Zn111 O132 2.024 . S
C112 O131 1.246 . S
C112 O132 1.249 . S
N113 C114 1.307 . S
N113 C115 1.333 . S
N113 Zn119 2.020 1_565 S
C114 N113 1.307 . S
C114 C118 1.370 . S
C114 H125 0.948 . S
C115 N113 1.333 . S
C115 C116 1.379 . S
C115 H123 0.952 . S
C116 C115 1.379 . S
C116 C117 1.390 . S
C116 H136 0.949 1_455 S
C117 C116 1.390 . S
C117 C118 1.357 . S
C118 C114 1.370 . S
C118 C117 1.357 . S
C118 H137 0.950 . S
Zn119 N113 2.020 1_545 S
Zn119 O122 2.025 . S
Zn119 O127 2.024 . S
Zn119 O129 2.039 . S
Zn119 O131 2.034 . S
O120 C104 1.251 . S
O120 Zn111 2.039 . S
C121 O126 1.246 . S
C121 O127 1.249 . S
O122 C104 1.254 . S
O122 Zn119 2.025 . S
H123 C115 0.952 . S
H124 C106 0.952 . S
H125 C114 0.948 . S
O126 Zn111 2.034 . S
O126 C121 1.246 . S
O127 Zn119 2.024 . S
O127 C121 1.249 . S
H128 C110 0.948 . S
O129 Zn119 2.039 . S
O129 C133 1.251 . S
O130 Zn111 2.025 . S
O130 C133 1.254 . S
O131 C112 1.246 . S
O131 Zn119 2.034 . S
O132 Zn111 2.024 . S
O132 C112 1.249 . S
C133 O129 1.251 . S
C133 O130 1.254 . S
H134 C107 0.949 . S
H135 C109 0.950 . S
H136 C116 0.949 1_655 S
H137 C118 0.950 . S
C138 O154 1.251 . S
C138 O156 1.254 . S
N139 C140 1.333 . S
N139 C144 1.305 1_554 S
N139 Zn145 2.020 . S
C140 N139 1.333 . S
C140 C141 1.379 . S
C140 H158 0.952 . S
C141 C140 1.379 . S
C141 C142 1.390 1_554 S
C141 H168 0.949 . S
C142 C141 1.390 1_556 S
C142 C143 1.357 . S
C143 C142 1.357 . S
C143 C144 1.371 . S
C143 H169 0.950 . S
C144 N139 1.305 1_556 S
C144 C143 1.371 . S
C144 H162 0.949 . S
Zn145 N139 2.020 . S
Zn145 O154 2.039 . S
Zn145 O160 2.034 . S
Zn145 O164 2.025 . S
Zn145 O166 2.024 1_554 S
C146 O165 1.246 1_556 S
C146 O166 1.249 . S
N147 C148 1.307 . S
N147 C149 1.333 . S
N147 Zn153 2.020 1_565 S
C148 N147 1.307 . S
C148 C152 1.370 . S
C148 H159 0.948 . S
C149 N147 1.333 . S
C149 C150 1.379 . S
C149 H157 0.952 . S
C150 C149 1.379 . S
C150 C151 1.390 . S
C150 H170 0.949 . S
C151 C150 1.390 . S
C151 C152 1.357 . S
C152 C148 1.370 . S
C152 C151 1.357 . S
C152 H171 0.950 . S
Zn153 N147 2.020 1_545 S
Zn153 O156 2.025 . S
Zn153 O161 2.024 . S
Zn153 O163 2.039 . S
Zn153 O165 2.034 . S
O154 C138 1.251 . S
O154 Zn145 2.039 . S
C155 O160 1.246 . S
C155 O161 1.249 . S
O156 C138 1.254 . S
O156 Zn153 2.025 . S
H157 C149 0.952 . S
H158 C140 0.952 . S
H159 C148 0.948 . S
O160 Zn145 2.034 . S
O160 C155 1.246 . S
O161 Zn153 2.024 . S
O161 C155 1.249 . S
H162 C144 0.949 . S
O163 Zn153 2.039 . S
O163 C167 1.251 . S
O164 Zn145 2.025 . S
O164 C167 1.254 . S
O165 C146 1.246 1_554 S
O165 Zn153 2.034 . S
O166 Zn145 2.024 1_556 S
O166 C146 1.249 . S
C167 O163 1.251 . S
C167 O164 1.254 . S
H168 C141 0.949 . S
H169 C143 0.950 . S
H170 C150 0.949 . S
H171 C152 0.950 . S
C172 O188 1.251 . S
C172 O190 1.254 . S
N173 C174 1.333 . S
N173 C178 1.307 . S
N173 Zn179 2.020 . S
C174 N173 1.333 . S
C174 C175 1.379 . S
C174 H192 0.952 . S
C175 C174 1.379 . S
C175 C176 1.390 . S
C175 H202 0.949 . S
C176 C175 1.390 . S
C176 C177 1.357 . S
C177 C176 1.357 . S
C177 C178 1.370 . S
C177 H203 0.950 . S
C178 N173 1.307 . S
C178 C177 1.370 . S
C178 H196 0.948 . S
Zn179 N173 2.020 . S
Zn179 O188 2.039 . S
Zn179 O194 2.034 . S
Zn179 O198 2.025 . S
Zn179 O200 2.024 . S
C180 O199 1.246 . S
C180 O200 1.249 . S
N181 C182 1.307 . S
N181 C183 1.333 . S
N181 Zn187 2.020 . S
C182 N181 1.307 . S
C182 C186 1.370 . S
C182 H193 0.948 . S
C183 N181 1.333 . S
C183 C184 1.379 . S
C183 H191 0.952 . S
C184 C183 1.379 . S
C184 C185 1.390 . S
C184 H204 0.949 . S
C185 C184 1.390 . S
C185 C186 1.357 . S
C186 C182 1.370 . S
C186 C185 1.357 . S
C186 H205 0.950 . S
Zn187 N181 2.020 . S
Zn187 O190 2.025 . S
Zn187 O195 2.024 . S
Zn187 O197 2.039 . S
Zn187 O199 2.034 . S
O188 C172 1.251 . S
O188 Zn179 2.039 . S
C189 O194 1.246 . S
C189 O195 1.249 . S
O190 C172 1.254 . S
O190 Zn187 2.025 . S
H191 C183 0.952 . S
H192 C174 0.952 . S
H193 C182 0.948 . S
O194 Zn179 2.034 . S
O194 C189 1.246 . S
O195 Zn187 2.024 . S
O195 C189 1.249 . S
H196 C178 0.948 . S
O197 Zn187 2.039 . S
O197 C201 1.251 . S
O198 Zn179 2.025 . S
O198 C201 1.254 . S
O199 C180 1.246 . S
O199 Zn187 2.034 . S
O200 Zn179 2.024 . S
O200 C180 1.249 . S
C201 O197 1.251 . S
C201 O198 1.254 . S
H202 C175 0.949 . S
H203 C177 0.950 . S
H204 C184 0.949 . S
H205 C186 0.950 . S
C206 O222 1.251 1_556 S
C206 O224 1.254 1_655 S
N207 C208 1.333 . S
N207 C212 1.307 . S
N207 Zn213 2.010 1_655 S
C208 N207 1.333 . S
C208 C209 1.379 . S
C208 H226 0.952 . S
C209 C208 1.379 . S
C209 C210 1.390 . S
C209 H236 0.949 . S
C210 C209 1.390 . S
C210 C211 1.357 . S
C211 C210 1.357 . S
C211 C212 1.370 . S
C211 H237 0.950 . S
C212 N207 1.307 . S
C212 C211 1.370 . S
C212 H230 0.948 . S
Zn213 N207 2.010 1_455 S
Zn213 O222 2.033 1_455 S
Zn213 O228 2.064 . S
Zn213 O232 2.036 . S
Zn213 O234 1.998 1_455 S
C214 O233 1.246 . S
C214 O234 1.249 1_556 S
N215 C216 1.307 . S
N215 C217 1.333 . S
N215 Zn221 2.020 . S
C216 N215 1.307 . S
C216 C220 1.370 . S
C216 H227 0.948 . S
C217 N215 1.333 . S
C217 C218 1.379 . S
C217 H225 0.952 . S
C218 C217 1.379 . S
C218 C219 1.390 . S
C218 H238 0.949 . S
C219 C218 1.390 . S
C219 C220 1.357 . S
C220 C216 1.370 . S
C220 C219 1.357 . S
C220 H239 0.950 . S
Zn221 N215 2.020 . S
Zn221 O224 2.025 . S
Zn221 O229 2.024 . S
Zn221 O231 2.039 . S
Zn221 O233 2.034 1_455 S
O222 C206 1.251 1_554 S
O222 Zn213 2.033 1_655 S
C223 O228 1.246 . S
C223 O229 1.249 1_554 S
O224 C206 1.254 1_455 S
O224 Zn221 2.025 . S
H225 C217 0.952 . S
H226 C208 0.952 . S
H227 C216 0.948 . S
O228 Zn213 2.064 . S
O228 C223 1.246 . S
O229 Zn221 2.024 . S
O229 C223 1.249 1_556 S
H230 C212 0.948 . S
O231 Zn221 2.039 . S
O231 C235 1.251 1_556 S
O232 Zn213 2.036 . S
O232 C235 1.254 . S
O233 C214 1.246 . S
O233 Zn221 2.034 1_655 S
O234 Zn213 1.998 1_655 S
O234 C214 1.249 1_554 S
C235 O231 1.251 1_554 S
C235 O232 1.254 . S
H236 C209 0.949 . S
H237 C211 0.950 . S
H238 C218 0.949 . S
H239 C220 0.950 . S
H240 C248 0.929 . S
H241 C250 0.930 . S
H242 C252 0.930 . S
H243 C255 0.929 . S
H244 C258 0.930 . S
H245 C260 0.960 . S
H246 C260 0.960 . S
H247 C260 0.960 . S
C248 H240 0.929 . S
C248 C249 1.377 . S
C248 C250 1.384 . S
C249 C248 1.377 . S
C249 C255 1.390 . S
C250 H241 0.930 . S
C250 C248 1.384 . S
C250 C251 1.372 . S
C251 C250 1.372 . S
C251 C252 1.400 . S
C251 C256 1.490 . S
C252 H242 0.930 . S
C252 C251 1.400 . S
C252 C255 1.386 . S
H253 C269 0.930 . S
H254 C270 0.931 . S
C255 H243 0.929 . S
C255 C249 1.390 . S
C255 C252 1.386 . S
C256 C251 1.490 . S
C256 C258 1.395 . S
C256 C259 1.403 . S
H257 C263 0.930 . S
C258 H244 0.930 . S
C258 C256 1.395 . S
C258 C261 1.403 . S
C259 C256 1.403 . S
C259 C260 1.524 . S
C259 C263 1.400 . S
C260 H245 0.960 . S
C260 H246 0.960 . S
C260 H247 0.960 . S
C260 C259 1.524 . S
C261 C258 1.403 . S
C261 C262 1.392 . S
C261 C265 1.495 . S
C262 C261 1.392 . S
C262 C263 1.385 . S
C262 C264 1.478 . S
C263 H257 0.930 . S
C263 C259 1.400 . S
C263 C262 1.385 . S
C264 C262 1.478 . S
C264 C266 1.381 . S
C264 C270 1.383 . S
C265 C261 1.495 . S
C265 H271 0.959 . S
C265 H272 0.961 . S
C265 H273 0.960 . S
C266 C264 1.381 . S
C266 C267 1.394 . S
C266 H274 0.930 . S
C267 C266 1.394 . S
C267 C268 1.383 . S
C267 H275 0.929 . S
C268 C267 1.383 . S
C268 C269 1.377 . S
C269 H253 0.930 . S
C269 C268 1.377 . S
C269 C270 1.379 . S
C270 H254 0.931 . S
C270 C264 1.383 . S
C270 C269 1.379 . S
H271 C265 0.959 . S
H272 C265 0.961 . S
H273 C265 0.960 . S
H274 C266 0.930 . S
H275 C267 0.929 . S
H276 C284 0.929 . S
H277 C286 0.930 . S
H278 C288 0.930 . S
H279 C291 0.929 . S
H280 C294 0.930 . S
H281 C296 0.960 . S
H282 C296 0.960 . S
H283 C296 0.960 . S
C284 H276 0.929 . S
C284 C285 1.377 . S
C284 C286 1.384 . S
C285 C284 1.377 . S
C285 C291 1.390 . S
C286 H277 0.930 . S
C286 C284 1.384 . S
C286 C287 1.372 . S
C287 C286 1.372 . S
C287 C288 1.400 . S
C287 C292 1.490 . S
C288 H278 0.930 . S
C288 C287 1.400 . S
C288 C291 1.386 . S
H289 C305 0.930 . S
H290 C306 0.931 . S
C291 H279 0.929 . S
C291 C285 1.390 . S
C291 C288 1.386 . S
C292 C287 1.490 . S
C292 C294 1.395 1_565 S
C292 C295 1.403 . S
H293 C299 0.930 . S
C294 H280 0.930 . S
C294 C292 1.395 1_545 S
C294 C297 1.403 . S
C295 C292 1.403 . S
C295 C296 1.524 . S
C295 C299 1.400 . S
C296 H281 0.960 . S
C296 H282 0.960 . S
C296 H283 0.960 . S
C296 C295 1.524 . S
C297 C294 1.403 . S
C297 C298 1.392 . S
C297 C301 1.495 . S
C298 C297 1.392 . S
C298 C299 1.385 1_545 S
C298 C300 1.478 . S
C299 H293 0.930 . S
C299 C295 1.400 . S
C299 C298 1.385 1_565 S
C300 C298 1.478 . S
C300 C302 1.381 . S
C300 C306 1.383 . S
C301 C297 1.495 . S
C301 H307 0.959 . S
C301 H308 0.961 . S
C301 H309 0.960 . S
C302 C300 1.381 . S
C302 C303 1.394 . S
C302 H310 0.930 1_545 S
C303 C302 1.394 . S
C303 C304 1.383 . S
C303 H311 0.929 . S
C304 C303 1.383 . S
C304 C305 1.377 . S
C305 H289 0.930 . S
C305 C304 1.377 . S
C305 C306 1.379 . S
C306 H290 0.931 . S
C306 C300 1.383 . S
C306 C305 1.379 . S
H307 C301 0.959 . S
H308 C301 0.961 . S
H309 C301 0.960 . S
H310 C302 0.930 1_565 S
H311 C303 0.929 . S
H312 C320 0.929 . S
H313 C322 0.930 . S
H314 C324 0.930 . S
H315 C327 0.929 . S
H316 C330 0.930 . S
H317 C332 0.960 . S
H318 C332 0.960 . S
H319 C332 0.960 . S
C320 H312 0.929 . S
C320 C321 1.377 . S
C320 C322 1.384 . S
C321 C320 1.377 . S
C321 C327 1.390 . S
C322 H313 0.930 . S
C322 C320 1.384 . S
C322 C323 1.372 . S
C323 C322 1.372 . S
C323 C324 1.400 . S
C323 C328 1.490 . S
C324 H314 0.930 . S
C324 C323 1.400 . S
C324 C327 1.386 . S
H325 C341 0.930 . S
H326 C342 0.931 . S
C327 H315 0.929 . S
C327 C321 1.390 . S
C327 C324 1.386 . S
C328 C323 1.490 . S
C328 C330 1.395 . S
C328 C331 1.403 . S
H329 C335 0.930 . S
C330 H316 0.930 . S
C330 C328 1.395 . S
C330 C333 1.403 . S
C331 C328 1.403 . S
C331 C332 1.524 . S
C331 C335 1.400 . S
C332 H317 0.960 . S
C332 H318 0.960 . S
C332 H319 0.960 . S
C332 C331 1.524 . S
C333 C330 1.403 . S
C333 C334 1.392 . S
C333 C337 1.495 . S
C334 C333 1.392 . S
C334 C335 1.385 . S
C334 C336 1.478 . S
C335 H329 0.930 . S
C335 C331 1.400 . S
C335 C334 1.385 . S
C336 C334 1.478 . S
C336 C338 1.381 . S
C336 C342 1.383 . S
C337 C333 1.495 . S
C337 H343 0.959 . S
C337 H344 0.961 . S
C337 H345 0.960 . S
C338 C336 1.381 . S
C338 C339 1.394 . S
C338 H346 0.930 . S
C339 C338 1.394 . S
C339 C340 1.383 . S
C339 H347 0.929 . S
C340 C339 1.383 . S
C340 C341 1.377 . S
C341 H325 0.930 . S
C341 C340 1.377 . S
C341 C342 1.379 . S
C342 H326 0.931 . S
C342 C336 1.383 . S
C342 C341 1.379 . S
H343 C337 0.959 . S
H344 C337 0.961 . S
H345 C337 0.960 . S
H346 C338 0.930 . S
H347 C339 0.929 . S
H348 C356 0.929 . S
H349 C358 0.930 . S
H350 C360 0.930 . S
H351 C363 0.929 . S
H352 C366 0.930 . S
H353 C368 0.960 . S
H354 C368 0.960 . S
H355 C368 0.960 . S
C356 H348 0.929 . S
C356 C357 1.377 . S
C356 C358 1.384 . S
C357 C356 1.377 . S
C357 C363 1.390 . S
C358 H349 0.930 . S
C358 C356 1.384 . S
C358 C359 1.372 . S
C359 C358 1.372 . S
C359 C360 1.400 . S
C359 C364 1.490 . S
C360 H350 0.930 . S
C360 C359 1.400 . S
C360 C363 1.386 . S
H361 C377 0.930 . S
H362 C378 0.931 . S
C363 H351 0.929 . S
C363 C357 1.390 . S
C363 C360 1.386 . S
C364 C359 1.490 . S
C364 C366 1.395 . S
C364 C367 1.403 . S
H365 C371 0.930 . S
C366 H352 0.930 . S
C366 C364 1.395 . S
C366 C369 1.403 . S
C367 C364 1.403 . S
C367 C368 1.524 . S
C367 C371 1.400 . S
C368 H353 0.960 . S
C368 H354 0.960 . S
C368 H355 0.960 . S
C368 C367 1.524 . S
C369 C366 1.403 . S
C369 C370 1.392 . S
C369 C373 1.495 . S
C370 C369 1.392 . S
C370 C371 1.385 . S
C370 C372 1.478 . S
C371 H365 0.930 . S
C371 C367 1.400 . S
C371 C370 1.385 . S
C372 C370 1.478 . S
C372 C374 1.381 . S
C372 C378 1.383 . S
C373 C369 1.495 . S
C373 H379 0.959 . S
C373 H380 0.961 . S
C373 H381 0.960 . S
C374 C372 1.381 . S
C374 C375 1.394 . S
C374 H382 0.930 . S
C375 C374 1.394 . S
C375 C376 1.383 . S
C375 H383 0.929 . S
C376 C375 1.383 . S
C376 C377 1.377 . S
C377 H361 0.930 . S
C377 C376 1.377 . S
C377 C378 1.379 . S
C378 H362 0.931 . S
C378 C372 1.383 . S
C378 C377 1.379 . S
H379 C373 0.959 . S
H380 C373 0.961 . S
H381 C373 0.960 . S
H382 C374 0.930 . S
H383 C375 0.929 . S
H384 C392 0.929 . S
H385 C394 0.930 . S
H386 C396 0.930 . S
H387 C399 0.929 . S
H388 C402 0.930 . S
H389 C404 0.960 . S
H390 C404 0.960 . S
H391 C404 0.960 . S
C392 H384 0.929 . S
C392 C393 1.377 . S
C392 C394 1.384 . S
C393 C392 1.377 . S
C393 C399 1.390 . S
C394 H385 0.930 . S
C394 C392 1.384 . S
C394 C395 1.372 . S
C395 C394 1.372 . S
C395 C396 1.400 . S
C395 C400 1.490 . S
C396 H386 0.930 . S
C396 C395 1.400 . S
C396 C399 1.386 . S
H397 C413 0.930 . S
H398 C414 0.931 . S
C399 H387 0.929 . S
C399 C393 1.390 . S
C399 C396 1.386 . S
C400 C395 1.490 . S
C400 C402 1.395 . S
C400 C403 1.403 . S
H401 C407 0.930 . S
C402 H388 0.930 . S
C402 C400 1.395 . S
C402 C405 1.403 . S
C403 C400 1.403 . S
C403 C404 1.524 . S
C403 C407 1.400 . S
C404 H389 0.960 . S
C404 H390 0.960 . S
C404 H391 0.960 . S
C404 C403 1.524 . S
C405 C402 1.403 . S
C405 C406 1.392 . S
C405 C409 1.495 . S
C406 C405 1.392 . S
C406 C407 1.385 . S
C406 C408 1.478 . S
C407 H401 0.930 . S
C407 C403 1.400 . S
C407 C406 1.385 . S
C408 C406 1.478 . S
C408 C410 1.381 . S
C408 C414 1.383 . S
C409 C405 1.495 . S
C409 H415 0.959 . S
C409 H416 0.961 . S
C409 H417 0.960 . S
C410 C408 1.381 . S
C410 C411 1.394 . S
C410 H418 0.930 . S
C411 C410 1.394 . S
C411 C412 1.383 . S
C411 H419 0.929 . S
C412 C411 1.383 . S
C412 C413 1.377 . S
C413 H397 0.930 . S
C413 C412 1.377 . S
C413 C414 1.379 . S
C414 H398 0.931 . S
C414 C408 1.383 . S
C414 C413 1.379 . S
H415 C409 0.959 . S
H416 C409 0.961 . S
H417 C409 0.960 . S
H418 C410 0.930 . S
H419 C411 0.929 . S
H420 C428 0.929 . S
H421 C430 0.930 . S
H422 C432 0.930 1_545 S
H423 C435 0.929 . S
H424 C438 0.930 . S
H425 C440 0.960 1_545 S
H426 C440 0.960 . S
H427 C440 0.960 1_545 S
C428 H420 0.929 . S
C428 C429 1.377 . S
C428 C430 1.384 . S
C429 C428 1.377 . S
C429 C435 1.390 . S
C430 H421 0.930 . S
C430 C428 1.384 . S
C430 C431 1.372 . S
C431 C430 1.372 . S
C431 C432 1.400 . S
C431 C436 1.490 . S
C432 H422 0.930 1_565 S
C432 C431 1.400 . S
C432 C435 1.386 . S
H433 C449 0.930 . S
H434 C450 0.931 . S
C435 H423 0.929 . S
C435 C429 1.390 . S
C435 C432 1.386 . S
C436 C431 1.490 . S
C436 C438 1.395 . S
C436 C439 1.403 . S
H437 C443 0.930 1_545 S
C438 H424 0.930 . S
C438 C436 1.395 . S
C438 C441 1.403 . S
C439 C436 1.403 . S
C439 C440 1.524 . S
C439 C443 1.400 . S
C440 H425 0.960 1_565 S
C440 H426 0.960 . S
C440 H427 0.960 1_565 S
C440 C439 1.524 . S
C441 C438 1.403 . S
C441 C442 1.392 . S
C441 C445 1.495 . S
C442 C441 1.392 . S
C442 C443 1.385 . S
C442 C444 1.478 . S
C443 H437 0.930 1_565 S
C443 C439 1.400 . S
C443 C442 1.385 . S
C444 C442 1.478 . S
C444 C446 1.381 . S
C444 C450 1.383 1_565 S
C445 C441 1.495 . S
C445 H451 0.959 . S
C445 H452 0.961 . S
C445 H453 0.960 . S
C446 C444 1.381 . S
C446 C447 1.394 . S
C446 H454 0.930 . S
C447 C446 1.394 . S
C447 C448 1.383 1_565 S
C447 H455 0.929 . S
C448 C447 1.383 1_545 S
C448 C449 1.377 . S
C449 H433 0.930 . S
C449 C448 1.377 . S
C449 C450 1.379 . S
C450 H434 0.931 . S
C450 C444 1.383 1_545 S
C450 C449 1.379 . S
H451 C445 0.959 . S
H452 C445 0.961 . S
H453 C445 0.960 . S
H454 C446 0.930 . S
H455 C447 0.929 . S
H456 C464 0.929 . S
H457 C466 0.930 . S
H458 C468 0.930 . S
H459 C471 0.929 . S
H460 C474 0.930 . S
H461 C476 0.960 . S
H462 C476 0.960 . S
H463 C476 0.960 . S
C464 H456 0.929 . S
C464 C465 1.377 . S
C464 C466 1.384 . S
C465 C464 1.377 . S
C465 C471 1.390 . S
C466 H457 0.930 . S
C466 C464 1.384 . S
C466 C467 1.372 . S
C467 C466 1.372 . S
C467 C468 1.400 . S
C467 C472 1.490 . S
C468 H458 0.930 . S
C468 C467 1.400 . S
C468 C471 1.386 . S
H469 C485 0.906 1_554 S
H470 C486 0.931 1_554 S
C471 H459 0.929 . S
C471 C465 1.390 . S
C471 C468 1.386 . S
C472 C467 1.490 . S
C472 C474 1.395 . S
C472 C475 1.403 . S
H473 C479 0.930 . S
C474 H460 0.930 . S
C474 C472 1.395 . S
C474 C477 1.403 . S
C475 C472 1.403 . S
C475 C476 1.524 . S
C475 C479 1.400 . S
C476 H461 0.960 . S
C476 H462 0.960 . S
C476 H463 0.960 . S
C476 C475 1.524 . S
C477 C474 1.403 . S
C477 C478 1.392 . S
C477 C481 1.495 . S
C478 C477 1.392 . S
C478 C479 1.385 . S
C478 C480 1.478 . S
C479 H473 0.930 . S
C479 C475 1.400 . S
C479 C478 1.385 . S
C480 C478 1.478 . S
C480 C482 1.381 . S
C480 C486 1.383 . S
C481 C477 1.495 . S
C481 H487 0.959 . S
C481 H488 0.961 . S
C481 H489 0.960 . S
C482 C480 1.381 . S
C482 C483 1.394 . S
C482 H490 0.930 . S
C483 C482 1.394 . S
C483 C484 1.383 . S
C483 H491 0.929 . S
C484 C483 1.383 . S
C484 C485 1.394 . S
C485 H469 0.906 1_556 S
C485 C484 1.394 . S
C485 C486 1.387 . S
C486 H470 0.931 1_556 S
C486 C480 1.383 . S
C486 C485 1.387 . S
H487 C481 0.959 . S
H488 C481 0.961 . S
H489 C481 0.960 . S
H490 C482 0.930 . S
H491 C483 0.929 . S
H492 C500 0.929 . S
H493 C502 0.930 . S
H494 C504 0.930 . S
H495 C507 0.929 . S
H496 C510 0.930 . S
H497 C512 0.960 . S
H498 C512 0.960 . S
H499 C512 0.960 . S
C500 H492 0.929 . S
C500 C501 1.377 . S
C500 C502 1.384 . S
C501 C500 1.377 . S
C501 C507 1.390 . S
C502 H493 0.930 . S
C502 C500 1.384 . S
C502 C503 1.372 . S
C503 C502 1.372 . S
C503 C504 1.400 . S
C503 C508 1.490 . S
C504 H494 0.930 . S
C504 C503 1.400 . S
C504 C507 1.386 . S
H505 C521 0.930 . S
H506 C522 0.931 . S
C507 H495 0.929 . S
C507 C501 1.390 . S
C507 C504 1.386 . S
C508 C503 1.490 . S
C508 C510 1.395 . S
C508 C511 1.403 . S
H509 C515 0.930 . S
C510 H496 0.930 . S
C510 C508 1.395 . S
C510 C513 1.403 . S
C511 C508 1.403 . S
C511 C512 1.524 . S
C511 C515 1.400 . S
C512 H497 0.960 . S
C512 H498 0.960 . S
C512 H499 0.960 . S
C512 C511 1.524 . S
C513 C510 1.403 . S
C513 C514 1.392 . S
C513 C517 1.495 . S
C514 C513 1.392 . S
C514 C515 1.385 . S
C514 C516 1.478 . S
C515 H509 0.930 . S
C515 C511 1.400 . S
C515 C514 1.385 . S
C516 C514 1.478 . S
C516 C518 1.381 . S
C516 C522 1.383 . S
C517 C513 1.495 . S
C517 H523 0.959 . S
C517 H524 0.961 . S
C517 H525 0.960 . S
C518 C516 1.381 . S
C518 C519 1.394 . S
C518 H526 0.930 . S
C519 C518 1.394 . S
C519 C520 1.383 . S
C519 H527 0.929 . S
C520 C519 1.383 . S
C520 C521 1.377 . S
C521 H505 0.930 . S
C521 C520 1.377 . S
C521 C522 1.379 . S
C522 H506 0.931 . S
C522 C516 1.383 . S
C522 C521 1.379 . S
H523 C517 0.959 . S
H524 C517 0.961 . S
H525 C517 0.960 . S
H526 C518 0.930 . S
H527 C519 0.929 . S
H528 C536 0.929 . S
H529 C538 0.930 . S
H530 C540 0.930 . S
H531 C543 0.929 . S
H532 C546 0.930 . S
H533 C548 0.960 . S
H534 C548 0.960 . S
H535 C548 0.960 . S
C536 H528 0.929 . S
C536 C537 1.377 . S
C536 C538 1.384 . S
C537 C536 1.377 . S
C537 C543 1.390 . S
C538 H529 0.930 . S
C538 C536 1.384 . S
C538 C539 1.372 . S
C539 C538 1.372 . S
C539 C540 1.400 . S
C539 C544 1.490 . S
C540 H530 0.930 . S
C540 C539 1.400 . S
C540 C543 1.386 . S
H541 C557 0.930 . S
H542 C558 0.931 . S
C543 H531 0.929 . S
C543 C537 1.390 . S
C543 C540 1.386 . S
C544 C539 1.490 . S
C544 C546 1.395 . S
C544 C547 1.403 . S
H545 C551 0.930 . S
C546 H532 0.930 . S
C546 C544 1.395 . S
C546 C549 1.403 . S
C547 C544 1.403 . S
C547 C548 1.524 . S
C547 C551 1.400 . S
C548 H533 0.960 . S
C548 H534 0.960 . S
C548 H535 0.960 . S
C548 C547 1.524 . S
C549 C546 1.403 . S
C549 C550 1.392 . S
C549 C553 1.495 . S
C550 C549 1.392 . S
C550 C551 1.385 . S
C550 C552 1.478 . S
C551 H545 0.930 . S
C551 C547 1.400 . S
C551 C550 1.385 . S
C552 C550 1.478 . S
C552 C554 1.381 . S
C552 C558 1.383 . S
C553 C549 1.495 . S
C553 H559 0.959 . S
C553 H560 0.961 . S
C553 H561 0.960 . S
C554 C552 1.381 . S
C554 C555 1.394 . S
C554 H562 0.930 . S
C555 C554 1.394 . S
C555 C556 1.383 . S
C555 H563 0.929 . S
C556 C555 1.383 . S
C556 C557 1.377 . S
C557 H541 0.930 . S
C557 C556 1.377 . S
C557 C558 1.379 . S
C558 H542 0.931 . S
C558 C552 1.383 . S
C558 C557 1.379 . S
H559 C553 0.959 . S
H560 C553 0.961 . S
H561 C553 0.960 . S
H562 C554 0.930 . S
H563 C555 0.929 . S
H564 C572 0.929 . S
H565 C574 0.930 . S
H566 C576 0.930 . S
H567 C579 0.929 . S
H568 C582 0.930 . S
H569 C584 0.960 1_554 S
H570 C584 0.960 . S
H571 C584 0.960 . S
C572 H564 0.929 . S
C572 C573 1.377 . S
C572 C574 1.384 . S
C573 C572 1.377 . S
C573 C579 1.390 . S
C574 H565 0.930 . S
C574 C572 1.384 . S
C574 C575 1.372 . S
C575 C574 1.372 . S
C575 C576 1.400 . S
C575 C580 1.490 . S
C576 H566 0.930 . S
C576 C575 1.400 . S
C576 C579 1.386 . S
H577 C593 0.930 1_554 S
H578 C594 0.931 . S
C579 H567 0.929 . S
C579 C573 1.390 . S
C579 C576 1.386 . S
C580 C575 1.490 . S
C580 C582 1.395 . S
C580 C583 1.403 . S
H581 C587 0.930 . S
C582 H568 0.930 . S
C582 C580 1.395 . S
C582 C585 1.403 . S
C583 C580 1.403 . S
C583 C584 1.524 . S
C583 C587 1.400 . S
C584 H569 0.960 1_556 S
C584 H570 0.960 . S
C584 H571 0.960 . S
C584 C583 1.524 . S
C585 C582 1.403 . S
C585 C586 1.392 . S
C585 C589 1.495 . S
C586 C585 1.392 . S
C586 C587 1.385 . S
C586 C588 1.478 . S
C587 H581 0.930 . S
C587 C583 1.400 . S
C587 C586 1.385 . S
C588 C586 1.478 . S
C588 C590 1.381 . S
C588 C594 1.383 . S
C589 C585 1.495 . S
C589 H595 0.959 . S
C589 H596 0.961 . S
C589 H597 0.960 . S
C590 C588 1.381 . S
C590 C591 1.394 . S
C590 H598 0.930 . S
C591 C590 1.394 . S
C591 C592 1.383 . S
C591 H599 0.929 . S
C592 C591 1.383 . S
C592 C593 1.377 . S
C593 H577 0.930 1_556 S
C593 C592 1.377 . S
C593 C594 1.379 . S
C594 H578 0.931 . S
C594 C588 1.383 . S
C594 C593 1.379 . S
H595 C589 0.959 . S
H596 C589 0.961 . S
H597 C589 0.960 . S
H598 C590 0.930 . S
H599 C591 0.929 . S
H600 C608 0.929 . S
H601 C610 0.930 . S
H602 C612 0.930 . S
H603 C615 0.929 . S
H604 C618 0.930 . S
H605 C620 0.960 . S
H606 C620 0.960 . S
H607 C620 0.960 . S
C608 H600 0.929 . S
C608 C609 1.377 . S
C608 C610 1.384 . S
C609 C608 1.377 . S
C609 C615 1.390 . S
C610 H601 0.930 . S
C610 C608 1.384 . S
C610 C611 1.372 . S
C611 C610 1.372 . S
C611 C612 1.400 . S
C611 C616 1.490 . S
C612 H602 0.930 . S
C612 C611 1.400 . S
C612 C615 1.386 . S
H613 C629 0.930 . S
H614 C630 0.931 . S
C615 H603 0.929 . S
C615 C609 1.390 . S
C615 C612 1.386 . S
C616 C611 1.490 . S
C616 C618 1.395 . S
C616 C619 1.403 . S
H617 C623 0.930 . S
C618 H604 0.930 . S
C618 C616 1.395 . S
C618 C621 1.403 . S
C619 C616 1.403 . S
C619 C620 1.524 . S
C619 C623 1.400 . S
C620 H605 0.960 . S
C620 H606 0.960 . S
C620 H607 0.960 . S
C620 C619 1.524 . S
C621 C618 1.403 . S
C621 C622 1.392 . S
C621 C625 1.495 1_655 S
C622 C621 1.392 . S
C622 C623 1.385 . S
C622 C624 1.478 . S
C623 H617 0.930 . S
C623 C619 1.400 . S
C623 C622 1.385 . S
C624 C622 1.478 . S
C624 C626 1.397 . S
C624 C630 1.383 . S
C625 C621 1.495 1_455 S
C625 H631 0.959 . S
C625 H632 0.961 . S
C625 H633 0.960 . S
C626 C624 1.397 . S
C626 C627 1.382 1_655 S
C626 H634 0.928 1_655 S
C627 C626 1.382 1_455 S
C627 C628 1.383 . S
C627 H635 0.929 . S
C628 C627 1.383 . S
C628 C629 1.377 1_455 S
C629 H613 0.930 . S
C629 C628 1.377 1_655 S
C629 C630 1.379 . S
C630 H614 0.931 . S
C630 C624 1.383 . S
C630 C629 1.379 . S
H631 C625 0.959 . S
H632 C625 0.961 . S
H633 C625 0.960 . S
H634 C626 0.928 1_455 S
H635 C627 0.929 . S
H636 C644 0.929 . S
H637 C646 0.930 . S
H638 C648 0.930 . S
H639 C651 0.929 . S
H640 C654 0.930 . S
H641 C656 0.960 . S
H642 C656 0.960 . S
H643 C656 0.960 . S
C644 H636 0.929 . S
C644 C645 1.377 . S
C644 C646 1.384 . S
C645 C644 1.377 . S
C645 C651 1.390 . S
C646 H637 0.930 . S
C646 C644 1.384 . S
C646 C647 1.372 . S
C647 C646 1.372 . S
C647 C648 1.400 . S
C647 C652 1.490 . S
C648 H638 0.930 . S
C648 C647 1.400 . S
C648 C651 1.386 . S
H649 C665 0.930 . S
H650 C666 0.931 . S
C651 H639 0.929 . S
C651 C645 1.390 . S
C651 C648 1.386 . S
C652 C647 1.490 . S
C652 C654 1.395 . S
C652 C655 1.403 . S
H653 C659 0.930 . S
C654 H640 0.930 . S
C654 C652 1.395 . S
C654 C657 1.403 . S
C655 C652 1.403 . S
C655 C656 1.524 . S
C655 C659 1.400 . S
C656 H641 0.960 . S
C656 H642 0.960 . S
C656 H643 0.960 . S
C656 C655 1.524 . S
C657 C654 1.403 . S
C657 C658 1.392 . S
C657 C661 1.495 . S
C658 C657 1.392 . S
C658 C659 1.385 . S
C658 C660 1.478 . S
C659 H653 0.930 . S
C659 C655 1.400 . S
C659 C658 1.385 . S
C660 C658 1.478 . S
C660 C662 1.381 . S
C660 C666 1.383 . S
C661 C657 1.495 . S
C661 H667 0.959 . S
C661 H668 0.961 . S
C661 H669 0.960 . S
C662 C660 1.381 . S
C662 C663 1.394 . S
C662 H670 0.930 . S
C663 C662 1.394 . S
C663 C664 1.383 . S
C663 H671 0.929 . S
C664 C663 1.383 . S
C664 C665 1.377 . S
C665 H649 0.930 . S
C665 C664 1.377 . S
C665 C666 1.379 . S
C666 H650 0.931 . S
C666 C660 1.383 . S
C666 C665 1.379 . S
H667 C661 0.959 . S
H668 C661 0.961 . S
H669 C661 0.960 . S
H670 C662 0.930 . S
H671 C663 0.929 . S
H672 C680 0.929 . S
H673 C682 0.930 . S
H674 C684 0.930 1_545 S
H675 C687 0.947 . S
H676 C690 0.930 . S
H677 C692 0.960 . S
H678 C692 0.960 . S
H679 C692 0.960 1_655 S
C680 H672 0.929 . S
C680 C681 1.377 . S
C680 C682 1.384 . S
C681 C680 1.377 . S
C681 C687 1.390 . S
C682 H673 0.930 . S
C682 C680 1.384 . S
C682 C683 1.372 . S
C683 C682 1.372 . S
C683 C684 1.400 . S
C683 C688 1.490 . S
C684 H674 0.930 1_565 S
C684 C683 1.400 . S
C684 C687 1.386 . S
H685 C701 0.930 1_655 S
H686 C702 0.931 . S
C687 H675 0.947 . S
C687 C681 1.390 . S
C687 C684 1.386 . S
C688 C683 1.490 . S
C688 C690 1.395 . S
C688 C691 1.403 1_565 S
H689 C695 0.948 . S
C690 H676 0.930 . S
C690 C688 1.395 . S
C690 C693 1.403 . S
C691 C688 1.403 1_545 S
C691 C692 1.524 1_655 S
C691 C695 1.392 1_655 S
C692 H677 0.960 . S
C692 H678 0.960 . S
C692 H679 0.960 1_455 S
C692 C691 1.524 1_455 S
C693 C690 1.403 . S
C693 C694 1.392 . S
C693 C697 1.495 . S
C694 C693 1.392 . S
C694 C695 1.377 1_665 S
C694 C696 1.478 1_655 S
C695 H689 0.948 . S
C695 C691 1.392 1_455 S
C695 C694 1.377 1_445 S
C696 C694 1.478 1_455 S
C696 C698 1.380 . S
C696 C702 1.383 1_465 S
C697 C693 1.495 . S
C697 H703 0.959 . S
C697 H704 0.961 . S
C697 H705 0.960 . S
C698 C696 1.380 . S
C698 C699 1.394 . S
C698 H706 0.930 . S
C699 C698 1.394 . S
C699 C700 1.383 1_565 S
C699 H707 0.929 . S
C700 C699 1.383 1_545 S
C700 C701 1.377 . S
C701 H685 0.930 1_455 S
C701 C700 1.377 . S
C701 C702 1.379 1_455 S
C702 H686 0.931 . S
C702 C696 1.383 1_645 S
C702 C701 1.379 1_655 S
H703 C697 0.959 . S
H704 C697 0.961 . S
H705 C697 0.960 . S
H706 C698 0.930 . S
H707 C699 0.929 . S
H708 C716 0.929 . S
H709 C718 0.930 . S
H710 C720 0.930 . S
H711 C723 0.929 . S
H712 C726 0.930 . S
H713 C728 0.960 . S
H714 C728 0.960 . S
H715 C728 0.960 . S
C716 H708 0.929 . S
C716 C717 1.377 . S
C716 C718 1.384 . S
C717 C716 1.377 . S
C717 C723 1.390 . S
C718 H709 0.930 . S
C718 C716 1.384 . S
C718 C719 1.372 . S
C719 C718 1.372 . S
C719 C720 1.400 . S
C719 C724 1.490 . S
C720 H710 0.930 . S
C720 C719 1.400 . S
C720 C723 1.386 . S
H721 C737 0.930 . S
H722 C738 0.931 . S
C723 H711 0.929 . S
C723 C717 1.390 . S
C723 C720 1.386 . S
C724 C719 1.490 . S
C724 C726 1.395 . S
C724 C727 1.403 . S
H725 C731 0.930 . S
C726 H712 0.930 . S
C726 C724 1.395 . S
C726 C729 1.403 . S
C727 C724 1.403 . S
C727 C728 1.524 . S
C727 C731 1.400 . S
C728 H713 0.960 . S
C728 H714 0.960 . S
C728 H715 0.960 . S
C728 C727 1.524 . S
C729 C726 1.403 . S
C729 C730 1.392 . S
C729 C733 1.495 . S
C730 C729 1.392 . S
C730 C731 1.385 . S
C730 C732 1.478 . S
C731 H725 0.930 . S
C731 C727 1.400 . S
C731 C730 1.385 . S
C732 C730 1.478 . S
C732 C734 1.381 . S
C732 C738 1.383 . S
C733 C729 1.495 . S
C733 H739 0.959 . S
C733 H740 0.961 . S
C733 H741 0.960 . S
C734 C732 1.381 . S
C734 C735 1.394 . S
C734 H742 0.930 . S
C735 C734 1.394 . S
C735 C736 1.383 . S
C735 H743 0.929 . S
C736 C735 1.383 . S
C736 C737 1.377 . S
C737 H721 0.930 . S
C737 C736 1.377 . S
C737 C738 1.379 . S
C738 H722 0.931 . S
C738 C732 1.383 . S
C738 C737 1.379 . S
H739 C733 0.959 . S
H740 C733 0.961 . S
H741 C733 0.960 . S
H742 C734 0.930 . S
H743 C735 0.929 . S
H744 C752 0.929 . S
H745 C754 0.930 . S
H746 C756 0.930 . S
H747 C759 0.929 . S
H748 C762 0.930 . S
H749 C764 0.960 . S
H750 C764 0.960 . S
H751 C764 0.960 . S
C752 H744 0.929 . S
C752 C753 1.377 . S
C752 C754 1.384 . S
C753 C752 1.377 . S
C753 C759 1.390 . S
C754 H745 0.930 . S
C754 C752 1.384 . S
C754 C755 1.372 . S
C755 C754 1.372 . S
C755 C756 1.400 . S
C755 C760 1.490 . S
C756 H746 0.930 . S
C756 C755 1.400 . S
C756 C759 1.386 . S
H757 C773 0.930 . S
H758 C774 0.931 . S
C759 H747 0.929 . S
C759 C753 1.390 . S
C759 C756 1.386 . S
C760 C755 1.490 . S
C760 C762 1.395 . S
C760 C763 1.403 . S
H761 C767 0.930 . S
C762 H748 0.930 . S
C762 C760 1.395 . S
C762 C765 1.403 . S
C763 C760 1.403 . S
C763 C764 1.524 . S
C763 C767 1.400 . S
C764 H749 0.960 . S
C764 H750 0.960 . S
C764 H751 0.960 . S
C764 C763 1.524 . S
C765 C762 1.403 . S
C765 C766 1.392 . S
C765 C769 1.495 . S
C766 C765 1.392 . S
C766 C767 1.385 . S
C766 C768 1.478 . S
C767 H761 0.930 . S
C767 C763 1.400 . S
C767 C766 1.385 . S
C768 C766 1.478 . S
C768 C770 1.381 . S
C768 C774 1.383 . S
C769 C765 1.495 . S
C769 H775 0.959 . S
C769 H776 0.961 . S
C769 H777 0.960 . S
C770 C768 1.381 . S
C770 C771 1.394 . S
C770 H778 0.930 . S
C771 C770 1.394 . S
C771 C772 1.383 . S
C771 H779 0.929 . S
C772 C771 1.383 . S
C772 C773 1.377 . S
C773 H757 0.930 . S
C773 C772 1.377 . S
C773 C774 1.379 . S
C774 H758 0.931 . S
C774 C768 1.383 . S
C774 C773 1.379 . S
H775 C769 0.959 . S
H776 C769 0.961 . S
H777 C769 0.960 . S
H778 C770 0.930 . S
H779 C771 0.929 . S
H780 C788 0.929 . S
H781 C790 0.930 . S
H782 C792 0.930 . S
H783 C795 0.929 . S
H784 C798 0.930 . S
H785 C800 0.960 . S
H786 C800 0.960 . S
H787 C800 0.960 . S
C788 H780 0.929 . S
C788 C789 1.377 . S
C788 C790 1.384 . S
C789 C788 1.377 . S
C789 C795 1.390 . S
C790 H781 0.930 . S
C790 C788 1.384 . S
C790 C791 1.372 . S
C791 C790 1.372 . S
C791 C792 1.400 . S
C791 C796 1.490 . S
C792 H782 0.930 . S
C792 C791 1.400 . S
C792 C795 1.386 . S
H793 C809 0.930 . S
H794 C810 0.931 . S
C795 H783 0.929 . S
C795 C789 1.390 . S
C795 C792 1.386 . S
C796 C791 1.490 . S
C796 C798 1.395 . S
C796 C799 1.403 . S
H797 C803 0.930 . S
C798 H784 0.930 . S
C798 C796 1.395 . S
C798 C801 1.403 . S
C799 C796 1.403 . S
C799 C800 1.524 . S
C799 C803 1.400 . S
C800 H785 0.960 . S
C800 H786 0.960 . S
C800 H787 0.960 . S
C800 C799 1.524 . S
C801 C798 1.403 . S
C801 C802 1.392 . S
C801 C805 1.495 . S
C802 C801 1.392 . S
C802 C803 1.385 . S
C802 C804 1.478 . S
C803 H797 0.930 . S
C803 C799 1.400 . S
C803 C802 1.385 . S
C804 C802 1.478 . S
C804 C806 1.381 . S
C804 C810 1.383 . S
C805 C801 1.495 . S
C805 H811 0.959 . S
C805 H812 0.961 . S
C805 H813 0.960 . S
C806 C804 1.381 . S
C806 C807 1.394 . S
C806 H814 0.930 . S
C807 C806 1.394 . S
C807 C808 1.383 . S
C807 H815 0.929 . S
C808 C807 1.383 . S
C808 C809 1.377 . S
C809 H793 0.930 . S
C809 C808 1.377 . S
C809 C810 1.379 . S
C810 H794 0.931 . S
C810 C804 1.383 . S
C810 C809 1.379 . S
H811 C805 0.959 . S
H812 C805 0.961 . S
H813 C805 0.960 . S
H814 C806 0.930 . S
H815 C807 0.929 . S
H816 C824 0.929 . S
H817 C826 0.930 . S
H818 C828 0.930 . S
H819 C831 0.929 . S
H820 C834 0.930 . S
H821 C836 0.960 . S
H822 C836 0.960 . S
H823 C836 0.960 . S
C824 H816 0.929 . S
C824 C825 1.377 . S
C824 C826 1.384 . S
C825 C824 1.377 . S
C825 C831 1.390 . S
C826 H817 0.930 . S
C826 C824 1.384 . S
C826 C827 1.372 . S
C827 C826 1.372 . S
C827 C828 1.400 . S
C827 C832 1.490 . S
C828 H818 0.930 . S
C828 C827 1.400 . S
C828 C831 1.386 . S
H829 C845 0.930 . S
H830 C846 0.931 . S
C831 H819 0.929 . S
C831 C825 1.390 . S
C831 C828 1.386 . S
C832 C827 1.490 . S
C832 C834 1.395 1_565 S
C832 C835 1.403 . S
H833 C839 0.930 . S
C834 H820 0.930 . S
C834 C832 1.395 1_545 S
C834 C837 1.403 . S
C835 C832 1.403 . S
C835 C836 1.524 . S
C835 C839 1.400 . S
C836 H821 0.960 . S
C836 H822 0.960 . S
C836 H823 0.960 . S
C836 C835 1.524 . S
C837 C834 1.403 . S
C837 C838 1.392 . S
C837 C841 1.495 1_556 S
C838 C837 1.392 . S
C838 C839 1.385 1_545 S
C838 C840 1.478 . S
C839 H833 0.930 . S
C839 C835 1.400 . S
C839 C838 1.385 1_565 S
C840 C838 1.478 . S
C840 C842 1.381 1_556 S
C840 C846 1.383 . S
C841 C837 1.495 1_554 S
C841 H847 0.959 . S
C841 H848 0.961 . S
C841 H849 0.960 . S
C842 C840 1.381 1_554 S
C842 C843 1.394 . S
C842 H850 0.930 1_545 S
C843 C842 1.394 . S
C843 C844 1.383 . S
C843 H851 0.929 . S
C844 C843 1.383 . S
C844 C845 1.377 1_554 S
C845 H829 0.930 . S
C845 C844 1.377 1_556 S
C845 C846 1.379 . S
C846 H830 0.931 . S
C846 C840 1.383 . S
C846 C845 1.379 . S
H847 C841 0.959 . S
H848 C841 0.961 . S
H849 C841 0.960 . S
H850 C842 0.930 1_565 S
H851 C843 0.929 . S
H852 C860 0.929 . S
H853 C862 0.930 . S
H854 C864 0.930 . S
H855 C867 0.929 . S
H856 C870 0.930 . S
H857 C872 0.960 . S
H858 C872 0.960 . S
H859 C872 0.960 . S
C860 H852 0.929 . S
C860 C861 1.377 . S
C860 C862 1.384 . S
C861 C860 1.377 . S
C861 C867 1.390 . S
C862 H853 0.930 . S
C862 C860 1.384 . S
C862 C863 1.372 . S
C863 C862 1.372 . S
C863 C864 1.400 . S
C863 C868 1.490 . S
C864 H854 0.930 . S
C864 C863 1.400 . S
C864 C867 1.386 . S
H865 C881 0.930 . S
H866 C882 0.931 . S
C867 H855 0.929 . S
C867 C861 1.390 . S
C867 C864 1.386 . S
C868 C863 1.490 . S
C868 C870 1.395 . S
C868 C871 1.403 . S
H869 C875 0.930 . S
C870 H856 0.930 . S
C870 C868 1.395 . S
C870 C873 1.403 . S
C871 C868 1.403 . S
C871 C872 1.524 . S
C871 C875 1.400 . S
C872 H857 0.960 . S
C872 H858 0.960 . S
C872 H859 0.960 . S
C872 C871 1.524 . S
C873 C870 1.403 . S
C873 C874 1.392 . S
C873 C877 1.495 . S
C874 C873 1.392 . S
C874 C875 1.385 . S
C874 C876 1.478 . S
C875 H869 0.930 . S
C875 C871 1.400 . S
C875 C874 1.385 . S
C876 C874 1.478 . S
C876 C878 1.381 . S
C876 C882 1.383 . S
C877 C873 1.495 . S
C877 H883 0.959 . S
C877 H884 0.961 . S
C877 H885 0.960 . S
C878 C876 1.381 . S
C878 C879 1.394 . S
C878 H886 0.930 . S
C879 C878 1.394 . S
C879 C880 1.383 . S
C879 H887 0.929 . S
C880 C879 1.383 . S
C880 C881 1.377 . S
C881 H865 0.930 . S
C881 C880 1.377 . S
C881 C882 1.379 . S
C882 H866 0.931 . S
C882 C876 1.383 . S
C882 C881 1.379 . S
H883 C877 0.959 . S
H884 C877 0.961 . S
H885 C877 0.960 . S
H886 C878 0.930 . S
H887 C879 0.929 . S
H888 C896 0.929 . S
H889 C898 0.930 . S
H890 C900 0.930 . S
H891 C903 0.929 . S
H892 C906 0.930 . S
H893 C908 0.960 . S
H894 C908 0.960 . S
H895 C908 0.960 . S
C896 H888 0.929 . S
C896 C897 1.377 . S
C896 C898 1.384 . S
C897 C896 1.377 . S
C897 C903 1.390 . S
C898 H889 0.930 . S
C898 C896 1.384 . S
C898 C899 1.372 . S
C899 C898 1.372 . S
C899 C900 1.400 . S
C899 C904 1.490 . S
C900 H890 0.930 . S
C900 C899 1.400 . S
C900 C903 1.386 . S
H901 C917 0.930 . S
H902 C918 0.931 . S
C903 H891 0.929 . S
C903 C897 1.390 . S
C903 C900 1.386 . S
C904 C899 1.490 . S
C904 C906 1.395 . S
C904 C907 1.403 . S
H905 C911 0.930 . S
C906 H892 0.930 . S
C906 C904 1.395 . S
C906 C909 1.403 . S
C907 C904 1.403 . S
C907 C908 1.524 . S
C907 C911 1.400 . S
C908 H893 0.960 . S
C908 H894 0.960 . S
C908 H895 0.960 . S
C908 C907 1.524 . S
C909 C906 1.403 . S
C909 C910 1.392 . S
C909 C913 1.495 1_554 S
C910 C909 1.392 . S
C910 C911 1.385 . S
C910 C912 1.478 . S
C911 H905 0.930 . S
C911 C907 1.400 . S
C911 C910 1.385 . S
C912 C910 1.478 . S
C912 C914 1.381 . S
C912 C918 1.383 . S
C913 C909 1.495 1_556 S
C913 H919 0.959 . S
C913 H920 0.961 . S
C913 H921 0.960 . S
C914 C912 1.381 . S
C914 C915 1.394 . S
C914 H922 0.930 . S
C915 C914 1.394 . S
C915 C916 1.383 . S
C915 H923 0.929 . S
C916 C915 1.383 . S
C916 C917 1.377 . S
C917 H901 0.930 . S
C917 C916 1.377 . S
C917 C918 1.379 . S
C918 H902 0.931 . S
C918 C912 1.383 . S
C918 C917 1.379 . S
H919 C913 0.959 . S
H920 C913 0.961 . S
H921 C913 0.960 . S
H922 C914 0.930 . S
H923 C915 0.929 . S
H924 C932 0.929 . S
H925 C934 0.930 . S
H926 C936 0.930 . S
H927 C939 0.929 . S
H928 C942 0.930 . S
H929 C944 0.960 . S
H930 C944 0.960 . S
H931 C944 0.960 . S
C932 H924 0.929 . S
C932 C933 1.377 . S
C932 C934 1.384 . S
C933 C932 1.377 . S
C933 C939 1.390 . S
C934 H925 0.930 . S
C934 C932 1.384 . S
C934 C935 1.372 . S
C935 C934 1.372 . S
C935 C936 1.400 . S
C935 C940 1.490 . S
C936 H926 0.930 . S
C936 C935 1.400 . S
C936 C939 1.386 . S
H937 C953 0.930 . S
H938 C954 0.931 . S
C939 H927 0.929 . S
C939 C933 1.390 . S
C939 C936 1.386 . S
C940 C935 1.490 . S
C940 C942 1.395 . S
C940 C943 1.403 . S
H941 C947 0.930 . S
C942 H928 0.930 . S
C942 C940 1.395 . S
C942 C945 1.403 . S
C943 C940 1.403 . S
C943 C944 1.524 . S
C943 C947 1.400 . S
C944 H929 0.960 . S
C944 H930 0.960 . S
C944 H931 0.960 . S
C944 C943 1.524 . S
C945 C942 1.403 . S
C945 C946 1.392 . S
C945 C949 1.495 . S
C946 C945 1.392 . S
C946 C947 1.385 . S
C946 C948 1.478 . S
C947 H941 0.930 . S
C947 C943 1.400 . S
C947 C946 1.385 . S
C948 C946 1.478 . S
C948 C950 1.381 . S
C948 C954 1.383 . S
C949 C945 1.495 . S
C949 H955 0.959 . S
C949 H956 0.961 . S
C949 H957 0.960 . S
C950 C948 1.381 . S
C950 C951 1.394 . S
C950 H958 0.930 . S
C951 C950 1.394 . S
C951 C952 1.383 . S
C951 H959 0.929 . S
C952 C951 1.383 . S
C952 C953 1.377 . S
C953 H937 0.930 . S
C953 C952 1.377 . S
C953 C954 1.379 . S
C954 H938 0.931 . S
C954 C948 1.383 . S
C954 C953 1.379 . S
H955 C949 0.959 . S
H956 C949 0.961 . S
H957 C949 0.960 . S
H958 C950 0.930 . S
H959 C951 0.929 . S
H960 C968 0.929 . S
H961 C970 0.930 . S
H962 C972 0.930 . S
H963 C975 0.929 . S
H964 C978 0.930 . S
H965 C980 0.957 1_455 S
H966 C980 0.962 . S
H967 C980 0.959 1_455 S
C968 H960 0.929 . S
C968 C969 1.377 . S
C968 C970 1.384 . S
C969 C968 1.377 . S
C969 C975 1.390 . S
C970 H961 0.930 . S
C970 C968 1.384 . S
C970 C971 1.372 . S
C971 C970 1.372 . S
C971 C972 1.400 . S
C971 C976 1.490 . S
C972 H962 0.930 . S
C972 C971 1.400 . S
C972 C975 1.386 . S
H973 C989 0.930 1_455 S
H974 C990 0.931 1_455 S
C975 H963 0.929 . S
C975 C969 1.390 . S
C975 C972 1.386 . S
C976 C971 1.490 . S
C976 C978 1.395 . S
C976 C979 1.403 . S
H977 C983 0.930 . S
C978 H964 0.930 . S
C978 C976 1.395 . S
C978 C981 1.403 . S
C979 C976 1.403 . S
C979 C980 1.526 . S
C979 C983 1.400 . S
C980 H965 0.957 1_655 S
C980 H966 0.962 . S
C980 H967 0.959 1_655 S
C980 C979 1.526 . S
C981 C978 1.403 . S
C981 C982 1.392 . S
C981 C985 1.495 . S
C982 C981 1.392 . S
C982 C983 1.385 . S
C982 C984 1.478 . S
C983 H977 0.930 . S
C983 C979 1.400 . S
C983 C982 1.385 . S
C984 C982 1.478 . S
C984 C986 1.381 . S
C984 C990 1.383 . S
C985 C981 1.495 . S
C985 H991 0.959 . S
C985 H992 0.961 . S
C985 H993 0.960 . S
C986 C984 1.381 . S
C986 C987 1.394 . S
C986 H994 0.930 . S
C987 C986 1.394 . S
C987 C988 1.383 . S
C987 H995 0.900 1_556 S
C988 C987 1.383 . S
C988 C989 1.377 . S
C989 H973 0.930 1_655 S
C989 C988 1.377 . S
C989 C990 1.379 . S
C990 H974 0.931 1_655 S
C990 C984 1.383 . S
C990 C989 1.379 . S
H991 C985 0.959 . S
H992 C985 0.961 . S
H993 C985 0.960 . S
H994 C986 0.930 . S
H995 C987 0.900 1_554 S
H996 C1004 0.929 . S
H997 C1006 0.930 . S
H998 C1008 0.930 . S
H999 C1011 0.929 . S
H1000 C1014 0.930 . S
H1001 C1016 0.960 . S
H1002 C1016 0.960 . S
H1003 C1016 0.960 . S
C1004 H996 0.929 . S
C1004 C1005 1.377 . S
C1004 C1006 1.384 . S
C1005 C1004 1.377 . S
C1005 C1011 1.390 . S
C1006 H997 0.930 . S
C1006 C1004 1.384 . S
C1006 C1007 1.372 . S
C1007 C1006 1.372 . S
C1007 C1008 1.400 . S
C1007 C1012 1.490 . S
C1008 H998 0.930 . S
C1008 C1007 1.400 . S
C1008 C1011 1.386 . S
H1009 C1025 0.930 . S
H1010 C1026 0.931 . S
C1011 H999 0.929 . S
C1011 C1005 1.390 . S
C1011 C1008 1.386 . S
C1012 C1007 1.490 . S
C1012 C1014 1.395 . S
C1012 C1015 1.403 . S
H1013 C1019 0.930 . S
C1014 H1000 0.930 . S
C1014 C1012 1.395 . S
C1014 C1017 1.403 . S
C1015 C1012 1.403 . S
C1015 C1016 1.524 . S
C1015 C1019 1.400 . S
C1016 H1001 0.960 . S
C1016 H1002 0.960 . S
C1016 H1003 0.960 . S
C1016 C1015 1.524 . S
C1017 C1014 1.403 . S
C1017 C1018 1.392 . S
C1017 C1021 1.495 . S
C1018 C1017 1.392 . S
C1018 C1019 1.385 . S
C1018 C1020 1.478 . S
C1019 H1013 0.930 . S
C1019 C1015 1.400 . S
C1019 C1018 1.385 . S
C1020 C1018 1.478 . S
C1020 C1022 1.381 . S
C1020 C1026 1.383 . S
C1021 C1017 1.495 . S
C1021 H1027 0.959 . S
C1021 H1028 0.961 . S
C1021 H1029 0.960 . S
C1022 C1020 1.381 . S
C1022 C1023 1.394 . S
C1022 H1030 0.930 . S
C1023 C1022 1.394 . S
C1023 C1024 1.383 . S
C1023 H1031 0.929 . S
C1024 C1023 1.383 . S
C1024 C1025 1.377 . S
C1025 H1009 0.930 . S
C1025 C1024 1.377 . S
C1025 C1026 1.379 . S
C1026 H1010 0.931 . S
C1026 C1020 1.383 . S
C1026 C1025 1.379 . S
H1027 C1021 0.959 . S
H1028 C1021 0.961 . S
H1029 C1021 0.960 . S
H1030 C1022 0.930 . S
H1031 C1023 0.929 . S
H1032 C1040 0.929 . S
H1033 C1042 0.930 . S
H1034 C1044 0.930 . S
H1035 C1047 0.929 . S
H1036 C1050 0.930 . S
H1037 C1052 0.960 . S
H1038 C1052 0.960 . S
H1039 C1052 0.960 . S
C1040 H1032 0.929 . S
C1040 C1041 1.377 . S
C1040 C1042 1.384 . S
C1041 C1040 1.377 . S
C1041 C1047 1.390 . S
C1042 H1033 0.930 . S
C1042 C1040 1.384 . S
C1042 C1043 1.372 . S
C1043 C1042 1.372 . S
C1043 C1044 1.400 . S
C1043 C1048 1.490 . S
C1044 H1034 0.930 . S
C1044 C1043 1.400 . S
C1044 C1047 1.386 . S
H1045 C1061 0.930 . S
H1046 C1062 0.931 . S
C1047 H1035 0.929 . S
C1047 C1041 1.390 . S
C1047 C1044 1.386 . S
C1048 C1043 1.490 . S
C1048 C1050 1.395 . S
C1048 C1051 1.403 . S
H1049 C1055 0.930 . S
C1050 H1036 0.930 . S
C1050 C1048 1.395 . S
C1050 C1053 1.403 . S
C1051 C1048 1.403 . S
C1051 C1052 1.524 . S
C1051 C1055 1.400 . S
C1052 H1037 0.960 . S
C1052 H1038 0.960 . S
C1052 H1039 0.960 . S
C1052 C1051 1.524 . S
C1053 C1050 1.403 . S
C1053 C1054 1.392 . S
C1053 C1057 1.495 . S
C1054 C1053 1.392 . S
C1054 C1055 1.385 . S
C1054 C1056 1.478 . S
C1055 H1049 0.930 . S
C1055 C1051 1.400 . S
C1055 C1054 1.385 . S
C1056 C1054 1.478 . S
C1056 C1058 1.381 . S
C1056 C1062 1.383 . S
C1057 C1053 1.495 . S
C1057 H1063 0.959 . S
C1057 H1064 0.961 . S
C1057 H1065 0.960 . S
C1058 C1056 1.381 . S
C1058 C1059 1.394 . S
C1058 H1066 0.930 . S
C1059 C1058 1.394 . S
C1059 C1060 1.383 . S
C1059 H1067 0.929 . S
C1060 C1059 1.383 . S
C1060 C1061 1.377 . S
C1061 H1045 0.930 . S
C1061 C1060 1.377 . S
C1061 C1062 1.379 . S
C1062 H1046 0.931 . S
C1062 C1056 1.383 . S
C1062 C1061 1.379 . S
H1063 C1057 0.959 . S
H1064 C1057 0.961 . S
H1065 C1057 0.960 . S
H1066 C1058 0.930 . S
H1067 C1059 0.929 . S
H1068 C1076 0.929 . S
H1069 C1078 0.930 . S
H1070 C1080 0.930 . S
H1071 C1083 0.929 . S
H1072 C1086 0.930 . S
H1073 C1088 0.960 . S
H1074 C1088 0.960 . S
H1075 C1088 0.960 . S
C1076 H1068 0.929 . S
C1076 C1077 1.377 . S
C1076 C1078 1.384 . S
C1077 C1076 1.377 . S
C1077 C1083 1.390 . S
C1078 H1069 0.930 . S
C1078 C1076 1.384 . S
C1078 C1079 1.372 . S
C1079 C1078 1.372 . S
C1079 C1080 1.400 . S
C1079 C1084 1.490 . S
C1080 H1070 0.930 . S
C1080 C1079 1.400 . S
C1080 C1083 1.386 . S
H1081 C1097 0.930 . S
H1082 C1098 0.931 . S
C1083 H1071 0.929 . S
C1083 C1077 1.390 . S
C1083 C1080 1.386 . S
C1084 C1079 1.490 . S
C1084 C1086 1.395 . S
C1084 C1087 1.403 . S
H1085 C1091 0.930 . S
C1086 H1072 0.930 . S
C1086 C1084 1.395 . S
C1086 C1089 1.403 . S
C1087 C1084 1.403 . S
C1087 C1088 1.524 . S
C1087 C1091 1.400 . S
C1088 H1073 0.960 . S
C1088 H1074 0.960 . S
C1088 H1075 0.960 . S
C1088 C1087 1.524 . S
C1089 C1086 1.403 . S
C1089 C1090 1.392 . S
C1089 C1093 1.495 . S
C1090 C1089 1.392 . S
C1090 C1091 1.385 . S
C1090 C1092 1.478 . S
C1091 H1085 0.930 . S
C1091 C1087 1.400 . S
C1091 C1090 1.385 . S
C1092 C1090 1.478 . S
C1092 C1094 1.381 . S
C1092 C1098 1.383 . S
C1093 C1089 1.495 . S
C1093 H1099 0.959 . S
C1093 H1100 0.961 . S
C1093 H1101 0.960 . S
C1094 C1092 1.381 . S
C1094 C1095 1.394 . S
C1094 H1102 0.930 . S
C1095 C1094 1.394 . S
C1095 C1096 1.383 . S
C1095 H1103 0.929 . S
C1096 C1095 1.383 . S
C1096 C1097 1.377 . S
C1097 H1081 0.930 . S
C1097 C1096 1.377 . S
C1097 C1098 1.379 . S
C1098 H1082 0.931 . S
C1098 C1092 1.383 . S
C1098 C1097 1.379 . S
H1099 C1093 0.959 . S
H1100 C1093 0.961 . S
H1101 C1093 0.960 . S
H1102 C1094 0.930 . S
H1103 C1095 0.929 . S
C249 N1 2.158 . S
C268 C104 2.197 . S
C285 N18 2.664 . S
C304 C146 2.706 . S
C340 C176 0.457 . S
C321 N28 0.473 . S
C357 N40 1.172 . S
C376 C210 1.192 . S
C412 C167 2.305 . S
C393 N5 2.271 . S
C448 C121 1.909 . S
C429 N14 1.853 . S
C484 C214 1.272 . S
C465 N31 1.233 . S
C520 C180 0.785 . S
C501 N41 0.771 . S
C537 N2 2.061 . S
C556 C235 2.075 . S
C592 C142 1.170 . S
C573 N27 1.139 . S
C609 N44 1.255 . S
C628 C117 1.275 . S
C645 N15 1.927 . S
C664 C201 1.931 . S
C700 C133 2.692 . S
C681 N57 2.664 . S
C717 N70 1.961 . S
C736 C155 1.999 . S
C753 N79 0.885 . S
C772 C185 0.895 . S
C789 N93 0.772 . S
C808 C219 0.772 . S
C825 N54 1.750 . S
C844 C138 1.756 . S
C880 C112 2.385 1_655 S
C861 N66 2.344 . S
C916 C223 0.501 . S
C897 N80 0.529 . S
C952 C189 1.377 . S
C933 N96 1.347 . S
C969 N53 2.082 . S
C988 C206 2.129 . S
C1024 C151 1.105 . S
C1005 N83 1.111 . S
C1060 C108 1.257 . S
C1041 N92 1.216 . S
C1077 N67 2.031 . S
C1096 C172 2.042 . S
