# Generated by pormake.
# Topology hwx, (6,3)-cn, num edge types: 1
# Building blocks:
#     Node 0, Type 0, BuildingBlock: OJICUG_clean_sbu_0, # of connection points: 6
#     Node 1, Type 0, BuildingBlock: OJICUG_clean_sbu_0, # of connection points: 6
#     Node 2, Type 0, BuildingBlock: OJICUG_clean_sbu_0, # of connection points: 6
#     Node 3, Type 0, BuildingBlock: OJICUG_clean_sbu_0, # of connection points: 6
#     Node 4, Type 1, BuildingBlock: KAKCAD_clean_linker_0, # of connection points: 3
#     Node 5, Type 1, BuildingBlock: KAKCAD_clean_linker_0, # of connection points: 3
#     Node 6, Type 1, BuildingBlock: KAKCAD_clean_linker_0, # of connection points: 3
#     Node 7, Type 1, BuildingBlock: KAKCAD_clean_linker_0, # of connection points: 3
#     Node 8, Type 1, BuildingBlock: KAKCAD_clean_linker_0, # of connection points: 3
#     Node 9, Type 1, BuildingBlock: KAKCAD_clean_linker_0, # of connection points: 3
#     Node 10, Type 1, BuildingBlock: KAKCAD_clean_linker_0, # of connection points: 3
#     Node 11, Type 1, BuildingBlock: KAKCAD_clean_linker_0, # of connection points: 3
#     Edge 12, Type (0, 1), BuildingBlock: OJICUG_clean_linker_0, # of connection points: 2
#     Edge 13, Type (0, 1), BuildingBlock: OJICUG_clean_linker_0, # of connection points: 2
#     Edge 14, Type (0, 1), BuildingBlock: OJICUG_clean_linker_0, # of connection points: 2
#     Edge 15, Type (0, 1), BuildingBlock: OJICUG_clean_linker_0, # of connection points: 2
#     Edge 16, Type (0, 1), BuildingBlock: OJICUG_clean_linker_0, # of connection points: 2
#     Edge 17, Type (0, 1), BuildingBlock: OJICUG_clean_linker_0, # of connection points: 2
#     Edge 18, Type (0, 1), BuildingBlock: OJICUG_clean_linker_0, # of connection points: 2
#     Edge 19, Type (0, 1), BuildingBlock: OJICUG_clean_linker_0, # of connection points: 2
#     Edge 20, Type (0, 1), BuildingBlock: OJICUG_clean_linker_0, # of connection points: 2
#     Edge 21, Type (0, 1), BuildingBlock: OJICUG_clean_linker_0, # of connection points: 2
#     Edge 22, Type (0, 1), BuildingBlock: OJICUG_clean_linker_0, # of connection points: 2
#     Edge 23, Type (0, 1), BuildingBlock: OJICUG_clean_linker_0, # of connection points: 2
#     Edge 24, Type (0, 1), BuildingBlock: OJICUG_clean_linker_0, # of connection points: 2
#     Edge 25, Type (0, 1), BuildingBlock: OJICUG_clean_linker_0, # of connection points: 2
#     Edge 26, Type (0, 1), BuildingBlock: OJICUG_clean_linker_0, # of connection points: 2
#     Edge 27, Type (0, 1), BuildingBlock: OJICUG_clean_linker_0, # of connection points: 2
#     Edge 28, Type (0, 1), BuildingBlock: OJICUG_clean_linker_0, # of connection points: 2
#     Edge 29, Type (0, 1), BuildingBlock: OJICUG_clean_linker_0, # of connection points: 2
#     Edge 30, Type (0, 1), BuildingBlock: OJICUG_clean_linker_0, # of connection points: 2
#     Edge 31, Type (0, 1), BuildingBlock: OJICUG_clean_linker_0, # of connection points: 2
#     Edge 32, Type (0, 1), BuildingBlock: OJICUG_clean_linker_0, # of connection points: 2
#     Edge 33, Type (0, 1), BuildingBlock: OJICUG_clean_linker_0, # of connection points: 2
#     Edge 34, Type (0, 1), BuildingBlock: OJICUG_clean_linker_0, # of connection points: 2
#     Edge 35, Type (0, 1), BuildingBlock: OJICUG_clean_linker_0, # of connection points: 2
# Relax obj value: 0.076
# Max RMSD: 0.101
# Mean RMSD: 0.093
data_MOF--net-hwx--node1-OJICUG_clean_sbu_0--node2-KAKCAD_clean_linker_0--edge1-OJICUG_clean_linker_0
_symmetry_space_group_name_H-M    P1
_symmetry_Int_Tables_number       1
_symmetry_cell_setting            triclinic
loop_
_symmetry_equiv_pos_as_xyz
'x, y, z'
_cell_length_a     48.201295
_cell_length_b     48.168597
_cell_length_c     21.746007
_cell_angle_alpha  89.849892
_cell_angle_beta   90.136373
_cell_angle_gamma 89.9241
loop_
_atom_site_label
_atom_site_type_symbol
_atom_site_fract_x
_atom_site_fract_y
_atom_site_fract_z
_atom_type_partial_charge
Sc0 Sc 0.20749 0.2028 0.08504 0.0
Sc1 Sc 0.16252 0.15645 0.00754 0.0
Sc2 Sc 0.20471 0.20333 0.92437 0.0
O3 O 0.19155 0.18747 0.00567 0.0
C4 C 0.2002 0.25801 0.00565 0.0
C5 C 0.14337 0.19506 0.11808 0.0
C6 C 0.13986 0.19549 0.90032 0.0
C7 C 0.20451 0.1379 0.11348 0.0
C8 C 0.26132 0.202 0.00023 0.0
C9 C 0.20129 0.13839 0.89634 0.0
O10 O 0.2024 0.24524 0.05661 0.0
O11 O 0.13841 0.17666 0.07775 0.0
O12 O 0.16319 0.20669 0.88986 0.0
O13 O 0.21451 0.162 0.12155 0.0
O14 O 0.2477 0.20229 0.95017 0.0
O15 O 0.18345 0.13281 0.93748 0.0
O16 O 0.24968 0.20206 0.0526 0.0
O17 O 0.18523 0.13273 0.07521 0.0
O18 O 0.21052 0.16268 0.88649 0.0
O19 O 0.16714 0.20584 0.12601 0.0
O20 O 0.20075 0.24568 0.95409 0.0
O21 O 0.1363 0.17653 0.94025 0.0
Sc22 Sc 0.28153 0.70259 0.42417 0.0
Sc23 Sc 0.32934 0.66049 0.50524 0.0
Sc24 Sc 0.28031 0.70121 0.58542 0.0
O25 O 0.29704 0.68803 0.50495 0.0
C26 C 0.28104 0.75709 0.50672 0.0
C27 C 0.34676 0.70191 0.39791 0.0
C28 C 0.34509 0.70013 0.61689 0.0
C29 C 0.29237 0.63879 0.39349 0.0
C30 C 0.22598 0.69542 0.50224 0.0
C31 C 0.29084 0.63683 0.61227 0.0
O32 O 0.28142 0.74485 0.45508 0.0
O33 O 0.35266 0.68369 0.43821 0.0
O34 O 0.32041 0.7085 0.62551 0.0
O35 O 0.27999 0.66178 0.38477 0.0
O36 O 0.23821 0.69617 0.55407 0.0
O37 O 0.30982 0.63409 0.57225 0.0
O38 O 0.23893 0.69723 0.45154 0.0
O39 O 0.31086 0.63529 0.43458 0.0
O40 O 0.27836 0.65968 0.62189 0.0
O41 O 0.32221 0.71042 0.3878 0.0
O42 O 0.28047 0.74411 0.55765 0.0
O43 O 0.3516 0.68254 0.57592 0.0
Sc44 Sc 0.78158 0.78143 0.91092 0.0
Sc45 Sc 0.82077 0.83174 0.99074 0.0
Sc46 Sc 0.78422 0.77996 0.07229 0.0
O47 O 0.79556 0.79773 0.99132 0.0
C48 C 0.72764 0.7791 0.99579 0.0
C49 C 0.77848 0.84666 0.88274 0.0
C50 C 0.78256 0.84458 0.10647 0.0
C51 C 0.84441 0.79575 0.87873 0.0
C52 C 0.79156 0.72608 0.98863 0.0
C53 C 0.84799 0.79368 0.09605 0.0
O54 O 0.73949 0.77966 0.94356 0.0
O55 O 0.79547 0.8538 0.92459 0.0
O56 O 0.77663 0.81923 0.11573 0.0
O57 O 0.82235 0.7817 0.87127 0.0
O58 O 0.7903 0.73816 0.04037 0.0
O59 O 0.84889 0.81361 0.05748 0.0
O60 O 0.78903 0.73907 0.93806 0.0
O61 O 0.84671 0.81482 0.91888 0.0
O62 O 0.82629 0.77926 0.10529 0.0
O63 O 0.77212 0.8215 0.87259 0.0
O64 O 0.74101 0.77915 0.04635 0.0
O65 O 0.79774 0.8526 0.06213 0.0
Sc66 Sc 0.70246 0.28138 0.56222 0.0
Sc67 Sc 0.66762 0.33396 0.47917 0.0
Sc68 Sc 0.70569 0.28224 0.401 0.0
O69 O 0.69188 0.29919 0.48074 0.0
C70 C 0.75908 0.27782 0.48766 0.0
C71 C 0.70664 0.34628 0.59374 0.0
C72 C 0.71068 0.34701 0.37172 0.0
C73 C 0.63952 0.29755 0.58562 0.0
C74 C 0.69371 0.22749 0.47889 0.0
C75 C 0.64305 0.29858 0.36794 0.0
O76 O 0.74559 0.27924 0.53774 0.0
O77 O 0.69216 0.35463 0.54838 0.0
O78 O 0.71769 0.32184 0.36402 0.0
O79 O 0.66039 0.28185 0.59409 0.0
O80 O 0.69609 0.24031 0.42808 0.0
O81 O 0.64076 0.31698 0.4095 0.0
O82 O 0.69564 0.23963 0.53051 0.0
O83 O 0.63954 0.31774 0.54775 0.0
O84 O 0.66517 0.28468 0.3593 0.0
O85 O 0.71098 0.32072 0.60484 0.0
O86 O 0.74745 0.27817 0.4351 0.0
O87 O 0.6925 0.35453 0.4105 0.0
C88 C 0.24223 0.53574 0.79207 0.0
C89 C 0.2683 0.54803 0.78255 0.0
C90 C 0.23759 0.51911 0.8438 0.0
C91 C 0.25884 0.51495 0.88709 0.0
C92 C 0.28521 0.5262 0.87614 0.0
C93 C 0.28995 0.54246 0.82412 0.0
C94 C 0.25288 0.50135 0.94645 0.0
C95 C 0.24079 0.47493 0.94894 0.0
C96 C 0.23513 0.46235 0.00601 0.0
C97 C 0.24075 0.477 0.06047 0.0
C98 C 0.25294 0.50335 0.05825 0.0
C99 C 0.25912 0.51531 0.00118 0.0
C100 C 0.2591 0.51872 0.11525 0.0
C101 C 0.23837 0.52289 0.15951 0.0
C102 C 0.28536 0.53067 0.12393 0.0
C103 C 0.29056 0.54729 0.17506 0.0
C104 C 0.26948 0.5525 0.21797 0.0
C105 C 0.22507 0.43332 0.009 0.0
C106 C 0.20502 0.4235 0.96738 0.0
C107 C 0.23655 0.41485 0.05225 0.0
C108 C 0.22856 0.38709 0.05321 0.0
C109 C 0.20898 0.37709 0.01083 0.0
C110 C 0.19707 0.39561 0.96822 0.0
C111 C 0.24346 0.53984 0.2103 0.0
H112 H 0.22526 0.53965 0.76044 0.0
H113 H 0.21706 0.51069 0.85158 0.0
H114 H 0.30191 0.52313 0.90892 0.0
H115 H 0.31017 0.55188 0.81815 0.0
H116 H 0.23679 0.46385 0.90652 0.0
H117 H 0.2681 0.53593 -0.00069 0.0
H118 H 0.23608 0.46775 0.10475 0.0
H119 H 0.21794 0.51394 0.15356 0.0
H120 H 0.30171 0.52755 0.09053 0.0
H121 H 0.31071 0.55701 0.17966 0.0
H122 H 0.19559 0.43734 0.93399 0.0
H123 H 0.25245 0.42161 0.08411 0.0
H124 H 0.22694 0.54348 0.243 0.0
H125 H 0.18177 0.38848 0.93534 0.0
H126 H 0.23855 0.37322 0.08575 0.0
C127 C 0.95144 0.74944 0.27625 0.0
C128 C 0.93782 0.77496 0.267 0.0
C129 C 0.968 0.74517 0.32836 0.0
C130 C 0.97089 0.76623 0.37244 0.0
C131 C 0.95836 0.79214 0.36171 0.0
C132 C 0.9421 0.79651 0.30938 0.0
C133 C 0.98452 0.76043 0.43219 0.0
C134 C 0.01088 0.74806 0.43519 0.0
C135 C 0.0233 0.74215 0.49246 0.0
C136 C 0.00856 0.74802 0.54674 0.0
C137 C 0.98227 0.76047 0.54418 0.0
C138 C 0.97051 0.76675 0.48682 0.0
C139 C 0.96653 0.76642 0.60103 0.0
C140 C 0.96274 0.7457 0.64576 0.0
C141 C 0.9537 0.79237 0.60896 0.0
C142 C 0.93663 0.79721 0.6596 0.0
C143 C 0.93183 0.7761 0.70294 0.0
C144 C 0.05202 0.73095 0.49586 0.0
C145 C 0.0613 0.71068 0.4542 0.0
C146 C 0.07069 0.74118 0.54007 0.0
C147 C 0.09801 0.73166 0.54219 0.0
C148 C 0.10745 0.71173 0.50002 0.0
C149 C 0.08876 0.7012 0.45619 0.0
C150 C 0.94539 0.75044 0.6961 0.0
H151 H 0.94863 0.73254 0.24407 0.0
H152 H 0.97737 0.72498 0.33575 0.0
H153 H 0.96044 0.80876 0.39488 0.0
H154 H 0.9317 0.81631 0.30379 0.0
H155 H 0.02198 0.74385 0.39294 0.0
H156 H 0.94989 0.77575 0.48465 0.0
H157 H 0.0176 0.74312 0.59114 0.0
H158 H 0.9723 0.72548 0.64053 0.0
H159 H 0.95646 0.80875 0.57529 0.0
H160 H 0.92628 0.8171 0.66344 0.0
H161 H 0.04735 0.70211 0.42009 0.0
H162 H 0.06443 0.75719 0.57206 0.0
H163 H 0.94216 0.73388 0.72909 0.0
H164 H 0.09537 0.68567 0.42341 0.0
H165 H 0.11202 0.74063 0.57569 0.0
C166 C 0.75053 0.45277 0.19426 0.0
C167 C 0.75721 0.42433 0.19648 0.0
C168 C 0.75753 0.46888 0.14303 0.0
C169 C 0.77176 0.45706 0.09311 0.0
C170 C 0.78 0.4291 0.09715 0.0
C171 C 0.77259 0.4129 0.14776 0.0
C172 C 0.77586 0.47302 0.03508 0.0
C173 C 0.78125 0.50168 0.03592 0.0
C174 C 0.78237 0.51713 0.98092 0.0
C175 C 0.77857 0.50345 0.92442 0.0
C176 C 0.77387 0.47475 0.9229 0.0
C177 C 0.77246 0.45978 0.97811 0.0
C178 C 0.76862 0.46011 0.86442 0.0
C179 C 0.74636 0.46796 0.82644 0.0
C180 C 0.78383 0.43615 0.85023 0.0
C181 C 0.77605 0.41945 0.80083 0.0
C182 C 0.75253 0.4261 0.76521 0.0
C183 C 0.78633 0.54769 0.98284 0.0
C184 C 0.77244 0.56369 0.02712 0.0
C185 C 0.80354 0.56116 0.94004 0.0
C186 C 0.80664 0.59002 0.94133 0.0
C187 C 0.79262 0.606 0.9855 0.0
C188 C 0.77556 0.59248 0.02847 0.0
C189 C 0.73829 0.45102 0.77736 0.0
H190 H 0.73927 0.46252 0.23143 0.0
H191 H 0.75069 0.49029 0.14158 0.0
H192 H 0.79151 0.41942 0.06025 0.0
H193 H 0.77797 0.39108 0.14716 0.0
H194 H 0.78457 0.51202 0.0795 0.0
H195 H 0.76735 0.43789 0.97645 0.0
H196 H 0.7788 0.5151 0.88172 0.0
H197 H 0.73421 0.48627 0.83692 0.0
H198 H 0.80123 0.42985 0.87872 0.0
H199 H 0.78796 0.40083 0.79179 0.0
H200 H 0.75861 0.55404 0.06001 0.0
H201 H 0.81477 0.54937 0.9058 0.0
H202 H 0.72 0.45671 0.7512 0.0
H203 H 0.76403 0.60421 0.06231 0.0
H204 H 0.82015 0.59981 0.90801 0.0
C205 C 0.02898 0.22017 0.72383 0.0
C206 C 0.05601 0.23091 0.72913 0.0
C207 C 0.01307 0.22547 0.67118 0.0
C208 C 0.02392 0.24162 0.62302 0.0
C209 C 0.05032 0.2535 0.62983 0.0
C210 C 0.06623 0.24807 0.68194 0.0
C211 C 0.00891 0.24453 0.56384 0.0
C212 C 0.98031 0.24969 0.56194 0.0
C213 C 0.96641 0.25226 0.50528 0.0
C214 C 0.98149 0.24982 0.45024 0.0
C215 C 0.01012 0.24461 0.45158 0.0
C216 C 0.0235 0.24169 0.50854 0.0
C217 C 0.02636 0.24151 0.39416 0.0
C218 C 0.0161 0.22597 0.34448 0.0
C219 C 0.05324 0.2526 0.39056 0.0
C220 C 0.07009 0.24696 0.34023 0.0
C221 C 0.06036 0.23046 0.29151 0.0
C222 C 0.93609 0.25716 0.50366 0.0
C223 C 0.91847 0.24239 0.54335 0.0
C224 C 0.92453 0.27634 0.46208 0.0
C225 C 0.89588 0.28054 0.45998 0.0
C226 C 0.87827 0.26565 0.49946 0.0
C227 C 0.88986 0.24661 0.54129 0.0
C228 C 0.03292 0.22056 0.29354 0.0
H229 H 0.02035 0.20719 0.7597 0.0
H230 H 0.99278 0.21601 0.66712 0.0
H231 H 0.05905 0.26642 0.59391 0.0
H232 H 0.08705 0.25643 0.68378 0.0
H233 H 0.96897 0.25222 0.60455 0.0
H234 H 0.04538 0.23647 0.5099 0.0
H235 H 0.97091 0.25177 0.40641 0.0
H236 H 0.99548 0.21708 0.34594 0.0
H237 H 0.06158 0.2651 0.42758 0.0
H238 H 0.09117 0.25469 0.34094 0.0
H239 H 0.92676 0.22717 0.57523 0.0
H240 H 0.93764 0.28831 0.43156 0.0
H241 H 0.02458 0.20817 0.25637 0.0
H242 H 0.87676 0.23452 0.57161 0.0
H243 H 0.88754 0.29563 0.42785 0.0
C244 C 0.71067 0.92539 0.68044 0.0
C245 C 0.73455 0.93018 0.71632 0.0
C246 C 0.70462 0.94229 0.6299 0.0
C247 C 0.72189 0.9647 0.61515 0.0
C248 C 0.7444 0.97098 0.65358 0.0
C249 C 0.75078 0.95379 0.70362 0.0
C250 C 0.71933 0.97835 0.55464 0.0
C251 C 0.71358 0.00674 0.54929 0.0
C252 C 0.71301 0.01962 0.49106 0.0
C253 C 0.71922 0.00376 0.43842 0.0
C254 C 0.72568 0.97537 0.44361 0.0
C255 C 0.72485 0.96279 0.50186 0.0
C256 C 0.73449 0.9588 0.38937 0.0
C257 C 0.72144 0.96182 0.33173 0.0
C258 C 0.75588 0.93909 0.39575 0.0
C259 C 0.76305 0.92186 0.34699 0.0
C260 C 0.7494 0.92421 0.29024 0.0
C261 C 0.70689 0.04978 0.48565 0.0
C262 C 0.68595 0.06203 0.52147 0.0
C263 C 0.72236 0.06668 0.44564 0.0
C264 C 0.7173 0.0952 0.44224 0.0
C265 C 0.69671 0.10753 0.47887 0.0
C266 C 0.68095 0.09059 0.51818 0.0
C267 C 0.72896 0.94472 0.2824 0.0
H268 H 0.69727 0.90787 0.68979 0.0
H269 H 0.68714 0.93714 0.60067 0.0
H270 H 0.75817 0.98802 0.64239 0.0
H271 H 0.76943 0.95806 0.72976 0.0
H272 H 0.70995 0.01879 0.59054 0.0
H273 H 0.72929 0.94081 0.50667 0.0
H274 H 0.71949 0.0136 0.39359 0.0
H275 H 0.70486 0.97674 0.32528 0.0
H276 H 0.76702 0.93676 0.43877 0.0
H277 H 0.77922 0.90649 0.35376 0.0
H278 H 0.67338 0.04952 0.55204 0.0
H279 H 0.73893 0.05801 0.41815 0.0
H280 H 0.71815 0.94684 0.2389 0.0
H281 H 0.66472 0.09942 0.54644 0.0
H282 H 0.73015 0.10774 0.41228 0.0
C283 C 0.54051 0.25724 0.18441 0.0
C284 C 0.55445 0.28255 0.19286 0.0
C285 C 0.52285 0.25355 0.13403 0.0
C286 C 0.5192 0.27499 0.09088 0.0
C287 C 0.53235 0.30061 0.10054 0.0
C288 C 0.54969 0.30441 0.15128 0.0
C289 C 0.50367 0.26993 0.03333 0.0
C290 C 0.47711 0.25808 0.03443 0.0
C291 C 0.46289 0.25251 0.97928 0.0
C292 C 0.47589 0.25832 0.92283 0.0
C293 C 0.5024 0.27023 0.92131 0.0
C294 C 0.51604 0.27615 0.97671 0.0
C295 C 0.51662 0.27549 0.86222 0.0
C296 C 0.5184 0.25452 0.81766 0.0
C297 C 0.53038 0.30077 0.85217 0.0
C298 C 0.54669 0.30456 0.79991 0.0
C299 C 0.54972 0.28304 0.75697 0.0
C300 C 0.43418 0.24144 0.98054 0.0
C301 C 0.42645 0.22091 0.02327 0.0
C302 C 0.41407 0.25198 0.93983 0.0
C303 C 0.3868 0.24247 0.94216 0.0
C304 C 0.37895 0.22225 0.98539 0.0
C305 C 0.39907 0.21145 0.02577 0.0
C306 C 0.53493 0.25821 0.7656 0.0
H307 H 0.54373 0.24013 0.21608 0.0
H308 H 0.51303 0.23356 0.12733 0.0
H309 H 0.52972 0.31748 0.06798 0.0
H310 H 0.56035 0.32406 0.15647 0.0
H311 H 0.46732 0.25391 0.0783 0.0
H312 H 0.53686 0.28464 0.97577 0.0
H313 H 0.46539 0.25362 0.87998 0.0
H314 H 0.50807 0.23479 0.82448 0.0
H315 H 0.52913 0.31734 0.88565 0.0
H316 H 0.55803 0.32382 0.79473 0.0
H317 H 0.44156 0.21211 0.0547 0.0
H318 H 0.41921 0.26818 0.90715 0.0
H319 H 0.53678 0.24137 0.73294 0.0
H320 H 0.39364 0.19567 0.0592 0.0
H321 H 0.37165 0.25159 0.91124 0.0
C322 C 0.23513 0.02899 0.29099 0.0
C323 C 0.2443 0.05666 0.28707 0.0
C324 C 0.24091 0.01299 0.3432 0.0
C325 C 0.25614 0.02429 0.39231 0.0
C326 C 0.26661 0.05137 0.38681 0.0
C327 C 0.26058 0.06742 0.33514 0.0
C328 C 0.25942 0.00883 0.45096 0.0
C329 C 0.26456 0.98019 0.45155 0.0
C330 C 0.26634 0.96556 0.50744 0.0
C331 C 0.2636 0.97999 0.5632 0.0
C332 C 0.25859 0.00869 0.5633 0.0
C333 C 0.25623 0.02279 0.507 0.0
C334 C 0.2546 0.02417 0.6215 0.0
C335 C 0.23847 0.01314 0.66945 0.0
C336 C 0.2653 0.05112 0.62742 0.0
C337 C 0.25865 0.06735 0.67816 0.0
C338 C 0.24153 0.05687 0.72505 0.0
C339 C 0.26998 0.93505 0.50728 0.0
C340 C 0.25483 0.91869 0.46572 0.0
C341 C 0.28812 0.92203 0.54904 0.0
C342 C 0.29104 0.89317 0.54917 0.0
C343 C 0.27589 0.87686 0.50749 0.0
C344 C 0.25777 0.88992 0.46579 0.0
C345 C 0.23208 0.02931 0.72085 0.0
H346 H 0.22293 0.01988 0.25437 0.0
H347 H 0.23247 0.99221 0.34609 0.0
H348 H 0.27886 0.06049 0.42336 0.0
H349 H 0.26776 0.0887 0.33434 0.0
H350 H 0.26733 0.96928 0.40847 0.0
H351 H 0.25088 0.04465 0.50675 0.0
H352 H 0.26493 0.96883 0.60644 0.0
H353 H 0.22983 0.99245 0.66618 0.0
H354 H 0.27822 0.06005 0.5918 0.0
H355 H 0.26607 0.08855 0.67906 0.0
H356 H 0.24028 0.92809 0.43381 0.0
H357 H 0.30027 0.93416 0.58116 0.0
H358 H 0.21925 0.02039 0.75658 0.0
H359 H 0.24545 0.87784 0.4339 0.0
H360 H 0.30536 0.88365 0.5814 0.0
C361 C 0.45327 0.73268 0.79429 0.0
C362 C 0.42538 0.74134 0.79147 0.0
C363 C 0.46976 0.73912 0.8453 0.0
C364 C 0.45882 0.75463 0.89429 0.0
C365 C 0.43151 0.76466 0.8897 0.0
C366 C 0.41493 0.75787 0.83939 0.0
C367 C 0.47489 0.75863 0.95202 0.0
C368 C 0.5036 0.76339 0.95108 0.0
C369 C 0.51875 0.76574 0.00621 0.0
C370 C 0.50471 0.76409 0.06277 0.0
C371 C 0.47595 0.75953 0.06445 0.0
C372 C 0.46142 0.75645 0.00891 0.0
C373 C 0.46081 0.75652 0.12351 0.0
C374 C 0.47198 0.74091 0.17236 0.0
C375 C 0.43386 0.76731 0.12922 0.0
C376 C 0.41767 0.76097 0.18031 0.0
C377 C 0.42819 0.7441 0.22788 0.0
C378 C 0.54936 0.76881 0.00453 0.0
C379 C 0.56516 0.75299 0.96316 0.0
C380 C 0.56306 0.78709 0.04469 0.0
C381 C 0.59196 0.78946 0.04345 0.0
C382 C 0.6077 0.77363 0.00197 0.0
C383 C 0.59398 0.75539 0.96186 0.0
C384 C 0.45587 0.73488 0.22416 0.0
H385 H 0.46224 0.72041 0.75773 0.0
H386 H 0.49069 0.73098 0.84735 0.0
H387 H 0.42259 0.77717 0.92595 0.0
H388 H 0.39354 0.76473 0.83958 0.0
H389 H 0.51417 0.76539 0.90738 0.0
H390 H 0.43956 0.75128 0.01006 0.0
H391 H 0.51621 0.76586 0.10544 0.0
H392 H 0.49268 0.73225 0.16943 0.0
H393 H 0.42483 0.77991 0.09298 0.0
H394 H 0.39643 0.76828 0.18077 0.0
H395 H 0.55528 0.73833 0.93246 0.0
H396 H 0.55143 0.79978 0.07661 0.0
H397 H 0.46491 0.72235 0.26045 0.0
H398 H 0.60557 0.74256 0.93013 0.0
H399 H 0.60194 0.80393 0.07443 0.0
C400 C 0.12068 0.2319 0.1803 0.0
C401 C 0.12057 0.20464 0.15771 0.0
H402 H 0.10097 0.2619 0.23753 0.0
C403 C 0.09907 0.18662 0.17486 0.0
H404 H 0.13673 0.24641 0.16677 0.0
C405 C 0.07889 0.19527 0.21672 0.0
C406 C 0.07956 0.22229 0.24128 0.0
H407 H 0.09854 0.16548 0.15799 0.0
H408 H 0.06351 0.18037 0.23172 0.0
C409 C 0.10023 0.24073 0.22102 0.0
C410 C 0.2592 0.61263 0.68603 0.0
C411 C 0.28369 0.61265 0.65108 0.0
H412 H 0.23502 0.59187 0.75451 0.0
C413 C 0.30189 0.58988 0.65573 0.0
H414 H 0.24464 0.62974 0.68312 0.0
C415 C 0.29637 0.56825 0.69676 0.0
C416 C 0.27239 0.56878 0.73322 0.0
H417 H 0.32091 0.58922 0.62934 0.0
H418 H 0.31116 0.55138 0.701 0.0
C419 C 0.25354 0.59083 0.72647 0.0
C420 C 0.89395 0.80753 0.14101 0.0
C421 C 0.87279 0.78769 0.13423 0.0
H422 H 0.93132 0.81899 0.18824 0.0
C423 C 0.87472 0.76262 0.16728 0.0
H424 H 0.89314 0.82703 0.11616 0.0
C425 C 0.89666 0.75798 0.20807 0.0
C426 C 0.91704 0.77838 0.21716 0.0
H427 H 0.8589 0.7468 0.1628 0.0
H428 H 0.89693 0.73892 0.23463 0.0
C429 C 0.91576 0.80299 0.1824 0.0
C430 C 0.73117 0.35815 0.69163 0.0
C431 C 0.71885 0.36698 0.63628 0.0
H432 H 0.75077 0.3697 0.77568 0.0
C433 C 0.71822 0.39555 0.62271 0.0
H434 H 0.73189 0.33636 0.70395 0.0
C435 C 0.72955 0.41482 0.66383 0.0
C436 C 0.74164 0.40592 0.71945 0.0
H437 H 0.70903 0.40306 0.58031 0.0
H438 H 0.72891 0.43665 0.65194 0.0
C439 C 0.74227 0.37734 0.7327 0.0
C440 C 0.61796 0.26934 0.29084 0.0
C441 C 0.61918 0.29358 0.32658 0.0
H442 H 0.5963 0.24678 0.221 0.0
C443 C 0.59787 0.3134 0.3208 0.0
H444 H 0.63395 0.25358 0.29449 0.0
C445 C 0.57638 0.30952 0.27847 0.0
C446 C 0.57557 0.28557 0.24182 0.0
H447 H 0.59819 0.3323 0.34768 0.0
H448 H 0.56056 0.32539 0.27382 0.0
C449 C 0.59629 0.26531 0.24915 0.0
C450 C 0.19497 0.09385 0.83926 0.0
C451 C 0.21215 0.11575 0.858 0.0
H452 H 0.19052 0.0584 0.78124 0.0
C453 C 0.23975 0.11658 0.8378 0.0
H454 H 0.17359 0.09281 0.85433 0.0
C455 C 0.24976 0.09646 0.79762 0.0
C456 C 0.23216 0.07548 0.77537 0.0
H457 H 0.25357 0.13299 0.85269 0.0
H458 H 0.27116 0.09778 0.78291 0.0
C459 C 0.20479 0.07404 0.79778 0.0
C460 C 0.36761 0.741 0.33874 0.0
C461 C 0.36926 0.71353 0.36004 0.0
H462 H 0.38574 0.77277 0.28339 0.0
C463 C 0.39189 0.697 0.34262 0.0
H464 H 0.35061 0.75434 0.35248 0.0
C465 C 0.41165 0.70726 0.3015 0.0
C466 C 0.40949 0.73447 0.27803 0.0
H467 H 0.39359 0.67572 0.35841 0.0
H468 H 0.42784 0.69335 0.28605 0.0
C469 C 0.3877 0.75148 0.29889 0.0
C470 C 0.76879 0.89671 0.85622 0.0
C471 C 0.76601 0.86831 0.84262 0.0
H472 H 0.76035 0.93857 0.8282 0.0
C473 C 0.75164 0.86059 0.78904 0.0
H474 H 0.77955 0.90338 0.89738 0.0
C475 C 0.74097 0.88066 0.7492 0.0
C476 C 0.74405 0.9091 0.76204 0.0
H477 H 0.74919 0.83894 0.7768 0.0
H478 H 0.73111 0.87376 0.70716 0.0
C479 C 0.75784 0.91689 0.81646 0.0
C480 C 0.88932 0.80964 0.82915 0.0
C481 C 0.86812 0.78997 0.83752 0.0
H482 H 0.92621 0.82064 0.77987 0.0
C483 C 0.86915 0.76502 0.80417 0.0
H484 H 0.88913 0.82906 0.85415 0.0
C485 C 0.89046 0.76015 0.76222 0.0
C486 C 0.91106 0.78022 0.75219 0.0
H487 H 0.85326 0.74934 0.80982 0.0
H488 H 0.89024 0.74106 0.73597 0.0
C489 C 0.91047 0.80489 0.78653 0.0
C490 C 0.75036 0.36392 0.30817 0.0
C491 C 0.72365 0.36822 0.33201 0.0
H492 H 0.7825 0.37886 0.24939 0.0
C493 C 0.70896 0.39222 0.315 0.0
H494 H 0.76233 0.34578 0.32126 0.0
C495 C 0.72017 0.41084 0.27242 0.0
C496 C 0.74659 0.40617 0.24682 0.0
H497 H 0.68826 0.39598 0.33247 0.0
H498 H 0.70754 0.42825 0.25778 0.0
C499 C 0.76183 0.38283 0.26665 0.0
C500 C 0.11484 0.23289 0.84418 0.0
C501 C 0.11603 0.20512 0.86358 0.0
H502 H 0.09403 0.26321 0.78918 0.0
C503 C 0.09532 0.18659 0.84452 0.0
H504 H 0.13028 0.24773 0.85933 0.0
C505 C 0.07486 0.19527 0.80298 0.0
C506 C 0.07456 0.22277 0.78078 0.0
H507 H 0.09582 0.16505 0.85901 0.0
H508 H 0.06027 0.18006 0.78587 0.0
C509 C 0.09413 0.24171 0.80384 0.0
C510 C 0.30398 0.59302 0.34562 0.0
C511 C 0.28547 0.61536 0.35259 0.0
H512 H 0.31335 0.55544 0.29729 0.0
C513 C 0.26075 0.6157 0.31817 0.0
H514 H 0.32319 0.59216 0.37153 0.0
C515 C 0.25505 0.59457 0.2763 0.0
C516 C 0.27409 0.57287 0.26755 0.0
H517 H 0.24597 0.63252 0.32285 0.0
H518 H 0.23625 0.59579 0.24901 0.0
C519 C 0.29843 0.57206 0.3031 0.0
C520 C 0.36489 0.7385 0.6797 0.0
C521 C 0.36705 0.71136 0.65693 0.0
H522 H 0.38236 0.76982 0.7371 0.0
C523 C 0.38976 0.69488 0.67448 0.0
H524 H 0.34783 0.75182 0.66594 0.0
C525 C 0.40919 0.70488 0.71676 0.0
C526 C 0.40662 0.7318 0.7413 0.0
H527 H 0.39184 0.67384 0.65761 0.0
H528 H 0.42554 0.69102 0.73197 0.0
C529 C 0.38464 0.74874 0.72075 0.0
C530 C 0.76288 0.85643 0.20926 0.0
C531 C 0.77235 0.86529 0.15133 0.0
H532 H 0.7483 0.86824 0.29827 0.0
C533 C 0.77276 0.89392 0.13811 0.0
H534 H 0.76228 0.83458 0.22113 0.0
C535 C 0.76435 0.91323 0.18243 0.0
C536 C 0.7559 0.90421 0.24089 0.0
H537 H 0.77979 0.9014 0.0938 0.0
H538 H 0.76528 0.93519 0.17178 0.0
C539 C 0.75495 0.87567 0.2536 0.0
C540 C 0.61157 0.26771 0.65639 0.0
C541 C 0.61464 0.29279 0.6239 0.0
H542 H 0.5885 0.24498 0.72353 0.0
C543 C 0.59461 0.31375 0.63134 0.0
H544 H 0.62651 0.25105 0.65136 0.0
C545 C 0.5728 0.31024 0.67289 0.0
C546 C 0.57043 0.28558 0.7071 0.0
H547 H 0.59634 0.33329 0.60689 0.0
H548 H 0.55812 0.32703 0.67927 0.0
C549 C 0.58964 0.26411 0.69736 0.0
C550 C 0.24302 0.11615 0.17304 0.0
C551 C 0.21553 0.11515 0.15174 0.0
H552 H 0.27414 0.09767 0.22992 0.0
C553 C 0.19841 0.09311 0.17008 0.0
H554 H 0.25682 0.13267 0.15863 0.0
C555 C 0.2081 0.07339 0.2122 0.0
C556 C 0.23527 0.07507 0.23584 0.0
H557 H 0.17711 0.09191 0.15432 0.0
H558 H 0.19382 0.05766 0.22836 0.0
C559 C 0.25288 0.09615 0.21407 0.0
C560 C 0.20014 0.30397 0.95133 0.0
C561 C 0.1987 0.28868 0.00642 0.0
H562 H 0.20463 0.34398 0.90961 0.0
C563 C 0.19764 0.30304 0.06258 0.0
H564 H 0.20085 0.29361 0.90722 0.0
C565 C 0.19958 0.33191 0.06381 0.0
C566 C 0.20264 0.34705 0.00897 0.0
H567 H 0.19615 0.29196 0.10586 0.0
H568 H 0.19943 0.34235 0.10787 0.0
C569 C 0.20212 0.33288 0.95261 0.0
C570 C 0.18005 0.6951 0.55631 0.0
C571 C 0.19519 0.69519 0.50109 0.0
H572 H 0.1404 0.69977 0.59918 0.0
C573 C 0.18067 0.6977 0.44511 0.0
H574 H 0.19045 0.69294 0.60027 0.0
C575 C 0.15195 0.70175 0.44462 0.0
C576 C 0.13711 0.70336 0.50004 0.0
H577 H 0.1916 0.69775 0.40165 0.0
H578 H 0.14161 0.70503 0.40092 0.0
C579 C 0.15136 0.69916 0.55577 0.0
C580 C 0.79365 0.68091 0.93134 0.0
C581 C 0.79447 0.69543 0.98739 0.0
H582 H 0.79219 0.64136 0.88683 0.0
C583 C 0.79658 0.68022 0.04251 0.0
H584 H 0.79207 0.69191 0.88796 0.0
C585 C 0.79679 0.65123 0.04173 0.0
C586 C 0.79491 0.63674 0.98587 0.0
H587 H 0.79748 0.69065 0.08652 0.0
H588 H 0.79811 0.64014 0.08504 0.0
C589 C 0.79387 0.6519 0.93061 0.0
C590 C 0.80334 0.27409 0.5478 0.0
C591 C 0.78965 0.27541 0.49069 0.0
H592 H 0.84209 0.27033 0.59529 0.0
C593 C 0.80546 0.27411 0.43649 0.0
H594 H 0.79186 0.27516 0.59049 0.0
C595 C 0.83425 0.27126 0.43937 0.0
C596 C 0.84784 0.2696 0.49645 0.0
H597 H 0.79563 0.27508 0.39169 0.0
H598 H 0.8458 0.26979 0.39684 0.0
C599 C 0.83212 0.27119 0.55063 0.0
C600 C 0.69276 0.18205 0.42252 0.0
C601 C 0.69095 0.1968 0.47813 0.0
H602 H 0.69568 0.14231 0.37909 0.0
C603 C 0.68877 0.18178 0.53349 0.0
H604 H 0.69433 0.19288 0.37896 0.0
C605 C 0.68965 0.15279 0.53347 0.0
C606 C 0.69278 0.13812 0.47813 0.0
H607 H 0.68728 0.1924 0.5772 0.0
H608 H 0.68906 0.14192 0.57711 0.0
C609 C 0.69372 0.15305 0.42256 0.0
C610 C 0.30542 0.20415 0.93978 0.0
C611 C 0.29196 0.20366 -0.0029 0.0
H612 H 0.34354 0.20995 0.89129 0.0
C613 C 0.30791 0.20675 0.05089 0.0
H614 H 0.29388 0.20154 0.8974 0.0
C615 C 0.33643 0.21166 0.04723 0.0
C616 C 0.34954 0.21358 0.98975 0.0
H617 H 0.29827 0.20639 0.09582 0.0
H618 H 0.34795 0.21519 0.08931 0.0
C619 C 0.33388 0.20908 0.93618 0.0
C620 C 0.27985 0.80243 0.56315 0.0
C621 C 0.28086 0.78779 0.50732 0.0
H622 H 0.27731 0.8421 0.60693 0.0
C623 C 0.28128 0.80279 0.45176 0.0
H624 H 0.27956 0.79154 0.60679 0.0
C625 C 0.28014 0.8317 0.45198 0.0
C626 C 0.27858 0.84627 0.50769 0.0
H627 H 0.28227 0.79224 0.4079 0.0
H628 H 0.28047 0.84266 0.40843 0.0
C629 C 0.27874 0.83139 0.56331 0.0
C630 C 0.68143 0.77772 0.94273 0.0
C631 C 0.69692 0.77828 -0.00237 0.0
H632 H 0.64122 0.77621 0.90114 0.0
C633 C 0.68272 0.77795 0.05409 0.0
H634 H 0.69161 0.7781 0.89838 0.0
C635 C 0.65376 0.77679 0.05555 0.0
C636 C 0.63838 0.77587 0.00063 0.0
H637 H 0.69394 0.7784 0.09728 0.0
H638 H 0.64345 0.77605 0.09972 0.0
C639 C 0.65252 0.77651 0.94425 0.0
loop_
_geom_bond_atom_site_label_1
_geom_bond_atom_site_label_2
_geom_bond_distance
_geom_bond_site_symmetry_2
_ccdc_geom_bond_type
Sc0 O3 2.029 . S
Sc0 O10 2.105 . S
Sc0 O13 2.105 . S
Sc0 O16 2.105 . S
Sc0 O19 2.105 . S
Sc1 O3 2.025 . S
Sc1 O11 2.108 . S
Sc1 O15 2.102 1_554 S
Sc1 O17 2.108 . S
Sc1 O21 2.102 1_554 S
Sc2 O3 2.022 1_556 S
Sc2 O12 2.105 . S
Sc2 O14 2.105 . S
Sc2 O18 2.105 . S
Sc2 O20 2.105 . S
O3 Sc0 2.029 . S
O3 Sc1 2.025 . S
O3 Sc2 2.022 1_554 S
C4 O10 1.269 . S
C4 O20 1.267 1_554 S
C5 O11 1.268 . S
C5 O19 1.268 . S
C6 O12 1.268 . S
C6 O21 1.268 . S
C7 O13 1.268 . S
C7 O17 1.268 . S
C8 O14 1.262 1_554 S
C8 O16 1.274 . S
C9 O15 1.268 . S
C9 O18 1.268 . S
O10 Sc0 2.105 . S
O10 C4 1.269 . S
O11 Sc1 2.108 . S
O11 C5 1.268 . S
O12 Sc2 2.105 . S
O12 C6 1.268 . S
O13 Sc0 2.105 . S
O13 C7 1.268 . S
O14 Sc2 2.105 . S
O14 C8 1.262 1_556 S
O15 Sc1 2.102 1_556 S
O15 C9 1.268 . S
O16 Sc0 2.105 . S
O16 C8 1.274 . S
O17 Sc1 2.108 . S
O17 C7 1.268 . S
O18 Sc2 2.105 . S
O18 C9 1.268 . S
O19 Sc0 2.105 . S
O19 C5 1.268 . S
O20 Sc2 2.105 . S
O20 C4 1.267 1_556 S
O21 Sc1 2.102 1_556 S
O21 C6 1.268 . S
Sc22 O25 2.025 . S
Sc22 O32 2.105 . S
Sc22 O35 2.105 . S
Sc22 O38 2.105 . S
Sc22 O41 2.105 . S
Sc23 O25 2.025 . S
Sc23 O33 2.105 . S
Sc23 O37 2.105 . S
Sc23 O39 2.105 . S
Sc23 O43 2.105 . S
Sc24 O25 2.025 . S
Sc24 O34 2.105 . S
Sc24 O36 2.105 . S
Sc24 O40 2.105 . S
Sc24 O42 2.105 . S
O25 Sc22 2.025 . S
O25 Sc23 2.025 . S
O25 Sc24 2.025 . S
C26 O32 1.268 . S
C26 O42 1.268 . S
C27 O33 1.268 . S
C27 O41 1.268 . S
C28 O34 1.268 . S
C28 O43 1.268 . S
C29 O35 1.268 . S
C29 O39 1.268 . S
C30 O36 1.268 . S
C30 O38 1.268 . S
C31 O37 1.268 . S
C31 O40 1.268 . S
O32 Sc22 2.105 . S
O32 C26 1.268 . S
O33 Sc23 2.105 . S
O33 C27 1.268 . S
O34 Sc24 2.105 . S
O34 C28 1.268 . S
O35 Sc22 2.105 . S
O35 C29 1.268 . S
O36 Sc24 2.105 . S
O36 C30 1.268 . S
O37 Sc23 2.105 . S
O37 C31 1.268 . S
O38 Sc22 2.105 . S
O38 C30 1.268 . S
O39 Sc23 2.105 . S
O39 C29 1.268 . S
O40 Sc24 2.105 . S
O40 C31 1.268 . S
O41 Sc22 2.105 . S
O41 C27 1.268 . S
O42 Sc24 2.105 . S
O42 C26 1.268 . S
O43 Sc23 2.105 . S
O43 C28 1.268 . S
Sc44 O47 2.022 1_556 S
Sc44 O54 2.105 . S
Sc44 O57 2.105 . S
Sc44 O60 2.105 . S
Sc44 O63 2.105 . S
Sc45 O47 2.025 . S
Sc45 O55 2.102 1_554 S
Sc45 O59 2.108 . S
Sc45 O61 2.102 1_554 S
Sc45 O65 2.108 . S
Sc46 O47 2.029 . S
Sc46 O56 2.105 . S
Sc46 O58 2.105 . S
Sc46 O62 2.105 . S
Sc46 O64 2.105 . S
O47 Sc44 2.022 1_554 S
O47 Sc45 2.025 . S
O47 Sc46 2.029 . S
C48 O54 1.267 1_554 S
C48 O64 1.269 . S
C49 O55 1.268 . S
C49 O63 1.268 . S
C50 O56 1.268 . S
C50 O65 1.268 . S
C51 O57 1.268 . S
C51 O61 1.268 . S
C52 O58 1.274 . S
C52 O60 1.262 1_554 S
C53 O59 1.268 . S
C53 O62 1.268 . S
O54 Sc44 2.105 . S
O54 C48 1.267 1_556 S
O55 Sc45 2.102 1_556 S
O55 C49 1.268 . S
O56 Sc46 2.105 . S
O56 C50 1.268 . S
O57 Sc44 2.105 . S
O57 C51 1.268 . S
O58 Sc46 2.105 . S
O58 C52 1.274 . S
O59 Sc45 2.108 . S
O59 C53 1.268 . S
O60 Sc44 2.105 . S
O60 C52 1.262 1_556 S
O61 Sc45 2.102 1_556 S
O61 C51 1.268 . S
O62 Sc46 2.105 . S
O62 C53 1.268 . S
O63 Sc44 2.105 . S
O63 C49 1.268 . S
O64 Sc46 2.105 . S
O64 C48 1.269 . S
O65 Sc45 2.108 . S
O65 C50 1.268 . S
Sc66 O69 2.025 . S
Sc66 O76 2.105 . S
Sc66 O79 2.105 . S
Sc66 O82 2.105 . S
Sc66 O85 2.105 . S
Sc67 O69 2.025 . S
Sc67 O77 2.105 . S
Sc67 O81 2.105 . S
Sc67 O83 2.105 . S
Sc67 O87 2.105 . S
Sc68 O69 2.025 . S
Sc68 O78 2.105 . S
Sc68 O80 2.105 . S
Sc68 O84 2.105 . S
Sc68 O86 2.105 . S
O69 Sc66 2.025 . S
O69 Sc67 2.025 . S
O69 Sc68 2.025 . S
C70 O76 1.268 . S
C70 O86 1.268 . S
C71 O77 1.268 . S
C71 O85 1.268 . S
C72 O78 1.268 . S
C72 O87 1.268 . S
C73 O79 1.268 . S
C73 O83 1.268 . S
C74 O80 1.268 . S
C74 O82 1.268 . S
C75 O81 1.268 . S
C75 O84 1.268 . S
O76 Sc66 2.105 . S
O76 C70 1.268 . S
O77 Sc67 2.105 . S
O77 C71 1.268 . S
O78 Sc68 2.105 . S
O78 C72 1.268 . S
O79 Sc66 2.105 . S
O79 C73 1.268 . S
O80 Sc68 2.105 . S
O80 C74 1.268 . S
O81 Sc67 2.105 . S
O81 C75 1.268 . S
O82 Sc66 2.105 . S
O82 C74 1.268 . S
O83 Sc67 2.105 . S
O83 C73 1.268 . S
O84 Sc68 2.105 . S
O84 C75 1.268 . S
O85 Sc66 2.105 . S
O85 C71 1.268 . S
O86 Sc68 2.105 . S
O86 C70 1.268 . S
O87 Sc67 2.105 . S
O87 C72 1.268 . S
C88 C89 1.386 . S
C88 C90 1.397 . S
C88 H112 0.931 . S
C89 C88 1.386 . S
C89 C93 1.397 . S
C90 C88 1.397 . S
C90 C91 1.384 . S
C90 H113 0.930 . S
C91 C90 1.384 . S
C91 C92 1.377 . S
C91 C94 1.481 . S
C92 C91 1.377 . S
C92 C93 1.389 . S
C92 H114 0.929 . S
C93 C89 1.397 . S
C93 C92 1.389 . S
C93 H115 0.931 . S
C94 C91 1.481 . S
C94 C95 1.387 . S
C94 C99 1.390 1_556 S
C95 C94 1.387 . S
C95 C96 1.401 1_556 S
C95 H116 0.930 . S
C96 C95 1.401 1_554 S
C96 C97 1.376 . S
C96 C105 1.511 . S
C97 C96 1.376 . S
C97 C98 1.392 . S
C97 H118 0.931 . S
C98 C97 1.392 . S
C98 C99 1.361 . S
C98 C100 1.500 . S
C99 C94 1.390 1_554 S
C99 C98 1.361 . S
C99 H117 0.931 . S
C100 C98 1.500 . S
C100 C101 1.371 . S
C100 C102 1.365 . S
C101 C100 1.371 . S
C101 C111 1.386 . S
C101 H119 0.931 . S
C102 C100 1.365 . S
C102 C103 1.409 . S
C102 H120 0.929 . S
C103 C102 1.409 . S
C103 C104 1.380 . S
C103 H121 0.930 . S
C104 C103 1.380 . S
C104 C111 1.357 . S
C105 C96 1.511 . S
C105 C106 1.341 1_554 S
C105 C107 1.371 . S
C106 C105 1.341 1_556 S
C106 C110 1.394 . S
C106 H122 0.930 . S
C107 C105 1.371 . S
C107 C108 1.392 . S
C107 H123 0.931 . S
C108 C107 1.392 . S
C108 C109 1.343 . S
C108 H126 0.932 . S
C109 C108 1.343 . S
C109 C110 1.324 1_554 S
C110 C106 1.394 . S
C110 C109 1.324 1_556 S
C110 H125 0.929 . S
C111 C101 1.386 . S
C111 C104 1.357 . S
C111 H124 0.928 . S
H112 C88 0.931 . S
H113 C90 0.930 . S
H114 C92 0.929 . S
H115 C93 0.931 . S
H116 C95 0.930 . S
H117 C99 0.931 . S
H118 C97 0.931 . S
H119 C101 0.931 . S
H120 C102 0.929 . S
H121 C103 0.930 . S
H122 C106 0.930 . S
H123 C107 0.931 . S
H124 C111 0.928 . S
H125 C110 0.929 . S
H126 C108 0.932 . S
C127 C128 1.386 . S
C127 C129 1.397 . S
C127 H151 0.931 . S
C128 C127 1.386 . S
C128 C132 1.397 . S
C129 C127 1.397 . S
C129 C130 1.384 . S
C129 H152 0.930 . S
C130 C129 1.384 . S
C130 C131 1.377 . S
C130 C133 1.481 . S
C131 C130 1.377 . S
C131 C132 1.389 . S
C131 H153 0.929 . S
C132 C128 1.397 . S
C132 C131 1.389 . S
C132 H154 0.931 . S
C133 C130 1.481 . S
C133 C134 1.387 . S
C133 C138 1.390 . S
C134 C133 1.387 . S
C134 C135 1.401 1_655 S
C134 H155 0.930 1_655 S
C135 C134 1.401 1_455 S
C135 C136 1.376 1_455 S
C135 C144 1.511 . S
C136 C135 1.376 1_655 S
C136 C137 1.392 . S
C136 H157 0.931 1_655 S
C137 C136 1.392 . S
C137 C138 1.361 . S
C137 C139 1.500 . S
C138 C133 1.390 . S
C138 C137 1.361 . S
C138 H156 0.931 . S
C139 C137 1.500 . S
C139 C140 1.371 . S
C139 C141 1.365 . S
C140 C139 1.371 . S
C140 C150 1.386 . S
C140 H158 0.931 . S
C141 C139 1.365 . S
C141 C142 1.409 . S
C141 H159 0.929 . S
C142 C141 1.409 . S
C142 C143 1.380 . S
C142 H160 0.930 . S
C143 C142 1.380 . S
C143 C150 1.357 . S
C144 C135 1.511 . S
C144 C145 1.341 . S
C144 C146 1.371 . S
C145 C144 1.341 . S
C145 C149 1.394 . S
C145 H161 0.930 . S
C146 C144 1.371 . S
C146 C147 1.392 . S
C146 H162 0.931 . S
C147 C146 1.392 . S
C147 C148 1.331 . S
C147 H165 0.932 . S
C148 C147 1.331 . S
C148 C149 1.336 . S
C149 C145 1.394 . S
C149 C148 1.336 . S
C149 H164 0.929 . S
C150 C140 1.386 . S
C150 C143 1.357 . S
C150 H163 0.928 . S
H151 C127 0.931 . S
H152 C129 0.930 . S
H153 C131 0.929 . S
H154 C132 0.931 . S
H155 C134 0.930 1_455 S
H156 C138 0.931 . S
H157 C136 0.931 1_455 S
H158 C140 0.931 . S
H159 C141 0.929 . S
H160 C142 0.930 . S
H161 C145 0.930 . S
H162 C146 0.931 . S
H163 C150 0.928 . S
H164 C149 0.929 . S
H165 C147 0.932 . S
C166 C167 1.386 . S
C166 C168 1.397 . S
C166 H190 0.931 . S
C167 C166 1.386 . S
C167 C171 1.397 . S
C168 C166 1.397 . S
C168 C169 1.384 . S
C168 H191 0.930 . S
C169 C168 1.384 . S
C169 C170 1.377 . S
C169 C172 1.481 . S
C170 C169 1.377 . S
C170 C171 1.389 . S
C170 H192 0.929 . S
C171 C167 1.397 . S
C171 C170 1.389 . S
C171 H193 0.931 . S
C172 C169 1.481 . S
C172 C173 1.387 . S
C172 C177 1.380 1_554 S
C173 C172 1.387 . S
C173 C174 1.401 1_554 S
C173 H194 0.930 . S
C174 C173 1.401 1_556 S
C174 C175 1.376 . S
C174 C183 1.511 . S
C175 C174 1.376 . S
C175 C176 1.392 . S
C175 H196 0.931 . S
C176 C175 1.392 . S
C176 C177 1.371 . S
C176 C178 1.500 . S
C177 C172 1.380 1_556 S
C177 C176 1.371 . S
C177 H195 0.931 . S
C178 C176 1.500 . S
C178 C179 1.371 . S
C178 C180 1.365 . S
C179 C178 1.371 . S
C179 C189 1.386 . S
C179 H197 0.931 . S
C180 C178 1.365 . S
C180 C181 1.409 . S
C180 H198 0.929 . S
C181 C180 1.409 . S
C181 C182 1.380 . S
C181 H199 0.930 . S
C182 C181 1.380 . S
C182 C189 1.357 . S
C183 C174 1.511 . S
C183 C184 1.341 1_556 S
C183 C185 1.371 . S
C184 C183 1.341 1_554 S
C184 C188 1.394 . S
C184 H200 0.930 . S
C185 C183 1.371 . S
C185 C186 1.392 . S
C185 H201 0.931 . S
C186 C185 1.392 . S
C186 C187 1.334 . S
C186 H204 0.932 . S
C187 C186 1.334 . S
C187 C188 1.333 1_556 S
C188 C184 1.394 . S
C188 C187 1.333 1_554 S
C188 H203 0.929 . S
C189 C179 1.386 . S
C189 C182 1.357 . S
C189 H202 0.928 . S
H190 C166 0.931 . S
H191 C168 0.930 . S
H192 C170 0.929 . S
H193 C171 0.931 . S
H194 C173 0.930 . S
H195 C177 0.931 . S
H196 C175 0.931 . S
H197 C179 0.931 . S
H198 C180 0.929 . S
H199 C181 0.930 . S
H200 C184 0.930 . S
H201 C185 0.931 . S
H202 C189 0.928 . S
H203 C188 0.929 . S
H204 C186 0.932 . S
C205 C206 1.386 . S
C205 C207 1.397 . S
C205 H229 0.931 . S
C206 C205 1.386 . S
C206 C210 1.397 . S
C207 C205 1.397 . S
C207 C208 1.384 . S
C207 H230 0.930 . S
C208 C207 1.384 . S
C208 C209 1.377 . S
C208 C211 1.481 . S
C209 C208 1.377 . S
C209 C210 1.389 . S
C209 H231 0.929 . S
C210 C206 1.397 . S
C210 C209 1.389 . S
C210 H232 0.931 . S
C211 C208 1.481 . S
C211 C212 1.387 . S
C211 C216 1.390 . S
C212 C211 1.387 . S
C212 C213 1.401 1_455 S
C212 H233 0.930 1_455 S
C213 C212 1.401 1_655 S
C213 C214 1.376 1_655 S
C213 C222 1.511 . S
C214 C213 1.376 1_455 S
C214 C215 1.392 . S
C214 H235 0.931 1_455 S
C215 C214 1.392 . S
C215 C216 1.361 . S
C215 C217 1.500 . S
C216 C211 1.390 . S
C216 C215 1.361 . S
C216 H234 0.931 . S
C217 C215 1.500 . S
C217 C218 1.371 . S
C217 C219 1.365 . S
C218 C217 1.371 . S
C218 C228 1.386 . S
C218 H236 0.931 . S
C219 C217 1.365 . S
C219 C220 1.409 . S
C219 H237 0.929 . S
C220 C219 1.409 . S
C220 C221 1.380 . S
C220 H238 0.930 . S
C221 C220 1.380 . S
C221 C228 1.357 . S
C222 C213 1.511 . S
C222 C223 1.341 . S
C222 C224 1.371 . S
C223 C222 1.341 . S
C223 C227 1.394 . S
C223 H239 0.930 . S
C224 C222 1.371 . S
C224 C225 1.392 . S
C224 H240 0.931 . S
C225 C224 1.392 . S
C225 C226 1.331 . S
C225 H243 0.932 . S
C226 C225 1.331 . S
C226 C227 1.336 . S
C227 C223 1.394 . S
C227 C226 1.336 . S
C227 H242 0.929 . S
C228 C218 1.386 . S
C228 C221 1.357 . S
C228 H241 0.928 . S
H229 C205 0.931 . S
H230 C207 0.930 . S
H231 C209 0.929 . S
H232 C210 0.931 . S
H233 C212 0.930 1_655 S
H234 C216 0.931 . S
H235 C214 0.931 1_655 S
H236 C218 0.931 . S
H237 C219 0.929 . S
H238 C220 0.930 . S
H239 C223 0.930 . S
H240 C224 0.931 . S
H241 C228 0.928 . S
H242 C227 0.929 . S
H243 C225 0.932 . S
C244 C245 1.386 . S
C244 C246 1.397 . S
C244 H268 0.931 . S
C245 C244 1.386 . S
C245 C249 1.397 . S
C246 C244 1.397 . S
C246 C247 1.384 . S
C246 H269 0.930 . S
C247 C246 1.384 . S
C247 C248 1.377 . S
C247 C250 1.481 . S
C248 C247 1.377 . S
C248 C249 1.389 . S
C248 H270 0.929 . S
C249 C245 1.397 . S
C249 C248 1.389 . S
C249 H271 0.931 . S
C250 C247 1.481 . S
C250 C251 1.387 . S
C250 C255 1.390 . S
C251 C250 1.387 . S
C251 C252 1.401 1_565 S
C251 H272 0.930 1_565 S
C252 C251 1.401 1_545 S
C252 C253 1.376 1_545 S
C252 C261 1.511 . S
C253 C252 1.376 1_565 S
C253 C254 1.392 . S
C253 H274 0.931 1_565 S
C254 C253 1.392 . S
C254 C255 1.361 . S
C254 C256 1.500 . S
C255 C250 1.390 . S
C255 C254 1.361 . S
C255 H273 0.931 . S
C256 C254 1.500 . S
C256 C257 1.371 . S
C256 C258 1.365 . S
C257 C256 1.371 . S
C257 C267 1.386 . S
C257 H275 0.931 . S
C258 C256 1.365 . S
C258 C259 1.409 . S
C258 H276 0.929 . S
C259 C258 1.409 . S
C259 C260 1.380 . S
C259 H277 0.930 . S
C260 C259 1.380 . S
C260 C267 1.357 . S
C261 C252 1.511 . S
C261 C262 1.341 . S
C261 C263 1.371 . S
C262 C261 1.341 . S
C262 C266 1.394 . S
C262 H278 0.930 . S
C263 C261 1.371 . S
C263 C264 1.392 . S
C263 H279 0.931 . S
C264 C263 1.392 . S
C264 C265 1.331 . S
C264 H282 0.932 . S
C265 C264 1.331 . S
C265 C266 1.336 . S
C266 C262 1.394 . S
C266 C265 1.336 . S
C266 H281 0.929 . S
C267 C257 1.386 . S
C267 C260 1.357 . S
C267 H280 0.928 . S
H268 C244 0.931 . S
H269 C246 0.930 . S
H270 C248 0.929 . S
H271 C249 0.931 . S
H272 C251 0.930 1_545 S
H273 C255 0.931 . S
H274 C253 0.931 1_545 S
H275 C257 0.931 . S
H276 C258 0.929 . S
H277 C259 0.930 . S
H278 C262 0.930 . S
H279 C263 0.931 . S
H280 C267 0.928 . S
H281 C266 0.929 . S
H282 C264 0.932 . S
C283 C284 1.386 . S
C283 C285 1.397 . S
C283 H307 0.931 . S
C284 C283 1.386 . S
C284 C288 1.397 . S
C285 C283 1.397 . S
C285 C286 1.384 . S
C285 H308 0.930 . S
C286 C285 1.384 . S
C286 C287 1.377 . S
C286 C289 1.481 . S
C287 C286 1.377 . S
C287 C288 1.389 . S
C287 H309 0.929 . S
C288 C284 1.397 . S
C288 C287 1.389 . S
C288 H310 0.931 . S
C289 C286 1.481 . S
C289 C290 1.387 . S
C289 C294 1.380 1_554 S
C290 C289 1.387 . S
C290 C291 1.401 1_554 S
C290 H311 0.930 . S
C291 C290 1.401 1_556 S
C291 C292 1.376 . S
C291 C300 1.511 . S
C292 C291 1.376 . S
C292 C293 1.392 . S
C292 H313 0.931 . S
C293 C292 1.392 . S
C293 C294 1.371 . S
C293 C295 1.500 . S
C294 C289 1.380 1_556 S
C294 C293 1.371 . S
C294 H312 0.931 . S
C295 C293 1.500 . S
C295 C296 1.371 . S
C295 C297 1.365 . S
C296 C295 1.371 . S
C296 C306 1.386 . S
C296 H314 0.931 . S
C297 C295 1.365 . S
C297 C298 1.409 . S
C297 H315 0.929 . S
C298 C297 1.409 . S
C298 C299 1.380 . S
C298 H316 0.930 . S
C299 C298 1.380 . S
C299 C306 1.357 . S
C300 C291 1.511 . S
C300 C301 1.341 1_556 S
C300 C302 1.371 . S
C301 C300 1.341 1_554 S
C301 C305 1.394 . S
C301 H317 0.930 . S
C302 C300 1.371 . S
C302 C303 1.392 . S
C302 H318 0.931 . S
C303 C302 1.392 . S
C303 C304 1.334 . S
C303 H321 0.932 . S
C304 C303 1.334 . S
C304 C305 1.333 1_556 S
C305 C301 1.394 . S
C305 C304 1.333 1_554 S
C305 H320 0.929 . S
C306 C296 1.386 . S
C306 C299 1.357 . S
C306 H319 0.928 . S
H307 C283 0.931 . S
H308 C285 0.930 . S
H309 C287 0.929 . S
H310 C288 0.931 . S
H311 C290 0.930 . S
H312 C294 0.931 . S
H313 C292 0.931 . S
H314 C296 0.931 . S
H315 C297 0.929 . S
H316 C298 0.930 . S
H317 C301 0.930 . S
H318 C302 0.931 . S
H319 C306 0.928 . S
H320 C305 0.929 . S
H321 C303 0.932 . S
C322 C323 1.386 . S
C322 C324 1.397 . S
C322 H346 0.931 . S
C323 C322 1.386 . S
C323 C327 1.397 . S
C324 C322 1.397 . S
C324 C325 1.384 . S
C324 H347 0.930 . S
C325 C324 1.384 . S
C325 C326 1.377 . S
C325 C328 1.481 . S
C326 C325 1.377 . S
C326 C327 1.389 . S
C326 H348 0.929 . S
C327 C323 1.397 . S
C327 C326 1.389 . S
C327 H349 0.931 . S
C328 C325 1.481 . S
C328 C329 1.387 . S
C328 C333 1.390 . S
C329 C328 1.387 . S
C329 C330 1.401 1_545 S
C329 H350 0.930 1_545 S
C330 C329 1.401 1_565 S
C330 C331 1.376 1_565 S
C330 C339 1.511 . S
C331 C330 1.376 1_545 S
C331 C332 1.392 . S
C331 H352 0.931 1_545 S
C332 C331 1.392 . S
C332 C333 1.361 . S
C332 C334 1.500 . S
C333 C328 1.390 . S
C333 C332 1.361 . S
C333 H351 0.931 . S
C334 C332 1.500 . S
C334 C335 1.371 . S
C334 C336 1.365 . S
C335 C334 1.371 . S
C335 C345 1.386 . S
C335 H353 0.931 . S
C336 C334 1.365 . S
C336 C337 1.409 . S
C336 H354 0.929 . S
C337 C336 1.409 . S
C337 C338 1.380 . S
C337 H355 0.930 . S
C338 C337 1.380 . S
C338 C345 1.357 . S
C339 C330 1.511 . S
C339 C340 1.341 . S
C339 C341 1.371 . S
C340 C339 1.341 . S
C340 C344 1.394 . S
C340 H356 0.930 . S
C341 C339 1.371 . S
C341 C342 1.392 . S
C341 H357 0.931 . S
C342 C341 1.392 . S
C342 C343 1.331 . S
C342 H360 0.932 . S
C343 C342 1.331 . S
C343 C344 1.336 . S
C344 C340 1.394 . S
C344 C343 1.336 . S
C344 H359 0.929 . S
C345 C335 1.386 . S
C345 C338 1.357 . S
C345 H358 0.928 . S
H346 C322 0.931 . S
H347 C324 0.930 . S
H348 C326 0.929 . S
H349 C327 0.931 . S
H350 C329 0.930 1_565 S
H351 C333 0.931 . S
H352 C331 0.931 1_565 S
H353 C335 0.931 . S
H354 C336 0.929 . S
H355 C337 0.930 . S
H356 C340 0.930 . S
H357 C341 0.931 . S
H358 C345 0.928 . S
H359 C344 0.929 . S
H360 C342 0.932 . S
C361 C362 1.386 . S
C361 C363 1.397 . S
C361 H385 0.931 . S
C362 C361 1.386 . S
C362 C366 1.397 . S
C363 C361 1.397 . S
C363 C364 1.384 . S
C363 H386 0.930 . S
C364 C363 1.384 . S
C364 C365 1.377 . S
C364 C367 1.481 . S
C365 C364 1.377 . S
C365 C366 1.389 . S
C365 H387 0.929 . S
C366 C362 1.397 . S
C366 C365 1.389 . S
C366 H388 0.931 . S
C367 C364 1.481 . S
C367 C368 1.387 . S
C367 C372 1.390 1_556 S
C368 C367 1.387 . S
C368 C369 1.401 1_556 S
C368 H389 0.930 . S
C369 C368 1.401 1_554 S
C369 C370 1.376 . S
C369 C378 1.511 . S
C370 C369 1.376 . S
C370 C371 1.392 . S
C370 H391 0.931 . S
C371 C370 1.392 . S
C371 C372 1.361 . S
C371 C373 1.500 . S
C372 C367 1.390 1_554 S
C372 C371 1.361 . S
C372 H390 0.931 . S
C373 C371 1.500 . S
C373 C374 1.371 . S
C373 C375 1.365 . S
C374 C373 1.371 . S
C374 C384 1.386 . S
C374 H392 0.931 . S
C375 C373 1.365 . S
C375 C376 1.409 . S
C375 H393 0.929 . S
C376 C375 1.409 . S
C376 C377 1.380 . S
C376 H394 0.930 . S
C377 C376 1.380 . S
C377 C384 1.357 . S
C378 C369 1.511 . S
C378 C379 1.341 1_554 S
C378 C380 1.371 . S
C379 C378 1.341 1_556 S
C379 C383 1.394 . S
C379 H395 0.930 . S
C380 C378 1.371 . S
C380 C381 1.392 . S
C380 H396 0.931 . S
C381 C380 1.392 . S
C381 C382 1.343 . S
C381 H399 0.932 . S
C382 C381 1.343 . S
C382 C383 1.324 1_554 S
C383 C379 1.394 . S
C383 C382 1.324 1_556 S
C383 H398 0.929 . S
C384 C374 1.386 . S
C384 C377 1.357 . S
C384 H397 0.928 . S
H385 C361 0.931 . S
H386 C363 0.930 . S
H387 C365 0.929 . S
H388 C366 0.931 . S
H389 C368 0.930 . S
H390 C372 0.931 . S
H391 C370 0.931 . S
H392 C374 0.931 . S
H393 C375 0.929 . S
H394 C376 0.930 . S
H395 C379 0.930 . S
H396 C380 0.931 . S
H397 C384 0.928 . S
H398 C383 0.929 . S
H399 C381 0.932 . S
C400 C401 1.387 . S
C400 H404 0.950 . S
C400 C409 1.390 . S
C401 C400 1.387 . S
C401 C403 1.387 . S
H402 C409 0.950 . S
C403 C401 1.387 . S
C403 C405 1.390 . S
C403 H407 0.950 . S
H404 C400 0.950 . S
C405 C403 1.390 . S
C405 C406 1.387 . S
C405 H408 0.950 . S
C406 C405 1.387 . S
C406 C409 1.387 . S
H407 C403 0.950 . S
H408 C405 0.950 . S
C409 C400 1.390 . S
C409 H402 0.950 . S
C409 C406 1.387 . S
C410 C411 1.387 . S
C410 H414 0.950 . S
C410 C419 1.390 . S
C411 C410 1.387 . S
C411 C413 1.387 . S
H412 C419 0.950 . S
C413 C411 1.387 . S
C413 C415 1.390 . S
C413 H417 0.950 . S
H414 C410 0.950 . S
C415 C413 1.390 . S
C415 C416 1.387 . S
C415 H418 0.950 . S
C416 C415 1.387 . S
C416 C419 1.387 . S
H417 C413 0.950 . S
H418 C415 0.950 . S
C419 C410 1.390 . S
C419 H412 0.950 . S
C419 C416 1.387 . S
C420 C421 1.387 . S
C420 H424 0.950 . S
C420 C429 1.390 . S
C421 C420 1.387 . S
C421 C423 1.387 . S
H422 C429 0.950 . S
C423 C421 1.387 . S
C423 C425 1.390 . S
C423 H427 0.950 . S
H424 C420 0.950 . S
C425 C423 1.390 . S
C425 C426 1.387 . S
C425 H428 0.950 . S
C426 C425 1.387 . S
C426 C429 1.387 . S
H427 C423 0.950 . S
H428 C425 0.950 . S
C429 C420 1.390 . S
C429 H422 0.950 . S
C429 C426 1.387 . S
C430 C431 1.387 . S
C430 H434 0.950 . S
C430 C439 1.390 . S
C431 C430 1.387 . S
C431 C433 1.387 . S
H432 C439 0.950 . S
C433 C431 1.387 . S
C433 C435 1.390 . S
C433 H437 0.950 . S
H434 C430 0.950 . S
C435 C433 1.390 . S
C435 C436 1.387 . S
C435 H438 0.950 . S
C436 C435 1.387 . S
C436 C439 1.387 . S
H437 C433 0.950 . S
H438 C435 0.950 . S
C439 C430 1.390 . S
C439 H432 0.950 . S
C439 C436 1.387 . S
C440 C441 1.387 . S
C440 H444 0.950 . S
C440 C449 1.390 . S
C441 C440 1.387 . S
C441 C443 1.387 . S
H442 C449 0.950 . S
C443 C441 1.387 . S
C443 C445 1.390 . S
C443 H447 0.950 . S
H444 C440 0.950 . S
C445 C443 1.390 . S
C445 C446 1.387 . S
C445 H448 0.950 . S
C446 C445 1.387 . S
C446 C449 1.387 . S
H447 C443 0.950 . S
H448 C445 0.950 . S
C449 C440 1.390 . S
C449 H442 0.950 . S
C449 C446 1.387 . S
C450 C451 1.387 . S
C450 H454 0.950 . S
C450 C459 1.390 . S
C451 C450 1.387 . S
C451 C453 1.387 . S
H452 C459 0.950 . S
C453 C451 1.387 . S
C453 C455 1.390 . S
C453 H457 0.950 . S
H454 C450 0.950 . S
C455 C453 1.390 . S
C455 C456 1.387 . S
C455 H458 0.950 . S
C456 C455 1.387 . S
C456 C459 1.387 . S
H457 C453 0.950 . S
H458 C455 0.950 . S
C459 C450 1.390 . S
C459 H452 0.950 . S
C459 C456 1.387 . S
C460 C461 1.387 . S
C460 H464 0.950 . S
C460 C469 1.390 . S
C461 C460 1.387 . S
C461 C463 1.387 . S
H462 C469 0.950 . S
C463 C461 1.387 . S
C463 C465 1.390 . S
C463 H467 0.950 . S
H464 C460 0.950 . S
C465 C463 1.390 . S
C465 C466 1.387 . S
C465 H468 0.950 . S
C466 C465 1.387 . S
C466 C469 1.387 . S
H467 C463 0.950 . S
H468 C465 0.950 . S
C469 C460 1.390 . S
C469 H462 0.950 . S
C469 C466 1.387 . S
C470 C471 1.387 . S
C470 H474 0.950 . S
C470 C479 1.390 . S
C471 C470 1.387 . S
C471 C473 1.387 . S
H472 C479 0.950 . S
C473 C471 1.387 . S
C473 C475 1.390 . S
C473 H477 0.950 . S
H474 C470 0.950 . S
C475 C473 1.390 . S
C475 C476 1.387 . S
C475 H478 0.950 . S
C476 C475 1.387 . S
C476 C479 1.387 . S
H477 C473 0.950 . S
H478 C475 0.950 . S
C479 C470 1.390 . S
C479 H472 0.950 . S
C479 C476 1.387 . S
C480 C481 1.387 . S
C480 H484 0.950 . S
C480 C489 1.390 . S
C481 C480 1.387 . S
C481 C483 1.387 . S
H482 C489 0.950 . S
C483 C481 1.387 . S
C483 C485 1.390 . S
C483 H487 0.950 . S
H484 C480 0.950 . S
C485 C483 1.390 . S
C485 C486 1.387 . S
C485 H488 0.950 . S
C486 C485 1.387 . S
C486 C489 1.387 . S
H487 C483 0.950 . S
H488 C485 0.950 . S
C489 C480 1.390 . S
C489 H482 0.950 . S
C489 C486 1.387 . S
C490 C491 1.387 . S
C490 H494 0.950 . S
C490 C499 1.390 . S
C491 C490 1.387 . S
C491 C493 1.387 . S
H492 C499 0.950 . S
C493 C491 1.387 . S
C493 C495 1.390 . S
C493 H497 0.950 . S
H494 C490 0.950 . S
C495 C493 1.390 . S
C495 C496 1.387 . S
C495 H498 0.950 . S
C496 C495 1.387 . S
C496 C499 1.387 . S
H497 C493 0.950 . S
H498 C495 0.950 . S
C499 C490 1.390 . S
C499 H492 0.950 . S
C499 C496 1.387 . S
C500 C501 1.387 . S
C500 H504 0.950 . S
C500 C509 1.390 . S
C501 C500 1.387 . S
C501 C503 1.387 . S
H502 C509 0.950 . S
C503 C501 1.387 . S
C503 C505 1.390 . S
C503 H507 0.950 . S
H504 C500 0.950 . S
C505 C503 1.390 . S
C505 C506 1.387 . S
C505 H508 0.950 . S
C506 C505 1.387 . S
C506 C509 1.387 . S
H507 C503 0.950 . S
H508 C505 0.950 . S
C509 C500 1.390 . S
C509 H502 0.950 . S
C509 C506 1.387 . S
C510 C511 1.387 . S
C510 H514 0.950 . S
C510 C519 1.390 . S
C511 C510 1.387 . S
C511 C513 1.387 . S
H512 C519 0.950 . S
C513 C511 1.387 . S
C513 C515 1.390 . S
C513 H517 0.950 . S
H514 C510 0.950 . S
C515 C513 1.390 . S
C515 C516 1.387 . S
C515 H518 0.950 . S
C516 C515 1.387 . S
C516 C519 1.387 . S
H517 C513 0.950 . S
H518 C515 0.950 . S
C519 C510 1.390 . S
C519 H512 0.950 . S
C519 C516 1.387 . S
C520 C521 1.387 . S
C520 H524 0.950 . S
C520 C529 1.390 . S
C521 C520 1.387 . S
C521 C523 1.387 . S
H522 C529 0.950 . S
C523 C521 1.387 . S
C523 C525 1.390 . S
C523 H527 0.950 . S
H524 C520 0.950 . S
C525 C523 1.390 . S
C525 C526 1.387 . S
C525 H528 0.950 . S
C526 C525 1.387 . S
C526 C529 1.387 . S
H527 C523 0.950 . S
H528 C525 0.950 . S
C529 C520 1.390 . S
C529 H522 0.950 . S
C529 C526 1.387 . S
C530 C531 1.387 . S
C530 H534 0.950 . S
C530 C539 1.390 . S
C531 C530 1.387 . S
C531 C533 1.387 . S
H532 C539 0.950 . S
C533 C531 1.387 . S
C533 C535 1.390 . S
C533 H537 0.950 . S
H534 C530 0.950 . S
C535 C533 1.390 . S
C535 C536 1.387 . S
C535 H538 0.950 . S
C536 C535 1.387 . S
C536 C539 1.387 . S
H537 C533 0.950 . S
H538 C535 0.950 . S
C539 C530 1.390 . S
C539 H532 0.950 . S
C539 C536 1.387 . S
C540 C541 1.387 . S
C540 H544 0.950 . S
C540 C549 1.390 . S
C541 C540 1.387 . S
C541 C543 1.387 . S
H542 C549 0.950 . S
C543 C541 1.387 . S
C543 C545 1.390 . S
C543 H547 0.950 . S
H544 C540 0.950 . S
C545 C543 1.390 . S
C545 C546 1.387 . S
C545 H548 0.950 . S
C546 C545 1.387 . S
C546 C549 1.387 . S
H547 C543 0.950 . S
H548 C545 0.950 . S
C549 C540 1.390 . S
C549 H542 0.950 . S
C549 C546 1.387 . S
C550 C551 1.387 . S
C550 H554 0.950 . S
C550 C559 1.390 . S
C551 C550 1.387 . S
C551 C553 1.387 . S
H552 C559 0.950 . S
C553 C551 1.387 . S
C553 C555 1.390 . S
C553 H557 0.950 . S
H554 C550 0.950 . S
C555 C553 1.390 . S
C555 C556 1.387 . S
C555 H558 0.950 . S
C556 C555 1.387 . S
C556 C559 1.387 . S
H557 C553 0.950 . S
H558 C555 0.950 . S
C559 C550 1.390 . S
C559 H552 0.950 . S
C559 C556 1.387 . S
C560 C561 1.388 1_556 S
C560 H564 0.950 . S
C560 C569 1.390 . S
C561 C560 1.388 1_554 S
C561 C563 1.386 . S
H562 C569 0.950 . S
C563 C561 1.386 . S
C563 C565 1.390 . S
C563 H567 0.950 . S
H564 C560 0.950 . S
C565 C563 1.390 . S
C565 C566 1.386 1_554 S
C565 H568 0.950 . S
C566 C565 1.386 1_556 S
C566 C569 1.389 . S
H567 C563 0.950 . S
H568 C565 0.950 . S
C569 C560 1.390 . S
C569 H562 0.950 . S
C569 C566 1.389 . S
C570 C571 1.387 . S
C570 H574 0.950 . S
C570 C579 1.390 . S
C571 C570 1.387 . S
C571 C573 1.387 . S
H572 C579 0.950 . S
C573 C571 1.387 . S
C573 C575 1.390 . S
C573 H577 0.950 . S
H574 C570 0.950 . S
C575 C573 1.390 . S
C575 C576 1.387 . S
C575 H578 0.950 . S
C576 C575 1.387 . S
C576 C579 1.387 . S
H577 C573 0.950 . S
H578 C575 0.950 . S
C579 C570 1.390 . S
C579 H572 0.950 . S
C579 C576 1.387 . S
C580 C581 1.380 1_556 S
C580 H584 0.950 . S
C580 C589 1.390 . S
C581 C580 1.380 1_554 S
C581 C583 1.395 . S
H582 C589 0.950 . S
C583 C581 1.395 . S
C583 C585 1.390 . S
C583 H587 0.950 . S
H584 C580 0.950 . S
C585 C583 1.390 . S
C585 C586 1.399 . S
C585 H588 0.950 . S
C586 C585 1.399 . S
C586 C589 1.376 1_554 S
H587 C583 0.950 . S
H588 C585 0.950 . S
C589 C580 1.390 . S
C589 H582 0.950 . S
C589 C586 1.376 1_556 S
C590 C591 1.387 . S
C590 H594 0.950 . S
C590 C599 1.390 . S
C591 C590 1.387 . S
C591 C593 1.387 . S
H592 C599 0.950 . S
C593 C591 1.387 . S
C593 C595 1.390 . S
C593 H597 0.950 . S
H594 C590 0.950 . S
C595 C593 1.390 . S
C595 C596 1.387 . S
C595 H598 0.950 . S
C596 C595 1.387 . S
C596 C599 1.387 . S
H597 C593 0.950 . S
H598 C595 0.950 . S
C599 C590 1.390 . S
C599 H592 0.950 . S
C599 C596 1.387 . S
C600 C601 1.387 . S
C600 H604 0.950 . S
C600 C609 1.390 . S
C601 C600 1.387 . S
C601 C603 1.387 . S
H602 C609 0.950 . S
C603 C601 1.387 . S
C603 C605 1.390 . S
C603 H607 0.950 . S
H604 C600 0.950 . S
C605 C603 1.390 . S
C605 C606 1.387 . S
C605 H608 0.950 . S
C606 C605 1.387 . S
C606 C609 1.387 . S
H607 C603 0.950 . S
H608 C605 0.950 . S
C609 C600 1.390 . S
C609 H602 0.950 . S
C609 C606 1.387 . S
C610 C611 1.380 1_556 S
C610 H614 0.950 . S
C610 C619 1.390 . S
C611 C610 1.380 1_554 S
C611 C613 1.395 . S
H612 C619 0.950 . S
C613 C611 1.395 . S
C613 C615 1.390 . S
C613 H617 0.950 . S
H614 C610 0.950 . S
C615 C613 1.390 . S
C615 C616 1.399 . S
C615 H618 0.950 . S
C616 C615 1.399 . S
C616 C619 1.376 1_554 S
H617 C613 0.950 . S
H618 C615 0.950 . S
C619 C610 1.390 . S
C619 H612 0.950 . S
C619 C616 1.376 1_556 S
C620 C621 1.387 . S
C620 H624 0.950 . S
C620 C629 1.390 . S
C621 C620 1.387 . S
C621 C623 1.387 . S
H622 C629 0.950 . S
C623 C621 1.387 . S
C623 C625 1.390 . S
C623 H627 0.950 . S
H624 C620 0.950 . S
C625 C623 1.390 . S
C625 C626 1.387 . S
C625 H628 0.950 . S
C626 C625 1.387 . S
C626 C629 1.387 . S
H627 C623 0.950 . S
H628 C625 0.950 . S
C629 C620 1.390 . S
C629 H622 0.950 . S
C629 C626 1.387 . S
C630 C631 1.388 1_556 S
C630 H634 0.950 . S
C630 C639 1.390 . S
C631 C630 1.388 1_554 S
C631 C633 1.387 . S
H632 C639 0.950 . S
C633 C631 1.387 . S
C633 C635 1.390 . S
C633 H637 0.950 . S
H634 C630 0.950 . S
C635 C633 1.390 . S
C635 C636 1.386 1_554 S
C635 H638 0.950 . S
C636 C635 1.386 1_556 S
C636 C639 1.389 . S
H637 C633 0.950 . S
H638 C635 0.950 . S
C639 C630 1.390 . S
C639 H632 0.950 . S
C639 C636 1.389 . S
C401 C5 1.551 . S
C406 C221 1.521 . S
C411 C31 1.554 . S
C416 C89 1.527 . S
C426 C128 1.523 . S
C421 C53 1.554 . S
C431 C71 1.550 . S
C436 C182 1.521 . S
C446 C284 1.526 . S
C441 C75 1.554 . S
C456 C338 1.519 . S
C451 C9 1.552 . S
C466 C377 1.520 . S
C461 C27 1.550 . S
C476 C245 1.523 . S
C471 C49 1.554 . S
C481 C51 1.551 . S
C486 C143 1.519 . S
C491 C72 1.555 . S
C496 C167 1.520 . S
C501 C6 1.554 . S
C506 C206 1.519 . S
C516 C104 1.518 . S
C511 C29 1.550 . S
C521 C28 1.555 . S
C526 C362 1.520 . S
C536 C260 1.517 . S
C531 C50 1.552 . S
C546 C299 1.516 . S
C541 C73 1.551 . S
C551 C7 1.554 . S
C556 C323 1.519 . S
C566 C109 1.525 1_556 S
C561 C4 1.537 . S
C576 C148 1.524 . S
C571 C30 1.538 . S
C581 C52 1.537 . S
C586 C187 1.516 1_554 S
C591 C70 1.538 . S
C596 C226 1.514 . S
C606 C265 1.524 . S
C601 C74 1.538 . S
C611 C8 1.538 . S
C616 C304 1.524 1_554 S
C621 C26 1.537 . S
C626 C343 1.516 . S
C631 C48 1.538 . S
C636 C382 1.514 1_556 S
