# Generated by pormake.
# Topology anh, (6,3)-cn, num edge types: 1
# Building blocks:
#     Node 0, Type 0, BuildingBlock: NUHQIS_clean_sbu_0, # of connection points: 6
#     Node 1, Type 0, BuildingBlock: NUHQIS_clean_sbu_0, # of connection points: 6
#     Node 2, Type 0, BuildingBlock: NUHQIS_clean_sbu_0, # of connection points: 6
#     Node 3, Type 1, BuildingBlock: PAMTOO_clean_linker_0, # of connection points: 3
#     Node 4, Type 1, BuildingBlock: PAMTOO_clean_linker_0, # of connection points: 3
#     Node 5, Type 1, BuildingBlock: PAMTOO_clean_linker_0, # of connection points: 3
#     Node 6, Type 1, BuildingBlock: PAMTOO_clean_linker_0, # of connection points: 3
#     Node 7, Type 1, BuildingBlock: PAMTOO_clean_linker_0, # of connection points: 3
#     Node 8, Type 1, BuildingBlock: PAMTOO_clean_linker_0, # of connection points: 3
#     Edge 9, Type (0, 1), BuildingBlock: OJICUG_clean_linker_0, # of connection points: 2
#     Edge 10, Type (0, 1), BuildingBlock: OJICUG_clean_linker_0, # of connection points: 2
#     Edge 11, Type (0, 1), BuildingBlock: OJICUG_clean_linker_0, # of connection points: 2
#     Edge 12, Type (0, 1), BuildingBlock: OJICUG_clean_linker_0, # of connection points: 2
#     Edge 13, Type (0, 1), BuildingBlock: OJICUG_clean_linker_0, # of connection points: 2
#     Edge 14, Type (0, 1), BuildingBlock: OJICUG_clean_linker_0, # of connection points: 2
#     Edge 15, Type (0, 1), BuildingBlock: OJICUG_clean_linker_0, # of connection points: 2
#     Edge 16, Type (0, 1), BuildingBlock: OJICUG_clean_linker_0, # of connection points: 2
#     Edge 17, Type (0, 1), BuildingBlock: OJICUG_clean_linker_0, # of connection points: 2
#     Edge 18, Type (0, 1), BuildingBlock: OJICUG_clean_linker_0, # of connection points: 2
#     Edge 19, Type (0, 1), BuildingBlock: OJICUG_clean_linker_0, # of connection points: 2
#     Edge 20, Type (0, 1), BuildingBlock: OJICUG_clean_linker_0, # of connection points: 2
#     Edge 21, Type (0, 1), BuildingBlock: OJICUG_clean_linker_0, # of connection points: 2
#     Edge 22, Type (0, 1), BuildingBlock: OJICUG_clean_linker_0, # of connection points: 2
#     Edge 23, Type (0, 1), BuildingBlock: OJICUG_clean_linker_0, # of connection points: 2
#     Edge 24, Type (0, 1), BuildingBlock: OJICUG_clean_linker_0, # of connection points: 2
#     Edge 25, Type (0, 1), BuildingBlock: OJICUG_clean_linker_0, # of connection points: 2
#     Edge 26, Type (0, 1), BuildingBlock: OJICUG_clean_linker_0, # of connection points: 2
# Relax obj value: 0.380
# Max RMSD: 0.158
# Mean RMSD: 0.126
data_MOF--net-anh--node1-NUHQIS_clean_sbu_0--node2-PAMTOO_clean_linker_0--edge1-OJICUG_clean_linker_0
_symmetry_space_group_name_H-M    P1
_symmetry_Int_Tables_number       1
_symmetry_cell_setting            triclinic
loop_
_symmetry_equiv_pos_as_xyz
'x, y, z'
_cell_length_a     22.466587
_cell_length_b     22.374346
_cell_length_c     36.257728
_cell_angle_alpha  88.688186
_cell_angle_beta   92.160881
_cell_angle_gamma 119.71011
loop_
_atom_site_label
_atom_site_type_symbol
_atom_site_fract_x
_atom_site_fract_y
_atom_site_fract_z
_atom_type_partial_charge
Tb0 Tb 0.31382 0.66238 0.17662 0.0
Eu1 Eu 0.23685 0.74982 0.16263 0.0
C2 C 0.27513 0.72196 0.24256 0.0
C3 C 1.14464 0.58042 0.17644 0.0
C4 C 0.40714 0.56149 0.20838 0.0
C5 C 0.41007 0.46517 0.23919 0.0
C6 C 0.37658 0.50253 0.231 0.0
C7 C 0.47513 0.58725 0.19799 0.0
C8 C 0.50901 0.55028 0.2066 0.0
C9 C 0.47486 0.48653 0.22509 0.0
C10 C 0.36202 0.58314 0.18898 0.0
O11 O 0.28561 0.64976 0.1171 0.0
O12 O 0.27217 0.74341 0.10661 0.0
O13 O 0.35156 0.8341 0.17081 0.0
O14 O 0.40492 0.76896 0.17437 0.0
C15 C 0.27893 0.69277 0.09415 0.0
O16 O 1.17138 0.7794 0.13069 0.0
O17 O 0.22002 0.83161 0.18208 0.0
O18 O 0.2245 0.71684 0.22151 0.0
O19 O 0.32398 0.71432 0.22871 0.0
O20 O 0.20409 0.58391 0.18526 0.0
O21 O 1.14467 0.63674 0.1637 0.0
C22 C 0.40882 0.83043 0.17376 0.0
O23 O 0.31224 0.58126 0.20712 0.0
O24 O 0.38582 0.63183 0.16397 0.0
C25 C 1.10999 0.81538 0.16613 0.0
C26 C 0.97171 0.7743 0.17753 0.0
C27 C 1.00498 0.81302 0.14605 0.0
C28 C 1.07347 0.83342 0.14052 0.0
C29 C 1.07947 0.7827 0.19924 0.0
C30 C 1.01102 0.7631 0.20511 0.0
C31 C 0.17569 0.82289 0.15549 0.0
H32 H 0.38263 0.41612 0.25331 0.0
H33 H 0.32398 0.48123 0.23922 0.0
H34 H 0.49986 0.6323 0.18041 0.0
H35 H 0.55874 0.56755 0.195 0.0
H36 H 0.97696 0.82229 0.12385 0.0
H37 H 1.09639 0.85883 0.11487 0.0
H38 H 1.10706 0.76864 0.21956 0.0
H39 H 0.98767 0.73484 0.23003 0.0
Tb40 Tb 0.83461 0.15421 0.50817 0.0
Eu41 Eu 0.69152 1.0804 0.46418 0.0
C42 C 0.69506 1.08569 0.55098 0.0
C43 C 0.76045 0.98727 0.49545 0.0
C44 C 1.00833 0.2848 0.53963 0.0
C45 C 1.04564 0.40594 0.54716 0.0
C46 C 0.99872 0.33711 0.55412 0.0
C47 C 1.06909 0.30257 0.52158 0.0
C48 C 1.1157 0.37143 0.51434 0.0
C49 C 1.10231 0.42322 0.52543 0.0
C50 C 0.95227 0.21296 0.53883 0.0
O51 O 0.84766 0.19449 0.45081 0.0
O52 O 0.77434 1.09106 0.4279 0.0
O53 O 0.71678 0.19453 0.47113 0.0
O54 O 0.80821 0.23741 0.51234 0.0
C55 C 0.82438 0.15298 0.42233 0.0
O56 O 0.58723 1.00078 0.4505 0.0
O57 O 0.63941 1.08874 0.41385 0.0
O58 O 0.66045 1.08471 0.52105 0.0
O59 O 0.75918 1.09967 0.5503 0.0
O60 O 0.81688 1.04715 0.50199 0.0
O61 O 0.70371 0.9869 0.48327 0.0
C62 C 0.76115 0.24518 0.49314 0.0
O63 O 0.89645 0.20007 0.55524 0.0
O64 O 0.93873 0.18272 0.50678 0.0
C65 C 0.52137 1.04566 0.42174 0.0
C66 C 0.39831 1.0511 0.41951 0.0
C67 C 0.42755 1.04412 0.45335 0.0
C68 C 0.48843 1.04195 0.45445 0.0
C69 C 0.49598 1.05816 0.38828 0.0
C70 C 0.43533 1.06155 0.38718 0.0
C71 C 0.58115 1.03521 0.42237 0.0
H72 H 1.03414 0.44508 0.55579 0.0
H73 H 0.95273 0.3251 0.56856 0.0
H74 H 1.078 0.26308 0.51067 0.0
H75 H 1.15948 0.38392 0.49769 0.0
H76 H 0.40132 1.03503 0.47903 0.0
H77 H 0.50789 1.03406 0.48082 0.0
H78 H 0.52176 1.06296 0.36281 0.0
H79 H 0.41586 1.06888 0.36072 0.0
Tb80 Tb 0.82111 0.70215 0.83779 0.0
Eu81 Eu 0.74635 0.53945 0.8228 0.0
C82 C 0.76783 0.59687 0.90317 0.0
C83 C 0.91685 0.62949 0.8384 0.0
C84 C 0.82938 0.86569 0.84061 0.0
C85 C 0.80507 0.9574 0.85371 0.0
C86 C 0.84732 0.92784 0.8582 0.0
C87 C 0.76913 0.83355 0.81862 0.0
C88 C 0.72665 0.86212 0.8147 0.0
C89 C 0.74375 0.92399 0.83237 0.0
C90 C 0.86703 0.82856 0.84839 0.0
O91 O 0.79129 0.68934 0.77839 0.0
O92 O 0.78812 0.58778 0.76822 0.0
O93 O 0.65573 0.56245 0.82112 0.0
O94 O 0.71081 0.67149 0.8449 0.0
C95 C 0.7901 0.64381 0.75552 0.0
O96 O 0.73075 0.43866 0.83976 0.0
O97 O 0.67945 0.44904 0.78993 0.0
O98 O 0.72399 0.55007 0.88059 0.0
O99 O 0.81938 0.65419 0.89105 0.0
O100 O 0.91286 0.687 0.8364 0.0
O101 O 0.8597 0.56892 0.83608 0.0
C102 C 0.65303 0.61613 0.83421 0.0
O103 O 0.84011 0.78192 0.87402 0.0
O104 O 0.88159 0.80452 0.81969 0.0
C105 C 0.62317 0.34406 0.82322 0.0
C106 C 0.50212 0.21727 0.83208 0.0
C107 C 0.56669 0.22112 0.83378 0.0
C108 C 0.62648 0.28388 0.82935 0.0
C109 C 0.5597 0.34185 0.82449 0.0
C110 C 0.49949 0.27877 0.8289 0.0
C111 C 0.68599 0.40692 0.8131 0.0
H112 H 0.81965 1.00561 0.86724 0.0
H113 H 0.89316 0.95277 0.87573 0.0
H114 H 0.75416 0.78546 0.80487 0.0
H115 H 0.68075 0.83617 0.79726 0.0
H116 H 0.57111 0.17508 0.83551 0.0
H117 H 0.67513 0.28481 0.82872 0.0
H118 H 0.55632 0.38821 0.8204 0.0
H119 H 0.45072 0.27767 0.82778 0.0
H120 H 0.93861 0.32616 0.26709 0.0
H121 H 0.74196 0.14194 0.25907 0.0
H122 H 0.82198 0.27215 0.16331 0.0
H123 H 0.72912 1.07059 0.18981 0.0
C124 C 0.69286 1.08632 0.17744 0.0
O125 O 0.71111 0.1523 0.19145 0.0
H126 H 0.70269 1.09233 0.14743 0.0
C127 C 0.89374 0.29211 0.25045 0.0
C128 C 0.88961 0.30918 0.21285 0.0
C129 C 0.84172 0.23203 0.2672 0.0
C130 C 0.78287 0.18696 0.24609 0.0
C131 C 0.77394 0.19863 0.20872 0.0
C132 C 0.82791 0.26116 0.192 0.0
H133 H 0.76962 0.7611 0.59202 0.0
H134 H 0.7857 0.57739 0.5854 0.0
H135 H 0.76065 0.67235 0.48589 0.0
H136 H 0.68278 0.48739 0.49448 0.0
C137 C 0.72412 0.49297 0.51432 0.0
O138 O 0.77496 0.56371 0.51483 0.0
H139 H 0.70016 0.47838 0.54173 0.0
C140 C 0.77082 0.72184 0.57568 0.0
C141 C 0.76603 0.72628 0.53675 0.0
C142 C 0.7759 0.66772 0.59387 0.0
C143 C 0.77785 0.61693 0.5722 0.0
C144 C 0.77021 0.61528 0.53355 0.0
C145 C 0.76405 0.67082 0.51571 0.0
H146 H 1.15868 0.65184 0.93024 0.0
H147 H 0.35086 0.65332 0.92812 0.0
H148 H 0.2321 0.62509 0.82681 0.0
H149 H 0.33492 0.54248 0.84361 0.0
C150 C 0.37356 0.58722 0.85998 0.0
O151 O 0.35409 0.63879 0.85724 0.0
H152 H 0.3686 0.56896 0.88906 0.0
C153 C 0.19687 0.64795 0.91465 0.0
C154 C 0.186 0.638 0.87619 0.0
C155 C 0.25494 0.65221 0.9337 0.0
C156 C 0.30519 0.6475 0.91368 0.0
C157 C 0.29882 0.63697 0.87521 0.0
C158 C 0.23784 0.63164 0.85645 0.0
H159 H 0.24717 0.65903 0.4066 0.0
H160 H 0.25315 0.85253 0.397 0.0
H161 H 1.15813 0.72219 0.49004 0.0
H162 H 1.11134 0.85904 0.46582 0.0
C163 C 1.14589 0.86068 0.4442 0.0
O164 O 0.19077 0.84058 0.45957 0.0
H165 H 1.11316 0.82549 0.42161 0.0
C166 C 0.23584 0.69675 0.4177 0.0
C167 C 0.20267 0.68388 0.45143 0.0
C168 C 0.2508 0.75575 0.39698 0.0
C169 C 0.2382 0.8055 0.41201 0.0
C170 C 0.20354 0.79282 0.4452 0.0
C171 C 0.18534 0.73178 0.46464 0.0
H172 H 0.64751 1.01544 0.71841 0.0
H173 H 0.47139 1.02374 0.67392 0.0
H174 H 0.49481 1.00146 0.79078 0.0
H175 H 0.36626 0.93117 0.7712 0.0
C176 C 0.36355 0.97612 0.75928 0.0
O177 O 0.41833 1.0159 0.737 0.0
H178 H 0.31505 0.95612 0.74257 0.0
C179 C 0.60001 1.01568 0.72231 0.0
C180 C 0.57548 1.00799 0.75798 0.0
C181 C 0.56404 1.02281 0.69171 0.0
C182 C 0.49963 1.01691 0.69695 0.0
C183 C 0.47409 1.00888 0.73252 0.0
C184 C 0.51296 1.00579 0.76315 0.0
H185 H 0.78221 0.64587 0.07509 0.0
H186 H 0.61982 0.44025 0.05001 0.0
H187 H 0.64669 0.5216 0.15907 0.0
H188 H 0.6399 0.38326 0.14789 0.0
C189 C 0.58499 0.36836 0.1431 0.0
O190 O 0.57735 0.41109 0.11735 0.0
H191 H 0.55784 0.31478 0.13255 0.0
C192 C 0.73699 0.59871 0.08303 0.0
C193 C 0.71799 0.58947 0.11993 0.0
C194 C 0.70127 0.54631 0.05697 0.0
C195 C 0.64822 0.48216 0.06915 0.0
C196 C 0.62915 0.47248 0.1061 0.0
C197 C 0.66203 0.52746 0.13087 0.0
C198 C 0.45426 0.377 0.19851 0.0
C199 C 0.49759 0.43576 0.21951 0.0
H200 H 0.44942 0.3077 0.15736 0.0
C201 C 0.56676 0.45418 0.22503 0.0
H202 H 0.40057 0.36134 0.19393 0.0
C203 C 0.5942 0.42134 0.20495 0.0
C204 C 0.55327 0.37264 0.17802 0.0
H205 H 0.60099 0.4989 0.24138 0.0
H206 H 0.6492 0.44182 0.20619 0.0
C207 C 0.48211 0.34588 0.17761 0.0
C208 C 1.16141 0.55195 0.52815 0.0
C209 C 1.13709 0.49136 0.50768 0.0
H210 H 0.20325 0.66129 0.52634 0.0
C211 C 1.13677 0.49472 0.46904 0.0
H212 H 1.16135 0.55017 0.55804 0.0
C213 C 1.15827 0.55716 0.45102 0.0
C214 C 0.18209 0.61813 0.47121 0.0
H215 H 1.11626 0.44837 0.45266 0.0
H216 H 1.15368 0.55694 0.42118 0.0
C217 C 0.18443 0.6151 0.51001 0.0
C218 C 0.62783 0.91347 0.82574 0.0
C219 C 0.69962 0.95503 0.82521 0.0
H220 H 0.53102 0.89919 0.80506 0.0
C221 C 0.72806 1.02185 0.81059 0.0
H222 H 0.60474 0.86199 0.83733 0.0
C223 C 0.68586 1.04308 0.7923 0.0
C224 C 0.61483 0.99786 0.7886 0.0
H225 H 0.78315 1.05488 0.80986 0.0
H226 H 0.70932 1.09211 0.77792 0.0
C227 C 0.5856 0.93488 0.80759 0.0
C228 C 0.85633 0.75709 0.15669 0.0
C229 C 0.89545 0.73339 0.17684 0.0
H230 H 0.76688 0.72835 0.12206 0.0
C231 C 0.86327 0.66375 0.1878 0.0
H232 H 0.87835 0.81084 0.14908 0.0
C233 C 0.79853 0.61712 0.17335 0.0
C234 C 0.76567 0.63934 0.14745 0.0
H235 H 0.89095 0.64313 0.20354 0.0
H236 H 0.77877 0.5627 0.17852 0.0
C237 C 0.79219 0.71011 0.14151 0.0
C238 C 0.28185 0.99167 0.38826 0.0
C239 C 0.32446 1.03233 0.41771 0.0
H240 H 0.18501 0.90492 0.37332 0.0
C241 C 0.29272 1.03572 0.44978 0.0
H242 H 0.30281 0.98897 0.36239 0.0
C243 C 0.22537 0.98499 0.45646 0.0
C244 C 0.18896 0.93307 0.43032 0.0
H245 H 0.32257 1.07025 0.47204 0.0
H246 H 0.20625 0.98007 0.48399 0.0
C247 C 0.21352 0.94296 0.39446 0.0
C248 C 0.39492 0.14238 0.79572 0.0
C249 C 0.4399 0.14928 0.82546 0.0
H250 H 0.33153 1.07793 0.75158 0.0
C251 C 0.43592 1.08933 0.84117 0.0
H252 H 0.39569 0.18708 0.78309 0.0
C253 C 0.39927 1.0266 0.82272 0.0
C254 C 0.36585 1.02342 0.78874 0.0
H255 H 0.46804 1.09257 0.86495 0.0
H256 H 0.4048 0.9834 0.8324 0.0
C257 C 0.35771 1.0795 0.77757 0.0
C258 C 0.7074 0.85271 0.4931 0.0
C259 C 0.76216 0.91916 0.50283 0.0
H260 H 0.66537 0.74167 0.49454 0.0
C261 C 0.8194 0.91967 0.52103 0.0
H262 H 0.66188 0.84827 0.47922 0.0
C263 C 0.82118 0.85812 0.52995 0.0
C264 C 0.76656 0.7917 0.52064 0.0
H265 H 0.86303 0.96822 0.52947 0.0
H266 H 0.86566 0.86263 0.54513 0.0
C267 C 0.70965 0.79073 0.50163 0.0
C268 C 1.0493 0.69459 0.85238 0.0
C269 C 0.98766 0.6325 0.84429 0.0
H270 H 1.1574 0.74529 0.86786 0.0
C271 C 0.99495 0.57285 0.84323 0.0
H272 H 1.04793 0.74215 0.85394 0.0
C273 C 1.05927 0.57501 0.85057 0.0
C274 C 1.1205 0.63696 0.85939 0.0
H275 H 0.95015 0.52342 0.83742 0.0
H276 H 1.0603 0.52713 0.85086 0.0
C277 C 1.11328 0.69655 0.86009 0.0
C278 C 0.48938 0.96522 0.1728 0.0
C279 C 0.48018 0.89759 0.17694 0.0
H280 H 0.55943 1.07582 0.16974 0.0
C281 C 0.54138 0.89525 0.18407 0.0
H282 H 0.44495 0.97117 0.16713 0.0
C283 C 0.60717 0.95584 0.18642 0.0
C284 C 0.61702 1.02348 0.182 0.0
H285 H 0.53885 0.84584 0.18747 0.0
H286 H 0.65154 0.94926 0.19075 0.0
C287 C 0.5559 1.02631 0.17476 0.0
C288 C 0.79757 0.36449 0.5231 0.0
C289 C 0.75771 0.31269 0.49655 0.0
H290 H 0.82022 0.46018 0.54943 0.0
C291 C 0.71308 0.32615 0.47374 0.0
H292 H 0.83269 0.3576 0.54159 0.0
C293 C 0.70722 0.38635 0.47778 0.0
C294 C 0.74555 0.43741 0.50483 0.0
H295 H 0.68107 0.28911 0.45289 0.0
H296 H 0.66985 0.39147 0.46028 0.0
C297 C 0.79113 0.42469 0.52738 0.0
C298 C 0.57571 0.66514 0.85678 0.0
C299 C 0.5828 0.6137 0.83807 0.0
H300 H 0.50823 0.69924 0.87819 0.0
C301 C 0.52063 0.55853 0.82393 0.0
H302 H 0.62102 0.70884 0.86849 0.0
C303 C 0.45573 0.55408 0.82878 0.0
C304 C 0.44796 0.60439 0.84805 0.0
H305 H 0.52166 0.51727 0.80946 0.0
H306 H 0.41042 0.5088 0.81834 0.0
C307 C 0.51019 0.66017 0.86206 0.0
C308 C 1.08003 0.45293 0.19808 0.0
C309 C 1.07712 0.51026 0.18253 0.0
H310 H 1.02739 0.34852 0.21851 0.0
C311 C 1.00947 0.49797 0.17405 0.0
H312 H 1.12941 0.4577 0.20529 0.0
C313 C 0.94899 0.43284 0.18147 0.0
C314 C 0.95261 0.37631 0.19798 0.0
H315 H 1.00292 0.53921 0.16212 0.0
H316 H 0.89914 0.42779 0.17548 0.0
C317 C 1.02028 0.38881 0.20566 0.0
C318 C 0.28957 0.63482 0.03698 0.0
C319 C 0.27527 0.68289 0.05308 0.0
H320 H 0.29498 0.5877 0.98702 0.0
C321 C 0.25578 0.72147 0.02934 0.0
H322 H 0.30474 0.60412 0.0542 0.0
C323 C 0.24974 0.71171 -0.009 0.0
C324 C 0.26354 0.66347 0.97482 0.0
H325 H 0.24426 0.75902 0.04038 0.0
H326 H 0.23453 0.7425 0.9739 0.0
C327 C 0.28426 0.62559 -0.00162 0.0
C328 C 0.86662 0.24634 0.37282 0.0
C329 C 0.84096 0.17702 0.38327 0.0
H330 H 0.88664 0.31835 0.32812 0.0
C331 C 0.82245 0.12797 0.3552 0.0
H332 H 0.88088 0.28544 0.39365 0.0
C333 C 0.82584 0.14665 0.31789 0.0
C334 C 0.84743 0.21508 0.30718 0.0
H335 H 0.80302 1.0742 0.36207 0.0
H336 H 0.80978 1.10678 0.29732 0.0
C337 C 0.8698 0.26516 0.33519 0.0
C338 C 0.81154 0.71669 0.69721 0.0
C339 C 0.7858 0.65193 0.71449 0.0
H340 H 0.83134 0.77325 0.64623 0.0
C341 C 0.7555 0.59317 0.69197 0.0
H342 H 0.83531 0.76309 0.71363 0.0
C343 C 0.75125 0.59859 0.65348 0.0
C344 C 0.77878 0.66321 0.63567 0.0
H345 H 0.73393 0.54225 0.70416 0.0
H346 H 0.72551 0.55139 0.63779 0.0
C347 C 0.80874 0.72231 0.65836 0.0
C348 C 0.58921 1.02895 0.58825 0.0
C349 C 0.66083 1.06999 0.58655 0.0
H350 H 0.50229 0.98007 0.62288 0.0
C351 C 0.69979 1.09691 0.61917 0.0
H352 H 0.55799 1.00759 0.56337 0.0
C353 C 0.66793 1.08288 0.65295 0.0
C354 C 0.59642 1.03993 0.6551 0.0
H355 H 0.75492 0.12981 0.61855 0.0
H356 H 0.69966 1.10619 0.67743 0.0
C357 C 0.55729 1.01356 0.62228 0.0
C358 C 0.76497 0.6389 0.96547 0.0
C359 C 0.75636 0.58525 0.94284 0.0
H360 H 0.75049 0.66804 0.01838 0.0
C361 C 0.73073 0.51881 0.95768 0.0
H362 H 0.78333 0.69023 0.95431 0.0
C363 C 0.714 0.50615 -0.00519 0.0
C364 C 0.72067 0.55937 0.01755 0.0
H365 H 0.7237 0.47663 0.94053 0.0
H366 H 0.69601 0.45468 0.00554 0.0
C367 C 0.74625 0.62592 0.00226 0.0
C368 C 0.31711 0.72641 0.30831 0.0
C369 C 0.27663 0.7382 0.28195 0.0
H370 H 0.34195 0.72409 0.36587 0.0
C371 C 0.23502 0.76435 0.29357 0.0
H372 H 0.3502 0.70691 0.30007 0.0
C373 C 0.23094 0.77485 0.33087 0.0
C374 C 0.26791 0.75898 0.35757 0.0
H375 H 0.20402 0.7751 0.27392 0.0
H376 H 0.19549 0.79154 0.33887 0.0
C377 C 0.31251 0.73633 0.34589 0.0
loop_
_geom_bond_atom_site_label_1
_geom_bond_atom_site_label_2
_geom_bond_distance
_geom_bond_site_symmetry_2
_ccdc_geom_bond_type
Tb0 C10 2.825 . S
Tb0 O11 2.347 . S
Tb0 O14 2.366 . S
Tb0 O19 2.418 . S
Tb0 O20 2.384 1_455 S
Tb0 O23 2.479 . S
Tb0 O24 2.471 . S
Eu1 O12 2.418 . S
Eu1 O13 2.384 1_655 S
Eu1 O16 2.479 . S
Eu1 O17 2.471 . S
Eu1 O18 2.347 1_655 S
Eu1 O21 2.366 . S
Eu1 C31 2.825 . S
C2 O18 1.259 . S
C2 O19 1.265 . S
C3 O20 1.255 . S
C3 O21 1.265 . S
C4 C6 1.380 . S
C4 C7 1.374 . S
C4 C10 1.507 . S
C5 C6 1.384 . S
C5 C9 1.387 . S
C5 H32 0.930 . S
C6 C4 1.380 . S
C6 C5 1.384 . S
C6 H33 0.931 . S
C7 C4 1.374 . S
C7 C8 1.390 . S
C7 H34 0.930 . S
C8 C7 1.390 . S
C8 C9 1.391 . S
C8 H35 0.930 . S
C9 C5 1.387 . S
C9 C8 1.391 . S
C10 Tb0 2.825 . S
C10 C4 1.507 . S
C10 O23 1.238 . S
C10 O24 1.247 . S
O11 Tb0 2.347 . S
O11 C15 1.259 . S
O12 Eu1 2.418 . S
O12 C15 1.265 1_655 S
O13 Eu1 2.384 1_455 S
O13 C22 1.255 . S
O14 Tb0 2.366 . S
O14 C22 1.265 . S
C15 O11 1.259 . S
C15 O12 1.265 1_455 S
O16 Eu1 2.479 . S
O16 C31 1.238 . S
O17 Eu1 2.471 . S
O17 C31 1.247 . S
O18 Eu1 2.347 1_455 S
O18 C2 1.259 . S
O19 Tb0 2.418 . S
O19 C2 1.265 . S
O20 Tb0 2.384 1_655 S
O20 C3 1.255 . S
O21 Eu1 2.366 . S
O21 C3 1.265 . S
C22 O13 1.255 . S
C22 O14 1.265 . S
O23 Tb0 2.479 . S
O23 C10 1.238 . S
O24 Tb0 2.471 . S
O24 C10 1.247 . S
C25 C28 1.380 . S
C25 C29 1.374 . S
C25 C31 1.507 . S
C26 C27 1.387 . S
C26 C30 1.391 . S
C27 C26 1.387 . S
C27 C28 1.384 . S
C27 H36 0.930 . S
C28 C25 1.380 . S
C28 C27 1.384 . S
C28 H37 0.931 . S
C29 C25 1.374 . S
C29 C30 1.390 . S
C29 H38 0.930 . S
C30 C26 1.391 . S
C30 C29 1.390 . S
C30 H39 0.930 . S
C31 Eu1 2.825 . S
C31 O16 1.238 . S
C31 O17 1.247 . S
C31 C25 1.507 . S
H32 C5 0.930 . S
H33 C6 0.931 . S
H34 C7 0.930 . S
H35 C8 0.930 . S
H36 C27 0.930 . S
H37 C28 0.931 . S
H38 C29 0.930 . S
H39 C30 0.930 . S
Tb40 C50 2.825 . S
Tb40 O51 2.347 . S
Tb40 O54 2.366 . S
Tb40 O59 2.418 . S
Tb40 O60 2.384 1_545 S
Tb40 O63 2.479 . S
Tb40 O64 2.471 . S
Eu41 O52 2.418 1_565 S
Eu41 O53 2.384 1_565 S
Eu41 O56 2.479 . S
Eu41 O57 2.471 . S
Eu41 O58 2.347 1_565 S
Eu41 O61 2.366 . S
Eu41 C71 2.825 . S
C42 O58 1.259 . S
C42 O59 1.265 . S
C43 O60 1.255 . S
C43 O61 1.265 . S
C44 C46 1.380 . S
C44 C47 1.374 . S
C44 C50 1.507 . S
C45 C46 1.384 . S
C45 C49 1.387 . S
C45 H72 0.930 . S
C46 C44 1.380 . S
C46 C45 1.384 . S
C46 H73 0.931 . S
C47 C44 1.374 . S
C47 C48 1.390 . S
C47 H74 0.930 . S
C48 C47 1.390 . S
C48 C49 1.391 . S
C48 H75 0.930 . S
C49 C45 1.387 . S
C49 C48 1.391 . S
C50 Tb40 2.825 . S
C50 C44 1.507 . S
C50 O63 1.238 . S
C50 O64 1.247 . S
O51 Tb40 2.347 . S
O51 C55 1.259 . S
O52 Eu41 2.418 1_545 S
O52 C55 1.265 . S
O53 Eu41 2.384 1_545 S
O53 C62 1.255 . S
O54 Tb40 2.366 . S
O54 C62 1.265 . S
C55 O51 1.259 . S
C55 O52 1.265 . S
O56 Eu41 2.479 . S
O56 C71 1.238 . S
O57 Eu41 2.471 . S
O57 C71 1.247 . S
O58 Eu41 2.347 1_545 S
O58 C42 1.259 . S
O59 Tb40 2.418 . S
O59 C42 1.265 . S
O60 Tb40 2.384 1_565 S
O60 C43 1.255 . S
O61 Eu41 2.366 . S
O61 C43 1.265 . S
C62 O53 1.255 . S
C62 O54 1.265 . S
O63 Tb40 2.479 . S
O63 C50 1.238 . S
O64 Tb40 2.471 . S
O64 C50 1.247 . S
C65 C68 1.380 . S
C65 C69 1.374 . S
C65 C71 1.507 . S
C66 C67 1.387 . S
C66 C70 1.391 . S
C67 C66 1.387 . S
C67 C68 1.384 . S
C67 H76 0.930 . S
C68 C65 1.380 . S
C68 C67 1.384 . S
C68 H77 0.931 . S
C69 C65 1.374 . S
C69 C70 1.390 . S
C69 H78 0.930 . S
C70 C66 1.391 . S
C70 C69 1.390 . S
C70 H79 0.930 . S
C71 Eu41 2.825 . S
C71 O56 1.238 . S
C71 O57 1.247 . S
C71 C65 1.507 . S
H72 C45 0.930 . S
H73 C46 0.931 . S
H74 C47 0.930 . S
H75 C48 0.930 . S
H76 C67 0.930 . S
H77 C68 0.931 . S
H78 C69 0.930 . S
H79 C70 0.930 . S
Tb80 C90 2.825 . S
Tb80 O91 2.347 . S
Tb80 O94 2.366 . S
Tb80 O99 2.418 . S
Tb80 O100 2.384 . S
Tb80 O103 2.479 . S
Tb80 O104 2.471 . S
Eu81 O92 2.418 . S
Eu81 O93 2.384 . S
Eu81 O96 2.479 . S
Eu81 O97 2.471 . S
Eu81 O98 2.347 . S
Eu81 O101 2.366 . S
Eu81 C111 2.825 . S
C82 O98 1.259 . S
C82 O99 1.265 . S
C83 O100 1.255 . S
C83 O101 1.265 . S
C84 C86 1.380 . S
C84 C87 1.374 . S
C84 C90 1.507 . S
C85 C86 1.384 . S
C85 C89 1.387 . S
C85 H112 0.930 . S
C86 C84 1.380 . S
C86 C85 1.384 . S
C86 H113 0.931 . S
C87 C84 1.374 . S
C87 C88 1.390 . S
C87 H114 0.930 . S
C88 C87 1.390 . S
C88 C89 1.391 . S
C88 H115 0.930 . S
C89 C85 1.387 . S
C89 C88 1.391 . S
C90 Tb80 2.825 . S
C90 C84 1.507 . S
C90 O103 1.238 . S
C90 O104 1.247 . S
O91 Tb80 2.347 . S
O91 C95 1.259 . S
O92 Eu81 2.418 . S
O92 C95 1.265 . S
O93 Eu81 2.384 . S
O93 C102 1.255 . S
O94 Tb80 2.366 . S
O94 C102 1.265 . S
C95 O91 1.259 . S
C95 O92 1.265 . S
O96 Eu81 2.479 . S
O96 C111 1.238 . S
O97 Eu81 2.471 . S
O97 C111 1.247 . S
O98 Eu81 2.347 . S
O98 C82 1.259 . S
O99 Tb80 2.418 . S
O99 C82 1.265 . S
O100 Tb80 2.384 . S
O100 C83 1.255 . S
O101 Eu81 2.366 . S
O101 C83 1.265 . S
C102 O93 1.255 . S
C102 O94 1.265 . S
O103 Tb80 2.479 . S
O103 C90 1.238 . S
O104 Tb80 2.471 . S
O104 C90 1.247 . S
C105 C108 1.380 . S
C105 C109 1.374 . S
C105 C111 1.507 . S
C106 C107 1.387 . S
C106 C110 1.391 . S
C107 C106 1.387 . S
C107 C108 1.384 . S
C107 H116 0.930 . S
C108 C105 1.380 . S
C108 C107 1.384 . S
C108 H117 0.931 . S
C109 C105 1.374 . S
C109 C110 1.390 . S
C109 H118 0.930 . S
C110 C106 1.391 . S
C110 C109 1.390 . S
C110 H119 0.930 . S
C111 Eu81 2.825 . S
C111 O96 1.238 . S
C111 O97 1.247 . S
C111 C105 1.507 . S
H112 C85 0.930 . S
H113 C86 0.931 . S
H114 C87 0.930 . S
H115 C88 0.930 . S
H116 C107 0.930 . S
H117 C108 0.931 . S
H118 C109 0.930 . S
H119 C110 0.930 . S
H120 C127 0.929 . S
H121 C130 0.930 . S
H122 C132 0.929 . S
H123 C124 0.969 . S
C124 H123 0.969 . S
C124 O125 1.550 . S
C124 H126 0.973 . S
O125 C124 1.550 . S
O125 C131 1.412 . S
H126 C124 0.973 . S
C127 H120 0.929 . S
C127 C128 1.400 . S
C127 C129 1.364 . S
C128 C127 1.400 . S
C128 C132 1.377 . S
C129 C127 1.364 . S
C129 C130 1.374 1_545 S
C130 H121 0.930 . S
C130 C129 1.374 1_565 S
C130 C131 1.383 . S
C131 O125 1.412 . S
C131 C130 1.383 . S
C131 C132 1.394 1_565 S
C132 H122 0.929 . S
C132 C128 1.377 . S
C132 C131 1.394 1_545 S
H133 C140 0.929 . S
H134 C143 0.930 . S
H135 C145 0.929 . S
H136 C137 0.969 . S
C137 H136 0.969 . S
C137 O138 1.550 . S
C137 H139 0.973 . S
O138 C137 1.550 . S
O138 C144 1.412 . S
H139 C137 0.973 . S
C140 H133 0.929 . S
C140 C141 1.400 . S
C140 C142 1.364 . S
C141 C140 1.400 . S
C141 C145 1.377 . S
C142 C140 1.364 . S
C142 C143 1.374 . S
C143 H134 0.930 . S
C143 C142 1.374 . S
C143 C144 1.383 . S
C144 O138 1.412 . S
C144 C143 1.383 . S
C144 C145 1.394 . S
C145 H135 0.929 . S
C145 C141 1.377 . S
C145 C144 1.394 . S
H146 C153 0.929 . S
H147 C156 0.930 . S
H148 C158 0.929 . S
H149 C150 0.969 . S
C150 H149 0.969 . S
C150 O151 1.550 . S
C150 H152 0.973 . S
O151 C150 1.550 . S
O151 C157 1.412 . S
H152 C150 0.973 . S
C153 H146 0.929 . S
C153 C154 1.400 . S
C153 C155 1.364 1_655 S
C154 C153 1.400 . S
C154 C158 1.377 1_655 S
C155 C153 1.364 1_455 S
C155 C156 1.374 . S
C156 H147 0.930 . S
C156 C155 1.374 . S
C156 C157 1.383 . S
C157 O151 1.412 . S
C157 C156 1.383 . S
C157 C158 1.394 . S
C158 H148 0.929 . S
C158 C154 1.377 1_455 S
C158 C157 1.394 . S
H159 C166 0.929 . S
H160 C169 0.930 . S
H161 C171 0.929 . S
H162 C163 0.969 . S
C163 H162 0.969 . S
C163 O164 1.550 . S
C163 H165 0.973 . S
O164 C163 1.550 . S
O164 C170 1.412 . S
H165 C163 0.973 . S
C166 H159 0.929 . S
C166 C167 1.400 . S
C166 C168 1.364 1_655 S
C167 C166 1.400 . S
C167 C171 1.377 1_655 S
C168 C166 1.364 1_455 S
C168 C169 1.374 . S
C169 H160 0.930 . S
C169 C168 1.374 . S
C169 C170 1.383 . S
C170 O164 1.412 . S
C170 C169 1.383 . S
C170 C171 1.394 . S
C171 H161 0.929 . S
C171 C167 1.377 1_455 S
C171 C170 1.394 . S
H172 C179 0.929 . S
H173 C182 0.930 . S
H174 C184 0.929 . S
H175 C176 0.969 . S
C176 H175 0.969 . S
C176 O177 1.550 . S
C176 H178 0.973 . S
O177 C176 1.550 . S
O177 C183 1.412 . S
H178 C176 0.973 . S
C179 H172 0.929 . S
C179 C180 1.400 . S
C179 C181 1.364 . S
C180 C179 1.400 . S
C180 C184 1.377 . S
C181 C179 1.364 . S
C181 C182 1.374 1_565 S
C182 H173 0.930 . S
C182 C181 1.374 1_545 S
C182 C183 1.383 . S
C183 O177 1.412 . S
C183 C182 1.383 . S
C183 C184 1.394 1_545 S
C184 H174 0.929 . S
C184 C180 1.377 . S
C184 C183 1.394 1_565 S
H185 C192 0.929 . S
H186 C195 0.930 . S
H187 C197 0.929 . S
H188 C189 0.969 . S
C189 H188 0.969 . S
C189 O190 1.550 . S
C189 H191 0.973 . S
O190 C189 1.550 . S
O190 C196 1.412 . S
H191 C189 0.973 . S
C192 H185 0.929 . S
C192 C193 1.400 . S
C192 C194 1.364 . S
C193 C192 1.400 . S
C193 C197 1.377 . S
C194 C192 1.364 . S
C194 C195 1.374 . S
C195 H186 0.930 . S
C195 C194 1.374 . S
C195 C196 1.383 . S
C196 O190 1.412 . S
C196 C195 1.383 . S
C196 C197 1.394 . S
C197 H187 0.929 . S
C197 C193 1.377 . S
C197 C196 1.394 . S
C198 C199 1.387 . S
C198 H202 0.950 . S
C198 C207 1.390 . S
C199 C198 1.387 . S
C199 C201 1.387 . S
H200 C207 0.950 . S
C201 C199 1.387 . S
C201 C203 1.390 . S
C201 H205 0.950 . S
H202 C198 0.950 . S
C203 C201 1.390 . S
C203 C204 1.387 . S
C203 H206 0.950 . S
C204 C203 1.387 . S
C204 C207 1.387 . S
H205 C201 0.950 . S
H206 C203 0.950 . S
C207 C198 1.390 . S
C207 H200 0.950 . S
C207 C204 1.387 . S
C208 C209 1.387 . S
C208 H212 0.950 . S
C208 C217 1.390 . S
C209 C208 1.387 . S
C209 C211 1.387 . S
H210 C217 0.950 1_455 S
C211 C209 1.387 . S
C211 C213 1.390 . S
C211 H215 0.950 . S
H212 C208 0.950 . S
C213 C211 1.390 . S
C213 C214 1.387 . S
C213 H216 0.950 . S
C214 C213 1.387 . S
C214 C217 1.387 . S
H215 C211 0.950 . S
H216 C213 0.950 . S
C217 C208 1.390 . S
C217 H210 0.950 1_655 S
C217 C214 1.387 . S
C218 C219 1.387 . S
C218 H222 0.950 . S
C218 C227 1.390 . S
C219 C218 1.387 . S
C219 C221 1.387 . S
H220 C227 0.950 . S
C221 C219 1.387 . S
C221 C223 1.390 . S
C221 H225 0.950 . S
H222 C218 0.950 . S
C223 C221 1.390 . S
C223 C224 1.387 . S
C223 H226 0.950 . S
C224 C223 1.387 . S
C224 C227 1.387 . S
H225 C221 0.950 . S
H226 C223 0.950 . S
C227 C218 1.390 . S
C227 H220 0.950 . S
C227 C224 1.387 . S
C228 C229 1.387 . S
C228 H232 0.950 . S
C228 C237 1.390 . S
C229 C228 1.387 . S
C229 C231 1.387 . S
H230 C237 0.950 . S
C231 C229 1.387 . S
C231 C233 1.390 . S
C231 H235 0.950 . S
H232 C228 0.950 . S
C233 C231 1.390 . S
C233 C234 1.387 . S
C233 H236 0.950 . S
C234 C233 1.387 . S
C234 C237 1.387 . S
H235 C231 0.950 . S
H236 C233 0.950 . S
C237 C228 1.390 . S
C237 H230 0.950 . S
C237 C234 1.387 . S
C238 C239 1.387 . S
C238 H242 0.950 . S
C238 C247 1.390 . S
C239 C238 1.387 . S
C239 C241 1.387 . S
H240 C247 0.950 . S
C241 C239 1.387 . S
C241 C243 1.390 . S
C241 H245 0.950 . S
H242 C238 0.950 . S
C243 C241 1.390 . S
C243 C244 1.387 . S
C243 H246 0.950 . S
C244 C243 1.387 . S
C244 C247 1.387 . S
H245 C241 0.950 . S
H246 C243 0.950 . S
C247 C238 1.390 . S
C247 H240 0.950 . S
C247 C244 1.387 . S
C248 C249 1.387 . S
C248 H252 0.950 . S
C248 C257 1.390 . S
C249 C248 1.387 . S
C249 C251 1.387 . S
H250 C257 0.950 . S
C251 C249 1.387 . S
C251 C253 1.390 . S
C251 H255 0.950 . S
H252 C248 0.950 . S
C253 C251 1.390 . S
C253 C254 1.387 . S
C253 H256 0.950 . S
C254 C253 1.387 . S
C254 C257 1.387 . S
H255 C251 0.950 . S
H256 C253 0.950 . S
C257 C248 1.390 . S
C257 H250 0.950 . S
C257 C254 1.387 . S
C258 C259 1.387 . S
C258 H262 0.950 . S
C258 C267 1.390 . S
C259 C258 1.387 . S
C259 C261 1.387 . S
H260 C267 0.950 . S
C261 C259 1.387 . S
C261 C263 1.390 . S
C261 H265 0.950 . S
H262 C258 0.950 . S
C263 C261 1.390 . S
C263 C264 1.387 . S
C263 H266 0.950 . S
C264 C263 1.387 . S
C264 C267 1.387 . S
H265 C261 0.950 . S
H266 C263 0.950 . S
C267 C258 1.390 . S
C267 H260 0.950 . S
C267 C264 1.387 . S
C268 C269 1.387 . S
C268 H272 0.950 . S
C268 C277 1.390 . S
C269 C268 1.387 . S
C269 C271 1.387 . S
H270 C277 0.950 . S
C271 C269 1.387 . S
C271 C273 1.390 . S
C271 H275 0.950 . S
H272 C268 0.950 . S
C273 C271 1.390 . S
C273 C274 1.387 . S
C273 H276 0.950 . S
C274 C273 1.387 . S
C274 C277 1.387 . S
H275 C271 0.950 . S
H276 C273 0.950 . S
C277 C268 1.390 . S
C277 H270 0.950 . S
C277 C274 1.387 . S
C278 C279 1.387 . S
C278 H282 0.950 . S
C278 C287 1.390 . S
C279 C278 1.387 . S
C279 C281 1.387 . S
H280 C287 0.950 . S
C281 C279 1.387 . S
C281 C283 1.390 . S
C281 H285 0.950 . S
H282 C278 0.950 . S
C283 C281 1.390 . S
C283 C284 1.387 . S
C283 H286 0.950 . S
C284 C283 1.387 . S
C284 C287 1.387 . S
H285 C281 0.950 . S
H286 C283 0.950 . S
C287 C278 1.390 . S
C287 H280 0.950 . S
C287 C284 1.387 . S
C288 C289 1.387 . S
C288 H292 0.950 . S
C288 C297 1.390 . S
C289 C288 1.387 . S
C289 C291 1.387 . S
H290 C297 0.950 . S
C291 C289 1.387 . S
C291 C293 1.390 . S
C291 H295 0.950 . S
H292 C288 0.950 . S
C293 C291 1.390 . S
C293 C294 1.387 . S
C293 H296 0.950 . S
C294 C293 1.387 . S
C294 C297 1.387 . S
H295 C291 0.950 . S
H296 C293 0.950 . S
C297 C288 1.390 . S
C297 H290 0.950 . S
C297 C294 1.387 . S
C298 C299 1.387 . S
C298 H302 0.950 . S
C298 C307 1.390 . S
C299 C298 1.387 . S
C299 C301 1.387 . S
H300 C307 0.950 . S
C301 C299 1.387 . S
C301 C303 1.390 . S
C301 H305 0.950 . S
H302 C298 0.950 . S
C303 C301 1.390 . S
C303 C304 1.387 . S
C303 H306 0.950 . S
C304 C303 1.387 . S
C304 C307 1.387 . S
H305 C301 0.950 . S
H306 C303 0.950 . S
C307 C298 1.390 . S
C307 H300 0.950 . S
C307 C304 1.387 . S
C308 C309 1.387 . S
C308 H312 0.950 . S
C308 C317 1.390 . S
C309 C308 1.387 . S
C309 C311 1.387 . S
H310 C317 0.950 . S
C311 C309 1.387 . S
C311 C313 1.390 . S
C311 H315 0.950 . S
H312 C308 0.950 . S
C313 C311 1.390 . S
C313 C314 1.387 . S
C313 H316 0.950 . S
C314 C313 1.387 . S
C314 C317 1.387 . S
H315 C311 0.950 . S
H316 C313 0.950 . S
C317 C308 1.390 . S
C317 H310 0.950 . S
C317 C314 1.387 . S
C318 C319 1.387 . S
C318 H322 0.950 . S
C318 C327 1.412 . S
C319 C318 1.387 . S
C319 C321 1.387 . S
H320 C327 0.937 1_556 S
C321 C319 1.387 . S
C321 C323 1.390 . S
C321 H325 0.950 . S
H322 C318 0.950 . S
C323 C321 1.390 . S
C323 C324 1.387 1_554 S
C323 H326 0.950 1_554 S
C324 C323 1.387 1_556 S
C324 C327 1.378 1_556 S
H325 C321 0.950 . S
H326 C323 0.950 1_556 S
C327 C318 1.412 . S
C327 H320 0.937 1_554 S
C327 C324 1.378 1_554 S
C328 C329 1.387 . S
C328 H332 0.950 . S
C328 C337 1.390 . S
C329 C328 1.387 . S
C329 C331 1.387 1_545 S
H330 C337 0.950 . S
C331 C329 1.387 1_565 S
C331 C333 1.390 . S
C331 H335 0.950 . S
H332 C328 0.950 . S
C333 C331 1.390 . S
C333 C334 1.387 1_565 S
C333 H336 0.950 . S
C334 C333 1.387 1_545 S
C334 C337 1.387 . S
H335 C331 0.950 . S
H336 C333 0.950 . S
C337 C328 1.390 . S
C337 H330 0.950 . S
C337 C334 1.387 . S
C338 C339 1.387 . S
C338 H342 0.950 . S
C338 C347 1.390 . S
C339 C338 1.387 . S
C339 C341 1.387 . S
H340 C347 0.950 . S
C341 C339 1.387 . S
C341 C343 1.390 . S
C341 H345 0.950 . S
H342 C338 0.950 . S
C343 C341 1.390 . S
C343 C344 1.387 . S
C343 H346 0.950 . S
C344 C343 1.387 . S
C344 C347 1.387 . S
H345 C341 0.950 . S
H346 C343 0.950 . S
C347 C338 1.390 . S
C347 H340 0.950 . S
C347 C344 1.387 . S
C348 C349 1.387 1_565 S
C348 H352 0.950 . S
C348 C357 1.390 . S
C349 C348 1.387 1_545 S
C349 C351 1.387 . S
H350 C357 0.950 . S
C351 C349 1.387 . S
C351 C353 1.390 . S
C351 H355 0.950 . S
H352 C348 0.950 . S
C353 C351 1.390 . S
C353 C354 1.387 1_545 S
C353 H356 0.950 . S
C354 C353 1.387 1_565 S
C354 C357 1.387 . S
H355 C351 0.950 . S
H356 C353 0.950 . S
C357 C348 1.390 . S
C357 H350 0.950 . S
C357 C354 1.387 . S
C358 C359 1.387 . S
C358 H362 0.950 . S
C358 C367 1.390 1_556 S
C359 C358 1.387 . S
C359 C361 1.387 . S
H360 C367 0.950 . S
C361 C359 1.387 . S
C361 C363 1.390 . S
C361 H365 0.950 . S
H362 C358 0.950 . S
C363 C361 1.390 . S
C363 C364 1.387 1_556 S
C363 H366 0.950 1_556 S
C364 C363 1.387 1_554 S
C364 C367 1.387 . S
H365 C361 0.950 . S
H366 C363 0.950 1_554 S
C367 C358 1.390 1_554 S
C367 H360 0.950 . S
C367 C364 1.387 . S
C368 C369 1.387 1_655 S
C368 H372 0.950 . S
C368 C377 1.390 . S
C369 C368 1.387 1_455 S
C369 C371 1.387 . S
H370 C377 0.950 . S
C371 C369 1.387 . S
C371 C373 1.390 . S
C371 H375 0.950 . S
H372 C368 0.950 . S
C373 C371 1.390 . S
C373 C374 1.387 . S
C373 H376 0.950 . S
C374 C373 1.387 . S
C374 C377 1.387 1_455 S
H375 C371 0.950 . S
H376 C373 0.950 . S
C377 C368 1.390 . S
C377 H370 0.950 . S
C377 C374 1.387 1_655 S
C199 C9 0.782 . S
C204 C189 0.810 . S
C209 C49 0.608 . S
C214 C167 0.573 . S
C219 C89 0.599 . S
C224 C180 0.579 . S
C229 C26 0.698 . S
C234 C193 0.649 . S
C244 C163 0.958 . S
C239 C66 0.849 . S
C254 C176 1.016 . S
C249 C106 0.876 . S
C259 C43 2.981 . S
C264 C141 2.941 . S
C269 C83 3.051 . S
C274 C154 2.999 . S
C279 C22 3.175 . S
C284 C124 2.938 . S
C294 C137 2.965 . S
C289 C62 3.186 . S
C304 C150 2.912 . S
C299 C102 3.109 . S
C309 C3 2.993 . S
C314 C128 2.962 . S
C324 C155 1.783 . S
C319 C15 1.734 . S
C329 C55 1.730 . S
C334 C129 1.814 . S
C339 C95 1.732 . S
C344 C142 1.813 . S
C354 C181 1.176 . S
C349 C42 1.194 . S
C364 C194 1.181 . S
C359 C82 1.193 . S
C369 C2 1.143 . S
C374 C168 1.141 . S
