# Generated by pormake.
# Topology nom, (4,4)-cn, num edge types: 1
# Building blocks:
#     Node 0, Type 0, BuildingBlock: NAWXER_clean_linker_0, # of connection points: 4
#     Node 1, Type 0, BuildingBlock: NAWXER_clean_linker_0, # of connection points: 4
#     Node 2, Type 0, BuildingBlock: NAWXER_clean_linker_0, # of connection points: 4
#     Node 3, Type 0, BuildingBlock: NAWXER_clean_linker_0, # of connection points: 4
#     Node 4, Type 0, BuildingBlock: NAWXER_clean_linker_0, # of connection points: 4
#     Node 5, Type 0, BuildingBlock: NAWXER_clean_linker_0, # of connection points: 4
#     Node 6, Type 1, BuildingBlock: QUQFOY_clean_sbu_1, # of connection points: 4
#     Node 7, Type 1, BuildingBlock: QUQFOY_clean_sbu_1, # of connection points: 4
#     Node 8, Type 1, BuildingBlock: QUQFOY_clean_sbu_1, # of connection points: 4
#     Node 9, Type 1, BuildingBlock: QUQFOY_clean_sbu_1, # of connection points: 4
#     Node 10, Type 1, BuildingBlock: QUQFOY_clean_sbu_1, # of connection points: 4
#     Node 11, Type 1, BuildingBlock: QUQFOY_clean_sbu_1, # of connection points: 4
#     Edge 12, Type (0, 1), None
#     Edge 13, Type (0, 1), None
#     Edge 14, Type (0, 1), None
#     Edge 15, Type (0, 1), None
#     Edge 16, Type (0, 1), None
#     Edge 17, Type (0, 1), None
#     Edge 18, Type (0, 1), None
#     Edge 19, Type (0, 1), None
#     Edge 20, Type (0, 1), None
#     Edge 21, Type (0, 1), None
#     Edge 22, Type (0, 1), None
#     Edge 23, Type (0, 1), None
#     Edge 24, Type (0, 1), None
#     Edge 25, Type (0, 1), None
#     Edge 26, Type (0, 1), None
#     Edge 27, Type (0, 1), None
#     Edge 28, Type (0, 1), None
#     Edge 29, Type (0, 1), None
#     Edge 30, Type (0, 1), None
#     Edge 31, Type (0, 1), None
#     Edge 32, Type (0, 1), None
#     Edge 33, Type (0, 1), None
#     Edge 34, Type (0, 1), None
#     Edge 35, Type (0, 1), None
# Relax obj value: 0.026
# Max RMSD: 0.143
# Mean RMSD: 0.126
data_MOF--net-nom--node1-QUQFOY_clean_sbu_1--node2-NAWXER_clean_linker_0--edge1-none
_symmetry_space_group_name_H-M    P1
_symmetry_Int_Tables_number       1
_symmetry_cell_setting            triclinic
loop_
_symmetry_equiv_pos_as_xyz
'x, y, z'
_cell_length_a     30.031683
_cell_length_b     30.024613
_cell_length_c     29.437791
_cell_angle_alpha  89.975296
_cell_angle_beta   90.013844
_cell_angle_gamma 119.97652
loop_
_atom_site_label
_atom_site_type_symbol
_atom_site_fract_x
_atom_site_fract_y
_atom_site_fract_z
_atom_type_partial_charge
C0 C 0.8605 0.50609 0.39069 0.0
C1 C 0.81885 0.45547 0.39156 0.0
C2 C 0.90905 0.51611 0.37693 0.0
C3 C 0.91708 0.47587 0.36373 0.0
C4 C 0.82747 0.41482 0.38024 0.0
C5 C 0.8764 0.42499 0.36646 0.0
C6 C 0.96743 0.48907 0.34424 0.0
C7 C 0.86475 0.40637 0.22273 0.0
C8 C 0.85892 0.44101 0.19461 0.0
C9 C 0.90191 0.42449 0.25702 0.0
C10 C 0.93371 0.47747 0.26394 0.0
C11 C 0.89004 0.49414 0.20253 0.0
C12 C 0.9274 0.51217 0.23667 0.0
C13 C 0.97609 0.49651 0.29714 0.0
C14 C 0.20956 0.61072 0.2842 0.0
C15 C 0.21633 0.65504 0.26171 0.0
C16 C 0.16063 0.57311 0.29893 0.0
C17 C 0.11782 0.5792 0.29111 0.0
C18 C 0.17302 0.65977 0.25228 0.0
C19 C 0.12426 0.62204 0.26652 0.0
C20 C 0.06649 0.54312 0.30998 0.0
C21 C 0.16594 0.6234 0.43386 0.0
C22 C 0.17467 0.58909 0.45976 0.0
C23 C 0.12898 0.60513 0.39939 0.0
C24 C 0.0999 0.55225 0.39048 0.0
C25 C 0.14654 0.53627 0.44966 0.0
C26 C 0.10904 0.51799 0.41563 0.0
C27 C 0.05788 0.5323 0.35688 0.0
H28 H 0.85537 0.53829 0.39938 0.0
H29 H 0.9401 0.55564 0.37509 0.0
H30 H 0.79618 0.37539 0.3807 0.0
H31 H 0.88212 0.39339 0.35691 0.0
H32 H 0.84165 0.36527 0.21746 0.0
H33 H 0.90704 0.39715 0.27708 0.0
H34 H 0.88678 0.52191 0.1814 0.0
H35 H 0.95192 0.55323 0.24136 0.0
H36 H 0.24223 0.60601 0.2919 0.0
H37 H 0.15641 0.53988 0.31718 0.0
H38 H 0.17691 0.69328 0.23478 0.0
H39 H 0.09175 0.62742 0.25992 0.0
H40 H 0.18696 0.66429 0.44082 0.0
H41 H 0.12211 0.63209 0.38049 0.0
H42 H 0.15204 0.50882 0.4692 0.0
H43 H 0.08673 0.47701 0.40927 0.0
N44 N 0.00865 0.50687 0.37248 0.0
N45 N 0.02518 0.52436 0.28176 0.0
C46 C 0.37204 0.85891 0.56193 0.0
C47 C 0.37868 0.81592 0.55841 0.0
C48 C 0.41095 0.90738 0.54836 0.0
C49 C 0.45714 0.91389 0.53065 0.0
C50 C 0.42606 0.82292 0.54274 0.0
C51 C 0.46504 0.87165 0.52883 0.0
C52 C 0.49423 0.96443 0.51132 0.0
C53 C 0.47993 0.86641 0.38572 0.0
C54 C 0.43621 0.85721 0.3607 0.0
C55 C 0.49873 0.90311 0.42041 0.0
C56 C 0.47402 0.93095 0.43086 0.0
C57 C 0.41081 0.88437 0.37224 0.0
C58 C 0.4298 0.92117 0.40682 0.0
C59 C 0.49684 0.97317 0.46414 0.0
C60 C 0.61403 0.2067 0.45152 0.0
C61 C 0.57601 0.21314 0.42955 0.0
C62 C 0.60331 0.15783 0.46592 0.0
C63 C 0.55461 0.11476 0.45814 0.0
C64 C 0.52816 0.1696 0.4202 0.0
C65 C 0.51777 0.12088 0.434 0.0
C66 C 0.53981 0.06355 0.47703 0.0
C67 C 0.55636 0.16282 0.60051 0.0
C68 C 0.59939 0.17201 0.62663 0.0
C69 C 0.5381 0.12569 0.56617 0.0
C70 C 0.56233 0.09694 0.55762 0.0
C71 C 0.62446 0.14414 0.61692 0.0
C72 C 0.60569 0.10651 0.58302 0.0
C73 C 0.5409 0.0549 0.52405 0.0
H74 H 0.33619 0.85495 0.57408 0.0
H75 H 0.40419 0.93959 0.55004 0.0
H76 H 0.43233 0.79052 0.53971 0.0
H77 H 0.50075 0.87611 0.51582 0.0
H78 H 0.50052 0.84636 0.37769 0.0
H79 H 0.53348 0.91088 0.43817 0.0
H80 H 0.37714 0.8784 0.35363 0.0
H81 H 0.41053 0.94268 0.41429 0.0
H82 H 0.65126 0.2396 0.4592 0.0
H83 H 0.63255 0.15383 0.48398 0.0
H84 H 0.49822 0.17328 0.4031 0.0
H85 H 0.48 0.08817 0.42752 0.0
H86 H 0.5362 0.18363 0.60716 0.0
H87 H 0.5043 0.1185 0.54706 0.0
H88 H 0.65743 0.15 0.63662 0.0
H89 H 0.62469 0.08446 0.57692 0.0
N90 N 0.51683 0.00566 0.53963 0.0
N91 N 0.51823 0.02228 0.44872 0.0
C92 C 0.62916 0.48969 0.54263 0.0
C93 C 0.59831 0.43894 0.52706 0.0
C94 C 0.61138 0.50924 0.57676 0.0
C95 C 0.56291 0.47823 0.59628 0.0
C96 C 0.55019 0.40761 0.5477 0.0
C97 C 0.53267 0.42715 0.58208 0.0
C98 C 0.54287 0.50029 0.6296 0.0
C99 C 0.53272 0.37653 0.7329 0.0
C100 C 0.58005 0.37973 0.72337 0.0
C101 C 0.52352 0.41582 0.71968 0.0
C102 C 0.56106 0.45872 0.69597 0.0
C103 C 0.61882 0.4241 0.70187 0.0
C104 C 0.60926 0.46323 0.68798 0.0
C105 C 0.54684 0.49543 0.67681 0.0
C106 C 0.41161 0.55737 0.76711 0.0
C107 C 0.44545 0.60117 0.79242 0.0
C108 C 0.43027 0.53909 0.73262 0.0
C109 C 0.48304 0.56407 0.72314 0.0
C110 C 0.49812 0.62703 0.78165 0.0
C111 C 0.51679 0.60827 0.74759 0.0
C112 C 0.50361 0.54264 0.68961 0.0
C113 C 0.42445 0.6157 0.6179 0.0
C114 C 0.38006 0.57716 0.59629 0.0
C115 C 0.46338 0.60585 0.63174 0.0
C116 C 0.45863 0.55756 0.62364 0.0
C117 C 0.37661 0.52974 0.58662 0.0
C118 C 0.41572 0.52024 0.59979 0.0
C119 C 0.49546 0.54328 0.64248 0.0
H120 H 0.6663 0.51489 0.52745 0.0
H121 H 0.63509 0.54885 0.58743 0.0
H122 H 0.5255 0.36835 0.53659 0.0
H123 H 0.49508 0.4028 0.5969 0.0
H124 H 0.50222 0.34299 0.74964 0.0
H125 H 0.48605 0.41154 0.72614 0.0
H126 H 0.65567 0.42757 0.69407 0.0
H127 H 0.63894 0.49631 0.67013 0.0
H128 H 0.37083 0.53663 0.77456 0.0
H129 H 0.40374 0.50474 0.71413 0.0
H130 H 0.52522 0.66063 0.80067 0.0
H131 H 0.55769 0.62787 0.7407 0.0
H132 H 0.42811 0.65261 0.62583 0.0
H133 H 0.49648 0.63538 0.6497 0.0
H134 H 0.34304 0.49942 0.56978 0.0
H135 H 0.41128 0.48273 0.59317 0.0
N136 N 0.51611 0.52269 0.61408 0.0
N137 N 0.52773 0.51752 0.70518 0.0
C138 C 0.85912 0.36395 0.76995 0.0
C139 C 0.81892 0.37455 0.76381 0.0
C140 C 0.90751 0.40243 0.78402 0.0
C141 C 0.91691 0.45234 0.79212 0.0
C142 C 0.82889 0.4252 0.77042 0.0
C143 C 0.87776 0.46397 0.78435 0.0
C144 C 0.96722 0.49023 0.81108 0.0
C145 C 0.86276 0.46807 0.93065 0.0
C146 C 0.85984 0.43073 0.96127 0.0
C147 C 0.89967 0.48674 0.89612 0.0
C148 C 0.93435 0.46855 0.89169 0.0
C149 C 0.89378 0.41156 0.95581 0.0
C150 C 0.93103 0.43071 0.92161 0.0
C151 C 0.97642 0.49178 0.85811 0.0
C152 C 0.20984 0.61248 0.86915 0.0
C153 C 0.21746 0.57487 0.89045 0.0
C154 C 0.16056 0.6008 0.85517 0.0
C155 C 0.11826 0.55153 0.86274 0.0
C156 C 0.17468 0.52638 0.89956 0.0
C157 C 0.12555 0.51502 0.88621 0.0
C158 C 0.06665 0.53597 0.84444 0.0
C159 C 0.16491 0.55404 0.72021 0.0
C160 C 0.17378 0.59711 0.69431 0.0
C161 C 0.12803 0.53554 0.75474 0.0
C162 C 0.09917 0.55957 0.76372 0.0
C163 C 0.14579 0.62197 0.70441 0.0
C164 C 0.10838 0.60296 0.73851 0.0
C165 C 0.05747 0.53785 0.79763 0.0
H166 H 0.85294 0.32551 0.76511 0.0
H167 H 0.93741 0.39287 0.7898 0.0
H168 H 0.79871 0.43457 0.76592 0.0
H169 H 0.88457 0.50249 0.79017 0.0
H170 H 0.83735 0.48375 0.934 0.0
H171 H 0.90234 0.51675 0.87394 0.0
H172 H 0.8928 0.38302 0.97894 0.0
H173 H 0.95769 0.41645 0.91885 0.0
H174 H 0.24214 0.65018 0.86166 0.0
H175 H 0.15564 0.62978 0.83765 0.0
H176 H 0.17929 0.49672 0.91616 0.0
H177 H 0.09342 0.47682 0.89252 0.0
H178 H 0.18581 0.53403 0.71326 0.0
H179 H 0.1211 0.50172 0.77368 0.0
H180 H 0.15142 0.65497 0.68487 0.0
H181 H 0.08624 0.6218 0.74494 0.0
N182 N 0.00807 0.51372 0.78245 0.0
N183 N 0.02572 0.51339 0.87305 0.0
C184 C 0.50649 0.86219 0.92441 0.0
C185 C 0.45724 0.8188 0.9285 0.0
C186 C 0.5156 0.91048 0.9381 0.0
C187 C 0.47586 0.91641 0.95651 0.0
C188 C 0.41671 0.82522 0.94477 0.0
C189 C 0.42602 0.87378 0.9588 0.0
C190 C 0.48903 0.96672 0.97621 0.0
C191 C 0.40601 0.86761 0.10143 0.0
C192 C 0.4406 0.85801 0.12592 0.0
C193 C 0.42375 0.90475 0.06712 0.0
C194 C 0.47621 0.93263 0.05644 0.0
C195 C 0.49308 0.88523 0.11419 0.0
C196 C 0.51074 0.92247 0.07993 0.0
C197 C 0.49536 0.97511 0.02341 0.0
C198 C 0.61127 0.20879 0.03683 0.0
C199 C 0.65495 0.21481 0.05998 0.0
C200 C 0.57331 0.16009 0.02195 0.0
C201 C 0.57841 0.11676 0.03022 0.0
C202 C 0.65862 0.17099 0.06992 0.0
C203 C 0.62056 0.12248 0.05548 0.0
C204 C 0.54221 0.06563 0.01101 0.0
C205 C 0.62373 0.1656 0.88737 0.0
C206 C 0.58954 0.1742 0.86114 0.0
C207 C 0.60529 0.12866 0.92188 0.0
C208 C 0.55238 0.09949 0.93053 0.0
C209 C 0.53668 0.14603 0.87102 0.0
C210 C 0.51825 0.10857 0.90511 0.0
C211 C 0.53222 0.0573 0.96398 0.0
H212 H 0.53847 0.85868 0.91176 0.0
H213 H 0.55434 0.94298 0.93603 0.0
H214 H 0.37831 0.7925 0.94823 0.0
H215 H 0.39468 0.87778 0.97232 0.0
H216 H 0.36543 0.84754 0.10963 0.0
H217 H 0.39671 0.91278 0.04978 0.0
H218 H 0.52082 0.87898 0.13241 0.0
H219 H 0.55146 0.944 0.07228 0.0
H220 H 0.60735 0.24186 0.02875 0.0
H221 H 0.54062 0.15645 0.0032 0.0
H222 H 0.69158 0.17428 0.08794 0.0
H223 H 0.6252 0.08957 0.06243 0.0
H224 H 0.66465 0.18665 0.8806 0.0
H225 H 0.63216 0.12184 0.94098 0.0
H226 H 0.50933 0.15143 0.85124 0.0
H227 H 0.47724 0.08618 0.91126 0.0
N228 N 0.50726 0.00816 0.94816 0.0
N229 N 0.52286 0.02412 0.03907 0.0
C230 C 0.50313 0.65667 0.23607 0.0
C231 C 0.45606 0.65336 0.22504 0.0
C232 C 0.5137 0.61849 0.22218 0.0
C233 C 0.47784 0.57663 0.19632 0.0
C234 C 0.41887 0.6099 0.20136 0.0
C235 C 0.42978 0.57188 0.1869 0.0
C236 C 0.49341 0.54096 0.17701 0.0
C237 C 0.41157 0.5404 0.03789 0.0
C238 C 0.4373 0.59309 0.02716 0.0
C239 C 0.43044 0.52173 0.07184 0.0
C240 C 0.47463 0.55548 0.09627 0.0
C241 C 0.48111 0.62697 0.05244 0.0
C242 C 0.4995 0.60829 0.08689 0.0
C243 C 0.49595 0.53476 0.12978 0.0
C244 C 0.61152 0.41637 0.1181 0.0
C245 C 0.65487 0.45343 0.0942 0.0
C246 C 0.57364 0.42741 0.1327 0.0
C247 C 0.57846 0.4755 0.12328 0.0
C248 C 0.65822 0.50052 0.08313 0.0
C249 C 0.6202 0.51124 0.09722 0.0
C250 C 0.54286 0.49118 0.14258 0.0
C251 C 0.62708 0.47709 0.26783 0.0
C252 C 0.59279 0.43269 0.29227 0.0
C253 C 0.60902 0.49618 0.23344 0.0
C254 C 0.55642 0.47143 0.22329 0.0
C255 C 0.54033 0.4071 0.28075 0.0
C256 C 0.52226 0.42667 0.24687 0.0
C257 C 0.53631 0.49338 0.1898 0.0
H258 H 0.53242 0.68949 0.25452 0.0
H259 H 0.55098 0.6229 0.22989 0.0
H260 H 0.38224 0.60631 0.19239 0.0
H261 H 0.40127 0.53952 0.16749 0.0
H262 H 0.37796 0.51325 0.01891 0.0
H263 H 0.4109 0.4808 0.07869 0.0
H264 H 0.50175 0.66776 0.04502 0.0
H265 H 0.53381 0.63481 0.10544 0.0
H266 H 0.60786 0.3797 0.12708 0.0
H267 H 0.54131 0.39892 0.15216 0.0
H268 H 0.69094 0.52972 0.06452 0.0
H269 H 0.62465 0.54853 0.08946 0.0
H270 H 0.66771 0.49765 0.27587 0.0
H271 H 0.63585 0.5309 0.21554 0.0
H272 H 0.51287 0.37305 0.29907 0.0
H273 H 0.48149 0.4072 0.2394 0.0
N274 N 0.51299 0.51927 0.20537 0.0
N275 N 0.52164 0.51124 0.11423 0.0
O276 O 0.58199 0.37834 0.46821 0.0
Cd277 Cd 0.59462 0.3468 0.41105 0.0
Cd278 Cd 0.68374 0.43418 0.40875 0.0
O279 O 0.6588 0.44765 0.47009 0.0
O280 O 0.54527 0.27169 0.4145 0.0
O281 O 0.62963 0.30496 0.41857 0.0
C282 C 0.58415 0.26497 0.41974 0.0
C283 C 0.76649 0.4463 0.40101 0.0
C284 C 0.61428 0.42019 0.48718 0.0
C285 C 0.61071 0.41578 0.33207 0.0
O286 O 0.65311 0.44706 0.35084 0.0
O287 O 0.58191 0.37174 0.34951 0.0
O288 O 0.75857 0.48454 0.40503 0.0
O289 O 0.72714 0.40045 0.40293 0.0
O290 O 0.22008 0.58165 0.6369 0.0
Cd291 Cd 0.26331 0.59346 0.57915 0.0
Cd292 Cd 0.26334 0.68182 0.57544 0.0
O293 O 0.22392 0.65694 0.63634 0.0
O294 O 0.29019 0.54493 0.58286 0.0
O295 O 0.34035 0.62948 0.58553 0.0
C296 C 0.33562 0.58432 0.58715 0.0
C297 C 0.33481 0.76396 0.56772 0.0
C298 C 0.20866 0.61325 0.6546 0.0
C299 C 0.20939 0.60767 0.4996 0.0
O300 O 0.22069 0.6506 0.51738 0.0
O301 O 0.22445 0.57913 0.51795 0.0
O302 O 0.28894 0.75694 0.57139 0.0
O303 O 0.34046 0.7241 0.56996 0.0
O304 O 0.65141 0.22003 0.80375 0.0
Cd305 Cd 0.68334 0.26207 0.74552 0.0
Cd306 Cd 0.59522 0.26234 0.74095 0.0
O307 O 0.57988 0.22355 0.80228 0.0
O308 O 0.75778 0.28532 0.75095 0.0
O309 O 0.72777 0.33921 0.75006 0.0
C310 C 0.76649 0.33186 0.75372 0.0
C311 C 0.58681 0.33504 0.73253 0.0
C312 C 0.60834 0.20872 0.82116 0.0
C313 C 0.61531 0.20713 0.66618 0.0
O314 O 0.58375 0.21891 0.68337 0.0
O315 O 0.65876 0.2222 0.68484 0.0
O316 O 0.54719 0.28972 0.73653 0.0
O317 O 0.63182 0.33946 0.73458 0.0
O318 O 0.45266 0.65456 0.96938 0.0
Cd319 Cd 0.44033 0.68542 0.91144 0.0
Cd320 Cd 0.35244 0.59661 0.90797 0.0
O321 O 0.37745 0.58316 0.96922 0.0
O322 O 0.48901 0.76068 0.91526 0.0
O323 O 0.40454 0.72682 0.91726 0.0
C324 C 0.44979 0.76707 0.9192 0.0
C325 C 0.26977 0.58418 0.89985 0.0
C326 C 0.42112 0.61174 0.98738 0.0
C327 C 0.42667 0.61705 0.83226 0.0
O328 O 0.38405 0.58509 0.85028 0.0
O329 O 0.45476 0.6609 0.85032 0.0
O330 O 0.27765 0.54596 0.90444 0.0
O331 O 0.30905 0.6301 0.90132 0.0
O332 O 0.81866 0.37741 0.02538 0.0
Cd333 Cd 0.76999 0.34804 0.08044 0.0
Cd334 Cd 0.77007 0.43504 0.07482 0.0
O335 O 0.80346 0.44077 0.01202 0.0
O336 O 0.74315 0.27255 0.07987 0.0
O337 O 0.69391 0.30701 0.06849 0.0
C338 C 0.69847 0.2665 0.07063 0.0
C339 C 0.69846 0.44519 0.08399 0.0
C340 C 0.82461 0.41478 0.00078 0.0
C341 C 0.82389 0.42216 0.15492 0.0
O342 O 0.8181 0.45378 0.13044 0.0
O343 O 0.80288 0.37514 0.14334 0.0
O344 O 0.74326 0.48378 0.07503 0.0
O345 O 0.69384 0.4001 0.08624 0.0
O346 O 0.45482 0.81594 0.18832 0.0
Cd347 Cd 0.43798 0.7688 0.24435 0.0
Cd348 Cd 0.35042 0.76893 0.24186 0.0
O349 O 0.37659 0.8035 0.17931 0.0
O350 O 0.48679 0.74213 0.24281 0.0
O351 O 0.40279 0.69231 0.23397 0.0
C352 C 0.44799 0.6971 0.23506 0.0
C353 C 0.26832 0.69814 0.25128 0.0
C354 C 0.42284 0.82311 0.16576 0.0
C355 C 0.41956 0.82272 0.32062 0.0
O356 O 0.3806 0.81575 0.29792 0.0
O357 O 0.44626 0.80315 0.30709 0.0
O358 O 0.27524 0.74345 0.24353 0.0
O359 O 0.30825 0.69253 0.25212 0.0
loop_
_geom_bond_atom_site_label_1
_geom_bond_atom_site_label_2
_geom_bond_distance
_geom_bond_site_symmetry_2
_ccdc_geom_bond_type
C0 C1 1.384 . S
C0 C2 1.384 . S
C0 H28 0.931 . S
C1 C0 1.384 . S
C1 C4 1.382 . S
C2 C0 1.384 . S
C2 C3 1.381 . S
C2 H29 0.930 . S
C3 C2 1.381 . S
C3 C5 1.381 . S
C3 C6 1.487 . S
C4 C1 1.382 . S
C4 C5 1.387 . S
C4 H30 0.930 . S
C5 C3 1.381 . S
C5 C4 1.387 . S
C5 H31 0.931 . S
C6 C3 1.487 . S
C6 C13 1.399 . S
C6 N44 1.343 . S
C7 C8 1.384 . S
C7 C9 1.384 . S
C7 H32 0.931 . S
C8 C7 1.384 . S
C8 C11 1.382 . S
C9 C7 1.384 . S
C9 C10 1.381 . S
C9 H33 0.930 . S
C10 C9 1.381 . S
C10 C12 1.381 . S
C10 C13 1.487 . S
C11 C8 1.382 . S
C11 C12 1.387 . S
C11 H34 0.930 . S
C12 C10 1.381 . S
C12 C11 1.387 . S
C12 H35 0.931 . S
C13 C6 1.399 . S
C13 C10 1.487 . S
C13 N45 1.343 1_655 S
C14 C15 1.384 . S
C14 C16 1.384 . S
C14 H36 0.931 . S
C15 C14 1.384 . S
C15 C18 1.382 . S
C16 C14 1.384 . S
C16 C17 1.381 . S
C16 H37 0.930 . S
C17 C16 1.381 . S
C17 C19 1.381 . S
C17 C20 1.487 . S
C18 C15 1.382 . S
C18 C19 1.387 . S
C18 H38 0.930 . S
C19 C17 1.381 . S
C19 C18 1.387 . S
C19 H39 0.931 . S
C20 C17 1.487 . S
C20 C27 1.399 . S
C20 N45 1.343 . S
C21 C22 1.384 . S
C21 C23 1.384 . S
C21 H40 0.931 . S
C22 C21 1.384 . S
C22 C25 1.382 . S
C23 C21 1.384 . S
C23 C24 1.381 . S
C23 H41 0.930 . S
C24 C23 1.381 . S
C24 C26 1.381 . S
C24 C27 1.487 . S
C25 C22 1.382 . S
C25 C26 1.387 . S
C25 H42 0.930 . S
C26 C24 1.381 . S
C26 C25 1.387 . S
C26 H43 0.931 . S
C27 C20 1.399 . S
C27 C24 1.487 . S
C27 N44 1.343 1_455 S
H28 C0 0.931 . S
H29 C2 0.930 . S
H30 C4 0.930 . S
H31 C5 0.931 . S
H32 C7 0.931 . S
H33 C9 0.930 . S
H34 C11 0.930 . S
H35 C12 0.931 . S
H36 C14 0.931 . S
H37 C16 0.930 . S
H38 C18 0.930 . S
H39 C19 0.931 . S
H40 C21 0.931 . S
H41 C23 0.930 . S
H42 C25 0.930 . S
H43 C26 0.931 . S
N44 C6 1.343 . S
N44 C27 1.343 1_655 S
N45 C13 1.343 1_455 S
N45 C20 1.343 . S
C46 C47 1.384 . S
C46 C48 1.384 . S
C46 H74 0.931 . S
C47 C46 1.384 . S
C47 C50 1.382 . S
C48 C46 1.384 . S
C48 C49 1.381 . S
C48 H75 0.930 . S
C49 C48 1.381 . S
C49 C51 1.381 . S
C49 C52 1.487 . S
C50 C47 1.382 . S
C50 C51 1.387 . S
C50 H76 0.930 . S
C51 C49 1.381 . S
C51 C50 1.387 . S
C51 H77 0.931 . S
C52 C49 1.487 . S
C52 C59 1.399 . S
C52 N90 1.343 . S
C53 C54 1.384 . S
C53 C55 1.384 . S
C53 H78 0.931 . S
C54 C53 1.384 . S
C54 C57 1.382 . S
C55 C53 1.384 . S
C55 C56 1.381 . S
C55 H79 0.930 . S
C56 C55 1.381 . S
C56 C58 1.381 . S
C56 C59 1.487 . S
C57 C54 1.382 . S
C57 C58 1.387 . S
C57 H80 0.930 . S
C58 C56 1.381 . S
C58 C57 1.387 . S
C58 H81 0.931 . S
C59 C52 1.399 . S
C59 C56 1.487 . S
C59 N91 1.343 1_565 S
C60 C61 1.384 . S
C60 C62 1.384 . S
C60 H82 0.931 . S
C61 C60 1.384 . S
C61 C64 1.382 . S
C62 C60 1.384 . S
C62 C63 1.381 . S
C62 H83 0.930 . S
C63 C62 1.381 . S
C63 C65 1.381 . S
C63 C66 1.487 . S
C64 C61 1.382 . S
C64 C65 1.387 . S
C64 H84 0.930 . S
C65 C63 1.381 . S
C65 C64 1.387 . S
C65 H85 0.931 . S
C66 C63 1.487 . S
C66 C73 1.399 . S
C66 N91 1.343 . S
C67 C68 1.384 . S
C67 C69 1.384 . S
C67 H86 0.931 . S
C68 C67 1.384 . S
C68 C71 1.382 . S
C69 C67 1.384 . S
C69 C70 1.381 . S
C69 H87 0.930 . S
C70 C69 1.381 . S
C70 C72 1.381 . S
C70 C73 1.487 . S
C71 C68 1.382 . S
C71 C72 1.387 . S
C71 H88 0.930 . S
C72 C70 1.381 . S
C72 C71 1.387 . S
C72 H89 0.931 . S
C73 C66 1.399 . S
C73 C70 1.487 . S
C73 N90 1.343 1_545 S
H74 C46 0.931 . S
H75 C48 0.930 . S
H76 C50 0.930 . S
H77 C51 0.931 . S
H78 C53 0.931 . S
H79 C55 0.930 . S
H80 C57 0.930 . S
H81 C58 0.931 . S
H82 C60 0.931 . S
H83 C62 0.930 . S
H84 C64 0.930 . S
H85 C65 0.931 . S
H86 C67 0.931 . S
H87 C69 0.930 . S
H88 C71 0.930 . S
H89 C72 0.931 . S
N90 C52 1.343 . S
N90 C73 1.343 1_565 S
N91 C59 1.343 1_545 S
N91 C66 1.343 . S
C92 C93 1.384 . S
C92 C94 1.384 . S
C92 H120 0.931 . S
C93 C92 1.384 . S
C93 C96 1.382 . S
C94 C92 1.384 . S
C94 C95 1.381 . S
C94 H121 0.930 . S
C95 C94 1.381 . S
C95 C97 1.381 . S
C95 C98 1.487 . S
C96 C93 1.382 . S
C96 C97 1.387 . S
C96 H122 0.930 . S
C97 C95 1.381 . S
C97 C96 1.387 . S
C97 H123 0.931 . S
C98 C95 1.487 . S
C98 C105 1.399 . S
C98 N136 1.343 . S
C99 C100 1.384 . S
C99 C101 1.384 . S
C99 H124 0.931 . S
C100 C99 1.384 . S
C100 C103 1.382 . S
C101 C99 1.384 . S
C101 C102 1.381 . S
C101 H125 0.930 . S
C102 C101 1.381 . S
C102 C104 1.381 . S
C102 C105 1.487 . S
C103 C100 1.382 . S
C103 C104 1.387 . S
C103 H126 0.930 . S
C104 C102 1.381 . S
C104 C103 1.387 . S
C104 H127 0.931 . S
C105 C98 1.399 . S
C105 C102 1.487 . S
C105 N137 1.343 . S
C106 C107 1.384 . S
C106 C108 1.384 . S
C106 H128 0.931 . S
C107 C106 1.384 . S
C107 C110 1.382 . S
C108 C106 1.384 . S
C108 C109 1.381 . S
C108 H129 0.930 . S
C109 C108 1.381 . S
C109 C111 1.381 . S
C109 C112 1.487 . S
C110 C107 1.382 . S
C110 C111 1.387 . S
C110 H130 0.930 . S
C111 C109 1.381 . S
C111 C110 1.387 . S
C111 H131 0.931 . S
C112 C109 1.487 . S
C112 C119 1.399 . S
C112 N137 1.343 . S
C113 C114 1.384 . S
C113 C115 1.384 . S
C113 H132 0.931 . S
C114 C113 1.384 . S
C114 C117 1.382 . S
C115 C113 1.384 . S
C115 C116 1.381 . S
C115 H133 0.930 . S
C116 C115 1.381 . S
C116 C118 1.381 . S
C116 C119 1.487 . S
C117 C114 1.382 . S
C117 C118 1.387 . S
C117 H134 0.930 . S
C118 C116 1.381 . S
C118 C117 1.387 . S
C118 H135 0.931 . S
C119 C112 1.399 . S
C119 C116 1.487 . S
C119 N136 1.343 . S
H120 C92 0.931 . S
H121 C94 0.930 . S
H122 C96 0.930 . S
H123 C97 0.931 . S
H124 C99 0.931 . S
H125 C101 0.930 . S
H126 C103 0.930 . S
H127 C104 0.931 . S
H128 C106 0.931 . S
H129 C108 0.930 . S
H130 C110 0.930 . S
H131 C111 0.931 . S
H132 C113 0.931 . S
H133 C115 0.930 . S
H134 C117 0.930 . S
H135 C118 0.931 . S
N136 C98 1.343 . S
N136 C119 1.343 . S
N137 C105 1.343 . S
N137 C112 1.343 . S
C138 C139 1.384 . S
C138 C140 1.384 . S
C138 H166 0.931 . S
C139 C138 1.384 . S
C139 C142 1.382 . S
C140 C138 1.384 . S
C140 C141 1.381 . S
C140 H167 0.930 . S
C141 C140 1.381 . S
C141 C143 1.381 . S
C141 C144 1.487 . S
C142 C139 1.382 . S
C142 C143 1.387 . S
C142 H168 0.930 . S
C143 C141 1.381 . S
C143 C142 1.387 . S
C143 H169 0.931 . S
C144 C141 1.487 . S
C144 C151 1.399 . S
C144 N182 1.343 . S
C145 C146 1.384 . S
C145 C147 1.384 . S
C145 H170 0.931 . S
C146 C145 1.384 . S
C146 C149 1.382 . S
C147 C145 1.384 . S
C147 C148 1.381 . S
C147 H171 0.930 . S
C148 C147 1.381 . S
C148 C150 1.381 . S
C148 C151 1.487 . S
C149 C146 1.382 . S
C149 C150 1.387 . S
C149 H172 0.930 . S
C150 C148 1.381 . S
C150 C149 1.387 . S
C150 H173 0.931 . S
C151 C144 1.399 . S
C151 C148 1.487 . S
C151 N183 1.343 1_655 S
C152 C153 1.384 . S
C152 C154 1.384 . S
C152 H174 0.931 . S
C153 C152 1.384 . S
C153 C156 1.382 . S
C154 C152 1.384 . S
C154 C155 1.381 . S
C154 H175 0.930 . S
C155 C154 1.381 . S
C155 C157 1.381 . S
C155 C158 1.487 . S
C156 C153 1.382 . S
C156 C157 1.387 . S
C156 H176 0.930 . S
C157 C155 1.381 . S
C157 C156 1.387 . S
C157 H177 0.931 . S
C158 C155 1.487 . S
C158 C165 1.399 . S
C158 N183 1.343 . S
C159 C160 1.384 . S
C159 C161 1.384 . S
C159 H178 0.931 . S
C160 C159 1.384 . S
C160 C163 1.382 . S
C161 C159 1.384 . S
C161 C162 1.381 . S
C161 H179 0.930 . S
C162 C161 1.381 . S
C162 C164 1.381 . S
C162 C165 1.487 . S
C163 C160 1.382 . S
C163 C164 1.387 . S
C163 H180 0.930 . S
C164 C162 1.381 . S
C164 C163 1.387 . S
C164 H181 0.931 . S
C165 C158 1.399 . S
C165 C162 1.487 . S
C165 N182 1.343 1_455 S
H166 C138 0.931 . S
H167 C140 0.930 . S
H168 C142 0.930 . S
H169 C143 0.931 . S
H170 C145 0.931 . S
H171 C147 0.930 . S
H172 C149 0.930 . S
H173 C150 0.931 . S
H174 C152 0.931 . S
H175 C154 0.930 . S
H176 C156 0.930 . S
H177 C157 0.931 . S
H178 C159 0.931 . S
H179 C161 0.930 . S
H180 C163 0.930 . S
H181 C164 0.931 . S
N182 C144 1.343 . S
N182 C165 1.343 1_655 S
N183 C151 1.343 1_455 S
N183 C158 1.343 . S
C184 C185 1.384 . S
C184 C186 1.384 . S
C184 H212 0.931 . S
C185 C184 1.384 . S
C185 C188 1.382 . S
C186 C184 1.384 . S
C186 C187 1.381 . S
C186 H213 0.930 1_556 S
C187 C186 1.381 . S
C187 C189 1.381 . S
C187 C190 1.487 . S
C188 C185 1.382 . S
C188 C189 1.387 . S
C188 H214 0.930 . S
C189 C187 1.381 . S
C189 C188 1.387 . S
C189 H215 0.931 . S
C190 C187 1.487 . S
C190 C197 1.399 1_556 S
C190 N228 1.343 . S
C191 C192 1.384 . S
C191 C193 1.384 . S
C191 H216 0.931 . S
C192 C191 1.384 . S
C192 C195 1.382 . S
C193 C191 1.384 . S
C193 C194 1.381 . S
C193 H217 0.930 . S
C194 C193 1.381 . S
C194 C196 1.381 . S
C194 C197 1.487 . S
C195 C192 1.382 . S
C195 C196 1.387 . S
C195 H218 0.930 . S
C196 C194 1.381 . S
C196 C195 1.387 . S
C196 H219 0.931 . S
C197 C190 1.399 1_554 S
C197 C194 1.487 . S
C197 N229 1.343 1_565 S
C198 C199 1.384 . S
C198 C200 1.384 . S
C198 H220 0.931 . S
C199 C198 1.384 . S
C199 C202 1.382 . S
C200 C198 1.384 . S
C200 C201 1.381 . S
C200 H221 0.930 1_554 S
C201 C200 1.381 . S
C201 C203 1.381 . S
C201 C204 1.487 . S
C202 C199 1.382 . S
C202 C203 1.387 . S
C202 H222 0.930 . S
C203 C201 1.381 . S
C203 C202 1.387 . S
C203 H223 0.931 . S
C204 C201 1.487 . S
C204 C211 1.399 1_554 S
C204 N229 1.343 . S
C205 C206 1.384 . S
C205 C207 1.384 . S
C205 H224 0.931 . S
C206 C205 1.384 . S
C206 C209 1.382 . S
C207 C205 1.384 . S
C207 C208 1.381 . S
C207 H225 0.930 . S
C208 C207 1.381 . S
C208 C210 1.381 . S
C208 C211 1.487 . S
C209 C206 1.382 . S
C209 C210 1.387 . S
C209 H226 0.930 . S
C210 C208 1.381 . S
C210 C209 1.387 . S
C210 H227 0.931 . S
C211 C204 1.399 1_556 S
C211 C208 1.487 . S
C211 N228 1.343 1_545 S
H212 C184 0.931 . S
H213 C186 0.930 1_554 S
H214 C188 0.930 . S
H215 C189 0.931 . S
H216 C191 0.931 . S
H217 C193 0.930 . S
H218 C195 0.930 . S
H219 C196 0.931 . S
H220 C198 0.931 . S
H221 C200 0.930 1_556 S
H222 C202 0.930 . S
H223 C203 0.931 . S
H224 C205 0.931 . S
H225 C207 0.930 . S
H226 C209 0.930 . S
H227 C210 0.931 . S
N228 C190 1.343 . S
N228 C211 1.343 1_565 S
N229 C197 1.343 1_545 S
N229 C204 1.343 . S
C230 C231 1.384 . S
C230 C232 1.384 . S
C230 H258 0.931 . S
C231 C230 1.384 . S
C231 C234 1.382 . S
C232 C230 1.384 . S
C232 C233 1.381 . S
C232 H259 0.930 . S
C233 C232 1.381 . S
C233 C235 1.381 . S
C233 C236 1.487 . S
C234 C231 1.382 . S
C234 C235 1.387 . S
C234 H260 0.930 . S
C235 C233 1.381 . S
C235 C234 1.387 . S
C235 H261 0.931 . S
C236 C233 1.487 . S
C236 C243 1.399 . S
C236 N274 1.343 . S
C237 C238 1.384 . S
C237 C239 1.384 . S
C237 H262 0.931 . S
C238 C237 1.384 . S
C238 C241 1.382 . S
C239 C237 1.384 . S
C239 C240 1.381 . S
C239 H263 0.930 . S
C240 C239 1.381 . S
C240 C242 1.381 . S
C240 C243 1.487 . S
C241 C238 1.382 . S
C241 C242 1.387 . S
C241 H264 0.930 1_554 S
C242 C240 1.381 . S
C242 C241 1.387 . S
C242 H265 0.931 . S
C243 C236 1.399 . S
C243 C240 1.487 . S
C243 N275 1.343 . S
C244 C245 1.384 . S
C244 C246 1.384 . S
C244 H266 0.931 . S
C245 C244 1.384 . S
C245 C248 1.382 . S
C246 C244 1.384 . S
C246 C247 1.381 . S
C246 H267 0.930 . S
C247 C246 1.381 . S
C247 C249 1.381 . S
C247 C250 1.487 . S
C248 C245 1.382 . S
C248 C249 1.387 . S
C248 H268 0.930 . S
C249 C247 1.381 . S
C249 C248 1.387 . S
C249 H269 0.931 . S
C250 C247 1.487 . S
C250 C257 1.399 . S
C250 N275 1.343 . S
C251 C252 1.384 . S
C251 C253 1.384 . S
C251 H270 0.931 . S
C252 C251 1.384 . S
C252 C255 1.382 . S
C253 C251 1.384 . S
C253 C254 1.381 . S
C253 H271 0.930 . S
C254 C253 1.381 . S
C254 C256 1.381 . S
C254 C257 1.487 . S
C255 C252 1.382 . S
C255 C256 1.387 . S
C255 H272 0.930 . S
C256 C254 1.381 . S
C256 C255 1.387 . S
C256 H273 0.931 . S
C257 C250 1.399 . S
C257 C254 1.487 . S
C257 N274 1.343 . S
H258 C230 0.931 . S
H259 C232 0.930 . S
H260 C234 0.930 . S
H261 C235 0.931 . S
H262 C237 0.931 . S
H263 C239 0.930 . S
H264 C241 0.930 1_556 S
H265 C242 0.931 . S
H266 C244 0.931 . S
H267 C246 0.930 . S
H268 C248 0.930 . S
H269 C249 0.931 . S
H270 C251 0.931 . S
H271 C253 0.930 . S
H272 C255 0.930 . S
H273 C256 0.931 . S
N274 C236 1.343 . S
N274 C257 1.343 . S
N275 C243 1.343 . S
N275 C250 1.343 . S
O276 Cd277 2.223 . S
O276 C284 1.315 . S
Cd277 O276 2.223 . S
Cd277 O280 2.297 . S
Cd277 O281 2.439 . S
Cd277 O287 2.240 . S
Cd278 O279 2.240 . S
Cd278 O286 2.223 . S
Cd278 O288 2.297 . S
Cd278 O289 2.439 . S
O279 Cd278 2.240 . S
O279 C284 1.279 . S
O280 Cd277 2.297 . S
O280 C282 1.247 . S
O281 Cd277 2.439 . S
O281 C282 1.208 . S
C282 O280 1.247 . S
C282 O281 1.208 . S
C283 O288 1.247 . S
C283 O289 1.208 . S
C284 O276 1.315 . S
C284 O279 1.279 . S
C285 O286 1.315 . S
C285 O287 1.279 . S
O286 Cd278 2.223 . S
O286 C285 1.315 . S
O287 Cd277 2.240 . S
O287 C285 1.279 . S
O288 Cd278 2.297 . S
O288 C283 1.247 . S
O289 Cd278 2.439 . S
O289 C283 1.208 . S
O290 Cd291 2.223 . S
O290 C298 1.315 . S
Cd291 O290 2.223 . S
Cd291 O294 2.297 . S
Cd291 O295 2.439 . S
Cd291 O301 2.240 . S
Cd292 O293 2.240 . S
Cd292 O300 2.223 . S
Cd292 O302 2.297 . S
Cd292 O303 2.439 . S
O293 Cd292 2.240 . S
O293 C298 1.279 . S
O294 Cd291 2.297 . S
O294 C296 1.247 . S
O295 Cd291 2.439 . S
O295 C296 1.208 . S
C296 O294 1.247 . S
C296 O295 1.208 . S
C297 O302 1.247 . S
C297 O303 1.208 . S
C298 O290 1.315 . S
C298 O293 1.279 . S
C299 O300 1.315 . S
C299 O301 1.279 . S
O300 Cd292 2.223 . S
O300 C299 1.315 . S
O301 Cd291 2.240 . S
O301 C299 1.279 . S
O302 Cd292 2.297 . S
O302 C297 1.247 . S
O303 Cd292 2.439 . S
O303 C297 1.208 . S
O304 Cd305 2.223 . S
O304 C312 1.315 . S
Cd305 O304 2.223 . S
Cd305 O308 2.297 . S
Cd305 O309 2.439 . S
Cd305 O315 2.240 . S
Cd306 O307 2.240 . S
Cd306 O314 2.223 . S
Cd306 O316 2.297 . S
Cd306 O317 2.439 . S
O307 Cd306 2.240 . S
O307 C312 1.279 . S
O308 Cd305 2.297 . S
O308 C310 1.247 . S
O309 Cd305 2.439 . S
O309 C310 1.208 . S
C310 O308 1.247 . S
C310 O309 1.208 . S
C311 O316 1.247 . S
C311 O317 1.208 . S
C312 O304 1.315 . S
C312 O307 1.279 . S
C313 O314 1.315 . S
C313 O315 1.279 . S
O314 Cd306 2.223 . S
O314 C313 1.315 . S
O315 Cd305 2.240 . S
O315 C313 1.279 . S
O316 Cd306 2.297 . S
O316 C311 1.247 . S
O317 Cd306 2.439 . S
O317 C311 1.208 . S
O318 Cd319 2.223 . S
O318 C326 1.315 . S
Cd319 O318 2.223 . S
Cd319 O322 2.297 . S
Cd319 O323 2.439 . S
Cd319 O329 2.240 . S
Cd320 O321 2.240 . S
Cd320 O328 2.223 . S
Cd320 O330 2.297 . S
Cd320 O331 2.439 . S
O321 Cd320 2.240 . S
O321 C326 1.279 . S
O322 Cd319 2.297 . S
O322 C324 1.247 . S
O323 Cd319 2.439 . S
O323 C324 1.208 . S
C324 O322 1.247 . S
C324 O323 1.208 . S
C325 O330 1.247 . S
C325 O331 1.208 . S
C326 O318 1.315 . S
C326 O321 1.279 . S
C327 O328 1.315 . S
C327 O329 1.279 . S
O328 Cd320 2.223 . S
O328 C327 1.315 . S
O329 Cd319 2.240 . S
O329 C327 1.279 . S
O330 Cd320 2.297 . S
O330 C325 1.247 . S
O331 Cd320 2.439 . S
O331 C325 1.208 . S
O332 Cd333 2.223 . S
O332 C340 1.315 . S
Cd333 O332 2.223 . S
Cd333 O336 2.297 . S
Cd333 O337 2.439 . S
Cd333 O343 2.240 . S
Cd334 O335 2.240 . S
Cd334 O342 2.223 . S
Cd334 O344 2.297 . S
Cd334 O345 2.439 . S
O335 Cd334 2.240 . S
O335 C340 1.279 . S
O336 Cd333 2.297 . S
O336 C338 1.247 . S
O337 Cd333 2.439 . S
O337 C338 1.208 . S
C338 O336 1.247 . S
C338 O337 1.208 . S
C339 O344 1.247 . S
C339 O345 1.208 . S
C340 O332 1.315 . S
C340 O335 1.279 . S
C341 O342 1.315 . S
C341 O343 1.279 . S
O342 Cd334 2.223 . S
O342 C341 1.315 . S
O343 Cd333 2.240 . S
O343 C341 1.279 . S
O344 Cd334 2.297 . S
O344 C339 1.247 . S
O345 Cd334 2.439 . S
O345 C339 1.208 . S
O346 Cd347 2.223 . S
O346 C354 1.315 . S
Cd347 O346 2.223 . S
Cd347 O350 2.297 . S
Cd347 O351 2.439 . S
Cd347 O357 2.240 . S
Cd348 O349 2.240 . S
Cd348 O356 2.223 . S
Cd348 O358 2.297 . S
Cd348 O359 2.439 . S
O349 Cd348 2.240 . S
O349 C354 1.279 . S
O350 Cd347 2.297 . S
O350 C352 1.247 . S
O351 Cd347 2.439 . S
O351 C352 1.208 . S
C352 O350 1.247 . S
C352 O351 1.208 . S
C353 O358 1.247 . S
C353 O359 1.208 . S
C354 O346 1.315 . S
C354 O349 1.279 . S
C355 O356 1.315 . S
C355 O357 1.279 . S
O356 Cd348 2.223 . S
O356 C355 1.315 . S
O357 Cd347 2.240 . S
O357 C355 1.279 . S
O358 Cd348 2.297 . S
O358 C353 1.247 . S
O359 Cd348 2.439 . S
O359 C353 1.208 . S
C353 C15 1.937 . S
C61 C282 1.510 . S
C114 C296 1.937 . S
C139 C310 1.534 . S
C324 C185 1.989 . S
C245 C339 1.510 . S
C47 C297 1.534 . S
C100 C311 1.989 . S
C153 C325 1.510 . S
C338 C199 1.937 . S
C352 C231 1.534 . S
C283 C1 1.989 . S
C22 C299 1.478 . S
C68 C313 1.853 . S
C327 C107 1.478 . S
C146 C340 1.898 1_556 S
C354 C192 1.487 . S
C285 C252 1.853 . S
C355 C54 1.897 . S
C93 C284 1.487 . S
C298 C160 1.853 . S
C206 C312 1.478 . S
C238 C326 1.897 1_554 S
C8 C341 1.487 . S
