# Generated by pormake.
# Topology tbo, (3,4)-cn, num edge types: 1
# Building blocks:
#     Node 0, Type 0, BuildingBlock: BETDAH_clean_linker_0, # of connection points: 3
#     Node 1, Type 0, BuildingBlock: BETDAH_clean_linker_0, # of connection points: 3
#     Node 2, Type 0, BuildingBlock: BETDAH_clean_linker_0, # of connection points: 3
#     Node 3, Type 0, BuildingBlock: BETDAH_clean_linker_0, # of connection points: 3
#     Node 4, Type 0, BuildingBlock: BETDAH_clean_linker_0, # of connection points: 3
#     Node 5, Type 0, BuildingBlock: BETDAH_clean_linker_0, # of connection points: 3
#     Node 6, Type 0, BuildingBlock: BETDAH_clean_linker_0, # of connection points: 3
#     Node 7, Type 0, BuildingBlock: BETDAH_clean_linker_0, # of connection points: 3
#     Node 8, Type 0, BuildingBlock: BETDAH_clean_linker_0, # of connection points: 3
#     Node 9, Type 0, BuildingBlock: BETDAH_clean_linker_0, # of connection points: 3
#     Node 10, Type 0, BuildingBlock: BETDAH_clean_linker_0, # of connection points: 3
#     Node 11, Type 0, BuildingBlock: BETDAH_clean_linker_0, # of connection points: 3
#     Node 12, Type 0, BuildingBlock: BETDAH_clean_linker_0, # of connection points: 3
#     Node 13, Type 0, BuildingBlock: BETDAH_clean_linker_0, # of connection points: 3
#     Node 14, Type 0, BuildingBlock: BETDAH_clean_linker_0, # of connection points: 3
#     Node 15, Type 0, BuildingBlock: BETDAH_clean_linker_0, # of connection points: 3
#     Node 16, Type 0, BuildingBlock: BETDAH_clean_linker_0, # of connection points: 3
#     Node 17, Type 0, BuildingBlock: BETDAH_clean_linker_0, # of connection points: 3
#     Node 18, Type 0, BuildingBlock: BETDAH_clean_linker_0, # of connection points: 3
#     Node 19, Type 0, BuildingBlock: BETDAH_clean_linker_0, # of connection points: 3
#     Node 20, Type 0, BuildingBlock: BETDAH_clean_linker_0, # of connection points: 3
#     Node 21, Type 0, BuildingBlock: BETDAH_clean_linker_0, # of connection points: 3
#     Node 22, Type 0, BuildingBlock: BETDAH_clean_linker_0, # of connection points: 3
#     Node 23, Type 0, BuildingBlock: BETDAH_clean_linker_0, # of connection points: 3
#     Node 24, Type 0, BuildingBlock: BETDAH_clean_linker_0, # of connection points: 3
#     Node 25, Type 0, BuildingBlock: BETDAH_clean_linker_0, # of connection points: 3
#     Node 26, Type 0, BuildingBlock: BETDAH_clean_linker_0, # of connection points: 3
#     Node 27, Type 0, BuildingBlock: BETDAH_clean_linker_0, # of connection points: 3
#     Node 28, Type 0, BuildingBlock: BETDAH_clean_linker_0, # of connection points: 3
#     Node 29, Type 0, BuildingBlock: BETDAH_clean_linker_0, # of connection points: 3
#     Node 30, Type 0, BuildingBlock: BETDAH_clean_linker_0, # of connection points: 3
#     Node 31, Type 0, BuildingBlock: BETDAH_clean_linker_0, # of connection points: 3
#     Node 32, Type 1, BuildingBlock: ESEHIV_clean_sbu_0, # of connection points: 4
#     Node 33, Type 1, BuildingBlock: ESEHIV_clean_sbu_0, # of connection points: 4
#     Node 34, Type 1, BuildingBlock: ESEHIV_clean_sbu_0, # of connection points: 4
#     Node 35, Type 1, BuildingBlock: ESEHIV_clean_sbu_0, # of connection points: 4
#     Node 36, Type 1, BuildingBlock: ESEHIV_clean_sbu_0, # of connection points: 4
#     Node 37, Type 1, BuildingBlock: ESEHIV_clean_sbu_0, # of connection points: 4
#     Node 38, Type 1, BuildingBlock: ESEHIV_clean_sbu_0, # of connection points: 4
#     Node 39, Type 1, BuildingBlock: ESEHIV_clean_sbu_0, # of connection points: 4
#     Node 40, Type 1, BuildingBlock: ESEHIV_clean_sbu_0, # of connection points: 4
#     Node 41, Type 1, BuildingBlock: ESEHIV_clean_sbu_0, # of connection points: 4
#     Node 42, Type 1, BuildingBlock: ESEHIV_clean_sbu_0, # of connection points: 4
#     Node 43, Type 1, BuildingBlock: ESEHIV_clean_sbu_0, # of connection points: 4
#     Node 44, Type 1, BuildingBlock: ESEHIV_clean_sbu_0, # of connection points: 4
#     Node 45, Type 1, BuildingBlock: ESEHIV_clean_sbu_0, # of connection points: 4
#     Node 46, Type 1, BuildingBlock: ESEHIV_clean_sbu_0, # of connection points: 4
#     Node 47, Type 1, BuildingBlock: ESEHIV_clean_sbu_0, # of connection points: 4
#     Node 48, Type 1, BuildingBlock: ESEHIV_clean_sbu_0, # of connection points: 4
#     Node 49, Type 1, BuildingBlock: ESEHIV_clean_sbu_0, # of connection points: 4
#     Node 50, Type 1, BuildingBlock: ESEHIV_clean_sbu_0, # of connection points: 4
#     Node 51, Type 1, BuildingBlock: ESEHIV_clean_sbu_0, # of connection points: 4
#     Node 52, Type 1, BuildingBlock: ESEHIV_clean_sbu_0, # of connection points: 4
#     Node 53, Type 1, BuildingBlock: ESEHIV_clean_sbu_0, # of connection points: 4
#     Node 54, Type 1, BuildingBlock: ESEHIV_clean_sbu_0, # of connection points: 4
#     Node 55, Type 1, BuildingBlock: ESEHIV_clean_sbu_0, # of connection points: 4
#     Edge 56, Type (0, 1), BuildingBlock: EZIPEK_clean_linker_0, # of connection points: 2
#     Edge 57, Type (0, 1), BuildingBlock: EZIPEK_clean_linker_0, # of connection points: 2
#     Edge 58, Type (0, 1), BuildingBlock: EZIPEK_clean_linker_0, # of connection points: 2
#     Edge 59, Type (0, 1), BuildingBlock: EZIPEK_clean_linker_0, # of connection points: 2
#     Edge 60, Type (0, 1), BuildingBlock: EZIPEK_clean_linker_0, # of connection points: 2
#     Edge 61, Type (0, 1), BuildingBlock: EZIPEK_clean_linker_0, # of connection points: 2
#     Edge 62, Type (0, 1), BuildingBlock: EZIPEK_clean_linker_0, # of connection points: 2
#     Edge 63, Type (0, 1), BuildingBlock: EZIPEK_clean_linker_0, # of connection points: 2
#     Edge 64, Type (0, 1), BuildingBlock: EZIPEK_clean_linker_0, # of connection points: 2
#     Edge 65, Type (0, 1), BuildingBlock: EZIPEK_clean_linker_0, # of connection points: 2
#     Edge 66, Type (0, 1), BuildingBlock: EZIPEK_clean_linker_0, # of connection points: 2
#     Edge 67, Type (0, 1), BuildingBlock: EZIPEK_clean_linker_0, # of connection points: 2
#     Edge 68, Type (0, 1), BuildingBlock: EZIPEK_clean_linker_0, # of connection points: 2
#     Edge 69, Type (0, 1), BuildingBlock: EZIPEK_clean_linker_0, # of connection points: 2
#     Edge 70, Type (0, 1), BuildingBlock: EZIPEK_clean_linker_0, # of connection points: 2
#     Edge 71, Type (0, 1), BuildingBlock: EZIPEK_clean_linker_0, # of connection points: 2
#     Edge 72, Type (0, 1), BuildingBlock: EZIPEK_clean_linker_0, # of connection points: 2
#     Edge 73, Type (0, 1), BuildingBlock: EZIPEK_clean_linker_0, # of connection points: 2
#     Edge 74, Type (0, 1), BuildingBlock: EZIPEK_clean_linker_0, # of connection points: 2
#     Edge 75, Type (0, 1), BuildingBlock: EZIPEK_clean_linker_0, # of connection points: 2
#     Edge 76, Type (0, 1), BuildingBlock: EZIPEK_clean_linker_0, # of connection points: 2
#     Edge 77, Type (0, 1), BuildingBlock: EZIPEK_clean_linker_0, # of connection points: 2
#     Edge 78, Type (0, 1), BuildingBlock: EZIPEK_clean_linker_0, # of connection points: 2
#     Edge 79, Type (0, 1), BuildingBlock: EZIPEK_clean_linker_0, # of connection points: 2
#     Edge 80, Type (0, 1), BuildingBlock: EZIPEK_clean_linker_0, # of connection points: 2
#     Edge 81, Type (0, 1), BuildingBlock: EZIPEK_clean_linker_0, # of connection points: 2
#     Edge 82, Type (0, 1), BuildingBlock: EZIPEK_clean_linker_0, # of connection points: 2
#     Edge 83, Type (0, 1), BuildingBlock: EZIPEK_clean_linker_0, # of connection points: 2
#     Edge 84, Type (0, 1), BuildingBlock: EZIPEK_clean_linker_0, # of connection points: 2
#     Edge 85, Type (0, 1), BuildingBlock: EZIPEK_clean_linker_0, # of connection points: 2
#     Edge 86, Type (0, 1), BuildingBlock: EZIPEK_clean_linker_0, # of connection points: 2
#     Edge 87, Type (0, 1), BuildingBlock: EZIPEK_clean_linker_0, # of connection points: 2
#     Edge 88, Type (0, 1), BuildingBlock: EZIPEK_clean_linker_0, # of connection points: 2
#     Edge 89, Type (0, 1), BuildingBlock: EZIPEK_clean_linker_0, # of connection points: 2
#     Edge 90, Type (0, 1), BuildingBlock: EZIPEK_clean_linker_0, # of connection points: 2
#     Edge 91, Type (0, 1), BuildingBlock: EZIPEK_clean_linker_0, # of connection points: 2
#     Edge 92, Type (0, 1), BuildingBlock: EZIPEK_clean_linker_0, # of connection points: 2
#     Edge 93, Type (0, 1), BuildingBlock: EZIPEK_clean_linker_0, # of connection points: 2
#     Edge 94, Type (0, 1), BuildingBlock: EZIPEK_clean_linker_0, # of connection points: 2
#     Edge 95, Type (0, 1), BuildingBlock: EZIPEK_clean_linker_0, # of connection points: 2
#     Edge 96, Type (0, 1), BuildingBlock: EZIPEK_clean_linker_0, # of connection points: 2
#     Edge 97, Type (0, 1), BuildingBlock: EZIPEK_clean_linker_0, # of connection points: 2
#     Edge 98, Type (0, 1), BuildingBlock: EZIPEK_clean_linker_0, # of connection points: 2
#     Edge 99, Type (0, 1), BuildingBlock: EZIPEK_clean_linker_0, # of connection points: 2
#     Edge 100, Type (0, 1), BuildingBlock: EZIPEK_clean_linker_0, # of connection points: 2
#     Edge 101, Type (0, 1), BuildingBlock: EZIPEK_clean_linker_0, # of connection points: 2
#     Edge 102, Type (0, 1), BuildingBlock: EZIPEK_clean_linker_0, # of connection points: 2
#     Edge 103, Type (0, 1), BuildingBlock: EZIPEK_clean_linker_0, # of connection points: 2
#     Edge 104, Type (0, 1), BuildingBlock: EZIPEK_clean_linker_0, # of connection points: 2
#     Edge 105, Type (0, 1), BuildingBlock: EZIPEK_clean_linker_0, # of connection points: 2
#     Edge 106, Type (0, 1), BuildingBlock: EZIPEK_clean_linker_0, # of connection points: 2
#     Edge 107, Type (0, 1), BuildingBlock: EZIPEK_clean_linker_0, # of connection points: 2
#     Edge 108, Type (0, 1), BuildingBlock: EZIPEK_clean_linker_0, # of connection points: 2
#     Edge 109, Type (0, 1), BuildingBlock: EZIPEK_clean_linker_0, # of connection points: 2
#     Edge 110, Type (0, 1), BuildingBlock: EZIPEK_clean_linker_0, # of connection points: 2
#     Edge 111, Type (0, 1), BuildingBlock: EZIPEK_clean_linker_0, # of connection points: 2
#     Edge 112, Type (0, 1), BuildingBlock: EZIPEK_clean_linker_0, # of connection points: 2
#     Edge 113, Type (0, 1), BuildingBlock: EZIPEK_clean_linker_0, # of connection points: 2
#     Edge 114, Type (0, 1), BuildingBlock: EZIPEK_clean_linker_0, # of connection points: 2
#     Edge 115, Type (0, 1), BuildingBlock: EZIPEK_clean_linker_0, # of connection points: 2
#     Edge 116, Type (0, 1), BuildingBlock: EZIPEK_clean_linker_0, # of connection points: 2
#     Edge 117, Type (0, 1), BuildingBlock: EZIPEK_clean_linker_0, # of connection points: 2
#     Edge 118, Type (0, 1), BuildingBlock: EZIPEK_clean_linker_0, # of connection points: 2
#     Edge 119, Type (0, 1), BuildingBlock: EZIPEK_clean_linker_0, # of connection points: 2
#     Edge 120, Type (0, 1), BuildingBlock: EZIPEK_clean_linker_0, # of connection points: 2
#     Edge 121, Type (0, 1), BuildingBlock: EZIPEK_clean_linker_0, # of connection points: 2
#     Edge 122, Type (0, 1), BuildingBlock: EZIPEK_clean_linker_0, # of connection points: 2
#     Edge 123, Type (0, 1), BuildingBlock: EZIPEK_clean_linker_0, # of connection points: 2
#     Edge 124, Type (0, 1), BuildingBlock: EZIPEK_clean_linker_0, # of connection points: 2
#     Edge 125, Type (0, 1), BuildingBlock: EZIPEK_clean_linker_0, # of connection points: 2
#     Edge 126, Type (0, 1), BuildingBlock: EZIPEK_clean_linker_0, # of connection points: 2
#     Edge 127, Type (0, 1), BuildingBlock: EZIPEK_clean_linker_0, # of connection points: 2
#     Edge 128, Type (0, 1), BuildingBlock: EZIPEK_clean_linker_0, # of connection points: 2
#     Edge 129, Type (0, 1), BuildingBlock: EZIPEK_clean_linker_0, # of connection points: 2
#     Edge 130, Type (0, 1), BuildingBlock: EZIPEK_clean_linker_0, # of connection points: 2
#     Edge 131, Type (0, 1), BuildingBlock: EZIPEK_clean_linker_0, # of connection points: 2
#     Edge 132, Type (0, 1), BuildingBlock: EZIPEK_clean_linker_0, # of connection points: 2
#     Edge 133, Type (0, 1), BuildingBlock: EZIPEK_clean_linker_0, # of connection points: 2
#     Edge 134, Type (0, 1), BuildingBlock: EZIPEK_clean_linker_0, # of connection points: 2
#     Edge 135, Type (0, 1), BuildingBlock: EZIPEK_clean_linker_0, # of connection points: 2
#     Edge 136, Type (0, 1), BuildingBlock: EZIPEK_clean_linker_0, # of connection points: 2
#     Edge 137, Type (0, 1), BuildingBlock: EZIPEK_clean_linker_0, # of connection points: 2
#     Edge 138, Type (0, 1), BuildingBlock: EZIPEK_clean_linker_0, # of connection points: 2
#     Edge 139, Type (0, 1), BuildingBlock: EZIPEK_clean_linker_0, # of connection points: 2
#     Edge 140, Type (0, 1), BuildingBlock: EZIPEK_clean_linker_0, # of connection points: 2
#     Edge 141, Type (0, 1), BuildingBlock: EZIPEK_clean_linker_0, # of connection points: 2
#     Edge 142, Type (0, 1), BuildingBlock: EZIPEK_clean_linker_0, # of connection points: 2
#     Edge 143, Type (0, 1), BuildingBlock: EZIPEK_clean_linker_0, # of connection points: 2
#     Edge 144, Type (0, 1), BuildingBlock: EZIPEK_clean_linker_0, # of connection points: 2
#     Edge 145, Type (0, 1), BuildingBlock: EZIPEK_clean_linker_0, # of connection points: 2
#     Edge 146, Type (0, 1), BuildingBlock: EZIPEK_clean_linker_0, # of connection points: 2
#     Edge 147, Type (0, 1), BuildingBlock: EZIPEK_clean_linker_0, # of connection points: 2
#     Edge 148, Type (0, 1), BuildingBlock: EZIPEK_clean_linker_0, # of connection points: 2
#     Edge 149, Type (0, 1), BuildingBlock: EZIPEK_clean_linker_0, # of connection points: 2
#     Edge 150, Type (0, 1), BuildingBlock: EZIPEK_clean_linker_0, # of connection points: 2
#     Edge 151, Type (0, 1), BuildingBlock: EZIPEK_clean_linker_0, # of connection points: 2
# Relax obj value: 0.027
# Max RMSD: 0.144
# Mean RMSD: 0.105
data_MOF--net-tbo--node1-ESEHIV_clean_sbu_0--node2-BETDAH_clean_linker_0--edge1-EZIPEK_clean_linker_0
_symmetry_space_group_name_H-M    P1
_symmetry_Int_Tables_number       1
_symmetry_cell_setting            triclinic
loop_
_symmetry_equiv_pos_as_xyz
'x, y, z'
_cell_length_a     50.687156
_cell_length_b     51.877259
_cell_length_c     55.100412
_cell_angle_alpha  90.755912
_cell_angle_beta   94.736763
_cell_angle_gamma 99.646059
loop_
_atom_site_label
_atom_site_type_symbol
_atom_site_fract_x
_atom_site_fract_y
_atom_site_fract_z
_atom_type_partial_charge
H0 H 0.24041 0.13696 0.17387 0.0
H1 H 0.18474 0.14889 0.22631 0.0
H2 H 0.19862 0.20229 0.16754 0.0
C3 C 0.22582 0.14794 0.18034 0.0
C4 C 0.22094 0.17039 0.16821 0.0
C5 C 0.21294 0.14006 0.20129 0.0
C6 C 0.19439 0.15472 0.20996 0.0
C7 C 0.18889 0.17713 0.19757 0.0
C8 C 0.20236 0.18479 0.17682 0.0
N9 N 0.17067 0.19302 0.20545 0.0
C10 C 0.15468 0.18874 0.22495 0.0
H11 H 0.92071 0.18413 0.23706 0.0
H12 H 0.92464 0.22865 0.17186 0.0
H13 H 0.86775 0.15686 0.17368 0.0
C14 C 0.91348 0.18665 0.21829 0.0
C15 C 0.89286 0.16806 0.20694 0.0
C16 C 0.92496 0.20839 0.2057 0.0
C17 C 0.9156 0.21178 0.18145 0.0
C18 C 0.89489 0.19307 0.16972 0.0
C19 C 0.88369 0.17126 0.18259 0.0
N20 N 0.88501 0.19538 0.14506 0.0
C21 C 0.89162 0.21748 0.1313 0.0
H22 H 0.90416 0.8316 0.17421 0.0
H23 H 0.87862 0.85208 0.24366 0.0
H24 H 0.82876 0.85885 0.1782 0.0
C25 C 0.88995 0.83912 0.18488 0.0
C26 C 0.86567 0.84459 0.17307 0.0
C27 C 0.89505 0.84169 0.21055 0.0
C28 C 0.87571 0.85075 0.22394 0.0
C29 C 0.85269 0.85832 0.21223 0.0
C30 C 0.84757 0.85488 0.18692 0.0
N31 N 0.83294 0.86578 0.22641 0.0
C32 C 0.82787 0.89131 0.22804 0.0
H33 H 0.17319 0.84862 0.2037 0.0
H34 H 0.24775 0.82404 0.19034 0.0
H35 H 0.18154 0.76757 0.20994 0.0
C36 C 0.18495 0.83311 0.20227 0.0
C37 C 0.17392 0.80735 0.20789 0.0
C38 C 0.21195 0.83947 0.19717 0.0
C39 C 0.22711 0.81946 0.19487 0.0
C40 C 0.21563 0.79348 0.19857 0.0
C41 C 0.1896 0.78762 0.20597 0.0
N42 N 0.22969 0.77302 0.19355 0.0
C43 C 0.22395 0.75966 0.17127 0.0
H44 H 0.22578 0.93039 0.84466 0.0
H45 H 0.18658 0.86234 0.87912 0.0
H46 H 0.26017 0.9062 0.91313 0.0
C47 C 0.22509 0.91699 0.85962 0.0
C48 C 0.24535 0.92092 0.87902 0.0
C49 C 0.2041 0.89559 0.85942 0.0
C50 C 0.20304 0.87865 0.87901 0.0
C51 C 0.22315 0.8821 0.89828 0.0
C52 C 0.24462 0.90314 0.89817 0.0
N53 N 0.22033 0.8645 0.91774 0.0
C54 C 0.24126 0.85835 0.93326 0.0
H55 H 0.28008 0.1874 0.91487 0.0
H56 H 0.21754 0.23456 0.90866 0.0
H57 H 0.22784 0.18419 0.8488 0.0
C58 C 0.26359 0.19395 0.90428 0.0
C59 C 0.25567 0.18351 0.88048 0.0
C60 C 0.24972 0.2123 0.91468 0.0
C61 C 0.22827 0.22061 0.90074 0.0
C62 C 0.22052 0.21067 0.87688 0.0
C63 C 0.23413 0.19208 0.86708 0.0
N64 N 0.19898 0.21852 0.86217 0.0
C65 C 0.18383 0.23724 0.86861 0.0
H66 H 0.93742 0.17026 0.81305 0.0
H67 H 0.91915 0.19693 0.88287 0.0
H68 H 0.87475 0.12509 0.85015 0.0
C69 C 0.9258 0.16742 0.82876 0.0
C70 C 0.90611 0.1452 0.82975 0.0
C71 C 0.93013 0.18627 0.84774 0.0
C72 C 0.91503 0.18261 0.86807 0.0
C73 C 0.89458 0.16072 0.86883 0.0
C74 C 0.89042 0.14204 0.84966 0.0
N75 N 0.87739 0.15689 0.88806 0.0
C76 C 0.87788 0.17369 0.90811 0.0
H77 H 0.92466 0.81437 0.88497 0.0
H78 H 0.90425 0.87471 0.83731 0.0
H79 H 0.85697 0.85116 0.89729 0.0
C80 C 0.91159 0.82823 0.8796 0.0
C81 C 0.89016 0.83083 0.89341 0.0
C82 C 0.91701 0.84414 0.85955 0.0
C83 C 0.90006 0.86237 0.8527 0.0
C84 C 0.87804 0.86471 0.86625 0.0
C85 C 0.87355 0.84906 0.8866 0.0
N86 N 0.86011 0.88272 0.8608 0.0
C87 C 0.85936 0.89916 0.84099 0.0
H88 H 0.27631 0.68196 0.64643 0.0
H89 H 0.22048 0.66043 0.70024 0.0
H90 H 0.20798 0.72113 0.65032 0.0
C91 C 0.25868 0.68503 0.6552 0.0
C92 C 0.24352 0.70388 0.64625 0.0
C93 C 0.25068 0.66956 0.67495 0.0
C94 C 0.2273 0.67297 0.68562 0.0
C95 C 0.21213 0.69183 0.67728 0.0
C96 C 0.22032 0.70742 0.6576 0.0
N97 N 0.18659 0.69141 0.68629 0.0
C98 C 0.17734 0.71274 0.69622 0.0
H99 H 0.94479 0.72074 0.7399 0.0
H100 H 0.93105 0.73737 0.66396 0.0
H101 H 0.89563 0.66341 0.691 0.0
C102 C 0.93531 0.71489 0.72185 0.0
C103 C 0.91911 0.69019 0.71803 0.0
C104 C 0.94055 0.73147 0.7022 0.0
C105 C 0.92732 0.72446 0.67906 0.0
C106 C 0.91093 0.69987 0.67516 0.0
C107 C 0.90776 0.68261 0.69438 0.0
N108 N 0.89843 0.6913 0.65189 0.0
C109 C 0.8874 0.70751 0.63555 0.0
H110 H 0.91385 0.34387 0.69533 0.0
H111 H 0.88793 0.40209 0.74026 0.0
H112 H 0.84445 0.37705 0.67125 0.0
C113 C 0.90023 0.35742 0.69831 0.0
C114 C 0.87842 0.3581 0.68103 0.0
C115 C 0.90389 0.37304 0.71992 0.0
C116 C 0.88568 0.39036 0.72358 0.0
C117 C 0.86473 0.39253 0.70561 0.0
C118 C 0.86115 0.37613 0.68465 0.0
N119 N 0.84634 0.41029 0.708 0.0
C120 C 0.84796 0.43001 0.72589 0.0
H121 H 0.17606 0.39272 0.75453 0.0
H122 H 0.24473 0.39817 0.71288 0.0
H123 H 0.18646 0.32732 0.70948 0.0
C124 C 0.18739 0.38412 0.74167 0.0
C125 C 0.17849 0.3584 0.73266 0.0
C126 C 0.21116 0.39856 0.73438 0.0
C127 C 0.22609 0.38716 0.71827 0.0
C128 C 0.21733 0.36168 0.70904 0.0
C129 C 0.1933 0.34726 0.71614 0.0
N130 N 0.23365 0.35113 0.69319 0.0
C131 C 0.22524 0.3288 0.67862 0.0
H132 H 0.16479 0.37913 0.3326 0.0
H133 H 0.19487 0.35329 0.40179 0.0
H134 H 0.24077 0.41752 0.36659 0.0
C135 C 0.18004 0.38128 0.34785 0.0
C136 C 0.2029 0.40042 0.34749 0.0
C137 C 0.17724 0.3642 0.36728 0.0
C138 C 0.19727 0.36658 0.38683 0.0
C139 C 0.22034 0.38595 0.38667 0.0
C140 C 0.22289 0.40281 0.36697 0.0
N141 N 0.24157 0.38898 0.40561 0.0
C142 C 0.24409 0.37191 0.42466 0.0
H143 H 0.28251 0.64053 0.39322 0.0
H144 H 0.21984 0.68634 0.38737 0.0
H145 H 0.22257 0.62812 0.33228 0.0
C146 C 0.26365 0.64322 0.38404 0.0
C147 C 0.25179 0.62754 0.36349 0.0
C148 C 0.25187 0.66367 0.39312 0.0
C149 C 0.22883 0.67051 0.38046 0.0
C150 C 0.21831 0.65737 0.35838 0.0
C151 C 0.23027 0.63669 0.34997 0.0
N152 N 0.19612 0.66416 0.34356 0.0
C153 C 0.17933 0.68203 0.3487 0.0
H154 H 0.88805 0.6318 0.31462 0.0
H155 H 0.91235 0.70168 0.35926 0.0
H156 H 0.8426 0.64652 0.37427 0.0
C157 C 0.88478 0.6443 0.32962 0.0
C158 C 0.86349 0.63646 0.34412 0.0
C159 C 0.90223 0.668 0.33485 0.0
C160 C 0.89851 0.68361 0.35482 0.0
C161 C 0.87748 0.67588 0.36948 0.0
C162 C 0.85948 0.65251 0.36367 0.0
N163 N 0.87557 0.69183 0.39015 0.0
C164 C 0.85848 0.6849 0.40833 0.0
H165 H 0.89339 0.29207 0.42903 0.0
H166 H 0.89925 0.34778 0.37147 0.0
H167 H 0.84253 0.35066 0.42506 0.0
C168 C 0.88675 0.30859 0.42002 0.0
C169 C 0.86648 0.32021 0.42953 0.0
C170 C 0.89864 0.31842 0.39901 0.0
C171 C 0.8901 0.34014 0.38755 0.0
C172 C 0.8697 0.35174 0.39693 0.0
C173 C 0.8581 0.34161 0.41779 0.0
N174 N 0.86007 0.37359 0.38625 0.0
C175 C 0.86919 0.38722 0.36609 0.0
H176 H 0.75671 0.14446 0.66996 0.0
H177 H 0.69614 0.12249 0.71954 0.0
H178 H 0.69453 0.19105 0.67678 0.0
C179 C 0.73905 0.14817 0.67833 0.0
C180 C 0.72675 0.16963 0.67091 0.0
C181 C 0.72823 0.13113 0.69607 0.0
C182 C 0.70502 0.13583 0.70631 0.0
C183 C 0.69316 0.15758 0.69998 0.0
C184 C 0.7041 0.17464 0.6823 0.0
N185 N 0.66895 0.16016 0.71032 0.0
C186 C 0.66136 0.18352 0.71743 0.0
H187 H 0.44139 0.22786 0.74425 0.0
H188 H 0.42308 0.25967 0.67436 0.0
H189 H 0.37786 0.18656 0.6947 0.0
C190 C 0.42912 0.22654 0.72705 0.0
C191 C 0.40872 0.20486 0.72185 0.0
C192 C 0.43509 0.24566 0.70961 0.0
C193 C 0.41865 0.2447 0.68765 0.0
C194 C 0.39753 0.2235 0.68252 0.0
C195 C 0.39344 0.20334 0.69922 0.0
N196 N 0.38055 0.22104 0.66048 0.0
C197 C 0.37783 0.241 0.64431 0.0
H198 H 0.41523 0.85547 0.6878 0.0
H199 H 0.3905 0.91395 0.73302 0.0
H200 H 0.35602 0.89969 0.65898 0.0
C201 C 0.40299 0.87041 0.69018 0.0
C202 C 0.38484 0.87519 0.67079 0.0
C203 C 0.40606 0.88484 0.71239 0.0
C204 C 0.3891 0.90344 0.71572 0.0
C205 C 0.37105 0.90893 0.69631 0.0
C206 C 0.36961 0.89516 0.67393 0.0
N207 N 0.35391 0.92795 0.69819 0.0
C208 C 0.35282 0.94473 0.718 0.0
H209 H 0.67671 0.87102 0.69948 0.0
H210 H 0.70365 0.86749 0.62771 0.0
H211 H 0.63746 0.81087 0.64781 0.0
C212 C 0.67494 0.86174 0.68154 0.0
C213 C 0.65484 0.83994 0.67555 0.0
C214 C 0.69284 0.87147 0.66444 0.0
C215 C 0.69012 0.85978 0.64111 0.0
C216 C 0.67046 0.8378 0.63512 0.0
C217 C 0.65299 0.82765 0.65247 0.0
N218 N 0.66814 0.82682 0.61125 0.0
C219 C 0.66335 0.80006 0.60632 0.0
H220 H 0.6863 0.88236 0.35911 0.0
H221 H 0.68185 0.83573 0.4233 0.0
H222 H 0.74622 0.90067 0.41953 0.0
C223 C 0.6944 0.87813 0.37716 0.0
C224 C 0.71788 0.89387 0.38784 0.0
C225 C 0.68114 0.85717 0.39 0.0
C226 C 0.69203 0.85175 0.41333 0.0
C227 C 0.71569 0.86738 0.42389 0.0
C228 C 0.72809 0.88858 0.41126 0.0
N229 N 0.72742 0.86262 0.44729 0.0
C230 C 0.7252 0.83803 0.45732 0.0
H231 H 0.75785 0.14115 0.38469 0.0
H232 H 0.69497 0.17862 0.40958 0.0
H233 H 0.68585 0.14308 0.33782 0.0
C234 C 0.73847 0.14729 0.38151 0.0
C235 C 0.7227 0.13989 0.35944 0.0
C236 C 0.72869 0.16118 0.40001 0.0
C237 C 0.70315 0.16837 0.39547 0.0
C238 C 0.68821 0.16317 0.37279 0.0
C239 C 0.69791 0.14857 0.35483 0.0
N240 N 0.66288 0.17167 0.3695 0.0
C241 C 0.64942 0.17665 0.34736 0.0
H242 H 0.39326 0.17712 0.33199 0.0
H243 H 0.36822 0.23947 0.3719 0.0
H244 H 0.31287 0.16831 0.35438 0.0
C245 C 0.37799 0.1848 0.34118 0.0
C246 C 0.35248 0.16958 0.34209 0.0
C247 C 0.38385 0.20988 0.35222 0.0
C248 C 0.36392 0.21998 0.36363 0.0
C249 C 0.33837 0.20499 0.36424 0.0
C250 C 0.33276 0.17978 0.35379 0.0
N251 N 0.31803 0.21561 0.37477 0.0
C252 C 0.31309 0.21074 0.39875 0.0
H253 H 0.41276 0.81907 0.39374 0.0
H254 H 0.40478 0.87974 0.34194 0.0
H255 H 0.35457 0.86959 0.40131 0.0
C256 C 0.40291 0.83491 0.3871 0.0
C257 C 0.38206 0.84235 0.3997 0.0
C258 C 0.41125 0.84831 0.36605 0.0
C259 C 0.39824 0.86897 0.3577 0.0
C260 C 0.37785 0.87662 0.37058 0.0
C261 C 0.37007 0.86332 0.39136 0.0
N262 N 0.36635 0.89911 0.36485 0.0
C263 C 0.3601 0.90765 0.34162 0.0
H264 H 0.76868 0.65874 0.16813 0.0
H265 H 0.72676 0.65426 0.23282 0.0
H266 H 0.71526 0.71328 0.18028 0.0
C267 C 0.7545 0.66583 0.17918 0.0
C268 C 0.74255 0.68718 0.17148 0.0
C269 C 0.74908 0.65399 0.20123 0.0
C270 C 0.73096 0.66337 0.21565 0.0
C271 C 0.71827 0.68451 0.20824 0.0
C272 C 0.72425 0.69659 0.18602 0.0
N273 N 0.7005 0.69309 0.22424 0.0
C274 C 0.68363 0.71166 0.22023 0.0
H275 H 0.40593 0.66979 0.24011 0.0
H276 H 0.43326 0.74365 0.2082 0.0
H277 H 0.35384 0.70184 0.18734 0.0
C278 C 0.40234 0.68521 0.2278 0.0
C279 C 0.37767 0.6831 0.21363 0.0
C280 C 0.42227 0.70727 0.22637 0.0
C281 C 0.41772 0.72681 0.20986 0.0
C282 C 0.39374 0.72437 0.19478 0.0
C283 C 0.37321 0.703 0.19749 0.0
N284 N 0.39098 0.74388 0.17733 0.0
C285 C 0.37606 0.73945 0.15481 0.0
H286 H 0.40763 0.29938 0.17217 0.0
H287 H 0.42941 0.34027 0.24109 0.0
H288 H 0.36456 0.36001 0.19343 0.0
C289 C 0.4045 0.31407 0.18531 0.0
C290 C 0.3839 0.32896 0.18027 0.0
C291 C 0.42105 0.31811 0.20723 0.0
C292 C 0.41671 0.33709 0.22413 0.0
C293 C 0.39668 0.35243 0.21946 0.0
C294 C 0.38026 0.34848 0.1973 0.0
N295 N 0.39407 0.3711 0.23796 0.0
C296 C 0.37743 0.38999 0.23753 0.0
H297 H 0.69413 0.38586 0.22161 0.0
H298 H 0.72905 0.37464 0.15455 0.0
H299 H 0.6563 0.32445 0.17093 0.0
C300 C 0.6936 0.37538 0.20435 0.0
C301 C 0.67304 0.35435 0.19807 0.0
C302 C 0.7136 0.38287 0.18863 0.0
C303 C 0.71333 0.36892 0.16657 0.0
C304 C 0.69257 0.3477 0.16013 0.0
C305 C 0.67223 0.34085 0.17576 0.0
N306 N 0.69173 0.33275 0.13827 0.0
C307 C 0.71468 0.32829 0.1279 0.0
H308 H 0.73809 0.42052 0.84503 0.0
H309 H 0.71021 0.3453 0.87418 0.0
H310 H 0.78045 0.39462 0.90863 0.0
C311 C 0.7401 0.40584 0.85857 0.0
C312 C 0.76125 0.41025 0.87711 0.0
C313 C 0.72159 0.38242 0.85749 0.0
C314 C 0.72445 0.36345 0.87498 0.0
C315 C 0.74548 0.36756 0.89347 0.0
C316 C 0.764 0.39108 0.89449 0.0
N317 N 0.74722 0.34755 0.91059 0.0
C318 C 0.76728 0.34842 0.92953 0.0
H319 H 0.78244 0.6889 0.90776 0.0
H320 H 0.71871 0.73402 0.89506 0.0
H321 H 0.73227 0.67907 0.84024 0.0
C322 C 0.7661 0.69422 0.896 0.0
C323 C 0.75919 0.68168 0.8729 0.0
C324 C 0.75141 0.71308 0.90424 0.0
C325 C 0.73013 0.71974 0.8888 0.0
C326 C 0.72339 0.70764 0.86559 0.0
C327 C 0.73781 0.68861 0.85799 0.0
N328 N 0.70202 0.71358 0.84939 0.0
C329 C 0.68637 0.7327 0.85319 0.0
H330 H 0.42456 0.67111 0.82326 0.0
H331 H 0.45391 0.71812 0.88783 0.0
H332 H 0.39269 0.65038 0.89174 0.0
C333 C 0.42439 0.67477 0.84266 0.0
C334 C 0.40702 0.658 0.85632 0.0
C335 C 0.44122 0.69654 0.85398 0.0
C336 C 0.44104 0.70119 0.87906 0.0
C337 C 0.42336 0.68492 0.89268 0.0
C338 C 0.40631 0.66322 0.88128 0.0
N339 N 0.42265 0.6912 0.91766 0.0
C340 C 0.39877 0.68829 0.92874 0.0
H341 H 0.42559 0.3085 0.90048 0.0
H342 H 0.4218 0.37684 0.85734 0.0
H343 H 0.36488 0.35532 0.9104 0.0
C344 C 0.41589 0.32492 0.89519 0.0
C345 C 0.39421 0.33003 0.90762 0.0
C346 C 0.42652 0.34201 0.87738 0.0
C347 C 0.41369 0.36343 0.87082 0.0
C348 C 0.39081 0.36775 0.88215 0.0
C349 C 0.38167 0.35131 0.90086 0.0
N350 N 0.37706 0.38897 0.87623 0.0
C351 C 0.37985 0.40475 0.85594 0.0
Cu352 Cu 0.31648 0.26057 0.04628 0.0
N353 N 0.3428 0.2591 0.02464 0.0
N354 N 0.3649 0.27034 0.99186 0.0
C355 C 0.34389 0.27338 1.00437 0.0
C356 C 0.37781 0.25353 1.0047 0.0
C357 C 0.36407 0.24657 0.02502 0.0
O358 O 0.28751 0.26889 0.02373 0.0
C359 C 0.3198 0.29487 0.08921 0.0
O360 O 0.29349 0.29213 0.08633 0.0
H361 H 0.3299 0.28638 0.99916 0.0
H362 H 0.36957 0.23386 0.03928 0.0
N363 N 0.30484 0.22894 0.06134 0.0
N364 N 0.28376 0.20231 0.08784 0.0
C365 C 0.28661 0.22613 0.07803 0.0
C366 C 0.31379 0.20592 0.06059 0.0
C367 C 0.30072 0.18937 0.07696 0.0
C368 C 0.26786 0.2512 1.01597 0.0
O369 O 0.25414 0.23735 0.03194 0.0
H370 H 0.27595 0.24143 0.08325 0.0
H371 H 0.32919 0.20168 0.04944 0.0
O372 O 0.33236 0.28546 0.07299 0.0
H373 H 0.39617 0.24736 1.00006 0.0
H374 H 0.30403 0.16978 0.08116 0.0
Cu375 Cu 0.85523 0.28538 0.03971 0.0
N376 N 0.83216 0.28062 0.06459 0.0
N377 N 0.8003 0.28832 0.08798 0.0
C378 C 0.81766 0.29835 0.07193 0.0
C379 C 0.80415 0.26347 0.09119 0.0
C380 C 0.82381 0.25873 0.07665 0.0
O381 O 0.88875 0.30837 0.05046 0.0
C382 C 0.8355 0.32528 1.01168 0.0
O383 O 0.84783 0.34178 0.0289 0.0
H384 H 0.81895 0.31783 0.06492 0.0
H385 H 0.83077 0.24034 0.0744 0.0
N386 N 0.8622 0.2538 0.02712 0.0
N387 N 0.86958 0.22455 0.99943 0.0
C388 C 0.86202 0.24791 1.00322 0.0
C389 C 0.86961 0.2332 0.03884 0.0
C390 C 0.87452 0.21525 1.0218 0.0
C391 C 0.90589 0.30524 0.06799 0.0
O392 O 0.92779 0.32277 0.072 0.0
H393 H 0.85681 0.26065 0.98883 0.0
H394 H 0.8713 0.23127 0.05835 0.0
O395 O 0.83679 0.30108 1.01299 0.0
H396 H 0.79283 0.24956 0.10252 0.0
H397 H 0.8809 0.19668 0.02546 0.0
Cu398 Cu 0.81822 0.77142 0.0346 0.0
N399 N 0.84496 0.76738 1.01419 0.0
N400 N 0.86729 0.77537 0.98107 0.0
C401 C 0.84756 0.78132 0.99383 0.0
C402 C 0.87783 0.75693 0.99382 0.0
C403 C 0.86392 0.752 1.0144 0.0
O404 O 0.78989 0.77656 1.0097 0.0
C405 C 0.82242 0.80974 0.07454 0.0
O406 O 0.79608 0.80647 0.07259 0.0
H407 H 0.8351 0.79563 0.98837 0.0
H408 H 0.86738 0.73823 0.02839 0.0
N409 N 0.80658 0.74177 0.05273 0.0
N410 N 0.78723 0.71805 0.08212 0.0
C411 C 0.79173 0.74168 0.07198 0.0
C412 C 0.81167 0.71718 0.05074 0.0
C413 C 0.79968 0.70246 0.06888 0.0
C414 C 0.77018 0.75825 1.00367 0.0
O415 O 0.75784 0.74536 1.021 0.0
H416 H 0.78478 0.75867 0.0789 0.0
H417 H 0.82351 0.71048 0.03726 0.0
O418 O 0.83442 0.79953 0.0584 0.0
H419 H 0.89432 0.74782 0.98864 0.0
H420 H 0.80076 0.68221 0.0726 0.0
Cu421 Cu 0.2792 0.74657 0.02516 0.0
N422 N 0.2492 0.73448 0.04157 0.0
N423 N 0.22484 0.72907 0.07341 0.0
C424 C 0.24897 0.73816 0.06567 0.0
C425 C 0.20896 0.71912 0.05351 0.0
C426 C 0.22416 0.72262 0.03367 0.0
O427 O 0.30834 0.75375 0.05088 0.0
C428 C 0.29102 0.79242 0.99747 0.0
O429 O 0.31604 0.78856 1.0001 0.0
H430 H 0.26598 0.74808 0.07733 0.0
H431 H 0.21725 0.71759 1.01484 0.0
N432 N 0.2857 0.72136 1.00309 0.0
N433 N 0.30763 0.7005 0.97798 0.0
C434 C 0.30859 0.72191 0.99226 0.0
C435 C 0.26977 0.6988 0.99531 0.0
C436 C 0.28334 0.68582 0.97969 0.0
C437 C 0.319 0.73479 0.05928 0.0
O438 O 0.3134 0.71197 0.04774 0.0
H439 H 0.32582 0.73738 0.99517 0.0
H440 H 0.24992 0.69202 1.0009 0.0
O441 O 0.27293 0.77739 1.0076 0.0
H442 H 0.18787 0.71083 0.05328 0.0
H443 H 0.27624 0.66699 0.97064 0.0
Cu444 Cu 0.03932 0.26084 0.31794 0.0
N445 N 0.05582 0.23158 0.31252 0.0
N446 N 0.0821 0.20765 0.29469 0.0
C447 C 0.07388 0.23101 0.2959 0.0
C448 C 0.06871 0.19275 0.31109 0.0
C449 C 0.05245 0.20758 0.32208 0.0
O450 O 0.06805 0.28932 0.32761 0.0
C451 C 1.00148 0.24759 0.28038 0.0
O452 O 0.99701 0.22717 0.29421 0.0
H453 H 0.0805 0.2473 0.28455 0.0
H454 H 0.03876 0.20107 0.33562 0.0
N455 N 1.01454 0.25784 0.34187 0.0
N456 N 0.98192 0.26802 0.3634 0.0
C457 C 0.99568 0.27321 0.34358 0.0
C458 C 1.01267 0.24254 0.36144 0.0
C459 C 0.99251 0.24877 0.37474 0.0
C460 C 0.08222 0.28684 0.34732 0.0
O461 O 0.07624 0.26602 0.36039 0.0
H462 H 0.99254 0.28838 0.33089 0.0
H463 H 0.02556 0.22843 0.36616 0.0
O464 O 1.01999 0.26656 0.28729 0.0
H465 H 0.07017 0.17251 0.31444 0.0
H466 H 0.98645 0.24026 0.39166 0.0
Cu467 Cu 0.79586 0.02823 0.28937 0.0
N468 N 0.82759 0.05109 0.28465 0.0
N469 N 0.85445 0.08318 0.26784 0.0
C470 C 0.82908 0.0706 0.26868 0.0
C471 C 0.86966 0.07128 0.28389 0.0
C472 C 0.85297 0.05135 0.29424 0.0
O473 O 0.76801 0.04989 0.29202 0.0
C474 C 0.80826 0.99502 0.25142 0.0
O475 O 0.82926 1.01318 0.24943 0.0
H476 H 0.81196 0.07513 0.25749 0.0
H477 H 0.85904 0.0376 0.30726 0.0
N478 N 0.7967 1.01055 0.31858 0.0
N479 N 0.78202 0.98042 0.345 0.0
C480 C 0.77746 0.99035 0.32294 0.0
C481 C 0.81402 1.01364 0.33873 0.0
C482 C 0.80497 0.99487 0.35513 0.0
C483 C 0.77394 0.06768 0.30882 0.0
O484 O 0.79742 0.07025 0.3214 0.0
H485 H 0.76044 0.98297 0.31011 0.0
H486 H 0.83179 0.02848 0.3414 0.0
O487 O 0.79 0.99947 0.26483 0.0
H488 H 0.89125 0.07632 0.28741 0.0
H489 H 0.81436 0.99208 0.37305 0.0
Cu490 Cu 0.03526 0.75792 0.2817 0.0
N491 N 1.01806 0.78763 0.28149 0.0
N492 N 0.98879 0.81224 0.26507 0.0
C493 C 0.99275 0.78796 0.27158 0.0
C494 C 1.01248 0.82786 0.27164 0.0
C495 C 0.03027 0.81277 0.28189 0.0
O496 O 1.00717 0.72737 0.27963 0.0
C497 C 0.07957 0.77773 0.25857 0.0
O498 O 0.08585 0.78754 0.28079 0.0
H499 H 0.97825 0.77043 0.26714 0.0
H500 H 0.05128 0.81942 0.28736 0.0
N501 N 0.05871 0.75376 0.30952 0.0
N502 N 0.09256 0.7397 0.33154 0.0
C503 C 0.07651 0.73696 0.31051 0.0
C504 C 0.06366 0.76748 0.33082 0.0
C505 C 0.08455 0.75884 0.34443 0.0
C506 C 0.99318 0.72586 0.29787 0.0
O507 O 0.99918 0.74393 0.31529 0.0
H508 H 0.07832 0.72362 0.2957 0.0
H509 H 0.05339 0.7832 0.33576 0.0
O510 O 0.0572 0.76241 0.25408 0.0
H511 H 1.01707 0.84852 0.26805 0.0
H512 H 0.09361 0.76642 0.36213 0.0
Cu513 Cu 0.28748 1.01032 0.24812 0.0
N514 N 0.29956 0.03219 0.27746 0.0
N515 N 0.3167 0.06598 0.3024 0.0
C516 C 0.31593 0.05553 0.27973 0.0
C517 C 0.30064 0.04859 0.31486 0.0
C518 C 0.29007 0.02772 0.29941 0.0
O519 O 0.26842 0.03932 0.2336 0.0
C520 C 0.30022 0.96675 0.2782 0.0
O521 O 0.27532 0.96498 0.28387 0.0
H522 H 0.32604 0.0652 0.26497 0.0
H523 H 0.27532 1.01115 0.30351 0.0
N524 N 0.27386 0.98733 0.21933 0.0
N525 N 0.2554 0.94928 0.2005 0.0
C526 C 0.27384 0.96134 0.21786 0.0
C527 C 0.25535 0.99181 0.20152 0.0
C528 C 0.2439 0.96838 0.18998 0.0
C529 C 0.25112 0.04982 0.24393 0.0
O530 O 0.24318 0.0411 0.26485 0.0
H531 H 0.28474 0.95084 0.23087 0.0
H532 H 0.24854 1.01026 0.19856 0.0
O533 O 0.30891 0.98311 0.26248 0.0
H534 H 0.29573 0.05156 0.33333 0.0
H535 H 0.22675 0.96527 0.17656 0.0
Cu536 Cu 0.06992 0.81695 0.77703 0.0
N537 N 0.08735 0.7881 0.77255 0.0
N538 N 0.11315 0.76305 0.75559 0.0
C539 C 0.10471 0.78638 0.75549 0.0
C540 C 0.10068 0.74948 0.77328 0.0
C541 C 0.08471 0.76496 0.78369 0.0
O542 O 0.09802 0.84737 0.78294 0.0
C543 C 0.02662 0.79688 0.74744 0.0
O544 O 0.02705 0.77975 0.76473 0.0
H545 H 0.11063 0.80172 0.74293 0.0
H546 H 0.0716 0.7594 0.79792 0.0
N547 N 0.04843 0.81488 0.80347 0.0
N548 N 1.01403 0.82096 0.82459 0.0
C549 C 0.02686 0.82689 0.80441 0.0
C550 C 0.04945 0.80121 0.82406 0.0
C551 C 0.02816 0.80492 0.83712 0.0
C552 C 0.11422 0.84502 0.80142 0.0
O553 O 0.11058 0.82344 0.81377 0.0
H554 H 1.02048 0.83949 0.79042 0.0
H555 H 0.0644 0.78922 0.82915 0.0
O556 O 0.04502 0.81698 0.74825 0.0
H557 H 0.10256 0.72962 0.77792 0.0
H558 H 1.0232 0.79628 0.85429 0.0
Cu559 Cu 0.33322 0.06757 0.81594 0.0
N560 N 0.36608 0.08797 0.80979 0.0
N561 N 0.38868 0.11899 0.78778 0.0
C562 C 0.36848 0.11289 0.80238 0.0
C563 C 0.40015 0.09739 0.78685 0.0
C564 C 0.38641 0.07848 0.80054 0.0
O565 O 0.30728 0.09125 0.82111 0.0
C566 C 0.33781 0.02234 0.78915 0.0
O567 O 0.35386 0.01957 0.80852 0.0
H568 H 0.35369 0.12519 0.80502 0.0
H569 H 0.38915 0.05831 0.80107 0.0
N570 N 0.33424 0.04756 0.84375 0.0
N571 N 0.32052 1.01386 0.86685 0.0
C572 C 0.31469 0.0273 0.84703 0.0
C573 C 0.35315 0.04712 0.86236 0.0
C574 C 0.34463 0.02616 0.87679 0.0
C575 C 0.31272 0.10661 0.83991 0.0
O576 O 0.33479 0.10585 0.85395 0.0
H577 H 0.29699 0.02181 0.83446 0.0
H578 H 0.37208 0.06043 0.86474 0.0
O579 O 0.32501 0.04173 0.7884 0.0
H580 H 0.41587 0.09471 0.77536 0.0
H581 H 0.35559 0.01987 0.8927 0.0
Cu582 Cu 0.0454 0.31205 0.81065 0.0
N583 N 0.02901 0.34151 0.80434 0.0
N584 N 0.99744 0.36046 0.78384 0.0
C585 C 1.00247 0.34051 0.7982 0.0
C586 C 1.02176 0.37499 0.78159 0.0
C587 C 0.04103 0.36345 0.79429 0.0
O588 O 1.018 0.28171 0.81326 0.0
C589 C 0.08992 0.32353 0.78505 0.0
O590 O 0.09713 0.33972 0.80382 0.0
H591 H 0.98748 0.32385 0.80167 0.0
H592 H 0.06244 0.36911 0.79367 0.0
N593 N 0.06908 0.31332 0.83877 0.0
N594 N 0.10367 0.30168 0.86124 0.0
C595 C 0.08509 0.29522 0.84235 0.0
C596 C 0.07765 0.33189 0.85631 0.0
C597 C 0.09915 0.32469 0.8703 0.0
C598 C 1.00618 0.27957 0.83281 0.0
O599 O 1.01229 0.29805 0.84985 0.0
H600 H 0.0842 0.27839 0.8303 0.0
H601 H 0.06992 0.34999 0.8579 0.0
O602 O 0.0672 0.30849 0.78375 0.0
H603 H 0.02554 0.3916 0.76993 0.0
H604 H 0.11134 0.33603 0.88505 0.0
Cu605 Cu 0.81346 1.01049 0.74112 0.0
N606 N 0.8477 0.03011 0.74205 0.0
N607 N 0.87836 0.06344 0.75729 0.0
C608 C 0.85728 0.0453 0.76178 0.0
C609 C 0.88262 0.0595 0.7338 0.0
C610 C 0.86354 0.03874 0.72435 0.0
O611 O 0.7909 0.03786 0.74084 0.0
C612 C 0.83153 0.97165 0.76807 0.0
O613 O 0.84546 0.97186 0.74898 0.0
H614 H 0.84709 0.04497 0.77832 0.0
H615 H 0.8601 0.03214 0.70551 0.0
N616 N 0.80337 0.98927 0.71318 0.0
N617 N 0.77822 0.95757 0.68975 0.0
C618 C 0.78526 0.96706 0.71263 0.0
C619 C 0.80794 0.99396 0.68977 0.0
C620 C 0.79245 0.97425 0.6752 0.0
C621 C 0.76854 0.03681 0.7281 0.0
O622 O 0.75592 0.01416 0.71894 0.0
H623 H 0.77619 0.95887 0.72855 0.0
H624 H 0.82026 1.01124 0.68355 0.0
O625 O 0.81464 0.98735 0.76899 0.0
H626 H 0.89689 0.07205 0.72375 0.0
H627 H 0.79065 0.97297 0.65549 0.0
Cu628 Cu 0.32505 0.77105 0.52899 0.0
N629 N 0.35554 0.78334 0.55084 0.0
N630 N 0.37455 0.81038 0.5822 0.0
C631 C 0.35405 0.79113 0.57418 0.0
C632 C 0.39008 0.8142 0.56341 0.0
C633 C 0.37859 0.79744 0.54438 0.0
O634 O 0.29406 0.76653 0.54896 0.0
C635 C 0.34403 0.79197 0.48623 0.0
O636 O 0.35817 0.77315 0.48971 0.0
H637 H 0.33677 0.78503 0.58422 0.0
H638 H 0.38518 0.79783 0.52626 0.0
N639 N 0.32276 0.73847 0.51304 0.0
N640 N 0.30779 0.70898 0.48297 0.0
C641 C 0.30437 0.73129 0.49404 0.0
C642 C 0.33836 0.71981 0.51422 0.0
C643 C 0.32908 0.70148 0.49556 0.0
C644 C 0.29441 0.74809 0.56419 0.0
O645 O 0.31412 0.73454 0.56447 0.0
H646 H 0.28945 0.74293 0.48773 0.0
H647 H 0.35586 0.72015 0.52693 0.0
O648 O 0.32706 0.79549 0.50154 0.0
H649 H 0.40745 0.82942 0.56281 0.0
H650 H 0.33791 0.68464 0.49095 0.0
Cu651 Cu 0.7611 0.71129 0.53795 0.0
N652 N 0.76952 0.68552 0.51771 0.0
N653 N 0.79278 0.67315 0.48825 0.0
C654 C 0.77631 0.68946 0.49479 0.0
C655 C 0.79574 0.6578 0.5075 0.0
C656 C 0.78131 0.66544 0.52563 0.0
O657 O 0.75772 0.74249 0.51978 0.0
C658 C 0.8123 0.73223 0.56128 0.0
O659 O 0.81595 0.74548 0.54134 0.0
H660 H 0.7727 0.70633 0.48456 0.0
H661 H 0.78225 0.65914 0.54427 0.0
N662 N 0.72907 0.70167 0.552 0.0
N663 N 0.69391 0.71076 0.56997 0.0
C664 C 0.71986 0.71858 0.56635 0.0
C665 C 0.70832 0.68202 0.54657 0.0
C666 C 0.68637 0.68761 0.5578 0.0
C667 C 0.73782 0.74205 0.504 0.0
O668 O 0.72052 0.72032 0.49963 0.0
H669 H 0.73126 0.73753 0.57215 0.0
H670 H 0.70846 0.66606 0.53378 0.0
O671 O 0.7898 0.71792 0.56375 0.0
H672 H 0.80946 0.64388 0.50916 0.0
H673 H 0.66607 0.67683 0.55552 0.0
Cu674 Cu 0.80472 0.24104 0.55075 0.0
N675 N 0.80114 0.20984 0.53096 0.0
N676 N 0.78354 0.18649 0.49668 0.0
C677 C 0.79773 0.2094 0.50621 0.0
C678 C 0.77847 0.17154 0.51609 0.0
C679 C 0.7892 0.18576 0.53694 0.0
O680 O 0.80524 0.26912 0.52694 0.0
C681 C 0.78146 0.21841 0.59108 0.0
O682 O 0.80266 0.20708 0.59032 0.0
H683 H 0.80264 0.22644 0.4954 0.0
H684 H 0.78538 0.17963 0.55509 0.0
N685 N 0.83587 0.25316 0.57173 0.0
N686 N 0.85681 0.27962 0.60259 0.0
C687 C 0.83871 0.27693 0.58295 0.0
C688 C 0.85366 0.24064 0.58423 0.0
C689 C 0.86653 0.25692 0.60334 0.0
C690 C 0.82682 0.27233 0.51588 0.0
O691 O 0.84508 0.25784 0.52209 0.0
H692 H 0.8257 0.29101 0.57828 0.0
H693 H 0.85538 0.22038 0.58116 0.0
O694 O 0.77696 0.23469 0.57445 0.0
H695 H 0.76584 0.15247 0.51538 0.0
H696 H 0.88061 0.25185 0.6176 0.0
Cu697 Cu 0.27254 0.27244 0.5416 0.0
N698 N 0.24525 0.26439 0.56204 0.0
N699 N 0.22366 0.26723 0.59518 0.0
C700 C 0.24399 0.27817 0.58254 0.0
C701 C 0.21151 0.24558 0.58235 0.0
C702 C 0.22496 0.24391 0.56166 0.0
O703 O 0.30445 0.28539 0.56337 0.0
C704 C 0.27757 0.30987 0.50379 0.0
O705 O 0.303 0.30738 0.50526 0.0
H706 H 0.25825 0.29549 0.5885 0.0
H707 H 0.22075 0.22852 0.54776 0.0
N708 N 0.27712 0.24229 0.52502 0.0
N709 N 0.2868 0.21687 0.49543 0.0
C710 C 0.2837 0.24111 0.50199 0.0
C711 C 0.27623 0.21787 0.53337 0.0
C712 C 0.28226 0.20199 0.51499 0.0
C713 C 0.3273 0.27862 0.56209 0.0
O714 O 0.3307 0.26425 0.54315 0.0
H715 H 0.28683 0.25775 0.49035 0.0
H716 H 0.27197 0.21218 0.55164 0.0
O717 O 0.26196 0.29761 0.51829 0.0
H718 H 0.19471 0.23182 0.58784 0.0
H719 H 0.28359 0.18142 0.51593 0.0
Cu720 Cu 0.83893 0.56194 0.81792 0.0
N721 N 0.87197 0.58179 0.81175 0.0
N722 N 0.89639 0.61167 0.79006 0.0
C723 C 0.87464 0.60609 0.80288 0.0
C724 C 0.90852 0.59046 0.79182 0.0
C725 C 0.89355 0.57218 0.8053 0.0
O726 O 0.81301 0.58594 0.82182 0.0
C727 C 0.8429 0.51553 0.79243 0.0
O728 O 0.85998 0.51377 0.8113 0.0
H729 H 0.85919 0.61809 0.80305 0.0
H730 H 0.89671 0.55229 0.80776 0.0
N731 N 0.84033 0.5432 0.84642 0.0
N732 N 0.82859 0.50899 0.86949 0.0
C733 C 0.82153 0.52244 0.85007 0.0
C734 C 0.85994 0.54322 0.86449 0.0
C735 C 0.85265 0.52195 0.87892 0.0
C736 C 0.81827 0.60242 0.8398 0.0
O737 O 0.84024 0.60251 0.85423 0.0
H738 H 0.80383 0.51624 0.83765 0.0
H739 H 0.8788 0.55668 0.86614 0.0
O740 O 0.83024 0.535 0.79128 0.0
H741 H 0.92563 0.58752 0.78223 0.0
H742 H 0.86471 0.51554 0.89406 0.0
Cu743 Cu 0.31585 0.53656 0.76744 0.0
N744 N 0.34032 0.51287 0.76949 0.0
N745 N 0.36044 0.48088 0.78536 0.0
C746 C 0.34494 0.49896 0.78948 0.0
C747 C 0.36592 0.48341 0.7619 0.0
C748 C 0.3534 0.50314 0.7521 0.0
O749 O 0.28102 0.51504 0.76893 0.0
C750 C 0.34968 0.57309 0.79583 0.0
O751 O 0.36558 0.56773 0.7795 0.0
H752 H 0.33609 0.50124 0.80643 0.0
H753 H 0.35278 0.50896 0.73334 0.0
N754 N 0.31573 0.55679 0.73927 0.0
N755 N 0.30479 0.58761 0.71402 0.0
C756 C 0.29766 0.5725 0.73299 0.0
C757 C 0.33498 0.56236 0.72374 0.0
C758 C 0.32823 0.58132 0.70811 0.0
C759 C 0.27493 0.49767 0.75197 0.0
O760 O 0.29046 0.49794 0.73401 0.0
H761 H 0.28031 0.57377 0.74287 0.0
H762 H 0.35334 0.55429 0.72453 0.0
O763 O 0.32564 0.56091 0.79476 0.0
H764 H 0.37719 0.47116 0.75232 0.0
H765 H 0.34009 0.59053 0.69414 0.0
Cu766 Cu 0.30224 0.51905 0.27205 0.0
N767 N 0.26768 0.50085 0.26433 0.0
N768 N 0.23293 0.471 0.27285 0.0
C769 C 0.25413 0.48847 0.28191 0.0
C770 C 0.23217 0.47316 0.24841 0.0
C771 C 0.25397 0.49162 0.24315 0.0
O772 O 0.32705 0.49355 0.27048 0.0
C773 C 0.30745 0.55954 0.30989 0.0
O774 O 0.32654 0.57318 0.29843 0.0
H775 H 0.26152 0.49005 0.30098 0.0
H776 H 0.2606 0.49617 0.22531 0.0
N777 N 0.31333 0.54439 0.24948 0.0
N778 N 0.32456 0.58312 0.23231 0.0
C779 C 0.3062 0.56796 0.24488 0.0
C780 C 0.33615 0.54443 0.23868 0.0
C781 C 0.34309 0.5681 0.22818 0.0
C782 C 0.32047 0.46885 0.27252 0.0
O783 O 0.29746 0.45935 0.28089 0.0
H784 H 0.28883 0.57427 0.25166 0.0
H785 H 0.34801 0.52893 0.23985 0.0
O786 O 0.29896 0.53564 0.30367 0.0
H787 H 0.21854 0.46059 0.2354 0.0
H788 H 0.36121 0.57441 0.21921 0.0
Cu789 Cu 0.81361 0.50657 0.26412 0.0
N790 N 0.84265 0.48909 0.27171 0.0
N791 N 0.86484 0.46074 0.29135 0.0
C792 C 0.84349 0.47313 0.29074 0.0
C793 C 0.8782 0.4692 0.27201 0.0
C794 C 0.86433 0.48669 0.25979 0.0
O795 O 0.78468 0.48058 0.24996 0.0
C796 C 0.82665 0.53966 0.30219 0.0
O797 O 0.84942 0.54045 0.29222 0.0
H798 H 0.82828 0.4701 0.30358 0.0
H799 H 0.86926 0.49628 0.24306 0.0
N800 N 0.81835 0.5342 0.24254 0.0
N801 N 0.80794 0.57042 0.22539 0.0
C802 C 0.79916 0.54899 0.23786 0.0
C803 C 0.84016 0.54672 0.23257 0.0
C804 C 0.83371 0.56912 0.22181 0.0
C805 C 0.78861 0.47117 0.22939 0.0
O806 O 0.81086 0.47989 0.21931 0.0
H807 H 0.77945 0.54479 0.24456 0.0
H808 H 0.85969 0.54084 0.23414 0.0
O809 O 0.80628 0.52337 0.2937 0.0
H810 H 0.89623 0.46274 0.26685 0.0
H811 H 0.84714 0.58386 0.21304 0.0
Cu812 Cu 0.57545 0.31286 0.78808 0.0
N813 N 0.55844 0.31864 0.81635 0.0
N814 N 0.52652 0.32751 0.83956 0.0
C815 C 0.53188 0.31451 0.81955 0.0
C816 C 0.55055 0.34008 0.84935 0.0
C817 C 0.57005 0.3345 0.83518 0.0
O818 O 0.54947 0.31347 0.76005 0.0
C819 C 0.62692 0.33556 0.8041 0.0
O820 O 0.62384 0.31439 0.81707 0.0
H821 H 0.51656 0.30369 0.80673 0.0
H822 H 0.59107 0.34294 0.83769 0.0
N823 N 0.58723 0.28052 0.78655 0.0
N824 N 0.60757 0.24917 0.77236 0.0
C825 C 0.60071 0.27284 0.76841 0.0
C826 C 0.58551 0.26098 0.80251 0.0
C827 C 0.59811 0.24153 0.79374 0.0
C828 C 0.53125 0.29323 0.75753 0.0
O829 O 0.53185 0.27423 0.77296 0.0
H830 H 0.60558 0.28447 0.75272 0.0
H831 H 0.57602 0.26103 0.81938 0.0
O832 O 0.6078 0.33946 0.78877 0.0
H833 H 0.55362 0.35316 0.86518 0.0
H834 H 0.60026 0.22328 0.80236 0.0
Cu835 Cu 0.54843 0.81032 0.78629 0.0
N836 N 0.57489 0.81169 0.81229 0.0
N837 N 0.60882 0.79922 0.83503 0.0
C838 C 0.5908 0.79345 0.81557 0.0
C839 C 0.60411 0.82191 0.8446 0.0
C840 C 0.58306 0.82962 0.83044 0.0
O841 O 0.56558 0.80553 0.75662 0.0
C842 C 0.51111 0.77988 0.81228 0.0
O843 O 0.51904 0.79922 0.82824 0.0
H844 H 0.58949 0.77645 0.80364 0.0
H845 H 0.57454 0.84714 0.833 0.0
N846 N 0.53305 0.8407 0.78236 0.0
N847 N 0.50087 0.86257 0.76735 0.0
C848 C 0.50646 0.84151 0.7798 0.0
C849 C 0.54473 0.86254 0.77197 0.0
C850 C 0.52506 0.8759 0.76263 0.0
C851 C 0.58884 0.81878 0.75472 0.0
O852 O 0.60084 0.83406 0.77294 0.0
H853 H 0.49136 0.82555 0.78448 0.0
H854 H 0.56579 0.86701 0.76898 0.0
O855 O 0.52078 0.78081 0.79165 0.0
H856 H 0.6153 0.83225 0.8604 0.0
H857 H 0.52815 0.89306 0.75155 0.0
Cu858 Cu 0.55438 0.78225 0.29714 0.0
N859 N 0.53347 0.8089 0.29995 0.0
N860 N 0.50106 0.82839 0.31389 0.0
C861 C 0.51091 0.8059 0.31191 0.0
C862 C 0.518 0.84636 0.30268 0.0
C863 C 0.53799 0.83429 0.29409 0.0
O864 O 0.52696 0.75112 0.29616 0.0
C865 C 0.58105 0.7986 0.34416 0.0
O866 O 0.55743 0.80163 0.35078 0.0
H867 H 0.50245 0.78776 0.31993 0.0
H868 H 0.55511 0.84358 0.28507 0.0
N869 N 0.57318 0.78197 0.26886 0.0
N870 N 0.60268 0.77039 0.2442 0.0
C871 C 0.59303 0.76788 0.26634 0.0
C872 C 0.57042 0.79408 0.24754 0.0
C873 C 0.58864 0.78698 0.2323 0.0
C874 C 0.52586 0.73135 0.28201 0.0
O875 O 0.54819 0.72466 0.27553 0.0
H876 H 0.60007 0.75567 0.28041 0.0
H877 H 0.556 0.80689 0.24327 0.0
O878 O 0.58267 0.78738 0.32379 0.0
H879 H 0.51649 0.86688 0.30148 0.0
H880 H 0.59112 0.79319 0.21383 0.0
Cu881 Cu 0.5409 0.26284 0.28764 0.0
N882 N 0.52355 0.26678 0.31543 0.0
N883 N 0.48992 0.26065 0.33927 0.0
C884 C 0.49789 0.25593 0.31727 0.0
C885 C 0.51127 0.27514 0.35201 0.0
C886 C 0.53226 0.27876 0.33717 0.0
O887 O 0.51104 0.25897 0.26196 0.0
C888 C 0.57843 0.22565 0.28325 0.0
O889 O 0.58139 0.23265 0.2607 0.0
H890 H 0.48529 0.24447 0.3028 0.0
H891 H 0.55242 0.2891 0.34196 0.0
N892 N 0.56471 0.29352 0.28286 0.0
N893 N 0.59584 0.32159 0.26627 0.0
C894 C 0.58296 0.29675 0.26632 0.0
C895 C 0.56626 0.31725 0.2937 0.0
C896 C 0.5857 0.33468 0.28355 0.0
C897 C 0.51213 0.26888 0.24095 0.0
O898 O 0.5355 0.27492 0.23195 0.0
H899 H 0.58631 0.28147 0.25401 0.0
H900 H 0.55369 0.32176 0.30754 0.0
O901 O 0.56111 0.23432 0.29518 0.0
H902 H 0.51167 0.28219 0.37064 0.0
H903 H 0.59149 0.35535 0.288 0.0
C904 C 0.22551 0.17322 0.12296 0.0
C905 C 0.23669 0.17945 0.14726 0.0
C906 C 0.2797 0.19877 0.13208 0.0
C907 C 0.26806 0.1939 0.10786 0.0
N908 N 0.22972 0.17945 0.07963 0.0
N909 N 0.27299 0.20128 0.17513 0.0
C910 C 0.24085 0.18196 0.10315 0.0
C911 C 0.26344 0.19309 0.15187 0.0
N912 N 0.20056 0.1583 0.1189 0.0
N913 N 0.30651 0.20843 0.13603 0.0
H914 H 0.26172 0.19737 0.19006 0.0
H915 H 0.29122 0.21362 0.1795 0.0
H916 H 0.31862 0.21356 0.12185 0.0
H917 H 0.31715 0.20991 0.15311 0.0
H918 H 0.19228 0.15075 0.10185 0.0
H919 H 0.18862 0.15203 0.13294 0.0
H920 H 0.20932 0.17342 0.07475 0.0
H921 H 0.24086 0.18498 0.06488 0.0
C922 C 0.91452 0.24097 0.09781 0.0
C923 C 0.89641 0.24027 0.11615 0.0
C924 C 0.88635 0.2832 0.10424 0.0
C925 C 0.90189 0.28247 0.08406 0.0
N926 N 0.93015 0.26066 0.06066 0.0
N927 N 0.8639 0.2595 0.13651 0.0
C928 C 0.91608 0.26147 0.08073 0.0
C929 C 0.88207 0.2611 0.11935 0.0
N930 N 0.93049 0.22222 0.09699 0.0
N931 N 0.87656 0.30543 0.10953 0.0
H932 H 0.86089 0.24408 0.1485 0.0
H933 H 0.8507 0.27263 0.13804 0.0
H934 H 0.87832 0.32162 0.09837 0.0
H935 H 0.86872 0.30868 0.12594 0.0
H936 H 0.94602 0.22288 0.08568 0.0
H937 H 0.92952 0.20682 0.10906 0.0
H938 H 0.93856 0.24465 0.0556 0.0
H939 H 0.93167 0.27534 0.04783 0.0
C940 C 0.85209 0.85528 0.12925 0.0
C941 C 0.85732 0.83654 0.14685 0.0
C942 C 0.84666 0.80203 0.1149 0.0
C943 C 0.83742 0.81991 0.09824 0.0
N944 N 0.82973 0.86364 0.09004 0.0
N945 N 0.8521 0.791 0.15717 0.0
C946 C 0.83967 0.84661 0.10558 0.0
C947 C 0.85283 0.80964 0.13984 0.0
N948 N 0.85953 0.88133 0.13497 0.0
N949 N 0.84941 0.77759 0.10721 0.0
H950 H 0.85366 0.7955 0.17576 0.0
H951 H 0.84645 0.77107 0.15309 0.0
H952 H 0.84433 0.77044 0.08942 0.0
H953 H 0.85949 0.76545 0.11813 0.0
H954 H 0.85855 0.89596 0.12235 0.0
H955 H 0.86896 0.8882 0.15193 0.0
H956 H 0.82795 0.88262 0.09519 0.0
H957 H 0.82187 0.85823 0.07225 0.0
C958 C 0.23042 0.72597 0.14099 0.0
C959 C 0.21876 0.74797 0.14694 0.0
C960 C 0.20565 0.75381 0.10393 0.0
C961 C 0.21801 0.73236 0.09788 0.0
N962 N 0.23689 0.69464 0.10967 0.0
N963 N 0.1891 0.77836 0.13539 0.0
C964 C 0.22852 0.71721 0.11625 0.0
C965 C 0.20421 0.76035 0.12881 0.0
N966 N 0.24413 0.71419 0.15885 0.0
N967 N 0.19699 0.76896 0.08586 0.0
H968 H 0.18769 0.78357 0.15349 0.0
H969 H 0.17607 0.7863 0.12318 0.0
H970 H 0.19755 0.7645 0.06743 0.0
H971 H 0.19082 0.78676 0.08907 0.0
H972 H 0.25558 0.69986 0.15548 0.0
H973 H 0.24493 0.71959 0.17724 0.0
H974 H 0.24313 0.68142 0.12201 0.0
H975 H 0.23557 0.68819 0.09151 0.0
C976 C 0.25705 0.84865 0.97541 0.0
C977 C 0.25926 0.84672 0.95002 0.0
C978 C 0.28568 0.81156 0.95595 0.0
C979 C 0.28314 0.81309 0.98142 0.0
N980 N 0.2724 0.8369 1.01607 0.0
N981 N 0.28118 0.83198 0.91671 0.0
C982 C 0.27071 0.83292 0.99137 0.0
C983 C 0.27557 0.8301 0.94053 0.0
N984 N 0.24108 0.86481 0.98412 0.0
N985 N 0.29597 0.79135 0.94625 0.0
H986 H 0.27388 0.84541 0.90509 0.0
H987 H 0.29496 0.82213 0.90916 0.0
H988 H 0.30327 0.77709 0.95675 0.0
H989 H 0.29543 0.78748 0.92761 0.0
H990 H 0.23588 0.86482 1.002 0.0
H991 H 0.23195 0.87753 0.97301 0.0
H992 H 0.26588 0.85248 0.0245 0.0
H993 H 0.28256 0.82585 0.02815 0.0
C994 C 0.25337 0.20478 0.96009 0.0
C995 C 0.25664 0.22224 0.94055 0.0
C996 C 0.26629 0.25926 0.97027 0.0
C997 C 0.26523 0.24157 0.98983 0.0
N998 N 0.26745 0.19714 1.00183 0.0
N999 N 0.27305 0.26575 0.92752 0.0
C1000 C 0.26159 0.21421 0.98432 0.0
C1001 C 0.26525 0.24941 0.9458 0.0
N1002 N 0.24145 0.17932 0.95579 0.0
N1003 N 0.26699 0.28533 0.97478 0.0
H1004 H 0.27308 0.25912 0.90957 0.0
H1005 H 0.28209 0.2852 0.93066 0.0
H1006 H 0.26678 0.2933 0.9922 0.0
H1007 H 0.26511 0.29863 0.961 0.0
H1008 H 0.23625 0.16659 0.96976 0.0
H1009 H 0.23421 0.17168 0.93847 0.0
H1010 H 0.26731 0.17737 0.99804 0.0
H1011 H 0.27592 0.20317 1.01924 0.0
C1012 C 0.88633 0.21385 0.93502 0.0
C1013 C 0.87494 0.18716 0.93086 0.0
C1014 C 0.85643 0.18663 0.9706 0.0
C1015 C 0.87136 0.21193 0.97624 0.0
N1016 N 0.90488 0.24758 0.96538 0.0
N1017 N 0.85142 0.14692 0.94584 0.0
C1018 C 0.88755 0.22503 0.95885 0.0
C1019 C 0.86073 0.17314 0.94904 0.0
N1020 N 0.89501 0.2288 0.91612 0.0
N1021 N 0.83707 0.1761 0.98514 0.0
H1022 H 0.85339 0.13643 0.92999 0.0
H1023 H 0.84353 0.13524 0.95963 0.0
H1024 H 0.8323 0.18613 1.00025 0.0
H1025 H 0.82381 0.15876 0.98072 0.0
H1026 H 0.90162 0.24892 0.91787 0.0
H1027 H 0.89234 0.22164 0.89817 0.0
H1028 H 0.91883 0.2567 0.954 0.0
H1029 H 0.90731 0.25555 0.98305 0.0
C1030 C 0.86416 0.79339 0.91501 0.0
C1031 C 0.88556 0.81507 0.91567 0.0
C1032 C 0.8962 0.8089 0.95939 0.0
C1033 C 0.87512 0.78717 0.95863 0.0
N1034 N 0.84048 0.7568 0.93636 0.0
N1035 N 0.92387 0.842 0.93749 0.0
C1036 C 0.85954 0.77884 0.93652 0.0
C1037 C 0.90226 0.82228 0.93757 0.0
N1038 N 0.84815 0.78702 0.89384 0.0
N1039 N 0.90944 0.81746 0.98138 0.0
H1040 H 0.92799 0.85344 0.9224 0.0
H1041 H 0.93863 0.84631 0.95191 0.0
H1042 H 0.90566 0.80771 0.99749 0.0
H1043 H 0.92303 0.83485 0.98409 0.0
H1044 H 0.8307 0.77313 0.89236 0.0
H1045 H 0.85184 0.79635 0.87752 0.0
H1046 H 0.82921 0.74819 0.92083 0.0
H1047 H 0.83684 0.74608 0.95198 0.0
C1048 C 0.10789 0.18769 0.23615 0.0
C1049 C 0.13569 0.18939 0.24351 0.0
C1050 C 0.12767 0.20154 0.28524 0.0
C1051 C 0.09996 0.19986 0.27788 0.0
N1052 N 0.06263 0.18752 0.24806 0.0
N1053 N 0.17157 0.1933 0.27545 0.0
C1054 C 0.08977 0.19169 0.2538 0.0
C1055 C 0.14542 0.19481 0.26825 0.0
N1056 N 0.09901 0.18309 0.21211 0.0
N1057 N 0.137 0.21052 0.30829 0.0
H1058 H 0.18489 0.18848 0.26334 0.0
H1059 H 0.17958 0.19486 0.29351 0.0
H1060 H 0.12424 0.21497 0.32108 0.0
H1061 H 0.15726 0.21493 0.31439 0.0
H1062 H 0.0797 0.18451 0.20489 0.0
H1063 H 0.11145 0.17887 0.19896 0.0
H1064 H 0.05327 0.17935 0.23157 0.0
H1065 H 0.04912 0.1907 0.26064 0.0
C1066 C 0.8642 0.1495 0.23968 0.0
C1067 C 0.88101 0.14541 0.22111 0.0
C1068 C 0.87771 0.09931 0.23192 0.0
C1069 C 0.86341 0.10417 0.25203 0.0
N1070 N 0.84571 0.13413 0.2772 0.0
N1071 N 0.90668 0.11742 0.20126 0.0
C1072 C 0.85727 0.12935 0.25644 0.0
C1073 C 0.8885 0.12052 0.2176 0.0
N1074 N 0.8545 0.17249 0.24098 0.0
N1075 N 0.88023 0.0742 0.22614 0.0
H1076 H 0.91479 0.1324 0.19024 0.0
H1077 H 0.91522 0.10061 0.19985 0.0
H1078 H 0.87233 0.05832 0.23625 0.0
H1079 H 0.88804 0.06887 0.21028 0.0
H1080 H 0.84012 0.17575 0.25257 0.0
H1081 H 0.85914 0.18761 0.22894 0.0
H1082 H 0.84302 0.15266 0.28286 0.0
H1083 H 0.84077 0.11973 0.28988 0.0
C1084 C 0.92787 0.80964 0.21955 0.0
C1085 C 0.92002 0.83431 0.22383 0.0
C1086 C 0.95545 0.84242 0.25778 0.0
C1087 C 0.96561 0.81965 0.25111 0.0
N1088 N 0.96555 0.78664 0.21973 0.0
N1089 N 0.93263 0.87728 0.24316 0.0
C1090 C 0.95303 0.80469 0.23025 0.0
C1091 C 0.93572 0.85167 0.2418 0.0
N1092 N 0.91094 0.79027 0.20642 0.0
N1093 N 0.96366 0.85465 0.27983 0.0
H1094 H 0.91981 0.88534 0.23078 0.0
H1095 H 0.94514 0.89104 0.25472 0.0
H1096 H 0.97649 0.84738 0.29277 0.0
H1097 H 0.95517 0.8701 0.28628 0.0
H1098 H 0.91516 0.77138 0.20455 0.0
H1099 H 0.89144 0.79209 0.20016 0.0
H1100 H 0.95786 0.77668 0.20344 0.0
H1101 H 0.9851 0.78427 0.22539 0.0
C1102 C 0.23235 0.88009 0.17584 0.0
C1103 C 0.22498 0.86739 0.19754 0.0
C1104 C 0.23432 0.90928 0.21987 0.0
C1105 C 0.24455 0.92171 0.19907 0.0
N1106 N 0.25694 0.91859 0.15811 0.0
N1107 N 0.22706 0.86895 0.24147 0.0
C1108 C 0.2446 0.90699 0.17722 0.0
C1109 C 0.22845 0.88171 0.21997 0.0
N1110 N 0.22706 0.86673 0.15399 0.0
N1111 N 0.22892 0.92383 0.23911 0.0
H1112 H 0.22455 0.84862 0.24229 0.0
H1113 H 0.23155 0.8786 0.2584 0.0
H1114 H 0.23111 0.94417 0.23899 0.0
H1115 H 0.21935 0.91554 0.25387 0.0
H1116 H 0.22954 0.87562 0.1373 0.0
H1117 H 0.21836 0.84701 0.15247 0.0
H1118 H 0.25991 0.90837 0.14245 0.0
H1119 H 0.26613 0.93818 0.15883 0.0
C1120 C 0.18668 0.873 0.81949 0.0
C1121 C 0.18293 0.89 0.83879 0.0
C1122 C 0.13507 0.88575 0.82494 0.0
C1123 C 0.13799 0.86506 0.80891 0.0
N1124 N 0.16602 0.84018 0.78862 0.0
N1125 N 0.15489 0.91507 0.8589 0.0
C1126 C 0.1638 0.85947 0.80511 0.0
C1127 C 0.15756 0.89758 0.84087 0.0
N1128 N 0.21209 0.86953 0.81535 0.0
N1129 N 0.1106 0.89346 0.8252 0.0
H1130 H 0.17131 0.92477 0.87004 0.0
H1131 H 0.13661 0.91959 0.86333 0.0
H1132 H 0.09399 0.88485 0.81369 0.0
H1133 H 0.1071 0.90944 0.8353 0.0
H1134 H 0.21664 0.85892 0.80056 0.0
H1135 H 0.22909 0.87905 0.82584 0.0
H1136 H 0.18356 0.83268 0.78677 0.0
H1137 H 0.14971 0.83108 0.777 0.0
C1138 C 0.28459 0.16926 0.84905 0.0
C1139 C 0.26932 0.16312 0.86939 0.0
C1140 C 0.28002 0.11847 0.86851 0.0
C1141 C 0.29425 0.12433 0.84754 0.0
N1142 N 0.30493 0.15323 0.81468 0.0
N1143 N 0.24764 0.13017 0.89501 0.0
C1144 C 0.29481 0.14908 0.83677 0.0
C1145 C 0.26566 0.13721 0.87815 0.0
N1146 N 0.29035 0.19465 0.84211 0.0
N1147 N 0.28053 0.09504 0.87946 0.0
H1148 H 0.2365 0.14314 0.90221 0.0
H1149 H 0.24194 0.11098 0.90029 0.0
H1150 H 0.2892 0.08018 0.87203 0.0
H1151 H 0.2736 0.09081 0.89647 0.0
H1152 H 0.30368 0.20088 0.82915 0.0
H1153 H 0.2837 0.21 0.85088 0.0
H1154 H 0.30379 0.16999 0.80472 0.0
H1155 H 0.31198 0.13868 0.80511 0.0
C1156 C 0.9402 0.23392 0.83854 0.0
C1157 C 0.94967 0.2106 0.84541 0.0
C1158 C 0.99619 0.23217 0.84274 0.0
C1159 C 0.98675 0.25585 0.83713 0.0
N1160 N 0.95054 0.28079 0.83378 0.0
N1161 N 0.98624 0.18815 0.85792 0.0
C1162 C 0.95898 0.25721 0.83636 0.0
C1163 C 0.97759 0.20989 0.84859 0.0
N1164 N 0.91331 0.23352 0.83303 0.0
N1165 N 1.02291 0.23097 0.84237 0.0
H1166 H 0.97309 0.17153 0.86241 0.0
H1167 H 1.00627 0.18722 0.86306 0.0
H1168 H 0.03737 0.24722 0.83953 0.0
H1169 H 0.03068 0.21365 0.84349 0.0
H1170 H 0.90542 0.24902 0.82515 0.0
H1171 H 0.89884 0.21691 0.83453 0.0
H1172 H 0.93097 0.28353 0.83593 0.0
H1173 H 0.96354 0.29818 0.83129 0.0
C1174 C 0.85442 0.94452 0.82924 0.0
C1175 C 0.85317 0.91778 0.82249 0.0
C1176 C 0.83281 0.92588 0.78188 0.0
C1177 C 0.83628 0.95308 0.78783 0.0
N1178 N 0.85409 0.98894 0.81602 0.0
N1179 N 0.84453 0.88342 0.79169 0.0
C1180 C 0.84793 0.96258 0.81127 0.0
C1181 C 0.84335 0.90859 0.79857 0.0
N1182 N 0.86139 0.95262 0.85296 0.0
N1183 N 0.81854 0.91646 0.76053 0.0
H1184 H 0.85188 0.87025 0.80355 0.0
H1185 H 0.84034 0.87619 0.77382 0.0
H1186 H 0.81001 0.92844 0.74819 0.0
H1187 H 0.81297 0.89662 0.75606 0.0
H1188 H 0.85955 0.97102 0.8597 0.0
H1189 H 0.86738 0.94029 0.8664 0.0
H1190 H 0.86552 0.9972 0.83164 0.0
H1191 H 0.8495 1.00278 0.80353 0.0
C1192 C 0.20359 0.09301 0.21453 0.0
C1193 C 0.22108 0.11746 0.21473 0.0
C1194 C 0.25863 0.09684 0.23114 0.0
C1195 C 0.24083 0.0728 0.23304 0.0
N1196 N 0.1956 0.04854 0.22884 0.0
N1197 N 0.26335 0.14394 0.22897 0.0
C1198 C 0.213 0.07114 0.22565 0.0
C1199 C 0.24802 0.11972 0.22483 0.0
N1200 N 0.1785 0.09032 0.20262 0.0
N1201 N 0.28577 0.09794 0.23482 0.0
H1202 H 0.256 0.1612 0.22512 0.0
H1203 H 0.28225 0.147 0.23855 0.0
H1204 H 0.29464 0.08197 0.23991 0.0
H1205 H 0.29961 0.11425 0.23091 0.0
H1206 H 0.1659 0.07238 0.19934 0.0
H1207 H 0.17091 0.10586 0.19442 0.0
H1208 H 0.1748 0.04711 0.22662 0.0
H1209 H 0.20189 0.03144 0.23498 0.0
C1210 C 0.28925 0.94295 0.86492 0.0
C1211 C 0.26724 0.94395 0.87909 0.0
C1212 C 0.28314 0.99071 0.88815 0.0
C1213 C 0.3048 0.98977 0.87375 0.0
N1214 N 0.33134 0.96541 0.85127 0.0
N1215 N 0.24509 0.96715 0.90729 0.0
C1216 C 0.3088 0.96588 0.86314 0.0
C1217 C 0.26487 0.96734 0.89182 0.0
N1218 N 0.29087 0.92028 0.8526 0.0
N1219 N 0.27954 0.01435 0.89734 0.0
H1220 H 0.23082 0.95063 0.90975 0.0
H1221 H 0.24365 0.98277 0.91886 0.0
H1222 H 0.29324 0.03148 0.89549 0.0
H1223 H 0.26266 0.01737 0.90577 0.0
H1224 H 0.30461 0.91873 0.83987 0.0
H1225 H 0.27759 0.90287 0.85441 0.0
H1226 H 0.33697 0.94849 0.84458 0.0
H1227 H 0.34552 0.98215 0.84933 0.0
C1228 C 0.14118 0.2482 0.882 0.0
C1229 C 0.16573 0.256 0.87135 0.0
C1230 C 0.1507 0.29622 0.85721 0.0
C1231 C 0.12593 0.28821 0.86737 0.0
N1232 N 0.09873 0.25958 0.89262 0.0
N1233 N 0.1966 0.28948 0.85378 0.0
C1234 C 0.12165 0.26512 0.88092 0.0
C1235 C 0.1714 0.28078 0.86063 0.0
N1236 N 0.1363 0.22425 0.89238 0.0
N1237 N 0.15377 0.31786 0.84318 0.0
H1238 H 0.21207 0.27851 0.85607 0.0
H1239 H 0.20287 0.30827 0.84775 0.0
H1240 H 0.13905 0.32962 0.84056 0.0
H1241 H 0.17002 0.32329 0.83288 0.0
H1242 H 0.11788 0.21601 0.89832 0.0
H1243 H 0.15069 0.21203 0.89433 0.0
H1244 H 0.09476 0.24414 0.90436 0.0
H1245 H 0.08425 0.27175 0.89176 0.0
C1246 C 0.88117 0.12783 0.7902 0.0
C1247 C 0.90112 0.12561 0.80933 0.0
C1248 C 0.91023 0.08544 0.79011 0.0
C1249 C 0.88835 0.08615 0.77265 0.0
N1250 N 0.85191 0.10659 0.75605 0.0
N1251 N 0.93464 0.1027 0.82831 0.0
C1252 C 0.87371 0.10715 0.77252 0.0
C1253 C 0.91589 0.10463 0.80939 0.0
N1254 N 0.86966 0.14986 0.78884 0.0
N1255 N 0.92534 0.06618 0.78808 0.0
H1256 H 0.93968 0.11676 0.84239 0.0
H1257 H 0.9444 0.0867 0.83083 0.0
H1258 H 0.92107 0.05185 0.77419 0.0
H1259 H 0.94294 0.06527 0.79892 0.0
H1260 H 0.857 0.15395 0.77407 0.0
H1261 H 0.87426 0.16516 0.80178 0.0
H1262 H 0.83821 0.11939 0.75672 0.0
H1263 H 0.84669 0.09229 0.74221 0.0
C1264 C 0.94026 0.8234 0.82772 0.0
C1265 C 0.94167 0.84206 0.84707 0.0
C1266 C 0.99101 0.84997 0.84816 0.0
C1267 C 0.98958 0.82914 0.83102 0.0
N1268 N 0.9637 0.7952 0.80479 0.0
N1269 N 0.968 0.87304 0.87625 0.0
C1270 C 0.96438 0.81583 0.82064 0.0
C1271 C 0.96699 0.85557 0.85726 0.0
N1272 N 0.91579 0.81299 0.81622 0.0
N1273 N 1.01549 0.86452 0.85542 0.0
H1274 H 0.95083 0.87854 0.88254 0.0
H1275 H 0.98563 0.88129 0.88649 0.0
H1276 H 0.03327 0.86049 0.84912 0.0
H1277 H 1.01813 0.88156 0.86616 0.0
H1278 H 0.91325 0.80098 0.80064 0.0
H1279 H 0.89787 0.81802 0.82124 0.0
H1280 H 0.94619 0.78284 0.79815 0.0
H1281 H 0.98109 0.78948 0.79923 0.0
C1282 C 0.81377 0.93331 0.21474 0.0
C1283 C 0.82182 0.9172 0.23364 0.0
C1284 C 0.82081 0.95204 0.26394 0.0
C1285 C 0.81087 0.96754 0.24535 0.0
N1286 N 0.79513 0.97229 0.20354 0.0
N1287 N 0.82846 0.90915 0.27654 0.0
C1288 C 0.80654 0.95795 0.22085 0.0
C1289 C 0.8239 0.92594 0.25832 0.0
N1290 N 0.81366 0.92529 0.191 0.0
N1291 N 0.82878 0.96273 0.28674 0.0
H1292 H 0.83156 0.89007 0.27326 0.0
H1293 H 0.82706 0.91339 0.29487 0.0
H1294 H 0.82693 0.98172 0.2918 0.0
H1295 H 0.83942 0.95359 0.30008 0.0
H1296 H 0.81066 0.93707 0.17622 0.0
H1297 H 0.81833 0.9072 0.18605 0.0
H1298 H 0.78905 0.96555 0.18576 0.0
H1299 H 0.7899 0.9904 0.20753 0.0
C1300 C 0.1279 0.77897 0.20839 0.0
C1301 C 0.14679 0.80122 0.21739 0.0
C1302 C 0.11338 0.81214 0.24324 0.0
C1303 C 0.09839 0.7866 0.23981 0.0
N1304 N 0.09283 0.74433 0.21888 0.0
N1305 N 0.15847 0.83518 0.24913 0.0
C1306 C 0.10572 0.76958 0.22205 0.0
C1307 C 0.13976 0.81705 0.23624 0.0
N1308 N 0.13072 0.76719 0.18669 0.0
N1309 N 0.10266 0.83157 0.25364 0.0
H1310 H 0.17892 0.83701 0.24726 0.0
H1311 H 0.15393 0.84571 0.26406 0.0
H1312 H 0.08263 0.82885 0.2576 0.0
H1313 H 0.11269 0.85088 0.25529 0.0
H1314 H 0.11634 0.75215 0.17856 0.0
H1315 H 0.14579 0.77451 0.17559 0.0
H1316 H 0.09968 0.73071 0.20796 0.0
H1317 H 0.07657 0.73642 0.2283 0.0
C1318 C 0.94045 0.24477 0.23613 0.0
C1319 C 0.94707 0.22709 0.21874 0.0
C1320 C 0.99365 0.23434 0.23662 0.0
C1321 C 0.98544 0.24721 0.25677 0.0
N1322 N 0.95248 0.26726 0.27548 0.0
N1323 N 0.97997 0.20637 0.20052 0.0
C1324 C 0.95939 0.25376 0.25618 0.0
C1325 C 0.97391 0.22282 0.21802 0.0
N1326 N 0.91582 0.25227 0.23358 0.0
N1327 N 1.02018 0.23269 0.23577 0.0
H1328 H 0.96608 0.19843 0.18622 0.0
H1329 H 0.99831 0.19987 0.2005 0.0
H1330 H 0.03479 0.24098 0.24938 0.0
H1331 H 0.02805 0.22516 0.22087 0.0
H1332 H 0.9101 0.26643 0.24464 0.0
H1333 H 0.90178 0.24574 0.21893 0.0
H1334 H 0.933 0.27016 0.27774 0.0
H1335 H 0.96646 0.27501 0.28978 0.0
C1336 C 0.26483 0.74426 0.62486 0.0
C1337 C 0.25094 0.71802 0.62354 0.0
C1338 C 0.25855 0.71505 0.58012 0.0
C1339 C 0.27363 0.74077 0.58177 0.0
N1340 N 0.28425 0.78238 0.60304 0.0
N1341 N 0.22836 0.68102 0.59876 0.0
C1342 C 0.27435 0.75626 0.60329 0.0
C1343 C 0.24573 0.70429 0.6007 0.0
N1344 N 0.27014 0.75721 0.64694 0.0
N1345 N 0.25736 0.70063 0.55899 0.0
H1346 H 0.21868 0.6727 0.61348 0.0
H1347 H 0.22174 0.67101 0.5823 0.0
H1348 H 0.26492 0.70865 0.54317 0.0
H1349 H 0.2498 0.68071 0.55728 0.0
H1350 H 0.28277 0.77519 0.64972 0.0
H1351 H 0.26312 0.74921 0.66293 0.0
H1352 H 0.28366 0.79535 0.61748 0.0
H1353 H 0.29052 0.7915 0.58727 0.0
C1354 C 0.8497 0.73081 0.6235 0.0
C1355 C 0.87237 0.72032 0.61726 0.0
C1356 C 0.85797 0.7214 0.57397 0.0
C1357 C 0.83487 0.73153 0.58003 0.0
N1358 N 0.81214 0.75204 0.60968 0.0
N1359 N 0.90249 0.71301 0.58743 0.0
C1360 C 0.83186 0.73827 0.60459 0.0
C1361 C 0.87803 0.71828 0.59273 0.0
N1362 N 0.84477 0.73273 0.64742 0.0
N1363 N 0.85979 0.71272 0.55073 0.0
H1364 H 0.91745 0.71055 0.60098 0.0
H1365 H 0.90884 0.71369 0.56991 0.0
H1366 H 0.8452 0.71368 0.53651 0.0
H1367 H 0.87463 0.70244 0.54594 0.0
H1368 H 0.82697 0.73723 0.65313 0.0
H1369 H 0.85823 0.72863 0.66166 0.0
H1370 H 0.81022 0.75952 0.62695 0.0
H1371 H 0.79906 0.75805 0.59611 0.0
C1372 C 0.84907 0.31915 0.65901 0.0
C1373 C 0.87258 0.33852 0.66007 0.0
C1374 C 0.88602 0.31837 0.62321 0.0
C1375 C 0.8615 0.30039 0.6212 0.0
N1376 N 0.8168 0.28822 0.63399 0.0
N1377 N 0.91138 0.35924 0.64085 0.0
C1378 C 0.84212 0.30222 0.63808 0.0
C1379 C 0.89055 0.33885 0.6415 0.0
N1380 N 0.83398 0.31594 0.67855 0.0
N1381 N 0.90494 0.3158 0.6075 0.0
H1382 H 0.91498 0.37468 0.65365 0.0
H1383 H 0.92371 0.36203 0.62658 0.0
H1384 H 0.90146 0.302 0.59314 0.0
H1385 H 0.92444 0.32625 0.60946 0.0
H1386 H 0.8184 0.30027 0.67987 0.0
H1387 H 0.83868 0.3273 0.69456 0.0
H1388 H 0.80112 0.29081 0.64436 0.0
H1389 H 0.81061 0.27599 0.61878 0.0
C1390 C 0.19844 0.30705 0.64243 0.0
C1391 C 0.21966 0.30738 0.66087 0.0
C1392 C 0.2366 0.27319 0.63893 0.0
C1393 C 0.21847 0.27636 0.61871 0.0
N1394 N 0.18164 0.29503 0.60052 0.0
N1395 N 0.25754 0.2897 0.67866 0.0
C1396 C 0.19876 0.29247 0.62047 0.0
C1397 C 0.23806 0.28971 0.65994 0.0
N1398 N 0.17836 0.32094 0.64592 0.0
N1399 N 0.25266 0.25463 0.63751 0.0
H1400 H 0.25818 0.30081 0.69469 0.0
H1401 H 0.27337 0.27932 0.67824 0.0
H1402 H 0.25164 0.24248 0.62209 0.0
H1403 H 0.2655 0.24996 0.65187 0.0
H1404 H 0.16117 0.32007 0.63401 0.0
H1405 H 0.17791 0.3318 0.66192 0.0
H1406 H 0.16862 0.30858 0.59947 0.0
H1407 H 0.18134 0.28416 0.58442 0.0
C1408 C 0.24555 0.32843 0.44287 0.0
C1409 C 0.25033 0.35608 0.44533 0.0
C1410 C 0.27271 0.35354 0.48632 0.0
C1411 C 0.26682 0.32583 0.48432 0.0
N1412 N 0.24312 0.28681 0.46283 0.0
N1413 N 0.26413 0.39512 0.4705 0.0
C1414 C 0.25174 0.31324 0.46327 0.0
C1415 C 0.26259 0.36869 0.46743 0.0
N1416 N 0.23602 0.31668 0.42078 0.0
N1417 N 0.28835 0.36536 0.50611 0.0
H1418 H 0.25721 0.40683 0.45696 0.0
H1419 H 0.27027 0.40521 0.487 0.0
H1420 H 0.29496 0.35497 0.52084 0.0
H1421 H 0.29609 0.38527 0.50739 0.0
H1422 H 0.23498 0.29681 0.417 0.0
H1423 H 0.23107 0.32716 0.40553 0.0
H1424 H 0.22976 0.27687 0.44911 0.0
H1425 H 0.24744 0.27497 0.47723 0.0
C1426 C 0.28755 0.69706 0.41572 0.0
C1427 C 0.26437 0.67751 0.4163 0.0
C1428 C 0.26911 0.6801 0.46114 0.0
C1429 C 0.29351 0.69782 0.46048 0.0
N1430 N 0.32748 0.7219 0.43785 0.0
N1431 N 0.23398 0.64866 0.43925 0.0
C1432 C 0.30312 0.70599 0.43791 0.0
C1433 C 0.25527 0.66866 0.43897 0.0
N1434 N 0.29432 0.70737 0.39393 0.0
N1435 N 0.2591 0.67458 0.4831 0.0
H1436 H 0.22286 0.64041 0.42344 0.0
H1437 H 0.22815 0.63923 0.45498 0.0
H1438 H 0.2694 0.68203 0.49956 0.0
H1439 H 0.24005 0.66405 0.48502 0.0
H1440 H 0.30941 0.72336 0.39226 0.0
H1441 H 0.28333 0.70117 0.37742 0.0
H1442 H 0.33718 0.7267 0.4222 0.0
H1443 H 0.33885 0.72926 0.45384 0.0
C1444 C 0.83914 0.70392 0.44264 0.0
C1445 C 0.84204 0.68157 0.42876 0.0
C1446 C 0.81029 0.65421 0.45267 0.0
C1447 C 0.80938 0.67607 0.46807 0.0
N1448 N 0.82965 0.71995 0.48171 0.0
N1449 N 0.83622 0.63457 0.42481 0.0
C1450 C 0.82561 0.70053 0.46417 0.0
C1451 C 0.82934 0.65638 0.43497 0.0
N1452 N 0.84931 0.72843 0.43539 0.0
N1453 N 0.79246 0.63163 0.45452 0.0
H1454 H 0.85155 0.63557 0.41319 0.0
H1455 H 0.82902 0.61568 0.43017 0.0
H1456 H 0.77773 0.62977 0.46683 0.0
H1457 H 0.79065 0.61582 0.44228 0.0
H1458 H 0.84516 0.7454 0.44349 0.0
H1459 H 0.86005 0.73178 0.42005 0.0
H1460 H 0.84332 0.73722 0.48069 0.0
H1461 H 0.8219 0.71759 0.49858 0.0
C1462 C 0.829 0.29368 0.45077 0.0
C1463 C 0.85427 0.31058 0.45229 0.0
C1464 C 0.85713 0.30821 0.49697 0.0
C1465 C 0.83228 0.2906 0.4954 0.0
N1466 N 0.79101 0.27303 0.47175 0.0
N1467 N 0.88962 0.33854 0.47669 0.0
C1468 C 0.81701 0.28549 0.47257 0.0
C1469 C 0.86745 0.31933 0.4754 0.0
N1470 N 0.81698 0.28457 0.42847 0.0
N1471 N 0.87115 0.31372 0.51924 0.0
H1472 H 0.89801 0.34669 0.46129 0.0
H1473 H 0.89871 0.34775 0.49287 0.0
H1474 H 0.86305 0.30774 0.53547 0.0
H1475 H 0.89091 0.32347 0.52169 0.0
H1476 H 0.80021 0.26986 0.42611 0.0
H1477 H 0.82496 0.29036 0.41215 0.0
H1478 H 0.77797 0.27073 0.45596 0.0
H1479 H 0.78155 0.2675 0.48739 0.0
C1480 C 0.13702 0.73334 0.70013 0.0
C1481 C 0.1632 0.73014 0.70937 0.0
C1482 C 0.15784 0.75362 0.74723 0.0
C1483 C 0.13056 0.75368 0.73925 0.0
N1484 N 0.09328 0.74258 0.70908 0.0
N1485 N 0.19899 0.73679 0.74153 0.0
C1486 C 0.11998 0.74353 0.7158 0.0
C1487 C 0.17388 0.74044 0.7328 0.0
N1488 N 0.12855 0.72667 0.67633 0.0
N1489 N 0.16828 0.76649 0.76856 0.0
H1490 H 0.21157 0.72826 0.73098 0.0
H1491 H 0.20697 0.74116 0.7594 0.0
H1492 H 0.15672 0.77603 0.77937 0.0
H1493 H 0.18855 0.76938 0.77469 0.0
H1494 H 0.11062 0.73053 0.66773 0.0
H1495 H 0.14066 0.71919 0.66451 0.0
H1496 H 0.0834 0.73307 0.69331 0.0
H1497 H 0.08048 0.74993 0.72025 0.0
C1498 C 0.93482 0.66357 0.7532 0.0
C1499 C 0.9136 0.67196 0.7385 0.0
C1500 C 0.88138 0.6387 0.75629 0.0
C1501 C 0.90198 0.63266 0.77322 0.0
N1502 N 0.94738 0.64436 0.79137 0.0
N1503 N 0.86594 0.67264 0.73227 0.0
C1504 C 0.92846 0.64672 0.77282 0.0
C1505 C 0.88661 0.66125 0.74213 0.0
N1506 N 0.96084 0.67028 0.74777 0.0
N1507 N 0.85751 0.62201 0.75219 0.0
H1508 H 0.86902 0.68994 0.72267 0.0
H1509 H 0.84608 0.66648 0.73609 0.0
H1510 H 0.85394 0.60361 0.75979 0.0
H1511 H 0.84277 0.62496 0.73865 0.0
H1512 H 0.97659 0.6626 0.75674 0.0
H1513 H 0.96637 0.6812 0.7327 0.0
H1514 H 0.96642 0.65586 0.79297 0.0
H1515 H 0.94299 0.63298 0.80645 0.0
C1516 C 0.94496 0.39227 0.7487 0.0
C1517 C 0.92644 0.37022 0.73877 0.0
C1518 C 0.95603 0.34163 0.75715 0.0
C1519 C 0.97257 0.36334 0.76975 0.0
N1520 N 0.97715 0.40861 0.78258 0.0
N1521 N 0.91065 0.32376 0.74168 0.0
C1522 C 0.96522 0.38847 0.76716 0.0
C1523 C 0.93072 0.34484 0.7457 0.0
N1524 N 0.94452 0.4166 0.73969 0.0
N1525 N 0.96504 0.31855 0.75417 0.0
H1526 H 0.89127 0.32551 0.73472 0.0
H1527 H 0.91259 0.30524 0.74799 0.0
H1528 H 0.98479 0.31629 0.75905 0.0
H1529 H 0.95399 0.30295 0.74362 0.0
H1530 H 0.95916 0.43269 0.74517 0.0
H1531 H 0.9316 0.42013 0.72487 0.0
H1532 H 0.97101 0.42682 0.78251 0.0
H1533 H 0.99085 0.40608 0.79718 0.0
C1534 C 0.24161 0.4293 0.7639 0.0
C1535 C 0.22159 0.42549 0.74403 0.0
C1536 C 0.23127 0.47195 0.73468 0.0
C1537 C 0.25279 0.47531 0.75321 0.0
N1538 N 0.2744 0.45968 0.78942 0.0
N1539 N 0.1925 0.44334 0.71449 0.0
C1540 C 0.25641 0.45482 0.76932 0.0
C1541 C 0.21469 0.44701 0.73084 0.0
N1542 N 0.24733 0.40819 0.77667 0.0
N1543 N 0.22758 0.49246 0.72018 0.0
H1544 H 0.18024 0.42515 0.71126 0.0
H1545 H 0.185 0.45841 0.70546 0.0
H1546 H 0.23848 0.51127 0.7236 0.0
H1547 H 0.21439 0.49091 0.70453 0.0
H1548 H 0.26379 0.40875 0.78938 0.0
H1549 H 0.23595 0.38951 0.77386 0.0
H1550 H 0.27663 0.44623 0.80294 0.0
H1551 H 0.28581 0.47803 0.7937 0.0
C1552 C 0.15569 0.31845 0.35491 0.0
C1553 C 0.1537 0.34288 0.36586 0.0
C1554 C 0.10479 0.33041 0.36508 0.0
C1555 C 0.10681 0.30588 0.35437 0.0
N1556 N 0.13381 0.27452 0.34235 0.0
N1557 N 0.12792 0.37081 0.38535 0.0
C1558 C 0.13221 0.29922 0.35044 0.0
C1559 C 0.12866 0.34843 0.37222 0.0
N1560 N 0.17985 0.31416 0.34776 0.0
N1561 N 0.08001 0.33658 0.36798 0.0
H1562 H 0.14514 0.38433 0.39076 0.0
H1563 H 0.11078 0.37511 0.39256 0.0
H1564 H 0.06219 0.32342 0.3639 0.0
H1565 H 0.07686 0.3551 0.37318 0.0
H1566 H 0.18216 0.29823 0.33695 0.0
H1567 H 0.19768 0.32739 0.35151 0.0
H1568 H 0.15178 0.26742 0.34179 0.0
H1569 H 0.11699 0.26034 0.33749 0.0
C1570 C 0.24935 0.58703 0.33517 0.0
C1571 C 0.26313 0.60372 0.35444 0.0
C1572 C 0.30372 0.58486 0.34876 0.0
C1573 C 0.29175 0.5733 0.32615 0.0
N1574 N 0.25231 0.5642 0.29733 0.0
N1575 N 0.29381 0.59744 0.38876 0.0
C1576 C 0.26419 0.57425 0.31937 0.0
C1577 C 0.28799 0.59719 0.36416 0.0
N1578 N 0.22205 0.58052 0.33405 0.0
N1579 N 0.32994 0.5838 0.35589 0.0
H1580 H 0.27934 0.59975 0.40068 0.0
H1581 H 0.31063 0.59088 0.39701 0.0
H1582 H 0.34177 0.57382 0.34579 0.0
H1583 H 0.34015 0.59422 0.37113 0.0
H1584 H 0.21103 0.56644 0.32183 0.0
H1585 H 0.21107 0.58657 0.34764 0.0
H1586 H 0.23317 0.56702 0.29069 0.0
H1587 H 0.26225 0.5551 0.28476 0.0
C1588 C 0.92235 0.69137 0.29932 0.0
C1589 C 0.92547 0.67634 0.32038 0.0
C1590 C 0.9744 0.68695 0.3207 0.0
C1591 C 0.97125 0.70379 0.30101 0.0
N1592 N 0.94377 0.71612 0.26695 0.0
N1593 N 0.95338 0.6537 0.34698 0.0
C1594 C 0.94565 0.70384 0.28864 0.0
C1595 C 0.95124 0.67199 0.32961 0.0
N1596 N 0.89723 0.69477 0.2904 0.0
N1597 N 0.99958 0.68626 0.33143 0.0
H1598 H 0.93663 0.64258 0.35381 0.0
H1599 H 0.9714 0.64802 0.35326 0.0
H1600 H 1.0169 0.69582 0.32423 0.0
H1601 H 1.00339 0.67696 0.34764 0.0
H1602 H 0.89357 0.70783 0.27687 0.0
H1603 H 0.87979 0.68519 0.29736 0.0
H1604 H 0.92591 0.71553 0.25602 0.0
H1605 H 0.96069 0.72489 0.25873 0.0
C1606 C 0.88313 0.43215 0.35149 0.0
C1607 C 0.87398 0.40513 0.34611 0.0
C1608 C 0.86271 0.41464 0.30336 0.0
C1609 C 0.87094 0.44171 0.3089 0.0
N1610 N 0.8933 0.47628 0.33621 0.0
N1611 N 0.86081 0.36982 0.31662 0.0
C1612 C 0.88267 0.45042 0.3324 0.0
C1613 C 0.86572 0.39611 0.32185 0.0
N1614 N 0.89131 0.44033 0.37502 0.0
N1615 N 0.85081 0.40692 0.2807 0.0
H1616 H 0.86294 0.35599 0.32992 0.0
H1617 H 0.85679 0.36176 0.29904 0.0
H1618 H 0.84893 0.42009 0.26678 0.0
H1619 H 0.8416 0.38785 0.27597 0.0
H1620 H 0.89552 0.45984 0.38087 0.0
H1621 H 0.8931 0.42732 0.38911 0.0
H1622 H 0.90405 0.48409 0.35228 0.0
H1623 H 0.89289 0.48984 0.32241 0.0
C1624 C 0.2863 0.65454 0.70352 0.0
C1625 C 0.2659 0.6487 0.68399 0.0
C1626 C 0.27268 0.60275 0.68338 0.0
C1627 C 0.29171 0.60826 0.70386 0.0
N1628 N 0.31575 0.63824 0.73472 0.0
N1629 N 0.23808 0.61722 0.65619 0.0
C1630 C 0.2983 0.63391 0.71425 0.0
C1631 C 0.25873 0.62277 0.67407 0.0
N1632 N 0.29446 0.67994 0.71145 0.0
N1633 N 0.26838 0.57832 0.6727 0.0
H1634 H 0.22811 0.63151 0.64837 0.0
H1635 H 0.22981 0.59839 0.64984 0.0
H1636 H 0.27778 0.56325 0.67971 0.0
H1637 H 0.25685 0.57326 0.6563 0.0
H1638 H 0.31084 0.68612 0.72402 0.0
H1639 H 0.28581 0.69538 0.70426 0.0
H1640 H 0.31959 0.65564 0.74498 0.0
H1641 H 0.32547 0.62367 0.7423 0.0
C1642 C 0.21974 0.40815 0.30629 0.0
C1643 C 0.20669 0.41694 0.32583 0.0
C1644 C 0.20295 0.45764 0.3047 0.0
C1645 C 0.2195 0.45058 0.28716 0.0
N1646 N 0.24486 0.4197 0.2714 0.0
N1647 N 0.18515 0.44948 0.34404 0.0
C1648 C 0.22778 0.42575 0.28768 0.0
C1649 C 0.19776 0.44144 0.32502 0.0
N1650 N 0.22442 0.38295 0.30553 0.0
N1651 N 0.19259 0.48017 0.30176 0.0
H1652 H 0.18041 0.43772 0.35882 0.0
H1653 H 0.18042 0.46812 0.34587 0.0
H1654 H 0.19637 0.49207 0.28687 0.0
H1655 H 0.1788 0.48604 0.31273 0.0
H1656 H 0.2311 0.37445 0.29048 0.0
H1657 H 0.21964 0.36974 0.31925 0.0
H1658 H 0.25472 0.40365 0.27288 0.0
H1659 H 0.25048 0.43154 0.257 0.0
C1660 C 0.16324 0.72415 0.33962 0.0
C1661 C 0.15808 0.69821 0.3481 0.0
C1662 C 0.11011 0.70138 0.34885 0.0
C1663 C 0.11487 0.72617 0.33803 0.0
N1664 N 0.14509 0.76077 0.32148 0.0
N1665 N 0.12676 0.66146 0.36027 0.0
C1666 C 0.14129 0.73754 0.33315 0.0
C1667 C 0.13155 0.68672 0.35279 0.0
N1668 N 0.18922 0.73599 0.33797 0.0
N1669 N 0.08499 0.69212 0.35556 0.0
H1670 H 0.14211 0.65068 0.36437 0.0
H1671 H 0.10766 0.65074 0.36147 0.0
H1672 H 0.06902 0.70234 0.35238 0.0
H1673 H 0.08025 0.67536 0.36555 0.0
H1674 H 0.19478 0.75559 0.33395 0.0
H1675 H 0.20555 0.72661 0.34256 0.0
H1676 H 0.16319 0.76911 0.31499 0.0
H1677 H 0.12942 0.77101 0.31688 0.0
C1678 C 0.82371 0.60739 0.32271 0.0
C1679 C 0.84671 0.61034 0.33964 0.0
C1680 C 0.84394 0.56288 0.34082 0.0
C1681 C 0.82511 0.5605 0.32024 0.0
N1682 N 0.79202 0.57824 0.2949 0.0
N1683 N 0.87669 0.59164 0.36784 0.0
C1684 C 0.81289 0.58204 0.31262 0.0
C1685 C 0.85579 0.58821 0.3501 0.0
N1686 N 0.81291 0.62896 0.31603 0.0
N1687 N 0.85082 0.54068 0.35074 0.0
H1688 H 0.88515 0.60997 0.37549 0.0
H1689 H 0.88613 0.57664 0.3747 0.0
H1690 H 0.84189 0.52211 0.34384 0.0
H1691 H 0.86348 0.54036 0.36653 0.0
H1692 H 0.79564 0.62851 0.30436 0.0
H1693 H 0.82071 0.64763 0.32324 0.0
H1694 H 0.78335 0.59309 0.28672 0.0
H1695 H 0.78278 0.55963 0.28862 0.0
C1696 C 0.91389 0.28706 0.36975 0.0
C1697 C 0.92035 0.30601 0.38917 0.0
C1698 C 0.96802 0.3015 0.38973 0.0
C1699 C 0.96123 0.28131 0.37162 0.0
N1700 N 0.92824 0.2532 0.3454 0.0
N1701 N 0.95299 0.33016 0.41901 0.0
C1702 C 0.93427 0.27374 0.36182 0.0
C1703 C 0.94731 0.31294 0.39953 0.0
N1704 N 0.88828 0.28202 0.3588 0.0
N1705 N 0.9945 0.31012 0.39698 0.0
H1706 H 0.93863 0.33976 0.42598 0.0
H1707 H 0.97151 0.33396 0.42919 0.0
H1708 H 1.0099 0.30188 0.39017 0.0
H1709 H 1.00144 0.32646 0.40833 0.0
H1710 H 0.88265 0.27052 0.34302 0.0
H1711 H 0.87267 0.29062 0.36472 0.0
H1712 H 0.90879 0.24468 0.33906 0.0
H1713 H 0.94293 0.24355 0.33908 0.0
C1714 C 0.86028 0.47723 0.73848 0.0
C1715 C 0.84579 0.45191 0.74231 0.0
C1716 C 0.82599 0.46938 0.77704 0.0
C1717 C 0.83993 0.49485 0.77283 0.0
N1718 N 0.86698 0.52406 0.74761 0.0
N1719 N 0.81186 0.42426 0.76262 0.0
C1720 C 0.85595 0.49907 0.75283 0.0
C1721 C 0.82772 0.44812 0.76082 0.0
N1722 N 0.87881 0.48019 0.72159 0.0
N1723 N 0.81165 0.46545 0.79701 0.0
H1724 H 0.81325 0.40808 0.75165 0.0
H1725 H 0.7962 0.42079 0.77387 0.0
H1726 H 0.80858 0.48077 0.8083 0.0
H1727 H 0.80376 0.44707 0.80307 0.0
H1728 H 0.89211 0.49744 0.71946 0.0
H1729 H 0.88225 0.46471 0.71067 0.0
H1730 H 0.8769 0.52902 0.7321 0.0
H1731 H 0.86432 0.54032 0.75789 0.0
C1732 C 0.12845 0.34778 0.73215 0.0
C1733 C 0.15402 0.34298 0.74153 0.0
C1734 C 0.13305 0.31464 0.77218 0.0
C1735 C 0.1087 0.32381 0.76602 0.0
N1736 N 0.08188 0.34771 0.73966 0.0
N1737 N 0.18128 0.32159 0.77016 0.0
C1738 C 0.1058 0.3395 0.74545 0.0
C1739 C 0.15647 0.32584 0.76115 0.0
N1740 N 0.12605 0.36045 0.71069 0.0
N1741 N 0.13359 0.29546 0.78887 0.0
H1742 H 0.19888 0.32914 0.7623 0.0
H1743 H 0.18469 0.31183 0.7862 0.0
H1744 H 0.1164 0.28703 0.79695 0.0
H1745 H 0.15012 0.28631 0.79301 0.0
H1746 H 0.10772 0.36276 0.70177 0.0
H1747 H 0.14245 0.36678 0.70072 0.0
H1748 H 0.07922 0.36179 0.72682 0.0
H1749 H 0.06471 0.34097 0.7485 0.0
C1750 C 0.95693 0.77664 0.71966 0.0
C1751 C 0.96188 0.7549 0.70596 0.0
C1752 C 1.00992 0.77302 0.70897 0.0
C1753 C 1.00551 0.79078 0.72716 0.0
N1754 N 0.97565 0.81325 0.74742 0.0
N1755 N 0.99284 0.7326 0.68619 0.0
C1756 C 0.97912 0.79416 0.73129 0.0
C1757 C 0.98824 0.75354 0.69955 0.0
N1758 N 0.93105 0.77999 0.72181 0.0
N1759 N 0.03516 0.77435 0.7016 0.0
H1760 H 0.97753 0.71798 0.67881 0.0
H1761 H 1.01194 0.72892 0.6834 0.0
H1762 H 0.05111 0.78854 0.70876 0.0
H1763 H 0.03972 0.76328 0.68711 0.0
H1764 H 0.9258 0.79612 0.73044 0.0
H1765 H 0.91466 0.76729 0.71325 0.0
H1766 H 0.95727 0.81535 0.75362 0.0
H1767 H 0.99182 0.82703 0.75478 0.0
C1768 C 0.76249 0.20384 0.6559 0.0
C1769 C 0.73785 0.18655 0.65098 0.0
C1770 C 0.73768 0.19808 0.6076 0.0
C1771 C 0.76444 0.21184 0.61192 0.0
N1772 N 0.80334 0.22582 0.6405 0.0
N1773 N 0.70217 0.16588 0.62198 0.0
C1774 C 0.77699 0.2144 0.63622 0.0
C1775 C 0.72524 0.18364 0.62682 0.0
N1776 N 0.77199 0.21033 0.67952 0.0
N1777 N 0.72439 0.1982 0.58501 0.0
H1778 H 0.69239 0.1552 0.63549 0.0
H1779 H 0.69362 0.16038 0.60446 0.0
H1780 H 0.7331 0.2076 0.57034 0.0
H1781 H 0.70404 0.19082 0.58127 0.0
H1782 H 0.78835 0.22499 0.6844 0.0
H1783 H 0.76187 0.20285 0.69432 0.0
H1784 H 0.81451 0.22519 0.65715 0.0
H1785 H 0.81477 0.23448 0.62702 0.0
C1786 C 0.38323 0.25942 0.6033 0.0
C1787 C 0.37083 0.25869 0.62548 0.0
C1788 C 0.33864 0.28507 0.60779 0.0
C1789 C 0.34683 0.28014 0.58439 0.0
N1790 N 0.38459 0.27564 0.56208 0.0
N1791 N 0.33832 0.27251 0.65007 0.0
C1792 C 0.37169 0.27138 0.58282 0.0
C1793 C 0.34932 0.27249 0.62824 0.0
N1794 N 0.40513 0.24752 0.60158 0.0
N1795 N 0.32199 0.30283 0.6106 0.0
H1796 H 0.34654 0.26457 0.66566 0.0
H1797 H 0.32044 0.27925 0.65241 0.0
H1798 H 0.31691 0.31477 0.59648 0.0
H1799 H 0.31641 0.30838 0.6274 0.0
H1800 H 0.41339 0.24459 0.5853 0.0
H1801 H 0.41462 0.23971 0.61662 0.0
H1802 H 0.40358 0.27126 0.55996 0.0
H1803 H 0.37735 0.28641 0.5479 0.0
C1804 C 0.35631 0.84779 0.63616 0.0
C1805 C 0.38203 0.85914 0.64734 0.0
C1806 C 0.40236 0.83462 0.6175 0.0
C1807 C 0.377 0.82677 0.60422 0.0
N1808 N 0.3315 0.83528 0.59743 0.0
N1809 N 0.42975 0.86909 0.64263 0.0
C1810 C 0.35435 0.83602 0.6125 0.0
C1811 C 0.40519 0.85429 0.63623 0.0
N1812 N 0.33377 0.84706 0.64825 0.0
N1813 N 0.42356 0.82273 0.61301 0.0
H1814 H 0.4324 0.88514 0.65471 0.0
H1815 H 0.4467 0.86732 0.63364 0.0
H1816 H 0.42175 0.80687 0.60082 0.0
H1817 H 0.4419 0.8266 0.62358 0.0
H1818 H 0.31502 0.83723 0.64111 0.0
H1819 H 0.33433 0.85334 0.66636 0.0
H1820 H 0.31523 0.84346 0.60245 0.0
H1821 H 0.33028 0.82988 0.57903 0.0
C1822 C 0.67267 0.75544 0.61467 0.0
C1823 C 0.6626 0.77317 0.59847 0.0
C1824 C 0.66552 0.74462 0.56358 0.0
C1825 C 0.67742 0.72776 0.57952 0.0
N1826 N 0.68684 0.71306 0.61974 0.0
N1827 N 0.64173 0.78145 0.55923 0.0
C1828 C 0.67881 0.73177 0.60503 0.0
C1829 C 0.65623 0.76651 0.57347 0.0
N1830 N 0.67752 0.76192 0.63893 0.0
N1831 N 0.66511 0.7408 0.53897 0.0
H1832 H 0.63479 0.79763 0.56623 0.0
H1833 H 0.63453 0.77649 0.54124 0.0
H1834 H 0.67147 0.72475 0.53116 0.0
H1835 H 0.65994 0.75421 0.52631 0.0
H1836 H 0.68733 0.75122 0.65153 0.0
H1837 H 0.67221 0.77869 0.64643 0.0
H1838 H 0.68699 0.71361 0.63863 0.0
H1839 H 0.69154 0.69581 0.61259 0.0
C1840 C 0.72854 0.79104 0.45439 0.0
C1841 C 0.72591 0.81314 0.46879 0.0
C1842 C 0.72724 0.78747 0.50571 0.0
C1843 C 0.73308 0.76627 0.49172 0.0
N1844 N 0.74139 0.74811 0.45309 0.0
N1845 N 0.72475 0.8337 0.50809 0.0
C1846 C 0.73405 0.76801 0.46609 0.0
C1847 C 0.72572 0.81171 0.49443 0.0
N1848 N 0.7255 0.79201 0.42954 0.0
N1849 N 0.72202 0.78408 0.52952 0.0
H1850 H 0.72253 0.85157 0.5004 0.0
H1851 H 0.72784 0.8347 0.52702 0.0
H1852 H 0.72265 0.76652 0.53833 0.0
H1853 H 0.71465 0.79775 0.53992 0.0
H1854 H 0.72417 0.77575 0.41796 0.0
H1855 H 0.72221 0.80883 0.42043 0.0
H1856 H 0.74558 0.7494 0.43493 0.0
H1857 H 0.74517 0.73077 0.46089 0.0
C1858 C 0.74804 0.19386 0.43439 0.0
C1859 C 0.74466 0.16798 0.42435 0.0
C1860 C 0.77215 0.15636 0.46024 0.0
C1861 C 0.7713 0.18074 0.4719 0.0
N1862 N 0.74981 0.21897 0.47176 0.0
N1863 N 0.74849 0.12276 0.43184 0.0
C1864 C 0.75694 0.19859 0.45945 0.0
C1865 C 0.75542 0.14865 0.43836 0.0
N1866 N 0.74339 0.21415 0.42005 0.0
N1867 N 0.78926 0.14071 0.46978 0.0
H1868 H 0.73458 0.1159 0.41723 0.0
H1869 H 0.75412 0.10796 0.44269 0.0
H1870 H 0.80259 0.14632 0.48511 0.0
H1871 H 0.79221 0.12368 0.4609 0.0
H1872 H 0.74753 0.23355 0.42642 0.0
H1873 H 0.7385 0.21189 0.40129 0.0
H1874 H 0.73749 0.23119 0.4636 0.0
H1875 H 0.75312 0.22151 0.49061 0.0
C1876 C 0.28209 0.19548 0.42981 0.0
C1877 C 0.30797 0.20731 0.42403 0.0
C1878 C 0.32168 0.21762 0.46712 0.0
C1879 C 0.29473 0.20957 0.4723 0.0
N1880 N 0.24891 0.19145 0.4595 0.0
N1881 N 0.35312 0.22874 0.43639 0.0
C1882 C 0.27489 0.19819 0.45396 0.0
C1883 C 0.32816 0.21781 0.44252 0.0
N1884 N 0.26454 0.1817 0.4122 0.0
N1885 N 0.34082 0.22516 0.48594 0.0
H1886 H 0.35876 0.22816 0.41863 0.0
H1887 H 0.36797 0.23921 0.44857 0.0
H1888 H 0.33619 0.22505 0.50406 0.0
H1889 H 0.36131 0.22959 0.48399 0.0
H1890 H 0.24618 0.17069 0.41567 0.0
H1891 H 0.26939 0.17953 0.39432 0.0
H1892 H 0.23277 0.18576 0.44654 0.0
H1893 H 0.24328 0.19293 0.47718 0.0
C1894 C 0.38117 0.84162 0.44548 0.0
C1895 C 0.37254 0.8293 0.42227 0.0
C1896 C 0.33893 0.79781 0.44127 0.0
C1897 C 0.34931 0.80847 0.46462 0.0
N1898 N 0.37985 0.84045 0.48954 0.0
N1899 N 0.34445 0.79475 0.39795 0.0
C1900 C 0.37015 0.83056 0.46683 0.0
C1901 C 0.35169 0.80714 0.42015 0.0
N1902 N 0.39971 0.86414 0.44698 0.0
N1903 N 0.31637 0.77909 0.43941 0.0
H1904 H 0.35298 0.80133 0.38209 0.0
H1905 H 0.33143 0.77698 0.3954 0.0
H1906 H 0.3065 0.77246 0.45461 0.0
H1907 H 0.30609 0.77177 0.42298 0.0
H1908 H 0.40477 0.87589 0.46268 0.0
H1909 H 0.40944 0.87183 0.43206 0.0
H1910 H 0.39724 0.85421 0.49311 0.0
H1911 H 0.37052 0.83431 0.50513 0.0
C1912 C 0.66348 0.21878 0.74898 0.0
C1913 C 0.64949 0.20398 0.72862 0.0
C1914 C 0.60816 0.22027 0.73646 0.0
C1915 C 0.62204 0.23493 0.75687 0.0
N1916 N 0.66335 0.25243 0.78019 0.0
N1917 N 0.61065 0.1946 0.69973 0.0
C1918 C 0.64993 0.23552 0.76235 0.0
C1919 C 0.62248 0.20609 0.72128 0.0
N1920 N 0.68939 0.21613 0.75592 0.0
N1921 N 0.58104 0.21913 0.73234 0.0
H1922 H 0.62075 0.18417 0.68829 0.0
H1923 H 0.59179 0.19716 0.69217 0.0
H1924 H 0.57021 0.22939 0.74322 0.0
H1925 H 0.56898 0.20684 0.71927 0.0
H1926 H 0.69989 0.22403 0.77208 0.0
H1927 H 0.70015 0.20497 0.74583 0.0
H1928 H 0.68412 0.25582 0.78385 0.0
H1929 H 0.65366 0.26459 0.79031 0.0
C1930 C 0.42517 0.17151 0.75028 0.0
C1931 C 0.40373 0.18341 0.73978 0.0
C1932 C 0.37203 0.15035 0.75857 0.0
C1933 C 0.39357 0.1413 0.77218 0.0
N1934 N 0.44089 0.14879 0.78519 0.0
N1935 N 0.35711 0.18818 0.74073 0.0
C1936 C 0.42026 0.15363 0.76936 0.0
C1937 C 0.37724 0.17414 0.74608 0.0
N1938 N 0.4498 0.17595 0.74131 0.0
N1939 N 0.347 0.13552 0.7559 0.0
H1940 H 0.36038 0.20654 0.73297 0.0
H1941 H 0.33799 0.18286 0.7467 0.0
H1942 H 0.34296 0.11643 0.76191 0.0
H1943 H 0.33131 0.14085 0.7447 0.0
H1944 H 0.46524 0.16597 0.74731 0.0
H1945 H 0.45378 0.18707 0.72601 0.0
H1946 H 0.46046 0.1589 0.78492 0.0
H1947 H 0.43778 0.137 0.80023 0.0
C1948 C 0.44839 0.90029 0.74108 0.0
C1949 C 0.42761 0.87991 0.73141 0.0
C1950 C 0.45531 0.84772 0.74543 0.0
C1951 C 0.47496 0.86782 0.75712 0.0
N1952 N 0.48479 0.91236 0.77259 0.0
N1953 N 0.40805 0.8343 0.73323 0.0
C1954 C 0.46966 0.89384 0.75715 0.0
C1955 C 0.42991 0.85366 0.73685 0.0
N1956 N 0.44923 0.92545 0.7338 0.0
N1957 N 0.46137 0.82373 0.74017 0.0
H1958 H 0.38897 0.8382 0.7276 0.0
H1959 H 0.40854 0.8151 0.73842 0.0
H1960 H 0.48077 0.81952 0.74252 0.0
H1961 H 0.44789 0.80931 0.73014 0.0
H1962 H 0.46546 0.94022 0.73885 0.0
H1963 H 0.43539 0.93108 0.7208 0.0
H1964 H 0.48044 0.93119 0.77452 0.0
H1965 H 0.49957 0.90787 0.7854 0.0
C1966 C 0.71077 0.91968 0.66605 0.0
C1967 C 0.71485 0.89379 0.67099 0.0
C1968 C 0.76167 0.91017 0.68611 0.0
C1969 C 0.75707 0.93605 0.68255 0.0
N1970 N 0.72692 0.96622 0.67265 0.0
N1971 N 0.74285 0.86405 0.68793 0.0
C1972 C 0.73153 0.94103 0.67337 0.0
C1973 C 0.73997 0.88892 0.68168 0.0
N1974 N 0.68717 0.92378 0.65405 0.0
N1975 N 0.78709 0.90608 0.69318 0.0
H1976 H 0.72763 0.84793 0.68432 0.0
H1977 H 0.75962 0.85947 0.69803 0.0
H1978 H 0.8032 0.92144 0.69657 0.0
H1979 H 0.79272 0.88771 0.69406 0.0
H1980 H 0.68401 0.94182 0.64747 0.0
H1981 H 0.67115 0.90869 0.64925 0.0
H1982 H 0.70804 0.97128 0.66869 0.0
H1983 H 0.7418 0.98223 0.67777 0.0
C1984 C 0.63218 0.85379 0.37591 0.0
C1985 C 0.65518 0.84159 0.37939 0.0
C1986 C 0.62807 0.79995 0.36385 0.0
C1987 C 0.6061 0.81303 0.35749 0.0
N1988 N 0.59008 0.85424 0.35218 0.0
N1989 N 0.67623 0.80388 0.37321 0.0
C1990 C 0.60883 0.84044 0.36218 0.0
C1991 C 0.65346 0.81483 0.37247 0.0
N1992 N 0.63238 0.87799 0.38611 0.0
N1993 N 0.62451 0.77327 0.36226 0.0
H1994 H 0.6952 0.81425 0.379 0.0
H1995 H 0.67666 0.7853 0.36605 0.0
H1996 H 0.60611 0.76177 0.35641 0.0
H1997 H 0.639 0.76248 0.3689 0.0
H1998 H 0.61522 0.88658 0.38624 0.0
H1999 H 0.64896 0.88833 0.3966 0.0
H2000 H 0.59264 0.87459 0.35306 0.0
H2001 H 0.57349 0.84584 0.34064 0.0
C2002 C 0.72469 0.09353 0.34647 0.0
C2003 C 0.73124 0.12079 0.3424 0.0
C2004 C 0.76052 0.11197 0.31096 0.0
C2005 C 0.75491 0.08487 0.31583 0.0
N2006 N 0.72782 0.04899 0.33404 0.0
N2007 N 0.75053 0.15569 0.31767 0.0
C2008 C 0.73552 0.07538 0.33212 0.0
C2009 C 0.74754 0.1299 0.32351 0.0
N2010 N 0.70903 0.08514 0.36485 0.0
N2011 N 0.77908 0.12053 0.29495 0.0
H2012 H 0.7416 0.16924 0.32682 0.0
H2013 H 0.76019 0.16342 0.30278 0.0
H2014 H 0.78752 0.10768 0.28443 0.0
H2015 H 0.78677 0.14012 0.29253 0.0
H2016 H 0.70599 0.06605 0.37088 0.0
H2017 H 0.69988 0.09768 0.37504 0.0
H2018 H 0.71223 0.04046 0.34399 0.0
H2019 H 0.73573 0.03536 0.324 0.0
C2020 C 0.43288 0.21804 0.3661 0.0
C2021 C 0.41104 0.22557 0.35172 0.0
C2022 C 0.44163 0.2614 0.33534 0.0
C2023 C 0.46363 0.25135 0.34672 0.0
N2024 N 0.48099 0.21896 0.37119 0.0
N2025 N 0.39443 0.25308 0.32105 0.0
C2026 C 0.4595 0.22955 0.36193 0.0
C2027 C 0.41527 0.24714 0.33609 0.0
N2028 N 0.42809 0.20011 0.38386 0.0
N2029 N 0.44625 0.28462 0.32375 0.0
H2030 H 0.37482 0.24295 0.3209 0.0
H2031 H 0.39686 0.26676 0.30741 0.0
H2032 H 0.46556 0.29529 0.32313 0.0
H2033 H 0.43105 0.29438 0.3168 0.0
H2034 H 0.44305 0.19565 0.39643 0.0
H2035 H 0.40877 0.19138 0.38743 0.0
H2036 H 0.47917 0.20124 0.38009 0.0
H2037 H 0.50075 0.22703 0.36848 0.0
C2038 C 0.32443 0.9081 0.30805 0.0
C2039 C 0.34875 0.92034 0.32085 0.0
C2040 C 0.34295 0.96256 0.30386 0.0
C2041 C 0.31836 0.95047 0.29096 0.0
N2042 N 0.28939 0.9108 0.27589 0.0
N2043 N 0.38501 0.95675 0.32586 0.0
C2044 C 0.31025 0.92289 0.29153 0.0
C2045 C 0.35934 0.94675 0.31688 0.0
N2046 N 0.31441 0.88259 0.31237 0.0
N2047 N 0.34973 0.98922 0.30534 0.0
H2048 H 0.39731 0.94547 0.33553 0.0
H2049 H 0.39491 0.9752 0.32166 0.0
H2050 H 0.33811 1.00181 0.29689 0.0
H2051 H 0.36574 0.99905 0.31678 0.0
H2052 H 0.29516 0.87339 0.30604 0.0
H2053 H 0.32506 0.87093 0.32337 0.0
H2054 H 0.28413 0.89057 0.27372 0.0
H2055 H 0.27885 0.92098 0.26336 0.0
C2056 C 0.75099 0.1061 0.72841 0.0
C2057 C 0.74048 0.10779 0.70384 0.0
C2058 C 0.75274 0.06508 0.69469 0.0
C2059 C 0.7593 0.06156 0.71994 0.0
N2060 N 0.76102 0.0778 0.76139 0.0
N2061 N 0.72692 0.08634 0.66457 0.0
C2062 C 0.75757 0.0819 0.73698 0.0
C2063 C 0.74013 0.08657 0.68724 0.0
N2064 N 0.75535 0.12783 0.74344 0.0
N2065 N 0.75983 0.04879 0.67759 0.0
H2066 H 0.71705 0.10141 0.65841 0.0
H2067 H 0.7236 0.07003 0.65277 0.0
H2068 H 0.77074 0.03391 0.68195 0.0
H2069 H 0.75776 0.05205 0.65896 0.0
H2070 H 0.76546 0.12853 0.76074 0.0
H2071 H 0.75127 0.14595 0.73769 0.0
H2072 H 0.75727 0.09092 0.77464 0.0
H2073 H 0.76511 0.0602 0.76843 0.0
C2074 C 0.75329 0.91133 0.36018 0.0
C2075 C 0.73254 0.91592 0.37466 0.0
C2076 C 0.74507 0.96331 0.36995 0.0
C2077 C 0.76549 0.95866 0.35525 0.0
N2078 N 0.78727 0.92912 0.33343 0.0
N2079 N 0.70598 0.94534 0.39095 0.0
C2080 C 0.76902 0.93285 0.34947 0.0
C2081 C 0.72761 0.9417 0.37882 0.0
N2082 N 0.75848 0.88647 0.35739 0.0
N2083 N 0.74283 0.98854 0.37561 0.0
H2084 H 0.69296 0.92989 0.39772 0.0
H2085 H 0.69975 0.96329 0.39302 0.0
H2086 H 0.75489 1.00457 0.36865 0.0
H2087 H 0.73013 0.99379 0.388 0.0
H2088 H 0.77509 0.88197 0.34938 0.0
H2089 H 0.74674 0.87014 0.36419 0.0
H2090 H 0.78907 0.91095 0.32616 0.0
H2091 H 0.7998 0.94465 0.32626 0.0
C2092 C 0.60455 0.17522 0.32454 0.0
C2093 C 0.63244 0.18544 0.32742 0.0
C2094 C 0.62552 0.22064 0.29947 0.0
C2095 C 0.59752 0.21035 0.29631 0.0
N2096 N 0.56145 0.17479 0.30146 0.0
N2097 N 0.67047 0.21347 0.31334 0.0
C2098 C 0.58738 0.18665 0.30752 0.0
C2099 C 0.64323 0.20665 0.31334 0.0
N2100 N 0.59434 0.15512 0.33867 0.0
N2101 N 0.63503 0.24468 0.29075 0.0
H2102 H 0.68382 0.20364 0.32347 0.0
H2103 H 0.67973 0.22707 0.30164 0.0
H2104 H 0.6229 0.256 0.28104 0.0
H2105 H 0.65458 0.2545 0.29491 0.0
H2106 H 0.57387 0.14883 0.33976 0.0
H2107 H 0.60648 0.14551 0.35038 0.0
H2108 H 0.55343 0.15628 0.30713 0.0
H2109 H 0.54855 0.18251 0.28887 0.0
C2110 C 0.32522 0.13892 0.31054 0.0
C2111 C 0.3457 0.14325 0.33003 0.0
C2112 C 0.35039 0.09703 0.32749 0.0
C2113 C 0.32757 0.09231 0.3105 0.0
N2114 N 0.28974 0.10751 0.2897 0.0
N2115 N 0.37572 0.12577 0.35937 0.0
C2116 C 0.31406 0.11294 0.30294 0.0
C2117 C 0.35798 0.12217 0.33905 0.0
N2118 N 0.31675 0.15962 0.29904 0.0
N2119 N 0.36467 0.07736 0.33248 0.0
H2120 H 0.38136 0.14371 0.36869 0.0
H2121 H 0.38319 0.11052 0.36816 0.0
H2122 H 0.35912 0.05874 0.32434 0.0
H2123 H 0.38301 0.08006 0.34299 0.0
H2124 H 0.30356 0.15749 0.28332 0.0
H2125 H 0.325 0.17903 0.30372 0.0
H2126 H 0.27764 0.12156 0.28576 0.0
H2127 H 0.28052 0.08849 0.28463 0.0
C2128 C 0.46134 0.85143 0.36287 0.0
C2129 C 0.43451 0.84181 0.35324 0.0
C2130 C 0.45188 0.82423 0.31704 0.0
C2131 C 0.47858 0.83271 0.32725 0.0
N2132 N 0.50898 0.85021 0.36144 0.0
N2133 N 0.40416 0.8158 0.32292 0.0
C2134 C 0.48334 0.84515 0.35064 0.0
C2135 C 0.42978 0.82724 0.33079 0.0
N2136 N 0.4658 0.86734 0.38329 0.0
N2137 N 0.44779 0.81399 0.29381 0.0
H2138 H 0.38762 0.81772 0.33247 0.0
H2139 H 0.39943 0.80283 0.30803 0.0
H2140 H 0.46363 0.81146 0.28355 0.0
H2141 H 0.42903 0.80972 0.28408 0.0
H2142 H 0.48466 0.87738 0.38973 0.0
H2143 H 0.45033 0.87207 0.39294 0.0
H2144 H 0.5138 0.85672 0.37946 0.0
H2145 H 0.52534 0.84583 0.35288 0.0
C2146 C 0.35915 0.99117 0.73286 0.0
C2147 C 0.34802 0.96448 0.73566 0.0
C2148 C 0.32623 0.97654 0.77147 0.0
C2149 C 0.33687 1.00334 0.76837 0.0
N2150 N 0.35968 0.03682 0.74403 0.0
N2151 N 0.31776 0.93188 0.75501 0.0
C2152 C 0.35203 1.01084 0.74829 0.0
C2153 C 0.33057 0.95721 0.7542 0.0
N2154 N 0.37724 0.99762 0.71591 0.0
N2155 N 0.31249 0.96956 0.79137 0.0
H2156 H 0.32119 0.91712 0.74322 0.0
H2157 H 0.30258 0.9257 0.76629 0.0
H2158 H 0.3073 0.98328 0.80333 0.0
H2159 H 0.30715 0.95033 0.79666 0.0
H2160 H 0.38838 0.01621 0.71452 0.0
H2161 H 0.38267 0.98381 0.7042 0.0
H2162 H 0.36859 0.04385 0.72854 0.0
H2163 H 0.35509 0.05163 0.75509 0.0
C2164 C 0.60976 0.83767 0.69195 0.0
C2165 C 0.63558 0.83028 0.69364 0.0
C2166 C 0.62634 0.80834 0.73196 0.0
C2167 C 0.60221 0.81875 0.73187 0.0
N2168 N 0.57046 0.84338 0.71245 0.0
N2169 N 0.66874 0.80819 0.71437 0.0
C2170 C 0.59348 0.83298 0.7118 0.0
C2171 C 0.64385 0.81523 0.7133 0.0
N2172 N 0.60096 0.84938 0.67144 0.0
N2173 N 0.63219 0.79162 0.74984 0.0
H2174 H 0.68141 0.81164 0.70034 0.0
H2175 H 0.67743 0.79989 0.72944 0.0
H2176 H 0.61949 0.78613 0.76355 0.0
H2177 H 0.64831 0.78155 0.75018 0.0
H2178 H 0.58132 0.85261 0.66778 0.0
H2179 H 0.61282 0.85445 0.65709 0.0
H2180 H 0.56471 0.85686 0.70014 0.0
H2181 H 0.55744 0.83945 0.72613 0.0
C2182 C 0.46094 0.28702 0.72972 0.0
C2183 C 0.46033 0.26492 0.71415 0.0
C2184 C 0.50939 0.26969 0.7197 0.0
C2185 C 0.50958 0.28968 0.73748 0.0
N2186 N 0.48812 0.32309 0.7538 0.0
N2187 N 0.48359 0.23952 0.68893 0.0
C2188 C 0.48613 0.30043 0.7404 0.0
C2189 C 0.48456 0.25792 0.70711 0.0
N2190 N 0.43733 0.29411 0.73527 0.0
N2191 N 0.53288 0.26118 0.71601 0.0
H2192 H 0.4656 0.23037 0.67971 0.0
H2193 H 0.50045 0.23457 0.68171 0.0
H2194 H 0.55138 0.27062 0.72416 0.0
H2195 H 0.53421 0.24476 0.70545 0.0
H2196 H 0.43593 0.3081 0.7486 0.0
H2197 H 0.41878 0.28521 0.72682 0.0
H2198 H 0.47221 0.33313 0.75545 0.0
H2199 H 0.50658 0.33309 0.76145 0.0
C2200 C 0.73561 0.69495 0.12629 0.0
C2201 C 0.75159 0.70006 0.14882 0.0
C2202 C 0.79105 0.71627 0.12698 0.0
C2203 C 0.77503 0.71207 0.10458 0.0
N2204 N 0.73163 0.70163 0.08255 0.0
N2205 N 0.79259 0.72139 0.17089 0.0
C2206 C 0.74707 0.70284 0.10417 0.0
C2207 C 0.77871 0.71272 0.14919 0.0
N2208 N 0.71001 0.68146 0.12597 0.0
N2209 N 0.81828 0.72248 0.12692 0.0
H2210 H 0.78391 0.71929 0.18744 0.0
H2211 H 0.81165 0.73281 0.17223 0.0
H2212 H 0.82783 0.72483 0.11086 0.0
H2213 H 0.83143 0.72294 0.14253 0.0
H2214 H 0.69831 0.67452 0.11007 0.0
H2215 H 0.70088 0.67598 0.14183 0.0
H2216 H 0.71073 0.69747 0.0811 0.0
H2217 H 0.73984 0.70655 0.06613 0.0
C2218 C 0.36727 0.7599 0.11493 0.0
C2219 C 0.36247 0.73818 0.13033 0.0
C2220 C 0.32671 0.71685 0.10084 0.0
C2221 C 0.33365 0.73683 0.08395 0.0
N2222 N 0.36401 0.77537 0.0736 0.0
N2223 N 0.34328 0.69287 0.13432 0.0
C2224 C 0.35486 0.75794 0.09063 0.0
C2225 C 0.3439 0.7157 0.12223 0.0
N2226 N 0.38354 0.78245 0.12349 0.0
N2227 N 0.30306 0.69969 0.0972 0.0
H2228 H 0.35739 0.69082 0.14864 0.0
H2229 H 0.33134 0.67534 0.128 0.0
H2230 H 0.28871 0.70099 0.08279 0.0
H2231 H 0.29627 0.68628 0.11018 0.0
H2232 H 0.38542 0.79982 0.11402 0.0
H2233 H 0.39366 0.78431 0.14086 0.0
H2234 H 0.38115 0.78955 0.07686 0.0
H2235 H 0.35603 0.77414 0.05549 0.0
C2236 C 0.34163 0.30472 0.15767 0.0
C2237 C 0.36572 0.32304 0.15732 0.0
C2238 C 0.35699 0.32638 0.11287 0.0
C2239 C 0.33474 0.30564 0.11283 0.0
N2240 N 0.30853 0.27217 0.13525 0.0
N2241 N 0.39767 0.35024 0.1346 0.0
C2242 C 0.32755 0.29424 0.13529 0.0
C2243 C 0.37373 0.33363 0.13489 0.0
N2244 N 0.33225 0.29715 0.17949 0.0
N2245 N 0.36158 0.33974 0.092 0.0
H2246 H 0.40974 0.35692 0.15044 0.0
H2247 H 0.40634 0.35618 0.11867 0.0
H2248 H 0.3495 0.33527 0.07573 0.0
H2249 H 0.37576 0.35667 0.09127 0.0
H2250 H 0.31325 0.28631 0.18105 0.0
H2251 H 0.34247 0.30358 0.19625 0.0
H2252 H 0.30454 0.26135 0.1507 0.0
H2253 H 0.2984 0.26302 0.11945 0.0
C2254 C 0.76011 0.31629 0.133 0.0
C2255 C 0.73778 0.32092 0.11745 0.0
C2256 C 0.75698 0.30434 0.08224 0.0
C2257 C 0.77973 0.30053 0.09763 0.0
N2258 N 0.80581 0.30759 0.13615 0.0
N2259 N 0.71698 0.32441 0.07698 0.0
C2260 C 0.78211 0.30793 0.12262 0.0
C2261 C 0.7369 0.3166 0.09192 0.0
N2262 N 0.75998 0.31922 0.15769 0.0
N2263 N 0.75401 0.29504 0.05868 0.0
H2264 H 0.70183 0.33319 0.08359 0.0
H2265 H 0.71669 0.32421 0.05806 0.0
H2266 H 0.76816 0.28557 0.05121 0.0
H2267 H 0.73666 0.2948 0.04712 0.0
H2268 H 0.77429 0.31341 0.17015 0.0
H2269 H 0.74455 0.32601 0.1659 0.0
H2270 H 0.81005 0.31498 0.15396 0.0
H2271 H 0.82218 0.30196 0.12859 0.0
C2272 C 0.7814 0.35364 0.97363 0.0
C2273 C 0.78678 0.34633 0.94994 0.0
C2274 C 0.82736 0.33068 0.9667 0.0
C2275 C 0.81988 0.33457 0.99058 0.0
N2276 N 0.78826 0.34724 1.01702 0.0
N2277 N 0.81392 0.32709 0.92328 0.0
C2278 C 0.79667 0.34571 0.99417 0.0
C2279 C 0.80962 0.33478 0.94625 0.0
N2280 N 0.76174 0.36828 0.97646 0.0
N2281 N 0.85176 0.32375 0.96362 0.0
H2282 H 0.80202 0.33091 0.9078 0.0
H2283 H 0.82826 0.3157 0.91963 0.0
H2284 H 0.86539 0.32094 0.9782 0.0
H2285 H 0.85959 0.32302 0.94679 0.0
H2286 H 0.75858 0.37648 0.9931 0.0
H2287 H 0.7501 0.37421 0.96172 0.0
H2288 H 0.76981 0.3522 1.02042 0.0
H2289 H 0.79871 0.34154 0.03255 0.0
C2290 C 0.75383 0.70868 0.95 0.0
C2291 C 0.75716 0.72488 0.92959 0.0
C2292 C 0.76649 0.76353 0.95749 0.0
C2293 C 0.7661 0.74703 0.97797 0.0
N2294 N 0.76865 0.70327 0.99193 0.0
N2295 N 0.77269 0.76766 0.9144 0.0
C2296 C 0.76237 0.71941 0.97376 0.0
C2297 C 0.76531 0.75233 0.93348 0.0
N2298 N 0.74176 0.68312 0.94696 0.0
N2299 N 0.76682 0.78973 0.96073 0.0
H2300 H 0.77261 0.7601 0.89675 0.0
H2301 H 0.78146 0.78729 0.91659 0.0
H2302 H 0.76656 0.79857 0.97778 0.0
H2303 H 0.76456 0.80218 0.94631 0.0
H2304 H 0.73662 0.67128 0.96157 0.0
H2305 H 0.73422 0.67462 0.93001 0.0
H2306 H 0.76843 0.68334 0.98899 0.0
H2307 H 0.77763 0.71012 1.00896 0.0
C2308 C 0.37297 0.68068 0.96497 0.0
C2309 C 0.37409 0.68794 0.94031 0.0
C2310 C 0.33016 0.70163 0.9401 0.0
C2311 C 0.32899 0.69433 0.96466 0.0
N2312 N 0.34617 0.67347 0.99969 0.0
N2313 N 0.35235 0.70055 0.90281 0.0
C2314 C 0.34948 0.68268 0.97683 0.0
C2315 C 0.35217 0.69686 0.92733 0.0
N2316 N 0.39467 0.67269 0.97717 0.0
N2317 N 0.31069 0.71413 0.92947 0.0
H2318 H 0.36837 0.69759 0.89299 0.0
H2319 H 0.33594 0.70464 0.89181 0.0
H2320 H 0.29413 0.71736 0.93841 0.0
H2321 H 0.31164 0.72265 0.9125 0.0
H2322 H 0.39641 0.66973 0.99583 0.0
H2323 H 0.41175 0.6701 0.96871 0.0
H2324 H 0.35909 0.66271 1.00906 0.0
H2325 H 0.32924 0.67517 1.00875 0.0
C2326 C 0.40041 0.32178 0.95252 0.0
C2327 C 0.38637 0.3145 0.92936 0.0
C2328 C 0.35949 0.27676 0.94744 0.0
C2329 C 0.37296 0.28458 0.9706 0.0
N2330 N 0.40315 0.31598 0.99633 0.0
N2331 N 0.35097 0.28687 0.90475 0.0
C2332 C 0.39271 0.30743 0.9734 0.0
C2333 C 0.36541 0.29245 0.92681 0.0
N2334 N 0.42127 0.34239 0.95447 0.0
N2335 N 0.34133 0.25401 0.94534 0.0
H2336 H 0.35528 0.29759 0.88926 0.0
H2337 H 0.33387 0.27263 0.90189 0.0
H2338 H 0.33666 0.24247 0.96028 0.0
H2339 H 0.33195 0.2457 0.92891 0.0
H2340 H 0.43454 0.34678 0.96997 0.0
H2341 H 0.42621 0.35461 0.94008 0.0
H2342 H 0.41546 0.33394 1.00025 0.0
H2343 H 0.39799 0.30574 1.01188 0.0
C2344 C 0.63584 0.71849 0.21583 0.0
C2345 C 0.66339 0.72869 0.22209 0.0
C2346 C 0.65077 0.76761 0.24114 0.0
C2347 C 0.62324 0.75727 0.23519 0.0
N2348 N 0.58938 0.72551 0.21348 0.0
N2349 N 0.69761 0.76473 0.23646 0.0
C2350 C 0.61577 0.73352 0.22136 0.0
C2351 C 0.671 0.7539 0.23339 0.0
N2352 N 0.62886 0.69398 0.20536 0.0
N2353 N 0.65737 0.79028 0.25482 0.0
H2354 H 0.71267 0.7551 0.23088 0.0
H2355 H 0.70472 0.78382 0.24277 0.0
H2356 H 0.64295 0.80103 0.25986 0.0
H2357 H 0.67675 0.79784 0.26212 0.0
H2358 H 0.60924 0.68392 0.2028 0.0
H2359 H 0.64304 0.68307 0.20003 0.0
H2360 H 0.58243 0.70971 0.2015 0.0
H2361 H 0.57444 0.73594 0.21771 0.0
C2362 C 0.34487 0.65606 0.23855 0.0
C2363 C 0.35667 0.65978 0.21616 0.0
C2364 C 0.33314 0.61653 0.20188 0.0
C2365 C 0.32731 0.6104 0.22599 0.0
N2366 N 0.32566 0.6254 0.26749 0.0
N2367 N 0.36287 0.64298 0.1763 0.0
C2368 C 0.332 0.63062 0.24431 0.0
C2369 C 0.35051 0.64012 0.19745 0.0
N2370 N 0.34598 0.67694 0.25422 0.0
N2371 N 0.32282 0.59895 0.18349 0.0
H2372 H 0.37667 0.65948 0.17278 0.0
H2373 H 0.36114 0.6281 0.1631 0.0
H2374 H 0.31016 0.58152 0.1868 0.0
H2375 H 0.32455 0.60282 0.16513 0.0
H2376 H 0.33565 0.67612 0.26984 0.0
H2377 H 0.35516 0.69579 0.25029 0.0
H2378 H 0.33257 0.63806 0.28234 0.0
H2379 H 0.31368 0.60826 0.27204 0.0
C2380 C 0.44014 0.27708 0.21878 0.0
C2381 C 0.44422 0.30388 0.21249 0.0
C2382 C 0.492 0.30772 0.22605 0.0
C2383 C 0.48869 0.28041 0.23028 0.0
N2384 N 0.46012 0.23823 0.22692 0.0
N2385 N 0.47529 0.34255 0.20408 0.0
C2386 C 0.46286 0.2648 0.22549 0.0
C2387 C 0.4706 0.31841 0.21406 0.0
N2388 N 0.41462 0.26366 0.21938 0.0
N2389 N 0.51475 0.324 0.23528 0.0
H2390 H 0.46012 0.3509 0.19487 0.0
H2391 H 0.49456 0.35293 0.20272 0.0
H2392 H 0.52995 0.31756 0.24622 0.0
H2393 H 0.51695 0.34432 0.23471 0.0
H2394 H 0.41028 0.24504 0.22643 0.0
H2395 H 0.39761 0.2719 0.21447 0.0
H2396 H 0.44238 0.22557 0.22138 0.0
H2397 H 0.4763 0.22872 0.23169 0.0
C2398 C 0.73123 0.43096 0.18967 0.0
C2399 C 0.73492 0.40532 0.19609 0.0
C2400 C 0.77327 0.423 0.22487 0.0
C2401 C 0.77 0.44861 0.21801 0.0
N2402 N 0.74933 0.47741 0.19141 0.0
N2403 N 0.76171 0.37631 0.21599 0.0
C2404 C 0.75005 0.45273 0.19957 0.0
C2405 C 0.75673 0.40116 0.21251 0.0
N2406 N 0.70917 0.43445 0.17486 0.0
N2407 N 0.79174 0.41963 0.2436 0.0
H2408 H 0.74981 0.3599 0.20726 0.0
H2409 H 0.77877 0.372 0.22585 0.0
H2410 H 0.80467 0.43518 0.25267 0.0
H2411 H 0.79315 0.40166 0.25131 0.0
H2412 H 0.7035 0.45258 0.1718 0.0
H2413 H 0.69554 0.41891 0.16654 0.0
H2414 H 0.73721 0.48143 0.17623 0.0
H2415 H 0.76225 0.49392 0.19888 0.0
C2416 C 0.70075 0.35885 0.81888 0.0
C2417 C 0.69912 0.37696 0.83796 0.0
C2418 C 0.65172 0.37678 0.82449 0.0
C2419 C 0.65208 0.35463 0.80931 0.0
N2420 N 0.67672 0.32578 0.78973 0.0
N2421 N 0.67372 0.40443 0.8587 0.0
C2422 C 0.67672 0.3464 0.80543 0.0
C2423 C 0.67493 0.3868 0.84034 0.0
N2424 N 0.72529 0.3535 0.81392 0.0
N2425 N 0.62903 0.38776 0.82406 0.0
H2426 H 0.69045 0.41257 0.87026 0.0
H2427 H 0.65596 0.41003 0.86332 0.0
H2428 H 0.61196 0.38078 0.81244 0.0
H2429 H 0.62793 0.40511 0.83331 0.0
H2430 H 0.72827 0.34198 0.79912 0.0
H2431 H 0.74311 0.36251 0.82356 0.0
H2432 H 0.69319 0.31649 0.78812 0.0
H2433 H 0.65958 0.31742 0.7787 0.0
C2434 C 0.78932 0.66536 0.84373 0.0
C2435 C 0.77373 0.66079 0.86406 0.0
C2436 C 0.78535 0.61657 0.86701 0.0
C2437 C 0.79973 0.62073 0.84592 0.0
N2438 N 0.81034 0.6468 0.81114 0.0
N2439 N 0.75222 0.62998 0.89168 0.0
C2440 C 0.80003 0.64441 0.83328 0.0
C2441 C 0.77045 0.63578 0.87478 0.0
N2442 N 0.79486 0.69007 0.83503 0.0
N2443 N 0.78617 0.59428 0.87981 0.0
H2444 H 0.74067 0.6433 0.89755 0.0
H2445 H 0.74678 0.61131 0.89831 0.0
H2446 H 0.79523 0.57899 0.8738 0.0
H2447 H 0.77911 0.5915 0.89697 0.0
H2448 H 0.80836 0.69531 0.82198 0.0
H2449 H 0.78787 0.70598 0.84247 0.0
H2450 H 0.80899 0.66259 0.7999 0.0
H2451 H 0.81777 0.63165 0.80285 0.0
C2452 C 0.485 0.71317 0.83671 0.0
C2453 C 0.45799 0.71571 0.83954 0.0
C2454 C 0.46507 0.75924 0.82212 0.0
C2455 C 0.49211 0.75679 0.81915 0.0
N2456 N 0.52712 0.7304 0.82006 0.0
N2457 N 0.42047 0.73803 0.83053 0.0
C2458 C 0.50178 0.73329 0.82513 0.0
C2459 C 0.44744 0.73776 0.83075 0.0
N2460 N 0.49479 0.69199 0.846 0.0
N2461 N 0.45649 0.78245 0.81751 0.0
H2462 H 0.40704 0.72284 0.83718 0.0
H2463 H 0.41098 0.75219 0.82198 0.0
H2464 H 0.46844 0.79829 0.81027 0.0
H2465 H 0.43817 0.78667 0.82219 0.0
H2466 H 0.515 0.69022 0.84725 0.0
H2467 H 0.48273 0.67648 0.85371 0.0
H2468 H 0.53451 0.71291 0.82166 0.0
H2469 H 0.54046 0.74516 0.81272 0.0
C2470 C 0.39249 0.44903 0.83882 0.0
C2471 C 0.37793 0.42311 0.83618 0.0
C2472 C 0.35214 0.43536 0.79964 0.0
C2473 C 0.36708 0.46107 0.80192 0.0
N2474 N 0.40369 0.49184 0.82104 0.0
N2475 N 0.34766 0.39009 0.81193 0.0
C2476 C 0.38799 0.4677 0.82077 0.0
C2477 C 0.35896 0.4158 0.81584 0.0
N2478 N 0.41003 0.45591 0.85896 0.0
N2479 N 0.3306 0.43007 0.78267 0.0
H2480 H 0.35224 0.3754 0.82351 0.0
H2481 H 0.33557 0.38299 0.79629 0.0
H2482 H 0.32513 0.44404 0.77068 0.0
H2483 H 0.31697 0.41261 0.78161 0.0
H2484 H 0.41919 0.47504 0.86351 0.0
H2485 H 0.41459 0.44244 0.87189 0.0
H2486 H 0.42083 0.49753 0.83286 0.0
H2487 H 0.40046 0.50578 0.80813 0.0
C2488 C 0.75486 0.60684 0.19766 0.0
C2489 C 0.76316 0.63196 0.20903 0.0
C2490 C 0.80003 0.61569 0.23263 0.0
C2491 C 0.79324 0.59144 0.21957 0.0
N2492 N 0.76655 0.56458 0.18777 0.0
N2493 N 0.79558 0.66151 0.23508 0.0
C2494 C 0.77119 0.58718 0.20161 0.0
C2495 C 0.78627 0.63672 0.22597 0.0
N2496 N 0.73105 0.60168 0.18347 0.0
N2497 N 0.81904 0.61826 0.25198 0.0
H2498 H 0.78582 0.67729 0.23097 0.0
H2499 H 0.81394 0.66687 0.24531 0.0
H2500 H 0.82911 0.60308 0.25748 0.0
H2501 H 0.82321 0.6345 0.26383 0.0
H2502 H 0.72249 0.58312 0.17656 0.0
H2503 H 0.71865 0.61564 0.18021 0.0
H2504 H 0.75252 0.5611 0.17271 0.0
H2505 H 0.77838 0.55003 0.19021 0.0
C2506 C 0.80335 0.4369 0.86385 0.0
C2507 C 0.78092 0.43499 0.87794 0.0
C2508 C 0.79281 0.48156 0.88951 0.0
C2509 C 0.81498 0.48352 0.87529 0.0
N2510 N 0.84429 0.46336 0.85192 0.0
N2511 N 0.75639 0.4537 0.90735 0.0
C2512 C 0.82124 0.46114 0.86352 0.0
C2513 C 0.77638 0.45679 0.89188 0.0
N2514 N 0.80692 0.41574 0.85017 0.0
N2515 N 0.787 0.5038 0.89987 0.0
H2516 H 0.74356 0.43598 0.909 0.0
H2517 H 0.75349 0.4681 0.9197 0.0
H2518 H 0.79942 0.52192 0.89902 0.0
H2519 H 0.76954 0.50467 0.9083 0.0
H2520 H 0.82108 0.41634 0.83748 0.0
H2521 H 0.79474 0.39746 0.85066 0.0
H2522 H 0.8515 0.44765 0.8445 0.0
H2523 H 0.85735 0.48105 0.85104 0.0
C2524 C 0.64117 0.74334 0.85894 0.0
C2525 C 0.66791 0.75146 0.85285 0.0
C2526 C 0.65605 0.79231 0.83687 0.0
C2527 C 0.62937 0.7843 0.84298 0.0
N2528 N 0.5971 0.75492 0.86316 0.0
N2529 N 0.70248 0.78547 0.84105 0.0
C2530 C 0.62216 0.76061 0.85515 0.0
C2531 C 0.6759 0.77662 0.84349 0.0
N2532 N 0.63382 0.71883 0.86759 0.0
N2533 N 0.66196 0.81423 0.82354 0.0
H2534 H 0.71739 0.77433 0.84575 0.0
H2535 H 0.71003 0.80451 0.83641 0.0
H2536 H 0.64778 0.82601 0.81843 0.0
H2537 H 0.68021 0.81975 0.8161 0.0
H2538 H 0.61409 0.71046 0.86992 0.0
H2539 H 0.64756 0.70625 0.87156 0.0
H2540 H 0.59088 0.73909 0.87392 0.0
H2541 H 0.58296 0.76731 0.86039 0.0
C2542 C 0.36513 0.63811 0.83094 0.0
C2543 C 0.38951 0.63492 0.84419 0.0
C2544 C 0.38227 0.58877 0.83125 0.0
C2545 C 0.36035 0.59309 0.81504 0.0
N2546 N 0.33116 0.62186 0.79826 0.0
N2547 N 0.42225 0.60787 0.85672 0.0
C2548 C 0.3515 0.61764 0.81482 0.0
C2549 C 0.39821 0.61032 0.84454 0.0
N2550 N 0.35506 0.66071 0.83387 0.0
N2551 N 0.38751 0.56391 0.83411 0.0
H2552 H 0.43416 0.62306 0.86717 0.0
H2553 H 0.43125 0.59136 0.8553 0.0
H2554 H 0.37588 0.54772 0.82478 0.0
H2555 H 0.40164 0.55895 0.84723 0.0
H2556 H 0.33609 0.6633 0.82663 0.0
H2557 H 0.3648 0.67619 0.84532 0.0
H2558 H 0.32601 0.6402 0.7951 0.0
H2559 H 0.32033 0.60723 0.78648 0.0
C2560 C 0.4542 0.33723 0.84147 0.0
C2561 C 0.45218 0.33821 0.86705 0.0
C2562 C 0.4971 0.32651 0.87331 0.0
C2563 C 0.50074 0.32968 0.84826 0.0
N2564 N 0.48456 0.34562 0.80983 0.0
N2565 N 0.47612 0.34156 0.9072 0.0
C2566 C 0.47977 0.33708 0.8326 0.0
C2567 C 0.47491 0.33505 0.883 0.0
N2568 N 0.43181 0.33563 0.82558 0.0
N2569 N 0.51452 0.31481 0.8878 0.0
H2570 H 0.46148 0.35026 0.91473 0.0
H2571 H 0.49325 0.3414 0.91903 0.0
H2572 H 0.53011 0.30693 0.88094 0.0
H2573 H 0.51146 0.31029 0.90585 0.0
H2574 H 0.43224 0.33273 0.80687 0.0
H2575 H 0.41253 0.33429 0.83129 0.0
H2576 H 0.4704 0.35331 0.79859 0.0
H2577 H 0.5036 0.34813 0.80352 0.0
C2578 C 0.33617 0.4107 0.23646 0.0
C2579 C 0.36376 0.41161 0.24374 0.0
C2580 C 0.36364 0.4507 0.26963 0.0
C2581 C 0.33626 0.45041 0.26158 0.0
N2582 N 0.29907 0.43472 0.23192 0.0
N2583 N 0.40531 0.43547 0.26297 0.0
C2584 C 0.32326 0.4317 0.24341 0.0
C2585 C 0.37799 0.43264 0.25892 0.0
N2586 N 0.3221 0.38953 0.22338 0.0
N2587 N 0.37559 0.46728 0.28833 0.0
H2588 H 0.41644 0.42257 0.25559 0.0
H2589 H 0.41716 0.4518 0.27178 0.0
H2590 H 0.36575 0.48064 0.29668 0.0
H2591 H 0.3945 0.46639 0.29689 0.0
H2592 H 0.30127 0.38633 0.21995 0.0
H2593 H 0.33108 0.37414 0.2175 0.0
H2594 H 0.28973 0.42312 0.21706 0.0
H2595 H 0.28975 0.45067 0.23544 0.0
C2596 C 0.62843 0.35586 0.21389 0.0
C2597 C 0.65296 0.34602 0.2156 0.0
C2598 C 0.64123 0.32388 0.25314 0.0
C2599 C 0.61577 0.33166 0.2502 0.0
N2600 N 0.58352 0.3526 0.22696 0.0
N2601 N 0.6821 0.31868 0.23504 0.0
C2602 C 0.60896 0.34713 0.23041 0.0
C2603 C 0.65923 0.32947 0.23476 0.0
N2604 N 0.62406 0.37394 0.19684 0.0
N2605 N 0.64829 0.31177 0.27397 0.0
H2606 H 0.69598 0.32267 0.22204 0.0
H2607 H 0.68646 0.30436 0.24705 0.0
H2608 H 0.63545 0.30788 0.28782 0.0
H2609 H 0.66743 0.30758 0.27851 0.0
H2610 H 0.60793 0.38404 0.19639 0.0
H2611 H 0.63761 0.38026 0.18403 0.0
H2612 H 0.57614 0.36108 0.21137 0.0
H2613 H 0.56914 0.34713 0.23918 0.0
C2614 C 0.47237 0.71099 0.22909 0.0
C2615 C 0.44861 0.70961 0.24119 0.0
C2616 C 0.476 0.71514 0.28041 0.0
C2617 C 0.49963 0.72121 0.26797 0.0
N2618 N 0.51854 0.73159 0.22949 0.0
N2619 N 0.42786 0.71383 0.27864 0.0
C2620 C 0.49748 0.72067 0.24202 0.0
C2621 C 0.45036 0.7124 0.26699 0.0
N2622 N 0.471 0.70315 0.20519 0.0
N2623 N 0.47804 0.71172 0.30499 0.0
H2624 H 0.40881 0.71248 0.26951 0.0
H2625 H 0.42845 0.71867 0.29711 0.0
H2626 H 0.4965 0.71309 0.31524 0.0
H2627 H 0.46157 0.70496 0.31468 0.0
H2628 H 0.48802 0.70165 0.19621 0.0
H2629 H 0.45292 0.69547 0.19522 0.0
H2630 H 0.51689 0.73368 0.21067 0.0
H2631 H 0.53649 0.74166 0.2379 0.0
loop_
_geom_bond_atom_site_label_1
_geom_bond_atom_site_label_2
_geom_bond_distance
_geom_bond_site_symmetry_2
_ccdc_geom_bond_type
H0 C3 0.929 . S
H1 C6 0.929 . S
H2 C8 0.930 . S
C3 H0 0.929 . S
C3 C4 1.398 . S
C3 C5 1.396 . S
C4 C3 1.398 . S
C4 C8 1.407 . S
C5 C3 1.396 . S
C5 C6 1.394 . S
C6 H1 0.929 . S
C6 C5 1.394 . S
C6 C7 1.382 . S
C7 C6 1.382 . S
C7 C8 1.392 . S
C7 N9 1.420 . S
C8 H2 0.930 . S
C8 C4 1.407 . S
C8 C7 1.392 . S
N9 C7 1.420 . S
N9 C10 1.244 . S
C10 N9 1.244 . S
H11 C14 0.929 . S
H12 C17 0.929 . S
H13 C19 0.930 . S
C14 H11 0.929 . S
C14 C15 1.398 . S
C14 C16 1.396 . S
C15 C14 1.398 . S
C15 C19 1.407 . S
C16 C14 1.396 . S
C16 C17 1.394 . S
C17 H12 0.929 . S
C17 C16 1.394 . S
C17 C18 1.382 . S
C18 C17 1.382 . S
C18 C19 1.392 . S
C18 N20 1.420 . S
C19 H13 0.930 . S
C19 C15 1.407 . S
C19 C18 1.392 . S
N20 C18 1.420 . S
N20 C21 1.244 . S
C21 N20 1.244 . S
H22 C25 0.929 . S
H23 C28 0.929 . S
H24 C30 0.930 . S
C25 H22 0.929 . S
C25 C26 1.398 . S
C25 C27 1.396 . S
C26 C25 1.398 . S
C26 C30 1.407 . S
C27 C25 1.396 . S
C27 C28 1.394 . S
C28 H23 0.929 . S
C28 C27 1.394 . S
C28 C29 1.382 . S
C29 C28 1.382 . S
C29 C30 1.392 . S
C29 N31 1.420 . S
C30 H24 0.930 . S
C30 C26 1.407 . S
C30 C29 1.392 . S
N31 C29 1.420 . S
N31 C32 1.244 . S
C32 N31 1.244 . S
H33 C36 0.929 . S
H34 C39 0.929 . S
H35 C41 0.930 . S
C36 H33 0.929 . S
C36 C37 1.398 . S
C36 C38 1.396 . S
C37 C36 1.398 . S
C37 C41 1.407 . S
C38 C36 1.396 . S
C38 C39 1.394 . S
C39 H34 0.929 . S
C39 C38 1.394 . S
C39 C40 1.382 . S
C40 C39 1.382 . S
C40 C41 1.392 . S
C40 N42 1.420 . S
C41 H35 0.930 . S
C41 C37 1.407 . S
C41 C40 1.392 . S
N42 C40 1.420 . S
N42 C43 1.244 . S
C43 N42 1.244 . S
H44 C47 0.929 . S
H45 C50 0.929 . S
H46 C52 0.930 . S
C47 H44 0.929 . S
C47 C48 1.398 . S
C47 C49 1.396 . S
C48 C47 1.398 . S
C48 C52 1.407 . S
C49 C47 1.396 . S
C49 C50 1.394 . S
C50 H45 0.929 . S
C50 C49 1.394 . S
C50 C51 1.382 . S
C51 C50 1.382 . S
C51 C52 1.392 . S
C51 N53 1.420 . S
C52 H46 0.930 . S
C52 C48 1.407 . S
C52 C51 1.392 . S
N53 C51 1.420 . S
N53 C54 1.244 . S
C54 N53 1.244 . S
H55 C58 0.929 . S
H56 C61 0.929 . S
H57 C63 0.930 . S
C58 H55 0.929 . S
C58 C59 1.398 . S
C58 C60 1.396 . S
C59 C58 1.398 . S
C59 C63 1.407 . S
C60 C58 1.396 . S
C60 C61 1.394 . S
C61 H56 0.929 . S
C61 C60 1.394 . S
C61 C62 1.382 . S
C62 C61 1.382 . S
C62 C63 1.392 . S
C62 N64 1.420 . S
C63 H57 0.930 . S
C63 C59 1.407 . S
C63 C62 1.392 . S
N64 C62 1.420 . S
N64 C65 1.244 . S
C65 N64 1.244 . S
H66 C69 0.929 . S
H67 C72 0.929 . S
H68 C74 0.930 . S
C69 H66 0.929 . S
C69 C70 1.398 . S
C69 C71 1.396 . S
C70 C69 1.398 . S
C70 C74 1.407 . S
C71 C69 1.396 . S
C71 C72 1.394 . S
C72 H67 0.929 . S
C72 C71 1.394 . S
C72 C73 1.382 . S
C73 C72 1.382 . S
C73 C74 1.392 . S
C73 N75 1.420 . S
C74 H68 0.930 . S
C74 C70 1.407 . S
C74 C73 1.392 . S
N75 C73 1.420 . S
N75 C76 1.244 . S
C76 N75 1.244 . S
H77 C80 0.929 . S
H78 C83 0.929 . S
H79 C85 0.930 . S
C80 H77 0.929 . S
C80 C81 1.398 . S
C80 C82 1.396 . S
C81 C80 1.398 . S
C81 C85 1.407 . S
C82 C80 1.396 . S
C82 C83 1.394 . S
C83 H78 0.929 . S
C83 C82 1.394 . S
C83 C84 1.382 . S
C84 C83 1.382 . S
C84 C85 1.392 . S
C84 N86 1.420 . S
C85 H79 0.930 . S
C85 C81 1.407 . S
C85 C84 1.392 . S
N86 C84 1.420 . S
N86 C87 1.244 . S
C87 N86 1.244 . S
H88 C91 0.929 . S
H89 C94 0.929 . S
H90 C96 0.930 . S
C91 H88 0.929 . S
C91 C92 1.398 . S
C91 C93 1.396 . S
C92 C91 1.398 . S
C92 C96 1.407 . S
C93 C91 1.396 . S
C93 C94 1.394 . S
C94 H89 0.929 . S
C94 C93 1.394 . S
C94 C95 1.382 . S
C95 C94 1.382 . S
C95 C96 1.392 . S
C95 N97 1.420 . S
C96 H90 0.930 . S
C96 C92 1.407 . S
C96 C95 1.392 . S
N97 C95 1.420 . S
N97 C98 1.244 . S
C98 N97 1.244 . S
H99 C102 0.929 . S
H100 C105 0.929 . S
H101 C107 0.930 . S
C102 H99 0.929 . S
C102 C103 1.398 . S
C102 C104 1.396 . S
C103 C102 1.398 . S
C103 C107 1.407 . S
C104 C102 1.396 . S
C104 C105 1.394 . S
C105 H100 0.929 . S
C105 C104 1.394 . S
C105 C106 1.382 . S
C106 C105 1.382 . S
C106 C107 1.392 . S
C106 N108 1.420 . S
C107 H101 0.930 . S
C107 C103 1.407 . S
C107 C106 1.392 . S
N108 C106 1.420 . S
N108 C109 1.244 . S
C109 N108 1.244 . S
H110 C113 0.929 . S
H111 C116 0.929 . S
H112 C118 0.930 . S
C113 H110 0.929 . S
C113 C114 1.398 . S
C113 C115 1.396 . S
C114 C113 1.398 . S
C114 C118 1.407 . S
C115 C113 1.396 . S
C115 C116 1.394 . S
C116 H111 0.929 . S
C116 C115 1.394 . S
C116 C117 1.382 . S
C117 C116 1.382 . S
C117 C118 1.392 . S
C117 N119 1.420 . S
C118 H112 0.930 . S
C118 C114 1.407 . S
C118 C117 1.392 . S
N119 C117 1.420 . S
N119 C120 1.244 . S
C120 N119 1.244 . S
H121 C124 0.929 . S
H122 C127 0.929 . S
H123 C129 0.930 . S
C124 H121 0.929 . S
C124 C125 1.398 . S
C124 C126 1.396 . S
C125 C124 1.398 . S
C125 C129 1.407 . S
C126 C124 1.396 . S
C126 C127 1.394 . S
C127 H122 0.929 . S
C127 C126 1.394 . S
C127 C128 1.382 . S
C128 C127 1.382 . S
C128 C129 1.392 . S
C128 N130 1.420 . S
C129 H123 0.930 . S
C129 C125 1.407 . S
C129 C128 1.392 . S
N130 C128 1.420 . S
N130 C131 1.244 . S
C131 N130 1.244 . S
H132 C135 0.929 . S
H133 C138 0.929 . S
H134 C140 0.930 . S
C135 H132 0.929 . S
C135 C136 1.398 . S
C135 C137 1.396 . S
C136 C135 1.398 . S
C136 C140 1.407 . S
C137 C135 1.396 . S
C137 C138 1.394 . S
C138 H133 0.929 . S
C138 C137 1.394 . S
C138 C139 1.382 . S
C139 C138 1.382 . S
C139 C140 1.392 . S
C139 N141 1.420 . S
C140 H134 0.930 . S
C140 C136 1.407 . S
C140 C139 1.392 . S
N141 C139 1.420 . S
N141 C142 1.244 . S
C142 N141 1.244 . S
H143 C146 0.929 . S
H144 C149 0.929 . S
H145 C151 0.930 . S
C146 H143 0.929 . S
C146 C147 1.398 . S
C146 C148 1.396 . S
C147 C146 1.398 . S
C147 C151 1.407 . S
C148 C146 1.396 . S
C148 C149 1.394 . S
C149 H144 0.929 . S
C149 C148 1.394 . S
C149 C150 1.382 . S
C150 C149 1.382 . S
C150 C151 1.392 . S
C150 N152 1.420 . S
C151 H145 0.930 . S
C151 C147 1.407 . S
C151 C150 1.392 . S
N152 C150 1.420 . S
N152 C153 1.244 . S
C153 N152 1.244 . S
H154 C157 0.929 . S
H155 C160 0.929 . S
H156 C162 0.930 . S
C157 H154 0.929 . S
C157 C158 1.398 . S
C157 C159 1.396 . S
C158 C157 1.398 . S
C158 C162 1.407 . S
C159 C157 1.396 . S
C159 C160 1.394 . S
C160 H155 0.929 . S
C160 C159 1.394 . S
C160 C161 1.382 . S
C161 C160 1.382 . S
C161 C162 1.392 . S
C161 N163 1.420 . S
C162 H156 0.930 . S
C162 C158 1.407 . S
C162 C161 1.392 . S
N163 C161 1.420 . S
N163 C164 1.244 . S
C164 N163 1.244 . S
H165 C168 0.929 . S
H166 C171 0.929 . S
H167 C173 0.930 . S
C168 H165 0.929 . S
C168 C169 1.398 . S
C168 C170 1.396 . S
C169 C168 1.398 . S
C169 C173 1.407 . S
C170 C168 1.396 . S
C170 C171 1.394 . S
C171 H166 0.929 . S
C171 C170 1.394 . S
C171 C172 1.382 . S
C172 C171 1.382 . S
C172 C173 1.392 . S
C172 N174 1.420 . S
C173 H167 0.930 . S
C173 C169 1.407 . S
C173 C172 1.392 . S
N174 C172 1.420 . S
N174 C175 1.244 . S
C175 N174 1.244 . S
H176 C179 0.929 . S
H177 C182 0.929 . S
H178 C184 0.930 . S
C179 H176 0.929 . S
C179 C180 1.398 . S
C179 C181 1.396 . S
C180 C179 1.398 . S
C180 C184 1.407 . S
C181 C179 1.396 . S
C181 C182 1.394 . S
C182 H177 0.929 . S
C182 C181 1.394 . S
C182 C183 1.382 . S
C183 C182 1.382 . S
C183 C184 1.392 . S
C183 N185 1.420 . S
C184 H178 0.930 . S
C184 C180 1.407 . S
C184 C183 1.392 . S
N185 C183 1.420 . S
N185 C186 1.244 . S
C186 N185 1.244 . S
H187 C190 0.929 . S
H188 C193 0.929 . S
H189 C195 0.930 . S
C190 H187 0.929 . S
C190 C191 1.398 . S
C190 C192 1.396 . S
C191 C190 1.398 . S
C191 C195 1.407 . S
C192 C190 1.396 . S
C192 C193 1.394 . S
C193 H188 0.929 . S
C193 C192 1.394 . S
C193 C194 1.382 . S
C194 C193 1.382 . S
C194 C195 1.392 . S
C194 N196 1.420 . S
C195 H189 0.930 . S
C195 C191 1.407 . S
C195 C194 1.392 . S
N196 C194 1.420 . S
N196 C197 1.244 . S
C197 N196 1.244 . S
H198 C201 0.929 . S
H199 C204 0.929 . S
H200 C206 0.930 . S
C201 H198 0.929 . S
C201 C202 1.398 . S
C201 C203 1.396 . S
C202 C201 1.398 . S
C202 C206 1.407 . S
C203 C201 1.396 . S
C203 C204 1.394 . S
C204 H199 0.929 . S
C204 C203 1.394 . S
C204 C205 1.382 . S
C205 C204 1.382 . S
C205 C206 1.392 . S
C205 N207 1.420 . S
C206 H200 0.930 . S
C206 C202 1.407 . S
C206 C205 1.392 . S
N207 C205 1.420 . S
N207 C208 1.244 . S
C208 N207 1.244 . S
H209 C212 0.929 . S
H210 C215 0.929 . S
H211 C217 0.930 . S
C212 H209 0.929 . S
C212 C213 1.398 . S
C212 C214 1.396 . S
C213 C212 1.398 . S
C213 C217 1.407 . S
C214 C212 1.396 . S
C214 C215 1.394 . S
C215 H210 0.929 . S
C215 C214 1.394 . S
C215 C216 1.382 . S
C216 C215 1.382 . S
C216 C217 1.392 . S
C216 N218 1.420 . S
C217 H211 0.930 . S
C217 C213 1.407 . S
C217 C216 1.392 . S
N218 C216 1.420 . S
N218 C219 1.244 . S
C219 N218 1.244 . S
H220 C223 0.929 . S
H221 C226 0.929 . S
H222 C228 0.930 . S
C223 H220 0.929 . S
C223 C224 1.398 . S
C223 C225 1.396 . S
C224 C223 1.398 . S
C224 C228 1.407 . S
C225 C223 1.396 . S
C225 C226 1.394 . S
C226 H221 0.929 . S
C226 C225 1.394 . S
C226 C227 1.382 . S
C227 C226 1.382 . S
C227 C228 1.392 . S
C227 N229 1.420 . S
C228 H222 0.930 . S
C228 C224 1.407 . S
C228 C227 1.392 . S
N229 C227 1.420 . S
N229 C230 1.244 . S
C230 N229 1.244 . S
H231 C234 0.929 . S
H232 C237 0.929 . S
H233 C239 0.930 . S
C234 H231 0.929 . S
C234 C235 1.398 . S
C234 C236 1.396 . S
C235 C234 1.398 . S
C235 C239 1.407 . S
C236 C234 1.396 . S
C236 C237 1.394 . S
C237 H232 0.929 . S
C237 C236 1.394 . S
C237 C238 1.382 . S
C238 C237 1.382 . S
C238 C239 1.392 . S
C238 N240 1.420 . S
C239 H233 0.930 . S
C239 C235 1.407 . S
C239 C238 1.392 . S
N240 C238 1.420 . S
N240 C241 1.244 . S
C241 N240 1.244 . S
H242 C245 0.929 . S
H243 C248 0.929 . S
H244 C250 0.930 . S
C245 H242 0.929 . S
C245 C246 1.398 . S
C245 C247 1.396 . S
C246 C245 1.398 . S
C246 C250 1.407 . S
C247 C245 1.396 . S
C247 C248 1.394 . S
C248 H243 0.929 . S
C248 C247 1.394 . S
C248 C249 1.382 . S
C249 C248 1.382 . S
C249 C250 1.392 . S
C249 N251 1.420 . S
C250 H244 0.930 . S
C250 C246 1.407 . S
C250 C249 1.392 . S
N251 C249 1.420 . S
N251 C252 1.244 . S
C252 N251 1.244 . S
H253 C256 0.929 . S
H254 C259 0.929 . S
H255 C261 0.930 . S
C256 H253 0.929 . S
C256 C257 1.398 . S
C256 C258 1.396 . S
C257 C256 1.398 . S
C257 C261 1.407 . S
C258 C256 1.396 . S
C258 C259 1.394 . S
C259 H254 0.929 . S
C259 C258 1.394 . S
C259 C260 1.382 . S
C260 C259 1.382 . S
C260 C261 1.392 . S
C260 N262 1.420 . S
C261 H255 0.930 . S
C261 C257 1.407 . S
C261 C260 1.392 . S
N262 C260 1.420 . S
N262 C263 1.244 . S
C263 N262 1.244 . S
H264 C267 0.929 . S
H265 C270 0.929 . S
H266 C272 0.930 . S
C267 H264 0.929 . S
C267 C268 1.398 . S
C267 C269 1.396 . S
C268 C267 1.398 . S
C268 C272 1.407 . S
C269 C267 1.396 . S
C269 C270 1.394 . S
C270 H265 0.929 . S
C270 C269 1.394 . S
C270 C271 1.382 . S
C271 C270 1.382 . S
C271 C272 1.392 . S
C271 N273 1.420 . S
C272 H266 0.930 . S
C272 C268 1.407 . S
C272 C271 1.392 . S
N273 C271 1.420 . S
N273 C274 1.244 . S
C274 N273 1.244 . S
H275 C278 0.929 . S
H276 C281 0.929 . S
H277 C283 0.930 . S
C278 H275 0.929 . S
C278 C279 1.398 . S
C278 C280 1.396 . S
C279 C278 1.398 . S
C279 C283 1.407 . S
C280 C278 1.396 . S
C280 C281 1.394 . S
C281 H276 0.929 . S
C281 C280 1.394 . S
C281 C282 1.382 . S
C282 C281 1.382 . S
C282 C283 1.392 . S
C282 N284 1.420 . S
C283 H277 0.930 . S
C283 C279 1.407 . S
C283 C282 1.392 . S
N284 C282 1.420 . S
N284 C285 1.244 . S
C285 N284 1.244 . S
H286 C289 0.929 . S
H287 C292 0.929 . S
H288 C294 0.930 . S
C289 H286 0.929 . S
C289 C290 1.398 . S
C289 C291 1.396 . S
C290 C289 1.398 . S
C290 C294 1.407 . S
C291 C289 1.396 . S
C291 C292 1.394 . S
C292 H287 0.929 . S
C292 C291 1.394 . S
C292 C293 1.382 . S
C293 C292 1.382 . S
C293 C294 1.392 . S
C293 N295 1.420 . S
C294 H288 0.930 . S
C294 C290 1.407 . S
C294 C293 1.392 . S
N295 C293 1.420 . S
N295 C296 1.244 . S
C296 N295 1.244 . S
H297 C300 0.929 . S
H298 C303 0.929 . S
H299 C305 0.930 . S
C300 H297 0.929 . S
C300 C301 1.398 . S
C300 C302 1.396 . S
C301 C300 1.398 . S
C301 C305 1.407 . S
C302 C300 1.396 . S
C302 C303 1.394 . S
C303 H298 0.929 . S
C303 C302 1.394 . S
C303 C304 1.382 . S
C304 C303 1.382 . S
C304 C305 1.392 . S
C304 N306 1.420 . S
C305 H299 0.930 . S
C305 C301 1.407 . S
C305 C304 1.392 . S
N306 C304 1.420 . S
N306 C307 1.244 . S
C307 N306 1.244 . S
H308 C311 0.929 . S
H309 C314 0.929 . S
H310 C316 0.930 . S
C311 H308 0.929 . S
C311 C312 1.398 . S
C311 C313 1.396 . S
C312 C311 1.398 . S
C312 C316 1.407 . S
C313 C311 1.396 . S
C313 C314 1.394 . S
C314 H309 0.929 . S
C314 C313 1.394 . S
C314 C315 1.382 . S
C315 C314 1.382 . S
C315 C316 1.392 . S
C315 N317 1.420 . S
C316 H310 0.930 . S
C316 C312 1.407 . S
C316 C315 1.392 . S
N317 C315 1.420 . S
N317 C318 1.244 . S
C318 N317 1.244 . S
H319 C322 0.929 . S
H320 C325 0.929 . S
H321 C327 0.930 . S
C322 H319 0.929 . S
C322 C323 1.398 . S
C322 C324 1.396 . S
C323 C322 1.398 . S
C323 C327 1.407 . S
C324 C322 1.396 . S
C324 C325 1.394 . S
C325 H320 0.929 . S
C325 C324 1.394 . S
C325 C326 1.382 . S
C326 C325 1.382 . S
C326 C327 1.392 . S
C326 N328 1.420 . S
C327 H321 0.930 . S
C327 C323 1.407 . S
C327 C326 1.392 . S
N328 C326 1.420 . S
N328 C329 1.244 . S
C329 N328 1.244 . S
H330 C333 0.929 . S
H331 C336 0.929 . S
H332 C338 0.930 . S
C333 H330 0.929 . S
C333 C334 1.398 . S
C333 C335 1.396 . S
C334 C333 1.398 . S
C334 C338 1.407 . S
C335 C333 1.396 . S
C335 C336 1.394 . S
C336 H331 0.929 . S
C336 C335 1.394 . S
C336 C337 1.382 . S
C337 C336 1.382 . S
C337 C338 1.392 . S
C337 N339 1.420 . S
C338 H332 0.930 . S
C338 C334 1.407 . S
C338 C337 1.392 . S
N339 C337 1.420 . S
N339 C340 1.244 . S
C340 N339 1.244 . S
H341 C344 0.929 . S
H342 C347 0.929 . S
H343 C349 0.930 . S
C344 H341 0.929 . S
C344 C345 1.398 . S
C344 C346 1.396 . S
C345 C344 1.398 . S
C345 C349 1.407 . S
C346 C344 1.396 . S
C346 C347 1.394 . S
C347 H342 0.929 . S
C347 C346 1.394 . S
C347 C348 1.382 . S
C348 C347 1.382 . S
C348 C349 1.392 . S
C348 N350 1.420 . S
C349 H343 0.930 . S
C349 C345 1.407 . S
C349 C348 1.392 . S
N350 C348 1.420 . S
N350 C351 1.244 . S
C351 N350 1.244 . S
Cu352 N353 1.999 . S
Cu352 O358 1.974 1_554 S
Cu352 N363 1.985 . S
Cu352 O372 1.959 . S
N353 Cu352 1.999 . S
N353 C355 1.263 1_554 S
N353 C357 1.389 . S
N354 C355 1.358 . S
N354 C356 1.400 . S
C355 N353 1.263 1_556 S
C355 N354 1.358 . S
C355 H361 0.930 . S
C356 N354 1.400 . S
C356 C357 1.351 1_556 S
C356 H373 0.930 . S
C357 N353 1.389 . S
C357 C356 1.351 1_554 S
C357 H362 0.930 . S
O358 Cu352 1.974 1_556 S
O358 C368 1.282 . S
C359 O360 1.261 . S
C359 O372 1.251 . S
O360 C359 1.261 . S
H361 C355 0.930 . S
H362 C357 0.930 . S
N363 Cu352 1.985 . S
N363 C365 1.335 . S
N363 C366 1.390 . S
N364 C365 1.345 . S
N364 C367 1.336 . S
C365 N363 1.335 . S
C365 N364 1.345 . S
C365 H370 0.930 . S
C366 N363 1.390 . S
C366 C367 1.346 . S
C366 H371 0.930 . S
C367 N364 1.336 . S
C367 C366 1.346 . S
C367 H374 0.929 . S
C368 O358 1.282 . S
C368 O369 1.216 . S
O369 C368 1.216 . S
H370 C365 0.930 . S
H371 C366 0.930 . S
O372 Cu352 1.959 . S
O372 C359 1.251 . S
H373 C356 0.930 . S
H374 C367 0.929 . S
Cu375 N376 1.999 . S
Cu375 O381 1.974 . S
Cu375 N386 1.985 . S
Cu375 O395 1.959 1_554 S
N376 Cu375 1.999 . S
N376 C378 1.263 . S
N376 C380 1.389 . S
N377 C378 1.358 . S
N377 C379 1.400 . S
C378 N376 1.263 . S
C378 N377 1.358 . S
C378 H384 0.930 . S
C379 N377 1.400 . S
C379 C380 1.351 . S
C379 H396 0.930 . S
C380 N376 1.389 . S
C380 C379 1.351 . S
C380 H385 0.930 . S
O381 Cu375 1.974 . S
O381 C391 1.282 . S
C382 O383 1.263 1_556 S
C382 O395 1.251 . S
O383 C382 1.263 1_554 S
H384 C378 0.930 . S
H385 C380 0.930 . S
N386 Cu375 1.985 . S
N386 C388 1.335 1_554 S
N386 C389 1.390 . S
N387 C388 1.345 . S
N387 C390 1.336 . S
C388 N386 1.335 1_556 S
C388 N387 1.345 . S
C388 H393 0.930 . S
C389 N386 1.390 . S
C389 C390 1.346 1_554 S
C389 H394 0.930 . S
C390 N387 1.336 . S
C390 C389 1.346 1_556 S
C390 H397 0.929 . S
C391 O381 1.282 . S
C391 O392 1.216 . S
O392 C391 1.216 . S
H393 C388 0.930 . S
H394 C389 0.930 . S
O395 Cu375 1.959 1_556 S
O395 C382 1.251 . S
H396 C379 0.930 . S
H397 C390 0.929 . S
Cu398 N399 1.999 1_554 S
Cu398 O404 1.974 1_554 S
Cu398 N409 1.985 . S
Cu398 O418 1.959 . S
N399 Cu398 1.999 1_556 S
N399 C401 1.263 . S
N399 C403 1.389 . S
N400 C401 1.358 . S
N400 C402 1.400 . S
C401 N399 1.263 . S
C401 N400 1.358 . S
C401 H407 0.930 . S
C402 N400 1.400 . S
C402 C403 1.351 . S
C402 H419 0.930 . S
C403 N399 1.389 . S
C403 C402 1.351 . S
C403 H408 0.930 1_556 S
O404 Cu398 1.974 1_556 S
O404 C414 1.282 . S
C405 O406 1.261 . S
C405 O418 1.251 . S
O406 C405 1.261 . S
H407 C401 0.930 . S
H408 C403 0.930 1_554 S
N409 Cu398 1.985 . S
N409 C411 1.335 . S
N409 C412 1.390 . S
N410 C411 1.345 . S
N410 C413 1.336 . S
C411 N409 1.335 . S
C411 N410 1.345 . S
C411 H416 0.930 . S
C412 N409 1.390 . S
C412 C413 1.346 . S
C412 H417 0.930 . S
C413 N410 1.336 . S
C413 C412 1.346 . S
C413 H420 0.929 . S
C414 O404 1.282 . S
C414 O415 1.216 . S
O415 C414 1.216 . S
H416 C411 0.930 . S
H417 C412 0.930 . S
O418 Cu398 1.959 . S
O418 C405 1.251 . S
H419 C402 0.930 . S
H420 C413 0.929 . S
Cu421 N422 1.999 . S
Cu421 O427 1.974 . S
Cu421 N432 1.985 1_554 S
Cu421 O441 1.959 1_554 S
N422 Cu421 1.999 . S
N422 C424 1.263 . S
N422 C426 1.389 . S
N423 C424 1.358 . S
N423 C425 1.400 . S
C424 N422 1.263 . S
C424 N423 1.358 . S
C424 H430 0.930 . S
C425 N423 1.400 . S
C425 C426 1.351 . S
C425 H442 0.930 . S
C426 N422 1.389 . S
C426 C425 1.351 . S
C426 H431 0.930 . S
O427 Cu421 1.974 . S
O427 C437 1.282 . S
C428 O429 1.261 . S
C428 O441 1.251 . S
O429 C428 1.261 . S
H430 C424 0.930 . S
H431 C426 0.930 . S
N432 Cu421 1.985 1_556 S
N432 C434 1.335 . S
N432 C435 1.390 . S
N433 C434 1.345 . S
N433 C436 1.336 . S
C434 N432 1.335 . S
C434 N433 1.345 . S
C434 H439 0.930 . S
C435 N432 1.390 . S
C435 C436 1.346 . S
C435 H440 0.930 1_556 S
C436 N433 1.336 . S
C436 C435 1.346 . S
C436 H443 0.929 . S
C437 O427 1.282 . S
C437 O438 1.216 . S
O438 C437 1.216 . S
H439 C434 0.930 . S
H440 C435 0.930 1_554 S
O441 Cu421 1.959 1_556 S
O441 C428 1.251 . S
H442 C425 0.930 . S
H443 C436 0.929 . S
Cu444 N445 1.999 . S
Cu444 O450 1.974 . S
Cu444 N455 1.985 . S
Cu444 O464 1.959 1_455 S
N445 Cu444 1.999 . S
N445 C447 1.263 . S
N445 C449 1.389 . S
N446 C447 1.358 . S
N446 C448 1.400 . S
C447 N445 1.263 . S
C447 N446 1.358 . S
C447 H453 0.930 . S
C448 N446 1.400 . S
C448 C449 1.351 . S
C448 H465 0.930 . S
C449 N445 1.389 . S
C449 C448 1.351 . S
C449 H454 0.930 . S
O450 Cu444 1.974 . S
O450 C460 1.282 . S
C451 O452 1.261 . S
C451 O464 1.251 . S
O452 C451 1.261 . S
H453 C447 0.930 . S
H454 C449 0.930 . S
N455 Cu444 1.985 . S
N455 C457 1.335 1_455 S
N455 C458 1.390 . S
N456 C457 1.345 . S
N456 C459 1.336 . S
C457 N455 1.335 1_655 S
C457 N456 1.345 . S
C457 H462 0.930 . S
C458 N455 1.390 . S
C458 C459 1.346 1_455 S
C458 H463 0.930 . S
C459 N456 1.336 . S
C459 C458 1.346 1_655 S
C459 H466 0.929 . S
C460 O450 1.282 . S
C460 O461 1.216 . S
O461 C460 1.216 . S
H462 C457 0.930 . S
H463 C458 0.930 . S
O464 Cu444 1.959 1_655 S
O464 C451 1.251 . S
H465 C448 0.930 . S
H466 C459 0.929 . S
Cu467 N468 1.999 . S
Cu467 O473 1.974 . S
Cu467 N478 1.985 1_545 S
Cu467 O487 1.959 1_545 S
N468 Cu467 1.999 . S
N468 C470 1.263 . S
N468 C472 1.389 . S
N469 C470 1.358 . S
N469 C471 1.400 . S
C470 N468 1.263 . S
C470 N469 1.358 . S
C470 H476 0.930 . S
C471 N469 1.400 . S
C471 C472 1.351 . S
C471 H488 0.930 . S
C472 N468 1.389 . S
C472 C471 1.351 . S
C472 H477 0.930 . S
O473 Cu467 1.974 . S
O473 C483 1.282 . S
C474 O475 1.261 . S
C474 O487 1.251 . S
O475 C474 1.261 . S
H476 C470 0.930 . S
H477 C472 0.930 . S
N478 Cu467 1.985 1_565 S
N478 C480 1.335 . S
N478 C481 1.390 . S
N479 C480 1.345 . S
N479 C482 1.336 . S
C480 N478 1.335 . S
C480 N479 1.345 . S
C480 H485 0.930 . S
C481 N478 1.390 . S
C481 C482 1.346 . S
C481 H486 0.917 1_565 S
C482 N479 1.336 . S
C482 C481 1.346 . S
C482 H489 0.929 . S
C483 O473 1.282 . S
C483 O484 1.216 . S
O484 C483 1.216 . S
H485 C480 0.930 . S
H486 C481 0.917 1_545 S
O487 Cu467 1.959 1_565 S
O487 C474 1.251 . S
H488 C471 0.930 . S
H489 C482 0.929 . S
Cu490 N491 1.999 . S
Cu490 O496 1.974 . S
Cu490 N501 1.985 1_655 S
Cu490 O510 1.959 1_655 S
N491 Cu490 1.999 . S
N491 C493 1.263 . S
N491 C495 1.389 . S
N492 C493 1.358 . S
N492 C494 1.400 . S
C493 N491 1.263 . S
C493 N492 1.358 . S
C493 H499 0.930 . S
C494 N492 1.400 . S
C494 C495 1.351 . S
C494 H511 0.930 . S
C495 N491 1.389 . S
C495 C494 1.351 . S
C495 H500 0.930 . S
O496 Cu490 1.974 . S
O496 C506 1.282 . S
C497 O498 1.261 . S
C497 O510 1.251 . S
O498 C497 1.261 . S
H499 C493 0.930 . S
H500 C495 0.930 . S
N501 Cu490 1.985 1_455 S
N501 C503 1.335 . S
N501 C504 1.390 . S
N502 C503 1.345 . S
N502 C505 1.336 . S
C503 N501 1.335 . S
C503 N502 1.345 . S
C503 H508 0.930 . S
C504 N501 1.390 . S
C504 C505 1.346 . S
C504 H509 0.900 1_455 S
C505 N502 1.336 . S
C505 C504 1.346 . S
C505 H512 0.929 . S
C506 O496 1.282 . S
C506 O507 1.216 . S
O507 C506 1.216 . S
H508 C503 0.930 . S
H509 C504 0.900 1_655 S
O510 Cu490 1.959 1_455 S
O510 C497 1.251 . S
H511 C494 0.930 . S
H512 C505 0.929 . S
Cu513 N514 1.999 . S
Cu513 O519 1.974 . S
Cu513 N524 1.985 1_545 S
Cu513 O533 1.959 1_545 S
N514 Cu513 1.999 . S
N514 C516 1.263 . S
N514 C518 1.389 . S
N515 C516 1.358 . S
N515 C517 1.400 . S
C516 N514 1.263 . S
C516 N515 1.358 . S
C516 H522 0.930 . S
C517 N515 1.400 . S
C517 C518 1.351 . S
C517 H534 0.930 . S
C518 N514 1.389 . S
C518 C517 1.351 . S
C518 H523 0.930 . S
O519 Cu513 1.974 . S
O519 C529 1.282 . S
C520 O521 1.261 . S
C520 O533 1.251 . S
O521 C520 1.261 . S
H522 C516 0.930 . S
H523 C518 0.930 . S
N524 Cu513 1.985 1_565 S
N524 C526 1.335 . S
N524 C527 1.390 . S
N525 C526 1.345 . S
N525 C528 1.336 . S
C526 N524 1.335 . S
C526 N525 1.345 . S
C526 H531 0.930 . S
C527 N524 1.390 . S
C527 C528 1.346 . S
C527 H532 0.930 . S
C528 N525 1.336 . S
C528 C527 1.346 . S
C528 H535 0.929 . S
C529 O519 1.282 . S
C529 O530 1.216 . S
O530 C529 1.216 . S
H531 C526 0.930 . S
H532 C527 0.930 . S
O533 Cu513 1.959 1_565 S
O533 C520 1.251 . S
H534 C517 0.930 . S
H535 C528 0.929 . S
Cu536 N537 1.999 . S
Cu536 O542 1.974 . S
Cu536 N547 1.985 . S
Cu536 O556 1.959 1_455 S
N537 Cu536 1.999 . S
N537 C539 1.263 . S
N537 C541 1.389 . S
N538 C539 1.358 . S
N538 C540 1.400 . S
C539 N537 1.263 . S
C539 N538 1.358 . S
C539 H545 0.930 . S
C540 N538 1.400 . S
C540 C541 1.351 . S
C540 H557 0.930 . S
C541 N537 1.389 . S
C541 C540 1.351 . S
C541 H546 0.930 . S
O542 Cu536 1.974 . S
O542 C552 1.282 . S
C543 O544 1.261 . S
C543 O556 1.251 . S
O544 C543 1.261 . S
H545 C539 0.930 . S
H546 C541 0.930 . S
N547 Cu536 1.985 . S
N547 C549 1.335 1_455 S
N547 C550 1.390 . S
N548 C549 1.345 . S
N548 C551 1.336 . S
C549 N547 1.335 1_655 S
C549 N548 1.345 . S
C549 H554 0.930 . S
C550 N547 1.390 . S
C550 C551 1.346 1_455 S
C550 H555 0.930 . S
C551 N548 1.336 . S
C551 C550 1.346 1_655 S
C551 H558 0.929 . S
C552 O542 1.282 . S
C552 O553 1.216 . S
O553 C552 1.216 . S
H554 C549 0.930 . S
H555 C550 0.930 . S
O556 Cu536 1.959 1_655 S
O556 C543 1.251 . S
H557 C540 0.930 . S
H558 C551 0.929 . S
Cu559 N560 1.999 . S
Cu559 O565 1.974 . S
Cu559 N570 1.985 1_545 S
Cu559 O579 1.959 1_545 S
N560 Cu559 1.999 . S
N560 C562 1.263 . S
N560 C564 1.389 . S
N561 C562 1.358 . S
N561 C563 1.400 . S
C562 N560 1.263 . S
C562 N561 1.358 . S
C562 H568 0.930 . S
C563 N561 1.400 . S
C563 C564 1.351 . S
C563 H580 0.930 . S
C564 N560 1.389 . S
C564 C563 1.351 . S
C564 H569 0.930 . S
O565 Cu559 1.974 . S
O565 C575 1.282 . S
C566 O567 1.261 1_565 S
C566 O579 1.251 . S
O567 C566 1.261 1_545 S
H568 C562 0.930 . S
H569 C564 0.930 . S
N570 Cu559 1.985 1_565 S
N570 C572 1.335 . S
N570 C573 1.390 . S
N571 C572 1.345 . S
N571 C574 1.336 . S
C572 N570 1.335 . S
C572 N571 1.345 . S
C572 H577 0.930 . S
C573 N570 1.390 . S
C573 C574 1.346 . S
C573 H578 0.930 1_565 S
C574 N571 1.336 . S
C574 C573 1.346 . S
C574 H581 0.929 . S
C575 O565 1.282 . S
C575 O576 1.216 . S
O576 C575 1.216 . S
H577 C572 0.930 . S
H578 C573 0.930 1_545 S
O579 Cu559 1.959 1_565 S
O579 C566 1.251 . S
H580 C563 0.930 . S
H581 C574 0.929 . S
Cu582 N583 1.999 . S
Cu582 O588 1.974 . S
Cu582 N593 1.985 . S
Cu582 O602 1.959 . S
N583 Cu582 1.999 . S
N583 C585 1.263 1_455 S
N583 C587 1.389 . S
N584 C585 1.358 . S
N584 C586 1.399 1_655 S
C585 N583 1.263 1_655 S
C585 N584 1.358 . S
C585 H591 0.930 . S
C586 N584 1.399 1_455 S
C586 C587 1.352 . S
C586 H603 0.930 1_455 S
C587 N583 1.389 . S
C587 C586 1.352 . S
C587 H592 0.930 . S
O588 Cu582 1.974 . S
O588 C598 1.295 . S
C589 O590 1.261 . S
C589 O602 1.251 . S
O590 C589 1.261 . S
H591 C585 0.930 . S
H592 C587 0.930 . S
N593 Cu582 1.985 . S
N593 C595 1.335 . S
N593 C596 1.390 . S
N594 C595 1.345 . S
N594 C597 1.336 . S
C595 N593 1.335 . S
C595 N594 1.345 . S
C595 H600 0.930 . S
C596 N593 1.390 . S
C596 C597 1.346 . S
C596 H601 0.930 . S
C597 N594 1.336 . S
C597 C596 1.346 . S
C597 H604 0.929 . S
C598 O588 1.295 . S
C598 O599 1.227 . S
O599 C598 1.227 . S
H600 C595 0.930 . S
H601 C596 0.930 . S
O602 Cu582 1.959 . S
O602 C589 1.251 . S
H603 C586 0.930 1_655 S
H604 C597 0.929 . S
Cu605 N606 1.999 . S
Cu605 O611 1.974 . S
Cu605 N616 1.999 . S
Cu605 O625 1.959 . S
N606 Cu605 1.999 . S
N606 C608 1.263 . S
N606 C610 1.389 . S
N607 C608 1.358 . S
N607 C609 1.400 . S
C608 N606 1.263 . S
C608 N607 1.358 . S
C608 H614 0.930 . S
C609 N607 1.400 . S
C609 C610 1.351 . S
C609 H626 0.930 . S
C610 N606 1.389 . S
C610 C609 1.351 . S
C610 H615 0.930 . S
O611 Cu605 1.974 . S
O611 C621 1.282 . S
C612 O613 1.261 1_565 S
C612 O625 1.251 1_565 S
O613 C612 1.261 1_545 S
H614 C608 0.930 . S
H615 C610 0.930 . S
N616 Cu605 1.999 . S
N616 C618 1.312 1_545 S
N616 C619 1.387 . S
N617 C618 1.345 . S
N617 C620 1.336 . S
C618 N616 1.312 1_565 S
C618 N617 1.345 . S
C618 H623 0.930 . S
C619 N616 1.387 . S
C619 C620 1.314 1_545 S
C619 H624 0.965 . S
C620 N617 1.336 . S
C620 C619 1.314 1_565 S
C620 H627 0.929 . S
C621 O611 1.282 . S
C621 O622 1.216 . S
O622 C621 1.216 . S
H623 C618 0.930 . S
H624 C619 0.965 . S
O625 Cu605 1.959 . S
O625 C612 1.251 1_545 S
H626 C609 0.930 . S
H627 C620 0.929 . S
Cu628 N629 1.999 . S
Cu628 O634 1.974 . S
Cu628 N639 1.985 . S
Cu628 O648 1.959 . S
N629 Cu628 1.999 . S
N629 C631 1.263 . S
N629 C633 1.389 . S
N630 C631 1.358 . S
N630 C632 1.400 . S
C631 N629 1.263 . S
C631 N630 1.358 . S
C631 H637 0.930 . S
C632 N630 1.400 . S
C632 C633 1.351 . S
C632 H649 0.930 . S
C633 N629 1.389 . S
C633 C632 1.351 . S
C633 H638 0.930 . S
O634 Cu628 1.974 . S
O634 C644 1.282 . S
C635 O636 1.261 . S
C635 O648 1.251 . S
O636 C635 1.261 . S
H637 C631 0.930 . S
H638 C633 0.930 . S
N639 Cu628 1.985 . S
N639 C641 1.335 . S
N639 C642 1.390 . S
N640 C641 1.345 . S
N640 C643 1.336 . S
C641 N639 1.335 . S
C641 N640 1.345 . S
C641 H646 0.930 . S
C642 N639 1.390 . S
C642 C643 1.346 . S
C642 H647 0.930 . S
C643 N640 1.336 . S
C643 C642 1.346 . S
C643 H650 0.929 . S
C644 O634 1.282 . S
C644 O645 1.216 . S
O645 C644 1.216 . S
H646 C641 0.930 . S
H647 C642 0.930 . S
O648 Cu628 1.959 . S
O648 C635 1.251 . S
H649 C632 0.930 . S
H650 C643 0.929 . S
Cu651 N652 1.999 . S
Cu651 O657 1.974 . S
Cu651 N662 1.985 . S
Cu651 O671 1.959 . S
N652 Cu651 1.999 . S
N652 C654 1.263 . S
N652 C656 1.389 . S
N653 C654 1.358 . S
N653 C655 1.400 . S
C654 N652 1.263 . S
C654 N653 1.358 . S
C654 H660 0.930 . S
C655 N653 1.400 . S
C655 C656 1.351 . S
C655 H672 0.930 . S
C656 N652 1.389 . S
C656 C655 1.351 . S
C656 H661 0.930 . S
O657 Cu651 1.974 . S
O657 C667 1.282 . S
C658 O659 1.261 . S
C658 O671 1.251 . S
O659 C658 1.261 . S
H660 C654 0.930 . S
H661 C656 0.930 . S
N662 Cu651 1.985 . S
N662 C664 1.335 . S
N662 C665 1.390 . S
N663 C664 1.345 . S
N663 C666 1.336 . S
C664 N662 1.335 . S
C664 N663 1.345 . S
C664 H669 0.930 . S
C665 N662 1.390 . S
C665 C666 1.346 . S
C665 H670 0.930 . S
C666 N663 1.336 . S
C666 C665 1.346 . S
C666 H673 0.929 . S
C667 O657 1.282 . S
C667 O668 1.216 . S
O668 C667 1.216 . S
H669 C664 0.930 . S
H670 C665 0.930 . S
O671 Cu651 1.959 . S
O671 C658 1.251 . S
H672 C655 0.930 . S
H673 C666 0.929 . S
Cu674 N675 1.999 . S
Cu674 O680 1.974 . S
Cu674 N685 1.985 . S
Cu674 O694 1.959 . S
N675 Cu674 1.999 . S
N675 C677 1.263 . S
N675 C679 1.389 . S
N676 C677 1.358 . S
N676 C678 1.400 . S
C677 N675 1.263 . S
C677 N676 1.358 . S
C677 H683 0.930 . S
C678 N676 1.400 . S
C678 C679 1.351 . S
C678 H695 0.930 . S
C679 N675 1.389 . S
C679 C678 1.351 . S
C679 H684 0.930 . S
O680 Cu674 1.974 . S
O680 C690 1.282 . S
C681 O682 1.261 . S
C681 O694 1.251 . S
O682 C681 1.261 . S
H683 C677 0.930 . S
H684 C679 0.930 . S
N685 Cu674 1.985 . S
N685 C687 1.335 . S
N685 C688 1.390 . S
N686 C687 1.345 . S
N686 C689 1.336 . S
C687 N685 1.335 . S
C687 N686 1.345 . S
C687 H692 0.930 . S
C688 N685 1.390 . S
C688 C689 1.346 . S
C688 H693 0.930 . S
C689 N686 1.336 . S
C689 C688 1.346 . S
C689 H696 0.929 . S
C690 O680 1.282 . S
C690 O691 1.216 . S
O691 C690 1.216 . S
H692 C687 0.930 . S
H693 C688 0.930 . S
O694 Cu674 1.959 . S
O694 C681 1.251 . S
H695 C678 0.930 . S
H696 C689 0.929 . S
Cu697 N698 1.999 . S
Cu697 O703 1.974 . S
Cu697 N708 1.985 . S
Cu697 O717 1.959 . S
N698 Cu697 1.999 . S
N698 C700 1.263 . S
N698 C702 1.389 . S
N699 C700 1.358 . S
N699 C701 1.400 . S
C700 N698 1.263 . S
C700 N699 1.358 . S
C700 H706 0.930 . S
C701 N699 1.400 . S
C701 C702 1.351 . S
C701 H718 0.930 . S
C702 N698 1.389 . S
C702 C701 1.351 . S
C702 H707 0.930 . S
O703 Cu697 1.974 . S
O703 C713 1.282 . S
C704 O705 1.261 . S
C704 O717 1.251 . S
O705 C704 1.261 . S
H706 C700 0.930 . S
H707 C702 0.930 . S
N708 Cu697 1.985 . S
N708 C710 1.335 . S
N708 C711 1.390 . S
N709 C710 1.345 . S
N709 C712 1.336 . S
C710 N708 1.335 . S
C710 N709 1.345 . S
C710 H715 0.930 . S
C711 N708 1.390 . S
C711 C712 1.346 . S
C711 H716 0.930 . S
C712 N709 1.336 . S
C712 C711 1.346 . S
C712 H719 0.929 . S
C713 O703 1.282 . S
C713 O714 1.216 . S
O714 C713 1.216 . S
H715 C710 0.930 . S
H716 C711 0.930 . S
O717 Cu697 1.959 . S
O717 C704 1.251 . S
H718 C701 0.930 . S
H719 C712 0.929 . S
Cu720 N721 1.999 . S
Cu720 O726 1.974 . S
Cu720 N731 1.985 . S
Cu720 O740 1.959 . S
N721 Cu720 1.999 . S
N721 C723 1.263 . S
N721 C725 1.389 . S
N722 C723 1.358 . S
N722 C724 1.400 . S
C723 N721 1.263 . S
C723 N722 1.358 . S
C723 H729 0.930 . S
C724 N722 1.400 . S
C724 C725 1.351 . S
C724 H741 0.930 . S
C725 N721 1.389 . S
C725 C724 1.351 . S
C725 H730 0.930 . S
O726 Cu720 1.974 . S
O726 C736 1.282 . S
C727 O728 1.261 . S
C727 O740 1.251 . S
O728 C727 1.261 . S
H729 C723 0.930 . S
H730 C725 0.930 . S
N731 Cu720 1.985 . S
N731 C733 1.335 . S
N731 C734 1.390 . S
N732 C733 1.345 . S
N732 C735 1.336 . S
C733 N731 1.335 . S
C733 N732 1.345 . S
C733 H738 0.930 . S
C734 N731 1.390 . S
C734 C735 1.346 . S
C734 H739 0.930 . S
C735 N732 1.336 . S
C735 C734 1.346 . S
C735 H742 0.929 . S
C736 O726 1.282 . S
C736 O737 1.216 . S
O737 C736 1.216 . S
H738 C733 0.930 . S
H739 C734 0.930 . S
O740 Cu720 1.959 . S
O740 C727 1.251 . S
H741 C724 0.930 . S
H742 C735 0.929 . S
Cu743 N744 1.999 . S
Cu743 O749 1.974 . S
Cu743 N754 1.985 . S
Cu743 O763 1.959 . S
N744 Cu743 1.999 . S
N744 C746 1.263 . S
N744 C748 1.389 . S
N745 C746 1.358 . S
N745 C747 1.400 . S
C746 N744 1.263 . S
C746 N745 1.358 . S
C746 H752 0.930 . S
C747 N745 1.400 . S
C747 C748 1.351 . S
C747 H764 0.930 . S
C748 N744 1.389 . S
C748 C747 1.351 . S
C748 H753 0.930 . S
O749 Cu743 1.974 . S
O749 C759 1.282 . S
C750 O751 1.261 . S
C750 O763 1.251 . S
O751 C750 1.261 . S
H752 C746 0.930 . S
H753 C748 0.930 . S
N754 Cu743 1.985 . S
N754 C756 1.335 . S
N754 C757 1.390 . S
N755 C756 1.345 . S
N755 C758 1.336 . S
C756 N754 1.335 . S
C756 N755 1.345 . S
C756 H761 0.930 . S
C757 N754 1.390 . S
C757 C758 1.346 . S
C757 H762 0.930 . S
C758 N755 1.336 . S
C758 C757 1.346 . S
C758 H765 0.929 . S
C759 O749 1.282 . S
C759 O760 1.216 . S
O760 C759 1.216 . S
H761 C756 0.930 . S
H762 C757 0.930 . S
O763 Cu743 1.959 . S
O763 C750 1.251 . S
H764 C747 0.930 . S
H765 C758 0.929 . S
Cu766 N767 1.999 . S
Cu766 O772 1.974 . S
Cu766 N777 1.985 . S
Cu766 O786 1.959 . S
N767 Cu766 1.999 . S
N767 C769 1.263 . S
N767 C771 1.389 . S
N768 C769 1.358 . S
N768 C770 1.400 . S
C769 N767 1.263 . S
C769 N768 1.358 . S
C769 H775 0.930 . S
C770 N768 1.400 . S
C770 C771 1.351 . S
C770 H787 0.930 . S
C771 N767 1.389 . S
C771 C770 1.351 . S
C771 H776 0.930 . S
O772 Cu766 1.974 . S
O772 C782 1.282 . S
C773 O774 1.261 . S
C773 O786 1.251 . S
O774 C773 1.261 . S
H775 C769 0.930 . S
H776 C771 0.930 . S
N777 Cu766 1.985 . S
N777 C779 1.335 . S
N777 C780 1.390 . S
N778 C779 1.345 . S
N778 C781 1.336 . S
C779 N777 1.335 . S
C779 N778 1.345 . S
C779 H784 0.930 . S
C780 N777 1.390 . S
C780 C781 1.346 . S
C780 H785 0.930 . S
C781 N778 1.336 . S
C781 C780 1.346 . S
C781 H788 0.929 . S
C782 O772 1.282 . S
C782 O783 1.216 . S
O783 C782 1.216 . S
H784 C779 0.930 . S
H785 C780 0.930 . S
O786 Cu766 1.959 . S
O786 C773 1.251 . S
H787 C770 0.930 . S
H788 C781 0.929 . S
Cu789 N790 1.999 . S
Cu789 O795 1.974 . S
Cu789 N800 1.985 . S
Cu789 O809 1.959 . S
N790 Cu789 1.999 . S
N790 C792 1.263 . S
N790 C794 1.389 . S
N791 C792 1.358 . S
N791 C793 1.400 . S
C792 N790 1.263 . S
C792 N791 1.358 . S
C792 H798 0.930 . S
C793 N791 1.400 . S
C793 C794 1.351 . S
C793 H810 0.930 . S
C794 N790 1.389 . S
C794 C793 1.351 . S
C794 H799 0.930 . S
O795 Cu789 1.974 . S
O795 C805 1.282 . S
C796 O797 1.261 . S
C796 O809 1.251 . S
O797 C796 1.261 . S
H798 C792 0.930 . S
H799 C794 0.930 . S
N800 Cu789 1.985 . S
N800 C802 1.335 . S
N800 C803 1.390 . S
N801 C802 1.345 . S
N801 C804 1.336 . S
C802 N800 1.335 . S
C802 N801 1.345 . S
C802 H807 0.930 . S
C803 N800 1.390 . S
C803 C804 1.346 . S
C803 H808 0.930 . S
C804 N801 1.336 . S
C804 C803 1.346 . S
C804 H811 0.929 . S
C805 O795 1.282 . S
C805 O806 1.216 . S
O806 C805 1.216 . S
H807 C802 0.930 . S
H808 C803 0.930 . S
O809 Cu789 1.959 . S
O809 C796 1.251 . S
H810 C793 0.930 . S
H811 C804 0.929 . S
Cu812 N813 1.999 . S
Cu812 O818 1.974 . S
Cu812 N823 1.985 . S
Cu812 O832 1.959 . S
N813 Cu812 1.999 . S
N813 C815 1.263 . S
N813 C817 1.389 . S
N814 C815 1.358 . S
N814 C816 1.400 . S
C815 N813 1.263 . S
C815 N814 1.358 . S
C815 H821 0.930 . S
C816 N814 1.400 . S
C816 C817 1.351 . S
C816 H833 0.930 . S
C817 N813 1.389 . S
C817 C816 1.351 . S
C817 H822 0.930 . S
O818 Cu812 1.974 . S
O818 C828 1.282 . S
C819 O820 1.261 . S
C819 O832 1.251 . S
O820 C819 1.261 . S
H821 C815 0.930 . S
H822 C817 0.930 . S
N823 Cu812 1.985 . S
N823 C825 1.335 . S
N823 C826 1.390 . S
N824 C825 1.345 . S
N824 C827 1.336 . S
C825 N823 1.335 . S
C825 N824 1.345 . S
C825 H830 0.930 . S
C826 N823 1.390 . S
C826 C827 1.346 . S
C826 H831 0.930 . S
C827 N824 1.336 . S
C827 C826 1.346 . S
C827 H834 0.929 . S
C828 O818 1.282 . S
C828 O829 1.216 . S
O829 C828 1.216 . S
H830 C825 0.930 . S
H831 C826 0.930 . S
O832 Cu812 1.959 . S
O832 C819 1.251 . S
H833 C816 0.930 . S
H834 C827 0.929 . S
Cu835 N836 1.999 . S
Cu835 O841 1.974 . S
Cu835 N846 1.985 . S
Cu835 O855 1.959 . S
N836 Cu835 1.999 . S
N836 C838 1.263 . S
N836 C840 1.389 . S
N837 C838 1.358 . S
N837 C839 1.400 . S
C838 N836 1.263 . S
C838 N837 1.358 . S
C838 H844 0.930 . S
C839 N837 1.400 . S
C839 C840 1.351 . S
C839 H856 0.930 . S
C840 N836 1.389 . S
C840 C839 1.351 . S
C840 H845 0.930 . S
O841 Cu835 1.974 . S
O841 C851 1.282 . S
C842 O843 1.261 . S
C842 O855 1.251 . S
O843 C842 1.261 . S
H844 C838 0.930 . S
H845 C840 0.930 . S
N846 Cu835 1.985 . S
N846 C848 1.335 . S
N846 C849 1.390 . S
N847 C848 1.345 . S
N847 C850 1.336 . S
C848 N846 1.335 . S
C848 N847 1.345 . S
C848 H853 0.930 . S
C849 N846 1.390 . S
C849 C850 1.346 . S
C849 H854 0.930 . S
C850 N847 1.336 . S
C850 C849 1.346 . S
C850 H857 0.929 . S
C851 O841 1.282 . S
C851 O852 1.216 . S
O852 C851 1.216 . S
H853 C848 0.930 . S
H854 C849 0.930 . S
O855 Cu835 1.959 . S
O855 C842 1.251 . S
H856 C839 0.930 . S
H857 C850 0.929 . S
Cu858 N859 1.999 . S
Cu858 O864 1.974 . S
Cu858 N869 1.985 . S
Cu858 O878 1.959 . S
N859 Cu858 1.999 . S
N859 C861 1.263 . S
N859 C863 1.389 . S
N860 C861 1.358 . S
N860 C862 1.400 . S
C861 N859 1.263 . S
C861 N860 1.358 . S
C861 H867 0.930 . S
C862 N860 1.400 . S
C862 C863 1.351 . S
C862 H879 0.930 . S
C863 N859 1.389 . S
C863 C862 1.351 . S
C863 H868 0.930 . S
O864 Cu858 1.974 . S
O864 C874 1.282 . S
C865 O866 1.261 . S
C865 O878 1.251 . S
O866 C865 1.261 . S
H867 C861 0.930 . S
H868 C863 0.930 . S
N869 Cu858 1.985 . S
N869 C871 1.335 . S
N869 C872 1.390 . S
N870 C871 1.345 . S
N870 C873 1.336 . S
C871 N869 1.335 . S
C871 N870 1.345 . S
C871 H876 0.930 . S
C872 N869 1.390 . S
C872 C873 1.346 . S
C872 H877 0.930 . S
C873 N870 1.336 . S
C873 C872 1.346 . S
C873 H880 0.929 . S
C874 O864 1.282 . S
C874 O875 1.216 . S
O875 C874 1.216 . S
H876 C871 0.930 . S
H877 C872 0.930 . S
O878 Cu858 1.959 . S
O878 C865 1.251 . S
H879 C862 0.930 . S
H880 C873 0.929 . S
Cu881 N882 1.999 . S
Cu881 O887 1.974 . S
Cu881 N892 1.985 . S
Cu881 O901 1.959 . S
N882 Cu881 1.999 . S
N882 C884 1.263 . S
N882 C886 1.389 . S
N883 C884 1.358 . S
N883 C885 1.400 . S
C884 N882 1.263 . S
C884 N883 1.358 . S
C884 H890 0.930 . S
C885 N883 1.400 . S
C885 C886 1.351 . S
C885 H902 0.930 . S
C886 N882 1.389 . S
C886 C885 1.351 . S
C886 H891 0.930 . S
O887 Cu881 1.974 . S
O887 C897 1.282 . S
C888 O889 1.261 . S
C888 O901 1.251 . S
O889 C888 1.261 . S
H890 C884 0.930 . S
H891 C886 0.930 . S
N892 Cu881 1.985 . S
N892 C894 1.335 . S
N892 C895 1.390 . S
N893 C894 1.345 . S
N893 C896 1.336 . S
C894 N892 1.335 . S
C894 N893 1.345 . S
C894 H899 0.930 . S
C895 N892 1.390 . S
C895 C896 1.346 . S
C895 H900 0.930 . S
C896 N893 1.336 . S
C896 C895 1.346 . S
C896 H903 0.929 . S
C897 O887 1.282 . S
C897 O898 1.216 . S
O898 C897 1.216 . S
H899 C894 0.930 . S
H900 C895 0.930 . S
O901 Cu881 1.959 . S
O901 C888 1.251 . S
H902 C885 0.930 . S
H903 C896 0.929 . S
C904 C905 1.363 . S
C904 C910 1.379 . S
C904 N912 1.356 . S
C905 C904 1.363 . S
C905 C911 1.363 . S
C906 C907 1.363 . S
C906 C911 1.379 . S
C906 N913 1.356 . S
C907 C906 1.363 . S
C907 C910 1.363 . S
N908 C910 1.356 . S
N908 H920 0.984 . S
N908 H921 0.985 . S
N909 C911 1.356 . S
N909 H914 0.984 . S
N909 H915 0.985 . S
C910 C904 1.379 . S
C910 C907 1.363 . S
C910 N908 1.356 . S
C911 C905 1.363 . S
C911 C906 1.379 . S
C911 N909 1.356 . S
N912 C904 1.356 . S
N912 H918 0.984 . S
N912 H919 0.984 . S
N913 C906 1.356 . S
N913 H916 0.984 . S
N913 H917 0.985 . S
H914 N909 0.984 . S
H915 N909 0.985 . S
H916 N913 0.984 . S
H917 N913 0.985 . S
H918 N912 0.984 . S
H919 N912 0.984 . S
H920 N908 0.984 . S
H921 N908 0.985 . S
C922 C923 1.363 . S
C922 C928 1.379 . S
C922 N930 1.356 . S
C923 C922 1.363 . S
C923 C929 1.363 . S
C924 C925 1.363 . S
C924 C929 1.379 . S
C924 N931 1.356 . S
C925 C924 1.363 . S
C925 C928 1.363 . S
N926 C928 1.356 . S
N926 H938 0.984 . S
N926 H939 0.985 . S
N927 C929 1.356 . S
N927 H932 0.984 . S
N927 H933 0.985 . S
C928 C922 1.379 . S
C928 C925 1.363 . S
C928 N926 1.356 . S
C929 C923 1.363 . S
C929 C924 1.379 . S
C929 N927 1.356 . S
N930 C922 1.356 . S
N930 H936 0.984 . S
N930 H937 0.984 . S
N931 C924 1.356 . S
N931 H934 0.984 . S
N931 H935 0.985 . S
H932 N927 0.984 . S
H933 N927 0.985 . S
H934 N931 0.984 . S
H935 N931 0.985 . S
H936 N930 0.984 . S
H937 N930 0.984 . S
H938 N926 0.984 . S
H939 N926 0.985 . S
C940 C941 1.363 . S
C940 C946 1.379 . S
C940 N948 1.356 . S
C941 C940 1.363 . S
C941 C947 1.363 . S
C942 C943 1.363 . S
C942 C947 1.379 . S
C942 N949 1.356 . S
C943 C942 1.363 . S
C943 C946 1.363 . S
N944 C946 1.356 . S
N944 H956 0.984 . S
N944 H957 0.985 . S
N945 C947 1.356 . S
N945 H950 0.984 . S
N945 H951 0.985 . S
C946 C940 1.379 . S
C946 C943 1.363 . S
C946 N944 1.356 . S
C947 C941 1.363 . S
C947 C942 1.379 . S
C947 N945 1.356 . S
N948 C940 1.356 . S
N948 H954 0.984 . S
N948 H955 0.984 . S
N949 C942 1.356 . S
N949 H952 0.984 . S
N949 H953 0.985 . S
H950 N945 0.984 . S
H951 N945 0.985 . S
H952 N949 0.984 . S
H953 N949 0.985 . S
H954 N948 0.984 . S
H955 N948 0.984 . S
H956 N944 0.984 . S
H957 N944 0.985 . S
C958 C959 1.363 . S
C958 C964 1.379 . S
C958 N966 1.356 . S
C959 C958 1.363 . S
C959 C965 1.363 . S
C960 C961 1.363 . S
C960 C965 1.379 . S
C960 N967 1.356 . S
C961 C960 1.363 . S
C961 C964 1.363 . S
N962 C964 1.356 . S
N962 H974 0.984 . S
N962 H975 0.985 . S
N963 C965 1.356 . S
N963 H968 0.984 . S
N963 H969 0.985 . S
C964 C958 1.379 . S
C964 C961 1.363 . S
C964 N962 1.356 . S
C965 C959 1.363 . S
C965 C960 1.379 . S
C965 N963 1.356 . S
N966 C958 1.356 . S
N966 H972 0.984 . S
N966 H973 0.984 . S
N967 C960 1.356 . S
N967 H970 0.984 . S
N967 H971 0.985 . S
H968 N963 0.984 . S
H969 N963 0.985 . S
H970 N967 0.984 . S
H971 N967 0.985 . S
H972 N966 0.984 . S
H973 N966 0.984 . S
H974 N962 0.984 . S
H975 N962 0.985 . S
C976 C977 1.363 . S
C976 C982 1.379 . S
C976 N984 1.356 . S
C977 C976 1.363 . S
C977 C983 1.363 . S
C978 C979 1.363 . S
C978 C983 1.379 . S
C978 N985 1.356 . S
C979 C978 1.363 . S
C979 C982 1.363 . S
N980 C982 1.356 . S
N980 H992 0.984 . S
N980 H993 0.985 . S
N981 C983 1.356 . S
N981 H986 0.984 . S
N981 H987 0.985 . S
C982 C976 1.379 . S
C982 C979 1.363 . S
C982 N980 1.356 . S
C983 C977 1.363 . S
C983 C978 1.379 . S
C983 N981 1.356 . S
N984 C976 1.356 . S
N984 H990 0.984 . S
N984 H991 0.984 . S
N985 C978 1.356 . S
N985 H988 0.984 . S
N985 H989 0.985 . S
H986 N981 0.984 . S
H987 N981 0.985 . S
H988 N985 0.984 . S
H989 N985 0.985 . S
H990 N984 0.984 . S
H991 N984 0.984 . S
H992 N980 0.984 . S
H993 N980 0.985 . S
C994 C995 1.363 . S
C994 C1000 1.379 . S
C994 N1002 1.356 . S
C995 C994 1.363 . S
C995 C1001 1.363 . S
C996 C997 1.363 . S
C996 C1001 1.379 . S
C996 N1003 1.356 . S
C997 C996 1.363 . S
C997 C1000 1.363 . S
N998 C1000 1.356 . S
N998 H1010 0.984 . S
N998 H1011 0.985 . S
N999 C1001 1.356 . S
N999 H1004 0.984 . S
N999 H1005 0.985 . S
C1000 C994 1.379 . S
C1000 C997 1.363 . S
C1000 N998 1.356 . S
C1001 C995 1.363 . S
C1001 C996 1.379 . S
C1001 N999 1.356 . S
N1002 C994 1.356 . S
N1002 H1008 0.984 . S
N1002 H1009 0.984 . S
N1003 C996 1.356 . S
N1003 H1006 0.984 . S
N1003 H1007 0.985 . S
H1004 N999 0.984 . S
H1005 N999 0.985 . S
H1006 N1003 0.984 . S
H1007 N1003 0.985 . S
H1008 N1002 0.984 . S
H1009 N1002 0.984 . S
H1010 N998 0.984 . S
H1011 N998 0.985 . S
C1012 C1013 1.363 . S
C1012 C1018 1.379 . S
C1012 N1020 1.356 . S
C1013 C1012 1.363 . S
C1013 C1019 1.363 . S
C1014 C1015 1.363 . S
C1014 C1019 1.379 . S
C1014 N1021 1.356 . S
C1015 C1014 1.363 . S
C1015 C1018 1.363 . S
N1016 C1018 1.356 . S
N1016 H1028 0.984 . S
N1016 H1029 0.985 . S
N1017 C1019 1.356 . S
N1017 H1022 0.984 . S
N1017 H1023 0.985 . S
C1018 C1012 1.379 . S
C1018 C1015 1.363 . S
C1018 N1016 1.356 . S
C1019 C1013 1.363 . S
C1019 C1014 1.379 . S
C1019 N1017 1.356 . S
N1020 C1012 1.356 . S
N1020 H1026 0.984 . S
N1020 H1027 0.984 . S
N1021 C1014 1.356 . S
N1021 H1024 0.984 . S
N1021 H1025 0.985 . S
H1022 N1017 0.984 . S
H1023 N1017 0.985 . S
H1024 N1021 0.984 . S
H1025 N1021 0.985 . S
H1026 N1020 0.984 . S
H1027 N1020 0.984 . S
H1028 N1016 0.984 . S
H1029 N1016 0.985 . S
C1030 C1031 1.363 . S
C1030 C1036 1.379 . S
C1030 N1038 1.356 . S
C1031 C1030 1.363 . S
C1031 C1037 1.363 . S
C1032 C1033 1.363 . S
C1032 C1037 1.379 . S
C1032 N1039 1.356 . S
C1033 C1032 1.363 . S
C1033 C1036 1.363 . S
N1034 C1036 1.356 . S
N1034 H1046 0.984 . S
N1034 H1047 0.985 . S
N1035 C1037 1.356 . S
N1035 H1040 0.984 . S
N1035 H1041 0.985 . S
C1036 C1030 1.379 . S
C1036 C1033 1.363 . S
C1036 N1034 1.356 . S
C1037 C1031 1.363 . S
C1037 C1032 1.379 . S
C1037 N1035 1.356 . S
N1038 C1030 1.356 . S
N1038 H1044 0.984 . S
N1038 H1045 0.984 . S
N1039 C1032 1.356 . S
N1039 H1042 0.984 . S
N1039 H1043 0.985 . S
H1040 N1035 0.984 . S
H1041 N1035 0.985 . S
H1042 N1039 0.984 . S
H1043 N1039 0.985 . S
H1044 N1038 0.984 . S
H1045 N1038 0.984 . S
H1046 N1034 0.984 . S
H1047 N1034 0.985 . S
C1048 C1049 1.363 . S
C1048 C1054 1.379 . S
C1048 N1056 1.356 . S
C1049 C1048 1.363 . S
C1049 C1055 1.363 . S
C1050 C1051 1.363 . S
C1050 C1055 1.379 . S
C1050 N1057 1.356 . S
C1051 C1050 1.363 . S
C1051 C1054 1.363 . S
N1052 C1054 1.356 . S
N1052 H1064 0.984 . S
N1052 H1065 0.985 . S
N1053 C1055 1.356 . S
N1053 H1058 0.984 . S
N1053 H1059 0.985 . S
C1054 C1048 1.379 . S
C1054 C1051 1.363 . S
C1054 N1052 1.356 . S
C1055 C1049 1.363 . S
C1055 C1050 1.379 . S
C1055 N1053 1.356 . S
N1056 C1048 1.356 . S
N1056 H1062 0.984 . S
N1056 H1063 0.984 . S
N1057 C1050 1.356 . S
N1057 H1060 0.984 . S
N1057 H1061 0.985 . S
H1058 N1053 0.984 . S
H1059 N1053 0.985 . S
H1060 N1057 0.984 . S
H1061 N1057 0.985 . S
H1062 N1056 0.984 . S
H1063 N1056 0.984 . S
H1064 N1052 0.984 . S
H1065 N1052 0.985 . S
C1066 C1067 1.363 . S
C1066 C1072 1.379 . S
C1066 N1074 1.356 . S
C1067 C1066 1.363 . S
C1067 C1073 1.363 . S
C1068 C1069 1.363 . S
C1068 C1073 1.379 . S
C1068 N1075 1.356 . S
C1069 C1068 1.363 . S
C1069 C1072 1.363 . S
N1070 C1072 1.356 . S
N1070 H1082 0.984 . S
N1070 H1083 0.985 . S
N1071 C1073 1.356 . S
N1071 H1076 0.984 . S
N1071 H1077 0.985 . S
C1072 C1066 1.379 . S
C1072 C1069 1.363 . S
C1072 N1070 1.356 . S
C1073 C1067 1.363 . S
C1073 C1068 1.379 . S
C1073 N1071 1.356 . S
N1074 C1066 1.356 . S
N1074 H1080 0.984 . S
N1074 H1081 0.984 . S
N1075 C1068 1.356 . S
N1075 H1078 0.984 . S
N1075 H1079 0.985 . S
H1076 N1071 0.984 . S
H1077 N1071 0.985 . S
H1078 N1075 0.984 . S
H1079 N1075 0.985 . S
H1080 N1074 0.984 . S
H1081 N1074 0.984 . S
H1082 N1070 0.984 . S
H1083 N1070 0.985 . S
C1084 C1085 1.363 . S
C1084 C1090 1.379 . S
C1084 N1092 1.356 . S
C1085 C1084 1.363 . S
C1085 C1091 1.363 . S
C1086 C1087 1.363 . S
C1086 C1091 1.379 . S
C1086 N1093 1.356 . S
C1087 C1086 1.363 . S
C1087 C1090 1.363 . S
N1088 C1090 1.356 . S
N1088 H1100 0.984 . S
N1088 H1101 0.985 . S
N1089 C1091 1.356 . S
N1089 H1094 0.984 . S
N1089 H1095 0.985 . S
C1090 C1084 1.379 . S
C1090 C1087 1.363 . S
C1090 N1088 1.356 . S
C1091 C1085 1.363 . S
C1091 C1086 1.379 . S
C1091 N1089 1.356 . S
N1092 C1084 1.356 . S
N1092 H1098 0.984 . S
N1092 H1099 0.984 . S
N1093 C1086 1.356 . S
N1093 H1096 0.984 . S
N1093 H1097 0.985 . S
H1094 N1089 0.984 . S
H1095 N1089 0.985 . S
H1096 N1093 0.984 . S
H1097 N1093 0.985 . S
H1098 N1092 0.984 . S
H1099 N1092 0.984 . S
H1100 N1088 0.984 . S
H1101 N1088 0.985 . S
C1102 C1103 1.363 . S
C1102 C1108 1.379 . S
C1102 N1110 1.356 . S
C1103 C1102 1.363 . S
C1103 C1109 1.363 . S
C1104 C1105 1.363 . S
C1104 C1109 1.379 . S
C1104 N1111 1.356 . S
C1105 C1104 1.363 . S
C1105 C1108 1.363 . S
N1106 C1108 1.356 . S
N1106 H1118 0.984 . S
N1106 H1119 0.985 . S
N1107 C1109 1.356 . S
N1107 H1112 0.984 . S
N1107 H1113 0.985 . S
C1108 C1102 1.379 . S
C1108 C1105 1.363 . S
C1108 N1106 1.356 . S
C1109 C1103 1.363 . S
C1109 C1104 1.379 . S
C1109 N1107 1.356 . S
N1110 C1102 1.356 . S
N1110 H1116 0.984 . S
N1110 H1117 0.984 . S
N1111 C1104 1.356 . S
N1111 H1114 0.984 . S
N1111 H1115 0.985 . S
H1112 N1107 0.984 . S
H1113 N1107 0.985 . S
H1114 N1111 0.984 . S
H1115 N1111 0.985 . S
H1116 N1110 0.984 . S
H1117 N1110 0.984 . S
H1118 N1106 0.984 . S
H1119 N1106 0.985 . S
C1120 C1121 1.363 . S
C1120 C1126 1.379 . S
C1120 N1128 1.356 . S
C1121 C1120 1.363 . S
C1121 C1127 1.363 . S
C1122 C1123 1.363 . S
C1122 C1127 1.379 . S
C1122 N1129 1.356 . S
C1123 C1122 1.363 . S
C1123 C1126 1.363 . S
N1124 C1126 1.356 . S
N1124 H1136 0.984 . S
N1124 H1137 0.985 . S
N1125 C1127 1.356 . S
N1125 H1130 0.984 . S
N1125 H1131 0.985 . S
C1126 C1120 1.379 . S
C1126 C1123 1.363 . S
C1126 N1124 1.356 . S
C1127 C1121 1.363 . S
C1127 C1122 1.379 . S
C1127 N1125 1.356 . S
N1128 C1120 1.356 . S
N1128 H1134 0.984 . S
N1128 H1135 0.984 . S
N1129 C1122 1.356 . S
N1129 H1132 0.984 . S
N1129 H1133 0.985 . S
H1130 N1125 0.984 . S
H1131 N1125 0.985 . S
H1132 N1129 0.984 . S
H1133 N1129 0.985 . S
H1134 N1128 0.984 . S
H1135 N1128 0.984 . S
H1136 N1124 0.984 . S
H1137 N1124 0.985 . S
C1138 C1139 1.363 . S
C1138 C1144 1.379 . S
C1138 N1146 1.356 . S
C1139 C1138 1.363 . S
C1139 C1145 1.363 . S
C1140 C1141 1.363 . S
C1140 C1145 1.379 . S
C1140 N1147 1.356 . S
C1141 C1140 1.363 . S
C1141 C1144 1.363 . S
N1142 C1144 1.356 . S
N1142 H1154 0.984 . S
N1142 H1155 0.985 . S
N1143 C1145 1.356 . S
N1143 H1148 0.984 . S
N1143 H1149 0.985 . S
C1144 C1138 1.379 . S
C1144 C1141 1.363 . S
C1144 N1142 1.356 . S
C1145 C1139 1.363 . S
C1145 C1140 1.379 . S
C1145 N1143 1.356 . S
N1146 C1138 1.356 . S
N1146 H1152 0.984 . S
N1146 H1153 0.984 . S
N1147 C1140 1.356 . S
N1147 H1150 0.984 . S
N1147 H1151 0.985 . S
H1148 N1143 0.984 . S
H1149 N1143 0.985 . S
H1150 N1147 0.984 . S
H1151 N1147 0.985 . S
H1152 N1146 0.984 . S
H1153 N1146 0.984 . S
H1154 N1142 0.984 . S
H1155 N1142 0.985 . S
C1156 C1157 1.363 . S
C1156 C1162 1.379 . S
C1156 N1164 1.356 . S
C1157 C1156 1.363 . S
C1157 C1163 1.363 . S
C1158 C1159 1.363 . S
C1158 C1163 1.379 . S
C1158 N1165 1.356 . S
C1159 C1158 1.363 . S
C1159 C1162 1.363 . S
N1160 C1162 1.356 . S
N1160 H1172 0.984 . S
N1160 H1173 0.985 . S
N1161 C1163 1.356 . S
N1161 H1166 0.984 . S
N1161 H1167 0.985 . S
C1162 C1156 1.379 . S
C1162 C1159 1.363 . S
C1162 N1160 1.356 . S
C1163 C1157 1.363 . S
C1163 C1158 1.379 . S
C1163 N1161 1.356 . S
N1164 C1156 1.356 . S
N1164 H1170 0.984 . S
N1164 H1171 0.984 . S
N1165 C1158 1.356 . S
N1165 H1168 0.984 1_655 S
N1165 H1169 0.998 . S
H1166 N1161 0.984 . S
H1167 N1161 0.985 . S
H1168 N1165 0.984 1_455 S
H1169 N1165 0.998 . S
H1170 N1164 0.984 . S
H1171 N1164 0.984 . S
H1172 N1160 0.984 . S
H1173 N1160 0.985 . S
C1174 C1175 1.363 . S
C1174 C1180 1.379 . S
C1174 N1182 1.356 . S
C1175 C1174 1.363 . S
C1175 C1181 1.363 . S
C1176 C1177 1.363 . S
C1176 C1181 1.379 . S
C1176 N1183 1.356 . S
C1177 C1176 1.363 . S
C1177 C1180 1.363 . S
N1178 C1180 1.356 . S
N1178 H1190 0.984 . S
N1178 H1191 0.985 . S
N1179 C1181 1.356 . S
N1179 H1184 0.984 . S
N1179 H1185 0.985 . S
C1180 C1174 1.379 . S
C1180 C1177 1.363 . S
C1180 N1178 1.356 . S
C1181 C1175 1.363 . S
C1181 C1176 1.379 . S
C1181 N1179 1.356 . S
N1182 C1174 1.356 . S
N1182 H1188 0.984 . S
N1182 H1189 0.984 . S
N1183 C1176 1.356 . S
N1183 H1186 0.984 . S
N1183 H1187 0.985 . S
H1184 N1179 0.984 . S
H1185 N1179 0.985 . S
H1186 N1183 0.984 . S
H1187 N1183 0.985 . S
H1188 N1182 0.984 . S
H1189 N1182 0.984 . S
H1190 N1178 0.984 . S
H1191 N1178 0.985 . S
C1192 C1193 1.363 . S
C1192 C1198 1.379 . S
C1192 N1200 1.356 . S
C1193 C1192 1.363 . S
C1193 C1199 1.363 . S
C1194 C1195 1.363 . S
C1194 C1199 1.379 . S
C1194 N1201 1.356 . S
C1195 C1194 1.363 . S
C1195 C1198 1.363 . S
N1196 C1198 1.356 . S
N1196 H1208 0.984 . S
N1196 H1209 0.985 . S
N1197 C1199 1.356 . S
N1197 H1202 0.984 . S
N1197 H1203 0.985 . S
C1198 C1192 1.379 . S
C1198 C1195 1.363 . S
C1198 N1196 1.356 . S
C1199 C1193 1.363 . S
C1199 C1194 1.379 . S
C1199 N1197 1.356 . S
N1200 C1192 1.356 . S
N1200 H1206 0.984 . S
N1200 H1207 0.984 . S
N1201 C1194 1.356 . S
N1201 H1204 0.984 . S
N1201 H1205 0.985 . S
H1202 N1197 0.984 . S
H1203 N1197 0.985 . S
H1204 N1201 0.984 . S
H1205 N1201 0.985 . S
H1206 N1200 0.984 . S
H1207 N1200 0.984 . S
H1208 N1196 0.984 . S
H1209 N1196 0.985 . S
C1210 C1211 1.363 . S
C1210 C1216 1.379 . S
C1210 N1218 1.356 . S
C1211 C1210 1.363 . S
C1211 C1217 1.363 . S
C1212 C1213 1.363 . S
C1212 C1217 1.379 . S
C1212 N1219 1.356 . S
C1213 C1212 1.363 . S
C1213 C1216 1.363 . S
N1214 C1216 1.356 . S
N1214 H1226 0.984 . S
N1214 H1227 0.985 . S
N1215 C1217 1.356 . S
N1215 H1220 0.984 . S
N1215 H1221 0.985 . S
C1216 C1210 1.379 . S
C1216 C1213 1.363 . S
C1216 N1214 1.356 . S
C1217 C1211 1.363 . S
C1217 C1212 1.379 . S
C1217 N1215 1.356 . S
N1218 C1210 1.356 . S
N1218 H1224 0.984 . S
N1218 H1225 0.984 . S
N1219 C1212 1.356 . S
N1219 H1222 0.984 . S
N1219 H1223 0.985 . S
H1220 N1215 0.984 . S
H1221 N1215 0.985 . S
H1222 N1219 0.984 . S
H1223 N1219 0.985 . S
H1224 N1218 0.984 . S
H1225 N1218 0.984 . S
H1226 N1214 0.984 . S
H1227 N1214 0.985 . S
C1228 C1229 1.363 . S
C1228 C1234 1.379 . S
C1228 N1236 1.356 . S
C1229 C1228 1.363 . S
C1229 C1235 1.363 . S
C1230 C1231 1.363 . S
C1230 C1235 1.379 . S
C1230 N1237 1.356 . S
C1231 C1230 1.363 . S
C1231 C1234 1.363 . S
N1232 C1234 1.356 . S
N1232 H1244 0.984 . S
N1232 H1245 0.985 . S
N1233 C1235 1.356 . S
N1233 H1238 0.984 . S
N1233 H1239 0.985 . S
C1234 C1228 1.379 . S
C1234 C1231 1.363 . S
C1234 N1232 1.356 . S
C1235 C1229 1.363 . S
C1235 C1230 1.379 . S
C1235 N1233 1.356 . S
N1236 C1228 1.356 . S
N1236 H1242 0.984 . S
N1236 H1243 0.984 . S
N1237 C1230 1.356 . S
N1237 H1240 0.984 . S
N1237 H1241 0.985 . S
H1238 N1233 0.984 . S
H1239 N1233 0.985 . S
H1240 N1237 0.984 . S
H1241 N1237 0.985 . S
H1242 N1236 0.984 . S
H1243 N1236 0.984 . S
H1244 N1232 0.984 . S
H1245 N1232 0.985 . S
C1246 C1247 1.363 . S
C1246 C1252 1.379 . S
C1246 N1254 1.356 . S
C1247 C1246 1.363 . S
C1247 C1253 1.363 . S
C1248 C1249 1.363 . S
C1248 C1253 1.379 . S
C1248 N1255 1.356 . S
C1249 C1248 1.363 . S
C1249 C1252 1.363 . S
N1250 C1252 1.356 . S
N1250 H1262 0.984 . S
N1250 H1263 0.985 . S
N1251 C1253 1.356 . S
N1251 H1256 0.984 . S
N1251 H1257 0.985 . S
C1252 C1246 1.379 . S
C1252 C1249 1.363 . S
C1252 N1250 1.356 . S
C1253 C1247 1.363 . S
C1253 C1248 1.379 . S
C1253 N1251 1.356 . S
N1254 C1246 1.356 . S
N1254 H1260 0.984 . S
N1254 H1261 0.984 . S
N1255 C1248 1.356 . S
N1255 H1258 0.984 . S
N1255 H1259 0.985 . S
H1256 N1251 0.984 . S
H1257 N1251 0.985 . S
H1258 N1255 0.984 . S
H1259 N1255 0.985 . S
H1260 N1254 0.984 . S
H1261 N1254 0.984 . S
H1262 N1250 0.984 . S
H1263 N1250 0.985 . S
C1264 C1265 1.363 . S
C1264 C1270 1.379 . S
C1264 N1272 1.356 . S
C1265 C1264 1.363 . S
C1265 C1271 1.363 . S
C1266 C1267 1.363 . S
C1266 C1271 1.379 . S
C1266 N1273 1.356 . S
C1267 C1266 1.363 . S
C1267 C1270 1.363 . S
N1268 C1270 1.356 . S
N1268 H1280 0.984 . S
N1268 H1281 0.985 . S
N1269 C1271 1.356 . S
N1269 H1274 0.984 . S
N1269 H1275 0.985 . S
C1270 C1264 1.379 . S
C1270 C1267 1.363 . S
C1270 N1268 1.356 . S
C1271 C1265 1.363 . S
C1271 C1266 1.379 . S
C1271 N1269 1.356 . S
N1272 C1264 1.356 . S
N1272 H1278 0.984 . S
N1272 H1279 0.984 . S
N1273 C1266 1.356 . S
N1273 H1276 0.984 . S
N1273 H1277 0.985 . S
H1274 N1269 0.984 . S
H1275 N1269 0.985 . S
H1276 N1273 0.984 . S
H1277 N1273 0.985 . S
H1278 N1272 0.984 . S
H1279 N1272 0.984 . S
H1280 N1268 0.984 . S
H1281 N1268 0.985 . S
C1282 C1283 1.363 . S
C1282 C1288 1.379 . S
C1282 N1290 1.356 . S
C1283 C1282 1.363 . S
C1283 C1289 1.363 . S
C1284 C1285 1.363 . S
C1284 C1289 1.379 . S
C1284 N1291 1.356 . S
C1285 C1284 1.363 . S
C1285 C1288 1.363 . S
N1286 C1288 1.356 . S
N1286 H1298 0.984 . S
N1286 H1299 0.985 . S
N1287 C1289 1.356 . S
N1287 H1292 0.984 . S
N1287 H1293 0.985 . S
C1288 C1282 1.379 . S
C1288 C1285 1.363 . S
C1288 N1286 1.356 . S
C1289 C1283 1.363 . S
C1289 C1284 1.379 . S
C1289 N1287 1.356 . S
N1290 C1282 1.356 . S
N1290 H1296 0.984 . S
N1290 H1297 0.984 . S
N1291 C1284 1.356 . S
N1291 H1294 0.984 . S
N1291 H1295 0.985 . S
H1292 N1287 0.984 . S
H1293 N1287 0.985 . S
H1294 N1291 0.984 . S
H1295 N1291 0.985 . S
H1296 N1290 0.984 . S
H1297 N1290 0.984 . S
H1298 N1286 0.984 . S
H1299 N1286 0.985 . S
C1300 C1301 1.363 . S
C1300 C1306 1.379 . S
C1300 N1308 1.356 . S
C1301 C1300 1.363 . S
C1301 C1307 1.363 . S
C1302 C1303 1.363 . S
C1302 C1307 1.379 . S
C1302 N1309 1.356 . S
C1303 C1302 1.363 . S
C1303 C1306 1.363 . S
N1304 C1306 1.356 . S
N1304 H1316 0.984 . S
N1304 H1317 0.985 . S
N1305 C1307 1.356 . S
N1305 H1310 0.984 . S
N1305 H1311 0.985 . S
C1306 C1300 1.379 . S
C1306 C1303 1.363 . S
C1306 N1304 1.356 . S
C1307 C1301 1.363 . S
C1307 C1302 1.379 . S
C1307 N1305 1.356 . S
N1308 C1300 1.356 . S
N1308 H1314 0.984 . S
N1308 H1315 0.984 . S
N1309 C1302 1.356 . S
N1309 H1312 0.984 . S
N1309 H1313 0.985 . S
H1310 N1305 0.984 . S
H1311 N1305 0.985 . S
H1312 N1309 0.984 . S
H1313 N1309 0.985 . S
H1314 N1308 0.984 . S
H1315 N1308 0.984 . S
H1316 N1304 0.984 . S
H1317 N1304 0.985 . S
C1318 C1319 1.363 . S
C1318 C1324 1.379 . S
C1318 N1326 1.356 . S
C1319 C1318 1.363 . S
C1319 C1325 1.363 . S
C1320 C1321 1.363 . S
C1320 C1325 1.379 . S
C1320 N1327 1.356 . S
C1321 C1320 1.363 . S
C1321 C1324 1.363 . S
N1322 C1324 1.356 . S
N1322 H1334 0.984 . S
N1322 H1335 0.985 . S
N1323 C1325 1.356 . S
N1323 H1328 0.984 . S
N1323 H1329 0.985 . S
C1324 C1318 1.379 . S
C1324 C1321 1.363 . S
C1324 N1322 1.356 . S
C1325 C1319 1.363 . S
C1325 C1320 1.379 . S
C1325 N1323 1.356 . S
N1326 C1318 1.356 . S
N1326 H1332 0.984 . S
N1326 H1333 0.984 . S
N1327 C1320 1.356 . S
N1327 H1330 0.984 . S
N1327 H1331 0.985 . S
H1328 N1323 0.984 . S
H1329 N1323 0.985 . S
H1330 N1327 0.984 . S
H1331 N1327 0.985 . S
H1332 N1326 0.984 . S
H1333 N1326 0.984 . S
H1334 N1322 0.984 . S
H1335 N1322 0.985 . S
C1336 C1337 1.363 . S
C1336 C1342 1.379 . S
C1336 N1344 1.356 . S
C1337 C1336 1.363 . S
C1337 C1343 1.363 . S
C1338 C1339 1.363 . S
C1338 C1343 1.379 . S
C1338 N1345 1.356 . S
C1339 C1338 1.363 . S
C1339 C1342 1.363 . S
N1340 C1342 1.356 . S
N1340 H1352 0.984 . S
N1340 H1353 0.985 . S
N1341 C1343 1.356 . S
N1341 H1346 0.984 . S
N1341 H1347 0.985 . S
C1342 C1336 1.379 . S
C1342 C1339 1.363 . S
C1342 N1340 1.356 . S
C1343 C1337 1.363 . S
C1343 C1338 1.379 . S
C1343 N1341 1.356 . S
N1344 C1336 1.356 . S
N1344 H1350 0.984 . S
N1344 H1351 0.984 . S
N1345 C1338 1.356 . S
N1345 H1348 0.984 . S
N1345 H1349 0.985 . S
H1346 N1341 0.984 . S
H1347 N1341 0.985 . S
H1348 N1345 0.984 . S
H1349 N1345 0.985 . S
H1350 N1344 0.984 . S
H1351 N1344 0.984 . S
H1352 N1340 0.984 . S
H1353 N1340 0.985 . S
C1354 C1355 1.363 . S
C1354 C1360 1.379 . S
C1354 N1362 1.356 . S
C1355 C1354 1.363 . S
C1355 C1361 1.363 . S
C1356 C1357 1.363 . S
C1356 C1361 1.379 . S
C1356 N1363 1.356 . S
C1357 C1356 1.363 . S
C1357 C1360 1.363 . S
N1358 C1360 1.356 . S
N1358 H1370 0.984 . S
N1358 H1371 0.985 . S
N1359 C1361 1.356 . S
N1359 H1364 0.984 . S
N1359 H1365 0.985 . S
C1360 C1354 1.379 . S
C1360 C1357 1.363 . S
C1360 N1358 1.356 . S
C1361 C1355 1.363 . S
C1361 C1356 1.379 . S
C1361 N1359 1.356 . S
N1362 C1354 1.356 . S
N1362 H1368 0.984 . S
N1362 H1369 0.984 . S
N1363 C1356 1.356 . S
N1363 H1366 0.984 . S
N1363 H1367 0.985 . S
H1364 N1359 0.984 . S
H1365 N1359 0.985 . S
H1366 N1363 0.984 . S
H1367 N1363 0.985 . S
H1368 N1362 0.984 . S
H1369 N1362 0.984 . S
H1370 N1358 0.984 . S
H1371 N1358 0.985 . S
C1372 C1373 1.363 . S
C1372 C1378 1.379 . S
C1372 N1380 1.356 . S
C1373 C1372 1.363 . S
C1373 C1379 1.363 . S
C1374 C1375 1.363 . S
C1374 C1379 1.379 . S
C1374 N1381 1.356 . S
C1375 C1374 1.363 . S
C1375 C1378 1.363 . S
N1376 C1378 1.356 . S
N1376 H1388 0.984 . S
N1376 H1389 0.985 . S
N1377 C1379 1.356 . S
N1377 H1382 0.984 . S
N1377 H1383 0.985 . S
C1378 C1372 1.379 . S
C1378 C1375 1.363 . S
C1378 N1376 1.356 . S
C1379 C1373 1.363 . S
C1379 C1374 1.379 . S
C1379 N1377 1.356 . S
N1380 C1372 1.356 . S
N1380 H1386 0.984 . S
N1380 H1387 0.984 . S
N1381 C1374 1.356 . S
N1381 H1384 0.984 . S
N1381 H1385 0.985 . S
H1382 N1377 0.984 . S
H1383 N1377 0.985 . S
H1384 N1381 0.984 . S
H1385 N1381 0.985 . S
H1386 N1380 0.984 . S
H1387 N1380 0.984 . S
H1388 N1376 0.984 . S
H1389 N1376 0.985 . S
C1390 C1391 1.363 . S
C1390 C1396 1.379 . S
C1390 N1398 1.356 . S
C1391 C1390 1.363 . S
C1391 C1397 1.363 . S
C1392 C1393 1.363 . S
C1392 C1397 1.379 . S
C1392 N1399 1.356 . S
C1393 C1392 1.363 . S
C1393 C1396 1.363 . S
N1394 C1396 1.356 . S
N1394 H1406 0.984 . S
N1394 H1407 0.985 . S
N1395 C1397 1.356 . S
N1395 H1400 0.984 . S
N1395 H1401 0.985 . S
C1396 C1390 1.379 . S
C1396 C1393 1.363 . S
C1396 N1394 1.356 . S
C1397 C1391 1.363 . S
C1397 C1392 1.379 . S
C1397 N1395 1.356 . S
N1398 C1390 1.356 . S
N1398 H1404 0.984 . S
N1398 H1405 0.984 . S
N1399 C1392 1.356 . S
N1399 H1402 0.984 . S
N1399 H1403 0.985 . S
H1400 N1395 0.984 . S
H1401 N1395 0.985 . S
H1402 N1399 0.984 . S
H1403 N1399 0.985 . S
H1404 N1398 0.984 . S
H1405 N1398 0.984 . S
H1406 N1394 0.984 . S
H1407 N1394 0.985 . S
C1408 C1409 1.363 . S
C1408 C1414 1.379 . S
C1408 N1416 1.356 . S
C1409 C1408 1.363 . S
C1409 C1415 1.363 . S
C1410 C1411 1.363 . S
C1410 C1415 1.379 . S
C1410 N1417 1.356 . S
C1411 C1410 1.363 . S
C1411 C1414 1.363 . S
N1412 C1414 1.356 . S
N1412 H1424 0.984 . S
N1412 H1425 0.985 . S
N1413 C1415 1.356 . S
N1413 H1418 0.984 . S
N1413 H1419 0.985 . S
C1414 C1408 1.379 . S
C1414 C1411 1.363 . S
C1414 N1412 1.356 . S
C1415 C1409 1.363 . S
C1415 C1410 1.379 . S
C1415 N1413 1.356 . S
N1416 C1408 1.356 . S
N1416 H1422 0.984 . S
N1416 H1423 0.984 . S
N1417 C1410 1.356 . S
N1417 H1420 0.984 . S
N1417 H1421 0.985 . S
H1418 N1413 0.984 . S
H1419 N1413 0.985 . S
H1420 N1417 0.984 . S
H1421 N1417 0.985 . S
H1422 N1416 0.984 . S
H1423 N1416 0.984 . S
H1424 N1412 0.984 . S
H1425 N1412 0.985 . S
C1426 C1427 1.363 . S
C1426 C1432 1.379 . S
C1426 N1434 1.356 . S
C1427 C1426 1.363 . S
C1427 C1433 1.363 . S
C1428 C1429 1.363 . S
C1428 C1433 1.379 . S
C1428 N1435 1.356 . S
C1429 C1428 1.363 . S
C1429 C1432 1.363 . S
N1430 C1432 1.356 . S
N1430 H1442 0.984 . S
N1430 H1443 0.985 . S
N1431 C1433 1.356 . S
N1431 H1436 0.984 . S
N1431 H1437 0.985 . S
C1432 C1426 1.379 . S
C1432 C1429 1.363 . S
C1432 N1430 1.356 . S
C1433 C1427 1.363 . S
C1433 C1428 1.379 . S
C1433 N1431 1.356 . S
N1434 C1426 1.356 . S
N1434 H1440 0.984 . S
N1434 H1441 0.984 . S
N1435 C1428 1.356 . S
N1435 H1438 0.984 . S
N1435 H1439 0.985 . S
H1436 N1431 0.984 . S
H1437 N1431 0.985 . S
H1438 N1435 0.984 . S
H1439 N1435 0.985 . S
H1440 N1434 0.984 . S
H1441 N1434 0.984 . S
H1442 N1430 0.984 . S
H1443 N1430 0.985 . S
C1444 C1445 1.363 . S
C1444 C1450 1.379 . S
C1444 N1452 1.356 . S
C1445 C1444 1.363 . S
C1445 C1451 1.363 . S
C1446 C1447 1.363 . S
C1446 C1451 1.379 . S
C1446 N1453 1.356 . S
C1447 C1446 1.363 . S
C1447 C1450 1.363 . S
N1448 C1450 1.356 . S
N1448 H1460 0.984 . S
N1448 H1461 0.985 . S
N1449 C1451 1.356 . S
N1449 H1454 0.984 . S
N1449 H1455 0.985 . S
C1450 C1444 1.379 . S
C1450 C1447 1.363 . S
C1450 N1448 1.356 . S
C1451 C1445 1.363 . S
C1451 C1446 1.379 . S
C1451 N1449 1.356 . S
N1452 C1444 1.356 . S
N1452 H1458 0.984 . S
N1452 H1459 0.984 . S
N1453 C1446 1.356 . S
N1453 H1456 0.984 . S
N1453 H1457 0.985 . S
H1454 N1449 0.984 . S
H1455 N1449 0.985 . S
H1456 N1453 0.984 . S
H1457 N1453 0.985 . S
H1458 N1452 0.984 . S
H1459 N1452 0.984 . S
H1460 N1448 0.984 . S
H1461 N1448 0.985 . S
C1462 C1463 1.363 . S
C1462 C1468 1.379 . S
C1462 N1470 1.356 . S
C1463 C1462 1.363 . S
C1463 C1469 1.363 . S
C1464 C1465 1.363 . S
C1464 C1469 1.379 . S
C1464 N1471 1.356 . S
C1465 C1464 1.363 . S
C1465 C1468 1.363 . S
N1466 C1468 1.356 . S
N1466 H1478 0.984 . S
N1466 H1479 0.985 . S
N1467 C1469 1.356 . S
N1467 H1472 0.984 . S
N1467 H1473 0.985 . S
C1468 C1462 1.379 . S
C1468 C1465 1.363 . S
C1468 N1466 1.356 . S
C1469 C1463 1.363 . S
C1469 C1464 1.379 . S
C1469 N1467 1.356 . S
N1470 C1462 1.356 . S
N1470 H1476 0.984 . S
N1470 H1477 0.984 . S
N1471 C1464 1.356 . S
N1471 H1474 0.984 . S
N1471 H1475 0.985 . S
H1472 N1467 0.984 . S
H1473 N1467 0.985 . S
H1474 N1471 0.984 . S
H1475 N1471 0.985 . S
H1476 N1470 0.984 . S
H1477 N1470 0.984 . S
H1478 N1466 0.984 . S
H1479 N1466 0.985 . S
C1480 C1481 1.363 . S
C1480 C1486 1.379 . S
C1480 N1488 1.356 . S
C1481 C1480 1.363 . S
C1481 C1487 1.363 . S
C1482 C1483 1.363 . S
C1482 C1487 1.379 . S
C1482 N1489 1.356 . S
C1483 C1482 1.363 . S
C1483 C1486 1.363 . S
N1484 C1486 1.356 . S
N1484 H1496 0.984 . S
N1484 H1497 0.985 . S
N1485 C1487 1.356 . S
N1485 H1490 0.984 . S
N1485 H1491 0.985 . S
C1486 C1480 1.379 . S
C1486 C1483 1.363 . S
C1486 N1484 1.356 . S
C1487 C1481 1.363 . S
C1487 C1482 1.379 . S
C1487 N1485 1.356 . S
N1488 C1480 1.356 . S
N1488 H1494 0.984 . S
N1488 H1495 0.984 . S
N1489 C1482 1.356 . S
N1489 H1492 0.984 . S
N1489 H1493 0.985 . S
H1490 N1485 0.984 . S
H1491 N1485 0.985 . S
H1492 N1489 0.984 . S
H1493 N1489 0.985 . S
H1494 N1488 0.984 . S
H1495 N1488 0.984 . S
H1496 N1484 0.984 . S
H1497 N1484 0.985 . S
C1498 C1499 1.363 . S
C1498 C1504 1.379 . S
C1498 N1506 1.356 . S
C1499 C1498 1.363 . S
C1499 C1505 1.363 . S
C1500 C1501 1.363 . S
C1500 C1505 1.379 . S
C1500 N1507 1.356 . S
C1501 C1500 1.363 . S
C1501 C1504 1.363 . S
N1502 C1504 1.356 . S
N1502 H1514 0.984 . S
N1502 H1515 0.985 . S
N1503 C1505 1.356 . S
N1503 H1508 0.984 . S
N1503 H1509 0.985 . S
C1504 C1498 1.379 . S
C1504 C1501 1.363 . S
C1504 N1502 1.356 . S
C1505 C1499 1.363 . S
C1505 C1500 1.379 . S
C1505 N1503 1.356 . S
N1506 C1498 1.356 . S
N1506 H1512 0.984 . S
N1506 H1513 0.984 . S
N1507 C1500 1.356 . S
N1507 H1510 0.984 . S
N1507 H1511 0.985 . S
H1508 N1503 0.984 . S
H1509 N1503 0.985 . S
H1510 N1507 0.984 . S
H1511 N1507 0.985 . S
H1512 N1506 0.984 . S
H1513 N1506 0.984 . S
H1514 N1502 0.984 . S
H1515 N1502 0.985 . S
C1516 C1517 1.363 . S
C1516 C1522 1.379 . S
C1516 N1524 1.356 . S
C1517 C1516 1.363 . S
C1517 C1523 1.363 . S
C1518 C1519 1.363 . S
C1518 C1523 1.379 . S
C1518 N1525 1.356 . S
C1519 C1518 1.363 . S
C1519 C1522 1.363 . S
N1520 C1522 1.356 . S
N1520 H1532 0.984 . S
N1520 H1533 0.988 . S
N1521 C1523 1.356 . S
N1521 H1526 0.984 . S
N1521 H1527 0.985 . S
C1522 C1516 1.379 . S
C1522 C1519 1.363 . S
C1522 N1520 1.356 . S
C1523 C1517 1.363 . S
C1523 C1518 1.379 . S
C1523 N1521 1.356 . S
N1524 C1516 1.356 . S
N1524 H1530 0.984 . S
N1524 H1531 0.984 . S
N1525 C1518 1.356 . S
N1525 H1528 0.984 . S
N1525 H1529 0.985 . S
H1526 N1521 0.984 . S
H1527 N1521 0.985 . S
H1528 N1525 0.984 . S
H1529 N1525 0.985 . S
H1530 N1524 0.984 . S
H1531 N1524 0.984 . S
H1532 N1520 0.984 . S
H1533 N1520 0.988 . S
C1534 C1535 1.363 . S
C1534 C1540 1.379 . S
C1534 N1542 1.356 . S
C1535 C1534 1.363 . S
C1535 C1541 1.363 . S
C1536 C1537 1.363 . S
C1536 C1541 1.379 . S
C1536 N1543 1.356 . S
C1537 C1536 1.363 . S
C1537 C1540 1.363 . S
N1538 C1540 1.356 . S
N1538 H1550 0.984 . S
N1538 H1551 0.985 . S
N1539 C1541 1.356 . S
N1539 H1544 0.984 . S
N1539 H1545 0.985 . S
C1540 C1534 1.379 . S
C1540 C1537 1.363 . S
C1540 N1538 1.356 . S
C1541 C1535 1.363 . S
C1541 C1536 1.379 . S
C1541 N1539 1.356 . S
N1542 C1534 1.356 . S
N1542 H1548 0.984 . S
N1542 H1549 0.984 . S
N1543 C1536 1.356 . S
N1543 H1546 0.984 . S
N1543 H1547 0.985 . S
H1544 N1539 0.984 . S
H1545 N1539 0.985 . S
H1546 N1543 0.984 . S
H1547 N1543 0.985 . S
H1548 N1542 0.984 . S
H1549 N1542 0.984 . S
H1550 N1538 0.984 . S
H1551 N1538 0.985 . S
C1552 C1553 1.363 . S
C1552 C1558 1.379 . S
C1552 N1560 1.356 . S
C1553 C1552 1.363 . S
C1553 C1559 1.363 . S
C1554 C1555 1.363 . S
C1554 C1559 1.379 . S
C1554 N1561 1.356 . S
C1555 C1554 1.363 . S
C1555 C1558 1.363 . S
N1556 C1558 1.356 . S
N1556 H1568 0.984 . S
N1556 H1569 0.985 . S
N1557 C1559 1.356 . S
N1557 H1562 0.984 . S
N1557 H1563 0.985 . S
C1558 C1552 1.379 . S
C1558 C1555 1.363 . S
C1558 N1556 1.356 . S
C1559 C1553 1.363 . S
C1559 C1554 1.379 . S
C1559 N1557 1.356 . S
N1560 C1552 1.356 . S
N1560 H1566 0.984 . S
N1560 H1567 0.984 . S
N1561 C1554 1.356 . S
N1561 H1564 0.984 . S
N1561 H1565 0.985 . S
H1562 N1557 0.984 . S
H1563 N1557 0.985 . S
H1564 N1561 0.984 . S
H1565 N1561 0.985 . S
H1566 N1560 0.984 . S
H1567 N1560 0.984 . S
H1568 N1556 0.984 . S
H1569 N1556 0.985 . S
C1570 C1571 1.363 . S
C1570 C1576 1.379 . S
C1570 N1578 1.356 . S
C1571 C1570 1.363 . S
C1571 C1577 1.363 . S
C1572 C1573 1.363 . S
C1572 C1577 1.379 . S
C1572 N1579 1.356 . S
C1573 C1572 1.363 . S
C1573 C1576 1.363 . S
N1574 C1576 1.356 . S
N1574 H1586 0.984 . S
N1574 H1587 0.985 . S
N1575 C1577 1.356 . S
N1575 H1580 0.984 . S
N1575 H1581 0.985 . S
C1576 C1570 1.379 . S
C1576 C1573 1.363 . S
C1576 N1574 1.356 . S
C1577 C1571 1.363 . S
C1577 C1572 1.379 . S
C1577 N1575 1.356 . S
N1578 C1570 1.356 . S
N1578 H1584 0.984 . S
N1578 H1585 0.984 . S
N1579 C1572 1.356 . S
N1579 H1582 0.984 . S
N1579 H1583 0.985 . S
H1580 N1575 0.984 . S
H1581 N1575 0.985 . S
H1582 N1579 0.984 . S
H1583 N1579 0.985 . S
H1584 N1578 0.984 . S
H1585 N1578 0.984 . S
H1586 N1574 0.984 . S
H1587 N1574 0.985 . S
C1588 C1589 1.363 . S
C1588 C1594 1.379 . S
C1588 N1596 1.356 . S
C1589 C1588 1.363 . S
C1589 C1595 1.363 . S
C1590 C1591 1.363 . S
C1590 C1595 1.379 . S
C1590 N1597 1.356 . S
C1591 C1590 1.363 . S
C1591 C1594 1.363 . S
N1592 C1594 1.356 . S
N1592 H1604 0.984 . S
N1592 H1605 0.985 . S
N1593 C1595 1.356 . S
N1593 H1598 0.984 . S
N1593 H1599 0.985 . S
C1594 C1588 1.379 . S
C1594 C1591 1.363 . S
C1594 N1592 1.356 . S
C1595 C1589 1.363 . S
C1595 C1590 1.379 . S
C1595 N1593 1.356 . S
N1596 C1588 1.356 . S
N1596 H1602 0.984 . S
N1596 H1603 0.984 . S
N1597 C1590 1.356 . S
N1597 H1600 0.984 . S
N1597 H1601 0.985 . S
H1598 N1593 0.984 . S
H1599 N1593 0.985 . S
H1600 N1597 0.984 . S
H1601 N1597 0.985 . S
H1602 N1596 0.984 . S
H1603 N1596 0.984 . S
H1604 N1592 0.984 . S
H1605 N1592 0.985 . S
C1606 C1607 1.363 . S
C1606 C1612 1.379 . S
C1606 N1614 1.356 . S
C1607 C1606 1.363 . S
C1607 C1613 1.363 . S
C1608 C1609 1.363 . S
C1608 C1613 1.379 . S
C1608 N1615 1.356 . S
C1609 C1608 1.363 . S
C1609 C1612 1.363 . S
N1610 C1612 1.356 . S
N1610 H1622 0.984 . S
N1610 H1623 0.985 . S
N1611 C1613 1.356 . S
N1611 H1616 0.984 . S
N1611 H1617 0.985 . S
C1612 C1606 1.379 . S
C1612 C1609 1.363 . S
C1612 N1610 1.356 . S
C1613 C1607 1.363 . S
C1613 C1608 1.379 . S
C1613 N1611 1.356 . S
N1614 C1606 1.356 . S
N1614 H1620 0.984 . S
N1614 H1621 0.984 . S
N1615 C1608 1.356 . S
N1615 H1618 0.984 . S
N1615 H1619 0.985 . S
H1616 N1611 0.984 . S
H1617 N1611 0.985 . S
H1618 N1615 0.984 . S
H1619 N1615 0.985 . S
H1620 N1614 0.984 . S
H1621 N1614 0.984 . S
H1622 N1610 0.984 . S
H1623 N1610 0.985 . S
C1624 C1625 1.363 . S
C1624 C1630 1.379 . S
C1624 N1632 1.356 . S
C1625 C1624 1.363 . S
C1625 C1631 1.363 . S
C1626 C1627 1.363 . S
C1626 C1631 1.379 . S
C1626 N1633 1.356 . S
C1627 C1626 1.363 . S
C1627 C1630 1.363 . S
N1628 C1630 1.356 . S
N1628 H1640 0.984 . S
N1628 H1641 0.985 . S
N1629 C1631 1.356 . S
N1629 H1634 0.984 . S
N1629 H1635 0.985 . S
C1630 C1624 1.379 . S
C1630 C1627 1.363 . S
C1630 N1628 1.356 . S
C1631 C1625 1.363 . S
C1631 C1626 1.379 . S
C1631 N1629 1.356 . S
N1632 C1624 1.356 . S
N1632 H1638 0.984 . S
N1632 H1639 0.984 . S
N1633 C1626 1.356 . S
N1633 H1636 0.984 . S
N1633 H1637 0.985 . S
H1634 N1629 0.984 . S
H1635 N1629 0.985 . S
H1636 N1633 0.984 . S
H1637 N1633 0.985 . S
H1638 N1632 0.984 . S
H1639 N1632 0.984 . S
H1640 N1628 0.984 . S
H1641 N1628 0.985 . S
C1642 C1643 1.363 . S
C1642 C1648 1.379 . S
C1642 N1650 1.356 . S
C1643 C1642 1.363 . S
C1643 C1649 1.363 . S
C1644 C1645 1.363 . S
C1644 C1649 1.379 . S
C1644 N1651 1.356 . S
C1645 C1644 1.363 . S
C1645 C1648 1.363 . S
N1646 C1648 1.356 . S
N1646 H1658 0.984 . S
N1646 H1659 0.985 . S
N1647 C1649 1.356 . S
N1647 H1652 0.984 . S
N1647 H1653 0.985 . S
C1648 C1642 1.379 . S
C1648 C1645 1.363 . S
C1648 N1646 1.356 . S
C1649 C1643 1.363 . S
C1649 C1644 1.379 . S
C1649 N1647 1.356 . S
N1650 C1642 1.356 . S
N1650 H1656 0.984 . S
N1650 H1657 0.984 . S
N1651 C1644 1.356 . S
N1651 H1654 0.984 . S
N1651 H1655 0.985 . S
H1652 N1647 0.984 . S
H1653 N1647 0.985 . S
H1654 N1651 0.984 . S
H1655 N1651 0.985 . S
H1656 N1650 0.984 . S
H1657 N1650 0.984 . S
H1658 N1646 0.984 . S
H1659 N1646 0.985 . S
C1660 C1661 1.363 . S
C1660 C1666 1.379 . S
C1660 N1668 1.356 . S
C1661 C1660 1.363 . S
C1661 C1667 1.363 . S
C1662 C1663 1.363 . S
C1662 C1667 1.379 . S
C1662 N1669 1.356 . S
C1663 C1662 1.363 . S
C1663 C1666 1.363 . S
N1664 C1666 1.356 . S
N1664 H1676 0.984 . S
N1664 H1677 0.985 . S
N1665 C1667 1.356 . S
N1665 H1670 0.984 . S
N1665 H1671 0.985 . S
C1666 C1660 1.379 . S
C1666 C1663 1.363 . S
C1666 N1664 1.356 . S
C1667 C1661 1.363 . S
C1667 C1662 1.379 . S
C1667 N1665 1.356 . S
N1668 C1660 1.356 . S
N1668 H1674 0.984 . S
N1668 H1675 0.984 . S
N1669 C1662 1.356 . S
N1669 H1672 0.984 . S
N1669 H1673 0.985 . S
H1670 N1665 0.984 . S
H1671 N1665 0.985 . S
H1672 N1669 0.984 . S
H1673 N1669 0.985 . S
H1674 N1668 0.984 . S
H1675 N1668 0.984 . S
H1676 N1664 0.984 . S
H1677 N1664 0.985 . S
C1678 C1679 1.363 . S
C1678 C1684 1.379 . S
C1678 N1686 1.356 . S
C1679 C1678 1.363 . S
C1679 C1685 1.363 . S
C1680 C1681 1.363 . S
C1680 C1685 1.379 . S
C1680 N1687 1.356 . S
C1681 C1680 1.363 . S
C1681 C1684 1.363 . S
N1682 C1684 1.356 . S
N1682 H1694 0.984 . S
N1682 H1695 0.985 . S
N1683 C1685 1.356 . S
N1683 H1688 0.984 . S
N1683 H1689 0.985 . S
C1684 C1678 1.379 . S
C1684 C1681 1.363 . S
C1684 N1682 1.356 . S
C1685 C1679 1.363 . S
C1685 C1680 1.379 . S
C1685 N1683 1.356 . S
N1686 C1678 1.356 . S
N1686 H1692 0.984 . S
N1686 H1693 0.984 . S
N1687 C1680 1.356 . S
N1687 H1690 0.984 . S
N1687 H1691 0.985 . S
H1688 N1683 0.984 . S
H1689 N1683 0.985 . S
H1690 N1687 0.984 . S
H1691 N1687 0.985 . S
H1692 N1686 0.984 . S
H1693 N1686 0.984 . S
H1694 N1682 0.984 . S
H1695 N1682 0.985 . S
C1696 C1697 1.363 . S
C1696 C1702 1.379 . S
C1696 N1704 1.356 . S
C1697 C1696 1.363 . S
C1697 C1703 1.363 . S
C1698 C1699 1.363 . S
C1698 C1703 1.379 . S
C1698 N1705 1.356 . S
C1699 C1698 1.363 . S
C1699 C1702 1.363 . S
N1700 C1702 1.356 . S
N1700 H1712 0.984 . S
N1700 H1713 0.985 . S
N1701 C1703 1.356 . S
N1701 H1706 0.984 . S
N1701 H1707 0.985 . S
C1702 C1696 1.379 . S
C1702 C1699 1.363 . S
C1702 N1700 1.356 . S
C1703 C1697 1.363 . S
C1703 C1698 1.379 . S
C1703 N1701 1.356 . S
N1704 C1696 1.356 . S
N1704 H1710 0.984 . S
N1704 H1711 0.984 . S
N1705 C1698 1.356 . S
N1705 H1708 0.984 . S
N1705 H1709 0.985 . S
H1706 N1701 0.984 . S
H1707 N1701 0.985 . S
H1708 N1705 0.984 . S
H1709 N1705 0.985 . S
H1710 N1704 0.984 . S
H1711 N1704 0.984 . S
H1712 N1700 0.984 . S
H1713 N1700 0.985 . S
C1714 C1715 1.363 . S
C1714 C1720 1.379 . S
C1714 N1722 1.356 . S
C1715 C1714 1.363 . S
C1715 C1721 1.363 . S
C1716 C1717 1.363 . S
C1716 C1721 1.379 . S
C1716 N1723 1.356 . S
C1717 C1716 1.363 . S
C1717 C1720 1.363 . S
N1718 C1720 1.356 . S
N1718 H1730 0.984 . S
N1718 H1731 0.985 . S
N1719 C1721 1.356 . S
N1719 H1724 0.984 . S
N1719 H1725 0.985 . S
C1720 C1714 1.379 . S
C1720 C1717 1.363 . S
C1720 N1718 1.356 . S
C1721 C1715 1.363 . S
C1721 C1716 1.379 . S
C1721 N1719 1.356 . S
N1722 C1714 1.356 . S
N1722 H1728 0.984 . S
N1722 H1729 0.984 . S
N1723 C1716 1.356 . S
N1723 H1726 0.984 . S
N1723 H1727 0.985 . S
H1724 N1719 0.984 . S
H1725 N1719 0.985 . S
H1726 N1723 0.984 . S
H1727 N1723 0.985 . S
H1728 N1722 0.984 . S
H1729 N1722 0.984 . S
H1730 N1718 0.984 . S
H1731 N1718 0.985 . S
C1732 C1733 1.363 . S
C1732 C1738 1.379 . S
C1732 N1740 1.356 . S
C1733 C1732 1.363 . S
C1733 C1739 1.363 . S
C1734 C1735 1.363 . S
C1734 C1739 1.379 . S
C1734 N1741 1.356 . S
C1735 C1734 1.363 . S
C1735 C1738 1.363 . S
N1736 C1738 1.356 . S
N1736 H1748 0.984 . S
N1736 H1749 0.985 . S
N1737 C1739 1.356 . S
N1737 H1742 0.984 . S
N1737 H1743 0.985 . S
C1738 C1732 1.379 . S
C1738 C1735 1.363 . S
C1738 N1736 1.356 . S
C1739 C1733 1.363 . S
C1739 C1734 1.379 . S
C1739 N1737 1.356 . S
N1740 C1732 1.356 . S
N1740 H1746 0.984 . S
N1740 H1747 0.984 . S
N1741 C1734 1.356 . S
N1741 H1744 0.984 . S
N1741 H1745 0.985 . S
H1742 N1737 0.984 . S
H1743 N1737 0.985 . S
H1744 N1741 0.984 . S
H1745 N1741 0.985 . S
H1746 N1740 0.984 . S
H1747 N1740 0.984 . S
H1748 N1736 0.984 . S
H1749 N1736 0.985 . S
C1750 C1751 1.363 . S
C1750 C1756 1.379 . S
C1750 N1758 1.356 . S
C1751 C1750 1.363 . S
C1751 C1757 1.363 . S
C1752 C1753 1.363 . S
C1752 C1757 1.379 . S
C1752 N1759 1.356 . S
C1753 C1752 1.363 . S
C1753 C1756 1.363 . S
N1754 C1756 1.356 . S
N1754 H1766 0.984 . S
N1754 H1767 0.985 . S
N1755 C1757 1.356 . S
N1755 H1760 0.984 . S
N1755 H1761 0.985 . S
C1756 C1750 1.379 . S
C1756 C1753 1.363 . S
C1756 N1754 1.356 . S
C1757 C1751 1.363 . S
C1757 C1752 1.379 . S
C1757 N1755 1.356 . S
N1758 C1750 1.356 . S
N1758 H1764 0.984 . S
N1758 H1765 0.984 . S
N1759 C1752 1.356 . S
N1759 H1762 0.984 . S
N1759 H1763 0.985 . S
H1760 N1755 0.984 . S
H1761 N1755 0.985 . S
H1762 N1759 0.984 . S
H1763 N1759 0.985 . S
H1764 N1758 0.984 . S
H1765 N1758 0.984 . S
H1766 N1754 0.984 . S
H1767 N1754 0.985 . S
C1768 C1769 1.363 . S
C1768 C1774 1.379 . S
C1768 N1776 1.356 . S
C1769 C1768 1.363 . S
C1769 C1775 1.363 . S
C1770 C1771 1.363 . S
C1770 C1775 1.379 . S
C1770 N1777 1.356 . S
C1771 C1770 1.363 . S
C1771 C1774 1.363 . S
N1772 C1774 1.356 . S
N1772 H1784 0.984 . S
N1772 H1785 0.985 . S
N1773 C1775 1.356 . S
N1773 H1778 0.984 . S
N1773 H1779 0.985 . S
C1774 C1768 1.379 . S
C1774 C1771 1.363 . S
C1774 N1772 1.356 . S
C1775 C1769 1.363 . S
C1775 C1770 1.379 . S
C1775 N1773 1.356 . S
N1776 C1768 1.356 . S
N1776 H1782 0.984 . S
N1776 H1783 0.984 . S
N1777 C1770 1.356 . S
N1777 H1780 0.984 . S
N1777 H1781 0.985 . S
H1778 N1773 0.984 . S
H1779 N1773 0.985 . S
H1780 N1777 0.984 . S
H1781 N1777 0.985 . S
H1782 N1776 0.984 . S
H1783 N1776 0.984 . S
H1784 N1772 0.984 . S
H1785 N1772 0.985 . S
C1786 C1787 1.363 . S
C1786 C1792 1.379 . S
C1786 N1794 1.356 . S
C1787 C1786 1.363 . S
C1787 C1793 1.363 . S
C1788 C1789 1.363 . S
C1788 C1793 1.379 . S
C1788 N1795 1.356 . S
C1789 C1788 1.363 . S
C1789 C1792 1.363 . S
N1790 C1792 1.356 . S
N1790 H1802 0.984 . S
N1790 H1803 0.985 . S
N1791 C1793 1.356 . S
N1791 H1796 0.984 . S
N1791 H1797 0.985 . S
C1792 C1786 1.379 . S
C1792 C1789 1.363 . S
C1792 N1790 1.356 . S
C1793 C1787 1.363 . S
C1793 C1788 1.379 . S
C1793 N1791 1.356 . S
N1794 C1786 1.356 . S
N1794 H1800 0.984 . S
N1794 H1801 0.984 . S
N1795 C1788 1.356 . S
N1795 H1798 0.984 . S
N1795 H1799 0.985 . S
H1796 N1791 0.984 . S
H1797 N1791 0.985 . S
H1798 N1795 0.984 . S
H1799 N1795 0.985 . S
H1800 N1794 0.984 . S
H1801 N1794 0.984 . S
H1802 N1790 0.984 . S
H1803 N1790 0.985 . S
C1804 C1805 1.363 . S
C1804 C1810 1.379 . S
C1804 N1812 1.356 . S
C1805 C1804 1.363 . S
C1805 C1811 1.363 . S
C1806 C1807 1.363 . S
C1806 C1811 1.379 . S
C1806 N1813 1.356 . S
C1807 C1806 1.363 . S
C1807 C1810 1.363 . S
N1808 C1810 1.356 . S
N1808 H1820 0.984 . S
N1808 H1821 0.985 . S
N1809 C1811 1.356 . S
N1809 H1814 0.984 . S
N1809 H1815 0.985 . S
C1810 C1804 1.379 . S
C1810 C1807 1.363 . S
C1810 N1808 1.356 . S
C1811 C1805 1.363 . S
C1811 C1806 1.379 . S
C1811 N1809 1.356 . S
N1812 C1804 1.356 . S
N1812 H1818 0.984 . S
N1812 H1819 0.984 . S
N1813 C1806 1.356 . S
N1813 H1816 0.984 . S
N1813 H1817 0.985 . S
H1814 N1809 0.984 . S
H1815 N1809 0.985 . S
H1816 N1813 0.984 . S
H1817 N1813 0.985 . S
H1818 N1812 0.984 . S
H1819 N1812 0.984 . S
H1820 N1808 0.984 . S
H1821 N1808 0.985 . S
C1822 C1823 1.363 . S
C1822 C1828 1.379 . S
C1822 N1830 1.356 . S
C1823 C1822 1.363 . S
C1823 C1829 1.363 . S
C1824 C1825 1.363 . S
C1824 C1829 1.379 . S
C1824 N1831 1.356 . S
C1825 C1824 1.363 . S
C1825 C1828 1.363 . S
N1826 C1828 1.356 . S
N1826 H1838 0.984 . S
N1826 H1839 0.985 . S
N1827 C1829 1.356 . S
N1827 H1832 0.984 . S
N1827 H1833 0.985 . S
C1828 C1822 1.379 . S
C1828 C1825 1.363 . S
C1828 N1826 1.356 . S
C1829 C1823 1.363 . S
C1829 C1824 1.379 . S
C1829 N1827 1.356 . S
N1830 C1822 1.356 . S
N1830 H1836 0.984 . S
N1830 H1837 0.984 . S
N1831 C1824 1.356 . S
N1831 H1834 0.984 . S
N1831 H1835 0.985 . S
H1832 N1827 0.984 . S
H1833 N1827 0.985 . S
H1834 N1831 0.984 . S
H1835 N1831 0.985 . S
H1836 N1830 0.984 . S
H1837 N1830 0.984 . S
H1838 N1826 0.984 . S
H1839 N1826 0.985 . S
C1840 C1841 1.363 . S
C1840 C1846 1.379 . S
C1840 N1848 1.356 . S
C1841 C1840 1.363 . S
C1841 C1847 1.363 . S
C1842 C1843 1.363 . S
C1842 C1847 1.379 . S
C1842 N1849 1.356 . S
C1843 C1842 1.363 . S
C1843 C1846 1.363 . S
N1844 C1846 1.356 . S
N1844 H1856 0.984 . S
N1844 H1857 0.985 . S
N1845 C1847 1.356 . S
N1845 H1850 0.984 . S
N1845 H1851 0.985 . S
C1846 C1840 1.379 . S
C1846 C1843 1.363 . S
C1846 N1844 1.356 . S
C1847 C1841 1.363 . S
C1847 C1842 1.379 . S
C1847 N1845 1.356 . S
N1848 C1840 1.356 . S
N1848 H1854 0.984 . S
N1848 H1855 0.984 . S
N1849 C1842 1.356 . S
N1849 H1852 0.984 . S
N1849 H1853 0.985 . S
H1850 N1845 0.984 . S
H1851 N1845 0.985 . S
H1852 N1849 0.984 . S
H1853 N1849 0.985 . S
H1854 N1848 0.984 . S
H1855 N1848 0.984 . S
H1856 N1844 0.984 . S
H1857 N1844 0.985 . S
C1858 C1859 1.363 . S
C1858 C1864 1.379 . S
C1858 N1866 1.356 . S
C1859 C1858 1.363 . S
C1859 C1865 1.363 . S
C1860 C1861 1.363 . S
C1860 C1865 1.379 . S
C1860 N1867 1.356 . S
C1861 C1860 1.363 . S
C1861 C1864 1.363 . S
N1862 C1864 1.356 . S
N1862 H1874 0.984 . S
N1862 H1875 0.985 . S
N1863 C1865 1.356 . S
N1863 H1868 0.984 . S
N1863 H1869 0.985 . S
C1864 C1858 1.379 . S
C1864 C1861 1.363 . S
C1864 N1862 1.356 . S
C1865 C1859 1.363 . S
C1865 C1860 1.379 . S
C1865 N1863 1.356 . S
N1866 C1858 1.356 . S
N1866 H1872 0.984 . S
N1866 H1873 0.984 . S
N1867 C1860 1.356 . S
N1867 H1870 0.984 . S
N1867 H1871 0.985 . S
H1868 N1863 0.984 . S
H1869 N1863 0.985 . S
H1870 N1867 0.984 . S
H1871 N1867 0.985 . S
H1872 N1866 0.984 . S
H1873 N1866 0.984 . S
H1874 N1862 0.984 . S
H1875 N1862 0.985 . S
C1876 C1877 1.363 . S
C1876 C1882 1.379 . S
C1876 N1884 1.356 . S
C1877 C1876 1.363 . S
C1877 C1883 1.363 . S
C1878 C1879 1.363 . S
C1878 C1883 1.379 . S
C1878 N1885 1.356 . S
C1879 C1878 1.363 . S
C1879 C1882 1.363 . S
N1880 C1882 1.356 . S
N1880 H1892 0.984 . S
N1880 H1893 0.985 . S
N1881 C1883 1.356 . S
N1881 H1886 0.984 . S
N1881 H1887 0.985 . S
C1882 C1876 1.379 . S
C1882 C1879 1.363 . S
C1882 N1880 1.356 . S
C1883 C1877 1.363 . S
C1883 C1878 1.379 . S
C1883 N1881 1.356 . S
N1884 C1876 1.356 . S
N1884 H1890 0.984 . S
N1884 H1891 0.984 . S
N1885 C1878 1.356 . S
N1885 H1888 0.984 . S
N1885 H1889 0.985 . S
H1886 N1881 0.984 . S
H1887 N1881 0.985 . S
H1888 N1885 0.984 . S
H1889 N1885 0.985 . S
H1890 N1884 0.984 . S
H1891 N1884 0.984 . S
H1892 N1880 0.984 . S
H1893 N1880 0.985 . S
C1894 C1895 1.363 . S
C1894 C1900 1.379 . S
C1894 N1902 1.356 . S
C1895 C1894 1.363 . S
C1895 C1901 1.363 . S
C1896 C1897 1.363 . S
C1896 C1901 1.379 . S
C1896 N1903 1.356 . S
C1897 C1896 1.363 . S
C1897 C1900 1.363 . S
N1898 C1900 1.356 . S
N1898 H1910 0.984 . S
N1898 H1911 0.985 . S
N1899 C1901 1.356 . S
N1899 H1904 0.984 . S
N1899 H1905 0.985 . S
C1900 C1894 1.379 . S
C1900 C1897 1.363 . S
C1900 N1898 1.356 . S
C1901 C1895 1.363 . S
C1901 C1896 1.379 . S
C1901 N1899 1.356 . S
N1902 C1894 1.356 . S
N1902 H1908 0.984 . S
N1902 H1909 0.984 . S
N1903 C1896 1.356 . S
N1903 H1906 0.984 . S
N1903 H1907 0.985 . S
H1904 N1899 0.984 . S
H1905 N1899 0.985 . S
H1906 N1903 0.984 . S
H1907 N1903 0.985 . S
H1908 N1902 0.984 . S
H1909 N1902 0.984 . S
H1910 N1898 0.984 . S
H1911 N1898 0.985 . S
C1912 C1913 1.363 . S
C1912 C1918 1.379 . S
C1912 N1920 1.356 . S
C1913 C1912 1.363 . S
C1913 C1919 1.363 . S
C1914 C1915 1.363 . S
C1914 C1919 1.379 . S
C1914 N1921 1.356 . S
C1915 C1914 1.363 . S
C1915 C1918 1.363 . S
N1916 C1918 1.356 . S
N1916 H1928 0.984 . S
N1916 H1929 0.985 . S
N1917 C1919 1.356 . S
N1917 H1922 0.984 . S
N1917 H1923 0.985 . S
C1918 C1912 1.379 . S
C1918 C1915 1.363 . S
C1918 N1916 1.356 . S
C1919 C1913 1.363 . S
C1919 C1914 1.379 . S
C1919 N1917 1.356 . S
N1920 C1912 1.356 . S
N1920 H1926 0.984 . S
N1920 H1927 0.984 . S
N1921 C1914 1.356 . S
N1921 H1924 0.984 . S
N1921 H1925 0.985 . S
H1922 N1917 0.984 . S
H1923 N1917 0.985 . S
H1924 N1921 0.984 . S
H1925 N1921 0.985 . S
H1926 N1920 0.984 . S
H1927 N1920 0.984 . S
H1928 N1916 0.984 . S
H1929 N1916 0.985 . S
C1930 C1931 1.363 . S
C1930 C1936 1.379 . S
C1930 N1938 1.356 . S
C1931 C1930 1.363 . S
C1931 C1937 1.363 . S
C1932 C1933 1.363 . S
C1932 C1937 1.379 . S
C1932 N1939 1.356 . S
C1933 C1932 1.363 . S
C1933 C1936 1.363 . S
N1934 C1936 1.356 . S
N1934 H1946 0.984 . S
N1934 H1947 0.985 . S
N1935 C1937 1.356 . S
N1935 H1940 0.984 . S
N1935 H1941 0.985 . S
C1936 C1930 1.379 . S
C1936 C1933 1.363 . S
C1936 N1934 1.356 . S
C1937 C1931 1.363 . S
C1937 C1932 1.379 . S
C1937 N1935 1.356 . S
N1938 C1930 1.356 . S
N1938 H1944 0.984 . S
N1938 H1945 0.984 . S
N1939 C1932 1.356 . S
N1939 H1942 0.984 . S
N1939 H1943 0.985 . S
H1940 N1935 0.984 . S
H1941 N1935 0.985 . S
H1942 N1939 0.984 . S
H1943 N1939 0.985 . S
H1944 N1938 0.984 . S
H1945 N1938 0.984 . S
H1946 N1934 0.984 . S
H1947 N1934 0.985 . S
C1948 C1949 1.363 . S
C1948 C1954 1.379 . S
C1948 N1956 1.356 . S
C1949 C1948 1.363 . S
C1949 C1955 1.363 . S
C1950 C1951 1.363 . S
C1950 C1955 1.379 . S
C1950 N1957 1.356 . S
C1951 C1950 1.363 . S
C1951 C1954 1.363 . S
N1952 C1954 1.356 . S
N1952 H1964 0.984 . S
N1952 H1965 0.985 . S
N1953 C1955 1.356 . S
N1953 H1958 0.984 . S
N1953 H1959 0.985 . S
C1954 C1948 1.379 . S
C1954 C1951 1.363 . S
C1954 N1952 1.356 . S
C1955 C1949 1.363 . S
C1955 C1950 1.379 . S
C1955 N1953 1.356 . S
N1956 C1948 1.356 . S
N1956 H1962 0.984 . S
N1956 H1963 0.984 . S
N1957 C1950 1.356 . S
N1957 H1960 0.984 . S
N1957 H1961 0.985 . S
H1958 N1953 0.984 . S
H1959 N1953 0.985 . S
H1960 N1957 0.984 . S
H1961 N1957 0.985 . S
H1962 N1956 0.984 . S
H1963 N1956 0.984 . S
H1964 N1952 0.984 . S
H1965 N1952 0.985 . S
C1966 C1967 1.363 . S
C1966 C1972 1.379 . S
C1966 N1974 1.356 . S
C1967 C1966 1.363 . S
C1967 C1973 1.363 . S
C1968 C1969 1.363 . S
C1968 C1973 1.379 . S
C1968 N1975 1.356 . S
C1969 C1968 1.363 . S
C1969 C1972 1.363 . S
N1970 C1972 1.356 . S
N1970 H1982 0.984 . S
N1970 H1983 0.985 . S
N1971 C1973 1.356 . S
N1971 H1976 0.984 . S
N1971 H1977 0.985 . S
C1972 C1966 1.379 . S
C1972 C1969 1.363 . S
C1972 N1970 1.356 . S
C1973 C1967 1.363 . S
C1973 C1968 1.379 . S
C1973 N1971 1.356 . S
N1974 C1966 1.356 . S
N1974 H1980 0.984 . S
N1974 H1981 0.984 . S
N1975 C1968 1.356 . S
N1975 H1978 0.984 . S
N1975 H1979 0.985 . S
H1976 N1971 0.984 . S
H1977 N1971 0.985 . S
H1978 N1975 0.984 . S
H1979 N1975 0.985 . S
H1980 N1974 0.984 . S
H1981 N1974 0.984 . S
H1982 N1970 0.984 . S
H1983 N1970 0.985 . S
C1984 C1985 1.363 . S
C1984 C1990 1.379 . S
C1984 N1992 1.356 . S
C1985 C1984 1.363 . S
C1985 C1991 1.363 . S
C1986 C1987 1.363 . S
C1986 C1991 1.379 . S
C1986 N1993 1.356 . S
C1987 C1986 1.363 . S
C1987 C1990 1.363 . S
N1988 C1990 1.356 . S
N1988 H2000 0.984 . S
N1988 H2001 0.985 . S
N1989 C1991 1.356 . S
N1989 H1994 0.984 . S
N1989 H1995 0.985 . S
C1990 C1984 1.379 . S
C1990 C1987 1.363 . S
C1990 N1988 1.356 . S
C1991 C1985 1.363 . S
C1991 C1986 1.379 . S
C1991 N1989 1.356 . S
N1992 C1984 1.356 . S
N1992 H1998 0.984 . S
N1992 H1999 0.984 . S
N1993 C1986 1.356 . S
N1993 H1996 0.984 . S
N1993 H1997 0.985 . S
H1994 N1989 0.984 . S
H1995 N1989 0.985 . S
H1996 N1993 0.984 . S
H1997 N1993 0.985 . S
H1998 N1992 0.984 . S
H1999 N1992 0.984 . S
H2000 N1988 0.984 . S
H2001 N1988 0.985 . S
C2002 C2003 1.363 . S
C2002 C2008 1.379 . S
C2002 N2010 1.356 . S
C2003 C2002 1.363 . S
C2003 C2009 1.363 . S
C2004 C2005 1.363 . S
C2004 C2009 1.379 . S
C2004 N2011 1.356 . S
C2005 C2004 1.363 . S
C2005 C2008 1.363 . S
N2006 C2008 1.356 . S
N2006 H2018 0.984 . S
N2006 H2019 0.985 . S
N2007 C2009 1.356 . S
N2007 H2012 0.984 . S
N2007 H2013 0.985 . S
C2008 C2002 1.379 . S
C2008 C2005 1.363 . S
C2008 N2006 1.356 . S
C2009 C2003 1.363 . S
C2009 C2004 1.379 . S
C2009 N2007 1.356 . S
N2010 C2002 1.356 . S
N2010 H2016 0.984 . S
N2010 H2017 0.984 . S
N2011 C2004 1.356 . S
N2011 H2014 0.984 . S
N2011 H2015 0.985 . S
H2012 N2007 0.984 . S
H2013 N2007 0.985 . S
H2014 N2011 0.984 . S
H2015 N2011 0.985 . S
H2016 N2010 0.984 . S
H2017 N2010 0.984 . S
H2018 N2006 0.984 . S
H2019 N2006 0.985 . S
C2020 C2021 1.363 . S
C2020 C2026 1.379 . S
C2020 N2028 1.356 . S
C2021 C2020 1.363 . S
C2021 C2027 1.363 . S
C2022 C2023 1.363 . S
C2022 C2027 1.379 . S
C2022 N2029 1.356 . S
C2023 C2022 1.363 . S
C2023 C2026 1.363 . S
N2024 C2026 1.356 . S
N2024 H2036 0.984 . S
N2024 H2037 0.985 . S
N2025 C2027 1.356 . S
N2025 H2030 0.984 . S
N2025 H2031 0.985 . S
C2026 C2020 1.379 . S
C2026 C2023 1.363 . S
C2026 N2024 1.356 . S
C2027 C2021 1.363 . S
C2027 C2022 1.379 . S
C2027 N2025 1.356 . S
N2028 C2020 1.356 . S
N2028 H2034 0.984 . S
N2028 H2035 0.984 . S
N2029 C2022 1.356 . S
N2029 H2032 0.984 . S
N2029 H2033 0.985 . S
H2030 N2025 0.984 . S
H2031 N2025 0.985 . S
H2032 N2029 0.984 . S
H2033 N2029 0.985 . S
H2034 N2028 0.984 . S
H2035 N2028 0.984 . S
H2036 N2024 0.984 . S
H2037 N2024 0.985 . S
C2038 C2039 1.363 . S
C2038 C2044 1.379 . S
C2038 N2046 1.356 . S
C2039 C2038 1.363 . S
C2039 C2045 1.363 . S
C2040 C2041 1.363 . S
C2040 C2045 1.379 . S
C2040 N2047 1.356 . S
C2041 C2040 1.363 . S
C2041 C2044 1.363 . S
N2042 C2044 1.356 . S
N2042 H2054 0.984 . S
N2042 H2055 0.985 . S
N2043 C2045 1.356 . S
N2043 H2048 0.984 . S
N2043 H2049 0.985 . S
C2044 C2038 1.379 . S
C2044 C2041 1.363 . S
C2044 N2042 1.356 . S
C2045 C2039 1.363 . S
C2045 C2040 1.379 . S
C2045 N2043 1.356 . S
N2046 C2038 1.356 . S
N2046 H2052 0.984 . S
N2046 H2053 0.984 . S
N2047 C2040 1.356 . S
N2047 H2050 0.984 . S
N2047 H2051 0.985 . S
H2048 N2043 0.984 . S
H2049 N2043 0.985 . S
H2050 N2047 0.984 . S
H2051 N2047 0.985 . S
H2052 N2046 0.984 . S
H2053 N2046 0.984 . S
H2054 N2042 0.984 . S
H2055 N2042 0.985 . S
C2056 C2057 1.363 . S
C2056 C2062 1.379 . S
C2056 N2064 1.356 . S
C2057 C2056 1.363 . S
C2057 C2063 1.363 . S
C2058 C2059 1.363 . S
C2058 C2063 1.379 . S
C2058 N2065 1.356 . S
C2059 C2058 1.363 . S
C2059 C2062 1.363 . S
N2060 C2062 1.356 . S
N2060 H2072 0.984 . S
N2060 H2073 0.985 . S
N2061 C2063 1.356 . S
N2061 H2066 0.984 . S
N2061 H2067 0.985 . S
C2062 C2056 1.379 . S
C2062 C2059 1.363 . S
C2062 N2060 1.356 . S
C2063 C2057 1.363 . S
C2063 C2058 1.379 . S
C2063 N2061 1.356 . S
N2064 C2056 1.356 . S
N2064 H2070 0.984 . S
N2064 H2071 0.984 . S
N2065 C2058 1.356 . S
N2065 H2068 0.984 . S
N2065 H2069 0.985 . S
H2066 N2061 0.984 . S
H2067 N2061 0.985 . S
H2068 N2065 0.984 . S
H2069 N2065 0.985 . S
H2070 N2064 0.984 . S
H2071 N2064 0.984 . S
H2072 N2060 0.984 . S
H2073 N2060 0.985 . S
C2074 C2075 1.363 . S
C2074 C2080 1.379 . S
C2074 N2082 1.356 . S
C2075 C2074 1.363 . S
C2075 C2081 1.363 . S
C2076 C2077 1.363 . S
C2076 C2081 1.379 . S
C2076 N2083 1.356 . S
C2077 C2076 1.363 . S
C2077 C2080 1.363 . S
N2078 C2080 1.356 . S
N2078 H2090 0.984 . S
N2078 H2091 0.985 . S
N2079 C2081 1.356 . S
N2079 H2084 0.984 . S
N2079 H2085 0.985 . S
C2080 C2074 1.379 . S
C2080 C2077 1.363 . S
C2080 N2078 1.356 . S
C2081 C2075 1.363 . S
C2081 C2076 1.379 . S
C2081 N2079 1.356 . S
N2082 C2074 1.356 . S
N2082 H2088 0.984 . S
N2082 H2089 0.984 . S
N2083 C2076 1.356 . S
N2083 H2086 0.984 . S
N2083 H2087 0.985 . S
H2084 N2079 0.984 . S
H2085 N2079 0.985 . S
H2086 N2083 0.984 . S
H2087 N2083 0.985 . S
H2088 N2082 0.984 . S
H2089 N2082 0.984 . S
H2090 N2078 0.984 . S
H2091 N2078 0.985 . S
C2092 C2093 1.363 . S
C2092 C2098 1.379 . S
C2092 N2100 1.356 . S
C2093 C2092 1.363 . S
C2093 C2099 1.363 . S
C2094 C2095 1.363 . S
C2094 C2099 1.379 . S
C2094 N2101 1.356 . S
C2095 C2094 1.363 . S
C2095 C2098 1.363 . S
N2096 C2098 1.356 . S
N2096 H2108 0.984 . S
N2096 H2109 0.985 . S
N2097 C2099 1.356 . S
N2097 H2102 0.984 . S
N2097 H2103 0.985 . S
C2098 C2092 1.379 . S
C2098 C2095 1.363 . S
C2098 N2096 1.356 . S
C2099 C2093 1.363 . S
C2099 C2094 1.379 . S
C2099 N2097 1.356 . S
N2100 C2092 1.356 . S
N2100 H2106 0.984 . S
N2100 H2107 0.984 . S
N2101 C2094 1.356 . S
N2101 H2104 0.984 . S
N2101 H2105 0.985 . S
H2102 N2097 0.984 . S
H2103 N2097 0.985 . S
H2104 N2101 0.984 . S
H2105 N2101 0.985 . S
H2106 N2100 0.984 . S
H2107 N2100 0.984 . S
H2108 N2096 0.984 . S
H2109 N2096 0.985 . S
C2110 C2111 1.363 . S
C2110 C2116 1.379 . S
C2110 N2118 1.356 . S
C2111 C2110 1.363 . S
C2111 C2117 1.363 . S
C2112 C2113 1.363 . S
C2112 C2117 1.379 . S
C2112 N2119 1.356 . S
C2113 C2112 1.363 . S
C2113 C2116 1.363 . S
N2114 C2116 1.356 . S
N2114 H2126 0.984 . S
N2114 H2127 0.985 . S
N2115 C2117 1.356 . S
N2115 H2120 0.984 . S
N2115 H2121 0.985 . S
C2116 C2110 1.379 . S
C2116 C2113 1.363 . S
C2116 N2114 1.356 . S
C2117 C2111 1.363 . S
C2117 C2112 1.379 . S
C2117 N2115 1.356 . S
N2118 C2110 1.356 . S
N2118 H2124 0.984 . S
N2118 H2125 0.984 . S
N2119 C2112 1.356 . S
N2119 H2122 0.984 . S
N2119 H2123 0.985 . S
H2120 N2115 0.984 . S
H2121 N2115 0.985 . S
H2122 N2119 0.984 . S
H2123 N2119 0.985 . S
H2124 N2118 0.984 . S
H2125 N2118 0.984 . S
H2126 N2114 0.984 . S
H2127 N2114 0.985 . S
C2128 C2129 1.363 . S
C2128 C2134 1.379 . S
C2128 N2136 1.356 . S
C2129 C2128 1.363 . S
C2129 C2135 1.363 . S
C2130 C2131 1.363 . S
C2130 C2135 1.379 . S
C2130 N2137 1.356 . S
C2131 C2130 1.363 . S
C2131 C2134 1.363 . S
N2132 C2134 1.356 . S
N2132 H2144 0.984 . S
N2132 H2145 0.985 . S
N2133 C2135 1.356 . S
N2133 H2138 0.984 . S
N2133 H2139 0.985 . S
C2134 C2128 1.379 . S
C2134 C2131 1.363 . S
C2134 N2132 1.356 . S
C2135 C2129 1.363 . S
C2135 C2130 1.379 . S
C2135 N2133 1.356 . S
N2136 C2128 1.356 . S
N2136 H2142 0.984 . S
N2136 H2143 0.984 . S
N2137 C2130 1.356 . S
N2137 H2140 0.984 . S
N2137 H2141 0.985 . S
H2138 N2133 0.984 . S
H2139 N2133 0.985 . S
H2140 N2137 0.984 . S
H2141 N2137 0.985 . S
H2142 N2136 0.984 . S
H2143 N2136 0.984 . S
H2144 N2132 0.984 . S
H2145 N2132 0.985 . S
C2146 C2147 1.363 . S
C2146 C2152 1.379 . S
C2146 N2154 1.356 . S
C2147 C2146 1.363 . S
C2147 C2153 1.363 . S
C2148 C2149 1.363 . S
C2148 C2153 1.379 . S
C2148 N2155 1.356 . S
C2149 C2148 1.363 . S
C2149 C2152 1.363 . S
N2150 C2152 1.356 . S
N2150 H2162 0.984 . S
N2150 H2163 0.985 . S
N2151 C2153 1.356 . S
N2151 H2156 0.984 . S
N2151 H2157 0.985 . S
C2152 C2146 1.379 . S
C2152 C2149 1.363 . S
C2152 N2150 1.356 . S
C2153 C2147 1.363 . S
C2153 C2148 1.379 . S
C2153 N2151 1.356 . S
N2154 C2146 1.356 . S
N2154 H2160 0.984 . S
N2154 H2161 0.984 . S
N2155 C2148 1.356 . S
N2155 H2158 0.984 . S
N2155 H2159 0.985 . S
H2156 N2151 0.984 . S
H2157 N2151 0.985 . S
H2158 N2155 0.984 . S
H2159 N2155 0.985 . S
H2160 N2154 0.984 . S
H2161 N2154 0.984 . S
H2162 N2150 0.984 . S
H2163 N2150 0.985 . S
C2164 C2165 1.363 . S
C2164 C2170 1.379 . S
C2164 N2172 1.356 . S
C2165 C2164 1.363 . S
C2165 C2171 1.363 . S
C2166 C2167 1.363 . S
C2166 C2171 1.379 . S
C2166 N2173 1.356 . S
C2167 C2166 1.363 . S
C2167 C2170 1.363 . S
N2168 C2170 1.356 . S
N2168 H2180 0.984 . S
N2168 H2181 0.985 . S
N2169 C2171 1.356 . S
N2169 H2174 0.984 . S
N2169 H2175 0.985 . S
C2170 C2164 1.379 . S
C2170 C2167 1.363 . S
C2170 N2168 1.356 . S
C2171 C2165 1.363 . S
C2171 C2166 1.379 . S
C2171 N2169 1.356 . S
N2172 C2164 1.356 . S
N2172 H2178 0.984 . S
N2172 H2179 0.984 . S
N2173 C2166 1.356 . S
N2173 H2176 0.984 . S
N2173 H2177 0.985 . S
H2174 N2169 0.984 . S
H2175 N2169 0.985 . S
H2176 N2173 0.984 . S
H2177 N2173 0.985 . S
H2178 N2172 0.984 . S
H2179 N2172 0.984 . S
H2180 N2168 0.984 . S
H2181 N2168 0.985 . S
C2182 C2183 1.363 . S
C2182 C2188 1.379 . S
C2182 N2190 1.356 . S
C2183 C2182 1.363 . S
C2183 C2189 1.363 . S
C2184 C2185 1.363 . S
C2184 C2189 1.379 . S
C2184 N2191 1.356 . S
C2185 C2184 1.363 . S
C2185 C2188 1.363 . S
N2186 C2188 1.356 . S
N2186 H2198 0.984 . S
N2186 H2199 0.985 . S
N2187 C2189 1.356 . S
N2187 H2192 0.984 . S
N2187 H2193 0.985 . S
C2188 C2182 1.379 . S
C2188 C2185 1.363 . S
C2188 N2186 1.356 . S
C2189 C2183 1.363 . S
C2189 C2184 1.379 . S
C2189 N2187 1.356 . S
N2190 C2182 1.356 . S
N2190 H2196 0.984 . S
N2190 H2197 0.984 . S
N2191 C2184 1.356 . S
N2191 H2194 0.984 . S
N2191 H2195 0.985 . S
H2192 N2187 0.984 . S
H2193 N2187 0.985 . S
H2194 N2191 0.984 . S
H2195 N2191 0.985 . S
H2196 N2190 0.984 . S
H2197 N2190 0.984 . S
H2198 N2186 0.984 . S
H2199 N2186 0.985 . S
C2200 C2201 1.363 . S
C2200 C2206 1.379 . S
C2200 N2208 1.356 . S
C2201 C2200 1.363 . S
C2201 C2207 1.363 . S
C2202 C2203 1.363 . S
C2202 C2207 1.379 . S
C2202 N2209 1.356 . S
C2203 C2202 1.363 . S
C2203 C2206 1.363 . S
N2204 C2206 1.356 . S
N2204 H2216 0.984 . S
N2204 H2217 0.985 . S
N2205 C2207 1.356 . S
N2205 H2210 0.984 . S
N2205 H2211 0.985 . S
C2206 C2200 1.379 . S
C2206 C2203 1.363 . S
C2206 N2204 1.356 . S
C2207 C2201 1.363 . S
C2207 C2202 1.379 . S
C2207 N2205 1.356 . S
N2208 C2200 1.356 . S
N2208 H2214 0.984 . S
N2208 H2215 0.984 . S
N2209 C2202 1.356 . S
N2209 H2212 0.984 . S
N2209 H2213 0.985 . S
H2210 N2205 0.984 . S
H2211 N2205 0.985 . S
H2212 N2209 0.984 . S
H2213 N2209 0.985 . S
H2214 N2208 0.984 . S
H2215 N2208 0.984 . S
H2216 N2204 0.984 . S
H2217 N2204 0.985 . S
C2218 C2219 1.363 . S
C2218 C2224 1.379 . S
C2218 N2226 1.356 . S
C2219 C2218 1.363 . S
C2219 C2225 1.363 . S
C2220 C2221 1.363 . S
C2220 C2225 1.379 . S
C2220 N2227 1.356 . S
C2221 C2220 1.363 . S
C2221 C2224 1.363 . S
N2222 C2224 1.356 . S
N2222 H2234 0.984 . S
N2222 H2235 0.985 . S
N2223 C2225 1.356 . S
N2223 H2228 0.984 . S
N2223 H2229 0.985 . S
C2224 C2218 1.379 . S
C2224 C2221 1.363 . S
C2224 N2222 1.356 . S
C2225 C2219 1.363 . S
C2225 C2220 1.379 . S
C2225 N2223 1.356 . S
N2226 C2218 1.356 . S
N2226 H2232 0.984 . S
N2226 H2233 0.984 . S
N2227 C2220 1.356 . S
N2227 H2230 0.984 . S
N2227 H2231 0.985 . S
H2228 N2223 0.984 . S
H2229 N2223 0.985 . S
H2230 N2227 0.984 . S
H2231 N2227 0.985 . S
H2232 N2226 0.984 . S
H2233 N2226 0.984 . S
H2234 N2222 0.984 . S
H2235 N2222 0.985 . S
C2236 C2237 1.363 . S
C2236 C2242 1.379 . S
C2236 N2244 1.356 . S
C2237 C2236 1.363 . S
C2237 C2243 1.363 . S
C2238 C2239 1.363 . S
C2238 C2243 1.379 . S
C2238 N2245 1.356 . S
C2239 C2238 1.363 . S
C2239 C2242 1.363 . S
N2240 C2242 1.356 . S
N2240 H2252 0.984 . S
N2240 H2253 0.985 . S
N2241 C2243 1.356 . S
N2241 H2246 0.984 . S
N2241 H2247 0.985 . S
C2242 C2236 1.379 . S
C2242 C2239 1.363 . S
C2242 N2240 1.356 . S
C2243 C2237 1.363 . S
C2243 C2238 1.379 . S
C2243 N2241 1.356 . S
N2244 C2236 1.356 . S
N2244 H2250 0.984 . S
N2244 H2251 0.984 . S
N2245 C2238 1.356 . S
N2245 H2248 0.984 . S
N2245 H2249 0.985 . S
H2246 N2241 0.984 . S
H2247 N2241 0.985 . S
H2248 N2245 0.984 . S
H2249 N2245 0.985 . S
H2250 N2244 0.984 . S
H2251 N2244 0.984 . S
H2252 N2240 0.984 . S
H2253 N2240 0.985 . S
C2254 C2255 1.363 . S
C2254 C2260 1.379 . S
C2254 N2262 1.356 . S
C2255 C2254 1.363 . S
C2255 C2261 1.363 . S
C2256 C2257 1.363 . S
C2256 C2261 1.379 . S
C2256 N2263 1.356 . S
C2257 C2256 1.363 . S
C2257 C2260 1.363 . S
N2258 C2260 1.356 . S
N2258 H2270 0.984 . S
N2258 H2271 0.985 . S
N2259 C2261 1.356 . S
N2259 H2264 0.984 . S
N2259 H2265 0.985 . S
C2260 C2254 1.379 . S
C2260 C2257 1.363 . S
C2260 N2258 1.356 . S
C2261 C2255 1.363 . S
C2261 C2256 1.379 . S
C2261 N2259 1.356 . S
N2262 C2254 1.356 . S
N2262 H2268 0.984 . S
N2262 H2269 0.984 . S
N2263 C2256 1.356 . S
N2263 H2266 0.984 . S
N2263 H2267 0.985 . S
H2264 N2259 0.984 . S
H2265 N2259 0.985 . S
H2266 N2263 0.984 . S
H2267 N2263 0.985 . S
H2268 N2262 0.984 . S
H2269 N2262 0.984 . S
H2270 N2258 0.984 . S
H2271 N2258 0.985 . S
C2272 C2273 1.363 . S
C2272 C2278 1.379 . S
C2272 N2280 1.356 . S
C2273 C2272 1.363 . S
C2273 C2279 1.363 . S
C2274 C2275 1.363 . S
C2274 C2279 1.379 . S
C2274 N2281 1.356 . S
C2275 C2274 1.363 . S
C2275 C2278 1.363 . S
N2276 C2278 1.356 . S
N2276 H2288 0.984 . S
N2276 H2289 0.985 . S
N2277 C2279 1.356 . S
N2277 H2282 0.984 . S
N2277 H2283 0.985 . S
C2278 C2272 1.379 . S
C2278 C2275 1.363 . S
C2278 N2276 1.356 . S
C2279 C2273 1.363 . S
C2279 C2274 1.379 . S
C2279 N2277 1.356 . S
N2280 C2272 1.356 . S
N2280 H2286 0.984 . S
N2280 H2287 0.984 . S
N2281 C2274 1.356 . S
N2281 H2284 0.984 . S
N2281 H2285 0.985 . S
H2282 N2277 0.984 . S
H2283 N2277 0.985 . S
H2284 N2281 0.984 . S
H2285 N2281 0.985 . S
H2286 N2280 0.984 . S
H2287 N2280 0.984 . S
H2288 N2276 0.984 . S
H2289 N2276 0.985 . S
C2290 C2291 1.363 . S
C2290 C2296 1.379 . S
C2290 N2298 1.356 . S
C2291 C2290 1.363 . S
C2291 C2297 1.363 . S
C2292 C2293 1.363 . S
C2292 C2297 1.379 . S
C2292 N2299 1.356 . S
C2293 C2292 1.363 . S
C2293 C2296 1.363 . S
N2294 C2296 1.356 . S
N2294 H2306 0.984 . S
N2294 H2307 0.985 . S
N2295 C2297 1.356 . S
N2295 H2300 0.984 . S
N2295 H2301 0.985 . S
C2296 C2290 1.379 . S
C2296 C2293 1.363 . S
C2296 N2294 1.356 . S
C2297 C2291 1.363 . S
C2297 C2292 1.379 . S
C2297 N2295 1.356 . S
N2298 C2290 1.356 . S
N2298 H2304 0.984 . S
N2298 H2305 0.984 . S
N2299 C2292 1.356 . S
N2299 H2302 0.984 . S
N2299 H2303 0.985 . S
H2300 N2295 0.984 . S
H2301 N2295 0.985 . S
H2302 N2299 0.984 . S
H2303 N2299 0.985 . S
H2304 N2298 0.984 . S
H2305 N2298 0.984 . S
H2306 N2294 0.984 . S
H2307 N2294 0.985 . S
C2308 C2309 1.363 . S
C2308 C2314 1.379 . S
C2308 N2316 1.356 . S
C2309 C2308 1.363 . S
C2309 C2315 1.363 . S
C2310 C2311 1.363 . S
C2310 C2315 1.379 . S
C2310 N2317 1.356 . S
C2311 C2310 1.363 . S
C2311 C2314 1.363 . S
N2312 C2314 1.356 . S
N2312 H2324 0.984 . S
N2312 H2325 0.985 . S
N2313 C2315 1.356 . S
N2313 H2318 0.984 . S
N2313 H2319 0.985 . S
C2314 C2308 1.379 . S
C2314 C2311 1.363 . S
C2314 N2312 1.356 . S
C2315 C2309 1.363 . S
C2315 C2310 1.379 . S
C2315 N2313 1.356 . S
N2316 C2308 1.356 . S
N2316 H2322 0.984 . S
N2316 H2323 0.984 . S
N2317 C2310 1.356 . S
N2317 H2320 0.984 . S
N2317 H2321 0.985 . S
H2318 N2313 0.984 . S
H2319 N2313 0.985 . S
H2320 N2317 0.984 . S
H2321 N2317 0.985 . S
H2322 N2316 0.984 . S
H2323 N2316 0.984 . S
H2324 N2312 0.984 . S
H2325 N2312 0.985 . S
C2326 C2327 1.363 . S
C2326 C2332 1.379 . S
C2326 N2334 1.356 . S
C2327 C2326 1.363 . S
C2327 C2333 1.363 . S
C2328 C2329 1.363 . S
C2328 C2333 1.379 . S
C2328 N2335 1.356 . S
C2329 C2328 1.363 . S
C2329 C2332 1.363 . S
N2330 C2332 1.356 . S
N2330 H2342 0.984 . S
N2330 H2343 0.985 . S
N2331 C2333 1.356 . S
N2331 H2336 0.984 . S
N2331 H2337 0.985 . S
C2332 C2326 1.379 . S
C2332 C2329 1.363 . S
C2332 N2330 1.356 . S
C2333 C2327 1.363 . S
C2333 C2328 1.379 . S
C2333 N2331 1.356 . S
N2334 C2326 1.356 . S
N2334 H2340 0.984 . S
N2334 H2341 0.984 . S
N2335 C2328 1.356 . S
N2335 H2338 0.984 . S
N2335 H2339 0.985 . S
H2336 N2331 0.984 . S
H2337 N2331 0.985 . S
H2338 N2335 0.984 . S
H2339 N2335 0.985 . S
H2340 N2334 0.984 . S
H2341 N2334 0.984 . S
H2342 N2330 0.984 . S
H2343 N2330 0.985 . S
C2344 C2345 1.363 . S
C2344 C2350 1.379 . S
C2344 N2352 1.356 . S
C2345 C2344 1.363 . S
C2345 C2351 1.363 . S
C2346 C2347 1.363 . S
C2346 C2351 1.379 . S
C2346 N2353 1.356 . S
C2347 C2346 1.363 . S
C2347 C2350 1.363 . S
N2348 C2350 1.356 . S
N2348 H2360 0.984 . S
N2348 H2361 0.985 . S
N2349 C2351 1.356 . S
N2349 H2354 0.984 . S
N2349 H2355 0.985 . S
C2350 C2344 1.379 . S
C2350 C2347 1.363 . S
C2350 N2348 1.356 . S
C2351 C2345 1.363 . S
C2351 C2346 1.379 . S
C2351 N2349 1.356 . S
N2352 C2344 1.356 . S
N2352 H2358 0.984 . S
N2352 H2359 0.984 . S
N2353 C2346 1.356 . S
N2353 H2356 0.984 . S
N2353 H2357 0.985 . S
H2354 N2349 0.984 . S
H2355 N2349 0.985 . S
H2356 N2353 0.984 . S
H2357 N2353 0.985 . S
H2358 N2352 0.984 . S
H2359 N2352 0.984 . S
H2360 N2348 0.984 . S
H2361 N2348 0.985 . S
C2362 C2363 1.363 . S
C2362 C2368 1.379 . S
C2362 N2370 1.356 . S
C2363 C2362 1.363 . S
C2363 C2369 1.363 . S
C2364 C2365 1.363 . S
C2364 C2369 1.379 . S
C2364 N2371 1.356 . S
C2365 C2364 1.363 . S
C2365 C2368 1.363 . S
N2366 C2368 1.356 . S
N2366 H2378 0.984 . S
N2366 H2379 0.985 . S
N2367 C2369 1.356 . S
N2367 H2372 0.984 . S
N2367 H2373 0.985 . S
C2368 C2362 1.379 . S
C2368 C2365 1.363 . S
C2368 N2366 1.356 . S
C2369 C2363 1.363 . S
C2369 C2364 1.379 . S
C2369 N2367 1.356 . S
N2370 C2362 1.356 . S
N2370 H2376 0.984 . S
N2370 H2377 0.984 . S
N2371 C2364 1.356 . S
N2371 H2374 0.984 . S
N2371 H2375 0.985 . S
H2372 N2367 0.984 . S
H2373 N2367 0.985 . S
H2374 N2371 0.984 . S
H2375 N2371 0.985 . S
H2376 N2370 0.984 . S
H2377 N2370 0.984 . S
H2378 N2366 0.984 . S
H2379 N2366 0.985 . S
C2380 C2381 1.363 . S
C2380 C2386 1.379 . S
C2380 N2388 1.356 . S
C2381 C2380 1.363 . S
C2381 C2387 1.363 . S
C2382 C2383 1.363 . S
C2382 C2387 1.379 . S
C2382 N2389 1.356 . S
C2383 C2382 1.363 . S
C2383 C2386 1.363 . S
N2384 C2386 1.356 . S
N2384 H2396 0.984 . S
N2384 H2397 0.985 . S
N2385 C2387 1.356 . S
N2385 H2390 0.984 . S
N2385 H2391 0.985 . S
C2386 C2380 1.379 . S
C2386 C2383 1.363 . S
C2386 N2384 1.356 . S
C2387 C2381 1.363 . S
C2387 C2382 1.379 . S
C2387 N2385 1.356 . S
N2388 C2380 1.356 . S
N2388 H2394 0.984 . S
N2388 H2395 0.984 . S
N2389 C2382 1.356 . S
N2389 H2392 0.984 . S
N2389 H2393 0.985 . S
H2390 N2385 0.984 . S
H2391 N2385 0.985 . S
H2392 N2389 0.984 . S
H2393 N2389 0.985 . S
H2394 N2388 0.984 . S
H2395 N2388 0.984 . S
H2396 N2384 0.984 . S
H2397 N2384 0.985 . S
C2398 C2399 1.363 . S
C2398 C2404 1.379 . S
C2398 N2406 1.356 . S
C2399 C2398 1.363 . S
C2399 C2405 1.363 . S
C2400 C2401 1.363 . S
C2400 C2405 1.379 . S
C2400 N2407 1.356 . S
C2401 C2400 1.363 . S
C2401 C2404 1.363 . S
N2402 C2404 1.356 . S
N2402 H2414 0.984 . S
N2402 H2415 0.985 . S
N2403 C2405 1.356 . S
N2403 H2408 0.984 . S
N2403 H2409 0.985 . S
C2404 C2398 1.379 . S
C2404 C2401 1.363 . S
C2404 N2402 1.356 . S
C2405 C2399 1.363 . S
C2405 C2400 1.379 . S
C2405 N2403 1.356 . S
N2406 C2398 1.356 . S
N2406 H2412 0.984 . S
N2406 H2413 0.984 . S
N2407 C2400 1.356 . S
N2407 H2410 0.984 . S
N2407 H2411 0.985 . S
H2408 N2403 0.984 . S
H2409 N2403 0.985 . S
H2410 N2407 0.984 . S
H2411 N2407 0.985 . S
H2412 N2406 0.984 . S
H2413 N2406 0.984 . S
H2414 N2402 0.984 . S
H2415 N2402 0.985 . S
C2416 C2417 1.363 . S
C2416 C2422 1.379 . S
C2416 N2424 1.356 . S
C2417 C2416 1.363 . S
C2417 C2423 1.363 . S
C2418 C2419 1.363 . S
C2418 C2423 1.379 . S
C2418 N2425 1.356 . S
C2419 C2418 1.363 . S
C2419 C2422 1.363 . S
N2420 C2422 1.356 . S
N2420 H2432 0.984 . S
N2420 H2433 0.985 . S
N2421 C2423 1.356 . S
N2421 H2426 0.984 . S
N2421 H2427 0.985 . S
C2422 C2416 1.379 . S
C2422 C2419 1.363 . S
C2422 N2420 1.356 . S
C2423 C2417 1.363 . S
C2423 C2418 1.379 . S
C2423 N2421 1.356 . S
N2424 C2416 1.356 . S
N2424 H2430 0.984 . S
N2424 H2431 0.984 . S
N2425 C2418 1.356 . S
N2425 H2428 0.984 . S
N2425 H2429 0.985 . S
H2426 N2421 0.984 . S
H2427 N2421 0.985 . S
H2428 N2425 0.984 . S
H2429 N2425 0.985 . S
H2430 N2424 0.984 . S
H2431 N2424 0.984 . S
H2432 N2420 0.984 . S
H2433 N2420 0.985 . S
C2434 C2435 1.363 . S
C2434 C2440 1.379 . S
C2434 N2442 1.356 . S
C2435 C2434 1.363 . S
C2435 C2441 1.363 . S
C2436 C2437 1.363 . S
C2436 C2441 1.379 . S
C2436 N2443 1.356 . S
C2437 C2436 1.363 . S
C2437 C2440 1.363 . S
N2438 C2440 1.356 . S
N2438 H2450 0.984 . S
N2438 H2451 0.985 . S
N2439 C2441 1.356 . S
N2439 H2444 0.984 . S
N2439 H2445 0.985 . S
C2440 C2434 1.379 . S
C2440 C2437 1.363 . S
C2440 N2438 1.356 . S
C2441 C2435 1.363 . S
C2441 C2436 1.379 . S
C2441 N2439 1.356 . S
N2442 C2434 1.356 . S
N2442 H2448 0.984 . S
N2442 H2449 0.984 . S
N2443 C2436 1.356 . S
N2443 H2446 0.984 . S
N2443 H2447 0.985 . S
H2444 N2439 0.984 . S
H2445 N2439 0.985 . S
H2446 N2443 0.984 . S
H2447 N2443 0.985 . S
H2448 N2442 0.984 . S
H2449 N2442 0.984 . S
H2450 N2438 0.984 . S
H2451 N2438 0.985 . S
C2452 C2453 1.363 . S
C2452 C2458 1.379 . S
C2452 N2460 1.356 . S
C2453 C2452 1.363 . S
C2453 C2459 1.363 . S
C2454 C2455 1.363 . S
C2454 C2459 1.379 . S
C2454 N2461 1.356 . S
C2455 C2454 1.363 . S
C2455 C2458 1.363 . S
N2456 C2458 1.356 . S
N2456 H2468 0.984 . S
N2456 H2469 0.985 . S
N2457 C2459 1.356 . S
N2457 H2462 0.984 . S
N2457 H2463 0.985 . S
C2458 C2452 1.379 . S
C2458 C2455 1.363 . S
C2458 N2456 1.356 . S
C2459 C2453 1.363 . S
C2459 C2454 1.379 . S
C2459 N2457 1.356 . S
N2460 C2452 1.356 . S
N2460 H2466 0.984 . S
N2460 H2467 0.984 . S
N2461 C2454 1.356 . S
N2461 H2464 0.984 . S
N2461 H2465 0.985 . S
H2462 N2457 0.984 . S
H2463 N2457 0.985 . S
H2464 N2461 0.984 . S
H2465 N2461 0.985 . S
H2466 N2460 0.984 . S
H2467 N2460 0.984 . S
H2468 N2456 0.984 . S
H2469 N2456 0.985 . S
C2470 C2471 1.363 . S
C2470 C2476 1.379 . S
C2470 N2478 1.356 . S
C2471 C2470 1.363 . S
C2471 C2477 1.363 . S
C2472 C2473 1.363 . S
C2472 C2477 1.379 . S
C2472 N2479 1.356 . S
C2473 C2472 1.363 . S
C2473 C2476 1.363 . S
N2474 C2476 1.356 . S
N2474 H2486 0.984 . S
N2474 H2487 0.985 . S
N2475 C2477 1.356 . S
N2475 H2480 0.984 . S
N2475 H2481 0.985 . S
C2476 C2470 1.379 . S
C2476 C2473 1.363 . S
C2476 N2474 1.356 . S
C2477 C2471 1.363 . S
C2477 C2472 1.379 . S
C2477 N2475 1.356 . S
N2478 C2470 1.356 . S
N2478 H2484 0.984 . S
N2478 H2485 0.984 . S
N2479 C2472 1.356 . S
N2479 H2482 0.984 . S
N2479 H2483 0.985 . S
H2480 N2475 0.984 . S
H2481 N2475 0.985 . S
H2482 N2479 0.984 . S
H2483 N2479 0.985 . S
H2484 N2478 0.984 . S
H2485 N2478 0.984 . S
H2486 N2474 0.984 . S
H2487 N2474 0.985 . S
C2488 C2489 1.363 . S
C2488 C2494 1.379 . S
C2488 N2496 1.356 . S
C2489 C2488 1.363 . S
C2489 C2495 1.363 . S
C2490 C2491 1.363 . S
C2490 C2495 1.379 . S
C2490 N2497 1.356 . S
C2491 C2490 1.363 . S
C2491 C2494 1.363 . S
N2492 C2494 1.356 . S
N2492 H2504 0.984 . S
N2492 H2505 0.985 . S
N2493 C2495 1.356 . S
N2493 H2498 0.984 . S
N2493 H2499 0.985 . S
C2494 C2488 1.379 . S
C2494 C2491 1.363 . S
C2494 N2492 1.356 . S
C2495 C2489 1.363 . S
C2495 C2490 1.379 . S
C2495 N2493 1.356 . S
N2496 C2488 1.356 . S
N2496 H2502 0.984 . S
N2496 H2503 0.984 . S
N2497 C2490 1.356 . S
N2497 H2500 0.984 . S
N2497 H2501 0.985 . S
H2498 N2493 0.984 . S
H2499 N2493 0.985 . S
H2500 N2497 0.984 . S
H2501 N2497 0.985 . S
H2502 N2496 0.984 . S
H2503 N2496 0.984 . S
H2504 N2492 0.984 . S
H2505 N2492 0.985 . S
C2506 C2507 1.363 . S
C2506 C2512 1.379 . S
C2506 N2514 1.356 . S
C2507 C2506 1.363 . S
C2507 C2513 1.363 . S
C2508 C2509 1.363 . S
C2508 C2513 1.379 . S
C2508 N2515 1.356 . S
C2509 C2508 1.363 . S
C2509 C2512 1.363 . S
N2510 C2512 1.356 . S
N2510 H2522 0.984 . S
N2510 H2523 0.985 . S
N2511 C2513 1.356 . S
N2511 H2516 0.984 . S
N2511 H2517 0.985 . S
C2512 C2506 1.379 . S
C2512 C2509 1.363 . S
C2512 N2510 1.356 . S
C2513 C2507 1.363 . S
C2513 C2508 1.379 . S
C2513 N2511 1.356 . S
N2514 C2506 1.356 . S
N2514 H2520 0.984 . S
N2514 H2521 0.984 . S
N2515 C2508 1.356 . S
N2515 H2518 0.984 . S
N2515 H2519 0.985 . S
H2516 N2511 0.984 . S
H2517 N2511 0.985 . S
H2518 N2515 0.984 . S
H2519 N2515 0.985 . S
H2520 N2514 0.984 . S
H2521 N2514 0.984 . S
H2522 N2510 0.984 . S
H2523 N2510 0.985 . S
C2524 C2525 1.363 . S
C2524 C2530 1.379 . S
C2524 N2532 1.356 . S
C2525 C2524 1.363 . S
C2525 C2531 1.363 . S
C2526 C2527 1.363 . S
C2526 C2531 1.379 . S
C2526 N2533 1.356 . S
C2527 C2526 1.363 . S
C2527 C2530 1.363 . S
N2528 C2530 1.356 . S
N2528 H2540 0.984 . S
N2528 H2541 0.985 . S
N2529 C2531 1.356 . S
N2529 H2534 0.984 . S
N2529 H2535 0.985 . S
C2530 C2524 1.379 . S
C2530 C2527 1.363 . S
C2530 N2528 1.356 . S
C2531 C2525 1.363 . S
C2531 C2526 1.379 . S
C2531 N2529 1.356 . S
N2532 C2524 1.356 . S
N2532 H2538 0.984 . S
N2532 H2539 0.984 . S
N2533 C2526 1.356 . S
N2533 H2536 0.984 . S
N2533 H2537 0.985 . S
H2534 N2529 0.984 . S
H2535 N2529 0.985 . S
H2536 N2533 0.984 . S
H2537 N2533 0.985 . S
H2538 N2532 0.984 . S
H2539 N2532 0.984 . S
H2540 N2528 0.984 . S
H2541 N2528 0.985 . S
C2542 C2543 1.363 . S
C2542 C2548 1.379 . S
C2542 N2550 1.356 . S
C2543 C2542 1.363 . S
C2543 C2549 1.363 . S
C2544 C2545 1.363 . S
C2544 C2549 1.379 . S
C2544 N2551 1.356 . S
C2545 C2544 1.363 . S
C2545 C2548 1.363 . S
N2546 C2548 1.356 . S
N2546 H2558 0.984 . S
N2546 H2559 0.985 . S
N2547 C2549 1.356 . S
N2547 H2552 0.984 . S
N2547 H2553 0.985 . S
C2548 C2542 1.379 . S
C2548 C2545 1.363 . S
C2548 N2546 1.356 . S
C2549 C2543 1.363 . S
C2549 C2544 1.379 . S
C2549 N2547 1.356 . S
N2550 C2542 1.356 . S
N2550 H2556 0.984 . S
N2550 H2557 0.984 . S
N2551 C2544 1.356 . S
N2551 H2554 0.984 . S
N2551 H2555 0.985 . S
H2552 N2547 0.984 . S
H2553 N2547 0.985 . S
H2554 N2551 0.984 . S
H2555 N2551 0.985 . S
H2556 N2550 0.984 . S
H2557 N2550 0.984 . S
H2558 N2546 0.984 . S
H2559 N2546 0.985 . S
C2560 C2561 1.363 . S
C2560 C2566 1.379 . S
C2560 N2568 1.356 . S
C2561 C2560 1.363 . S
C2561 C2567 1.363 . S
C2562 C2563 1.363 . S
C2562 C2567 1.379 . S
C2562 N2569 1.356 . S
C2563 C2562 1.363 . S
C2563 C2566 1.363 . S
N2564 C2566 1.356 . S
N2564 H2576 0.984 . S
N2564 H2577 0.985 . S
N2565 C2567 1.356 . S
N2565 H2570 0.984 . S
N2565 H2571 0.985 . S
C2566 C2560 1.379 . S
C2566 C2563 1.363 . S
C2566 N2564 1.356 . S
C2567 C2561 1.363 . S
C2567 C2562 1.379 . S
C2567 N2565 1.356 . S
N2568 C2560 1.356 . S
N2568 H2574 0.984 . S
N2568 H2575 0.984 . S
N2569 C2562 1.356 . S
N2569 H2572 0.984 . S
N2569 H2573 0.985 . S
H2570 N2565 0.984 . S
H2571 N2565 0.985 . S
H2572 N2569 0.984 . S
H2573 N2569 0.985 . S
H2574 N2568 0.984 . S
H2575 N2568 0.984 . S
H2576 N2564 0.984 . S
H2577 N2564 0.985 . S
C2578 C2579 1.363 . S
C2578 C2584 1.379 . S
C2578 N2586 1.356 . S
C2579 C2578 1.363 . S
C2579 C2585 1.363 . S
C2580 C2581 1.363 . S
C2580 C2585 1.379 . S
C2580 N2587 1.356 . S
C2581 C2580 1.363 . S
C2581 C2584 1.363 . S
N2582 C2584 1.356 . S
N2582 H2594 0.984 . S
N2582 H2595 0.985 . S
N2583 C2585 1.356 . S
N2583 H2588 0.984 . S
N2583 H2589 0.985 . S
C2584 C2578 1.379 . S
C2584 C2581 1.363 . S
C2584 N2582 1.356 . S
C2585 C2579 1.363 . S
C2585 C2580 1.379 . S
C2585 N2583 1.356 . S
N2586 C2578 1.356 . S
N2586 H2592 0.984 . S
N2586 H2593 0.984 . S
N2587 C2580 1.356 . S
N2587 H2590 0.984 . S
N2587 H2591 0.985 . S
H2588 N2583 0.984 . S
H2589 N2583 0.985 . S
H2590 N2587 0.984 . S
H2591 N2587 0.985 . S
H2592 N2586 0.984 . S
H2593 N2586 0.984 . S
H2594 N2582 0.984 . S
H2595 N2582 0.985 . S
C2596 C2597 1.363 . S
C2596 C2602 1.379 . S
C2596 N2604 1.356 . S
C2597 C2596 1.363 . S
C2597 C2603 1.363 . S
C2598 C2599 1.363 . S
C2598 C2603 1.379 . S
C2598 N2605 1.356 . S
C2599 C2598 1.363 . S
C2599 C2602 1.363 . S
N2600 C2602 1.356 . S
N2600 H2612 0.984 . S
N2600 H2613 0.985 . S
N2601 C2603 1.356 . S
N2601 H2606 0.984 . S
N2601 H2607 0.985 . S
C2602 C2596 1.379 . S
C2602 C2599 1.363 . S
C2602 N2600 1.356 . S
C2603 C2597 1.363 . S
C2603 C2598 1.379 . S
C2603 N2601 1.356 . S
N2604 C2596 1.356 . S
N2604 H2610 0.984 . S
N2604 H2611 0.984 . S
N2605 C2598 1.356 . S
N2605 H2608 0.984 . S
N2605 H2609 0.985 . S
H2606 N2601 0.984 . S
H2607 N2601 0.985 . S
H2608 N2605 0.984 . S
H2609 N2605 0.985 . S
H2610 N2604 0.984 . S
H2611 N2604 0.984 . S
H2612 N2600 0.984 . S
H2613 N2600 0.985 . S
C2614 C2615 1.363 . S
C2614 C2620 1.379 . S
C2614 N2622 1.356 . S
C2615 C2614 1.363 . S
C2615 C2621 1.363 . S
C2616 C2617 1.363 . S
C2616 C2621 1.379 . S
C2616 N2623 1.356 . S
C2617 C2616 1.363 . S
C2617 C2620 1.363 . S
N2618 C2620 1.356 . S
N2618 H2630 0.984 . S
N2618 H2631 0.985 . S
N2619 C2621 1.356 . S
N2619 H2624 0.984 . S
N2619 H2625 0.985 . S
C2620 C2614 1.379 . S
C2620 C2617 1.363 . S
C2620 N2618 1.356 . S
C2621 C2615 1.363 . S
C2621 C2616 1.379 . S
C2621 N2619 1.356 . S
N2622 C2614 1.356 . S
N2622 H2628 0.984 . S
N2622 H2629 0.984 . S
N2623 C2616 1.356 . S
N2623 H2626 0.984 . S
N2623 H2627 0.985 . S
H2624 N2619 0.984 . S
H2625 N2619 0.985 . S
H2626 N2623 0.984 . S
H2627 N2623 0.985 . S
H2628 N2622 0.984 . S
H2629 N2622 0.984 . S
H2630 N2618 0.984 . S
H2631 N2618 0.985 . S
C907 N364 1.835 . S
C905 C4 1.909 . S
C925 C391 1.365 . S
C923 C21 1.352 . S
C941 C26 1.819 . S
C943 C405 1.815 . S
C961 N423 1.221 . S
C959 C43 1.237 . S
C977 C54 1.171 . S
C979 C428 1.172 . S
C995 C60 1.824 . S
C997 C368 1.789 . S
C1013 C76 1.168 . S
C1015 N387 1.177 . S
C1033 N400 1.983 . S
C1031 C81 1.972 . S
C1051 N446 1.589 . S
C1049 C10 1.658 . S
C1067 C15 1.437 . S
C1069 N469 1.418 . S
C1085 C27 1.662 . S
C1087 N492 1.637 . S
C1105 N525 1.410 . S
C1103 C38 1.482 . S
C1121 C49 1.397 . S
C1123 C552 1.397 . S
C1141 C575 1.772 . S
C1139 C59 1.763 . S
C1157 C71 1.304 . S
C1159 C598 1.275 1_655 S
C1177 C612 1.682 . S
C1175 C87 1.676 . S
C1193 C5 1.721 . S
C1195 C529 1.720 . S
C1211 C48 1.411 . S
C1213 N571 1.388 . S
C1231 N594 1.567 . S
C1229 C65 1.636 . S
C1247 C70 1.402 . S
C1249 N607 1.386 . S
C1267 N548 1.655 . S
C1265 C82 1.703 . S
C1285 C474 1.820 . S
C1283 C32 1.805 . S
C1301 C37 1.338 . S
C1303 C497 1.337 . S
C1321 C451 1.466 . S
C1319 C16 1.444 . S
C1339 C644 1.955 . S
C1337 C92 1.937 . S
C1355 C109 1.265 . S
C1357 C658 1.261 . S
C1373 C114 1.778 . S
C1375 N686 1.745 . S
C1393 N699 1.088 . S
C1391 C131 1.115 . S
C1409 C142 1.250 . S
C1411 C704 1.243 . S
C1427 C148 1.738 . S
C1429 N640 1.715 . S
C1445 C164 1.290 . S
C1447 N653 1.295 . S
C1463 C169 1.869 . S
C1465 C690 1.888 . S
C1483 N538 1.641 . S
C1481 C98 1.685 . S
C1499 C103 1.360 . S
C1501 N722 1.326 . S
C1519 N584 1.605 . S
C1517 C115 1.620 . S
C1535 C126 1.498 . S
C1537 C759 1.489 . S
C1553 C137 1.589 . S
C1555 C460 1.582 . S
C1573 C773 1.845 . S
C1571 C147 1.833 . S
C1589 C159 1.397 . S
C1591 C506 1.401 . S
C1609 N791 1.604 . S
C1607 C175 1.656 . S
C1625 C93 1.678 . S
C1627 N755 1.653 . S
C1645 N768 1.344 . S
C1643 C136 1.391 . S
C1661 C153 1.628 . S
C1663 N502 1.582 . S
C1681 C796 1.264 . S
C1679 C158 1.264 . S
C1697 C170 1.677 . S
C1699 N456 1.654 . S
C1715 C120 1.713 . S
C1717 C727 1.727 . S
C1733 C125 1.393 . S
C1735 C589 1.392 . S
C1751 C104 1.400 . S
C1753 C543 1.432 . S
C1769 C180 1.947 . S
C1771 C681 1.943 . S
C1789 C713 1.252 . S
C1787 C197 1.247 . S
C1805 C202 1.770 . S
C1807 N630 1.681 . S
C1823 C219 1.191 . S
C1825 N663 1.153 . S
C1841 C230 1.194 . S
C1843 C667 1.189 . S
C1859 C236 1.874 . S
C1861 N676 1.780 . S
C1879 N709 1.116 . S
C1877 C252 1.120 . S
C1895 C257 2.017 . S
C1897 C635 1.994 . S
C1915 N824 1.649 . S
C1913 C186 1.703 . S
C1931 C191 1.339 . S
C1933 N561 1.309 . S
C1951 N847 1.519 . S
C1949 C203 1.562 . S
C1967 C214 1.522 . S
C1969 N617 1.447 . S
C1985 C225 1.435 . S
C1987 C865 1.432 . S
C2003 C235 1.848 . S
C2005 C483 1.852 . S
C2023 N883 1.257 . S
C2021 C247 1.300 . S
C2039 C263 1.705 . S
C2041 C520 1.711 . S
C2059 C621 1.752 . S
C2057 C181 1.753 . S
C2077 N479 1.396 . S
C2075 C224 1.436 . S
C2093 C241 1.732 . S
C2095 C888 1.727 . S
C2111 C246 1.299 . S
C2113 N515 1.286 . S
C2131 N860 1.671 . S
C2129 C258 1.711 . S
C2149 C566 1.735 . S
C2147 C208 1.708 . S
C2167 C851 1.414 . S
C2165 C213 1.409 . S
C2185 C828 1.435 . S
C2183 C192 1.389 . S
C2201 C268 1.890 . S
C2203 N410 1.809 . S
C2219 C285 1.251 . S
C2221 C437 1.231 . S
C2239 C359 1.823 . S
C2237 C290 1.835 . S
C2257 N377 1.056 . S
C2255 C307 1.095 . S
C2275 C382 1.352 . S
C2273 C318 1.382 . S
C2293 C414 1.723 . S
C2291 C324 1.759 . S
C2311 N433 1.320 . S
C2309 C340 1.359 . S
C2327 C345 1.932 . S
C2329 N354 1.945 . S
C2345 C274 1.623 . S
C2347 N870 1.572 . S
C2365 N778 1.303 . S
C2363 C279 1.331 . S
C2383 C897 1.782 . S
C2381 C291 1.763 . S
C2401 C805 1.243 . S
C2399 C302 1.244 . S
C2417 C313 1.568 . S
C2419 C819 1.559 . S
C2437 C736 1.782 . S
C2435 C323 1.775 . S
C2455 C842 1.500 . S
C2453 C335 1.517 . S
C2471 C351 1.681 . S
C2473 N745 1.625 . S
C2491 N801 1.609 . S
C2489 C269 1.630 . S
C2509 N732 1.333 . S
C2507 C312 1.351 . S
C2527 N837 1.537 . S
C2525 C329 1.576 . S
C2543 C334 1.355 . S
C2545 C750 1.345 . S
C2561 C346 1.692 . S
C2563 N814 1.656 . S
C2579 C296 1.842 . S
C2581 C782 1.850 . S
C2597 C301 1.350 . S
C2599 N893 1.327 . S
C2617 C874 1.417 . S
C2615 C280 1.382 . S
