# Generated by pormake.
# Topology pyr, (3,6)-cn, num edge types: 1
# Building blocks:
#     Node 0, Type 0, BuildingBlock: ESEHIV_clean_linker_0, # of connection points: 3
#     Node 1, Type 0, BuildingBlock: ESEHIV_clean_linker_0, # of connection points: 3
#     Node 2, Type 0, BuildingBlock: ESEHIV_clean_linker_0, # of connection points: 3
#     Node 3, Type 0, BuildingBlock: ESEHIV_clean_linker_0, # of connection points: 3
#     Node 4, Type 0, BuildingBlock: ESEHIV_clean_linker_0, # of connection points: 3
#     Node 5, Type 0, BuildingBlock: ESEHIV_clean_linker_0, # of connection points: 3
#     Node 6, Type 0, BuildingBlock: ESEHIV_clean_linker_0, # of connection points: 3
#     Node 7, Type 0, BuildingBlock: ESEHIV_clean_linker_0, # of connection points: 3
#     Node 8, Type 1, BuildingBlock: BETDIP_clean_sbu_0, # of connection points: 6
#     Node 9, Type 1, BuildingBlock: BETDIP_clean_sbu_0, # of connection points: 6
#     Node 10, Type 1, BuildingBlock: BETDIP_clean_sbu_0, # of connection points: 6
#     Node 11, Type 1, BuildingBlock: BETDIP_clean_sbu_0, # of connection points: 6
#     Edge 12, Type (0, 1), BuildingBlock: EZIPEK_clean_linker_0, # of connection points: 2
#     Edge 13, Type (0, 1), BuildingBlock: EZIPEK_clean_linker_0, # of connection points: 2
#     Edge 14, Type (0, 1), BuildingBlock: EZIPEK_clean_linker_0, # of connection points: 2
#     Edge 15, Type (0, 1), BuildingBlock: EZIPEK_clean_linker_0, # of connection points: 2
#     Edge 16, Type (0, 1), BuildingBlock: EZIPEK_clean_linker_0, # of connection points: 2
#     Edge 17, Type (0, 1), BuildingBlock: EZIPEK_clean_linker_0, # of connection points: 2
#     Edge 18, Type (0, 1), BuildingBlock: EZIPEK_clean_linker_0, # of connection points: 2
#     Edge 19, Type (0, 1), BuildingBlock: EZIPEK_clean_linker_0, # of connection points: 2
#     Edge 20, Type (0, 1), BuildingBlock: EZIPEK_clean_linker_0, # of connection points: 2
#     Edge 21, Type (0, 1), BuildingBlock: EZIPEK_clean_linker_0, # of connection points: 2
#     Edge 22, Type (0, 1), BuildingBlock: EZIPEK_clean_linker_0, # of connection points: 2
#     Edge 23, Type (0, 1), BuildingBlock: EZIPEK_clean_linker_0, # of connection points: 2
#     Edge 24, Type (0, 1), BuildingBlock: EZIPEK_clean_linker_0, # of connection points: 2
#     Edge 25, Type (0, 1), BuildingBlock: EZIPEK_clean_linker_0, # of connection points: 2
#     Edge 26, Type (0, 1), BuildingBlock: EZIPEK_clean_linker_0, # of connection points: 2
#     Edge 27, Type (0, 1), BuildingBlock: EZIPEK_clean_linker_0, # of connection points: 2
#     Edge 28, Type (0, 1), BuildingBlock: EZIPEK_clean_linker_0, # of connection points: 2
#     Edge 29, Type (0, 1), BuildingBlock: EZIPEK_clean_linker_0, # of connection points: 2
#     Edge 30, Type (0, 1), BuildingBlock: EZIPEK_clean_linker_0, # of connection points: 2
#     Edge 31, Type (0, 1), BuildingBlock: EZIPEK_clean_linker_0, # of connection points: 2
#     Edge 32, Type (0, 1), BuildingBlock: EZIPEK_clean_linker_0, # of connection points: 2
#     Edge 33, Type (0, 1), BuildingBlock: EZIPEK_clean_linker_0, # of connection points: 2
#     Edge 34, Type (0, 1), BuildingBlock: EZIPEK_clean_linker_0, # of connection points: 2
#     Edge 35, Type (0, 1), BuildingBlock: EZIPEK_clean_linker_0, # of connection points: 2
# Relax obj value: 0.237
# Max RMSD: 0.221
# Mean RMSD: 0.103
data_MOF--net-pyr--node1-BETDIP_clean_sbu_0--node2-ESEHIV_clean_linker_0--edge1-EZIPEK_clean_linker_0
_symmetry_space_group_name_H-M    P1
_symmetry_Int_Tables_number       1
_symmetry_cell_setting            triclinic
loop_
_symmetry_equiv_pos_as_xyz
'x, y, z'
_cell_length_a     23.962786
_cell_length_b     26.624236
_cell_length_c     25.340751
_cell_angle_alpha  88.699021
_cell_angle_beta   93.016137
_cell_angle_gamma 105.69408
loop_
_atom_site_label
_atom_site_type_symbol
_atom_site_fract_x
_atom_site_fract_y
_atom_site_fract_z
_atom_type_partial_charge
H0 H 0.38696 0.35237 0.34429 0.0
H1 H 0.50807 0.2631 0.32608 0.0
H2 H 0.47598 0.36451 0.19995 0.0
C3 C 0.42144 0.34478 0.3223 0.0
C4 C 0.43031 0.36477 0.27093 0.0
C5 C 0.4502 0.30873 0.34224 0.0
C6 C 0.4904 0.29468 0.31189 0.0
C7 C 0.49797 0.31248 0.25945 0.0
C8 C 0.47107 0.35075 0.24043 0.0
H9 H 0.07153 0.83867 0.87862 0.0
H10 H 0.17222 0.72607 0.89338 0.0
H11 H 0.15045 0.79737 0.74517 0.0
C12 C 0.09341 0.81259 0.8621 0.0
C13 C 0.10477 0.81928 0.80821 0.0
C14 C 0.11438 0.7769 0.89457 0.0
C15 C 0.14975 0.74988 0.87081 0.0
C16 C 0.16402 0.75845 0.81797 0.0
C17 C 0.13864 0.79046 0.78596 0.0
H18 H 0.69522 0.36274 0.9884 0.0
H19 H 0.71439 0.4909 0.87863 0.0
H20 H 0.57329 0.35064 0.85502 0.0
C21 C 0.68001 0.37956 0.95294 0.0
C22 C 0.62968 0.35077 0.92488 0.0
C23 C 0.71117 0.42954 0.93641 0.0
C24 C 0.69065 0.45204 0.89071 0.0
C25 C 0.64097 0.42434 0.85963 0.0
C26 C 0.61122 0.37299 0.87747 0.0
H27 H 0.85799 0.77287 0.48589 0.0
H28 H 0.98255 0.78734 0.36562 0.0
H29 H 0.83904 0.6485 0.3753 0.0
C30 C 0.87388 0.75687 0.45259 0.0
C31 C 0.84308 0.70725 0.43391 0.0
C32 C 0.92421 0.78661 0.42884 0.0
C33 C 0.94408 0.76495 0.38456 0.0
C34 C 0.91365 0.71454 0.36441 0.0
C35 C 0.86315 0.68652 0.38995 0.0
H36 H 0.58186 0.84657 0.84407 0.0
H37 H 0.68535 0.74809 0.90485 0.0
H38 H 0.58569 0.80998 1.00987 0.0
C39 C 0.59367 0.82324 0.87624 0.0
C40 C 0.57607 0.82878 0.92712 0.0
C41 C 0.63466 0.79573 0.86857 0.0
C42 C 0.65197 0.76776 0.91072 0.0
C43 C 0.63635 0.77441 0.96216 0.0
C44 C 0.59594 0.80283 0.97003 0.0
H45 H 0.84669 0.34252 0.30626 0.0
H46 H 0.99248 0.27907 0.33842 0.0
H47 H 0.88966 0.30235 0.46501 0.0
C48 C 0.87629 0.32983 0.33394 0.0
C49 C 0.86701 0.3297 0.3881 0.0
C50 C 0.92061 0.31039 0.31524 0.0
C51 C 0.95805 0.29406 0.35217 0.0
C52 C 0.94466 0.28781 0.40557 0.0
C53 C 0.90044 0.30742 0.42386 0.0
H54 H 0.35381 0.77195 0.18703 0.0
H55 H 0.33683 0.64645 0.30014 0.0
H56 H 0.48415 0.78268 0.31353 0.0
C57 C 0.37026 0.75562 0.22218 0.0
C58 C 0.42235 0.78425 0.24789 0.0
C59 C 0.33924 0.70611 0.24043 0.0
C60 C 0.36072 0.68461 0.28622 0.0
C61 C 0.41301 0.71149 0.31382 0.0
C62 C 0.44359 0.7617 0.29389 0.0
H63 H 0.07334 0.34169 0.83267 0.0
H64 H 0.19576 0.35115 0.71181 0.0
H65 H 0.21374 0.48183 0.81409 0.0
C66 C 0.11147 0.36356 0.8129 0.0
C67 C 0.14098 0.41528 0.8303 0.0
C68 C 0.13163 0.33968 0.77049 0.0
C69 C 0.18047 0.36877 0.74434 0.0
C70 C 0.2096 0.42031 0.75867 0.0
C71 C 0.19028 0.44265 0.80222 0.0
Tb72 Tb 0.97504 1.04907 0.62208 0.0
Tb73 Tb 0.08907 0.06815 0.5946 0.0
C74 C 0.86638 1.02468 0.62561 0.0
C75 C 0.82287 0.97692 0.64017 0.0
C76 C 0.83107 0.9274 0.63168 0.0
C77 C 0.79656 0.88339 0.65674 0.0
C78 C 0.75508 0.88914 0.6915 0.0
C79 C 0.74381 0.93782 0.69617 0.0
C80 C 0.7774 0.98144 0.6705 0.0
C81 C 0.04506 0.12829 0.67862 0.0
C82 C 0.04601 0.98679 0.68418 0.0
C83 C 0.19813 0.08692 0.59703 0.0
C84 C 0.24611 0.12606 0.57459 0.0
C85 C 0.23941 0.17481 0.558 0.0
C86 C 0.28179 0.20818 0.52846 0.0
C87 C 0.33061 0.19262 0.515 0.0
C88 C 0.33924 0.14561 0.53483 0.0
C89 C 0.29704 0.11241 0.56465 0.0
C90 C 1.01816 0.99091 0.53582 0.0
C91 C 1.02071 0.13233 0.53068 0.0
O92 O 0.89339 1.02352 0.58241 0.0
O93 O 0.90181 1.04632 0.66463 0.0
O94 O 0.04623 0.11961 0.62981 0.0
O95 O 1.00362 0.09125 0.69698 0.0
O96 O 0.99413 0.98159 0.6617 0.0
O97 O 0.0876 1.0276 0.67107 0.0
O98 O 0.16971 0.10334 0.63233 0.0
O99 O 0.16347 1.05624 0.56282 0.0
O100 O 1.01702 0.99792 0.58513 0.0
O101 O 0.06106 1.02745 0.51887 0.0
O102 O 0.07393 0.13119 0.54515 0.0
O103 O 0.97578 0.09919 0.55176 0.0
H104 H 0.8663 0.92324 0.60855 0.0
H105 H 0.80551 0.84594 0.65268 0.0
H106 H 0.71168 0.94274 0.7227 0.0
H107 H 0.77063 1.01933 0.67748 0.0
H108 H 0.20012 0.18575 0.56529 0.0
H109 H 0.27445 0.24414 0.51268 0.0
H110 H 0.37646 0.13303 0.52404 0.0
H111 H 0.30256 0.07481 0.57726 0.0
Tb112 Tb 0.58397 0.07426 1.08738 0.0
Tb113 Tb 0.46084 0.06138 1.08154 0.0
C114 C 0.69258 0.10828 1.08387 0.0
C115 C 0.73717 0.15763 1.09412 0.0
C116 C 0.78579 0.17232 1.06291 0.0
C117 C 0.83273 0.21465 1.07759 0.0
C118 C 0.83173 0.24176 0.12426 0.0
C119 C 0.7805 0.23019 0.1521 0.0
C120 C 0.7336 0.18861 0.13699 0.0
C121 C 0.526 0.9832 0.13249 0.0
C122 C 0.52903 0.13072 0.16996 0.0
C123 C 0.35156 1.03349 1.07825 0.0
C124 C 0.30515 0.98552 1.06637 0.0
C125 C 0.27053 0.95908 0.10695 0.0
C126 C 0.22625 0.91361 1.09609 0.0
C127 C 0.21593 0.8946 1.04442 0.0
C128 C 0.25017 0.92095 1.00392 0.0
C129 C 0.29436 0.96607 1.01469 0.0
C130 C 0.52146 0.15209 1.03743 0.0
C131 C 0.5112 0.99914 1.00249 0.0
O132 O 0.65673 0.10836 1.04336 0.0
O133 O 0.66615 0.08397 0.12486 0.0
O134 O 0.51435 1.02706 0.13409 0.0
O135 O 0.57395 0.99158 0.10825 0.0
O136 O 0.57426 0.13513 0.1408 0.0
O137 O 0.48142 0.09398 0.15901 0.0
O138 O 0.38379 1.03241 0.12118 0.0
O139 O 0.38227 1.05631 1.03897 0.0
O140 O 0.53042 0.10741 1.03452 0.0
O141 O 0.47575 0.14572 1.06448 0.0
O142 O 0.46665 0.998 1.03103 0.0
O143 O 0.56178 1.03253 1.01386 0.0
H144 H 0.78871 0.14945 1.02885 0.0
H145 H 0.87123 0.22369 1.05479 0.0
H146 H 0.77855 0.25053 0.18825 0.0
H147 H 0.69607 0.1786 0.16074 0.0
H148 H 0.27786 0.97355 0.14704 0.0
H149 H 0.2002 0.89335 0.1277 0.0
H150 H 0.24269 0.90638 0.96383 0.0
H151 H 0.32002 0.98549 0.98249 0.0
Tb152 Tb 0.52951 0.61171 0.61823 0.0
Tb153 Tb 0.51177 0.52101 0.55935 0.0
C154 C 0.50746 0.69106 0.65445 0.0
C155 C 0.46313 0.70023 0.68807 0.0
C156 C 0.44207 0.74376 0.67702 0.0
C157 C 0.39398 0.74976 0.70225 0.0
C158 C 0.36612 0.71217 0.73877 0.0
C159 C 0.38823 0.66938 0.75132 0.0
C160 C 0.43657 0.66341 0.72598 0.0
C161 C 0.57159 0.54032 0.67235 0.0
C162 C 0.41074 0.52135 0.63213 0.0
C163 C 0.53007 0.43998 0.52306 0.0
C164 C 0.58099 0.42806 0.50084 0.0
C165 C 0.61518 0.40296 0.53295 0.0
C166 C 0.66219 0.38956 0.51272 0.0
C167 C 0.6758 0.40063 0.45992 0.0
C168 C 0.64235 0.42608 0.42762 0.0
C169 C 0.59536 0.43994 0.44798 0.0
C170 C 0.47426 0.5943 0.50296 0.0
C171 C 0.63185 0.61078 0.54816 0.0
O172 O 0.48578 0.66925 0.60985 0.0
O173 O 0.54734 0.67063 0.67586 0.0
O174 O 0.52482 0.53267 0.64358 0.0
O175 O 0.59462 0.59052 0.67253 0.0
O176 O 0.44048 0.57029 0.64004 0.0
O177 O 0.43089 0.49181 0.60103 0.0
O178 O 0.53607 0.452 0.57303 0.0
O179 O 0.5038 0.46968 0.4955 0.0
O180 O 0.51993 0.60074 0.53317 0.0
O181 O 0.44718 0.54487 0.50629 0.0
O182 O 0.60329 0.56097 0.54229 0.0
O183 O 0.60868 0.64163 0.57481 0.0
H184 H 0.46177 0.7723 0.64757 0.0
H185 H 0.3777 0.78321 0.69251 0.0
H186 H 0.36746 0.64029 0.77984 0.0
H187 H 0.45224 0.62957 0.7349 0.0
H188 H 0.60504 0.39293 0.57367 0.0
H189 H 0.68748 0.36975 0.53805 0.0
H190 H 0.65228 0.43467 0.38664 0.0
H191 H 0.56978 0.459 0.42214 0.0
Tb192 Tb 0.02492 0.6112 1.06144 0.0
Tb193 Tb 1.02282 0.51614 0.13147 0.0
C194 C 0.99041 0.67933 1.01031 0.0
C195 C 0.93944 0.69914 1.01654 0.0
C196 C 0.9008 0.69853 0.97292 0.0
C197 C 0.84866 0.71106 0.979 0.0
C198 C 0.83429 0.72419 1.02883 0.0
C199 C 0.87303 0.72557 1.07251 0.0
C200 C 0.92548 0.71334 1.06637 0.0
C201 C 0.12698 0.61254 0.11045 0.0
C202 C 0.97925 0.60711 0.18131 0.0
C203 C 0.06046 0.45695 0.19367 0.0
C204 C 0.11951 0.45205 0.20369 0.0
C205 C 0.16398 0.47883 0.17129 0.0
C206 C 0.21964 0.47198 0.17836 0.0
C207 C 0.23145 0.4386 0.21836 0.0
C208 C 0.18739 0.4132 0.25194 0.0
C209 C 0.13163 0.41985 0.24459 0.0
C210 C 0.92142 0.50091 1.07425 0.0
C211 C 0.06855 0.52104 1.01299 0.0
O212 O 0.9779 0.6305 0.99583 0.0
O213 O 0.03173 0.69059 1.04763 0.0
O214 O 0.07677 0.59484 0.12773 0.0
O215 O 0.12023 0.63271 1.06418 0.0
O216 O 0.98666 0.63093 0.13424 0.0
O217 O 0.98944 0.56068 0.18915 0.0
O218 O 0.05231 0.50118 0.20805 0.0
O219 O 0.03755 0.44299 0.14644 0.0
O220 O 0.96545 0.53946 1.0763 0.0
O221 O 0.93335 0.4678 0.1083 0.0
O222 O 0.0746 0.50614 1.06316 0.0
O223 O 0.0435 0.55918 1.00216 0.0
H224 H 0.91049 0.68735 0.93431 0.0
H225 H 0.81923 0.71022 0.94485 0.0
H226 H 0.86261 0.73608 0.11111 0.0
H227 H 0.95443 0.71411 0.10077 0.0
H228 H 0.15505 0.50388 0.13967 0.0
H229 H 0.25288 0.49128 0.15174 0.0
H230 H 0.19576 0.38679 0.28262 0.0
H231 H 0.09775 0.39902 0.26995 0.0
C232 C 0.37641 0.23152 0.37622 0.0
C233 C 0.42524 0.27463 0.38675 0.0
C234 C 0.41751 0.25899 0.48189 0.0
C235 C 0.36535 0.21943 0.47133 0.0
N236 N 0.29255 0.16874 0.40962 0.0
N237 N 0.50264 0.31919 0.44664 0.0
C238 C 0.34435 0.20554 0.41878 0.0
C239 C 0.44888 0.28553 0.43883 0.0
N240 N 0.36274 0.21369 0.32569 0.0
N241 N 0.43524 0.2728 0.53295 0.0
H242 H 0.52624 0.33926 0.41561 0.0
H243 H 0.52607 0.32282 0.4827 0.0
H244 H 0.41375 0.25322 0.56531 0.0
H245 H 0.46906 0.30531 0.54335 0.0
H246 H 0.33141 0.17932 0.31583 0.0
H247 H 0.38705 0.23 0.29372 0.0
H248 H 0.27074 0.16236 0.37275 0.0
H249 H 0.269 0.14637 0.43944 0.0
C250 C 0.08231 0.81135 0.9767 0.0
C251 C 0.11078 0.77762 0.95416 0.0
C252 C 0.18767 0.80032 1.02277 0.0
C253 C 0.17062 0.84631 1.03103 0.0
N254 N 0.09493 0.89043 1.02704 0.0
N255 N 0.15819 0.71343 0.98573 0.0
C256 C 0.11459 0.84934 1.01303 0.0
C257 C 0.1534 0.76308 0.987 0.0
N258 N 0.02558 0.80685 0.96258 0.0
N259 N 0.2378 0.79406 1.04653 0.0
H260 H 0.12794 0.68508 0.96355 0.0
H261 H 0.18838 0.70015 1.00913 0.0
H262 H 0.26219 0.82045 1.07438 0.0
H263 H 0.25559 0.76386 1.03744 0.0
H264 H 1.00077 0.82788 0.98018 0.0
H265 H 1.00306 0.77861 0.9355 0.0
H266 H 0.05703 0.89758 1.01058 0.0
H267 H 0.11788 0.918 1.05448 0.0
C268 C 0.66292 0.4743 0.7706 0.0
C269 C 0.62176 0.44948 0.80841 0.0
C270 C 0.54588 0.46828 0.74609 0.0
C271 C 0.58793 0.50348 0.71517 0.0
N272 N 0.69015 0.5399 0.70163 0.0
N273 N 0.52282 0.43454 0.83422 0.0
C274 C 0.64751 0.50669 0.72893 0.0
C275 C 0.56285 0.4496 0.79659 0.0
N276 N 0.71605 0.46446 0.7721 0.0
N277 N 0.48996 0.45023 0.72706 0.0
H278 H 0.53353 0.42454 0.87269 0.0
H279 H 0.48065 0.43823 0.82883 0.0
H280 H 0.47651 0.45802 0.68888 0.0
H281 H 0.45909 0.42178 0.74673 0.0
H282 H 0.74588 0.47735 0.74295 0.0
H283 H 0.7274 0.438 0.79868 0.0
H284 H 0.73387 0.54873 0.71399 0.0
H285 H 0.68175 0.56064 0.66821 0.0
C286 C 0.90143 0.68644 0.26667 0.0
C287 C 0.93312 0.69015 0.3164 0.0
C288 C 0.99801 0.64401 0.27615 0.0
C289 C 0.96278 0.63552 0.22805 0.0
N290 N 0.87548 0.64374 0.18133 0.0
N291 N 1.00733 0.66522 0.36987 0.0
C292 C 0.91322 0.65578 0.22438 0.0
C293 C 0.98027 0.66695 0.32131 0.0
N294 N 0.86067 0.71355 0.25922 0.0
N295 N 0.05035 0.63256 0.27819 0.0
H296 H 0.99674 0.68225 0.40326 0.0
H297 H 0.03698 0.64346 0.37797 0.0
H298 H 0.0657 0.61672 0.24657 0.0
H299 H 0.08115 0.64342 0.30932 0.0
H300 H 0.84041 0.7177 0.22264 0.0
H301 H 0.85081 0.73593 0.28882 0.0
H302 H 0.83519 0.65165 0.17857 0.0
H303 H 0.88223 0.62185 0.14993 0.0
C304 C 0.5695 0.26455 0.23484 0.0
C305 C 0.51603 0.27708 0.22324 0.0
C306 C 0.47047 0.18725 0.20076 0.0
C307 C 0.5246 0.17546 0.20261 0.0
N308 N 0.62608 0.20152 0.22888 0.0
N309 N 0.42528 0.25306 0.17098 0.0
C310 C 0.57479 0.21412 0.22132 0.0
C311 C 0.46997 0.2396 0.19767 0.0
N312 N 0.61368 0.30019 0.26071 0.0
N313 N 0.4195 0.14935 0.20467 0.0
H314 H 0.39206 0.22556 0.15081 0.0
H315 H 0.42577 0.29158 0.16272 0.0
H316 H 0.41817 0.1113 0.21653 0.0
H317 H 0.37962 0.15812 0.20509 0.0
H318 H 0.65189 0.29241 0.27542 0.0
H319 H 0.61072 0.33772 0.2685 0.0
H320 H 0.66566 0.22867 0.23744 0.0
H321 H 0.62819 0.16296 0.22686 0.0
C322 C 0.03095 0.86686 0.77424 0.0
C323 C 0.08884 0.86242 0.77733 0.0
C324 C 0.11553 0.93397 0.71371 0.0
C325 C 0.06027 0.94393 0.71665 0.0
N326 N 0.97115 0.92664 0.76303 0.0
N327 N 0.18983 0.90603 0.76397 0.0
C328 C 1.01941 0.91232 0.75071 0.0
C329 C 0.13234 0.90038 0.75146 0.0
N330 N 0.98664 0.82739 0.79218 0.0
N331 N 0.15112 0.95359 0.67348 0.0
H332 H 0.20437 0.88519 0.79454 0.0
H333 H 0.22248 0.93611 0.74839 0.0
H334 H 0.13883 0.97335 0.64098 0.0
H335 H 0.18975 0.94359 0.66877 0.0
H336 H 0.9432 0.82736 0.78658 0.0
H337 H 0.99281 0.79251 0.80754 0.0
H338 H 0.94384 0.90742 0.79211 0.0
H339 H 0.96259 0.9612 0.74957 0.0
C340 C 0.82004 0.44567 0.95349 0.0
C341 C 0.76734 0.45617 0.96668 0.0
C342 C 0.81682 0.50004 1.04831 0.0
C343 C 0.86969 0.48984 1.03502 0.0
N344 N 0.92317 0.45685 0.97279 0.0
N345 N 0.71743 0.50024 1.02183 0.0
C346 C 0.87166 0.46413 0.9867 0.0
C347 C 0.76652 0.48571 1.01261 0.0
N348 N 0.81993 0.41582 0.91022 0.0
N349 N 0.81407 0.52141 1.09632 0.0
H350 H 0.68016 0.48988 0.99687 0.0
H351 H 0.71467 0.52556 1.05163 0.0
H352 H 0.84992 0.53261 0.12282 0.0
H353 H 0.77597 0.52524 0.11153 0.0
H354 H 0.85417 0.40098 0.90116 0.0
H355 H 0.78402 0.40368 0.88392 0.0
H356 H 0.93058 0.44461 0.93575 0.0
H357 H 0.95995 0.46541 0.99809 0.0
C358 C 0.78777 0.63914 0.4985 0.0
C359 C 0.78776 0.6787 0.45983 0.0
C360 C 0.68608 0.67356 0.47858 0.0
C361 C 0.68564 0.63349 0.5172 0.0
N362 N 0.73301 0.57126 0.55606 0.0
N363 N 0.73433 0.72706 0.40621 0.0
C364 C 0.73552 0.61407 0.52453 0.0
C365 C 0.73613 0.6941 0.44813 0.0
N366 N 0.83857 0.62691 0.5119 0.0
N367 N 0.63814 0.69172 0.47027 0.0
H368 H 0.76987 0.74271 0.38319 0.0
H369 H 0.6968 0.73586 0.39125 0.0
H370 H 0.59829 0.67361 0.48574 0.0
H371 H 0.63792 0.72567 0.4492 0.0
H372 H 0.8439 0.60324 0.54397 0.0
H373 H 0.87696 0.64328 0.4929 0.0
H374 H 0.76475 0.55114 0.558 0.0
H375 H 0.69716 0.55329 0.57771 0.0
C376 C 0.33312 0.353 0.2236 0.0
C377 C 0.38497 0.38717 0.24564 0.0
C378 C 0.3389 0.45892 0.24261 0.0
C379 C 0.28718 0.42432 0.22117 0.0
N380 N 0.24155 0.34457 0.17487 0.0
N381 N 0.44246 0.47466 0.26258 0.0
C382 C 0.2866 0.37338 0.2061 0.0
C383 C 0.38961 0.44096 0.25056 0.0
N384 N 0.32678 0.30052 0.2223 0.0
N385 N 0.33874 0.50773 0.25793 0.0
H386 H 0.47993 0.46216 0.26955 0.0
H387 H 0.44992 0.51492 0.25995 0.0
H388 H 0.30261 0.52232 0.25207 0.0
H389 H 0.37318 0.53245 0.27931 0.0
H390 H 0.28746 0.27325 0.21295 0.0
H391 H 0.35978 0.2838 0.23446 0.0
H392 H 0.2416 0.30911 0.15835 0.0
H393 H 0.20683 0.35867 0.16095 0.0
C394 C 0.59683 0.24984 0.92769 0.0
C395 C 0.59619 0.29879 0.94888 0.0
C396 C 0.55389 0.25195 1.02912 0.0
C397 C 0.54913 0.20222 1.00635 0.0
N398 N 0.55482 0.15587 0.92666 0.0
N399 N 0.56064 0.34391 1.01514 0.0
C400 C 0.56767 0.20172 0.95359 0.0
C401 C 0.57032 0.29881 0.99805 0.0
N402 N 0.62666 0.24907 0.88342 0.0
N403 N 0.54617 0.25526 1.08175 0.0
H404 H 0.57139 0.37869 0.99342 0.0
H405 H 0.53651 0.3454 1.04782 0.0
H406 H 0.53788 0.22295 0.10668 0.0
H407 H 0.55496 0.29049 0.10179 0.0
H408 H 0.63469 0.21531 0.86945 0.0
H409 H 0.64721 0.28294 0.86303 0.0
H410 H 0.56224 0.15378 0.88674 0.0
H411 H 0.53083 0.12062 0.94222 0.0
C412 C 0.92588 0.88196 0.44278 0.0
C413 C 0.95326 0.84091 0.45128 0.0
C414 C 0.02589 0.89942 0.51221 0.0
C415 C 0.99516 0.93851 0.50767 0.0
N416 N 0.91219 0.96434 0.4717 0.0
N417 N 0.02594 0.80888 0.49944 0.0
C418 C 0.94419 0.92892 0.47363 0.0
C419 C 1.00254 0.8494 0.48733 0.0
N420 N 0.88288 0.87645 0.40397 0.0
N421 N 0.07849 0.91052 0.53933 0.0
H422 H 1.01142 0.77268 0.48109 0.0
H423 H 0.05703 0.80989 0.52998 0.0
H424 H 0.09648 0.94598 0.55818 0.0
H425 H 0.10634 0.88653 0.53964 0.0
H426 H 0.8647 0.90631 0.39151 0.0
H427 H 0.86876 0.8431 0.38077 0.0
H428 H 0.87123 0.9577 0.45288 0.0
H429 H 0.92489 0.99925 0.49242 0.0
C430 C 0.27184 0.77326 0.81714 0.0
C431 C 0.21531 0.74343 0.80001 0.0
C432 C 0.25757 0.68999 0.74506 0.0
C433 C 0.31389 0.71871 0.7637 0.0
N434 N 0.37466 0.77909 0.82591 0.0
N435 N 0.15365 0.66759 0.75651 0.0
C436 C 0.32096 0.75767 0.80247 0.0
C437 C 0.20794 0.69989 0.76665 0.0
N438 N 0.27875 0.81765 0.84583 0.0
N439 N 0.25158 0.6548 0.70529 0.0
H440 H 0.11649 0.67433 0.77126 0.0
H441 H 0.14584 0.63209 0.73717 0.0
H442 H 0.28683 0.64583 0.68914 0.0
H443 H 0.21203 0.63693 0.68589 0.0
H444 H 0.31883 0.8442 0.85406 0.0
H445 H 0.24416 0.83046 0.85816 0.0
H446 H 0.38184 0.80386 0.85823 0.0
H447 H 0.41157 0.7683 0.81619 0.0
C448 C 0.64003 0.79804 0.76989 0.0
C449 C 0.66897 0.80719 0.82045 0.0
C450 C 0.76028 0.847 0.77868 0.0
C451 C 0.72921 0.84784 0.7299 0.0
N452 N 0.64076 0.8221 0.67645 0.0
N453 N 0.75551 0.85187 0.87272 0.0
C454 C 0.66933 0.82202 0.72455 0.0
C455 C 0.72914 0.83378 0.82502 0.0
N456 N 0.58429 0.76749 0.76582 0.0
N457 N 0.81951 0.86133 0.78122 0.0
H458 H 0.73388 0.84874 0.90765 0.0
H459 H 0.7977 0.87604 0.8766 0.0
H460 H 0.84395 0.8723 0.74803 0.0
H461 H 0.84392 0.85657 0.81533 0.0
H462 H 0.5606 0.75973 0.73031 0.0
H463 H 0.56272 0.74761 0.79801 0.0
H464 H 0.59595 0.80909 0.67013 0.0
H465 H 0.66263 0.83702 0.64253 0.0
C466 C 0.913 0.33935 0.22025 0.0
C467 C 0.92144 0.3007 0.25728 0.0
C468 C 0.91572 0.24257 0.18287 0.0
C469 C 0.88571 0.27245 0.15223 0.0
N470 N 0.86246 0.35381 0.13808 0.0
N471 N 0.92072 0.20912 0.27058 0.0
C472 C 0.88822 0.32322 0.16912 0.0
C473 C 0.92203 0.25082 0.23786 0.0
N474 N 0.92706 0.39052 0.23441 0.0
N475 N 0.93214 0.20299 0.1607 0.0
H476 H 0.9158 0.20934 0.31089 0.0
H477 H 0.91631 0.17169 0.25645 0.0
H478 H 0.92764 0.19648 0.12012 0.0
H479 H 0.95646 0.18148 0.18185 0.0
H480 H 0.92411 0.42037 0.208 0.0
H481 H 0.94702 0.40312 0.27118 0.0
H482 H 0.85554 0.38834 0.15125 0.0
H483 H 0.84566 0.34247 0.09997 0.0
C484 C 0.44216 0.7058 0.41361 0.0
C485 C 0.43589 0.6848 0.36175 0.0
C486 C 0.46219 0.60683 0.40088 0.0
C487 C 0.46831 0.62791 0.45302 0.0
N488 N 0.49155 0.70899 0.49991 0.0
N489 N 0.46014 0.62298 0.30587 0.0
C490 C 0.46618 0.68079 0.4568 0.0
C491 C 0.45141 0.63731 0.35548 0.0
N492 N 0.42433 0.74927 0.42238 0.0
N493 N 0.46856 0.55807 0.39387 0.0
H494 H 0.45363 0.64412 0.27202 0.0
H495 H 0.48066 0.59412 0.29903 0.0
H496 H 0.48601 0.53804 0.42323 0.0
H497 H 0.45604 0.53751 0.35878 0.0
H498 H 0.42261 0.76327 0.46018 0.0
H499 H 0.4065 0.76847 0.39239 0.0
H500 H 0.49452 0.74851 0.50395 0.0
H501 H 0.51873 0.69511 0.52621 0.0
C502 C 0.10982 0.41588 0.92747 0.0
C503 C 0.12115 0.44147 0.8774 0.0
C504 C 0.10932 0.52127 0.91995 0.0
C505 C 0.08871 0.49349 0.96715 0.0
N506 N 0.05561 0.40745 1.0068 0.0
N507 N 0.11461 0.51682 0.82493 0.0
C508 C 0.08516 0.43884 0.96839 0.0
C509 C 0.11583 0.49366 0.87342 0.0
N510 N 0.12483 0.37055 0.93753 0.0
N511 N 0.12597 0.5745 0.91974 0.0
H512 H 0.1149 0.49724 0.78981 0.0
H513 H 0.10613 0.55305 0.81956 0.0
H514 H 0.12792 0.59619 0.95379 0.0
H515 H 0.14541 0.59651 0.88776 0.0
H516 H 0.1224 0.35295 0.97483 0.0
H517 H 0.14609 0.35407 0.9107 0.0
H518 H 0.04758 0.36696 1.00649 0.0
H519 H 0.03279 0.42055 1.03487 0.0
C520 C 0.5841 0.92431 0.92696 0.0
C521 C 0.55053 0.87243 0.9367 0.0
C522 C 0.47259 0.90608 0.96839 0.0
C523 C 0.50992 0.9574 0.96363 0.0
N524 N 0.58149 1.01334 0.91043 0.0
N525 N 0.45797 0.81291 0.95422 0.0
C526 C 0.55871 0.96555 0.93273 0.0
C527 C 0.49285 0.86287 0.95334 0.0
N528 N 0.64151 0.9349 0.91629 0.0
N529 N 0.4187 0.89893 0.98727 0.0
H530 H 0.47207 0.78106 0.94306 0.0
H531 H 0.41443 0.80294 0.96304 0.0
H532 H 0.39939 0.92945 0.98923 0.0
H533 H 0.39215 0.86297 0.99864 0.0
H534 H 0.66836 0.9728 0.9137 0.0
H535 H 0.66403 0.9065 0.91585 0.0
H536 H 0.61513 1.02057 0.88442 0.0
H537 H 0.56172 1.04356 0.91354 0.0
C538 C 0.93801 0.19561 0.43229 0.0
C539 C 0.96661 0.24944 0.4381 0.0
C540 C 0.03477 0.22769 0.50451 0.0
C541 C 1.00917 0.17357 0.4946 0.0
N542 N 0.94833 0.10791 0.43736 0.0
N543 N 0.04771 0.31688 0.47305 0.0
C544 C 0.96443 0.15819 0.45484 0.0
C545 C 1.01698 0.26556 0.47196 0.0
N546 N 0.88461 0.17998 0.40669 0.0
N547 N 0.0732 0.24325 0.5466 0.0
H548 H 0.03453 0.34562 0.45104 0.0
H549 H 0.08823 0.33019 0.49262 0.0
H550 H 0.08707 0.2175 0.5722 0.0
H551 H 0.08767 0.28184 0.55898 0.0
H552 H 0.8596 0.14129 0.40626 0.0
H553 H 0.86298 0.20602 0.38997 0.0
H554 H 0.9192 0.0956 0.40523 0.0
H555 H 0.96953 0.08029 0.45088 0.0
C556 C 0.2836 0.64011 0.17168 0.0
C557 C 0.2835 0.67774 0.21071 0.0
C558 C 0.18147 0.67291 0.18396 0.0
C559 C 0.18079 0.63434 0.14559 0.0
N560 N 0.23397 0.58784 0.09661 0.0
N561 N 0.22933 0.72214 0.26101 0.0
C562 C 0.23266 0.61955 0.13798 0.0
C563 C 0.23145 0.69171 0.21882 0.0
N564 N 0.33221 0.62313 0.16782 0.0
N565 N 0.13624 0.6951 0.1842 0.0
H566 H 0.26503 0.73707 0.28688 0.0
H567 H 0.19112 0.72864 0.27332 0.0
H568 H 0.10031 0.68497 0.15779 0.0
H569 H 0.13667 0.72732 0.20687 0.0
H570 H 0.33411 0.59189 0.14475 0.0
H571 H 0.37028 0.63821 0.19075 0.0
H572 H 0.27129 0.57942 1.08474 0.0
H573 H 0.19771 0.57186 1.07172 0.0
C574 C 0.25278 0.45922 0.67182 0.0
C575 C 0.26063 0.45013 0.72708 0.0
C576 C 0.36482 0.4953 0.72102 0.0
C577 C 0.35842 0.49799 0.6647 0.0
N578 N 0.29571 0.47829 0.58619 0.0
N579 N 0.32744 0.45131 0.80184 0.0
C580 C 0.30219 0.47841 0.64007 0.0
C581 C 0.3175 0.46635 0.75106 0.0
N582 N 0.1978 0.45164 0.64994 0.0
N583 N 0.41616 0.52029 0.74651 0.0
H584 H 0.29477 0.42905 0.82488 0.0
H585 H 0.36889 0.45642 0.81936 0.0
H586 H 0.45349 0.53882 0.72711 0.0
H587 H 0.4207 0.52545 0.7873 0.0
H588 H 0.18882 0.46226 0.61129 0.0
H589 H 0.16092 0.43951 0.67202 0.0
H590 H 0.25743 0.45901 0.56558 0.0
H591 H 0.32982 0.49475 0.56184 0.0
C592 C 0.67389 0.70986 1.01525 0.0
C593 C 0.67477 0.76264 1.00585 0.0
C594 C 0.77835 0.79089 1.03078 0.0
C595 C 0.77889 0.73784 1.03374 0.0
N596 N 0.7271 0.64769 1.04521 0.0
N597 N 0.72099 0.8532 1.02476 0.0
C598 C 0.72624 0.69753 1.03208 0.0
C599 C 0.72463 0.80308 1.02125 0.0
N600 N 0.62372 0.67191 1.00435 0.0
N601 N 0.82946 0.82938 1.033 0.0
H602 H 0.68231 0.86347 1.01803 0.0
H603 H 0.75475 0.88366 1.03976 0.0
H604 H 0.86961 0.822 1.04123 0.0
H605 H 0.83258 0.86834 1.02386 0.0
H606 H 0.6207 0.63219 1.00449 0.0
H607 H 0.58484 0.68108 0.99392 0.0
H608 H 0.68997 0.61674 1.04791 0.0
H609 H 0.76532 0.63824 1.05752 0.0
C610 C 0.48388 0.83657 0.17567 0.0
C611 C 0.45455 0.83637 0.223 0.0
C612 C 0.47729 0.93325 0.21542 0.0
C613 C 0.50004 0.93285 0.16429 0.0
N614 N 0.51499 0.87961 1.09293 0.0
N615 N 0.41641 0.88496 0.284 0.0
C616 C 0.50083 0.88321 0.14395 0.0
C617 C 0.44931 0.8849 0.24163 0.0
N618 N 0.49646 0.79188 0.16109 0.0
N619 N 0.4853 0.97946 0.24096 0.0
H620 H 0.39726 0.85108 0.30507 0.0
H621 H 0.4047 0.91781 0.29572 0.0
H622 H 0.50856 1.01513 0.22573 0.0
H623 H 0.47482 0.98185 0.28002 0.0
H624 H 0.52346 0.7905 0.13057 0.0
H625 H 0.48465 0.75723 0.18292 0.0
H626 H 0.50963 0.84424 1.07388 0.0
H627 H 0.52649 0.9115 1.06756 0.0
C628 C 0.06493 0.27549 0.70534 0.0
C629 C 0.10294 0.28419 0.7514 0.0
C630 C 0.10452 0.1912 0.74867 0.0
C631 C 0.06474 0.18212 0.70382 0.0
N632 N 0.99681 0.21353 0.64771 0.0
N633 N 0.15239 0.24814 0.82128 0.0
C634 C 0.04215 0.22376 0.68448 0.0
C635 C 0.1205 0.24119 0.7744 0.0
N636 N 0.05145 0.3171 0.68055 0.0
N637 N 0.12881 0.15241 0.7656 0.0
H638 H 0.16567 0.28403 0.84034 0.0
H639 H 0.16193 0.21786 0.84341 0.0
H640 H 0.11764 0.11553 0.74849 0.0
H641 H 0.16281 0.15754 0.794 0.0
H642 H 0.03068 0.31499 0.64319 0.0
H643 H 0.06431 0.35471 0.69597 0.0
H644 H 0.97428 0.24057 0.63584 0.0
H645 H 0.97812 0.17647 0.63231 0.0
C646 C 0.82885 0.39848 0.42842 0.0
C647 C 0.81784 0.34796 0.40633 0.0
C648 C 0.71336 0.33258 0.41797 0.0
C649 C 0.72425 0.38368 0.4385 0.0
N650 N 0.78975 0.46801 0.45747 0.0
N651 N 0.75026 0.26856 0.37465 0.0
C652 C 0.78135 0.41746 0.44205 0.0
C653 C 0.76018 0.31551 0.39945 0.0
N654 N 0.88489 0.4279 0.437 0.0
N655 N 0.65835 0.29989 0.4177 0.0
H656 H 0.78345 0.25298 0.36382 0.0
H657 H 0.70928 0.24599 0.36213 0.0
H658 H 0.62262 0.31168 0.4289 0.0
H659 H 0.64811 0.26033 0.40914 0.0
H660 H 0.89665 0.46254 0.45811 0.0
H661 H 0.9206 0.41624 0.42549 0.0
H662 H 0.8291 0.4965 0.45593 0.0
H663 H 0.75606 0.48279 0.46869 0.0
loop_
_geom_bond_atom_site_label_1
_geom_bond_atom_site_label_2
_geom_bond_distance
_geom_bond_site_symmetry_2
_ccdc_geom_bond_type
H0 C3 0.931 . S
H1 C6 0.928 . S
H2 C8 0.930 . S
C3 H0 0.931 . S
C3 C4 1.413 . S
C3 C5 1.360 . S
C4 C3 1.413 . S
C4 C8 1.429 . S
C5 C3 1.360 . S
C5 C6 1.372 . S
C6 H1 0.928 . S
C6 C5 1.372 . S
C6 C7 1.404 . S
C7 C6 1.404 . S
C7 C8 1.391 . S
C8 H2 0.930 . S
C8 C4 1.429 . S
C8 C7 1.391 . S
H9 C12 0.931 . S
H10 C15 0.928 . S
H11 C17 0.930 . S
C12 H9 0.931 . S
C12 C13 1.413 . S
C12 C14 1.360 . S
C13 C12 1.413 . S
C13 C17 1.429 . S
C14 C12 1.360 . S
C14 C15 1.372 . S
C15 H10 0.928 . S
C15 C14 1.372 . S
C15 C16 1.404 . S
C16 C15 1.404 . S
C16 C17 1.391 . S
C17 H11 0.930 . S
C17 C13 1.429 . S
C17 C16 1.391 . S
H18 C21 0.931 . S
H19 C24 0.928 . S
H20 C26 0.930 . S
C21 H18 0.931 . S
C21 C22 1.413 . S
C21 C23 1.360 . S
C22 C21 1.413 . S
C22 C26 1.429 . S
C23 C21 1.360 . S
C23 C24 1.372 . S
C24 H19 0.928 . S
C24 C23 1.372 . S
C24 C25 1.404 . S
C25 C24 1.404 . S
C25 C26 1.391 . S
C26 H20 0.930 . S
C26 C22 1.429 . S
C26 C25 1.391 . S
H27 C30 0.931 . S
H28 C33 0.928 . S
H29 C35 0.930 . S
C30 H27 0.931 . S
C30 C31 1.413 . S
C30 C32 1.360 . S
C31 C30 1.413 . S
C31 C35 1.429 . S
C32 C30 1.360 . S
C32 C33 1.372 . S
C33 H28 0.928 . S
C33 C32 1.372 . S
C33 C34 1.404 . S
C34 C33 1.404 . S
C34 C35 1.391 . S
C35 H29 0.930 . S
C35 C31 1.429 . S
C35 C34 1.391 . S
H36 C39 0.931 . S
H37 C42 0.928 . S
H38 C44 0.930 . S
C39 H36 0.931 . S
C39 C40 1.413 . S
C39 C41 1.360 . S
C40 C39 1.413 . S
C40 C44 1.429 . S
C41 C39 1.360 . S
C41 C42 1.372 . S
C42 H37 0.928 . S
C42 C41 1.372 . S
C42 C43 1.404 . S
C43 C42 1.404 . S
C43 C44 1.391 . S
C44 H38 0.930 . S
C44 C40 1.429 . S
C44 C43 1.391 . S
H45 C48 0.931 . S
H46 C51 0.928 . S
H47 C53 0.930 . S
C48 H45 0.931 . S
C48 C49 1.413 . S
C48 C50 1.360 . S
C49 C48 1.413 . S
C49 C53 1.429 . S
C50 C48 1.360 . S
C50 C51 1.372 . S
C51 H46 0.928 . S
C51 C50 1.372 . S
C51 C52 1.404 . S
C52 C51 1.404 . S
C52 C53 1.391 . S
C53 H47 0.930 . S
C53 C49 1.429 . S
C53 C52 1.391 . S
H54 C57 0.931 . S
H55 C60 0.928 . S
H56 C62 0.930 . S
C57 H54 0.931 . S
C57 C58 1.413 . S
C57 C59 1.360 . S
C58 C57 1.413 . S
C58 C62 1.429 . S
C59 C57 1.360 . S
C59 C60 1.372 . S
C60 H55 0.928 . S
C60 C59 1.372 . S
C60 C61 1.404 . S
C61 C60 1.404 . S
C61 C62 1.391 . S
C62 H56 0.930 . S
C62 C58 1.429 . S
C62 C61 1.391 . S
H63 C66 0.931 . S
H64 C69 0.928 . S
H65 C71 0.930 . S
C66 H63 0.931 . S
C66 C67 1.413 . S
C66 C68 1.360 . S
C67 C66 1.413 . S
C67 C71 1.429 . S
C68 C66 1.360 . S
C68 C69 1.372 . S
C69 H64 0.928 . S
C69 C68 1.372 . S
C69 C70 1.404 . S
C70 C69 1.404 . S
C70 C71 1.391 . S
C71 H65 0.930 . S
C71 C67 1.429 . S
C71 C70 1.391 . S
Tb72 C74 2.809 1_545 S
Tb72 O92 2.484 1_545 S
Tb72 O93 2.440 1_545 S
Tb72 O94 2.658 1_655 S
Tb72 O95 2.409 . S
Tb72 O96 2.378 1_545 S
Tb72 O100 2.325 1_545 S
Tb72 O103 2.341 . S
Tb73 C83 2.809 . S
Tb73 O94 2.325 . S
Tb73 O97 2.341 1_545 S
Tb73 O98 2.484 . S
Tb73 O99 2.440 . S
Tb73 O100 2.658 1_445 S
Tb73 O101 2.409 1_545 S
Tb73 O102 2.378 . S
C74 Tb72 2.809 1_565 S
C74 C75 1.514 . S
C74 O92 1.248 . S
C74 O93 1.266 . S
C75 C74 1.514 . S
C75 C76 1.359 . S
C75 C80 1.348 . S
C76 C75 1.359 . S
C76 C77 1.380 . S
C76 H104 0.929 . S
C77 C76 1.380 . S
C77 C78 1.347 . S
C77 H105 0.931 . S
C78 C77 1.347 . S
C78 C79 1.369 . S
C79 C78 1.369 . S
C79 C80 1.408 . S
C79 H106 0.930 . S
C80 C75 1.348 . S
C80 C79 1.408 . S
C80 H107 0.930 . S
C81 O94 1.281 . S
C81 O95 1.254 1_455 S
C82 O96 1.236 1_455 S
C82 O97 1.266 . S
C83 Tb73 2.809 . S
C83 C84 1.514 . S
C83 O98 1.248 . S
C83 O99 1.266 . S
C84 C83 1.514 . S
C84 C85 1.359 . S
C84 C89 1.348 . S
C85 C84 1.359 . S
C85 C86 1.380 . S
C85 H108 0.929 . S
C86 C85 1.380 . S
C86 C87 1.347 . S
C86 H109 0.931 . S
C87 C86 1.347 . S
C87 C88 1.369 . S
C88 C87 1.369 . S
C88 C89 1.408 . S
C88 H110 0.930 . S
C89 C84 1.348 . S
C89 C88 1.408 . S
C89 H111 0.930 . S
C90 O100 1.281 . S
C90 O101 1.254 1_655 S
C91 O102 1.236 1_655 S
C91 O103 1.266 . S
O92 Tb72 2.484 1_565 S
O92 C74 1.248 . S
O93 Tb72 2.440 1_565 S
O93 C74 1.266 . S
O94 Tb72 2.658 1_455 S
O94 Tb73 2.325 . S
O94 C81 1.281 . S
O95 Tb72 2.409 . S
O95 C81 1.254 1_655 S
O96 Tb72 2.378 1_565 S
O96 C82 1.236 1_655 S
O97 Tb73 2.341 1_565 S
O97 C82 1.266 . S
O98 Tb73 2.484 . S
O98 C83 1.248 . S
O99 Tb73 2.440 . S
O99 C83 1.266 . S
O100 Tb72 2.325 1_565 S
O100 Tb73 2.658 1_665 S
O100 C90 1.281 . S
O101 Tb73 2.409 1_565 S
O101 C90 1.254 1_455 S
O102 Tb73 2.378 . S
O102 C91 1.236 1_455 S
O103 Tb72 2.341 . S
O103 C91 1.266 . S
H104 C76 0.929 . S
H105 C77 0.931 . S
H106 C79 0.930 . S
H107 C80 0.930 . S
H108 C85 0.929 . S
H109 C86 0.931 . S
H110 C88 0.930 . S
H111 C89 0.930 . S
Tb112 C114 2.809 . S
Tb112 O132 2.484 . S
Tb112 O133 2.440 . S
Tb112 O134 2.658 1_545 S
Tb112 O135 2.409 1_545 S
Tb112 O136 2.378 . S
Tb112 O140 2.325 1_554 S
Tb112 O143 2.341 1_544 S
Tb113 C123 2.823 . S
Tb113 O134 2.340 1_556 S
Tb113 O137 2.326 1_566 S
Tb113 O138 2.506 . S
Tb113 O139 2.445 . S
Tb113 O140 2.650 1_565 S
Tb113 O141 2.393 1_565 S
Tb113 O142 2.393 . S
C114 Tb112 2.809 . S
C114 C115 1.514 . S
C114 O132 1.248 . S
C114 O133 1.266 . S
C115 C114 1.514 . S
C115 C116 1.359 . S
C115 C120 1.348 . S
C116 C115 1.359 . S
C116 C117 1.380 . S
C116 H144 0.929 . S
C117 C116 1.380 . S
C117 C118 1.347 . S
C117 H145 0.931 . S
C118 C117 1.347 . S
C118 C119 1.369 . S
C119 C118 1.369 . S
C119 C120 1.408 . S
C119 H146 0.930 . S
C120 C115 1.348 . S
C120 C119 1.408 . S
C120 H147 0.930 . S
C121 O134 1.281 . S
C121 O135 1.254 . S
C122 O136 1.236 . S
C122 O137 1.266 . S
C123 Tb113 2.823 . S
C123 C124 1.514 . S
C123 O138 1.248 . S
C123 O139 1.266 . S
C124 C123 1.514 . S
C124 C125 1.359 . S
C124 C129 1.348 . S
C125 C124 1.359 . S
C125 C126 1.380 . S
C125 H148 0.929 . S
C126 C125 1.380 . S
C126 C127 1.347 . S
C126 H149 0.931 . S
C127 C126 1.347 . S
C127 C128 1.369 . S
C128 C127 1.369 . S
C128 C129 1.408 . S
C128 H150 0.930 . S
C129 C124 1.348 . S
C129 C128 1.408 . S
C129 H151 0.930 . S
C130 O140 1.281 . S
C130 O141 1.254 . S
C131 O142 1.236 . S
C131 O143 1.266 . S
O132 Tb112 2.484 . S
O132 C114 1.248 . S
O133 Tb112 2.440 . S
O133 C114 1.266 . S
O134 Tb112 2.658 1_565 S
O134 Tb113 2.340 1_554 S
O134 C121 1.281 . S
O135 Tb112 2.409 1_565 S
O135 C121 1.254 . S
O136 Tb112 2.378 . S
O136 C122 1.236 . S
O137 Tb113 2.326 1_544 S
O137 C122 1.266 . S
O138 Tb113 2.506 . S
O138 C123 1.248 . S
O139 Tb113 2.445 . S
O139 C123 1.266 . S
O140 Tb112 2.325 1_556 S
O140 Tb113 2.650 1_545 S
O140 C130 1.281 . S
O141 Tb113 2.393 1_545 S
O141 C130 1.254 . S
O142 Tb113 2.393 . S
O142 C131 1.236 . S
O143 Tb112 2.341 1_566 S
O143 C131 1.266 . S
H144 C116 0.929 . S
H145 C117 0.931 . S
H146 C119 0.930 . S
H147 C120 0.930 . S
H148 C125 0.929 . S
H149 C126 0.931 . S
H150 C128 0.930 . S
H151 C129 0.930 . S
Tb152 C154 2.809 . S
Tb152 O172 2.484 . S
Tb152 O173 2.440 . S
Tb152 O174 2.658 . S
Tb152 O175 2.409 . S
Tb152 O176 2.378 . S
Tb152 O180 2.325 . S
Tb152 O183 2.341 . S
Tb153 C163 2.809 . S
Tb153 O174 2.325 . S
Tb153 O177 2.341 . S
Tb153 O178 2.484 . S
Tb153 O179 2.440 . S
Tb153 O180 2.658 . S
Tb153 O181 2.409 . S
Tb153 O182 2.378 . S
C154 Tb152 2.809 . S
C154 C155 1.514 . S
C154 O172 1.248 . S
C154 O173 1.266 . S
C155 C154 1.514 . S
C155 C156 1.359 . S
C155 C160 1.348 . S
C156 C155 1.359 . S
C156 C157 1.380 . S
C156 H184 0.929 . S
C157 C156 1.380 . S
C157 C158 1.347 . S
C157 H185 0.931 . S
C158 C157 1.347 . S
C158 C159 1.369 . S
C159 C158 1.369 . S
C159 C160 1.408 . S
C159 H186 0.930 . S
C160 C155 1.348 . S
C160 C159 1.408 . S
C160 H187 0.930 . S
C161 O174 1.281 . S
C161 O175 1.254 . S
C162 O176 1.236 . S
C162 O177 1.266 . S
C163 Tb153 2.809 . S
C163 C164 1.514 . S
C163 O178 1.248 . S
C163 O179 1.266 . S
C164 C163 1.514 . S
C164 C165 1.359 . S
C164 C169 1.348 . S
C165 C164 1.359 . S
C165 C166 1.380 . S
C165 H188 0.929 . S
C166 C165 1.380 . S
C166 C167 1.347 . S
C166 H189 0.931 . S
C167 C166 1.347 . S
C167 C168 1.369 . S
C168 C167 1.369 . S
C168 C169 1.408 . S
C168 H190 0.930 . S
C169 C164 1.348 . S
C169 C168 1.408 . S
C169 H191 0.930 . S
C170 O180 1.281 . S
C170 O181 1.254 . S
C171 O182 1.236 . S
C171 O183 1.266 . S
O172 Tb152 2.484 . S
O172 C154 1.248 . S
O173 Tb152 2.440 . S
O173 C154 1.266 . S
O174 Tb152 2.658 . S
O174 Tb153 2.325 . S
O174 C161 1.281 . S
O175 Tb152 2.409 . S
O175 C161 1.254 . S
O176 Tb152 2.378 . S
O176 C162 1.236 . S
O177 Tb153 2.341 . S
O177 C162 1.266 . S
O178 Tb153 2.484 . S
O178 C163 1.248 . S
O179 Tb153 2.440 . S
O179 C163 1.266 . S
O180 Tb152 2.325 . S
O180 Tb153 2.658 . S
O180 C170 1.281 . S
O181 Tb153 2.409 . S
O181 C170 1.254 . S
O182 Tb153 2.378 . S
O182 C171 1.236 . S
O183 Tb152 2.341 . S
O183 C171 1.266 . S
H184 C156 0.929 . S
H185 C157 0.931 . S
H186 C159 0.930 . S
H187 C160 0.930 . S
H188 C165 0.929 . S
H189 C166 0.931 . S
H190 C168 0.930 . S
H191 C169 0.930 . S
Tb192 C194 2.809 . S
Tb192 O212 2.484 . S
Tb192 O213 2.440 . S
Tb192 O214 2.658 1_656 S
Tb192 O215 2.409 1_656 S
Tb192 O216 2.378 1_556 S
Tb192 O220 2.325 . S
Tb192 O223 2.341 1_655 S
Tb193 C203 2.809 . S
Tb193 O214 2.325 . S
Tb193 O217 2.341 1_455 S
Tb193 O218 2.484 . S
Tb193 O219 2.440 . S
Tb193 O220 2.658 1_454 S
Tb193 O221 2.409 1_455 S
Tb193 O222 2.378 1_554 S
C194 Tb192 2.809 . S
C194 C195 1.514 . S
C194 O212 1.248 . S
C194 O213 1.266 . S
C195 C194 1.514 . S
C195 C196 1.359 . S
C195 C200 1.348 . S
C196 C195 1.359 . S
C196 C197 1.380 . S
C196 H224 0.929 . S
C197 C196 1.380 . S
C197 C198 1.347 . S
C197 H225 0.931 . S
C198 C197 1.347 . S
C198 C199 1.369 . S
C199 C198 1.369 . S
C199 C200 1.408 . S
C199 H226 0.930 . S
C200 C195 1.348 . S
C200 C199 1.408 . S
C200 H227 0.930 . S
C201 O214 1.281 . S
C201 O215 1.254 . S
C202 O216 1.236 . S
C202 O217 1.266 . S
C203 Tb193 2.809 . S
C203 C204 1.514 . S
C203 O218 1.248 . S
C203 O219 1.266 . S
C204 C203 1.514 . S
C204 C205 1.359 . S
C204 C209 1.348 . S
C205 C204 1.359 . S
C205 C206 1.380 . S
C205 H228 0.929 . S
C206 C205 1.380 . S
C206 C207 1.347 . S
C206 H229 0.931 . S
C207 C206 1.347 . S
C207 C208 1.369 . S
C208 C207 1.369 . S
C208 C209 1.408 . S
C208 H230 0.930 . S
C209 C204 1.348 . S
C209 C208 1.408 . S
C209 H231 0.930 . S
C210 O220 1.281 . S
C210 O221 1.253 1_556 S
C211 O222 1.236 . S
C211 O223 1.266 . S
O212 Tb192 2.484 . S
O212 C194 1.248 . S
O213 Tb192 2.440 . S
O213 C194 1.266 . S
O214 Tb192 2.658 1_454 S
O214 Tb193 2.325 . S
O214 C201 1.281 . S
O215 Tb192 2.409 1_454 S
O215 C201 1.254 . S
O216 Tb192 2.378 1_554 S
O216 C202 1.236 . S
O217 Tb193 2.341 1_655 S
O217 C202 1.266 . S
O218 Tb193 2.484 . S
O218 C203 1.248 . S
O219 Tb193 2.440 . S
O219 C203 1.266 . S
O220 Tb192 2.325 . S
O220 Tb193 2.658 1_656 S
O220 C210 1.281 . S
O221 Tb193 2.409 1_655 S
O221 C210 1.253 1_554 S
O222 Tb193 2.378 1_556 S
O222 C211 1.236 . S
O223 Tb192 2.341 1_455 S
O223 C211 1.266 . S
H224 C196 0.929 . S
H225 C197 0.931 . S
H226 C199 0.930 . S
H227 C200 0.930 . S
H228 C205 0.929 . S
H229 C206 0.931 . S
H230 C208 0.930 . S
H231 C209 0.930 . S
C232 C233 1.363 . S
C232 C238 1.379 . S
C232 N240 1.356 . S
C233 C232 1.363 . S
C233 C239 1.363 . S
C234 C235 1.363 . S
C234 C239 1.379 . S
C234 N241 1.356 . S
C235 C234 1.363 . S
C235 C238 1.363 . S
N236 C238 1.356 . S
N236 H248 0.984 . S
N236 H249 0.985 . S
N237 C239 1.356 . S
N237 H242 0.984 . S
N237 H243 0.985 . S
C238 C232 1.379 . S
C238 C235 1.363 . S
C238 N236 1.356 . S
C239 C233 1.363 . S
C239 C234 1.379 . S
C239 N237 1.356 . S
N240 C232 1.356 . S
N240 H246 0.984 . S
N240 H247 0.984 . S
N241 C234 1.356 . S
N241 H244 0.984 . S
N241 H245 0.985 . S
H242 N237 0.984 . S
H243 N237 0.985 . S
H244 N241 0.984 . S
H245 N241 0.985 . S
H246 N240 0.984 . S
H247 N240 0.984 . S
H248 N236 0.984 . S
H249 N236 0.985 . S
C250 C251 1.363 . S
C250 C256 1.379 . S
C250 N258 1.356 . S
C251 C250 1.363 . S
C251 C257 1.363 . S
C252 C253 1.363 . S
C252 C257 1.379 . S
C252 N259 1.356 . S
C253 C252 1.363 . S
C253 C256 1.363 . S
N254 C256 1.356 . S
N254 H266 0.984 . S
N254 H267 0.985 . S
N255 C257 1.356 . S
N255 H260 0.984 . S
N255 H261 0.985 . S
C256 C250 1.379 . S
C256 C253 1.363 . S
C256 N254 1.356 . S
C257 C251 1.363 . S
C257 C252 1.379 . S
C257 N255 1.356 . S
N258 C250 1.356 . S
N258 H264 0.984 . S
N258 H265 0.984 . S
N259 C252 1.356 . S
N259 H262 0.984 . S
N259 H263 0.985 . S
H260 N255 0.984 . S
H261 N255 0.985 . S
H262 N259 0.984 . S
H263 N259 0.985 . S
H264 N258 0.984 . S
H265 N258 0.984 . S
H266 N254 0.984 . S
H267 N254 0.985 . S
C268 C269 1.363 . S
C268 C274 1.379 . S
C268 N276 1.356 . S
C269 C268 1.363 . S
C269 C275 1.363 . S
C270 C271 1.363 . S
C270 C275 1.379 . S
C270 N277 1.356 . S
C271 C270 1.363 . S
C271 C274 1.363 . S
N272 C274 1.356 . S
N272 H284 0.984 . S
N272 H285 0.985 . S
N273 C275 1.356 . S
N273 H278 0.984 . S
N273 H279 0.985 . S
C274 C268 1.379 . S
C274 C271 1.363 . S
C274 N272 1.356 . S
C275 C269 1.363 . S
C275 C270 1.379 . S
C275 N273 1.356 . S
N276 C268 1.356 . S
N276 H282 0.984 . S
N276 H283 0.984 . S
N277 C270 1.356 . S
N277 H280 0.984 . S
N277 H281 0.985 . S
H278 N273 0.984 . S
H279 N273 0.985 . S
H280 N277 0.984 . S
H281 N277 0.985 . S
H282 N276 0.984 . S
H283 N276 0.984 . S
H284 N272 0.984 . S
H285 N272 0.985 . S
C286 C287 1.363 . S
C286 C292 1.379 . S
C286 N294 1.356 . S
C287 C286 1.363 . S
C287 C293 1.363 . S
C288 C289 1.363 . S
C288 C293 1.379 . S
C288 N295 1.356 . S
C289 C288 1.363 . S
C289 C292 1.363 . S
N290 C292 1.356 . S
N290 H302 0.984 . S
N290 H303 0.985 . S
N291 C293 1.356 . S
N291 H296 0.984 . S
N291 H297 0.985 . S
C292 C286 1.379 . S
C292 C289 1.363 . S
C292 N290 1.356 . S
C293 C287 1.363 . S
C293 C288 1.379 . S
C293 N291 1.356 . S
N294 C286 1.356 . S
N294 H300 0.984 . S
N294 H301 0.984 . S
N295 C288 1.356 . S
N295 H298 0.984 . S
N295 H299 0.985 . S
H296 N291 0.984 . S
H297 N291 0.985 . S
H298 N295 0.984 . S
H299 N295 0.985 . S
H300 N294 0.984 . S
H301 N294 0.984 . S
H302 N290 0.984 . S
H303 N290 0.985 . S
C304 C305 1.363 . S
C304 C310 1.379 . S
C304 N312 1.356 . S
C305 C304 1.363 . S
C305 C311 1.363 . S
C306 C307 1.363 . S
C306 C311 1.379 . S
C306 N313 1.356 . S
C307 C306 1.363 . S
C307 C310 1.363 . S
N308 C310 1.356 . S
N308 H320 0.984 . S
N308 H321 0.985 . S
N309 C311 1.356 . S
N309 H314 0.984 . S
N309 H315 0.985 . S
C310 C304 1.379 . S
C310 C307 1.363 . S
C310 N308 1.356 . S
C311 C305 1.363 . S
C311 C306 1.379 . S
C311 N309 1.356 . S
N312 C304 1.356 . S
N312 H318 0.984 . S
N312 H319 0.984 . S
N313 C306 1.356 . S
N313 H316 0.984 . S
N313 H317 0.985 . S
H314 N309 0.984 . S
H315 N309 0.985 . S
H316 N313 0.984 . S
H317 N313 0.985 . S
H318 N312 0.984 . S
H319 N312 0.984 . S
H320 N308 0.984 . S
H321 N308 0.985 . S
C322 C323 1.363 1_655 S
C322 C328 1.379 . S
C322 N330 1.356 . S
C323 C322 1.363 1_455 S
C323 C329 1.363 . S
C324 C325 1.363 . S
C324 C329 1.379 . S
C324 N331 1.356 . S
C325 C324 1.363 . S
C325 C328 1.363 1_455 S
N326 C328 1.356 . S
N326 H338 0.984 . S
N326 H339 0.985 . S
N327 C329 1.356 . S
N327 H332 0.984 . S
N327 H333 0.985 . S
C328 C322 1.379 . S
C328 C325 1.363 1_655 S
C328 N326 1.356 . S
C329 C323 1.363 . S
C329 C324 1.379 . S
C329 N327 1.356 . S
N330 C322 1.356 . S
N330 H336 0.984 . S
N330 H337 0.984 . S
N331 C324 1.356 . S
N331 H334 0.984 . S
N331 H335 0.985 . S
H332 N327 0.984 . S
H333 N327 0.985 . S
H334 N331 0.984 . S
H335 N331 0.985 . S
H336 N330 0.984 . S
H337 N330 0.984 . S
H338 N326 0.984 . S
H339 N326 0.985 . S
C340 C341 1.363 . S
C340 C346 1.379 . S
C340 N348 1.356 . S
C341 C340 1.363 . S
C341 C347 1.363 . S
C342 C343 1.363 . S
C342 C347 1.379 . S
C342 N349 1.356 . S
C343 C342 1.363 . S
C343 C346 1.363 . S
N344 C346 1.356 . S
N344 H356 0.984 . S
N344 H357 0.985 . S
N345 C347 1.356 . S
N345 H350 0.984 . S
N345 H351 0.985 . S
C346 C340 1.379 . S
C346 C343 1.363 . S
C346 N344 1.356 . S
C347 C341 1.363 . S
C347 C342 1.379 . S
C347 N345 1.356 . S
N348 C340 1.356 . S
N348 H354 0.984 . S
N348 H355 0.984 . S
N349 C342 1.356 . S
N349 H352 0.993 . S
N349 H353 0.985 . S
H350 N345 0.984 . S
H351 N345 0.985 . S
H352 N349 0.993 . S
H353 N349 0.985 . S
H354 N348 0.984 . S
H355 N348 0.984 . S
H356 N344 0.984 . S
H357 N344 0.985 . S
C358 C359 1.363 . S
C358 C364 1.379 . S
C358 N366 1.356 . S
C359 C358 1.363 . S
C359 C365 1.363 . S
C360 C361 1.363 . S
C360 C365 1.379 . S
C360 N367 1.356 . S
C361 C360 1.363 . S
C361 C364 1.363 . S
N362 C364 1.356 . S
N362 H374 0.984 . S
N362 H375 0.985 . S
N363 C365 1.356 . S
N363 H368 0.984 . S
N363 H369 0.985 . S
C364 C358 1.379 . S
C364 C361 1.363 . S
C364 N362 1.356 . S
C365 C359 1.363 . S
C365 C360 1.379 . S
C365 N363 1.356 . S
N366 C358 1.356 . S
N366 H372 0.984 . S
N366 H373 0.984 . S
N367 C360 1.356 . S
N367 H370 0.984 . S
N367 H371 0.985 . S
H368 N363 0.984 . S
H369 N363 0.985 . S
H370 N367 0.984 . S
H371 N367 0.985 . S
H372 N366 0.984 . S
H373 N366 0.984 . S
H374 N362 0.984 . S
H375 N362 0.985 . S
C376 C377 1.363 . S
C376 C382 1.379 . S
C376 N384 1.356 . S
C377 C376 1.363 . S
C377 C383 1.363 . S
C378 C379 1.363 . S
C378 C383 1.379 . S
C378 N385 1.356 . S
C379 C378 1.363 . S
C379 C382 1.363 . S
N380 C382 1.356 . S
N380 H392 0.984 . S
N380 H393 0.985 . S
N381 C383 1.356 . S
N381 H386 0.984 . S
N381 H387 0.985 . S
C382 C376 1.379 . S
C382 C379 1.363 . S
C382 N380 1.356 . S
C383 C377 1.363 . S
C383 C378 1.379 . S
C383 N381 1.356 . S
N384 C376 1.356 . S
N384 H390 0.984 . S
N384 H391 0.984 . S
N385 C378 1.356 . S
N385 H388 0.984 . S
N385 H389 0.985 . S
H386 N381 0.984 . S
H387 N381 0.985 . S
H388 N385 0.984 . S
H389 N385 0.985 . S
H390 N384 0.984 . S
H391 N384 0.984 . S
H392 N380 0.984 . S
H393 N380 0.985 . S
C394 C395 1.363 . S
C394 C400 1.379 . S
C394 N402 1.356 . S
C395 C394 1.363 . S
C395 C401 1.363 . S
C396 C397 1.363 . S
C396 C401 1.379 . S
C396 N403 1.356 . S
C397 C396 1.363 . S
C397 C400 1.363 . S
N398 C400 1.356 . S
N398 H410 0.984 . S
N398 H411 0.985 . S
N399 C401 1.356 . S
N399 H404 0.984 . S
N399 H405 0.985 . S
C400 C394 1.379 . S
C400 C397 1.363 . S
C400 N398 1.356 . S
C401 C395 1.363 . S
C401 C396 1.379 . S
C401 N399 1.356 . S
N402 C394 1.356 . S
N402 H408 0.984 . S
N402 H409 0.984 . S
N403 C396 1.356 . S
N403 H406 0.984 . S
N403 H407 0.985 . S
H404 N399 0.984 . S
H405 N399 0.985 . S
H406 N403 0.984 . S
H407 N403 0.985 . S
H408 N402 0.984 . S
H409 N402 0.984 . S
H410 N398 0.984 . S
H411 N398 0.985 . S
C412 C413 1.363 . S
C412 C418 1.379 . S
C412 N420 1.356 . S
C413 C412 1.363 . S
C413 C419 1.363 . S
C414 C415 1.363 . S
C414 C419 1.379 . S
C414 N421 1.350 1_655 S
C415 C414 1.363 . S
C415 C418 1.363 . S
N416 C418 1.356 . S
N416 H428 0.984 . S
N416 H429 0.985 . S
N417 C419 1.356 . S
N417 H422 0.984 . S
N417 H423 0.985 . S
C418 C412 1.379 . S
C418 C415 1.363 . S
C418 N416 1.356 . S
C419 C413 1.363 . S
C419 C414 1.379 . S
C419 N417 1.356 . S
N420 C412 1.356 . S
N420 H426 0.984 . S
N420 H427 0.984 . S
N421 C414 1.350 1_455 S
N421 H424 0.982 . S
N421 H425 0.993 . S
H422 N417 0.984 . S
H423 N417 0.985 . S
H424 N421 0.982 . S
H425 N421 0.993 . S
H426 N420 0.984 . S
H427 N420 0.984 . S
H428 N416 0.984 . S
H429 N416 0.985 . S
C430 C431 1.363 . S
C430 C436 1.379 . S
C430 N438 1.356 . S
C431 C430 1.363 . S
C431 C437 1.363 . S
C432 C433 1.363 . S
C432 C437 1.379 . S
C432 N439 1.356 . S
C433 C432 1.363 . S
C433 C436 1.363 . S
N434 C436 1.356 . S
N434 H446 0.984 . S
N434 H447 0.985 . S
N435 C437 1.356 . S
N435 H440 0.984 . S
N435 H441 0.985 . S
C436 C430 1.379 . S
C436 C433 1.363 . S
C436 N434 1.356 . S
C437 C431 1.363 . S
C437 C432 1.379 . S
C437 N435 1.356 . S
N438 C430 1.356 . S
N438 H444 0.984 . S
N438 H445 0.984 . S
N439 C432 1.356 . S
N439 H442 0.984 . S
N439 H443 0.985 . S
H440 N435 0.984 . S
H441 N435 0.985 . S
H442 N439 0.984 . S
H443 N439 0.985 . S
H444 N438 0.984 . S
H445 N438 0.984 . S
H446 N434 0.984 . S
H447 N434 0.985 . S
C448 C449 1.363 . S
C448 C454 1.379 . S
C448 N456 1.356 . S
C449 C448 1.363 . S
C449 C455 1.363 . S
C450 C451 1.363 . S
C450 C455 1.379 . S
C450 N457 1.356 . S
C451 C450 1.363 . S
C451 C454 1.363 . S
N452 C454 1.356 . S
N452 H464 0.984 . S
N452 H465 0.985 . S
N453 C455 1.356 . S
N453 H458 0.984 . S
N453 H459 0.985 . S
C454 C448 1.379 . S
C454 C451 1.363 . S
C454 N452 1.356 . S
C455 C449 1.363 . S
C455 C450 1.379 . S
C455 N453 1.356 . S
N456 C448 1.356 . S
N456 H462 0.984 . S
N456 H463 0.984 . S
N457 C450 1.356 . S
N457 H460 0.984 . S
N457 H461 0.985 . S
H458 N453 0.984 . S
H459 N453 0.985 . S
H460 N457 0.984 . S
H461 N457 0.985 . S
H462 N456 0.984 . S
H463 N456 0.984 . S
H464 N452 0.984 . S
H465 N452 0.985 . S
C466 C467 1.363 . S
C466 C472 1.379 . S
C466 N474 1.356 . S
C467 C466 1.363 . S
C467 C473 1.363 . S
C468 C469 1.363 . S
C468 C473 1.379 . S
C468 N475 1.356 . S
C469 C468 1.363 . S
C469 C472 1.363 . S
N470 C472 1.356 . S
N470 H482 0.984 . S
N470 H483 0.985 . S
N471 C473 1.356 . S
N471 H476 0.984 . S
N471 H477 0.985 . S
C472 C466 1.379 . S
C472 C469 1.363 . S
C472 N470 1.356 . S
C473 C467 1.363 . S
C473 C468 1.379 . S
C473 N471 1.356 . S
N474 C466 1.356 . S
N474 H480 0.984 . S
N474 H481 0.984 . S
N475 C468 1.356 . S
N475 H478 0.984 . S
N475 H479 0.985 . S
H476 N471 0.984 . S
H477 N471 0.985 . S
H478 N475 0.984 . S
H479 N475 0.985 . S
H480 N474 0.984 . S
H481 N474 0.984 . S
H482 N470 0.984 . S
H483 N470 0.985 . S
C484 C485 1.363 . S
C484 C490 1.379 . S
C484 N492 1.356 . S
C485 C484 1.363 . S
C485 C491 1.363 . S
C486 C487 1.363 . S
C486 C491 1.379 . S
C486 N493 1.356 . S
C487 C486 1.363 . S
C487 C490 1.363 . S
N488 C490 1.356 . S
N488 H500 0.984 . S
N488 H501 0.985 . S
N489 C491 1.356 . S
N489 H494 0.984 . S
N489 H495 0.985 . S
C490 C484 1.379 . S
C490 C487 1.363 . S
C490 N488 1.356 . S
C491 C485 1.363 . S
C491 C486 1.379 . S
C491 N489 1.356 . S
N492 C484 1.356 . S
N492 H498 0.984 . S
N492 H499 0.984 . S
N493 C486 1.356 . S
N493 H496 0.984 . S
N493 H497 0.985 . S
H494 N489 0.984 . S
H495 N489 0.985 . S
H496 N493 0.984 . S
H497 N493 0.985 . S
H498 N492 0.984 . S
H499 N492 0.984 . S
H500 N488 0.984 . S
H501 N488 0.985 . S
C502 C503 1.363 . S
C502 C508 1.379 . S
C502 N510 1.356 . S
C503 C502 1.363 . S
C503 C509 1.363 . S
C504 C505 1.363 . S
C504 C509 1.379 . S
C504 N511 1.356 . S
C505 C504 1.363 . S
C505 C508 1.363 . S
N506 C508 1.356 . S
N506 H518 0.984 . S
N506 H519 0.985 . S
N507 C509 1.356 . S
N507 H512 0.984 . S
N507 H513 0.985 . S
C508 C502 1.379 . S
C508 C505 1.363 . S
C508 N506 1.356 . S
C509 C503 1.363 . S
C509 C504 1.379 . S
C509 N507 1.356 . S
N510 C502 1.356 . S
N510 H516 0.984 . S
N510 H517 0.984 . S
N511 C504 1.356 . S
N511 H514 0.984 . S
N511 H515 0.985 . S
H512 N507 0.984 . S
H513 N507 0.985 . S
H514 N511 0.984 . S
H515 N511 0.985 . S
H516 N510 0.984 . S
H517 N510 0.984 . S
H518 N506 0.984 . S
H519 N506 0.985 . S
C520 C521 1.363 . S
C520 C526 1.379 . S
C520 N528 1.356 . S
C521 C520 1.363 . S
C521 C527 1.363 . S
C522 C523 1.363 . S
C522 C527 1.379 . S
C522 N529 1.356 . S
C523 C522 1.363 . S
C523 C526 1.363 . S
N524 C526 1.356 . S
N524 H536 0.984 . S
N524 H537 0.985 . S
N525 C527 1.356 . S
N525 H530 0.984 . S
N525 H531 0.985 . S
C526 C520 1.379 . S
C526 C523 1.363 . S
C526 N524 1.356 . S
C527 C521 1.363 . S
C527 C522 1.379 . S
C527 N525 1.356 . S
N528 C520 1.356 . S
N528 H534 0.984 . S
N528 H535 0.984 . S
N529 C522 1.356 . S
N529 H532 0.984 . S
N529 H533 0.985 . S
H530 N525 0.984 . S
H531 N525 0.985 . S
H532 N529 0.984 . S
H533 N529 0.985 . S
H534 N528 0.984 . S
H535 N528 0.984 . S
H536 N524 0.984 . S
H537 N524 0.985 . S
C538 C539 1.363 . S
C538 C544 1.379 . S
C538 N546 1.356 . S
C539 C538 1.363 . S
C539 C545 1.363 1_655 S
C540 C541 1.363 1_455 S
C540 C545 1.379 . S
C540 N547 1.356 . S
C541 C540 1.363 1_655 S
C541 C544 1.363 . S
N542 C544 1.356 . S
N542 H554 0.984 . S
N542 H555 0.985 . S
N543 C545 1.356 . S
N543 H548 0.984 . S
N543 H549 0.985 . S
C544 C538 1.379 . S
C544 C541 1.363 . S
C544 N542 1.356 . S
C545 C539 1.363 1_455 S
C545 C540 1.379 . S
C545 N543 1.356 . S
N546 C538 1.356 . S
N546 H552 0.984 . S
N546 H553 0.984 . S
N547 C540 1.356 . S
N547 H550 0.984 . S
N547 H551 0.985 . S
H548 N543 0.984 . S
H549 N543 0.985 . S
H550 N547 0.984 . S
H551 N547 0.985 . S
H552 N546 0.984 . S
H553 N546 0.984 . S
H554 N542 0.984 . S
H555 N542 0.985 . S
C556 C557 1.363 . S
C556 C562 1.379 . S
C556 N564 1.356 . S
C557 C556 1.363 . S
C557 C563 1.363 . S
C558 C559 1.363 . S
C558 C563 1.379 . S
C558 N565 1.356 . S
C559 C558 1.363 . S
C559 C562 1.363 . S
N560 C562 1.356 . S
N560 H572 0.984 . S
N560 H573 0.985 . S
N561 C563 1.356 . S
N561 H566 0.984 . S
N561 H567 0.985 . S
C562 C556 1.379 . S
C562 C559 1.363 . S
C562 N560 1.356 . S
C563 C557 1.363 . S
C563 C558 1.379 . S
C563 N561 1.356 . S
N564 C556 1.356 . S
N564 H570 0.984 . S
N564 H571 0.984 . S
N565 C558 1.356 . S
N565 H568 0.984 . S
N565 H569 0.985 . S
H566 N561 0.984 . S
H567 N561 0.985 . S
H568 N565 0.984 . S
H569 N565 0.985 . S
H570 N564 0.984 . S
H571 N564 0.984 . S
H572 N560 0.984 . S
H573 N560 0.985 . S
C574 C575 1.363 . S
C574 C580 1.379 . S
C574 N582 1.356 . S
C575 C574 1.363 . S
C575 C581 1.363 . S
C576 C577 1.363 . S
C576 C581 1.379 . S
C576 N583 1.356 . S
C577 C576 1.363 . S
C577 C580 1.363 . S
N578 C580 1.356 . S
N578 H590 0.984 . S
N578 H591 0.985 . S
N579 C581 1.356 . S
N579 H584 0.984 . S
N579 H585 0.985 . S
C580 C574 1.379 . S
C580 C577 1.363 . S
C580 N578 1.356 . S
C581 C575 1.363 . S
C581 C576 1.379 . S
C581 N579 1.356 . S
N582 C574 1.356 . S
N582 H588 0.984 . S
N582 H589 0.984 . S
N583 C576 1.356 . S
N583 H586 0.984 . S
N583 H587 0.985 . S
H584 N579 0.984 . S
H585 N579 0.985 . S
H586 N583 0.984 . S
H587 N583 0.985 . S
H588 N582 0.984 . S
H589 N582 0.984 . S
H590 N578 0.984 . S
H591 N578 0.985 . S
C592 C593 1.363 . S
C592 C598 1.379 . S
C592 N600 1.356 . S
C593 C592 1.363 . S
C593 C599 1.363 . S
C594 C595 1.363 . S
C594 C599 1.379 . S
C594 N601 1.356 . S
C595 C594 1.363 . S
C595 C598 1.363 . S
N596 C598 1.356 . S
N596 H608 0.984 . S
N596 H609 0.985 . S
N597 C599 1.356 . S
N597 H602 0.984 . S
N597 H603 0.985 . S
C598 C592 1.379 . S
C598 C595 1.363 . S
C598 N596 1.356 . S
C599 C593 1.363 . S
C599 C594 1.379 . S
C599 N597 1.356 . S
N600 C592 1.356 . S
N600 H606 0.984 . S
N600 H607 0.984 . S
N601 C594 1.356 . S
N601 H604 0.984 . S
N601 H605 0.985 . S
H602 N597 0.984 . S
H603 N597 0.985 . S
H604 N601 0.984 . S
H605 N601 0.985 . S
H606 N600 0.984 . S
H607 N600 0.984 . S
H608 N596 0.984 . S
H609 N596 0.985 . S
C610 C611 1.363 . S
C610 C616 1.379 . S
C610 N618 1.356 . S
C611 C610 1.363 . S
C611 C617 1.363 . S
C612 C613 1.363 . S
C612 C617 1.379 . S
C612 N619 1.356 . S
C613 C612 1.363 . S
C613 C616 1.363 . S
N614 C616 1.356 . S
N614 H626 0.984 . S
N614 H627 0.985 . S
N615 C617 1.356 . S
N615 H620 0.984 . S
N615 H621 0.985 . S
C616 C610 1.379 . S
C616 C613 1.363 . S
C616 N614 1.356 . S
C617 C611 1.363 . S
C617 C612 1.379 . S
C617 N615 1.356 . S
N618 C610 1.356 . S
N618 H624 0.984 . S
N618 H625 0.984 . S
N619 C612 1.356 . S
N619 H622 0.984 . S
N619 H623 0.985 . S
H620 N615 0.984 . S
H621 N615 0.985 . S
H622 N619 0.984 . S
H623 N619 0.985 . S
H624 N618 0.984 . S
H625 N618 0.984 . S
H626 N614 0.984 . S
H627 N614 0.985 . S
C628 C629 1.363 . S
C628 C634 1.379 . S
C628 N636 1.356 . S
C629 C628 1.363 . S
C629 C635 1.363 . S
C630 C631 1.363 . S
C630 C635 1.379 . S
C630 N637 1.356 . S
C631 C630 1.363 . S
C631 C634 1.363 . S
N632 C634 1.356 . S
N632 H644 0.984 . S
N632 H645 0.985 . S
N633 C635 1.356 . S
N633 H638 0.984 . S
N633 H639 0.985 . S
C634 C628 1.379 . S
C634 C631 1.363 . S
C634 N632 1.356 . S
C635 C629 1.363 . S
C635 C630 1.379 . S
C635 N633 1.356 . S
N636 C628 1.356 . S
N636 H642 0.984 . S
N636 H643 0.984 . S
N637 C630 1.356 . S
N637 H640 0.984 . S
N637 H641 0.985 . S
H638 N633 0.984 . S
H639 N633 0.985 . S
H640 N637 0.984 . S
H641 N637 0.985 . S
H642 N636 0.984 . S
H643 N636 0.984 . S
H644 N632 0.984 . S
H645 N632 0.985 . S
C646 C647 1.363 . S
C646 C652 1.379 . S
C646 N654 1.356 . S
C647 C646 1.363 . S
C647 C653 1.363 . S
C648 C649 1.363 . S
C648 C653 1.379 . S
C648 N655 1.356 . S
C649 C648 1.363 . S
C649 C652 1.363 . S
N650 C652 1.356 . S
N650 H662 0.984 . S
N650 H663 0.985 . S
N651 C653 1.356 . S
N651 H656 0.984 . S
N651 H657 0.985 . S
C652 C646 1.379 . S
C652 C649 1.363 . S
C652 N650 1.356 . S
C653 C647 1.363 . S
C653 C648 1.379 . S
C653 N651 1.356 . S
N654 C646 1.356 . S
N654 H660 0.984 . S
N654 H661 0.984 . S
N655 C648 1.356 . S
N655 H658 0.984 . S
N655 H659 0.985 . S
H656 N651 0.984 . S
H657 N651 0.985 . S
H658 N655 0.984 . S
H659 N655 0.985 . S
H660 N654 0.984 . S
H661 N654 0.984 . S
H662 N650 0.984 . S
H663 N650 0.985 . S
C233 C5 1.143 . S
C235 C87 1.157 . S
C251 C14 0.992 . S
C253 C127 1.035 . S
C271 C161 2.426 . S
C269 C25 2.443 . S
C287 C34 2.668 . S
C289 C202 2.579 . S
C307 C122 1.323 . S
C305 C7 1.242 . S
C325 C82 1.812 . S
C323 C13 1.651 . S
C343 C210 1.776 . S
C341 C23 1.769 . S
C361 C171 1.842 . S
C359 C31 1.922 . S
C377 C4 1.457 . S
C379 C207 1.488 . S
C397 C130 2.107 . S
C395 C22 2.175 . S
C413 C32 2.425 . S
C415 C90 2.324 . S
C431 C16 1.410 . S
C433 C158 1.479 . S
C451 C78 1.150 . S
C449 C41 1.131 . S
C467 C50 0.999 . S
C469 C118 1.041 . S
C485 C61 2.441 . S
C487 C170 2.423 . S
C503 C67 2.675 . S
C505 C211 2.590 . S
C521 C40 1.260 . S
C523 C131 1.339 . S
C541 C91 1.798 . S
C539 C52 1.628 . S
C559 C201 1.774 . S
C557 C59 1.773 . S
C577 C162 1.842 . S
C575 C70 1.919 . S
C593 C43 1.445 . S
C595 C198 1.478 . S
C613 C121 2.118 . S
C611 C58 2.188 . S
C631 C81 2.312 . S
C629 C68 2.407 . S
C647 C49 1.425 . S
C649 C167 1.485 . S
