# Generated by pormake.
# Topology tsx, (6,3)-cn, num edge types: 1
# Building blocks:
#     Node 0, Type 0, BuildingBlock: VOLQOD_clean_sbu_1, # of connection points: 6
#     Node 1, Type 0, BuildingBlock: VOLQOD_clean_sbu_1, # of connection points: 6
#     Node 2, Type 1, BuildingBlock: MIDCAF_clean_linker_0, # of connection points: 3
#     Node 3, Type 1, BuildingBlock: MIDCAF_clean_linker_0, # of connection points: 3
#     Node 4, Type 1, BuildingBlock: MIDCAF_clean_linker_0, # of connection points: 3
#     Node 5, Type 1, BuildingBlock: MIDCAF_clean_linker_0, # of connection points: 3
#     Edge 6, Type (0, 1), BuildingBlock: KIFKEQ_clean_linker_1, # of connection points: 2
#     Edge 7, Type (0, 1), BuildingBlock: KIFKEQ_clean_linker_1, # of connection points: 2
#     Edge 8, Type (0, 1), BuildingBlock: KIFKEQ_clean_linker_1, # of connection points: 2
#     Edge 9, Type (0, 1), BuildingBlock: KIFKEQ_clean_linker_1, # of connection points: 2
#     Edge 10, Type (0, 1), BuildingBlock: KIFKEQ_clean_linker_1, # of connection points: 2
#     Edge 11, Type (0, 1), BuildingBlock: KIFKEQ_clean_linker_1, # of connection points: 2
#     Edge 12, Type (0, 1), BuildingBlock: KIFKEQ_clean_linker_1, # of connection points: 2
#     Edge 13, Type (0, 1), BuildingBlock: KIFKEQ_clean_linker_1, # of connection points: 2
#     Edge 14, Type (0, 1), BuildingBlock: KIFKEQ_clean_linker_1, # of connection points: 2
#     Edge 15, Type (0, 1), BuildingBlock: KIFKEQ_clean_linker_1, # of connection points: 2
#     Edge 16, Type (0, 1), BuildingBlock: KIFKEQ_clean_linker_1, # of connection points: 2
#     Edge 17, Type (0, 1), BuildingBlock: KIFKEQ_clean_linker_1, # of connection points: 2
# Relax obj value: 0.076
# Max RMSD: 0.108
# Mean RMSD: 0.083
data_MOF--net-tsx--node1-VOLQOD_clean_sbu_1--node2-MIDCAF_clean_linker_0--edge1-KIFKEQ_clean_linker_1
_symmetry_space_group_name_H-M    P1
_symmetry_Int_Tables_number       1
_symmetry_cell_setting            triclinic
loop_
_symmetry_equiv_pos_as_xyz
'x, y, z'
_cell_length_a     25.401951
_cell_length_b     26.215174
_cell_length_c     49.902566
_cell_angle_alpha  90.553883
_cell_angle_beta   89.954324
_cell_angle_gamma 90.07388
loop_
_atom_site_label
_atom_site_type_symbol
_atom_site_fract_x
_atom_site_fract_y
_atom_site_fract_z
_atom_type_partial_charge
O0 O 0.0377 0.98767 0.0739 0.0
Zn1 Zn 0.05737 0.98944 0.03477 0.0
O2 O -0.00536 -0.00142 0.01248 0.0
Zn3 Zn 0.98701 0.94001 0.98856 0.0
Zn4 Zn 0.93191 0.00424 0.0351 0.0
Zn5 Zn 0.002 0.06014 0.99107 0.0
O6 O 0.98354 0.96103 0.9501 0.0
O7 O 0.00176 0.04383 0.95147 0.0
O8 O 0.09663 0.92472 0.02517 0.0
O9 O 0.04842 0.89284 0.99195 0.0
O10 O 0.92251 0.89933 0.99712 0.0
O11 O 0.88329 0.94428 0.02929 0.0
O12 O 0.89115 0.06838 0.02737 0.0
O13 O 0.10764 0.04823 0.03003 0.0
O14 O 0.94178 0.10816 0.99789 0.0
O15 O 0.06869 0.09758 7e-05 0.0
C16 C -0.00514 -0.00413 0.08653 0.0
C17 C -0.00801 0.00306 0.93828 0.0
C18 C 0.88491 0.9056 0.01367 0.0
C19 C 0.08833 0.89066 0.00729 0.0
C20 C 0.90055 0.10636 0.01238 0.0
C21 C 0.10688 0.08828 0.01577 0.0
O22 O 0.95199 0.00454 0.07415 0.0
O23 O 0.54855 0.49608 0.57313 0.0
Zn24 Zn 0.56559 0.49571 0.53356 0.0
O25 O 0.50187 0.50518 0.51206 0.0
Zn26 Zn 0.49102 0.44606 0.48867 0.0
Zn27 Zn 0.44121 0.51262 0.53574 0.0
Zn28 Zn 0.50889 0.56607 0.49009 0.0
O29 O 0.48771 0.46595 0.45 0.0
O30 O 0.50822 0.54828 0.45065 0.0
O31 O 0.60234 0.42965 0.52411 0.0
O32 O 0.55121 0.3973 0.49214 0.0
O33 O 0.42549 0.40713 0.49821 0.0
O34 O 0.3931 0.45202 0.53232 0.0
O35 O 0.39951 0.57569 0.52727 0.0
O36 O 0.61681 0.55326 0.52736 0.0
O37 O 0.44863 0.61436 0.49673 0.0
O38 O 0.57623 0.60324 0.49825 0.0
C39 C 0.50681 0.5066 0.58624 0.0
C40 C 0.49739 0.50736 0.43782 0.0
C41 C 0.39115 0.41368 0.51649 0.0
C42 C 0.59194 0.39487 0.5069 0.0
C43 C 0.40791 0.61292 0.51162 0.0
C44 C 0.61553 0.59335 0.51314 0.0
O45 O 0.46363 0.51599 0.57433 0.0
C46 C 0.83825 0.10217 0.4314 0.0
C47 C 0.8483 0.11949 0.4576 0.0
C48 C 0.89482 0.10436 0.47045 0.0
C49 C 0.93063 0.07224 0.45726 0.0
H50 H 0.06263 0.97304 0.46837 0.0
H51 H 0.12328 0.91653 0.49211 0.0
H52 H 0.1376 0.8224 0.42106 0.0
H53 H 0.07791 0.87855 0.39727 0.0
H54 H 0.06684 0.95009 0.34154 0.0
H55 H 0.06692 0.94992 0.29268 0.0
H56 H 0.91912 0.03105 0.29287 0.0
H57 H 0.91863 0.03119 0.34171 0.0
H58 H 0.86546 0.05858 0.3978 0.0
H59 H 0.80294 0.11378 0.42094 0.0
H60 H 0.90336 0.11726 0.49067 0.0
H61 H 0.96631 0.06124 0.46757 0.0
N62 N -0.00545 -0.0056 0.42984 0.0
N63 N 0.02776 0.9626 0.38909 0.0
N64 N 0.95858 0.02143 0.38907 0.0
C65 C 0.02873 0.9637 0.41631 0.0
C66 C -0.00701 0.99154 0.37531 0.0
C67 C 0.95917 0.02319 0.41629 0.0
C68 C 0.06552 0.93031 0.43092 0.0
C69 C 0.07873 0.94025 0.45785 0.0
C70 C 0.11347 0.90813 0.47141 0.0
C71 C 0.13466 0.86506 0.45841 0.0
C72 C 0.12128 0.85507 0.4316 0.0
C73 C 0.0874 0.88749 0.41794 0.0
C74 C -0.00727 0.99069 0.34561 0.0
C75 C 0.03422 0.96779 0.33122 0.0
C76 C 0.03449 0.96793 0.30322 0.0
C77 C -0.00693 0.99052 0.289 0.0
C78 C 0.95135 0.01298 0.30332 0.0
C79 C 0.95128 0.01328 0.33132 0.0
C80 C 0.92093 0.05567 0.43083 0.0
C81 C 0.87429 0.0709 0.41809 0.0
C82 C 0.86895 0.87179 0.59093 0.0
C83 C 0.8816 0.85579 0.56481 0.0
C84 C 0.92822 0.87343 0.55289 0.0
C85 C 0.96133 0.90717 0.56685 0.0
H86 H 0.07509 0.02686 0.55643 0.0
H87 H 0.13573 0.08711 0.53529 0.0
H88 H 0.16109 0.16081 0.61204 0.0
H89 H 0.10248 0.10084 0.63306 0.0
H90 H 0.04952 0.06601 0.68378 0.0
H91 H 0.04335 0.07005 0.73231 0.0
H92 H 0.95647 0.92816 0.73209 0.0
H93 H 0.96111 0.92492 0.68336 0.0
H94 H 0.89125 0.91608 0.62514 0.0
H95 H 0.83352 0.85823 0.60066 0.0
H96 H 0.93871 0.86152 0.53273 0.0
H97 H -0.00302 0.92042 0.55723 0.0
N98 N 0.01767 0.98931 0.59561 0.0
N99 N 0.04349 0.02414 0.63704 0.0
N100 N 0.97984 0.95981 0.63559 0.0
C101 C 0.04777 0.02277 0.60992 0.0
C102 C 0.00989 0.99277 0.65004 0.0
C103 C 0.98342 0.95783 0.60841 0.0
C104 C 0.0841 0.05867 0.59649 0.0
C105 C 0.09384 0.05584 0.56875 0.0
C106 C 0.12839 0.09043 0.55662 0.0
C107 C 0.15374 0.12834 0.57204 0.0
C108 C 0.14336 0.1313 0.59965 0.0
C109 C 0.10929 0.09691 0.61171 0.0
C110 C 0.00587 -0.00492 0.67963 0.0
C111 C 0.02905 0.03562 0.69403 0.0
C112 C 0.02576 0.03783 0.72192 0.0
C113 C -0.0004 -0.00066 0.73616 0.0
C114 C 0.97627 0.95885 0.72176 0.0
C115 C 0.97918 0.95684 0.6938 0.0
C116 C 0.94876 0.92282 0.59313 0.0
C117 C 0.90228 0.90463 0.60499 0.0
C118 C 0.34426 0.60738 0.9306 0.0
C119 C 0.35299 0.62331 0.95716 0.0
C120 C 0.39905 0.60783 0.97032 0.0
C121 C 0.4356 0.57653 0.95711 0.0
H122 H 0.56482 0.47443 0.96884 0.0
H123 H 0.62255 0.41548 0.99278 0.0
H124 H 0.64072 0.32539 0.92053 0.0
H125 H 0.58388 0.38397 0.89655 0.0
H126 H 0.57613 0.45766 0.84164 0.0
H127 H 0.57909 0.46024 0.79295 0.0
H128 H 0.43196 0.54284 0.79231 0.0
H129 H 0.42979 0.54172 0.841 0.0
H130 H 0.37319 0.56561 0.89674 0.0
H131 H 0.30932 0.6193 0.91992 0.0
H132 H 0.40656 0.61969 0.99081 0.0
H133 H 0.47082 0.56508 0.96768 0.0
N134 N 0.50006 0.4992 0.92955 0.0
N135 N 0.53507 0.46894 0.88887 0.0
N136 N 0.46681 0.52878 0.88869 0.0
C137 C 0.53452 0.46868 0.9161 0.0
C138 C 0.50154 0.49909 0.87501 0.0
C139 C 0.4659 0.52918 0.91591 0.0
C140 C 0.56982 0.43391 0.93078 0.0
C141 C 0.58115 0.44203 0.95809 0.0
C142 C 0.61422 0.40849 0.97177 0.0
C143 C 0.63561 0.36583 0.9585 0.0
C144 C 0.62417 0.3577 0.93128 0.0
C145 C 0.59194 0.39152 0.91753 0.0
C146 C 0.50279 0.4996 0.84531 0.0
C147 C 0.54434 0.47635 0.83115 0.0
C148 C 0.54592 0.4776 0.80317 0.0
C149 C 0.5058 0.5018 0.78865 0.0
C150 C 0.46403 0.52466 0.80282 0.0
C151 C 0.46263 0.52375 0.8308 0.0
C152 C 0.42712 0.56119 0.93036 0.0
C153 C 0.38107 0.57697 0.91728 0.0
C154 C 0.36164 0.36894 0.09534 0.0
C155 C 0.37123 0.35297 0.06886 0.0
C156 C 0.41587 0.3713 0.0554 0.0
C157 C 0.4502 0.40541 0.06823 0.0
H158 H 0.53176 0.55293 0.05671 0.0
H159 H 0.58756 0.61418 0.0331 0.0
H160 H 0.69102 0.62256 0.10159 0.0
H161 H 0.63538 0.56211 0.1253 0.0
H162 H 0.55818 0.5608 0.18216 0.0
H163 H 0.55657 0.56478 0.23101 0.0
H164 H 0.46266 0.42746 0.23275 0.0
H165 H 0.46422 0.42312 0.18397 0.0
H166 H 0.38785 0.41357 0.12877 0.0
H167 H 0.32775 0.3549 0.10622 0.0
H168 H 0.42395 0.35953 0.03494 0.0
H169 H 0.48438 0.41897 0.05742 0.0
N170 N 0.51057 0.48645 0.09492 0.0
N171 N 0.54429 0.51985 0.13521 0.0
N172 N 0.47825 0.45757 0.13614 0.0
C173 C 0.54405 0.51858 0.10799 0.0
C174 C 0.51149 0.48947 0.14943 0.0
C175 C 0.47762 0.45575 0.10893 0.0
C176 C 0.57911 0.55291 0.0929 0.0
C177 C 0.56667 0.56753 0.06661 0.0
C178 C 0.59835 0.60266 0.05315 0.0
C179 C 0.64348 0.62284 0.06556 0.0
C180 C 0.65664 0.60716 0.09151 0.0
C181 C 0.62459 0.57284 0.10512 0.0
C182 C 0.5113 0.49163 0.1791 0.0
C183 C 0.53729 0.53132 0.19291 0.0
C184 C 0.53614 0.53384 0.22089 0.0
C185 C 0.50948 0.49645 0.23563 0.0
C186 C 0.48391 0.45655 0.22188 0.0
C187 C 0.48459 0.45428 0.19392 0.0
C188 C 0.44091 0.42089 0.09488 0.0
C189 C 0.39628 0.40226 0.10827 0.0
H190 H 0.10926 0.18578 0.9969 0.0
H191 H 0.20149 0.07661 0.04115 0.0
H192 H 0.17624 0.25075 0.00525 0.0
H193 H 0.26836 0.14179 0.04941 0.0
H194 H 0.39613 0.26398 0.04308 0.0
H195 H 0.33492 0.1992 0.02576 0.0
H196 H 0.20368 0.29492 0.04847 0.0
H197 H 0.26468 0.35937 0.06569 0.0
C198 C 0.14408 0.17541 0.00811 0.0
C199 C 0.14981 0.12612 0.01859 0.0
C200 C 0.1823 0.21269 0.01293 0.0
C201 C 0.22728 0.20128 0.02805 0.0
C202 C 0.23422 0.15146 0.03751 0.0
C203 C 0.19574 0.11429 0.03294 0.0
C204 C 0.3542 0.27136 0.0439 0.0
C205 C 0.33494 0.31639 0.05578 0.0
C206 C 0.31929 0.23429 0.03419 0.0
C207 C 0.26467 0.24211 0.03584 0.0
C208 C 0.2456 0.28812 0.04673 0.0
C209 C 0.28041 0.32478 0.05674 0.0
H210 H 0.0869 0.81702 0.96841 0.0
H211 H 0.17556 0.86826 0.03755 0.0
H212 H 0.1504 0.74979 0.96051 0.0
H213 H 0.23881 0.79939 0.03002 0.0
H214 H 0.37217 0.71363 0.98296 0.0
H215 H 0.30718 0.77583 -0.00141 0.0
H216 H 0.18212 0.67105 0.97726 0.0
H217 H 0.24715 0.60992 0.96089 0.0
C218 C 0.11963 0.81359 0.98217 0.0
C219 C 0.12615 0.84822 0.00359 0.0
C220 C 0.15594 0.77462 0.97776 0.0
C221 C 0.19961 0.76888 0.99474 0.0
C222 C 0.20585 0.80302 0.01643 0.0
C223 C 0.1695 0.84235 0.0208 0.0
C224 C 0.33078 0.70373 0.98211 0.0
C225 C 0.31449 0.6574 0.97045 0.0
C226 C 0.29353 0.73924 0.99111 0.0
C227 C 0.23936 0.72876 0.9888 0.0
C228 C 0.22345 0.6809 0.97869 0.0
C229 C 0.2606 0.64577 0.96944 0.0
H230 H 0.88616 0.81006 0.99131 0.0
H231 H 0.79206 0.90986 0.04148 0.0
H232 H 0.82423 0.74064 -0.00084 0.0
H233 H 0.73018 0.8402 0.04919 0.0
H234 H 0.61017 0.71095 0.04256 0.0
H235 H 0.66507 0.78031 0.02534 0.0
H236 H 0.80453 0.69198 0.04189 0.0
H237 H 0.74976 0.62294 0.05906 0.0
C238 C 0.85191 0.81746 0.0037 0.0
C239 C 0.84431 0.86539 0.016 0.0
C240 C 0.81661 0.77762 0.00822 0.0
C241 C 0.77266 0.78507 0.02486 0.0
C242 C 0.76358 0.83359 0.03611 0.0
C243 C 0.7992 0.87333 0.03183 0.0
C244 C 0.65252 0.70614 0.042 0.0
C245 C 0.67592 0.66186 0.05218 0.0
C246 C 0.68383 0.74583 0.03236 0.0
C247 C 0.73894 0.74144 0.03236 0.0
C248 C 0.76211 0.69616 0.04144 0.0
C249 C 0.73089 0.65686 0.05141 0.0
H250 H 0.9149 0.20092 0.99109 0.0
H251 H 0.79797 0.10605 0.02923 0.0
H252 H 0.84842 0.26616 0.98353 0.0
H253 H 0.73145 0.17157 0.02155 0.0
H254 H 0.62778 0.26249 0.95969 0.0
H255 H 0.69107 0.20226 0.97812 0.0
H256 H 0.78605 0.32788 0.00712 0.0
H257 H 0.72243 0.38831 0.98858 0.0
C258 C 0.87517 0.19424 -0.00184 0.0
C259 C 0.8616 0.14808 0.01052 0.0
C260 C 0.83722 0.23181 0.99402 0.0
C261 C 0.78481 0.22379 0.00189 0.0
C262 C 0.77156 0.17851 0.01515 0.0
C263 C 0.80968 0.14113 0.01959 0.0
C264 C 0.66186 0.27713 0.97032 0.0
C265 C 0.67056 0.3299 0.97258 0.0
C266 C 0.69781 0.24274 0.98104 0.0
C267 C 0.74349 0.26046 0.99398 0.0
C268 C 0.75125 0.31329 0.99711 0.0
C269 C 0.71483 0.34776 0.98667 0.0
H270 H 0.71006 0.58195 0.53868 0.0
H271 H 0.62012 0.68907 0.49191 0.0
H272 H 0.77806 0.64645 0.54562 0.0
H273 H 0.68838 0.75333 0.49883 0.0
H274 H 0.77606 0.86491 0.55797 0.0
H275 H 0.71528 0.80076 0.5404 0.0
H276 H 0.84622 0.70106 0.52252 0.0
H277 H 0.90722 0.7656 0.54031 0.0
C278 C 0.70508 0.61899 0.52959 0.0
C279 C 0.65934 0.63052 0.51501 0.0
C280 C 0.74426 0.65578 0.53339 0.0
C281 C 0.73835 0.70493 0.52285 0.0
C282 C 0.69369 0.71585 0.50737 0.0
C283 C 0.65469 0.67897 0.50338 0.0
C284 C 0.79182 0.82957 0.5499 0.0
C285 C 0.84614 0.81992 0.55061 0.0
C286 C 0.75715 0.79302 0.53968 0.0
C287 C 0.77606 0.74587 0.53019 0.0
C288 C 0.83064 0.73699 0.52989 0.0
C289 C 0.86548 0.77393 0.53985 0.0
H290 H 0.58695 0.31966 0.46891 0.0
H291 H 0.67947 0.37134 0.53663 0.0
H292 H 0.64836 0.25049 0.46119 0.0
H293 H 0.74052 0.30062 0.52932 0.0
H294 H 0.87014 0.21046 0.48213 0.0
H295 H 0.80706 0.27459 0.49754 0.0
H296 H 0.67906 0.17167 0.47841 0.0
H297 H 0.74222 0.10849 0.46226 0.0
C298 C 0.62007 0.31592 0.4824 0.0
C299 C 0.62834 0.35125 0.50334 0.0
C300 C 0.65516 0.27586 0.4781 0.0
C301 C 0.6993 0.26973 0.49473 0.0
C302 C 0.70719 0.30454 0.51599 0.0
C303 C 0.6721 0.34494 0.52023 0.0
C304 C 0.82853 0.20137 0.48173 0.0
C305 C 0.81088 0.15491 0.47075 0.0
C306 C 0.79237 0.238 0.4906 0.0
C307 C 0.73792 0.22857 0.48885 0.0
C308 C 0.72063 0.18068 0.4794 0.0
C309 C 0.75672 0.14439 0.47029 0.0
H310 H 0.36358 0.33412 0.48315 0.0
H311 H 0.32859 0.40234 0.56039 0.0
H312 H 0.3048 0.26269 0.49356 0.0
H313 H 0.27092 0.33088 0.57067 0.0
H314 H 0.24683 0.16267 0.59245 0.0
H315 H 0.30072 0.23277 0.57629 0.0
H316 H 0.19968 0.24772 0.50738 0.0
H317 H 0.14392 0.1783 0.52406 0.0
C318 C 0.34297 0.33421 0.50216 0.0
C319 C 0.35107 0.37371 0.52104 0.0
C320 C 0.30933 0.29347 0.50801 0.0
C321 C 0.28405 0.29132 0.53297 0.0
C322 C 0.29051 0.33163 0.55137 0.0
C323 C 0.32335 0.3726 0.5454 0.0
C324 C 0.23585 0.18086 0.57388 0.0
C325 C 0.19043 0.16563 0.55983 0.0
C326 C 0.26683 0.22082 0.56463 0.0
C327 C 0.25367 0.2459 0.54089 0.0
C328 C 0.21034 0.22885 0.52581 0.0
C329 C 0.17872 0.18908 0.5353 0.0
H330 H 0.41924 0.70583 0.4879 0.0
H331 H 0.30672 0.61283 0.53046 0.0
H332 H 0.35128 0.76969 0.48037 0.0
H333 H 0.2388 0.6769 0.52281 0.0
H334 H 0.12861 0.76186 0.46169 0.0
H335 H 0.19447 0.70378 0.4797 0.0
H336 H 0.28997 0.83248 0.5041 0.0
H337 H 0.22371 0.89075 0.486 0.0
C338 C 0.38021 0.69928 0.49593 0.0
C339 C 0.36827 0.654 0.50955 0.0
C340 C 0.34143 0.73607 0.49179 0.0
C341 C 0.2898 0.72811 0.50094 0.0
C342 C 0.27826 0.68377 0.5154 0.0
C343 C 0.3172 0.64721 0.51982 0.0
C344 C 0.16337 0.77766 0.47123 0.0
C345 C 0.1714 0.83062 0.47234 0.0
C346 C 0.20082 0.74451 0.48171 0.0
C347 C 0.24734 0.76369 0.49322 0.0
C348 C 0.25453 0.81677 0.49519 0.0
C349 C 0.21662 0.85002 0.48502 0.0
H350 H 0.91586 0.02576 0.12046 0.0
H351 H 0.07373 0.96441 0.11981 0.0
H352 H 0.91589 0.02508 0.16921 0.0
H353 H 0.07309 0.96212 0.16856 0.0
H354 H 0.07503 0.01453 0.25602 0.0
H355 H 0.07555 0.01642 0.20718 0.0
H356 H 0.91272 0.96819 0.20616 0.0
H357 H 0.91209 0.96755 0.25502 0.0
C358 C 0.95047 0.01179 0.13071 0.0
C359 C -0.00519 -0.00482 0.11621 0.0
C360 C 0.95036 0.01111 0.15869 0.0
C361 C -0.00556 -0.00657 0.17287 0.0
C362 C 0.03876 0.97672 0.15834 0.0
C363 C 0.03902 0.97777 0.13035 0.0
C364 C 0.03949 0.00408 0.2453 0.0
C365 C -0.00649 0.99094 0.2593 0.0
C366 C 0.03977 0.00502 0.21731 0.0
C367 C -0.00582 0.99244 0.20268 0.0
C368 C 0.94828 0.97899 0.21676 0.0
C369 C 0.9479 0.97846 0.24475 0.0
H370 H 0.9571 0.92851 0.90402 0.0
H371 H 0.02468 0.08 0.90546 0.0
H372 H 0.95763 0.92913 0.8552 0.0
H373 H 0.02499 0.08044 0.85652 0.0
H374 H 0.07698 0.02935 0.77113 0.0
H375 H 0.07305 0.03249 0.81991 0.0
H376 H 0.9135 0.9757 0.81749 0.0
H377 H 0.91674 0.97365 0.76862 0.0
C378 C 0.97194 0.962 0.89395 0.0
C379 C 0.99099 0.00417 0.90865 0.0
C380 C 0.97191 0.96243 0.86598 0.0
C381 C -0.00863 0.0048 0.85211 0.0
C382 C 0.01018 0.04709 0.86674 0.0
C383 C 0.00973 0.04691 0.89474 0.0
C384 C 0.04074 0.01823 0.78093 0.0
C385 C -0.00286 0.00128 0.76591 0.0
C386 C 0.03859 0.01996 0.80888 0.0
C387 C -0.00702 0.00436 0.82244 0.0
C388 C 0.94937 0.98742 0.80752 0.0
C389 C 0.95134 0.98608 0.77955 0.0
H390 H 0.4302 0.54013 0.62063 0.0
H391 H 0.58624 0.47442 0.61911 0.0
H392 H 0.43132 0.5395 0.66944 0.0
H393 H 0.58723 0.47409 0.66804 0.0
H394 H 0.53736 0.42624 0.75379 0.0
H395 H 0.53951 0.42871 0.70495 0.0
H396 H 0.47929 0.58262 0.70712 0.0
H397 H 0.47816 0.58078 0.75594 0.0
C398 C 0.46481 0.52567 0.63067 0.0
C399 C 0.50813 0.50728 0.61592 0.0
C400 C 0.46552 0.5256 0.65866 0.0
C401 C 0.50935 0.50675 0.67254 0.0
C402 C 0.55272 0.48842 0.65785 0.0
C403 C 0.55223 0.48891 0.62984 0.0
C404 C 0.52524 0.46089 0.74391 0.0
C405 C 0.50749 0.50328 0.75885 0.0
C406 C 0.52641 0.46222 0.71592 0.0
C407 C 0.50948 0.50581 0.70225 0.0
C408 C 0.4919 0.54825 0.71712 0.0
C409 C 0.49111 0.54708 0.7451 0.0
H410 H 0.46078 0.43281 0.40407 0.0
H411 H 0.53388 0.58181 0.40445 0.0
H412 H 0.46271 0.43142 0.35537 0.0
H413 H 0.53745 0.57967 0.35566 0.0
H414 H 0.48873 0.57946 0.26736 0.0
H415 H 0.48423 0.58316 0.31619 0.0
H416 H 0.52398 0.42302 0.31948 0.0
H417 H 0.52714 0.41928 0.27071 0.0
C418 C 0.47749 0.46521 0.39377 0.0
C419 C 0.49729 0.50738 0.40817 0.0
C420 C 0.47891 0.46427 0.36581 0.0
C421 C 0.50061 0.50526 0.35155 0.0
C422 C 0.51989 0.5477 0.36596 0.0
C423 C 0.51807 0.54884 0.39396 0.0
C424 C 0.49677 0.5452 0.2786 0.0
C425 C 0.50811 0.49905 0.26528 0.0
C426 C 0.49431 0.54729 0.30656 0.0
C427 C 0.50356 0.50334 0.3218 0.0
C428 C 0.51555 0.45735 0.30839 0.0
C429 C 0.51756 0.45519 0.28045 0.0
loop_
_geom_bond_atom_site_label_1
_geom_bond_atom_site_label_2
_geom_bond_distance
_geom_bond_site_symmetry_2
_ccdc_geom_bond_type
O0 Zn1 1.953 . S
O0 C16 1.225 1_565 S
Zn1 O0 1.953 . S
Zn1 O2 1.949 1_565 S
Zn1 O8 1.919 . S
Zn1 O13 1.924 1_565 S
O2 Zn1 1.949 1_545 S
O2 Zn3 1.923 1_444 S
O2 Zn4 1.950 1_455 S
O2 Zn5 1.945 1_554 S
Zn3 O2 1.923 1_666 S
Zn3 O6 1.933 . S
Zn3 O9 1.941 1_655 S
Zn3 O10 1.957 1_556 S
Zn4 O2 1.950 1_655 S
Zn4 O11 1.938 1_545 S
Zn4 O12 1.906 . S
Zn4 O22 1.953 . S
Zn5 O2 1.945 1_556 S
Zn5 O7 1.932 . S
Zn5 O14 1.977 1_455 S
Zn5 O15 1.910 1_556 S
O6 Zn3 1.933 . S
O6 C17 1.226 1_665 S
O7 Zn5 1.932 . S
O7 C17 1.307 . S
O8 Zn1 1.919 . S
O8 C19 1.253 . S
O9 Zn3 1.941 1_455 S
O9 C19 1.283 1_556 S
O10 Zn3 1.957 1_554 S
O10 C18 1.333 . S
O11 Zn4 1.938 1_565 S
O11 C18 1.247 . S
O12 Zn4 1.906 . S
O12 C20 1.304 . S
O13 Zn1 1.924 1_545 S
O13 C21 1.311 . S
O14 Zn5 1.977 1_655 S
O14 C20 1.272 1_556 S
O15 Zn5 1.910 1_554 S
O15 C21 1.231 . S
C16 O0 1.225 1_545 S
C16 O22 1.298 1_455 S
C17 O6 1.226 1_445 S
C17 O7 1.307 . S
C18 O10 1.333 . S
C18 O11 1.247 . S
C19 O8 1.253 . S
C19 O9 1.283 1_554 S
C20 O12 1.304 . S
C20 O14 1.272 1_554 S
C21 O13 1.311 . S
C21 O15 1.231 . S
O22 Zn4 1.953 . S
O22 C16 1.298 1_655 S
O23 Zn24 1.953 . S
O23 C39 1.225 . S
Zn24 O23 1.953 . S
Zn24 O25 1.949 . S
Zn24 O31 1.919 . S
Zn24 O36 1.924 . S
O25 Zn24 1.949 . S
O25 Zn26 1.923 . S
O25 Zn27 1.950 . S
O25 Zn28 1.945 . S
Zn26 O25 1.923 . S
Zn26 O29 1.933 . S
Zn26 O32 1.941 . S
Zn26 O33 1.965 . S
Zn27 O25 1.950 . S
Zn27 O34 1.938 . S
Zn27 O35 1.906 . S
Zn27 O45 1.953 . S
Zn28 O25 1.945 . S
Zn28 O30 1.932 . S
Zn28 O37 1.977 . S
Zn28 O38 1.910 . S
O29 Zn26 1.933 . S
O29 C40 1.226 . S
O30 Zn28 1.932 . S
O30 C40 1.307 . S
O31 Zn24 1.919 . S
O31 C42 1.253 . S
O32 Zn26 1.941 . S
O32 C42 1.283 . S
O33 Zn26 1.965 . S
O33 C41 1.303 . S
O34 Zn27 1.938 . S
O34 C41 1.247 . S
O35 Zn27 1.906 . S
O35 C43 1.304 . S
O36 Zn24 1.924 . S
O36 C44 1.311 . S
O37 Zn28 1.977 . S
O37 C43 1.272 . S
O38 Zn28 1.910 . S
O38 C44 1.231 . S
C39 O23 1.225 . S
C39 O45 1.298 . S
C40 O29 1.226 . S
C40 O30 1.307 . S
C41 O33 1.303 . S
C41 O34 1.247 . S
C42 O31 1.253 . S
C42 O32 1.283 . S
C43 O35 1.304 . S
C43 O37 1.272 . S
C44 O36 1.311 . S
C44 O38 1.231 . S
O45 Zn27 1.953 . S
O45 C39 1.298 . S
C46 C47 1.384 . S
C46 H59 0.947 . S
C46 C81 1.382 . S
C47 C46 1.384 . S
C47 C48 1.378 . S
C48 C47 1.378 . S
C48 C49 1.378 . S
C48 H60 0.952 . S
C49 C48 1.378 . S
C49 H61 0.950 . S
C49 C80 1.383 . S
H50 C69 0.947 . S
H51 C70 0.946 . S
H52 C72 0.953 . S
H53 C73 0.945 . S
H54 C75 0.952 . S
H55 C76 0.949 . S
H56 C78 0.950 . S
H57 C79 0.948 . S
H58 C81 0.951 . S
H59 C46 0.947 . S
H60 C48 0.952 . S
H61 C49 0.950 . S
N62 C65 1.382 1_545 S
N62 C67 1.363 1_455 S
N63 C65 1.371 . S
N63 C66 1.372 1_565 S
N64 C66 1.361 1_655 S
N64 C67 1.377 . S
C65 N62 1.382 1_565 S
C65 N63 1.371 . S
C65 C68 1.480 . S
C66 N63 1.372 1_545 S
C66 N64 1.361 1_455 S
C66 C74 1.457 . S
C67 N62 1.363 1_655 S
C67 N64 1.377 . S
C67 C80 1.479 . S
C68 C65 1.480 . S
C68 C69 1.383 . S
C68 C73 1.385 . S
C69 H50 0.947 . S
C69 C68 1.383 . S
C69 C70 1.388 . S
C70 H51 0.946 . S
C70 C69 1.388 . S
C70 C71 1.384 . S
C71 C70 1.384 . S
C71 C72 1.377 . S
C72 H52 0.953 . S
C72 C71 1.377 . S
C72 C73 1.369 . S
C73 H53 0.945 . S
C73 C68 1.385 . S
C73 C72 1.369 . S
C74 C66 1.457 . S
C74 C75 1.372 1_545 S
C74 C79 1.364 1_455 S
C75 H54 0.952 . S
C75 C74 1.372 1_565 S
C75 C76 1.389 . S
C76 H55 0.949 . S
C76 C75 1.389 . S
C76 C77 1.387 1_565 S
C77 C76 1.387 1_545 S
C77 C78 1.372 1_455 S
C78 H56 0.950 . S
C78 C77 1.372 1_655 S
C78 C79 1.379 . S
C79 H57 0.948 . S
C79 C74 1.364 1_655 S
C79 C78 1.379 . S
C80 C49 1.383 . S
C80 C67 1.479 . S
C80 C81 1.398 . S
C81 C46 1.382 . S
C81 H58 0.951 . S
C81 C80 1.398 . S
C82 C83 1.384 . S
C82 H95 0.947 . S
C82 C117 1.382 . S
C83 C82 1.384 . S
C83 C84 1.378 . S
C84 C83 1.378 . S
C84 C85 1.378 . S
C84 H96 0.952 . S
C85 C84 1.378 . S
C85 H97 0.950 . S
C85 C116 1.383 . S
H86 C105 0.947 . S
H87 C106 0.946 . S
H88 C108 0.953 . S
H89 C109 0.945 . S
H90 C111 0.952 . S
H91 C112 0.949 . S
H92 C114 0.950 . S
H93 C115 0.948 . S
H94 C117 0.951 . S
H95 C82 0.947 . S
H96 C84 0.952 . S
H97 C85 0.950 . S
N98 C101 1.382 1_565 S
N98 C103 1.363 1_455 S
N99 C101 1.371 . S
N99 C102 1.372 1_545 S
N100 C102 1.361 1_655 S
N100 C103 1.377 . S
C101 N98 1.382 1_545 S
C101 N99 1.371 . S
C101 C104 1.480 . S
C102 N99 1.372 1_565 S
C102 N100 1.361 1_455 S
C102 C110 1.457 . S
C103 N98 1.363 1_655 S
C103 N100 1.377 . S
C103 C116 1.479 . S
C104 C101 1.480 . S
C104 C105 1.383 . S
C104 C109 1.385 . S
C105 H86 0.947 . S
C105 C104 1.383 . S
C105 C106 1.388 . S
C106 H87 0.946 . S
C106 C105 1.388 . S
C106 C107 1.384 . S
C107 C106 1.384 . S
C107 C108 1.377 . S
C108 H88 0.953 . S
C108 C107 1.377 . S
C108 C109 1.369 . S
C109 H89 0.945 . S
C109 C104 1.385 . S
C109 C108 1.369 . S
C110 C102 1.457 . S
C110 C111 1.372 1_565 S
C110 C115 1.364 1_455 S
C111 H90 0.952 . S
C111 C110 1.372 1_545 S
C111 C112 1.389 . S
C112 H91 0.949 . S
C112 C111 1.389 . S
C112 C113 1.383 1_545 S
C113 C112 1.383 1_565 S
C113 C114 1.376 1_455 S
C114 H92 0.950 . S
C114 C113 1.376 1_655 S
C114 C115 1.379 . S
C115 H93 0.948 . S
C115 C110 1.364 1_655 S
C115 C114 1.379 . S
C116 C85 1.383 . S
C116 C103 1.479 . S
C116 C117 1.398 . S
C117 C82 1.382 . S
C117 H94 0.951 . S
C117 C116 1.398 . S
C118 C119 1.384 . S
C118 H131 0.947 . S
C118 C153 1.382 . S
C119 C118 1.384 . S
C119 C120 1.378 . S
C120 C119 1.378 . S
C120 C121 1.378 . S
C120 H132 0.952 . S
C121 C120 1.378 . S
C121 H133 0.950 . S
C121 C152 1.383 . S
H122 C141 0.947 . S
H123 C142 0.946 . S
H124 C144 0.953 . S
H125 C145 0.945 . S
H126 C147 0.952 . S
H127 C148 0.949 . S
H128 C150 0.950 . S
H129 C151 0.948 . S
H130 C153 0.951 . S
H131 C118 0.947 . S
H132 C120 0.952 . S
H133 C121 0.950 . S
N134 C137 1.382 . S
N134 C139 1.363 . S
N135 C137 1.371 . S
N135 C138 1.372 . S
N136 C138 1.361 . S
N136 C139 1.377 . S
C137 N134 1.382 . S
C137 N135 1.371 . S
C137 C140 1.480 . S
C138 N135 1.372 . S
C138 N136 1.361 . S
C138 C146 1.457 . S
C139 N134 1.363 . S
C139 N136 1.377 . S
C139 C152 1.479 . S
C140 C137 1.480 . S
C140 C141 1.383 . S
C140 C145 1.385 . S
C141 H122 0.947 . S
C141 C140 1.383 . S
C141 C142 1.388 . S
C142 H123 0.946 . S
C142 C141 1.388 . S
C142 C143 1.384 . S
C143 C142 1.384 . S
C143 C144 1.377 . S
C144 H124 0.953 . S
C144 C143 1.377 . S
C144 C145 1.369 . S
C145 H125 0.945 . S
C145 C140 1.385 . S
C145 C144 1.369 . S
C146 C138 1.457 . S
C146 C147 1.372 . S
C146 C151 1.364 . S
C147 H126 0.952 . S
C147 C146 1.372 . S
C147 C148 1.389 . S
C148 H127 0.949 . S
C148 C147 1.389 . S
C148 C149 1.387 . S
C149 C148 1.387 . S
C149 C150 1.372 . S
C150 H128 0.950 . S
C150 C149 1.372 . S
C150 C151 1.379 . S
C151 H129 0.948 . S
C151 C146 1.364 . S
C151 C150 1.379 . S
C152 C121 1.383 . S
C152 C139 1.479 . S
C152 C153 1.398 . S
C153 C118 1.382 . S
C153 H130 0.951 . S
C153 C152 1.398 . S
C154 C155 1.384 . S
C154 H167 0.947 . S
C154 C189 1.382 . S
C155 C154 1.384 . S
C155 C156 1.378 . S
C156 C155 1.378 . S
C156 C157 1.378 . S
C156 H168 0.952 . S
C157 C156 1.378 . S
C157 H169 0.950 . S
C157 C188 1.383 . S
H158 C177 0.947 . S
H159 C178 0.946 . S
H160 C180 0.953 . S
H161 C181 0.945 . S
H162 C183 0.952 . S
H163 C184 0.949 . S
H164 C186 0.950 . S
H165 C187 0.948 . S
H166 C189 0.951 . S
H167 C154 0.947 . S
H168 C156 0.952 . S
H169 C157 0.950 . S
N170 C173 1.382 . S
N170 C175 1.363 . S
N171 C173 1.371 . S
N171 C174 1.372 . S
N172 C174 1.361 . S
N172 C175 1.377 . S
C173 N170 1.382 . S
C173 N171 1.371 . S
C173 C176 1.480 . S
C174 N171 1.372 . S
C174 N172 1.361 . S
C174 C182 1.457 . S
C175 N170 1.363 . S
C175 N172 1.377 . S
C175 C188 1.479 . S
C176 C173 1.480 . S
C176 C177 1.383 . S
C176 C181 1.385 . S
C177 H158 0.947 . S
C177 C176 1.383 . S
C177 C178 1.388 . S
C178 H159 0.946 . S
C178 C177 1.388 . S
C178 C179 1.384 . S
C179 C178 1.384 . S
C179 C180 1.377 . S
C180 H160 0.953 . S
C180 C179 1.377 . S
C180 C181 1.369 . S
C181 H161 0.945 . S
C181 C176 1.385 . S
C181 C180 1.369 . S
C182 C174 1.457 . S
C182 C183 1.372 . S
C182 C187 1.364 . S
C183 H162 0.952 . S
C183 C182 1.372 . S
C183 C184 1.389 . S
C184 H163 0.949 . S
C184 C183 1.389 . S
C184 C185 1.387 . S
C185 C184 1.387 . S
C185 C186 1.372 . S
C186 H164 0.950 . S
C186 C185 1.372 . S
C186 C187 1.379 . S
C187 H165 0.948 . S
C187 C182 1.364 . S
C187 C186 1.379 . S
C188 C157 1.383 . S
C188 C175 1.479 . S
C188 C189 1.398 . S
C189 C154 1.382 . S
C189 H166 0.951 . S
C189 C188 1.398 . S
H190 C198 0.950 . S
H191 C203 0.950 . S
H192 C200 0.950 . S
H193 C202 0.950 . S
H194 C204 0.950 . S
H195 C206 0.950 . S
H196 C208 0.950 . S
H197 C209 0.950 . S
C198 H190 0.950 . S
C198 C199 1.386 . S
C198 C200 1.391 . S
C199 C198 1.386 . S
C199 C203 1.393 . S
C200 H192 0.950 . S
C200 C198 1.391 . S
C200 C201 1.400 . S
C201 C200 1.400 . S
C201 C202 1.398 . S
C201 C207 1.491 . S
C202 H193 0.950 . S
C202 C201 1.398 . S
C202 C203 1.391 . S
C203 H191 0.950 . S
C203 C199 1.393 . S
C203 C202 1.391 . S
C204 H194 0.950 . S
C204 C205 1.386 . S
C204 C206 1.391 . S
C205 C204 1.386 . S
C205 C209 1.393 . S
C206 H195 0.950 . S
C206 C204 1.391 . S
C206 C207 1.400 . S
C207 C201 1.491 . S
C207 C206 1.400 . S
C207 C208 1.398 . S
C208 H196 0.950 . S
C208 C207 1.398 . S
C208 C209 1.391 . S
C209 H197 0.950 . S
C209 C205 1.393 . S
C209 C208 1.391 . S
H210 C218 0.950 . S
H211 C223 0.950 . S
H212 C220 0.950 . S
H213 C222 0.950 . S
H214 C224 0.950 . S
H215 C226 0.950 1_554 S
H216 C228 0.950 . S
H217 C229 0.950 . S
C218 H210 0.950 . S
C218 C219 1.386 . S
C218 C220 1.391 . S
C219 C218 1.386 . S
C219 C223 1.393 1_556 S
C220 H212 0.950 . S
C220 C218 1.391 . S
C220 C221 1.400 . S
C221 C220 1.400 . S
C221 C222 1.398 1_556 S
C221 C227 1.491 . S
C222 H213 0.950 . S
C222 C221 1.398 1_554 S
C222 C223 1.391 . S
C223 H211 0.950 . S
C223 C219 1.393 1_554 S
C223 C222 1.391 . S
C224 H214 0.950 . S
C224 C225 1.386 . S
C224 C226 1.391 . S
C225 C224 1.386 . S
C225 C229 1.393 . S
C226 H215 0.950 1_556 S
C226 C224 1.391 . S
C226 C227 1.400 . S
C227 C221 1.491 . S
C227 C226 1.400 . S
C227 C228 1.398 . S
C228 H216 0.950 . S
C228 C227 1.398 . S
C228 C229 1.391 . S
C229 H217 0.950 . S
C229 C225 1.393 . S
C229 C228 1.391 . S
H230 C238 0.950 . S
H231 C243 0.950 . S
H232 C240 0.950 . S
H233 C242 0.950 . S
H234 C244 0.950 . S
H235 C246 0.950 . S
H236 C248 0.950 . S
H237 C249 0.950 . S
C238 H230 0.950 . S
C238 C239 1.386 . S
C238 C240 1.391 . S
C239 C238 1.386 . S
C239 C243 1.393 . S
C240 H232 0.950 . S
C240 C238 1.391 . S
C240 C241 1.400 . S
C241 C240 1.400 . S
C241 C242 1.398 . S
C241 C247 1.491 . S
C242 H233 0.950 . S
C242 C241 1.398 . S
C242 C243 1.391 . S
C243 H231 0.950 . S
C243 C239 1.393 . S
C243 C242 1.391 . S
C244 H234 0.950 . S
C244 C245 1.386 . S
C244 C246 1.391 . S
C245 C244 1.386 . S
C245 C249 1.393 . S
C246 H235 0.950 . S
C246 C244 1.391 . S
C246 C247 1.400 . S
C247 C241 1.491 . S
C247 C246 1.400 . S
C247 C248 1.398 . S
C248 H236 0.950 . S
C248 C247 1.398 . S
C248 C249 1.391 . S
C249 H237 0.950 . S
C249 C245 1.393 . S
C249 C248 1.391 . S
H250 C258 0.950 . S
H251 C263 0.950 1_554 S
H252 C260 0.950 . S
H253 C262 0.950 . S
H254 C264 0.950 . S
H255 C266 0.950 . S
H256 C268 0.950 . S
H257 C269 0.950 . S
C258 H250 0.950 . S
C258 C259 1.386 . S
C258 C260 1.391 . S
C259 C258 1.386 . S
C259 C263 1.393 . S
C260 H252 0.950 . S
C260 C258 1.391 . S
C260 C261 1.400 . S
C261 C260 1.400 . S
C261 C262 1.398 . S
C261 C267 1.491 . S
C262 H253 0.950 . S
C262 C261 1.398 . S
C262 C263 1.391 . S
C263 H251 0.950 1_556 S
C263 C259 1.393 . S
C263 C262 1.391 . S
C264 H254 0.950 . S
C264 C265 1.386 . S
C264 C266 1.391 . S
C265 C264 1.386 . S
C265 C269 1.393 . S
C266 H255 0.950 . S
C266 C264 1.391 . S
C266 C267 1.400 . S
C267 C261 1.491 . S
C267 C266 1.400 . S
C267 C268 1.398 . S
C268 H256 0.950 . S
C268 C267 1.398 . S
C268 C269 1.391 . S
C269 H257 0.950 . S
C269 C265 1.393 . S
C269 C268 1.391 . S
H270 C278 0.950 . S
H271 C283 0.950 . S
H272 C280 0.950 . S
H273 C282 0.950 . S
H274 C284 0.950 . S
H275 C286 0.950 . S
H276 C288 0.950 . S
H277 C289 0.950 . S
C278 H270 0.950 . S
C278 C279 1.386 . S
C278 C280 1.391 . S
C279 C278 1.386 . S
C279 C283 1.393 . S
C280 H272 0.950 . S
C280 C278 1.391 . S
C280 C281 1.400 . S
C281 C280 1.400 . S
C281 C282 1.398 . S
C281 C287 1.491 . S
C282 H273 0.950 . S
C282 C281 1.398 . S
C282 C283 1.391 . S
C283 H271 0.950 . S
C283 C279 1.393 . S
C283 C282 1.391 . S
C284 H274 0.950 . S
C284 C285 1.386 . S
C284 C286 1.391 . S
C285 C284 1.386 . S
C285 C289 1.393 . S
C286 H275 0.950 . S
C286 C284 1.391 . S
C286 C287 1.400 . S
C287 C281 1.491 . S
C287 C286 1.400 . S
C287 C288 1.398 . S
C288 H276 0.950 . S
C288 C287 1.398 . S
C288 C289 1.391 . S
C289 H277 0.950 . S
C289 C285 1.393 . S
C289 C288 1.391 . S
H290 C298 0.950 . S
H291 C303 0.950 . S
H292 C300 0.950 . S
H293 C302 0.950 . S
H294 C304 0.950 . S
H295 C306 0.950 . S
H296 C308 0.950 . S
H297 C309 0.950 . S
C298 H290 0.950 . S
C298 C299 1.386 . S
C298 C300 1.391 . S
C299 C298 1.386 . S
C299 C303 1.393 . S
C300 H292 0.950 . S
C300 C298 1.391 . S
C300 C301 1.400 . S
C301 C300 1.400 . S
C301 C302 1.398 . S
C301 C307 1.491 . S
C302 H293 0.950 . S
C302 C301 1.398 . S
C302 C303 1.391 . S
C303 H291 0.950 . S
C303 C299 1.393 . S
C303 C302 1.391 . S
C304 H294 0.950 . S
C304 C305 1.386 . S
C304 C306 1.391 . S
C305 C304 1.386 . S
C305 C309 1.393 . S
C306 H295 0.950 . S
C306 C304 1.391 . S
C306 C307 1.400 . S
C307 C301 1.491 . S
C307 C306 1.400 . S
C307 C308 1.398 . S
C308 H296 0.950 . S
C308 C307 1.398 . S
C308 C309 1.391 . S
C309 H297 0.950 . S
C309 C305 1.393 . S
C309 C308 1.391 . S
H310 C318 0.950 . S
H311 C323 0.950 . S
H312 C320 0.950 . S
H313 C322 0.950 . S
H314 C324 0.950 . S
H315 C326 0.950 . S
H316 C328 0.950 . S
H317 C329 0.950 . S
C318 H310 0.950 . S
C318 C319 1.386 . S
C318 C320 1.391 . S
C319 C318 1.386 . S
C319 C323 1.393 . S
C320 H312 0.950 . S
C320 C318 1.391 . S
C320 C321 1.400 . S
C321 C320 1.400 . S
C321 C322 1.398 . S
C321 C327 1.491 . S
C322 H313 0.950 . S
C322 C321 1.398 . S
C322 C323 1.391 . S
C323 H311 0.950 . S
C323 C319 1.393 . S
C323 C322 1.391 . S
C324 H314 0.950 . S
C324 C325 1.386 . S
C324 C326 1.391 . S
C325 C324 1.386 . S
C325 C329 1.393 . S
C326 H315 0.950 . S
C326 C324 1.391 . S
C326 C327 1.400 . S
C327 C321 1.491 . S
C327 C326 1.400 . S
C327 C328 1.398 . S
C328 H316 0.950 . S
C328 C327 1.398 . S
C328 C329 1.391 . S
C329 H317 0.950 . S
C329 C325 1.393 . S
C329 C328 1.391 . S
H330 C338 0.950 . S
H331 C343 0.950 . S
H332 C340 0.950 . S
H333 C342 0.950 . S
H334 C344 0.950 . S
H335 C346 0.950 . S
H336 C348 0.950 . S
H337 C349 0.950 . S
C338 H330 0.950 . S
C338 C339 1.386 . S
C338 C340 1.391 . S
C339 C338 1.386 . S
C339 C343 1.393 . S
C340 H332 0.950 . S
C340 C338 1.391 . S
C340 C341 1.400 . S
C341 C340 1.400 . S
C341 C342 1.398 . S
C341 C347 1.491 . S
C342 H333 0.950 . S
C342 C341 1.398 . S
C342 C343 1.391 . S
C343 H331 0.950 . S
C343 C339 1.393 . S
C343 C342 1.391 . S
C344 H334 0.950 . S
C344 C345 1.386 . S
C344 C346 1.391 . S
C345 C344 1.386 . S
C345 C349 1.393 . S
C346 H335 0.950 . S
C346 C344 1.391 . S
C346 C347 1.400 . S
C347 C341 1.491 . S
C347 C346 1.400 . S
C347 C348 1.398 . S
C348 H336 0.950 . S
C348 C347 1.398 . S
C348 C349 1.391 . S
C349 H337 0.950 . S
C349 C345 1.393 . S
C349 C348 1.391 . S
H350 C358 0.950 . S
H351 C363 0.950 . S
H352 C360 0.950 . S
H353 C362 0.950 . S
H354 C364 0.950 . S
H355 C366 0.950 . S
H356 C368 0.950 . S
H357 C369 0.950 . S
C358 H350 0.950 . S
C358 C359 1.386 1_655 S
C358 C360 1.391 . S
C359 C358 1.386 1_455 S
C359 C363 1.393 1_545 S
C360 H352 0.950 . S
C360 C358 1.391 . S
C360 C361 1.400 1_655 S
C361 C360 1.400 1_455 S
C361 C362 1.398 1_545 S
C361 C367 1.491 . S
C362 H353 0.950 . S
C362 C361 1.398 1_565 S
C362 C363 1.391 . S
C363 H351 0.950 . S
C363 C359 1.393 1_565 S
C363 C362 1.391 . S
C364 H354 0.950 . S
C364 C365 1.403 1_565 S
C364 C366 1.391 . S
C365 C364 1.403 1_545 S
C365 C369 1.376 1_455 S
C366 H355 0.950 . S
C366 C364 1.391 . S
C366 C367 1.400 1_565 S
C367 C361 1.491 . S
C367 C366 1.400 1_545 S
C367 C368 1.398 1_455 S
C368 H356 0.950 . S
C368 C367 1.398 1_655 S
C368 C369 1.391 . S
C369 H357 0.950 . S
C369 C365 1.376 1_655 S
C369 C368 1.391 . S
H370 C378 0.950 . S
H371 C383 0.950 . S
H372 C380 0.950 . S
H373 C382 0.950 . S
H374 C384 0.950 . S
H375 C386 0.950 . S
H376 C388 0.950 . S
H377 C389 0.950 . S
C378 H370 0.950 . S
C378 C379 1.386 1_665 S
C378 C380 1.391 . S
C379 C378 1.386 1_445 S
C379 C383 1.393 . S
C380 H372 0.950 . S
C380 C378 1.391 . S
C380 C381 1.400 1_665 S
C381 C380 1.400 1_445 S
C381 C382 1.398 . S
C381 C387 1.491 . S
C382 H373 0.950 . S
C382 C381 1.398 . S
C382 C383 1.391 . S
C383 H371 0.950 . S
C383 C379 1.393 . S
C383 C382 1.391 . S
C384 H374 0.950 . S
C384 C385 1.386 . S
C384 C386 1.391 . S
C385 C384 1.386 . S
C385 C389 1.393 1_445 S
C386 H375 0.950 . S
C386 C384 1.391 . S
C386 C387 1.400 . S
C387 C381 1.491 . S
C387 C386 1.400 . S
C387 C388 1.398 1_445 S
C388 H376 0.950 . S
C388 C387 1.398 1_665 S
C388 C389 1.391 . S
C389 H377 0.950 . S
C389 C385 1.393 1_665 S
C389 C388 1.391 . S
H390 C398 0.950 . S
H391 C403 0.950 . S
H392 C400 0.950 . S
H393 C402 0.950 . S
H394 C404 0.950 . S
H395 C406 0.950 . S
H396 C408 0.950 . S
H397 C409 0.950 . S
C398 H390 0.950 . S
C398 C399 1.386 . S
C398 C400 1.391 . S
C399 C398 1.386 . S
C399 C403 1.393 . S
C400 H392 0.950 . S
C400 C398 1.391 . S
C400 C401 1.400 . S
C401 C400 1.400 . S
C401 C402 1.398 . S
C401 C407 1.491 . S
C402 H393 0.950 . S
C402 C401 1.398 . S
C402 C403 1.391 . S
C403 H391 0.950 . S
C403 C399 1.393 . S
C403 C402 1.391 . S
C404 H394 0.950 . S
C404 C405 1.386 . S
C404 C406 1.391 . S
C405 C404 1.386 . S
C405 C409 1.393 . S
C406 H395 0.950 . S
C406 C404 1.391 . S
C406 C407 1.400 . S
C407 C401 1.491 . S
C407 C406 1.400 . S
C407 C408 1.398 . S
C408 H396 0.950 . S
C408 C407 1.398 . S
C408 C409 1.391 . S
C409 H397 0.950 . S
C409 C405 1.393 . S
C409 C408 1.391 . S
H410 C418 0.950 . S
H411 C423 0.950 . S
H412 C420 0.950 . S
H413 C422 0.950 . S
H414 C424 0.950 . S
H415 C426 0.950 . S
H416 C428 0.950 . S
H417 C429 0.950 . S
C418 H410 0.950 . S
C418 C419 1.386 . S
C418 C420 1.391 . S
C419 C418 1.386 . S
C419 C423 1.393 . S
C420 H412 0.950 . S
C420 C418 1.391 . S
C420 C421 1.400 . S
C421 C420 1.400 . S
C421 C422 1.398 . S
C421 C427 1.491 . S
C422 H413 0.950 . S
C422 C421 1.398 . S
C422 C423 1.391 . S
C423 H411 0.950 . S
C423 C419 1.393 . S
C423 C422 1.391 . S
C424 H414 0.950 . S
C424 C425 1.386 . S
C424 C426 1.391 . S
C425 C424 1.386 . S
C425 C429 1.393 . S
C426 H415 0.950 . S
C426 C424 1.391 . S
C426 C427 1.400 . S
C427 C421 1.491 . S
C427 C426 1.400 . S
C427 C428 1.398 . S
C428 H416 0.950 . S
C428 C427 1.398 . S
C428 C429 1.391 . S
C429 H417 0.950 . S
C429 C425 1.393 . S
C429 C428 1.391 . S
C205 C155 1.454 . S
C199 C21 1.452 . S
C219 C19 1.444 1_556 S
C225 C119 1.447 . S
C239 C18 1.414 . S
C245 C179 1.411 . S
C259 C20 1.437 1_556 S
C265 C143 1.420 . S
C279 C44 1.442 . S
C285 C83 1.442 . S
C299 C42 1.444 . S
C305 C47 1.446 . S
C325 C107 1.402 . S
C319 C41 1.415 . S
C345 C71 1.419 . S
C339 C43 1.438 . S
C359 C16 1.491 . S
C365 C77 1.484 . S
C379 C17 1.456 . S
C385 C113 1.450 1_545 S
C405 C149 1.485 . S
C399 C39 1.492 . S
C419 C40 1.454 . S
C425 C185 1.454 . S
