# Generated by pormake.
# Topology pto, (3,4)-cn, num edge types: 1
# Building blocks:
#     Node 0, Type 0, BuildingBlock: PAMTOO_clean_linker_0, # of connection points: 3
#     Node 1, Type 0, BuildingBlock: PAMTOO_clean_linker_0, # of connection points: 3
#     Node 2, Type 0, BuildingBlock: PAMTOO_clean_linker_0, # of connection points: 3
#     Node 3, Type 0, BuildingBlock: PAMTOO_clean_linker_0, # of connection points: 3
#     Node 4, Type 0, BuildingBlock: PAMTOO_clean_linker_0, # of connection points: 3
#     Node 5, Type 0, BuildingBlock: PAMTOO_clean_linker_0, # of connection points: 3
#     Node 6, Type 0, BuildingBlock: PAMTOO_clean_linker_0, # of connection points: 3
#     Node 7, Type 0, BuildingBlock: PAMTOO_clean_linker_0, # of connection points: 3
#     Node 8, Type 1, BuildingBlock: NAWXER_clean_sbu_0, # of connection points: 4
#     Node 9, Type 1, BuildingBlock: NAWXER_clean_sbu_0, # of connection points: 4
#     Node 10, Type 1, BuildingBlock: NAWXER_clean_sbu_0, # of connection points: 4
#     Node 11, Type 1, BuildingBlock: NAWXER_clean_sbu_0, # of connection points: 4
#     Node 12, Type 1, BuildingBlock: NAWXER_clean_sbu_0, # of connection points: 4
#     Node 13, Type 1, BuildingBlock: NAWXER_clean_sbu_0, # of connection points: 4
#     Edge 14, Type (0, 1), BuildingBlock: ZUJKAS_clean_linker_0, # of connection points: 2
#     Edge 15, Type (0, 1), BuildingBlock: ZUJKAS_clean_linker_0, # of connection points: 2
#     Edge 16, Type (0, 1), BuildingBlock: ZUJKAS_clean_linker_0, # of connection points: 2
#     Edge 17, Type (0, 1), BuildingBlock: ZUJKAS_clean_linker_0, # of connection points: 2
#     Edge 18, Type (0, 1), BuildingBlock: ZUJKAS_clean_linker_0, # of connection points: 2
#     Edge 19, Type (0, 1), BuildingBlock: ZUJKAS_clean_linker_0, # of connection points: 2
#     Edge 20, Type (0, 1), BuildingBlock: ZUJKAS_clean_linker_0, # of connection points: 2
#     Edge 21, Type (0, 1), BuildingBlock: ZUJKAS_clean_linker_0, # of connection points: 2
#     Edge 22, Type (0, 1), BuildingBlock: ZUJKAS_clean_linker_0, # of connection points: 2
#     Edge 23, Type (0, 1), BuildingBlock: ZUJKAS_clean_linker_0, # of connection points: 2
#     Edge 24, Type (0, 1), BuildingBlock: ZUJKAS_clean_linker_0, # of connection points: 2
#     Edge 25, Type (0, 1), BuildingBlock: ZUJKAS_clean_linker_0, # of connection points: 2
#     Edge 26, Type (0, 1), BuildingBlock: ZUJKAS_clean_linker_0, # of connection points: 2
#     Edge 27, Type (0, 1), BuildingBlock: ZUJKAS_clean_linker_0, # of connection points: 2
#     Edge 28, Type (0, 1), BuildingBlock: ZUJKAS_clean_linker_0, # of connection points: 2
#     Edge 29, Type (0, 1), BuildingBlock: ZUJKAS_clean_linker_0, # of connection points: 2
#     Edge 30, Type (0, 1), BuildingBlock: ZUJKAS_clean_linker_0, # of connection points: 2
#     Edge 31, Type (0, 1), BuildingBlock: ZUJKAS_clean_linker_0, # of connection points: 2
#     Edge 32, Type (0, 1), BuildingBlock: ZUJKAS_clean_linker_0, # of connection points: 2
#     Edge 33, Type (0, 1), BuildingBlock: ZUJKAS_clean_linker_0, # of connection points: 2
#     Edge 34, Type (0, 1), BuildingBlock: ZUJKAS_clean_linker_0, # of connection points: 2
#     Edge 35, Type (0, 1), BuildingBlock: ZUJKAS_clean_linker_0, # of connection points: 2
#     Edge 36, Type (0, 1), BuildingBlock: ZUJKAS_clean_linker_0, # of connection points: 2
#     Edge 37, Type (0, 1), BuildingBlock: ZUJKAS_clean_linker_0, # of connection points: 2
# Relax obj value: 0.015
# Max RMSD: 0.153
# Mean RMSD: 0.066
data_MOF--net-pto--node1-NAWXER_clean_sbu_0--node2-PAMTOO_clean_linker_0--edge1-ZUJKAS_clean_linker_0
_symmetry_space_group_name_H-M    P1
_symmetry_Int_Tables_number       1
_symmetry_cell_setting            triclinic
loop_
_symmetry_equiv_pos_as_xyz
'x, y, z'
_cell_length_a     56.957654
_cell_length_b     51.500942
_cell_length_c     49.662481
_cell_angle_alpha  82.245931
_cell_angle_beta   83.987708
_cell_angle_gamma 99.646583
loop_
_atom_site_label
_atom_site_type_symbol
_atom_site_fract_x
_atom_site_fract_y
_atom_site_fract_z
_atom_type_partial_charge
H0 H 0.17374 0.30577 0.362 0.0
H1 H 0.23444 0.28318 0.31747 0.0
H2 H 0.21329 0.35729 0.29039 0.0
H3 H 0.23132 0.3334 0.24295 0.0
C4 C 0.23911 0.31785 0.25491 0.0
O5 O 0.24309 0.32523 0.27998 0.0
H6 H 0.22594 0.29876 0.25759 0.0
C7 C 0.1883 0.30985 0.34523 0.0
C8 C 0.19175 0.33378 0.32677 0.0
C9 C 0.20367 0.29139 0.34232 0.0
C10 C 0.2222 0.2969 0.32014 0.0
C11 C 0.22546 0.32046 0.30142 0.0
C12 C 0.21053 0.33905 0.30497 0.0
H13 H 0.21051 0.78833 0.84519 0.0
H14 H 0.25235 0.74791 0.89847 0.0
H15 H 0.27881 0.82912 0.86145 0.0
H16 H 0.31319 0.79496 0.85864 0.0
C17 C 0.30812 0.78184 0.87887 0.0
O18 O 0.28818 0.78832 0.89278 0.0
H19 H 0.30386 0.76087 0.87503 0.0
C20 C 0.22611 0.7888 0.85599 0.0
C21 C 0.2441 0.81181 0.85131 0.0
C22 C 0.22881 0.76567 0.87302 0.0
C23 C 0.24978 0.76568 0.8856 0.0
C24 C 0.26767 0.78861 0.88139 0.0
C25 C 0.26471 0.81163 0.86458 0.0
H26 H 0.70773 0.7949 0.32175 0.0
H27 H 0.74437 0.73715 0.28865 0.0
H28 H 0.76404 0.76616 0.36157 0.0
H29 H 0.80341 0.76564 0.32075 0.0
C30 C 0.79689 0.74675 0.31308 0.0
O31 O 0.77389 0.7358 0.32553 0.0
H32 H 0.79667 0.75138 0.29056 0.0
C33 C 0.72067 0.78173 0.32314 0.0
C34 C 0.73504 0.78213 0.34445 0.0
C35 C 0.72373 0.76559 0.30281 0.0
C36 C 0.74158 0.74976 0.30404 0.0
C37 C 0.7561 0.75016 0.32513 0.0
C38 C 0.75267 0.76608 0.34539 0.0
H39 H 0.74844 0.30496 0.8478 0.0
H40 H 0.70767 0.24695 0.80746 0.0
H41 H 0.78133 0.27836 0.77684 0.0
H42 H 0.7501 0.27233 0.73371 0.0
C43 C 0.73589 0.25578 0.74493 0.0
O44 O 0.74265 0.24636 0.76973 0.0
H45 H 0.71899 0.26376 0.74827 0.0
C46 C 0.74732 0.29262 0.83181 0.0
C47 C 0.76783 0.29349 0.81296 0.0
C48 C 0.72534 0.27609 0.83002 0.0
C49 C 0.72418 0.2602 0.80914 0.0
C50 C 0.74429 0.26123 0.79008 0.0
C51 C 0.76603 0.27766 0.79203 0.0
H52 H 0.75078 0.78831 0.80226 0.0
H53 H 0.771 0.71349 0.83166 0.0
H54 H 0.81171 0.76405 0.7607 0.0
H55 H 0.80146 0.70661 0.75809 0.0
C56 C 0.8042 0.69882 0.77934 0.0
O57 O 0.80815 0.71951 0.79425 0.0
H58 H 0.78768 0.68446 0.78896 0.0
C59 C 0.76246 0.77386 0.80059 0.0
C60 C 0.78158 0.77898 0.77915 0.0
C61 C 0.75822 0.75019 0.81968 0.0
C62 C 0.77385 0.73191 0.81734 0.0
C63 C 0.79303 0.73697 0.79611 0.0
C64 C 0.79679 0.76035 0.77701 0.0
H65 H 0.80268 0.30013 0.2884 0.0
H66 H 0.72955 0.2747 0.27467 0.0
H67 H 0.76835 0.35155 0.23591 0.0
H68 H 0.71997 0.35144 0.25689 0.0
C69 C 0.71094 0.33144 0.25358 0.0
O70 O 0.72756 0.3183 0.24177 0.0
H71 H 0.70259 0.31991 0.27389 0.0
C72 C 0.78719 0.30384 0.27858 0.0
C73 C 0.78826 0.32831 0.26161 0.0
C74 C 0.76613 0.28435 0.28356 0.0
C75 C 0.74599 0.28943 0.27108 0.0
C76 C 0.74698 0.31353 0.25373 0.0
C77 C 0.76808 0.33279 0.24888 0.0
H78 H 0.23806 0.32312 0.73041 0.0
H79 H 0.26727 0.3673 0.79086 0.0
H80 H 0.30118 0.3053 0.76462 0.0
H81 H 0.29301 0.30659 0.82471 0.0
C82 C 0.29745 0.32858 0.82407 0.0
O83 O 0.30214 0.3411 0.7972 0.0
H84 H 0.28164 0.33495 0.83461 0.0
C85 C 0.25155 0.32706 0.74392 0.0
C86 C 0.26997 0.3119 0.74499 0.0
C87 C 0.2502 0.34699 0.76055 0.0
C88 C 0.26778 0.35193 0.77802 0.0
C89 C 0.28602 0.33689 0.7794 0.0
C90 C 0.28717 0.31707 0.76289 0.0
H91 H 0.2376 0.80558 0.37156 0.0
H92 H 0.27825 0.76701 0.31608 0.0
H93 H 0.31493 0.82644 0.35704 0.0
H94 H 0.33879 0.82839 0.30031 0.0
C95 C 0.32955 0.8085 0.29696 0.0
O96 O 0.31993 0.79349 0.32204 0.0
H97 H 0.31513 0.81167 0.28402 0.0
C98 C 0.25468 0.80299 0.36149 0.0
C99 C 0.27615 0.81823 0.36689 0.0
C100 C 0.25514 0.7845 0.34307 0.0
C101 C 0.27738 0.78129 0.33014 0.0
C102 C 0.29877 0.79639 0.33522 0.0
C103 C 0.29818 0.81466 0.35362 0.0
C104 C 0.98346 0.53181 0.28482 0.0
C105 C 0.04736 0.60114 0.30224 0.0
O106 O 0.98475 0.53214 0.31043 0.0
Zn107 Zn 0.00577 0.55471 0.33596 0.0
O108 O 0.99792 0.5488 0.26709 0.0
Zn109 Zn 0.01529 0.56669 0.29285 0.0
O110 O 0.03249 0.53591 0.31089 0.0
O111 O 0.02063 0.5279 0.35548 0.0
O112 O 0.04186 0.59583 0.27919 0.0
O113 O 0.03528 0.58742 0.32431 0.0
O114 O 0.98177 0.5702 0.35576 0.0
O115 O 0.98858 0.58575 0.31151 0.0
C116 C 0.03311 0.52296 0.33466 0.0
C117 C 0.97726 0.58539 0.33532 0.0
C118 C 0.98788 0.47394 0.82256 0.0
C119 C 0.05112 0.54647 0.83436 0.0
O120 O 0.99488 0.47995 0.84477 0.0
Zn121 Zn 0.01967 0.50996 0.82864 0.0
O122 O 0.9983 0.48758 0.79962 0.0
Zn123 Zn 0.02675 0.52147 0.78563 0.0
O124 O 0.04994 0.50686 0.76397 0.0
O125 O 0.04661 0.49187 0.80821 0.0
O126 O 0.04895 0.54542 0.80905 0.0
O127 O 0.03735 0.52965 0.85284 0.0
O128 O 0.99892 0.53794 0.81173 0.0
O129 O 0.01002 0.5469 0.76709 0.0
C130 C 0.05645 0.49242 0.78361 0.0
C131 C 0.99688 0.55035 0.78814 0.0
C132 C 0.23125 0.01016 0.62357 0.0
C133 C 0.22199 0.07147 0.54322 0.0
O134 O 0.21185 0.01513 0.61535 0.0
Zn135 Zn 0.22623 0.04053 0.58327 0.0
O136 O 0.25146 0.022 0.60991 0.0
Zn137 Zn 0.26417 0.05081 0.57365 0.0
O138 O 0.28198 0.0804 0.58781 0.0
O139 O 0.24292 0.07388 0.60061 0.0
O140 O 0.24404 0.07077 0.54593 0.0
O141 O 0.20543 0.05684 0.56057 0.0
O142 O 0.24217 0.01638 0.55697 0.0
O143 O 0.28129 0.03119 0.55015 0.0
C144 C 0.26407 0.08714 0.60079 0.0
C145 C 0.2632 0.01489 0.54588 0.0
C146 C 0.57052 0.77929 0.09128 0.0
C147 C 0.50818 0.78403 0.03103 0.0
O148 O 0.55926 0.75641 0.08807 0.0
Zn149 Zn 0.5308 0.74 0.06685 0.0
O150 O 0.56487 0.80039 0.07934 0.0
Zn151 Zn 0.53976 0.78273 0.06095 0.0
O152 O 0.51332 0.76507 0.09499 0.0
O153 O 0.50633 0.72136 0.09684 0.0
O154 O 0.52201 0.80353 0.03769 0.0
O155 O 0.51007 0.76014 0.04043 0.0
O156 O 0.54745 0.7203 0.04271 0.0
O157 O 0.55959 0.7639 0.03268 0.0
C158 C 0.5021 0.74196 0.10661 0.0
C159 C 0.56108 0.74035 0.02784 0.0
C160 C 0.77102 0.99691 0.57217 0.0
C161 C 0.7653 0.06487 0.49542 0.0
O162 O 0.74931 0.99817 0.56825 0.0
Zn163 Zn 0.73058 0.02116 0.54138 0.0
O164 O 0.78826 0.01299 0.55708 0.0
Zn165 Zn 0.76877 0.03139 0.53408 0.0
O166 O 0.75187 0.05306 0.5618 0.0
O167 O 0.71271 0.03904 0.56617 0.0
O168 O 0.78426 0.05926 0.50435 0.0
O169 O 0.74472 0.05218 0.50735 0.0
O170 O 0.71338 0.99389 0.52395 0.0
O171 O 0.75275 1.00048 0.51305 0.0
C172 C 0.73064 0.05424 0.57238 0.0
C173 C 0.73171 0.988 0.51093 0.0
C174 C 0.52643 0.34393 0.07824 0.0
C175 C 0.47333 0.3474 0.00696 0.0
O176 O 0.51541 0.32089 0.07515 0.0
Zn177 Zn 0.48954 0.30416 0.05077 0.0
O178 O 0.52212 0.36468 0.06407 0.0
Zn179 Zn 0.49929 0.34654 0.04328 0.0
O180 O 0.46861 0.331 0.0734 0.0
O181 O 0.46229 0.28714 0.07755 0.0
O182 O 0.48582 0.36707 0.01497 0.0
O183 O 0.4734 0.32366 0.01866 0.0
O184 O 0.50745 0.28229 0.0311 0.0
O185 O 0.5217 0.32548 0.02 0.0
C186 C 0.4563 0.3082 0.08457 0.0
C187 C 0.52299 0.30132 0.01724 0.0
H188 H 0.14286 0.32443 0.33215 0.0
H189 H 0.11625 0.35686 0.33624 0.0
H190 H 0.17779 0.41887 0.33489 0.0
H191 H 0.20445 0.38667 0.32953 0.0
H192 H 0.10715 0.38728 0.37317 0.0
H193 H 0.14608 0.45255 0.27523 0.0
H194 H 0.15391 0.42039 0.28472 0.0
H195 H 0.16791 0.44897 0.29831 0.0
C196 C 0.15064 0.34502 0.33268 0.0
C197 C 0.17566 0.3532 0.33021 0.0
C198 C 0.13546 0.36351 0.33507 0.0
C199 C 0.14501 0.39045 0.33532 0.0
C200 C 0.17001 0.39841 0.33387 0.0
H201 H 0.05369 0.50456 0.37934 0.0
H202 H 0.08104 0.47242 0.38141 0.0
C203 C 0.18522 0.38001 0.33095 0.0
C204 C 0.12878 0.41015 0.33679 0.0
H205 H 0.11798 0.46877 0.30406 0.0
C206 C 0.10946 0.40508 0.35801 0.0
C207 C 0.13162 0.43322 0.31683 0.0
C208 C 0.15084 0.439 0.29234 0.0
C209 C 0.09283 0.42231 0.35972 0.0
C210 C 0.09608 0.44574 0.34017 0.0
C211 C 0.11556 0.45092 0.31917 0.0
C212 C 0.07886 0.46449 0.33989 0.0
C213 C 0.07154 0.41467 0.38185 0.0
C214 C 0.0689 0.47119 0.31578 0.0
C215 C 0.05389 0.48996 0.31437 0.0
C216 C 0.04817 0.50225 0.33716 0.0
C217 C 0.05764 0.49519 0.36156 0.0
C218 C 0.07313 0.4767 0.3628 0.0
H219 H 0.06806 0.39299 0.3899 0.0
H220 H 0.07525 0.42559 0.39919 0.0
H221 H 0.05505 0.41989 0.37415 0.0
H222 H 0.07294 0.46203 0.29786 0.0
H223 H 0.04672 0.49485 0.29534 0.0
H224 H 0.23559 0.71549 0.86662 0.0
H225 H 0.20467 0.67669 0.86472 0.0
H226 H 0.14947 0.72176 0.88412 0.0
H227 H 0.18032 0.76076 0.88534 0.0
H228 H 0.16677 0.64629 0.89994 0.0
H229 H 0.13422 0.70085 0.8114 0.0
H230 H 0.1616 0.71366 0.82424 0.0
H231 H 0.13299 0.71693 0.84126 0.0
C232 C 0.21685 0.71694 0.8709 0.0
C233 C 0.21031 0.74117 0.87583 0.0
C234 C 0.19921 0.69481 0.86976 0.0
C235 C 0.17477 0.69653 0.87364 0.0
C236 C 0.16822 0.72021 0.88031 0.0
H237 H 0.05567 0.56154 0.88481 0.0
H238 H 0.08555 0.59727 0.89587 0.0
C239 C 0.18583 0.74241 0.88113 0.0
C240 C 0.15625 0.67413 0.86918 0.0
H241 H 0.11178 0.65817 0.82998 0.0
C242 C 0.15471 0.64884 0.88467 0.0
C243 C 0.14082 0.67741 0.84891 0.0
C244 C 0.14259 0.70359 0.8303 0.0
C245 C 0.13807 0.62676 0.8805 0.0
C246 C 0.12222 0.63025 0.86072 0.0
C247 C 0.1238 0.65555 0.84529 0.0
C248 C 0.10451 0.60784 0.85467 0.0
C249 C 0.13814 0.59981 0.89672 0.0
C250 C 0.10488 0.60225 0.82775 0.0
C251 C 0.08762 0.58223 0.8213 0.0
C252 C 0.06963 0.56723 0.84166 0.0
C253 C 0.06939 0.57262 0.86871 0.0
C254 C 0.08657 0.59291 0.8751 0.0
H255 H 0.15533 0.59916 0.90528 0.0
H256 H 0.12344 0.5955 0.91412 0.0
H257 H 0.13515 0.58383 0.88384 0.0
H258 H 0.11851 0.61352 0.81163 0.0
H259 H 0.08841 0.57854 0.80029 0.0
H260 H 0.80226 0.72 0.36313 0.0
H261 H 0.8322 0.69203 0.37358 0.0
H262 H 0.86028 0.70456 0.28783 0.0
H263 H 0.83045 0.73229 0.27732 0.0
H264 H 0.8418 0.64405 0.34928 0.0
H265 H 0.91856 0.72916 0.32975 0.0
H266 H 0.88775 0.73334 0.33679 0.0
H267 H 0.89933 0.7281 0.30328 0.0
C268 C 0.81465 0.71641 0.34654 0.0
C269 C 0.81386 0.72791 0.31938 0.0
C270 C 0.83172 0.70056 0.35252 0.0
C271 C 0.8485 0.69645 0.33149 0.0
C272 C 0.84758 0.70771 0.30436 0.0
H273 H 0.96502 0.62032 0.2954 0.0
H274 H 0.93348 0.64666 0.29891 0.0
C275 C 0.83047 0.72338 0.29836 0.0
C276 C 0.86733 0.68074 0.33762 0.0
H277 H 0.92818 0.6857 0.33211 0.0
C278 C 0.8607 0.65311 0.34599 0.0
C279 C 0.89189 0.69275 0.33342 0.0
C280 C 0.89989 0.72251 0.32555 0.0
C281 C 0.87814 0.6369 0.34868 0.0
C282 C 0.90277 0.64882 0.3433 0.0
C283 C 0.90929 0.67661 0.33617 0.0
C284 C 0.92204 0.63275 0.34212 0.0
C285 C 0.87016 0.60708 0.35581 0.0
C286 C 0.9263 0.61634 0.3654 0.0
C287 C 0.94445 0.60109 0.36347 0.0
C288 C 0.95863 0.60211 0.33824 0.0
C289 C 0.95446 0.61894 0.31516 0.0
C290 C 0.93642 0.63409 0.31711 0.0
H291 H 0.85069 0.60078 0.35476 0.0
H292 H 0.88046 0.59675 0.34176 0.0
H293 H 0.87366 0.60048 0.37698 0.0
H294 H 0.91564 0.61537 0.38501 0.0
H295 H 0.94724 0.58838 0.38164 0.0
H296 H 0.77479 0.34427 0.8256 0.0
H297 H 0.81279 0.37307 0.82867 0.0
H298 H 0.85136 0.31219 0.80655 0.0
H299 H 0.81335 0.28269 0.80478 0.0
H300 H 0.86888 0.33487 0.84847 0.0
H301 H 0.85997 0.4134 0.76412 0.0
H302 H 0.8351 0.4065 0.79098 0.0
H303 H 0.8406 0.3811 0.7708 0.0
C304 C 0.79131 0.33683 0.8217 0.0
C305 C 0.79096 0.31114 0.81484 0.0
C306 C 0.81306 0.35349 0.82311 0.0
C307 C 0.83494 0.34499 0.81732 0.0
C308 C 0.83469 0.31924 0.81089 0.0
H309 H 0.97312 0.45121 0.77922 0.0
H310 H 0.93702 0.41826 0.77881 0.0
C311 C 0.81294 0.30249 0.80964 0.0
C312 C 0.85811 0.36287 0.81808 0.0
H313 H 0.89157 0.42389 0.79076 0.0
C314 C 0.87392 0.3543 0.83578 0.0
C315 C 0.86481 0.38804 0.8012 0.0
C316 C 0.84935 0.39773 0.7805 0.0
C317 C 0.89608 0.37039 0.83737 0.0
C318 C 0.90236 0.39598 0.82125 0.0
C319 C 0.88667 0.40437 0.80329 0.0
C320 C 0.9252 0.41436 0.82226 0.0
C321 C 0.91274 0.35958 0.85588 0.0
C322 C 0.93073 0.423 0.84689 0.0
C323 C 0.95155 0.44169 0.84725 0.0
C324 C 0.96702 0.45239 0.82289 0.0
C325 C 0.96158 0.44342 0.79834 0.0
C326 C 0.94092 0.4246 0.79806 0.0
H327 H 0.90861 0.33745 0.86037 0.0
H328 H 0.93179 0.36594 0.84659 0.0
H329 H 0.91055 0.36726 0.87564 0.0
H330 H 0.91861 0.41588 0.86571 0.0
H331 H 0.95511 0.44837 0.86644 0.0
H332 H 0.19299 0.28628 0.39808 0.0
H333 H 0.19125 0.24679 0.43204 0.0
H334 H 0.20763 0.20191 0.36746 0.0
H335 H 0.20833 0.24101 0.3332 0.0
H336 H 0.17261 0.17284 0.40947 0.0
H337 H 0.25281 0.22176 0.45055 0.0
H338 H 0.22845 0.23982 0.451 0.0
H339 H 0.24358 0.23535 0.41878 0.0
C340 C 0.19575 0.2679 0.39101 0.0
C341 C 0.20101 0.2669 0.36288 0.0
C342 C 0.195 0.24542 0.41049 0.0
C343 C 0.19976 0.2216 0.40227 0.0
C344 C 0.20407 0.22018 0.37422 0.0
H345 H 0.25225 0.09768 0.4982 0.0
H346 H 0.24475 0.13229 0.46332 0.0
C347 C 0.2047 0.24262 0.3547 0.0
C348 C 0.20144 0.19859 0.42288 0.0
H349 H 0.23344 0.17939 0.47397 0.0
C350 C 0.18587 0.1742 0.42363 0.0
C351 C 0.21898 0.20041 0.44104 0.0
C352 C 0.23707 0.22565 0.44023 0.0
C353 C 0.18735 0.15155 0.44218 0.0
C354 C 0.20462 0.15355 0.46064 0.0
C355 C 0.22012 0.17796 0.45988 0.0
C356 C 0.20783 0.13045 0.48027 0.0
C357 C 0.17088 0.12555 0.44137 0.0
C358 C 0.18939 0.11757 0.50118 0.0
C359 C 0.19358 0.09752 0.52115 0.0
C360 C 0.21637 0.09036 0.52068 0.0
C361 C 0.23453 0.10283 0.49926 0.0
C362 C 0.23029 0.12262 0.47928 0.0
H363 H 0.16286 0.12577 0.42191 0.0
H364 H 0.18065 0.10862 0.44379 0.0
H365 H 0.15602 0.12205 0.45853 0.0
H366 H 0.17206 0.12364 0.50262 0.0
H367 H 0.17928 0.08839 0.53749 0.0
H368 H 0.32959 0.74342 0.90486 0.0
H369 H 0.36484 0.74978 0.92928 0.0
H370 H 0.36887 0.83495 0.91374 0.0
H371 H 0.33345 0.82861 0.88926 0.0
H372 H 0.4114 0.78108 0.90551 0.0
H373 H 0.37219 0.81745 0.9977 0.0
H374 H 0.35376 0.79949 0.97627 0.0
H375 H 0.36762 0.83367 0.96474 0.0
C376 C 0.33791 0.76347 0.90683 0.0
C377 C 0.32896 0.78557 0.89514 0.0
C378 C 0.35802 0.76708 0.92074 0.0
C379 C 0.36935 0.79281 0.92343 0.0
C380 C 0.3602 0.81493 0.91216 0.0
H381 H 0.49483 0.83123 0.011 0.0
H382 H 0.46265 0.83691 0.98256 0.0
C383 C 0.3401 0.81132 0.89816 0.0
C384 C 0.39133 0.79629 0.93708 0.0
H385 H 0.41291 0.81336 0.99515 0.0
C386 C 0.4118 0.78833 0.92501 0.0
C387 C 0.39186 0.80606 0.96232 0.0
C388 C 0.37019 0.81455 0.97624 0.0
C389 C 0.43263 0.7892 0.93788 0.0
C390 C 0.43281 0.79776 0.96376 0.0
C391 C 0.41269 0.80679 0.97532 0.0
C392 C 0.45272 0.79492 0.98025 0.0
C393 C 0.4542 0.78066 0.92378 0.0
C394 C 0.45756 0.76946 0.98854 0.0
C395 C 0.47576 0.76616 0.00467 0.0
C396 C 0.48952 0.78826 0.01306 0.0
C397 C 0.48466 0.81383 0.00476 0.0
C398 C 0.46628 0.81711 0.98859 0.0
H399 H 0.45405 0.78285 0.90123 0.0
H400 H 0.47121 0.79244 0.92805 0.0
H401 H 0.45385 0.75932 0.93143 0.0
H402 H 0.447 0.75201 0.98282 0.0
H403 H 0.47889 0.74616 0.01075 0.0
H404 H 0.77078 0.81468 0.36288 0.0
H405 H 0.7665 0.84797 0.39297 0.0
H406 H 0.6894 0.82549 0.40072 0.0
H407 H 0.69352 0.79175 0.371 0.0
H408 H 0.74027 0.89083 0.38046 0.0
H409 H 0.70477 0.82714 0.48098 0.0
H410 H 0.72059 0.8149 0.45329 0.0
H411 H 0.69011 0.81925 0.45194 0.0
C412 C 0.75292 0.81641 0.37147 0.0
C413 C 0.73248 0.8006 0.36461 0.0
C414 C 0.75051 0.83553 0.38849 0.0
C415 C 0.72765 0.83901 0.39915 0.0
C416 C 0.7072 0.82285 0.39293 0.0
H417 H 0.69041 0.95572 0.50236 0.0
H418 H 0.68723 0.91984 0.47426 0.0
C419 C 0.70958 0.80378 0.3758 0.0
C420 C 0.72534 0.86078 0.41526 0.0
H421 H 0.70865 0.87369 0.47944 0.0
C422 C 0.73329 0.88712 0.40209 0.0
C423 C 0.71593 0.85579 0.44333 0.0
C424 C 0.70747 0.82776 0.4584 0.0
C425 C 0.73245 0.90869 0.41637 0.0
C426 C 0.72389 0.90371 0.44469 0.0
C427 C 0.71523 0.8774 0.45771 0.0
C428 C 0.72547 0.92545 0.46146 0.0
C429 C 0.74077 0.93663 0.40099 0.0
C430 C 0.74801 0.94015 0.46377 0.0
C431 C 0.74989 0.96056 0.47965 0.0
C432 C 0.72924 0.96659 0.49376 0.0
C433 C 0.70663 0.95166 0.49163 0.0
C434 C 0.70478 0.93115 0.47566 0.0
H435 H 0.73974 0.93738 0.37869 0.0
H436 H 0.72988 0.95062 0.40891 0.0
H437 H 0.75979 0.94362 0.40362 0.0
H438 H 0.76423 0.93568 0.45344 0.0
H439 H 0.76761 0.97149 0.48095 0.0
H440 H 0.67878 0.27262 0.81909 0.0
H441 H 0.64314 0.27291 0.85074 0.0
H442 H 0.68666 0.28096 0.91622 0.0
H443 H 0.72226 0.27889 0.88513 0.0
H444 H 0.64522 0.24637 0.93357 0.0
H445 H 0.62617 0.33898 0.8762 0.0
H446 H 0.62686 0.31279 0.85589 0.0
H447 H 0.65377 0.32709 0.8686 0.0
C448 C 0.6808 0.27401 0.84031 0.0
C449 C 0.70351 0.27589 0.84946 0.0
C450 C 0.66039 0.27457 0.85831 0.0
C451 C 0.6623 0.27757 0.88569 0.0
C452 C 0.6848 0.27886 0.89509 0.0
H453 H 0.56381 0.33605 0.99462 0.0
H454 H 0.59684 0.32823 0.96334 0.0
C455 C 0.70519 0.27797 0.87719 0.0
C456 C 0.64093 0.27971 0.90451 0.0
H457 H 0.59691 0.31652 0.91301 0.0
C458 C 0.63464 0.26171 0.92912 0.0
C459 C 0.62732 0.29994 0.89879 0.0
C460 C 0.63398 0.32096 0.87358 0.0
C461 C 0.61519 0.26345 0.94824 0.0
C462 C 0.60127 0.28331 0.94221 0.0
C463 C 0.60746 0.30115 0.9175 0.0
C464 C 0.58117 0.28722 0.9619 0.0
C465 C 0.61027 0.2446 0.97506 0.0
C466 C 0.56127 0.26675 0.97153 0.0
C467 C 0.54236 0.27108 0.98981 0.0
C468 C 0.54289 0.29611 0.99831 0.0
C469 C 0.56276 0.31657 0.9884 0.0
C470 C 0.58169 0.31214 0.97049 0.0
H471 H 0.6261 0.23549 0.9794 0.0
H472 H 0.60522 0.255 0.99237 0.0
H473 H 0.59514 0.22824 0.97408 0.0
H474 H 0.5602 0.24755 0.96468 0.0
H475 H 0.52721 0.255 0.99693 0.0
H476 H 0.20413 0.83357 0.84286 0.0
H477 H 0.20011 0.86808 0.80545 0.0
H478 H 0.27556 0.87744 0.77653 0.0
H479 H 0.27957 0.84231 0.81304 0.0
H480 H 0.22274 0.92142 0.7897 0.0
H481 H 0.2435 0.86033 0.7096 0.0
H482 H 0.23668 0.84656 0.74552 0.0
H483 H 0.26624 0.8648 0.73186 0.0
C484 C 0.21987 0.84295 0.8285 0.0
C485 C 0.24213 0.83496 0.83081 0.0
C486 C 0.21755 0.86276 0.80726 0.0
C487 C 0.23742 0.87489 0.78792 0.0
C488 C 0.25989 0.86792 0.79093 0.0
H489 H 0.26952 0.99283 0.64383 0.0
H490 H 0.26923 0.96039 0.68454 0.0
C491 C 0.26221 0.84806 0.81206 0.0
C492 C 0.23461 0.8943 0.76413 0.0
H493 H 0.24257 0.90591 0.69417 0.0
C494 C 0.22687 0.91798 0.7688 0.0
C495 C 0.2398 0.88959 0.73691 0.0
C496 C 0.24679 0.86383 0.7306 0.0
C497 C 0.22506 0.93756 0.74688 0.0
C498 C 0.23095 0.93314 0.71972 0.0
C499 C 0.23819 0.90924 0.71507 0.0
C500 C 0.23073 0.95347 0.69573 0.0
C501 C 0.21759 0.96317 0.75283 0.0
C502 C 0.20909 0.96019 0.68849 0.0
C503 C 0.20915 0.97871 0.66508 0.0
C504 C 0.23087 0.99077 0.64858 0.0
C505 C 0.25247 0.98399 0.65606 0.0
C506 C 0.25237 0.96545 0.67932 0.0
H507 H 0.21749 0.96532 0.7748 0.0
H508 H 0.22984 0.98061 0.74019 0.0
H509 H 0.19921 0.96349 0.74741 0.0
H510 H 0.19217 0.95085 0.70074 0.0
H511 H 0.19221 0.98347 0.65986 0.0
H512 H 0.67583 0.76764 0.30561 0.0
H513 H 0.6518 0.77141 0.2679 0.0
H514 H 0.71316 0.76775 0.21073 0.0
H515 H 0.73775 0.76532 0.24825 0.0
H516 H 0.68929 0.80697 0.1921 0.0
H517 H 0.62491 0.71227 0.22788 0.0
H518 H 0.62655 0.73404 0.2532 0.0
H519 H 0.65248 0.72048 0.24233 0.0
C520 C 0.6843 0.76777 0.28501 0.0
C521 C 0.70875 0.76615 0.28 0.0
C522 C 0.67044 0.76962 0.2635 0.0
C523 C 0.68058 0.76944 0.23656 0.0
C524 C 0.70495 0.76776 0.23141 0.0
H525 H 0.59556 0.74045 0.10602 0.0
H526 H 0.6241 0.73987 0.13926 0.0
C527 C 0.7189 0.76609 0.25292 0.0
C528 C 0.66581 0.77144 0.21374 0.0
H529 H 0.61442 0.74203 0.19209 0.0
C530 C 0.67299 0.79269 0.19196 0.0
C531 C 0.64471 0.75262 0.21346 0.0
C532 C 0.63682 0.72842 0.23533 0.0
C533 C 0.65941 0.79586 0.17008 0.0
C534 C 0.63784 0.77759 0.17035 0.0
C535 C 0.63086 0.75619 0.192 0.0
C536 C 0.62242 0.77958 0.14811 0.0
C537 C 0.66857 0.8184 0.14668 0.0
C538 C 0.61223 0.80232 0.14161 0.0
C539 C 0.59605 0.80285 0.12221 0.0
C540 C 0.58948 0.78043 0.10948 0.0
C541 C 0.60012 0.75798 0.11563 0.0
C542 C 0.61645 0.7576 0.13464 0.0
H543 H 0.68817 0.82571 0.14576 0.0
H544 H 0.66497 0.81215 0.12674 0.0
H545 H 0.65928 0.83529 0.14963 0.0
H546 H 0.61615 0.8193 0.15216 0.0
H547 H 0.58798 0.82033 0.11804 0.0
H548 H 0.69362 0.22433 0.73822 0.0
H549 H 0.68824 0.18722 0.71174 0.0
H550 H 0.7649 0.19981 0.68851 0.0
H551 H 0.7703 0.2368 0.71501 0.0
H552 H 0.70307 0.1885 0.65449 0.0
H553 H 0.74617 0.1197 0.72032 0.0
H554 H 0.73607 0.14831 0.73172 0.0
H555 H 0.76416 0.15239 0.70999 0.0
C556 C 0.70925 0.21916 0.72733 0.0
C557 C 0.73235 0.23351 0.72825 0.0
C558 C 0.70618 0.19801 0.71231 0.0
C559 C 0.72619 0.19066 0.69843 0.0
C560 C 0.74926 0.20497 0.69941 0.0
H561 H 0.76577 0.08896 0.58879 0.0
H562 H 0.76139 0.12053 0.62043 0.0
C563 C 0.75233 0.22613 0.71433 0.0
C564 C 0.72309 0.16839 0.68239 0.0
H565 H 0.7404 0.10903 0.67584 0.0
C566 C 0.71089 0.17091 0.65931 0.0
C567 C 0.7332 0.14545 0.68892 0.0
C568 C 0.74544 0.14109 0.71424 0.0
C569 C 0.70972 0.1517 0.64167 0.0
C570 C 0.72072 0.1293 0.64761 0.0
C571 C 0.73205 0.12629 0.67132 0.0
C572 C 0.72265 0.10999 0.62832 0.0
C573 C 0.69779 0.15615 0.61614 0.0
C574 C 0.70225 0.09347 0.62234 0.0
C575 C 0.70466 0.07528 0.60408 0.0
C576 C 0.72754 0.07333 0.59167 0.0
C577 C 0.74786 0.0899 0.59791 0.0
C578 C 0.74543 0.10796 0.61606 0.0
H579 H 0.6938 0.17661 0.61219 0.0
H580 H 0.70936 0.15275 0.598 0.0
H581 H 0.68062 0.14173 0.61848 0.0
H582 H 0.68452 0.09449 0.63193 0.0
H583 H 0.68868 0.06273 0.59979 0.0
H584 H 0.27411 0.35708 0.22518 0.0
H585 H 0.31189 0.35221 0.19926 0.0
H586 H 0.29461 0.2671 0.22518 0.0
H587 H 0.25682 0.27194 0.25106 0.0
H588 H 0.35049 0.32774 0.21884 0.0
H589 H 0.30725 0.27659 0.13995 0.0
H590 H 0.29152 0.29505 0.16196 0.0
H591 H 0.29659 0.26253 0.17513 0.0
C592 C 0.27843 0.33737 0.22521 0.0
C593 C 0.26243 0.31482 0.23952 0.0
C594 C 0.29995 0.3346 0.21053 0.0
C595 C 0.3058 0.30925 0.20995 0.0
C596 C 0.29018 0.28677 0.22494 0.0
H597 H 0.42573 0.26366 0.11296 0.0
H598 H 0.38998 0.26219 0.14571 0.0
C599 C 0.26868 0.28955 0.23971 0.0
C600 C 0.32822 0.30644 0.19353 0.0
H601 H 0.34944 0.28291 0.13646 0.0
C602 C 0.3503 0.31786 0.20088 0.0
C603 C 0.32787 0.29337 0.17025 0.0
C604 C 0.30458 0.28131 0.16112 0.0
C605 C 0.37211 0.31672 0.18543 0.0
C606 C 0.37175 0.30435 0.16166 0.0
C607 C 0.34967 0.29236 0.1547 0.0
C608 C 0.39393 0.30504 0.14282 0.0
C609 C 0.39532 0.32865 0.19482 0.0
C610 C 0.40784 0.32959 0.13016 0.0
C611 C 0.42822 0.33049 0.11158 0.0
C612 C 0.43503 0.30685 0.105 0.0
C613 C 0.42103 0.28223 0.11764 0.0
C614 C 0.4006 0.28135 0.13634 0.0
H615 H 0.39297 0.32948 0.21717 0.0
H616 H 0.40965 0.31708 0.1903 0.0
H617 H 0.40135 0.34936 0.18392 0.0
H618 H 0.4027 0.34812 0.1343 0.0
H619 H 0.43845 0.34982 0.1021 0.0
H620 H 0.81638 0.66581 0.82121 0.0
H621 H 0.85066 0.64256 0.82085 0.0
H622 H 0.87351 0.67687 0.73607 0.0
H623 H 0.83955 0.70053 0.73661 0.0
H624 H 0.86093 0.60545 0.78867 0.0
H625 H 0.93521 0.69324 0.76997 0.0
H626 H 0.90441 0.69573 0.7802 0.0
H627 H 0.91443 0.69351 0.74517 0.0
C628 C 0.82883 0.66839 0.80259 0.0
C629 C 0.8253 0.68471 0.7789 0.0
C630 C 0.84836 0.65517 0.80237 0.0
C631 C 0.8648 0.65821 0.77852 0.0
C632 C 0.86134 0.67463 0.75484 0.0
H633 H 0.98752 0.58064 0.74188 0.0
H634 H 0.9557 0.60726 0.7383 0.0
C635 C 0.84184 0.68794 0.75509 0.0
C636 C 0.88499 0.64334 0.77824 0.0
H637 H 0.94623 0.65093 0.76863 0.0
C638 C 0.87957 0.61541 0.78433 0.0
C639 C 0.90932 0.65637 0.77244 0.0
C640 C 0.91628 0.68637 0.76681 0.0
C641 C 0.89779 0.60015 0.78478 0.0
C642 C 0.92207 0.61317 0.77929 0.0
C643 C 0.92756 0.64105 0.77276 0.0
C644 C 0.94195 0.5981 0.78144 0.0
C645 C 0.89092 0.57016 0.791 0.0
C646 C 0.945 0.58466 0.80695 0.0
C647 C 0.96311 0.56958 0.80909 0.0
C648 C 0.9786 0.56763 0.78573 0.0
C649 C 0.97585 0.58165 0.76024 0.0
C650 C 0.95772 0.59687 0.75815 0.0
H651 H 0.87192 0.56308 0.78826 0.0
H652 H 0.90269 0.56066 0.77763 0.0
H653 H 0.89316 0.56341 0.81261 0.0
H654 H 0.93323 0.5857 0.82522 0.0
H655 H 0.96474 0.55917 0.82907 0.0
H656 H 0.81035 0.36213 0.21483 0.0
H657 H 0.84623 0.39712 0.2103 0.0
H658 H 0.85092 0.37736 0.2965 0.0
H659 H 0.81513 0.34289 0.30132 0.0
H660 H 0.85362 0.44179 0.23887 0.0
H661 H 0.9186 0.37515 0.25957 0.0
H662 H 0.88938 0.36344 0.25002 0.0
H663 H 0.89253 0.36784 0.28489 0.0
C664 C 0.81902 0.36532 0.23281 0.0
C665 C 0.81004 0.34949 0.25838 0.0
C666 C 0.83954 0.3852 0.23015 0.0
C667 C 0.85148 0.38941 0.25295 0.0
C668 C 0.84234 0.37394 0.2785 0.0
H669 H 0.95312 0.49081 0.31799 0.0
H670 H 0.92265 0.45732 0.30506 0.0
C671 C 0.82189 0.3542 0.2812 0.0
C672 C 0.87302 0.41054 0.25068 0.0
H673 H 0.93052 0.42074 0.26606 0.0
C674 C 0.87063 0.43727 0.2442 0.0
C675 C 0.8952 0.4045 0.25749 0.0
C676 C 0.89921 0.37616 0.26312 0.0
C677 C 0.88938 0.45817 0.24625 0.0
C678 C 0.91101 0.45203 0.25473 0.0
C679 C 0.91384 0.42534 0.25968 0.0
C680 C 0.92978 0.47266 0.2617 0.0
C681 C 0.88548 0.48657 0.24098 0.0
C682 C 0.94401 0.49233 0.2415 0.0
C683 C 0.96162 0.51163 0.24882 0.0
C684 C 0.96515 0.51151 0.27647 0.0
C685 C 0.95087 0.49161 0.29652 0.0
C686 C 0.93345 0.47238 0.28919 0.0
H687 H 0.86674 0.48777 0.23736 0.0
H688 H 0.88969 0.49683 0.25865 0.0
H689 H 0.89779 0.49748 0.22267 0.0
H690 H 0.94157 0.49267 0.22012 0.0
H691 H 0.97236 0.52665 0.2329 0.0
H692 H 0.23088 0.3687 0.71629 0.0
H693 H 0.19827 0.39439 0.71666 0.0
H694 H 0.19138 0.38461 0.80491 0.0
H695 H 0.22381 0.35906 0.80472 0.0
H696 H 0.15073 0.38051 0.74138 0.0
H697 H 0.19919 0.46506 0.78379 0.0
H698 H 0.2142 0.44049 0.77021 0.0
H699 H 0.19836 0.43345 0.80445 0.0
C700 C 0.22233 0.37196 0.73576 0.0
C701 C 0.23013 0.36211 0.76046 0.0
C702 C 0.20377 0.3867 0.73593 0.0
C703 C 0.19275 0.39189 0.76078 0.0
C704 C 0.20008 0.38149 0.78546 0.0
H705 H 0.07661 0.46292 0.8216 0.0
H706 H 0.10943 0.43873 0.81363 0.0
C707 C 0.21863 0.36688 0.78531 0.0
C708 C 0.17333 0.40785 0.76116 0.0
H709 H 0.1568 0.46233 0.7847 0.0
C710 C 0.15213 0.39858 0.75054 0.0
C711 C 0.17527 0.43152 0.77298 0.0
C712 C 0.19807 0.44339 0.78326 0.0
C713 C 0.13243 0.41173 0.75251 0.0
C714 C 0.13412 0.43483 0.76521 0.0
C715 C 0.15553 0.44449 0.77514 0.0
C716 C 0.11357 0.44873 0.76947 0.0
C717 C 0.10965 0.40035 0.74191 0.0
C718 C 0.10505 0.46241 0.74723 0.0
C719 C 0.08628 0.47639 0.7517 0.0
C720 C 0.07573 0.4769 0.77852 0.0
C721 C 0.08424 0.46292 0.80069 0.0
C722 C 0.10303 0.4491 0.79619 0.0
H723 H 0.10985 0.38 0.73691 0.0
H724 H 0.09379 0.39957 0.75726 0.0
H725 H 0.1075 0.41346 0.72303 0.0
H726 H 0.11318 0.46265 0.72646 0.0
H727 H 0.0802 0.48699 0.73419 0.0
H728 H 0.24317 0.77363 0.29332 0.0
H729 H 0.20679 0.74553 0.28393 0.0
H730 H 0.17979 0.73078 0.37007 0.0
H731 H 0.21612 0.75888 0.37964 0.0
H732 H 0.1905 0.69239 0.30343 0.0
H733 H 0.12259 0.75153 0.33545 0.0
H734 H 0.15439 0.76498 0.32966 0.0
H735 H 0.14122 0.74391 0.36134 0.0
C736 C 0.22946 0.76443 0.31027 0.0
C737 C 0.23252 0.76848 0.33724 0.0
C738 C 0.20865 0.74848 0.30484 0.0
C739 C 0.19043 0.73636 0.32623 0.0
C740 C 0.19335 0.74046 0.35316 0.0
H741 H 0.06162 0.61854 0.34847 0.0
H742 H 0.09619 0.65231 0.35212 0.0
C743 C 0.21414 0.75649 0.35861 0.0
C744 C 0.16898 0.71828 0.32054 0.0
H745 H 0.10765 0.70714 0.32837 0.0
C746 C 0.17238 0.69575 0.3086 0.0
C747 C 0.14538 0.72273 0.32728 0.0
C748 C 0.14062 0.74723 0.3389 0.0
C749 C 0.1528 0.67707 0.30407 0.0
C750 C 0.1292 0.68127 0.31132 0.0
C751 C 0.12579 0.70401 0.32283 0.0
C752 C 0.10782 0.66153 0.30849 0.0
C753 C 0.15748 0.65253 0.29248 0.0
C754 C 0.10267 0.6558 0.28265 0.0
C755 C 0.08284 0.63642 0.28044 0.0
C756 C 0.06782 0.62251 0.30406 0.0
C757 C 0.07283 0.62876 0.32984 0.0
C758 C 0.09257 0.64812 0.332 0.0
H759 H 0.17632 0.64965 0.29318 0.0
H760 H 0.14523 0.63444 0.30391 0.0
H761 H 0.15408 0.65451 0.27077 0.0
H762 H 0.11404 0.66625 0.26421 0.0
H763 H 0.07943 0.63217 0.26028 0.0
H764 H 0.78645 0.78288 0.72353 0.0
H765 H 0.78958 0.823 0.68983 0.0
H766 H 0.78871 0.87063 0.75498 0.0
H767 H 0.78454 0.83027 0.78879 0.0
H768 H 0.75926 0.88382 0.72218 0.0
H769 H 0.84374 0.88171 0.65781 0.0
H770 H 0.82302 0.85104 0.65976 0.0
H771 H 0.83437 0.8603 0.69036 0.0
C772 C 0.78728 0.80199 0.73056 0.0
C773 C 0.78529 0.80355 0.7587 0.0
C774 C 0.78926 0.82496 0.71129 0.0
C775 C 0.78992 0.85002 0.71974 0.0
C776 C 0.78836 0.85159 0.7479 0.0
H777 H 0.81253 0.99442 0.59542 0.0
H778 H 0.81868 0.96079 0.63277 0.0
C779 C 0.78595 0.82856 0.7672 0.0
C780 C 0.79016 0.87416 0.69945 0.0
H781 H 0.81718 0.90818 0.63704 0.0
C782 C 0.77218 0.88933 0.70378 0.0
C783 C 0.80727 0.88184 0.67563 0.0
C784 C 0.82833 0.86802 0.67079 0.0
C785 C 0.77017 0.91111 0.68448 0.0
C786 C 0.78602 0.91738 0.65963 0.0
C787 C 0.80473 0.90308 0.65584 0.0
C788 C 0.78266 0.93776 0.63687 0.0
C789 C 0.75103 0.92718 0.69104 0.0
C790 C 0.76062 0.93566 0.62636 0.0
C791 C 0.75699 0.95491 0.60541 0.0
C792 C 0.7755 0.97645 0.59401 0.0
C793 C 0.79789 0.97811 0.60386 0.0
C794 C 0.80142 0.95893 0.62518 0.0
H795 H 0.74657 0.92613 0.71353 0.0
H796 H 0.75674 0.94844 0.68167 0.0
H797 H 0.73439 0.91887 0.68298 0.0
H798 H 0.74614 0.91905 0.63435 0.0
H799 H 0.73965 0.95277 0.598 0.0
H800 H 0.66312 0.30832 0.26187 0.0
H801 H 0.6327 0.31429 0.2312 0.0
H802 H 0.68612 0.36846 0.17269 0.0
H803 H 0.71663 0.3625 0.20339 0.0
H804 H 0.61852 0.36382 0.20886 0.0
H805 H 0.65594 0.31047 0.12892 0.0
H806 H 0.66392 0.30699 0.1633 0.0
H807 H 0.67659 0.33654 0.13928 0.0
C808 C 0.66832 0.32151 0.24247 0.0
C809 C 0.69216 0.33499 0.2349 0.0
C810 C 0.65097 0.32495 0.22504 0.0
C811 C 0.65722 0.34169 0.19965 0.0
C812 C 0.681 0.35526 0.19209 0.0
H813 H 0.5547 0.3889 0.08982 0.0
H814 H 0.58683 0.39073 0.11925 0.0
C815 C 0.69835 0.3519 0.20958 0.0
C816 C 0.6388 0.34465 0.18105 0.0
H817 H 0.62194 0.32919 0.12031 0.0
C818 C 0.6193 0.35643 0.1894 0.0
C819 C 0.63987 0.33483 0.15579 0.0
C820 C 0.66008 0.3213 0.14624 0.0
C821 C 0.60068 0.35844 0.17321 0.0
C822 C 0.6017 0.34849 0.14803 0.0
C823 C 0.62133 0.33697 0.13956 0.0
C824 C 0.58176 0.34796 0.1311 0.0
C825 C 0.57966 0.37037 0.18348 0.0
C826 C 0.56837 0.32337 0.12804 0.0
C827 C 0.55008 0.32225 0.11139 0.0
C828 C 0.54488 0.34574 0.09721 0.0
C829 C 0.55818 0.37046 0.10053 0.0
C830 C 0.5765 0.37155 0.11736 0.0
H831 H 0.57984 0.37344 0.20519 0.0
H832 H 0.58027 0.38997 0.17075 0.0
H833 H 0.56247 0.35732 0.18164 0.0
H834 H 0.57217 0.30495 0.13847 0.0
H835 H 0.54027 0.30285 0.10933 0.0
H836 H 0.30954 0.29921 0.71697 0.0
H837 H 0.31098 0.26249 0.69057 0.0
H838 H 0.23407 0.23854 0.7088 0.0
H839 H 0.23246 0.275 0.73535 0.0
H840 H 0.29604 0.20783 0.70838 0.0
H841 H 0.24545 0.24298 0.62554 0.0
H842 H 0.2577 0.26437 0.64859 0.0
H843 H 0.2299 0.24117 0.6593 0.0
C844 C 0.29293 0.2861 0.71538 0.0
C845 C 0.27086 0.29015 0.72816 0.0
C846 C 0.29379 0.2652 0.70021 0.0
C847 C 0.27261 0.24803 0.69736 0.0
C848 C 0.25058 0.25193 0.71017 0.0
H849 H 0.22911 0.10567 0.63031 0.0
H850 H 0.2333 0.14488 0.65318 0.0
C851 C 0.24969 0.27282 0.72533 0.0
C852 C 0.27354 0.22549 0.68178 0.0
H853 H 0.25138 0.19797 0.62869 0.0
C854 C 0.2865 0.20578 0.69077 0.0
C855 C 0.26116 0.22293 0.65876 0.0
C856 C 0.24796 0.24411 0.64727 0.0
C857 C 0.2866 0.18302 0.67801 0.0
C858 C 0.27368 0.18014 0.65544 0.0
C859 C 0.26121 0.20018 0.64607 0.0
C860 C 0.27178 0.15591 0.64208 0.0
C861 C 0.29976 0.16177 0.6894 0.0
C862 C 0.29208 0.14905 0.62818 0.0
C863 C 0.28977 0.12649 0.61502 0.0
C864 C 0.26708 0.11051 0.61546 0.0
C865 C 0.24687 0.11746 0.62954 0.0
C866 C 0.2492 0.13993 0.64262 0.0
H867 H 0.3046 0.16441 0.71009 0.0
H868 H 0.28869 0.14162 0.69068 0.0
H869 H 0.31658 0.16274 0.67553 0.0
H870 H 0.30964 0.16136 0.62714 0.0
H871 H 0.30568 0.12178 0.60425 0.0
H872 H 0.37748 0.82611 0.2787 0.0
H873 H 0.40443 0.80454 0.25122 0.0
H874 H 0.3471 0.73744 0.25404 0.0
H875 H 0.31989 0.75935 0.28114 0.0
H876 H 0.41908 0.75547 0.26154 0.0
H877 H 0.36795 0.76053 0.1719 0.0
H878 H 0.36257 0.77874 0.19982 0.0
H879 H 0.35137 0.7435 0.20396 0.0
C880 C 0.3707 0.80669 0.27358 0.0
C881 C 0.34665 0.79435 0.28194 0.0
C882 C 0.38608 0.79437 0.25794 0.0
C883 C 0.3777 0.76954 0.25028 0.0
C884 C 0.35384 0.7568 0.2593 0.0
H885 H 0.46357 0.70174 0.12749 0.0
H886 H 0.43228 0.70211 0.16561 0.0
C887 C 0.33839 0.76919 0.27489 0.0
C888 C 0.39395 0.7577 0.23215 0.0
H889 H 0.40388 0.74406 0.1669 0.0
C890 C 0.4156 0.75261 0.24099 0.0
C891 C 0.38932 0.75378 0.20538 0.0
C892 C 0.36665 0.75957 0.1945 0.0
C893 C 0.43316 0.74485 0.22338 0.0
C894 C 0.42907 0.74237 0.19618 0.0
C895 C 0.40689 0.74589 0.18783 0.0
C896 C 0.44875 0.74027 0.17505 0.0
C897 C 0.4563 0.74017 0.23375 0.0
C898 C 0.46823 0.76153 0.16783 0.0
C899 C 0.48579 0.7615 0.1461 0.0
C900 C 0.48434 0.74014 0.13109 0.0
C901 C 0.4652 0.71838 0.13881 0.0
C902 C 0.44735 0.71859 0.16049 0.0
H903 H 0.45383 0.73465 0.25641 0.0
H904 H 0.4634 0.7242 0.22436 0.0
H905 H 0.46991 0.7588 0.22824 0.0
H906 H 0.46944 0.77866 0.17845 0.0
H907 H 0.50034 0.77853 0.14076 0.0
H908 H 0.79948 0.25186 0.2853 0.0
H909 H 0.79954 0.21281 0.31947 0.0
H910 H 0.73097 0.22143 0.35945 0.0
H911 H 0.73084 0.26063 0.32543 0.0
H912 H 0.76994 0.21743 0.39412 0.0
H913 H 0.75542 0.13667 0.33031 0.0
H914 H 0.77795 0.16552 0.31611 0.0
H915 H 0.74699 0.16872 0.32127 0.0
C916 C 0.78434 0.24531 0.30127 0.0
C917 C 0.76515 0.2593 0.30272 0.0
C918 C 0.78434 0.22294 0.32065 0.0
C919 C 0.7652 0.21421 0.34184 0.0
C920 C 0.74585 0.22784 0.34313 0.0
H921 H 0.72887 0.07562 0.46673 0.0
H922 H 0.73015 0.11166 0.42889 0.0
C923 C 0.74573 0.25009 0.32362 0.0
C924 C 0.76599 0.19172 0.3635 0.0
H925 H 0.7637 0.1244 0.37551 0.0
C926 C 0.76861 0.19708 0.39009 0.0
C927 C 0.76418 0.16525 0.35809 0.0
C928 C 0.76081 0.15848 0.32997 0.0
C929 C 0.76958 0.17662 0.41147 0.0
C930 C 0.76795 0.15019 0.40603 0.0
C931 C 0.76518 0.14477 0.37948 0.0
C932 C 0.76783 0.12774 0.42808 0.0
C933 C 0.77191 0.18324 0.43986 0.0
C934 C 0.78874 0.12467 0.43987 0.0
C935 C 0.78815 0.10395 0.46147 0.0
C936 C 0.76656 0.08611 0.47171 0.0
C937 C 0.74577 0.08908 0.45947 0.0
C938 C 0.74645 0.10961 0.43778 0.0
H939 H 0.76961 0.204 0.44147 0.0
H940 H 0.75838 0.1693 0.4552 0.0
H941 H 0.78998 0.18088 0.44514 0.0
H942 H 0.80546 0.13843 0.43248 0.0
H943 H 0.80446 0.10219 0.47042 0.0
H944 H 0.32798 0.29653 0.84308 0.0
H945 H 0.36092 0.30769 0.86993 0.0
H946 H 0.34828 0.38841 0.86452 0.0
H947 H 0.31487 0.37706 0.83807 0.0
H948 H 0.40297 0.34549 0.85828 0.0
H949 H 0.34402 0.36526 0.94702 0.0
H950 H 0.33215 0.34924 0.91991 0.0
H951 H 0.34264 0.38467 0.91453 0.0
C952 C 0.33229 0.31665 0.84759 0.0
C953 C 0.31877 0.33589 0.83888 0.0
C954 C 0.35112 0.32304 0.86285 0.0
C955 C 0.35679 0.34876 0.86964 0.0
C956 C 0.34388 0.3683 0.86004 0.0
H957 H 0.46026 0.39372 0.98391 0.0
H958 H 0.43406 0.3986 0.94788 0.0
C959 C 0.32495 0.36188 0.84484 0.0
C960 C 0.37588 0.35462 0.88729 0.0
H961 H 0.38512 0.36872 0.95108 0.0
C962 C 0.39913 0.35085 0.87845 0.0
C963 C 0.37087 0.36176 0.91357 0.0
C964 C 0.34605 0.3653 0.92452 0.0
C965 C 0.41728 0.35318 0.8955 0.0
C966 C 0.41197 0.35917 0.92217 0.0
C967 C 0.3891 0.36421 0.93056 0.0
C968 C 0.4289 0.35707 0.94271 0.0
C969 C 0.44187 0.34864 0.8851 0.0
C970 C 0.43446 0.33213 0.95179 0.0
C971 C 0.44911 0.32924 0.97237 0.0
C972 C 0.45861 0.35128 0.98435 0.0
C973 C 0.4533 0.37641 0.975 0.0
C974 C 0.43835 0.37922 0.95448 0.0
H975 H 0.44507 0.35193 0.86233 0.0
H976 H 0.45615 0.36201 0.89285 0.0
H977 H 0.44333 0.32771 0.89245 0.0
H978 H 0.42701 0.3147 0.94332 0.0
H979 H 0.45285 0.30961 0.97902 0.0
H980 H 0.30536 0.82773 0.40633 0.0
H981 H 0.30475 0.86105 0.43712 0.0
H982 H 0.24503 0.88688 0.40163 0.0
H983 H 0.24581 0.85399 0.3704 0.0
H984 H 0.2832 0.92908 0.40717 0.0
H985 H 0.25331 0.8576 0.50383 0.0
H986 H 0.27902 0.85176 0.48286 0.0
H987 H 0.25033 0.84815 0.47046 0.0
C988 C 0.29216 0.84058 0.405 0.0
C989 C 0.27556 0.83813 0.38597 0.0
C990 C 0.29171 0.85945 0.42276 0.0
C991 C 0.27468 0.87622 0.42185 0.0
C992 C 0.25824 0.87401 0.40275 0.0
H993 H 0.22851 0.97506 0.53613 0.0
H994 H 0.23264 0.94187 0.50603 0.0
C995 C 0.25859 0.85508 0.38507 0.0
C996 C 0.27415 0.89634 0.44055 0.0
H997 H 0.26336 0.90321 0.50795 0.0
C998 C 0.27893 0.92347 0.42921 0.0
C999 C 0.26838 0.88891 0.46926 0.0
C1000 C 0.26226 0.86003 0.48243 0.0
C1001 C 0.27816 0.94339 0.44586 0.0
C1002 C 0.27264 0.93597 0.4746 0.0
C1003 C 0.26779 0.90884 0.48593 0.0
C1004 C 0.27062 0.956 0.49315 0.0
C1005 C 0.28265 0.9722 0.43255 0.0
C1006 C 0.29071 0.97479 0.49616 0.0
C1007 C 0.28845 0.99384 0.51346 0.0
C1008 C 0.26602 0.99441 0.52803 0.0
C1009 C 0.24604 0.9753 0.52516 0.0
C1010 C 0.24835 0.95625 0.508 0.0
H1011 H 0.28193 0.97423 0.4101 0.0
H1012 H 0.26925 0.98289 0.44183 0.0
H1013 H 0.30074 0.98208 0.4359 0.0
H1014 H 0.30815 0.97469 0.48517 0.0
H1015 H 0.30421 0.0082 0.51525 0.0
H1016 H 0.71261 0.75934 0.81577 0.0
H1017 H 0.67909 0.75266 0.85246 0.0
H1018 H 0.72252 0.72052 0.90997 0.0
H1019 H 0.75653 0.72815 0.87358 0.0
H1020 H 0.65436 0.70731 0.88723 0.0
H1021 H 0.70068 0.78082 0.94559 0.0
H1022 H 0.71189 0.77823 0.9109 0.0
H1023 H 0.71644 0.75446 0.93896 0.0
C1024 C 0.71516 0.7511 0.83627 0.0
C1025 C 0.73741 0.74465 0.84177 0.0
C1026 C 0.69588 0.74703 0.85717 0.0
C1027 C 0.6984 0.73644 0.88403 0.0
C1028 C 0.7203 0.72913 0.88947 0.0
H1029 H 0.57632 0.69436 0.01691 0.0
H1030 H 0.60934 0.69067 0.98247 0.0
C1031 C 0.73965 0.73328 0.86858 0.0
C1032 C 0.67827 0.73396 0.90633 0.0
H1033 H 0.66206 0.7579 0.96502 0.0
C1034 C 0.65604 0.71822 0.90436 0.0
C1035 C 0.68048 0.74843 0.92851 0.0
C1036 C 0.70357 0.76663 0.93112 0.0
C1037 C 0.63585 0.71686 0.92375 0.0
C1038 C 0.63809 0.73136 0.94588 0.0
C1039 C 0.66043 0.74669 0.94811 0.0
C1040 C 0.61719 0.73272 0.96584 0.0
C1041 C 0.6121 0.70078 0.91985 0.0
C1042 C 0.61071 0.75752 0.96798 0.0
C1043 C 0.59209 0.7597 0.98765 0.0
C1044 C 0.57947 0.73711 0.00571 0.0
C1045 C 0.58559 0.71211 0.0032 0.0
C1046 C 0.6044 0.70995 0.98348 0.0
H1047 H 0.6123 0.69533 0.89894 0.0
H1048 H 0.60811 0.6821 0.93486 0.0
H1049 H 0.59735 0.71202 0.92348 0.0
H1050 H 0.62029 0.77533 0.95456 0.0
H1051 H 0.58783 0.77927 0.98889 0.0
loop_
_geom_bond_atom_site_label_1
_geom_bond_atom_site_label_2
_geom_bond_distance
_geom_bond_site_symmetry_2
_ccdc_geom_bond_type
H0 C7 0.929 . S
H1 C10 0.930 . S
H2 C12 0.929 . S
H3 C4 0.969 . S
C4 H3 0.969 . S
C4 O5 1.550 . S
C4 H6 0.973 . S
O5 C4 1.550 . S
O5 C11 1.412 . S
H6 C4 0.973 . S
C7 H0 0.929 . S
C7 C8 1.400 . S
C7 C9 1.364 . S
C8 C7 1.400 . S
C8 C12 1.377 . S
C9 C7 1.364 . S
C9 C10 1.374 . S
C10 H1 0.930 . S
C10 C9 1.374 . S
C10 C11 1.383 . S
C11 O5 1.412 . S
C11 C10 1.383 . S
C11 C12 1.394 . S
C12 H2 0.929 . S
C12 C8 1.377 . S
C12 C11 1.394 . S
H13 C20 0.929 . S
H14 C23 0.930 . S
H15 C25 0.929 . S
H16 C17 0.969 . S
C17 H16 0.969 . S
C17 O18 1.550 . S
C17 H19 0.973 . S
O18 C17 1.550 . S
O18 C24 1.412 . S
H19 C17 0.973 . S
C20 H13 0.929 . S
C20 C21 1.400 . S
C20 C22 1.364 . S
C21 C20 1.400 . S
C21 C25 1.377 . S
C22 C20 1.364 . S
C22 C23 1.374 . S
C23 H14 0.930 . S
C23 C22 1.374 . S
C23 C24 1.383 . S
C24 O18 1.412 . S
C24 C23 1.383 . S
C24 C25 1.394 . S
C25 H15 0.929 . S
C25 C21 1.377 . S
C25 C24 1.394 . S
H26 C33 0.929 . S
H27 C36 0.930 . S
H28 C38 0.929 . S
H29 C30 0.969 . S
C30 H29 0.969 . S
C30 O31 1.550 . S
C30 H32 0.973 . S
O31 C30 1.550 . S
O31 C37 1.412 . S
H32 C30 0.973 . S
C33 H26 0.929 . S
C33 C34 1.400 . S
C33 C35 1.364 . S
C34 C33 1.400 . S
C34 C38 1.377 . S
C35 C33 1.364 . S
C35 C36 1.374 . S
C36 H27 0.930 . S
C36 C35 1.374 . S
C36 C37 1.383 . S
C37 O31 1.412 . S
C37 C36 1.383 . S
C37 C38 1.394 . S
C38 H28 0.929 . S
C38 C34 1.377 . S
C38 C37 1.394 . S
H39 C46 0.929 . S
H40 C49 0.930 . S
H41 C51 0.929 . S
H42 C43 0.969 . S
C43 H42 0.969 . S
C43 O44 1.550 . S
C43 H45 0.973 . S
O44 C43 1.550 . S
O44 C50 1.412 . S
H45 C43 0.973 . S
C46 H39 0.929 . S
C46 C47 1.400 . S
C46 C48 1.364 . S
C47 C46 1.400 . S
C47 C51 1.377 . S
C48 C46 1.364 . S
C48 C49 1.374 . S
C49 H40 0.930 . S
C49 C48 1.374 . S
C49 C50 1.383 . S
C50 O44 1.412 . S
C50 C49 1.383 . S
C50 C51 1.394 . S
C51 H41 0.929 . S
C51 C47 1.377 . S
C51 C50 1.394 . S
H52 C59 0.929 . S
H53 C62 0.930 . S
H54 C64 0.929 . S
H55 C56 0.969 . S
C56 H55 0.969 . S
C56 O57 1.550 . S
C56 H58 0.973 . S
O57 C56 1.550 . S
O57 C63 1.412 . S
H58 C56 0.973 . S
C59 H52 0.929 . S
C59 C60 1.400 . S
C59 C61 1.364 . S
C60 C59 1.400 . S
C60 C64 1.377 . S
C61 C59 1.364 . S
C61 C62 1.374 . S
C62 H53 0.930 . S
C62 C61 1.374 . S
C62 C63 1.383 . S
C63 O57 1.412 . S
C63 C62 1.383 . S
C63 C64 1.394 . S
C64 H54 0.929 . S
C64 C60 1.377 . S
C64 C63 1.394 . S
H65 C72 0.929 . S
H66 C75 0.930 . S
H67 C77 0.929 . S
H68 C69 0.969 . S
C69 H68 0.969 . S
C69 O70 1.550 . S
C69 H71 0.973 . S
O70 C69 1.550 . S
O70 C76 1.412 . S
H71 C69 0.973 . S
C72 H65 0.929 . S
C72 C73 1.400 . S
C72 C74 1.364 . S
C73 C72 1.400 . S
C73 C77 1.377 . S
C74 C72 1.364 . S
C74 C75 1.374 . S
C75 H66 0.930 . S
C75 C74 1.374 . S
C75 C76 1.383 . S
C76 O70 1.412 . S
C76 C75 1.383 . S
C76 C77 1.394 . S
C77 H67 0.929 . S
C77 C73 1.377 . S
C77 C76 1.394 . S
H78 C85 0.929 . S
H79 C88 0.930 . S
H80 C90 0.929 . S
H81 C82 0.969 . S
C82 H81 0.969 . S
C82 O83 1.550 . S
C82 H84 0.973 . S
O83 C82 1.550 . S
O83 C89 1.412 . S
H84 C82 0.973 . S
C85 H78 0.929 . S
C85 C86 1.400 . S
C85 C87 1.364 . S
C86 C85 1.400 . S
C86 C90 1.377 . S
C87 C85 1.364 . S
C87 C88 1.374 . S
C88 H79 0.930 . S
C88 C87 1.374 . S
C88 C89 1.383 . S
C89 O83 1.412 . S
C89 C88 1.383 . S
C89 C90 1.394 . S
C90 H80 0.929 . S
C90 C86 1.377 . S
C90 C89 1.394 . S
H91 C98 0.929 . S
H92 C101 0.930 . S
H93 C103 0.929 . S
H94 C95 0.969 . S
C95 H94 0.969 . S
C95 O96 1.550 . S
C95 H97 0.973 . S
O96 C95 1.550 . S
O96 C102 1.412 . S
H97 C95 0.973 . S
C98 H91 0.929 . S
C98 C99 1.400 . S
C98 C100 1.364 . S
C99 C98 1.400 . S
C99 C103 1.377 . S
C100 C98 1.364 . S
C100 C101 1.374 . S
C101 H92 0.930 . S
C101 C100 1.374 . S
C101 C102 1.383 . S
C102 O96 1.412 . S
C102 C101 1.383 . S
C102 C103 1.394 . S
C103 H93 0.929 . S
C103 C99 1.377 . S
C103 C102 1.394 . S
C104 O106 1.247 . S
C104 O108 1.258 . S
C105 O112 1.247 . S
C105 O113 1.258 . S
O106 C104 1.247 . S
O106 Zn107 2.028 . S
Zn107 O106 2.028 . S
Zn107 O111 2.035 1_655 S
Zn107 O113 2.035 1_655 S
Zn107 O114 2.028 . S
O108 C104 1.258 . S
O108 Zn109 2.035 1_655 S
Zn109 O108 2.035 1_455 S
Zn109 O110 2.028 . S
Zn109 O112 2.028 . S
Zn109 O115 2.035 1_455 S
O110 Zn109 2.028 . S
O110 C116 1.247 . S
O111 Zn107 2.035 1_455 S
O111 C116 1.258 . S
O112 C105 1.247 . S
O112 Zn109 2.028 . S
O113 C105 1.258 . S
O113 Zn107 2.035 1_455 S
O114 Zn107 2.028 . S
O114 C117 1.247 . S
O115 Zn109 2.035 1_655 S
O115 C117 1.258 . S
C116 O110 1.247 . S
C116 O111 1.258 . S
C117 O114 1.247 . S
C117 O115 1.258 . S
C118 O120 1.247 . S
C118 O122 1.258 . S
C119 O126 1.247 . S
C119 O127 1.258 . S
O120 C118 1.247 . S
O120 Zn121 2.028 1_655 S
Zn121 O120 2.028 1_455 S
Zn121 O125 2.035 . S
Zn121 O127 2.035 . S
Zn121 O128 2.028 1_455 S
O122 C118 1.258 . S
O122 Zn123 2.035 1_655 S
Zn123 O122 2.035 1_455 S
Zn123 O124 2.028 . S
Zn123 O126 2.028 . S
Zn123 O129 2.035 . S
O124 Zn123 2.028 . S
O124 C130 1.247 . S
O125 Zn121 2.035 . S
O125 C130 1.258 . S
O126 C119 1.247 . S
O126 Zn123 2.028 . S
O127 C119 1.258 . S
O127 Zn121 2.035 . S
O128 Zn121 2.028 1_655 S
O128 C131 1.247 . S
O129 Zn123 2.035 . S
O129 C131 1.258 1_455 S
C130 O124 1.247 . S
C130 O125 1.258 . S
C131 O128 1.247 . S
C131 O129 1.258 1_655 S
C132 O134 1.238 1_565 S
C132 O136 1.248 1_565 S
C133 O140 1.247 . S
C133 O141 1.258 . S
O134 C132 1.238 1_545 S
O134 Zn135 2.028 . S
Zn135 O134 2.028 . S
Zn135 O139 2.035 . S
Zn135 O141 2.035 . S
Zn135 O142 2.028 . S
O136 C132 1.248 1_545 S
O136 Zn137 2.035 . S
Zn137 O136 2.035 . S
Zn137 O138 2.028 . S
Zn137 O140 2.028 . S
Zn137 O143 2.035 . S
O138 Zn137 2.028 . S
O138 C144 1.247 . S
O139 Zn135 2.035 . S
O139 C144 1.258 . S
O140 C133 1.247 . S
O140 Zn137 2.028 . S
O141 C133 1.258 . S
O141 Zn135 2.035 . S
O142 Zn135 2.028 . S
O142 C145 1.243 1_545 S
O143 Zn137 2.035 . S
O143 C145 1.255 1_545 S
C144 O138 1.247 . S
C144 O139 1.258 . S
C145 O142 1.243 1_565 S
C145 O143 1.255 1_565 S
C146 O148 1.247 . S
C146 O150 1.258 . S
C147 O154 1.247 . S
C147 O155 1.258 . S
O148 C146 1.247 . S
O148 Zn149 2.028 . S
Zn149 O148 2.028 . S
Zn149 O153 2.035 . S
Zn149 O155 2.035 . S
Zn149 O156 2.028 . S
O150 C146 1.258 . S
O150 Zn151 2.035 . S
Zn151 O150 2.035 . S
Zn151 O152 2.028 . S
Zn151 O154 2.028 . S
Zn151 O157 2.035 . S
O152 Zn151 2.028 . S
O152 C158 1.247 . S
O153 Zn149 2.035 . S
O153 C158 1.258 . S
O154 C147 1.247 . S
O154 Zn151 2.028 . S
O155 C147 1.258 . S
O155 Zn149 2.035 . S
O156 Zn149 2.028 . S
O156 C159 1.247 . S
O157 Zn151 2.035 . S
O157 C159 1.258 . S
C158 O152 1.247 . S
C158 O153 1.258 . S
C159 O156 1.247 . S
C159 O157 1.258 . S
C160 O162 1.247 . S
C160 O164 1.258 . S
C161 O168 1.247 . S
C161 O169 1.258 . S
O162 C160 1.247 . S
O162 Zn163 2.028 . S
Zn163 O162 2.028 . S
Zn163 O167 2.035 1_565 S
Zn163 O169 2.035 1_565 S
Zn163 O170 2.028 . S
O164 C160 1.258 . S
O164 Zn165 2.035 1_565 S
Zn165 O164 2.035 1_545 S
Zn165 O166 2.028 . S
Zn165 O168 2.028 . S
Zn165 O171 2.035 1_545 S
O166 Zn165 2.028 . S
O166 C172 1.247 . S
O167 Zn163 2.035 1_545 S
O167 C172 1.258 . S
O168 C161 1.247 . S
O168 Zn165 2.028 . S
O169 C161 1.258 . S
O169 Zn163 2.035 1_545 S
O170 Zn163 2.028 . S
O170 C173 1.247 . S
O171 Zn165 2.035 1_565 S
O171 C173 1.258 . S
C172 O166 1.247 . S
C172 O167 1.258 . S
C173 O170 1.247 . S
C173 O171 1.258 . S
C174 O176 1.247 . S
C174 O178 1.258 . S
C175 O182 1.247 . S
C175 O183 1.258 . S
O176 C174 1.247 . S
O176 Zn177 2.028 . S
Zn177 O176 2.028 . S
Zn177 O181 2.035 . S
Zn177 O183 2.035 1_554 S
Zn177 O184 2.028 1_554 S
O178 C174 1.258 . S
O178 Zn179 2.035 1_554 S
Zn179 O178 2.035 1_556 S
Zn179 O180 2.028 1_556 S
Zn179 O182 2.028 . S
Zn179 O185 2.035 . S
O180 Zn179 2.028 1_554 S
O180 C186 1.247 . S
O181 Zn177 2.035 . S
O181 C186 1.258 . S
O182 C175 1.247 . S
O182 Zn179 2.028 . S
O183 C175 1.258 . S
O183 Zn177 2.035 1_556 S
O184 Zn177 2.028 1_556 S
O184 C187 1.247 . S
O185 Zn179 2.035 . S
O185 C187 1.258 . S
C186 O180 1.247 . S
C186 O181 1.258 . S
C187 O184 1.247 . S
C187 O185 1.258 . S
H188 C196 0.929 . S
H189 C198 0.930 . S
H190 C200 0.930 . S
H191 C203 0.929 . S
H192 C206 0.930 . S
H193 C208 0.960 . S
H194 C208 0.960 . S
H195 C208 0.960 . S
C196 H188 0.929 . S
C196 C197 1.377 . S
C196 C198 1.384 . S
C197 C196 1.377 . S
C197 C203 1.390 . S
C198 H189 0.930 . S
C198 C196 1.384 . S
C198 C199 1.372 . S
C199 C198 1.372 . S
C199 C200 1.400 . S
C199 C204 1.490 . S
C200 H190 0.930 . S
C200 C199 1.400 . S
C200 C203 1.386 . S
H201 C217 0.930 . S
H202 C218 0.931 . S
C203 H191 0.929 . S
C203 C197 1.390 . S
C203 C200 1.386 . S
C204 C199 1.490 . S
C204 C206 1.395 . S
C204 C207 1.403 . S
H205 C211 0.930 . S
C206 H192 0.930 . S
C206 C204 1.395 . S
C206 C209 1.403 . S
C207 C204 1.403 . S
C207 C208 1.524 . S
C207 C211 1.400 . S
C208 H193 0.960 . S
C208 H194 0.960 . S
C208 H195 0.960 . S
C208 C207 1.524 . S
C209 C206 1.403 . S
C209 C210 1.392 . S
C209 C213 1.495 . S
C210 C209 1.392 . S
C210 C211 1.385 . S
C210 C212 1.478 . S
C211 H205 0.930 . S
C211 C207 1.400 . S
C211 C210 1.385 . S
C212 C210 1.478 . S
C212 C214 1.381 . S
C212 C218 1.383 . S
C213 C209 1.495 . S
C213 H219 0.959 . S
C213 H220 0.961 . S
C213 H221 0.960 . S
C214 C212 1.381 . S
C214 C215 1.394 . S
C214 H222 0.930 . S
C215 C214 1.394 . S
C215 C216 1.383 . S
C215 H223 0.929 . S
C216 C215 1.383 . S
C216 C217 1.377 . S
C217 H201 0.930 . S
C217 C216 1.377 . S
C217 C218 1.379 . S
C218 H202 0.931 . S
C218 C212 1.383 . S
C218 C217 1.379 . S
H219 C213 0.959 . S
H220 C213 0.961 . S
H221 C213 0.960 . S
H222 C214 0.930 . S
H223 C215 0.929 . S
H224 C232 0.929 . S
H225 C234 0.930 . S
H226 C236 0.930 . S
H227 C239 0.929 . S
H228 C242 0.930 . S
H229 C244 0.960 . S
H230 C244 0.960 . S
H231 C244 0.960 . S
C232 H224 0.929 . S
C232 C233 1.377 . S
C232 C234 1.384 . S
C233 C232 1.377 . S
C233 C239 1.390 . S
C234 H225 0.930 . S
C234 C232 1.384 . S
C234 C235 1.372 . S
C235 C234 1.372 . S
C235 C236 1.400 . S
C235 C240 1.490 . S
C236 H226 0.930 . S
C236 C235 1.400 . S
C236 C239 1.386 . S
H237 C253 0.930 . S
H238 C254 0.931 . S
C239 H227 0.929 . S
C239 C233 1.390 . S
C239 C236 1.386 . S
C240 C235 1.490 . S
C240 C242 1.395 . S
C240 C243 1.403 . S
H241 C247 0.930 . S
C242 H228 0.930 . S
C242 C240 1.395 . S
C242 C245 1.403 . S
C243 C240 1.403 . S
C243 C244 1.524 . S
C243 C247 1.400 . S
C244 H229 0.960 . S
C244 H230 0.960 . S
C244 H231 0.960 . S
C244 C243 1.524 . S
C245 C242 1.403 . S
C245 C246 1.392 . S
C245 C249 1.495 . S
C246 C245 1.392 . S
C246 C247 1.385 . S
C246 C248 1.478 . S
C247 H241 0.930 . S
C247 C243 1.400 . S
C247 C246 1.385 . S
C248 C246 1.478 . S
C248 C250 1.381 . S
C248 C254 1.383 . S
C249 C245 1.495 . S
C249 H255 0.959 . S
C249 H256 0.961 . S
C249 H257 0.960 . S
C250 C248 1.381 . S
C250 C251 1.394 . S
C250 H258 0.930 . S
C251 C250 1.394 . S
C251 C252 1.383 . S
C251 H259 0.929 . S
C252 C251 1.383 . S
C252 C253 1.377 . S
C253 H237 0.930 . S
C253 C252 1.377 . S
C253 C254 1.379 . S
C254 H238 0.931 . S
C254 C248 1.383 . S
C254 C253 1.379 . S
H255 C249 0.959 . S
H256 C249 0.961 . S
H257 C249 0.960 . S
H258 C250 0.930 . S
H259 C251 0.929 . S
H260 C268 0.929 . S
H261 C270 0.930 . S
H262 C272 0.930 . S
H263 C275 0.929 . S
H264 C278 0.930 . S
H265 C280 0.960 . S
H266 C280 0.960 . S
H267 C280 0.960 . S
C268 H260 0.929 . S
C268 C269 1.377 . S
C268 C270 1.384 . S
C269 C268 1.377 . S
C269 C275 1.390 . S
C270 H261 0.930 . S
C270 C268 1.384 . S
C270 C271 1.372 . S
C271 C270 1.372 . S
C271 C272 1.400 . S
C271 C276 1.490 . S
C272 H262 0.930 . S
C272 C271 1.400 . S
C272 C275 1.386 . S
H273 C289 0.930 . S
H274 C290 0.931 . S
C275 H263 0.929 . S
C275 C269 1.390 . S
C275 C272 1.386 . S
C276 C271 1.490 . S
C276 C278 1.395 . S
C276 C279 1.403 . S
H277 C283 0.930 . S
C278 H264 0.930 . S
C278 C276 1.395 . S
C278 C281 1.403 . S
C279 C276 1.403 . S
C279 C280 1.524 . S
C279 C283 1.400 . S
C280 H265 0.960 . S
C280 H266 0.960 . S
C280 H267 0.960 . S
C280 C279 1.524 . S
C281 C278 1.403 . S
C281 C282 1.392 . S
C281 C285 1.495 . S
C282 C281 1.392 . S
C282 C283 1.385 . S
C282 C284 1.478 . S
C283 H277 0.930 . S
C283 C279 1.400 . S
C283 C282 1.385 . S
C284 C282 1.478 . S
C284 C286 1.381 . S
C284 C290 1.383 . S
C285 C281 1.495 . S
C285 H291 0.959 . S
C285 H292 0.961 . S
C285 H293 0.960 . S
C286 C284 1.381 . S
C286 C287 1.394 . S
C286 H294 0.930 . S
C287 C286 1.394 . S
C287 C288 1.383 . S
C287 H295 0.929 . S
C288 C287 1.383 . S
C288 C289 1.377 . S
C289 H273 0.930 . S
C289 C288 1.377 . S
C289 C290 1.379 . S
C290 H274 0.931 . S
C290 C284 1.383 . S
C290 C289 1.379 . S
H291 C285 0.959 . S
H292 C285 0.961 . S
H293 C285 0.960 . S
H294 C286 0.930 . S
H295 C287 0.929 . S
H296 C304 0.929 . S
H297 C306 0.930 . S
H298 C308 0.930 . S
H299 C311 0.929 . S
H300 C314 0.930 . S
H301 C316 0.960 . S
H302 C316 0.960 . S
H303 C316 0.960 . S
C304 H296 0.929 . S
C304 C305 1.377 . S
C304 C306 1.384 . S
C305 C304 1.377 . S
C305 C311 1.390 . S
C306 H297 0.930 . S
C306 C304 1.384 . S
C306 C307 1.372 . S
C307 C306 1.372 . S
C307 C308 1.400 . S
C307 C312 1.490 . S
C308 H298 0.930 . S
C308 C307 1.400 . S
C308 C311 1.386 . S
H309 C325 0.930 . S
H310 C326 0.931 . S
C311 H299 0.929 . S
C311 C305 1.390 . S
C311 C308 1.386 . S
C312 C307 1.490 . S
C312 C314 1.395 . S
C312 C315 1.403 . S
H313 C319 0.930 . S
C314 H300 0.930 . S
C314 C312 1.395 . S
C314 C317 1.403 . S
C315 C312 1.403 . S
C315 C316 1.524 . S
C315 C319 1.400 . S
C316 H301 0.960 . S
C316 H302 0.960 . S
C316 H303 0.960 . S
C316 C315 1.524 . S
C317 C314 1.403 . S
C317 C318 1.392 . S
C317 C321 1.495 . S
C318 C317 1.392 . S
C318 C319 1.385 . S
C318 C320 1.478 . S
C319 H313 0.930 . S
C319 C315 1.400 . S
C319 C318 1.385 . S
C320 C318 1.478 . S
C320 C322 1.381 . S
C320 C326 1.383 . S
C321 C317 1.495 . S
C321 H327 0.959 . S
C321 H328 0.961 . S
C321 H329 0.960 . S
C322 C320 1.381 . S
C322 C323 1.394 . S
C322 H330 0.930 . S
C323 C322 1.394 . S
C323 C324 1.383 . S
C323 H331 0.929 . S
C324 C323 1.383 . S
C324 C325 1.377 . S
C325 H309 0.930 . S
C325 C324 1.377 . S
C325 C326 1.379 . S
C326 H310 0.931 . S
C326 C320 1.383 . S
C326 C325 1.379 . S
H327 C321 0.959 . S
H328 C321 0.961 . S
H329 C321 0.960 . S
H330 C322 0.930 . S
H331 C323 0.929 . S
H332 C340 0.929 . S
H333 C342 0.930 . S
H334 C344 0.930 . S
H335 C347 0.929 . S
H336 C350 0.930 . S
H337 C352 0.960 . S
H338 C352 0.960 . S
H339 C352 0.960 . S
C340 H332 0.929 . S
C340 C341 1.377 . S
C340 C342 1.384 . S
C341 C340 1.377 . S
C341 C347 1.390 . S
C342 H333 0.930 . S
C342 C340 1.384 . S
C342 C343 1.372 . S
C343 C342 1.372 . S
C343 C344 1.400 . S
C343 C348 1.490 . S
C344 H334 0.930 . S
C344 C343 1.400 . S
C344 C347 1.386 . S
H345 C361 0.930 . S
H346 C362 0.931 . S
C347 H335 0.929 . S
C347 C341 1.390 . S
C347 C344 1.386 . S
C348 C343 1.490 . S
C348 C350 1.395 . S
C348 C351 1.403 . S
H349 C355 0.930 . S
C350 H336 0.930 . S
C350 C348 1.395 . S
C350 C353 1.403 . S
C351 C348 1.403 . S
C351 C352 1.524 . S
C351 C355 1.400 . S
C352 H337 0.960 . S
C352 H338 0.960 . S
C352 H339 0.960 . S
C352 C351 1.524 . S
C353 C350 1.403 . S
C353 C354 1.392 . S
C353 C357 1.495 . S
C354 C353 1.392 . S
C354 C355 1.385 . S
C354 C356 1.478 . S
C355 H349 0.930 . S
C355 C351 1.400 . S
C355 C354 1.385 . S
C356 C354 1.478 . S
C356 C358 1.381 . S
C356 C362 1.383 . S
C357 C353 1.495 . S
C357 H363 0.959 . S
C357 H364 0.961 . S
C357 H365 0.960 . S
C358 C356 1.381 . S
C358 C359 1.394 . S
C358 H366 0.930 . S
C359 C358 1.394 . S
C359 C360 1.383 . S
C359 H367 0.929 . S
C360 C359 1.383 . S
C360 C361 1.377 . S
C361 H345 0.930 . S
C361 C360 1.377 . S
C361 C362 1.379 . S
C362 H346 0.931 . S
C362 C356 1.383 . S
C362 C361 1.379 . S
H363 C357 0.959 . S
H364 C357 0.961 . S
H365 C357 0.960 . S
H366 C358 0.930 . S
H367 C359 0.929 . S
H368 C376 0.929 . S
H369 C378 0.930 . S
H370 C380 0.930 . S
H371 C383 0.929 . S
H372 C386 0.930 . S
H373 C388 0.960 . S
H374 C388 0.960 . S
H375 C388 0.960 . S
C376 H368 0.929 . S
C376 C377 1.377 . S
C376 C378 1.384 . S
C377 C376 1.377 . S
C377 C383 1.390 . S
C378 H369 0.930 . S
C378 C376 1.384 . S
C378 C379 1.372 . S
C379 C378 1.372 . S
C379 C380 1.400 . S
C379 C384 1.490 . S
C380 H370 0.930 . S
C380 C379 1.400 . S
C380 C383 1.386 . S
H381 C397 0.930 . S
H382 C398 0.931 . S
C383 H371 0.929 . S
C383 C377 1.390 . S
C383 C380 1.386 . S
C384 C379 1.490 . S
C384 C386 1.395 . S
C384 C387 1.403 . S
H385 C391 0.930 . S
C386 H372 0.930 . S
C386 C384 1.395 . S
C386 C389 1.403 . S
C387 C384 1.403 . S
C387 C388 1.524 . S
C387 C391 1.400 . S
C388 H373 0.960 . S
C388 H374 0.960 . S
C388 H375 0.960 . S
C388 C387 1.524 . S
C389 C386 1.403 . S
C389 C390 1.392 . S
C389 C393 1.495 . S
C390 C389 1.392 . S
C390 C391 1.385 . S
C390 C392 1.478 . S
C391 H385 0.930 . S
C391 C387 1.400 . S
C391 C390 1.385 . S
C392 C390 1.478 . S
C392 C394 1.381 1_556 S
C392 C398 1.383 . S
C393 C389 1.495 . S
C393 H399 0.959 . S
C393 H400 0.961 . S
C393 H401 0.960 . S
C394 C392 1.381 1_554 S
C394 C395 1.394 . S
C394 H402 0.930 . S
C395 C394 1.394 . S
C395 C396 1.383 . S
C395 H403 0.929 . S
C396 C395 1.383 . S
C396 C397 1.377 . S
C397 H381 0.930 . S
C397 C396 1.377 . S
C397 C398 1.379 1_554 S
C398 H382 0.931 . S
C398 C392 1.383 . S
C398 C397 1.379 1_556 S
H399 C393 0.959 . S
H400 C393 0.961 . S
H401 C393 0.960 . S
H402 C394 0.930 . S
H403 C395 0.929 . S
H404 C412 0.929 . S
H405 C414 0.930 . S
H406 C416 0.930 . S
H407 C419 0.929 . S
H408 C422 0.930 . S
H409 C424 0.960 . S
H410 C424 0.960 . S
H411 C424 0.960 . S
C412 H404 0.929 . S
C412 C413 1.377 . S
C412 C414 1.384 . S
C413 C412 1.377 . S
C413 C419 1.390 . S
C414 H405 0.930 . S
C414 C412 1.384 . S
C414 C415 1.372 . S
C415 C414 1.372 . S
C415 C416 1.400 . S
C415 C420 1.490 . S
C416 H406 0.930 . S
C416 C415 1.400 . S
C416 C419 1.386 . S
H417 C433 0.930 . S
H418 C434 0.931 . S
C419 H407 0.929 . S
C419 C413 1.390 . S
C419 C416 1.386 . S
C420 C415 1.490 . S
C420 C422 1.395 . S
C420 C423 1.403 . S
H421 C427 0.930 . S
C422 H408 0.930 . S
C422 C420 1.395 . S
C422 C425 1.403 . S
C423 C420 1.403 . S
C423 C424 1.524 . S
C423 C427 1.400 . S
C424 H409 0.960 . S
C424 H410 0.960 . S
C424 H411 0.960 . S
C424 C423 1.524 . S
C425 C422 1.403 . S
C425 C426 1.392 . S
C425 C429 1.495 . S
C426 C425 1.392 . S
C426 C427 1.385 . S
C426 C428 1.478 . S
C427 H421 0.930 . S
C427 C423 1.400 . S
C427 C426 1.385 . S
C428 C426 1.478 . S
C428 C430 1.381 . S
C428 C434 1.383 . S
C429 C425 1.495 . S
C429 H435 0.959 . S
C429 H436 0.961 . S
C429 H437 0.960 . S
C430 C428 1.381 . S
C430 C431 1.394 . S
C430 H438 0.930 . S
C431 C430 1.394 . S
C431 C432 1.383 . S
C431 H439 0.929 . S
C432 C431 1.383 . S
C432 C433 1.377 . S
C433 H417 0.930 . S
C433 C432 1.377 . S
C433 C434 1.379 . S
C434 H418 0.931 . S
C434 C428 1.383 . S
C434 C433 1.379 . S
H435 C429 0.959 . S
H436 C429 0.961 . S
H437 C429 0.960 . S
H438 C430 0.930 . S
H439 C431 0.929 . S
H440 C448 0.929 . S
H441 C450 0.930 . S
H442 C452 0.930 . S
H443 C455 0.929 . S
H444 C458 0.930 . S
H445 C460 0.960 . S
H446 C460 0.960 . S
H447 C460 0.960 . S
C448 H440 0.929 . S
C448 C449 1.377 . S
C448 C450 1.384 . S
C449 C448 1.377 . S
C449 C455 1.390 . S
C450 H441 0.930 . S
C450 C448 1.384 . S
C450 C451 1.372 . S
C451 C450 1.372 . S
C451 C452 1.400 . S
C451 C456 1.490 . S
C452 H442 0.930 . S
C452 C451 1.400 . S
C452 C455 1.386 . S
H453 C469 0.930 . S
H454 C470 0.931 . S
C455 H443 0.929 . S
C455 C449 1.390 . S
C455 C452 1.386 . S
C456 C451 1.490 . S
C456 C458 1.395 . S
C456 C459 1.403 . S
H457 C463 0.930 . S
C458 H444 0.930 . S
C458 C456 1.395 . S
C458 C461 1.403 . S
C459 C456 1.403 . S
C459 C460 1.524 . S
C459 C463 1.400 . S
C460 H445 0.960 . S
C460 H446 0.960 . S
C460 H447 0.960 . S
C460 C459 1.524 . S
C461 C458 1.403 . S
C461 C462 1.392 . S
C461 C465 1.495 . S
C462 C461 1.392 . S
C462 C463 1.385 . S
C462 C464 1.478 . S
C463 H457 0.930 . S
C463 C459 1.400 . S
C463 C462 1.385 . S
C464 C462 1.478 . S
C464 C466 1.381 . S
C464 C470 1.383 . S
C465 C461 1.495 . S
C465 H471 0.959 . S
C465 H472 0.961 . S
C465 H473 0.960 . S
C466 C464 1.381 . S
C466 C467 1.394 . S
C466 H474 0.930 . S
C467 C466 1.394 . S
C467 C468 1.383 . S
C467 H475 0.929 . S
C468 C467 1.383 . S
C468 C469 1.377 . S
C469 H453 0.930 . S
C469 C468 1.377 . S
C469 C470 1.379 . S
C470 H454 0.931 . S
C470 C464 1.383 . S
C470 C469 1.379 . S
H471 C465 0.959 . S
H472 C465 0.961 . S
H473 C465 0.960 . S
H474 C466 0.930 . S
H475 C467 0.929 . S
H476 C484 0.929 . S
H477 C486 0.930 . S
H478 C488 0.930 . S
H479 C491 0.929 . S
H480 C494 0.930 . S
H481 C496 0.960 . S
H482 C496 0.960 . S
H483 C496 0.960 . S
C484 H476 0.929 . S
C484 C485 1.377 . S
C484 C486 1.384 . S
C485 C484 1.377 . S
C485 C491 1.390 . S
C486 H477 0.930 . S
C486 C484 1.384 . S
C486 C487 1.372 . S
C487 C486 1.372 . S
C487 C488 1.400 . S
C487 C492 1.490 . S
C488 H478 0.930 . S
C488 C487 1.400 . S
C488 C491 1.386 . S
H489 C505 0.930 . S
H490 C506 0.931 . S
C491 H479 0.929 . S
C491 C485 1.390 . S
C491 C488 1.386 . S
C492 C487 1.490 . S
C492 C494 1.395 . S
C492 C495 1.403 . S
H493 C499 0.930 . S
C494 H480 0.930 . S
C494 C492 1.395 . S
C494 C497 1.403 . S
C495 C492 1.403 . S
C495 C496 1.524 . S
C495 C499 1.400 . S
C496 H481 0.960 . S
C496 H482 0.960 . S
C496 H483 0.960 . S
C496 C495 1.524 . S
C497 C494 1.403 . S
C497 C498 1.392 . S
C497 C501 1.495 . S
C498 C497 1.392 . S
C498 C499 1.385 . S
C498 C500 1.478 . S
C499 H493 0.930 . S
C499 C495 1.400 . S
C499 C498 1.385 . S
C500 C498 1.478 . S
C500 C502 1.381 . S
C500 C506 1.383 . S
C501 C497 1.495 . S
C501 H507 0.959 . S
C501 H508 0.961 . S
C501 H509 0.960 . S
C502 C500 1.381 . S
C502 C503 1.394 . S
C502 H510 0.930 . S
C503 C502 1.394 . S
C503 C504 1.383 . S
C503 H511 0.929 . S
C504 C503 1.383 . S
C504 C505 1.377 . S
C505 H489 0.930 . S
C505 C504 1.377 . S
C505 C506 1.379 . S
C506 H490 0.931 . S
C506 C500 1.383 . S
C506 C505 1.379 . S
H507 C501 0.959 . S
H508 C501 0.961 . S
H509 C501 0.960 . S
H510 C502 0.930 . S
H511 C503 0.929 . S
H512 C520 0.929 . S
H513 C522 0.930 . S
H514 C524 0.930 . S
H515 C527 0.929 . S
H516 C530 0.930 . S
H517 C532 0.960 . S
H518 C532 0.960 . S
H519 C532 0.960 . S
C520 H512 0.929 . S
C520 C521 1.377 . S
C520 C522 1.384 . S
C521 C520 1.377 . S
C521 C527 1.390 . S
C522 H513 0.930 . S
C522 C520 1.384 . S
C522 C523 1.372 . S
C523 C522 1.372 . S
C523 C524 1.400 . S
C523 C528 1.490 . S
C524 H514 0.930 . S
C524 C523 1.400 . S
C524 C527 1.386 . S
H525 C541 0.930 . S
H526 C542 0.931 . S
C527 H515 0.929 . S
C527 C521 1.390 . S
C527 C524 1.386 . S
C528 C523 1.490 . S
C528 C530 1.395 . S
C528 C531 1.403 . S
H529 C535 0.930 . S
C530 H516 0.930 . S
C530 C528 1.395 . S
C530 C533 1.403 . S
C531 C528 1.403 . S
C531 C532 1.524 . S
C531 C535 1.400 . S
C532 H517 0.960 . S
C532 H518 0.960 . S
C532 H519 0.960 . S
C532 C531 1.524 . S
C533 C530 1.403 . S
C533 C534 1.392 . S
C533 C537 1.495 . S
C534 C533 1.392 . S
C534 C535 1.385 . S
C534 C536 1.478 . S
C535 H529 0.930 . S
C535 C531 1.400 . S
C535 C534 1.385 . S
C536 C534 1.478 . S
C536 C538 1.381 . S
C536 C542 1.383 . S
C537 C533 1.495 . S
C537 H543 0.959 . S
C537 H544 0.961 . S
C537 H545 0.960 . S
C538 C536 1.381 . S
C538 C539 1.394 . S
C538 H546 0.930 . S
C539 C538 1.394 . S
C539 C540 1.383 . S
C539 H547 0.929 . S
C540 C539 1.383 . S
C540 C541 1.377 . S
C541 H525 0.930 . S
C541 C540 1.377 . S
C541 C542 1.379 . S
C542 H526 0.931 . S
C542 C536 1.383 . S
C542 C541 1.379 . S
H543 C537 0.959 . S
H544 C537 0.961 . S
H545 C537 0.960 . S
H546 C538 0.930 . S
H547 C539 0.929 . S
H548 C556 0.929 . S
H549 C558 0.930 . S
H550 C560 0.930 . S
H551 C563 0.929 . S
H552 C566 0.930 . S
H553 C568 0.960 . S
H554 C568 0.960 . S
H555 C568 0.960 . S
C556 H548 0.929 . S
C556 C557 1.377 . S
C556 C558 1.384 . S
C557 C556 1.377 . S
C557 C563 1.390 . S
C558 H549 0.930 . S
C558 C556 1.384 . S
C558 C559 1.372 . S
C559 C558 1.372 . S
C559 C560 1.400 . S
C559 C564 1.490 . S
C560 H550 0.930 . S
C560 C559 1.400 . S
C560 C563 1.386 . S
H561 C577 0.930 . S
H562 C578 0.931 . S
C563 H551 0.929 . S
C563 C557 1.390 . S
C563 C560 1.386 . S
C564 C559 1.490 . S
C564 C566 1.395 . S
C564 C567 1.403 . S
H565 C571 0.930 . S
C566 H552 0.930 . S
C566 C564 1.395 . S
C566 C569 1.403 . S
C567 C564 1.403 . S
C567 C568 1.524 . S
C567 C571 1.400 . S
C568 H553 0.960 . S
C568 H554 0.960 . S
C568 H555 0.960 . S
C568 C567 1.524 . S
C569 C566 1.403 . S
C569 C570 1.392 . S
C569 C573 1.495 . S
C570 C569 1.392 . S
C570 C571 1.385 . S
C570 C572 1.478 . S
C571 H565 0.930 . S
C571 C567 1.400 . S
C571 C570 1.385 . S
C572 C570 1.478 . S
C572 C574 1.381 . S
C572 C578 1.383 . S
C573 C569 1.495 . S
C573 H579 0.959 . S
C573 H580 0.961 . S
C573 H581 0.960 . S
C574 C572 1.381 . S
C574 C575 1.394 . S
C574 H582 0.930 . S
C575 C574 1.394 . S
C575 C576 1.383 . S
C575 H583 0.929 . S
C576 C575 1.383 . S
C576 C577 1.377 . S
C577 H561 0.930 . S
C577 C576 1.377 . S
C577 C578 1.379 . S
C578 H562 0.931 . S
C578 C572 1.383 . S
C578 C577 1.379 . S
H579 C573 0.959 . S
H580 C573 0.961 . S
H581 C573 0.960 . S
H582 C574 0.930 . S
H583 C575 0.929 . S
H584 C592 0.929 . S
H585 C594 0.930 . S
H586 C596 0.930 . S
H587 C599 0.929 . S
H588 C602 0.930 . S
H589 C604 0.960 . S
H590 C604 0.960 . S
H591 C604 0.960 . S
C592 H584 0.929 . S
C592 C593 1.377 . S
C592 C594 1.384 . S
C593 C592 1.377 . S
C593 C599 1.390 . S
C594 H585 0.930 . S
C594 C592 1.384 . S
C594 C595 1.372 . S
C595 C594 1.372 . S
C595 C596 1.400 . S
C595 C600 1.490 . S
C596 H586 0.930 . S
C596 C595 1.400 . S
C596 C599 1.386 . S
H597 C613 0.930 . S
H598 C614 0.931 . S
C599 H587 0.929 . S
C599 C593 1.390 . S
C599 C596 1.386 . S
C600 C595 1.490 . S
C600 C602 1.395 . S
C600 C603 1.403 . S
H601 C607 0.930 . S
C602 H588 0.930 . S
C602 C600 1.395 . S
C602 C605 1.403 . S
C603 C600 1.403 . S
C603 C604 1.524 . S
C603 C607 1.400 . S
C604 H589 0.960 . S
C604 H590 0.960 . S
C604 H591 0.960 . S
C604 C603 1.524 . S
C605 C602 1.403 . S
C605 C606 1.392 . S
C605 C609 1.495 . S
C606 C605 1.392 . S
C606 C607 1.385 . S
C606 C608 1.478 . S
C607 H601 0.930 . S
C607 C603 1.400 . S
C607 C606 1.385 . S
C608 C606 1.478 . S
C608 C610 1.381 . S
C608 C614 1.383 . S
C609 C605 1.495 . S
C609 H615 0.959 . S
C609 H616 0.961 . S
C609 H617 0.960 . S
C610 C608 1.381 . S
C610 C611 1.394 . S
C610 H618 0.930 . S
C611 C610 1.394 . S
C611 C612 1.383 . S
C611 H619 0.929 . S
C612 C611 1.383 . S
C612 C613 1.377 . S
C613 H597 0.930 . S
C613 C612 1.377 . S
C613 C614 1.379 . S
C614 H598 0.931 . S
C614 C608 1.383 . S
C614 C613 1.379 . S
H615 C609 0.959 . S
H616 C609 0.961 . S
H617 C609 0.960 . S
H618 C610 0.930 . S
H619 C611 0.929 . S
H620 C628 0.929 . S
H621 C630 0.930 . S
H622 C632 0.930 . S
H623 C635 0.929 . S
H624 C638 0.930 . S
H625 C640 0.960 . S
H626 C640 0.960 . S
H627 C640 0.960 . S
C628 H620 0.929 . S
C628 C629 1.377 . S
C628 C630 1.384 . S
C629 C628 1.377 . S
C629 C635 1.390 . S
C630 H621 0.930 . S
C630 C628 1.384 . S
C630 C631 1.372 . S
C631 C630 1.372 . S
C631 C632 1.400 . S
C631 C636 1.490 . S
C632 H622 0.930 . S
C632 C631 1.400 . S
C632 C635 1.386 . S
H633 C649 0.930 . S
H634 C650 0.931 . S
C635 H623 0.929 . S
C635 C629 1.390 . S
C635 C632 1.386 . S
C636 C631 1.490 . S
C636 C638 1.395 . S
C636 C639 1.403 . S
H637 C643 0.930 . S
C638 H624 0.930 . S
C638 C636 1.395 . S
C638 C641 1.403 . S
C639 C636 1.403 . S
C639 C640 1.524 . S
C639 C643 1.400 . S
C640 H625 0.960 . S
C640 H626 0.960 . S
C640 H627 0.960 . S
C640 C639 1.524 . S
C641 C638 1.403 . S
C641 C642 1.392 . S
C641 C645 1.495 . S
C642 C641 1.392 . S
C642 C643 1.385 . S
C642 C644 1.478 . S
C643 H637 0.930 . S
C643 C639 1.400 . S
C643 C642 1.385 . S
C644 C642 1.478 . S
C644 C646 1.381 . S
C644 C650 1.383 . S
C645 C641 1.495 . S
C645 H651 0.959 . S
C645 H652 0.961 . S
C645 H653 0.960 . S
C646 C644 1.381 . S
C646 C647 1.394 . S
C646 H654 0.930 . S
C647 C646 1.394 . S
C647 C648 1.383 . S
C647 H655 0.929 . S
C648 C647 1.383 . S
C648 C649 1.377 . S
C649 H633 0.930 . S
C649 C648 1.377 . S
C649 C650 1.379 . S
C650 H634 0.931 . S
C650 C644 1.383 . S
C650 C649 1.379 . S
H651 C645 0.959 . S
H652 C645 0.961 . S
H653 C645 0.960 . S
H654 C646 0.930 . S
H655 C647 0.929 . S
H656 C664 0.929 . S
H657 C666 0.930 . S
H658 C668 0.930 . S
H659 C671 0.929 . S
H660 C674 0.930 . S
H661 C676 0.960 . S
H662 C676 0.960 . S
H663 C676 0.960 . S
C664 H656 0.929 . S
C664 C665 1.377 . S
C664 C666 1.384 . S
C665 C664 1.377 . S
C665 C671 1.390 . S
C666 H657 0.930 . S
C666 C664 1.384 . S
C666 C667 1.372 . S
C667 C666 1.372 . S
C667 C668 1.400 . S
C667 C672 1.490 . S
C668 H658 0.930 . S
C668 C667 1.400 . S
C668 C671 1.386 . S
H669 C685 0.930 . S
H670 C686 0.931 . S
C671 H659 0.929 . S
C671 C665 1.390 . S
C671 C668 1.386 . S
C672 C667 1.490 . S
C672 C674 1.395 . S
C672 C675 1.403 . S
H673 C679 0.930 . S
C674 H660 0.930 . S
C674 C672 1.395 . S
C674 C677 1.403 . S
C675 C672 1.403 . S
C675 C676 1.524 . S
C675 C679 1.400 . S
C676 H661 0.960 . S
C676 H662 0.960 . S
C676 H663 0.960 . S
C676 C675 1.524 . S
C677 C674 1.403 . S
C677 C678 1.392 . S
C677 C681 1.495 . S
C678 C677 1.392 . S
C678 C679 1.385 . S
C678 C680 1.478 . S
C679 H673 0.930 . S
C679 C675 1.400 . S
C679 C678 1.385 . S
C680 C678 1.478 . S
C680 C682 1.381 . S
C680 C686 1.383 . S
C681 C677 1.495 . S
C681 H687 0.959 . S
C681 H688 0.961 . S
C681 H689 0.960 . S
C682 C680 1.381 . S
C682 C683 1.394 . S
C682 H690 0.930 . S
C683 C682 1.394 . S
C683 C684 1.383 . S
C683 H691 0.929 . S
C684 C683 1.383 . S
C684 C685 1.377 . S
C685 H669 0.930 . S
C685 C684 1.377 . S
C685 C686 1.379 . S
C686 H670 0.931 . S
C686 C680 1.383 . S
C686 C685 1.379 . S
H687 C681 0.959 . S
H688 C681 0.961 . S
H689 C681 0.960 . S
H690 C682 0.930 . S
H691 C683 0.929 . S
H692 C700 0.929 . S
H693 C702 0.930 . S
H694 C704 0.930 . S
H695 C707 0.929 . S
H696 C710 0.930 . S
H697 C712 0.960 . S
H698 C712 0.960 . S
H699 C712 0.960 . S
C700 H692 0.929 . S
C700 C701 1.377 . S
C700 C702 1.384 . S
C701 C700 1.377 . S
C701 C707 1.390 . S
C702 H693 0.930 . S
C702 C700 1.384 . S
C702 C703 1.372 . S
C703 C702 1.372 . S
C703 C704 1.400 . S
C703 C708 1.490 . S
C704 H694 0.930 . S
C704 C703 1.400 . S
C704 C707 1.386 . S
H705 C721 0.930 . S
H706 C722 0.931 . S
C707 H695 0.929 . S
C707 C701 1.390 . S
C707 C704 1.386 . S
C708 C703 1.490 . S
C708 C710 1.395 . S
C708 C711 1.403 . S
H709 C715 0.930 . S
C710 H696 0.930 . S
C710 C708 1.395 . S
C710 C713 1.403 . S
C711 C708 1.403 . S
C711 C712 1.524 . S
C711 C715 1.400 . S
C712 H697 0.960 . S
C712 H698 0.960 . S
C712 H699 0.960 . S
C712 C711 1.524 . S
C713 C710 1.403 . S
C713 C714 1.392 . S
C713 C717 1.495 . S
C714 C713 1.392 . S
C714 C715 1.385 . S
C714 C716 1.478 . S
C715 H709 0.930 . S
C715 C711 1.400 . S
C715 C714 1.385 . S
C716 C714 1.478 . S
C716 C718 1.381 . S
C716 C722 1.383 . S
C717 C713 1.495 . S
C717 H723 0.959 . S
C717 H724 0.961 . S
C717 H725 0.960 . S
C718 C716 1.381 . S
C718 C719 1.394 . S
C718 H726 0.930 . S
C719 C718 1.394 . S
C719 C720 1.383 . S
C719 H727 0.929 . S
C720 C719 1.383 . S
C720 C721 1.377 . S
C721 H705 0.930 . S
C721 C720 1.377 . S
C721 C722 1.379 . S
C722 H706 0.931 . S
C722 C716 1.383 . S
C722 C721 1.379 . S
H723 C717 0.959 . S
H724 C717 0.961 . S
H725 C717 0.960 . S
H726 C718 0.930 . S
H727 C719 0.929 . S
H728 C736 0.929 . S
H729 C738 0.930 . S
H730 C740 0.930 . S
H731 C743 0.929 . S
H732 C746 0.930 . S
H733 C748 0.960 . S
H734 C748 0.960 . S
H735 C748 0.960 . S
C736 H728 0.929 . S
C736 C737 1.377 . S
C736 C738 1.384 . S
C737 C736 1.377 . S
C737 C743 1.390 . S
C738 H729 0.930 . S
C738 C736 1.384 . S
C738 C739 1.372 . S
C739 C738 1.372 . S
C739 C740 1.400 . S
C739 C744 1.490 . S
C740 H730 0.930 . S
C740 C739 1.400 . S
C740 C743 1.386 . S
H741 C757 0.930 . S
H742 C758 0.931 . S
C743 H731 0.929 . S
C743 C737 1.390 . S
C743 C740 1.386 . S
C744 C739 1.490 . S
C744 C746 1.395 . S
C744 C747 1.403 . S
H745 C751 0.930 . S
C746 H732 0.930 . S
C746 C744 1.395 . S
C746 C749 1.403 . S
C747 C744 1.403 . S
C747 C748 1.524 . S
C747 C751 1.400 . S
C748 H733 0.960 . S
C748 H734 0.960 . S
C748 H735 0.960 . S
C748 C747 1.524 . S
C749 C746 1.403 . S
C749 C750 1.392 . S
C749 C753 1.495 . S
C750 C749 1.392 . S
C750 C751 1.385 . S
C750 C752 1.478 . S
C751 H745 0.930 . S
C751 C747 1.400 . S
C751 C750 1.385 . S
C752 C750 1.478 . S
C752 C754 1.381 . S
C752 C758 1.383 . S
C753 C749 1.495 . S
C753 H759 0.959 . S
C753 H760 0.961 . S
C753 H761 0.960 . S
C754 C752 1.381 . S
C754 C755 1.394 . S
C754 H762 0.930 . S
C755 C754 1.394 . S
C755 C756 1.383 . S
C755 H763 0.929 . S
C756 C755 1.383 . S
C756 C757 1.377 . S
C757 H741 0.930 . S
C757 C756 1.377 . S
C757 C758 1.379 . S
C758 H742 0.931 . S
C758 C752 1.383 . S
C758 C757 1.379 . S
H759 C753 0.959 . S
H760 C753 0.961 . S
H761 C753 0.960 . S
H762 C754 0.930 . S
H763 C755 0.929 . S
H764 C772 0.929 . S
H765 C774 0.930 . S
H766 C776 0.930 . S
H767 C779 0.929 . S
H768 C782 0.930 . S
H769 C784 0.960 . S
H770 C784 0.960 . S
H771 C784 0.960 . S
C772 H764 0.929 . S
C772 C773 1.377 . S
C772 C774 1.384 . S
C773 C772 1.377 . S
C773 C779 1.390 . S
C774 H765 0.930 . S
C774 C772 1.384 . S
C774 C775 1.372 . S
C775 C774 1.372 . S
C775 C776 1.400 . S
C775 C780 1.490 . S
C776 H766 0.930 . S
C776 C775 1.400 . S
C776 C779 1.386 . S
H777 C793 0.930 . S
H778 C794 0.931 . S
C779 H767 0.929 . S
C779 C773 1.390 . S
C779 C776 1.386 . S
C780 C775 1.490 . S
C780 C782 1.395 . S
C780 C783 1.403 . S
H781 C787 0.930 . S
C782 H768 0.930 . S
C782 C780 1.395 . S
C782 C785 1.403 . S
C783 C780 1.403 . S
C783 C784 1.524 . S
C783 C787 1.400 . S
C784 H769 0.960 . S
C784 H770 0.960 . S
C784 H771 0.960 . S
C784 C783 1.524 . S
C785 C782 1.403 . S
C785 C786 1.392 . S
C785 C789 1.495 . S
C786 C785 1.392 . S
C786 C787 1.385 . S
C786 C788 1.478 . S
C787 H781 0.930 . S
C787 C783 1.400 . S
C787 C786 1.385 . S
C788 C786 1.478 . S
C788 C790 1.381 . S
C788 C794 1.383 . S
C789 C785 1.495 . S
C789 H795 0.959 . S
C789 H796 0.961 . S
C789 H797 0.960 . S
C790 C788 1.381 . S
C790 C791 1.394 . S
C790 H798 0.930 . S
C791 C790 1.394 . S
C791 C792 1.383 . S
C791 H799 0.929 . S
C792 C791 1.383 . S
C792 C793 1.377 . S
C793 H777 0.930 . S
C793 C792 1.377 . S
C793 C794 1.379 . S
C794 H778 0.931 . S
C794 C788 1.383 . S
C794 C793 1.379 . S
H795 C789 0.959 . S
H796 C789 0.961 . S
H797 C789 0.960 . S
H798 C790 0.930 . S
H799 C791 0.929 . S
H800 C808 0.929 . S
H801 C810 0.930 . S
H802 C812 0.930 . S
H803 C815 0.929 . S
H804 C818 0.930 . S
H805 C820 0.960 . S
H806 C820 0.960 . S
H807 C820 0.960 . S
C808 H800 0.929 . S
C808 C809 1.377 . S
C808 C810 1.384 . S
C809 C808 1.377 . S
C809 C815 1.390 . S
C810 H801 0.930 . S
C810 C808 1.384 . S
C810 C811 1.372 . S
C811 C810 1.372 . S
C811 C812 1.400 . S
C811 C816 1.490 . S
C812 H802 0.930 . S
C812 C811 1.400 . S
C812 C815 1.386 . S
H813 C829 0.930 . S
H814 C830 0.931 . S
C815 H803 0.929 . S
C815 C809 1.390 . S
C815 C812 1.386 . S
C816 C811 1.490 . S
C816 C818 1.395 . S
C816 C819 1.403 . S
H817 C823 0.930 . S
C818 H804 0.930 . S
C818 C816 1.395 . S
C818 C821 1.403 . S
C819 C816 1.403 . S
C819 C820 1.524 . S
C819 C823 1.400 . S
C820 H805 0.960 . S
C820 H806 0.960 . S
C820 H807 0.960 . S
C820 C819 1.524 . S
C821 C818 1.403 . S
C821 C822 1.392 . S
C821 C825 1.495 . S
C822 C821 1.392 . S
C822 C823 1.385 . S
C822 C824 1.478 . S
C823 H817 0.930 . S
C823 C819 1.400 . S
C823 C822 1.385 . S
C824 C822 1.478 . S
C824 C826 1.381 . S
C824 C830 1.383 . S
C825 C821 1.495 . S
C825 H831 0.959 . S
C825 H832 0.961 . S
C825 H833 0.960 . S
C826 C824 1.381 . S
C826 C827 1.394 . S
C826 H834 0.930 . S
C827 C826 1.394 . S
C827 C828 1.383 . S
C827 H835 0.929 . S
C828 C827 1.383 . S
C828 C829 1.377 . S
C829 H813 0.930 . S
C829 C828 1.377 . S
C829 C830 1.379 . S
C830 H814 0.931 . S
C830 C824 1.383 . S
C830 C829 1.379 . S
H831 C825 0.959 . S
H832 C825 0.961 . S
H833 C825 0.960 . S
H834 C826 0.930 . S
H835 C827 0.929 . S
H836 C844 0.929 . S
H837 C846 0.930 . S
H838 C848 0.930 . S
H839 C851 0.929 . S
H840 C854 0.930 . S
H841 C856 0.960 . S
H842 C856 0.960 . S
H843 C856 0.960 . S
C844 H836 0.929 . S
C844 C845 1.377 . S
C844 C846 1.384 . S
C845 C844 1.377 . S
C845 C851 1.390 . S
C846 H837 0.930 . S
C846 C844 1.384 . S
C846 C847 1.372 . S
C847 C846 1.372 . S
C847 C848 1.400 . S
C847 C852 1.490 . S
C848 H838 0.930 . S
C848 C847 1.400 . S
C848 C851 1.386 . S
H849 C865 0.930 . S
H850 C866 0.931 . S
C851 H839 0.929 . S
C851 C845 1.390 . S
C851 C848 1.386 . S
C852 C847 1.490 . S
C852 C854 1.395 . S
C852 C855 1.403 . S
H853 C859 0.930 . S
C854 H840 0.930 . S
C854 C852 1.395 . S
C854 C857 1.403 . S
C855 C852 1.403 . S
C855 C856 1.524 . S
C855 C859 1.400 . S
C856 H841 0.960 . S
C856 H842 0.960 . S
C856 H843 0.960 . S
C856 C855 1.524 . S
C857 C854 1.403 . S
C857 C858 1.392 . S
C857 C861 1.495 . S
C858 C857 1.392 . S
C858 C859 1.385 . S
C858 C860 1.478 . S
C859 H853 0.930 . S
C859 C855 1.400 . S
C859 C858 1.385 . S
C860 C858 1.478 . S
C860 C862 1.381 . S
C860 C866 1.383 . S
C861 C857 1.495 . S
C861 H867 0.959 . S
C861 H868 0.961 . S
C861 H869 0.960 . S
C862 C860 1.381 . S
C862 C863 1.394 . S
C862 H870 0.930 . S
C863 C862 1.394 . S
C863 C864 1.383 . S
C863 H871 0.929 . S
C864 C863 1.383 . S
C864 C865 1.377 . S
C865 H849 0.930 . S
C865 C864 1.377 . S
C865 C866 1.379 . S
C866 H850 0.931 . S
C866 C860 1.383 . S
C866 C865 1.379 . S
H867 C861 0.959 . S
H868 C861 0.961 . S
H869 C861 0.960 . S
H870 C862 0.930 . S
H871 C863 0.929 . S
H872 C880 0.929 . S
H873 C882 0.930 . S
H874 C884 0.930 . S
H875 C887 0.929 . S
H876 C890 0.930 . S
H877 C892 0.960 . S
H878 C892 0.960 . S
H879 C892 0.960 . S
C880 H872 0.929 . S
C880 C881 1.377 . S
C880 C882 1.384 . S
C881 C880 1.377 . S
C881 C887 1.390 . S
C882 H873 0.930 . S
C882 C880 1.384 . S
C882 C883 1.372 . S
C883 C882 1.372 . S
C883 C884 1.400 . S
C883 C888 1.490 . S
C884 H874 0.930 . S
C884 C883 1.400 . S
C884 C887 1.386 . S
H885 C901 0.930 . S
H886 C902 0.931 . S
C887 H875 0.929 . S
C887 C881 1.390 . S
C887 C884 1.386 . S
C888 C883 1.490 . S
C888 C890 1.395 . S
C888 C891 1.403 . S
H889 C895 0.930 . S
C890 H876 0.930 . S
C890 C888 1.395 . S
C890 C893 1.403 . S
C891 C888 1.403 . S
C891 C892 1.524 . S
C891 C895 1.400 . S
C892 H877 0.960 . S
C892 H878 0.960 . S
C892 H879 0.960 . S
C892 C891 1.524 . S
C893 C890 1.403 . S
C893 C894 1.392 . S
C893 C897 1.495 . S
C894 C893 1.392 . S
C894 C895 1.385 . S
C894 C896 1.478 . S
C895 H889 0.930 . S
C895 C891 1.400 . S
C895 C894 1.385 . S
C896 C894 1.478 . S
C896 C898 1.381 . S
C896 C902 1.383 . S
C897 C893 1.495 . S
C897 H903 0.959 . S
C897 H904 0.961 . S
C897 H905 0.960 . S
C898 C896 1.381 . S
C898 C899 1.394 . S
C898 H906 0.930 . S
C899 C898 1.394 . S
C899 C900 1.383 . S
C899 H907 0.929 . S
C900 C899 1.383 . S
C900 C901 1.377 . S
C901 H885 0.930 . S
C901 C900 1.377 . S
C901 C902 1.379 . S
C902 H886 0.931 . S
C902 C896 1.383 . S
C902 C901 1.379 . S
H903 C897 0.959 . S
H904 C897 0.961 . S
H905 C897 0.960 . S
H906 C898 0.930 . S
H907 C899 0.929 . S
H908 C916 0.929 . S
H909 C918 0.930 . S
H910 C920 0.930 . S
H911 C923 0.929 . S
H912 C926 0.930 . S
H913 C928 0.960 . S
H914 C928 0.960 . S
H915 C928 0.960 . S
C916 H908 0.929 . S
C916 C917 1.377 . S
C916 C918 1.384 . S
C917 C916 1.377 . S
C917 C923 1.390 . S
C918 H909 0.930 . S
C918 C916 1.384 . S
C918 C919 1.372 . S
C919 C918 1.372 . S
C919 C920 1.400 . S
C919 C924 1.490 . S
C920 H910 0.930 . S
C920 C919 1.400 . S
C920 C923 1.386 . S
H921 C937 0.930 . S
H922 C938 0.931 . S
C923 H911 0.929 . S
C923 C917 1.390 . S
C923 C920 1.386 . S
C924 C919 1.490 . S
C924 C926 1.395 . S
C924 C927 1.403 . S
H925 C931 0.930 . S
C926 H912 0.930 . S
C926 C924 1.395 . S
C926 C929 1.403 . S
C927 C924 1.403 . S
C927 C928 1.524 . S
C927 C931 1.400 . S
C928 H913 0.960 . S
C928 H914 0.960 . S
C928 H915 0.960 . S
C928 C927 1.524 . S
C929 C926 1.403 . S
C929 C930 1.392 . S
C929 C933 1.495 . S
C930 C929 1.392 . S
C930 C931 1.385 . S
C930 C932 1.478 . S
C931 H925 0.930 . S
C931 C927 1.400 . S
C931 C930 1.385 . S
C932 C930 1.478 . S
C932 C934 1.381 . S
C932 C938 1.383 . S
C933 C929 1.495 . S
C933 H939 0.959 . S
C933 H940 0.961 . S
C933 H941 0.960 . S
C934 C932 1.381 . S
C934 C935 1.394 . S
C934 H942 0.930 . S
C935 C934 1.394 . S
C935 C936 1.383 . S
C935 H943 0.929 . S
C936 C935 1.383 . S
C936 C937 1.377 . S
C937 H921 0.930 . S
C937 C936 1.377 . S
C937 C938 1.379 . S
C938 H922 0.931 . S
C938 C932 1.383 . S
C938 C937 1.379 . S
H939 C933 0.959 . S
H940 C933 0.961 . S
H941 C933 0.960 . S
H942 C934 0.930 . S
H943 C935 0.929 . S
H944 C952 0.929 . S
H945 C954 0.930 . S
H946 C956 0.930 . S
H947 C959 0.929 . S
H948 C962 0.930 . S
H949 C964 0.960 . S
H950 C964 0.960 . S
H951 C964 0.960 . S
C952 H944 0.929 . S
C952 C953 1.377 . S
C952 C954 1.384 . S
C953 C952 1.377 . S
C953 C959 1.390 . S
C954 H945 0.930 . S
C954 C952 1.384 . S
C954 C955 1.372 . S
C955 C954 1.372 . S
C955 C956 1.400 . S
C955 C960 1.490 . S
C956 H946 0.930 . S
C956 C955 1.400 . S
C956 C959 1.386 . S
H957 C973 0.930 . S
H958 C974 0.931 . S
C959 H947 0.929 . S
C959 C953 1.390 . S
C959 C956 1.386 . S
C960 C955 1.490 . S
C960 C962 1.395 . S
C960 C963 1.403 . S
H961 C967 0.930 . S
C962 H948 0.930 . S
C962 C960 1.395 . S
C962 C965 1.403 . S
C963 C960 1.403 . S
C963 C964 1.524 . S
C963 C967 1.400 . S
C964 H949 0.960 . S
C964 H950 0.960 . S
C964 H951 0.960 . S
C964 C963 1.524 . S
C965 C962 1.403 . S
C965 C966 1.392 . S
C965 C969 1.495 . S
C966 C965 1.392 . S
C966 C967 1.385 . S
C966 C968 1.478 . S
C967 H961 0.930 . S
C967 C963 1.400 . S
C967 C966 1.385 . S
C968 C966 1.478 . S
C968 C970 1.381 . S
C968 C974 1.383 . S
C969 C965 1.495 . S
C969 H975 0.959 . S
C969 H976 0.961 . S
C969 H977 0.960 . S
C970 C968 1.381 . S
C970 C971 1.394 . S
C970 H978 0.930 . S
C971 C970 1.394 . S
C971 C972 1.383 . S
C971 H979 0.929 . S
C972 C971 1.383 . S
C972 C973 1.377 . S
C973 H957 0.930 . S
C973 C972 1.377 . S
C973 C974 1.379 . S
C974 H958 0.931 . S
C974 C968 1.383 . S
C974 C973 1.379 . S
H975 C969 0.959 . S
H976 C969 0.961 . S
H977 C969 0.960 . S
H978 C970 0.930 . S
H979 C971 0.929 . S
H980 C988 0.929 . S
H981 C990 0.930 . S
H982 C992 0.930 . S
H983 C995 0.929 . S
H984 C998 0.930 . S
H985 C1000 0.960 . S
H986 C1000 0.960 . S
H987 C1000 0.960 . S
C988 H980 0.929 . S
C988 C989 1.377 . S
C988 C990 1.384 . S
C989 C988 1.377 . S
C989 C995 1.390 . S
C990 H981 0.930 . S
C990 C988 1.384 . S
C990 C991 1.372 . S
C991 C990 1.372 . S
C991 C992 1.400 . S
C991 C996 1.490 . S
C992 H982 0.930 . S
C992 C991 1.400 . S
C992 C995 1.386 . S
H993 C1009 0.930 . S
H994 C1010 0.931 . S
C995 H983 0.929 . S
C995 C989 1.390 . S
C995 C992 1.386 . S
C996 C991 1.490 . S
C996 C998 1.395 . S
C996 C999 1.403 . S
H997 C1003 0.930 . S
C998 H984 0.930 . S
C998 C996 1.395 . S
C998 C1001 1.403 . S
C999 C996 1.403 . S
C999 C1000 1.524 . S
C999 C1003 1.400 . S
C1000 H985 0.960 . S
C1000 H986 0.960 . S
C1000 H987 0.960 . S
C1000 C999 1.524 . S
C1001 C998 1.403 . S
C1001 C1002 1.392 . S
C1001 C1005 1.495 . S
C1002 C1001 1.392 . S
C1002 C1003 1.385 . S
C1002 C1004 1.478 . S
C1003 H997 0.930 . S
C1003 C999 1.400 . S
C1003 C1002 1.385 . S
C1004 C1002 1.478 . S
C1004 C1006 1.381 . S
C1004 C1010 1.383 . S
C1005 C1001 1.495 . S
C1005 H1011 0.959 . S
C1005 H1012 0.961 . S
C1005 H1013 0.960 . S
C1006 C1004 1.381 . S
C1006 C1007 1.394 . S
C1006 H1014 0.930 . S
C1007 C1006 1.394 . S
C1007 C1008 1.383 . S
C1007 H1015 0.929 . S
C1008 C1007 1.383 . S
C1008 C1009 1.377 . S
C1009 H993 0.930 . S
C1009 C1008 1.377 . S
C1009 C1010 1.379 . S
C1010 H994 0.931 . S
C1010 C1004 1.383 . S
C1010 C1009 1.379 . S
H1011 C1005 0.959 . S
H1012 C1005 0.961 . S
H1013 C1005 0.960 . S
H1014 C1006 0.930 . S
H1015 C1007 0.929 . S
H1016 C1024 0.929 . S
H1017 C1026 0.930 . S
H1018 C1028 0.930 . S
H1019 C1031 0.929 . S
H1020 C1034 0.930 . S
H1021 C1036 0.960 . S
H1022 C1036 0.960 . S
H1023 C1036 0.960 . S
C1024 H1016 0.929 . S
C1024 C1025 1.377 . S
C1024 C1026 1.384 . S
C1025 C1024 1.377 . S
C1025 C1031 1.390 . S
C1026 H1017 0.930 . S
C1026 C1024 1.384 . S
C1026 C1027 1.372 . S
C1027 C1026 1.372 . S
C1027 C1028 1.400 . S
C1027 C1032 1.490 . S
C1028 H1018 0.930 . S
C1028 C1027 1.400 . S
C1028 C1031 1.386 . S
H1029 C1045 0.930 . S
H1030 C1046 0.925 1_554 S
C1031 H1019 0.929 . S
C1031 C1025 1.390 . S
C1031 C1028 1.386 . S
C1032 C1027 1.490 . S
C1032 C1034 1.395 . S
C1032 C1035 1.403 . S
H1033 C1039 0.930 . S
C1034 H1020 0.930 . S
C1034 C1032 1.395 . S
C1034 C1037 1.403 . S
C1035 C1032 1.403 . S
C1035 C1036 1.524 . S
C1035 C1039 1.400 . S
C1036 H1021 0.960 . S
C1036 H1022 0.960 . S
C1036 H1023 0.960 . S
C1036 C1035 1.524 . S
C1037 C1034 1.403 . S
C1037 C1038 1.392 . S
C1037 C1041 1.495 . S
C1038 C1037 1.392 . S
C1038 C1039 1.385 . S
C1038 C1040 1.478 . S
C1039 H1033 0.930 . S
C1039 C1035 1.400 . S
C1039 C1038 1.385 . S
C1040 C1038 1.478 . S
C1040 C1042 1.381 . S
C1040 C1046 1.410 . S
C1041 C1037 1.495 . S
C1041 H1047 0.959 . S
C1041 H1048 0.961 . S
C1041 H1049 0.960 . S
C1042 C1040 1.381 . S
C1042 C1043 1.394 . S
C1042 H1050 0.930 . S
C1043 C1042 1.394 . S
C1043 C1044 1.383 1_556 S
C1043 H1051 0.929 . S
C1044 C1043 1.383 1_554 S
C1044 C1045 1.377 . S
C1045 H1029 0.930 . S
C1045 C1044 1.377 . S
C1045 C1046 1.358 1_554 S
C1046 H1030 0.925 1_556 S
C1046 C1040 1.410 . S
C1046 C1045 1.358 1_556 S
H1047 C1041 0.959 . S
H1048 C1041 0.961 . S
H1049 C1041 0.960 . S
H1050 C1042 0.930 . S
H1051 C1043 0.929 . S
C216 C116 1.669 . S
C197 C8 1.679 . S
C252 C119 1.582 . S
C233 C22 1.562 . S
C288 C117 1.579 . S
C269 C30 1.579 . S
C324 C118 1.354 . S
C305 C47 1.352 . S
C360 C133 1.736 . S
C341 C9 1.734 . S
C396 C147 1.682 . S
C377 C17 1.637 . S
C413 C34 1.508 . S
C432 C173 1.483 . S
C468 C187 1.599 . S
C449 C48 1.612 . S
C504 C132 1.755 . S
C485 C21 1.758 . S
C521 C35 1.680 . S
C540 C146 1.705 . S
C576 C172 1.346 . S
C557 C43 1.298 . S
C612 C186 1.633 . S
C593 C4 1.581 . S
C629 C56 1.400 . S
C648 C131 1.453 . S
C684 C104 1.585 . S
C665 C73 1.602 . S
C701 C87 1.594 . S
C720 C130 1.591 . S
C737 C100 1.762 . S
C756 C105 1.748 . S
C792 C160 1.632 . S
C773 C60 1.633 . S
C828 C174 1.462 . S
C809 C69 1.394 . S
C864 C144 1.826 . S
C845 C86 1.868 . S
C881 C95 1.428 . S
C900 C158 1.490 . S
C936 C161 1.615 . S
C917 C74 1.617 . S
C972 C175 1.461 . S
C953 C82 1.410 . S
C1008 C145 1.916 . S
C989 C99 1.941 . S
C1025 C61 1.543 . S
C1044 C159 1.549 . S
