# Generated by pormake.
# Topology nom, (4,4)-cn, num edge types: 1
# Building blocks:
#     Node 0, Type 0, BuildingBlock: NAHDIM_clean_linker_0, # of connection points: 4
#     Node 1, Type 0, BuildingBlock: NAHDIM_clean_linker_0, # of connection points: 4
#     Node 2, Type 0, BuildingBlock: NAHDIM_clean_linker_0, # of connection points: 4
#     Node 3, Type 0, BuildingBlock: NAHDIM_clean_linker_0, # of connection points: 4
#     Node 4, Type 0, BuildingBlock: NAHDIM_clean_linker_0, # of connection points: 4
#     Node 5, Type 0, BuildingBlock: NAHDIM_clean_linker_0, # of connection points: 4
#     Node 6, Type 1, BuildingBlock: GALJAG_clean_sbu_0, # of connection points: 4
#     Node 7, Type 1, BuildingBlock: GALJAG_clean_sbu_0, # of connection points: 4
#     Node 8, Type 1, BuildingBlock: GALJAG_clean_sbu_0, # of connection points: 4
#     Node 9, Type 1, BuildingBlock: GALJAG_clean_sbu_0, # of connection points: 4
#     Node 10, Type 1, BuildingBlock: GALJAG_clean_sbu_0, # of connection points: 4
#     Node 11, Type 1, BuildingBlock: GALJAG_clean_sbu_0, # of connection points: 4
#     Edge 12, Type (0, 1), BuildingBlock: OJICUG_clean_linker_0, # of connection points: 2
#     Edge 13, Type (0, 1), BuildingBlock: OJICUG_clean_linker_0, # of connection points: 2
#     Edge 14, Type (0, 1), BuildingBlock: OJICUG_clean_linker_0, # of connection points: 2
#     Edge 15, Type (0, 1), BuildingBlock: OJICUG_clean_linker_0, # of connection points: 2
#     Edge 16, Type (0, 1), BuildingBlock: OJICUG_clean_linker_0, # of connection points: 2
#     Edge 17, Type (0, 1), BuildingBlock: OJICUG_clean_linker_0, # of connection points: 2
#     Edge 18, Type (0, 1), BuildingBlock: OJICUG_clean_linker_0, # of connection points: 2
#     Edge 19, Type (0, 1), BuildingBlock: OJICUG_clean_linker_0, # of connection points: 2
#     Edge 20, Type (0, 1), BuildingBlock: OJICUG_clean_linker_0, # of connection points: 2
#     Edge 21, Type (0, 1), BuildingBlock: OJICUG_clean_linker_0, # of connection points: 2
#     Edge 22, Type (0, 1), BuildingBlock: OJICUG_clean_linker_0, # of connection points: 2
#     Edge 23, Type (0, 1), BuildingBlock: OJICUG_clean_linker_0, # of connection points: 2
#     Edge 24, Type (0, 1), BuildingBlock: OJICUG_clean_linker_0, # of connection points: 2
#     Edge 25, Type (0, 1), BuildingBlock: OJICUG_clean_linker_0, # of connection points: 2
#     Edge 26, Type (0, 1), BuildingBlock: OJICUG_clean_linker_0, # of connection points: 2
#     Edge 27, Type (0, 1), BuildingBlock: OJICUG_clean_linker_0, # of connection points: 2
#     Edge 28, Type (0, 1), BuildingBlock: OJICUG_clean_linker_0, # of connection points: 2
#     Edge 29, Type (0, 1), BuildingBlock: OJICUG_clean_linker_0, # of connection points: 2
#     Edge 30, Type (0, 1), BuildingBlock: OJICUG_clean_linker_0, # of connection points: 2
#     Edge 31, Type (0, 1), BuildingBlock: OJICUG_clean_linker_0, # of connection points: 2
#     Edge 32, Type (0, 1), BuildingBlock: OJICUG_clean_linker_0, # of connection points: 2
#     Edge 33, Type (0, 1), BuildingBlock: OJICUG_clean_linker_0, # of connection points: 2
#     Edge 34, Type (0, 1), BuildingBlock: OJICUG_clean_linker_0, # of connection points: 2
#     Edge 35, Type (0, 1), BuildingBlock: OJICUG_clean_linker_0, # of connection points: 2
# Relax obj value: 0.026
# Max RMSD: 0.128
# Mean RMSD: 0.098
data_MOF--net-nom--node1-GALJAG_clean_sbu_0--node2-NAHDIM_clean_linker_0--edge1-OJICUG_clean_linker_0
_symmetry_space_group_name_H-M    P1
_symmetry_Int_Tables_number       1
_symmetry_cell_setting            triclinic
loop_
_symmetry_equiv_pos_as_xyz
'x, y, z'
_cell_length_a     46.44186
_cell_length_b     46.358925
_cell_length_c     57.878222
_cell_angle_alpha  90.202333
_cell_angle_beta   90.194498
_cell_angle_gamma 120.08919
loop_
_atom_site_label
_atom_site_type_symbol
_atom_site_fract_x
_atom_site_fract_y
_atom_site_fract_z
_atom_type_partial_charge
C0 C 0.19255 0.72969 0.23935 0.0
C1 C 0.20389 0.70432 0.24379 0.0
C2 C 0.16318 0.66392 0.26983 0.0
C3 C 0.15863 0.63177 0.26991 0.0
C4 C 0.12786 0.60432 0.27611 0.0
C5 C 0.10128 0.60947 0.28225 0.0
C6 C 0.10591 0.64209 0.28196 0.0
C7 C 0.13709 0.66904 0.27614 0.0
C8 C 0.1239 0.56998 0.27647 0.0
C9 C 0.07805 0.64858 0.28801 0.0
C10 C 0.98302 0.47323 0.16668 0.0
C11 C 0.95544 0.47975 0.17478 0.0
C12 C 0.95873 0.48183 0.2165 0.0
C13 C 0.96178 0.51274 0.2219 0.0
C14 C 0.97848 0.53011 0.24204 0.0
C15 C 0.99268 0.51635 0.25693 0.0
C16 C 0.98856 0.48456 0.25188 0.0
C17 C 0.97109 0.46744 0.23185 0.0
C18 C 0.98164 0.56353 0.24714 0.0
C19 C 0.00365 0.46923 0.26715 0.0
C20 C 0.86769 0.45325 0.3875 0.0
C21 C 0.8774 0.48402 0.37716 0.0
C22 C 0.91085 0.50579 0.37165 0.0
C23 C 0.93475 0.49593 0.37594 0.0
C24 C 0.92491 0.46499 0.38672 0.0
C25 C 0.89147 0.44428 0.39276 0.0
C26 C 0.92054 0.53925 0.36125 0.0
C27 C 0.94956 0.45356 0.39161 0.0
C28 C 0.17357 0.66024 0.45077 0.0
C29 C 0.14891 0.62416 0.45736 0.0
C30 C 0.09478 0.6036 0.43896 0.0
C31 C 0.07634 0.61772 0.43071 0.0
C32 C 0.05398 0.60317 0.41215 0.0
C33 C 0.04963 0.57343 0.402 0.0
C34 C 0.06729 0.55833 0.4109 0.0
C35 C 0.08966 0.57356 0.42933 0.0
C36 C 0.03529 0.6197 0.40322 0.0
C37 C 0.06246 0.52605 0.40093 0.0
C38 C 0.0686 0.58096 0.28909 0.0
C39 C 0.0466 0.56138 0.2716 0.0
C40 C 0.01413 0.53636 0.27662 0.0
C41 C 0.00291 0.53121 0.29975 0.0
C42 C 0.96988 0.5077 0.30536 0.0
C43 C 0.95906 0.5032 0.32817 0.0
C44 C 0.98088 0.52199 0.34625 0.0
C45 C 0.97004 0.51815 0.36944 0.0
C46 C 0.99288 0.53581 0.38708 0.0
C47 C 0.02635 0.55774 0.38223 0.0
C48 C 0.03728 0.56341 0.35905 0.0
C49 C 0.07038 0.58675 0.35346 0.0
C50 C 0.08073 0.59253 0.33056 0.0
C51 C 0.05853 0.57474 0.31243 0.0
C52 C 0.02534 0.5503 0.31772 0.0
C53 C 0.01449 0.54522 0.34102 0.0
C54 C 0.79434 0.38265 0.37342 0.0
C55 C 0.80999 0.42042 0.37606 0.0
O56 O 0.19353 0.69033 0.26543 0.0
O57 O 0.11686 0.61915 0.45645 0.0
O58 O 0.83536 0.4317 0.39231 0.0
O59 O 0.94446 0.46579 0.1964 0.0
H60 H 0.19282 0.68442 0.23028 0.0
H61 H 0.16497 0.71693 0.2388 0.0
H62 H 0.20186 0.74893 0.25324 0.0
H63 H 0.20183 0.74213 0.22244 0.0
H64 H 0.17935 0.62834 0.26539 0.0
H65 H 0.14127 0.69422 0.27663 0.0
H66 H 0.10529 0.55402 0.26323 0.0
H67 H 0.14766 0.57052 0.27296 0.0
H68 H 0.11441 0.55826 0.29356 0.0
H69 H 0.08439 0.67451 0.28396 0.0
H70 H 0.05498 0.63103 0.27848 0.0
H71 H 0.07272 0.6444 0.30676 0.0
H72 H 0.96618 0.50728 0.17568 0.0
H73 H 0.97388 0.44603 0.16589 0.0
H74 H 0.00442 0.48499 0.17889 0.0
H75 H 0.99193 0.48414 0.1493 0.0
H76 H 0.95125 0.52332 0.21027 0.0
H77 H 0.96825 0.44337 0.22757 0.0
H78 H 0.00774 0.58353 0.24427 0.0
H79 H 0.96509 0.5684 0.23592 0.0
H80 H 0.97557 0.56495 0.2655 0.0
H81 H -0.00025 0.4452 0.26012 0.0
H82 H 0.0308 0.48669 0.26918 0.0
H83 H 0.99242 0.46476 0.28459 0.0
H84 H 0.82006 0.43156 0.35882 0.0
H85 H 0.85878 0.491 0.3736 0.0
H86 H 0.88353 0.42047 0.40094 0.0
H87 H 0.92607 0.539 0.34264 0.0
H88 H 0.90038 0.54541 0.36281 0.0
H89 H 0.94335 0.55928 0.36976 0.0
H90 H 0.93712 0.427 0.3969 0.0
H91 H 0.96492 0.45687 0.3761 0.0
H92 H 0.9666 0.46899 0.40575 0.0
H93 H 0.15211 0.60796 0.44462 0.0
H94 H 0.19947 0.66486 0.45139 0.0
H95 H 0.16827 0.66505 0.43291 0.0
H96 H 0.17149 0.67794 0.4627 0.0
H97 H 0.0801 0.64064 0.43854 0.0
H98 H 0.1028 0.56177 0.43639 0.0
H99 H 0.04035 0.62508 0.38452 0.0
H100 H 0.00812 0.60249 0.40511 0.0
H101 H 0.04224 0.64333 0.41252 0.0
H102 H 0.07709 0.51682 0.41038 0.0
H103 H 0.03571 0.50665 0.40149 0.0
H104 H 0.07011 0.5297 0.38254 0.0
H105 H 0.05472 0.56602 0.25375 0.0
H106 H 0.95197 0.49272 0.29214 0.0
H107 H 0.93334 0.48478 0.33147 0.0
H108 H 0.98455 0.53222 0.40488 0.0
H109 H 0.08854 0.60115 0.36671 0.0
H110 H 0.10643 0.611 0.32725 0.0
H111 H 0.78366 0.37 0.39008 0.0
H112 H 0.77434 0.37296 0.36007 0.0
H113 H 0.81358 0.37655 0.36792 0.0
C114 C 0.31576 0.85095 0.57917 0.0
C115 C 0.34004 0.83781 0.5768 0.0
C116 C 0.38219 0.87795 0.55123 0.0
C117 C 0.41476 0.88381 0.55218 0.0
C118 C 0.44164 0.91469 0.54546 0.0
C119 C 0.43551 0.94005 0.53768 0.0
C120 C 0.40246 0.93413 0.53695 0.0
C121 C 0.37613 0.90284 0.54331 0.0
C122 C 0.47643 0.92001 0.54616 0.0
C123 C 0.39478 0.96056 0.52902 0.0
C124 C 0.56285 0.1413 0.65395 0.0
C125 C 0.54294 0.11912 0.63448 0.0
C126 C 0.5478 0.10014 0.59642 0.0
C127 C 0.51562 0.09028 0.58825 0.0
C128 C 0.50166 0.06785 0.56972 0.0
C129 C 0.52012 0.05473 0.55918 0.0
C130 C 0.55286 0.06517 0.56697 0.0
C131 C 0.56647 0.0882 0.58532 0.0
C132 C 0.46689 0.05782 0.56166 0.0
C133 C 0.57316 0.05155 0.5562 0.0
C134 C 0.57869 0.16759 0.42535 0.0
C135 C 0.54761 0.1564 0.43548 0.0
C136 C 0.52759 0.12285 0.44161 0.0
C137 C 0.53961 0.10045 0.43814 0.0
C138 C 0.57084 0.11174 0.42748 0.0
C139 C 0.58983 0.14524 0.42089 0.0
C140 C 0.49382 0.11152 0.452 0.0
C141 C 0.58444 0.08864 0.42346 0.0
C142 C 0.37114 0.85249 0.36943 0.0
C143 C 0.40723 0.87928 0.36487 0.0
C144 C 0.42816 0.93432 0.38235 0.0
C145 C 0.41538 0.95368 0.39112 0.0
C146 C 0.43251 0.97781 0.40831 0.0
C147 C 0.4635 0.983 0.41651 0.0
C148 C 0.47729 0.96451 0.40693 0.0
C149 C 0.45947 0.94034 0.38989 0.0
C150 C 0.41731 0.99738 0.41798 0.0
C151 C 0.51074 0.97018 0.41482 0.0
C152 C 0.46331 0.9726 0.52983 0.0
C153 C 0.4816 0.99685 0.54657 0.0
C154 C 0.50462 0.0296 0.54035 0.0
C155 C 0.5097 0.03851 0.51674 0.0
C156 C 0.53159 0.07148 0.50986 0.0
C157 C 0.53539 0.08023 0.48664 0.0
C158 C 0.5172 0.05642 0.4694 0.0
C159 C 0.51961 0.06536 0.44583 0.0
C160 C 0.50194 0.0409 0.4291 0.0
C161 C 0.48139 0.00759 0.43523 0.0
C162 C 0.47772 0.99831 0.45875 0.0
C163 C 0.45623 0.96523 0.46559 0.0
C164 C 0.45187 0.95662 0.48884 0.0
C165 C 0.46899 0.98072 0.50613 0.0
C166 C 0.49179 0.01394 0.49959 0.0
C167 C 0.49575 0.02285 0.47589 0.0
C168 C 0.64982 0.23751 0.43879 0.0
C169 C 0.61245 0.22475 0.43724 0.0
O170 O 0.35644 0.84722 0.55582 0.0
O171 O 0.40985 0.91037 0.36648 0.0
O172 O 0.59857 0.20019 0.42037 0.0
O173 O 0.56114 0.12059 0.6151 0.0
H174 H 0.35863 0.84824 0.59114 0.0
H175 H 0.32967 0.87857 0.58042 0.0
H176 H 0.29862 0.84319 0.56405 0.0
H177 H 0.30083 0.84136 0.59518 0.0
H178 H 0.41896 0.86395 0.55784 0.0
H179 H 0.35069 0.89759 0.54183 0.0
H180 H 0.49183 0.94036 0.55857 0.0
H181 H 0.47684 0.89718 0.55141 0.0
H182 H 0.48808 0.92785 0.52889 0.0
H183 H 0.3688 0.95392 0.53302 0.0
H184 H 0.41203 0.98491 0.53731 0.0
H185 H 0.39827 0.96372 0.51006 0.0
H186 H 0.52004 0.12022 0.63048 0.0
H187 H 0.55784 0.1078 0.68004 0.0
H188 H 0.58767 0.16007 0.64651 0.0
H189 H 0.55385 0.15964 0.656 0.0
H190 H 0.50128 0.10019 0.59609 0.0
H191 H 0.59137 0.09612 0.5916 0.0
H192 H 0.44964 0.0316 0.56668 0.0
H193 H 0.45778 0.07374 0.56935 0.0
H194 H 0.46602 0.05924 0.54254 0.0
H195 H 0.59734 0.06047 0.56524 0.0
H196 H 0.55896 0.02387 0.55652 0.0
H197 H 0.57811 0.05923 0.53784 0.0
H198 H 0.60155 0.21434 0.45448 0.0
H199 H 0.53917 0.17404 0.43858 0.0
H200 H 0.61395 0.15438 0.41293 0.0
H201 H 0.49473 0.10737 0.47079 0.0
H202 H 0.48585 0.13027 0.44968 0.0
H203 H 0.47479 0.08757 0.44409 0.0
H204 H 0.61055 0.10212 0.41727 0.0
H205 H 0.58336 0.07538 0.43967 0.0
H206 H 0.56886 0.06954 0.41036 0.0
H207 H 0.42264 0.87622 0.37836 0.0
H208 H 0.36831 0.82725 0.36835 0.0
H209 H 0.36382 0.8559 0.38703 0.0
H210 H 0.35408 0.85415 0.35668 0.0
H211 H 0.39145 0.9492 0.38487 0.0
H212 H 0.47014 0.92642 0.38236 0.0
H213 H 0.41439 0.99387 0.43698 0.0
H214 H 0.43417 0.02438 0.41482 0.0
H215 H 0.39262 0.98979 0.41016 0.0
H216 H 0.51878 0.95493 0.40486 0.0
H217 H 0.52982 0.99693 0.41299 0.0
H218 H 0.50958 0.96383 0.4334 0.0
H219 H 0.47672 0.99053 0.56472 0.0
H220 H 0.54583 0.09098 0.52237 0.0
H221 H 0.55255 0.106 0.48239 0.0
H222 H 0.50398 0.04792 0.41105 0.0
H223 H 0.44215 0.94569 0.45306 0.0
H224 H 0.43476 0.93084 0.49311 0.0
H225 H 0.66206 0.24837 0.42206 0.0
H226 H 0.66146 0.25681 0.45257 0.0
H227 H 0.65406 0.21659 0.4431 0.0
C228 C 0.50024 0.31606 0.75881 0.0
C229 C 0.53381 0.33539 0.74651 0.0
C230 C 0.524 0.36789 0.71835 0.0
C231 C 0.54995 0.40088 0.72051 0.0
C232 C 0.54517 0.42743 0.71422 0.0
C233 C 0.51354 0.42058 0.70606 0.0
C234 C 0.4873 0.38709 0.70397 0.0
C235 C 0.49319 0.36113 0.70965 0.0
C236 C 0.57382 0.46271 0.71632 0.0
C237 C 0.45287 0.3786 0.69614 0.0
C238 C 0.44978 0.54521 0.83472 0.0
C239 C 0.44978 0.52374 0.81553 0.0
C240 C 0.47747 0.52783 0.77887 0.0
C241 C 0.45258 0.49665 0.77043 0.0
C242 C 0.45639 0.48412 0.74928 0.0
C243 C 0.48593 0.50278 0.73649 0.0
C244 C 0.51084 0.53436 0.74474 0.0
C245 C 0.50608 0.54661 0.76575 0.0
C246 C 0.42912 0.45051 0.74088 0.0
C247 C 0.54284 0.5547 0.73169 0.0
C248 C 0.42355 0.57278 0.60457 0.0
C249 C 0.40301 0.53955 0.61084 0.0
C250 C 0.41666 0.52009 0.61818 0.0
C251 C 0.45168 0.53431 0.61892 0.0
C252 C 0.47251 0.56805 0.61268 0.0
C253 C 0.45815 0.58692 0.60548 0.0
C254 C 0.39374 0.48414 0.6246 0.0
C255 C 0.50989 0.58382 0.61295 0.0
C256 C 0.53132 0.37498 0.54256 0.0
C257 C 0.54181 0.41075 0.53567 0.0
C258 C 0.50745 0.43115 0.55253 0.0
C259 C 0.47516 0.41665 0.56119 0.0
C260 C 0.46756 0.43162 0.57948 0.0
C261 C 0.49287 0.46212 0.5889 0.0
C262 C 0.52515 0.47783 0.57928 0.0
C263 C 0.5321 0.46217 0.56113 0.0
C264 C 0.43278 0.41448 0.58915 0.0
C265 C 0.55241 0.51086 0.58848 0.0
C266 C 0.50724 0.44824 0.7007 0.0
C267 C 0.50221 0.46455 0.71921 0.0
C268 C 0.49192 0.48782 0.71566 0.0
C269 C 0.486 0.49487 0.69294 0.0
C270 C 0.47386 0.51672 0.68871 0.0
C271 C 0.46747 0.52286 0.66626 0.0
C272 C 0.4732 0.50753 0.6472 0.0
C273 C 0.46639 0.51315 0.62433 0.0
C274 C 0.47305 0.49804 0.60578 0.0
C275 C 0.486 0.47698 0.60938 0.0
C276 C 0.49222 0.47036 0.63211 0.0
C277 C 0.50446 0.44858 0.63633 0.0
C278 C 0.50979 0.44162 0.65877 0.0
C279 C 0.50322 0.45626 0.67783 0.0
C280 C 0.49194 0.47916 0.67395 0.0
C281 C 0.4859 0.4858 0.65107 0.0
C282 C 0.43651 0.64978 0.59913 0.0
C283 C 0.40911 0.61601 0.608 0.0
O284 O 0.52845 0.34216 0.72412 0.0
O285 O 0.51412 0.4147 0.53589 0.0
O286 O 0.40967 0.59025 0.59621 0.0
O287 O 0.4749 0.54046 0.79953 0.0
H288 H 0.54973 0.3591 0.75611 0.0
H289 H 0.48756 0.33097 0.75898 0.0
H290 H 0.48393 0.29205 0.74974 0.0
H291 H 0.50373 0.31092 0.77702 0.0
H292 H 0.57394 0.40573 0.7269 0.0
H293 H 0.47347 0.33539 0.70797 0.0
H294 H 0.56892 0.47561 0.73066 0.0
H295 H 0.59778 0.46361 0.71985 0.0
H296 H 0.57621 0.47665 0.7002 0.0
H297 H 0.43421 0.35197 0.6991 0.0
H298 H 0.44474 0.39433 0.70537 0.0
H299 H 0.45321 0.38364 0.67739 0.0
H300 H 0.44731 0.49952 0.82093 0.0
H301 H 0.45513 0.535 0.85076 0.0
H302 H 0.47487 0.56868 0.83453 0.0
H303 H 0.40497 0.54526 0.82973 0.0
H304 H 0.43019 0.48177 0.78028 0.0
H305 H 0.52509 0.57065 0.77232 0.0
H306 H 0.42353 0.45177 0.72236 0.0
H307 H 0.43757 0.43205 0.74245 0.0
H308 H 0.40586 0.44141 0.75096 0.0
H309 H 0.56007 0.57846 0.74069 0.0
H310 H 0.55559 0.54004 0.7294 0.0
H311 H 0.53729 0.56052 0.71422 0.0
H312 H 0.41346 0.61447 0.62682 0.0
H313 H 0.37626 0.52885 0.60978 0.0
H314 H 0.47393 0.61234 0.59989 0.0
H315 H 0.39927 0.47975 0.64249 0.0
H316 H 0.36709 0.477 0.62347 0.0
H317 H 0.39808 0.46765 0.61294 0.0
H318 H 0.52266 0.61102 0.60949 0.0
H319 H 0.51839 0.57977 0.62995 0.0
H320 H 0.5175 0.57175 0.59958 0.0
H321 H 0.56069 0.42737 0.54863 0.0
H322 H 0.55311 0.37116 0.54232 0.0
H323 H 0.52105 0.37013 0.56034 0.0
H324 H 0.51188 0.35674 0.53061 0.0
H325 H 0.45619 0.39297 0.5541 0.0
H326 H 0.55676 0.47414 0.55368 0.0
H327 H 0.43353 0.40886 0.6077 0.0
H328 H 0.42232 0.43134 0.588 0.0
H329 H 0.41588 0.39088 0.57985 0.0
H330 H 0.5756 0.5208 0.57821 0.0
H331 H 0.54392 0.52939 0.58842 0.0
H332 H 0.55816 0.50789 0.60666 0.0
H333 H 0.50536 0.45827 0.73674 0.0
H334 H 0.4689 0.52909 0.70275 0.0
H335 H 0.45796 0.53975 0.664 0.0
H336 H 0.46798 0.50265 0.58827 0.0
H337 H 0.50975 0.43639 0.62235 0.0
H338 H 0.51908 0.42454 0.66102 0.0
H339 H 0.43488 0.65116 0.58005 0.0
H340 H 0.43423 0.67036 0.60716 0.0
H341 H 0.4614 0.65374 0.60381 0.0
C342 C 0.19547 0.49525 0.92829 0.0
C343 C 0.206 0.52495 0.91214 0.0
C344 C 0.16374 0.50912 0.8823 0.0
C345 C 0.15748 0.53569 0.88224 0.0
C346 C 0.12689 0.5311 0.87422 0.0
C347 C 0.10203 0.49914 0.86645 0.0
C348 C 0.1087 0.47247 0.86611 0.0
C349 C 0.13987 0.4781 0.87358 0.0
C350 C 0.12094 0.56024 0.8744 0.0
C351 C 0.08269 0.43779 0.85852 0.0
C352 C 0.9107 0.42713 0.99254 0.0
C353 C 0.93164 0.42785 0.9729 0.0
C354 C 0.95891 0.46056 0.93855 0.0
C355 C 0.96255 0.43533 0.92778 0.0
C356 C 0.97918 0.44101 0.90667 0.0
C357 C 0.99288 0.47269 0.8962 0.0
C358 C 0.98887 0.498 0.90675 0.0
C359 C 0.97167 0.49148 0.92776 0.0
C360 C 0.98293 0.41339 0.89585 0.0
C361 C 0.00349 0.53212 0.89613 0.0
C362 C 0.86007 0.42368 0.7685 0.0
C363 C 0.8688 0.40154 0.77834 0.0
C364 C 0.90222 0.41172 0.78316 0.0
C365 C 0.92718 0.4451 0.77872 0.0
C366 C 0.9183 0.46733 0.76856 0.0
C367 C 0.88482 0.45607 0.76317 0.0
C368 C 0.91076 0.38674 0.79289 0.0
C369 C 0.9441 0.50305 0.76355 0.0
C370 C 0.15691 0.48353 0.70065 0.0
C371 C 0.1368 0.50136 0.69866 0.0
C372 C 0.08074 0.47612 0.71372 0.0
C373 C 0.05783 0.44508 0.7227 0.0
C374 C 0.03631 0.44244 0.74058 0.0
C375 C 0.03729 0.47158 0.7491 0.0
C376 C 0.05891 0.50281 0.73893 0.0
C377 C 0.08062 0.50479 0.72142 0.0
C378 C 0.01332 0.40869 0.75086 0.0
C379 C 0.05962 0.53416 0.74696 0.0
C380 C 0.06817 0.49285 0.86069 0.0
C381 C 0.0472 0.48886 0.87911 0.0
C382 C 0.01404 0.47999 0.87544 0.0
C383 C 0.00128 0.47539 0.85268 0.0
C384 C 0.96804 0.4665 0.84834 0.0
C385 C 0.95549 0.46102 0.82586 0.0
C386 C 0.97553 0.46358 0.80691 0.0
C387 C 0.96264 0.45653 0.78408 0.0
C388 C 0.98343 0.45964 0.76569 0.0
C389 C 0.01688 0.46957 0.76937 0.0
C390 C 0.03018 0.47648 0.79205 0.0
C391 C 0.06367 0.48617 0.7964 0.0
C392 C 0.07638 0.49228 0.81881 0.0
C393 C 0.05595 0.48837 0.83777 0.0
C394 C 0.02228 0.47931 0.83378 0.0
C395 C 0.00936 0.4733 0.81089 0.0
C396 C 0.785 0.41905 0.78278 0.0
C397 C 0.80239 0.39866 0.77991 0.0
O398 O 0.19286 0.51294 0.89035 0.0
O399 O 0.10318 0.47785 0.69804 0.0
O400 O 0.82788 0.41436 0.76408 0.0
O401 O 0.94355 0.45609 0.95929 0.0
H402 H 0.19621 0.5407 0.91925 0.0
H403 H 0.16788 0.47989 0.92869 0.0
H404 H 0.20558 0.47935 0.92215 0.0
H405 H 0.20443 0.50384 0.94619 0.0
H406 H 0.17657 0.55999 0.88835 0.0
H407 H 0.14531 0.45793 0.87348 0.0
H408 H 0.10307 0.55672 0.88831 0.0
H409 H 0.14425 0.5843 0.87748 0.0
H410 H 0.10977 0.56159 0.85773 0.0
H411 H 0.09032 0.41907 0.86226 0.0
H412 H 0.05869 0.4301 0.86729 0.0
H413 H 0.07837 0.43757 0.83965 0.0
H414 H 0.95122 0.42154 0.97739 0.0
H415 H 0.92498 0.42788 0.00851 0.0
H416 H 0.91556 0.45337 0.9948 0.0
H417 H 0.86341 0.38663 0.98453 0.0
H418 H 0.9528 0.4112 0.93583 0.0
H419 H 0.96868 0.51077 0.93611 0.0
H420 H 0.97549 0.41028 0.87736 0.0
H421 H 0.00945 0.42006 0.89668 0.0
H422 H 0.96776 0.38918 0.90474 0.0
H423 H 0.99751 0.54889 0.90619 0.0
H424 H 0.03096 0.5437 0.89512 0.0
H425 H 0.99392 0.5299 0.87822 0.0
H426 H 0.81269 0.39803 0.79723 0.0
H427 H 0.84949 0.37621 0.78196 0.0
H428 H 0.87769 0.47282 0.75541 0.0
H429 H 0.91769 0.39249 0.81139 0.0
H430 H 0.88951 0.3608 0.79158 0.0
H431 H 0.9324 0.38819 0.78371 0.0
H432 H 0.93265 0.51821 0.75856 0.0
H433 H 0.96029 0.51469 0.77893 0.0
H434 H 0.96018 0.5037 0.74918 0.0
H435 H 0.14306 0.51729 0.71447 0.0
H436 H 0.18401 0.50193 0.70061 0.0
H437 H 0.15082 0.46949 0.71712 0.0
H438 H 0.15102 0.46557 0.68618 0.0
H439 H 0.05787 0.42308 0.71635 0.0
H440 H 0.09769 0.52869 0.71384 0.0
H441 H 0.01804 0.40929 0.76972 0.0
H442 H 0.98708 0.40247 0.74849 0.0
H443 H 0.01644 0.38863 0.74283 0.0
H444 H 0.07481 0.55564 0.73547 0.0
H445 H 0.03393 0.53005 0.74769 0.0
H446 H 0.07027 0.54063 0.76467 0.0
H447 H 0.05653 0.49156 0.89667 0.0
H448 H 0.95136 0.46364 0.8623 0.0
H449 H 0.92973 0.45434 0.82355 0.0
H450 H 0.97337 0.454 0.74825 0.0
H451 H 0.08047 0.48902 0.78253 0.0
H452 H 0.10234 0.49971 0.82112 0.0
H453 H 0.7647 0.40722 0.79566 0.0
H454 H 0.80317 0.44456 0.789 0.0
H455 H 0.77436 0.4211 0.76605 0.0
C456 C 0.54207 0.84932 0.89162 0.0
C457 C 0.51339 0.83776 0.90881 0.0
C458 C 0.53044 0.88055 0.93863 0.0
C459 C 0.50406 0.88705 0.93886 0.0
C460 C 0.50867 0.91741 0.94757 0.0
C461 C 0.54043 0.94178 0.95594 0.0
C462 C 0.56694 0.93492 0.956 0.0
C463 C 0.5613 0.90401 0.94779 0.0
C464 C 0.47971 0.92357 0.94762 0.0
C465 C 0.60139 0.96039 0.96428 0.0
C466 C 0.6213 0.14098 0.83719 0.0
C467 C 0.62109 0.12183 0.85778 0.0
C468 C 0.58961 0.09766 0.89299 0.0
C469 C 0.61179 0.0888 0.9028 0.0
C470 C 0.60262 0.06772 0.92197 0.0
C471 C 0.57029 0.05452 0.93125 0.0
C472 C 0.54782 0.06328 0.92141 0.0
C473 C 0.55805 0.0853 0.90263 0.0
C474 C 0.62743 0.05917 0.93209 0.0
C475 C 0.5129 0.04898 0.93049 0.0
C476 C 0.59894 0.1724 0.06257 0.0
C477 C 0.62355 0.16714 0.05293 0.0
C478 C 0.61685 0.13478 0.04757 0.0
C479 C 0.58439 0.10739 0.05107 0.0
C480 C 0.5597 0.11277 0.06117 0.0
C481 C 0.56757 0.14526 0.06722 0.0
C482 C 0.64441 0.13002 0.03803 0.0
C483 C 0.52486 0.08431 0.06524 0.0
C484 C 0.56075 0.87819 0.12415 0.0
C485 C 0.54241 0.89791 0.1248 0.0
C486 C 0.56504 0.95379 0.10953 0.0
C487 C 0.59514 0.97836 0.10035 0.0
C488 C 0.5958 -2e-05 0.08319 0.0
C489 C 0.56558 0.99741 0.07561 0.0
C490 C 0.5352 0.9739 0.0859 0.0
C491 C 0.53522 0.95212 0.10267 0.0
C492 C 0.62869 0.02497 0.07273 0.0
C493 C 0.50271 0.9714 0.07887 0.0
C494 C 0.54653 0.9752 0.9631 0.0
C495 C 0.55153 0.99792 0.94562 0.0
C496 C 0.56009 0.03073 0.95074 0.0
C497 C 0.56271 0.04113 0.97402 0.0
C498 C 0.5705 0.07375 0.97981 0.0
C499 C 0.5738 0.08396 0.00277 0.0
C500 C 0.57086 0.06242 0.02082 0.0
C501 C 0.57611 0.07316 0.04417 0.0
C502 C 0.57372 0.05125 0.06157 0.0
C503 C 0.5658 0.01863 0.0564 0.0
C504 C 0.55971 0.00717 0.03324 0.0
C505 C 0.55111 0.97428 0.02746 0.0
C506 C 0.54582 0.96345 0.00457 0.0
C507 C 0.5499 0.98536 0.98651 0.0
C508 C 0.55807 0.01848 0.99197 0.0
C509 C 0.56268 0.0293 0.01537 0.0
C510 C 0.59545 0.24533 0.05133 0.0
C511 C 0.61697 0.22894 0.05109 0.0
O512 O 0.5266 0.85147 0.93029 0.0
O513 O 0.56547 0.93169 0.12462 0.0
O514 O 0.6048 0.20355 0.06719 0.0
O515 O 0.59772 0.11781 0.87425 0.0
H516 H 0.49633 0.8464 0.90252 0.0
H517 H 0.55645 0.87699 0.89113 0.0
H518 H 0.55912 0.84016 0.89686 0.0
H519 H 0.53251 0.84011 0.87392 0.0
H520 H 0.47981 0.86828 0.93251 0.0
H521 H 0.58132 0.89839 0.94779 0.0
H522 H 0.48401 0.94283 0.93459 0.0
H523 H 0.45578 0.90065 0.94348 0.0
H524 H 0.47764 0.9332 0.96476 0.0
H525 H 0.62015 0.95307 0.95997 0.0
H526 H 0.60925 0.9851 0.95652 0.0
H527 H 0.60122 0.96319 0.98331 0.0
H528 H 0.64629 0.13011 0.86508 0.0
H529 H 0.60509 0.10572 0.81024 0.0
H530 H 0.60774 0.15449 0.84225 0.0
H531 H 0.64661 0.16413 0.83732 0.0
H532 H 0.63644 0.09842 0.89576 0.0
H533 H 0.54109 0.09225 0.89495 0.0
H534 H 0.62859 0.06206 0.95118 0.0
H535 H 0.61932 0.03274 0.92808 0.0
H536 H 0.65282 0.07503 0.92503 0.0
H537 H 0.49776 0.05654 0.91996 0.0
H538 H 0.50034 0.02133 0.93069 0.0
H539 H 0.51379 0.0575 0.94856 0.0
H540 H 0.61474 0.21843 0.03336 0.0
H541 H 0.64804 0.18833 0.04979 0.0
H542 H 0.54889 0.14976 0.07483 0.0
H543 H 0.64068 0.12524 0.01916 0.0
H544 H 0.66929 0.15241 0.04088 0.0
H545 H 0.64414 0.1082 0.04612 0.0
H546 H 0.50764 0.09315 0.07065 0.0
H547 H 0.51485 0.069 0.04929 0.0
H548 H 0.5254 0.06794 0.07897 0.0
H549 H 0.52682 0.89054 0.1088 0.0
H550 H 0.54271 0.85099 0.1249 0.0
H551 H 0.57492 0.88344 0.10779 0.0
H552 H 0.57861 0.88528 0.13879 0.0
H553 H 0.61803 0.97967 0.10602 0.0
H554 H 0.51198 0.93376 0.11037 0.0
H555 H 0.62775 0.02135 0.05371 0.0
H556 H 0.63348 0.05061 0.07606 0.0
H557 H 0.64979 0.02286 0.07987 0.0
H558 H 0.48183 0.95429 0.09017 0.0
H559 H 0.50503 0.99643 0.07943 0.0
H560 H 0.49654 0.96208 0.06081 0.0
H561 H 0.55011 0.99033 0.92769 0.0
H562 H 0.57396 0.09172 0.96664 0.0
H563 H 0.57936 0.10923 0.00615 0.0
H564 H 0.57837 0.05981 0.0794 0.0
H565 H 0.54836 0.95649 0.04057 0.0
H566 H 0.53907 0.93783 0.00116 0.0
H567 H 0.59594 0.25593 0.06868 0.0
H568 H 0.60451 0.26556 0.03831 0.0
H569 H 0.56929 0.22651 0.04697 0.0
C570 C 0.73432 0.55374 0.07393 0.0
C571 C 0.70988 0.5182 0.08183 0.0
C572 C 0.67372 0.52282 0.10943 0.0
C573 C 0.64129 0.49583 0.10766 0.0
C574 C 0.61396 0.49961 0.11324 0.0
C575 C 0.61946 0.53125 0.12037 0.0
C576 C 0.6524 0.55858 0.12206 0.0
C577 C 0.6792 0.55379 0.11698 0.0
C578 C 0.57928 0.46989 0.11148 0.0
C579 C 0.65938 0.59296 0.12894 0.0
C580 C 0.4958 0.59322 0.98982 0.0
C581 C 0.51661 0.5928 0.00931 0.0
C582 C 0.51147 0.56387 0.04559 0.0
C583 C 0.54172 0.58914 0.05496 0.0
C584 C 0.55354 0.5849 0.07626 0.0
C585 C 0.53519 0.55451 0.08826 0.0
C586 C 0.50462 0.52911 0.07902 0.0
C587 C 0.49297 0.53433 0.0579 0.0
C588 C 0.5861 0.61272 0.08568 0.0
C589 C 0.48472 0.49618 0.09116 0.0
C590 C 0.44779 0.60242 0.21409 0.0
C591 C 0.47892 0.62506 0.20493 0.0
C592 C 0.50263 0.61538 0.20066 0.0
C593 C 0.49439 0.582 0.20489 0.0
C594 C 0.46295 0.55925 0.21434 0.0
C595 C 0.44029 0.57004 0.21926 0.0
C596 C 0.53645 0.6409 0.19175 0.0
C597 C 0.45315 0.52352 0.21919 0.0
C598 C 0.66658 0.51949 0.28249 0.0
C599 C 0.63018 0.50655 0.28885 0.0
C600 C 0.60657 0.53854 0.27283 0.0
C601 C 0.61936 0.57075 0.26421 0.0
C602 C 0.6034 0.57713 0.24595 0.0
C603 C 0.57367 0.55064 0.23653 0.0
C604 C 0.55957 0.5184 0.24619 0.0
C605 C 0.57618 0.5127 0.26431 0.0
C606 C 0.61883 0.61185 0.2362 0.0
C607 C 0.52739 0.48984 0.23697 0.0
C608 C 0.59089 0.53626 0.1252 0.0
C609 C 0.57429 0.54007 0.10636 0.0
C610 C 0.54956 0.54849 0.1094 0.0
C611 C 0.54098 0.55329 0.13195 0.0
C612 C 0.51683 0.56259 0.1357 0.0
C613 C 0.5091 0.56788 0.15798 0.0
C614 C 0.52562 0.56461 0.17735 0.0
C615 C 0.51883 0.57102 0.20005 0.0
C616 C 0.53524 0.56673 0.21888 0.0
C617 C 0.55827 0.55611 0.21576 0.0
C618 C 0.56594 0.55029 0.19323 0.0
C619 C 0.58957 0.54026 0.1895 0.0
C620 C 0.59745 0.53521 0.16726 0.0
C621 C 0.58202 0.53998 0.14789 0.0
C622 C 0.55735 0.54906 0.15126 0.0
C623 C 0.54959 0.55461 0.17396 0.0
C624 C 0.37605 0.60224 0.19821 0.0
C625 C 0.41351 0.62513 0.20161 0.0
O626 O 0.69998 0.51905 0.10425 0.0
O627 O 0.62419 0.53299 0.28919 0.0
O628 O 0.42462 0.61135 0.21811 0.0
O629 O 0.49953 0.56699 0.0248 0.0
H630 H 0.68784 0.5073 0.07003 0.0
H631 H 0.72209 0.56908 0.07435 0.0
H632 H 0.75652 0.56547 0.08547 0.0
H633 H 0.74248 0.55364 0.05593 0.0
H634 H 0.63753 0.47186 0.102 0.0
H635 H 0.70455 0.57435 0.11839 0.0
H636 H 0.56574 0.47363 0.09702 0.0
H637 H 0.57945 0.44631 0.10836 0.0
H638 H 0.56531 0.46742 0.12759 0.0
H639 H 0.6858 0.61227 0.12612 0.0
H640 H 0.64325 0.59982 0.11897 0.0
H641 H 0.65371 0.59314 0.14753 0.0
H642 H 0.54115 0.5958 0.0043 0.0
H643 H 0.50676 0.58856 0.97388 0.0
H644 H 0.47254 0.56796 0.98944 0.0
H645 H 0.49503 0.63768 0.99521 0.0
H646 H 0.55641 0.61221 0.04573 0.0
H647 H 0.46965 0.515 0.05062 0.0
H648 H 0.58362 0.61712 0.10425 0.0
H649 H 0.60547 0.60547 0.08424 0.0
H650 H 0.59474 0.63641 0.07617 0.0
H651 H 0.46194 0.47858 0.08136 0.0
H652 H 0.50031 0.48447 0.09371 0.0
H653 H 0.47731 0.50033 0.10851 0.0
H654 H 0.4255 0.62667 0.18463 0.0
H655 H 0.48474 0.65037 0.20145 0.0
H656 H 0.41619 0.55293 0.22653 0.0
H657 H 0.53836 0.6359 0.17323 0.0
H658 H 0.5409 0.66671 0.1934 0.0
H659 H 0.55641 0.63928 0.20125 0.0
H660 H 0.42617 0.50785 0.22291 0.0
H661 H 0.45934 0.51253 0.20426 0.0
H662 H 0.46735 0.52272 0.2344 0.0
H663 H 0.61492 0.48795 0.2753 0.0
H664 H 0.67203 0.49872 0.28237 0.0
H665 H 0.67149 0.53058 0.26495 0.0
H666 H 0.68363 0.53895 0.29493 0.0
H667 H 0.64257 0.59061 0.27123 0.0
H668 H 0.56557 0.48804 0.27171 0.0
H669 H 0.62535 0.61148 0.2178 0.0
H670 H 0.60058 0.62065 0.23678 0.0
H671 H 0.64164 0.62989 0.2458 0.0
H672 H 0.51857 0.46684 0.24735 0.0
H673 H 0.5078 0.49688 0.23681 0.0
H674 H 0.53096 0.48431 0.21886 0.0
H675 H 0.58149 0.53751 0.08898 0.0
H676 H 0.50368 0.56594 0.12142 0.0
H677 H 0.49019 0.57485 0.15981 0.0
H678 H 0.5298 0.57146 0.23625 0.0
H679 H 0.60249 0.53648 0.20372 0.0
H680 H 0.61593 0.52765 0.16542 0.0
H681 H 0.3626 0.59977 0.2146 0.0
H682 H 0.36651 0.61227 0.18464 0.0
H683 H 0.3708 0.5771 0.19265 0.0
In684 In 0.63087 0.41062 0.41044 0.0
O685 O 0.68635 0.43441 0.42009 0.0
O686 O 0.67062 0.41494 0.38614 0.0
C687 C 0.60269 0.423 0.44664 0.0
C688 C 0.61795 0.44086 0.37583 0.0
C689 C 0.61153 0.34632 0.41857 0.0
O690 O 0.63394 0.43769 0.44406 0.0
O691 O 0.58588 0.40341 0.43039 0.0
O692 O 0.60483 0.35534 0.39966 0.0
O693 O 0.62688 0.36937 0.4331 0.0
C694 C 0.69426 0.42863 0.40043 0.0
O695 O 0.60315 0.40944 0.37765 0.0
O696 O 0.63797 0.45682 0.39211 0.0
In697 In 0.23353 0.62633 0.58632 0.0
O698 O 0.26923 0.60826 0.57509 0.0
O699 O 0.27626 0.63071 0.6082 0.0
C700 C 0.19591 0.61339 0.54791 0.0
C701 C 0.19093 0.58604 0.61878 0.0
C702 C 0.26622 0.69342 0.58416 0.0
O703 O 0.2172 0.60421 0.55021 0.0
O704 O 0.19252 0.62771 0.56544 0.0
O705 O 0.24877 0.67788 0.60139 0.0
O706 O 0.26704 0.67519 0.56828 0.0
C707 C 0.28611 0.61747 0.59356 0.0
O708 O 0.2047 0.6174 0.61984 0.0
O709 O 0.19759 0.57497 0.60085 0.0
In710 In 0.62871 0.21917 0.74778 0.0
O711 O 0.68008 0.25978 0.73482 0.0
O712 O 0.67117 0.25414 0.77099 0.0
C713 C 0.6007 0.17698 0.71192 0.0
C714 C 0.6194 0.1727 0.779 0.0
C715 C 0.59911 0.25631 0.74793 0.0
O716 O 0.63197 0.19299 0.71467 0.0
O717 O 0.58445 0.1827 0.72676 0.0
O718 O 0.601 0.24187 0.76587 0.0
O719 O 0.61203 0.25192 0.73011 0.0
C720 C 0.69113 0.2701 0.75501 0.0
O721 O 0.59974 0.18396 0.77719 0.0
O722 O 0.64363 0.18487 0.76525 0.0
In723 In 0.41739 0.62593 0.9116 0.0
O724 O 0.36755 0.60758 0.93016 0.0
O725 O 0.36728 0.60615 0.89359 0.0
C726 C 0.4512 0.61787 0.94636 0.0
C727 C 0.42584 0.59115 0.87766 0.0
C728 C 0.44289 0.69283 0.91059 0.0
O729 O 0.42004 0.60552 0.94684 0.0
O730 O 0.46514 0.63307 0.92804 0.0
O731 O 0.43548 0.67539 0.89243 0.0
O732 O 0.43678 0.67653 0.92901 0.0
C733 C 0.35056 0.59989 0.9118 0.0
O734 O 0.43814 0.62234 0.87669 0.0
O735 O 0.41064 0.57775 0.89609 0.0
In736 In 0.80418 0.40176 0.07115 0.0
O737 O 0.82952 0.39444 0.10289 0.0
O738 O 0.84911 0.44342 0.08952 0.0
C739 C 0.7493 0.34058 0.0671 0.0
C740 C 0.77471 0.43911 0.07452 0.0
C741 C 0.84184 0.40475 0.03513 0.0
O742 O 0.76166 0.35318 0.08656 0.0
O743 O 0.76499 0.35838 0.05017 0.0
O744 O 0.82906 0.42313 0.03665 0.0
O745 O 0.83643 0.38551 0.05199 0.0
C746 C 0.85115 0.42502 0.10468 0.0
O747 O 0.78582 0.435 0.0557 0.0
O748 O 0.77866 0.42464 0.0916 0.0
In749 In 0.41497 0.80327 0.23556 0.0
O750 O 0.42843 0.76363 0.24622 0.0
O751 O 0.41426 0.76445 0.21142 0.0
C752 C 0.42747 0.84003 0.27431 0.0
C753 C 0.45634 0.8468 0.2041 0.0
C754 C 0.34798 0.7714 0.23687 0.0
O755 O 0.43684 0.81887 0.27185 0.0
O756 O 0.41352 0.84384 0.25675 0.0
O757 O 0.36416 0.79012 0.22029 0.0
O758 O 0.3655 0.76873 0.25243 0.0
C759 C 0.42322 0.75074 0.22628 0.0
O760 O 0.42506 0.8332 0.20257 0.0
O761 O 0.46682 0.83971 0.22216 0.0
C762 C 0.26166 0.72927 0.26203 0.0
C763 C 0.24149 0.72119 0.24212 0.0
H764 H 0.31105 0.75089 0.27578 0.0
C765 C 0.25689 0.73031 0.22038 0.0
H766 H 0.25091 0.72329 0.27912 0.0
C767 C 0.29159 0.74708 0.21857 0.0
C768 C 0.31146 0.75439 0.23845 0.0
H769 H 0.24198 0.72465 0.20479 0.0
H770 H 0.30283 0.7539 0.20163 0.0
C771 C 0.29621 0.74522 0.26015 0.0
C772 C 0.60605 0.27303 0.45016 0.0
C773 C 0.60643 0.25321 0.43191 0.0
H774 H 0.60687 0.31788 0.46015 0.0
C775 C 0.60505 0.26268 0.40902 0.0
H776 H 0.60748 0.26652 0.46792 0.0
C777 C 0.6042 0.29191 0.40456 0.0
C778 C 0.60558 0.31248 0.42289 0.0
H779 H 0.60587 0.2482 0.39459 0.0
H780 H 0.60451 0.29941 0.38681 0.0
C781 C 0.60574 0.3024 0.4457 0.0
C782 C 0.35955 0.60503 0.58294 0.0
C783 C 0.37553 0.61336 0.60465 0.0
H784 H 0.3184 0.59927 0.56249 0.0
C785 C 0.36124 0.62204 0.62277 0.0
H786 H 0.37035 0.59886 0.56854 0.0
C787 C 0.33175 0.62258 0.61926 0.0
C788 C 0.31597 0.61455 0.59752 0.0
H789 H 0.37326 0.62904 0.63956 0.0
H790 H 0.3216 0.62982 0.6335 0.0
C791 C 0.3299 0.60535 0.57946 0.0
C792 C 0.76651 0.35629 0.74909 0.0
C793 C 0.77756 0.36352 0.77219 0.0
H794 H 0.73067 0.3205 0.72533 0.0
C795 C 0.76212 0.33847 0.78884 0.0
H796 H 0.7777 0.37531 0.73597 0.0
C797 C 0.73527 0.30739 0.78282 0.0
C798 C 0.72316 0.30063 0.76001 0.0
H799 H 0.7699 0.34344 0.80678 0.0
H800 H 0.72309 0.2891 0.7963 0.0
C801 C 0.73965 0.32497 0.74301 0.0
C802 C 0.47518 0.78142 0.89059 0.0
C803 C 0.49378 0.79994 0.90995 0.0
H804 H 0.44484 0.73296 0.87544 0.0
C805 C 0.49444 0.78266 0.92973 0.0
H806 H 0.47405 0.794 0.87518 0.0
C807 C 0.47709 0.74786 0.93004 0.0
C808 C 0.45932 0.72952 0.91046 0.0
H809 H 0.50851 0.79583 0.94498 0.0
H810 H 0.47832 0.73532 0.94545 0.0
C811 C 0.45845 0.74656 0.89074 0.0
C812 C 0.73943 0.48994 0.10002 0.0
C813 C 0.72604 0.49684 0.08035 0.0
H814 H 0.76478 0.46571 0.11355 0.0
C815 C 0.72935 0.48499 0.05871 0.0
H816 H 0.738 0.49922 0.11691 0.0
C817 C 0.74546 0.46648 0.05674 0.0
C818 C 0.75819 0.4591 0.07646 0.0
H819 H 0.71964 0.49032 0.04326 0.0
H820 H 0.74765 0.45768 0.03984 0.0
C821 C 0.75492 0.47085 0.09811 0.0
C822 C 0.31124 0.77975 0.55874 0.0
C823 C 0.32119 0.80012 0.57863 0.0
H824 H 0.28661 0.73009 0.54506 0.0
C825 C 0.31179 0.78495 0.60042 0.0
H826 H 0.31719 0.79048 0.54163 0.0
C827 C 0.29336 0.75021 0.60232 0.0
C828 C 0.28444 0.73004 0.58245 0.0
H829 H 0.31863 0.80007 0.61598 0.0
H830 H 0.28658 0.73914 0.61931 0.0
C831 C 0.29354 0.74511 0.56067 0.0
C832 C 0.56372 0.31013 0.76739 0.0
C833 C 0.55149 0.31534 0.74648 0.0
H834 H 0.58787 0.28683 0.78435 0.0
C835 C 0.55523 0.30088 0.72609 0.0
H836 H 0.56125 0.32098 0.78334 0.0
C837 C 0.5711 0.28208 0.72662 0.0
C838 C 0.58279 0.27656 0.74757 0.0
H839 H 0.54595 0.30398 0.70966 0.0
H840 H 0.57371 0.27138 0.71064 0.0
C841 C 0.57887 0.2906 0.76798 0.0
C842 C 0.26133 0.56466 0.93087 0.0
C843 C 0.24365 0.54601 0.91129 0.0
H844 H 0.3091 0.5961 0.94654 0.0
C845 C 0.26165 0.54633 0.89168 0.0
H846 H 0.24813 0.56487 0.94621 0.0
C847 C 0.29635 0.56477 0.89171 0.0
C848 C 0.31391 0.58263 0.91149 0.0
H849 H 0.24909 0.53214 0.87631 0.0
H850 H 0.30948 0.56424 0.87642 0.0
C851 C 0.29613 0.58251 0.93107 0.0
C852 C 0.66365 0.2669 0.07868 0.0
C853 C 0.6529 0.2546 0.05615 0.0
H854 H 0.70303 0.30366 0.09996 0.0
C855 C 0.67516 0.26902 0.03775 0.0
H856 H 0.64681 0.25643 0.09313 0.0
C857 C 0.70707 0.29592 0.04161 0.0
C858 C 0.71742 0.30914 0.06396 0.0
H859 H 0.66746 0.26021 0.02021 0.0
H860 H 0.72324 0.30711 0.02691 0.0
C861 C 0.69575 0.29387 0.08258 0.0
C862 C 0.42452 0.68249 0.19157 0.0
C863 C 0.42088 0.65962 0.20875 0.0
H864 H 0.42839 0.72932 0.18373 0.0
C865 C 0.42037 0.66805 0.23208 0.0
H866 H 0.42455 0.67644 0.17347 0.0
C867 C 0.42292 0.69858 0.238 0.0
C868 C 0.4252 0.72073 0.22067 0.0
H869 H 0.41698 0.65067 0.24568 0.0
H870 H 0.42154 0.70413 0.25602 0.0
C871 C 0.42658 0.71266 0.19745 0.0
C872 C 0.77555 0.42937 0.40643 0.0
C873 C 0.78379 0.42896 0.38309 0.0
H874 H 0.74097 0.43069 0.43033 0.0
C875 C 0.76437 0.43235 0.36586 0.0
H876 H 0.78975 0.42626 0.42008 0.0
C877 C 0.73637 0.43443 0.3717 0.0
C878 C 0.7273 0.43337 0.39493 0.0
H879 H 0.76994 0.43173 0.34776 0.0
H880 H 0.72099 0.43543 0.35797 0.0
C881 C 0.74771 0.43198 0.41231 0.0
C882 C 0.14846 0.62907 0.50106 0.0
C883 C 0.15675 0.61699 0.48135 0.0
H884 H 0.15389 0.63685 0.53769 0.0
C885 C 0.17557 0.60113 0.48408 0.0
H886 H 0.13433 0.64176 0.49943 0.0
C887 C 0.18679 0.59833 0.50594 0.0
C888 C 0.17963 0.61156 0.52551 0.0
H889 H 0.1826 0.5919 0.46917 0.0
H890 H 0.2022 0.58698 0.50735 0.0
C891 C 0.15968 0.62626 0.52294 0.0
C892 C 0.58339 0.10501 0.65468 0.0
C893 C 0.53924 0.09405 0.64973 0.0
H894 H 0.63196 0.14797 0.67819 0.0
C895 C 0.51453 0.10135 0.67168 0.0
H896 H 0.59642 0.09755 0.6428 0.0
C897 C 0.53875 0.13375 0.69221 0.0
C898 C 0.5834 0.15216 0.69369 0.0
H899 H 0.48823 0.09229 0.66937 0.0
H900 H 0.5263 0.14216 0.70388 0.0
C901 C 0.60544 0.1375 0.67592 0.0
C902 C 0.43514 0.56794 0.80448 0.0
C903 C 0.42011 0.52291 0.80953 0.0
H904 H 0.45184 0.61864 0.82928 0.0
C905 C 0.39595 0.50033 0.83549 0.0
H906 H 0.44607 0.57992 0.78827 0.0
C907 C 0.40231 0.52646 0.86023 0.0
C908 C 0.42499 0.57129 0.85771 0.0
H909 H 0.38481 0.47361 0.83719 0.0
H910 H 0.3919 0.51511 0.87668 0.0
C911 C 0.4402 0.59181 0.83032 0.0
C912 C 0.89517 0.37148 0.98832 0.0
C913 C 0.90128 0.40136 0.9649 0.0
H914 H 0.8752 0.36254 0.02937 0.0
C915 C 0.87574 0.42193 0.96222 0.0
H916 H 0.9081 0.3575 0.98849 0.0
C917 C 0.85763 0.42512 0.98886 0.0
C918 C 0.85905 0.40356 0.01438 0.0
H919 H 0.87723 0.43659 0.9473 0.0
H920 H 0.84543 0.43977 0.98946 0.0
C921 C 0.87636 0.37632 0.01404 0.0
C922 C 0.53406 0.89412 0.1683 0.0
C923 C 0.52047 0.88917 0.1459 0.0
H924 H 0.52426 0.88442 0.20445 0.0
C925 C 0.48581 0.87411 0.14326 0.0
H926 H 0.56073 0.90625 0.17085 0.0
C927 C 0.46503 0.86236 0.16248 0.0
C928 C 0.47848 0.86504 0.18468 0.0
H929 H 0.47468 0.87033 0.12624 0.0
H930 H 0.43834 0.84957 0.15976 0.0
C931 C 0.51322 0.88182 0.1875 0.0
C932 C 0.63644 0.50852 0.33243 0.0
C933 C 0.62254 0.48975 0.31216 0.0
H934 H 0.64552 0.50767 0.36864 0.0
C935 C 0.60386 0.45482 0.31361 0.0
H936 H 0.65094 0.53548 0.33178 0.0
C937 C 0.60047 0.4389 0.33471 0.0
C938 C 0.61603 0.45761 0.35471 0.0
H939 H 0.5929 0.43976 0.29825 0.0
H940 H 0.5871 0.41191 0.33509 0.0
C941 C 0.63328 0.4926 0.3535 0.0
C942 C 0.43416 0.85593 0.33871 0.0
C943 C 0.41766 0.8742 0.34116 0.0
H944 H 0.45086 0.83132 0.31553 0.0
C945 C 0.40761 0.88409 0.32122 0.0
H946 H 0.44184 0.8477 0.35381 0.0
C947 C 0.41283 0.87481 0.29932 0.0
C948 C 0.42786 0.85514 0.29694 0.0
H949 H 0.39447 0.89781 0.3226 0.0
H950 H 0.40359 0.88167 0.28434 0.0
C951 C 0.43933 0.84659 0.3168 0.0
C952 C 0.59198 0.43727 0.50953 0.0
C953 C 0.55725 0.41822 0.51191 0.0
H954 H 0.63364 0.45435 0.48683 0.0
C955 C 0.53747 0.40372 0.49213 0.0
H956 H 0.60781 0.44859 0.52451 0.0
C957 C 0.55223 0.40691 0.47058 0.0
C958 C 0.58705 0.42467 0.46841 0.0
H959 H 0.51065 0.38879 0.49351 0.0
H960 H 0.5364 0.39432 0.45582 0.0
C961 C 0.60674 0.44062 0.48796 0.0
C962 C 0.16165 0.55779 0.6796 0.0
C963 C 0.14649 0.52299 0.67734 0.0
H964 H 0.18706 0.60504 0.6627 0.0
C965 C 0.14246 0.50896 0.65516 0.0
H966 H 0.16476 0.56926 0.69645 0.0
C967 C 0.15557 0.52946 0.63584 0.0
C968 C 0.17236 0.56432 0.63832 0.0
H969 H 0.13038 0.48219 0.65289 0.0
H970 H 0.15352 0.51805 0.6191 0.0
C971 C 0.1743 0.57825 0.66026 0.0
C972 C 0.5695 0.09394 0.83212 0.0
C973 C 0.60861 0.09543 0.84176 0.0
H974 H 0.55493 0.12785 0.80573 0.0
C975 C 0.64626 0.11186 0.82337 0.0
H976 H 0.54678 0.08141 0.84201 0.0
C977 C 0.64943 0.1411 0.80182 0.0
C978 C 0.615 0.14779 0.79613 0.0
H979 H 0.66771 0.10997 0.82839 0.0
H980 H 0.67241 0.15511 0.7924 0.0
C981 C 0.57533 0.12395 0.81027 0.0
C982 C 0.54026 0.64736 0.99024 0.0
C983 C 0.51677 0.62211 0.01561 0.0
H984 H 0.52713 0.65268 0.94888 0.0
C985 C 0.47154 0.60646 0.01981 0.0
H986 H 0.56702 0.65883 0.98908 0.0
C987 C 0.44874 0.60208 0.99356 0.0
C988 C 0.47032 0.61845 0.96666 0.0
H989 H 0.45894 0.59479 0.03569 0.0
H990 H 0.4219 0.5901 0.99406 0.0
C991 C 0.51515 0.64162 0.96505 0.0
C992 C 0.90422 0.43084 0.15647 0.0
C993 C 0.92693 0.46533 0.15755 0.0
H994 H 0.86227 0.39097 0.13893 0.0
C995 C 0.92441 0.48621 0.14114 0.0
H996 H 0.90599 0.41412 0.16866 0.0
C997 C 0.89965 0.47303 0.12414 0.0
C998 C 0.87694 0.43861 0.12302 0.0
H999 H 0.94188 0.51278 0.14132 0.0
H1000 H 0.89849 0.48987 0.11173 0.0
C1001 C 0.87936 0.41762 0.13942 0.0
loop_
_geom_bond_atom_site_label_1
_geom_bond_atom_site_label_2
_geom_bond_distance
_geom_bond_site_symmetry_2
_ccdc_geom_bond_type
C0 C1 1.560 . S
C0 H61 0.959 . S
C0 H62 0.959 . S
C0 H63 0.960 . S
C1 C0 1.560 . S
C1 O56 1.426 . S
C1 H60 0.980 . S
C2 C3 1.407 . S
C2 C7 1.418 . S
C2 O56 1.334 . S
C3 C2 1.407 . S
C3 C4 1.360 . S
C3 H64 0.929 . S
C4 C3 1.360 . S
C4 C5 1.401 . S
C4 C8 1.527 . S
C5 C4 1.401 . S
C5 C6 1.405 . S
C5 C38 1.587 . S
C6 C5 1.405 . S
C6 C7 1.332 . S
C6 C9 1.496 . S
C7 C2 1.418 . S
C7 C6 1.332 . S
C7 H65 0.929 . S
C8 C4 1.527 . S
C8 H66 0.959 . S
C8 H67 0.961 . S
C8 H68 0.961 . S
C9 C6 1.496 . S
C9 H69 0.960 . S
C9 H70 0.960 . S
C9 H71 0.961 . S
C10 C11 1.517 . S
C10 H73 0.961 . S
C10 H74 0.960 . S
C10 H75 0.959 . S
C11 C10 1.517 . S
C11 O59 1.468 . S
C11 H72 0.980 . S
C12 C13 1.349 . S
C12 C17 1.367 . S
C12 O59 1.408 . S
C13 C12 1.349 . S
C13 C14 1.407 . S
C13 H76 0.930 . S
C14 C13 1.407 . S
C14 C15 1.449 1_655 S
C14 C18 1.535 1_655 S
C15 C14 1.449 1_455 S
C15 C16 1.384 1_455 S
C15 C40 1.553 . S
C16 C15 1.384 1_655 S
C16 C17 1.364 . S
C16 C19 1.450 1_655 S
C17 C12 1.367 . S
C17 C16 1.364 . S
C17 H77 0.931 . S
C18 C14 1.535 1_455 S
C18 H78 0.959 . S
C18 H79 0.961 . S
C18 H80 0.959 1_455 S
C19 C16 1.450 1_455 S
C19 H81 0.961 1_455 S
C19 H82 0.960 . S
C19 H83 0.960 1_455 S
C20 C21 1.309 . S
C20 C25 1.304 . S
C20 O58 1.435 . S
C21 C20 1.309 . S
C21 C22 1.476 . S
C21 H85 0.930 . S
C22 C21 1.476 . S
C22 C23 1.400 . S
C22 C26 1.567 . S
C23 C22 1.400 . S
C23 C24 1.373 . S
C23 C45 1.432 . S
C24 C23 1.373 . S
C24 C25 1.339 . S
C24 C27 1.530 . S
C25 C20 1.304 . S
C25 C24 1.339 . S
C25 H86 0.930 . S
C26 C22 1.567 . S
C26 H87 0.961 . S
C26 H88 0.960 . S
C26 H89 0.958 . S
C27 C24 1.530 . S
C27 H90 0.961 . S
C27 H91 0.960 . S
C27 H92 0.960 . S
C28 C29 1.530 . S
C28 H94 0.961 . S
C28 H95 0.961 . S
C28 H96 0.959 . S
C29 C28 1.530 . S
C29 O57 1.412 . S
C29 H93 0.980 . S
C30 C31 1.288 . S
C30 C35 1.377 . S
C30 O57 1.393 . S
C31 C30 1.288 . S
C31 C32 1.369 . S
C31 H97 0.932 . S
C32 C31 1.369 . S
C32 C33 1.398 . S
C32 C36 1.527 . S
C33 C32 1.398 . S
C33 C34 1.380 . S
C33 C47 1.497 . S
C34 C33 1.380 . S
C34 C35 1.383 . S
C34 C37 1.603 . S
C35 C30 1.377 . S
C35 C34 1.383 . S
C35 H98 0.929 . S
C36 C32 1.527 . S
C36 H99 0.961 . S
C36 H100 0.959 . S
C36 H101 0.959 . S
C37 C34 1.603 . S
C37 H102 0.960 . S
C37 H103 0.962 . S
C37 H104 0.961 . S
C38 C5 1.587 . S
C38 C39 1.360 . S
C38 C51 1.412 . S
C39 C38 1.360 . S
C39 C40 1.365 . S
C39 H105 0.929 . S
C40 C15 1.553 . S
C40 C39 1.365 . S
C40 C41 1.404 . S
C41 C40 1.404 . S
C41 C42 1.395 1_455 S
C41 C52 1.451 . S
C42 C41 1.395 1_655 S
C42 C43 1.322 . S
C42 H106 0.930 . S
C43 C42 1.322 . S
C43 C44 1.459 . S
C43 H107 0.929 . S
C44 C43 1.459 . S
C44 C45 1.445 . S
C44 C53 1.395 1_655 S
C45 C23 1.432 . S
C45 C44 1.445 . S
C45 C46 1.370 . S
C46 C45 1.370 . S
C46 C47 1.438 1_655 S
C46 H108 0.930 . S
C47 C33 1.497 . S
C47 C46 1.438 1_455 S
C47 C48 1.360 . S
C48 C47 1.360 . S
C48 C49 1.401 . S
C48 C53 1.446 . S
C49 C48 1.401 . S
C49 C50 1.347 . S
C49 H109 0.929 . S
C50 C49 1.347 . S
C50 C51 1.455 . S
C50 H110 0.930 . S
C51 C38 1.412 . S
C51 C50 1.455 . S
C51 C52 1.331 . S
C52 C41 1.451 . S
C52 C51 1.331 . S
C52 C53 1.497 . S
C53 C44 1.395 1_455 S
C53 C48 1.446 . S
C53 C52 1.497 . S
C54 C55 1.582 . S
C54 H111 0.962 . S
C54 H112 0.959 . S
C54 H113 0.958 . S
C55 C54 1.582 . S
C55 O58 1.458 . S
C55 H84 0.980 . S
O56 C1 1.426 . S
O56 C2 1.334 . S
O57 C29 1.412 . S
O57 C30 1.393 . S
O58 C20 1.435 . S
O58 C55 1.458 . S
O59 C11 1.468 . S
O59 C12 1.408 . S
H60 C1 0.980 . S
H61 C0 0.959 . S
H62 C0 0.959 . S
H63 C0 0.960 . S
H64 C3 0.929 . S
H65 C7 0.929 . S
H66 C8 0.959 . S
H67 C8 0.961 . S
H68 C8 0.961 . S
H69 C9 0.960 . S
H70 C9 0.960 . S
H71 C9 0.961 . S
H72 C11 0.980 . S
H73 C10 0.961 . S
H74 C10 0.960 . S
H75 C10 0.959 . S
H76 C13 0.930 . S
H77 C17 0.931 . S
H78 C18 0.959 . S
H79 C18 0.961 . S
H80 C18 0.959 1_655 S
H81 C19 0.961 1_655 S
H82 C19 0.960 . S
H83 C19 0.960 1_655 S
H84 C55 0.980 . S
H85 C21 0.930 . S
H86 C25 0.930 . S
H87 C26 0.961 . S
H88 C26 0.960 . S
H89 C26 0.958 . S
H90 C27 0.961 . S
H91 C27 0.960 . S
H92 C27 0.960 . S
H93 C29 0.980 . S
H94 C28 0.961 . S
H95 C28 0.961 . S
H96 C28 0.959 . S
H97 C31 0.932 . S
H98 C35 0.929 . S
H99 C36 0.961 . S
H100 C36 0.959 . S
H101 C36 0.959 . S
H102 C37 0.960 . S
H103 C37 0.962 . S
H104 C37 0.961 . S
H105 C39 0.929 . S
H106 C42 0.930 . S
H107 C43 0.929 . S
H108 C46 0.930 . S
H109 C49 0.929 . S
H110 C50 0.930 . S
H111 C54 0.962 . S
H112 C54 0.959 . S
H113 C54 0.958 . S
C114 C115 1.560 . S
C114 H175 0.959 . S
C114 H176 0.959 . S
C114 H177 0.960 . S
C115 C114 1.560 . S
C115 O170 1.426 . S
C115 H174 0.980 . S
C116 C117 1.407 . S
C116 C121 1.418 . S
C116 O170 1.334 . S
C117 C116 1.407 . S
C117 C118 1.360 . S
C117 H178 0.929 . S
C118 C117 1.360 . S
C118 C119 1.401 . S
C118 C122 1.527 . S
C119 C118 1.401 . S
C119 C120 1.405 . S
C119 C152 1.587 . S
C120 C119 1.405 . S
C120 C121 1.332 . S
C120 C123 1.496 . S
C121 C116 1.418 . S
C121 C120 1.332 . S
C121 H179 0.929 . S
C122 C118 1.527 . S
C122 H180 0.959 . S
C122 H181 0.961 . S
C122 H182 0.961 . S
C123 C120 1.496 . S
C123 H183 0.960 . S
C123 H184 0.960 . S
C123 H185 0.961 . S
C124 C125 1.517 . S
C124 H187 0.961 . S
C124 H188 0.960 . S
C124 H189 0.959 . S
C125 C124 1.517 . S
C125 O173 1.468 . S
C125 H186 0.980 . S
C126 C127 1.349 . S
C126 C131 1.367 . S
C126 O173 1.408 . S
C127 C126 1.349 . S
C127 C128 1.407 . S
C127 H190 0.930 . S
C128 C127 1.407 . S
C128 C129 1.449 . S
C128 C132 1.535 . S
C129 C128 1.449 . S
C129 C130 1.384 . S
C129 C154 1.553 . S
C130 C129 1.384 . S
C130 C131 1.364 . S
C130 C133 1.450 . S
C131 C126 1.367 . S
C131 C130 1.364 . S
C131 H191 0.931 . S
C132 C128 1.535 . S
C132 H192 0.959 . S
C132 H193 0.961 . S
C132 H194 0.959 . S
C133 C130 1.450 . S
C133 H195 0.960 . S
C133 H196 0.960 . S
C133 H197 0.960 . S
C134 C135 1.309 . S
C134 C139 1.304 . S
C134 O172 1.435 . S
C135 C134 1.309 . S
C135 C136 1.476 . S
C135 H199 0.930 . S
C136 C135 1.476 . S
C136 C137 1.400 . S
C136 C140 1.567 . S
C137 C136 1.400 . S
C137 C138 1.373 . S
C137 C159 1.432 . S
C138 C137 1.373 . S
C138 C139 1.339 . S
C138 C141 1.530 . S
C139 C134 1.304 . S
C139 C138 1.339 . S
C139 H200 0.930 . S
C140 C136 1.567 . S
C140 H201 0.961 . S
C140 H202 0.960 . S
C140 H203 0.958 . S
C141 C138 1.530 . S
C141 H204 0.961 . S
C141 H205 0.960 . S
C141 H206 0.960 . S
C142 C143 1.530 . S
C142 H208 0.961 . S
C142 H209 0.961 . S
C142 H210 0.959 . S
C143 C142 1.530 . S
C143 O171 1.412 . S
C143 H207 0.980 . S
C144 C145 1.288 . S
C144 C149 1.377 . S
C144 O171 1.393 . S
C145 C144 1.288 . S
C145 C146 1.369 . S
C145 H211 0.932 . S
C146 C145 1.369 . S
C146 C147 1.398 . S
C146 C150 1.527 1_565 S
C147 C146 1.398 . S
C147 C148 1.380 . S
C147 C161 1.497 1_565 S
C148 C147 1.380 . S
C148 C149 1.383 . S
C148 C151 1.603 . S
C149 C144 1.377 . S
C149 C148 1.383 . S
C149 H212 0.929 . S
C150 C146 1.527 1_545 S
C150 H213 0.961 . S
C150 H214 0.959 . S
C150 H215 0.959 . S
C151 C148 1.603 . S
C151 H216 0.960 . S
C151 H217 0.962 . S
C151 H218 0.961 . S
C152 C119 1.587 . S
C152 C153 1.360 . S
C152 C165 1.412 . S
C153 C152 1.360 . S
C153 C154 1.365 1_565 S
C153 H219 0.929 . S
C154 C129 1.553 . S
C154 C153 1.365 1_545 S
C154 C155 1.404 . S
C155 C154 1.404 . S
C155 C156 1.395 . S
C155 C166 1.451 . S
C156 C155 1.395 . S
C156 C157 1.322 . S
C156 H220 0.930 . S
C157 C156 1.322 . S
C157 C158 1.459 . S
C157 H221 0.929 . S
C158 C157 1.459 . S
C158 C159 1.445 . S
C158 C167 1.395 . S
C159 C137 1.432 . S
C159 C158 1.445 . S
C159 C160 1.370 . S
C160 C159 1.370 . S
C160 C161 1.438 . S
C160 H222 0.930 . S
C161 C147 1.497 1_545 S
C161 C160 1.438 . S
C161 C162 1.366 . S
C162 C161 1.366 . S
C162 C163 1.389 1_545 S
C162 C167 1.452 . S
C163 C162 1.389 1_565 S
C163 C164 1.347 . S
C163 H223 0.929 . S
C164 C163 1.347 . S
C164 C165 1.455 . S
C164 H224 0.930 . S
C165 C152 1.412 . S
C165 C164 1.455 . S
C165 C166 1.331 1_565 S
C166 C155 1.451 . S
C166 C165 1.331 1_545 S
C166 C167 1.497 . S
C167 C158 1.395 . S
C167 C162 1.452 . S
C167 C166 1.497 . S
C168 C169 1.582 . S
C168 H225 0.962 . S
C168 H226 0.959 . S
C168 H227 0.958 . S
C169 C168 1.582 . S
C169 O172 1.458 . S
C169 H198 0.980 . S
O170 C115 1.426 . S
O170 C116 1.334 . S
O171 C143 1.412 . S
O171 C144 1.393 . S
O172 C134 1.435 . S
O172 C169 1.458 . S
O173 C125 1.468 . S
O173 C126 1.408 . S
H174 C115 0.980 . S
H175 C114 0.959 . S
H176 C114 0.959 . S
H177 C114 0.960 . S
H178 C117 0.929 . S
H179 C121 0.929 . S
H180 C122 0.959 . S
H181 C122 0.961 . S
H182 C122 0.961 . S
H183 C123 0.960 . S
H184 C123 0.960 . S
H185 C123 0.961 . S
H186 C125 0.980 . S
H187 C124 0.961 . S
H188 C124 0.960 . S
H189 C124 0.959 . S
H190 C127 0.930 . S
H191 C131 0.931 . S
H192 C132 0.959 . S
H193 C132 0.961 . S
H194 C132 0.959 . S
H195 C133 0.960 . S
H196 C133 0.960 . S
H197 C133 0.960 . S
H198 C169 0.980 . S
H199 C135 0.930 . S
H200 C139 0.930 . S
H201 C140 0.961 . S
H202 C140 0.960 . S
H203 C140 0.958 . S
H204 C141 0.961 . S
H205 C141 0.960 . S
H206 C141 0.960 . S
H207 C143 0.980 . S
H208 C142 0.961 . S
H209 C142 0.961 . S
H210 C142 0.959 . S
H211 C145 0.932 . S
H212 C149 0.929 . S
H213 C150 0.961 . S
H214 C150 0.959 . S
H215 C150 0.959 . S
H216 C151 0.960 . S
H217 C151 0.962 . S
H218 C151 0.961 . S
H219 C153 0.929 . S
H220 C156 0.930 . S
H221 C157 0.929 . S
H222 C160 0.930 . S
H223 C163 0.929 . S
H224 C164 0.930 . S
H225 C168 0.962 . S
H226 C168 0.959 . S
H227 C168 0.958 . S
C228 C229 1.560 . S
C228 H289 0.959 . S
C228 H290 0.959 . S
C228 H291 0.960 . S
C229 C228 1.560 . S
C229 O284 1.426 . S
C229 H288 0.980 . S
C230 C231 1.407 . S
C230 C235 1.418 . S
C230 O284 1.334 . S
C231 C230 1.407 . S
C231 C232 1.360 . S
C231 H292 0.929 . S
C232 C231 1.360 . S
C232 C233 1.401 . S
C232 C236 1.527 . S
C233 C232 1.401 . S
C233 C234 1.405 . S
C233 C266 1.587 . S
C234 C233 1.405 . S
C234 C235 1.332 . S
C234 C237 1.496 . S
C235 C230 1.418 . S
C235 C234 1.332 . S
C235 H293 0.929 . S
C236 C232 1.527 . S
C236 H294 0.959 . S
C236 H295 0.961 . S
C236 H296 0.961 . S
C237 C234 1.496 . S
C237 H297 0.960 . S
C237 H298 0.960 . S
C237 H299 0.961 . S
C238 C239 1.517 . S
C238 H301 0.961 . S
C238 H302 0.960 . S
C238 H303 0.959 . S
C239 C238 1.517 . S
C239 O287 1.468 . S
C239 H300 0.980 . S
C240 C241 1.349 . S
C240 C245 1.367 . S
C240 O287 1.408 . S
C241 C240 1.349 . S
C241 C242 1.407 . S
C241 H304 0.930 . S
C242 C241 1.407 . S
C242 C243 1.449 . S
C242 C246 1.535 . S
C243 C242 1.449 . S
C243 C244 1.384 . S
C243 C268 1.553 . S
C244 C243 1.384 . S
C244 C245 1.364 . S
C244 C247 1.450 . S
C245 C240 1.367 . S
C245 C244 1.364 . S
C245 H305 0.931 . S
C246 C242 1.535 . S
C246 H306 0.959 . S
C246 H307 0.961 . S
C246 H308 0.959 . S
C247 C244 1.450 . S
C247 H309 0.960 . S
C247 H310 0.960 . S
C247 H311 0.960 . S
C248 C249 1.309 . S
C248 C253 1.304 . S
C248 O286 1.435 . S
C249 C248 1.309 . S
C249 C250 1.476 . S
C249 H313 0.930 . S
C250 C249 1.476 . S
C250 C251 1.400 . S
C250 C254 1.567 . S
C251 C250 1.400 . S
C251 C252 1.373 . S
C251 C273 1.432 . S
C252 C251 1.373 . S
C252 C253 1.339 . S
C252 C255 1.530 . S
C253 C248 1.304 . S
C253 C252 1.339 . S
C253 H314 0.930 . S
C254 C250 1.567 . S
C254 H315 0.961 . S
C254 H316 0.960 . S
C254 H317 0.958 . S
C255 C252 1.530 . S
C255 H318 0.961 . S
C255 H319 0.960 . S
C255 H320 0.960 . S
C256 C257 1.530 . S
C256 H322 0.961 . S
C256 H323 0.961 . S
C256 H324 0.959 . S
C257 C256 1.530 . S
C257 O285 1.412 . S
C257 H321 0.980 . S
C258 C259 1.288 . S
C258 C263 1.377 . S
C258 O285 1.393 . S
C259 C258 1.288 . S
C259 C260 1.369 . S
C259 H325 0.932 . S
C260 C259 1.369 . S
C260 C261 1.398 . S
C260 C264 1.527 . S
C261 C260 1.398 . S
C261 C262 1.380 . S
C261 C275 1.497 . S
C262 C261 1.380 . S
C262 C263 1.383 . S
C262 C265 1.603 . S
C263 C258 1.377 . S
C263 C262 1.383 . S
C263 H326 0.929 . S
C264 C260 1.527 . S
C264 H327 0.961 . S
C264 H328 0.959 . S
C264 H329 0.959 . S
C265 C262 1.603 . S
C265 H330 0.960 . S
C265 H331 0.962 . S
C265 H332 0.961 . S
C266 C233 1.587 . S
C266 C267 1.360 . S
C266 C279 1.412 . S
C267 C266 1.360 . S
C267 C268 1.365 . S
C267 H333 0.929 . S
C268 C243 1.553 . S
C268 C267 1.365 . S
C268 C269 1.404 . S
C269 C268 1.404 . S
C269 C270 1.395 . S
C269 C280 1.451 . S
C270 C269 1.395 . S
C270 C271 1.322 . S
C270 H334 0.930 . S
C271 C270 1.322 . S
C271 C272 1.459 . S
C271 H335 0.929 . S
C272 C271 1.459 . S
C272 C273 1.445 . S
C272 C281 1.395 . S
C273 C251 1.432 . S
C273 C272 1.445 . S
C273 C274 1.370 . S
C274 C273 1.370 . S
C274 C275 1.438 . S
C274 H336 0.930 . S
C275 C261 1.497 . S
C275 C274 1.438 . S
C275 C276 1.360 . S
C276 C275 1.360 . S
C276 C277 1.401 . S
C276 C281 1.446 . S
C277 C276 1.401 . S
C277 C278 1.347 . S
C277 H337 0.929 . S
C278 C277 1.347 . S
C278 C279 1.455 . S
C278 H338 0.930 . S
C279 C266 1.412 . S
C279 C278 1.455 . S
C279 C280 1.331 . S
C280 C269 1.451 . S
C280 C279 1.331 . S
C280 C281 1.497 . S
C281 C272 1.395 . S
C281 C276 1.446 . S
C281 C280 1.497 . S
C282 C283 1.582 . S
C282 H339 0.962 . S
C282 H340 0.959 . S
C282 H341 0.958 . S
C283 C282 1.582 . S
C283 O286 1.458 . S
C283 H312 0.980 . S
O284 C229 1.426 . S
O284 C230 1.334 . S
O285 C257 1.412 . S
O285 C258 1.393 . S
O286 C248 1.435 . S
O286 C283 1.458 . S
O287 C239 1.468 . S
O287 C240 1.408 . S
H288 C229 0.980 . S
H289 C228 0.959 . S
H290 C228 0.959 . S
H291 C228 0.960 . S
H292 C231 0.929 . S
H293 C235 0.929 . S
H294 C236 0.959 . S
H295 C236 0.961 . S
H296 C236 0.961 . S
H297 C237 0.960 . S
H298 C237 0.960 . S
H299 C237 0.961 . S
H300 C239 0.980 . S
H301 C238 0.961 . S
H302 C238 0.960 . S
H303 C238 0.959 . S
H304 C241 0.930 . S
H305 C245 0.931 . S
H306 C246 0.959 . S
H307 C246 0.961 . S
H308 C246 0.959 . S
H309 C247 0.960 . S
H310 C247 0.960 . S
H311 C247 0.960 . S
H312 C283 0.980 . S
H313 C249 0.930 . S
H314 C253 0.930 . S
H315 C254 0.961 . S
H316 C254 0.960 . S
H317 C254 0.958 . S
H318 C255 0.961 . S
H319 C255 0.960 . S
H320 C255 0.960 . S
H321 C257 0.980 . S
H322 C256 0.961 . S
H323 C256 0.961 . S
H324 C256 0.959 . S
H325 C259 0.932 . S
H326 C263 0.929 . S
H327 C264 0.961 . S
H328 C264 0.959 . S
H329 C264 0.959 . S
H330 C265 0.960 . S
H331 C265 0.962 . S
H332 C265 0.961 . S
H333 C267 0.929 . S
H334 C270 0.930 . S
H335 C271 0.929 . S
H336 C274 0.930 . S
H337 C277 0.929 . S
H338 C278 0.930 . S
H339 C282 0.962 . S
H340 C282 0.959 . S
H341 C282 0.958 . S
C342 C343 1.560 . S
C342 H403 0.959 . S
C342 H404 0.959 . S
C342 H405 0.960 . S
C343 C342 1.560 . S
C343 O398 1.426 . S
C343 H402 0.980 . S
C344 C345 1.407 . S
C344 C349 1.418 . S
C344 O398 1.334 . S
C345 C344 1.407 . S
C345 C346 1.360 . S
C345 H406 0.929 . S
C346 C345 1.360 . S
C346 C347 1.401 . S
C346 C350 1.527 . S
C347 C346 1.401 . S
C347 C348 1.405 . S
C347 C380 1.587 . S
C348 C347 1.405 . S
C348 C349 1.332 . S
C348 C351 1.496 . S
C349 C344 1.418 . S
C349 C348 1.332 . S
C349 H407 0.929 . S
C350 C346 1.527 . S
C350 H408 0.959 . S
C350 H409 0.961 . S
C350 H410 0.961 . S
C351 C348 1.496 . S
C351 H411 0.960 . S
C351 H412 0.960 . S
C351 H413 0.961 . S
C352 C353 1.517 . S
C352 H415 0.961 1_556 S
C352 H416 0.960 . S
C352 H417 0.959 . S
C353 C352 1.517 . S
C353 O401 1.468 . S
C353 H414 0.980 . S
C354 C355 1.349 . S
C354 C359 1.367 . S
C354 O401 1.408 . S
C355 C354 1.349 . S
C355 C356 1.407 . S
C355 H418 0.930 . S
C356 C355 1.407 . S
C356 C357 1.449 1_655 S
C356 C360 1.535 1_655 S
C357 C356 1.449 1_455 S
C357 C358 1.384 1_455 S
C357 C382 1.553 . S
C358 C357 1.384 1_655 S
C358 C359 1.364 . S
C358 C361 1.450 1_655 S
C359 C354 1.367 . S
C359 C358 1.364 . S
C359 H419 0.931 . S
C360 C356 1.535 1_455 S
C360 H420 0.959 . S
C360 H421 0.961 . S
C360 H422 0.959 1_455 S
C361 C358 1.450 1_455 S
C361 H423 0.960 1_455 S
C361 H424 0.960 . S
C361 H425 0.960 1_455 S
C362 C363 1.309 . S
C362 C367 1.304 . S
C362 O400 1.435 . S
C363 C362 1.309 . S
C363 C364 1.476 . S
C363 H427 0.930 . S
C364 C363 1.476 . S
C364 C365 1.400 . S
C364 C368 1.567 . S
C365 C364 1.400 . S
C365 C366 1.373 . S
C365 C387 1.432 . S
C366 C365 1.373 . S
C366 C367 1.339 . S
C366 C369 1.530 . S
C367 C362 1.304 . S
C367 C366 1.339 . S
C367 H428 0.930 . S
C368 C364 1.567 . S
C368 H429 0.961 . S
C368 H430 0.960 . S
C368 H431 0.958 . S
C369 C366 1.530 . S
C369 H432 0.961 . S
C369 H433 0.960 . S
C369 H434 0.960 . S
C370 C371 1.530 . S
C370 H436 0.961 . S
C370 H437 0.961 . S
C370 H438 0.959 . S
C371 C370 1.530 . S
C371 O399 1.412 . S
C371 H435 0.980 . S
C372 C373 1.288 . S
C372 C377 1.377 . S
C372 O399 1.393 . S
C373 C372 1.288 . S
C373 C374 1.369 . S
C373 H439 0.932 . S
C374 C373 1.369 . S
C374 C375 1.398 . S
C374 C378 1.527 . S
C375 C374 1.398 . S
C375 C376 1.380 . S
C375 C389 1.497 . S
C376 C375 1.380 . S
C376 C377 1.383 . S
C376 C379 1.603 . S
C377 C372 1.377 . S
C377 C376 1.383 . S
C377 H440 0.929 . S
C378 C374 1.527 . S
C378 H441 0.961 . S
C378 H442 0.959 . S
C378 H443 0.959 . S
C379 C376 1.603 . S
C379 H444 0.960 . S
C379 H445 0.962 . S
C379 H446 0.961 . S
C380 C347 1.587 . S
C380 C381 1.360 . S
C380 C393 1.412 . S
C381 C380 1.360 . S
C381 C382 1.365 . S
C381 H447 0.929 . S
C382 C357 1.553 . S
C382 C381 1.365 . S
C382 C383 1.404 . S
C383 C382 1.404 . S
C383 C384 1.395 1_455 S
C383 C394 1.451 . S
C384 C383 1.395 1_655 S
C384 C385 1.322 . S
C384 H448 0.930 . S
C385 C384 1.322 . S
C385 C386 1.459 . S
C385 H449 0.929 . S
C386 C385 1.459 . S
C386 C387 1.445 . S
C386 C395 1.395 1_655 S
C387 C365 1.432 . S
C387 C386 1.445 . S
C387 C388 1.370 . S
C388 C387 1.370 . S
C388 C389 1.438 1_655 S
C388 H450 0.930 . S
C389 C375 1.497 . S
C389 C388 1.438 1_455 S
C389 C390 1.360 . S
C390 C389 1.360 . S
C390 C391 1.401 . S
C390 C395 1.446 . S
C391 C390 1.401 . S
C391 C392 1.347 . S
C391 H451 0.929 . S
C392 C391 1.347 . S
C392 C393 1.455 . S
C392 H452 0.930 . S
C393 C380 1.412 . S
C393 C392 1.455 . S
C393 C394 1.331 . S
C394 C383 1.451 . S
C394 C393 1.331 . S
C394 C395 1.497 . S
C395 C386 1.395 1_455 S
C395 C390 1.446 . S
C395 C394 1.497 . S
C396 C397 1.582 . S
C396 H453 0.962 . S
C396 H454 0.959 . S
C396 H455 0.958 . S
C397 C396 1.582 . S
C397 O400 1.458 . S
C397 H426 0.980 . S
O398 C343 1.426 . S
O398 C344 1.334 . S
O399 C371 1.412 . S
O399 C372 1.393 . S
O400 C362 1.435 . S
O400 C397 1.458 . S
O401 C353 1.468 . S
O401 C354 1.408 . S
H402 C343 0.980 . S
H403 C342 0.959 . S
H404 C342 0.959 . S
H405 C342 0.960 . S
H406 C345 0.929 . S
H407 C349 0.929 . S
H408 C350 0.959 . S
H409 C350 0.961 . S
H410 C350 0.961 . S
H411 C351 0.960 . S
H412 C351 0.960 . S
H413 C351 0.961 . S
H414 C353 0.980 . S
H415 C352 0.961 1_554 S
H416 C352 0.960 . S
H417 C352 0.959 . S
H418 C355 0.930 . S
H419 C359 0.931 . S
H420 C360 0.959 . S
H421 C360 0.961 . S
H422 C360 0.959 1_655 S
H423 C361 0.960 1_655 S
H424 C361 0.960 . S
H425 C361 0.960 1_655 S
H426 C397 0.980 . S
H427 C363 0.930 . S
H428 C367 0.930 . S
H429 C368 0.961 . S
H430 C368 0.960 . S
H431 C368 0.958 . S
H432 C369 0.961 . S
H433 C369 0.960 . S
H434 C369 0.960 . S
H435 C371 0.980 . S
H436 C370 0.961 . S
H437 C370 0.961 . S
H438 C370 0.959 . S
H439 C373 0.932 . S
H440 C377 0.929 . S
H441 C378 0.961 . S
H442 C378 0.959 . S
H443 C378 0.959 . S
H444 C379 0.960 . S
H445 C379 0.962 . S
H446 C379 0.961 . S
H447 C381 0.929 . S
H448 C384 0.930 . S
H449 C385 0.929 . S
H450 C388 0.930 . S
H451 C391 0.929 . S
H452 C392 0.930 . S
H453 C396 0.962 . S
H454 C396 0.959 . S
H455 C396 0.958 . S
C456 C457 1.560 . S
C456 H517 0.959 . S
C456 H518 0.959 . S
C456 H519 0.960 . S
C457 C456 1.560 . S
C457 O512 1.426 . S
C457 H516 0.980 . S
C458 C459 1.407 . S
C458 C463 1.418 . S
C458 O512 1.334 . S
C459 C458 1.407 . S
C459 C460 1.360 . S
C459 H520 0.929 . S
C460 C459 1.360 . S
C460 C461 1.401 . S
C460 C464 1.527 . S
C461 C460 1.401 . S
C461 C462 1.405 . S
C461 C494 1.587 . S
C462 C461 1.405 . S
C462 C463 1.332 . S
C462 C465 1.496 . S
C463 C458 1.418 . S
C463 C462 1.332 . S
C463 H521 0.929 . S
C464 C460 1.527 . S
C464 H522 0.959 . S
C464 H523 0.961 . S
C464 H524 0.961 . S
C465 C462 1.496 . S
C465 H525 0.960 . S
C465 H526 0.960 . S
C465 H527 0.961 . S
C466 C467 1.517 . S
C466 H529 0.961 . S
C466 H530 0.960 . S
C466 H531 0.959 . S
C467 C466 1.517 . S
C467 O515 1.468 . S
C467 H528 0.980 . S
C468 C469 1.349 . S
C468 C473 1.367 . S
C468 O515 1.408 . S
C469 C468 1.349 . S
C469 C470 1.407 . S
C469 H532 0.930 . S
C470 C469 1.407 . S
C470 C471 1.449 . S
C470 C474 1.535 . S
C471 C470 1.449 . S
C471 C472 1.384 . S
C471 C496 1.553 . S
C472 C471 1.384 . S
C472 C473 1.364 . S
C472 C475 1.450 . S
C473 C468 1.367 . S
C473 C472 1.364 . S
C473 H533 0.931 . S
C474 C470 1.535 . S
C474 H534 0.959 . S
C474 H535 0.961 . S
C474 H536 0.959 . S
C475 C472 1.450 . S
C475 H537 0.960 . S
C475 H538 0.960 . S
C475 H539 0.960 . S
C476 C477 1.309 . S
C476 C481 1.304 . S
C476 O514 1.435 . S
C477 C476 1.309 . S
C477 C478 1.476 . S
C477 H541 0.930 . S
C478 C477 1.476 . S
C478 C479 1.400 . S
C478 C482 1.567 . S
C479 C478 1.400 . S
C479 C480 1.373 . S
C479 C501 1.432 . S
C480 C479 1.373 . S
C480 C481 1.339 . S
C480 C483 1.530 . S
C481 C476 1.304 . S
C481 C480 1.339 . S
C481 H542 0.930 . S
C482 C478 1.567 . S
C482 H543 0.961 . S
C482 H544 0.960 . S
C482 H545 0.958 . S
C483 C480 1.530 . S
C483 H546 0.961 . S
C483 H547 0.960 . S
C483 H548 0.960 . S
C484 C485 1.530 . S
C484 H550 0.961 . S
C484 H551 0.961 . S
C484 H552 0.959 . S
C485 C484 1.530 . S
C485 O513 1.412 . S
C485 H549 0.980 . S
C486 C487 1.288 . S
C486 C491 1.377 . S
C486 O513 1.393 . S
C487 C486 1.288 . S
C487 C488 1.369 . S
C487 H553 0.932 . S
C488 C487 1.369 . S
C488 C489 1.398 . S
C488 C492 1.527 1_565 S
C489 C488 1.398 . S
C489 C490 1.380 . S
C489 C503 1.497 1_565 S
C490 C489 1.380 . S
C490 C491 1.383 . S
C490 C493 1.603 . S
C491 C486 1.377 . S
C491 C490 1.383 . S
C491 H554 0.929 . S
C492 C488 1.527 1_545 S
C492 H555 0.961 . S
C492 H556 0.959 . S
C492 H557 0.959 . S
C493 C490 1.603 . S
C493 H558 0.960 . S
C493 H559 0.987 . S
C493 H560 0.961 . S
C494 C461 1.587 . S
C494 C495 1.360 . S
C494 C507 1.412 . S
C495 C494 1.360 . S
C495 C496 1.365 1_565 S
C495 H561 0.929 . S
C496 C471 1.553 . S
C496 C495 1.365 1_545 S
C496 C497 1.404 . S
C497 C496 1.404 . S
C497 C498 1.395 . S
C497 C508 1.451 . S
C498 C497 1.395 . S
C498 C499 1.322 . S
C498 H562 0.930 . S
C499 C498 1.322 . S
C499 C500 1.459 1_556 S
C499 H563 0.929 . S
C500 C499 1.459 1_554 S
C500 C501 1.445 . S
C500 C509 1.396 . S
C501 C479 1.432 . S
C501 C500 1.445 . S
C501 C502 1.370 . S
C502 C501 1.370 . S
C502 C503 1.438 . S
C502 H564 0.930 . S
C503 C489 1.497 1_545 S
C503 C502 1.438 . S
C503 C504 1.368 . S
C504 C503 1.368 . S
C504 C505 1.376 1_545 S
C504 C509 1.465 . S
C505 C504 1.376 1_565 S
C505 C506 1.347 1_554 S
C505 H565 0.929 . S
C506 C505 1.347 1_556 S
C506 C507 1.455 . S
C506 H566 0.930 . S
C507 C494 1.412 . S
C507 C506 1.455 . S
C507 C508 1.331 1_565 S
C508 C497 1.451 . S
C508 C507 1.331 1_545 S
C508 C509 1.494 1_556 S
C509 C500 1.396 . S
C509 C504 1.465 . S
C509 C508 1.494 1_554 S
C510 C511 1.582 . S
C510 H567 0.962 . S
C510 H568 0.959 . S
C510 H569 0.958 . S
C511 C510 1.582 . S
C511 O514 1.458 . S
C511 H540 0.980 . S
O512 C457 1.426 . S
O512 C458 1.334 . S
O513 C485 1.412 . S
O513 C486 1.393 . S
O514 C476 1.435 . S
O514 C511 1.458 . S
O515 C467 1.468 . S
O515 C468 1.408 . S
H516 C457 0.980 . S
H517 C456 0.959 . S
H518 C456 0.959 . S
H519 C456 0.960 . S
H520 C459 0.929 . S
H521 C463 0.929 . S
H522 C464 0.959 . S
H523 C464 0.961 . S
H524 C464 0.961 . S
H525 C465 0.960 . S
H526 C465 0.960 . S
H527 C465 0.961 . S
H528 C467 0.980 . S
H529 C466 0.961 . S
H530 C466 0.960 . S
H531 C466 0.959 . S
H532 C469 0.930 . S
H533 C473 0.931 . S
H534 C474 0.959 . S
H535 C474 0.961 . S
H536 C474 0.959 . S
H537 C475 0.960 . S
H538 C475 0.960 . S
H539 C475 0.960 . S
H540 C511 0.980 . S
H541 C477 0.930 . S
H542 C481 0.930 . S
H543 C482 0.961 . S
H544 C482 0.960 . S
H545 C482 0.958 . S
H546 C483 0.961 . S
H547 C483 0.960 . S
H548 C483 0.960 . S
H549 C485 0.980 . S
H550 C484 0.961 . S
H551 C484 0.961 . S
H552 C484 0.959 . S
H553 C487 0.932 . S
H554 C491 0.929 . S
H555 C492 0.961 . S
H556 C492 0.959 . S
H557 C492 0.959 . S
H558 C493 0.960 . S
H559 C493 0.987 . S
H560 C493 0.961 . S
H561 C495 0.929 . S
H562 C498 0.930 . S
H563 C499 0.929 . S
H564 C502 0.930 . S
H565 C505 0.929 . S
H566 C506 0.930 . S
H567 C510 0.962 . S
H568 C510 0.959 . S
H569 C510 0.958 . S
C570 C571 1.560 . S
C570 H631 0.959 . S
C570 H632 0.959 . S
C570 H633 0.960 . S
C571 C570 1.560 . S
C571 O626 1.426 . S
C571 H630 0.980 . S
C572 C573 1.407 . S
C572 C577 1.418 . S
C572 O626 1.334 . S
C573 C572 1.407 . S
C573 C574 1.360 . S
C573 H634 0.929 . S
C574 C573 1.360 . S
C574 C575 1.401 . S
C574 C578 1.527 . S
C575 C574 1.401 . S
C575 C576 1.405 . S
C575 C608 1.587 . S
C576 C575 1.405 . S
C576 C577 1.332 . S
C576 C579 1.496 . S
C577 C572 1.418 . S
C577 C576 1.332 . S
C577 H635 0.929 . S
C578 C574 1.527 . S
C578 H636 0.959 . S
C578 H637 0.961 . S
C578 H638 0.961 . S
C579 C576 1.496 . S
C579 H639 0.960 . S
C579 H640 0.960 . S
C579 H641 0.961 . S
C580 C581 1.517 1_556 S
C580 H643 0.961 . S
C580 H644 0.960 . S
C580 H645 0.959 1_556 S
C581 C580 1.517 1_554 S
C581 O629 1.468 . S
C581 H642 0.980 . S
C582 C583 1.349 . S
C582 C587 1.367 . S
C582 O629 1.408 . S
C583 C582 1.349 . S
C583 C584 1.407 . S
C583 H646 0.930 . S
C584 C583 1.407 . S
C584 C585 1.449 . S
C584 C588 1.535 . S
C585 C584 1.449 . S
C585 C586 1.384 . S
C585 C610 1.553 . S
C586 C585 1.384 . S
C586 C587 1.364 . S
C586 C589 1.450 . S
C587 C582 1.367 . S
C587 C586 1.364 . S
C587 H647 0.931 . S
C588 C584 1.535 . S
C588 H648 0.959 . S
C588 H649 0.961 . S
C588 H650 0.959 . S
C589 C586 1.450 . S
C589 H651 0.960 . S
C589 H652 0.960 . S
C589 H653 0.960 . S
C590 C591 1.309 . S
C590 C595 1.304 . S
C590 O628 1.435 . S
C591 C590 1.309 . S
C591 C592 1.476 . S
C591 H655 0.930 . S
C592 C591 1.476 . S
C592 C593 1.400 . S
C592 C596 1.567 . S
C593 C592 1.400 . S
C593 C594 1.373 . S
C593 C615 1.432 . S
C594 C593 1.373 . S
C594 C595 1.339 . S
C594 C597 1.530 . S
C595 C590 1.304 . S
C595 C594 1.339 . S
C595 H656 0.930 . S
C596 C592 1.567 . S
C596 H657 0.961 . S
C596 H658 0.960 . S
C596 H659 0.958 . S
C597 C594 1.530 . S
C597 H660 0.961 . S
C597 H661 0.960 . S
C597 H662 0.960 . S
C598 C599 1.530 . S
C598 H664 0.961 . S
C598 H665 0.961 . S
C598 H666 0.959 . S
C599 C598 1.530 . S
C599 O627 1.412 . S
C599 H663 0.980 . S
C600 C601 1.288 . S
C600 C605 1.377 . S
C600 O627 1.393 . S
C601 C600 1.288 . S
C601 C602 1.369 . S
C601 H667 0.932 . S
C602 C601 1.369 . S
C602 C603 1.398 . S
C602 C606 1.527 . S
C603 C602 1.398 . S
C603 C604 1.380 . S
C603 C617 1.497 . S
C604 C603 1.380 . S
C604 C605 1.383 . S
C604 C607 1.603 . S
C605 C600 1.377 . S
C605 C604 1.383 . S
C605 H668 0.929 . S
C606 C602 1.527 . S
C606 H669 0.961 . S
C606 H670 0.959 . S
C606 H671 0.959 . S
C607 C604 1.603 . S
C607 H672 0.960 . S
C607 H673 0.962 . S
C607 H674 0.961 . S
C608 C575 1.587 . S
C608 C609 1.360 . S
C608 C621 1.412 . S
C609 C608 1.360 . S
C609 C610 1.365 . S
C609 H675 0.929 . S
C610 C585 1.553 . S
C610 C609 1.365 . S
C610 C611 1.404 . S
C611 C610 1.404 . S
C611 C612 1.395 . S
C611 C622 1.451 . S
C612 C611 1.395 . S
C612 C613 1.322 . S
C612 H676 0.930 . S
C613 C612 1.322 . S
C613 C614 1.459 . S
C613 H677 0.929 . S
C614 C613 1.459 . S
C614 C615 1.445 . S
C614 C623 1.395 . S
C615 C593 1.432 . S
C615 C614 1.445 . S
C615 C616 1.370 . S
C616 C615 1.370 . S
C616 C617 1.438 . S
C616 H678 0.930 . S
C617 C603 1.497 . S
C617 C616 1.438 . S
C617 C618 1.360 . S
C618 C617 1.360 . S
C618 C619 1.401 . S
C618 C623 1.446 . S
C619 C618 1.401 . S
C619 C620 1.347 . S
C619 H679 0.929 . S
C620 C619 1.347 . S
C620 C621 1.455 . S
C620 H680 0.930 . S
C621 C608 1.412 . S
C621 C620 1.455 . S
C621 C622 1.331 . S
C622 C611 1.451 . S
C622 C621 1.331 . S
C622 C623 1.497 . S
C623 C614 1.395 . S
C623 C618 1.446 . S
C623 C622 1.497 . S
C624 C625 1.582 . S
C624 H681 0.962 . S
C624 H682 0.959 . S
C624 H683 0.958 . S
C625 C624 1.582 . S
C625 O628 1.458 . S
C625 H654 0.980 . S
O626 C571 1.426 . S
O626 C572 1.334 . S
O627 C599 1.412 . S
O627 C600 1.393 . S
O628 C590 1.435 . S
O628 C625 1.458 . S
O629 C581 1.468 . S
O629 C582 1.408 . S
H630 C571 0.980 . S
H631 C570 0.959 . S
H632 C570 0.959 . S
H633 C570 0.960 . S
H634 C573 0.929 . S
H635 C577 0.929 . S
H636 C578 0.959 . S
H637 C578 0.961 . S
H638 C578 0.961 . S
H639 C579 0.960 . S
H640 C579 0.960 . S
H641 C579 0.961 . S
H642 C581 0.980 . S
H643 C580 0.961 . S
H644 C580 0.960 . S
H645 C580 0.959 1_554 S
H646 C583 0.930 . S
H647 C587 0.931 . S
H648 C588 0.959 . S
H649 C588 0.961 . S
H650 C588 0.959 . S
H651 C589 0.960 . S
H652 C589 0.960 . S
H653 C589 0.960 . S
H654 C625 0.980 . S
H655 C591 0.930 . S
H656 C595 0.930 . S
H657 C596 0.961 . S
H658 C596 0.960 . S
H659 C596 0.958 . S
H660 C597 0.961 . S
H661 C597 0.960 . S
H662 C597 0.960 . S
H663 C599 0.980 . S
H664 C598 0.961 . S
H665 C598 0.961 . S
H666 C598 0.959 . S
H667 C601 0.932 . S
H668 C605 0.929 . S
H669 C606 0.961 . S
H670 C606 0.959 . S
H671 C606 0.959 . S
H672 C607 0.960 . S
H673 C607 0.962 . S
H674 C607 0.961 . S
H675 C609 0.929 . S
H676 C612 0.930 . S
H677 C613 0.929 . S
H678 C616 0.930 . S
H679 C619 0.929 . S
H680 C620 0.930 . S
H681 C624 0.962 . S
H682 C624 0.959 . S
H683 C624 0.958 . S
In684 O685 2.294 . S
In684 O686 2.326 . S
In684 O690 2.266 . S
In684 O691 2.326 . S
In684 O692 2.266 . S
In684 O693 2.326 . S
In684 O695 2.294 . S
In684 O696 2.326 . S
O685 In684 2.294 . S
O685 C694 1.240 . S
O686 In684 2.326 . S
O686 C694 1.252 . S
C687 O690 1.252 . S
C687 O691 1.260 . S
C688 O695 1.240 . S
C688 O696 1.252 . S
C689 O692 1.252 . S
C689 O693 1.260 . S
O690 In684 2.266 . S
O690 C687 1.252 . S
O691 In684 2.326 . S
O691 C687 1.260 . S
O692 In684 2.266 . S
O692 C689 1.252 . S
O693 In684 2.326 . S
O693 C689 1.260 . S
C694 O685 1.240 . S
C694 O686 1.252 . S
O695 In684 2.294 . S
O695 C688 1.240 . S
O696 In684 2.326 . S
O696 C688 1.252 . S
In697 O698 2.294 . S
In697 O699 2.326 . S
In697 O703 2.266 . S
In697 O704 2.326 . S
In697 O705 2.266 . S
In697 O706 2.326 . S
In697 O708 2.294 . S
In697 O709 2.326 . S
O698 In697 2.294 . S
O698 C707 1.240 . S
O699 In697 2.326 . S
O699 C707 1.252 . S
C700 O703 1.252 . S
C700 O704 1.260 . S
C701 O708 1.240 . S
C701 O709 1.252 . S
C702 O705 1.252 . S
C702 O706 1.260 . S
O703 In697 2.266 . S
O703 C700 1.252 . S
O704 In697 2.326 . S
O704 C700 1.260 . S
O705 In697 2.266 . S
O705 C702 1.252 . S
O706 In697 2.326 . S
O706 C702 1.260 . S
C707 O698 1.240 . S
C707 O699 1.252 . S
O708 In697 2.294 . S
O708 C701 1.240 . S
O709 In697 2.326 . S
O709 C701 1.252 . S
In710 O711 2.294 . S
In710 O712 2.326 . S
In710 O716 2.266 . S
In710 O717 2.326 . S
In710 O718 2.266 . S
In710 O719 2.326 . S
In710 O721 2.294 . S
In710 O722 2.326 . S
O711 In710 2.294 . S
O711 C720 1.240 . S
O712 In710 2.326 . S
O712 C720 1.252 . S
C713 O716 1.252 . S
C713 O717 1.260 . S
C714 O721 1.240 . S
C714 O722 1.252 . S
C715 O718 1.252 . S
C715 O719 1.260 . S
O716 In710 2.266 . S
O716 C713 1.252 . S
O717 In710 2.326 . S
O717 C713 1.260 . S
O718 In710 2.266 . S
O718 C715 1.252 . S
O719 In710 2.326 . S
O719 C715 1.260 . S
C720 O711 1.240 . S
C720 O712 1.252 . S
O721 In710 2.294 . S
O721 C714 1.240 . S
O722 In710 2.326 . S
O722 C714 1.252 . S
In723 O724 2.294 . S
In723 O725 2.326 . S
In723 O729 2.266 . S
In723 O730 2.326 . S
In723 O731 2.266 . S
In723 O732 2.326 . S
In723 O734 2.294 . S
In723 O735 2.326 . S
O724 In723 2.294 . S
O724 C733 1.240 . S
O725 In723 2.326 . S
O725 C733 1.252 . S
C726 O729 1.252 . S
C726 O730 1.260 . S
C727 O734 1.240 . S
C727 O735 1.252 . S
C728 O731 1.252 . S
C728 O732 1.260 . S
O729 In723 2.266 . S
O729 C726 1.252 . S
O730 In723 2.326 . S
O730 C726 1.260 . S
O731 In723 2.266 . S
O731 C728 1.252 . S
O732 In723 2.326 . S
O732 C728 1.260 . S
C733 O724 1.240 . S
C733 O725 1.252 . S
O734 In723 2.294 . S
O734 C727 1.240 . S
O735 In723 2.326 . S
O735 C727 1.252 . S
In736 O737 2.294 . S
In736 O738 2.326 . S
In736 O742 2.266 . S
In736 O743 2.326 . S
In736 O744 2.266 . S
In736 O745 2.326 . S
In736 O747 2.294 . S
In736 O748 2.326 . S
O737 In736 2.294 . S
O737 C746 1.240 . S
O738 In736 2.326 . S
O738 C746 1.252 . S
C739 O742 1.252 . S
C739 O743 1.260 . S
C740 O747 1.240 . S
C740 O748 1.252 . S
C741 O744 1.252 . S
C741 O745 1.260 . S
O742 In736 2.266 . S
O742 C739 1.252 . S
O743 In736 2.326 . S
O743 C739 1.260 . S
O744 In736 2.266 . S
O744 C741 1.252 . S
O745 In736 2.326 . S
O745 C741 1.260 . S
C746 O737 1.240 . S
C746 O738 1.252 . S
O747 In736 2.294 . S
O747 C740 1.240 . S
O748 In736 2.326 . S
O748 C740 1.252 . S
In749 O750 2.294 . S
In749 O751 2.326 . S
In749 O755 2.266 . S
In749 O756 2.326 . S
In749 O757 2.266 . S
In749 O758 2.326 . S
In749 O760 2.294 . S
In749 O761 2.326 . S
O750 In749 2.294 . S
O750 C759 1.240 . S
O751 In749 2.326 . S
O751 C759 1.252 . S
C752 O755 1.252 . S
C752 O756 1.260 . S
C753 O760 1.240 . S
C753 O761 1.252 . S
C754 O757 1.252 . S
C754 O758 1.260 . S
O755 In749 2.266 . S
O755 C752 1.252 . S
O756 In749 2.326 . S
O756 C752 1.260 . S
O757 In749 2.266 . S
O757 C754 1.252 . S
O758 In749 2.326 . S
O758 C754 1.260 . S
C759 O750 1.240 . S
C759 O751 1.252 . S
O760 In749 2.294 . S
O760 C753 1.240 . S
O761 In749 2.326 . S
O761 C753 1.252 . S
C762 C763 1.387 . S
C762 H766 0.950 . S
C762 C771 1.390 . S
C763 C762 1.387 . S
C763 C765 1.387 . S
H764 C771 0.950 . S
C765 C763 1.387 . S
C765 C767 1.390 . S
C765 H769 0.950 . S
H766 C762 0.950 . S
C767 C765 1.390 . S
C767 C768 1.387 . S
C767 H770 0.950 . S
C768 C767 1.387 . S
C768 C771 1.387 . S
H769 C765 0.950 . S
H770 C767 0.950 . S
C771 C762 1.390 . S
C771 H764 0.950 . S
C771 C768 1.387 . S
C772 C773 1.387 . S
C772 H776 0.950 . S
C772 C781 1.390 . S
C773 C772 1.387 . S
C773 C775 1.387 . S
H774 C781 0.950 . S
C775 C773 1.387 . S
C775 C777 1.390 . S
C775 H779 0.950 . S
H776 C772 0.950 . S
C777 C775 1.390 . S
C777 C778 1.387 . S
C777 H780 0.950 . S
C778 C777 1.387 . S
C778 C781 1.387 . S
H779 C775 0.950 . S
H780 C777 0.950 . S
C781 C772 1.390 . S
C781 H774 0.950 . S
C781 C778 1.387 . S
C782 C783 1.387 . S
C782 H786 0.950 . S
C782 C791 1.390 . S
C783 C782 1.387 . S
C783 C785 1.387 . S
H784 C791 0.950 . S
C785 C783 1.387 . S
C785 C787 1.390 . S
C785 H789 0.950 . S
H786 C782 0.950 . S
C787 C785 1.390 . S
C787 C788 1.387 . S
C787 H790 0.950 . S
C788 C787 1.387 . S
C788 C791 1.387 . S
H789 C785 0.950 . S
H790 C787 0.950 . S
C791 C782 1.390 . S
C791 H784 0.950 . S
C791 C788 1.387 . S
C792 C793 1.387 . S
C792 H796 0.950 . S
C792 C801 1.390 . S
C793 C792 1.387 . S
C793 C795 1.387 . S
H794 C801 0.950 . S
C795 C793 1.387 . S
C795 C797 1.390 . S
C795 H799 0.950 . S
H796 C792 0.950 . S
C797 C795 1.390 . S
C797 C798 1.387 . S
C797 H800 0.950 . S
C798 C797 1.387 . S
C798 C801 1.387 . S
H799 C795 0.950 . S
H800 C797 0.950 . S
C801 C792 1.390 . S
C801 H794 0.950 . S
C801 C798 1.387 . S
C802 C803 1.387 . S
C802 H806 0.950 . S
C802 C811 1.390 . S
C803 C802 1.387 . S
C803 C805 1.387 . S
H804 C811 0.950 . S
C805 C803 1.387 . S
C805 C807 1.390 . S
C805 H809 0.950 . S
H806 C802 0.950 . S
C807 C805 1.390 . S
C807 C808 1.387 . S
C807 H810 0.950 . S
C808 C807 1.387 . S
C808 C811 1.387 . S
H809 C805 0.950 . S
H810 C807 0.950 . S
C811 C802 1.390 . S
C811 H804 0.950 . S
C811 C808 1.387 . S
C812 C813 1.387 . S
C812 H816 0.950 . S
C812 C821 1.390 . S
C813 C812 1.387 . S
C813 C815 1.387 . S
H814 C821 0.950 . S
C815 C813 1.387 . S
C815 C817 1.390 . S
C815 H819 0.950 . S
H816 C812 0.950 . S
C817 C815 1.390 . S
C817 C818 1.387 . S
C817 H820 0.950 . S
C818 C817 1.387 . S
C818 C821 1.387 . S
H819 C815 0.950 . S
H820 C817 0.950 . S
C821 C812 1.390 . S
C821 H814 0.950 . S
C821 C818 1.387 . S
C822 C823 1.387 . S
C822 H826 0.950 . S
C822 C831 1.390 . S
C823 C822 1.387 . S
C823 C825 1.387 . S
H824 C831 0.950 . S
C825 C823 1.387 . S
C825 C827 1.390 . S
C825 H829 0.950 . S
H826 C822 0.950 . S
C827 C825 1.390 . S
C827 C828 1.387 . S
C827 H830 0.950 . S
C828 C827 1.387 . S
C828 C831 1.387 . S
H829 C825 0.950 . S
H830 C827 0.950 . S
C831 C822 1.390 . S
C831 H824 0.950 . S
C831 C828 1.387 . S
C832 C833 1.387 . S
C832 H836 0.950 . S
C832 C841 1.390 . S
C833 C832 1.387 . S
C833 C835 1.387 . S
H834 C841 0.950 . S
C835 C833 1.387 . S
C835 C837 1.390 . S
C835 H839 0.950 . S
H836 C832 0.950 . S
C837 C835 1.390 . S
C837 C838 1.387 . S
C837 H840 0.950 . S
C838 C837 1.387 . S
C838 C841 1.387 . S
H839 C835 0.950 . S
H840 C837 0.950 . S
C841 C832 1.390 . S
C841 H834 0.950 . S
C841 C838 1.387 . S
C842 C843 1.387 . S
C842 H846 0.950 . S
C842 C851 1.390 . S
C843 C842 1.387 . S
C843 C845 1.387 . S
H844 C851 0.950 . S
C845 C843 1.387 . S
C845 C847 1.390 . S
C845 H849 0.950 . S
H846 C842 0.950 . S
C847 C845 1.390 . S
C847 C848 1.387 . S
C847 H850 0.950 . S
C848 C847 1.387 . S
C848 C851 1.387 . S
H849 C845 0.950 . S
H850 C847 0.950 . S
C851 C842 1.390 . S
C851 H844 0.950 . S
C851 C848 1.387 . S
C852 C853 1.387 . S
C852 H856 0.950 . S
C852 C861 1.390 . S
C853 C852 1.387 . S
C853 C855 1.387 . S
H854 C861 0.950 . S
C855 C853 1.387 . S
C855 C857 1.390 . S
C855 H859 0.950 . S
H856 C852 0.950 . S
C857 C855 1.390 . S
C857 C858 1.387 . S
C857 H860 0.950 . S
C858 C857 1.387 . S
C858 C861 1.387 . S
H859 C855 0.950 . S
H860 C857 0.950 . S
C861 C852 1.390 . S
C861 H854 0.950 . S
C861 C858 1.387 . S
C862 C863 1.387 . S
C862 H866 0.950 . S
C862 C871 1.390 . S
C863 C862 1.387 . S
C863 C865 1.387 . S
H864 C871 0.950 . S
C865 C863 1.387 . S
C865 C867 1.390 . S
C865 H869 0.950 . S
H866 C862 0.950 . S
C867 C865 1.390 . S
C867 C868 1.387 . S
C867 H870 0.950 . S
C868 C867 1.387 . S
C868 C871 1.387 . S
H869 C865 0.950 . S
H870 C867 0.950 . S
C871 C862 1.390 . S
C871 H864 0.950 . S
C871 C868 1.387 . S
C872 C873 1.387 . S
C872 H876 0.950 . S
C872 C881 1.390 . S
C873 C872 1.387 . S
C873 C875 1.387 . S
H874 C881 0.950 . S
C875 C873 1.387 . S
C875 C877 1.390 . S
C875 H879 0.950 . S
H876 C872 0.950 . S
C877 C875 1.390 . S
C877 C878 1.387 . S
C877 H880 0.950 . S
C878 C877 1.387 . S
C878 C881 1.387 . S
H879 C875 0.950 . S
H880 C877 0.950 . S
C881 C872 1.390 . S
C881 H874 0.950 . S
C881 C878 1.387 . S
C882 C883 1.387 . S
C882 H886 0.950 . S
C882 C891 1.390 . S
C883 C882 1.387 . S
C883 C885 1.387 . S
H884 C891 0.950 . S
C885 C883 1.387 . S
C885 C887 1.390 . S
C885 H889 0.950 . S
H886 C882 0.950 . S
C887 C885 1.390 . S
C887 C888 1.387 . S
C887 H890 0.950 . S
C888 C887 1.387 . S
C888 C891 1.387 . S
H889 C885 0.950 . S
H890 C887 0.950 . S
C891 C882 1.390 . S
C891 H884 0.950 . S
C891 C888 1.387 . S
C892 C893 1.387 . S
C892 H896 0.950 . S
C892 C901 1.390 . S
C893 C892 1.387 . S
C893 C895 1.387 . S
H894 C901 0.950 . S
C895 C893 1.387 . S
C895 C897 1.390 . S
C895 H899 0.950 . S
H896 C892 0.950 . S
C897 C895 1.390 . S
C897 C898 1.387 . S
C897 H900 0.950 . S
C898 C897 1.387 . S
C898 C901 1.387 . S
H899 C895 0.950 . S
H900 C897 0.950 . S
C901 C892 1.390 . S
C901 H894 0.950 . S
C901 C898 1.387 . S
C902 C903 1.387 . S
C902 H906 0.950 . S
C902 C911 1.390 . S
C903 C902 1.387 . S
C903 C905 1.387 . S
H904 C911 0.950 . S
C905 C903 1.387 . S
C905 C907 1.390 . S
C905 H909 0.950 . S
H906 C902 0.950 . S
C907 C905 1.390 . S
C907 C908 1.387 . S
C907 H910 0.950 . S
C908 C907 1.387 . S
C908 C911 1.387 . S
H909 C905 0.950 . S
H910 C907 0.950 . S
C911 C902 1.390 . S
C911 H904 0.950 . S
C911 C908 1.387 . S
C912 C913 1.387 . S
C912 H916 0.950 . S
C912 C921 1.390 1_556 S
C913 C912 1.387 . S
C913 C915 1.387 . S
H914 C921 0.950 . S
C915 C913 1.387 . S
C915 C917 1.390 1_556 S
C915 H919 0.950 . S
H916 C912 0.950 . S
C917 C915 1.390 1_554 S
C917 C918 1.387 . S
C917 H920 0.950 . S
C918 C917 1.387 . S
C918 C921 1.387 . S
H919 C915 0.950 . S
H920 C917 0.950 . S
C921 C912 1.390 1_554 S
C921 H914 0.950 . S
C921 C918 1.387 . S
C922 C923 1.387 . S
C922 H926 0.950 . S
C922 C931 1.390 . S
C923 C922 1.387 . S
C923 C925 1.387 . S
H924 C931 0.950 . S
C925 C923 1.387 . S
C925 C927 1.390 . S
C925 H929 0.950 . S
H926 C922 0.950 . S
C927 C925 1.390 . S
C927 C928 1.387 . S
C927 H930 0.950 . S
C928 C927 1.387 . S
C928 C931 1.387 . S
H929 C925 0.950 . S
H930 C927 0.950 . S
C931 C922 1.390 . S
C931 H924 0.950 . S
C931 C928 1.387 . S
C932 C933 1.387 . S
C932 H936 0.950 . S
C932 C941 1.390 . S
C933 C932 1.387 . S
C933 C935 1.387 . S
H934 C941 0.950 . S
C935 C933 1.387 . S
C935 C937 1.390 . S
C935 H939 0.950 . S
H936 C932 0.950 . S
C937 C935 1.390 . S
C937 C938 1.387 . S
C937 H940 0.950 . S
C938 C937 1.387 . S
C938 C941 1.387 . S
H939 C935 0.950 . S
H940 C937 0.950 . S
C941 C932 1.390 . S
C941 H934 0.950 . S
C941 C938 1.387 . S
C942 C943 1.387 . S
C942 H946 0.950 . S
C942 C951 1.390 . S
C943 C942 1.387 . S
C943 C945 1.387 . S
H944 C951 0.950 . S
C945 C943 1.387 . S
C945 C947 1.390 . S
C945 H949 0.950 . S
H946 C942 0.950 . S
C947 C945 1.390 . S
C947 C948 1.387 . S
C947 H950 0.950 . S
C948 C947 1.387 . S
C948 C951 1.387 . S
H949 C945 0.950 . S
H950 C947 0.950 . S
C951 C942 1.390 . S
C951 H944 0.950 . S
C951 C948 1.387 . S
C952 C953 1.387 . S
C952 H956 0.950 . S
C952 C961 1.390 . S
C953 C952 1.387 . S
C953 C955 1.387 . S
H954 C961 0.950 . S
C955 C953 1.387 . S
C955 C957 1.390 . S
C955 H959 0.950 . S
H956 C952 0.950 . S
C957 C955 1.390 . S
C957 C958 1.387 . S
C957 H960 0.950 . S
C958 C957 1.387 . S
C958 C961 1.387 . S
H959 C955 0.950 . S
H960 C957 0.950 . S
C961 C952 1.390 . S
C961 H954 0.950 . S
C961 C958 1.387 . S
C962 C963 1.387 . S
C962 H966 0.950 . S
C962 C971 1.390 . S
C963 C962 1.387 . S
C963 C965 1.387 . S
H964 C971 0.950 . S
C965 C963 1.387 . S
C965 C967 1.390 . S
C965 H969 0.950 . S
H966 C962 0.950 . S
C967 C965 1.390 . S
C967 C968 1.387 . S
C967 H970 0.950 . S
C968 C967 1.387 . S
C968 C971 1.387 . S
H969 C965 0.950 . S
H970 C967 0.950 . S
C971 C962 1.390 . S
C971 H964 0.950 . S
C971 C968 1.387 . S
C972 C973 1.387 . S
C972 H976 0.950 . S
C972 C981 1.390 . S
C973 C972 1.387 . S
C973 C975 1.387 . S
H974 C981 0.950 . S
C975 C973 1.387 . S
C975 C977 1.390 . S
C975 H979 0.950 . S
H976 C972 0.950 . S
C977 C975 1.390 . S
C977 C978 1.387 . S
C977 H980 0.950 . S
C978 C977 1.387 . S
C978 C981 1.387 . S
H979 C975 0.950 . S
H980 C977 0.950 . S
C981 C972 1.390 . S
C981 H974 0.950 . S
C981 C978 1.387 . S
C982 C983 1.387 . S
C982 H986 0.949 . S
C982 C991 1.391 1_554 S
C983 C982 1.387 . S
C983 C985 1.387 . S
H984 C991 0.950 . S
C985 C983 1.387 . S
C985 C987 1.390 1_554 S
C985 H989 0.950 . S
H986 C982 0.949 . S
C987 C985 1.390 1_556 S
C987 C988 1.387 . S
C987 H990 0.950 . S
C988 C987 1.387 . S
C988 C991 1.387 . S
H989 C985 0.950 . S
H990 C987 0.950 . S
C991 C982 1.391 1_556 S
C991 H984 0.950 . S
C991 C988 1.387 . S
C992 C993 1.387 . S
C992 H996 0.950 . S
C992 C1001 1.390 . S
C993 C992 1.387 . S
C993 C995 1.387 . S
H994 C1001 0.950 . S
C995 C993 1.387 . S
C995 C997 1.390 . S
C995 H999 0.950 . S
H996 C992 0.950 . S
C997 C995 1.390 . S
C997 C998 1.387 . S
C997 H1000 0.950 . S
C998 C997 1.387 . S
C998 C1001 1.387 . S
H999 C995 0.950 . S
H1000 C997 0.950 . S
C1001 C992 1.390 . S
C1001 H994 0.950 . S
C1001 C998 1.387 . S
C768 C754 1.630 . S
C763 C1 1.252 . S
C773 C169 1.421 . S
C778 C689 1.729 . S
C783 C283 1.397 . S
C788 C707 1.717 . S
C793 C397 1.263 . S
C798 C720 1.575 . S
C808 C728 1.493 . S
C803 C457 1.172 . S
C813 C571 1.159 . S
C818 C740 1.506 . S
C823 C115 1.251 . S
C828 C702 1.622 . S
C833 C229 1.165 . S
C838 C715 1.508 . S
C843 C343 1.166 . S
C848 C733 1.487 . S
C858 C739 1.589 . S
C853 C511 1.280 . S
C868 C759 1.702 . S
C863 C625 1.387 . S
C878 C694 1.743 . S
C873 C55 1.431 . S
C883 C29 1.344 . S
C888 C700 1.567 . S
C893 C125 0.882 . S
C898 C713 1.658 . S
C908 C727 1.587 . S
C903 C239 0.833 . S
C913 C353 0.859 . S
C918 C741 1.591 . S
C928 C753 1.504 . S
C923 C485 1.280 . S
C938 C688 1.574 . S
C933 C599 1.335 . S
C948 C752 1.577 . S
C943 C143 1.360 . S
C953 C257 1.334 . S
C958 C687 1.570 . S
C968 C701 1.512 . S
C963 C371 1.291 . S
C973 C467 0.846 . S
C978 C714 1.574 . S
C983 C581 0.842 . S
C988 C726 1.600 . S
C993 C11 0.877 . S
C998 C746 1.643 . S
