# Generated by pormake.
# Topology zzz, (3,6)-cn, num edge types: 1
# Building blocks:
#     Node 0, Type 0, BuildingBlock: KAKCAD_clean_linker_0, # of connection points: 3
#     Node 1, Type 0, BuildingBlock: KAKCAD_clean_linker_0, # of connection points: 3
#     Node 2, Type 0, BuildingBlock: KAKCAD_clean_linker_0, # of connection points: 3
#     Node 3, Type 0, BuildingBlock: KAKCAD_clean_linker_0, # of connection points: 3
#     Node 4, Type 0, BuildingBlock: KAKCAD_clean_linker_0, # of connection points: 3
#     Node 5, Type 0, BuildingBlock: KAKCAD_clean_linker_0, # of connection points: 3
#     Node 6, Type 0, BuildingBlock: KAKCAD_clean_linker_0, # of connection points: 3
#     Node 7, Type 0, BuildingBlock: KAKCAD_clean_linker_0, # of connection points: 3
#     Node 8, Type 1, BuildingBlock: FUNLAD_clean_sbu_0, # of connection points: 6
#     Node 9, Type 1, BuildingBlock: FUNLAD_clean_sbu_0, # of connection points: 6
#     Node 10, Type 1, BuildingBlock: FUNLAD_clean_sbu_0, # of connection points: 6
#     Node 11, Type 1, BuildingBlock: FUNLAD_clean_sbu_0, # of connection points: 6
#     Edge 12, Type (0, 1), BuildingBlock: AJUNOK_clean_linker_0, # of connection points: 2
#     Edge 13, Type (0, 1), BuildingBlock: AJUNOK_clean_linker_0, # of connection points: 2
#     Edge 14, Type (0, 1), BuildingBlock: AJUNOK_clean_linker_0, # of connection points: 2
#     Edge 15, Type (0, 1), BuildingBlock: AJUNOK_clean_linker_0, # of connection points: 2
#     Edge 16, Type (0, 1), BuildingBlock: AJUNOK_clean_linker_0, # of connection points: 2
#     Edge 17, Type (0, 1), BuildingBlock: AJUNOK_clean_linker_0, # of connection points: 2
#     Edge 18, Type (0, 1), BuildingBlock: AJUNOK_clean_linker_0, # of connection points: 2
#     Edge 19, Type (0, 1), BuildingBlock: AJUNOK_clean_linker_0, # of connection points: 2
#     Edge 20, Type (0, 1), BuildingBlock: AJUNOK_clean_linker_0, # of connection points: 2
#     Edge 21, Type (0, 1), BuildingBlock: AJUNOK_clean_linker_0, # of connection points: 2
#     Edge 22, Type (0, 1), BuildingBlock: AJUNOK_clean_linker_0, # of connection points: 2
#     Edge 23, Type (0, 1), BuildingBlock: AJUNOK_clean_linker_0, # of connection points: 2
#     Edge 24, Type (0, 1), BuildingBlock: AJUNOK_clean_linker_0, # of connection points: 2
#     Edge 25, Type (0, 1), BuildingBlock: AJUNOK_clean_linker_0, # of connection points: 2
#     Edge 26, Type (0, 1), BuildingBlock: AJUNOK_clean_linker_0, # of connection points: 2
#     Edge 27, Type (0, 1), BuildingBlock: AJUNOK_clean_linker_0, # of connection points: 2
#     Edge 28, Type (0, 1), BuildingBlock: AJUNOK_clean_linker_0, # of connection points: 2
#     Edge 29, Type (0, 1), BuildingBlock: AJUNOK_clean_linker_0, # of connection points: 2
#     Edge 30, Type (0, 1), BuildingBlock: AJUNOK_clean_linker_0, # of connection points: 2
#     Edge 31, Type (0, 1), BuildingBlock: AJUNOK_clean_linker_0, # of connection points: 2
#     Edge 32, Type (0, 1), BuildingBlock: AJUNOK_clean_linker_0, # of connection points: 2
#     Edge 33, Type (0, 1), BuildingBlock: AJUNOK_clean_linker_0, # of connection points: 2
#     Edge 34, Type (0, 1), BuildingBlock: AJUNOK_clean_linker_0, # of connection points: 2
#     Edge 35, Type (0, 1), BuildingBlock: AJUNOK_clean_linker_0, # of connection points: 2
# Relax obj value: 0.266
# Max RMSD: 0.235
# Mean RMSD: 0.193
data_MOF--net-zzz--node1-FUNLAD_clean_sbu_0--node2-KAKCAD_clean_linker_0--edge1-AJUNOK_clean_linker_0
_symmetry_space_group_name_H-M    P1
_symmetry_Int_Tables_number       1
_symmetry_cell_setting            triclinic
loop_
_symmetry_equiv_pos_as_xyz
'x, y, z'
_cell_length_a     45.740485
_cell_length_b     51.251899
_cell_length_c     17.953622
_cell_angle_alpha  85.947
_cell_angle_beta   85.335967
_cell_angle_gamma 92.377683
loop_
_atom_site_label
_atom_site_type_symbol
_atom_site_fract_x
_atom_site_fract_y
_atom_site_fract_z
_atom_type_partial_charge
C0 C 0.88639 0.41975 0.01273 0.0
C1 C 0.91252 0.41005 0.03679 0.0
C2 C 0.86209 0.42164 0.06381 0.0
C3 C 0.86325 0.4135 0.14005 0.0
C4 C 0.88846 0.40114 0.16214 0.0
C5 C 0.91306 0.39981 0.11117 0.0
C6 C 0.84046 0.42168 0.19686 0.0
C7 C 0.81136 0.42458 0.17939 0.0
C8 C 0.79146 0.43776 0.22561 0.0
C9 C 0.80055 0.4472 0.29225 0.0
C10 C 0.82906 0.44293 0.31259 0.0
C11 C 0.84877 0.4304 0.26473 0.0
C12 C 0.8402 0.45291 0.38049 0.0
C13 C 0.84959 0.47934 0.38032 0.0
C14 C 0.84833 0.43492 0.43675 0.0
C15 C 0.86759 0.44276 0.48824 0.0
C16 C 0.87933 0.46865 0.48358 0.0
C17 C 0.76256 0.44373 0.19827 0.0
C18 C 0.75369 0.46968 0.19201 0.0
C19 C 0.74607 0.42419 0.1669 0.0
C20 C 0.72275 0.43075 0.12484 0.0
C21 C 0.71544 0.45697 0.11328 0.0
C22 C 0.73024 0.47625 0.14983 0.0
C23 C 0.86903 0.48721 0.43181 0.0
H24 H 0.88563 0.4282 0.95589 0.0
H25 H 0.84344 0.43159 0.04423 0.0
H26 H 0.8899 0.39395 0.21983 0.0
H27 H 0.93306 0.39228 0.13084 0.0
H28 H 0.80455 0.41788 0.12729 0.0
H29 H 0.87128 0.42903 0.27884 0.0
H30 H 0.78565 0.45778 0.32779 0.0
H31 H 0.84396 0.4934 0.33646 0.0
H32 H 0.84159 0.41438 0.43719 0.0
H33 H 0.87494 0.42819 0.52836 0.0
H34 H 0.76613 0.48516 0.21518 0.0
H35 H 0.75223 0.40399 0.17163 0.0
H36 H 0.87783 0.50726 0.42717 0.0
H37 H 0.72487 0.4966 0.14194 0.0
H38 H 0.71121 0.41546 0.09854 0.0
C39 C 0.9855 0.86579 0.04184 0.0
C40 C 0.01193 0.86352 0.99794 0.0
C41 C 0.97174 0.84399 0.08277 0.0
C42 C 0.98424 0.81941 0.08138 0.0
C43 C 0.01065 0.81705 0.03705 0.0
C44 C 0.02439 0.83897 0.9955 0.0
C45 C 0.97021 0.79686 0.12933 0.0
C46 C 0.9675 0.77179 0.10323 0.0
C47 C 0.95389 0.75068 0.1499 0.0
C48 C 0.94313 0.75492 0.22375 0.0
C49 C 0.94597 0.77995 0.24975 0.0
C50 C 0.95946 0.80061 0.20265 0.0
C51 C 0.93616 0.78588 0.32638 0.0
C52 C 0.9095 0.79815 0.33819 0.0
C53 C 0.95763 0.78868 0.37702 0.0
C54 C 0.95432 0.80653 0.43192 0.0
C55 C 0.92941 0.8217 0.43691 0.0
C56 C 0.9521 0.72421 0.12151 0.0
C57 C 0.94514 0.72114 0.04767 0.0
C58 C 0.95943 0.70213 0.16589 0.0
C59 C 0.96134 0.6778 0.13565 0.0
C60 C 0.95605 0.67514 0.06047 0.0
C61 C 0.9471 0.69685 0.01747 0.0
C62 C 0.90602 0.81582 0.39374 0.0
H63 H 0.97512 0.88439 0.04325 0.0
H64 H 0.95114 0.84636 0.11531 0.0
H65 H 0.02094 0.79842 0.0356 0.0
H66 H 0.04477 0.8368 0.96181 0.0
H67 H 0.97615 0.76872 0.04669 0.0
H68 H 0.96204 0.81976 0.22419 0.0
H69 H 0.93264 0.73899 0.2606 0.0
H70 H 0.89281 0.79645 0.29905 0.0
H71 H 0.97853 0.77969 0.36798 0.0
H72 H 0.97267 0.81049 0.46463 0.0
H73 H 0.93889 0.73769 0.01253 0.0
H74 H 0.96494 0.70387 0.22292 0.0
H75 H 0.8862 0.82666 0.39807 0.0
H76 H 0.94281 0.69533 0.95944 0.0
H77 H 0.96773 0.66121 0.17043 0.0
C78 C 0.67485 0.0335 0.9467 0.0
C79 C 0.65034 0.0458 0.97759 0.0
C80 C 0.69898 0.02937 0.98836 0.0
C81 C 0.69895 0.03765 0.06136 0.0
C82 C 0.67558 0.05229 0.08887 0.0
C83 C 0.65135 0.05613 0.04758 0.0
C84 C 0.7206 0.0277 0.11247 0.0
C85 C 0.75033 0.02607 0.08808 0.0
C86 C 0.77006 0.01444 0.13531 0.0
C87 C 0.75954 0.00434 0.20859 0.0
C88 C 0.72964 0.0062 0.23351 0.0
C89 C 0.71065 0.01774 0.18508 0.0
C90 C 0.71653 0.99684 0.30953 0.0
C91 C 0.69716 0.97459 0.31757 0.0
C92 C 0.71535 0.01436 0.36625 0.0
C93 C 0.69373 0.01083 0.42663 0.0
C94 C 0.67281 0.98969 0.4316 0.0
C95 C 0.80124 0.0127 0.10511 0.0
C96 C 0.81417 0.98838 0.10091 0.0
C97 C 0.81689 0.03522 0.07101 0.0
C98 C 0.84438 0.03342 0.03175 0.0
C99 C 0.8569 0.00903 0.02493 0.0
C100 C 0.84162 0.98653 0.06065 0.0
C101 C 0.67559 0.97099 0.37807 0.0
H102 H 0.67437 0.02525 0.89285 0.0
H103 H 0.71653 0.01794 0.96568 0.0
H104 H 0.67523 0.05942 0.1443 0.0
H105 H 0.63267 0.0658 0.07209 0.0
H106 H 0.7581 0.03352 0.0316 0.0
H107 H 0.68756 0.01837 0.20403 0.0
H108 H 0.77439 0.99535 0.24568 0.0
H109 H 0.69697 0.96124 0.27341 0.0
H110 H 0.72941 0.03205 0.36035 0.0
H111 H 0.69225 0.02554 0.46705 0.0
H112 H 0.80245 0.97066 0.12569 0.0
H113 H 0.8074 0.0542 0.07284 0.0
H114 H 0.65962 0.95473 0.37936 0.0
H115 H 0.85071 0.96746 0.05639 0.0
H116 H 0.85533 0.05107 0.0041 0.0
C117 C 0.55047 0.65614 0.46717 0.0
C118 C 0.57366 0.63921 0.45794 0.0
C119 C 0.54508 0.67451 0.40891 0.0
C120 C 0.56291 0.67611 0.34116 0.0
C121 C 0.58823 0.66151 0.33603 0.0
C122 C 0.59354 0.64313 0.39401 0.0
C123 C 0.5503 0.68507 0.27121 0.0
C124 C 0.54743 0.71161 0.24877 0.0
C125 C 0.53442 0.71852 0.18193 0.0
C126 C 0.52433 0.69871 0.13848 0.0
C127 C 0.52767 0.67229 0.16012 0.0
C128 C 0.54035 0.66573 0.2268 0.0
C129 C 0.51956 0.65128 0.11204 0.0
C130 C 0.49215 0.65008 0.08188 0.0
C131 C 0.53938 0.63167 0.09793 0.0
C132 C 0.53174 0.61091 0.05642 0.0
C133 C 0.504 0.60907 0.02849 0.0
C134 C 0.53253 0.74622 0.15377 0.0
C135 C 0.50589 0.7552 0.13065 0.0
C136 C 0.5579 0.76287 0.14148 0.0
C137 C 0.55695 0.78747 0.10264 0.0
C138 C 0.53057 0.79587 0.07584 0.0
C139 C 0.50486 0.77985 0.09279 0.0
C140 C 0.48442 0.62908 0.04026 0.0
H141 H 0.53469 0.65321 0.51574 0.0
H142 H 0.52515 0.6852 0.41352 0.0
H143 H 0.60201 0.66217 0.28384 0.0
H144 H 0.61143 0.63015 0.38562 0.0
H145 H 0.55526 0.72667 0.28272 0.0
H146 H 0.54241 0.64526 0.2447 0.0
H147 H 0.5151 0.70391 0.08599 0.0
H148 H 0.47652 0.66501 0.09195 0.0
H149 H 0.56092 0.63243 0.11892 0.0
H150 H 0.54774 0.59633 0.0457 0.0
H151 H 0.48597 0.7428 0.14017 0.0
H152 H 0.57875 0.7563 0.15833 0.0
H153 H 0.46305 0.62825 0.01836 0.0
H154 H 0.484 0.78614 0.07529 0.0
H155 H 0.57709 0.79943 0.09076 0.0
C156 C 0.16243 0.60237 0.40994 0.0
C157 C 0.13546 0.58914 0.4022 0.0
C158 C 0.18581 0.60156 0.35495 0.0
C159 C 0.18274 0.58704 0.29209 0.0
C160 C 0.15481 0.57589 0.28172 0.0
C161 C 0.13144 0.5771 0.33587 0.0
C162 C 0.20889 0.57996 0.24382 0.0
C163 C 0.23517 0.57409 0.27546 0.0
C164 C 0.2576 0.56174 0.23496 0.0
C165 C 0.25318 0.55445 0.16235 0.0
C166 C 0.22744 0.56104 0.1293 0.0
C167 C 0.20612 0.57468 0.16917 0.0
C168 C 0.21938 0.55036 0.05911 0.0
C169 C 0.21007 0.56743 0.00209 0.0
C170 C 0.21266 0.52337 0.05881 0.0
C171 C 0.19378 0.51405 0.00805 0.0
C172 C 0.18155 0.53166 0.95721 0.0
C173 C 0.2845 0.55505 0.27186 0.0
C174 C 0.29822 0.57353 0.3135 0.0
C175 C 0.29543 0.52983 0.27044 0.0
C176 C 0.31912 0.52308 0.3115 0.0
C177 C 0.33249 0.54151 0.35395 0.0
C178 C 0.32189 0.56683 0.35415 0.0
C179 C 0.19136 0.55812 0.95129 0.0
H180 H 0.16601 0.61176 0.46085 0.0
H181 H 0.20674 0.61094 0.36402 0.0
H182 H 0.15139 0.56414 0.23515 0.0
H183 H 0.11108 0.56628 0.32912 0.0
H184 H 0.23751 0.57741 0.33365 0.0
H185 H 0.18611 0.57928 0.14359 0.0
H186 H 0.26951 0.54364 0.13187 0.0
H187 H 0.21486 0.58833 0.00161 0.0
H188 H 0.2193 0.5099 0.10291 0.0
H189 H 0.18651 0.49356 0.01347 0.0
H190 H 0.29033 0.59313 0.31548 0.0
H191 H 0.28507 0.51509 0.23963 0.0
H192 H 0.18244 0.57198 0.91178 0.0
H193 H 0.33146 0.5813 0.3873 0.0
H194 H 0.3269 0.50343 0.31047 0.0
C195 C 0.01601 0.15973 0.44428 0.0
C196 C 0.02761 0.1348 0.44943 0.0
C197 C 0.03221 0.18075 0.4045 0.0
C198 C 0.0603 0.17715 0.3697 0.0
C199 C 0.07186 0.15218 0.37582 0.0
C200 C 0.05563 0.13123 0.4149 0.0
C201 C 0.07703 0.1989 0.32386 0.0
C202 C 0.07755 0.2245 0.34647 0.0
C203 C 0.09201 0.24528 0.3003 0.0
C204 C 0.10641 0.24009 0.2308 0.0
C205 C 0.10644 0.21437 0.20865 0.0
C206 C 0.09174 0.19407 0.25525 0.0
C207 C 0.11774 0.20787 0.13331 0.0
C208 C 0.10031 0.21325 0.07386 0.0
C209 C 0.13846 0.18846 0.12735 0.0
C210 C 0.13841 0.17192 0.0687 0.0
C211 C 0.11759 0.1747 0.01591 0.0
C212 C 0.09123 0.27226 0.32519 0.0
C213 C 0.06504 0.28102 0.35922 0.0
C214 C 0.11671 0.28883 0.31935 0.0
C215 C 0.11622 0.31324 0.34986 0.0
C216 C 0.09023 0.32144 0.38661 0.0
C217 C 0.06457 0.30527 0.38968 0.0
C218 C 0.10009 0.19659 0.01557 0.0
H219 H 0.99442 0.16288 0.47063 0.0
H220 H 0.02253 0.19966 0.39986 0.0
H221 H 0.0936 0.14883 0.35074 0.0
H222 H 0.06527 0.11229 0.4195 0.0
H223 H 0.06683 0.22823 0.40051 0.0
H224 H 0.09053 0.17452 0.23583 0.0
H225 H 0.11686 0.25593 0.19352 0.0
H226 H 0.08394 0.22789 0.07779 0.0
H227 H 0.15186 0.18384 0.17315 0.0
H228 H 0.1519 0.15504 0.07028 0.0
H229 H 0.04491 0.26891 0.36339 0.0
H230 H 0.13721 0.28259 0.2934 0.0
H231 H 0.08378 0.19895 0.97539 0.0
H232 H 0.04421 0.31105 0.41759 0.0
H233 H 0.13619 0.32557 0.34535 0.0
C234 C 0.37657 0.94024 0.40597 0.0
C235 C 0.377 0.94987 0.47698 0.0
C236 C 0.35263 0.94434 0.36382 0.0
C237 C 0.32903 0.95876 0.3912 0.0
C238 C 0.32856 0.96662 0.46473 0.0
C239 C 0.35234 0.96212 0.50737 0.0
C240 C 0.30748 0.96875 0.33974 0.0
C241 C 0.27774 0.97063 0.36389 0.0
C242 C 0.25811 0.9823 0.31636 0.0
C243 C 0.26877 0.99209 0.24286 0.0
C244 C 0.29864 0.98996 0.21814 0.0
C245 C 0.31752 0.97846 0.26697 0.0
C246 C 0.3119 -0.00093 0.14205 0.0
C247 C 0.3129 0.98142 0.08566 0.0
C248 C 0.33154 0.02113 0.13378 0.0
C249 C 0.35317 0.02442 0.07339 0.0
C250 C 0.35575 0.00561 0.02013 0.0
C251 C 0.22701 0.98471 0.3467 0.0
C252 C 0.21128 0.96295 0.38518 0.0
C253 C 0.21416 0.00917 0.34608 0.0
C254 C 0.18696 0.01202 0.38647 0.0
C255 C 0.1719 0.99042 0.42775 0.0
C256 C 0.18404 0.96574 0.42474 0.0
C257 C 0.33458 0.98465 0.02534 0.0
H258 H 0.39539 0.9307 0.38168 0.0
H259 H 0.35335 0.93749 0.30802 0.0
H260 H 0.31089 0.97792 0.48737 0.0
H261 H 0.35243 0.96997 0.56185 0.0
H262 H 0.26992 0.96342 0.42053 0.0
H263 H 0.3406 0.97771 0.24814 0.0
H264 H 0.25405 0.00112 0.20548 0.0
H265 H 0.29863 0.96385 0.09175 0.0
H266 H 0.33187 0.03456 0.17771 0.0
H267 H 0.36934 0.04053 0.072 0.0
H268 H 0.22055 0.94383 0.38659 0.0
H269 H 0.2258 0.02633 0.31745 0.0
H270 H 0.33588 0.96986 0.98512 0.0
H271 H 0.17304 0.94871 0.45573 0.0
H272 H 0.17796 0.03123 0.38665 0.0
C273 C 0.46195 0.36601 0.06721 0.0
C274 C 0.47422 0.35902 0.99758 0.0
C275 C 0.46415 0.34972 0.13194 0.0
C276 C 0.47882 0.32621 0.12846 0.0
C277 C 0.48766 0.31758 0.05804 0.0
C278 C 0.48516 0.33383 0.99288 0.0
C279 C 0.49077 0.31464 0.197 0.0
C280 C 0.48613 0.28802 0.22215 0.0
C281 C 0.4975 0.27854 0.28908 0.0
C282 C 0.51462 0.29553 0.32803 0.0
C283 C 0.51982 0.3219 0.30268 0.0
C284 C 0.50768 0.33122 0.23741 0.0
C285 C 0.53593 0.34037 0.3468 0.0
C286 C 0.5307 0.33916 0.42525 0.0
C287 C 0.55428 0.36094 0.31047 0.0
C288 C 0.56513 0.38097 0.35095 0.0
C289 C 0.55827 0.38053 0.4286 0.0
C290 C 0.4913 0.25129 0.32162 0.0
C291 C 0.4984 0.22975 0.28053 0.0
C292 C 0.4814 0.24692 0.39784 0.0
C293 C 0.48058 0.22185 0.43365 0.0
C294 C 0.48973 0.20055 0.39415 0.0
C295 C 0.4976 0.20449 0.31664 0.0
C296 C 0.54182 0.35903 0.46575 0.0
H297 H 0.45319 0.38515 0.07292 0.0
H298 H 0.45687 0.35667 0.18567 0.0
H299 H 0.4989 0.29949 0.05384 0.0
H300 H 0.49393 0.32754 0.93956 0.0
H301 H 0.47295 0.2751 0.19161 0.0
H302 H 0.51101 0.35174 0.21818 0.0
H303 H 0.52396 0.28809 0.37848 0.0
H304 H 0.51641 0.3238 0.455 0.0
H305 H 0.55926 0.36214 0.25028 0.0
H306 H 0.57775 0.39741 0.32123 0.0
H307 H 0.50614 0.23264 0.22177 0.0
H308 H 0.47539 0.26316 0.43052 0.0
H309 H 0.53575 0.35852 0.52546 0.0
H310 H 0.5046 0.18831 0.28496 0.0
H311 H 0.47376 0.21922 0.49303 0.0
C312 C 0.03129 0.95889 0.81446 0.0
N313 N 0.97994 0.96121 0.63512 0.0
C314 C 0.96224 0.94326 0.67906 0.0
C315 C 0.94937 0.92185 0.64846 0.0
C316 C 0.95498 0.91855 0.57193 0.0
C317 C 0.9728 0.93765 0.52729 0.0
C318 C 0.98501 0.95904 0.56018 0.0
Zn319 Zn 1.00203 0.98866 0.68925 0.0
C320 C 0.96411 0.00393 0.82432 0.0
N321 N 0.04797 0.04009 0.81968 0.0
C322 C 0.07663 0.03923 0.83477 0.0
C323 C 0.032 0.06112 0.83532 0.0
C324 C 0.04473 0.08254 0.86576 0.0
C325 C 0.07422 0.08242 0.88176 0.0
C326 C 0.09026 0.0603 0.86651 0.0
Zn327 Zn 0.02702 0.01251 0.76344 0.0
O328 O 0.01547 0.95793 0.75979 0.0
C329 C 0.06515 0.99764 0.62906 0.0
O330 O 0.04064 0.981 0.83327 0.0
H331 H 0.00936 0.06166 0.82241 0.0
H332 H 0.95895 0.94489 0.73879 0.0
H333 H 0.08901 0.0224 0.82131 0.0
O334 O 0.04129 0.9858 0.61578 0.0
O335 O 0.06542 0.01034 0.6875 0.0
H336 H 0.99946 0.97329 0.52645 0.0
O337 O 0.01306 0.04331 0.69283 0.0
O338 O 0.98934 0.01986 0.61751 0.0
O339 O 0.98852 0.01435 0.83852 0.0
O340 O 0.96309 0.99217 0.76443 0.0
C341 C 0.99813 0.04208 0.63654 0.0
H342 H 0.93582 0.90758 0.6848 0.0
H343 H 0.97834 0.93551 0.46832 0.0
H344 H 0.0316 0.09926 0.87577 0.0
H345 H 0.11292 0.0592 0.8793 0.0
C346 C 0.47836 0.97326 0.63316 0.0
N347 N 0.50583 0.05207 0.64004 0.0
C348 C 0.50949 0.05371 0.56378 0.0
C349 C 0.50654 0.0775 0.52265 0.0
C350 C 0.49976 0.09985 0.56027 0.0
C351 C 0.4954 0.09745 0.63892 0.0
C352 C 0.49869 0.07331 0.67788 0.0
Zn353 Zn 0.51147 0.01694 0.69787 0.0
C354 C 0.46402 0.00348 0.82155 0.0
N355 N 0.52254 0.94237 0.81255 0.0
C356 C 0.53039 0.92105 0.77592 0.0
C357 C 0.51779 0.94093 0.88861 0.0
C358 C 0.5201 0.91725 0.9307 0.0
C359 C 0.52755 0.89477 0.8944 0.0
C360 C 0.53324 0.897 0.81598 0.0
Zn361 Zn 0.51703 0.97745 0.75416 0.0
O362 O 0.48444 0.99778 0.62659 0.0
C363 C 0.56446 0.99099 0.6303 0.0
O364 O 0.48974 0.9589 0.68256 0.0
H365 H 0.51184 0.95813 0.91684 0.0
H366 H 0.51498 0.03657 0.5347 0.0
H367 H 0.53427 0.92265 0.7155 0.0
O368 O 0.54962 0.0114 0.6252 0.0
O369 O 0.55569 0.97261 0.6796 0.0
H370 H 0.49569 0.07156 0.73844 0.0
O371 O 0.54365 0.99653 0.82586 0.0
O372 O 0.53903 0.03548 0.76968 0.0
O373 O 0.47865 0.98295 0.82634 0.0
O374 O 0.47301 0.0219 0.77269 0.0
C375 C 0.5498 0.02103 0.81997 0.0
H376 H 0.5101 0.07851 0.46211 0.0
H377 H 0.48948 0.11407 0.67004 0.0
H378 H 0.51551 0.91643 0.99099 0.0
H379 H 0.53983 0.88035 0.78583 0.0
C380 C 0.55118 0.4666 0.61332 0.0
N381 N 0.47097 0.50264 0.63318 0.0
C382 C 0.47695 0.50676 0.5576 0.0
C383 C 0.4546 0.512 0.51132 0.0
C384 C 0.42571 0.51336 0.54281 0.0
C385 C 0.41982 0.50819 0.62065 0.0
C386 C 0.44297 0.50291 0.66519 0.0
Zn387 Zn 0.50656 0.49844 0.69493 0.0
C388 C 0.50416 0.45172 0.79782 0.0
N389 N 0.58524 0.49163 0.80618 0.0
C390 C 0.59617 0.46738 0.81361 0.0
C391 C 0.59613 0.51173 0.84301 0.0
C392 C 0.61852 0.50765 0.89062 0.0
C393 C 0.62984 0.48268 0.90003 0.0
C394 C 0.61842 0.46243 0.86059 0.0
Zn395 Zn 0.54927 0.49606 0.74623 0.0
O396 O 0.525 0.474 0.61566 0.0
C397 C 0.55213 0.54198 0.64069 0.0
O398 O 0.56806 0.47381 0.66152 0.0
H399 H 0.58701 0.53082 0.83678 0.0
H400 H 0.49929 0.50656 0.53294 0.0
H401 H 0.58705 0.45159 0.78463 0.0
O402 O 0.52694 0.53173 0.63273 0.0
O403 O 0.56794 0.53153 0.68856 0.0
H404 H 0.43869 0.49963 0.72534 0.0
O405 O 0.52981 0.51771 0.8304 0.0
O406 O 0.48897 0.52324 0.77573 0.0
O407 O 0.5301 0.4611 0.80164 0.0
O408 O 0.48675 0.46431 0.75835 0.0
C409 C 0.50473 0.52739 0.82922 0.0
H410 H 0.45996 0.51529 0.4514 0.0
H411 H 0.39774 0.50901 0.64691 0.0
H412 H 0.62679 0.52377 0.92006 0.0
H413 H 0.62603 0.44275 0.86755 0.0
C414 C 0.05626 0.53528 0.62838 0.0
N415 N 0.05895 0.45368 0.64183 0.0
C416 C 0.05926 0.45732 0.56594 0.0
C417 C 0.06836 0.43768 0.52068 0.0
C418 C 0.077 0.41391 0.55367 0.0
C419 C 0.07728 0.41092 0.63206 0.0
C420 C 0.06825 0.43123 0.67531 0.0
Zn421 Zn 0.04043 0.48157 0.7039 0.0
C422 C 0.07719 0.50244 0.8115 0.0
N423 N 0.99915 0.54203 0.81709 0.0
C424 C 0.98689 0.56298 0.78313 0.0
C425 C 1.00149 0.54005 0.89235 0.0
C426 C 0.99235 0.56006 0.93613 0.0
C427 C 0.9809 0.58243 0.90211 0.0
C428 C 0.9775 0.58353 0.82494 0.0
Zn429 Zn 0.01742 0.51389 0.75586 0.0
O430 O 0.06199 0.51124 0.62958 0.0
C431 C 0.98082 0.49315 0.64716 0.0
O432 O 0.03647 0.54289 0.67443 0.0
H433 H 0.01129 0.52325 0.91831 0.0
H434 H 0.05146 0.47516 0.54038 0.0
H435 H 0.98526 0.56413 0.72323 0.0
O436 O 1.00374 0.48008 0.63911 0.0
O437 O 0.9796 0.5101 0.69558 0.0
H438 H 0.06762 0.42867 0.73574 0.0
O439 O 0.99887 0.48472 0.83686 0.0
O440 O 0.01868 0.45232 0.78021 0.0
O441 O 0.05556 0.51723 0.81445 0.0
O442 O 0.07689 0.48351 0.76941 0.0
C443 C 1.00227 0.46036 0.83338 0.0
H444 H 0.06784 0.44079 0.4605 0.0
H445 H 0.08309 0.39267 0.65996 0.0
H446 H 0.99482 0.55831 0.99575 0.0
H447 H 0.96877 0.60053 0.79679 0.0
C448 C 0.11944 0.97676 0.47323 0.0
C449 C 0.14439 0.99354 0.47689 0.0
C450 C 0.0939 0.97844 0.52172 0.0
C451 C 0.09232 0.99671 0.57695 0.0
H452 H 0.11967 0.96216 0.43243 0.0
H453 H 0.07539 0.96501 0.51648 0.0
S454 S 0.15187 0.04499 0.6105 0.0
N455 N 0.16593 0.02896 0.5405 0.0
N456 N 0.11828 0.03212 0.6316 0.0
C457 C 0.11716 0.01367 0.58099 0.0
C458 C 0.14302 0.01211 0.53104 0.0
C459 C 0.47923 0.15189 0.41363 0.0
C460 C 0.49297 0.17485 0.43544 0.0
C461 C 0.48152 0.12768 0.45415 0.0
C462 C 0.49773 0.12559 0.51764 0.0
H463 H 0.46622 0.15275 0.36579 0.0
H464 H 0.47016 0.11054 0.4363 0.0
S465 S 0.54064 0.1795 0.59204 0.0
N466 N 0.52509 0.1937 0.52092 0.0
N467 N 0.52965 0.1483 0.59636 0.0
C468 C 0.51223 0.14833 0.53851 0.0
C469 C 0.50981 0.17291 0.49756 0.0
C470 C 0.3536 0.51194 0.45104 0.0
C471 C 0.35683 0.53423 0.4 0.0
C472 C 0.37579 0.50544 0.49778 0.0
C473 C 0.40212 0.52083 0.49442 0.0
H474 H 0.33356 0.49969 0.45575 0.0
H475 H 0.37245 0.48811 0.53623 0.0
S476 S 0.42146 0.58105 0.36995 0.0
N477 N 0.38851 0.57146 0.34825 0.0
N478 N 0.42999 0.55949 0.43652 0.0
C479 C 0.40563 0.5431 0.44342 0.0
C480 C 0.38305 0.54975 0.39616 0.0
C481 C 0.06641 0.36317 0.4132 0.0
C482 C 0.0895 0.34639 0.42388 0.0
C483 C 0.06312 0.38531 0.45388 0.0
C484 C 0.08282 0.3916 0.50694 0.0
H485 H 0.05034 0.35885 0.3741 0.0
H486 H 0.04438 0.39709 0.44546 0.0
S487 S 0.14807 0.35493 0.55272 0.0
N488 N 0.133 0.338 0.48961 0.0
N489 N 0.12728 0.38014 0.56468 0.0
C490 C 0.10662 0.37551 0.51634 0.0
C491 C 0.10992 0.35286 0.47496 0.0
C492 C 0.88654 0.9899 0.91926 0.0
C493 C 0.88498 0.00709 0.97715 0.0
C494 C 0.91205 0.98909 0.87014 0.0
C495 C 0.93728 0.0052 0.87732 0.0
H496 H 0.86761 0.97739 0.91072 0.0
H497 H 0.91196 0.97567 0.82617 0.0
S498 S 0.94495 0.0528 0.02228 0.0
N499 N 0.91118 0.04001 0.04036 0.0
N500 N 0.95905 0.03846 0.94899 0.0
C501 C 0.93614 0.02213 0.93605 0.0
C502 C 0.91006 0.0231 0.98555 0.0
C503 C 0.54372 0.84392 0.04913 0.0
C504 C 0.53006 0.82079 0.02808 0.0
C505 C 0.54304 0.86766 0.00535 0.0
C506 C 0.52882 0.86917 0.93853 0.0
H507 H 0.55467 0.84377 0.10043 0.0
H508 H 0.55381 0.88497 0.02391 0.0
S509 S 0.49041 0.81403 0.85748 0.0
N510 N 0.50287 0.80068 0.93436 0.0
N511 N 0.5007 0.84537 0.85369 0.0
C512 C 0.51532 0.84612 0.91651 0.0
C513 C 0.51611 0.82195 0.9609 0.0
C514 C 0.66997 0.47901 0.07792 0.0
C515 C 0.69429 0.46431 0.05795 0.0
C516 C 0.64949 0.48538 0.0261 0.0
C517 C 0.65276 0.47738 0.9525 0.0
H518 H 0.66645 0.48513 0.13436 0.0
H519 H 0.63058 0.49607 0.04432 0.0
S520 S 0.7148 0.44148 0.87008 0.0
N521 N 0.72185 0.44387 0.95813 0.0
N522 N 0.68364 0.45604 0.86073 0.0
C523 C 0.6776 0.46352 0.93128 0.0
C524 C 0.69829 0.45695 0.98398 0.0
C525 C 0.94114 0.63942 0.98078 0.0
C526 C 0.96183 0.65041 0.0249 0.0
C527 C 0.94723 0.61718 0.94199 0.0
C528 C 0.9742 0.60518 0.94608 0.0
H529 H 0.92017 0.64819 0.97581 0.0
H530 H 0.93076 0.60938 0.90841 0.0
S531 S 0.03648 0.62731 0.04986 0.0
N532 N 0.01079 0.64821 0.06792 0.0
N533 N 0.02218 0.60646 0.99525 0.0
C534 C 0.99504 0.61595 0.99006 0.0
C535 C 0.98886 0.63854 0.02945 0.0
C536 C 1.00836 0.08826 0.46401 0.0
C537 C 0.01189 0.11258 0.49484 0.0
C538 C 1.00032 0.06541 0.5099 0.0
C539 C 0.99603 0.06622 0.58806 0.0
H540 H 0.01368 0.08667 0.40463 0.0
H541 H 1.00013 0.04681 0.48471 0.0
S542 S 0.99828 0.12553 0.69484 0.0
N543 N 1.00709 0.13655 0.60687 0.0
N544 N 0.99199 0.09363 0.69322 0.0
C545 C 0.9968 0.09074 0.61859 0.0
C546 C 1.00476 0.11397 0.57189 0.0
C547 C 0.42871 0.96643 0.47764 0.0
C548 C 0.40467 0.95124 0.51374 0.0
C549 C 0.45344 0.97228 0.51552 0.0
C550 C 0.45524 0.96258 0.59005 0.0
H551 H 0.42764 0.97514 0.4212 0.0
H552 H 0.4708 0.98529 0.48728 0.0
S553 S 0.39903 0.92033 0.7074 0.0
N554 N 0.38461 0.92561 0.62653 0.0
N555 N 0.43163 0.93589 0.69738 0.0
C556 C 0.4321 0.94606 0.62529 0.0
C557 C 0.40661 0.94061 0.58722 0.0
C558 C 0.55114 0.42763 0.44384 0.0
C559 C 0.56346 0.40424 0.46884 0.0
C560 C 0.54921 0.4487 0.48912 0.0
C561 C 0.56006 0.44727 0.56019 0.0
H562 H 0.54095 0.42897 0.39137 0.0
H563 H 0.53777 0.4657 0.47005 0.0
S564 S 0.5975 0.39158 0.64743 0.0
N565 N 0.58893 0.38164 0.56603 0.0
N566 N 0.58589 0.42161 0.65082 0.0
C567 C 0.57456 0.42484 0.58331 0.0
C568 C 0.57605 0.40317 0.5377 0.0
C569 C 0.12489 0.56811 0.53026 0.0
C570 C 0.11449 0.58204 0.46827 0.0
C571 C 0.1055 0.55416 0.58428 0.0
C572 C 0.07507 0.5541 0.57899 0.0
H573 H 0.14825 0.5662 0.53391 0.0
H574 H 0.11442 0.54231 0.62866 0.0
S575 S 0.03646 0.59015 0.43363 0.0
N576 N 0.07169 0.59688 0.40845 0.0
N577 N 0.03506 0.571 0.51202 0.0
C578 C 0.06415 0.5696 0.52108 0.0
C579 C 0.08396 0.58351 0.46508 0.0
C580 C 0.02886 0.91072 0.98312 0.0
C581 C 0.02474 0.88669 0.95098 0.0
C582 C 0.03414 0.9342 0.93813 0.0
C583 C 0.03502 0.93432 0.85974 0.0
H584 H 0.02623 0.91152 0.04343 0.0
H585 H 0.03506 0.95246 0.965 0.0
S586 S 0.02959 0.87627 0.74831 0.0
N587 N 0.02505 0.86415 0.83638 0.0
N588 N 0.03506 0.90819 0.7517 0.0
C589 C 0.0335 0.91018 0.82704 0.0
C590 C 0.02831 0.88634 0.87275 0.0
C591 C 0.61984 0.05454 0.86966 0.0
C592 C 0.62229 0.04363 0.94279 0.0
C593 C 0.59488 0.04889 0.83197 0.0
C594 C 0.57212 0.03161 0.86573 0.0
H595 H 0.63776 0.06669 0.84062 0.0
H596 H 0.59432 0.05666 0.77442 0.0
S597 S 0.56751 -0.0008 0.05771 0.0
N598 N 0.59927 0.01614 0.04907 0.0
N599 N 0.5528 0.00496 0.97752 0.0
C600 C 0.57384 0.02151 0.93986 0.0
C601 C 0.59887 0.02766 0.97861 0.0
C602 C 0.4876 0.591 0.91181 0.0
C603 C 0.49665 0.58663 0.98456 0.0
C604 C 0.48732 0.57075 0.86303 0.0
C605 C 0.4963 0.54572 0.88567 0.0
H606 H 0.48284 0.61055 0.89062 0.0
H607 H 0.48249 0.57529 0.80558 0.0
S608 S 0.51594 0.52303 0.07482 0.0
N609 N 0.50983 0.55438 0.08058 0.0
N610 N 0.51027 0.51667 0.98811 0.0
C611 C 0.50273 0.54058 0.96017 0.0
C612 C 0.50264 0.56098 0.00991 0.0
C613 C 0.96069 0.43425 0.01376 0.0
C614 C 0.9401 0.41635 0.98913 0.0
C615 C 0.98246 0.44711 0.96351 0.0
C616 C 0.98479 0.44198 0.88754 0.0
H617 H 0.95839 0.44006 0.07074 0.0
H618 H 0.99647 0.46227 0.98327 0.0
S619 S 0.93864 0.39443 0.79717 0.0
N620 N 0.92493 0.39246 0.88556 0.0
N621 N 0.96667 0.4161 0.79124 0.0
C622 C 0.96607 0.42245 0.86354 0.0
C623 C 0.94345 0.40976 0.9144 0.0
C624 C 0.08062 0.13911 0.00441 0.0
C625 C 0.10789 0.15147 0.97872 0.0
C626 C 0.07055 0.11642 0.97415 0.0
C627 C 0.08719 0.10526 0.91621 0.0
H628 H 0.06704 0.14693 0.0491 0.0
H629 H 0.04943 0.10756 0.9964 0.0
S630 S 0.16046 0.13022 0.82989 0.0
N631 N 0.15194 0.15085 0.89412 0.0
N632 N 0.13257 0.10843 0.83441 0.0
C633 C 0.11481 0.11728 0.89056 0.0
C634 C 0.12525 0.14035 0.92243 0.0
C635 C 0.3984 0.98292 0.96135 0.0
C636 C 0.3825 0.00577 0.96609 0.0
C637 C 0.42463 0.98257 0.91509 0.0
C638 C 0.43621 0.00502 0.87079 0.0
H639 H 0.39086 0.96518 0.99506 0.0
H640 H 0.43588 0.96439 0.9142 0.0
S641 S 0.40253 0.06978 0.86072 0.0
N642 N 0.37991 0.05138 0.92116 0.0
N643 N 0.42912 0.05079 0.83388 0.0
C644 C 0.42035 0.02799 0.87427 0.0
C645 C 0.39363 0.02837 0.92199 0.0
C646 C 0.45899 0.39779 0.91754 0.0
C647 C 0.48036 0.37976 0.93507 0.0
C648 C 0.46627 0.4205 0.8697 0.0
C649 C 0.49527 0.42611 0.83872 0.0
H650 H 0.43674 0.39482 0.94327 0.0
H651 H 0.44947 0.43434 0.86009 0.0
S652 S 0.55879 0.38425 0.86092 0.0
N653 N 0.53138 0.36854 0.91328 0.0
N654 N 0.54476 0.41062 0.82284 0.0
C655 C 0.51638 0.40752 0.85229 0.0
C656 C 0.50901 0.38449 0.90051 0.0
C657 C 0.15505 0.50324 0.87308 0.0
C658 C 0.15492 0.5237 0.92121 0.0
C659 C 0.12962 0.49595 0.83902 0.0
C660 C 0.10316 0.50869 0.85275 0.0
H661 H 0.17503 0.49317 0.86071 0.0
H662 H 0.13088 0.48056 0.80069 0.0
S663 S 0.09094 0.56148 0.98221 0.0
N664 N 0.12588 0.55512 0.98589 0.0
N665 N 0.07821 0.54152 0.92297 0.0
C666 C 0.10267 0.52853 0.90332 0.0
C667 C 0.12851 0.536 0.93727 0.0
C668 C 0.94155 0.84622 0.54711 0.0
C669 C 0.93067 0.84625 0.47609 0.0
C670 C 0.94829 0.8697 0.57881 0.0
C671 C 0.94445 0.89414 0.54067 0.0
H672 H 0.94592 0.8279 0.57717 0.0
H673 H 0.95783 0.86866 0.63217 0.0
S674 S 0.91454 0.90505 0.35577 0.0
N675 N 0.91523 0.87291 0.36982 0.0
N676 N 0.9269 0.91694 0.43096 0.0
C677 C 0.93225 0.89446 0.47135 0.0
C678 C 0.92551 0.87056 0.43881 0.0
C679 C 0.62974 0.01192 0.48984 0.0
C680 C 0.64601 0.98928 0.48553 0.0
C681 C 0.6035 0.01206 0.53611 0.0
C682 C 0.59227 0.9896 0.58092 0.0
H683 H 0.63703 0.02966 0.45582 0.0
H684 H 0.59197 0.0301 0.53664 0.0
S685 S 0.62694 0.9253 0.59197 0.0
N686 N 0.64927 0.94382 0.53114 0.0
N687 N 0.60005 0.94403 0.6186 0.0
C688 C 0.60848 0.96682 0.57779 0.0
C689 C 0.63521 0.96665 0.52998 0.0
C690 C 0.57669 0.61248 0.58028 0.0
C691 C 0.57236 0.6139 0.50344 0.0
C692 C 0.57208 0.58857 0.62435 0.0
C693 C 0.56228 0.56572 0.59293 0.0
H694 H 0.58298 0.63 0.6066 0.0
H695 H 0.57467 0.58826 0.68385 0.0
S696 S 0.54822 0.55927 0.39451 0.0
N697 N 0.55864 0.59038 0.39775 0.0
N698 N 0.54931 0.54586 0.48054 0.0
C699 C 0.55855 0.5669 0.516 0.0
C700 C 0.56374 0.59092 0.47122 0.0
C701 C 0.90529 0.49594 0.57156 0.0
C702 C 0.90523 0.47513 0.52461 0.0
C703 C 0.9299 0.50189 0.61053 0.0
C704 C 0.95545 0.48746 0.60301 0.0
H705 H 0.88605 0.50742 0.57902 0.0
H706 H 0.9288 0.51781 0.64709 0.0
S707 S 0.96686 0.43233 0.48126 0.0
N708 N 0.93316 0.44106 0.46916 0.0
N709 N 0.97927 0.45205 0.54151 0.0
C710 C 0.95575 0.467 0.55441 0.0
C711 C 0.9307 0.46089 0.51547 0.0
loop_
_geom_bond_atom_site_label_1
_geom_bond_atom_site_label_2
_geom_bond_distance
_geom_bond_site_symmetry_2
_ccdc_geom_bond_type
C0 C1 1.386 . S
C0 C2 1.397 . S
C0 H24 0.931 . S
C1 C0 1.386 . S
C1 C5 1.397 1_556 S
C2 C0 1.397 . S
C2 C3 1.384 1_556 S
C2 H25 0.930 . S
C3 C2 1.384 1_554 S
C3 C4 1.377 . S
C3 C6 1.481 . S
C4 C3 1.377 . S
C4 C5 1.389 . S
C4 H26 0.929 . S
C5 C1 1.397 1_554 S
C5 C4 1.389 . S
C5 H27 0.931 . S
C6 C3 1.481 . S
C6 C7 1.387 . S
C6 C11 1.390 . S
C7 C6 1.387 . S
C7 C8 1.401 . S
C7 H28 0.930 . S
C8 C7 1.401 . S
C8 C9 1.376 . S
C8 C17 1.511 . S
C9 C8 1.376 . S
C9 C10 1.392 . S
C9 H30 0.931 . S
C10 C9 1.392 . S
C10 C11 1.361 . S
C10 C12 1.500 . S
C11 C6 1.390 . S
C11 C10 1.361 . S
C11 H29 0.931 . S
C12 C10 1.500 . S
C12 C13 1.371 . S
C12 C14 1.365 . S
C13 C12 1.371 . S
C13 C23 1.386 . S
C13 H31 0.931 . S
C14 C12 1.365 . S
C14 C15 1.409 . S
C14 H32 0.929 . S
C15 C14 1.409 . S
C15 C16 1.380 . S
C15 H33 0.930 . S
C16 C15 1.380 . S
C16 C23 1.357 . S
C17 C8 1.511 . S
C17 C18 1.341 . S
C17 C19 1.371 . S
C18 C17 1.341 . S
C18 C22 1.394 . S
C18 H34 0.930 . S
C19 C17 1.371 . S
C19 C20 1.392 . S
C19 H35 0.931 . S
C20 C19 1.392 . S
C20 C21 1.331 . S
C20 H38 0.932 . S
C21 C20 1.331 . S
C21 C22 1.336 . S
C22 C18 1.394 . S
C22 C21 1.336 . S
C22 H37 0.929 . S
C23 C13 1.386 . S
C23 C16 1.357 . S
C23 H36 0.928 . S
H24 C0 0.931 . S
H25 C2 0.930 . S
H26 C4 0.929 . S
H27 C5 0.931 . S
H28 C7 0.930 . S
H29 C11 0.931 . S
H30 C9 0.931 . S
H31 C13 0.931 . S
H32 C14 0.929 . S
H33 C15 0.930 . S
H34 C18 0.930 . S
H35 C19 0.931 . S
H36 C23 0.928 . S
H37 C22 0.929 . S
H38 C20 0.932 . S
C39 C40 1.386 . S
C39 C41 1.397 . S
C39 H63 0.931 . S
C40 C39 1.386 . S
C40 C44 1.397 . S
C41 C39 1.397 . S
C41 C42 1.384 . S
C41 H64 0.930 . S
C42 C41 1.384 . S
C42 C43 1.377 . S
C42 C45 1.481 . S
C43 C42 1.377 . S
C43 C44 1.389 . S
C43 H65 0.929 . S
C44 C40 1.397 . S
C44 C43 1.389 . S
C44 H66 0.931 . S
C45 C42 1.481 . S
C45 C46 1.387 . S
C45 C50 1.390 1_556 S
C46 C45 1.387 . S
C46 C47 1.401 . S
C46 H67 0.930 . S
C47 C46 1.401 . S
C47 C48 1.376 1_556 S
C47 C56 1.511 . S
C48 C47 1.376 1_554 S
C48 C49 1.392 . S
C48 H69 0.931 . S
C49 C48 1.392 . S
C49 C50 1.361 . S
C49 C51 1.500 . S
C50 C45 1.390 1_554 S
C50 C49 1.361 . S
C50 H68 0.931 . S
C51 C49 1.500 . S
C51 C52 1.371 . S
C51 C53 1.365 . S
C52 C51 1.371 . S
C52 C62 1.386 . S
C52 H70 0.931 . S
C53 C51 1.365 . S
C53 C54 1.409 . S
C53 H71 0.929 . S
C54 C53 1.409 . S
C54 C55 1.380 . S
C54 H72 0.930 . S
C55 C54 1.380 . S
C55 C62 1.357 . S
C56 C47 1.511 . S
C56 C57 1.341 . S
C56 C58 1.371 1_556 S
C57 C56 1.341 . S
C57 C61 1.394 . S
C57 H73 0.930 . S
C58 C56 1.371 1_554 S
C58 C59 1.392 . S
C58 H74 0.931 . S
C59 C58 1.392 . S
C59 C60 1.331 1_554 S
C59 H77 0.932 . S
C60 C59 1.331 1_556 S
C60 C61 1.336 . S
C61 C57 1.394 . S
C61 C60 1.336 . S
C61 H76 0.929 . S
C62 C52 1.386 . S
C62 C55 1.357 . S
C62 H75 0.928 . S
H63 C39 0.931 . S
H64 C41 0.930 . S
H65 C43 0.929 . S
H66 C44 0.931 . S
H67 C46 0.930 . S
H68 C50 0.931 . S
H69 C48 0.931 . S
H70 C52 0.931 . S
H71 C53 0.929 . S
H72 C54 0.930 . S
H73 C57 0.930 . S
H74 C58 0.931 . S
H75 C62 0.928 . S
H76 C61 0.929 . S
H77 C59 0.932 . S
C78 C79 1.395 . S
C78 C80 1.397 . S
C78 H102 0.931 . S
C79 C78 1.395 . S
C79 C83 1.388 1_565 S
C80 C78 1.397 . S
C80 C81 1.389 . S
C80 H103 0.930 . S
C81 C80 1.389 . S
C81 C82 1.372 1_565 S
C81 C84 1.481 1_556 S
C82 C81 1.372 1_545 S
C82 C83 1.389 . S
C82 H104 0.929 1_556 S
C83 C79 1.388 1_545 S
C83 C82 1.389 . S
C83 H105 0.931 . S
C84 C81 1.481 1_554 S
C84 C85 1.390 . S
C84 C89 1.389 . S
C85 C84 1.390 . S
C85 C86 1.403 . S
C85 H106 0.930 1_554 S
C86 C85 1.403 . S
C86 C87 1.374 . S
C86 C95 1.515 . S
C87 C86 1.374 . S
C87 C88 1.393 . S
C87 H108 0.931 . S
C88 C87 1.393 . S
C88 C89 1.361 . S
C88 C90 1.497 1_565 S
C89 C84 1.389 . S
C89 C88 1.361 . S
C89 H107 0.930 . S
C90 C88 1.497 1_545 S
C90 C91 1.362 1_545 S
C90 C92 1.377 . S
C91 C90 1.362 1_565 S
C91 C101 1.386 . S
C91 H109 0.931 . S
C92 C90 1.377 . S
C92 C93 1.409 . S
C92 H110 0.929 . S
C93 C92 1.409 . S
C93 C94 1.380 . S
C93 H111 0.930 . S
C94 C93 1.380 . S
C94 C101 1.358 1_545 S
C95 C86 1.515 . S
C95 C96 1.341 1_554 S
C95 C97 1.371 1_565 S
C96 C95 1.341 1_556 S
C96 C100 1.394 . S
C96 H112 0.930 . S
C97 C95 1.371 1_545 S
C97 C98 1.392 . S
C97 H113 0.931 . S
C98 C97 1.392 . S
C98 C99 1.320 1_545 S
C98 H116 0.932 . S
C99 C98 1.320 1_565 S
C99 C100 1.346 1_554 S
C100 C96 1.394 . S
C100 C99 1.346 1_556 S
C100 H115 0.929 . S
C101 C91 1.386 . S
C101 C94 1.358 1_565 S
C101 H114 0.928 . S
H102 C78 0.931 . S
H103 C80 0.930 . S
H104 C82 0.929 1_554 S
H105 C83 0.931 . S
H106 C85 0.930 1_556 S
H107 C89 0.930 . S
H108 C87 0.931 . S
H109 C91 0.931 . S
H110 C92 0.929 . S
H111 C93 0.930 . S
H112 C96 0.930 . S
H113 C97 0.931 . S
H114 C101 0.928 . S
H115 C100 0.929 . S
H116 C98 0.932 . S
C117 C118 1.386 . S
C117 C119 1.397 . S
C117 H141 0.931 . S
C118 C117 1.386 . S
C118 C122 1.397 . S
C119 C117 1.397 . S
C119 C120 1.384 . S
C119 H142 0.930 . S
C120 C119 1.384 . S
C120 C121 1.377 . S
C120 C123 1.481 . S
C121 C120 1.377 . S
C121 C122 1.389 . S
C121 H143 0.929 . S
C122 C118 1.397 . S
C122 C121 1.389 . S
C122 H144 0.931 . S
C123 C120 1.481 . S
C123 C124 1.387 . S
C123 C128 1.390 . S
C124 C123 1.387 . S
C124 C125 1.401 . S
C124 H145 0.930 . S
C125 C124 1.401 . S
C125 C126 1.376 . S
C125 C134 1.511 . S
C126 C125 1.376 . S
C126 C127 1.392 . S
C126 H147 0.931 1_554 S
C127 C126 1.392 . S
C127 C128 1.361 . S
C127 C129 1.500 1_554 S
C128 C123 1.390 . S
C128 C127 1.361 . S
C128 H146 0.931 . S
C129 C127 1.500 1_556 S
C129 C130 1.371 . S
C129 C131 1.365 1_556 S
C130 C129 1.371 . S
C130 C140 1.386 . S
C130 H148 0.931 . S
C131 C129 1.365 1_554 S
C131 C132 1.409 1_554 S
C131 H149 0.929 . S
C132 C131 1.409 1_556 S
C132 C133 1.380 . S
C132 H150 0.930 . S
C133 C132 1.380 . S
C133 C140 1.357 . S
C134 C125 1.511 . S
C134 C135 1.341 . S
C134 C136 1.371 1_554 S
C135 C134 1.341 . S
C135 C139 1.394 . S
C135 H151 0.930 . S
C136 C134 1.371 1_556 S
C136 C137 1.392 . S
C136 H152 0.931 . S
C137 C136 1.392 . S
C137 C138 1.331 1_556 S
C137 H155 0.932 . S
C138 C137 1.331 1_554 S
C138 C139 1.336 . S
C139 C135 1.394 . S
C139 C138 1.336 . S
C139 H154 0.929 . S
C140 C130 1.386 . S
C140 C133 1.357 . S
C140 H153 0.928 . S
H141 C117 0.931 . S
H142 C119 0.930 . S
H143 C121 0.929 . S
H144 C122 0.931 . S
H145 C124 0.930 . S
H146 C128 0.931 . S
H147 C126 0.931 1_556 S
H148 C130 0.931 . S
H149 C131 0.929 . S
H150 C132 0.930 . S
H151 C135 0.930 . S
H152 C136 0.931 . S
H153 C140 0.928 . S
H154 C139 0.929 . S
H155 C137 0.932 . S
C156 C157 1.386 . S
C156 C158 1.397 . S
C156 H180 0.931 . S
C157 C156 1.386 . S
C157 C161 1.397 . S
C158 C156 1.397 . S
C158 C159 1.384 . S
C158 H181 0.930 . S
C159 C158 1.384 . S
C159 C160 1.377 . S
C159 C162 1.481 . S
C160 C159 1.377 . S
C160 C161 1.389 . S
C160 H182 0.929 . S
C161 C157 1.397 . S
C161 C160 1.389 . S
C161 H183 0.931 . S
C162 C159 1.481 . S
C162 C163 1.387 . S
C162 C167 1.390 . S
C163 C162 1.387 . S
C163 C164 1.401 . S
C163 H184 0.930 . S
C164 C163 1.401 . S
C164 C165 1.376 . S
C164 C173 1.511 . S
C165 C164 1.376 . S
C165 C166 1.392 . S
C165 H186 0.931 . S
C166 C165 1.392 . S
C166 C167 1.361 . S
C166 C168 1.500 . S
C167 C162 1.390 . S
C167 C166 1.361 . S
C167 H185 0.931 . S
C168 C166 1.500 . S
C168 C169 1.371 . S
C168 C170 1.365 . S
C169 C168 1.371 . S
C169 C179 1.386 1_554 S
C169 H187 0.931 . S
C170 C168 1.365 . S
C170 C171 1.409 . S
C170 H188 0.929 . S
C171 C170 1.409 . S
C171 C172 1.380 1_554 S
C171 H189 0.930 . S
C172 C171 1.380 1_556 S
C172 C179 1.357 . S
C173 C164 1.511 . S
C173 C174 1.341 . S
C173 C175 1.371 . S
C174 C173 1.341 . S
C174 C178 1.394 . S
C174 H190 0.930 . S
C175 C173 1.371 . S
C175 C176 1.392 . S
C175 H191 0.931 . S
C176 C175 1.392 . S
C176 C177 1.331 . S
C176 H194 0.932 . S
C177 C176 1.331 . S
C177 C178 1.336 . S
C178 C174 1.394 . S
C178 C177 1.336 . S
C178 H193 0.929 . S
C179 C169 1.386 1_556 S
C179 C172 1.357 . S
C179 H192 0.928 . S
H180 C156 0.931 . S
H181 C158 0.930 . S
H182 C160 0.929 . S
H183 C161 0.931 . S
H184 C163 0.930 . S
H185 C167 0.931 . S
H186 C165 0.931 . S
H187 C169 0.931 . S
H188 C170 0.929 . S
H189 C171 0.930 . S
H190 C174 0.930 . S
H191 C175 0.931 . S
H192 C179 0.928 . S
H193 C178 0.929 . S
H194 C176 0.932 . S
C195 C196 1.386 . S
C195 C197 1.397 . S
C195 H219 0.931 . S
C196 C195 1.386 . S
C196 C200 1.397 . S
C197 C195 1.397 . S
C197 C198 1.384 . S
C197 H220 0.930 . S
C198 C197 1.384 . S
C198 C199 1.377 . S
C198 C201 1.481 . S
C199 C198 1.377 . S
C199 C200 1.389 . S
C199 H221 0.929 . S
C200 C196 1.397 . S
C200 C199 1.389 . S
C200 H222 0.931 . S
C201 C198 1.481 . S
C201 C202 1.387 . S
C201 C206 1.390 . S
C202 C201 1.387 . S
C202 C203 1.401 . S
C202 H223 0.930 . S
C203 C202 1.401 . S
C203 C204 1.376 . S
C203 C212 1.511 . S
C204 C203 1.376 . S
C204 C205 1.392 . S
C204 H225 0.931 . S
C205 C204 1.392 . S
C205 C206 1.361 . S
C205 C207 1.500 . S
C206 C201 1.390 . S
C206 C205 1.361 . S
C206 H224 0.931 . S
C207 C205 1.500 . S
C207 C208 1.371 . S
C207 C209 1.365 . S
C208 C207 1.371 . S
C208 C218 1.386 . S
C208 H226 0.931 . S
C209 C207 1.365 . S
C209 C210 1.409 . S
C209 H227 0.929 . S
C210 C209 1.409 . S
C210 C211 1.380 . S
C210 H228 0.930 . S
C211 C210 1.380 . S
C211 C218 1.357 . S
C212 C203 1.511 . S
C212 C213 1.341 . S
C212 C214 1.371 . S
C213 C212 1.341 . S
C213 C217 1.394 . S
C213 H229 0.930 . S
C214 C212 1.371 . S
C214 C215 1.392 . S
C214 H230 0.931 . S
C215 C214 1.392 . S
C215 C216 1.331 . S
C215 H233 0.932 . S
C216 C215 1.331 . S
C216 C217 1.336 . S
C217 C213 1.394 . S
C217 C216 1.336 . S
C217 H232 0.929 . S
C218 C208 1.386 . S
C218 C211 1.357 . S
C218 H231 0.928 . S
H219 C195 0.931 . S
H220 C197 0.930 . S
H221 C199 0.929 . S
H222 C200 0.931 . S
H223 C202 0.930 . S
H224 C206 0.931 . S
H225 C204 0.931 . S
H226 C208 0.931 . S
H227 C209 0.929 . S
H228 C210 0.930 . S
H229 C213 0.930 . S
H230 C214 0.931 . S
H231 C218 0.928 . S
H232 C217 0.929 . S
H233 C215 0.932 . S
C234 C235 1.388 . S
C234 C236 1.397 . S
C234 H258 0.931 . S
C235 C234 1.388 . S
C235 C239 1.395 1_565 S
C236 C234 1.397 . S
C236 C237 1.383 . S
C236 H259 0.930 . S
C237 C236 1.383 . S
C237 C238 1.378 1_565 S
C237 C240 1.480 . S
C238 C237 1.378 1_545 S
C238 C239 1.389 . S
C238 H260 0.929 . S
C239 C235 1.395 1_545 S
C239 C238 1.389 . S
C239 H261 0.931 . S
C240 C237 1.480 . S
C240 C241 1.387 . S
C240 C245 1.392 . S
C241 C240 1.387 . S
C241 C242 1.401 . S
C241 H262 0.930 . S
C242 C241 1.401 . S
C242 C243 1.375 . S
C242 C251 1.511 . S
C243 C242 1.375 . S
C243 C244 1.394 1_565 S
C243 H264 0.934 . S
C244 C243 1.394 1_545 S
C244 C245 1.361 1_545 S
C244 C246 1.502 . S
C245 C240 1.392 . S
C245 C244 1.361 1_565 S
C245 H263 0.931 . S
C246 C244 1.502 . S
C246 C247 1.356 1_545 S
C246 C248 1.378 . S
C247 C246 1.356 1_565 S
C247 C257 1.386 . S
C247 H265 0.931 . S
C248 C246 1.378 . S
C248 C249 1.409 . S
C248 H266 0.929 . S
C249 C248 1.409 . S
C249 C250 1.385 . S
C249 H267 0.930 . S
C250 C249 1.385 . S
C250 C257 1.354 1_545 S
C251 C242 1.511 . S
C251 C252 1.341 . S
C251 C253 1.371 1_565 S
C252 C251 1.341 . S
C252 C256 1.394 . S
C252 H268 0.930 . S
C253 C251 1.371 1_545 S
C253 C254 1.392 . S
C253 H269 0.931 . S
C254 C253 1.392 . S
C254 C255 1.327 1_545 S
C254 H272 0.932 . S
C255 C254 1.327 1_565 S
C255 C256 1.342 . S
C256 C252 1.394 . S
C256 C255 1.342 . S
C256 H271 0.929 . S
C257 C247 1.386 . S
C257 C250 1.354 1_565 S
C257 H270 0.928 . S
H258 C234 0.931 . S
H259 C236 0.930 . S
H260 C238 0.929 . S
H261 C239 0.931 . S
H262 C241 0.930 . S
H263 C245 0.931 . S
H264 C243 0.934 . S
H265 C247 0.931 . S
H266 C248 0.929 . S
H267 C249 0.930 . S
H268 C252 0.930 . S
H269 C253 0.931 . S
H270 C257 0.928 . S
H271 C256 0.929 . S
H272 C254 0.932 . S
C273 C274 1.386 . S
C273 C275 1.397 . S
C273 H297 0.931 . S
C274 C273 1.386 . S
C274 C278 1.397 . S
C275 C273 1.397 . S
C275 C276 1.384 . S
C275 H298 0.930 . S
C276 C275 1.384 . S
C276 C277 1.377 . S
C276 C279 1.481 . S
C277 C276 1.377 . S
C277 C278 1.389 . S
C277 H299 0.929 . S
C278 C274 1.397 . S
C278 C277 1.389 . S
C278 H300 0.931 . S
C279 C276 1.481 . S
C279 C280 1.387 . S
C279 C284 1.390 . S
C280 C279 1.387 . S
C280 C281 1.401 . S
C280 H301 0.930 . S
C281 C280 1.401 . S
C281 C282 1.376 . S
C281 C290 1.511 . S
C282 C281 1.376 . S
C282 C283 1.392 . S
C282 H303 0.931 . S
C283 C282 1.392 . S
C283 C284 1.361 . S
C283 C285 1.500 . S
C284 C279 1.390 . S
C284 C283 1.361 . S
C284 H302 0.931 . S
C285 C283 1.500 . S
C285 C286 1.371 . S
C285 C287 1.365 . S
C286 C285 1.371 . S
C286 C296 1.386 . S
C286 H304 0.931 . S
C287 C285 1.365 . S
C287 C288 1.409 . S
C287 H305 0.929 . S
C288 C287 1.409 . S
C288 C289 1.380 . S
C288 H306 0.930 . S
C289 C288 1.380 . S
C289 C296 1.357 . S
C290 C281 1.511 . S
C290 C291 1.341 . S
C290 C292 1.371 . S
C291 C290 1.341 . S
C291 C295 1.394 . S
C291 H307 0.930 . S
C292 C290 1.371 . S
C292 C293 1.392 . S
C292 H308 0.931 . S
C293 C292 1.392 . S
C293 C294 1.331 . S
C293 H311 0.932 . S
C294 C293 1.331 . S
C294 C295 1.336 . S
C295 C291 1.394 . S
C295 C294 1.336 . S
C295 H310 0.929 . S
C296 C286 1.386 . S
C296 C289 1.357 . S
C296 H309 0.928 . S
H297 C273 0.931 . S
H298 C275 0.930 . S
H299 C277 0.929 . S
H300 C278 0.931 . S
H301 C280 0.930 . S
H302 C284 0.931 . S
H303 C282 0.931 . S
H304 C286 0.931 . S
H305 C287 0.929 . S
H306 C288 0.930 . S
H307 C291 0.930 . S
H308 C292 0.931 . S
H309 C296 0.928 . S
H310 C295 0.929 . S
H311 C293 0.932 . S
C312 O328 1.251 1_455 S
C312 O330 1.254 . S
N313 C314 1.333 . S
N313 C318 1.307 . S
N313 Zn319 2.020 1_655 S
C314 N313 1.333 . S
C314 C315 1.379 . S
C314 H332 0.965 . S
C315 C314 1.379 . S
C315 C316 1.390 . S
C315 H342 0.949 . S
C316 C315 1.390 . S
C316 C317 1.357 . S
C317 C316 1.357 . S
C317 C318 1.370 . S
C317 H343 0.950 . S
C318 N313 1.307 . S
C318 C317 1.370 . S
C318 H336 0.948 1_565 S
Zn319 N313 2.020 1_455 S
Zn319 O328 2.039 1_455 S
Zn319 O334 2.034 . S
Zn319 O338 2.025 1_565 S
Zn319 O340 2.025 1_465 S
C320 O339 1.246 . S
C320 O340 1.248 . S
N321 C322 1.307 . S
N321 C323 1.333 . S
N321 Zn327 2.020 . S
C322 N321 1.307 . S
C322 C326 1.370 . S
C322 H333 0.948 1_545 S
C323 N321 1.333 . S
C323 C324 1.379 . S
C323 H331 0.952 . S
C324 C323 1.379 . S
C324 C325 1.390 1_556 S
C324 H344 0.949 . S
C325 C324 1.390 1_554 S
C325 C326 1.357 1_554 S
C326 C322 1.370 . S
C326 C325 1.357 1_556 S
C326 H345 0.950 1_556 S
Zn327 N321 2.020 . S
Zn327 O330 2.025 1_545 S
Zn327 O335 2.025 . S
Zn327 O337 2.039 . S
Zn327 O339 2.034 1_455 S
O328 C312 1.251 1_655 S
O328 Zn319 2.039 1_655 S
C329 O334 1.246 . S
C329 O335 1.248 1_565 S
O330 C312 1.254 . S
O330 Zn327 2.025 1_565 S
H331 C323 0.952 . S
H332 C314 0.965 . S
H333 C322 0.948 1_565 S
O334 Zn319 2.034 . S
O334 C329 1.246 . S
O335 Zn327 2.025 . S
O335 C329 1.248 1_545 S
H336 C318 0.948 1_545 S
O337 Zn327 2.039 . S
O337 C341 1.251 . S
O338 Zn319 2.025 1_545 S
O338 C341 1.254 . S
O339 C320 1.246 . S
O339 Zn327 2.034 1_655 S
O340 Zn319 2.025 1_645 S
O340 C320 1.248 . S
C341 O337 1.251 . S
C341 O338 1.254 . S
H342 C315 0.949 . S
H343 C317 0.950 . S
H344 C324 0.949 . S
H345 C326 0.950 1_554 S
C346 O362 1.251 1_565 S
C346 O364 1.254 . S
N347 C348 1.333 . S
N347 C352 1.307 . S
N347 Zn353 2.020 . S
C348 N347 1.333 . S
C348 C349 1.379 . S
C348 H366 0.952 . S
C349 C348 1.379 . S
C349 C350 1.390 . S
C349 H376 0.949 . S
C350 C349 1.390 . S
C350 C351 1.357 . S
C351 C350 1.357 . S
C351 C352 1.370 . S
C351 H377 0.950 . S
C352 N347 1.307 . S
C352 C351 1.370 . S
C352 H370 0.948 . S
Zn353 N347 2.020 . S
Zn353 O362 2.039 . S
Zn353 O368 2.034 . S
Zn353 O372 2.025 . S
Zn353 O374 2.024 . S
C354 O373 1.246 1_545 S
C354 O374 1.249 . S
N355 C356 1.307 . S
N355 C357 1.333 . S
N355 Zn361 2.020 . S
C356 N355 1.307 . S
C356 C360 1.370 . S
C356 H367 0.948 . S
C357 N355 1.333 . S
C357 C358 1.379 . S
C357 H365 0.952 . S
C358 C357 1.379 . S
C358 C359 1.390 . S
C358 H378 0.949 . S
C359 C358 1.390 . S
C359 C360 1.357 . S
C360 C356 1.370 . S
C360 C359 1.357 . S
C360 H379 0.950 . S
Zn361 N355 2.020 . S
Zn361 O364 2.025 . S
Zn361 O369 2.024 . S
Zn361 O371 2.039 . S
Zn361 O373 2.034 . S
O362 C346 1.251 1_545 S
O362 Zn353 2.039 . S
C363 O368 1.246 1_565 S
C363 O369 1.249 . S
O364 C346 1.254 . S
O364 Zn361 2.025 . S
H365 C357 0.952 . S
H366 C348 0.952 . S
H367 C356 0.948 . S
O368 Zn353 2.034 . S
O368 C363 1.246 1_545 S
O369 Zn361 2.024 . S
O369 C363 1.249 . S
H370 C352 0.948 . S
O371 Zn361 2.039 . S
O371 C375 1.251 1_565 S
O372 Zn353 2.025 . S
O372 C375 1.254 . S
O373 C354 1.246 1_565 S
O373 Zn361 2.034 . S
O374 Zn353 2.024 . S
O374 C354 1.249 . S
C375 O371 1.251 1_545 S
C375 O372 1.254 . S
H376 C349 0.949 . S
H377 C351 0.950 . S
H378 C358 0.949 . S
H379 C360 0.950 . S
C380 O396 1.251 . S
C380 O398 1.254 . S
N381 C382 1.333 . S
N381 C386 1.307 . S
N381 Zn387 2.020 . S
C382 N381 1.333 . S
C382 C383 1.379 . S
C382 H400 0.952 . S
C383 C382 1.379 . S
C383 C384 1.390 . S
C383 H410 0.949 . S
C384 C383 1.390 . S
C384 C385 1.357 . S
C385 C384 1.357 . S
C385 C386 1.370 . S
C385 H411 0.950 . S
C386 N381 1.307 . S
C386 C385 1.370 . S
C386 H404 0.948 . S
Zn387 N381 2.020 . S
Zn387 O396 2.039 . S
Zn387 O402 2.034 . S
Zn387 O406 2.025 . S
Zn387 O408 2.024 . S
C388 O407 1.246 . S
C388 O408 1.249 . S
N389 C390 1.307 . S
N389 C391 1.333 . S
N389 Zn395 2.020 . S
C390 N389 1.307 . S
C390 C394 1.370 . S
C390 H401 0.948 . S
C391 N389 1.333 . S
C391 C392 1.379 . S
C391 H399 0.952 . S
C392 C391 1.379 . S
C392 C393 1.390 . S
C392 H412 0.949 . S
C393 C392 1.390 . S
C393 C394 1.357 . S
C394 C390 1.370 . S
C394 C393 1.357 . S
C394 H413 0.950 . S
Zn395 N389 2.020 . S
Zn395 O398 2.025 . S
Zn395 O403 2.024 . S
Zn395 O405 2.039 . S
Zn395 O407 2.034 . S
O396 C380 1.251 . S
O396 Zn387 2.039 . S
C397 O402 1.246 . S
C397 O403 1.249 . S
O398 C380 1.254 . S
O398 Zn395 2.025 . S
H399 C391 0.952 . S
H400 C382 0.952 . S
H401 C390 0.948 . S
O402 Zn387 2.034 . S
O402 C397 1.246 . S
O403 Zn395 2.024 . S
O403 C397 1.249 . S
H404 C386 0.948 . S
O405 Zn395 2.039 . S
O405 C409 1.251 . S
O406 Zn387 2.025 . S
O406 C409 1.254 . S
O407 C388 1.246 . S
O407 Zn395 2.034 . S
O408 Zn387 2.024 . S
O408 C388 1.249 . S
C409 O405 1.251 . S
C409 O406 1.254 . S
H410 C383 0.949 . S
H411 C385 0.950 . S
H412 C392 0.949 . S
H413 C394 0.950 . S
C414 O430 1.251 . S
C414 O432 1.254 . S
N415 C416 1.333 . S
N415 C420 1.307 . S
N415 Zn421 2.020 . S
C416 N415 1.333 . S
C416 C417 1.379 . S
C416 H434 0.952 . S
C417 C416 1.379 . S
C417 C418 1.390 . S
C417 H444 0.949 . S
C418 C417 1.390 . S
C418 C419 1.357 . S
C419 C418 1.357 . S
C419 C420 1.370 . S
C419 H445 0.950 . S
C420 N415 1.307 . S
C420 C419 1.370 . S
C420 H438 0.948 . S
Zn421 N415 2.020 . S
Zn421 O430 2.039 . S
Zn421 O436 2.034 1_455 S
Zn421 O440 2.025 1_455 S
Zn421 O442 2.024 . S
C422 O441 1.246 . S
C422 O442 1.249 . S
N423 C424 1.307 . S
N423 C425 1.333 . S
N423 Zn429 2.020 1_655 S
C424 N423 1.307 . S
C424 C428 1.370 . S
C424 H435 0.948 1_655 S
C425 N423 1.333 . S
C425 C426 1.379 . S
C425 H433 0.952 . S
C426 C425 1.379 . S
C426 C427 1.390 . S
C426 H446 0.949 . S
C427 C426 1.390 . S
C427 C428 1.357 . S
C428 C424 1.370 . S
C428 C427 1.357 . S
C428 H447 0.950 . S
Zn429 N423 2.020 1_455 S
Zn429 O432 2.025 . S
Zn429 O437 2.024 1_455 S
Zn429 O439 2.039 1_455 S
Zn429 O441 2.034 . S
O430 C414 1.251 . S
O430 Zn421 2.039 . S
C431 O436 1.246 . S
C431 O437 1.249 . S
O432 C414 1.254 . S
O432 Zn429 2.025 . S
H433 C425 0.952 . S
H434 C416 0.952 . S
H435 C424 0.948 1_455 S
O436 Zn421 2.034 1_655 S
O436 C431 1.246 . S
O437 Zn429 2.024 1_655 S
O437 C431 1.249 . S
H438 C420 0.948 . S
O439 Zn429 2.039 1_655 S
O439 C443 1.251 . S
O440 Zn421 2.025 1_655 S
O440 C443 1.254 . S
O441 C422 1.246 . S
O441 Zn429 2.034 . S
O442 Zn421 2.024 . S
O442 C422 1.249 . S
C443 O439 1.251 . S
C443 O440 1.254 . S
H444 C417 0.949 . S
H445 C419 0.950 . S
H446 C426 0.949 . S
H447 C428 0.950 . S
C448 C449 1.369 . S
C448 C450 1.419 . S
C448 H452 0.930 . S
C449 C448 1.369 . S
C449 C458 1.429 1_565 S
C450 C448 1.419 . S
C450 C451 1.363 . S
C450 H453 0.929 . S
C451 C450 1.363 . S
C451 C457 1.428 1_565 S
H452 C448 0.930 . S
H453 C450 0.929 . S
S454 N455 1.613 . S
S454 N456 1.610 . S
N455 S454 1.613 . S
N455 C458 1.350 . S
N456 S454 1.610 . S
N456 C457 1.351 . S
C457 C451 1.428 1_545 S
C457 N456 1.351 . S
C457 C458 1.434 . S
C458 C449 1.429 1_545 S
C458 N455 1.350 . S
C458 C457 1.434 . S
C459 C460 1.369 . S
C459 C461 1.419 . S
C459 H463 0.930 . S
C460 C459 1.369 . S
C460 C469 1.429 . S
C461 C459 1.419 . S
C461 C462 1.363 . S
C461 H464 0.929 . S
C462 C461 1.363 . S
C462 C468 1.428 . S
H463 C459 0.930 . S
H464 C461 0.929 . S
S465 N466 1.613 . S
S465 N467 1.610 . S
N466 S465 1.613 . S
N466 C469 1.350 . S
N467 S465 1.610 . S
N467 C468 1.351 . S
C468 C462 1.428 . S
C468 N467 1.351 . S
C468 C469 1.434 . S
C469 C460 1.429 . S
C469 N466 1.350 . S
C469 C468 1.434 . S
C470 C471 1.369 . S
C470 C472 1.419 . S
C470 H474 0.930 . S
C471 C470 1.369 . S
C471 C480 1.429 . S
C472 C470 1.419 . S
C472 C473 1.363 . S
C472 H475 0.929 . S
C473 C472 1.363 . S
C473 C479 1.428 . S
H474 C470 0.930 . S
H475 C472 0.929 . S
S476 N477 1.613 . S
S476 N478 1.610 . S
N477 S476 1.613 . S
N477 C480 1.350 . S
N478 S476 1.610 . S
N478 C479 1.351 . S
C479 C473 1.428 . S
C479 N478 1.351 . S
C479 C480 1.434 . S
C480 C471 1.429 . S
C480 N477 1.350 . S
C480 C479 1.434 . S
C481 C482 1.369 . S
C481 C483 1.419 . S
C481 H485 0.930 . S
C482 C481 1.369 . S
C482 C491 1.429 . S
C483 C481 1.419 . S
C483 C484 1.363 . S
C483 H486 0.929 . S
C484 C483 1.363 . S
C484 C490 1.428 . S
H485 C481 0.930 . S
H486 C483 0.929 . S
S487 N488 1.613 . S
S487 N489 1.610 . S
N488 S487 1.613 . S
N488 C491 1.350 . S
N489 S487 1.610 . S
N489 C490 1.351 . S
C490 C484 1.428 . S
C490 N489 1.351 . S
C490 C491 1.434 . S
C491 C482 1.429 . S
C491 N488 1.350 . S
C491 C490 1.434 . S
C492 C493 1.369 . S
C492 C494 1.419 . S
C492 H496 0.930 . S
C493 C492 1.369 . S
C493 C502 1.429 1_545 S
C494 C492 1.419 . S
C494 C495 1.363 . S
C494 H497 0.929 . S
C495 C494 1.363 . S
C495 C501 1.428 1_545 S
H496 C492 0.930 . S
H497 C494 0.929 . S
S498 N499 1.613 . S
S498 N500 1.610 1_554 S
N499 S498 1.613 . S
N499 C502 1.350 1_554 S
N500 S498 1.610 1_556 S
N500 C501 1.351 . S
C501 C495 1.428 1_565 S
C501 N500 1.351 . S
C501 C502 1.434 . S
C502 C493 1.429 1_565 S
C502 N499 1.350 1_556 S
C502 C501 1.434 . S
C503 C504 1.369 . S
C503 C505 1.419 . S
C503 H507 0.930 . S
C504 C503 1.369 . S
C504 C513 1.429 . S
C505 C503 1.419 . S
C505 C506 1.363 . S
C505 H508 0.929 . S
C506 C505 1.363 . S
C506 C512 1.428 . S
H507 C503 0.930 . S
H508 C505 0.929 . S
S509 N510 1.613 . S
S509 N511 1.610 . S
N510 S509 1.613 . S
N510 C513 1.350 . S
N511 S509 1.610 . S
N511 C512 1.351 . S
C512 C506 1.428 . S
C512 N511 1.351 . S
C512 C513 1.434 . S
C513 C504 1.429 . S
C513 N510 1.350 . S
C513 C512 1.434 . S
C514 C515 1.369 . S
C514 C516 1.419 1_554 S
C514 H518 0.930 . S
C515 C514 1.369 . S
C515 C524 1.429 1_554 S
C516 C514 1.419 1_556 S
C516 C517 1.363 . S
C516 H519 0.929 . S
C517 C516 1.363 . S
C517 C523 1.428 . S
H518 C514 0.930 . S
H519 C516 0.929 . S
S520 N521 1.613 . S
S520 N522 1.610 . S
N521 S520 1.613 . S
N521 C524 1.350 . S
N522 S520 1.610 . S
N522 C523 1.351 . S
C523 C517 1.428 . S
C523 N522 1.351 . S
C523 C524 1.434 . S
C524 C515 1.429 1_556 S
C524 N521 1.350 . S
C524 C523 1.434 . S
C525 C526 1.369 . S
C525 C527 1.419 . S
C525 H529 0.930 . S
C526 C525 1.369 . S
C526 C535 1.429 . S
C527 C525 1.419 . S
C527 C528 1.363 . S
C527 H530 0.929 . S
C528 C527 1.363 . S
C528 C534 1.428 . S
H529 C525 0.930 . S
H530 C527 0.929 . S
S531 N532 1.613 . S
S531 N533 1.610 . S
N532 S531 1.613 . S
N532 C535 1.350 . S
N533 S531 1.610 . S
N533 C534 1.351 . S
C534 C528 1.428 . S
C534 N533 1.351 . S
C534 C535 1.434 . S
C535 C526 1.429 . S
C535 N532 1.350 . S
C535 C534 1.434 . S
C536 C537 1.369 . S
C536 C538 1.419 . S
C536 H540 0.930 . S
C537 C536 1.369 . S
C537 C546 1.429 . S
C538 C536 1.419 . S
C538 C539 1.363 . S
C538 H541 0.929 . S
C539 C538 1.363 . S
C539 C545 1.428 . S
H540 C536 0.930 . S
H541 C538 0.929 . S
S542 N543 1.613 . S
S542 N544 1.610 . S
N543 S542 1.613 . S
N543 C546 1.350 . S
N544 S542 1.610 . S
N544 C545 1.351 . S
C545 C539 1.428 . S
C545 N544 1.351 . S
C545 C546 1.434 . S
C546 C537 1.429 . S
C546 N543 1.350 . S
C546 C545 1.434 . S
C547 C548 1.368 1_545 S
C547 C549 1.419 . S
C547 H551 0.930 . S
C548 C547 1.368 1_565 S
C548 C557 1.432 . S
C549 C547 1.419 . S
C549 C550 1.363 1_545 S
C549 H552 0.929 . S
C550 C549 1.363 1_565 S
C550 C556 1.428 . S
H551 C547 0.930 . S
H552 C549 0.929 . S
S553 N554 1.613 . S
S553 N555 1.610 . S
N554 S553 1.613 . S
N554 C557 1.350 . S
N555 S553 1.610 . S
N555 C556 1.351 . S
C556 C550 1.428 . S
C556 N555 1.351 . S
C556 C557 1.434 . S
C557 C548 1.432 . S
C557 N554 1.350 . S
C557 C556 1.434 . S
C558 C559 1.369 . S
C558 C560 1.419 . S
C558 H562 0.930 . S
C559 C558 1.369 . S
C559 C568 1.429 . S
C560 C558 1.419 . S
C560 C561 1.363 . S
C560 H563 0.929 . S
C561 C560 1.363 . S
C561 C567 1.428 . S
H562 C558 0.930 . S
H563 C560 0.929 . S
S564 N565 1.613 . S
S564 N566 1.610 . S
N565 S564 1.613 . S
N565 C568 1.350 . S
N566 S564 1.610 . S
N566 C567 1.351 . S
C567 C561 1.428 . S
C567 N566 1.351 . S
C567 C568 1.434 . S
C568 C559 1.429 . S
C568 N565 1.350 . S
C568 C567 1.434 . S
C569 C570 1.369 . S
C569 C571 1.419 . S
C569 H573 0.930 . S
C570 C569 1.369 . S
C570 C579 1.429 . S
C571 C569 1.419 . S
C571 C572 1.363 . S
C571 H574 0.929 . S
C572 C571 1.363 . S
C572 C578 1.428 . S
H573 C569 0.930 . S
H574 C571 0.929 . S
S575 N576 1.613 . S
S575 N577 1.610 . S
N576 S575 1.613 . S
N576 C579 1.350 . S
N577 S575 1.610 . S
N577 C578 1.351 . S
C578 C572 1.428 . S
C578 N577 1.351 . S
C578 C579 1.434 . S
C579 C570 1.429 . S
C579 N576 1.350 . S
C579 C578 1.434 . S
C580 C581 1.369 . S
C580 C582 1.419 . S
C580 H584 0.930 . S
C581 C580 1.369 . S
C581 C590 1.429 . S
C582 C580 1.419 . S
C582 C583 1.363 . S
C582 H585 0.929 . S
C583 C582 1.363 . S
C583 C589 1.428 . S
H584 C580 0.930 . S
H585 C582 0.929 . S
S586 N587 1.613 . S
S586 N588 1.610 1_655 S
N587 S586 1.613 . S
N587 C590 1.350 . S
N588 S586 1.610 1_455 S
N588 C589 1.351 1_455 S
C589 C583 1.428 . S
C589 N588 1.351 1_655 S
C589 C590 1.434 . S
C590 C581 1.429 . S
C590 N587 1.350 . S
C590 C589 1.434 . S
C591 C592 1.370 . S
C591 C593 1.419 . S
C591 H595 0.930 . S
C592 C591 1.370 . S
C592 C601 1.428 1_545 S
C593 C591 1.419 . S
C593 C594 1.363 . S
C593 H596 0.929 . S
C594 C593 1.363 . S
C594 C600 1.428 1_545 S
H595 C591 0.930 . S
H596 C593 0.929 . S
S597 N598 1.613 . S
S597 N599 1.610 . S
N598 S597 1.613 . S
N598 C601 1.350 . S
N599 S597 1.610 . S
N599 C600 1.351 . S
C600 C594 1.428 1_565 S
C600 N599 1.351 . S
C600 C601 1.434 . S
C601 C592 1.428 1_565 S
C601 N598 1.350 . S
C601 C600 1.434 . S
C602 C603 1.369 . S
C602 C604 1.419 . S
C602 H606 0.930 . S
C603 C602 1.369 . S
C603 C612 1.429 . S
C604 C602 1.419 . S
C604 C605 1.363 . S
C604 H607 0.929 . S
C605 C604 1.363 . S
C605 C611 1.428 . S
H606 C602 0.930 . S
H607 C604 0.929 . S
S608 N609 1.613 1_554 S
S608 N610 1.610 1_554 S
N609 S608 1.613 1_556 S
N609 C612 1.350 . S
N610 S608 1.610 1_556 S
N610 C611 1.351 . S
C611 C605 1.428 . S
C611 N610 1.351 . S
C611 C612 1.434 . S
C612 C603 1.429 . S
C612 N609 1.350 . S
C612 C611 1.434 . S
C613 C614 1.369 . S
C613 C615 1.419 . S
C613 H617 0.930 . S
C614 C613 1.369 . S
C614 C623 1.429 . S
C615 C613 1.419 . S
C615 C616 1.363 . S
C615 H618 0.929 . S
C616 C615 1.363 . S
C616 C622 1.428 . S
H617 C613 0.930 . S
H618 C615 0.929 . S
S619 N620 1.613 . S
S619 N621 1.610 . S
N620 S619 1.613 . S
N620 C623 1.350 . S
N621 S619 1.610 . S
N621 C622 1.351 . S
C622 C616 1.428 . S
C622 N621 1.351 . S
C622 C623 1.434 . S
C623 C614 1.429 . S
C623 N620 1.350 . S
C623 C622 1.434 . S
C624 C625 1.369 . S
C624 C626 1.419 . S
C624 H628 0.930 . S
C625 C624 1.369 . S
C625 C634 1.429 . S
C626 C624 1.419 . S
C626 C627 1.363 . S
C626 H629 0.929 . S
C627 C626 1.363 . S
C627 C633 1.428 1_554 S
H628 C624 0.930 . S
H629 C626 0.929 . S
S630 N631 1.613 . S
S630 N632 1.610 . S
N631 S630 1.613 . S
N631 C634 1.350 1_556 S
N632 S630 1.610 . S
N632 C633 1.351 . S
C633 C627 1.428 1_556 S
C633 N632 1.351 . S
C633 C634 1.434 1_556 S
C634 C625 1.429 . S
C634 N631 1.350 1_554 S
C634 C633 1.434 1_554 S
C635 C636 1.369 1_564 S
C635 C637 1.419 1_554 S
C635 H639 0.930 . S
C636 C635 1.369 1_546 S
C636 C645 1.429 . S
C637 C635 1.419 1_556 S
C637 C638 1.363 1_565 S
C637 H640 0.929 . S
C638 C637 1.363 1_545 S
C638 C644 1.428 . S
H639 C635 0.930 . S
H640 C637 0.929 . S
S641 N642 1.613 . S
S641 N643 1.610 . S
N642 S641 1.613 . S
N642 C645 1.350 . S
N643 S641 1.610 . S
N643 C644 1.351 . S
C644 C638 1.428 . S
C644 N643 1.351 . S
C644 C645 1.434 . S
C645 C636 1.429 . S
C645 N642 1.350 . S
C645 C644 1.434 . S
C646 C647 1.369 . S
C646 C648 1.419 . S
C646 H650 0.930 . S
C647 C646 1.369 . S
C647 C656 1.429 1_556 S
C648 C646 1.419 . S
C648 C649 1.363 . S
C648 H651 0.929 . S
C649 C648 1.363 . S
C649 C655 1.428 . S
H650 C646 0.930 . S
H651 C648 0.929 . S
S652 N653 1.613 . S
S652 N654 1.610 . S
N653 S652 1.613 . S
N653 C656 1.350 . S
N654 S652 1.610 . S
N654 C655 1.351 1_554 S
C655 C649 1.428 . S
C655 N654 1.351 1_556 S
C655 C656 1.434 1_556 S
C656 C647 1.429 1_554 S
C656 N653 1.350 . S
C656 C655 1.434 1_554 S
C657 C658 1.369 . S
C657 C659 1.419 . S
C657 H661 0.930 . S
C658 C657 1.369 . S
C658 C667 1.429 . S
C659 C657 1.419 . S
C659 C660 1.363 . S
C659 H662 0.929 . S
C660 C659 1.363 . S
C660 C666 1.428 . S
H661 C657 0.930 . S
H662 C659 0.929 . S
S663 N664 1.613 . S
S663 N665 1.610 1_554 S
N664 S663 1.613 . S
N664 C667 1.350 1_554 S
N665 S663 1.610 1_556 S
N665 C666 1.351 . S
C666 C660 1.428 . S
C666 N665 1.351 . S
C666 C667 1.434 . S
C667 C658 1.429 . S
C667 N664 1.350 1_556 S
C667 C666 1.434 . S
C668 C669 1.369 . S
C668 C670 1.419 . S
C668 H672 0.930 . S
C669 C668 1.369 . S
C669 C678 1.429 . S
C670 C668 1.419 . S
C670 C671 1.363 . S
C670 H673 0.929 . S
C671 C670 1.363 . S
C671 C677 1.428 . S
H672 C668 0.930 . S
H673 C670 0.929 . S
S674 N675 1.613 . S
S674 N676 1.610 . S
N675 S674 1.613 . S
N675 C678 1.350 . S
N676 S674 1.610 . S
N676 C677 1.351 . S
C677 C671 1.428 . S
C677 N676 1.351 . S
C677 C678 1.434 . S
C678 C669 1.429 . S
C678 N675 1.350 . S
C678 C677 1.434 . S
C679 C680 1.369 1_545 S
C679 C681 1.419 . S
C679 H683 0.930 . S
C680 C679 1.369 1_565 S
C680 C689 1.429 . S
C681 C679 1.419 . S
C681 C682 1.363 1_545 S
C681 H684 0.929 . S
C682 C681 1.363 1_565 S
C682 C688 1.428 . S
H683 C679 0.930 . S
H684 C681 0.929 . S
S685 N686 1.613 . S
S685 N687 1.610 . S
N686 S685 1.613 . S
N686 C689 1.350 . S
N687 S685 1.610 . S
N687 C688 1.351 . S
C688 C682 1.428 . S
C688 N687 1.351 . S
C688 C689 1.434 . S
C689 C680 1.429 . S
C689 N686 1.350 . S
C689 C688 1.434 . S
C690 C691 1.369 . S
C690 C692 1.419 . S
C690 H694 0.930 . S
C691 C690 1.369 . S
C691 C700 1.429 . S
C692 C690 1.419 . S
C692 C693 1.363 . S
C692 H695 0.929 . S
C693 C692 1.363 . S
C693 C699 1.428 . S
H694 C690 0.930 . S
H695 C692 0.929 . S
S696 N697 1.613 . S
S696 N698 1.610 . S
N697 S696 1.613 . S
N697 C700 1.350 . S
N698 S696 1.610 . S
N698 C699 1.351 . S
C699 C693 1.428 . S
C699 N698 1.351 . S
C699 C700 1.434 . S
C700 C691 1.429 . S
C700 N697 1.350 . S
C700 C699 1.434 . S
C701 C702 1.369 . S
C701 C703 1.419 . S
C701 H705 0.930 . S
C702 C701 1.369 . S
C702 C711 1.429 . S
C703 C701 1.419 . S
C703 C704 1.363 . S
C703 H706 0.929 . S
C704 C703 1.363 . S
C704 C710 1.428 . S
H705 C701 0.930 . S
H706 C703 0.929 . S
S707 N708 1.613 . S
S707 N709 1.610 . S
N708 S707 1.613 . S
N708 C711 1.350 . S
N709 S707 1.610 . S
N709 C710 1.351 . S
C710 C704 1.428 . S
C710 N709 1.351 . S
C710 C711 1.434 . S
C711 C702 1.429 . S
C711 N708 1.350 . S
C711 C710 1.434 . S
C449 C255 1.950 . S
C451 C329 1.974 . S
C462 C350 1.824 . S
C460 C294 1.763 . S
C473 C384 1.766 . S
C471 C177 1.742 . S
C484 C418 1.772 . S
C482 C216 1.712 . S
C495 C320 1.973 . S
C493 C99 1.957 1_546 S
C504 C138 1.749 1_556 S
C506 C359 1.828 . S
C515 C21 1.724 . S
C517 C393 1.773 . S
C526 C60 1.726 . S
C528 C427 1.772 . S
C539 C341 1.273 . S
C537 C196 1.099 . S
C550 C346 0.829 . S
C548 C235 0.836 . S
C561 C380 1.007 . S
C559 C289 0.960 . S
C570 C157 0.602 . S
C572 C414 0.528 . S
C581 C40 1.117 . S
C583 C312 1.278 1_655 S
C594 C375 0.828 . S
C592 C79 0.835 1_545 S
C605 C409 1.004 . S
C603 C133 0.969 . S
C614 C1 0.597 . S
C616 C443 0.536 . S
C625 C211 1.764 . S
C627 C325 1.893 . S
C636 C250 2.090 1_556 S
C638 C354 2.238 . S
C649 C388 1.986 . S
C647 C274 1.833 1_556 S
C660 C422 2.077 . S
C658 C172 1.887 . S
C669 C55 1.759 . S
C671 C316 1.901 . S
C682 C363 2.238 . S
C680 C94 2.090 1_565 S
C693 C397 1.986 . S
C691 C118 1.828 . S
C702 C16 1.895 . S
C704 C431 2.076 . S
