# Generated by pormake.
# Topology apo, (3,6)-cn, num edge types: 1
# Building blocks:
#     Node 0, Type 0, BuildingBlock: BELTOD_clean_linker_0, # of connection points: 3
#     Node 1, Type 0, BuildingBlock: BELTOD_clean_linker_0, # of connection points: 3
#     Node 2, Type 0, BuildingBlock: BELTOD_clean_linker_0, # of connection points: 3
#     Node 3, Type 0, BuildingBlock: BELTOD_clean_linker_0, # of connection points: 3
#     Node 4, Type 0, BuildingBlock: BELTOD_clean_linker_0, # of connection points: 3
#     Node 5, Type 0, BuildingBlock: BELTOD_clean_linker_0, # of connection points: 3
#     Node 6, Type 0, BuildingBlock: BELTOD_clean_linker_0, # of connection points: 3
#     Node 7, Type 0, BuildingBlock: BELTOD_clean_linker_0, # of connection points: 3
#     Node 8, Type 1, BuildingBlock: MIDCAF_clean_sbu_0, # of connection points: 6
#     Node 9, Type 1, BuildingBlock: MIDCAF_clean_sbu_0, # of connection points: 6
#     Node 10, Type 1, BuildingBlock: MIDCAF_clean_sbu_0, # of connection points: 6
#     Node 11, Type 1, BuildingBlock: MIDCAF_clean_sbu_0, # of connection points: 6
#     Edge 12, Type (0, 1), BuildingBlock: XUDNAN_clean_linker_2, # of connection points: 2
#     Edge 13, Type (0, 1), BuildingBlock: XUDNAN_clean_linker_2, # of connection points: 2
#     Edge 14, Type (0, 1), BuildingBlock: XUDNAN_clean_linker_2, # of connection points: 2
#     Edge 15, Type (0, 1), BuildingBlock: XUDNAN_clean_linker_2, # of connection points: 2
#     Edge 16, Type (0, 1), BuildingBlock: XUDNAN_clean_linker_2, # of connection points: 2
#     Edge 17, Type (0, 1), BuildingBlock: XUDNAN_clean_linker_2, # of connection points: 2
#     Edge 18, Type (0, 1), BuildingBlock: XUDNAN_clean_linker_2, # of connection points: 2
#     Edge 19, Type (0, 1), BuildingBlock: XUDNAN_clean_linker_2, # of connection points: 2
#     Edge 20, Type (0, 1), BuildingBlock: XUDNAN_clean_linker_2, # of connection points: 2
#     Edge 21, Type (0, 1), BuildingBlock: XUDNAN_clean_linker_2, # of connection points: 2
#     Edge 22, Type (0, 1), BuildingBlock: XUDNAN_clean_linker_2, # of connection points: 2
#     Edge 23, Type (0, 1), BuildingBlock: XUDNAN_clean_linker_2, # of connection points: 2
#     Edge 24, Type (0, 1), BuildingBlock: XUDNAN_clean_linker_2, # of connection points: 2
#     Edge 25, Type (0, 1), BuildingBlock: XUDNAN_clean_linker_2, # of connection points: 2
#     Edge 26, Type (0, 1), BuildingBlock: XUDNAN_clean_linker_2, # of connection points: 2
#     Edge 27, Type (0, 1), BuildingBlock: XUDNAN_clean_linker_2, # of connection points: 2
#     Edge 28, Type (0, 1), BuildingBlock: XUDNAN_clean_linker_2, # of connection points: 2
#     Edge 29, Type (0, 1), BuildingBlock: XUDNAN_clean_linker_2, # of connection points: 2
#     Edge 30, Type (0, 1), BuildingBlock: XUDNAN_clean_linker_2, # of connection points: 2
#     Edge 31, Type (0, 1), BuildingBlock: XUDNAN_clean_linker_2, # of connection points: 2
#     Edge 32, Type (0, 1), BuildingBlock: XUDNAN_clean_linker_2, # of connection points: 2
#     Edge 33, Type (0, 1), BuildingBlock: XUDNAN_clean_linker_2, # of connection points: 2
#     Edge 34, Type (0, 1), BuildingBlock: XUDNAN_clean_linker_2, # of connection points: 2
#     Edge 35, Type (0, 1), BuildingBlock: XUDNAN_clean_linker_2, # of connection points: 2
# Relax obj value: 0.078
# Max RMSD: 0.096
# Mean RMSD: 0.084
data_MOF--net-apo--node1-MIDCAF_clean_sbu_0--node2-BELTOD_clean_linker_0--edge1-XUDNAN_clean_linker_2
_symmetry_space_group_name_H-M    P1
_symmetry_Int_Tables_number       1
_symmetry_cell_setting            triclinic
loop_
_symmetry_equiv_pos_as_xyz
'x, y, z'
_cell_length_a     39.580556
_cell_length_b     46.965324
_cell_length_c     41.531031
_cell_angle_alpha  89.643471
_cell_angle_beta   89.824815
_cell_angle_gamma 90.348104
loop_
_atom_site_label
_atom_site_type_symbol
_atom_site_fract_x
_atom_site_fract_y
_atom_site_fract_z
_atom_type_partial_charge
P0 P 0.38215 0.2875 0.38397 0.0
H1 H 0.40753 0.25082 0.43563 0.0
H2 H 0.40398 0.25338 0.49417 0.0
H3 H 0.34114 0.32803 0.48596 0.0
H4 H 0.34562 0.32566 0.42718 0.0
H5 H 0.36264 0.28284 0.3165 0.0
H6 H 0.31277 0.26321 0.28977 0.0
H7 H 0.27179 0.23849 0.38254 0.0
H8 H 0.32077 0.25921 0.40891 0.0
H9 H 0.44356 0.32174 0.3873 0.0
H10 H 0.34273 0.3315 0.34986 0.0
O11 O 0.41442 0.26633 0.37473 0.0
H12 H 0.45902 0.36881 0.36572 0.0
H13 H 0.35835 0.37806 0.3275 0.0
C14 C 0.37748 0.28844 0.42714 0.0
C15 C 0.39294 0.26771 0.44641 0.0
C16 C 0.39052 0.26901 0.47996 0.0
C17 C 0.37235 0.29098 0.4949 0.0
C18 C 0.35575 0.31108 0.47531 0.0
C19 C 0.35826 0.30976 0.44172 0.0
C20 C 0.34506 0.27315 0.36471 0.0
C21 C 0.34265 0.27348 0.33103 0.0
C22 C 0.31425 0.26199 0.31576 0.0
C23 C 0.28797 0.24948 0.33394 0.0
C24 C 0.291 0.24863 0.36773 0.0
C25 C 0.31922 0.26038 0.38293 0.0
C26 C 0.39233 0.32276 0.36938 0.0
C27 C 0.42481 0.33396 0.37435 0.0
C28 C 0.43358 0.36084 0.36213 0.0
C29 C 0.41001 0.37683 0.34454 0.0
C30 C 0.37718 0.3659 0.34044 0.0
C31 C 0.36828 0.33925 0.35314 0.0
P32 P 0.21868 0.11855 0.91958 0.0
H33 H 0.21182 0.0668 0.88219 0.0
H34 H 0.16674 0.04683 0.84995 0.0
H35 H 0.10496 0.12029 0.86995 0.0
H36 H 0.15003 0.13967 0.90353 0.0
H37 H 0.29062 0.12397 0.90564 0.0
H38 H 0.32341 0.15641 0.87208 0.0
H39 H 0.23253 0.20237 0.84801 0.0
H40 H 0.19942 0.16883 0.88095 0.0
H41 H 0.23085 0.1003 0.98588 0.0
H42 H 0.17892 0.16913 0.93835 0.0
O43 O 0.24427 0.09124 0.92751 0.0
H44 H 0.21317 0.11817 0.03778 0.0
H45 H 0.1584 0.18584 0.99027 0.0
C46 C 0.18423 0.1045 0.89598 0.0
C47 C 0.18855 0.07862 0.87995 0.0
C48 C 0.16278 0.06738 0.86098 0.0
C49 C 0.13216 0.08203 0.857 0.0
C50 C 0.12805 0.10828 0.87269 0.0
C51 C 0.1539 0.11943 0.89197 0.0
C52 C 0.2425 0.1439 0.89584 0.0
C53 C 0.27758 0.14093 0.89316 0.0
C54 C 0.29642 0.15967 0.874 0.0
C55 C 0.28067 0.18214 0.85739 0.0
C56 C 0.24541 0.18511 0.86014 0.0
C57 C 0.22648 0.16612 0.87925 0.0
C58 C 0.20567 0.13296 0.95793 0.0
C59 C 0.21525 0.11913 0.98647 0.0
C60 C 0.20477 0.1293 0.01638 0.0
C61 C 0.18372 0.15326 0.01859 0.0
C62 C 0.17477 0.16747 0.98985 0.0
C63 C 0.186 0.15761 0.95988 0.0
P64 P 0.87418 0.20765 0.6382 0.0
H65 H 0.85475 0.25154 0.59104 0.0
H66 H 0.85542 0.25289 0.532 0.0
H67 H 0.89186 0.1663 0.53099 0.0
H68 H 0.89001 0.16485 0.58917 0.0
H69 H 0.86345 0.22511 0.70424 0.0
H70 H 0.81462 0.24335 0.73341 0.0
H71 H 0.75598 0.24015 0.64575 0.0
H72 H 0.80441 0.22037 0.61741 0.0
H73 H 0.93349 0.17605 0.66082 0.0
H74 H 0.82751 0.15984 0.64497 0.0
O75 O 0.90783 0.22712 0.64842 0.0
H76 H 0.94231 0.12538 0.67215 0.0
H77 H 0.8361 0.10926 0.65642 0.0
C78 C 0.87142 0.20789 0.5947 0.0
C79 C 0.86214 0.23268 0.57799 0.0
C80 C 0.86283 0.23348 0.5442 0.0
C81 C 0.87334 0.20959 0.5265 0.0
C82 C 0.88264 0.18486 0.54353 0.0
C83 C 0.88174 0.18405 0.57713 0.0
C84 C 0.83784 0.22209 0.65849 0.0
C85 C 0.84005 0.22845 0.69133 0.0
C86 C 0.81209 0.23902 0.70796 0.0
C87 C 0.78123 0.24354 0.69202 0.0
C88 C 0.77909 0.23671 0.65905 0.0
C89 C 0.80701 0.22578 0.64257 0.0
C90 C 0.87977 0.17168 0.65233 0.0
C91 C 0.91197 0.16171 0.66057 0.0
C92 C 0.91699 0.13277 0.66712 0.0
C93 C 0.88993 0.11337 0.66503 0.0
C94 C 0.85748 0.1237 0.65797 0.0
C95 C 0.85248 0.1526 0.65162 0.0
P96 P 0.72318 0.36283 0.11398 0.0
H97 H 0.72403 0.4075 0.16208 0.0
H98 H 0.67934 0.43235 0.19101 0.0
H99 H 0.60407 0.38468 0.13855 0.0
H100 H 0.64905 0.35954 0.10983 0.0
H101 H 0.7622 0.31179 0.10023 0.0
H102 H 0.78612 0.27515 0.13538 0.0
H103 H 0.73411 0.31147 0.21679 0.0
H104 H 0.71032 0.34784 0.18181 0.0
H105 H 0.72969 0.39451 0.05417 0.0
H106 H 0.68903 0.31334 0.08469 0.0
O107 O 0.75737 0.38376 0.11227 0.0
H108 H 0.70939 0.38617 0.99965 0.0
H109 H 0.66802 0.30494 0.02994 0.0
C110 C 0.68982 0.3822 0.13329 0.0
C111 C 0.69792 0.40252 0.15662 0.0
C112 C 0.67239 0.4164 0.17346 0.0
C113 C 0.63828 0.41026 0.16715 0.0
C114 C 0.63019 0.38981 0.14379 0.0
C115 C 0.65584 0.37561 0.12725 0.0
C116 C 0.73411 0.33236 0.13816 0.0
C117 C 0.75515 0.31135 0.12545 0.0
C118 C 0.76878 0.29043 0.14558 0.0
C119 C 0.76197 0.29052 0.17886 0.0
C120 C 0.73991 0.311 0.1913 0.0
C121 C 0.72615 0.33175 0.17114 0.0
C122 C 0.7113 0.35437 0.07332 0.0
C123 C 0.71682 0.37466 0.04899 0.0
C124 C 0.705 0.36994 0.01786 0.0
C125 C 0.68703 0.34492 0.01048 0.0
C126 C 0.68218 0.32424 0.03477 0.0
C127 C 0.69406 0.32904 0.06606 0.0
P128 P 0.7109 0.6434 0.58209 0.0
H129 H 0.73839 0.64704 0.51691 0.0
H130 H 0.71574 0.66573 0.46648 0.0
H131 H 0.62923 0.69826 0.51794 0.0
H132 H 0.65253 0.67996 0.56845 0.0
H133 H 0.7799 0.64221 0.60676 0.0
H134 H 0.80858 0.66927 0.64842 0.0
H135 H 0.72004 0.7217 0.65993 0.0
H136 H 0.69152 0.69457 0.61752 0.0
H137 H 0.64553 0.61923 0.5622 0.0
H138 H 0.70207 0.62923 0.65017 0.0
O139 O 0.73632 0.61703 0.57079 0.0
H140 H 0.60292 0.59112 0.59137 0.0
H141 H 0.6597 0.60127 0.67919 0.0
C142 C 0.69673 0.66157 0.54628 0.0
C143 C 0.71477 0.65853 0.51742 0.0
C144 C 0.70172 0.66914 0.48855 0.0
C145 C 0.67042 0.68313 0.48802 0.0
C146 C 0.65349 0.68774 0.51742 0.0
C147 C 0.66666 0.67715 0.54634 0.0
C148 C 0.73369 0.66658 0.60881 0.0
C149 C 0.76674 0.65976 0.61785 0.0
C150 C 0.78297 0.67501 0.64209 0.0
C151 C 0.7664 0.69734 0.65794 0.0
C152 C 0.73352 0.70465 0.64818 0.0
C153 C 0.71727 0.68931 0.62383 0.0
C154 C 0.67659 0.62702 0.60411 0.0
C155 C 0.64828 0.61619 0.58792 0.0
C156 C 0.62391 0.60015 0.6046 0.0
C157 C 0.62797 0.59418 0.63756 0.0
C158 C 0.65593 0.60562 0.65381 0.0
C159 C 0.68009 0.62176 0.6372 0.0
P160 P 0.865 0.80065 0.13812 0.0
H161 H 0.90324 0.81857 0.19493 0.0
H162 H 0.92802 0.86471 0.20996 0.0
H163 H 0.87752 0.90458 0.12977 0.0
H164 H 0.85192 0.85881 0.11541 0.0
H165 H 0.84132 0.74364 0.15393 0.0
H166 H 0.78939 0.72511 0.17796 0.0
H167 H 0.74996 0.81058 0.1834 0.0
H168 H 0.80272 0.82909 0.1598 0.0
H169 H 0.91234 0.82449 0.09193 0.0
H170 H 0.81693 0.77973 0.08857 0.0
O171 O 0.89557 0.77799 0.14821 0.0
H172 H 0.9127 0.82839 0.03335 0.0
H173 H 0.81755 0.78313 0.02939 0.0
C174 C 0.87655 0.83517 0.15353 0.0
C175 C 0.89684 0.83737 0.18106 0.0
C176 C 0.91089 0.86366 0.1897 0.0
C177 C 0.9049 0.88792 0.17073 0.0
C178 C 0.88262 0.88603 0.14457 0.0
C179 C 0.86813 0.8599 0.13633 0.0
C180 C 0.82604 0.78774 0.15549 0.0
C181 C 0.82161 0.75844 0.16045 0.0
C182 C 0.79176 0.74786 0.17403 0.0
C183 C 0.76545 0.76635 0.18265 0.0
C184 C 0.7699 0.7958 0.17748 0.0
C185 C 0.79994 0.80639 0.16382 0.0
C186 C 0.86428 0.80242 0.09469 0.0
C187 C 0.89135 0.8156 0.07857 0.0
C188 C 0.89152 0.81786 0.04508 0.0
C189 C 0.86491 0.80641 0.02686 0.0
C190 C 0.83828 0.79226 0.04291 0.0
C191 C 0.83787 0.7904 0.07668 0.0
P192 P 0.2106 0.85999 0.40669 0.0
H193 H 0.24959 0.85565 0.46628 0.0
H194 H 0.23366 0.84393 0.52166 0.0
H195 H 0.13187 0.82535 0.48976 0.0
H196 H 0.14896 0.83488 0.43452 0.0
H197 H 0.27936 0.84283 0.39121 0.0
H198 H 0.30238 0.80571 0.35709 0.0
H199 H 0.20093 0.77763 0.33439 0.0
H200 H 0.17828 0.81392 0.37032 0.0
H201 H 0.15577 0.89418 0.43259 0.0
H202 H 0.18768 0.86471 0.33922 0.0
O203 O 0.24019 0.88526 0.41004 0.0
H204 H 0.10753 0.9176 0.40815 0.0
H205 H 0.13885 0.88776 0.31454 0.0
C206 C 0.20013 0.84707 0.4465 0.0
C207 C 0.224 0.84858 0.47128 0.0
C208 C 0.2147 0.8421 0.50305 0.0
C209 C 0.18118 0.83427 0.51071 0.0
C210 C 0.15799 0.83105 0.48522 0.0
C211 C 0.16758 0.83689 0.45343 0.0
C212 C 0.22713 0.83154 0.38263 0.0
C213 C 0.26208 0.82866 0.37891 0.0
C214 C 0.2752 0.80757 0.359 0.0
C215 C 0.25356 0.78897 0.34222 0.0
C216 C 0.21843 0.79148 0.34685 0.0
C217 C 0.20538 0.81234 0.36724 0.0
C218 C 0.17445 0.87642 0.38804 0.0
C219 C 0.15191 0.89206 0.40692 0.0
C220 C 0.1242 0.9054 0.39287 0.0
C221 C 0.11877 0.90388 0.35946 0.0
C222 C 0.14206 0.88899 0.34038 0.0
C223 C 0.16983 0.87557 0.35455 0.0
P224 P 0.35819 0.70292 0.87485 0.0
H225 H 0.40607 0.69253 0.82262 0.0
H226 H 0.42826 0.64915 0.79877 0.0
H227 H 0.36601 0.59882 0.86363 0.0
H228 H 0.34263 0.64248 0.88599 0.0
H229 H 0.34338 0.73243 0.81483 0.0
H230 H 0.29058 0.74708 0.78919 0.0
H231 H 0.23392 0.70696 0.86623 0.0
H232 H 0.28686 0.69183 0.89144 0.0
H233 H 0.39222 0.66684 0.92243 0.0
H234 H 0.31924 0.73464 0.92303 0.0
O235 O 0.38594 0.72904 0.8674 0.0
H236 H 0.39053 0.66474 0.98091 0.0
H237 H 0.31735 0.73259 0.98205 0.0
C238 C 0.37353 0.67067 0.85678 0.0
C239 C 0.39719 0.67213 0.83167 0.0
C240 C 0.41001 0.64724 0.81815 0.0
C241 C 0.39946 0.62031 0.82955 0.0
C242 C 0.37468 0.61905 0.85398 0.0
C243 C 0.36152 0.64402 0.86713 0.0
C244 C 0.31899 0.71199 0.85561 0.0
C245 C 0.31958 0.72671 0.82615 0.0
C246 C 0.28944 0.73484 0.81137 0.0
C247 C 0.25821 0.72839 0.8259 0.0
C248 C 0.25769 0.71254 0.85476 0.0
C249 C 0.28788 0.70404 0.86926 0.0
C250 C 0.35461 0.69993 0.91814 0.0
C251 C 0.37502 0.68073 0.93504 0.0
C252 C 0.37409 0.6796 0.96863 0.0
C253 C 0.35325 0.69811 0.98619 0.0
C254 C 0.33343 0.71788 0.96924 0.0
C255 C 0.33426 0.71887 0.9355 0.0
Zn256 Zn 0.0228 0.12576 0.32304 0.0
Zn257 Zn 0.98203 0.1361 0.20555 0.0
Zn258 Zn 0.00219 0.13164 0.26336 0.0
C259 C 0.04274 0.16317 0.20467 0.0
C260 C 0.98846 0.07855 0.21569 0.0
O261 O 0.96677 0.1557 0.29582 0.0
O262 O 0.98586 0.14549 0.34463 0.0
C263 C 0.07344 0.15556 0.28923 0.0
O264 O 0.04282 0.15153 0.2329 0.0
O265 O 0.0163 0.16271 0.18785 0.0
O266 O 0.98577 0.09578 0.19244 0.0
O267 O 0.99267 0.08798 0.2445 0.0
O268 O 0.0658 0.14707 0.31724 0.0
O269 O 0.05332 0.15092 0.26549 0.0
O270 O 0.00332 0.08575 0.27622 0.0
O271 O 0.02236 0.08389 0.32628 0.0
C272 C 0.01174 0.07142 0.30147 0.0
O273 O 0.9549 0.15696 0.26378 0.0
O274 O 0.93656 0.15076 0.21411 0.0
C275 C 0.96465 0.15768 0.32679 0.0
C276 C 0.93205 0.16042 0.24205 0.0
Zn277 Zn 0.52665 0.36259 0.70677 0.0
Zn278 Zn 0.47436 0.37363 0.81094 0.0
Zn279 Zn 0.50069 0.36584 0.75827 0.0
C280 C 0.46713 0.42466 0.78466 0.0
C281 C 0.44069 0.32756 0.78507 0.0
O282 O 0.55065 0.34392 0.76307 0.0
O283 O 0.55582 0.32904 0.71313 0.0
C284 C 0.53086 0.41814 0.71842 0.0
O285 O 0.48858 0.41194 0.76629 0.0
O286 O 0.45119 0.41063 0.80582 0.0
O287 O 0.44703 0.33849 0.81206 0.0
O288 O 0.45561 0.33716 0.75957 0.0
O289 O 0.54897 0.40041 0.70377 0.0
O290 O 0.5079 0.40932 0.73822 0.0
O291 O 0.4644 0.34171 0.72746 0.0
O292 O 0.48504 0.35778 0.68142 0.0
C293 C 0.46186 0.34503 0.69672 0.0
O294 O 0.53861 0.3513 0.79384 0.0
O295 O 0.51705 0.37329 0.83591 0.0
C296 C 0.566 0.32872 0.74186 0.0
C297 C 0.54084 0.35938 0.82335 0.0
Zn298 Zn 0.0113 0.87702 0.8012 0.0
Zn299 Zn 0.9646 0.85507 0.69674 0.0
Zn300 Zn 0.98721 0.86714 0.7511 0.0
C301 C 0.95531 0.91362 0.70288 0.0
C302 C 0.92347 0.82553 0.73821 0.0
O303 O 0.03724 0.84479 0.75375 0.0
O304 O 0.04225 0.84482 0.80645 0.0
C305 C 0.01374 0.92786 0.77359 0.0
O306 O 0.97143 0.90893 0.72936 0.0
O307 O 0.94878 0.89309 0.68444 0.0
O308 O 0.92906 0.8281 0.70846 0.0
O309 O 0.9421 0.8388 0.75872 0.0
O310 O 0.03213 0.9144 0.79303 0.0
O311 O 0.9912 0.91442 0.75709 0.0
O312 O 0.95334 0.8482 0.78915 0.0
O313 O 0.97025 0.8762 0.82829 0.0
C314 C 0.94964 0.85784 0.81799 0.0
O315 O 0.029 0.8486 0.72112 0.0
O316 O 0.00458 0.84093 0.67412 0.0
C317 C 0.05227 0.83599 0.77949 0.0
C318 C 0.03076 0.84089 0.69131 0.0
Zn319 Zn 0.50818 0.62743 0.19217 0.0
Zn320 Zn 0.46184 0.63074 0.3115 0.0
Zn321 Zn 0.48613 0.63296 0.25085 0.0
C322 C 0.52193 0.66332 0.31148 0.0
C323 C 0.46833 0.57513 0.29395 0.0
O324 O 0.44816 0.65263 0.21765 0.0
O325 O 0.46872 0.64243 0.16949 0.0
C326 C 0.55456 0.66247 0.22554 0.0
O327 O 0.52211 0.65701 0.28133 0.0
O328 O 0.49827 0.6549 0.32971 0.0
O329 O 0.46161 0.58892 0.31912 0.0
O330 O 0.47776 0.58837 0.26804 0.0
O331 O 0.54828 0.65216 0.19816 0.0
O332 O 0.53427 0.6576 0.24932 0.0
O333 O 0.49775 0.58772 0.23974 0.0
O334 O 0.51606 0.58633 0.18945 0.0
C335 C 0.50944 0.57368 0.21558 0.0
O336 O 0.43645 0.65396 0.24945 0.0
O337 O 0.4182 0.64847 0.29967 0.0
C338 C 0.4458 0.65307 0.18668 0.0
C339 C 0.41359 0.65719 0.27121 0.0
H340 H 0.11938 0.93664 0.3046 0.0
H341 H 0.05399 0.90745 0.38211 0.0
H342 H 0.0107 0.94176 0.36519 0.0
H343 H 0.10836 0.00442 0.3122 0.0
H344 H 0.10699 0.01499 0.27042 0.0
H345 H 0.12823 0.98292 0.28178 0.0
H346 H 0.09073 0.95401 0.24253 0.0
H347 H 0.06928 0.98627 0.2309 0.0
H348 H 0.04536 0.95611 0.24561 0.0
H349 H 0.98368 0.98678 0.35152 0.0
H350 H 0.97299 0.03737 0.3391 0.0
H351 H 0.0522 0.03667 0.26723 0.0
C352 C 0.09524 0.93648 0.31692 0.0
C353 C 0.09013 0.91955 0.34479 0.0
C354 C 0.05862 0.9205 0.36094 0.0
C355 C 0.03369 0.9397 0.35125 0.0
C356 C 0.04027 0.95735 0.32485 0.0
C357 C 0.06992 0.95542 0.30728 0.0
C358 C 0.07282 0.97956 0.28296 0.0
C359 C 0.10603 0.99646 0.28714 0.0
C360 C 0.06934 0.96831 0.24845 0.0
C361 C 0.04225 0.99701 0.29216 0.0
C362 C 0.02325 0.98334 0.31574 0.0
C363 C 0.99738 0.9972 0.33214 0.0
C364 C 0.99144 0.02588 0.32498 0.0
C365 C 0.01118 0.04028 0.30162 0.0
C366 C 0.03592 0.02547 0.28413 0.0
H367 H 0.36904 0.56798 0.81981 0.0
H368 H 0.46551 0.61203 0.81112 0.0
H369 H 0.49188 0.56773 0.79243 0.0
H370 H 0.40221 0.50538 0.85342 0.0
H371 H 0.3731 0.48177 0.83341 0.0
H372 H 0.36089 0.51777 0.84201 0.0
H373 H 0.34751 0.52607 0.78161 0.0
H374 H 0.35986 0.49007 0.77282 0.0
H375 H 0.37967 0.51945 0.75179 0.0
H376 H 0.5091 0.51756 0.77925 0.0
H377 H 0.51572 0.46535 0.77517 0.0
H378 H 0.40872 0.45391 0.79371 0.0
C379 C 0.39569 0.56846 0.81391 0.0
C380 C 0.41499 0.59377 0.81675 0.0
C381 C 0.44982 0.59324 0.80849 0.0
C382 C 0.46515 0.56808 0.79796 0.0
C383 C 0.44543 0.54352 0.79582 0.0
C384 C 0.41147 0.5435 0.80365 0.0
C385 C 0.39646 0.51383 0.8017 0.0
C386 C 0.38235 0.50413 0.83459 0.0
C387 C 0.36927 0.51227 0.77541 0.0
C388 C 0.42748 0.49705 0.79237 0.0
C389 C 0.45539 0.51459 0.78857 0.0
C390 C 0.48728 0.50369 0.78159 0.0
C391 C 0.49078 0.47406 0.77894 0.0
C392 C 0.46257 0.45578 0.78313 0.0
C393 C 0.43056 0.46751 0.78975 0.0
H394 H 0.64744 0.54856 0.67297 0.0
H395 H 0.55843 0.59181 0.63762 0.0
H396 H 0.52222 0.55375 0.66138 0.0
H397 H 0.62136 0.48125 0.65308 0.0
H398 H 0.63988 0.46369 0.68742 0.0
H399 H 0.65777 0.49651 0.67263 0.0
H400 H 0.6509 0.51906 0.72913 0.0
H401 H 0.63303 0.48615 0.74415 0.0
H402 H 0.60998 0.51891 0.74831 0.0
H403 H 0.49645 0.50844 0.68535 0.0
H404 H 0.48429 0.45872 0.70286 0.0
H405 H 0.59096 0.44534 0.71953 0.0
C406 C 0.62026 0.55051 0.67113 0.0
C407 C 0.6056 0.57329 0.65403 0.0
C408 C 0.57003 0.57455 0.65092 0.0
C409 C 0.54934 0.55317 0.66449 0.0
C410 C 0.56473 0.53071 0.68089 0.0
C411 C 0.59945 0.52928 0.68411 0.0
C412 C 0.61028 0.50155 0.69938 0.0
C413 C 0.63368 0.48477 0.67677 0.0
C414 C 0.62703 0.50674 0.73219 0.0
C415 C 0.57637 0.48707 0.70332 0.0
C416 C 0.55021 0.50439 0.69334 0.0
C417 C 0.51672 0.49485 0.69351 0.0
C418 C 0.51002 0.46671 0.70347 0.0
C419 C 0.53677 0.44859 0.7126 0.0
C420 C 0.57014 0.45903 0.7129 0.0
H421 H 0.9043 0.92422 0.22256 0.0
H422 H 0.94998 0.91069 0.12898 0.0
H423 H 0.9828 0.95527 0.13456 0.0
H424 H 0.89269 0.9977 0.21211 0.0
H425 H 0.90133 0.00728 0.25324 0.0
H426 H 0.88506 0.9724 0.24419 0.0
H427 H 0.93635 0.94905 0.27302 0.0
H428 H 0.9514 0.98423 0.2826 0.0
H429 H 0.97858 0.95978 0.26163 0.0
H430 H 0.00601 0.00256 0.1472 0.0
H431 H 0.01598 0.05194 0.16464 0.0
H432 H 0.95548 0.0365 0.25027 0.0
C433 C 0.92175 0.93053 0.20365 0.0
C434 C 0.92497 0.91415 0.17542 0.0
C435 C 0.94735 0.92311 0.15074 0.0
C436 C 0.96622 0.94822 0.15382 0.0
C437 C 0.96233 0.96416 0.18173 0.0
C438 C 0.94055 0.95587 0.20618 0.0
C439 C 0.93858 0.97852 0.23202 0.0
C440 C 0.90226 0.98963 0.23558 0.0
C441 C 0.95208 0.96719 0.26423 0.0
C442 C 0.96197 0.0011 0.21784 0.0
C443 C 0.97575 0.99205 0.18905 0.0
C444 C 0.99587 0.00976 0.16994 0.0
C445 C 0.00131 0.03776 0.17999 0.0
C446 C 0.9868 0.04781 0.2089 0.0
C447 C 0.96757 0.02905 0.2285 0.0
H448 H 0.92729 0.0833 0.70994 0.0
H449 H 0.86674 0.0733 0.62369 0.0
H450 H 0.8773 0.02172 0.62462 0.0
H451 H 0.99023 0.0311 0.69051 0.0
H452 H 0.99422 0.01718 0.7308 0.0
H453 H 0.98221 0.05372 0.72457 0.0
H454 H 0.92844 0.04598 0.75863 0.0
H455 H 0.93946 0.0093 0.76548 0.0
H456 H 0.89914 0.01799 0.74823 0.0
H457 H 0.8951 0.97232 0.63326 0.0
H458 H 0.91701 0.92615 0.65056 0.0
H459 H 0.96501 0.96609 0.73269 0.0
C460 C 0.91633 0.07017 0.6913 0.0
C461 C 0.89596 0.08225 0.66685 0.0
C462 C 0.88191 0.06444 0.64292 0.0
C463 C 0.88796 0.03515 0.6431 0.0
C464 C 0.90803 0.02391 0.66745 0.0
C465 C 0.92189 0.04068 0.69127 0.0
C466 C 0.94195 0.0227 0.71494 0.0
C467 C 0.97937 0.03173 0.71521 0.0
C468 C 0.92632 0.02409 0.74883 0.0
C469 C 0.93743 0.99335 0.70035 0.0
C470 C 0.91787 0.99478 0.67292 0.0
C471 C 0.91037 0.97086 0.65477 0.0
C472 C 0.92309 0.94465 0.66491 0.0
C473 C 0.94308 0.94228 0.69314 0.0
C474 C 0.95016 0.96709 0.71109 0.0
H475 H 0.58519 0.43725 0.13932 0.0
H476 H 0.63256 0.42145 0.23154 0.0
H477 H 0.59392 0.45576 0.25715 0.0
H478 H 0.58229 0.50754 0.14557 0.0
H479 H 0.54222 0.5131 0.12605 0.0
H480 H 0.56653 0.48209 0.11685 0.0
H481 H 0.51579 0.44966 0.1326 0.0
H482 H 0.49113 0.48077 0.14174 0.0
H483 H 0.49645 0.45325 0.17171 0.0
H484 H 0.55903 0.49809 0.27022 0.0
H485 H 0.53311 0.54578 0.26885 0.0
H486 H 0.50817 0.53421 0.16828 0.0
C487 C 0.58632 0.44009 0.16515 0.0
C488 C 0.6115 0.42659 0.18356 0.0
C489 C 0.61327 0.43159 0.21709 0.0
C490 C 0.59125 0.45084 0.23186 0.0
C491 C 0.5675 0.46475 0.21278 0.0
C492 C 0.56474 0.45942 0.18013 0.0
C493 C 0.54117 0.48029 0.16398 0.0
C494 C 0.55915 0.49672 0.13653 0.0
C495 C 0.50924 0.46508 0.1518 0.0
C496 C 0.53307 0.49943 0.19208 0.0
C497 C 0.54752 0.48961 0.22028 0.0
C498 C 0.54676 0.50555 0.24853 0.0
C499 C 0.53188 0.53259 0.2476 0.0
C500 C 0.51819 0.54335 0.21859 0.0
C501 C 0.51793 0.52617 0.19089 0.0
H502 H 0.44127 0.42194 0.37396 0.0
H503 H 0.40018 0.39442 0.28255 0.0
H504 H 0.41521 0.44107 0.2583 0.0
H505 H 0.41016 0.49207 0.36976 0.0
H506 H 0.44642 0.5083 0.38853 0.0
H507 H 0.43541 0.47192 0.39775 0.0
H508 H 0.49547 0.45595 0.38081 0.0
H509 H 0.50661 0.49236 0.37151 0.0
H510 H 0.51124 0.46524 0.34132 0.0
H511 H 0.4325 0.49129 0.24468 0.0
H512 H 0.44693 0.54255 0.24374 0.0
H513 H 0.47558 0.53782 0.34432 0.0
C514 C 0.43593 0.42565 0.34872 0.0
C515 C 0.41974 0.40462 0.33002 0.0
C516 C 0.41247 0.41036 0.29726 0.0
C517 C 0.42112 0.43668 0.28326 0.0
C518 C 0.43688 0.45706 0.3024 0.0
C519 C 0.44403 0.45193 0.33447 0.0
C520 C 0.45889 0.47812 0.35031 0.0
C521 C 0.43637 0.4882 0.37823 0.0
C522 C 0.49521 0.47258 0.36165 0.0
C523 C 0.45835 0.49893 0.32232 0.0
C524 C 0.44613 0.48622 0.29475 0.0
C525 C 0.44239 0.5014 0.26604 0.0
C526 C 0.45083 0.53045 0.26568 0.0
C527 C 0.46285 0.54399 0.2938 0.0
C528 C 0.46677 0.52792 0.32239 0.0
H529 H 0.13763 0.05126 0.8013 0.0
H530 H 0.06396 0.08219 0.87002 0.0
H531 H 0.01978 0.05349 0.84373 0.0
H532 H 0.07692 0.03947 0.73084 0.0
H533 H 0.09874 0.00732 0.72006 0.0
H534 H 0.12182 0.03673 0.73727 0.0
H535 H 0.14441 0.0033 0.78221 0.0
H536 H 0.12163 0.97405 0.76504 0.0
H537 H 0.11472 0.98333 0.80659 0.0
H538 H 0.9873 0.01379 0.81912 0.0
H539 H 0.97127 0.96549 0.80114 0.0
H540 H 0.06606 0.95851 0.75003 0.0
C541 C 0.11202 0.05257 0.81035 0.0
C542 C 0.10438 0.06903 0.83778 0.0
C543 C 0.07048 0.07019 0.84873 0.0
C544 C 0.04513 0.05391 0.83389 0.0
C545 C 0.05393 0.03675 0.80791 0.0
C546 C 0.08662 0.03616 0.79609 0.0
C547 C 0.09112 0.01249 0.77187 0.0
C548 C 0.09752 0.02474 0.738 0.0
C549 C 0.11961 0.9921 0.78207 0.0
C550 C 0.05672 0.99834 0.77391 0.0
C551 C 0.03513 0.01331 0.79381 0.0
C552 C 0.00355 0.0024 0.8027 0.0
C553 C 0.9945 0.97504 0.79225 0.0
C554 C 0.01705 0.95895 0.77336 0.0
C555 C 0.0479 0.97111 0.76321 0.0
H556 H 0.16684 0.11951 0.07078 0.0
H557 H 0.16868 0.20781 0.03904 0.0
H558 H 0.14092 0.22174 0.08974 0.0
H559 H 0.08932 0.11884 0.10508 0.0
H560 H 0.09984 0.09617 0.13872 0.0
H561 H 0.12374 0.09401 0.10205 0.0
H562 H 0.17893 0.10373 0.1338 0.0
H563 H 0.15497 0.10613 0.17068 0.0
H564 H 0.18225 0.13511 0.1584 0.0
H565 H 0.10411 0.2246 0.1393 0.0
H566 H 0.06227 0.21564 0.18276 0.0
H567 H 0.09026 0.12685 0.18506 0.0
C568 C 0.16271 0.14196 0.07475 0.0
C569 C 0.1701 0.16246 0.05054 0.0
C570 C 0.16287 0.19148 0.05674 0.0
C571 C 0.1475 0.19971 0.08575 0.0
C572 C 0.14018 0.17883 0.10881 0.0
C573 C 0.14802 0.15058 0.10376 0.0
C574 C 0.13512 0.13185 0.13099 0.0
C575 C 0.11055 0.1089 0.11845 0.0
C576 C 0.16458 0.11841 0.14956 0.0
C577 C 0.11712 0.15371 0.15133 0.0
C578 C 0.12066 0.18081 0.13842 0.0
C579 C 0.10221 0.20372 0.15035 0.0
C580 C 0.07868 0.19855 0.17516 0.0
C581 C 0.07432 0.17085 0.18804 0.0
C582 C 0.09459 0.14848 0.17672 0.0
H583 H 0.37935 0.34025 0.52887 0.0
H584 H 0.36909 0.24891 0.54159 0.0
H585 H 0.37966 0.25426 0.59988 0.0
H586 H 0.44647 0.34898 0.57666 0.0
H587 H 0.43446 0.3829 0.59307 0.0
H588 H 0.41901 0.37236 0.55438 0.0
H589 H 0.35742 0.37944 0.5741 0.0
H590 H 0.37281 0.38995 0.61311 0.0
H591 H 0.3428 0.3611 0.60982 0.0
H592 H 0.40147 0.26886 0.65476 0.0
H593 H 0.4348 0.29102 0.69861 0.0
H594 H 0.42862 0.3725 0.64992 0.0
C595 C 0.37785 0.32147 0.54405 0.0
C596 C 0.37319 0.2942 0.53058 0.0
C597 C 0.37277 0.27006 0.55127 0.0
C598 C 0.3784 0.27292 0.58451 0.0
C599 C 0.38397 0.3001 0.59684 0.0
C600 C 0.38339 0.32398 0.57715 0.0
C601 C 0.39442 0.35033 0.59509 0.0
C602 C 0.42543 0.36443 0.57885 0.0
C603 C 0.36511 0.37145 0.59822 0.0
C604 C 0.40322 0.33738 0.6274 0.0
C605 C 0.39626 0.3085 0.62841 0.0
C606 C 0.40612 0.29159 0.65458 0.0
C607 C 0.42481 0.30432 0.67952 0.0
C608 C 0.43359 0.33349 0.67776 0.0
C609 C 0.42141 0.35028 0.6521 0.0
H610 H 0.65231 0.38513 0.97701 0.0
H611 H 0.68482 0.2973 0.97182 0.0
H612 H 0.65602 0.29246 0.91911 0.0
H613 H 0.5716 0.37395 0.94695 0.0
H614 H 0.5698 0.40728 0.92528 0.0
H615 H 0.59596 0.40416 0.9604 0.0
H616 H 0.648 0.42084 0.927 0.0
H617 H 0.62194 0.42389 0.89165 0.0
H618 H 0.65922 0.40204 0.89083 0.0
H619 H 0.62017 0.29715 0.8677 0.0
H620 H 0.57741 0.3097 0.8263 0.0
H621 H 0.56936 0.39406 0.86707 0.0
C622 C 0.65414 0.36505 0.96447 0.0
C623 C 0.6712 0.34171 0.97828 0.0
C624 C 0.67191 0.31549 0.9616 0.0
C625 C 0.65586 0.31262 0.93157 0.0
C626 C 0.63921 0.33618 0.91865 0.0
C627 C 0.63822 0.36184 0.93478 0.0
C628 C 0.61651 0.38333 0.91748 0.0
C629 C 0.58671 0.3927 0.93879 0.0
C630 C 0.63769 0.40904 0.90606 0.0
C631 C 0.60469 0.36567 0.88939 0.0
C632 C 0.61839 0.33866 0.88995 0.0
C633 C 0.60961 0.31834 0.86692 0.0
C634 C 0.58552 0.32564 0.8434 0.0
C635 C 0.57043 0.35287 0.8435 0.0
C636 C 0.58076 0.37315 0.86636 0.0
H637 H 0.86072 0.16685 0.48306 0.0
H638 H 0.8957 0.25439 0.48883 0.0
H639 H 0.91011 0.25359 0.43108 0.0
H640 H 0.92674 0.14328 0.43957 0.0
H641 H 0.90344 0.11802 0.41566 0.0
H642 H 0.88784 0.12794 0.45456 0.0
H643 H 0.83109 0.14313 0.42873 0.0
H644 H 0.84686 0.13347 0.38953 0.0
H645 H 0.83114 0.16887 0.39635 0.0
H646 H 0.93193 0.24034 0.3766 0.0
H647 H 0.96127 0.21515 0.33261 0.0
H648 H 0.91319 0.13627 0.36186 0.0
C649 C 0.87071 0.1861 0.47207 0.0
C650 C 0.87692 0.21071 0.49068 0.0
C651 C 0.89001 0.23541 0.47517 0.0
C652 C 0.89835 0.23515 0.44225 0.0
C653 C 0.89317 0.21013 0.42495 0.0
C654 C 0.87943 0.18609 0.43937 0.0
C655 C 0.88105 0.16068 0.41713 0.0
C656 C 0.90097 0.13607 0.43265 0.0
C657 C 0.84541 0.15098 0.40736 0.0
C658 C 0.89983 0.17367 0.38874 0.0
C659 C 0.90571 0.20245 0.39322 0.0
C660 C 0.92646 0.21809 0.37226 0.0
C661 C 0.9428 0.20372 0.34711 0.0
C662 C 0.93822 0.17409 0.34312 0.0
C663 C 0.91561 0.1592 0.3635 0.0
H664 H 0.87574 0.85504 0.99249 0.0
H665 H 0.85702 0.76472 0.98126 0.0
H666 H 0.86724 0.76942 0.92247 0.0
H667 H 0.83983 0.87826 0.91284 0.0
H668 H 0.87201 0.90532 0.90824 0.0
H669 H 0.85711 0.89546 0.94786 0.0
H670 H 0.91857 0.88461 0.96535 0.0
H671 H 0.93357 0.89444 0.92598 0.0
H672 H 0.94323 0.85978 0.94229 0.0
H673 H 0.88963 0.78305 0.86655 0.0
H674 H 0.92146 0.80408 0.82064 0.0
H675 H 0.92287 0.88552 0.86882 0.0
C676 C 0.87294 0.83639 0.97749 0.0
C677 C 0.86558 0.80954 0.99127 0.0
C678 C 0.86228 0.78555 0.97102 0.0
C679 C 0.86806 0.78805 0.93765 0.0
C680 C 0.87641 0.81479 0.92491 0.0
C681 C 0.87832 0.8386 0.9443 0.0
C682 C 0.89087 0.86437 0.92576 0.0
C683 C 0.8633 0.8872 0.92354 0.0
C684 C 0.92349 0.87648 0.94073 0.0
C685 C 0.89751 0.85114 0.89328 0.0
C686 C 0.88852 0.82265 0.89288 0.0
C687 C 0.89583 0.80552 0.86635 0.0
C688 C 0.91365 0.81765 0.84017 0.0
C689 C 0.92408 0.84649 0.84088 0.0
C690 C 0.91477 0.86349 0.86735 0.0
H691 H 0.66834 0.65109 0.43325 0.0
H692 H 0.63413 0.73119 0.47279 0.0
H693 H 0.60043 0.73975 0.42376 0.0
H694 H 0.66926 0.67468 0.34536 0.0
H695 H 0.65438 0.64017 0.33274 0.0
H696 H 0.68121 0.64324 0.3676 0.0
H697 H 0.63642 0.6164 0.40212 0.0
H698 H 0.60971 0.61318 0.3675 0.0
H699 H 0.59378 0.62965 0.40354 0.0
H700 H 0.56241 0.73505 0.3764 0.0
H701 H 0.52244 0.7167 0.33574 0.0
H702 H 0.58297 0.64103 0.32502 0.0
C703 C 0.65492 0.67102 0.43106 0.0
C704 C 0.65411 0.69057 0.45683 0.0
C705 C 0.63508 0.71585 0.45346 0.0
C706 C 0.61614 0.72104 0.42552 0.0
C707 C 0.61678 0.70093 0.40094 0.0
C708 C 0.63596 0.67651 0.40333 0.0
C709 C 0.62895 0.65649 0.37562 0.0
C710 C 0.66033 0.65348 0.35405 0.0
C711 C 0.61646 0.62723 0.38794 0.0
C712 C 0.60129 0.67259 0.35834 0.0
C713 C 0.59518 0.69852 0.37288 0.0
C714 C 0.56771 0.71532 0.36409 0.0
C715 C 0.54521 0.70485 0.34091 0.0
C716 C 0.55051 0.67802 0.32664 0.0
C717 C 0.57947 0.66222 0.33458 0.0
H718 H 0.35315 0.65112 0.02519 0.0
H719 H 0.35607 0.7433 0.02798 0.0
H720 H 0.36656 0.74133 0.08662 0.0
H721 H 0.31801 0.63893 0.10959 0.0
H722 H 0.34465 0.60827 0.11492 0.0
H723 H 0.32859 0.61706 0.07552 0.0
H724 H 0.38968 0.61805 0.05269 0.0
H725 H 0.40567 0.60901 0.09171 0.0
H726 H 0.4209 0.64061 0.07137 0.0
H727 H 0.3886 0.72913 0.14213 0.0
H728 H 0.42282 0.70802 0.18609 0.0
H729 H 0.40577 0.62423 0.14665 0.0
C730 C 0.35508 0.67091 0.03831 0.0
C731 C 0.35375 0.69733 0.02203 0.0
C732 C 0.35649 0.72278 0.04001 0.0
C733 C 0.36242 0.72185 0.07338 0.0
C734 C 0.36501 0.69533 0.08852 0.0
C735 C 0.36107 0.6703 0.07147 0.0
C736 C 0.36987 0.6446 0.09178 0.0
C737 C 0.3384 0.62613 0.09834 0.0
C738 C 0.39822 0.62709 0.07596 0.0
C739 C 0.38175 0.65908 0.12218 0.0
C740 C 0.37776 0.6883 0.12044 0.0
C741 C 0.39095 0.70624 0.14414 0.0
C742 C 0.41015 0.69414 0.16918 0.0
C743 C 0.41622 0.66454 0.16982 0.0
C744 C 0.4005 0.64684 0.14701 0.0
H745 H 0.131 0.79944 0.53605 0.0
H746 H 0.20394 0.86439 0.56331 0.0
H747 H 0.17983 0.865 0.61786 0.0
H748 H 0.064 0.83236 0.57072 0.0
H749 H 0.04216 0.80038 0.58333 0.0
H750 H 0.07042 0.79946 0.54948 0.0
H751 H 0.10427 0.75897 0.57695 0.0
H752 H 0.07605 0.75991 0.61109 0.0
H753 H 0.12091 0.76413 0.61687 0.0
H754 H 0.14229 0.86441 0.6669 0.0
H755 H 0.09234 0.86561 0.70295 0.0
H756 H 0.04163 0.80424 0.64214 0.0
C757 C 0.14238 0.81353 0.55349 0.0
C758 C 0.16969 0.8317 0.545 0.0
C759 C 0.18367 0.84962 0.56902 0.0
C760 C 0.17002 0.85023 0.60026 0.0
C761 C 0.1423 0.83285 0.60733 0.0
C762 C 0.12863 0.81484 0.58453 0.0
C763 C 0.09587 0.80159 0.59634 0.0
C764 C 0.0664 0.80891 0.57363 0.0
C765 C 0.09951 0.76923 0.60057 0.0
C766 C 0.09228 0.81614 0.62858 0.0
C767 C 0.11984 0.83335 0.63507 0.0
C768 C 0.12087 0.85062 0.66233 0.0
C769 C 0.09247 0.85112 0.68274 0.0
C770 C 0.06332 0.83491 0.67532 0.0
C771 C 0.06379 0.81656 0.64852 0.0
H772 H 0.22227 0.25087 0.35503 0.0
H773 H 0.28476 0.21962 0.27694 0.0
H774 H 0.23457 0.19687 0.25263 0.0
H775 H 0.17572 0.18841 0.36533 0.0
H776 H 0.13674 0.20602 0.37521 0.0
H777 H 0.17647 0.22318 0.38348 0.0
H778 H 0.158 0.26706 0.34979 0.0
H779 H 0.11818 0.24992 0.34129 0.0
H780 H 0.14471 0.26231 0.30868 0.0
H781 H 0.17754 0.17384 0.23939 0.0
H782 H 0.12088 0.1508 0.24103 0.0
H783 H 0.09795 0.19565 0.32913 0.0
C784 C 0.22555 0.23936 0.33275 0.0
C785 C 0.25759 0.23714 0.31796 0.0
C786 C 0.26044 0.22209 0.28855 0.0
C787 C 0.23205 0.209 0.27457 0.0
C788 C 0.20096 0.21119 0.29021 0.0
C789 C 0.19768 0.22601 0.31871 0.0
C790 C 0.16241 0.2233 0.3324 0.0
C791 C 0.16289 0.20939 0.36608 0.0
C792 C 0.14479 0.25238 0.33307 0.0
C793 C 0.14655 0.20389 0.30775 0.0
C794 C 0.1688 0.19754 0.28314 0.0
C795 C 0.15983 0.17897 0.25836 0.0
C796 C 0.12759 0.16615 0.25928 0.0
C797 C 0.10516 0.17173 0.285 0.0
C798 C 0.11467 0.19116 0.30911 0.0
H799 H 0.34205 0.20442 0.87362 0.0
H800 H 0.26614 0.20712 0.79856 0.0
H801 H 0.30137 0.24191 0.76808 0.0
H802 H 0.36272 0.27656 0.87268 0.0
H803 H 0.40705 0.27104 0.88012 0.0
H804 H 0.37656 0.24531 0.89424 0.0
H805 H 0.40809 0.2056 0.86333 0.0
H806 H 0.43861 0.23132 0.8489 0.0
H807 H 0.41562 0.20963 0.8207 0.0
H808 H 0.34519 0.27889 0.74726 0.0
H809 H 0.39037 0.31564 0.74096 0.0
H810 H 0.43649 0.2859 0.82931 0.0
C811 C 0.33301 0.21177 0.85045 0.0
C812 C 0.30144 0.2028 0.83839 0.0
C813 C 0.29019 0.21379 0.80841 0.0
C814 C 0.31018 0.23335 0.79078 0.0
C815 C 0.34137 0.24156 0.80341 0.0
C816 C 0.35256 0.23102 0.83264 0.0
C817 C 0.38596 0.24403 0.84216 0.0
C818 C 0.38286 0.2602 0.87417 0.0
C819 C 0.41371 0.22128 0.84386 0.0
C820 C 0.39164 0.26409 0.81413 0.0
C821 C 0.36604 0.2623 0.79166 0.0
C822 C 0.36554 0.28014 0.76455 0.0
C823 C 0.39137 0.30076 0.76094 0.0
C824 C 0.41693 0.30329 0.78448 0.0
C825 C 0.4173 0.28426 0.81084 0.0
H826 H 0.71373 0.23089 0.68369 0.0
H827 H 0.78133 0.28428 0.73954 0.0
H828 H 0.73225 0.30606 0.76624 0.0
H829 H 0.65637 0.28421 0.66656 0.0
H830 H 0.61958 0.26143 0.6682 0.0
H831 H 0.65999 0.24677 0.65794 0.0
H832 H 0.65373 0.21006 0.70453 0.0
H833 H 0.61335 0.22493 0.71516 0.0
H834 H 0.64625 0.22238 0.74494 0.0
H835 H 0.67545 0.32616 0.78232 0.0
H836 H 0.61718 0.34512 0.78217 0.0
H837 H 0.58735 0.27974 0.71467 0.0
C838 C 0.71838 0.247 0.70169 0.0
C839 C 0.75163 0.25562 0.70954 0.0
C840 C 0.75627 0.27674 0.73346 0.0
C841 C 0.72847 0.28933 0.74879 0.0
C842 C 0.69607 0.28059 0.74008 0.0
C843 C 0.69097 0.25995 0.71697 0.0
C844 C 0.65385 0.25647 0.70926 0.0
C845 C 0.64707 0.26261 0.67338 0.0
C846 C 0.64105 0.22669 0.71907 0.0
C847 C 0.63894 0.27918 0.73065 0.0
C848 C 0.66351 0.29244 0.7489 0.0
C849 C 0.65592 0.31556 0.76861 0.0
C850 C 0.6227 0.32605 0.76864 0.0
C851 C 0.59774 0.31356 0.74885 0.0
C852 C 0.60586 0.28934 0.73048 0.0
H853 H 0.77295 0.23353 0.1713 0.0
H854 H 0.79402 0.30425 0.23486 0.0
H855 H 0.83259 0.274 0.26646 0.0
H856 H 0.78217 0.17487 0.23454 0.0
H857 H 0.80183 0.15184 0.20552 0.0
H858 H 0.7701 0.17685 0.19276 0.0
H859 H 0.81194 0.19812 0.15076 0.0
H860 H 0.8436 0.1733 0.16332 0.0
H861 H 0.85259 0.21096 0.16398 0.0
H862 H 0.87786 0.2401 0.28303 0.0
H863 H 0.92457 0.20544 0.28297 0.0
H864 H 0.87228 0.15569 0.2111 0.0
C865 C 0.78493 0.24232 0.19247 0.0
C866 C 0.7804 0.2711 0.20077 0.0
C867 C 0.7967 0.28206 0.22841 0.0
C868 C 0.81866 0.26503 0.24652 0.0
C869 C 0.82356 0.23695 0.23702 0.0
C870 C 0.8067 0.22554 0.21089 0.0
C871 C 0.81936 0.19607 0.20314 0.0
C872 C 0.79171 0.17358 0.20938 0.0
C873 C 0.83267 0.19456 0.16826 0.0
C874 C 0.84759 0.19351 0.22743 0.0
C875 C 0.84921 0.21698 0.2473 0.0
C876 C 0.87608 0.22108 0.26853 0.0
C877 C 0.9024 0.20115 0.26868 0.0
C878 C 0.90154 0.17753 0.24781 0.0
C879 C 0.8732 0.17327 0.22785 0.0
H880 H 0.7676 0.75493 0.6675 0.0
H881 H 0.8059 0.67561 0.70631 0.0
H882 H 0.8422 0.70242 0.74373 0.0
H883 H 0.84081 0.78919 0.66303 0.0
H884 H 0.82589 0.82398 0.67417 0.0
H885 H 0.79725 0.79877 0.65679 0.0
H886 H 0.75758 0.80366 0.70625 0.0
H887 H 0.78654 0.82884 0.72397 0.0
H888 H 0.77386 0.79742 0.74615 0.0
H889 H 0.88327 0.73686 0.76691 0.0
H890 H 0.92581 0.77537 0.77147 0.0
H891 H 0.85915 0.83272 0.72099 0.0
C892 C 0.78252 0.74321 0.68484 0.0
C893 C 0.78394 0.71322 0.68393 0.0
C894 C 0.80464 0.69864 0.70633 0.0
C895 C 0.82504 0.71369 0.72799 0.0
C896 C 0.82408 0.74335 0.72744 0.0
C897 C 0.80298 0.75796 0.70665 0.0
C898 C 0.81019 0.78962 0.70725 0.0
C899 C 0.81909 0.80102 0.67333 0.0
C900 C 0.78025 0.80584 0.72178 0.0
C901 C 0.84037 0.7903 0.72956 0.0
C902 C 0.84743 0.76353 0.74182 0.0
C903 C 0.87728 0.75812 0.75865 0.0
C904 C 0.90122 0.78018 0.7615 0.0
C905 C 0.89499 0.80716 0.74768 0.0
C906 C 0.86361 0.81255 0.73299 0.0
H907 H 0.73129 0.71904 0.16262 0.0
H908 H 0.72652 0.78717 0.23248 0.0
H909 H 0.67323 0.76663 0.25432 0.0
H910 H 0.64419 0.7154 0.14601 0.0
H911 H 0.6436 0.67724 0.14168 0.0
H912 H 0.68163 0.69702 0.13299 0.0
H913 H 0.71441 0.66575 0.17389 0.0
H914 H 0.67637 0.64596 0.18283 0.0
H915 H 0.69948 0.6629 0.21484 0.0
H916 H 0.61871 0.73803 0.26752 0.0
H917 H 0.56794 0.70661 0.26773 0.0
H918 H 0.61133 0.65775 0.18983 0.0
C919 C 0.71941 0.72948 0.18285 0.0
C920 C 0.73328 0.75459 0.196 0.0
C921 C 0.71628 0.76797 0.22189 0.0
C922 C 0.68616 0.75633 0.23461 0.0
C923 C 0.67339 0.73133 0.22118 0.0
C924 C 0.68957 0.71822 0.19575 0.0
C925 C 0.67043 0.69226 0.18451 0.0
C926 C 0.6593 0.69571 0.14922 0.0
C927 C 0.69143 0.66512 0.18932 0.0
C928 C 0.64062 0.69287 0.20725 0.0
C929 C 0.64266 0.71531 0.22853 0.0
C930 C 0.61708 0.72029 0.25108 0.0
C931 C 0.58847 0.70222 0.25128 0.0
C932 C 0.58579 0.67967 0.22896 0.0
C933 C 0.61258 0.67484 0.2072 0.0
H934 H 0.31027 0.79231 0.30373 0.0
H935 H 0.23006 0.73433 0.33353 0.0
H936 H 0.25743 0.69571 0.30377 0.0
H937 H 0.33082 0.75719 0.22365 0.0
H938 H 0.3754 0.76316 0.22946 0.0
H939 H 0.34523 0.78823 0.24507 0.0
H940 H 0.37065 0.78253 0.30221 0.0
H941 H 0.40096 0.75789 0.28669 0.0
H942 H 0.37383 0.74741 0.31971 0.0
H943 H 0.29832 0.6616 0.28216 0.0
H944 H 0.35087 0.63465 0.27376 0.0
H945 H 0.40598 0.71332 0.25815 0.0
C946 C 0.29806 0.77163 0.30351 0.0
C947 C 0.26783 0.76654 0.32097 0.0
C948 C 0.25275 0.73912 0.31988 0.0
C949 C 0.26816 0.71695 0.30295 0.0
C950 C 0.29857 0.72246 0.287 0.0
C951 C 0.31335 0.74919 0.28704 0.0
C952 C 0.34861 0.74852 0.27269 0.0
C953 C 0.35008 0.76527 0.24082 0.0
C954 C 0.37504 0.75972 0.29677 0.0
C955 C 0.35236 0.71687 0.26689 0.0
C956 C 0.32271 0.70237 0.27424 0.0
C957 C 0.32128 0.67271 0.27528 0.0
C958 C 0.35117 0.65755 0.27037 0.0
C959 C 0.38194 0.67204 0.26442 0.0
C960 C 0.38231 0.70191 0.26123 0.0
H961 H 0.20921 0.75721 0.85783 0.0
H962 H 0.23656 0.72663 0.76308 0.0
H963 H 0.18514 0.74895 0.74033 0.0
H964 H 0.11795 0.74928 0.85015 0.0
H965 H 0.10968 0.78151 0.87207 0.0
H966 H 0.14698 0.76109 0.88071 0.0
H967 H 0.18421 0.80583 0.8701 0.0
H968 H 0.14707 0.82632 0.86129 0.0
H969 H 0.18081 0.82441 0.83214 0.0
H970 H 0.12988 0.77549 0.72839 0.0
H971 H 0.07879 0.8056 0.72824 0.0
H972 H 0.0918 0.82103 0.83024 0.0
C973 C 0.20401 0.75471 0.83241 0.0
C974 C 0.22652 0.73992 0.81225 0.0
C975 C 0.21945 0.73782 0.77891 0.0
C976 C 0.19031 0.75034 0.76584 0.0
C977 C 0.16875 0.76506 0.78642 0.0
C978 C 0.17544 0.76735 0.81898 0.0
C979 C 0.14968 0.78568 0.83575 0.0
C980 C 0.1299 0.76835 0.86117 0.0
C981 C 0.16645 0.81213 0.85068 0.0
C982 C 0.12754 0.79362 0.80757 0.0
C983 C 0.13851 0.78131 0.77934 0.0
C984 C 0.12141 0.78553 0.75035 0.0
C985 C 0.09264 0.80301 0.7503 0.0
C986 C 0.08176 0.81658 0.77882 0.0
C987 C 0.09946 0.81136 0.80777 0.0
loop_
_geom_bond_atom_site_label_1
_geom_bond_atom_site_label_2
_geom_bond_distance
_geom_bond_site_symmetry_2
_ccdc_geom_bond_type
P0 O11 1.490 . S
P0 C14 1.812 . S
P0 C20 1.803 . S
P0 C26 1.819 . S
H1 C15 0.941 . S
H2 C16 0.939 . S
H3 C18 0.940 . S
H4 C19 0.940 . S
H5 C21 0.939 . S
H6 C22 0.942 . S
H7 C24 0.940 . S
H8 C25 0.939 . S
H9 C27 0.941 . S
H10 C31 0.939 . S
O11 P0 1.490 . S
H12 C28 0.939 . S
H13 C30 0.940 . S
C14 P0 1.812 . S
C14 C15 1.389 . S
C14 C19 1.391 . S
C15 H1 0.941 . S
C15 C14 1.389 . S
C15 C16 1.397 . S
C16 H2 0.939 . S
C16 C15 1.397 . S
C16 C17 1.378 . S
C17 C16 1.378 . S
C17 C18 1.378 . S
C18 H3 0.940 . S
C18 C17 1.378 . S
C18 C19 1.396 . S
C19 H4 0.940 . S
C19 C14 1.391 . S
C19 C18 1.396 . S
C20 P0 1.803 . S
C20 C21 1.378 . S
C20 C25 1.400 . S
C21 H5 0.939 . S
C21 C20 1.378 . S
C21 C22 1.361 . S
C22 H6 0.942 . S
C22 C21 1.361 . S
C22 C23 1.369 . S
C23 C22 1.369 . S
C23 C24 1.404 . S
C24 H7 0.940 . S
C24 C23 1.404 . S
C24 C25 1.389 . S
C25 H8 0.939 . S
C25 C20 1.400 . S
C25 C24 1.389 . S
C26 P0 1.819 . S
C26 C27 1.391 . S
C26 C31 1.391 . S
C27 H9 0.941 . S
C27 C26 1.391 . S
C27 C28 1.396 . S
C28 H12 0.939 . S
C28 C27 1.396 . S
C28 C29 1.397 . S
C29 C28 1.397 . S
C29 C30 1.385 . S
C30 H13 0.940 . S
C30 C29 1.385 . S
C30 C31 1.388 . S
C31 H10 0.939 . S
C31 C26 1.391 . S
C31 C30 1.388 . S
P32 O43 1.490 . S
P32 C46 1.812 . S
P32 C52 1.803 . S
P32 C58 1.819 . S
H33 C47 0.941 . S
H34 C48 0.939 . S
H35 C50 0.940 . S
H36 C51 0.940 . S
H37 C53 0.939 . S
H38 C54 0.942 . S
H39 C56 0.940 . S
H40 C57 0.939 . S
H41 C59 0.941 . S
H42 C63 0.939 . S
O43 P32 1.490 . S
H44 C60 0.956 . S
H45 C62 0.940 . S
C46 P32 1.812 . S
C46 C47 1.389 . S
C46 C51 1.391 . S
C47 H33 0.941 . S
C47 C46 1.389 . S
C47 C48 1.397 . S
C48 H34 0.939 . S
C48 C47 1.397 . S
C48 C49 1.378 . S
C49 C48 1.378 . S
C49 C50 1.378 . S
C50 H35 0.940 . S
C50 C49 1.378 . S
C50 C51 1.396 . S
C51 H36 0.940 . S
C51 C46 1.391 . S
C51 C50 1.396 . S
C52 P32 1.803 . S
C52 C53 1.378 . S
C52 C57 1.400 . S
C53 H37 0.939 . S
C53 C52 1.378 . S
C53 C54 1.361 . S
C54 H38 0.942 . S
C54 C53 1.361 . S
C54 C55 1.369 . S
C55 C54 1.369 . S
C55 C56 1.404 . S
C56 H39 0.940 . S
C56 C55 1.404 . S
C56 C57 1.389 . S
C57 H40 0.939 . S
C57 C52 1.400 . S
C57 C56 1.389 . S
C58 P32 1.819 . S
C58 C59 1.391 . S
C58 C63 1.391 . S
C59 H41 0.941 . S
C59 C58 1.391 . S
C59 C60 1.396 . S
C60 H44 0.956 . S
C60 C59 1.396 . S
C60 C61 1.397 . S
C61 C60 1.397 . S
C61 C62 1.385 . S
C62 H45 0.940 . S
C62 C61 1.385 . S
C62 C63 1.388 . S
C63 H42 0.939 . S
C63 C58 1.391 . S
C63 C62 1.388 . S
P64 O75 1.490 . S
P64 C78 1.812 . S
P64 C84 1.803 . S
P64 C90 1.819 . S
H65 C79 0.941 . S
H66 C80 0.939 . S
H67 C82 0.940 . S
H68 C83 0.940 . S
H69 C85 0.939 . S
H70 C86 0.942 . S
H71 C88 0.940 . S
H72 C89 0.939 . S
H73 C91 0.941 . S
H74 C95 0.939 . S
O75 P64 1.490 . S
H76 C92 0.939 . S
H77 C94 0.940 . S
C78 P64 1.812 . S
C78 C79 1.389 . S
C78 C83 1.391 . S
C79 H65 0.941 . S
C79 C78 1.389 . S
C79 C80 1.397 . S
C80 H66 0.939 . S
C80 C79 1.397 . S
C80 C81 1.378 . S
C81 C80 1.378 . S
C81 C82 1.378 . S
C82 H67 0.940 . S
C82 C81 1.378 . S
C82 C83 1.396 . S
C83 H68 0.940 . S
C83 C78 1.391 . S
C83 C82 1.396 . S
C84 P64 1.803 . S
C84 C85 1.378 . S
C84 C89 1.400 . S
C85 H69 0.939 . S
C85 C84 1.378 . S
C85 C86 1.361 . S
C86 H70 0.942 . S
C86 C85 1.361 . S
C86 C87 1.369 . S
C87 C86 1.369 . S
C87 C88 1.404 . S
C88 H71 0.940 . S
C88 C87 1.404 . S
C88 C89 1.389 . S
C89 H72 0.939 . S
C89 C84 1.400 . S
C89 C88 1.389 . S
C90 P64 1.819 . S
C90 C91 1.391 . S
C90 C95 1.391 . S
C91 H73 0.941 . S
C91 C90 1.391 . S
C91 C92 1.396 . S
C92 H76 0.939 . S
C92 C91 1.396 . S
C92 C93 1.397 . S
C93 C92 1.397 . S
C93 C94 1.385 . S
C94 H77 0.940 . S
C94 C93 1.385 . S
C94 C95 1.388 . S
C95 H74 0.939 . S
C95 C90 1.391 . S
C95 C94 1.388 . S
P96 O107 1.490 . S
P96 C110 1.812 . S
P96 C116 1.803 . S
P96 C122 1.819 . S
H97 C111 0.941 . S
H98 C112 0.939 . S
H99 C114 0.940 . S
H100 C115 0.940 . S
H101 C117 0.939 . S
H102 C118 0.942 . S
H103 C120 0.940 . S
H104 C121 0.939 . S
H105 C123 0.941 . S
H106 C127 0.939 . S
O107 P96 1.490 . S
H108 C124 0.939 . S
H109 C126 0.940 . S
C110 P96 1.812 . S
C110 C111 1.389 . S
C110 C115 1.391 . S
C111 H97 0.941 . S
C111 C110 1.389 . S
C111 C112 1.397 . S
C112 H98 0.939 . S
C112 C111 1.397 . S
C112 C113 1.378 . S
C113 C112 1.378 . S
C113 C114 1.378 . S
C114 H99 0.940 . S
C114 C113 1.378 . S
C114 C115 1.396 . S
C115 H100 0.940 . S
C115 C110 1.391 . S
C115 C114 1.396 . S
C116 P96 1.803 . S
C116 C117 1.378 . S
C116 C121 1.400 . S
C117 H101 0.939 . S
C117 C116 1.378 . S
C117 C118 1.361 . S
C118 H102 0.942 . S
C118 C117 1.361 . S
C118 C119 1.369 . S
C119 C118 1.369 . S
C119 C120 1.404 . S
C120 H103 0.940 . S
C120 C119 1.404 . S
C120 C121 1.389 . S
C121 H104 0.939 . S
C121 C116 1.400 . S
C121 C120 1.389 . S
C122 P96 1.819 . S
C122 C123 1.391 . S
C122 C127 1.391 . S
C123 H105 0.941 . S
C123 C122 1.391 . S
C123 C124 1.396 . S
C124 H108 0.939 . S
C124 C123 1.396 . S
C124 C125 1.397 . S
C125 C124 1.397 . S
C125 C126 1.385 . S
C126 H109 0.940 . S
C126 C125 1.385 . S
C126 C127 1.388 . S
C127 H106 0.939 . S
C127 C122 1.391 . S
C127 C126 1.388 . S
P128 O139 1.490 . S
P128 C142 1.812 . S
P128 C148 1.803 . S
P128 C154 1.819 . S
H129 C143 0.941 . S
H130 C144 0.939 . S
H131 C146 0.940 . S
H132 C147 0.940 . S
H133 C149 0.939 . S
H134 C150 0.942 . S
H135 C152 0.940 . S
H136 C153 0.939 . S
H137 C155 0.941 . S
H138 C159 0.939 . S
O139 P128 1.490 . S
H140 C156 0.939 . S
H141 C158 0.940 . S
C142 P128 1.812 . S
C142 C143 1.389 . S
C142 C147 1.391 . S
C143 H129 0.941 . S
C143 C142 1.389 . S
C143 C144 1.397 . S
C144 H130 0.939 . S
C144 C143 1.397 . S
C144 C145 1.378 . S
C145 C144 1.378 . S
C145 C146 1.378 . S
C146 H131 0.940 . S
C146 C145 1.378 . S
C146 C147 1.396 . S
C147 H132 0.940 . S
C147 C142 1.391 . S
C147 C146 1.396 . S
C148 P128 1.803 . S
C148 C149 1.378 . S
C148 C153 1.400 . S
C149 H133 0.939 . S
C149 C148 1.378 . S
C149 C150 1.361 . S
C150 H134 0.942 . S
C150 C149 1.361 . S
C150 C151 1.369 . S
C151 C150 1.369 . S
C151 C152 1.404 . S
C152 H135 0.940 . S
C152 C151 1.404 . S
C152 C153 1.389 . S
C153 H136 0.939 . S
C153 C148 1.400 . S
C153 C152 1.389 . S
C154 P128 1.819 . S
C154 C155 1.391 . S
C154 C159 1.391 . S
C155 H137 0.941 . S
C155 C154 1.391 . S
C155 C156 1.396 . S
C156 H140 0.939 . S
C156 C155 1.396 . S
C156 C157 1.397 . S
C157 C156 1.397 . S
C157 C158 1.385 . S
C158 H141 0.940 . S
C158 C157 1.385 . S
C158 C159 1.388 . S
C159 H138 0.939 . S
C159 C154 1.391 . S
C159 C158 1.388 . S
P160 O171 1.490 . S
P160 C174 1.812 . S
P160 C180 1.803 . S
P160 C186 1.819 . S
H161 C175 0.941 . S
H162 C176 0.939 . S
H163 C178 0.940 . S
H164 C179 0.940 . S
H165 C181 0.939 . S
H166 C182 0.942 . S
H167 C184 0.940 . S
H168 C185 0.939 . S
H169 C187 0.941 . S
H170 C191 0.939 . S
O171 P160 1.490 . S
H172 C188 0.939 . S
H173 C190 0.940 . S
C174 P160 1.812 . S
C174 C175 1.389 . S
C174 C179 1.391 . S
C175 H161 0.941 . S
C175 C174 1.389 . S
C175 C176 1.397 . S
C176 H162 0.939 . S
C176 C175 1.397 . S
C176 C177 1.378 . S
C177 C176 1.378 . S
C177 C178 1.378 . S
C178 H163 0.940 . S
C178 C177 1.378 . S
C178 C179 1.396 . S
C179 H164 0.940 . S
C179 C174 1.391 . S
C179 C178 1.396 . S
C180 P160 1.803 . S
C180 C181 1.378 . S
C180 C185 1.400 . S
C181 H165 0.939 . S
C181 C180 1.378 . S
C181 C182 1.361 . S
C182 H166 0.942 . S
C182 C181 1.361 . S
C182 C183 1.369 . S
C183 C182 1.369 . S
C183 C184 1.404 . S
C184 H167 0.940 . S
C184 C183 1.404 . S
C184 C185 1.389 . S
C185 H168 0.939 . S
C185 C180 1.400 . S
C185 C184 1.389 . S
C186 P160 1.819 . S
C186 C187 1.391 . S
C186 C191 1.391 . S
C187 H169 0.941 . S
C187 C186 1.391 . S
C187 C188 1.396 . S
C188 H172 0.939 . S
C188 C187 1.396 . S
C188 C189 1.397 . S
C189 C188 1.397 . S
C189 C190 1.385 . S
C190 H173 0.940 . S
C190 C189 1.385 . S
C190 C191 1.388 . S
C191 H170 0.939 . S
C191 C186 1.391 . S
C191 C190 1.388 . S
P192 O203 1.490 . S
P192 C206 1.812 . S
P192 C212 1.803 . S
P192 C218 1.819 . S
H193 C207 0.941 . S
H194 C208 0.939 . S
H195 C210 0.940 . S
H196 C211 0.940 . S
H197 C213 0.939 . S
H198 C214 0.942 . S
H199 C216 0.940 . S
H200 C217 0.939 . S
H201 C219 0.941 . S
H202 C223 0.939 . S
O203 P192 1.490 . S
H204 C220 0.939 . S
H205 C222 0.940 . S
C206 P192 1.812 . S
C206 C207 1.389 . S
C206 C211 1.391 . S
C207 H193 0.941 . S
C207 C206 1.389 . S
C207 C208 1.397 . S
C208 H194 0.939 . S
C208 C207 1.397 . S
C208 C209 1.378 . S
C209 C208 1.378 . S
C209 C210 1.378 . S
C210 H195 0.940 . S
C210 C209 1.378 . S
C210 C211 1.396 . S
C211 H196 0.940 . S
C211 C206 1.391 . S
C211 C210 1.396 . S
C212 P192 1.803 . S
C212 C213 1.378 . S
C212 C217 1.400 . S
C213 H197 0.939 . S
C213 C212 1.378 . S
C213 C214 1.361 . S
C214 H198 0.942 . S
C214 C213 1.361 . S
C214 C215 1.369 . S
C215 C214 1.369 . S
C215 C216 1.404 . S
C216 H199 0.940 . S
C216 C215 1.404 . S
C216 C217 1.389 . S
C217 H200 0.939 . S
C217 C212 1.400 . S
C217 C216 1.389 . S
C218 P192 1.819 . S
C218 C219 1.391 . S
C218 C223 1.391 . S
C219 H201 0.941 . S
C219 C218 1.391 . S
C219 C220 1.396 . S
C220 H204 0.939 . S
C220 C219 1.396 . S
C220 C221 1.397 . S
C221 C220 1.397 . S
C221 C222 1.385 . S
C222 H205 0.940 . S
C222 C221 1.385 . S
C222 C223 1.388 . S
C223 H202 0.939 . S
C223 C218 1.391 . S
C223 C222 1.388 . S
P224 O235 1.490 . S
P224 C238 1.812 . S
P224 C244 1.803 . S
P224 C250 1.819 . S
H225 C239 0.941 . S
H226 C240 0.939 . S
H227 C242 0.940 . S
H228 C243 0.940 . S
H229 C245 0.939 . S
H230 C246 0.942 . S
H231 C248 0.940 . S
H232 C249 0.939 . S
H233 C251 0.941 . S
H234 C255 0.939 . S
O235 P224 1.490 . S
H236 C252 0.939 . S
H237 C254 0.940 . S
C238 P224 1.812 . S
C238 C239 1.389 . S
C238 C243 1.391 . S
C239 H225 0.941 . S
C239 C238 1.389 . S
C239 C240 1.397 . S
C240 H226 0.939 . S
C240 C239 1.397 . S
C240 C241 1.378 . S
C241 C240 1.378 . S
C241 C242 1.378 . S
C242 H227 0.940 . S
C242 C241 1.378 . S
C242 C243 1.396 . S
C243 H228 0.940 . S
C243 C238 1.391 . S
C243 C242 1.396 . S
C244 P224 1.803 . S
C244 C245 1.378 . S
C244 C249 1.400 . S
C245 H229 0.939 . S
C245 C244 1.378 . S
C245 C246 1.361 . S
C246 H230 0.942 . S
C246 C245 1.361 . S
C246 C247 1.369 . S
C247 C246 1.369 . S
C247 C248 1.404 . S
C248 H231 0.940 . S
C248 C247 1.404 . S
C248 C249 1.389 . S
C249 H232 0.939 . S
C249 C244 1.400 . S
C249 C248 1.389 . S
C250 P224 1.819 . S
C250 C251 1.391 . S
C250 C255 1.391 . S
C251 H233 0.941 . S
C251 C250 1.391 . S
C251 C252 1.396 . S
C252 H236 0.939 . S
C252 C251 1.396 . S
C252 C253 1.397 . S
C253 C252 1.397 . S
C253 C254 1.385 . S
C254 H237 0.940 . S
C254 C253 1.385 . S
C254 C255 1.388 . S
C255 H234 0.939 . S
C255 C250 1.391 . S
C255 C254 1.388 . S
Zn256 O262 1.920 . S
Zn256 O268 1.898 . S
Zn256 O271 1.905 . S
Zn257 O265 1.905 1_655 S
Zn257 O266 1.898 . S
Zn257 O274 1.920 . S
Zn258 O261 2.080 1_455 S
Zn258 O264 2.114 . S
Zn258 O267 2.120 1_455 S
Zn258 O269 2.120 . S
Zn258 O270 2.114 . S
Zn258 O273 2.080 1_455 S
C259 O264 1.166 . S
C259 O265 1.182 . S
C260 O266 1.167 . S
C260 O267 1.299 . S
O261 Zn258 2.080 1_655 S
O261 C275 1.305 . S
O262 Zn256 1.920 . S
O262 C275 1.234 1_455 S
C263 O268 1.167 . S
C263 O269 1.299 . S
O264 Zn258 2.114 . S
O264 C259 1.166 . S
O265 Zn257 1.905 1_455 S
O265 C259 1.182 . S
O266 Zn257 1.898 . S
O266 C260 1.167 . S
O267 Zn258 2.120 1_655 S
O267 C260 1.299 . S
O268 Zn256 1.898 . S
O268 C263 1.167 . S
O269 Zn258 2.120 . S
O269 C263 1.299 . S
O270 Zn258 2.114 . S
O270 C272 1.166 . S
O271 Zn256 1.905 . S
O271 C272 1.182 . S
C272 O270 1.166 . S
C272 O271 1.182 . S
O273 Zn258 2.080 1_655 S
O273 C276 1.305 . S
O274 Zn257 1.920 . S
O274 C276 1.234 . S
C275 O261 1.305 . S
C275 O262 1.234 1_655 S
C276 O273 1.305 . S
C276 O274 1.234 . S
Zn277 O283 1.920 . S
Zn277 O289 1.898 . S
Zn277 O292 1.905 . S
Zn278 O286 1.905 . S
Zn278 O287 1.898 . S
Zn278 O295 1.920 . S
Zn279 O282 2.080 . S
Zn279 O285 2.114 . S
Zn279 O288 2.120 . S
Zn279 O290 2.120 . S
Zn279 O291 2.114 . S
Zn279 O294 2.080 . S
C280 O285 1.166 . S
C280 O286 1.182 . S
C281 O287 1.167 . S
C281 O288 1.299 . S
O282 Zn279 2.080 . S
O282 C296 1.305 . S
O283 Zn277 1.920 . S
O283 C296 1.234 . S
C284 O289 1.167 . S
C284 O290 1.299 . S
O285 Zn279 2.114 . S
O285 C280 1.166 . S
O286 Zn278 1.905 . S
O286 C280 1.182 . S
O287 Zn278 1.898 . S
O287 C281 1.167 . S
O288 Zn279 2.120 . S
O288 C281 1.299 . S
O289 Zn277 1.898 . S
O289 C284 1.167 . S
O290 Zn279 2.120 . S
O290 C284 1.299 . S
O291 Zn279 2.114 . S
O291 C293 1.166 . S
O292 Zn277 1.905 . S
O292 C293 1.182 . S
C293 O291 1.166 . S
C293 O292 1.182 . S
O294 Zn279 2.080 . S
O294 C297 1.305 . S
O295 Zn278 1.920 . S
O295 C297 1.234 . S
C296 O282 1.305 . S
C296 O283 1.234 . S
C297 O294 1.305 . S
C297 O295 1.234 . S
Zn298 O304 1.920 . S
Zn298 O310 1.898 . S
Zn298 O313 1.905 1_455 S
Zn299 O307 1.905 . S
Zn299 O308 1.898 . S
Zn299 O316 1.920 1_655 S
Zn300 O303 2.095 . S
Zn300 O306 2.098 1_455 S
Zn300 O309 2.105 1_455 S
Zn300 O311 2.137 . S
Zn300 O312 2.102 1_455 S
Zn300 O315 2.093 . S
C301 O306 1.166 . S
C301 O307 1.182 . S
C302 O308 1.167 . S
C302 O309 1.299 . S
O303 Zn300 2.095 . S
O303 C317 1.305 . S
O304 Zn298 1.920 . S
O304 C317 1.234 . S
C305 O310 1.167 . S
C305 O311 1.299 . S
O306 Zn300 2.098 1_655 S
O306 C301 1.166 . S
O307 Zn299 1.905 . S
O307 C301 1.182 . S
O308 Zn299 1.898 . S
O308 C302 1.167 . S
O309 Zn300 2.105 1_655 S
O309 C302 1.299 . S
O310 Zn298 1.898 . S
O310 C305 1.167 . S
O311 Zn300 2.137 . S
O311 C305 1.299 . S
O312 Zn300 2.102 1_655 S
O312 C314 1.166 . S
O313 Zn298 1.905 1_655 S
O313 C314 1.182 . S
C314 O312 1.166 . S
C314 O313 1.182 . S
O315 Zn300 2.093 . S
O315 C318 1.305 . S
O316 Zn299 1.920 1_455 S
O316 C318 1.234 . S
C317 O303 1.305 . S
C317 O304 1.234 . S
C318 O315 1.305 . S
C318 O316 1.234 . S
Zn319 O325 1.920 . S
Zn319 O331 1.898 . S
Zn319 O334 1.905 . S
Zn320 O328 1.905 . S
Zn320 O329 1.898 . S
Zn320 O337 1.920 . S
Zn321 O324 2.080 . S
Zn321 O327 2.114 . S
Zn321 O330 2.120 . S
Zn321 O332 2.120 . S
Zn321 O333 2.114 . S
Zn321 O336 2.080 . S
C322 O327 1.166 . S
C322 O328 1.182 . S
C323 O329 1.167 . S
C323 O330 1.299 . S
O324 Zn321 2.080 . S
O324 C338 1.305 . S
O325 Zn319 1.920 . S
O325 C338 1.234 . S
C326 O331 1.167 . S
C326 O332 1.299 . S
O327 Zn321 2.114 . S
O327 C322 1.166 . S
O328 Zn320 1.905 . S
O328 C322 1.182 . S
O329 Zn320 1.898 . S
O329 C323 1.167 . S
O330 Zn321 2.120 . S
O330 C323 1.299 . S
O331 Zn319 1.898 . S
O331 C326 1.167 . S
O332 Zn321 2.120 . S
O332 C326 1.299 . S
O333 Zn321 2.114 . S
O333 C335 1.166 . S
O334 Zn319 1.905 . S
O334 C335 1.182 . S
C335 O333 1.166 . S
C335 O334 1.182 . S
O336 Zn321 2.080 . S
O336 C339 1.305 . S
O337 Zn320 1.920 . S
O337 C339 1.234 . S
C338 O324 1.305 . S
C338 O325 1.234 . S
C339 O336 1.305 . S
C339 O337 1.234 . S
H340 C352 0.930 . S
H341 C354 0.930 . S
H342 C355 0.930 . S
H343 C359 0.959 . S
H344 C359 0.959 . S
H345 C359 0.961 1_565 S
H346 C360 0.960 . S
H347 C360 0.971 . S
H348 C360 0.959 . S
H349 C363 0.929 . S
H350 C364 0.931 . S
H351 C366 0.930 . S
C352 H340 0.930 . S
C352 C353 1.399 . S
C352 C357 1.399 . S
C353 C352 1.399 . S
C353 C354 1.376 . S
C354 H341 0.930 . S
C354 C353 1.376 . S
C354 C355 1.388 . S
C355 H342 0.930 . S
C355 C354 1.388 . S
C355 C356 1.390 . S
C356 C355 1.390 . S
C356 C357 1.394 . S
C356 C362 1.465 1_565 S
C357 C352 1.399 . S
C357 C356 1.394 . S
C357 C358 1.503 1_565 S
C358 C357 1.503 1_545 S
C358 C359 1.509 . S
C358 C360 1.552 1_545 S
C358 C361 1.541 . S
C359 H343 0.959 . S
C359 H344 0.959 . S
C359 H345 0.961 1_545 S
C359 C358 1.509 . S
C360 H346 0.960 . S
C360 H347 0.971 . S
C360 H348 0.959 . S
C360 C358 1.552 1_565 S
C361 C358 1.541 . S
C361 C362 1.396 . S
C361 C366 1.390 . S
C362 C356 1.465 1_545 S
C362 C361 1.396 . S
C362 C363 1.399 . S
C363 H349 0.929 . S
C363 C362 1.399 . S
C363 C364 1.385 . S
C364 H350 0.931 . S
C364 C363 1.385 . S
C364 C365 1.389 . S
C365 C364 1.389 . S
C365 C366 1.387 . S
C366 H351 0.930 . S
C366 C361 1.390 . S
C366 C365 1.387 . S
H367 C379 0.930 . S
H368 C381 0.930 . S
H369 C382 0.930 . S
H370 C386 0.959 . S
H371 C386 0.959 . S
H372 C386 0.961 . S
H373 C387 0.960 . S
H374 C387 0.961 . S
H375 C387 0.959 . S
H376 C390 0.929 . S
H377 C391 0.931 . S
H378 C393 0.930 . S
C379 H367 0.930 . S
C379 C380 1.399 . S
C379 C384 1.399 . S
C380 C379 1.399 . S
C380 C381 1.376 . S
C381 H368 0.930 . S
C381 C380 1.376 . S
C381 C382 1.388 . S
C382 H369 0.930 . S
C382 C381 1.388 . S
C382 C383 1.390 . S
C383 C382 1.390 . S
C383 C384 1.394 . S
C383 C389 1.465 . S
C384 C379 1.399 . S
C384 C383 1.394 . S
C384 C385 1.516 . S
C385 C384 1.516 . S
C385 C386 1.502 . S
C385 C387 1.561 . S
C385 C388 1.526 . S
C386 H370 0.959 . S
C386 H371 0.959 . S
C386 H372 0.961 . S
C386 C385 1.502 . S
C387 H373 0.960 . S
C387 H374 0.961 . S
C387 H375 0.959 . S
C387 C385 1.561 . S
C388 C385 1.526 . S
C388 C389 1.396 . S
C388 C393 1.390 . S
C389 C383 1.465 . S
C389 C388 1.396 . S
C389 C390 1.399 . S
C390 H376 0.929 . S
C390 C389 1.399 . S
C390 C391 1.385 . S
C391 H377 0.931 . S
C391 C390 1.385 . S
C391 C392 1.389 . S
C392 C391 1.389 . S
C392 C393 1.387 . S
C393 H378 0.930 . S
C393 C388 1.390 . S
C393 C392 1.387 . S
H394 C406 0.930 . S
H395 C408 0.930 . S
H396 C409 0.930 . S
H397 C413 0.959 . S
H398 C413 0.959 . S
H399 C413 0.961 . S
H400 C414 0.960 . S
H401 C414 0.961 . S
H402 C414 0.959 . S
H403 C417 0.929 . S
H404 C418 0.931 . S
H405 C420 0.930 . S
C406 H394 0.930 . S
C406 C407 1.399 . S
C406 C411 1.399 . S
C407 C406 1.399 . S
C407 C408 1.376 . S
C408 H395 0.930 . S
C408 C407 1.376 . S
C408 C409 1.388 . S
C409 H396 0.930 . S
C409 C408 1.388 . S
C409 C410 1.390 . S
C410 C409 1.390 . S
C410 C411 1.394 . S
C410 C416 1.465 . S
C411 C406 1.399 . S
C411 C410 1.394 . S
C411 C412 1.516 . S
C412 C411 1.516 . S
C412 C413 1.502 . S
C412 C414 1.561 . S
C412 C415 1.526 . S
C413 H397 0.959 . S
C413 H398 0.959 . S
C413 H399 0.961 . S
C413 C412 1.502 . S
C414 H400 0.960 . S
C414 H401 0.961 . S
C414 H402 0.959 . S
C414 C412 1.561 . S
C415 C412 1.526 . S
C415 C416 1.396 . S
C415 C420 1.390 . S
C416 C410 1.465 . S
C416 C415 1.396 . S
C416 C417 1.399 . S
C417 H403 0.929 . S
C417 C416 1.399 . S
C417 C418 1.385 . S
C418 H404 0.931 . S
C418 C417 1.385 . S
C418 C419 1.389 . S
C419 C418 1.389 . S
C419 C420 1.387 . S
C420 H405 0.930 . S
C420 C415 1.390 . S
C420 C419 1.387 . S
H421 C433 0.930 . S
H422 C435 0.930 . S
H423 C436 0.930 . S
H424 C440 0.959 . S
H425 C440 0.959 . S
H426 C440 0.961 1_565 S
H427 C441 0.960 . S
H428 C441 0.961 . S
H429 C441 0.959 . S
H430 C444 0.929 . S
H431 C445 0.931 . S
H432 C447 0.930 . S
C433 H421 0.930 . S
C433 C434 1.399 . S
C433 C438 1.399 . S
C434 C433 1.399 . S
C434 C435 1.376 . S
C435 H422 0.930 . S
C435 C434 1.376 . S
C435 C436 1.388 . S
C436 H423 0.930 . S
C436 C435 1.388 . S
C436 C437 1.390 . S
C437 C436 1.390 . S
C437 C438 1.394 . S
C437 C443 1.465 1_565 S
C438 C433 1.399 . S
C438 C437 1.394 . S
C438 C439 1.516 . S
C439 C438 1.516 . S
C439 C440 1.502 1_565 S
C439 C441 1.561 . S
C439 C442 1.526 1_565 S
C440 H424 0.959 . S
C440 H425 0.959 . S
C440 H426 0.961 1_545 S
C440 C439 1.502 1_545 S
C441 H427 0.960 . S
C441 H428 0.961 . S
C441 H429 0.959 . S
C441 C439 1.561 . S
C442 C439 1.526 1_545 S
C442 C443 1.396 . S
C442 C447 1.390 . S
C443 C437 1.465 1_545 S
C443 C442 1.396 . S
C443 C444 1.399 . S
C444 H430 0.929 . S
C444 C443 1.399 . S
C444 C445 1.385 . S
C445 H431 0.931 . S
C445 C444 1.385 . S
C445 C446 1.389 . S
C446 C445 1.389 . S
C446 C447 1.387 . S
C447 H432 0.930 . S
C447 C442 1.390 . S
C447 C446 1.387 . S
H448 C460 0.930 . S
H449 C462 0.930 . S
H450 C463 0.910 1_565 S
H451 C467 0.959 . S
H452 C467 0.959 . S
H453 C467 0.961 . S
H454 C468 0.960 . S
H455 C468 0.961 1_565 S
H456 C468 0.959 1_565 S
H457 C471 0.929 . S
H458 C472 0.931 . S
H459 C474 0.930 . S
C460 H448 0.930 . S
C460 C461 1.399 . S
C460 C465 1.399 . S
C461 C460 1.399 . S
C461 C462 1.376 . S
C462 H449 0.930 . S
C462 C461 1.376 . S
C462 C463 1.388 . S
C463 H450 0.910 1_545 S
C463 C462 1.388 . S
C463 C464 1.390 . S
C464 C463 1.390 . S
C464 C465 1.394 . S
C464 C470 1.465 1_545 S
C465 C460 1.399 . S
C465 C464 1.394 . S
C465 C466 1.516 . S
C466 C465 1.516 . S
C466 C467 1.502 . S
C466 C468 1.561 . S
C466 C469 1.526 1_545 S
C467 H451 0.959 . S
C467 H452 0.959 . S
C467 H453 0.961 . S
C467 C466 1.502 . S
C468 H454 0.960 . S
C468 H455 0.961 1_545 S
C468 H456 0.959 1_545 S
C468 C466 1.561 . S
C469 C466 1.526 1_565 S
C469 C470 1.396 . S
C469 C474 1.390 . S
C470 C464 1.465 1_565 S
C470 C469 1.396 . S
C470 C471 1.399 . S
C471 H457 0.929 . S
C471 C470 1.399 . S
C471 C472 1.385 . S
C472 H458 0.931 . S
C472 C471 1.385 . S
C472 C473 1.389 . S
C473 C472 1.389 . S
C473 C474 1.387 . S
C474 H459 0.930 . S
C474 C469 1.390 . S
C474 C473 1.387 . S
H475 C487 0.930 . S
H476 C489 0.930 . S
H477 C490 0.930 . S
H478 C494 0.959 . S
H479 C494 0.959 . S
H480 C494 0.961 . S
H481 C495 0.960 . S
H482 C495 0.961 . S
H483 C495 0.959 . S
H484 C498 0.929 . S
H485 C499 0.931 . S
H486 C501 0.930 . S
C487 H475 0.930 . S
C487 C488 1.399 . S
C487 C492 1.399 . S
C488 C487 1.399 . S
C488 C489 1.376 . S
C489 H476 0.930 . S
C489 C488 1.376 . S
C489 C490 1.388 . S
C490 H477 0.930 . S
C490 C489 1.388 . S
C490 C491 1.390 . S
C491 C490 1.390 . S
C491 C492 1.394 . S
C491 C497 1.465 . S
C492 C487 1.399 . S
C492 C491 1.394 . S
C492 C493 1.516 . S
C493 C492 1.516 . S
C493 C494 1.502 . S
C493 C495 1.561 . S
C493 C496 1.526 . S
C494 H478 0.959 . S
C494 H479 0.959 . S
C494 H480 0.961 . S
C494 C493 1.502 . S
C495 H481 0.960 . S
C495 H482 0.961 . S
C495 H483 0.959 . S
C495 C493 1.561 . S
C496 C493 1.526 . S
C496 C497 1.396 . S
C496 C501 1.390 . S
C497 C491 1.465 . S
C497 C496 1.396 . S
C497 C498 1.399 . S
C498 H484 0.929 . S
C498 C497 1.399 . S
C498 C499 1.385 . S
C499 H485 0.931 . S
C499 C498 1.385 . S
C499 C500 1.389 . S
C500 C499 1.389 . S
C500 C501 1.387 . S
C501 H486 0.930 . S
C501 C496 1.390 . S
C501 C500 1.387 . S
H502 C514 0.930 . S
H503 C516 0.930 . S
H504 C517 0.930 . S
H505 C521 0.959 . S
H506 C521 0.959 . S
H507 C521 0.961 . S
H508 C522 0.960 . S
H509 C522 0.961 . S
H510 C522 0.959 . S
H511 C525 0.929 . S
H512 C526 0.931 . S
H513 C528 0.930 . S
C514 H502 0.930 . S
C514 C515 1.399 . S
C514 C519 1.399 . S
C515 C514 1.399 . S
C515 C516 1.376 . S
C516 H503 0.930 . S
C516 C515 1.376 . S
C516 C517 1.388 . S
C517 H504 0.930 . S
C517 C516 1.388 . S
C517 C518 1.390 . S
C518 C517 1.390 . S
C518 C519 1.394 . S
C518 C524 1.465 . S
C519 C514 1.399 . S
C519 C518 1.394 . S
C519 C520 1.516 . S
C520 C519 1.516 . S
C520 C521 1.502 . S
C520 C522 1.561 . S
C520 C523 1.526 . S
C521 H505 0.959 . S
C521 H506 0.959 . S
C521 H507 0.961 . S
C521 C520 1.502 . S
C522 H508 0.960 . S
C522 H509 0.961 . S
C522 H510 0.959 . S
C522 C520 1.561 . S
C523 C520 1.526 . S
C523 C524 1.396 . S
C523 C528 1.390 . S
C524 C518 1.465 . S
C524 C523 1.396 . S
C524 C525 1.399 . S
C525 H511 0.929 . S
C525 C524 1.399 . S
C525 C526 1.385 . S
C526 H512 0.931 . S
C526 C525 1.385 . S
C526 C527 1.389 . S
C527 C526 1.389 . S
C527 C528 1.387 . S
C528 H513 0.930 . S
C528 C523 1.390 . S
C528 C527 1.387 . S
H529 C541 0.930 . S
H530 C543 0.930 . S
H531 C544 0.930 . S
H532 C548 0.959 1_545 S
H533 C548 0.959 . S
H534 C548 0.961 1_545 S
H535 C549 0.960 . S
H536 C549 0.961 . S
H537 C549 0.959 . S
H538 C552 0.929 . S
H539 C553 0.931 . S
H540 C555 0.930 . S
C541 H529 0.930 . S
C541 C542 1.399 . S
C541 C546 1.399 . S
C542 C541 1.399 . S
C542 C543 1.376 . S
C543 H530 0.930 . S
C543 C542 1.376 . S
C543 C544 1.388 . S
C544 H531 0.930 . S
C544 C543 1.388 . S
C544 C545 1.390 . S
C545 C544 1.390 . S
C545 C546 1.394 . S
C545 C551 1.465 1_545 S
C546 C541 1.399 . S
C546 C545 1.394 . S
C546 C547 1.516 1_545 S
C547 C546 1.516 1_565 S
C547 C548 1.502 . S
C547 C549 1.561 . S
C547 C550 1.526 . S
C548 H532 0.959 1_565 S
C548 H533 0.959 . S
C548 H534 0.961 1_565 S
C548 C547 1.502 . S
C549 H535 0.960 . S
C549 H536 0.961 . S
C549 H537 0.959 . S
C549 C547 1.561 . S
C550 C547 1.526 . S
C550 C551 1.396 . S
C550 C555 1.390 . S
C551 C545 1.465 1_565 S
C551 C550 1.396 . S
C551 C552 1.399 . S
C552 H538 0.929 . S
C552 C551 1.399 . S
C552 C553 1.385 . S
C553 H539 0.931 . S
C553 C552 1.385 . S
C553 C554 1.389 . S
C554 C553 1.389 . S
C554 C555 1.387 . S
C555 H540 0.930 . S
C555 C550 1.390 . S
C555 C554 1.387 . S
H556 C568 0.930 . S
H557 C570 0.930 . S
H558 C571 0.930 . S
H559 C575 0.959 . S
H560 C575 0.959 . S
H561 C575 0.961 . S
H562 C576 0.960 . S
H563 C576 0.961 . S
H564 C576 0.959 . S
H565 C579 0.929 . S
H566 C580 0.931 . S
H567 C582 0.930 . S
C568 H556 0.930 . S
C568 C569 1.399 . S
C568 C573 1.399 . S
C569 C568 1.399 . S
C569 C570 1.376 . S
C570 H557 0.930 . S
C570 C569 1.376 . S
C570 C571 1.388 . S
C571 H558 0.930 . S
C571 C570 1.388 . S
C571 C572 1.390 . S
C572 C571 1.390 . S
C572 C573 1.394 . S
C572 C578 1.465 . S
C573 C568 1.399 . S
C573 C572 1.394 . S
C573 C574 1.516 . S
C574 C573 1.516 . S
C574 C575 1.502 . S
C574 C576 1.561 . S
C574 C577 1.526 . S
C575 H559 0.959 . S
C575 H560 0.959 . S
C575 H561 0.961 . S
C575 C574 1.502 . S
C576 H562 0.960 . S
C576 H563 0.961 . S
C576 H564 0.959 . S
C576 C574 1.561 . S
C577 C574 1.526 . S
C577 C578 1.396 . S
C577 C582 1.390 . S
C578 C572 1.465 . S
C578 C577 1.396 . S
C578 C579 1.399 . S
C579 H565 0.929 . S
C579 C578 1.399 . S
C579 C580 1.385 . S
C580 H566 0.931 . S
C580 C579 1.385 . S
C580 C581 1.389 . S
C581 C580 1.389 . S
C581 C582 1.387 . S
C582 H567 0.930 . S
C582 C577 1.390 . S
C582 C581 1.387 . S
H583 C595 0.930 . S
H584 C597 0.930 . S
H585 C598 0.930 . S
H586 C602 0.959 . S
H587 C602 0.959 . S
H588 C602 0.961 . S
H589 C603 0.960 . S
H590 C603 0.961 . S
H591 C603 0.959 . S
H592 C606 0.929 . S
H593 C607 0.931 . S
H594 C609 0.930 . S
C595 H583 0.930 . S
C595 C596 1.399 . S
C595 C600 1.399 . S
C596 C595 1.399 . S
C596 C597 1.376 . S
C597 H584 0.930 . S
C597 C596 1.376 . S
C597 C598 1.388 . S
C598 H585 0.930 . S
C598 C597 1.388 . S
C598 C599 1.390 . S
C599 C598 1.390 . S
C599 C600 1.394 . S
C599 C605 1.465 . S
C600 C595 1.399 . S
C600 C599 1.394 . S
C600 C601 1.516 . S
C601 C600 1.516 . S
C601 C602 1.502 . S
C601 C603 1.561 . S
C601 C604 1.526 . S
C602 H586 0.959 . S
C602 H587 0.959 . S
C602 H588 0.961 . S
C602 C601 1.502 . S
C603 H589 0.960 . S
C603 H590 0.961 . S
C603 H591 0.959 . S
C603 C601 1.561 . S
C604 C601 1.526 . S
C604 C605 1.396 . S
C604 C609 1.390 . S
C605 C599 1.465 . S
C605 C604 1.396 . S
C605 C606 1.399 . S
C606 H592 0.929 . S
C606 C605 1.399 . S
C606 C607 1.385 . S
C607 H593 0.931 . S
C607 C606 1.385 . S
C607 C608 1.389 . S
C608 C607 1.389 . S
C608 C609 1.387 . S
C609 H594 0.930 . S
C609 C604 1.390 . S
C609 C608 1.387 . S
H610 C622 0.930 . S
H611 C624 0.930 . S
H612 C625 0.930 . S
H613 C629 0.959 . S
H614 C629 0.959 . S
H615 C629 0.961 . S
H616 C630 0.960 . S
H617 C630 0.961 . S
H618 C630 0.959 . S
H619 C633 0.929 . S
H620 C634 0.931 . S
H621 C636 0.930 . S
C622 H610 0.930 . S
C622 C623 1.399 . S
C622 C627 1.399 . S
C623 C622 1.399 . S
C623 C624 1.376 . S
C624 H611 0.930 . S
C624 C623 1.376 . S
C624 C625 1.388 . S
C625 H612 0.930 . S
C625 C624 1.388 . S
C625 C626 1.390 . S
C626 C625 1.390 . S
C626 C627 1.394 . S
C626 C632 1.465 . S
C627 C622 1.399 . S
C627 C626 1.394 . S
C627 C628 1.516 . S
C628 C627 1.516 . S
C628 C629 1.502 . S
C628 C630 1.561 . S
C628 C631 1.526 . S
C629 H613 0.959 . S
C629 H614 0.959 . S
C629 H615 0.961 . S
C629 C628 1.502 . S
C630 H616 0.960 . S
C630 H617 0.961 . S
C630 H618 0.959 . S
C630 C628 1.561 . S
C631 C628 1.526 . S
C631 C632 1.396 . S
C631 C636 1.390 . S
C632 C626 1.465 . S
C632 C631 1.396 . S
C632 C633 1.399 . S
C633 H619 0.929 . S
C633 C632 1.399 . S
C633 C634 1.385 . S
C634 H620 0.931 . S
C634 C633 1.385 . S
C634 C635 1.389 . S
C635 C634 1.389 . S
C635 C636 1.387 . S
C636 H621 0.930 . S
C636 C631 1.390 . S
C636 C635 1.387 . S
H637 C649 0.930 . S
H638 C651 0.930 . S
H639 C652 0.930 . S
H640 C656 0.959 . S
H641 C656 0.959 . S
H642 C656 0.961 . S
H643 C657 0.960 . S
H644 C657 0.961 . S
H645 C657 0.959 . S
H646 C660 0.929 . S
H647 C661 0.931 . S
H648 C663 0.930 . S
C649 H637 0.930 . S
C649 C650 1.399 . S
C649 C654 1.399 . S
C650 C649 1.399 . S
C650 C651 1.376 . S
C651 H638 0.930 . S
C651 C650 1.376 . S
C651 C652 1.388 . S
C652 H639 0.930 . S
C652 C651 1.388 . S
C652 C653 1.390 . S
C653 C652 1.390 . S
C653 C654 1.394 . S
C653 C659 1.465 . S
C654 C649 1.399 . S
C654 C653 1.394 . S
C654 C655 1.516 . S
C655 C654 1.516 . S
C655 C656 1.502 . S
C655 C657 1.561 . S
C655 C658 1.526 . S
C656 H640 0.959 . S
C656 H641 0.959 . S
C656 H642 0.961 . S
C656 C655 1.502 . S
C657 H643 0.960 . S
C657 H644 0.961 . S
C657 H645 0.959 . S
C657 C655 1.561 . S
C658 C655 1.526 . S
C658 C659 1.396 . S
C658 C663 1.390 . S
C659 C653 1.465 . S
C659 C658 1.396 . S
C659 C660 1.399 . S
C660 H646 0.929 . S
C660 C659 1.399 . S
C660 C661 1.385 . S
C661 H647 0.931 . S
C661 C660 1.385 . S
C661 C662 1.389 . S
C662 C661 1.389 . S
C662 C663 1.387 . S
C663 H648 0.930 . S
C663 C658 1.390 . S
C663 C662 1.387 . S
H664 C676 0.930 . S
H665 C678 0.930 . S
H666 C679 0.930 . S
H667 C683 0.959 . S
H668 C683 0.959 . S
H669 C683 0.961 . S
H670 C684 0.960 . S
H671 C684 0.961 . S
H672 C684 0.959 . S
H673 C687 0.929 . S
H674 C688 0.931 . S
H675 C690 0.930 . S
C676 H664 0.930 . S
C676 C677 1.399 . S
C676 C681 1.399 . S
C677 C676 1.399 . S
C677 C678 1.376 . S
C678 H665 0.930 . S
C678 C677 1.376 . S
C678 C679 1.388 . S
C679 H666 0.930 . S
C679 C678 1.388 . S
C679 C680 1.390 . S
C680 C679 1.390 . S
C680 C681 1.394 . S
C680 C686 1.465 . S
C681 C676 1.399 . S
C681 C680 1.394 . S
C681 C682 1.516 . S
C682 C681 1.516 . S
C682 C683 1.502 . S
C682 C684 1.561 . S
C682 C685 1.526 . S
C683 H667 0.959 . S
C683 H668 0.959 . S
C683 H669 0.961 . S
C683 C682 1.502 . S
C684 H670 0.960 . S
C684 H671 0.961 . S
C684 H672 0.959 . S
C684 C682 1.561 . S
C685 C682 1.526 . S
C685 C686 1.396 . S
C685 C690 1.390 . S
C686 C680 1.465 . S
C686 C685 1.396 . S
C686 C687 1.399 . S
C687 H673 0.929 . S
C687 C686 1.399 . S
C687 C688 1.385 . S
C688 H674 0.931 . S
C688 C687 1.385 . S
C688 C689 1.389 . S
C689 C688 1.389 . S
C689 C690 1.387 . S
C690 H675 0.930 . S
C690 C685 1.390 . S
C690 C689 1.387 . S
H691 C703 0.930 . S
H692 C705 0.930 . S
H693 C706 0.930 . S
H694 C710 0.959 . S
H695 C710 0.959 . S
H696 C710 0.961 . S
H697 C711 0.960 . S
H698 C711 0.961 . S
H699 C711 0.959 . S
H700 C714 0.929 . S
H701 C715 0.931 . S
H702 C717 0.930 . S
C703 H691 0.930 . S
C703 C704 1.399 . S
C703 C708 1.399 . S
C704 C703 1.399 . S
C704 C705 1.376 . S
C705 H692 0.930 . S
C705 C704 1.376 . S
C705 C706 1.388 . S
C706 H693 0.930 . S
C706 C705 1.388 . S
C706 C707 1.390 . S
C707 C706 1.390 . S
C707 C708 1.394 . S
C707 C713 1.465 . S
C708 C703 1.399 . S
C708 C707 1.394 . S
C708 C709 1.516 . S
C709 C708 1.516 . S
C709 C710 1.502 . S
C709 C711 1.561 . S
C709 C712 1.526 . S
C710 H694 0.959 . S
C710 H695 0.959 . S
C710 H696 0.961 . S
C710 C709 1.502 . S
C711 H697 0.960 . S
C711 H698 0.961 . S
C711 H699 0.959 . S
C711 C709 1.561 . S
C712 C709 1.526 . S
C712 C713 1.396 . S
C712 C717 1.390 . S
C713 C707 1.465 . S
C713 C712 1.396 . S
C713 C714 1.399 . S
C714 H700 0.929 . S
C714 C713 1.399 . S
C714 C715 1.385 . S
C715 H701 0.931 . S
C715 C714 1.385 . S
C715 C716 1.389 . S
C716 C715 1.389 . S
C716 C717 1.387 . S
C717 H702 0.930 . S
C717 C712 1.390 . S
C717 C716 1.387 . S
H718 C730 0.930 . S
H719 C732 0.930 . S
H720 C733 0.930 . S
H721 C737 0.959 . S
H722 C737 0.959 . S
H723 C737 0.961 . S
H724 C738 0.960 . S
H725 C738 0.961 . S
H726 C738 0.959 . S
H727 C741 0.929 . S
H728 C742 0.931 . S
H729 C744 0.930 . S
C730 H718 0.930 . S
C730 C731 1.399 . S
C730 C735 1.399 . S
C731 C730 1.399 . S
C731 C732 1.376 . S
C732 H719 0.930 . S
C732 C731 1.376 . S
C732 C733 1.388 . S
C733 H720 0.930 . S
C733 C732 1.388 . S
C733 C734 1.390 . S
C734 C733 1.390 . S
C734 C735 1.394 . S
C734 C740 1.465 . S
C735 C730 1.399 . S
C735 C734 1.394 . S
C735 C736 1.516 . S
C736 C735 1.516 . S
C736 C737 1.502 . S
C736 C738 1.561 . S
C736 C739 1.526 . S
C737 H721 0.959 . S
C737 H722 0.959 . S
C737 H723 0.961 . S
C737 C736 1.502 . S
C738 H724 0.960 . S
C738 H725 0.961 . S
C738 H726 0.959 . S
C738 C736 1.561 . S
C739 C736 1.526 . S
C739 C740 1.396 . S
C739 C744 1.390 . S
C740 C734 1.465 . S
C740 C739 1.396 . S
C740 C741 1.399 . S
C741 H727 0.929 . S
C741 C740 1.399 . S
C741 C742 1.385 . S
C742 H728 0.931 . S
C742 C741 1.385 . S
C742 C743 1.389 . S
C743 C742 1.389 . S
C743 C744 1.387 . S
C744 H729 0.930 . S
C744 C739 1.390 . S
C744 C743 1.387 . S
H745 C757 0.930 . S
H746 C759 0.930 . S
H747 C760 0.930 . S
H748 C764 0.959 . S
H749 C764 0.959 . S
H750 C764 0.961 . S
H751 C765 0.960 . S
H752 C765 0.961 . S
H753 C765 0.959 . S
H754 C768 0.929 . S
H755 C769 0.931 . S
H756 C771 0.930 . S
C757 H745 0.930 . S
C757 C758 1.399 . S
C757 C762 1.399 . S
C758 C757 1.399 . S
C758 C759 1.376 . S
C759 H746 0.930 . S
C759 C758 1.376 . S
C759 C760 1.388 . S
C760 H747 0.930 . S
C760 C759 1.388 . S
C760 C761 1.390 . S
C761 C760 1.390 . S
C761 C762 1.394 . S
C761 C767 1.465 . S
C762 C757 1.399 . S
C762 C761 1.394 . S
C762 C763 1.516 . S
C763 C762 1.516 . S
C763 C764 1.502 . S
C763 C765 1.561 . S
C763 C766 1.526 . S
C764 H748 0.959 . S
C764 H749 0.959 . S
C764 H750 0.961 . S
C764 C763 1.502 . S
C765 H751 0.960 . S
C765 H752 0.961 . S
C765 H753 0.959 . S
C765 C763 1.561 . S
C766 C763 1.526 . S
C766 C767 1.396 . S
C766 C771 1.390 . S
C767 C761 1.465 . S
C767 C766 1.396 . S
C767 C768 1.399 . S
C768 H754 0.929 . S
C768 C767 1.399 . S
C768 C769 1.385 . S
C769 H755 0.931 . S
C769 C768 1.385 . S
C769 C770 1.389 . S
C770 C769 1.389 . S
C770 C771 1.387 . S
C771 H756 0.930 . S
C771 C766 1.390 . S
C771 C770 1.387 . S
H772 C784 0.930 . S
H773 C786 0.930 . S
H774 C787 0.930 . S
H775 C791 0.959 . S
H776 C791 0.959 . S
H777 C791 0.961 . S
H778 C792 0.960 . S
H779 C792 0.961 . S
H780 C792 0.959 . S
H781 C795 0.929 . S
H782 C796 0.931 . S
H783 C798 0.930 . S
C784 H772 0.930 . S
C784 C785 1.399 . S
C784 C789 1.399 . S
C785 C784 1.399 . S
C785 C786 1.376 . S
C786 H773 0.930 . S
C786 C785 1.376 . S
C786 C787 1.388 . S
C787 H774 0.930 . S
C787 C786 1.388 . S
C787 C788 1.390 . S
C788 C787 1.390 . S
C788 C789 1.394 . S
C788 C794 1.465 . S
C789 C784 1.399 . S
C789 C788 1.394 . S
C789 C790 1.516 . S
C790 C789 1.516 . S
C790 C791 1.502 . S
C790 C792 1.561 . S
C790 C793 1.526 . S
C791 H775 0.959 . S
C791 H776 0.959 . S
C791 H777 0.961 . S
C791 C790 1.502 . S
C792 H778 0.960 . S
C792 H779 0.961 . S
C792 H780 0.959 . S
C792 C790 1.561 . S
C793 C790 1.526 . S
C793 C794 1.396 . S
C793 C798 1.390 . S
C794 C788 1.465 . S
C794 C793 1.396 . S
C794 C795 1.399 . S
C795 H781 0.929 . S
C795 C794 1.399 . S
C795 C796 1.385 . S
C796 H782 0.931 . S
C796 C795 1.385 . S
C796 C797 1.389 . S
C797 C796 1.389 . S
C797 C798 1.387 . S
C798 H783 0.930 . S
C798 C793 1.390 . S
C798 C797 1.387 . S
H799 C811 0.930 . S
H800 C813 0.930 . S
H801 C814 0.930 . S
H802 C818 0.959 . S
H803 C818 0.959 . S
H804 C818 0.961 . S
H805 C819 0.960 . S
H806 C819 0.961 . S
H807 C819 0.959 . S
H808 C822 0.929 . S
H809 C823 0.931 . S
H810 C825 0.930 . S
C811 H799 0.930 . S
C811 C812 1.399 . S
C811 C816 1.399 . S
C812 C811 1.399 . S
C812 C813 1.376 . S
C813 H800 0.930 . S
C813 C812 1.376 . S
C813 C814 1.388 . S
C814 H801 0.930 . S
C814 C813 1.388 . S
C814 C815 1.390 . S
C815 C814 1.390 . S
C815 C816 1.394 . S
C815 C821 1.465 . S
C816 C811 1.399 . S
C816 C815 1.394 . S
C816 C817 1.516 . S
C817 C816 1.516 . S
C817 C818 1.502 . S
C817 C819 1.561 . S
C817 C820 1.526 . S
C818 H802 0.959 . S
C818 H803 0.959 . S
C818 H804 0.961 . S
C818 C817 1.502 . S
C819 H805 0.960 . S
C819 H806 0.961 . S
C819 H807 0.959 . S
C819 C817 1.561 . S
C820 C817 1.526 . S
C820 C821 1.396 . S
C820 C825 1.390 . S
C821 C815 1.465 . S
C821 C820 1.396 . S
C821 C822 1.399 . S
C822 H808 0.929 . S
C822 C821 1.399 . S
C822 C823 1.385 . S
C823 H809 0.931 . S
C823 C822 1.385 . S
C823 C824 1.389 . S
C824 C823 1.389 . S
C824 C825 1.387 . S
C825 H810 0.930 . S
C825 C820 1.390 . S
C825 C824 1.387 . S
H826 C838 0.930 . S
H827 C840 0.930 . S
H828 C841 0.930 . S
H829 C845 0.959 . S
H830 C845 0.959 . S
H831 C845 0.961 . S
H832 C846 0.960 . S
H833 C846 0.961 . S
H834 C846 0.959 . S
H835 C849 0.929 . S
H836 C850 0.931 . S
H837 C852 0.930 . S
C838 H826 0.930 . S
C838 C839 1.399 . S
C838 C843 1.399 . S
C839 C838 1.399 . S
C839 C840 1.376 . S
C840 H827 0.930 . S
C840 C839 1.376 . S
C840 C841 1.388 . S
C841 H828 0.930 . S
C841 C840 1.388 . S
C841 C842 1.390 . S
C842 C841 1.390 . S
C842 C843 1.394 . S
C842 C848 1.465 . S
C843 C838 1.399 . S
C843 C842 1.394 . S
C843 C844 1.516 . S
C844 C843 1.516 . S
C844 C845 1.502 . S
C844 C846 1.561 . S
C844 C847 1.526 . S
C845 H829 0.959 . S
C845 H830 0.959 . S
C845 H831 0.961 . S
C845 C844 1.502 . S
C846 H832 0.960 . S
C846 H833 0.961 . S
C846 H834 0.959 . S
C846 C844 1.561 . S
C847 C844 1.526 . S
C847 C848 1.396 . S
C847 C852 1.390 . S
C848 C842 1.465 . S
C848 C847 1.396 . S
C848 C849 1.399 . S
C849 H835 0.929 . S
C849 C848 1.399 . S
C849 C850 1.385 . S
C850 H836 0.931 . S
C850 C849 1.385 . S
C850 C851 1.389 . S
C851 C850 1.389 . S
C851 C852 1.387 . S
C852 H837 0.930 . S
C852 C847 1.390 . S
C852 C851 1.387 . S
H853 C865 0.930 . S
H854 C867 0.930 . S
H855 C868 0.930 . S
H856 C872 0.959 . S
H857 C872 0.959 . S
H858 C872 0.961 . S
H859 C873 0.960 . S
H860 C873 0.961 . S
H861 C873 0.959 . S
H862 C876 0.929 . S
H863 C877 0.931 . S
H864 C879 0.930 . S
C865 H853 0.930 . S
C865 C866 1.399 . S
C865 C870 1.399 . S
C866 C865 1.399 . S
C866 C867 1.376 . S
C867 H854 0.930 . S
C867 C866 1.376 . S
C867 C868 1.388 . S
C868 H855 0.930 . S
C868 C867 1.388 . S
C868 C869 1.390 . S
C869 C868 1.390 . S
C869 C870 1.394 . S
C869 C875 1.465 . S
C870 C865 1.399 . S
C870 C869 1.394 . S
C870 C871 1.516 . S
C871 C870 1.516 . S
C871 C872 1.502 . S
C871 C873 1.561 . S
C871 C874 1.526 . S
C872 H856 0.959 . S
C872 H857 0.959 . S
C872 H858 0.961 . S
C872 C871 1.502 . S
C873 H859 0.960 . S
C873 H860 0.961 . S
C873 H861 0.959 . S
C873 C871 1.561 . S
C874 C871 1.526 . S
C874 C875 1.396 . S
C874 C879 1.390 . S
C875 C869 1.465 . S
C875 C874 1.396 . S
C875 C876 1.399 . S
C876 H862 0.929 . S
C876 C875 1.399 . S
C876 C877 1.385 . S
C877 H863 0.931 . S
C877 C876 1.385 . S
C877 C878 1.389 . S
C878 C877 1.389 . S
C878 C879 1.387 . S
C879 H864 0.930 . S
C879 C874 1.390 . S
C879 C878 1.387 . S
H880 C892 0.930 . S
H881 C894 0.930 . S
H882 C895 0.930 . S
H883 C899 0.959 . S
H884 C899 0.959 . S
H885 C899 0.961 . S
H886 C900 0.960 . S
H887 C900 0.961 . S
H888 C900 0.959 . S
H889 C903 0.929 . S
H890 C904 0.931 . S
H891 C906 0.930 . S
C892 H880 0.930 . S
C892 C893 1.399 . S
C892 C897 1.399 . S
C893 C892 1.399 . S
C893 C894 1.376 . S
C894 H881 0.930 . S
C894 C893 1.376 . S
C894 C895 1.388 . S
C895 H882 0.930 . S
C895 C894 1.388 . S
C895 C896 1.390 . S
C896 C895 1.390 . S
C896 C897 1.394 . S
C896 C902 1.465 . S
C897 C892 1.399 . S
C897 C896 1.394 . S
C897 C898 1.516 . S
C898 C897 1.516 . S
C898 C899 1.502 . S
C898 C900 1.561 . S
C898 C901 1.526 . S
C899 H883 0.959 . S
C899 H884 0.959 . S
C899 H885 0.961 . S
C899 C898 1.502 . S
C900 H886 0.960 . S
C900 H887 0.961 . S
C900 H888 0.959 . S
C900 C898 1.561 . S
C901 C898 1.526 . S
C901 C902 1.396 . S
C901 C906 1.390 . S
C902 C896 1.465 . S
C902 C901 1.396 . S
C902 C903 1.399 . S
C903 H889 0.929 . S
C903 C902 1.399 . S
C903 C904 1.385 . S
C904 H890 0.931 . S
C904 C903 1.385 . S
C904 C905 1.389 . S
C905 C904 1.389 . S
C905 C906 1.387 . S
C906 H891 0.930 . S
C906 C901 1.390 . S
C906 C905 1.387 . S
H907 C919 0.930 . S
H908 C921 0.930 . S
H909 C922 0.930 . S
H910 C926 0.959 . S
H911 C926 0.959 . S
H912 C926 0.961 . S
H913 C927 0.960 . S
H914 C927 0.961 . S
H915 C927 0.959 . S
H916 C930 0.929 . S
H917 C931 0.931 . S
H918 C933 0.930 . S
C919 H907 0.930 . S
C919 C920 1.399 . S
C919 C924 1.399 . S
C920 C919 1.399 . S
C920 C921 1.376 . S
C921 H908 0.930 . S
C921 C920 1.376 . S
C921 C922 1.388 . S
C922 H909 0.930 . S
C922 C921 1.388 . S
C922 C923 1.390 . S
C923 C922 1.390 . S
C923 C924 1.394 . S
C923 C929 1.465 . S
C924 C919 1.399 . S
C924 C923 1.394 . S
C924 C925 1.516 . S
C925 C924 1.516 . S
C925 C926 1.502 . S
C925 C927 1.561 . S
C925 C928 1.526 . S
C926 H910 0.959 . S
C926 H911 0.959 . S
C926 H912 0.961 . S
C926 C925 1.502 . S
C927 H913 0.960 . S
C927 H914 0.961 . S
C927 H915 0.959 . S
C927 C925 1.561 . S
C928 C925 1.526 . S
C928 C929 1.396 . S
C928 C933 1.390 . S
C929 C923 1.465 . S
C929 C928 1.396 . S
C929 C930 1.399 . S
C930 H916 0.929 . S
C930 C929 1.399 . S
C930 C931 1.385 . S
C931 H917 0.931 . S
C931 C930 1.385 . S
C931 C932 1.389 . S
C932 C931 1.389 . S
C932 C933 1.387 . S
C933 H918 0.930 . S
C933 C928 1.390 . S
C933 C932 1.387 . S
H934 C946 0.930 . S
H935 C948 0.930 . S
H936 C949 0.930 . S
H937 C953 0.959 . S
H938 C953 0.959 . S
H939 C953 0.961 . S
H940 C954 0.960 . S
H941 C954 0.961 . S
H942 C954 0.959 . S
H943 C957 0.929 . S
H944 C958 0.931 . S
H945 C960 0.930 . S
C946 H934 0.930 . S
C946 C947 1.399 . S
C946 C951 1.399 . S
C947 C946 1.399 . S
C947 C948 1.376 . S
C948 H935 0.930 . S
C948 C947 1.376 . S
C948 C949 1.388 . S
C949 H936 0.930 . S
C949 C948 1.388 . S
C949 C950 1.390 . S
C950 C949 1.390 . S
C950 C951 1.394 . S
C950 C956 1.465 . S
C951 C946 1.399 . S
C951 C950 1.394 . S
C951 C952 1.516 . S
C952 C951 1.516 . S
C952 C953 1.502 . S
C952 C954 1.561 . S
C952 C955 1.526 . S
C953 H937 0.959 . S
C953 H938 0.959 . S
C953 H939 0.961 . S
C953 C952 1.502 . S
C954 H940 0.960 . S
C954 H941 0.961 . S
C954 H942 0.959 . S
C954 C952 1.561 . S
C955 C952 1.526 . S
C955 C956 1.396 . S
C955 C960 1.390 . S
C956 C950 1.465 . S
C956 C955 1.396 . S
C956 C957 1.399 . S
C957 H943 0.929 . S
C957 C956 1.399 . S
C957 C958 1.385 . S
C958 H944 0.931 . S
C958 C957 1.385 . S
C958 C959 1.389 . S
C959 C958 1.389 . S
C959 C960 1.387 . S
C960 H945 0.930 . S
C960 C955 1.390 . S
C960 C959 1.387 . S
H961 C973 0.930 . S
H962 C975 0.930 . S
H963 C976 0.930 . S
H964 C980 0.959 . S
H965 C980 0.959 . S
H966 C980 0.961 . S
H967 C981 0.960 . S
H968 C981 0.961 . S
H969 C981 0.959 . S
H970 C984 0.929 . S
H971 C985 0.931 . S
H972 C987 0.930 . S
C973 H961 0.930 . S
C973 C974 1.399 . S
C973 C978 1.399 . S
C974 C973 1.399 . S
C974 C975 1.376 . S
C975 H962 0.930 . S
C975 C974 1.376 . S
C975 C976 1.388 . S
C976 H963 0.930 . S
C976 C975 1.388 . S
C976 C977 1.390 . S
C977 C976 1.390 . S
C977 C978 1.394 . S
C977 C983 1.465 . S
C978 C973 1.399 . S
C978 C977 1.394 . S
C978 C979 1.516 . S
C979 C978 1.516 . S
C979 C980 1.502 . S
C979 C981 1.561 . S
C979 C982 1.526 . S
C980 H964 0.959 . S
C980 H965 0.959 . S
C980 H966 0.961 . S
C980 C979 1.502 . S
C981 H967 0.960 . S
C981 H968 0.961 . S
C981 H969 0.959 . S
C981 C979 1.561 . S
C982 C979 1.526 . S
C982 C983 1.396 . S
C982 C987 1.390 . S
C983 C977 1.465 . S
C983 C982 1.396 . S
C983 C984 1.399 . S
C984 H970 0.929 . S
C984 C983 1.399 . S
C984 C985 1.385 . S
C985 H971 0.931 . S
C985 C984 1.385 . S
C985 C986 1.389 . S
C986 C985 1.389 . S
C986 C987 1.387 . S
C987 H972 0.930 . S
C987 C982 1.390 . S
C987 C986 1.387 . S
C353 C221 1.377 . S
C365 C272 1.342 . S
C392 C280 1.298 . S
C380 C241 1.353 . S
C419 C284 1.309 . S
C407 C157 1.347 . S
C434 C177 1.354 . S
C446 C260 1.261 . S
C473 C301 1.317 . S
C461 C93 1.436 . S
C500 C335 1.337 . S
C488 C113 1.372 . S
C515 C29 1.400 . S
C527 C323 1.399 . S
C542 C49 1.317 . S
C554 C305 1.278 . S
C581 C259 1.337 . S
C569 C61 1.397 1_554 S
C608 C293 1.328 . S
C596 C17 1.442 . S
C635 C297 1.334 . S
C623 C125 1.409 1_556 S
C662 C275 1.272 . S
C650 C81 1.425 . S
C689 C314 1.281 . S
C677 C189 1.396 1_556 S
C704 C145 1.438 . S
C716 C322 1.267 . S
C743 C338 1.301 . S
C731 C253 1.402 1_554 S
C758 C209 1.372 . S
C770 C318 1.294 . S
C797 C263 1.258 . S
C785 C23 1.476 . S
C824 C281 1.371 . S
C812 C55 1.463 . S
C839 C87 1.457 . S
C851 C296 1.268 . S
C878 C276 1.369 . S
C866 C119 1.424 . S
C905 C302 1.374 . S
C893 C151 1.457 . S
C920 C183 1.468 . S
C932 C326 1.381 . S
C947 C215 1.445 . S
C959 C339 1.250 . S
C974 C247 1.453 . S
C986 C317 1.309 . S
