# Generated by pormake.
# Topology zzz, (3,6)-cn, num edge types: 1
# Building blocks:
#     Node 0, Type 0, BuildingBlock: MIDCAF_clean_linker_0, # of connection points: 3
#     Node 1, Type 0, BuildingBlock: MIDCAF_clean_linker_0, # of connection points: 3
#     Node 2, Type 0, BuildingBlock: MIDCAF_clean_linker_0, # of connection points: 3
#     Node 3, Type 0, BuildingBlock: MIDCAF_clean_linker_0, # of connection points: 3
#     Node 4, Type 0, BuildingBlock: MIDCAF_clean_linker_0, # of connection points: 3
#     Node 5, Type 0, BuildingBlock: MIDCAF_clean_linker_0, # of connection points: 3
#     Node 6, Type 0, BuildingBlock: MIDCAF_clean_linker_0, # of connection points: 3
#     Node 7, Type 0, BuildingBlock: MIDCAF_clean_linker_0, # of connection points: 3
#     Node 8, Type 1, BuildingBlock: FUNLAD_clean_sbu_0, # of connection points: 6
#     Node 9, Type 1, BuildingBlock: FUNLAD_clean_sbu_0, # of connection points: 6
#     Node 10, Type 1, BuildingBlock: FUNLAD_clean_sbu_0, # of connection points: 6
#     Node 11, Type 1, BuildingBlock: FUNLAD_clean_sbu_0, # of connection points: 6
#     Edge 12, Type (0, 1), BuildingBlock: KIFKEQ_clean_linker_1, # of connection points: 2
#     Edge 13, Type (0, 1), BuildingBlock: KIFKEQ_clean_linker_1, # of connection points: 2
#     Edge 14, Type (0, 1), BuildingBlock: KIFKEQ_clean_linker_1, # of connection points: 2
#     Edge 15, Type (0, 1), BuildingBlock: KIFKEQ_clean_linker_1, # of connection points: 2
#     Edge 16, Type (0, 1), BuildingBlock: KIFKEQ_clean_linker_1, # of connection points: 2
#     Edge 17, Type (0, 1), BuildingBlock: KIFKEQ_clean_linker_1, # of connection points: 2
#     Edge 18, Type (0, 1), BuildingBlock: KIFKEQ_clean_linker_1, # of connection points: 2
#     Edge 19, Type (0, 1), BuildingBlock: KIFKEQ_clean_linker_1, # of connection points: 2
#     Edge 20, Type (0, 1), BuildingBlock: KIFKEQ_clean_linker_1, # of connection points: 2
#     Edge 21, Type (0, 1), BuildingBlock: KIFKEQ_clean_linker_1, # of connection points: 2
#     Edge 22, Type (0, 1), BuildingBlock: KIFKEQ_clean_linker_1, # of connection points: 2
#     Edge 23, Type (0, 1), BuildingBlock: KIFKEQ_clean_linker_1, # of connection points: 2
#     Edge 24, Type (0, 1), BuildingBlock: KIFKEQ_clean_linker_1, # of connection points: 2
#     Edge 25, Type (0, 1), BuildingBlock: KIFKEQ_clean_linker_1, # of connection points: 2
#     Edge 26, Type (0, 1), BuildingBlock: KIFKEQ_clean_linker_1, # of connection points: 2
#     Edge 27, Type (0, 1), BuildingBlock: KIFKEQ_clean_linker_1, # of connection points: 2
#     Edge 28, Type (0, 1), BuildingBlock: KIFKEQ_clean_linker_1, # of connection points: 2
#     Edge 29, Type (0, 1), BuildingBlock: KIFKEQ_clean_linker_1, # of connection points: 2
#     Edge 30, Type (0, 1), BuildingBlock: KIFKEQ_clean_linker_1, # of connection points: 2
#     Edge 31, Type (0, 1), BuildingBlock: KIFKEQ_clean_linker_1, # of connection points: 2
#     Edge 32, Type (0, 1), BuildingBlock: KIFKEQ_clean_linker_1, # of connection points: 2
#     Edge 33, Type (0, 1), BuildingBlock: KIFKEQ_clean_linker_1, # of connection points: 2
#     Edge 34, Type (0, 1), BuildingBlock: KIFKEQ_clean_linker_1, # of connection points: 2
#     Edge 35, Type (0, 1), BuildingBlock: KIFKEQ_clean_linker_1, # of connection points: 2
# Relax obj value: 0.282
# Max RMSD: 0.227
# Mean RMSD: 0.193
data_MOF--net-zzz--node1-FUNLAD_clean_sbu_0--node2-MIDCAF_clean_linker_0--edge1-KIFKEQ_clean_linker_1
_symmetry_space_group_name_H-M    P1
_symmetry_Int_Tables_number       1
_symmetry_cell_setting            triclinic
loop_
_symmetry_equiv_pos_as_xyz
'x, y, z'
_cell_length_a     58.324306
_cell_length_b     63.181481
_cell_length_c     22.892451
_cell_angle_alpha  86.767205
_cell_angle_beta   87.099164
_cell_angle_gamma 92.279842
loop_
_atom_site_label
_atom_site_type_symbol
_atom_site_fract_x
_atom_site_fract_y
_atom_site_fract_z
_atom_type_partial_charge
C0 C 0.83034 0.43146 0.41281 0.0
C1 C 0.82802 0.4525 0.42853 0.0
C2 C 0.81317 0.46543 0.39712 0.0
C3 C 0.80241 0.45798 0.34831 0.0
H4 H 0.73459 0.43454 0.22563 0.0
H5 H 0.70173 0.44314 0.16748 0.0
H6 H 0.7482 0.45992 0.0172 0.0
H7 H 0.78045 0.45011 0.07419 0.0
H8 H 0.81451 0.39771 0.07951 0.0
H9 H 0.84736 0.39039 0.01475 0.0
H10 H 0.89314 0.41391 0.14174 0.0
H11 H 0.86061 0.41967 0.20718 0.0
H12 H 0.82318 0.40829 0.35106 0.0
H13 H 0.84175 0.42103 0.43525 0.0
H14 H 0.81075 0.48162 0.40855 0.0
H15 H 0.79239 0.46873 0.32246 0.0
N16 N 0.78238 0.43806 0.2433 0.0
N17 N 0.79647 0.42391 0.15617 0.0
N18 N 0.8178 0.42158 0.23963 0.0
C19 C 0.77979 0.43395 0.18605 0.0
C20 C 0.81548 0.41761 0.18275 0.0
C21 C 0.80143 0.43163 0.27033 0.0
C22 C 0.75997 0.44141 0.15417 0.0
C23 C 0.73762 0.4402 0.18025 0.0
C24 C 0.71884 0.44521 0.14684 0.0
C25 C 0.72215 0.45191 0.08703 0.0
C26 C 0.74475 0.45412 0.06231 0.0
C27 C 0.76334 0.44868 0.09518 0.0
C28 C 0.83497 0.40958 0.14798 0.0
C29 C 0.83167 0.40077 0.09393 0.0
C30 C 0.85054 0.39673 0.05668 0.0
C31 C 0.87308 0.40199 0.07202 0.0
C32 C 0.87625 0.40936 0.12809 0.0
C33 C 0.85745 0.41288 0.16578 0.0
C34 C 0.80651 0.43757 0.32996 0.0
C35 C 0.81975 0.42413 0.36418 0.0
C36 C 0.89946 0.81303 0.31767 0.0
C37 C 0.90886 0.80503 0.36937 0.0
C38 C 0.91833 0.78483 0.36986 0.0
C39 C 0.921 0.77423 0.31792 0.0
H40 H 0.91738 0.71631 0.18934 0.0
H41 H 0.91476 0.68184 0.14524 0.0
H42 H 0.93899 0.71183 0.97808 0.0
H43 H 0.94138 0.74588 0.02123 0.0
H44 H 0.96491 0.7921 0.01184 0.0
H45 H 0.98726 0.82132 0.95941 0.0
H46 H 0.99154 0.85345 0.12053 0.0
H47 H 0.96862 0.8247 0.17233 0.0
H48 H 0.89697 0.81017 0.22559 0.0
H49 H 0.89217 0.82853 0.31522 0.0
H50 H 0.92538 0.77805 0.40923 0.0
H51 H 0.93049 0.75983 0.31801 0.0
N52 N 0.92231 0.75865 0.18764 0.0
N53 N 0.94639 0.77017 0.1053 0.0
N54 N 0.93875 0.79332 0.17898 0.0
C55 C 0.93281 0.75468 0.13494 0.0
C56 C 0.94962 0.78944 0.1274 0.0
C57 C 0.92509 0.77819 0.20912 0.0
C58 C 0.92973 0.73385 0.10897 0.0
C59 C 0.92189 0.71552 0.14307 0.0
C60 C 0.92049 0.69579 0.11793 0.0
C61 C 0.92657 0.69414 0.05813 0.0
C62 C 0.93383 0.71257 0.02403 0.0
C63 C 0.93543 0.73212 0.04906 0.0
C64 C 0.96469 0.80621 0.09603 0.0
C65 C 0.97079 0.80533 0.03609 0.0
C66 C 0.98375 0.82202 0.00615 0.0
C67 C 0.99107 0.83982 0.03569 0.0
C68 C 0.98579 0.8402 0.09617 0.0
C69 C 0.97266 0.82367 0.12589 0.0
C70 C 0.91419 0.78372 0.26512 0.0
C71 C 0.90222 0.80252 0.26605 0.0
C72 C 0.68975 0.97739 0.32262 0.0
C73 C 0.69174 0.9902 0.37062 0.0
C74 C 0.71044 0.00513 0.36938 0.0
C75 C 0.7253 0.00856 0.31921 0.0
H76 H 0.79121 0.98553 0.15836 0.0
H77 H 0.8285 0.98254 0.10514 0.0
H78 H 0.81389 0.03619 0.98982 0.0
H79 H 0.77715 0.03925 0.04244 0.0
H80 H 0.7205 0.0358 0.00637 0.0
H81 H 0.68766 0.0451 0.94877 0.0
H82 H 0.64427 0.04374 0.10739 0.0
H83 H 0.67667 0.03459 0.16488 0.0
H84 H 0.70115 0.97214 0.23438 0.0
H85 H 0.67554 0.96589 0.32133 0.0
H86 H 0.71279 0.01505 0.40584 0.0
H87 H 0.73812 0.0215 0.3174 0.0
N88 N 0.75182 0.00506 0.18806 0.0
N89 N 0.74122 0.02353 0.10172 0.0
N90 N 0.71405 0.01602 0.17914 0.0
C91 C 0.75757 0.01383 0.13285 0.0
C92 C 0.71947 0.02475 0.12472 0.0
C93 C 0.72987 0.00628 0.21109 0.0
C94 C 0.78108 0.0126 0.10475 0.0
C95 C 0.79612 0.99681 0.12208 0.0
C96 C 0.81739 0.99499 0.09128 0.0
C97 C 0.82423 0.00914 0.04314 0.0
C98 C 0.80938 0.02517 0.02697 0.0
C99 C 0.78815 0.02682 0.05709 0.0
C100 C 0.70112 0.03397 0.09012 0.0
C101 C 0.70408 0.03795 0.02904 0.0
C102 C 0.68534 0.04336 0.99607 0.0
C103 C 0.66346 0.04483 0.02376 0.0
C104 C 0.66093 0.04241 0.08502 0.0
C105 C 0.67954 0.0371 0.11784 0.0
C106 C 0.72187 0.99703 0.26954 0.0
C107 C 0.70457 0.98085 0.27269 0.0
C108 C 0.54583 0.63904 0.07726 0.0
C109 C 0.53356 0.64478 0.02802 0.0
C110 C 0.53001 0.66634 0.01462 0.0
C111 C 0.53863 0.68186 0.04998 0.0
H112 H 0.58043 0.74504 0.05739 0.0
H113 H 0.57708 0.78144 0.0187 0.0
H114 H 0.54604 0.79774 0.18448 0.0
H115 H 0.54993 0.76105 0.22402 0.0
H116 H 0.55847 0.71321 0.34107 0.0
H117 H 0.55985 0.69215 0.43418 0.0
H118 H 0.59885 0.64553 0.34558 0.0
H119 H 0.5979 0.66667 0.25445 0.0
H120 H 0.5635 0.64932 0.15045 0.0
H121 H 0.54861 0.62253 0.0891 0.0
H122 H 0.52073 0.67119 0.97664 0.0
H123 H 0.53549 0.69835 0.03892 0.0
N124 N 0.55876 0.71305 0.12455 0.0
N125 N 0.57097 0.72102 0.21782 0.0
N126 N 0.56532 0.68565 0.19342 0.0
C127 C 0.56498 0.72761 0.16302 0.0
C128 C 0.5715 0.69984 0.23256 0.0
C129 C 0.55869 0.69202 0.13973 0.0
C130 C 0.56539 0.75029 0.1436 0.0
C131 C 0.57326 0.75648 0.08594 0.0
C132 C 0.57145 0.77732 0.06389 0.0
C133 C 0.5613 0.79236 0.09861 0.0
C134 C 0.55392 0.78638 0.15689 0.0
C135 C 0.55625 0.76551 0.17954 0.0
C136 C 0.57784 0.6914 0.29067 0.0
C137 C 0.56811 0.6989 0.34243 0.0
C138 C 0.5687 0.68669 0.39549 0.0
C139 C 0.57909 0.66688 0.39741 0.0
C140 C 0.59081 0.66067 0.34642 0.0
C141 C 0.59015 0.67275 0.2938 0.0
C142 C 0.55071 0.67603 0.09966 0.0
C143 C 0.55428 0.65444 0.11262 0.0
C144 C 0.1764 0.56707 0.00465 0.0
C145 C 0.18021 0.54617 0.9897 0.0
C146 C 0.19569 0.53424 0.02188 0.0
C147 C 0.20613 0.54269 0.0699 0.0
H148 H 0.2639 0.5436 0.1916 0.0
H149 H 0.2983 0.53452 0.24323 0.0
H150 H 0.28279 0.58105 0.36898 0.0
H151 H 0.24893 0.59027 0.31765 0.0
H152 H 0.19733 0.60401 0.33743 0.0
H153 H 0.16513 0.60951 0.40613 0.0
H154 H 0.11784 0.59218 0.27551 0.0
H155 H 0.14972 0.58784 0.20658 0.0
H156 H 0.18227 0.59111 0.0647 0.0
H157 H 0.16439 0.57667 0.98156 0.0
H158 H 0.19909 0.51814 0.01119 0.0
H159 H 0.21703 0.53283 0.09586 0.0
N160 N 0.2274 0.56594 0.16819 0.0
N161 N 0.21553 0.58278 0.253 0.0
N162 N 0.19115 0.5808 0.17562 0.0
C163 C 0.23183 0.57247 0.22248 0.0
C164 C 0.19512 0.58693 0.23002 0.0
C165 C 0.2071 0.57047 0.1443 0.0
C166 C 0.25357 0.56762 0.25049 0.0
C167 C 0.26799 0.55202 0.22989 0.0
C168 C 0.28759 0.54671 0.2597 0.0
C169 C 0.29327 0.55707 0.3102 0.0
C170 C 0.27909 0.57294 0.32986 0.0
C171 C 0.25952 0.57811 0.30052 0.0
C172 C 0.17614 0.59494 0.26698 0.0
C173 C 0.18003 0.60194 0.32297 0.0
C174 C 0.16154 0.60499 0.36248 0.0
C175 C 0.1388 0.60075 0.34714 0.0
C176 C 0.13499 0.59572 0.28923 0.0
C177 C 0.15342 0.59301 0.24954 0.0
C178 C 0.20093 0.56305 0.08687 0.0
C179 C 0.18656 0.57535 0.05265 0.0
C180 C 0.12287 0.18662 0.07192 0.0
C181 C 0.11133 0.19488 0.02378 0.0
C182 C 0.10147 0.21482 0.02755 0.0
C183 C 0.10061 0.22484 0.08068 0.0
H184 H 0.07963 0.28038 0.21647 0.0
H185 H 0.07575 0.31355 0.26523 0.0
H186 H 0.10954 0.28636 0.41418 0.0
H187 H 0.11156 0.25291 0.36687 0.0
H188 H 0.06464 0.20576 0.39237 0.0
H189 H 0.04206 0.17688 0.44605 0.0
H190 H 0.0433 0.14112 0.29054 0.0
H191 H 0.06632 0.16941 0.23778 0.0
H192 H 0.12893 0.18869 0.16273 0.0
H193 H 0.13055 0.17131 0.07113 0.0
H194 H 0.09281 0.22181 0.99092 0.0
H195 H 0.0909 0.23901 0.08428 0.0
N196 N 0.10255 0.23978 0.20929 0.0
N197 N 0.0833 0.22687 0.2981 0.0
N198 N 0.09015 0.20396 0.22331 0.0
C199 C 0.09406 0.24312 0.26447 0.0
C200 C 0.081 0.20726 0.2773 0.0
C201 C 0.10102 0.21991 0.18936 0.0
C202 C 0.09573 0.26421 0.2883 0.0
C203 C 0.08649 0.28176 0.25927 0.0
C204 C 0.08437 0.30078 0.28731 0.0
C205 C 0.09194 0.30269 0.34443 0.0
C206 C 0.10273 0.2854 0.37125 0.0
C207 C 0.10421 0.26628 0.34394 0.0
C208 C 0.0675 0.18987 0.31092 0.0
C209 C 0.06013 0.1917 0.36976 0.0
C210 C 0.04702 0.17523 0.40036 0.0
C211 C 0.04088 0.15666 0.3726 0.0
C212 C 0.04804 0.15501 0.31361 0.0
C213 C 0.06125 0.17132 0.28328 0.0
C214 C 0.10962 0.21501 0.13043 0.0
C215 C 0.12192 0.19656 0.12472 0.0
C216 C 0.31222 0.97886 0.04152 0.0
C217 C 0.31838 -0.0002 0.02056 0.0
C218 C 0.3077 0.01655 0.04812 0.0
C219 C 0.29282 0.01247 0.09815 0.0
H220 H 0.2125 0.98771 0.22218 0.0
H221 H 0.17547 0.99193 0.27574 0.0
H222 H 0.21125 0.00644 0.43 0.0
H223 H 0.24787 0.00204 0.37725 0.0
H224 H 0.29149 0.96913 0.39752 0.0
H225 H 0.32401 0.96044 0.45695 0.0
H226 H 0.36663 0.95458 0.29964 0.0
H227 H 0.33455 0.96294 0.24027 0.0
H228 H 0.29473 0.95863 0.10906 0.0
H229 H 0.32016 0.96548 0.02247 0.0
H230 H 0.31172 0.03286 0.03284 0.0
H231 H 0.28644 0.02569 0.12136 0.0
N232 N 0.26033 0.99289 0.20786 0.0
N233 N 0.27166 0.98072 0.30102 0.0
N234 N 0.29656 0.97863 0.21882 0.0
C235 C 0.25554 0.98933 0.26691 0.0
C236 C 0.29218 0.97524 0.27718 0.0
C237 C 0.28105 0.98742 0.18393 0.0
C238 C 0.23313 0.99449 0.29545 0.0
C239 C 0.2124 0.99213 0.26721 0.0
C240 C 0.19122 0.99438 0.29801 0.0
C241 C 0.19041 0.99948 0.35721 0.0
C242 C 0.21122 0.00267 0.38442 0.0
C243 C 0.23224 5e-05 0.35416 0.0
C244 C 0.31046 0.96713 0.31406 0.0
C245 C 0.30766 0.9656 0.37561 0.0
C246 C 0.3262 0.96052 0.40966 0.0
C247 C 0.34777 0.95706 0.38262 0.0
C248 C 0.35018 0.95738 0.32138 0.0
C249 C 0.33174 0.96224 0.28748 0.0
C250 C 0.28835 0.99159 0.12145 0.0
C251 C 0.29748 0.97485 0.09127 0.0
C252 C 0.47007 0.36089 0.30901 0.0
C253 C 0.48148 0.35532 0.35981 0.0
C254 C 0.48421 0.33376 0.37525 0.0
C255 C 0.47552 0.31807 0.34054 0.0
H256 H 0.42632 0.25558 0.33052 0.0
H257 H 0.42924 0.2204 0.37759 0.0
H258 H 0.47218 0.20258 0.2303 0.0
H259 H 0.46803 0.23777 0.18182 0.0
H260 H 0.4561 0.28549 0.05122 0.0
H261 H 0.45472 0.30645 0.95796 0.0
H262 H 0.41393 0.35218 0.04517 0.0
H263 H 0.41492 0.3311 0.13643 0.0
H264 H 0.45294 0.3503 0.23531 0.0
H265 H 0.46794 0.37739 0.29564 0.0
H266 H 0.4928 0.32905 0.41447 0.0
H267 H 0.47792 0.30158 0.35338 0.0
N268 N 0.45506 0.28654 0.26786 0.0
N269 N 0.44227 0.27776 0.17573 0.0
N270 N 0.44916 0.31337 0.19676 0.0
C271 C 0.44828 0.27167 0.23088 0.0
C272 C 0.44238 0.29884 0.15913 0.0
C273 C 0.45577 0.30743 0.25079 0.0
C274 C 0.44701 0.24929 0.25281 0.0
C275 C 0.43594 0.24394 0.30773 0.0
C276 C 0.43787 0.22385 0.33493 0.0
C277 C 0.45148 0.20876 0.30859 0.0
C278 C 0.46153 0.21375 0.25189 0.0
C279 C 0.45918 0.23386 0.22403 0.0
C280 C 0.4358 0.30683 0.10086 0.0
C281 C 0.44603 0.29953 0.04945 0.0
C282 C 0.44545 0.3117 0.99632 0.0
C283 C 0.43459 0.33129 0.99405 0.0
C284 C 0.42235 0.33722 0.0446 0.0
C285 C 0.423 0.32516 0.09728 0.0
C286 C 0.46417 0.32372 0.2895 0.0
C287 C 0.46155 0.34531 0.27427 0.0
C288 C 0.02251 0.96756 0.77428 0.0
N289 N 0.98272 0.96583 0.6281 0.0
C290 C 0.99583 0.94928 0.61469 0.0
C291 C 0.98632 0.9318 0.58878 0.0
C292 C 0.96299 0.9312 0.57626 0.0
C293 C 0.94983 0.94862 0.58986 0.0
C294 C 0.96011 0.9659 0.61587 0.0
Zn295 Zn 0.99796 0.98903 0.67378 0.0
C296 C 0.96779 0.00077 0.77618 0.0
N297 N 0.03194 0.0338 0.77608 0.0
C298 C 0.05468 0.03387 0.78694 0.0
C299 C 0.01889 0.05037 0.78982 0.0
C300 C 0.02863 0.06802 0.81448 0.0
C301 C 0.05213 0.0688 0.8251 0.0
C302 C 0.0652 0.05135 0.81145 0.0
Zn303 Zn 0.01661 0.01056 0.73079 0.0
O304 O 0.01045 0.965 0.73032 0.0
C305 C 0.04678 0.999 0.62836 0.0
O306 O 0.02845 0.98623 0.7872 0.0
H307 H 1.00096 0.05025 0.7799 0.0
H308 H 0.01366 0.94932 0.62555 0.0
H309 H 0.06479 0.0206 0.77531 0.0
O310 O 0.02843 0.98876 0.61734 0.0
O311 O 0.04697 0.00948 0.67421 0.0
H312 H 0.94996 0.97916 0.62728 0.0
O313 O 0.00447 0.03452 0.67402 0.0
O314 O 0.98601 0.01348 0.61755 0.0
O315 O 0.98613 0.01119 0.78634 0.0
O316 O 0.96758 0.98985 0.7311 0.0
C317 C 0.99234 0.03209 0.63018 0.0
H318 H 0.99704 0.91861 0.58014 0.0
H319 H 0.93182 0.94888 0.58054 0.0
H320 H 0.01797 0.08124 0.82337 0.0
H321 H 0.08335 0.05124 0.8194 0.0
C322 C 0.4807 0.9762 0.6289 0.0
N323 N 0.49723 0.04143 0.62413 0.0
C324 C 0.49841 0.04024 0.56489 0.0
C325 C 0.4933 0.05767 0.5283 0.0
C326 C 0.48706 0.07667 0.55273 0.0
C327 C 0.48633 0.07751 0.61411 0.0
C328 C 0.4914 0.05963 0.64909 0.0
Zn329 Zn 0.50363 0.01498 0.67579 0.0
C330 C 0.46636 0.00481 0.76972 0.0
N331 N 0.51547 0.9581 0.77853 0.0
C332 C 0.5211 0.93965 0.75464 0.0
C333 C 0.51425 0.9597 0.83763 0.0
C334 C 0.51916 0.94248 0.87514 0.0
C335 C 0.52512 0.9232 0.85193 0.0
C336 C 0.52588 0.92191 0.79065 0.0
Zn337 Zn 0.5092 0.9845 0.72636 0.0
O338 O 0.48407 0.99617 0.62151 0.0
C339 C 0.54633 0.99448 0.63195 0.0
O340 O 0.48954 0.9661 0.67106 0.0
H341 H 0.50969 0.97447 0.85589 0.0
H342 H 0.50307 0.02563 0.54585 0.0
H343 H 0.52195 0.9387 0.70756 0.0
O344 O 0.53391 0.01033 0.62306 0.0
O345 O 0.54013 0.98061 0.6729 0.0
H346 H 0.49059 0.06026 0.69626 0.0
O347 O 0.52827 0.00343 0.7815 0.0
O348 O 0.52374 0.03333 0.73031 0.0
O349 O 0.47855 0.98875 0.77767 0.0
O350 O 0.47296 0.01912 0.73032 0.0
C351 C 0.53206 0.02333 0.77342 0.0
H352 H 0.49382 0.0561 0.48141 0.0
H353 H 0.48202 0.09188 0.63503 0.0
H354 H 0.51868 0.94447 0.92184 0.0
H355 H 0.52999 0.90733 0.77057 0.0
C356 C 0.51941 0.47336 0.61039 0.0
N357 N 0.46136 0.50935 0.63165 0.0
C358 C 0.46515 0.51401 0.57309 0.0
C359 C 0.44699 0.51879 0.53807 0.0
C360 C 0.42455 0.51885 0.56323 0.0
C361 C 0.421 0.51373 0.62372 0.0
C362 C 0.43978 0.50904 0.65735 0.0
Zn363 Zn 0.48976 0.50303 0.67809 0.0
C364 C 0.48465 0.46455 0.75707 0.0
N365 N 0.55191 0.48973 0.76219 0.0
C366 C 0.57298 0.48793 0.7349 0.0
C367 C 0.54894 0.48749 0.82166 0.0
C368 C 0.56756 0.48379 0.85612 0.0
C369 C 0.58943 0.48188 0.82925 0.0
C370 C 0.59207 0.48378 0.76783 0.0
Zn371 Zn 0.52338 0.49594 0.71606 0.0
O372 O 0.50087 0.48322 0.61241 0.0
C373 C 0.52857 0.53443 0.63726 0.0
O374 O 0.5336 0.47545 0.65021 0.0
H375 H 0.53204 0.48857 0.84267 0.0
H376 H 0.48237 0.51407 0.55326 0.0
H377 H 0.57499 0.48975 0.68764 0.0
O378 O 0.5074 0.52943 0.63357 0.0
O379 O 0.54075 0.5227 0.66918 0.0
H380 H 0.43715 0.50529 0.70396 0.0
O381 O 0.5124 0.51614 0.78085 0.0
O382 O 0.47923 0.52322 0.7444 0.0
O383 O 0.50571 0.4698 0.76173 0.0
O384 O 0.47257 0.47601 0.72413 0.0
C385 C 0.49367 0.52571 0.78345 0.0
H386 H 0.45052 0.52226 0.49154 0.0
H387 H 0.40399 0.51372 0.64498 0.0
H388 H 0.56483 0.48213 0.90335 0.0
H389 H 0.60875 0.48241 0.74567 0.0
C390 C 0.02338 0.52728 0.61977 0.0
N391 N 0.02758 0.46097 0.63486 0.0
C392 C 0.02698 0.46216 0.57537 0.0
C393 C 0.03569 0.44599 0.54268 0.0
C394 C 0.04466 0.42825 0.57161 0.0
C395 C 0.04519 0.42744 0.6329 0.0
C396 C 0.03671 0.44415 0.6638 0.0
Zn397 Zn 0.01375 0.48452 0.68161 0.0
C398 C 0.04635 0.50289 0.76247 0.0
N399 N 0.98458 0.53444 0.77554 0.0
C400 C 0.99722 0.55285 0.77897 0.0
C401 C 0.96331 0.53154 0.80287 0.0
C402 C 0.95401 0.54755 0.83528 0.0
C403 C 0.96662 0.56678 0.839 0.0
C404 C 0.98851 0.56931 0.81036 0.0
Zn405 Zn 0.99831 0.51084 0.72894 0.0
O406 O 0.02707 0.50767 0.61694 0.0
C407 C 0.96566 0.49252 0.64822 0.0
O408 O 0.01111 0.53343 0.66243 0.0
H409 H 0.95353 0.5168 0.79951 0.0
H410 H 0.01946 0.47555 0.55319 0.0
H411 H 0.01417 0.55478 0.75742 0.0
O412 O 0.98279 0.48122 0.63762 0.0
O413 O 0.96724 0.50678 0.68505 0.0
H414 H 0.0372 0.44357 0.71101 0.0
O415 O 0.98601 0.48784 0.79536 0.0
O416 O 0.99999 0.46189 0.74654 0.0
O417 O 0.02942 0.51458 0.77128 0.0
O418 O 0.04464 0.48811 0.72723 0.0
C419 C 0.98884 0.46814 0.79093 0.0
H420 H 0.03482 0.44703 0.49545 0.0
H421 H 0.05213 0.41403 0.6566 0.0
H422 H 0.937 0.54505 0.85641 0.0
H423 H 0.99892 0.58378 0.8128 0.0
H424 H 0.15336 0.97125 0.36284 0.0
H425 H 0.17732 0.02993 0.43105 0.0
H426 H 0.11873 0.97104 0.42733 0.0
H427 H 0.14241 0.03028 0.49405 0.0
H428 H 0.09058 0.01365 0.64626 0.0
H429 H 0.12439 0.014 0.57926 0.0
H430 H 0.08342 0.98589 0.44931 0.0
H431 H 0.04989 0.98472 0.5175 0.0
C432 C 0.15099 0.98434 0.39081 0.0
C433 C 0.16815 0.00056 0.39192 0.0
C434 C 0.13108 0.98427 0.42791 0.0
C435 C 0.12764 0.00056 0.46671 0.0
C436 C 0.14455 0.01715 0.46616 0.0
C437 C 0.16456 0.01706 0.42962 0.0
C438 C 0.08881 0.00748 0.60344 0.0
C439 C 0.06748 0.99911 0.58746 0.0
C440 C 0.10821 0.00784 0.56461 0.0
C441 C 0.10683 8e-05 0.50827 0.0
C442 C 0.08541 0.99173 0.49239 0.0
C443 C 0.06607 0.99115 0.53151 0.0
H444 H 0.45848 0.20338 0.42554 0.0
H445 H 0.45618 0.16867 0.2683 0.0
H446 H 0.46601 0.17097 0.48194 0.0
H447 H 0.46452 0.13614 0.32526 0.0
H448 H 0.50682 0.09057 0.44496 0.0
H449 H 0.49736 0.12152 0.38352 0.0
H450 H 0.44489 0.13635 0.5128 0.0
H451 H 0.45379 0.10517 0.57357 0.0
C452 C 0.45926 0.1888 0.40296 0.0
C453 C 0.45633 0.18867 0.3423 0.0
C454 C 0.46371 0.17022 0.43543 0.0
C455 C 0.46567 0.15099 0.40814 0.0
C456 C 0.46318 0.15078 0.34738 0.0
C457 C 0.45846 0.16942 0.3148 0.0
C458 C 0.49302 0.10021 0.45999 0.0
C459 C 0.48118 0.09538 0.51459 0.0
C460 C 0.48763 0.11796 0.42472 0.0
C461 C 0.47047 0.13139 0.44349 0.0
C462 C 0.45844 0.12644 0.49758 0.0
C463 C 0.46365 0.10862 0.53256 0.0
H464 H 0.3075 0.51723 0.33984 0.0
H465 H 0.32462 0.58366 0.35679 0.0
H466 H 0.33939 0.50775 0.40023 0.0
H467 H 0.35591 0.57424 0.41843 0.0
H468 H 0.42415 0.5504 0.47671 0.0
H469 H 0.39326 0.55887 0.41292 0.0
H470 H 0.34991 0.50902 0.50288 0.0
H471 H 0.38123 0.50002 0.56565 0.0
C472 C 0.31818 0.5298 0.35604 0.0
C473 C 0.31351 0.5512 0.3436 0.0
C474 C 0.33625 0.52437 0.39125 0.0
C475 C 0.35013 0.54024 0.41442 0.0
C476 C 0.3457 0.56162 0.40095 0.0
C477 C 0.32763 0.56703 0.36601 0.0
C478 C 0.4081 0.5411 0.48263 0.0
C479 C 0.4052 0.52446 0.52616 0.0
C480 C 0.39031 0.54611 0.44639 0.0
C481 C 0.36911 0.53462 0.45273 0.0
C482 C 0.36613 0.51802 0.49641 0.0
C483 C 0.38396 0.51303 0.53286 0.0
H484 H 0.09016 0.34444 0.30234 0.0
H485 H 0.08221 0.30455 0.46257 0.0
H486 H 0.07879 0.37474 0.3562 0.0
H487 H 0.07322 0.33503 0.51682 0.0
H488 H 0.03146 0.38667 0.59039 0.0
H489 H 0.04343 0.35701 0.53463 0.0
H490 H 0.08867 0.3997 0.42308 0.0
H491 H 0.07548 0.42952 0.47744 0.0
C492 C 0.08622 0.34208 0.34902 0.0
C493 C 0.08709 0.32185 0.37768 0.0
C494 C 0.08003 0.35961 0.38021 0.0
C495 C 0.07488 0.35744 0.44107 0.0
C496 C 0.07651 0.33736 0.46989 0.0
C497 C 0.08222 0.31982 0.43865 0.0
C498 C 0.04401 0.38962 0.55402 0.0
C499 C 0.05262 0.4103 0.53826 0.0
C500 C 0.05104 0.37262 0.52215 0.0
C501 C 0.06726 0.37579 0.47439 0.0
C502 C 0.07593 0.39659 0.4589 0.0
C503 C 0.06852 0.41369 0.4902 0.0
H504 H 0.8552 0.0409 0.0023 0.0
H505 H 0.84338 0.97297 0.00485 0.0
H506 H 0.88971 0.0383 0.93899 0.0
H507 H 0.87834 0.97028 0.94226 0.0
H508 H 0.92652 0.97829 0.77331 0.0
H509 H 0.89265 0.9796 0.84033 0.0
H510 H 0.92848 0.0256 0.93892 0.0
H511 H 0.96213 0.02449 0.87184 0.0
C512 C 0.86004 0.02536 0.98958 0.0
C513 C 0.84641 0.00715 0.00858 0.0
C514 C 0.87997 0.02385 0.95359 0.0
C515 C 0.88685 0.00408 0.93525 0.0
C516 C 0.87344 0.98579 0.95497 0.0
C517 C 0.85354 0.9873 0.99143 0.0
C518 C 0.92717 0.98868 0.80929 0.0
C519 C 0.94708 0.00134 0.81691 0.0
C520 C 0.90779 0.98932 0.84802 0.0
C521 C 0.90776 0.00273 0.89513 0.0
C522 C 0.92773 0.01528 0.9028 0.0
C523 C 0.94711 0.01457 0.86436 0.0
H524 H 0.52078 0.81234 0.09816 0.0
H525 H 0.59195 0.81989 0.03697 0.0
H526 H 0.51224 0.84453 0.04094 0.0
H527 H 0.58383 0.85263 0.98165 0.0
H528 H 0.55725 0.8934 0.83244 0.0
H529 H 0.56602 0.86307 0.89592 0.0
H530 H 0.51586 0.88158 0.02686 0.0
H531 H 0.50581 0.91097 0.96141 0.0
C532 C 0.53471 0.82126 0.07366 0.0
C533 C 0.55699 0.81364 0.07178 0.0
C534 C 0.52986 0.83974 0.0408 0.0
C535 C 0.54728 0.85116 0.00589 0.0
C536 C 0.56983 0.84401 0.00663 0.0
C537 C 0.57458 0.82538 0.03878 0.0
C538 C 0.54779 0.89086 0.87433 0.0
C539 C 0.53073 0.90471 0.89141 0.0
C540 C 0.55314 0.87361 0.9114 0.0
C541 C 0.5418 0.86985 0.96699 0.0
C542 C 0.52483 0.88377 0.98424 0.0
C543 C 0.51928 0.90088 0.94687 0.0
H544 H 0.7184 0.44423 0.971 0.0
H545 H 0.6806 0.4687 0.11808 0.0
H546 H 0.68734 0.45241 0.90869 0.0
H547 H 0.64846 0.47505 0.05674 0.0
H548 H 0.60354 0.5042 0.92014 0.0
H549 H 0.6355 0.49714 0.98201 0.0
H550 H 0.65081 0.44225 0.88445 0.0
H551 H 0.61962 0.45023 0.82081 0.0
C552 C 0.70347 0.45137 0.99028 0.0
C553 C 0.70231 0.45604 0.04976 0.0
C554 C 0.68534 0.4557 0.95452 0.0
C555 C 0.66519 0.4644 0.9773 0.0
C556 C 0.6638 0.4687 0.03709 0.0
C557 C 0.68216 0.46471 0.07272 0.0
C558 C 0.6139 0.49071 0.91195 0.0
C559 C 0.60925 0.47781 0.86566 0.0
C560 C 0.63211 0.48651 0.94771 0.0
C561 C 0.64585 0.46903 0.93874 0.0
C562 C 0.64102 0.4561 0.89225 0.0
C563 C 0.62308 0.46058 0.8558 0.0
H564 H 0.94275 0.65683 0.10299 0.0
H565 H 0.91109 0.68446 0.95182 0.0
H566 H 0.94902 0.62457 0.05133 0.0
H567 H 0.91745 0.6523 0.90021 0.0
H568 H 0.96696 0.60874 0.80452 0.0
H569 H 0.95342 0.63788 0.86045 0.0
H570 H 0.93098 0.5935 0.00437 0.0
H571 H 0.94493 0.56422 0.94836 0.0
C572 C 0.93662 0.65581 0.05933 0.0
C573 C 0.92673 0.6733 0.03116 0.0
C574 C 0.94023 0.63735 0.0297 0.0
C575 C 0.93405 0.63605 0.97138 0.0
C576 C 0.92283 0.65302 0.94468 0.0
C577 C 0.91918 0.67141 0.97425 0.0
C578 C 0.95912 0.6052 0.84807 0.0
C579 C 0.95712 0.58423 0.87219 0.0
C580 C 0.95113 0.62185 0.87989 0.0
C581 C 0.94105 0.61797 0.93677 0.0
C582 C 0.93876 0.59697 0.96073 0.0
C583 C 0.94659 0.58023 0.92857 0.0
H584 H 0.00477 0.15831 0.4539 0.0
H585 H 0.04745 0.11431 0.36561 0.0
H586 H 0.98516 0.12863 0.51186 0.0
H587 H 0.02771 0.08488 0.42248 0.0
H588 H 0.98526 0.03312 0.51286 0.0
H589 H 0.99084 0.06428 0.44442 0.0
H590 H 0.99852 0.10418 0.58995 0.0
H591 H 0.99275 0.07326 0.65791 0.0
C592 C 0.00988 0.14234 0.4466 0.0
C593 C 0.02777 0.13871 0.4053 0.0
C594 C 0.99853 0.12536 0.47943 0.0
C595 C 0.00477 0.10442 0.4714 0.0
C596 C 0.02211 0.10077 0.42877 0.0
C597 C 0.03351 0.1177 0.39628 0.0
C598 C 0.98729 0.04865 0.53017 0.0
C599 C 0.98893 0.05077 0.59054 0.0
C600 C 0.99068 0.06645 0.49104 0.0
C601 C 0.99552 0.0866 0.51183 0.0
C602 C 0.99478 0.08891 0.57252 0.0
C603 C 0.99158 0.07116 0.61148 0.0
H604 H 0.38649 0.98181 0.36702 0.0
H605 H 0.35523 0.92958 0.47629 0.0
H606 H 0.42008 0.98155 0.42479 0.0
H607 H 0.38971 0.92832 0.5332 0.0
H608 H 0.4408 0.955 0.66441 0.0
H609 H 0.40915 0.94661 0.60278 0.0
H610 H 0.45297 0.96507 0.44851 0.0
H611 H 0.48375 0.97505 0.51102 0.0
C612 C 0.38713 0.96993 0.40288 0.0
C613 C 0.3684 0.95567 0.41719 0.0
C614 C 0.40652 0.96959 0.43582 0.0
C615 C 0.40793 0.95468 0.48345 0.0
C616 C 0.38922 0.94014 0.49723 0.0
C617 C 0.36951 0.94077 0.46468 0.0
C618 C 0.44369 0.95667 0.61721 0.0
C619 C 0.46449 0.96567 0.59207 0.0
C620 C 0.42559 0.95186 0.58173 0.0
C621 C 0.42822 0.95562 0.52046 0.0
C622 C 0.44997 0.96268 0.49552 0.0
C623 C 0.46776 0.9681 0.53107 0.0
H624 H 0.52352 0.35912 0.40794 0.0
H625 H 0.45878 0.38945 0.39459 0.0
H626 H 0.53815 0.38854 0.46311 0.0
H627 H 0.47314 0.41848 0.44945 0.0
H628 H 0.50642 0.47685 0.49892 0.0
H629 H 0.50107 0.44801 0.43413 0.0
H630 H 0.53176 0.40514 0.55847 0.0
H631 H 0.53787 0.4344 0.62255 0.0
C632 C 0.5124 0.37197 0.41723 0.0
C633 C 0.49012 0.37217 0.39644 0.0
C634 C 0.52078 0.3888 0.44854 0.0
C635 C 0.50698 0.40604 0.45945 0.0
C636 C 0.48449 0.40579 0.4401 0.0
C637 C 0.47619 0.38911 0.40893 0.0
C638 C 0.5127 0.46141 0.51145 0.0
C639 C 0.52235 0.45772 0.56577 0.0
C640 C 0.50944 0.44486 0.47471 0.0
C641 C 0.51536 0.42418 0.49208 0.0
C642 C 0.52697 0.42089 0.54401 0.0
C643 C 0.53054 0.43763 0.58059 0.0
H644 H 0.14073 0.58478 0.46033 0.0
H645 H 0.09309 0.60962 0.33735 0.0
H646 H 0.10865 0.57227 0.52671 0.0
H647 H 0.06096 0.59578 0.40347 0.0
H648 H 0.03254 0.56953 0.63219 0.0
H649 H 0.05815 0.59351 0.56802 0.0
H650 H 0.06665 0.54411 0.44731 0.0
H651 H 0.04157 0.51996 0.5114 0.0
C652 C 0.12355 0.58831 0.44808 0.0
C653 C 0.11961 0.59803 0.3928 0.0
C654 C 0.10518 0.58098 0.48617 0.0
C655 C 0.08257 0.58308 0.4697 0.0
C656 C 0.07839 0.5941 0.41679 0.0
C657 C 0.09679 0.60179 0.3789 0.0
C658 C 0.03942 0.56396 0.59125 0.0
C659 C 0.03522 0.54284 0.57687 0.0
C660 C 0.054 0.57767 0.55477 0.0
C661 C 0.06406 0.57053 0.50304 0.0
C662 C 0.05879 0.5499 0.48691 0.0
C663 C 0.04456 0.53611 0.52365 0.0
H664 H 0.02379 0.84062 0.94471 0.0
H665 H 0.98414 0.88161 0.05184 0.0
H666 H 0.03891 0.87159 0.88384 0.0
H667 H 0.99944 0.91231 0.99191 0.0
H668 H 0.03421 0.9665 0.88878 0.0
H669 H 0.03337 0.93513 0.95675 0.0
H670 H 0.01955 0.89521 0.81438 0.0
H671 H 0.02064 0.92631 0.7468 0.0
C672 C 0.0185 0.85621 0.95567 0.0
C673 C 1.00261 0.8586 0.0029 0.0
C674 C 0.02726 0.87393 0.92104 0.0
C675 C 0.02038 0.89437 0.93311 0.0
C676 C 0.00543 0.89683 0.98207 0.0
C677 C 0.99661 0.87916 0.01643 0.0
C678 C 0.03167 0.95096 0.87184 0.0
C679 C 0.02713 0.94886 0.81274 0.0
C680 C 0.03105 0.93304 0.91075 0.0
C681 C 0.02611 0.91275 0.89101 0.0
C682 C 0.02354 0.91057 0.83096 0.0
C683 C 0.02398 0.92844 0.79228 0.0
H684 H 0.65474 0.0733 0.93303 0.0
H685 H 0.62586 0.01847 0.03602 0.0
H686 H 0.62043 0.07379 0.87535 0.0
H687 H 0.5925 0.01811 0.97765 0.0
H688 H 0.52875 0.02305 0.8915 0.0
H689 H 0.55881 0.03361 0.95538 0.0
H690 H 0.60224 0.05541 0.80317 0.0
H691 H 0.57121 0.04635 0.74014 0.0
C692 C 0.64102 0.06141 0.94323 0.0
C693 C 0.64275 0.046 0.98922 0.0
C694 C 0.62141 0.0616 0.91021 0.0
C695 C 0.60343 0.04614 0.92205 0.0
C696 C 0.60545 0.03075 0.9682 0.0
C697 C 0.62473 0.03081 0.00154 0.0
C698 C 0.54448 0.03079 0.87219 0.0
C699 C 0.54783 0.03394 0.81133 0.0
C700 C 0.56186 0.03658 0.90853 0.0
C701 C 0.58333 0.04477 0.88451 0.0
C702 C 0.58599 0.04926 0.82349 0.0
C703 C 0.56825 0.04405 0.78723 0.0
H704 H 0.49079 0.64057 0.98392 0.0
H705 H 0.55639 0.6113 0.98906 0.0
H706 H 0.47565 0.61101 0.93003 0.0
H707 H 0.54145 0.58208 0.93577 0.0
H708 H 0.50756 0.52294 0.89413 0.0
H709 H 0.51349 0.55227 0.95694 0.0
H710 H 0.48119 0.59415 0.83318 0.0
H711 H 0.4746 0.5644 0.77091 0.0
C712 C 0.50199 0.62795 0.97303 0.0
C713 C 0.52467 0.62806 0.99128 0.0
C714 C 0.49331 0.61103 0.94251 0.0
C715 C 0.50719 0.594 0.92999 0.0
C716 C 0.53008 0.59462 0.94646 0.0
C717 C 0.5387 0.61141 0.97674 0.0
C718 C 0.50103 0.53825 0.88136 0.0
C719 C 0.49084 0.54153 0.82761 0.0
C720 C 0.50462 0.55508 0.91696 0.0
C721 C 0.49842 0.57561 0.89903 0.0
C722 C 0.48621 0.5785 0.84795 0.0
C723 C 0.48236 0.56149 0.81246 0.0
H724 H 0.91894 0.39546 0.08905 0.0
H725 H 0.87223 0.41115 0.95344 0.0
H726 H 0.95138 0.4068 0.02129 0.0
H727 H 0.90471 0.42071 0.8856 0.0
H728 H 0.97229 0.42831 0.77252 0.0
H729 H 0.947 0.40531 0.83999 0.0
H730 H 0.95429 0.45003 0.97411 0.0
H731 H 0.97883 0.4734 0.90633 0.0
C732 C 0.91549 0.40079 0.04472 0.0
C733 C 0.89277 0.40287 0.02756 0.0
C734 C 0.93412 0.40701 0.00589 0.0
C735 C 0.93037 0.41464 0.94867 0.0
C736 C 0.90794 0.41466 0.92954 0.0
C737 C 0.8893 0.40903 0.96865 0.0
C738 C 0.96893 0.43295 0.81689 0.0
C739 C 0.97732 0.45265 0.83431 0.0
C740 C 0.95453 0.41981 0.85527 0.0
C741 C 0.94896 0.42593 0.91201 0.0
C742 C 0.95865 0.44491 0.9307 0.0
C743 C 0.97252 0.4583 0.89191 0.0
H744 H 0.07049 0.1906 0.97152 0.0
H745 H 0.13873 0.16624 0.97028 0.0
H746 H 0.05765 0.16146 0.9151 0.0
H747 H 0.12542 0.13633 0.91603 0.0
H748 H 0.0935 0.08933 0.79142 0.0
H749 H 0.10944 0.12232 0.82735 0.0
H750 H 0.05046 0.12446 0.94854 0.0
H751 H 0.03467 0.09175 0.91293 0.0
C752 C 0.083 0.17942 0.95781 0.0
C753 C 0.10562 0.18067 0.97634 0.0
C754 C 0.07548 0.16245 0.92625 0.0
C755 C 0.09032 0.14624 0.91266 0.0
C756 C 0.1135 0.14848 0.92621 0.0
C757 C 0.12109 0.16557 0.95761 0.0
C758 C 0.08409 0.09679 0.82612 0.0
C759 C 0.06274 0.08801 0.84906 0.0
C760 C 0.09316 0.11571 0.84645 0.0
C761 C 0.08102 0.12623 0.89 0.0
C762 C 0.05994 0.11714 0.91371 0.0
C763 C 0.05093 0.0983 0.89352 0.0
H764 H 0.3523 0.03166 0.0132 0.0
H765 H 0.3288 0.97684 0.92463 0.0
H766 H 0.38704 0.03465 0.94851 0.0
H767 H 0.36393 0.97946 0.86178 0.0
H768 H 0.44256 0.97263 0.83333 0.0
H769 H 0.4056 0.97356 0.88733 0.0
H770 H 0.40242 0.04032 0.83886 0.0
H771 H 0.43957 0.03939 0.78349 0.0
C772 C 0.3542 0.02051 0.97924 0.0
C773 C 0.33769 0.00382 0.97493 0.0
C774 C 0.37424 0.02219 0.94233 0.0
C775 C 0.3784 0.0071 0.90067 0.0
C776 C 0.36142 0.99111 0.89422 0.0
C777 C 0.34128 0.98959 0.93046 0.0
C778 C 0.43408 0.98757 0.83409 0.0
C779 C 0.44411 0.00595 0.80404 0.0
C780 C 0.41277 0.98804 0.86474 0.0
C781 C 0.40098 0.00697 0.86703 0.0
C782 C 0.4111 0.0255 0.83788 0.0
C783 C 0.43234 0.02495 0.80615 0.0
H784 H 0.40517 0.3601 0.94726 0.0
H785 H 0.47466 0.33917 0.92762 0.0
H786 H 0.41604 0.39182 0.88476 0.0
H787 H 0.48504 0.37007 0.86264 0.0
H788 H 0.50494 0.44013 0.83935 0.0
H789 H 0.49126 0.40632 0.88586 0.0
H790 H 0.42939 0.40907 0.79007 0.0
H791 H 0.44304 0.44355 0.74379 0.0
C792 C 0.42261 0.36196 0.92854 0.0
C793 C 0.43913 0.34721 0.9437 0.0
C794 C 0.42878 0.3801 0.89226 0.0
C795 C 0.45157 0.38379 0.86994 0.0
C796 C 0.46748 0.36803 0.88047 0.0
C797 C 0.46139 0.35003 0.91705 0.0
C798 C 0.48838 0.43363 0.82807 0.0
C799 C 0.47512 0.44456 0.78764 0.0
C800 C 0.48063 0.41405 0.85437 0.0
C801 C 0.45942 0.40471 0.84087 0.0
C802 C 0.44583 0.41581 0.80136 0.0
C803 C 0.45362 0.43556 0.77495 0.0
H804 H 0.16861 0.56424 0.88432 0.0
H805 H 0.15893 0.50655 0.99498 0.0
H806 H 0.1381 0.55202 0.82367 0.0
H807 H 0.12876 0.49416 0.93311 0.0
H808 H 0.08247 0.47677 0.77797 0.0
H809 H 0.11839 0.48503 0.82546 0.0
H810 H 0.09509 0.54753 0.85739 0.0
H811 H 0.0594 0.53933 0.81129 0.0
C812 C 0.16031 0.54877 0.89504 0.0
C813 C 0.16594 0.53655 0.94515 0.0
C814 C 0.14287 0.54178 0.86025 0.0
C815 C 0.13086 0.52231 0.87431 0.0
C816 C 0.13779 0.50922 0.92126 0.0
C817 C 0.15515 0.51631 0.95653 0.0
C818 C 0.08509 0.49225 0.79518 0.0
C819 C 0.06809 0.50737 0.79108 0.0
C820 C 0.10559 0.49694 0.82231 0.0
C821 C 0.10957 0.51699 0.84447 0.0
C822 C 0.09262 0.53207 0.83992 0.0
C823 C 0.07208 0.52728 0.81394 0.0
H824 H 0.94758 0.80929 0.43037 0.0
H825 H 0.88027 0.8346 0.4142 0.0
H826 H 0.95873 0.83875 0.48777 0.0
H827 H 0.89192 0.86471 0.47009 0.0
H828 H 0.9208 0.91102 0.60349 0.0
H829 H 0.90545 0.87833 0.56438 0.0
H830 H 0.9668 0.87597 0.45154 0.0
H831 H 0.98192 0.90849 0.4897 0.0
C832 C 0.93486 0.82074 0.4405 0.0
C833 C 0.91307 0.81964 0.41691 0.0
C834 C 0.94143 0.83787 0.47269 0.0
C835 C 0.92643 0.85434 0.48203 0.0
C836 C 0.90392 0.85233 0.46325 0.0
C837 C 0.8973 0.83512 0.43099 0.0
C838 C 0.93086 0.90362 0.56985 0.0
C839 C 0.9527 0.91225 0.55014 0.0
C840 C 0.92212 0.88486 0.54774 0.0
C841 C 0.93513 0.87435 0.50581 0.0
C842 C 0.95665 0.88333 0.48511 0.0
C843 C 0.96529 0.90203 0.50687 0.0
H844 H 0.66595 0.95577 0.42178 0.0
H845 H 0.67379 0.02398 0.42452 0.0
H846 H 0.63137 0.95621 0.48642 0.0
H847 H 0.63999 0.02428 0.49091 0.0
H848 H 0.56344 0.02122 0.54083 0.0
H849 H 0.59935 0.01946 0.48309 0.0
H850 H 0.61513 0.96248 0.5837 0.0
H851 H 0.57873 0.96403 0.64118 0.0
C852 C 0.66052 0.97084 0.4367 0.0
C853 C 0.67275 0.98985 0.41738 0.0
C854 C 0.64075 0.97106 0.47426 0.0
C855 C 0.63262 0.99031 0.49345 0.0
C856 C 0.64542 0.00918 0.47622 0.0
C857 C 0.66513 0.00896 0.43874 0.0
C858 C 0.57449 0.00826 0.55077 0.0
C859 C 0.56812 0.99278 0.59587 0.0
C860 C 0.59526 0.00735 0.51784 0.0
C861 C 0.61038 0.99095 0.52895 0.0
C862 C 0.6039 0.97528 0.5736 0.0
C863 C 0.58304 0.9762 0.60671 0.0
H864 H 0.60831 0.63765 0.44299 0.0
H865 H 0.53943 0.65976 0.46595 0.0
H866 H 0.59735 0.6062 0.50642 0.0
H867 H 0.52899 0.62912 0.53188 0.0
H868 H 0.50791 0.55929 0.55671 0.0
H869 H 0.52178 0.59295 0.50962 0.0
H870 H 0.58451 0.58922 0.60165 0.0
H871 H 0.57065 0.55488 0.64849 0.0
C872 C 0.591 0.6361 0.46262 0.0
C873 C 0.57464 0.6511 0.44813 0.0
C874 C 0.58477 0.61812 0.49946 0.0
C875 C 0.56211 0.61484 0.52301 0.0
C876 C 0.54643 0.63085 0.5131 0.0
C877 C 0.55257 0.64869 0.47596 0.0
C878 C 0.5247 0.56555 0.56707 0.0
C879 C 0.53815 0.55438 0.60656 0.0
C880 C 0.53257 0.58504 0.54044 0.0
C881 C 0.55409 0.59406 0.55266 0.0
C882 C 0.56783 0.58273 0.59132 0.0
C883 C 0.55992 0.56307 0.61807 0.0
H884 H 0.84119 0.43309 0.53113 0.0
H885 H 0.85038 0.49166 0.42393 0.0
H886 H 0.87313 0.44411 0.5889 0.0
H887 H 0.88175 0.5029 0.48338 0.0
H888 H 0.92928 0.5185 0.63741 0.0
H889 H 0.89293 0.51069 0.59165 0.0
H890 H 0.91626 0.44895 0.5514 0.0
H891 H 0.95252 0.45676 0.59576 0.0
C892 C 0.8497 0.44847 0.52049 0.0
C893 C 0.84342 0.46129 0.47211 0.0
C894 C 0.86796 0.45477 0.55369 0.0
C895 C 0.88008 0.4742 0.53998 0.0
C896 C 0.87264 0.48785 0.49491 0.0
C897 C 0.85455 0.48142 0.46109 0.0
C898 C 0.92661 0.50328 0.61867 0.0
C899 C 0.94379 0.48827 0.61998 0.0
C900 C 0.90586 0.49885 0.59256 0.0
C901 C 0.90174 0.47915 0.5686 0.0
C902 C 0.91886 0.46415 0.57027 0.0
C903 C 0.9397 0.46871 0.59523 0.0
loop_
_geom_bond_atom_site_label_1
_geom_bond_atom_site_label_2
_geom_bond_distance
_geom_bond_site_symmetry_2
_ccdc_geom_bond_type
C0 C1 1.384 . S
C0 H13 0.947 . S
C0 C35 1.382 . S
C1 C0 1.384 . S
C1 C2 1.378 . S
C2 C1 1.378 . S
C2 C3 1.378 . S
C2 H14 0.952 . S
C3 C2 1.378 . S
C3 H15 0.950 . S
C3 C34 1.383 . S
H4 C23 0.947 . S
H5 C24 0.946 . S
H6 C26 0.953 1_556 S
H7 C27 0.945 . S
H8 C29 0.952 . S
H9 C30 0.949 . S
H10 C32 0.950 . S
H11 C33 0.948 . S
H12 C35 0.951 . S
H13 C0 0.947 . S
H14 C2 0.952 . S
H15 C3 0.950 . S
N16 C19 1.382 . S
N16 C21 1.363 . S
N17 C19 1.371 . S
N17 C20 1.372 . S
N18 C20 1.361 . S
N18 C21 1.377 . S
C19 N16 1.382 . S
C19 N17 1.371 . S
C19 C22 1.480 . S
C20 N17 1.372 . S
C20 N18 1.361 . S
C20 C28 1.457 . S
C21 N16 1.363 . S
C21 N18 1.377 . S
C21 C34 1.479 . S
C22 C19 1.480 . S
C22 C23 1.383 . S
C22 C27 1.385 . S
C23 H4 0.947 . S
C23 C22 1.383 . S
C23 C24 1.388 . S
C24 H5 0.946 . S
C24 C23 1.388 . S
C24 C25 1.384 . S
C25 C24 1.384 . S
C25 C26 1.377 . S
C26 H6 0.953 1_554 S
C26 C25 1.377 . S
C26 C27 1.369 . S
C27 H7 0.945 . S
C27 C22 1.385 . S
C27 C26 1.369 . S
C28 C20 1.457 . S
C28 C29 1.372 1_554 S
C28 C33 1.364 . S
C29 H8 0.952 . S
C29 C28 1.372 1_556 S
C29 C30 1.389 . S
C30 H9 0.949 . S
C30 C29 1.389 . S
C30 C31 1.387 . S
C31 C30 1.387 . S
C31 C32 1.372 1_556 S
C32 H10 0.950 . S
C32 C31 1.372 1_554 S
C32 C33 1.379 . S
C33 H11 0.948 . S
C33 C28 1.364 . S
C33 C32 1.379 . S
C34 C3 1.383 . S
C34 C21 1.479 . S
C34 C35 1.398 . S
C35 C0 1.382 . S
C35 H12 0.951 . S
C35 C34 1.398 . S
C36 C37 1.384 . S
C36 H49 0.947 . S
C36 C71 1.382 . S
C37 C36 1.384 . S
C37 C38 1.378 . S
C38 C37 1.378 . S
C38 C39 1.378 . S
C38 H50 0.952 . S
C39 C38 1.378 . S
C39 H51 0.950 . S
C39 C70 1.383 . S
H40 C59 0.947 . S
H41 C60 0.946 . S
H42 C62 0.953 . S
H43 C63 0.945 . S
H44 C65 0.952 . S
H45 C66 0.949 . S
H46 C68 0.950 . S
H47 C69 0.948 . S
H48 C71 0.951 . S
H49 C36 0.947 . S
H50 C38 0.952 . S
H51 C39 0.950 . S
N52 C55 1.382 1_554 S
N52 C57 1.363 . S
N53 C55 1.371 . S
N53 C56 1.372 . S
N54 C56 1.361 1_554 S
N54 C57 1.377 . S
C55 N52 1.382 1_556 S
C55 N53 1.371 . S
C55 C58 1.480 . S
C56 N53 1.372 . S
C56 N54 1.361 1_556 S
C56 C64 1.457 . S
C57 N52 1.363 . S
C57 N54 1.377 . S
C57 C70 1.479 . S
C58 C55 1.480 . S
C58 C59 1.383 1_556 S
C58 C63 1.385 . S
C59 H40 0.947 . S
C59 C58 1.383 1_554 S
C59 C60 1.388 . S
C60 H41 0.946 . S
C60 C59 1.388 . S
C60 C61 1.384 1_554 S
C61 C60 1.384 1_556 S
C61 C62 1.377 . S
C62 H42 0.953 . S
C62 C61 1.377 . S
C62 C63 1.369 . S
C63 H43 0.945 . S
C63 C58 1.385 . S
C63 C62 1.369 . S
C64 C56 1.457 . S
C64 C65 1.372 . S
C64 C69 1.364 . S
C65 H44 0.952 . S
C65 C64 1.372 . S
C65 C66 1.389 . S
C66 H45 0.949 . S
C66 C65 1.389 . S
C66 C67 1.387 . S
C67 C66 1.387 . S
C67 C68 1.372 . S
C68 H46 0.950 . S
C68 C67 1.372 . S
C68 C69 1.379 . S
C69 H47 0.948 . S
C69 C64 1.364 . S
C69 C68 1.379 . S
C70 C39 1.383 . S
C70 C57 1.479 . S
C70 C71 1.398 . S
C71 C36 1.382 . S
C71 H48 0.951 . S
C71 C70 1.398 . S
C72 C73 1.383 1_565 S
C72 H85 0.947 . S
C72 C107 1.382 1_565 S
C73 C72 1.383 1_545 S
C73 C74 1.378 . S
C74 C73 1.378 . S
C74 C75 1.378 . S
C74 H86 0.952 . S
C75 C74 1.378 . S
C75 H87 0.950 . S
C75 C106 1.383 . S
H76 C95 0.947 . S
H77 C96 0.952 . S
H78 C98 0.953 . S
H79 C99 0.945 . S
H80 C101 0.948 1_565 S
H81 C102 0.959 . S
H82 C104 0.950 . S
H83 C105 0.948 . S
H84 C107 0.952 1_565 S
H85 C72 0.947 . S
H86 C74 0.952 . S
H87 C75 0.950 . S
N88 C91 1.382 . S
N88 C93 1.363 . S
N89 C91 1.371 . S
N89 C92 1.372 . S
N90 C92 1.361 . S
N90 C93 1.377 . S
C91 N88 1.382 . S
C91 N89 1.371 . S
C91 C94 1.480 . S
C92 N89 1.372 . S
C92 N90 1.361 . S
C92 C100 1.457 1_554 S
C93 N88 1.363 . S
C93 N90 1.377 . S
C93 C106 1.479 . S
C94 C91 1.480 . S
C94 C95 1.383 . S
C94 C99 1.385 1_554 S
C95 H76 0.947 . S
C95 C94 1.383 . S
C95 C96 1.384 1_545 S
C96 H77 0.952 . S
C96 C95 1.384 1_565 S
C96 C97 1.383 1_565 S
C97 C96 1.383 1_545 S
C97 C98 1.377 1_554 S
C98 H78 0.953 . S
C98 C97 1.377 1_556 S
C98 C99 1.369 . S
C99 H79 0.945 . S
C99 C94 1.385 1_556 S
C99 C98 1.369 . S
C100 C92 1.457 1_556 S
C100 C101 1.377 . S
C100 C105 1.364 1_556 S
C101 H80 0.948 1_545 S
C101 C100 1.377 . S
C101 C102 1.386 1_545 S
C102 H81 0.959 . S
C102 C101 1.386 1_565 S
C102 C103 1.380 1_565 S
C103 C102 1.380 1_545 S
C103 C104 1.372 . S
C104 H82 0.950 . S
C104 C103 1.372 . S
C104 C105 1.379 1_556 S
C105 H83 0.948 . S
C105 C100 1.364 1_554 S
C105 C104 1.379 1_554 S
C106 C75 1.383 . S
C106 C93 1.479 . S
C106 C107 1.398 . S
C107 C72 1.382 1_545 S
C107 H84 0.952 1_545 S
C107 C106 1.398 . S
C108 C109 1.384 . S
C108 H121 0.947 . S
C108 C143 1.382 1_556 S
C109 C108 1.384 . S
C109 C110 1.378 . S
C110 C109 1.378 . S
C110 C111 1.378 . S
C110 H122 0.952 . S
C111 C110 1.378 . S
C111 H123 0.950 . S
C111 C142 1.383 1_556 S
H112 C131 0.947 1_556 S
H113 C132 0.946 . S
H114 C134 0.953 . S
H115 C135 0.945 . S
H116 C137 0.952 . S
H117 C138 0.949 . S
H118 C140 0.950 . S
H119 C141 0.948 . S
H120 C143 0.951 . S
H121 C108 0.947 . S
H122 C110 0.952 . S
H123 C111 0.950 . S
N124 C127 1.382 . S
N124 C129 1.363 . S
N125 C127 1.371 . S
N125 C128 1.372 . S
N126 C128 1.361 . S
N126 C129 1.377 . S
C127 N124 1.382 . S
C127 N125 1.371 . S
C127 C130 1.480 . S
C128 N125 1.372 . S
C128 N126 1.361 . S
C128 C136 1.457 . S
C129 N124 1.363 . S
C129 N126 1.377 . S
C129 C142 1.479 . S
C130 C127 1.480 . S
C130 C131 1.383 . S
C130 C135 1.385 . S
C131 H112 0.947 1_554 S
C131 C130 1.383 . S
C131 C132 1.388 1_554 S
C132 H113 0.946 . S
C132 C131 1.388 1_556 S
C132 C133 1.384 1_556 S
C133 C132 1.384 1_554 S
C133 C134 1.377 . S
C134 H114 0.953 . S
C134 C133 1.377 . S
C134 C135 1.369 . S
C135 H115 0.945 . S
C135 C130 1.385 . S
C135 C134 1.369 . S
C136 C128 1.457 . S
C136 C137 1.372 . S
C136 C141 1.364 . S
C137 H116 0.952 . S
C137 C136 1.372 . S
C137 C138 1.389 . S
C138 H117 0.949 . S
C138 C137 1.389 . S
C138 C139 1.387 . S
C139 C138 1.387 . S
C139 C140 1.372 . S
C140 H118 0.950 . S
C140 C139 1.372 . S
C140 C141 1.379 . S
C141 H119 0.948 . S
C141 C136 1.364 . S
C141 C140 1.379 . S
C142 C111 1.383 1_554 S
C142 C129 1.479 . S
C142 C143 1.398 . S
C143 C108 1.382 1_554 S
C143 H120 0.951 . S
C143 C142 1.398 . S
C144 C145 1.384 . S
C144 H157 0.947 . S
C144 C179 1.382 . S
C145 C144 1.384 . S
C145 C146 1.378 . S
C146 C145 1.378 . S
C146 C147 1.378 . S
C146 H158 0.952 . S
C147 C146 1.378 . S
C147 H159 0.950 . S
C147 C178 1.383 . S
H148 C167 0.947 . S
H149 C168 0.946 . S
H150 C170 0.953 . S
H151 C171 0.945 . S
H152 C173 0.952 . S
H153 C174 0.949 . S
H154 C176 0.950 . S
H155 C177 0.948 . S
H156 C179 0.951 . S
H157 C144 0.947 . S
H158 C146 0.952 . S
H159 C147 0.950 . S
N160 C163 1.382 . S
N160 C165 1.363 . S
N161 C163 1.371 . S
N161 C164 1.372 . S
N162 C164 1.361 . S
N162 C165 1.377 . S
C163 N160 1.382 . S
C163 N161 1.371 . S
C163 C166 1.480 . S
C164 N161 1.372 . S
C164 N162 1.361 . S
C164 C172 1.457 . S
C165 N160 1.363 . S
C165 N162 1.377 . S
C165 C178 1.479 . S
C166 C163 1.480 . S
C166 C167 1.383 . S
C166 C171 1.385 . S
C167 H148 0.947 . S
C167 C166 1.383 . S
C167 C168 1.388 . S
C168 H149 0.946 . S
C168 C167 1.388 . S
C168 C169 1.384 . S
C169 C168 1.384 . S
C169 C170 1.377 . S
C170 H150 0.953 . S
C170 C169 1.377 . S
C170 C171 1.369 . S
C171 H151 0.945 . S
C171 C166 1.385 . S
C171 C170 1.369 . S
C172 C164 1.457 . S
C172 C173 1.372 . S
C172 C177 1.364 . S
C173 H152 0.952 . S
C173 C172 1.372 . S
C173 C174 1.389 . S
C174 H153 0.949 . S
C174 C173 1.389 . S
C174 C175 1.387 . S
C175 C174 1.387 . S
C175 C176 1.372 . S
C176 H154 0.950 . S
C176 C175 1.372 . S
C176 C177 1.379 . S
C177 H155 0.948 . S
C177 C172 1.364 . S
C177 C176 1.379 . S
C178 C147 1.383 . S
C178 C165 1.479 . S
C178 C179 1.398 . S
C179 C144 1.382 . S
C179 H156 0.951 . S
C179 C178 1.398 . S
C180 C181 1.384 . S
C180 H193 0.947 . S
C180 C215 1.382 . S
C181 C180 1.384 . S
C181 C182 1.378 . S
C182 C181 1.378 . S
C182 C183 1.378 . S
C182 H194 0.952 . S
C183 C182 1.378 . S
C183 H195 0.950 . S
C183 C214 1.383 . S
H184 C203 0.947 . S
H185 C204 0.946 . S
H186 C206 0.953 . S
H187 C207 0.945 . S
H188 C209 0.952 . S
H189 C210 0.949 . S
H190 C212 0.950 . S
H191 C213 0.948 . S
H192 C215 0.951 . S
H193 C180 0.947 . S
H194 C182 0.952 . S
H195 C183 0.950 . S
N196 C199 1.382 . S
N196 C201 1.363 . S
N197 C199 1.371 . S
N197 C200 1.372 . S
N198 C200 1.361 . S
N198 C201 1.377 . S
C199 N196 1.382 . S
C199 N197 1.371 . S
C199 C202 1.480 . S
C200 N197 1.372 . S
C200 N198 1.361 . S
C200 C208 1.457 . S
C201 N196 1.363 . S
C201 N198 1.377 . S
C201 C214 1.479 . S
C202 C199 1.480 . S
C202 C203 1.383 . S
C202 C207 1.385 . S
C203 H184 0.947 . S
C203 C202 1.383 . S
C203 C204 1.388 . S
C204 H185 0.946 . S
C204 C203 1.388 . S
C204 C205 1.384 . S
C205 C204 1.384 . S
C205 C206 1.377 . S
C206 H186 0.953 . S
C206 C205 1.377 . S
C206 C207 1.369 . S
C207 H187 0.945 . S
C207 C202 1.385 . S
C207 C206 1.369 . S
C208 C200 1.457 . S
C208 C209 1.372 . S
C208 C213 1.364 . S
C209 H188 0.952 . S
C209 C208 1.372 . S
C209 C210 1.389 . S
C210 H189 0.949 . S
C210 C209 1.389 . S
C210 C211 1.387 . S
C211 C210 1.387 . S
C211 C212 1.372 . S
C212 H190 0.950 . S
C212 C211 1.372 . S
C212 C213 1.379 . S
C213 H191 0.948 . S
C213 C208 1.364 . S
C213 C212 1.379 . S
C214 C183 1.383 . S
C214 C201 1.479 . S
C214 C215 1.398 . S
C215 C180 1.382 . S
C215 H192 0.951 . S
C215 C214 1.398 . S
C216 C217 1.384 . S
C216 H229 0.948 1_545 S
C216 C251 1.381 . S
C217 C216 1.384 . S
C217 C218 1.378 . S
C218 C217 1.378 . S
C218 C219 1.378 . S
C218 H230 0.952 . S
C219 C218 1.378 . S
C219 H231 0.950 . S
C219 C250 1.383 . S
H220 C239 0.947 . S
H221 C240 0.949 . S
H222 C242 0.953 . S
H223 C243 0.945 . S
H224 C245 0.949 1_565 S
H225 C246 0.952 . S
H226 C248 0.950 . S
H227 C249 0.948 . S
H228 C251 0.950 1_565 S
H229 C216 0.948 1_565 S
H230 C218 0.952 . S
H231 C219 0.950 . S
N232 C235 1.382 . S
N232 C237 1.363 . S
N233 C235 1.371 . S
N233 C236 1.372 . S
N234 C236 1.361 . S
N234 C237 1.377 . S
C235 N232 1.382 . S
C235 N233 1.371 . S
C235 C238 1.480 . S
C236 N233 1.372 . S
C236 N234 1.361 . S
C236 C244 1.457 . S
C237 N232 1.363 . S
C237 N234 1.377 . S
C237 C250 1.479 . S
C238 C235 1.480 . S
C238 C239 1.383 . S
C238 C243 1.385 . S
C239 H220 0.947 . S
C239 C238 1.383 . S
C239 C240 1.388 1_545 S
C240 H221 0.949 . S
C240 C239 1.388 1_565 S
C240 C241 1.381 1_565 S
C241 C240 1.381 1_545 S
C241 C242 1.377 . S
C242 H222 0.953 . S
C242 C241 1.377 . S
C242 C243 1.369 . S
C243 H223 0.945 . S
C243 C238 1.385 . S
C243 C242 1.369 . S
C244 C236 1.457 . S
C244 C245 1.377 . S
C244 C249 1.364 . S
C245 H224 0.949 1_545 S
C245 C244 1.377 . S
C245 C246 1.387 1_545 S
C246 H225 0.952 . S
C246 C245 1.387 1_565 S
C246 C247 1.385 1_565 S
C247 C246 1.385 1_545 S
C247 C248 1.372 . S
C248 H226 0.950 . S
C248 C247 1.372 . S
C248 C249 1.379 . S
C249 H227 0.948 . S
C249 C244 1.364 . S
C249 C248 1.379 . S
C250 C219 1.383 . S
C250 C237 1.479 . S
C250 C251 1.400 . S
C251 C216 1.381 . S
C251 H228 0.950 1_545 S
C251 C250 1.400 . S
C252 C253 1.384 . S
C252 H265 0.947 . S
C252 C287 1.382 . S
C253 C252 1.384 . S
C253 C254 1.378 . S
C254 C253 1.378 . S
C254 C255 1.378 . S
C254 H266 0.952 . S
C255 C254 1.378 . S
C255 H267 0.950 . S
C255 C286 1.383 . S
H256 C275 0.947 . S
H257 C276 0.946 . S
H258 C278 0.953 . S
H259 C279 0.945 . S
H260 C281 0.952 . S
H261 C282 0.949 . S
H262 C284 0.950 . S
H263 C285 0.948 . S
H264 C287 0.951 . S
H265 C252 0.947 . S
H266 C254 0.952 . S
H267 C255 0.950 . S
N268 C271 1.382 . S
N268 C273 1.363 . S
N269 C271 1.371 . S
N269 C272 1.372 . S
N270 C272 1.361 . S
N270 C273 1.377 . S
C271 N268 1.382 . S
C271 N269 1.371 . S
C271 C274 1.480 . S
C272 N269 1.372 . S
C272 N270 1.361 . S
C272 C280 1.457 . S
C273 N268 1.363 . S
C273 N270 1.377 . S
C273 C286 1.479 . S
C274 C271 1.480 . S
C274 C275 1.383 . S
C274 C279 1.385 . S
C275 H256 0.947 . S
C275 C274 1.383 . S
C275 C276 1.388 . S
C276 H257 0.946 . S
C276 C275 1.388 . S
C276 C277 1.384 . S
C277 C276 1.384 . S
C277 C278 1.377 . S
C278 H258 0.953 . S
C278 C277 1.377 . S
C278 C279 1.369 . S
C279 H259 0.945 . S
C279 C274 1.385 . S
C279 C278 1.369 . S
C280 C272 1.457 . S
C280 C281 1.372 . S
C280 C285 1.364 . S
C281 H260 0.952 . S
C281 C280 1.372 . S
C281 C282 1.389 . S
C282 H261 0.949 . S
C282 C281 1.389 . S
C282 C283 1.387 . S
C283 C282 1.387 . S
C283 C284 1.372 . S
C284 H262 0.950 . S
C284 C283 1.372 . S
C284 C285 1.379 . S
C285 H263 0.948 . S
C285 C280 1.364 . S
C285 C284 1.379 . S
C286 C255 1.383 . S
C286 C273 1.479 . S
C286 C287 1.398 . S
C287 C252 1.382 . S
C287 H264 0.951 . S
C287 C286 1.398 . S
C288 O304 1.251 . S
C288 O306 1.254 1_655 S
N289 C290 1.333 . S
N289 C294 1.307 . S
N289 Zn295 2.020 . S
C290 N289 1.333 . S
C290 C291 1.379 . S
C290 H308 0.952 . S
C291 C290 1.379 . S
C291 C292 1.390 . S
C291 H318 0.949 . S
C292 C291 1.390 . S
C292 C293 1.357 . S
C293 C292 1.357 . S
C293 C294 1.370 . S
C293 H319 0.950 . S
C294 N289 1.307 . S
C294 C293 1.370 . S
C294 H312 0.954 . S
Zn295 N289 2.020 . S
Zn295 O304 2.039 . S
Zn295 O310 2.034 1_655 S
Zn295 O314 2.023 1_665 S
Zn295 O316 2.037 . S
C296 O315 1.246 . S
C296 O316 1.232 1_545 S
N297 C298 1.307 . S
N297 C299 1.333 . S
N297 Zn303 2.020 . S
C298 N297 1.307 . S
C298 C302 1.370 . S
C298 H309 0.966 . S
C299 N297 1.333 . S
C299 C300 1.379 . S
C299 H307 0.952 . S
C300 C299 1.379 . S
C300 C301 1.390 . S
C300 H320 0.949 . S
C301 C300 1.390 . S
C301 C302 1.357 . S
C302 C298 1.370 . S
C302 C301 1.357 . S
C302 H321 0.950 . S
Zn303 N297 2.020 . S
Zn303 O306 2.025 1_545 S
Zn303 O311 2.041 . S
Zn303 O313 2.039 . S
Zn303 O315 2.034 1_455 S
O304 C288 1.251 . S
O304 Zn295 2.039 . S
C305 O310 1.246 . S
C305 O311 1.226 1_565 S
O306 C288 1.254 1_455 S
O306 Zn303 2.025 1_565 S
H307 C299 0.952 . S
H308 C290 0.952 . S
H309 C298 0.966 . S
O310 Zn295 2.034 1_455 S
O310 C305 1.246 . S
O311 Zn303 2.041 . S
O311 C305 1.226 1_545 S
H312 C294 0.954 . S
O313 Zn303 2.039 . S
O313 C317 1.251 . S
O314 Zn295 2.023 1_445 S
O314 C317 1.261 . S
O315 C296 1.246 . S
O315 Zn303 2.034 1_655 S
O316 Zn295 2.037 . S
O316 C296 1.232 1_565 S
C317 O313 1.251 . S
C317 O314 1.261 . S
H318 C291 0.949 . S
H319 C293 0.950 . S
H320 C300 0.949 . S
H321 C302 0.950 . S
C322 O338 1.251 1_565 S
C322 O340 1.254 . S
N323 C324 1.333 . S
N323 C328 1.307 . S
N323 Zn329 2.020 . S
C324 N323 1.333 . S
C324 C325 1.379 . S
C324 H342 0.952 . S
C325 C324 1.379 . S
C325 C326 1.390 . S
C325 H352 0.949 . S
C326 C325 1.390 . S
C326 C327 1.357 . S
C327 C326 1.357 . S
C327 C328 1.370 . S
C327 H353 0.950 . S
C328 N323 1.307 . S
C328 C327 1.370 . S
C328 H346 0.948 . S
Zn329 N323 2.020 . S
Zn329 O338 2.039 . S
Zn329 O344 2.034 . S
Zn329 O348 2.025 . S
Zn329 O350 2.024 . S
C330 O349 1.246 1_545 S
C330 O350 1.249 . S
N331 C332 1.307 . S
N331 C333 1.333 . S
N331 Zn337 2.020 . S
C332 N331 1.307 . S
C332 C336 1.370 . S
C332 H343 0.948 . S
C333 N331 1.333 . S
C333 C334 1.379 . S
C333 H341 0.952 . S
C334 C333 1.379 . S
C334 C335 1.390 . S
C334 H354 0.949 . S
C335 C334 1.390 . S
C335 C336 1.357 . S
C336 C332 1.370 . S
C336 C335 1.357 . S
C336 H355 0.950 . S
Zn337 N331 2.020 . S
Zn337 O340 2.025 . S
Zn337 O345 2.024 . S
Zn337 O347 2.039 . S
Zn337 O349 2.034 . S
O338 C322 1.251 1_545 S
O338 Zn329 2.039 . S
C339 O344 1.246 1_565 S
C339 O345 1.249 . S
O340 C322 1.254 . S
O340 Zn337 2.025 . S
H341 C333 0.952 . S
H342 C324 0.952 . S
H343 C332 0.948 . S
O344 Zn329 2.034 . S
O344 C339 1.246 1_545 S
O345 Zn337 2.024 . S
O345 C339 1.249 . S
H346 C328 0.948 . S
O347 Zn337 2.039 . S
O347 C351 1.251 1_565 S
O348 Zn329 2.025 . S
O348 C351 1.254 . S
O349 C330 1.246 1_565 S
O349 Zn337 2.034 . S
O350 Zn329 2.024 . S
O350 C330 1.249 . S
C351 O347 1.251 1_545 S
C351 O348 1.254 . S
H352 C325 0.949 . S
H353 C327 0.950 . S
H354 C334 0.949 . S
H355 C336 0.950 . S
C356 O372 1.251 . S
C356 O374 1.254 . S
N357 C358 1.333 . S
N357 C362 1.307 . S
N357 Zn363 2.020 . S
C358 N357 1.333 . S
C358 C359 1.379 . S
C358 H376 0.952 . S
C359 C358 1.379 . S
C359 C360 1.390 . S
C359 H386 0.949 . S
C360 C359 1.390 . S
C360 C361 1.357 . S
C361 C360 1.357 . S
C361 C362 1.370 . S
C361 H387 0.950 . S
C362 N357 1.307 . S
C362 C361 1.370 . S
C362 H380 0.948 . S
Zn363 N357 2.020 . S
Zn363 O372 2.039 . S
Zn363 O378 2.034 . S
Zn363 O382 2.025 . S
Zn363 O384 2.024 . S
C364 O383 1.246 . S
C364 O384 1.249 . S
N365 C366 1.307 . S
N365 C367 1.333 . S
N365 Zn371 2.020 . S
C366 N365 1.307 . S
C366 C370 1.370 . S
C366 H377 0.948 . S
C367 N365 1.333 . S
C367 C368 1.379 . S
C367 H375 0.952 . S
C368 C367 1.379 . S
C368 C369 1.390 . S
C368 H388 0.949 . S
C369 C368 1.390 . S
C369 C370 1.357 . S
C370 C366 1.370 . S
C370 C369 1.357 . S
C370 H389 0.950 . S
Zn371 N365 2.020 . S
Zn371 O374 2.025 . S
Zn371 O379 2.024 . S
Zn371 O381 2.039 . S
Zn371 O383 2.034 . S
O372 C356 1.251 . S
O372 Zn363 2.039 . S
C373 O378 1.246 . S
C373 O379 1.249 . S
O374 C356 1.254 . S
O374 Zn371 2.025 . S
H375 C367 0.952 . S
H376 C358 0.952 . S
H377 C366 0.948 . S
O378 Zn363 2.034 . S
O378 C373 1.246 . S
O379 Zn371 2.024 . S
O379 C373 1.249 . S
H380 C362 0.948 . S
O381 Zn371 2.039 . S
O381 C385 1.251 . S
O382 Zn363 2.025 . S
O382 C385 1.254 . S
O383 C364 1.246 . S
O383 Zn371 2.034 . S
O384 Zn363 2.024 . S
O384 C364 1.249 . S
C385 O381 1.251 . S
C385 O382 1.254 . S
H386 C359 0.949 . S
H387 C361 0.950 . S
H388 C368 0.949 . S
H389 C370 0.950 . S
C390 O406 1.251 . S
C390 O408 1.254 . S
N391 C392 1.333 . S
N391 C396 1.307 . S
N391 Zn397 2.020 . S
C392 N391 1.333 . S
C392 C393 1.379 . S
C392 H410 0.952 . S
C393 C392 1.379 . S
C393 C394 1.390 . S
C393 H420 0.949 . S
C394 C393 1.390 . S
C394 C395 1.357 . S
C395 C394 1.357 . S
C395 C396 1.370 . S
C395 H421 0.950 . S
C396 N391 1.307 . S
C396 C395 1.370 . S
C396 H414 0.948 . S
Zn397 N391 2.020 . S
Zn397 O406 2.039 . S
Zn397 O412 2.034 1_455 S
Zn397 O416 2.025 1_455 S
Zn397 O418 2.024 . S
C398 O417 1.246 . S
C398 O418 1.249 . S
N399 C400 1.307 . S
N399 C401 1.333 . S
N399 Zn405 2.020 . S
C400 N399 1.307 . S
C400 C404 1.370 . S
C400 H411 0.948 . S
C401 N399 1.333 . S
C401 C402 1.379 . S
C401 H409 0.952 . S
C402 C401 1.379 . S
C402 C403 1.390 . S
C402 H422 0.949 . S
C403 C402 1.390 . S
C403 C404 1.357 . S
C404 C400 1.370 . S
C404 C403 1.357 . S
C404 H423 0.950 . S
Zn405 N399 2.020 . S
Zn405 O408 2.025 1_655 S
Zn405 O413 2.024 . S
Zn405 O415 2.039 . S
Zn405 O417 2.034 1_655 S
O406 C390 1.251 . S
O406 Zn397 2.039 . S
C407 O412 1.246 . S
C407 O413 1.249 . S
O408 C390 1.254 . S
O408 Zn405 2.025 1_455 S
H409 C401 0.952 . S
H410 C392 0.952 . S
H411 C400 0.948 . S
O412 Zn397 2.034 1_655 S
O412 C407 1.246 . S
O413 Zn405 2.024 . S
O413 C407 1.249 . S
H414 C396 0.948 . S
O415 Zn405 2.039 . S
O415 C419 1.251 . S
O416 Zn397 2.025 1_655 S
O416 C419 1.254 . S
O417 C398 1.246 . S
O417 Zn405 2.034 1_455 S
O418 Zn397 2.024 . S
O418 C398 1.249 . S
C419 O415 1.251 . S
C419 O416 1.254 . S
H420 C393 0.949 . S
H421 C395 0.950 . S
H422 C402 0.949 . S
H423 C404 0.950 . S
H424 C432 0.950 . S
H425 C437 0.950 . S
H426 C434 0.950 . S
H427 C436 0.950 . S
H428 C438 0.950 . S
H429 C440 0.950 . S
H430 C442 0.950 . S
H431 C443 0.950 . S
C432 H424 0.950 . S
C432 C433 1.433 . S
C432 C434 1.391 . S
C433 C432 1.433 . S
C433 C437 1.346 1_565 S
C434 H426 0.950 . S
C434 C432 1.391 . S
C434 C435 1.400 . S
C435 C434 1.400 . S
C435 C436 1.398 1_565 S
C435 C441 1.491 . S
C436 H427 0.950 . S
C436 C435 1.398 1_545 S
C436 C437 1.391 . S
C437 H425 0.950 . S
C437 C433 1.346 1_545 S
C437 C436 1.391 . S
C438 H428 0.950 . S
C438 C439 1.386 1_545 S
C438 C440 1.391 . S
C439 C438 1.386 1_565 S
C439 C443 1.393 . S
C440 H429 0.950 . S
C440 C438 1.391 . S
C440 C441 1.400 1_545 S
C441 C435 1.491 . S
C441 C440 1.400 1_565 S
C441 C442 1.398 . S
C442 H430 0.950 . S
C442 C441 1.398 . S
C442 C443 1.391 . S
C443 H431 0.950 . S
C443 C439 1.393 . S
C443 C442 1.391 . S
H444 C452 0.950 . S
H445 C457 0.950 . S
H446 C454 0.950 . S
H447 C456 0.950 . S
H448 C458 0.950 . S
H449 C460 0.950 . S
H450 C462 0.950 . S
H451 C463 0.950 . S
C452 H444 0.950 . S
C452 C453 1.386 . S
C452 C454 1.391 . S
C453 C452 1.386 . S
C453 C457 1.393 . S
C454 H446 0.950 . S
C454 C452 1.391 . S
C454 C455 1.400 . S
C455 C454 1.400 . S
C455 C456 1.398 . S
C455 C461 1.491 . S
C456 H447 0.950 . S
C456 C455 1.398 . S
C456 C457 1.391 . S
C457 H445 0.950 . S
C457 C453 1.393 . S
C457 C456 1.391 . S
C458 H448 0.950 . S
C458 C459 1.386 . S
C458 C460 1.391 . S
C459 C458 1.386 . S
C459 C463 1.393 . S
C460 H449 0.950 . S
C460 C458 1.391 . S
C460 C461 1.400 . S
C461 C455 1.491 . S
C461 C460 1.400 . S
C461 C462 1.398 . S
C462 H450 0.950 . S
C462 C461 1.398 . S
C462 C463 1.391 . S
C463 H451 0.950 . S
C463 C459 1.393 . S
C463 C462 1.391 . S
H464 C472 0.950 . S
H465 C477 0.950 . S
H466 C474 0.950 . S
H467 C476 0.950 . S
H468 C478 0.950 . S
H469 C480 0.950 . S
H470 C482 0.950 . S
H471 C483 0.950 . S
C472 H464 0.950 . S
C472 C473 1.386 . S
C472 C474 1.391 . S
C473 C472 1.386 . S
C473 C477 1.393 . S
C474 H466 0.950 . S
C474 C472 1.391 . S
C474 C475 1.400 . S
C475 C474 1.400 . S
C475 C476 1.398 . S
C475 C481 1.491 . S
C476 H467 0.950 . S
C476 C475 1.398 . S
C476 C477 1.391 . S
C477 H465 0.950 . S
C477 C473 1.393 . S
C477 C476 1.391 . S
C478 H468 0.950 . S
C478 C479 1.386 . S
C478 C480 1.391 . S
C479 C478 1.386 . S
C479 C483 1.393 . S
C480 H469 0.950 . S
C480 C478 1.391 . S
C480 C481 1.400 . S
C481 C475 1.491 . S
C481 C480 1.400 . S
C481 C482 1.398 . S
C482 H470 0.950 . S
C482 C481 1.398 . S
C482 C483 1.391 . S
C483 H471 0.950 . S
C483 C479 1.393 . S
C483 C482 1.391 . S
H484 C492 0.950 . S
H485 C497 0.950 . S
H486 C494 0.950 . S
H487 C496 0.950 . S
H488 C498 0.950 . S
H489 C500 0.950 . S
H490 C502 0.950 . S
H491 C503 0.950 . S
C492 H484 0.950 . S
C492 C493 1.386 . S
C492 C494 1.391 . S
C493 C492 1.386 . S
C493 C497 1.393 . S
C494 H486 0.950 . S
C494 C492 1.391 . S
C494 C495 1.400 . S
C495 C494 1.400 . S
C495 C496 1.398 . S
C495 C501 1.491 . S
C496 H487 0.950 . S
C496 C495 1.398 . S
C496 C497 1.391 . S
C497 H485 0.950 . S
C497 C493 1.393 . S
C497 C496 1.391 . S
C498 H488 0.950 . S
C498 C499 1.386 . S
C498 C500 1.391 . S
C499 C498 1.386 . S
C499 C503 1.393 . S
C500 H489 0.950 . S
C500 C498 1.391 . S
C500 C501 1.400 . S
C501 C495 1.491 . S
C501 C500 1.400 . S
C501 C502 1.398 . S
C502 H490 0.950 . S
C502 C501 1.398 . S
C502 C503 1.391 . S
C503 H491 0.950 . S
C503 C499 1.393 . S
C503 C502 1.391 . S
H504 C512 0.950 1_554 S
H505 C517 0.950 . S
H506 C514 0.950 . S
H507 C516 0.950 . S
H508 C518 0.950 . S
H509 C520 0.950 . S
H510 C522 0.950 . S
H511 C523 0.950 . S
C512 H504 0.950 1_556 S
C512 C513 1.396 . S
C512 C514 1.391 . S
C513 C512 1.396 . S
C513 C517 1.382 1_545 S
C514 H506 0.950 . S
C514 C512 1.391 . S
C514 C515 1.400 . S
C515 C514 1.400 . S
C515 C516 1.398 1_545 S
C515 C521 1.491 . S
C516 H507 0.950 . S
C516 C515 1.398 1_565 S
C516 C517 1.391 . S
C517 H505 0.950 . S
C517 C513 1.382 1_565 S
C517 C516 1.391 . S
C518 H508 0.950 . S
C518 C519 1.386 1_565 S
C518 C520 1.391 . S
C519 C518 1.386 1_545 S
C519 C523 1.393 . S
C520 H509 0.950 . S
C520 C518 1.391 . S
C520 C521 1.400 1_565 S
C521 C515 1.491 . S
C521 C520 1.400 1_545 S
C521 C522 1.398 . S
C522 H510 0.950 . S
C522 C521 1.398 . S
C522 C523 1.391 . S
C523 H511 0.950 . S
C523 C519 1.393 . S
C523 C522 1.391 . S
H524 C532 0.950 . S
H525 C537 0.950 . S
H526 C534 0.950 . S
H527 C536 0.950 . S
H528 C538 0.950 . S
H529 C540 0.950 . S
H530 C542 0.950 . S
H531 C543 0.950 . S
C532 H524 0.950 . S
C532 C533 1.381 1_554 S
C532 C534 1.391 1_554 S
C533 C532 1.381 1_556 S
C533 C537 1.406 . S
C534 H526 0.950 . S
C534 C532 1.391 1_556 S
C534 C535 1.400 . S
C535 C534 1.400 . S
C535 C536 1.398 . S
C535 C541 1.491 . S
C536 H527 0.950 . S
C536 C535 1.398 . S
C536 C537 1.391 . S
C537 H525 0.950 . S
C537 C533 1.406 . S
C537 C536 1.391 . S
C538 H528 0.950 . S
C538 C539 1.386 . S
C538 C540 1.391 . S
C539 C538 1.386 . S
C539 C543 1.393 . S
C540 H529 0.950 . S
C540 C538 1.391 . S
C540 C541 1.400 . S
C541 C535 1.491 . S
C541 C540 1.400 . S
C541 C542 1.398 . S
C542 H530 0.950 . S
C542 C541 1.398 . S
C542 C543 1.391 . S
C543 H531 0.950 . S
C543 C539 1.393 . S
C543 C542 1.391 . S
H544 C552 0.950 . S
H545 C557 0.950 . S
H546 C554 0.950 . S
H547 C556 0.950 . S
H548 C558 0.950 . S
H549 C560 0.950 . S
H550 C562 0.950 . S
H551 C563 0.950 . S
C552 H544 0.950 . S
C552 C553 1.386 1_556 S
C552 C554 1.391 . S
C553 C552 1.386 1_554 S
C553 C557 1.393 . S
C554 H546 0.950 . S
C554 C552 1.391 . S
C554 C555 1.400 . S
C555 C554 1.400 . S
C555 C556 1.398 1_556 S
C555 C561 1.491 . S
C556 H547 0.950 . S
C556 C555 1.398 1_554 S
C556 C557 1.391 . S
C557 H545 0.950 . S
C557 C553 1.393 . S
C557 C556 1.391 . S
C558 H548 0.950 . S
C558 C559 1.386 . S
C558 C560 1.391 . S
C559 C558 1.386 . S
C559 C563 1.393 . S
C560 H549 0.950 . S
C560 C558 1.391 . S
C560 C561 1.400 . S
C561 C555 1.491 . S
C561 C560 1.400 . S
C561 C562 1.398 . S
C562 H550 0.950 . S
C562 C561 1.398 . S
C562 C563 1.391 . S
C563 H551 0.950 . S
C563 C559 1.393 . S
C563 C562 1.391 . S
H564 C572 0.950 . S
H565 C577 0.950 . S
H566 C574 0.950 . S
H567 C576 0.950 . S
H568 C578 0.950 . S
H569 C580 0.950 . S
H570 C582 0.950 . S
H571 C583 0.950 . S
C572 H564 0.950 . S
C572 C573 1.386 . S
C572 C574 1.391 . S
C573 C572 1.386 . S
C573 C577 1.393 . S
C574 H566 0.950 . S
C574 C572 1.391 . S
C574 C575 1.400 . S
C575 C574 1.400 . S
C575 C576 1.398 . S
C575 C581 1.491 . S
C576 H567 0.950 . S
C576 C575 1.398 . S
C576 C577 1.391 . S
C577 H565 0.950 . S
C577 C573 1.393 . S
C577 C576 1.391 . S
C578 H568 0.950 . S
C578 C579 1.386 . S
C578 C580 1.391 . S
C579 C578 1.386 . S
C579 C583 1.393 . S
C580 H569 0.950 . S
C580 C578 1.391 . S
C580 C581 1.400 . S
C581 C575 1.491 . S
C581 C580 1.400 . S
C581 C582 1.398 . S
C582 H570 0.950 . S
C582 C581 1.398 . S
C582 C583 1.391 . S
C583 H571 0.950 . S
C583 C579 1.393 . S
C583 C582 1.391 . S
H584 C592 0.950 . S
H585 C597 0.950 . S
H586 C594 0.950 . S
H587 C596 0.950 . S
H588 C598 0.950 . S
H589 C600 0.950 . S
H590 C602 0.950 . S
H591 C603 0.950 1_655 S
C592 H584 0.950 . S
C592 C593 1.386 . S
C592 C594 1.391 . S
C593 C592 1.386 . S
C593 C597 1.393 . S
C594 H586 0.950 . S
C594 C592 1.391 . S
C594 C595 1.400 . S
C595 C594 1.400 . S
C595 C596 1.398 . S
C595 C601 1.491 . S
C596 H587 0.950 . S
C596 C595 1.398 . S
C596 C597 1.391 . S
C597 H585 0.950 . S
C597 C593 1.393 . S
C597 C596 1.391 . S
C598 H588 0.950 . S
C598 C599 1.386 . S
C598 C600 1.391 . S
C599 C598 1.386 . S
C599 C603 1.393 . S
C600 H589 0.950 . S
C600 C598 1.391 . S
C600 C601 1.400 . S
C601 C595 1.491 . S
C601 C600 1.400 . S
C601 C602 1.398 . S
C602 H590 0.950 . S
C602 C601 1.398 . S
C602 C603 1.391 . S
C603 H591 0.950 1_455 S
C603 C599 1.393 . S
C603 C602 1.391 . S
H604 C612 0.950 . S
H605 C617 0.950 . S
H606 C614 0.950 . S
H607 C616 0.950 . S
H608 C618 0.950 . S
H609 C620 0.950 . S
H610 C622 0.950 . S
H611 C623 0.950 . S
C612 H604 0.950 . S
C612 C613 1.412 . S
C612 C614 1.391 . S
C613 C612 1.412 . S
C613 C617 1.363 1_545 S
C614 H606 0.950 . S
C614 C612 1.391 . S
C614 C615 1.400 1_545 S
C615 C614 1.400 1_565 S
C615 C616 1.398 . S
C615 C621 1.491 . S
C616 H607 0.950 . S
C616 C615 1.398 . S
C616 C617 1.391 . S
C617 H605 0.950 . S
C617 C613 1.363 1_565 S
C617 C616 1.391 . S
C618 H608 0.950 . S
C618 C619 1.386 . S
C618 C620 1.391 . S
C619 C618 1.386 . S
C619 C623 1.393 1_565 S
C620 H609 0.950 . S
C620 C618 1.391 . S
C620 C621 1.400 . S
C621 C615 1.491 . S
C621 C620 1.400 . S
C621 C622 1.398 1_565 S
C622 H610 0.950 . S
C622 C621 1.398 1_545 S
C622 C623 1.391 . S
C623 H611 0.950 . S
C623 C619 1.393 1_545 S
C623 C622 1.391 . S
H624 C632 0.950 . S
H625 C637 0.950 . S
H626 C634 0.950 . S
H627 C636 0.950 . S
H628 C638 0.950 . S
H629 C640 0.950 . S
H630 C642 0.950 . S
H631 C643 0.950 . S
C632 H624 0.950 . S
C632 C633 1.386 . S
C632 C634 1.391 . S
C633 C632 1.386 . S
C633 C637 1.393 . S
C634 H626 0.950 . S
C634 C632 1.391 . S
C634 C635 1.400 . S
C635 C634 1.400 . S
C635 C636 1.398 . S
C635 C641 1.491 . S
C636 H627 0.950 . S
C636 C635 1.398 . S
C636 C637 1.391 . S
C637 H625 0.950 . S
C637 C633 1.393 . S
C637 C636 1.391 . S
C638 H628 0.950 . S
C638 C639 1.386 . S
C638 C640 1.391 . S
C639 C638 1.386 . S
C639 C643 1.393 . S
C640 H629 0.950 . S
C640 C638 1.391 . S
C640 C641 1.400 . S
C641 C635 1.491 . S
C641 C640 1.400 . S
C641 C642 1.398 . S
C642 H630 0.950 . S
C642 C641 1.398 . S
C642 C643 1.391 . S
C643 H631 0.950 . S
C643 C639 1.393 . S
C643 C642 1.391 . S
H644 C652 0.950 . S
H645 C657 0.950 . S
H646 C654 0.950 . S
H647 C656 0.950 . S
H648 C658 0.950 . S
H649 C660 0.950 . S
H650 C662 0.950 . S
H651 C663 0.950 . S
C652 H644 0.950 . S
C652 C653 1.386 . S
C652 C654 1.391 . S
C653 C652 1.386 . S
C653 C657 1.393 . S
C654 H646 0.950 . S
C654 C652 1.391 . S
C654 C655 1.400 . S
C655 C654 1.400 . S
C655 C656 1.398 . S
C655 C661 1.491 . S
C656 H647 0.950 . S
C656 C655 1.398 . S
C656 C657 1.391 . S
C657 H645 0.950 . S
C657 C653 1.393 . S
C657 C656 1.391 . S
C658 H648 0.950 . S
C658 C659 1.386 . S
C658 C660 1.391 . S
C659 C658 1.386 . S
C659 C663 1.393 . S
C660 H649 0.950 . S
C660 C658 1.391 . S
C660 C661 1.400 . S
C661 C655 1.491 . S
C661 C660 1.400 . S
C661 C662 1.398 . S
C662 H650 0.950 . S
C662 C661 1.398 . S
C662 C663 1.391 . S
C663 H651 0.950 . S
C663 C659 1.393 . S
C663 C662 1.391 . S
H664 C672 0.950 . S
H665 C677 0.950 . S
H666 C674 0.950 . S
H667 C676 0.950 . S
H668 C678 0.960 . S
H669 C680 0.950 . S
H670 C682 0.950 . S
H671 C683 0.950 . S
C672 H664 0.950 . S
C672 C673 1.386 . S
C672 C674 1.391 . S
C673 C672 1.386 . S
C673 C677 1.393 . S
C674 H666 0.950 . S
C674 C672 1.391 . S
C674 C675 1.400 . S
C675 C674 1.400 . S
C675 C676 1.398 . S
C675 C681 1.491 . S
C676 H667 0.950 . S
C676 C675 1.398 . S
C676 C677 1.391 . S
C677 H665 0.950 . S
C677 C673 1.393 . S
C677 C676 1.391 . S
C678 H668 0.960 . S
C678 C679 1.386 . S
C678 C680 1.391 . S
C679 C678 1.386 . S
C679 C683 1.393 . S
C680 H669 0.950 . S
C680 C678 1.391 . S
C680 C681 1.400 . S
C681 C675 1.491 . S
C681 C680 1.400 . S
C681 C682 1.398 . S
C682 H670 0.950 . S
C682 C681 1.398 . S
C682 C683 1.391 . S
C683 H671 0.950 . S
C683 C679 1.393 . S
C683 C682 1.391 . S
H684 C692 0.950 . S
H685 C697 0.950 . S
H686 C694 0.950 . S
H687 C696 0.950 . S
H688 C698 0.950 . S
H689 C700 0.950 . S
H690 C702 0.950 . S
H691 C703 0.950 . S
C692 H684 0.950 . S
C692 C693 1.386 . S
C692 C694 1.391 1_565 S
C693 C692 1.386 . S
C693 C697 1.390 1_565 S
C694 H686 0.950 . S
C694 C692 1.391 1_545 S
C694 C695 1.400 . S
C695 C694 1.400 . S
C695 C696 1.398 . S
C695 C701 1.491 . S
C696 H687 0.950 . S
C696 C695 1.398 . S
C696 C697 1.393 . S
C697 H685 0.950 . S
C697 C693 1.390 1_545 S
C697 C696 1.393 . S
C698 H688 0.950 . S
C698 C699 1.386 . S
C698 C700 1.391 . S
C699 C698 1.386 . S
C699 C703 1.393 . S
C700 H689 0.950 . S
C700 C698 1.391 . S
C700 C701 1.400 . S
C701 C695 1.491 . S
C701 C700 1.400 . S
C701 C702 1.398 . S
C702 H690 0.950 . S
C702 C701 1.398 . S
C702 C703 1.391 . S
C703 H691 0.950 . S
C703 C699 1.393 . S
C703 C702 1.391 . S
H704 C712 0.950 . S
H705 C717 0.950 . S
H706 C714 0.950 . S
H707 C716 0.950 . S
H708 C718 0.950 . S
H709 C720 0.950 . S
H710 C722 0.950 . S
H711 C723 0.950 . S
C712 H704 0.950 . S
C712 C713 1.386 . S
C712 C714 1.391 . S
C713 C712 1.386 . S
C713 C717 1.393 . S
C714 H706 0.950 . S
C714 C712 1.391 . S
C714 C715 1.400 . S
C715 C714 1.400 . S
C715 C716 1.398 . S
C715 C721 1.491 . S
C716 H707 0.950 . S
C716 C715 1.398 . S
C716 C717 1.391 . S
C717 H705 0.950 . S
C717 C713 1.393 . S
C717 C716 1.391 . S
C718 H708 0.950 . S
C718 C719 1.386 . S
C718 C720 1.391 . S
C719 C718 1.386 . S
C719 C723 1.393 . S
C720 H709 0.950 . S
C720 C718 1.391 . S
C720 C721 1.400 . S
C721 C715 1.491 . S
C721 C720 1.400 . S
C721 C722 1.398 . S
C722 H710 0.950 . S
C722 C721 1.398 . S
C722 C723 1.391 . S
C723 H711 0.950 . S
C723 C719 1.393 . S
C723 C722 1.391 . S
H724 C732 0.950 1_554 S
H725 C737 0.950 . S
H726 C734 0.950 . S
H727 C736 0.950 . S
H728 C738 0.950 . S
H729 C740 0.950 . S
H730 C742 0.950 . S
H731 C743 0.950 . S
C732 H724 0.950 1_556 S
C732 C733 1.386 . S
C732 C734 1.391 . S
C733 C732 1.386 . S
C733 C737 1.393 . S
C734 H726 0.950 . S
C734 C732 1.391 . S
C734 C735 1.400 . S
C735 C734 1.400 . S
C735 C736 1.398 . S
C735 C741 1.491 . S
C736 H727 0.950 . S
C736 C735 1.398 . S
C736 C737 1.391 . S
C737 H725 0.950 . S
C737 C733 1.393 . S
C737 C736 1.391 . S
C738 H728 0.950 . S
C738 C739 1.386 . S
C738 C740 1.391 . S
C739 C738 1.386 . S
C739 C743 1.393 . S
C740 H729 0.950 . S
C740 C738 1.391 . S
C740 C741 1.400 . S
C741 C735 1.491 . S
C741 C740 1.400 . S
C741 C742 1.398 . S
C742 H730 0.950 . S
C742 C741 1.398 . S
C742 C743 1.391 . S
C743 H731 0.950 . S
C743 C739 1.393 . S
C743 C742 1.391 . S
H744 C752 0.950 . S
H745 C757 0.950 . S
H746 C754 0.950 . S
H747 C756 0.950 . S
H748 C758 0.950 . S
H749 C760 0.950 . S
H750 C762 0.950 . S
H751 C763 0.950 . S
C752 H744 0.950 . S
C752 C753 1.386 . S
C752 C754 1.391 . S
C753 C752 1.386 . S
C753 C757 1.393 . S
C754 H746 0.950 . S
C754 C752 1.391 . S
C754 C755 1.400 . S
C755 C754 1.400 . S
C755 C756 1.398 . S
C755 C761 1.491 . S
C756 H747 0.950 . S
C756 C755 1.398 . S
C756 C757 1.391 . S
C757 H745 0.950 . S
C757 C753 1.393 . S
C757 C756 1.391 . S
C758 H748 0.950 . S
C758 C759 1.386 . S
C758 C760 1.391 . S
C759 C758 1.386 . S
C759 C763 1.393 1_556 S
C760 H749 0.950 . S
C760 C758 1.391 . S
C760 C761 1.400 1_556 S
C761 C755 1.491 . S
C761 C760 1.400 1_554 S
C761 C762 1.398 . S
C762 H750 0.950 . S
C762 C761 1.398 . S
C762 C763 1.391 . S
C763 H751 0.950 . S
C763 C759 1.393 1_554 S
C763 C762 1.391 . S
H764 C772 0.950 . S
H765 C777 0.955 . S
H766 C774 0.950 . S
H767 C776 0.951 . S
H768 C778 0.955 . S
H769 C780 0.955 . S
H770 C782 0.950 . S
H771 C783 0.950 . S
C772 H764 0.950 . S
C772 C773 1.386 1_556 S
C772 C774 1.391 . S
C773 C772 1.386 1_554 S
C773 C777 1.388 1_545 S
C774 H766 0.950 . S
C774 C772 1.391 . S
C774 C775 1.400 . S
C775 C774 1.400 . S
C775 C776 1.398 1_546 S
C775 C781 1.491 . S
C776 H767 0.951 . S
C776 C775 1.398 1_564 S
C776 C777 1.393 . S
C777 H765 0.955 . S
C777 C773 1.388 1_565 S
C777 C776 1.393 . S
C778 H768 0.955 . S
C778 C779 1.383 1_565 S
C778 C780 1.392 . S
C779 C778 1.383 1_545 S
C779 C783 1.393 . S
C780 H769 0.955 . S
C780 C778 1.392 . S
C780 C781 1.395 1_565 S
C781 C775 1.491 . S
C781 C780 1.395 1_545 S
C781 C782 1.398 . S
C782 H770 0.950 . S
C782 C781 1.398 . S
C782 C783 1.391 . S
C783 H771 0.950 . S
C783 C779 1.393 . S
C783 C782 1.391 . S
H784 C792 0.950 . S
H785 C797 0.950 . S
H786 C794 0.950 . S
H787 C796 0.950 . S
H788 C798 0.950 . S
H789 C800 0.950 . S
H790 C802 0.950 . S
H791 C803 0.950 . S
C792 H784 0.950 . S
C792 C793 1.386 . S
C792 C794 1.391 1_554 S
C793 C792 1.386 . S
C793 C797 1.393 1_554 S
C794 H786 0.950 . S
C794 C792 1.391 1_556 S
C794 C795 1.400 . S
C795 C794 1.400 . S
C795 C796 1.398 . S
C795 C801 1.491 . S
C796 H787 0.950 . S
C796 C795 1.398 . S
C796 C797 1.391 . S
C797 H785 0.950 . S
C797 C793 1.393 1_556 S
C797 C796 1.391 . S
C798 H788 0.950 . S
C798 C799 1.386 . S
C798 C800 1.391 . S
C799 C798 1.386 . S
C799 C803 1.393 . S
C800 H789 0.950 . S
C800 C798 1.391 . S
C800 C801 1.400 . S
C801 C795 1.491 . S
C801 C800 1.400 . S
C801 C802 1.398 . S
C802 H790 0.950 . S
C802 C801 1.398 . S
C802 C803 1.391 . S
C803 H791 0.950 . S
C803 C799 1.393 . S
C803 C802 1.391 . S
H804 C812 0.950 1_554 S
H805 C817 0.950 . S
H806 C814 0.950 . S
H807 C816 0.950 . S
H808 C818 0.950 . S
H809 C820 0.950 . S
H810 C822 0.950 . S
H811 C823 0.950 . S
C812 H804 0.950 1_556 S
C812 C813 1.386 . S
C812 C814 1.391 . S
C813 C812 1.386 . S
C813 C817 1.393 . S
C814 H806 0.950 . S
C814 C812 1.391 . S
C814 C815 1.400 . S
C815 C814 1.400 . S
C815 C816 1.398 . S
C815 C821 1.491 . S
C816 H807 0.950 . S
C816 C815 1.398 . S
C816 C817 1.391 . S
C817 H805 0.950 . S
C817 C813 1.393 . S
C817 C816 1.391 . S
C818 H808 0.950 . S
C818 C819 1.386 . S
C818 C820 1.391 . S
C819 C818 1.386 . S
C819 C823 1.393 . S
C820 H809 0.950 . S
C820 C818 1.391 . S
C820 C821 1.400 . S
C821 C815 1.491 . S
C821 C820 1.400 . S
C821 C822 1.398 . S
C822 H810 0.950 . S
C822 C821 1.398 . S
C822 C823 1.391 . S
C823 H811 0.950 . S
C823 C819 1.393 . S
C823 C822 1.391 . S
H824 C832 0.950 . S
H825 C837 0.950 . S
H826 C834 0.950 . S
H827 C836 0.950 . S
H828 C838 0.950 . S
H829 C840 0.950 . S
H830 C842 0.950 . S
H831 C843 0.950 . S
C832 H824 0.950 . S
C832 C833 1.386 . S
C832 C834 1.391 . S
C833 C832 1.386 . S
C833 C837 1.393 . S
C834 H826 0.950 . S
C834 C832 1.391 . S
C834 C835 1.400 . S
C835 C834 1.400 . S
C835 C836 1.398 . S
C835 C841 1.491 . S
C836 H827 0.950 . S
C836 C835 1.398 . S
C836 C837 1.391 . S
C837 H825 0.950 . S
C837 C833 1.393 . S
C837 C836 1.391 . S
C838 H828 0.950 . S
C838 C839 1.386 . S
C838 C840 1.391 . S
C839 C838 1.386 . S
C839 C843 1.393 . S
C840 H829 0.950 . S
C840 C838 1.391 . S
C840 C841 1.400 . S
C841 C835 1.491 . S
C841 C840 1.400 . S
C841 C842 1.398 . S
C842 H830 0.950 . S
C842 C841 1.398 . S
C842 C843 1.391 . S
C843 H831 0.950 . S
C843 C839 1.393 . S
C843 C842 1.391 . S
H844 C852 0.950 . S
H845 C857 0.950 . S
H846 C854 0.950 . S
H847 C856 0.950 . S
H848 C858 0.950 . S
H849 C860 0.950 . S
H850 C862 0.950 . S
H851 C863 0.950 . S
C852 H844 0.950 . S
C852 C853 1.386 1_565 S
C852 C854 1.391 . S
C853 C852 1.386 1_545 S
C853 C857 1.393 . S
C854 H846 0.950 . S
C854 C852 1.391 . S
C854 C855 1.400 . S
C855 C854 1.400 . S
C855 C856 1.398 1_565 S
C855 C861 1.491 . S
C856 H847 0.950 . S
C856 C855 1.398 1_545 S
C856 C857 1.391 . S
C857 H845 0.950 . S
C857 C853 1.393 . S
C857 C856 1.391 . S
C858 H848 0.950 . S
C858 C859 1.386 1_545 S
C858 C860 1.391 . S
C859 C858 1.386 1_565 S
C859 C863 1.393 . S
C860 H849 0.950 . S
C860 C858 1.391 . S
C860 C861 1.400 1_545 S
C861 C855 1.491 . S
C861 C860 1.400 1_565 S
C861 C862 1.398 . S
C862 H850 0.950 . S
C862 C861 1.398 . S
C862 C863 1.391 . S
C863 H851 0.950 . S
C863 C859 1.393 . S
C863 C862 1.391 . S
H864 C872 0.950 . S
H865 C877 0.950 . S
H866 C874 0.950 . S
H867 C876 0.950 . S
H868 C878 0.950 . S
H869 C880 0.950 . S
H870 C882 0.950 . S
H871 C883 0.950 . S
C872 H864 0.950 . S
C872 C873 1.386 . S
C872 C874 1.391 . S
C873 C872 1.386 . S
C873 C877 1.393 . S
C874 H866 0.950 . S
C874 C872 1.391 . S
C874 C875 1.400 . S
C875 C874 1.400 . S
C875 C876 1.398 . S
C875 C881 1.491 . S
C876 H867 0.950 . S
C876 C875 1.398 . S
C876 C877 1.391 . S
C877 H865 0.950 . S
C877 C873 1.393 . S
C877 C876 1.391 . S
C878 H868 0.950 . S
C878 C879 1.386 . S
C878 C880 1.391 . S
C879 C878 1.386 . S
C879 C883 1.393 . S
C880 H869 0.950 . S
C880 C878 1.391 . S
C880 C881 1.400 . S
C881 C875 1.491 . S
C881 C880 1.400 . S
C881 C882 1.398 . S
C882 H870 0.950 . S
C882 C881 1.398 . S
C882 C883 1.391 . S
C883 H871 0.950 . S
C883 C879 1.393 . S
C883 C882 1.391 . S
H884 C892 0.950 . S
H885 C897 0.950 . S
H886 C894 0.950 . S
H887 C896 0.950 . S
H888 C898 0.950 . S
H889 C900 0.950 . S
H890 C902 0.950 . S
H891 C903 0.950 . S
C892 H884 0.950 . S
C892 C893 1.386 . S
C892 C894 1.391 . S
C893 C892 1.386 . S
C893 C897 1.393 . S
C894 H886 0.950 . S
C894 C892 1.391 . S
C894 C895 1.400 . S
C895 C894 1.400 . S
C895 C896 1.398 . S
C895 C901 1.491 . S
C896 H887 0.950 . S
C896 C895 1.398 . S
C896 C897 1.391 . S
C897 H885 0.950 . S
C897 C893 1.393 . S
C897 C896 1.391 . S
C898 H888 0.950 . S
C898 C899 1.386 . S
C898 C900 1.391 . S
C899 C898 1.386 . S
C899 C903 1.393 . S
C900 H889 0.950 . S
C900 C898 1.391 . S
C900 C901 1.400 . S
C901 C895 1.491 . S
C901 C900 1.400 . S
C901 C902 1.398 . S
C902 H890 0.950 . S
C902 C901 1.398 . S
C902 C903 1.391 . S
C903 H891 0.950 . S
C903 C899 1.393 . S
C903 C902 1.391 . S
C433 C241 1.836 1_565 S
C439 C305 1.880 . S
C459 C326 1.743 . S
C453 C277 1.694 . S
C479 C360 1.556 . S
C473 C169 1.487 . S
C499 C394 1.715 . S
C493 C205 1.685 . S
C519 C296 1.891 . S
C513 C97 1.848 1_556 S
C533 C133 1.734 1_556 S
C539 C335 1.751 . S
C553 C25 1.527 . S
C559 C369 1.564 . S
C573 C61 1.647 . S
C579 C403 1.713 . S
C599 C317 0.586 . S
C593 C211 0.612 . S
C619 C322 0.438 . S
C613 C247 0.491 . S
C639 C356 0.559 . S
C633 C253 0.578 . S
C653 C175 0.460 . S
C659 C390 0.172 . S
C673 C67 0.721 . S
C679 C288 0.636 . S
C699 C351 0.441 . S
C693 C103 0.474 1_565 S
C719 C385 0.613 . S
C713 C109 0.618 . S
C733 C31 0.314 . S
C739 C419 0.173 . S
C753 C181 1.697 . S
C759 C301 1.757 . S
C773 C217 2.035 . S
C779 C330 2.131 . S
C799 C364 1.885 . S
C793 C283 1.726 . S
C819 C398 1.930 . S
C813 C145 1.816 1_556 S
C833 C37 1.640 . S
C839 C292 1.753 . S
C859 C339 2.135 . S
C853 C73 2.050 . S
C879 C373 1.889 . S
C873 C139 1.783 . S
C893 C1 1.833 . S
C899 C407 1.923 . S
