# Generated by pormake.
# Topology zzz, (3,6)-cn, num edge types: 1
# Building blocks:
#     Node 0, Type 0, BuildingBlock: BETDIP_clean_linker_0, # of connection points: 3
#     Node 1, Type 0, BuildingBlock: BETDIP_clean_linker_0, # of connection points: 3
#     Node 2, Type 0, BuildingBlock: BETDIP_clean_linker_0, # of connection points: 3
#     Node 3, Type 0, BuildingBlock: BETDIP_clean_linker_0, # of connection points: 3
#     Node 4, Type 0, BuildingBlock: BETDIP_clean_linker_0, # of connection points: 3
#     Node 5, Type 0, BuildingBlock: BETDIP_clean_linker_0, # of connection points: 3
#     Node 6, Type 0, BuildingBlock: BETDIP_clean_linker_0, # of connection points: 3
#     Node 7, Type 0, BuildingBlock: BETDIP_clean_linker_0, # of connection points: 3
#     Node 8, Type 1, BuildingBlock: GEDQOX_clean_sbu_0, # of connection points: 6
#     Node 9, Type 1, BuildingBlock: GEDQOX_clean_sbu_0, # of connection points: 6
#     Node 10, Type 1, BuildingBlock: GEDQOX_clean_sbu_0, # of connection points: 6
#     Node 11, Type 1, BuildingBlock: GEDQOX_clean_sbu_0, # of connection points: 6
#     Edge 12, Type (0, 1), BuildingBlock: CIFDUS_clean_linker_0, # of connection points: 2
#     Edge 13, Type (0, 1), BuildingBlock: CIFDUS_clean_linker_0, # of connection points: 2
#     Edge 14, Type (0, 1), BuildingBlock: CIFDUS_clean_linker_0, # of connection points: 2
#     Edge 15, Type (0, 1), BuildingBlock: CIFDUS_clean_linker_0, # of connection points: 2
#     Edge 16, Type (0, 1), BuildingBlock: CIFDUS_clean_linker_0, # of connection points: 2
#     Edge 17, Type (0, 1), BuildingBlock: CIFDUS_clean_linker_0, # of connection points: 2
#     Edge 18, Type (0, 1), BuildingBlock: CIFDUS_clean_linker_0, # of connection points: 2
#     Edge 19, Type (0, 1), BuildingBlock: CIFDUS_clean_linker_0, # of connection points: 2
#     Edge 20, Type (0, 1), BuildingBlock: CIFDUS_clean_linker_0, # of connection points: 2
#     Edge 21, Type (0, 1), BuildingBlock: CIFDUS_clean_linker_0, # of connection points: 2
#     Edge 22, Type (0, 1), BuildingBlock: CIFDUS_clean_linker_0, # of connection points: 2
#     Edge 23, Type (0, 1), BuildingBlock: CIFDUS_clean_linker_0, # of connection points: 2
#     Edge 24, Type (0, 1), BuildingBlock: CIFDUS_clean_linker_0, # of connection points: 2
#     Edge 25, Type (0, 1), BuildingBlock: CIFDUS_clean_linker_0, # of connection points: 2
#     Edge 26, Type (0, 1), BuildingBlock: CIFDUS_clean_linker_0, # of connection points: 2
#     Edge 27, Type (0, 1), BuildingBlock: CIFDUS_clean_linker_0, # of connection points: 2
#     Edge 28, Type (0, 1), BuildingBlock: CIFDUS_clean_linker_0, # of connection points: 2
#     Edge 29, Type (0, 1), BuildingBlock: CIFDUS_clean_linker_0, # of connection points: 2
#     Edge 30, Type (0, 1), BuildingBlock: CIFDUS_clean_linker_0, # of connection points: 2
#     Edge 31, Type (0, 1), BuildingBlock: CIFDUS_clean_linker_0, # of connection points: 2
#     Edge 32, Type (0, 1), BuildingBlock: CIFDUS_clean_linker_0, # of connection points: 2
#     Edge 33, Type (0, 1), BuildingBlock: CIFDUS_clean_linker_0, # of connection points: 2
#     Edge 34, Type (0, 1), BuildingBlock: CIFDUS_clean_linker_0, # of connection points: 2
#     Edge 35, Type (0, 1), BuildingBlock: CIFDUS_clean_linker_0, # of connection points: 2
# Relax obj value: 0.131
# Max RMSD: 0.203
# Mean RMSD: 0.081
data_MOF--net-zzz--node1-GEDQOX_clean_sbu_0--node2-BETDIP_clean_linker_0--edge1-CIFDUS_clean_linker_0
_symmetry_space_group_name_H-M    P1
_symmetry_Int_Tables_number       1
_symmetry_cell_setting            triclinic
loop_
_symmetry_equiv_pos_as_xyz
'x, y, z'
_cell_length_a     48.210926
_cell_length_b     47.317069
_cell_length_c     15.579111
_cell_angle_alpha  78.555206
_cell_angle_beta   89.626775
_cell_angle_gamma 100.9842
loop_
_atom_site_label
_atom_site_type_symbol
_atom_site_fract_x
_atom_site_fract_y
_atom_site_fract_z
_atom_type_partial_charge
H0 H 0.77881 0.56921 0.26904 0.0
H1 H 0.78523 0.51778 0.07129 0.0
H2 H 0.85719 0.54374 0.21939 0.0
H3 H 0.74963 0.54443 0.01301 0.0
C4 C 0.73612 0.54245 0.07085 0.0
C5 C 0.79098 0.5579 0.23331 0.0
C6 C 0.81958 0.55818 0.25096 0.0
C7 C 0.7782 0.54364 0.16787 0.0
C8 C 0.79459 0.52918 0.12098 0.0
C9 C 0.82306 0.52874 0.14113 0.0
C10 C 0.83509 0.5434 0.20542 0.0
N11 N 0.74892 0.54374 0.15271 0.0
H12 H 0.02805 0.74939 0.40474 0.0
H13 H 0.0363 0.79146 0.1304 0.0
H14 H 0.05485 0.84269 0.32937 0.0
H15 H 0.04882 0.74833 0.11158 0.0
C16 C 0.0371 0.731 0.16243 0.0
C17 C 0.03376 0.76897 0.35375 0.0
C18 C 0.04076 0.79673 0.37657 0.0
C19 C 0.03452 0.76656 0.2645 0.0
C20 C 0.03874 0.7927 0.19858 0.0
C21 C 0.04453 0.82054 0.2221 0.0
C22 C 0.04835 0.82162 0.31043 0.0
N23 N 0.02948 0.73781 0.24393 0.0
H24 H 0.78495 1.00479 0.29397 0.0
H25 H 0.77516 0.04534 0.02457 0.0
H26 H 0.71665 0.05011 0.22614 0.0
H27 H 0.81301 0.02906 0.99401 0.0
C28 C 0.8227 0.01993 0.05301 0.0
C29 C 0.77397 0.01777 0.24536 0.0
C30 C 0.7501 0.02742 0.27088 0.0
C31 C 0.78379 0.02466 0.15718 0.0
C32 C 0.76887 0.04074 0.09339 0.0
C33 C 0.74494 0.0505 0.11897 0.0
C34 C 0.7361 0.04406 0.20744 0.0
N35 N 0.80871 0.01497 0.13674 0.0
H36 H 0.56365 0.78383 0.58027 0.0
H37 H 0.50703 0.78895 0.36665 0.0
H38 H 0.50841 0.70596 0.53615 0.0
H39 H 0.54939 0.81965 0.30131 0.0
C40 C 0.55071 0.83383 0.34881 0.0
C41 C 0.54694 0.77345 0.54407 0.0
C42 C 0.53593 0.74302 0.56929 0.0
C43 C 0.53686 0.79017 0.46963 0.0
C44 C 0.51536 0.77624 0.42268 0.0
C45 C 0.5051 0.74588 0.44536 0.0
C46 C 0.51525 0.72967 0.51955 0.0
N47 N 0.54883 0.82063 0.43993 0.0
H48 H 0.28541 0.50491 0.57774 0.0
H49 H 0.27564 0.54994 0.78931 0.0
H50 H 0.20733 0.53208 0.62032 0.0
H51 H 0.30845 0.52082 0.84959 0.0
C52 C 0.32325 0.52333 0.79447 0.0
C53 C 0.27279 0.51549 0.61448 0.0
C54 C 0.24479 0.5168 0.59185 0.0
C55 C 0.28421 0.52689 0.68687 0.0
C56 C 0.2673 0.5406 0.73454 0.0
C57 C 0.23969 0.54303 0.70887 0.0
C58 C 0.22884 0.53085 0.6386 0.0
N59 N 0.31267 0.52465 0.70864 0.0
H60 H 0.03537 0.33471 0.39181 0.0
H61 H 0.02891 0.29132 0.66553 0.0
H62 H 0.01542 0.24073 0.46509 0.0
H63 H 0.0241 0.33317 0.69637 0.0
C64 C 0.02829 0.35117 0.63997 0.0
C65 C 0.0309 0.31487 0.44224 0.0
C66 C 0.02605 0.28713 0.41818 0.0
C67 C 0.02964 0.31688 0.53205 0.0
C68 C 0.02703 0.29063 0.59695 0.0
C69 C 0.02325 0.2631 0.57225 0.0
C70 C 0.02001 0.26197 0.48394 0.0
N71 N 0.0319 0.34536 0.55398 0.0
H72 H 0.29044 0.09156 0.5949 0.0
H73 H 0.29941 0.05725 0.87028 0.0
H74 H 0.3625 0.05421 0.6805 0.0
H75 H 0.26449 0.07802 0.89428 0.0
C76 C 0.25207 0.08003 0.83641 0.0
C77 C 0.30214 0.08125 0.64723 0.0
C78 C 0.32751 0.07293 0.62729 0.0
C79 C 0.29152 0.07566 0.73482 0.0
C80 C 0.30692 0.06209 0.8025 0.0
C81 C 0.33229 0.05406 0.78258 0.0
C82 C 0.34231 0.05955 0.6954 0.0
N83 N 0.26478 0.08257 0.75171 0.0
H84 H 0.5303 0.2738 0.24804 0.0
H85 H 0.56566 0.27302 0.50254 0.0
H86 H 0.56099 0.35486 0.33253 0.0
H87 H 0.5823 0.23377 0.45955 0.0
C88 C 0.56104 0.22235 0.45065 0.0
C89 C 0.54015 0.28538 0.29679 0.0
C90 C 0.54517 0.31643 0.28071 0.0
C91 C 0.54816 0.26942 0.37651 0.0
C92 C 0.56035 0.28488 0.43992 0.0
C93 C 0.56539 0.31558 0.42398 0.0
C94 C 0.55781 0.33105 0.34438 0.0
N95 N 0.54326 0.23801 0.39459 0.0
Nd96 Nd 0.02934 0.0289 0.80894 0.0
Nd97 Nd 0.04255 0.05512 0.97051 0.0
C98 C 0.00942 0.99486 0.69745 0.0
C99 C 0.00886 0.96507 0.68017 0.0
C100 C 0.99284 0.95634 0.61194 0.0
C101 C 0.99248 0.92879 0.59144 0.0
C102 C 0.00809 0.90902 0.63889 0.0
C103 C 0.02417 0.91784 0.70777 0.0
C104 C 0.0245 0.94559 0.7283 0.0
C105 C 0.08459 0.05606 0.81205 0.0
C106 C 0.04572 0.98719 0.99052 0.0
C107 C 0.05965 0.09102 0.07962 0.0
C108 C 0.0525 0.11831 0.10164 0.0
C109 C 0.06848 0.1464 0.06493 0.0
C110 C 0.06206 0.1719 0.08752 0.0
C111 C 0.03943 0.17004 0.1474 0.0
C112 C 0.02369 0.14188 0.18449 0.0
C113 C 0.03012 0.1165 0.16216 0.0
C114 C 0.98647 0.03054 0.95983 0.0
C115 C 0.02743 0.09727 0.78796 0.0
O116 O 0.99483 0.99686 0.76641 0.0
O117 O 0.03378 0.01314 0.68549 0.0
O118 O 0.07013 0.05695 0.74198 0.0
O119 O 0.07027 0.03988 0.87844 0.0
O120 O 0.03327 0.98867 0.91516 0.0
O121 O 0.05503 0.01082 0.02316 0.0
O122 O 0.07238 0.09328 0.00335 0.0
O123 O 0.04085 0.06661 0.10169 0.0
O124 O 0.99973 0.02865 0.03225 0.0
O125 O 1.00252 0.04608 0.89706 0.0
O126 O 0.03871 0.0954 0.86509 0.0
O127 O 0.01876 0.07395 0.75332 0.0
H128 H 0.98079 0.97106 0.57347 0.0
H129 H 0.98037 0.92328 0.5367 0.0
H130 H 0.03636 0.90328 0.7461 0.0
H131 H 0.03709 0.9519 0.78125 0.0
H132 H 0.08606 0.1487 0.01877 0.0
H133 H 0.07465 0.19309 0.05735 0.0
H134 H 0.00655 0.13929 0.23241 0.0
H135 H 0.01757 0.09536 0.19309 0.0
Nd136 Nd 0.53474 0.01334 0.8806 0.0
Nd137 Nd 0.53311 0.05004 0.01223 0.0
C138 C 0.55087 0.98009 0.7801 0.0
C139 C 0.57808 0.98633 0.73058 0.0
C140 C 0.58533 0.96738 0.67946 0.0
C141 C 0.61153 0.97458 0.63258 0.0
C142 C 0.63096 1.00053 0.63791 0.0
C143 C 0.62366 0.01871 0.69203 0.0
C144 C 0.59731 0.01211 0.73557 0.0
C145 C 0.53494 0.07166 0.80737 0.0
C146 C 0.59414 0.04398 0.9554 0.0
C147 C 0.51795 0.08604 0.10595 0.0
C148 C 0.49124 0.08389 0.15547 0.0
C149 C 0.48767 0.10506 0.20386 0.0
C150 C 0.4624 0.10187 0.25325 0.0
C151 C 0.44022 0.07756 0.2542 0.0
C152 C 0.44375 0.05706 0.20282 0.0
C153 C 0.4691 0.05994 0.15542 0.0
C154 C 0.53465 0.99256 0.08547 0.0
C155 C 0.47371 0.01617 0.9406 0.0
O156 O 0.55273 0.97474 0.8652 0.0
O157 O 0.53432 0.99867 0.75376 0.0
O158 O 0.51984 0.04963 0.78075 0.0
O159 O 0.54927 0.06266 0.87102 0.0
O160 O 0.57968 0.02064 0.93078 0.0
O161 O 0.58091 0.06319 0.98027 0.0
O162 O 0.5162 0.0899 0.02085 0.0
O163 O 0.53275 0.06612 0.13668 0.0
O164 O 0.54805 0.0148 0.11527 0.0
O165 O 0.51984 1.00076 0.02216 0.0
O166 O 0.48718 0.03961 0.96766 0.0
O167 O 0.48781 0.99801 0.91435 0.0
H168 H 0.57063 0.94743 0.67453 0.0
H169 H 0.61615 0.96025 0.59048 0.0
H170 H 0.6381 0.03846 0.69997 0.0
H171 H 0.59187 0.02744 0.77273 0.0
H172 H 0.5046 0.12366 0.20497 0.0
H173 H 0.46065 0.11788 0.29291 0.0
H174 H 0.42709 0.03836 0.20036 0.0
H175 H 0.47154 0.04309 0.11983 0.0
Nd176 Nd 0.51062 0.53057 0.02658 0.0
Nd177 Nd 0.54659 0.52799 0.87435 0.0
C178 C 0.47163 0.54023 0.13159 0.0
C179 C 0.46564 0.56589 0.16172 0.0
C180 C 0.43961 0.56453 0.20432 0.0
C181 C 0.43424 0.58887 0.23516 0.0
C182 C 0.4549 0.61485 0.22368 0.0
C183 C 0.48066 0.6162 0.17838 0.0
C184 C 0.48591 0.59199 0.14737 0.0
C185 C 0.56736 0.53369 0.06125 0.0
C186 C 0.53668 0.59226 0.88603 0.0
C187 C 0.58625 0.5182 0.77238 0.0
C188 C 0.59169 0.49259 0.7409 0.0
C189 C 0.61872 0.49238 0.70801 0.0
C190 C 0.62371 0.4682 0.67568 0.0
C191 C 0.60163 0.44398 0.67571 0.0
C192 C 0.57478 0.44407 0.71161 0.0
C193 C 0.56991 0.46809 0.74437 0.0
C194 C 0.49048 0.52606 0.8363 0.0
C195 C 0.51854 0.46603 0.01314 0.0
O196 O 0.4685 0.54074 0.0482 0.0
O197 O 0.49463 0.53131 0.15958 0.0
O198 O 0.54674 0.51921 0.1161 0.0
O199 O 0.55775 0.54699 0.99294 0.0
O200 O 0.51656 0.57792 0.94536 0.0
O201 O 0.55465 0.57836 0.85572 0.0
O202 O 0.58848 0.51676 0.85652 0.0
O203 O 0.56402 0.52833 0.74234 0.0
O204 O 0.51159 0.53953 0.7821 0.0
O205 O 0.4992 0.51234 0.90597 0.0
O206 O 0.53921 0.47971 0.95457 0.0
O207 O 0.50122 0.48076 0.04234 0.0
H208 H 0.42362 0.54455 0.21475 0.0
H209 H 0.41414 0.5872 0.26913 0.0
H210 H 0.49735 0.63556 0.1699 0.0
H211 H 0.50606 0.59342 0.11388 0.0
H212 H 0.63584 0.51104 0.70628 0.0
H213 H 0.64468 0.46865 0.64941 0.0
H214 H 0.55713 0.4261 0.71128 0.0
H215 H 0.54897 0.46784 0.77062 0.0
Nd216 Nd 0.02931 0.559 0.82889 0.0
Nd217 Nd 0.03062 0.51736 0.01335 0.0
C218 C 0.01609 0.60228 0.71186 0.0
C219 C 0.98972 0.60387 0.66336 0.0
C220 C 0.9637 0.60124 0.70884 0.0
C221 C 0.93827 0.5978 0.66585 0.0
C222 C 0.93821 0.59758 0.57591 0.0
C223 C 0.96427 0.60225 0.52894 0.0
C224 C 0.98977 0.6052 0.57237 0.0
C225 C 0.02304 0.5013 0.80519 0.0
C226 C 0.96946 0.52272 0.941 0.0
C227 C 0.04381 0.47935 0.14885 0.0
C228 C 0.06874 0.47635 0.20294 0.0
C229 C 0.09509 0.47506 0.16601 0.0
C230 C 0.11864 0.47373 0.21809 0.0
C231 C 0.11623 0.47312 0.30853 0.0
C232 C 0.08966 0.47378 0.34543 0.0
C233 C 0.06627 0.47538 0.29332 0.0
C234 C 0.02859 0.57522 0.01717 0.0
C235 C 0.09113 0.54957 0.89624 0.0
O236 O 0.01389 0.60083 0.79661 0.0
O237 O 0.03169 0.58445 0.6915 0.0
O238 O 0.0241 0.52392 0.74186 0.0
O239 O 0.02541 0.51024 0.87662 0.0
O240 O 0.98306 0.54593 0.88419 0.0
O241 O 0.98316 0.50469 0.99207 0.0
O242 O 0.04543 0.476 0.06767 0.0
O243 O 0.03109 0.5008 0.15697 0.0
O244 O 0.01544 0.55273 0.07422 0.0
O245 O 0.04305 0.56671 0.96251 0.0
O246 O 0.07751 0.53069 0.96481 0.0
O247 O 0.07779 0.56526 0.83581 0.0
H248 H 0.96277 0.60061 0.77866 0.0
H249 H 0.91853 0.59451 0.70351 0.0
H250 H 0.96484 0.60209 0.45952 0.0
H251 H 0.00944 0.60736 0.53543 0.0
H252 H 0.09755 0.47519 0.09687 0.0
H253 H 0.13867 0.47292 0.18771 0.0
H254 H 0.08703 0.47371 0.41458 0.0
H255 H 0.04623 0.47621 0.32365 0.0
H256 H 0.21473 0.09364 0.71209 0.0
H257 H 0.22026 0.05964 0.98805 0.0
H258 H 0.16861 0.05038 0.0077 0.0
H259 H 0.12161 0.0492 0.94361 0.0
H260 H 0.11717 0.08461 0.66759 0.0
H261 H 0.16853 0.09626 0.65101 0.0
C262 C 0.20464 0.08434 0.77658 0.0
C263 C 0.22113 0.07696 0.84837 0.0
C264 C 0.17508 0.07926 0.78734 0.0
C265 C 0.20785 0.06536 0.9318 0.0
C266 C 0.17836 0.06001 0.943 0.0
C267 C 0.13197 0.05971 0.88019 0.0
C268 C 0.11564 0.06564 0.80678 0.0
C269 C 0.1617 0.06646 0.8709 0.0
C270 C 0.12926 0.07952 0.72505 0.0
C271 C 0.15866 0.08619 0.71533 0.0
H272 H 0.5851 0.19986 0.59613 0.0
H273 H 0.5138 0.18004 0.43802 0.0
H274 H 0.49889 0.13178 0.53625 0.0
H275 H 0.50725 0.09464 0.66562 0.0
H276 H 0.57776 0.11637 0.82567 0.0
H277 H 0.59169 0.16456 0.72893 0.0
C278 C 0.56624 0.18496 0.58327 0.0
C279 C 0.55069 0.19335 0.50963 0.0
C280 C 0.55765 0.15764 0.64068 0.0
C281 C 0.52614 0.17405 0.49419 0.0
C282 C 0.51766 0.14647 0.55037 0.0
C283 C 0.52554 0.11005 0.67954 0.0
C284 C 0.54157 0.10182 0.75256 0.0
C285 C 0.53337 0.13795 0.62363 0.0
C286 C 0.56508 0.12208 0.77007 0.0
C287 C 0.57313 0.14963 0.71453 0.0
H288 H 0.37059 0.53853 0.68153 0.0
H289 H 0.34327 0.50286 0.95175 0.0
H290 H 0.39176 0.49876 0.98892 0.0
H291 H 0.44254 0.50597 0.94531 0.0
H292 H 0.47031 0.54543 0.6774 0.0
H293 H 0.42155 0.547 0.63884 0.0
C294 C 0.37524 0.52971 0.74839 0.0
C295 C 0.35318 0.52079 0.81364 0.0
C296 C 0.40347 0.52804 0.76989 0.0
C297 C 0.35977 0.50981 0.90018 0.0
C298 C 0.38756 0.50744 0.92155 0.0
C299 C 0.43792 0.51495 0.87861 0.0
C300 C 0.46024 0.52559 0.81455 0.0
C301 C 0.40968 0.51659 0.85711 0.0
C302 C 0.45369 0.53707 0.72827 0.0
C303 C 0.42571 0.53803 0.70601 0.0
H304 H 0.02301 0.3672 0.79675 0.0
H305 H 0.03438 0.4035 0.51924 0.0
H306 H 0.03356 0.45249 0.54684 0.0
H307 H 0.02892 0.48509 0.64941 0.0
H308 H 0.01872 0.44957 0.92733 0.0
H309 H 0.01967 0.40033 0.90025 0.0
C310 C 0.02535 0.38587 0.7423 0.0
C311 C 0.02864 0.38149 0.65585 0.0
C312 C 0.02495 0.41414 0.75887 0.0
C313 C 0.03176 0.40601 0.58624 0.0
C314 C 0.03125 0.4341 0.6021 0.0
C315 C 0.02688 0.46659 0.70427 0.0
C316 C 0.02363 0.4711 0.79055 0.0
C317 C 0.02771 0.43842 0.68803 0.0
C318 C 0.02122 0.44682 0.86052 0.0
C319 C 0.02176 0.41864 0.84488 0.0
H320 H 0.85772 0.03394 0.90816 0.0
H321 H 0.85357 0.99562 0.18464 0.0
H322 H 0.90341 0.99286 0.17737 0.0
H323 H 0.94912 1.00524 0.09588 0.0
H324 H 0.9542 0.04468 0.82035 0.0
H325 H 0.90309 0.04266 0.82338 0.0
C326 C 0.86773 0.0247 0.96643 0.0
C327 C 0.8521 0.01538 0.04682 0.0
C328 C 0.89659 0.02345 0.96207 0.0
C329 C 0.86518 1.00328 0.12198 0.0
C330 C 0.89372 1.00166 0.11797 0.0
C331 C 0.93897 0.01305 0.03627 0.0
C332 C 0.95536 0.02541 0.95833 0.0
C333 C 0.90976 0.01228 0.03889 0.0
C334 C 0.94198 0.03523 0.88133 0.0
C335 C 0.91279 0.03418 0.88311 0.0
H336 H 0.53275 0.85637 0.19267 0.0
H337 H 0.56527 0.88108 0.42982 0.0
H338 H 0.56355 0.93271 0.36833 0.0
H339 H 0.55313 0.9708 0.24544 0.0
H340 H 0.51723 0.9447 0.01355 0.0
H341 H 0.51986 0.89357 0.07448 0.0
C342 C 0.53944 0.8731 0.23088 0.0
C343 C 0.54929 0.86508 0.31528 0.0
C344 C 0.53776 0.90242 0.19589 0.0
C345 C 0.5576 0.88679 0.3647 0.0
C346 C 0.55665 0.91626 0.32944 0.0
C347 C 0.54584 0.95386 0.20847 0.0
C348 C 0.53521 0.96152 0.12472 0.0
C349 C 0.54682 0.92435 0.24493 0.0
C350 C 0.52556 0.93936 0.07789 0.0
C351 C 0.52708 0.91014 0.1127 0.0
H352 H 0.69092 0.52484 0.19237 0.0
H353 H 0.71266 0.56273 0.91963 0.0
H354 H 0.66316 0.56516 0.89281 0.0
H355 H 0.61324 0.55603 0.94605 0.0
H356 H 0.59058 0.5137 0.21528 0.0
H357 H 0.64042 0.51388 0.24443 0.0
C358 C 0.68481 0.53378 0.12727 0.0
C359 C 0.70562 0.54387 0.05821 0.0
C360 C 0.65596 0.53434 0.11161 0.0
C361 C 0.69716 0.55491 0.97397 0.0
C362 C 0.66881 0.55633 0.95855 0.0
C363 C 0.61917 0.54671 0.01097 0.0
C364 C 0.59802 0.53478 0.07821 0.0
C365 C 0.64794 0.54601 0.02668 0.0
C366 C 0.60629 0.523 0.16213 0.0
C367 C 0.63487 0.52306 0.1789 0.0
H368 H 0.05571 0.71185 0.02314 0.0
H369 H 0.00716 0.68047 0.2684 0.0
H370 H 0.9996 0.63015 0.24341 0.0
H371 H 0.00733 0.59466 0.15284 0.0
H372 H 0.05708 0.62568 0.90967 0.0
H373 H 0.06346 0.67628 0.93241 0.0
C374 C 0.04343 0.69398 0.07108 0.0
C375 C 0.03207 0.70009 0.14768 0.0
C376 C 0.03935 0.66492 0.05647 0.0
C377 C 0.01624 0.67659 0.20906 0.0
C378 C 0.01188 0.64772 0.19468 0.0
C379 C 0.01949 0.61249 0.10455 0.0
C380 C 0.03167 0.60624 0.02933 0.0
C381 C 0.0234 0.64157 0.11878 0.0
C382 C 0.04743 0.62973 0.9679 0.0
C383 C 0.05112 0.65871 0.98105 0.0
H384 H 0.04975 0.22077 0.53983 0.0
H385 H 1.00113 0.24203 0.7434 0.0
H386 H 0.99872 0.1921 0.83075 0.0
H387 H 0.00769 0.14117 0.84249 0.0
H388 H 0.04804 0.11955 0.62279 0.0
H389 H 0.05475 0.1707 0.54472 0.0
C390 C 0.03797 0.2145 0.6025 0.0
C391 C 0.02484 0.23496 0.63364 0.0
C392 C 0.03451 0.18545 0.64781 0.0
C393 C 0.01127 0.22676 0.71743 0.0
C394 C 0.00955 0.19811 0.76667 0.0
C395 C 0.01749 0.14775 0.77686 0.0
C396 C 0.02712 0.12682 0.7374 0.0
C397 C 0.02044 0.17705 0.73128 0.0
C398 C 0.04001 0.13529 0.65311 0.0
C399 C 0.04416 0.16452 0.60921 0.0
H400 H 0.35307 1.00447 0.79537 0.0
H401 H 0.35294 0.07809 0.91951 0.0
H402 H 0.39572 0.06901 0.99497 0.0
H403 H 0.43815 0.04753 0.9967 0.0
H404 H 0.43983 0.97602 0.86347 0.0
H405 H 0.39139 0.97678 0.82043 0.0
C406 C 0.36194 0.0178 0.84149 0.0
C407 C 0.35037 0.04216 0.85108 0.0
C408 C 0.38719 0.01335 0.88075 0.0
C409 C 0.36162 0.05924 0.9113 0.0
C410 C 0.38628 0.05431 0.95329 0.0
C411 C 0.42775 0.03163 0.96004 0.0
C412 C 0.44283 0.01227 0.93134 0.0
C413 C 0.40013 0.0326 0.934 0.0
C414 C 0.42886 0.9915 0.88512 0.0
C415 C 0.40115 0.99193 0.86038 0.0
H416 H 0.606 0.36486 0.40154 0.0
H417 H 0.54974 0.30317 0.59842 0.0
H418 H 0.5608 0.33591 0.70184 0.0
H419 H 0.57997 0.38536 0.72668 0.0
H420 H 0.63154 0.44906 0.52205 0.0
H421 H 0.62938 0.41213 0.43236 0.0
C422 C 0.59646 0.35846 0.46753 0.0
C423 C 0.57669 0.33199 0.49186 0.0
C424 C 0.60194 0.3779 0.52507 0.0
C425 C 0.56501 0.32349 0.57812 0.0
C426 C 0.57112 0.34232 0.63698 0.0
C427 C 0.59095 0.39107 0.66276 0.0
C428 C 0.60541 0.42009 0.63055 0.0
C429 C 0.58852 0.37013 0.60968 0.0
C430 C 0.62029 0.42692 0.54878 0.0
C431 C 0.61882 0.40588 0.49688 0.0
H432 H 0.21329 0.52225 0.86937 0.0
H433 H 0.22049 0.59283 0.64377 0.0
H434 H 0.17519 0.60345 0.68572 0.0
H435 H 0.12964 0.58651 0.77184 0.0
H436 H 0.12326 0.51607 0.99882 0.0
H437 H 0.17167 0.51173 0.97155 0.0
C438 C 0.20557 0.54086 0.83199 0.0
C439 C 0.22027 0.55683 0.75398 0.0
C440 C 0.17901 0.54624 0.85513 0.0
C441 C 0.2097 0.5805 0.70485 0.0
C442 C 0.18352 0.58623 0.728 0.0
C443 C 0.13897 0.57056 0.81619 0.0
C444 C 0.12226 0.5511 0.88592 0.0
C445 C 0.16729 0.56825 0.80056 0.0
C446 C 0.13512 0.53097 0.94345 0.0
C447 C 0.16302 0.52846 0.92812 0.0
H448 H 0.02414 0.86695 0.25597 0.0
H449 H 0.0633 0.8386 0.04635 0.0
H450 H 0.06654 0.88789 0.95393 0.0
H451 H 0.0605 0.94013 0.93747 0.0
H452 H 0.02977 0.96827 0.16097 0.0
H453 H 0.02285 0.9181 0.24626 0.0
C454 C 0.03435 0.87146 0.19113 0.0
C455 C 0.04441 0.84906 0.15974 0.0
C456 C 0.03825 0.90007 0.14187 0.0
C457 C 0.05557 0.85527 0.07292 0.0
C458 C 0.05774 0.88358 0.02049 0.0
C459 C 0.05273 0.93519 0.00532 0.0
C460 C 0.04583 0.95778 0.04356 0.0
C461 C 0.04968 0.90633 0.05509 0.0
C462 C 0.03565 0.95132 0.13104 0.0
C463 C 0.03139 0.92262 0.17932 0.0
H464 H 0.71834 0.02445 0.9962 0.0
H465 H 0.72595 0.10183 0.10694 0.0
H466 H 0.67955 0.10919 0.05516 0.0
H467 H 0.63301 0.08712 0.00731 0.0
H468 H 0.62556 1.00772 0.90475 0.0
H469 H 0.67535 1.0078 0.9237 0.0
C470 C 0.71042 0.04372 0.00502 0.0
C471 C 0.72529 0.06242 0.05565 0.0
C472 C 0.68317 0.04685 0.97928 0.0
C473 C 0.71475 0.08719 0.06775 0.0
C474 C 0.68801 0.09107 0.03958 0.0
C475 C 0.64241 0.07013 0.98792 0.0
C476 C 0.62529 0.04709 0.95685 0.0
C477 C 0.6713 0.06996 1.00021 0.0
C478 C 0.63796 0.02551 0.93046 0.0
C479 C 0.66659 0.0255 0.94101 0.0
H480 H 0.46209 0.69815 0.48823 0.0
H481 H 0.50897 0.75778 0.26593 0.0
H482 H 0.49085 0.72412 0.1711 0.0
H483 H 0.47109 0.67359 0.15852 0.0
H484 H 0.431 0.61114 0.38637 0.0
H485 H 0.43658 0.64985 0.47068 0.0
C486 C 0.46801 0.70397 0.41874 0.0
C487 C 0.48751 0.73008 0.38504 0.0
C488 C 0.45905 0.68364 0.36551 0.0
C489 C 0.4941 0.73783 0.29421 0.0
C490 C 0.48403 0.71836 0.23985 0.0
C491 C 0.46324 0.66854 0.22634 0.0
C492 C 0.45138 0.63936 0.26661 0.0
C493 C 0.46799 0.69051 0.27596 0.0
C494 C 0.44034 0.63335 0.35356 0.0
C495 C 0.44379 0.65546 0.40227 0.0
H496 H 0.8465 0.54642 0.97563 0.0
H497 H 0.84429 0.48072 0.2115 0.0
H498 H 0.88908 0.46997 0.16555 0.0
H499 H 0.93313 0.48627 0.07197 0.0
H500 H 0.93476 0.55166 0.83485 0.0
H501 H 0.88633 0.55535 0.86686 0.0
C502 C 0.85516 0.52876 0.01467 0.0
C503 C 0.84202 0.51426 0.0965 0.0
C504 C 0.88145 0.52333 0.98896 0.0
C505 C 0.85383 0.49187 0.1476 0.0
C506 C 0.87972 0.48608 0.12199 0.0
C507 C 0.9227 0.50082 0.02627 0.0
C508 C 0.93814 0.51946 0.9526 0.0
C509 C 0.89447 0.50276 0.04496 0.0
C510 C 0.92392 0.53781 0.89364 0.0
C511 C 0.89602 0.53984 0.91164 0.0
H512 H 0.98842 0.2607 0.31603 0.0
H513 H 0.07666 0.2977 0.32805 0.0
H514 H 0.08916 0.26565 0.23469 0.0
H515 H 0.07541 0.21967 0.17805 0.0
H516 H 0.98681 0.18142 0.17366 0.0
H517 H 0.97419 0.22072 0.23648 0.0
C518 C 0.01027 0.26289 0.29405 0.0
C519 C 0.03153 0.28173 0.32898 0.0
C520 C 0.01737 0.24295 0.24519 0.0
C521 C 0.05981 0.28385 0.30124 0.0
C522 C 0.06701 0.26487 0.2496 0.0
C523 C 0.05331 0.22027 0.18879 0.0
C524 C 0.03217 0.19691 0.17298 0.0
C525 C 0.04607 0.2431 0.22568 0.0
C526 C 1.00366 0.19837 0.18755 0.0
C527 C 0.99635 0.22108 0.22288 0.0
H528 H 0.34206 0.03269 0.54584 0.0
H529 H 0.34277 0.1254 0.51033 0.0
H530 H 0.3764 0.13519 0.3838 0.0
H531 H 0.41064 0.11758 0.29759 0.0
H532 H 0.4122 0.02471 0.34741 0.0
H533 H 0.37274 0.01485 0.45318 0.0
C534 C 0.34902 0.05496 0.5087 0.0
C535 C 0.34011 0.0783 0.53712 0.0
C536 C 0.36926 0.06043 0.43953 0.0
C537 C 0.34918 0.10707 0.48895 0.0
C538 C 0.36873 0.11267 0.41758 0.0
C539 C 0.40229 0.09519 0.33137 0.0
C540 C 0.41457 0.07199 0.31394 0.0
C541 C 0.37984 0.0896 0.39471 0.0
C542 C 0.40307 0.04305 0.35773 0.0
C543 C 0.38053 0.03732 0.41903 0.0
H544 H 0.49896 0.3408 0.26025 0.0
H545 H 0.57618 0.33714 0.12693 0.0
H546 H 0.5734 0.38275 0.02318 0.0
H547 H 0.55327 0.42802 0.98765 0.0
H548 H 0.47681 0.43169 0.12758 0.0
H549 H 0.47496 0.38206 0.2104 0.0
C550 C 0.51439 0.34928 0.20578 0.0
C551 C 0.53742 0.33532 0.20009 0.0
C552 C 0.51327 0.37617 0.14903 0.0
C553 C 0.55786 0.34706 0.13115 0.0
C554 C 0.55654 0.37348 0.0729 0.0
C555 C 0.53591 0.41777 0.03505 0.0
C556 C 0.51552 0.43403 0.0521 0.0
C557 C 0.53504 0.38897 0.08378 0.0
C558 C 0.49309 0.42012 0.11355 0.0
C559 C 0.49194 0.39157 0.16118 0.0
H560 H 0.20189 0.47035 0.61174 0.0
H561 H 0.2539 0.53609 0.4149 0.0
H562 H 0.21934 0.52593 0.30443 0.0
H563 H 0.17056 0.50431 0.27142 0.0
H564 H 0.11804 0.44024 0.47271 0.0
H565 H 0.15631 0.44388 0.57385 0.0
C566 C 0.20613 0.48154 0.54373 0.0
C567 C 0.2305 0.50365 0.52101 0.0
C568 C 0.18559 0.47652 0.48208 0.0
C569 C 0.23557 0.51856 0.43336 0.0
C570 C 0.21554 0.51309 0.37069 0.0
C571 C 0.16772 0.49064 0.33673 0.0
C572 C 0.14118 0.47243 0.36478 0.0
C573 C 0.18987 0.49305 0.39528 0.0
C574 C 0.13793 0.45497 0.44991 0.0
C575 C 0.15989 0.45689 0.50775 0.0
H576 H 0.99189 0.80118 0.45157 0.0
H577 H 0.08102 0.80995 0.49194 0.0
H578 H 0.07819 0.84439 0.58846 0.0
H579 H 0.05237 0.87998 0.63343 0.0
H580 H 0.96328 0.87207 0.58753 0.0
H581 H 0.96415 0.82985 0.52078 0.0
C582 C 0.01033 0.80931 0.4857 0.0
C583 C 0.03655 0.80265 0.46545 0.0
C584 C 0.0088 0.83047 0.53692 0.0
C585 C 0.06048 0.81414 0.50799 0.0
C586 C 0.05896 0.83445 0.56151 0.0
C587 C 0.03295 0.86858 0.61108 0.0
C588 C 0.00797 0.87996 0.61352 0.0
C589 C 0.03356 0.84409 0.5722 0.0
C590 C 0.98307 0.86462 0.58406 0.0
C591 C 0.98346 0.84021 0.54637 0.0
H592 H 0.73231 0.06192 0.36843 0.0
H593 H 0.73773 0.97185 0.37242 0.0
H594 H 0.70316 0.95533 0.49692 0.0
H595 H 0.66576 0.96635 0.58721 0.0
H596 H 0.65628 0.05673 0.56147 0.0
H597 H 0.69783 0.07311 0.46382 0.0
C598 C 0.72636 0.03871 0.39801 0.0
C599 C 0.73714 0.01811 0.36088 0.0
C600 C 0.7052 0.02936 0.46477 0.0
C601 C 0.72972 0.98814 0.40019 0.0
C602 C 0.70961 0.97868 0.47036 0.0
C603 C 0.67276 0.98962 0.5603 0.0
C604 C 0.65769 0.01012 0.58254 0.0
C605 C 0.69615 0.99903 0.50014 0.0
C606 C 0.66754 0.04028 0.54784 0.0
C607 C 0.6913 0.0498 0.491 0.0
H608 H 0.50953 0.71639 0.72543 0.0
H609 H 0.58508 0.7229 0.56839 0.0
H610 H 0.59384 0.67703 0.65872 0.0
H611 H 0.57546 0.63111 0.76724 0.0
H612 H 0.49919 0.62518 0.92238 0.0
H613 H 0.49541 0.67455 0.84879 0.0
C614 C 0.52858 0.7084 0.7137 0.0
C615 C 0.54688 0.72318 0.64138 0.0
C616 C 0.53291 0.68157 0.76415 0.0
C617 C 0.57108 0.71225 0.62503 0.0
C618 C 0.57578 0.68572 0.67575 0.0
C619 C 0.55827 0.64079 0.78596 0.0
C620 C 0.53736 0.62402 0.84931 0.0
C621 C 0.55614 0.66951 0.74309 0.0
C622 C 0.51545 0.63721 0.87326 0.0
C623 C 0.51322 0.66558 0.83116 0.0
H624 H 0.82679 0.53725 0.42214 0.0
H625 H 0.84942 0.61393 0.21572 0.0
H626 H 0.88803 0.63432 0.30066 0.0
H627 H 0.91935 0.62684 0.42503 0.0
H628 H 0.8963 0.55007 0.63186 0.0
H629 H 0.85397 0.53323 0.55626 0.0
C630 C 0.83943 0.55899 0.39779 0.0
C631 C 0.835 0.57439 0.31378 0.0
C632 C 0.86202 0.57018 0.44621 0.0
C633 C 0.85206 0.60211 0.28127 0.0
C634 C 0.87442 0.6135 0.32923 0.0
C635 C 0.90482 0.60664 0.45384 0.0
C636 C 0.91107 0.58958 0.53344 0.0
C637 C 0.88029 0.59719 0.41027 0.0
C638 C 0.89193 0.5636 0.57069 0.0
C639 C 0.86774 0.55392 0.5274 0.0
loop_
_geom_bond_atom_site_label_1
_geom_bond_atom_site_label_2
_geom_bond_distance
_geom_bond_site_symmetry_2
_ccdc_geom_bond_type
H0 C5 0.930 . S
H1 C8 0.930 . S
H2 C10 0.930 . S
H3 C4 1.016 . S
C4 H3 1.016 . S
C4 N11 1.286 1_556 S
C5 H0 0.930 . S
C5 C6 1.397 . S
C5 C7 1.361 . S
C6 C5 1.397 . S
C6 C10 1.390 . S
C7 C5 1.361 . S
C7 C8 1.393 1_554 S
C7 N11 1.413 . S
C8 H1 0.930 . S
C8 C7 1.393 1_556 S
C8 C9 1.399 . S
C9 C8 1.399 . S
C9 C10 1.381 1_556 S
C10 H2 0.930 . S
C10 C6 1.390 . S
C10 C9 1.381 1_554 S
N11 C4 1.286 1_554 S
N11 C7 1.413 . S
H12 C17 0.930 . S
H13 C20 0.930 1_556 S
H14 C22 0.930 . S
H15 C16 1.016 . S
C16 H15 1.016 . S
C16 N23 1.286 . S
C17 H12 0.930 . S
C17 C18 1.397 . S
C17 C19 1.361 . S
C18 C17 1.397 . S
C18 C22 1.390 . S
C19 C17 1.361 . S
C19 C20 1.393 . S
C19 N23 1.413 . S
C20 H13 0.930 1_554 S
C20 C19 1.393 . S
C20 C21 1.399 . S
C21 C20 1.399 . S
C21 C22 1.381 . S
C22 H14 0.930 . S
C22 C18 1.390 . S
C22 C21 1.381 . S
N23 C16 1.286 . S
N23 C19 1.413 . S
H24 C29 0.930 . S
H25 C32 0.930 1_556 S
H26 C34 0.930 . S
H27 C28 1.016 1_556 S
C28 H27 1.016 1_554 S
C28 N35 1.286 . S
C29 H24 0.930 . S
C29 C30 1.397 . S
C29 C31 1.361 . S
C30 C29 1.397 . S
C30 C34 1.390 . S
C31 C29 1.361 . S
C31 C32 1.393 . S
C31 N35 1.413 . S
C32 H25 0.930 1_554 S
C32 C31 1.393 . S
C32 C33 1.399 . S
C33 C32 1.399 . S
C33 C34 1.381 . S
C34 H26 0.930 . S
C34 C30 1.390 . S
C34 C33 1.381 . S
N35 C28 1.286 . S
N35 C31 1.413 . S
H36 C41 0.930 . S
H37 C44 0.930 . S
H38 C46 0.930 . S
H39 C40 1.016 . S
C40 H39 1.016 . S
C40 N47 1.286 . S
C41 H36 0.930 . S
C41 C42 1.397 . S
C41 C43 1.361 . S
C42 C41 1.397 . S
C42 C46 1.390 . S
C43 C41 1.361 . S
C43 C44 1.393 . S
C43 N47 1.413 . S
C44 H37 0.930 . S
C44 C43 1.393 . S
C44 C45 1.399 . S
C45 C44 1.399 . S
C45 C46 1.381 . S
C46 H38 0.930 . S
C46 C42 1.390 . S
C46 C45 1.381 . S
N47 C40 1.286 . S
N47 C43 1.413 . S
H48 C53 0.930 . S
H49 C56 0.930 . S
H50 C58 0.930 . S
H51 C52 1.016 . S
C52 H51 1.016 . S
C52 N59 1.286 . S
C53 H48 0.930 . S
C53 C54 1.397 . S
C53 C55 1.361 . S
C54 C53 1.397 . S
C54 C58 1.390 . S
C55 C53 1.361 . S
C55 C56 1.393 . S
C55 N59 1.413 . S
C56 H49 0.930 . S
C56 C55 1.393 . S
C56 C57 1.399 . S
C57 C56 1.399 . S
C57 C58 1.381 . S
C58 H50 0.930 . S
C58 C54 1.390 . S
C58 C57 1.381 . S
N59 C52 1.286 . S
N59 C55 1.413 . S
H60 C65 0.930 . S
H61 C68 0.930 . S
H62 C70 0.930 . S
H63 C64 1.016 . S
C64 H63 1.016 . S
C64 N71 1.286 . S
C65 H60 0.930 . S
C65 C66 1.397 . S
C65 C67 1.361 . S
C66 C65 1.397 . S
C66 C70 1.390 . S
C67 C65 1.361 . S
C67 C68 1.393 . S
C67 N71 1.413 . S
C68 H61 0.930 . S
C68 C67 1.393 . S
C68 C69 1.399 . S
C69 C68 1.399 . S
C69 C70 1.381 . S
C70 H62 0.930 . S
C70 C66 1.390 . S
C70 C69 1.381 . S
N71 C64 1.286 . S
N71 C67 1.413 . S
H72 C77 0.930 . S
H73 C80 0.930 . S
H74 C82 0.930 . S
H75 C76 1.016 . S
C76 H75 1.016 . S
C76 N83 1.286 . S
C77 H72 0.930 . S
C77 C78 1.397 . S
C77 C79 1.361 . S
C78 C77 1.397 . S
C78 C82 1.390 . S
C79 C77 1.361 . S
C79 C80 1.393 . S
C79 N83 1.413 . S
C80 H73 0.930 . S
C80 C79 1.393 . S
C80 C81 1.399 . S
C81 C80 1.399 . S
C81 C82 1.381 . S
C82 H74 0.930 . S
C82 C78 1.390 . S
C82 C81 1.381 . S
N83 C76 1.286 . S
N83 C79 1.413 . S
H84 C89 0.930 . S
H85 C92 0.930 . S
H86 C94 0.930 . S
H87 C88 1.016 . S
C88 H87 1.016 . S
C88 N95 1.286 . S
C89 H84 0.930 . S
C89 C90 1.397 . S
C89 C91 1.361 . S
C90 C89 1.397 . S
C90 C94 1.390 . S
C91 C89 1.361 . S
C91 C92 1.393 . S
C91 N95 1.413 . S
C92 H85 0.930 . S
C92 C91 1.393 . S
C92 C93 1.399 . S
C93 C92 1.399 . S
C93 C94 1.381 . S
C94 H86 0.930 . S
C94 C90 1.390 . S
C94 C93 1.381 . S
N95 C88 1.286 . S
N95 C91 1.413 . S
Nd96 C98 2.836 1_545 S
Nd96 O116 2.500 1_445 S
Nd96 O117 2.492 1_545 S
Nd96 O118 2.487 . S
Nd96 O119 2.682 . S
Nd96 O120 2.410 1_545 S
Nd96 O125 2.414 1_455 S
Nd96 O127 2.424 . S
Nd97 C107 2.836 . S
Nd97 O119 2.414 1_554 S
Nd97 O121 2.424 1_545 S
Nd97 O122 2.500 . S
Nd97 O123 2.492 . S
Nd97 O124 2.487 1_455 S
Nd97 O125 2.682 1_454 S
Nd97 O126 2.410 1_554 S
C98 Nd96 2.836 1_565 S
C98 C99 1.498 . S
C98 O116 1.258 1_455 S
C98 O117 1.239 . S
C99 C98 1.498 . S
C99 C100 1.366 1_455 S
C99 C104 1.407 . S
C100 C99 1.366 1_655 S
C100 C101 1.392 . S
C100 H128 0.930 . S
C101 C100 1.392 . S
C101 C102 1.405 . S
C101 H129 0.929 . S
C102 C101 1.405 . S
C102 C103 1.345 1_655 S
C103 C102 1.345 1_455 S
C103 C104 1.384 . S
C103 H130 0.930 . S
C104 C99 1.407 . S
C104 C103 1.384 . S
C104 H131 0.929 . S
C105 O118 1.241 . S
C105 O119 1.273 . S
C106 O120 1.251 . S
C106 O121 1.268 1_556 S
C107 Nd97 2.836 . S
C107 C108 1.498 . S
C107 O122 1.258 . S
C107 O123 1.239 . S
C108 C107 1.498 . S
C108 C109 1.366 . S
C108 C113 1.407 . S
C109 C108 1.366 . S
C109 C110 1.392 . S
C109 H132 0.930 . S
C110 C109 1.392 . S
C110 C111 1.398 . S
C110 H133 0.929 . S
C111 C110 1.398 . S
C111 C112 1.352 . S
C112 C111 1.352 . S
C112 C113 1.384 . S
C112 H134 0.930 . S
C113 C108 1.407 . S
C113 C112 1.384 . S
C113 H135 0.929 . S
C114 O124 1.241 1_556 S
C114 O125 1.273 . S
C115 O126 1.251 . S
C115 O127 1.268 . S
O116 Nd96 2.500 1_665 S
O116 C98 1.258 1_655 S
O117 Nd96 2.492 1_565 S
O117 C98 1.239 . S
O118 Nd96 2.487 . S
O118 C105 1.241 . S
O119 Nd96 2.682 . S
O119 Nd97 2.414 1_556 S
O119 C105 1.273 . S
O120 Nd96 2.410 1_565 S
O120 C106 1.251 . S
O121 Nd97 2.424 1_565 S
O121 C106 1.268 1_554 S
O122 Nd97 2.500 . S
O122 C107 1.258 . S
O123 Nd97 2.492 . S
O123 C107 1.239 . S
O124 Nd97 2.487 1_655 S
O124 C114 1.241 1_554 S
O125 Nd96 2.414 1_655 S
O125 Nd97 2.682 1_656 S
O125 C114 1.273 . S
O126 Nd97 2.410 1_556 S
O126 C115 1.251 . S
O127 Nd96 2.424 . S
O127 C115 1.268 . S
H128 C100 0.930 . S
H129 C101 0.929 . S
H130 C103 0.930 . S
H131 C104 0.929 . S
H132 C109 0.930 . S
H133 C110 0.929 . S
H134 C112 0.930 . S
H135 C113 0.929 . S
Nd136 C138 2.836 1_545 S
Nd136 O156 2.500 1_545 S
Nd136 O157 2.492 . S
Nd136 O158 2.487 . S
Nd136 O159 2.682 . S
Nd136 O160 2.410 . S
Nd136 O165 2.414 1_545 S
Nd136 O167 2.424 . S
Nd137 C147 2.836 . S
Nd137 O159 2.414 1_554 S
Nd137 O161 2.424 . S
Nd137 O162 2.500 . S
Nd137 O163 2.492 . S
Nd137 O164 2.487 1_545 S
Nd137 O165 2.682 1_544 S
Nd137 O166 2.410 1_554 S
C138 Nd136 2.836 1_565 S
C138 C139 1.498 . S
C138 O156 1.258 . S
C138 O157 1.239 1_565 S
C139 C138 1.498 . S
C139 C140 1.366 . S
C139 C144 1.407 . S
C140 C139 1.366 . S
C140 C141 1.392 . S
C140 H168 0.930 . S
C141 C140 1.392 . S
C141 C142 1.398 . S
C141 H169 0.929 . S
C142 C141 1.398 . S
C142 C143 1.352 . S
C143 C142 1.352 . S
C143 C144 1.384 . S
C143 H170 0.930 . S
C144 C139 1.407 . S
C144 C143 1.384 . S
C144 H171 0.929 1_565 S
C145 O158 1.241 . S
C145 O159 1.273 . S
C146 O160 1.251 . S
C146 O161 1.268 1_556 S
C147 Nd137 2.836 . S
C147 C148 1.498 . S
C147 O162 1.258 . S
C147 O163 1.239 . S
C148 C147 1.498 . S
C148 C149 1.366 . S
C148 C153 1.407 . S
C149 C148 1.366 . S
C149 C150 1.392 . S
C149 H172 0.930 . S
C150 C149 1.392 . S
C150 C151 1.398 . S
C150 H173 0.929 . S
C151 C150 1.398 . S
C151 C152 1.352 . S
C152 C151 1.352 . S
C152 C153 1.384 . S
C152 H174 0.930 . S
C153 C148 1.407 . S
C153 C152 1.384 . S
C153 H175 0.929 . S
C154 O164 1.241 . S
C154 O165 1.273 1_554 S
C155 O166 1.251 . S
C155 O167 1.268 . S
O156 Nd136 2.500 1_565 S
O156 C138 1.258 . S
O157 Nd136 2.492 . S
O157 C138 1.239 1_545 S
O158 Nd136 2.487 . S
O158 C145 1.241 . S
O159 Nd136 2.682 . S
O159 Nd137 2.414 1_556 S
O159 C145 1.273 . S
O160 Nd136 2.410 . S
O160 C146 1.251 . S
O161 Nd137 2.424 . S
O161 C146 1.268 1_554 S
O162 Nd137 2.500 . S
O162 C147 1.258 . S
O163 Nd137 2.492 . S
O163 C147 1.239 . S
O164 Nd137 2.487 1_565 S
O164 C154 1.241 . S
O165 Nd136 2.414 1_565 S
O165 Nd137 2.682 1_566 S
O165 C154 1.273 1_556 S
O166 Nd137 2.410 1_556 S
O166 C155 1.251 . S
O167 Nd136 2.424 . S
O167 C155 1.268 . S
H168 C140 0.930 . S
H169 C141 0.929 . S
H170 C143 0.930 . S
H171 C144 0.929 1_545 S
H172 C149 0.930 . S
H173 C150 0.929 . S
H174 C152 0.930 . S
H175 C153 0.929 . S
Nd176 C178 2.836 . S
Nd176 O196 2.500 . S
Nd176 O197 2.492 . S
Nd176 O198 2.487 . S
Nd176 O199 2.682 1_554 S
Nd176 O200 2.410 1_554 S
Nd176 O205 2.414 1_554 S
Nd176 O207 2.424 . S
Nd177 C187 2.836 . S
Nd177 O199 2.414 . S
Nd177 O201 2.424 . S
Nd177 O202 2.500 . S
Nd177 O203 2.492 . S
Nd177 O204 2.487 . S
Nd177 O205 2.682 . S
Nd177 O206 2.410 . S
C178 Nd176 2.836 . S
C178 C179 1.498 . S
C178 O196 1.258 . S
C178 O197 1.239 . S
C179 C178 1.498 . S
C179 C180 1.366 . S
C179 C184 1.407 . S
C180 C179 1.366 . S
C180 C181 1.392 . S
C180 H208 0.930 . S
C181 C180 1.392 . S
C181 C182 1.398 . S
C181 H209 0.929 . S
C182 C181 1.398 . S
C182 C183 1.352 . S
C183 C182 1.352 . S
C183 C184 1.384 . S
C183 H210 0.930 . S
C184 C179 1.407 . S
C184 C183 1.384 . S
C184 H211 0.929 . S
C185 O198 1.241 1_556 S
C185 O199 1.273 . S
C186 O200 1.251 . S
C186 O201 1.268 . S
C187 Nd177 2.836 . S
C187 C188 1.498 . S
C187 O202 1.258 . S
C187 O203 1.239 . S
C188 C187 1.498 . S
C188 C189 1.366 . S
C188 C193 1.407 . S
C189 C188 1.366 . S
C189 C190 1.392 . S
C189 H212 0.930 . S
C190 C189 1.392 . S
C190 C191 1.398 . S
C190 H213 0.929 . S
C191 C190 1.398 . S
C191 C192 1.352 . S
C192 C191 1.352 . S
C192 C193 1.384 . S
C192 H214 0.930 . S
C193 C188 1.407 . S
C193 C192 1.384 . S
C193 H215 0.929 . S
C194 O204 1.241 . S
C194 O205 1.273 . S
C195 O206 1.251 1_554 S
C195 O207 1.268 . S
O196 Nd176 2.500 . S
O196 C178 1.258 . S
O197 Nd176 2.492 . S
O197 C178 1.239 . S
O198 Nd176 2.487 . S
O198 C185 1.241 1_554 S
O199 Nd176 2.682 1_556 S
O199 Nd177 2.414 . S
O199 C185 1.273 . S
O200 Nd176 2.410 1_556 S
O200 C186 1.251 . S
O201 Nd177 2.424 . S
O201 C186 1.268 . S
O202 Nd177 2.500 . S
O202 C187 1.258 . S
O203 Nd177 2.492 . S
O203 C187 1.239 . S
O204 Nd177 2.487 . S
O204 C194 1.241 . S
O205 Nd176 2.414 1_556 S
O205 Nd177 2.682 . S
O205 C194 1.273 . S
O206 Nd177 2.410 . S
O206 C195 1.251 1_556 S
O207 Nd176 2.424 . S
O207 C195 1.268 . S
H208 C180 0.930 . S
H209 C181 0.929 . S
H210 C183 0.930 . S
H211 C184 0.929 . S
H212 C189 0.930 . S
H213 C190 0.929 . S
H214 C192 0.930 . S
H215 C193 0.929 . S
Nd216 C218 2.836 1_455 S
Nd216 O236 2.500 1_455 S
Nd216 O237 2.492 1_455 S
Nd216 O238 2.487 . S
Nd216 O239 2.682 . S
Nd216 O240 2.410 1_455 S
Nd216 O245 2.414 . S
Nd216 O247 2.424 . S
Nd217 C227 2.836 . S
Nd217 O239 2.414 1_554 S
Nd217 O241 2.424 1_455 S
Nd217 O242 2.500 . S
Nd217 O243 2.492 . S
Nd217 O244 2.487 . S
Nd217 O245 2.682 1_554 S
Nd217 O246 2.410 1_554 S
C218 Nd216 2.836 1_655 S
C218 C219 1.498 . S
C218 O236 1.258 . S
C218 O237 1.239 . S
C219 C218 1.498 . S
C219 C220 1.366 . S
C219 C224 1.407 . S
C220 C219 1.366 . S
C220 C221 1.392 . S
C220 H248 0.930 . S
C221 C220 1.392 . S
C221 C222 1.398 . S
C221 H249 0.929 . S
C222 C221 1.398 . S
C222 C223 1.352 . S
C223 C222 1.352 . S
C223 C224 1.384 . S
C223 H250 0.930 . S
C224 C219 1.407 . S
C224 C223 1.384 . S
C224 H251 0.929 . S
C225 O238 1.241 . S
C225 O239 1.273 . S
C226 O240 1.251 . S
C226 O241 1.268 1_556 S
C227 Nd217 2.836 . S
C227 C228 1.498 . S
C227 O242 1.258 . S
C227 O243 1.239 . S
C228 C227 1.498 . S
C228 C229 1.366 . S
C228 C233 1.407 . S
C229 C228 1.366 . S
C229 C230 1.392 . S
C229 H252 0.930 . S
C230 C229 1.392 . S
C230 C231 1.398 . S
C230 H253 0.929 . S
C231 C230 1.398 . S
C231 C232 1.352 . S
C232 C231 1.352 . S
C232 C233 1.384 . S
C232 H254 0.930 . S
C233 C228 1.407 . S
C233 C232 1.384 . S
C233 H255 0.929 . S
C234 O244 1.241 1_556 S
C234 O245 1.273 . S
C235 O246 1.251 . S
C235 O247 1.268 . S
O236 Nd216 2.500 1_655 S
O236 C218 1.258 . S
O237 Nd216 2.492 1_655 S
O237 C218 1.239 . S
O238 Nd216 2.487 . S
O238 C225 1.241 . S
O239 Nd216 2.682 . S
O239 Nd217 2.414 1_556 S
O239 C225 1.273 . S
O240 Nd216 2.410 1_655 S
O240 C226 1.251 . S
O241 Nd217 2.424 1_655 S
O241 C226 1.268 1_554 S
O242 Nd217 2.500 . S
O242 C227 1.258 . S
O243 Nd217 2.492 . S
O243 C227 1.239 . S
O244 Nd217 2.487 . S
O244 C234 1.241 1_554 S
O245 Nd216 2.414 . S
O245 Nd217 2.682 1_556 S
O245 C234 1.273 . S
O246 Nd217 2.410 1_556 S
O246 C235 1.251 . S
O247 Nd216 2.424 . S
O247 C235 1.268 . S
H248 C220 0.930 . S
H249 C221 0.929 . S
H250 C223 0.930 . S
H251 C224 0.929 . S
H252 C229 0.930 . S
H253 C230 0.929 . S
H254 C232 0.930 . S
H255 C233 0.929 . S
H256 C262 0.930 . S
H257 C265 0.930 . S
H258 C266 0.930 . S
H259 C267 0.930 . S
H260 C270 0.930 . S
H261 C271 0.930 . S
C262 H256 0.930 . S
C262 C263 1.355 . S
C262 C264 1.415 . S
C263 C262 1.355 . S
C263 C265 1.419 . S
C264 C262 1.415 . S
C264 C269 1.425 . S
C264 C271 1.409 . S
C265 H257 0.930 . S
C265 C263 1.419 . S
C265 C266 1.362 . S
C266 H258 0.930 . S
C266 C265 1.362 . S
C266 C269 1.409 . S
C267 H259 0.930 . S
C267 C268 1.355 . S
C267 C269 1.415 . S
C268 C267 1.355 . S
C268 C270 1.419 . S
C269 C264 1.425 . S
C269 C266 1.409 . S
C269 C267 1.415 . S
C270 H260 0.930 . S
C270 C268 1.419 . S
C270 C271 1.362 . S
C271 H261 0.930 . S
C271 C264 1.409 . S
C271 C270 1.362 . S
H272 C278 0.930 . S
H273 C281 0.930 . S
H274 C282 0.930 . S
H275 C283 0.930 . S
H276 C286 0.930 . S
H277 C287 0.930 . S
C278 H272 0.930 . S
C278 C279 1.355 . S
C278 C280 1.415 . S
C279 C278 1.355 . S
C279 C281 1.419 . S
C280 C278 1.415 . S
C280 C285 1.425 . S
C280 C287 1.409 . S
C281 H273 0.930 . S
C281 C279 1.419 . S
C281 C282 1.362 . S
C282 H274 0.930 . S
C282 C281 1.362 . S
C282 C285 1.409 . S
C283 H275 0.930 . S
C283 C284 1.355 . S
C283 C285 1.415 . S
C284 C283 1.355 . S
C284 C286 1.419 . S
C285 C280 1.425 . S
C285 C282 1.409 . S
C285 C283 1.415 . S
C286 H276 0.930 . S
C286 C284 1.419 . S
C286 C287 1.362 . S
C287 H277 0.930 . S
C287 C280 1.409 . S
C287 C286 1.362 . S
H288 C294 0.930 . S
H289 C297 0.927 1_554 S
H290 C298 0.930 . S
H291 C299 0.930 1_554 S
H292 C302 0.930 . S
H293 C303 0.930 . S
C294 H288 0.930 . S
C294 C295 1.355 . S
C294 C296 1.415 . S
C295 C294 1.355 . S
C295 C297 1.423 . S
C296 C294 1.415 . S
C296 C301 1.425 . S
C296 C303 1.409 . S
C297 H289 0.927 1_556 S
C297 C295 1.423 . S
C297 C298 1.361 1_556 S
C298 H290 0.930 . S
C298 C297 1.361 1_554 S
C298 C301 1.409 1_554 S
C299 H291 0.930 1_556 S
C299 C300 1.355 . S
C299 C301 1.415 . S
C300 C299 1.355 . S
C300 C302 1.419 . S
C301 C296 1.425 . S
C301 C298 1.409 1_556 S
C301 C299 1.415 . S
C302 H292 0.930 . S
C302 C300 1.419 . S
C302 C303 1.362 . S
C303 H293 0.930 . S
C303 C296 1.409 . S
C303 C302 1.362 . S
H304 C310 0.930 . S
H305 C313 0.930 . S
H306 C314 0.930 1_655 S
H307 C315 0.930 . S
H308 C318 0.930 . S
H309 C319 0.930 . S
C310 H304 0.930 . S
C310 C311 1.355 . S
C310 C312 1.415 . S
C311 C310 1.355 . S
C311 C313 1.419 . S
C312 C310 1.415 . S
C312 C317 1.425 . S
C312 C319 1.409 . S
C313 H305 0.930 . S
C313 C311 1.419 . S
C313 C314 1.362 . S
C314 H306 0.930 1_455 S
C314 C313 1.362 . S
C314 C317 1.409 . S
C315 H307 0.930 . S
C315 C316 1.355 . S
C315 C317 1.415 . S
C316 C315 1.355 . S
C316 C318 1.419 . S
C317 C312 1.425 . S
C317 C314 1.409 . S
C317 C315 1.415 . S
C318 H308 0.930 . S
C318 C316 1.419 . S
C318 C319 1.362 . S
C319 H309 0.930 . S
C319 C312 1.409 . S
C319 C318 1.362 . S
H320 C326 0.930 . S
H321 C329 0.930 . S
H322 C330 0.930 . S
H323 C331 0.930 . S
H324 C334 0.930 . S
H325 C335 0.930 . S
C326 H320 0.930 . S
C326 C327 1.355 1_556 S
C326 C328 1.415 . S
C327 C326 1.355 1_554 S
C327 C329 1.419 . S
C328 C326 1.415 . S
C328 C333 1.425 1_556 S
C328 C335 1.409 1_565 S
C329 H321 0.930 . S
C329 C327 1.419 . S
C329 C330 1.362 . S
C330 H322 0.930 . S
C330 C329 1.362 . S
C330 C333 1.409 . S
C331 H323 0.930 . S
C331 C332 1.355 1_564 S
C331 C333 1.415 . S
C332 C331 1.355 1_546 S
C332 C334 1.419 . S
C333 C328 1.425 1_554 S
C333 C330 1.409 . S
C333 C331 1.415 . S
C334 H324 0.930 . S
C334 C332 1.419 . S
C334 C335 1.362 . S
C335 H325 0.930 . S
C335 C328 1.409 1_545 S
C335 C334 1.362 . S
H336 C342 0.930 . S
H337 C345 0.930 . S
H338 C346 0.930 . S
H339 C347 0.930 . S
H340 C350 0.930 . S
H341 C351 0.930 . S
C342 H336 0.930 . S
C342 C343 1.355 . S
C342 C344 1.415 . S
C343 C342 1.355 . S
C343 C345 1.419 . S
C344 C342 1.415 . S
C344 C349 1.425 . S
C344 C351 1.409 . S
C345 H337 0.930 . S
C345 C343 1.419 . S
C345 C346 1.362 . S
C346 H338 0.930 . S
C346 C345 1.362 . S
C346 C349 1.409 . S
C347 H339 0.930 . S
C347 C348 1.355 . S
C347 C349 1.415 . S
C348 C347 1.355 . S
C348 C350 1.419 . S
C349 C344 1.425 . S
C349 C346 1.409 . S
C349 C347 1.415 . S
C350 H340 0.930 . S
C350 C348 1.419 . S
C350 C351 1.362 . S
C351 H341 0.930 . S
C351 C344 1.409 . S
C351 C350 1.362 . S
H352 C358 0.930 1_554 S
H353 C361 0.930 . S
H354 C362 0.930 . S
H355 C363 0.930 . S
H356 C366 0.930 . S
H357 C367 0.930 . S
C358 H352 0.930 1_556 S
C358 C359 1.355 . S
C358 C360 1.415 . S
C359 C358 1.355 . S
C359 C361 1.419 . S
C360 C358 1.415 . S
C360 C365 1.425 . S
C360 C367 1.409 1_556 S
C361 H353 0.930 . S
C361 C359 1.419 . S
C361 C362 1.362 . S
C362 H354 0.930 . S
C362 C361 1.362 . S
C362 C365 1.409 . S
C363 H355 0.930 . S
C363 C364 1.355 . S
C363 C365 1.415 . S
C364 C363 1.355 . S
C364 C366 1.419 1_556 S
C365 C360 1.425 . S
C365 C362 1.409 . S
C365 C363 1.415 . S
C366 H356 0.930 . S
C366 C364 1.419 1_554 S
C366 C367 1.362 . S
C367 H357 0.930 . S
C367 C360 1.409 1_554 S
C367 C366 1.362 . S
H368 C374 0.930 . S
H369 C377 0.930 . S
H370 C378 0.930 . S
H371 C379 0.935 . S
H372 C382 0.930 . S
H373 C383 0.930 . S
C374 H368 0.930 . S
C374 C375 1.355 1_455 S
C374 C376 1.415 . S
C375 C374 1.355 1_655 S
C375 C377 1.419 1_554 S
C376 C374 1.415 . S
C376 C381 1.425 1_554 S
C376 C383 1.409 . S
C377 H369 0.930 . S
C377 C375 1.419 1_556 S
C377 C378 1.362 . S
C378 H370 0.930 . S
C378 C377 1.362 . S
C378 C381 1.409 1_655 S
C379 H371 0.935 . S
C379 C380 1.355 . S
C379 C381 1.415 . S
C380 C379 1.355 . S
C380 C382 1.419 1_556 S
C381 C376 1.425 1_556 S
C381 C378 1.409 1_455 S
C381 C379 1.415 . S
C382 H372 0.930 . S
C382 C380 1.419 1_554 S
C382 C383 1.362 . S
C383 H373 0.930 . S
C383 C376 1.409 . S
C383 C382 1.362 . S
H384 C390 0.930 . S
H385 C393 0.930 . S
H386 C394 0.930 . S
H387 C395 0.930 . S
H388 C398 0.930 . S
H389 C399 0.930 . S
C390 H384 0.930 . S
C390 C391 1.355 . S
C390 C392 1.415 . S
C391 C390 1.355 . S
C391 C393 1.419 . S
C392 C390 1.415 . S
C392 C397 1.425 . S
C392 C399 1.409 . S
C393 H385 0.930 . S
C393 C391 1.419 . S
C393 C394 1.362 . S
C394 H386 0.930 . S
C394 C393 1.362 . S
C394 C397 1.409 . S
C395 H387 0.930 . S
C395 C396 1.355 . S
C395 C397 1.415 . S
C396 C395 1.355 . S
C396 C398 1.419 . S
C397 C392 1.425 . S
C397 C394 1.409 . S
C397 C395 1.415 . S
C398 H388 0.930 . S
C398 C396 1.419 . S
C398 C399 1.362 . S
C399 H389 0.930 . S
C399 C392 1.409 . S
C399 C398 1.362 . S
H400 C406 0.930 . S
H401 C409 0.930 . S
H402 C410 0.930 1_554 S
H403 C411 0.930 . S
H404 C414 0.930 . S
H405 C415 0.930 . S
C406 H400 0.930 . S
C406 C407 1.355 . S
C406 C408 1.415 . S
C407 C406 1.355 . S
C407 C409 1.419 . S
C408 C406 1.415 . S
C408 C413 1.425 . S
C408 C415 1.409 . S
C409 H401 0.930 . S
C409 C407 1.419 . S
C409 C410 1.362 . S
C410 H402 0.930 1_556 S
C410 C409 1.362 . S
C410 C413 1.409 . S
C411 H403 0.930 . S
C411 C412 1.355 . S
C411 C413 1.415 . S
C412 C411 1.355 . S
C412 C414 1.419 . S
C413 C408 1.425 . S
C413 C410 1.409 . S
C413 C411 1.415 . S
C414 H404 0.930 . S
C414 C412 1.419 . S
C414 C415 1.362 . S
C415 H405 0.930 . S
C415 C408 1.409 . S
C415 C414 1.362 . S
H416 C422 0.930 . S
H417 C425 0.930 . S
H418 C426 0.930 . S
H419 C427 0.930 . S
H420 C430 0.930 . S
H421 C431 0.930 . S
C422 H416 0.930 . S
C422 C423 1.355 . S
C422 C424 1.415 . S
C423 C422 1.355 . S
C423 C425 1.419 . S
C424 C422 1.415 . S
C424 C429 1.425 . S
C424 C431 1.409 . S
C425 H417 0.930 . S
C425 C423 1.419 . S
C425 C426 1.362 . S
C426 H418 0.930 . S
C426 C425 1.362 . S
C426 C429 1.409 . S
C427 H419 0.930 . S
C427 C428 1.355 . S
C427 C429 1.415 . S
C428 C427 1.355 . S
C428 C430 1.419 . S
C429 C424 1.425 . S
C429 C426 1.409 . S
C429 C427 1.415 . S
C430 H420 0.930 . S
C430 C428 1.419 . S
C430 C431 1.362 . S
C431 H421 0.930 . S
C431 C424 1.409 . S
C431 C430 1.362 . S
H432 C438 0.930 . S
H433 C441 0.930 . S
H434 C442 0.930 . S
H435 C443 0.930 . S
H436 C446 0.930 . S
H437 C447 0.930 . S
C438 H432 0.930 . S
C438 C439 1.355 . S
C438 C440 1.415 . S
C439 C438 1.355 . S
C439 C441 1.419 . S
C440 C438 1.415 . S
C440 C445 1.425 . S
C440 C447 1.409 . S
C441 H433 0.930 . S
C441 C439 1.419 . S
C441 C442 1.362 . S
C442 H434 0.930 . S
C442 C441 1.362 . S
C442 C445 1.409 . S
C443 H435 0.930 . S
C443 C444 1.355 . S
C443 C445 1.415 . S
C444 C443 1.355 . S
C444 C446 1.419 . S
C445 C440 1.425 . S
C445 C442 1.409 . S
C445 C443 1.415 . S
C446 H436 0.930 . S
C446 C444 1.419 . S
C446 C447 1.362 . S
C447 H437 0.930 . S
C447 C440 1.409 . S
C447 C446 1.362 . S
H448 C454 0.930 . S
H449 C457 0.930 . S
H450 C458 0.930 . S
H451 C459 0.930 . S
H452 C462 0.930 . S
H453 C463 0.930 . S
C454 H448 0.930 . S
C454 C455 1.355 1_556 S
C454 C456 1.415 . S
C455 C454 1.355 1_554 S
C455 C457 1.419 1_655 S
C456 C454 1.415 . S
C456 C461 1.425 1_656 S
C456 C463 1.409 . S
C457 H449 0.930 . S
C457 C455 1.419 1_455 S
C457 C458 1.362 . S
C458 H450 0.930 . S
C458 C457 1.362 . S
C458 C461 1.409 . S
C459 H451 0.930 . S
C459 C460 1.355 1_554 S
C459 C461 1.415 . S
C460 C459 1.355 1_556 S
C460 C462 1.419 1_455 S
C461 C456 1.425 1_454 S
C461 C458 1.409 . S
C461 C459 1.415 . S
C462 H452 0.930 . S
C462 C460 1.419 1_655 S
C462 C463 1.362 . S
C463 H453 0.930 . S
C463 C456 1.409 . S
C463 C462 1.362 . S
H464 C470 0.930 1_554 S
H465 C473 0.930 1_545 S
H466 C474 0.930 . S
H467 C475 0.930 . S
H468 C478 0.930 . S
H469 C479 0.930 1_554 S
C470 H464 0.930 1_556 S
C470 C471 1.355 . S
C470 C472 1.415 . S
C471 C470 1.355 . S
C471 C473 1.419 . S
C472 C470 1.415 . S
C472 C477 1.425 1_565 S
C472 C479 1.409 . S
C473 H465 0.930 1_565 S
C473 C471 1.419 . S
C473 C474 1.362 1_565 S
C474 H466 0.930 . S
C474 C473 1.362 1_545 S
C474 C477 1.409 . S
C475 H467 0.930 . S
C475 C476 1.355 . S
C475 C477 1.415 . S
C476 C475 1.355 . S
C476 C478 1.419 1_545 S
C477 C472 1.425 1_545 S
C477 C474 1.409 . S
C477 C475 1.415 . S
C478 H468 0.930 . S
C478 C476 1.419 1_565 S
C478 C479 1.362 . S
C479 H469 0.930 1_556 S
C479 C472 1.409 . S
C479 C478 1.362 . S
H480 C486 0.930 . S
H481 C489 0.930 . S
H482 C490 0.930 . S
H483 C491 0.930 . S
H484 C494 0.930 . S
H485 C495 0.930 . S
C486 H480 0.930 . S
C486 C487 1.355 . S
C486 C488 1.415 . S
C487 C486 1.355 . S
C487 C489 1.419 . S
C488 C486 1.415 . S
C488 C493 1.425 . S
C488 C495 1.409 . S
C489 H481 0.930 . S
C489 C487 1.419 . S
C489 C490 1.362 . S
C490 H482 0.930 . S
C490 C489 1.362 . S
C490 C493 1.409 . S
C491 H483 0.930 . S
C491 C492 1.355 . S
C491 C493 1.415 . S
C492 C491 1.355 . S
C492 C494 1.419 . S
C493 C488 1.425 . S
C493 C490 1.409 . S
C493 C491 1.415 . S
C494 H484 0.930 . S
C494 C492 1.419 . S
C494 C495 1.362 . S
C495 H485 0.930 . S
C495 C488 1.409 . S
C495 C494 1.362 . S
H496 C502 0.930 . S
H497 C505 0.930 . S
H498 C506 0.930 . S
H499 C507 0.930 . S
H500 C510 0.930 1_554 S
H501 C511 0.930 1_554 S
C502 H496 0.930 . S
C502 C503 1.355 . S
C502 C504 1.415 . S
C503 C502 1.355 . S
C503 C505 1.419 . S
C504 C502 1.415 . S
C504 C509 1.425 . S
C504 C511 1.409 . S
C505 H497 0.930 . S
C505 C503 1.419 . S
C505 C506 1.362 . S
C506 H498 0.930 . S
C506 C505 1.362 . S
C506 C509 1.409 . S
C507 H499 0.930 . S
C507 C508 1.355 . S
C507 C509 1.415 . S
C508 C507 1.355 . S
C508 C510 1.419 . S
C509 C504 1.425 . S
C509 C506 1.409 . S
C509 C507 1.415 . S
C510 H500 0.930 1_556 S
C510 C508 1.419 . S
C510 C511 1.362 . S
C511 H501 0.930 1_556 S
C511 C504 1.409 . S
C511 C510 1.362 . S
H512 C518 0.930 . S
H513 C521 0.930 . S
H514 C522 0.930 . S
H515 C523 0.930 . S
H516 C526 0.930 . S
H517 C527 0.930 . S
C518 H512 0.930 . S
C518 C519 1.355 . S
C518 C520 1.415 . S
C519 C518 1.355 . S
C519 C521 1.419 . S
C520 C518 1.415 . S
C520 C525 1.425 . S
C520 C527 1.409 . S
C521 H513 0.930 . S
C521 C519 1.419 . S
C521 C522 1.362 . S
C522 H514 0.930 . S
C522 C521 1.362 . S
C522 C525 1.409 . S
C523 H515 0.930 . S
C523 C524 1.355 . S
C523 C525 1.415 . S
C524 C523 1.355 . S
C524 C526 1.419 . S
C525 C520 1.425 . S
C525 C522 1.409 . S
C525 C523 1.415 . S
C526 H516 0.930 . S
C526 C524 1.419 . S
C526 C527 1.362 . S
C527 H517 0.930 . S
C527 C520 1.409 . S
C527 C526 1.362 . S
H528 C534 0.930 . S
H529 C537 0.930 . S
H530 C538 0.930 . S
H531 C539 0.930 . S
H532 C542 0.930 . S
H533 C543 0.930 . S
C534 H528 0.930 . S
C534 C535 1.355 . S
C534 C536 1.415 . S
C535 C534 1.355 . S
C535 C537 1.419 . S
C536 C534 1.415 . S
C536 C541 1.425 . S
C536 C543 1.409 . S
C537 H529 0.930 . S
C537 C535 1.419 . S
C537 C538 1.362 . S
C538 H530 0.930 . S
C538 C537 1.362 . S
C538 C541 1.409 . S
C539 H531 0.930 . S
C539 C540 1.355 . S
C539 C541 1.415 . S
C540 C539 1.355 . S
C540 C542 1.419 . S
C541 C536 1.425 . S
C541 C538 1.409 . S
C541 C539 1.415 . S
C542 H532 0.930 . S
C542 C540 1.419 . S
C542 C543 1.362 . S
C543 H533 0.930 . S
C543 C536 1.409 . S
C543 C542 1.362 . S
H544 C550 0.930 . S
H545 C553 0.930 . S
H546 C554 0.930 1_556 S
H547 C555 0.930 1_556 S
H548 C558 0.930 . S
H549 C559 0.930 . S
C550 H544 0.930 . S
C550 C551 1.355 . S
C550 C552 1.415 . S
C551 C550 1.355 . S
C551 C553 1.419 . S
C552 C550 1.415 . S
C552 C557 1.425 . S
C552 C559 1.409 . S
C553 H545 0.930 . S
C553 C551 1.419 . S
C553 C554 1.362 . S
C554 H546 0.930 1_554 S
C554 C553 1.362 . S
C554 C557 1.409 . S
C555 H547 0.930 1_554 S
C555 C556 1.355 . S
C555 C557 1.415 . S
C556 C555 1.355 . S
C556 C558 1.419 . S
C557 C552 1.425 . S
C557 C554 1.409 . S
C557 C555 1.415 . S
C558 H548 0.930 . S
C558 C556 1.419 . S
C558 C559 1.362 . S
C559 H549 0.930 . S
C559 C552 1.409 . S
C559 C558 1.362 . S
H560 C566 0.930 . S
H561 C569 0.930 . S
H562 C570 0.930 . S
H563 C571 0.930 . S
H564 C574 0.930 . S
H565 C575 0.930 . S
C566 H560 0.930 . S
C566 C567 1.355 . S
C566 C568 1.415 . S
C567 C566 1.355 . S
C567 C569 1.419 . S
C568 C566 1.415 . S
C568 C573 1.425 . S
C568 C575 1.409 . S
C569 H561 0.930 . S
C569 C567 1.419 . S
C569 C570 1.362 . S
C570 H562 0.930 . S
C570 C569 1.362 . S
C570 C573 1.409 . S
C571 H563 0.930 . S
C571 C572 1.355 . S
C571 C573 1.415 . S
C572 C571 1.355 . S
C572 C574 1.419 . S
C573 C568 1.425 . S
C573 C570 1.409 . S
C573 C571 1.415 . S
C574 H564 0.930 . S
C574 C572 1.419 . S
C574 C575 1.362 . S
C575 H565 0.930 . S
C575 C568 1.409 . S
C575 C574 1.362 . S
H576 C582 0.930 . S
H577 C585 0.930 . S
H578 C586 0.930 . S
H579 C587 0.930 . S
H580 C590 0.930 . S
H581 C591 0.930 . S
C582 H576 0.930 . S
C582 C583 1.355 . S
C582 C584 1.415 . S
C583 C582 1.355 . S
C583 C585 1.419 1_655 S
C584 C582 1.415 . S
C584 C589 1.423 . S
C584 C591 1.409 . S
C585 H577 0.930 . S
C585 C583 1.419 1_455 S
C585 C586 1.362 . S
C586 H578 0.930 . S
C586 C585 1.362 . S
C586 C589 1.411 1_455 S
C587 H579 0.930 . S
C587 C588 1.355 1_455 S
C587 C589 1.415 1_455 S
C588 C587 1.355 1_655 S
C588 C590 1.419 . S
C589 C584 1.423 . S
C589 C586 1.411 1_655 S
C589 C587 1.415 1_655 S
C590 H580 0.930 . S
C590 C588 1.419 . S
C590 C591 1.362 . S
C591 H581 0.930 . S
C591 C584 1.409 . S
C591 C590 1.362 . S
H592 C598 0.930 . S
H593 C601 0.930 . S
H594 C602 0.930 . S
H595 C603 0.930 . S
H596 C606 0.930 . S
H597 C607 0.930 . S
C598 H592 0.930 . S
C598 C599 1.355 . S
C598 C600 1.415 . S
C599 C598 1.355 . S
C599 C601 1.419 . S
C600 C598 1.415 . S
C600 C605 1.425 . S
C600 C607 1.409 . S
C601 H593 0.930 . S
C601 C599 1.419 . S
C601 C602 1.362 . S
C602 H594 0.930 . S
C602 C601 1.362 . S
C602 C605 1.409 . S
C603 H595 0.930 . S
C603 C604 1.355 . S
C603 C605 1.415 . S
C604 C603 1.355 . S
C604 C606 1.419 . S
C605 C600 1.425 . S
C605 C602 1.409 . S
C605 C603 1.415 . S
C606 H596 0.930 . S
C606 C604 1.419 . S
C606 C607 1.362 . S
C607 H597 0.930 . S
C607 C600 1.409 . S
C607 C606 1.362 . S
H608 C614 0.930 . S
H609 C617 0.930 . S
H610 C618 0.930 . S
H611 C619 0.930 . S
H612 C622 0.930 . S
H613 C623 0.930 . S
C614 H608 0.930 . S
C614 C615 1.355 . S
C614 C616 1.415 . S
C615 C614 1.355 . S
C615 C617 1.419 . S
C616 C614 1.415 . S
C616 C621 1.425 . S
C616 C623 1.409 . S
C617 H609 0.930 . S
C617 C615 1.419 . S
C617 C618 1.362 . S
C618 H610 0.930 . S
C618 C617 1.362 . S
C618 C621 1.409 . S
C619 H611 0.930 . S
C619 C620 1.355 . S
C619 C621 1.415 . S
C620 C619 1.355 . S
C620 C622 1.419 . S
C621 C616 1.425 . S
C621 C618 1.409 . S
C621 C619 1.415 . S
C622 H612 0.930 . S
C622 C620 1.419 . S
C622 C623 1.362 . S
C623 H613 0.930 . S
C623 C616 1.409 . S
C623 C622 1.362 . S
H624 C630 0.930 . S
H625 C633 0.930 . S
H626 C634 0.930 . S
H627 C635 0.930 . S
H628 C638 0.930 . S
H629 C639 0.930 . S
C630 H624 0.930 . S
C630 C631 1.355 . S
C630 C632 1.415 . S
C631 C630 1.355 . S
C631 C633 1.419 . S
C632 C630 1.415 . S
C632 C637 1.425 . S
C632 C639 1.409 . S
C633 H625 0.930 . S
C633 C631 1.419 . S
C633 C634 1.362 . S
C634 H626 0.930 . S
C634 C633 1.362 . S
C634 C637 1.409 . S
C635 H627 0.930 . S
C635 C636 1.355 . S
C635 C637 1.415 . S
C636 C635 1.355 . S
C636 C638 1.419 . S
C637 C632 1.425 . S
C637 C634 1.409 . S
C637 C635 1.415 . S
C638 H628 0.930 . S
C638 C636 1.419 . S
C638 C639 1.362 . S
C639 H629 0.930 . S
C639 C632 1.409 . S
C639 C638 1.362 . S
C263 C76 1.625 . S
C268 C105 1.603 . S
C284 C145 1.352 . S
C279 C88 1.369 . S
C300 C194 1.326 . S
C295 C52 1.389 . S
C316 C225 1.707 . S
C311 C64 1.769 . S
C332 C114 1.645 . S
C327 C28 1.677 . S
C343 C40 1.360 . S
C348 C154 1.333 . S
C359 C4 1.386 . S
C364 C185 1.313 . S
C375 C16 1.785 . S
C380 C234 1.684 . S
C396 C115 1.074 . S
C391 C69 0.907 . S
C412 C155 1.557 . S
C407 C81 1.446 . S
C428 C191 0.820 . S
C423 C93 0.865 . S
C439 C57 1.086 . S
C444 C235 1.251 . S
C455 C21 0.965 . S
C460 C106 1.080 . S
C476 C146 1.542 . S
C471 C33 1.373 1_556 S
C492 C182 0.873 . S
C487 C45 0.844 . S
C503 C9 1.179 . S
C508 C226 1.258 . S
C519 C66 1.624 . S
C524 C111 1.650 . S
C535 C78 1.470 . S
C540 C151 1.420 . S
C556 C195 1.968 . S
C551 C90 1.839 . S
C572 C231 1.410 . S
C567 C54 1.450 . S
C583 C18 1.594 . S
C588 C102 1.663 . S
C604 C142 1.433 . S
C599 C30 1.470 . S
C620 C186 1.970 . S
C615 C42 1.772 . S
C631 C6 1.428 . S
C636 C222 1.431 . S
