# Generated by pormake.
# Topology pyr, (3,6)-cn, num edge types: 1
# Building blocks:
#     Node 0, Type 0, BuildingBlock: BELTOD_clean_linker_0, # of connection points: 3
#     Node 1, Type 0, BuildingBlock: BELTOD_clean_linker_0, # of connection points: 3
#     Node 2, Type 0, BuildingBlock: BELTOD_clean_linker_0, # of connection points: 3
#     Node 3, Type 0, BuildingBlock: BELTOD_clean_linker_0, # of connection points: 3
#     Node 4, Type 0, BuildingBlock: BELTOD_clean_linker_0, # of connection points: 3
#     Node 5, Type 0, BuildingBlock: BELTOD_clean_linker_0, # of connection points: 3
#     Node 6, Type 0, BuildingBlock: BELTOD_clean_linker_0, # of connection points: 3
#     Node 7, Type 0, BuildingBlock: BELTOD_clean_linker_0, # of connection points: 3
#     Node 8, Type 1, BuildingBlock: BETGAK_clean_sbu_0, # of connection points: 6
#     Node 9, Type 1, BuildingBlock: BETGAK_clean_sbu_0, # of connection points: 6
#     Node 10, Type 1, BuildingBlock: BETGAK_clean_sbu_0, # of connection points: 6
#     Node 11, Type 1, BuildingBlock: BETGAK_clean_sbu_0, # of connection points: 6
#     Edge 12, Type (0, 1), BuildingBlock: TEMPAE_clean_linker_10, # of connection points: 2
#     Edge 13, Type (0, 1), BuildingBlock: TEMPAE_clean_linker_10, # of connection points: 2
#     Edge 14, Type (0, 1), BuildingBlock: TEMPAE_clean_linker_10, # of connection points: 2
#     Edge 15, Type (0, 1), BuildingBlock: TEMPAE_clean_linker_10, # of connection points: 2
#     Edge 16, Type (0, 1), BuildingBlock: TEMPAE_clean_linker_10, # of connection points: 2
#     Edge 17, Type (0, 1), BuildingBlock: TEMPAE_clean_linker_10, # of connection points: 2
#     Edge 18, Type (0, 1), BuildingBlock: TEMPAE_clean_linker_10, # of connection points: 2
#     Edge 19, Type (0, 1), BuildingBlock: TEMPAE_clean_linker_10, # of connection points: 2
#     Edge 20, Type (0, 1), BuildingBlock: TEMPAE_clean_linker_10, # of connection points: 2
#     Edge 21, Type (0, 1), BuildingBlock: TEMPAE_clean_linker_10, # of connection points: 2
#     Edge 22, Type (0, 1), BuildingBlock: TEMPAE_clean_linker_10, # of connection points: 2
#     Edge 23, Type (0, 1), BuildingBlock: TEMPAE_clean_linker_10, # of connection points: 2
#     Edge 24, Type (0, 1), BuildingBlock: TEMPAE_clean_linker_10, # of connection points: 2
#     Edge 25, Type (0, 1), BuildingBlock: TEMPAE_clean_linker_10, # of connection points: 2
#     Edge 26, Type (0, 1), BuildingBlock: TEMPAE_clean_linker_10, # of connection points: 2
#     Edge 27, Type (0, 1), BuildingBlock: TEMPAE_clean_linker_10, # of connection points: 2
#     Edge 28, Type (0, 1), BuildingBlock: TEMPAE_clean_linker_10, # of connection points: 2
#     Edge 29, Type (0, 1), BuildingBlock: TEMPAE_clean_linker_10, # of connection points: 2
#     Edge 30, Type (0, 1), BuildingBlock: TEMPAE_clean_linker_10, # of connection points: 2
#     Edge 31, Type (0, 1), BuildingBlock: TEMPAE_clean_linker_10, # of connection points: 2
#     Edge 32, Type (0, 1), BuildingBlock: TEMPAE_clean_linker_10, # of connection points: 2
#     Edge 33, Type (0, 1), BuildingBlock: TEMPAE_clean_linker_10, # of connection points: 2
#     Edge 34, Type (0, 1), BuildingBlock: TEMPAE_clean_linker_10, # of connection points: 2
#     Edge 35, Type (0, 1), BuildingBlock: TEMPAE_clean_linker_10, # of connection points: 2
# Relax obj value: 0.104
# Max RMSD: 0.124
# Mean RMSD: 0.058
data_MOF--net-pyr--node1-BETGAK_clean_sbu_0--node2-BELTOD_clean_linker_0--edge1-TEMPAE_clean_linker_10
_symmetry_space_group_name_H-M    P1
_symmetry_Int_Tables_number       1
_symmetry_cell_setting            triclinic
loop_
_symmetry_equiv_pos_as_xyz
'x, y, z'
_cell_length_a     43.585145
_cell_length_b     46.483203
_cell_length_c     41.615994
_cell_angle_alpha  90.727626
_cell_angle_beta   88.88395
_cell_angle_gamma 102.09683
loop_
_atom_site_label
_atom_site_type_symbol
_atom_site_fract_x
_atom_site_fract_y
_atom_site_fract_z
_atom_type_partial_charge
P0 P 0.34337 0.29885 0.24698 0.0
H1 H 0.40417 0.28142 0.24818 0.0
H2 H 0.42221 0.23842 0.22678 0.0
H3 H 0.33102 0.20557 0.18617 0.0
H4 H 0.3128 0.24832 0.20825 0.0
H5 H 0.32623 0.35529 0.25465 0.0
H6 H 0.29801 0.38262 0.22029 0.0
H7 H 0.30492 0.32224 0.142 0.0
H8 H 0.33319 0.29498 0.17655 0.0
H9 H 0.3356 0.27981 0.31399 0.0
H10 H 0.27635 0.28405 0.23308 0.0
O11 O 0.37097 0.31867 0.27018 0.0
H12 H 0.28911 0.25886 0.34682 0.0
H13 H 0.23013 0.26317 0.26551 0.0
C14 C 0.35726 0.26824 0.22945 0.0
C15 C 0.38805 0.26505 0.23461 0.0
C16 C 0.39829 0.2404 0.22258 0.0
C17 C 0.37796 0.21873 0.20489 0.0
C18 C 0.34718 0.22208 0.19957 0.0
C19 C 0.33682 0.24649 0.21209 0.0
C20 C 0.33169 0.32302 0.2183 0.0
C21 C 0.32261 0.3485 0.22977 0.0
C22 C 0.30648 0.36414 0.21005 0.0
C23 C 0.29897 0.35442 0.17849 0.0
C24 C 0.31001 0.33001 0.16636 0.0
C25 C 0.32627 0.31442 0.18613 0.0
C26 C 0.30936 0.28413 0.27139 0.0
C27 C 0.31261 0.27647 0.3034 0.0
C28 C 0.28609 0.26439 0.32204 0.0
C29 C 0.25596 0.25972 0.30881 0.0
C30 C 0.25295 0.26712 0.27657 0.0
C31 C 0.27941 0.27902 0.25799 0.0
P32 P 0.37113 0.95577 0.56044 0.0
H33 H 0.40319 0.9272 0.60844 0.0
H34 H 0.40895 0.93402 0.66628 0.0
H35 H 0.36405 1.00843 0.66272 0.0
H36 H 0.35773 1.00109 0.60469 0.0
H37 H 0.41503 0.92901 0.52183 0.0
H38 H 0.4223 0.87825 0.51759 0.0
H39 H 0.33912 0.84935 0.57648 0.0
H40 H 0.33211 0.89994 0.58084 0.0
H41 H 0.34522 0.98078 0.50547 0.0
H42 H 0.31188 0.94237 0.59679 0.0
O43 O 0.39778 0.97873 0.53851 0.0
H44 H 0.29274 0.9893 0.4948 0.0
H45 H 0.25961 0.95077 0.5863 0.0
C46 C 0.37912 0.96308 0.60239 0.0
C47 C 0.39454 0.94499 0.61998 0.0
C48 C 0.39808 0.94906 0.6531 0.0
C49 C 0.38656 0.97152 0.66915 0.0
C50 C 0.37254 0.99054 0.65113 0.0
C51 C 0.36906 0.98646 0.61797 0.0
C52 C 0.37289 0.91821 0.55144 0.0
C53 C 0.39792 0.91166 0.53313 0.0
C54 C 0.40202 0.88266 0.53067 0.0
C55 C 0.38134 0.85996 0.54686 0.0
C56 C 0.35551 0.86649 0.56396 0.0
C57 C 0.35135 0.89538 0.56623 0.0
C58 C 0.33248 0.96128 0.55206 0.0
C59 C 0.32664 0.97419 0.52319 0.0
C60 C 0.29671 0.97907 0.51716 0.0
C61 C 0.27215 0.97075 0.53977 0.0
C62 C 0.27799 0.95714 0.5683 0.0
C63 C 0.3079 0.95245 0.57436 0.0
P64 P 0.66845 0.34319 0.84757 0.0
H65 H 0.73337 0.33705 0.85485 0.0
H66 H 0.77772 0.36417 0.88491 0.0
H67 H 0.71988 0.42198 0.9229 0.0
H68 H 0.67508 0.39423 0.89265 0.0
H69 H 0.62241 0.28997 0.83007 0.0
H70 H 0.59531 0.24724 0.85982 0.0
H71 H 0.63971 0.2853 0.94698 0.0
H72 H 0.66448 0.32918 0.91731 0.0
H73 H 0.68514 0.4047 0.82572 0.0
H74 H 0.60539 0.33257 0.81858 0.0
O75 O 0.68477 0.32625 0.81833 0.0
H76 H 0.66128 0.43276 0.78805 0.0
H77 H 0.58245 0.35935 0.77912 0.0
C78 C 0.70093 0.36395 0.87077 0.0
C79 C 0.73011 0.35568 0.86939 0.0
C80 C 0.75565 0.37135 0.88662 0.0
C81 C 0.75272 0.39566 0.90607 0.0
C82 C 0.72311 0.40342 0.9082 0.0
C83 C 0.69747 0.38768 0.89076 0.0
C84 C 0.64497 0.31346 0.87132 0.0
C85 C 0.62541 0.28972 0.85581 0.0
C86 C 0.61047 0.2647 0.87292 0.0
C87 C 0.61538 0.26208 0.9061 0.0
C88 C 0.63472 0.28623 0.92169 0.0
C89 C 0.64914 0.31157 0.90458 0.0
C90 C 0.64694 0.36654 0.82601 0.0
C91 C 0.66216 0.39499 0.81665 0.0
C92 C 0.64865 0.41089 0.79429 0.0
C93 C 0.61982 0.3985 0.77971 0.0
C94 C 0.60433 0.37019 0.7898 0.0
C95 C 0.61764 0.35457 0.81259 0.0
P96 P 0.83311 0.69664 0.34815 0.0
H97 H 0.87463 0.75083 0.32617 0.0
H98 H 0.90257 0.79481 0.35428 0.0
H99 H 0.87753 0.75171 0.44524 0.0
H100 H 0.84966 0.70775 0.41688 0.0
H101 H 0.80912 0.65373 0.29839 0.0
H102 H 0.83382 0.62675 0.25833 0.0
H103 H 0.9246 0.66358 0.29802 0.0
H104 H 0.89939 0.69017 0.33865 0.0
H105 H 0.79118 0.71541 0.39544 0.0
H106 H 0.8075 0.63264 0.359 0.0
O107 O 0.81343 0.71391 0.32341 0.0
H108 H 0.74705 0.68961 0.4278 0.0
H109 H 0.76209 0.60654 0.38994 0.0
C110 C 0.85962 0.726 0.36928 0.0
C111 C 0.87564 0.7506 0.35215 0.0
C112 C 0.89167 0.77583 0.36833 0.0
C113 C 0.89201 0.77714 0.40217 0.0
C114 C 0.87726 0.75181 0.41922 0.0
C115 C 0.86143 0.72649 0.40296 0.0
C116 C 0.85225 0.67387 0.32181 0.0
C117 C 0.83431 0.6557 0.29883 0.0
C118 C 0.84859 0.6405 0.27559 0.0
C119 C 0.88138 0.64311 0.27445 0.0
C120 C 0.8993 0.66079 0.29813 0.0
C121 C 0.8849 0.67608 0.32147 0.0
C122 C 0.80307 0.67612 0.37494 0.0
C123 C 0.78542 0.69159 0.39457 0.0
C124 C 0.75973 0.67671 0.41277 0.0
C125 C 0.75037 0.6458 0.41136 0.0
C126 C 0.76852 0.63026 0.39204 0.0
C127 C 0.79457 0.64525 0.37408 0.0
P128 P 0.72527 0.82342 0.87473 0.0
H129 H 0.69499 0.82736 0.93669 0.0
H130 H 0.64947 0.84704 0.95279 0.0
H131 H 0.62527 0.85176 0.85303 0.0
H132 H 0.6713 0.83239 0.83706 0.0
H133 H 0.7703 0.79293 0.84513 0.0
H134 H 0.7878 0.74872 0.85883 0.0
H135 H 0.71603 0.7303 0.93319 0.0
H136 H 0.69801 0.775 0.91886 0.0
H137 H 0.76507 0.87608 0.84759 0.0
H138 H 0.70871 0.79472 0.81239 0.0
O139 O 0.75025 0.84537 0.89887 0.0
H140 H 0.78929 0.88588 0.79494 0.0
H141 H 0.73233 0.80482 0.75865 0.0
C142 C 0.68674 0.82868 0.88573 0.0
C143 C 0.67933 0.8317 0.91831 0.0
C144 C 0.65317 0.84293 0.92748 0.0
C145 C 0.63391 0.85134 0.90415 0.0
C146 C 0.63996 0.84594 0.87153 0.0
C147 C 0.66621 0.83468 0.86239 0.0
C148 C 0.7322 0.787 0.88033 0.0
C149 C 0.75726 0.77887 0.86345 0.0
C150 C 0.76738 0.75344 0.87137 0.0
C151 C 0.75315 0.73583 0.89693 0.0
C152 C 0.72736 0.74343 0.91329 0.0
C153 C 0.71697 0.76889 0.90504 0.0
C154 C 0.73569 0.83436 0.83399 0.0
C155 C 0.75722 0.86069 0.82822 0.0
C156 C 0.77088 0.8664 0.79782 0.0
C157 C 0.76304 0.84595 0.7725 0.0
C158 C 0.73928 0.82076 0.77774 0.0
C159 C 0.72562 0.81506 0.80833 0.0
P160 P 0.83565 0.26437 0.42337 0.0
H161 H 0.84089 0.3181 0.46208 0.0
H162 H 0.80187 0.3401 0.49092 0.0
H163 H 0.7294 0.26552 0.46395 0.0
H164 H 0.7685 0.24336 0.43655 0.0
H165 H 0.88213 0.23001 0.40747 0.0
H166 H 0.90324 0.19375 0.43713 0.0
H167 H 0.84879 0.20951 0.52103 0.0
H168 H 0.8271 0.24508 0.49087 0.0
H169 H 0.82217 0.2823 0.35909 0.0
H170 H 0.80434 0.20265 0.41461 0.0
O171 O 0.86401 0.29158 0.40976 0.0
H172 H 0.79176 0.25605 0.31491 0.0
H173 H 0.77331 0.17645 0.37104 0.0
C174 C 0.80742 0.27958 0.44636 0.0
C175 C 0.81661 0.30648 0.46261 0.0
C176 C 0.79428 0.31902 0.47904 0.0
C177 C 0.76242 0.30474 0.47948 0.0
C178 C 0.75371 0.27704 0.46442 0.0
C179 C 0.77605 0.26449 0.44826 0.0
C180 C 0.8531 0.24016 0.44693 0.0
C181 C 0.87501 0.22583 0.43235 0.0
C182 C 0.88716 0.20523 0.44941 0.0
C183 C 0.87771 0.19875 0.48148 0.0
C184 C 0.85625 0.21375 0.49625 0.0
C185 C 0.84397 0.23426 0.47906 0.0
C186 C 0.81608 0.24427 0.38977 0.0
C187 C 0.81203 0.25907 0.36158 0.0
C188 C 0.79437 0.24411 0.33652 0.0
C189 C 0.7801 0.21413 0.33944 0.0
C190 C 0.78443 0.19937 0.36775 0.0
C191 C 0.80219 0.21434 0.39271 0.0
P192 P 0.37078 0.69381 0.21442 0.0
H193 H 0.34407 0.69415 0.15101 0.0
H194 H 0.29324 0.67224 0.12837 0.0
H195 H 0.25938 0.64071 0.22251 0.0
H196 H 0.30988 0.66426 0.24518 0.0
H197 H 0.43314 0.73154 0.20682 0.0
H198 H 0.45159 0.78249 0.18985 0.0
H199 H 0.35593 0.79427 0.18974 0.0
H200 H 0.33765 0.74316 0.20706 0.0
H201 H 0.35426 0.63569 0.24376 0.0
H202 H 0.40525 0.72175 0.2717 0.0
O203 O 0.39343 0.67818 0.18993 0.0
H204 H 0.36933 0.61518 0.29328 0.0
H205 H 0.42087 0.70122 0.32141 0.0
C206 C 0.33117 0.68054 0.19974 0.0
C207 C 0.32557 0.68283 0.16688 0.0
C208 C 0.29645 0.66989 0.15386 0.0
C209 C 0.27203 0.65396 0.17331 0.0
C210 C 0.27737 0.65273 0.20659 0.0
C211 C 0.30651 0.66604 0.21966 0.0
C212 C 0.38396 0.73327 0.2081 0.0
C213 C 0.4161 0.74516 0.20362 0.0
C214 C 0.42663 0.77433 0.19355 0.0
C215 C 0.40529 0.79258 0.18782 0.0
C216 C 0.37313 0.78102 0.1939 0.0
C217 C 0.36259 0.75168 0.20385 0.0
C218 C 0.3776 0.68055 0.25423 0.0
C219 C 0.36794 0.65043 0.261 0.0
C220 C 0.37678 0.63862 0.2894 0.0
C221 C 0.39628 0.65645 0.31166 0.0
C222 C 0.40594 0.68672 0.30488 0.0
C223 C 0.39672 0.6986 0.27652 0.0
P224 P 0.16977 0.35327 0.7506 0.0
H225 H 0.19379 0.31097 0.71134 0.0
H226 H 0.1697 0.26843 0.67921 0.0
H227 H 0.07843 0.28814 0.69816 0.0
H228 H 0.10302 0.33078 0.73099 0.0
H229 H 0.23808 0.36273 0.75754 0.0
H230 H 0.28247 0.38977 0.72645 0.0
H231 H 0.21884 0.42058 0.66353 0.0
H232 H 0.17403 0.39321 0.69514 0.0
H233 H 0.11362 0.33603 0.79164 0.0
H234 H 0.17467 0.41707 0.76232 0.0
O235 O 0.18507 0.33566 0.7789 0.0
H236 H 0.08811 0.36294 0.83124 0.0
H237 H 0.14898 0.44424 0.80138 0.0
C238 C 0.15037 0.32428 0.72362 0.0
C239 C 0.1686 0.30644 0.70829 0.0
C240 C 0.1547 0.28203 0.68971 0.0
C241 C 0.12196 0.27459 0.6858 0.0
C242 C 0.10366 0.29285 0.70082 0.0
C243 C 0.11772 0.31745 0.71952 0.0
C244 C 0.20253 0.37593 0.72884 0.0
C245 C 0.23345 0.37542 0.73726 0.0
C246 C 0.25898 0.39081 0.71923 0.0
C247 C 0.25436 0.40724 0.69225 0.0
C248 C 0.22332 0.40831 0.68425 0.0
C249 C 0.19766 0.39265 0.70226 0.0
C250 C 0.14561 0.37442 0.77315 0.0
C251 C 0.12082 0.35977 0.79285 0.0
C252 C 0.10631 0.37527 0.81576 0.0
C253 C 0.11646 0.40593 0.81994 0.0
C254 C 0.1407 0.42065 0.7994 0.0
C255 C 0.15517 0.4051 0.7765 0.0
La256 La 1.00832 0.04125 0.50921 0.0
La257 La 0.01562 1.01208 0.57137 0.0
C258 C 0.9987 0.07559 0.46594 0.0
C259 C 0.01945 0.10196 0.45291 0.0
C260 C 0.04749 0.11406 0.46855 0.0
C261 C 0.06957 0.13649 0.45422 0.0
C262 C 0.06409 0.14714 0.42385 0.0
C263 C 0.0353 0.13582 0.40889 0.0
C264 C 1.01313 0.11334 0.42335 0.0
C265 C 0.06116 1.02257 0.51452 0.0
C266 C 0.03791 0.07987 0.57017 0.0
C267 C 0.02626 0.97835 0.61459 0.0
C268 C 1.00668 0.95111 0.62761 0.0
C269 C 0.99727 0.95066 0.65999 0.0
C270 C 0.97267 0.92874 0.67124 0.0
C271 C 0.95719 0.90649 0.65039 0.0
C272 C 0.96859 0.9055 0.61864 0.0
C273 C 0.99304 0.9277 0.6073 0.0
C274 C 0.96307 1.03171 0.56608 0.0
C275 C 0.98371 0.97359 0.51107 0.0
O276 O 1.00821 0.05115 0.46017 0.0
O277 O 0.98978 0.07751 0.49592 0.0
O278 O 0.04708 1.02378 0.48775 0.0
O279 O 0.04751 1.03422 0.53623 0.0
O280 O 0.02194 0.07866 0.54318 0.0
O281 O 0.04378 0.05555 0.58268 0.0
O282 O 0.015 1.00191 0.62025 0.0
O283 O 0.03681 0.97746 0.58496 0.0
O284 O 0.97745 1.03067 0.59277 0.0
O285 O 0.97682 1.01964 0.54479 0.0
O286 O 0.99974 0.97446 0.53805 0.0
O287 O 0.97898 0.99821 0.49821 0.0
H288 H 0.05294 0.10528 0.49123 0.0
H289 H 0.09163 0.14438 0.46617 0.0
H290 H 0.03032 0.14381 0.38563 0.0
H291 H 0.9916 0.10415 0.41096 0.0
H292 H 1.00739 0.96852 0.67607 0.0
H293 H 0.96443 0.9306 0.69573 0.0
H294 H 0.9577 0.88837 0.60211 0.0
H295 H 1.00002 0.92734 0.58226 0.0
La296 La 0.53364 0.04305 0.06909 0.0
La297 La 0.46851 1.02257 0.03792 0.0
C298 C 0.58612 0.07476 0.08226 0.0
C299 C 0.60434 0.08771 0.11014 0.0
C300 C 0.60392 0.0723 0.13899 0.0
C301 C 0.62264 0.08491 0.16455 0.0
C302 C 0.64194 0.11314 0.16168 0.0
C303 C 0.64169 0.12864 0.13291 0.0
C304 C 0.62313 0.11599 0.10739 0.0
C305 C 0.49947 0.99671 0.10066 0.0
C306 C 0.47341 0.06263 0.098 0.0
C307 C 0.41944 0.9953 1.01142 0.0
C308 C 0.41363 0.99137 0.97691 0.0
C309 C 0.43679 1.00518 0.95503 0.0
C310 C 0.43165 1.00261 0.9221 0.0
C311 C 0.40326 0.98613 0.91038 0.0
C312 C 0.38026 0.97185 0.93235 0.0
C313 C 0.3854 0.97455 0.96549 0.0
C314 C 0.50289 0.07332 1.01671 0.0
C315 C 0.52711 0.99766 1.01125 0.0
O316 O 0.58116 0.04607 0.0788 0.0
O317 O 0.5613 0.08533 0.07588 0.0
O318 O 0.52762 1.01012 0.10837 0.0
O319 O 0.49234 1.0107 0.07732 0.0
O320 O 0.50403 0.07003 0.09218 0.0
O321 O 0.45545 0.03955 0.08395 0.0
O322 O 0.42323 1.02251 1.02169 0.0
O323 O 0.44102 0.98236 1.02225 0.0
O324 O 0.4726 0.06652 1.01751 0.0
O325 O 0.51276 0.05082 1.02469 0.0
O326 O 0.49651 0.99644 1.01091 0.0
O327 O 0.54634 1.01621 1.0299 0.0
H328 H 0.58945 0.05045 0.14165 0.0
H329 H 0.62246 0.07232 0.1863 0.0
H330 H 0.65577 0.15064 0.13012 0.0
H331 H 0.62359 0.12826 0.08534 0.0
H332 H 0.45882 1.01816 0.96348 0.0
H333 H 0.45002 1.01341 0.90577 0.0
H334 H 0.35813 0.95908 0.92393 0.0
H335 H 0.36733 0.96375 0.98214 0.0
La336 La 0.50178 0.5024 0.52873 0.0
La337 La 0.49986 0.55191 0.57214 0.0
C338 C 0.51814 0.46159 0.49683 0.0
C339 C 0.54041 0.44251 0.5023 0.0
C340 C 0.53359 0.41338 0.49109 0.0
C341 C 0.55493 0.3952 0.49538 0.0
C342 C 0.58356 0.40595 0.51082 0.0
C343 C 0.58982 0.43495 0.52292 0.0
C344 C 0.56839 0.45303 0.51879 0.0
C345 C 0.44737 0.49894 0.55933 0.0
C346 C 0.52867 0.50232 0.60008 0.0
C347 C 0.4814 0.59123 0.60475 0.0
C348 C 0.46887 0.61724 0.59678 0.0
C349 C 0.48034 0.64396 0.61265 0.0
C350 C 0.46992 0.66926 0.60432 0.0
C351 C 0.4479 0.66831 0.57982 0.0
C352 C 0.4361 0.64133 0.56429 0.0
C353 C 0.44646 0.61603 0.57272 0.0
C354 C 0.55453 0.55585 0.54167 0.0
C355 C 0.47555 0.55345 0.4992 0.0
O356 O 0.4936 0.45755 0.51604 0.0
O357 O 0.53038 0.48951 0.49262 0.0
O358 O 0.45048 0.49111 0.52964 0.0
O359 O 0.47432 0.50754 0.57097 0.0
O360 O 0.53003 0.49347 0.56975 0.0
O361 O 0.5139 0.52357 0.60783 0.0
O362 O 0.51077 0.5925 0.59661 0.0
O363 O 0.46363 0.56557 0.59803 0.0
O364 O 0.55114 0.56467 0.57096 0.0
O365 O 0.52762 0.54676 0.5301 0.0
O366 O 0.47705 0.56466 0.52881 0.0
O367 O 0.48612 0.52935 0.49259 0.0
H368 H 0.5119 0.40479 0.47872 0.0
H369 H 0.54916 0.37283 0.48627 0.0
H370 H 0.61175 0.44405 0.53461 0.0
H371 H 0.574 0.47541 0.52794 0.0
H372 H 0.49755 0.64531 0.63134 0.0
H373 H 0.47901 0.68955 0.61721 0.0
H374 H 0.41923 0.63984 0.54526 0.0
H375 H 0.43714 0.59562 0.56017 0.0
La376 La 1.0078 0.49664 0.06645 0.0
La377 La 1.00243 0.55648 0.03682 0.0
C378 C 0.02494 0.45079 0.08356 0.0
C379 C 0.05507 0.44231 0.08856 0.0
C380 C 0.05579 0.41779 0.10745 0.0
C381 C 0.08433 0.41024 0.11413 0.0
C382 C 0.11273 0.4272 0.10213 0.0
C383 C 0.11186 0.45153 0.08266 0.0
C384 C 0.08322 0.45905 0.07595 0.0
C385 C 0.97546 0.52915 0.10043 0.0
C386 C 0.06468 0.55321 0.07276 0.0
C387 C 0.98454 0.6041 1.03151 0.0
C388 C 0.96262 0.61513 1.01111 0.0
C389 C 0.94373 0.59635 0.98933 0.0
C390 C 0.92002 0.60601 0.97311 0.0
C391 C 0.91508 0.63466 0.9783 0.0
C392 C 0.93482 0.65364 0.99939 0.0
C393 C 0.95833 0.64389 1.01573 0.0
C394 C 0.02634 0.5236 0.99361 0.0
C395 C 0.94904 0.49856 1.0241 0.0
O396 O 0.01824 0.47052 0.10373 0.0
O397 O 0.01839 0.45594 0.05386 0.0
O398 O 0.9688 0.5006 0.09925 0.0
O399 O 1.00014 0.53815 0.08392 0.0
O400 O 0.05497 0.52412 0.07404 0.0
O401 O 0.04695 0.57052 0.06124 0.0
O402 O 1.01018 0.59903 1.01755 0.0
O403 O 0.97126 0.58292 0.05091 0.0
O404 O 0.02086 0.54946 0.98787 0.0
O405 O 0.018 0.51818 1.02239 0.0
O406 O 0.95722 0.52776 1.02462 0.0
O407 O 0.96674 0.48169 0.03665 0.0
H408 H 0.03426 0.40463 0.11733 0.0
H409 H 0.08417 0.39108 0.12874 0.0
H410 H 0.13334 0.46514 0.07327 0.0
H411 H 0.08309 0.47811 0.06129 0.0
H412 H 0.9468 0.57403 0.98556 0.0
H413 H 0.90536 0.59101 0.95679 0.0
H414 H 0.93133 0.6757 1.0042 0.0
H415 H 0.97253 0.65852 1.03273 0.0
C416 C 0.20035 0.25766 0.32664 0.0
C417 C 0.22771 0.24634 0.32807 0.0
C418 C 0.17278 0.24402 0.34295 0.0
C419 C 0.17257 0.21839 0.36101 0.0
C420 C 0.20034 0.2073 0.36323 0.0
C421 C 0.22761 0.22146 0.34677 0.0
C422 C 0.14369 0.25659 0.34024 0.0
C423 C 0.20098 0.17995 0.38219 0.0
C424 C 0.1088 0.19104 0.42342 0.0
C425 C 0.08962 0.1678 0.40679 0.0
C426 C 0.13541 0.20834 0.40853 0.0
C427 C 0.14296 0.20223 0.37628 0.0
C428 C 0.12302 0.17956 0.359 0.0
C429 C 0.0966 0.16262 0.37447 0.0
C430 C 0.15601 0.23247 0.42764 0.0
C431 C 0.13031 0.17239 0.32455 0.0
H432 H 0.20048 0.27714 0.31254 0.0
H433 H 0.2486 0.21247 0.34768 0.0
H434 H 0.12519 0.24058 0.3277 0.0
H435 H 0.13427 0.26046 0.3645 0.0
H436 H 0.14825 0.27762 0.32683 0.0
H437 H 0.22482 0.17499 0.38273 0.0
H438 H 0.19278 0.18249 0.40726 0.0
H439 H 0.18472 0.16082 0.37144 0.0
H440 H 0.1033 0.19533 0.44831 0.0
H441 H 0.08217 0.14444 0.36161 0.0
H442 H 0.16002 0.25351 0.41437 0.0
H443 H 0.17929 0.22692 0.43101 0.0
H444 H 0.14568 0.23578 0.45167 0.0
H445 H 0.13366 0.19244 0.30963 0.0
H446 H 0.11145 0.15529 0.31393 0.0
H447 H 0.15257 0.16438 0.32333 0.0
C448 C 0.36226 0.97924 0.72273 0.0
C449 C 0.38825 0.9744 0.70466 0.0
C450 C 0.36311 0.98107 0.75639 0.0
C451 C 0.3906 0.97796 0.77232 0.0
C452 C 0.41695 0.97317 0.75423 0.0
C453 C 0.41546 0.97147 0.72061 0.0
C454 C 0.33456 0.98619 0.7749 0.0
C455 C 0.44674 0.9699 0.7704 0.0
C456 C 0.40614 1.00941 0.85633 0.0
C457 C 0.398 0.98412 0.87526 0.0
C458 C 0.40329 1.00779 0.82284 0.0
C459 C 0.39206 0.98017 0.80792 0.0
C460 C 0.38311 0.95462 0.82695 0.0
C461 C 0.38613 0.95692 0.86046 0.0
C462 C 0.41282 0.03555 0.80339 0.0
C463 C 0.37111 0.92479 0.81182 0.0
H464 H 0.341 0.98107 0.71056 0.0
H465 H 0.43572 0.96805 0.70674 0.0
H466 H 0.32611 0.96773 0.79166 0.0
H467 H 0.34078 1.00656 0.78965 0.0
H468 H 0.31506 0.98822 0.75886 0.0
H469 H 0.46498 0.9659 0.75288 0.0
H470 H 0.4564 0.99008 0.78448 0.0
H471 H 0.44161 0.95133 0.78752 0.0
H472 H 0.41489 1.03055 0.86776 0.0
H473 H 0.38006 0.9373 0.87501 0.0
H474 H 0.39306 0.03863 0.78832 0.0
H475 H 0.43262 1.03367 0.78689 0.0
H476 H 0.4201 0.05542 0.81879 0.0
H477 H 0.35071 0.92542 0.79652 0.0
H478 H 0.36394 0.9073 0.83006 0.0
H479 H 0.38963 0.91879 0.79603 0.0
C480 C 0.62671 0.43337 0.73212 0.0
C481 C 0.60669 0.41439 0.75334 0.0
C482 C 0.61487 0.44802 0.70715 0.0
C483 C 0.58206 0.44328 0.70239 0.0
C484 C 0.56168 0.42402 0.7234 0.0
C485 C 0.57411 0.41018 0.74865 0.0
C486 C 0.63758 0.46866 0.68579 0.0
C487 C 0.52659 0.41791 0.71915 0.0
C488 C 0.54724 0.49995 0.65693 0.0
C489 C 0.54318 0.48758 0.62591 0.0
C490 C 0.56025 0.48607 0.68171 0.0
C491 C 0.56904 0.45874 0.67577 0.0
C492 C 0.56508 0.44618 0.64445 0.0
C493 C 0.5525 0.46079 0.61995 0.0
C494 C 0.56463 0.50075 0.71435 0.0
C495 C 0.57366 0.41697 0.6369 0.0
H496 H 0.65188 0.43658 0.73457 0.0
H497 H 0.55806 0.39617 0.76489 0.0
H498 H 0.6355 0.46062 0.66056 0.0
H499 H 0.63178 0.49079 0.6863 0.0
H500 H 0.66232 0.47084 0.6932 0.0
H501 H 0.5139 0.40152 0.73659 0.0
H502 H 0.51789 0.43857 0.72222 0.0
H503 H 0.52072 0.40958 0.69444 0.0
H504 H 0.54038 0.52068 0.6619 0.0
H505 H 0.54943 0.45089 0.5962 0.0
H506 H 0.58955 0.50396 0.72141 0.0
H507 H 0.55038 0.48645 0.73267 0.0
H508 H 0.55774 0.52245 0.71487 0.0
H509 H 0.5987 0.41803 0.64226 0.0
H510 H 0.56964 0.41031 0.61133 0.0
H511 H 0.55953 0.39967 0.65238 0.0
C512 C 0.92181 0.61448 0.25466 0.0
C513 C 0.89654 0.6279 0.24827 0.0
C514 C 0.93537 0.59936 0.23038 0.0
C515 C 0.92361 0.59757 0.19868 0.0
C516 C 0.89854 0.61154 0.19194 0.0
C517 C 0.88539 0.62643 0.21665 0.0
C518 C 0.96198 0.5848 0.23882 0.0
C519 C 0.88531 0.61051 0.15858 0.0
C520 C 0.97446 0.57721 0.12907 0.0
C521 C 0.96158 0.54716 0.12447 0.0
C522 C 0.96232 0.59391 0.15289 0.0
C523 C 0.93675 0.58027 0.17288 0.0
C524 C 0.92358 0.54996 0.1681 0.0
C525 C 0.93607 0.53387 0.14403 0.0
C526 C 0.97705 0.62612 0.15685 0.0
C527 C 0.89636 0.53439 0.18865 0.0
H528 H 0.93056 0.61517 0.27891 0.0
H529 H 0.86635 0.63714 0.21107 0.0
H530 H 0.95481 0.56068 0.23492 0.0
H531 H 0.98259 0.59286 0.22284 0.0
H532 H 0.96924 0.589 0.26418 0.0
H533 H 0.86648 0.62322 0.15691 0.0
H534 H 0.90423 0.61945 0.14096 0.0
H535 H 0.87557 0.58736 0.15149 0.0
H536 H 0.99431 0.58765 0.11426 0.0
H537 H 0.92598 0.51067 0.14074 0.0
H538 H 0.98666 0.63033 0.18136 0.0
H539 H 0.95903 0.63956 0.15423 0.0
H540 H 0.99627 0.63364 0.13902 0.0
H541 H 0.90301 0.53592 0.21432 0.0
H542 H 0.88871 0.5108 0.18196 0.0
H543 H 0.87614 0.54524 0.18635 0.0
C544 C 0.40402 0.17611 0.21137 0.0
C545 C 0.38908 0.19296 0.19161 0.0
C546 C 0.41597 0.15247 0.19871 0.0
C547 C 0.41349 0.14602 0.16541 0.0
C548 C 0.39785 0.16264 0.14549 0.0
C549 C 0.38557 0.18576 0.15892 0.0
C550 C 0.43194 0.13489 0.2208 0.0
C551 C 0.39522 0.1568 0.10977 0.0
C552 C 0.47536 0.11139 0.12435 0.0
C553 C 0.45872 0.08265 0.11821 0.0
C554 C 0.46104 0.132 0.14023 0.0
C555 C 0.42942 0.12355 0.15082 0.0
C556 C 0.41285 0.09423 0.14599 0.0
C557 C 0.42761 0.07415 0.12942 0.0
C558 C 0.47943 0.16316 0.14449 0.0
C559 C 0.37932 0.08428 0.15759 0.0
H560 H 0.4064 0.18151 0.23675 0.0
H561 H 0.37418 0.19893 0.14363 0.0
H562 H 0.42221 0.11101 0.21756 0.0
H563 H 0.45735 0.13878 0.21469 0.0
H564 H 0.42922 0.14085 0.24648 0.0
H565 H 0.38114 0.17084 0.09791 0.0
H566 H 0.419 0.16101 0.09848 0.0
H567 H 0.38427 0.1334 0.10508 0.0
H568 H 0.49935 0.11826 0.11564 0.0
H569 H 0.41466 0.05194 0.12489 0.0
H570 H 0.47964 0.16969 0.17022 0.0
H571 H 0.46797 0.1785 0.13124 0.0
H572 H 0.50408 0.16595 0.13563 0.0
H573 H 0.37712 0.09016 0.18334 0.0
H574 H 0.3707 0.06017 0.15459 0.0
H575 H 0.36389 0.09576 0.14398 0.0
C576 C 0.21355 0.9556 0.54067 0.0
C577 C 0.24073 0.97702 0.53424 0.0
C578 C 0.18367 0.96177 0.53702 0.0
C579 C 0.18099 0.99007 0.52689 0.0
C580 C 0.20835 1.01167 0.52001 0.0
C581 C 0.23792 1.00485 0.52368 0.0
C582 C 0.15498 0.93812 0.5443 0.0
C583 C 0.20639 0.04217 0.50937 0.0
C584 C 0.10479 1.00133 0.49169 0.0
C585 C 0.09119 1.01334 0.51799 0.0
C586 C 0.13385 0.99319 0.49437 0.0
C587 C 0.14959 0.99735 0.52404 0.0
C588 C 0.13568 1.00911 0.55081 0.0
C589 C 0.10653 1.0169 0.54748 0.0
C590 C 0.14787 0.98049 0.4654 0.0
C591 C 0.1518 1.0139 0.58281 0.0
H592 H 0.21569 0.93397 0.54853 0.0
H593 H 0.2589 1.02156 0.51908 0.0
H594 H 0.14113 0.94545 0.56427 0.0
H595 H 0.13965 0.93416 0.52304 0.0
H596 H 0.16112 0.91702 0.55112 0.0
H597 H 0.22988 0.05625 0.50441 0.0
H598 H 0.19224 0.04081 0.48732 0.0
H599 H 0.19436 0.05301 0.52826 0.0
H600 H 0.0928 0.99844 0.46892 0.0
H601 H 0.09593 1.02612 0.56786 0.0
H602 H 0.15293 0.95876 0.47132 0.0
H603 H 0.1705 0.9951 0.45843 0.0
H604 H 0.13211 0.97773 0.44442 0.0
H605 H 0.13752 1.02273 0.6014 0.0
H606 H 0.17469 1.02955 0.58003 0.0
H607 H 0.15672 0.99289 0.59151 0.0
C608 C 0.77774 0.42216 0.9557 0.0
C609 C 0.7806 0.41258 0.92382 0.0
C610 C 0.80418 0.43683 0.9729 0.0
C611 C 0.83436 0.44231 0.95793 0.0
C612 C 0.83727 0.43323 0.92558 0.0
C613 C 0.81052 0.41854 0.90903 0.0
C614 C 0.7999 0.44599 1.00733 0.0
C615 C 0.86879 0.43879 0.90844 0.0
C616 C 0.90112 0.50117 0.99194 0.0
C617 C 0.91905 0.48425 1.0082 0.0
C618 C 0.87342 0.48794 0.97591 0.0
C619 C 0.86302 0.45692 0.97616 0.0
C620 C 0.88068 0.43975 0.99298 0.0
C621 C 0.9084 0.45354 1.00863 0.0
C622 C 0.85557 0.50721 0.95824 0.0
C623 C 0.87049 0.40667 0.99411 0.0
H624 H 0.7549 0.41752 0.96754 0.0
H625 H 0.81306 0.41178 0.88427 0.0
H626 H 0.81337 0.43448 1.02336 0.0
H627 H 0.8093 0.46995 1.01035 0.0
H628 H 0.77488 0.44097 1.01527 0.0
H629 H 0.86707 0.43105 0.88305 0.0
H630 H 0.87946 0.46266 0.90886 0.0
H631 H 0.88495 0.42739 0.92106 0.0
H632 H 0.9089 0.52487 0.99135 0.0
H633 H 0.92182 0.44012 1.02111 0.0
H634 H 0.83089 0.50321 0.96709 0.0
H635 H 0.85505 0.50155 0.93224 0.0
H636 H 0.86615 0.531 0.96109 0.0
H637 H 0.84613 0.40039 1.00378 0.0
H638 H 0.88602 0.3965 1.0092 0.0
H639 H 0.87054 0.39734 0.96944 0.0
C640 C 0.6952 0.64327 0.43295 0.0
C641 C 0.72144 0.63021 0.42936 0.0
C642 C 0.66826 0.62962 0.45056 0.0
C643 C 0.66694 0.60181 0.4647 0.0
C644 C 0.69291 0.58807 0.46054 0.0
C645 C 0.71981 0.60244 0.44317 0.0
C646 C 0.64132 0.64526 0.45442 0.0
C647 C 0.69245 0.55831 0.47486 0.0
C648 C 0.61071 0.58243 0.53651 0.0
C649 C 0.58392 0.56541 0.52224 0.0
C650 C 0.63798 0.59385 0.51823 0.0
C651 C 0.63884 0.58783 0.48478 0.0
C652 C 0.61221 0.56975 0.47044 0.0
C653 C 0.58503 0.55896 0.48926 0.0
C654 C 0.66555 0.61319 0.53459 0.0
C655 C 0.61216 0.56235 0.43503 0.0
H656 H 0.69555 0.66428 0.42184 0.0
H657 H 0.73983 0.59208 0.44096 0.0
H658 H 0.61954 0.63127 0.44489 0.0
H659 H 0.63699 0.64924 0.4803 0.0
H660 H 0.64584 0.6667 0.44181 0.0
H661 H 0.71357 0.54969 0.46783 0.0
H662 H 0.69124 0.55982 0.50146 0.0
H663 H 0.67125 0.54227 0.46709 0.0
H664 H 0.61012 0.58752 0.56198 0.0
H665 H 0.56445 0.54585 0.47802 0.0
H666 H 0.6699 0.63562 0.52431 0.0
H667 H 0.68708 0.60445 0.53024 0.0
H668 H 0.66167 0.61492 0.56095 0.0
H669 H 0.61359 0.58264 0.42084 0.0
H670 H 0.5907 0.54619 0.42803 0.0
H671 H 0.63303 0.55324 0.42845 0.0
C672 C 0.25099 0.34891 0.14519 0.0
C673 C 0.27641 0.36743 0.16011 0.0
C674 C 0.22647 0.36022 0.13241 0.0
C675 C 0.2274 0.39081 0.13456 0.0
C676 C 0.25391 0.40984 0.14779 0.0
C677 C 0.27808 0.3979 0.16052 0.0
C678 C 0.19858 0.33915 0.11859 0.0
C679 C 0.25591 0.44261 0.15018 0.0
C680 C 0.16671 0.4198 0.08712 0.0
C681 C 0.14304 0.41962 0.11051 0.0
C682 C 0.19475 0.4112 0.0947 0.0
C683 C 0.19913 0.40223 0.12636 0.0
C684 C 0.17566 0.40278 0.15023 0.0
C685 C 0.14798 0.41153 0.14203 0.0
C686 C 0.21931 0.41097 0.06867 0.0
C687 C 0.17945 0.39349 0.18434 0.0
H688 H 0.2493 0.32531 0.14515 0.0
H689 H 0.29785 0.41234 0.17171 0.0
H690 H 0.17788 0.33816 0.13482 0.0
H691 H 0.19253 0.34695 0.09492 0.0
H692 H 0.20292 0.31655 0.11558 0.0
H693 H 0.27963 0.45469 0.15723 0.0
H694 H 0.24997 0.4513 0.12692 0.0
H695 H 0.23861 0.44723 0.1684 0.0
H696 H 0.16295 0.42589 0.06268 0.0
H697 H 0.13005 0.41193 0.16036 0.0
H698 H 0.22167 0.38802 0.06373 0.0
H699 H 0.2425 0.4234 0.07671 0.0
H700 H 0.21339 0.42067 0.04593 0.0
H701 H 0.18146 0.37009 0.1846 0.0
H702 H 0.15942 0.39608 0.20024 0.0
H703 H 0.20135 0.40671 0.19449 0.0
C704 C 0.59569 0.2066 0.90796 0.0
C705 C 0.60107 0.23411 0.92386 0.0
C706 C 0.58132 0.1804 0.92371 0.0
C707 C 0.57271 0.18114 0.95667 0.0
C708 C 0.57902 0.20853 0.97327 0.0
C709 C 0.59268 0.23456 0.95671 0.0
C710 C 0.57469 0.15191 0.90477 0.0
C711 C 0.57082 0.21043 1.00853 0.0
C712 C 0.50564 0.12083 0.98812 0.0
C713 C 0.52147 0.10085 1.00205 0.0
C714 C 0.52199 0.14679 0.97338 0.0
C715 C 0.55524 0.15363 0.97306 0.0
C716 C 0.57145 0.1338 0.98765 0.0
C717 C 0.5544 0.10745 1.00149 0.0
C718 C 0.50354 0.16672 0.95764 0.0
C719 C 0.60681 0.14039 0.98863 0.0
H720 H 0.60273 0.20535 0.88298 0.0
H721 H 0.59618 0.25537 0.96954 0.0
H722 H 0.5861 0.1355 0.9161 0.0
H723 H 0.54905 0.14264 0.90492 0.0
H724 H 0.58309 0.15485 0.87941 0.0
H725 H 0.57991 0.23271 1.01878 0.0
H726 H 0.54496 0.20497 1.012 0.0
H727 H 0.58051 0.19416 1.02227 0.0
H728 H 0.4802 0.11595 0.98829 0.0
H729 H 0.56687 0.09209 1.01193 0.0
H730 H 0.51029 0.16931 0.93182 0.0
H731 H 0.50911 0.18892 0.96888 0.0
H732 H 0.4778 0.15814 0.95957 0.0
H733 H 0.61667 0.14041 0.96386 0.0
H734 H 0.61582 0.12407 1.00302 0.0
H735 H 0.61554 0.16264 0.99903 0.0
C736 C 0.93466 0.82304 0.40843 0.0
C737 C 0.90637 0.80521 0.41944 0.0
C738 C 0.94758 0.85007 0.42359 0.0
C739 C 0.93184 0.85988 0.45041 0.0
C740 C 0.90345 0.84188 0.46184 0.0
C741 C 0.89115 0.81487 0.44634 0.0
C742 C 0.97805 0.86826 0.41074 0.0
C743 C 0.88573 0.8514 0.49019 0.0
C744 C 0.97816 0.91855 0.50653 0.0
C745 C 0.97005 0.94448 0.49581 0.0
C746 C 0.96586 0.891 0.49218 0.0
C747 C 0.94489 0.88907 0.46624 0.0
C748 C 0.93655 0.91515 0.45531 0.0
C749 C 0.94922 0.94243 0.47012 0.0
C750 C 0.97554 0.86393 0.50467 0.0
C751 C 0.91423 0.91425 0.42787 0.0
H752 H 0.94687 0.81576 0.38795 0.0
H753 H 0.86908 0.80161 0.45486 0.0
H754 H 0.97439 0.88997 0.40281 0.0
H755 H 0.9957 0.87244 0.43002 0.0
H756 H 0.98777 0.85737 0.39016 0.0
H757 H 0.86431 0.83474 0.49657 0.0
H758 H 0.90105 0.85547 0.51145 0.0
H759 H 0.87874 0.87241 0.48469 0.0
H760 H 0.99453 0.91975 0.52596 0.0
H761 H 0.94272 0.9622 0.46152 0.0
H762 H 0.98756 0.85372 0.48525 0.0
H763 H 0.9545 0.84739 0.51224 0.0
H764 H 0.99152 0.86897 0.52541 0.0
H765 H 0.92394 0.90539 0.40593 0.0
H766 H 0.90974 0.93632 0.42241 0.0
H767 H 0.89151 0.89925 0.43373 0.0
C768 C 0.39686 0.81594 0.52106 0.0
C769 C 0.38838 0.83023 0.54866 0.0
C770 C 0.40527 0.78846 0.52318 0.0
C771 C 0.40566 0.77538 0.55368 0.0
C772 C 0.39671 0.78958 0.58153 0.0
C773 C 0.38806 0.81677 0.57865 0.0
C774 C 0.41424 0.7737 0.49296 0.0
C775 C 0.3972 0.77652 0.61453 0.0
C776 C 0.40562 0.69446 0.56424 0.0
C777 C 0.43731 0.69539 0.57066 0.0
C778 C 0.39515 0.72021 0.55724 0.0
C779 C 0.41683 0.74752 0.55698 0.0
C780 C 0.44897 0.74849 0.56245 0.0
C781 C 0.45884 0.7224 0.56905 0.0
C782 C 0.36072 0.71831 0.55129 0.0
C783 C 0.4728 0.77724 0.56243 0.0
H784 H 0.39694 0.82629 0.49785 0.0
H785 H 0.382 0.82801 0.60009 0.0
H786 H 0.43926 0.77212 0.49384 0.0
H787 H 0.40015 0.75092 0.49114 0.0
H788 H 0.41076 0.78584 0.47096 0.0
H789 H 0.38863 0.78995 0.63362 0.0
H790 H 0.38241 0.75398 0.61508 0.0
H791 H 0.42148 0.7747 0.62022 0.0
H792 H 0.38879 0.67372 0.56565 0.0
H793 H 0.48347 0.7232 0.57325 0.0
H794 H 0.35763 0.73019 0.52901 0.0
H795 H 0.35025 0.72908 0.57142 0.0
H796 H 0.34752 0.6952 0.54909 0.0
H797 H 0.47175 0.78912 0.53967 0.0
H798 H 0.49714 0.77402 0.56539 0.0
H799 H 0.46727 0.79154 0.58233 0.0
C800 C 0.79354 0.82487 0.72986 0.0
C801 C 0.78295 0.84919 0.74281 0.0
C802 C 0.81877 0.82875 0.70776 0.0
C803 C 0.83419 0.85759 0.69925 0.0
C804 C 0.82146 0.88187 0.70952 0.0
C805 C 0.79564 0.87728 0.73077 0.0
C806 C 0.83056 0.80218 0.69582 0.0
C807 C 0.83699 0.91303 0.70075 0.0
C808 C 0.92248 0.8784 0.69303 0.0
C809 C 0.92706 0.88717 0.66088 0.0
C810 C 0.89236 0.86694 0.7054 0.0
C811 C 0.86628 0.86311 0.6848 0.0
C812 C 0.87116 0.86856 0.65156 0.0
C813 C 0.90146 0.881 0.64003 0.0
C814 C 0.88825 0.86134 0.74108 0.0
C815 C 0.84424 0.8634 0.62848 0.0
H816 H 0.78383 0.80299 0.73875 0.0
H817 H 0.78684 0.89604 0.73981 0.0
H818 H 0.839 0.80502 0.67049 0.0
H819 H 0.85055 0.79925 0.71062 0.0
H820 H 0.81199 0.78182 0.69758 0.0
H821 H 0.82278 0.92917 0.70863 0.0
H822 H 0.86025 0.91901 0.71228 0.0
H823 H 0.84099 0.91494 0.67441 0.0
H824 H 0.94225 0.88211 0.70905 0.0
H825 H 0.90456 0.88757 0.61509 0.0
H826 H 0.87467 0.83874 0.7455 0.0
H827 H 0.87481 0.87687 0.75209 0.0
H828 H 0.91106 0.86413 0.75346 0.0
H829 H 0.82584 0.84407 0.63554 0.0
H830 H 0.85241 0.85994 0.60355 0.0
H831 H 0.83339 0.88296 0.62851 0.0
C832 C 0.73905 0.21247 0.29772 0.0
C833 C 0.76 0.19851 0.31351 0.0
C834 C 0.7197 0.19798 0.2734 0.0
C835 C 0.72118 0.16874 0.26478 0.0
C836 C 0.74209 0.15443 0.28073 0.0
C837 C 0.76132 0.16952 0.30484 0.0
C838 C 0.69772 0.21399 0.25688 0.0
C839 C 0.74425 0.12323 0.27221 0.0
C840 C 0.65163 0.12382 0.22035 0.0
C841 C 0.66254 0.12644 0.18836 0.0
C842 C 0.67066 0.13705 0.24557 0.0
C843 C 0.70124 0.15341 0.23859 0.0
C844 C 0.71253 0.15581 0.20643 0.0
C845 C 0.69311 0.1422 0.18174 0.0
C846 C 0.65788 0.13392 0.27962 0.0
C847 C 0.74501 0.17307 0.19803 0.0
H848 H 0.73747 0.23467 0.30466 0.0
H849 H 0.77768 0.15869 0.31668 0.0
H850 H 0.70317 0.2153 0.23072 0.0
H851 H 0.67315 0.20164 0.25983 0.0
H852 H 0.69935 0.23665 0.26649 0.0
H853 H 0.76113 0.11498 0.28746 0.0
H854 H 0.72085 0.1084 0.27494 0.0
H855 H 0.75171 0.12196 0.24668 0.0
H856 H 0.62795 0.11192 0.22564 0.0
H857 H 0.70193 0.14386 0.15716 0.0
H858 H 0.65655 0.15587 0.28962 0.0
H859 H 0.6739 0.12472 0.29504 0.0
H860 H 0.63414 0.11944 0.28114 0.0
H861 H 0.74722 0.19638 0.20558 0.0
H862 H 0.75045 0.17238 0.17188 0.0
H863 H 0.76287 0.16426 0.21122 0.0
C864 C 0.43884 0.65103 0.35043 0.0
C865 C 0.40738 0.64311 0.34093 0.0
C866 C 0.44998 0.63731 0.37661 0.0
C867 C 0.42922 0.61518 0.39419 0.0
C868 C 0.39729 0.60759 0.3852 0.0
C869 C 0.38685 0.62145 0.35874 0.0
C870 C 0.48421 0.64609 0.38505 0.0
C871 C 0.37412 0.58452 0.40335 0.0
C872 C 0.4628 0.55837 0.44074 0.0
C873 C 0.46323 0.56912 0.47251 0.0
C874 C 0.45199 0.57313 0.41522 0.0
C875 C 0.44105 0.59939 0.4213 0.0
C876 C 0.44139 0.61039 0.4533 0.0
C877 C 0.45245 0.59522 0.47836 0.0
C878 C 0.45242 0.56062 0.3816 0.0
C879 C 0.42984 0.63813 0.46115 0.0
H880 H 0.45507 0.66743 0.33677 0.0
H881 H 0.36244 0.61533 0.352 0.0
H882 H 0.48658 0.65328 0.41056 0.0
H883 H 0.49542 0.62684 0.38225 0.0
H884 H 0.4972 0.66416 0.3697 0.0
H885 H 0.3499 0.5818 0.39419 0.0
H886 H 0.38133 0.56303 0.40143 0.0
H887 H 0.37394 0.59049 0.42925 0.0
H888 H 0.47113 0.53837 0.43565 0.0
H889 H 0.45273 0.60397 0.50259 0.0
H890 H 0.46689 0.57714 0.36547 0.0
H891 H 0.42829 0.55554 0.37201 0.0
H892 H 0.46195 0.54025 0.38067 0.0
H893 H 0.4414 0.65626 0.44516 0.0
H894 H 0.43426 0.64534 0.48649 0.0
H895 H 0.40424 0.63433 0.45696 0.0
C896 C 0.12212 0.44491 0.86388 0.0
C897 C 0.10285 0.42221 0.8464 0.0
C898 C 0.10988 0.46029 0.88884 0.0
C899 C 0.07742 0.45298 0.89689 0.0
C900 C 0.05787 0.4299 0.87964 0.0
C901 C 0.07073 0.41489 0.85475 0.0
C902 C 0.13173 0.48465 0.90643 0.0
C903 C 0.02316 0.42133 0.88717 0.0
C904 C 0.04948 0.47947 0.97822 0.0
C905 C 0.03883 0.50468 0.96947 0.0
C906 C 0.06182 0.46227 0.95499 0.0
C907 C 0.06374 0.4705 0.92211 0.0
C908 C 0.05298 0.49599 0.91328 0.0
C909 C 0.04079 0.51267 0.93694 0.0
C910 C 0.07307 0.43543 0.9657 0.0
C911 C 0.05455 0.50586 0.87875 0.0
H912 H 0.14703 0.45053 0.85833 0.0
H913 H 0.05541 0.39766 0.84142 0.0
H914 H 0.12441 0.50583 0.90286 0.0
H915 H 0.13042 0.48029 0.93262 0.0
H916 H 0.15651 0.4871 0.8981 0.0
H917 H 1.01131 0.40212 0.87266 0.0
H918 H 0.01926 0.41595 0.91302 0.0
H919 H 1.01192 0.44014 0.88241 0.0
H920 H 0.04876 0.47349 1.00327 0.0
H921 H 0.03274 0.53217 0.92988 0.0
H922 H 0.09839 0.43786 0.95969 0.0
H923 H 0.06037 0.41566 0.95267 0.0
H924 H 0.06959 0.43168 0.99196 0.0
H925 H 0.07927 0.51048 0.86992 0.0
H926 H 0.04489 0.52593 0.87568 0.0
H927 H 0.04126 0.48805 0.86336 0.0
C928 C 0.6094 0.89485 0.89684 0.0
C929 C 0.61068 0.86924 0.91383 0.0
C930 C 0.59241 0.91521 0.90904 0.0
C931 C 0.57654 0.90991 0.93904 0.0
C932 C 0.57585 0.88313 0.95515 0.0
C933 C 0.59287 0.86306 0.94229 0.0
C934 C 0.59343 0.94336 0.89095 0.0
C935 C 0.55899 0.87657 0.98711 0.0
C936 C 0.57183 0.97519 0.99298 0.0
C937 C 0.54023 0.9769 0.99049 0.0
C938 C 0.58398 0.95383 0.97582 0.0
C939 C 0.56412 0.93376 0.9555 0.0
C940 C 0.53248 0.93597 0.95196 0.0
C941 C 0.52087 0.95748 0.96958 0.0
C942 C 0.61793 0.95224 0.98017 0.0
C943 C 0.51072 0.91516 0.93024 0.0
H944 H 0.6233 0.89999 0.87498 0.0
H945 H 0.59333 0.84308 0.95525 0.0
H946 H 0.56975 0.94854 0.89017 0.0
H947 H 0.60896 0.96185 0.90358 0.0
H948 H 0.60252 0.94214 0.86595 0.0
H949 H 0.55774 0.85353 0.99472 0.0
H950 H 0.57149 0.89159 1.00579 0.0
H951 H 0.5348 0.88051 0.98597 0.0
H952 H 0.58701 0.99005 1.00901 0.0
H953 H 0.49643 0.95869 0.96736 0.0
H954 H 0.63036 0.95382 0.95654 0.0
H955 H 0.61928 0.93072 0.99066 0.0
H956 H 0.63047 0.97003 0.99613 0.0
H957 H 0.52143 0.91474 0.90588 0.0
H958 H 0.48756 0.92132 0.92811 0.0
H959 H 0.50691 0.89249 0.9398 0.0
C960 C 0.86849 0.15507 0.51779 0.0
C961 C 0.88921 0.17547 0.49882 0.0
C962 C 0.87841 0.13154 0.53218 0.0
C963 C 0.90969 0.12822 0.52724 0.0
C964 C 0.931 0.14926 0.50902 0.0
C965 C 0.9205 0.17266 0.4951 0.0
C966 C 0.85517 0.10966 0.55173 0.0
C967 C 0.96453 0.14639 0.50296 0.0
C968 C 0.94645 0.07862 0.57923 0.0
C969 C 0.94487 0.05406 0.55899 0.0
C970 C 0.93405 0.10264 0.56973 0.0
C971 C 0.91971 0.10183 0.53941 0.0
C972 C 0.91662 0.07636 0.51971 0.0
C973 C 0.92915 0.05267 0.52986 0.0
C974 C 0.93798 0.1295 0.59126 0.0
C975 C 0.90179 0.07479 0.48706 0.0
H976 H 0.84419 0.15687 0.52049 0.0
H977 H 0.93676 0.1886 0.4809 0.0
H978 H 0.85069 0.08791 0.53942 0.0
H979 H 0.86494 0.10674 0.57561 0.0
H980 H 0.83243 0.11658 0.55532 0.0
H981 H 0.97922 0.16674 0.49266 0.0
H982 H 0.97538 0.14118 0.52545 0.0
H983 H 0.96482 0.12803 0.48575 0.0
H984 H 0.95883 0.07976 0.60171 0.0
H985 H 0.92804 1.03362 0.51425 0.0
H986 H 0.91553 0.13704 0.59383 0.0
H987 H 0.95548 0.1477 0.58029 0.0
H988 H 0.94614 0.12527 0.61555 0.0
H989 H 0.87839 0.08059 0.48894 0.0
H990 H 0.89905 0.0526 0.47586 0.0
H991 H 0.91662 0.09099 0.47086 0.0
C992 C 0.24129 0.62537 0.12789 0.0
C993 C 0.2416 0.63829 0.1587 0.0
C994 C 0.21308 0.61102 0.11354 0.0
C995 C 0.18416 0.60897 0.1304 0.0
C996 C 0.18424 0.62148 0.16167 0.0
C997 C 0.21279 0.63605 0.17532 0.0
C998 C 0.21425 0.59821 0.08012 0.0
C999 C 0.15406 0.61967 0.18069 0.0
C1000 C 0.10809 0.59744 0.083 0.0
C1001 C 0.09592 0.56711 0.08637 0.0
C1002 C 0.13675 0.61117 0.09691 0.0
C1003 C 0.15382 0.59438 0.11501 0.0
C1004 C 0.14183 0.56371 0.11829 0.0
C1005 C 0.11322 0.55048 0.10388 0.0
C1006 C 0.14872 0.64379 0.0923 0.0
C1007 C 0.15902 0.54491 0.13747 0.0
H1008 H 0.26323 0.62619 0.11491 0.0
H1009 H 0.21238 0.64612 0.1989 0.0
H1010 H 0.20403 0.57426 0.08039 0.0
H1011 H 0.1999 0.60845 0.06375 0.0
H1012 H 0.23855 0.60163 0.07013 0.0
H1013 H 0.1581 0.62941 0.20515 0.0
H1014 H 0.13835 0.6314 0.16783 0.0
H1015 H 0.14159 0.59638 0.18296 0.0
H1016 H 0.09514 0.61061 0.06951 0.0
H1017 H 0.10415 0.52709 0.10683 0.0
H1018 H 0.1725 0.6479 0.08101 0.0
H1019 H 0.15083 0.65523 0.11596 0.0
H1020 H 0.1331 0.65367 0.07702 0.0
H1021 H 0.18322 0.54676 0.12772 0.0
H1022 H 0.147 0.52133 0.13727 0.0
H1023 H 0.16103 0.55286 0.16275 0.0
C1024 C 0.28411 0.4512 0.66123 0.0
C1025 C 0.28193 0.4224 0.67231 0.0
C1026 C 0.31044 0.46571 0.64313 0.0
C1027 C 0.33514 0.45104 0.63553 0.0
C1028 C 0.33288 0.42188 0.6464 0.0
C1029 C 0.30649 0.40803 0.66463 0.0
C1030 C 0.31193 0.49684 0.6323 0.0
C1031 C 0.35834 0.40517 0.63859 0.0
C1032 C 0.39042 0.4745 0.56379 0.0
C1033 C 0.418 0.48919 0.5787 0.0
C1034 C 0.36312 0.46272 0.58187 0.0
C1035 C 0.36317 0.46579 0.61581 0.0
C1036 C 0.39066 0.48151 0.6309 0.0
C1037 C 0.41772 0.49295 0.61221 0.0
C1038 C 0.33451 0.44614 0.56468 0.0
C1039 C 0.39178 0.48552 0.66693 0.0
H1040 H 0.26546 0.46262 0.66723 0.0
H1041 H 0.30489 0.38565 0.67259 0.0
H1042 H 0.33325 0.51156 0.64186 0.0
H1043 H 0.31374 0.49792 0.6057 0.0
H1044 H 0.29102 0.50533 0.64035 0.0
H1045 H 0.35313 0.38267 0.64882 0.0
H1046 H 0.36126 0.40335 0.61215 0.0
H1047 H 0.38107 0.41729 0.64809 0.0
H1048 H 0.39038 0.47155 0.53791 0.0
H1049 H 0.4389 0.50431 0.62392 0.0
H1050 H 0.3137 0.45528 0.57144 0.0
H1051 H 0.32942 0.42275 0.57207 0.0
H1052 H 0.33762 0.44704 0.53812 0.0
H1053 H 0.37182 0.49508 0.67562 0.0
H1054 H 0.41403 0.50002 0.6748 0.0
H1055 H 0.38945 0.46381 0.67857 0.0
C1056 C 0.78063 0.69423 0.88704 0.0
C1057 C 0.76836 0.71238 0.90883 0.0
C1058 C 0.80148 0.67706 0.89713 0.0
C1059 C 0.81018 0.67807 0.92977 0.0
C1060 C 0.79577 0.69434 0.95232 0.0
C1061 C 0.77501 0.71133 0.94156 0.0
C1062 C 0.81605 0.65972 0.87241 0.0
C1063 C 0.80426 0.69581 0.98739 0.0
C1064 C 0.85851 0.6264 0.9631 0.0
C1065 C 0.88863 0.64453 0.96306 0.0
C1066 C 0.83273 0.63663 0.95148 0.0
C1067 C 0.83728 0.66563 0.93959 0.0
C1068 C 0.86784 0.68361 0.93843 0.0
C1069 C 0.89312 0.67283 0.95018 0.0
C1070 C 0.80052 0.61683 0.95302 0.0
C1071 C 0.87375 0.71459 0.92562 0.0
H1072 H 0.77518 0.69467 0.86176 0.0
H1073 H 0.76583 0.72545 0.9585 0.0
H1074 H 0.84074 0.67106 0.86765 0.0
H1075 H 0.81641 0.63744 0.88143 0.0
H1076 H 0.80333 0.65749 0.84934 0.0
H1077 H 0.78808 0.70615 1.00238 0.0
H1078 H 0.80386 0.67348 0.9967 0.0
H1079 H 0.82846 0.70895 0.99014 0.0
H1080 H 0.85488 0.60458 0.9733 0.0
H1081 H 0.91644 0.68673 0.94967 0.0
H1082 H 0.78888 0.6162 0.92947 0.0
H1083 H 0.78569 0.6257 0.97096 0.0
H1084 H 0.80141 0.594 0.95986 0.0
H1085 H 0.86467 0.71448 0.90089 0.0
H1086 H 0.89908 0.72523 0.92516 0.0
H1087 H 0.86101 0.7282 0.94081 0.0
C1088 C 0.44003 0.82825 0.15031 0.0
C1089 C 0.41663 0.82305 0.17455 0.0
C1090 C 0.45145 0.85663 0.13784 0.0
C1091 C 0.43948 0.88084 0.14988 0.0
C1092 C 0.41555 0.87574 0.17403 0.0
C1093 C 0.40435 0.84702 0.18592 0.0
C1094 C 0.47668 0.86075 0.11193 0.0
C1095 C 0.40225 0.90079 0.18787 0.0
C1096 C 0.49415 0.95647 0.1411 0.0
C1097 C 0.4822 0.96814 0.11424 0.0
C1098 C 0.47999 0.92863 0.15338 0.0
C1099 C 0.45323 0.91156 0.13831 0.0
C1100 C 0.44066 0.9235 0.11149 0.0
C1101 C 0.45516 0.95167 0.09994 0.0
C1102 C 0.49415 0.9172 0.18215 0.0
C1103 C 0.41237 0.90616 0.09445 0.0
H1104 H 0.44934 0.80995 0.1408 0.0
H1105 H 0.38646 0.84345 0.20473 0.0
H1106 H 0.46905 0.87156 0.09077 0.0
H1107 H 0.49832 0.87539 0.12091 0.0
H1108 H 0.4825 0.83958 0.10401 0.0
H1109 H 0.38285 0.89315 0.20547 0.0
H1110 H 0.42103 0.91678 0.20005 0.0
H1111 H 0.39336 0.91271 0.16835 0.0
H1112 H 0.515 0.96904 0.15241 0.0
H1113 H 0.44573 0.96049 0.07926 0.0
H1114 H 0.50302 0.89726 0.17521 0.0
H1115 H 0.476 0.9107 0.20126 0.0
H1116 H 0.51384 0.93374 0.19225 0.0
H1117 H 0.41794 0.88571 0.08406 0.0
H1118 H 0.40466 0.91886 0.07482 0.0
H1119 H 0.39257 0.89949 0.11178 0.0
C1120 C 0.07911 0.22904 0.67727 0.0
C1121 C 0.10736 0.24742 0.66695 0.0
C1122 C 0.06653 0.2024 0.66108 0.0
C1123 C 0.08252 0.19362 0.63384 0.0
C1124 C 0.11057 0.21241 0.6228 0.0
C1125 C 0.12251 0.23896 0.63932 0.0
C1126 C 0.03649 0.18325 0.67364 0.0
C1127 C 0.1284 0.20419 0.59384 0.0
C1128 C 0.06997 0.11162 0.61232 0.0
C1129 C 0.04953 0.10899 0.58627 0.0
C1130 C 0.08072 0.13888 0.62796 0.0
C1131 C 0.07069 0.16433 0.61762 0.0
C1132 C 0.04984 0.16177 0.59147 0.0
C1133 C 0.03966 0.13428 0.5761 0.0
C1134 C 0.10299 0.14045 0.65556 0.0
C1135 C 0.03823 0.18809 0.57969 0.0
H1136 H 0.06722 0.23498 0.69867 0.0
H1137 H 0.14396 0.25309 0.63056 0.0
H1138 H 0.01921 0.17792 0.65409 0.0
H1139 H 0.04122 0.16213 0.68224 0.0
H1140 H 0.0258 0.19392 0.69374 0.0
H1141 H 0.14929 0.22153 0.58764 0.0
H1142 H 0.13627 0.18344 0.59853 0.0
H1143 H 0.11287 0.20016 0.57274 0.0
H1144 H 0.07777 0.09233 0.62049 0.0
H1145 H 0.02369 0.13258 0.5562 0.0
H1146 H 0.09271 0.14874 0.67751 0.0
H1147 H 0.12527 0.1562 0.6499 0.0
H1148 H 0.10845 0.11872 0.6609 0.0
H1149 H 0.02642 0.1978 0.59967 0.0
H1150 H 0.0215 0.18236 0.55965 0.0
H1151 H 0.05837 0.20528 0.57136 0.0
C1152 C 0.71122 0.3034 0.50883 0.0
C1153 C 0.73788 0.31959 0.49292 0.0
C1154 C 0.68562 0.31622 0.51684 0.0
C1155 C 0.68688 0.34596 0.50895 0.0
C1156 C 0.71458 0.36296 0.495 0.0
C1157 C 0.73967 0.34955 0.48701 0.0
C1158 C 0.65654 0.29741 0.53183 0.0
C1159 C 0.71693 0.39486 0.48648 0.0
C1160 C 0.6136 0.37125 0.48519 0.0
C1161 C 0.60784 0.38786 0.51215 0.0
C1162 C 0.63841 0.35639 0.48454 0.0
C1163 C 0.6582 0.3584 0.5114 0.0
C1164 C 0.65184 0.37413 0.53921 0.0
C1165 C 0.62664 0.38865 0.53929 0.0
C1166 C 0.64428 0.33964 0.45448 0.0
C1167 C 0.67238 0.37664 0.56833 0.0
H1168 H 0.70992 0.28039 0.51408 0.0
H1169 H 0.75999 0.36221 0.47447 0.0
H1170 H 0.6477 0.30921 0.55218 0.0
H1171 H 0.63774 0.29266 0.51373 0.0
H1172 H 0.66086 0.27617 0.54062 0.0
H1173 H 0.74119 0.40585 0.47926 0.0
H1174 H 0.70113 0.3963 0.46624 0.0
H1175 H 0.70926 0.4071 0.50713 0.0
H1176 H 0.5995 0.37083 0.46395 0.0
H1177 H 0.622 0.40106 0.56041 0.0
H1178 H 0.64631 0.31696 0.46058 0.0
H1179 H 0.66681 0.3506 0.44297 0.0
H1180 H 0.62532 0.33832 0.43672 0.0
H1181 H 0.67594 0.35466 0.57537 0.0
H1182 H 0.66228 0.38682 0.58921 0.0
H1183 H 0.69583 0.39033 0.56243 0.0
loop_
_geom_bond_atom_site_label_1
_geom_bond_atom_site_label_2
_geom_bond_distance
_geom_bond_site_symmetry_2
_ccdc_geom_bond_type
P0 O11 1.490 . S
P0 C14 1.812 . S
P0 C20 1.803 . S
P0 C26 1.819 . S
H1 C15 0.941 . S
H2 C16 0.939 . S
H3 C18 0.940 . S
H4 C19 0.940 . S
H5 C21 0.939 . S
H6 C22 0.942 . S
H7 C24 0.940 . S
H8 C25 0.939 . S
H9 C27 0.941 . S
H10 C31 0.939 . S
O11 P0 1.490 . S
H12 C28 0.939 . S
H13 C30 0.940 . S
C14 P0 1.812 . S
C14 C15 1.389 . S
C14 C19 1.391 . S
C15 H1 0.941 . S
C15 C14 1.389 . S
C15 C16 1.397 . S
C16 H2 0.939 . S
C16 C15 1.397 . S
C16 C17 1.378 . S
C17 C16 1.378 . S
C17 C18 1.378 . S
C18 H3 0.940 . S
C18 C17 1.378 . S
C18 C19 1.396 . S
C19 H4 0.940 . S
C19 C14 1.391 . S
C19 C18 1.396 . S
C20 P0 1.803 . S
C20 C21 1.378 . S
C20 C25 1.400 . S
C21 H5 0.939 . S
C21 C20 1.378 . S
C21 C22 1.361 . S
C22 H6 0.942 . S
C22 C21 1.361 . S
C22 C23 1.369 . S
C23 C22 1.369 . S
C23 C24 1.404 . S
C24 H7 0.940 . S
C24 C23 1.404 . S
C24 C25 1.389 . S
C25 H8 0.939 . S
C25 C20 1.400 . S
C25 C24 1.389 . S
C26 P0 1.819 . S
C26 C27 1.391 . S
C26 C31 1.391 . S
C27 H9 0.941 . S
C27 C26 1.391 . S
C27 C28 1.396 . S
C28 H12 0.939 . S
C28 C27 1.396 . S
C28 C29 1.397 . S
C29 C28 1.397 . S
C29 C30 1.385 . S
C30 H13 0.940 . S
C30 C29 1.385 . S
C30 C31 1.388 . S
C31 H10 0.939 . S
C31 C26 1.391 . S
C31 C30 1.388 . S
P32 O43 1.490 . S
P32 C46 1.812 . S
P32 C52 1.803 . S
P32 C58 1.819 . S
H33 C47 0.941 . S
H34 C48 0.939 . S
H35 C50 0.940 . S
H36 C51 0.940 . S
H37 C53 0.939 . S
H38 C54 0.942 . S
H39 C56 0.940 . S
H40 C57 0.939 . S
H41 C59 0.941 . S
H42 C63 0.939 . S
O43 P32 1.490 . S
H44 C60 0.939 . S
H45 C62 0.940 . S
C46 P32 1.812 . S
C46 C47 1.389 . S
C46 C51 1.391 . S
C47 H33 0.941 . S
C47 C46 1.389 . S
C47 C48 1.397 . S
C48 H34 0.939 . S
C48 C47 1.397 . S
C48 C49 1.378 . S
C49 C48 1.378 . S
C49 C50 1.378 . S
C50 H35 0.940 . S
C50 C49 1.378 . S
C50 C51 1.396 . S
C51 H36 0.940 . S
C51 C46 1.391 . S
C51 C50 1.396 . S
C52 P32 1.803 . S
C52 C53 1.378 . S
C52 C57 1.400 . S
C53 H37 0.939 . S
C53 C52 1.378 . S
C53 C54 1.361 . S
C54 H38 0.942 . S
C54 C53 1.361 . S
C54 C55 1.369 . S
C55 C54 1.369 . S
C55 C56 1.404 . S
C56 H39 0.940 . S
C56 C55 1.404 . S
C56 C57 1.389 . S
C57 H40 0.939 . S
C57 C52 1.400 . S
C57 C56 1.389 . S
C58 P32 1.819 . S
C58 C59 1.391 . S
C58 C63 1.391 . S
C59 H41 0.941 . S
C59 C58 1.391 . S
C59 C60 1.396 . S
C60 H44 0.939 . S
C60 C59 1.396 . S
C60 C61 1.397 . S
C61 C60 1.397 . S
C61 C62 1.385 . S
C62 H45 0.940 . S
C62 C61 1.385 . S
C62 C63 1.388 . S
C63 H42 0.939 . S
C63 C58 1.391 . S
C63 C62 1.388 . S
P64 O75 1.490 . S
P64 C78 1.812 . S
P64 C84 1.803 . S
P64 C90 1.819 . S
H65 C79 0.941 . S
H66 C80 0.939 . S
H67 C82 0.940 . S
H68 C83 0.940 . S
H69 C85 0.939 . S
H70 C86 0.942 . S
H71 C88 0.940 . S
H72 C89 0.939 . S
H73 C91 0.941 . S
H74 C95 0.939 . S
O75 P64 1.490 . S
H76 C92 0.939 . S
H77 C94 0.940 . S
C78 P64 1.812 . S
C78 C79 1.389 . S
C78 C83 1.391 . S
C79 H65 0.941 . S
C79 C78 1.389 . S
C79 C80 1.397 . S
C80 H66 0.939 . S
C80 C79 1.397 . S
C80 C81 1.378 . S
C81 C80 1.378 . S
C81 C82 1.378 . S
C82 H67 0.940 . S
C82 C81 1.378 . S
C82 C83 1.396 . S
C83 H68 0.940 . S
C83 C78 1.391 . S
C83 C82 1.396 . S
C84 P64 1.803 . S
C84 C85 1.378 . S
C84 C89 1.400 . S
C85 H69 0.939 . S
C85 C84 1.378 . S
C85 C86 1.361 . S
C86 H70 0.942 . S
C86 C85 1.361 . S
C86 C87 1.369 . S
C87 C86 1.369 . S
C87 C88 1.404 . S
C88 H71 0.940 . S
C88 C87 1.404 . S
C88 C89 1.389 . S
C89 H72 0.939 . S
C89 C84 1.400 . S
C89 C88 1.389 . S
C90 P64 1.819 . S
C90 C91 1.391 . S
C90 C95 1.391 . S
C91 H73 0.941 . S
C91 C90 1.391 . S
C91 C92 1.396 . S
C92 H76 0.939 . S
C92 C91 1.396 . S
C92 C93 1.397 . S
C93 C92 1.397 . S
C93 C94 1.385 . S
C94 H77 0.940 . S
C94 C93 1.385 . S
C94 C95 1.388 . S
C95 H74 0.939 . S
C95 C90 1.391 . S
C95 C94 1.388 . S
P96 O107 1.490 . S
P96 C110 1.812 . S
P96 C116 1.803 . S
P96 C122 1.819 . S
H97 C111 0.941 . S
H98 C112 0.939 . S
H99 C114 0.940 . S
H100 C115 0.940 . S
H101 C117 0.939 . S
H102 C118 0.942 . S
H103 C120 0.940 . S
H104 C121 0.939 . S
H105 C123 0.941 . S
H106 C127 0.939 . S
O107 P96 1.490 . S
H108 C124 0.939 . S
H109 C126 0.940 . S
C110 P96 1.812 . S
C110 C111 1.389 . S
C110 C115 1.391 . S
C111 H97 0.941 . S
C111 C110 1.389 . S
C111 C112 1.397 . S
C112 H98 0.939 . S
C112 C111 1.397 . S
C112 C113 1.378 . S
C113 C112 1.378 . S
C113 C114 1.378 . S
C114 H99 0.940 . S
C114 C113 1.378 . S
C114 C115 1.396 . S
C115 H100 0.940 . S
C115 C110 1.391 . S
C115 C114 1.396 . S
C116 P96 1.803 . S
C116 C117 1.378 . S
C116 C121 1.400 . S
C117 H101 0.939 . S
C117 C116 1.378 . S
C117 C118 1.361 . S
C118 H102 0.942 . S
C118 C117 1.361 . S
C118 C119 1.369 . S
C119 C118 1.369 . S
C119 C120 1.404 . S
C120 H103 0.940 . S
C120 C119 1.404 . S
C120 C121 1.389 . S
C121 H104 0.939 . S
C121 C116 1.400 . S
C121 C120 1.389 . S
C122 P96 1.819 . S
C122 C123 1.391 . S
C122 C127 1.391 . S
C123 H105 0.941 . S
C123 C122 1.391 . S
C123 C124 1.396 . S
C124 H108 0.939 . S
C124 C123 1.396 . S
C124 C125 1.397 . S
C125 C124 1.397 . S
C125 C126 1.385 . S
C126 H109 0.940 . S
C126 C125 1.385 . S
C126 C127 1.388 . S
C127 H106 0.939 . S
C127 C122 1.391 . S
C127 C126 1.388 . S
P128 O139 1.490 . S
P128 C142 1.812 . S
P128 C148 1.803 . S
P128 C154 1.819 . S
H129 C143 0.941 . S
H130 C144 0.939 . S
H131 C146 0.940 . S
H132 C147 0.940 . S
H133 C149 0.939 . S
H134 C150 0.942 . S
H135 C152 0.940 . S
H136 C153 0.939 . S
H137 C155 0.941 . S
H138 C159 0.939 . S
O139 P128 1.490 . S
H140 C156 0.939 . S
H141 C158 0.940 . S
C142 P128 1.812 . S
C142 C143 1.389 . S
C142 C147 1.391 . S
C143 H129 0.941 . S
C143 C142 1.389 . S
C143 C144 1.397 . S
C144 H130 0.939 . S
C144 C143 1.397 . S
C144 C145 1.378 . S
C145 C144 1.378 . S
C145 C146 1.378 . S
C146 H131 0.940 . S
C146 C145 1.378 . S
C146 C147 1.396 . S
C147 H132 0.940 . S
C147 C142 1.391 . S
C147 C146 1.396 . S
C148 P128 1.803 . S
C148 C149 1.378 . S
C148 C153 1.400 . S
C149 H133 0.939 . S
C149 C148 1.378 . S
C149 C150 1.361 . S
C150 H134 0.942 . S
C150 C149 1.361 . S
C150 C151 1.369 . S
C151 C150 1.369 . S
C151 C152 1.404 . S
C152 H135 0.940 . S
C152 C151 1.404 . S
C152 C153 1.389 . S
C153 H136 0.939 . S
C153 C148 1.400 . S
C153 C152 1.389 . S
C154 P128 1.819 . S
C154 C155 1.391 . S
C154 C159 1.391 . S
C155 H137 0.941 . S
C155 C154 1.391 . S
C155 C156 1.396 . S
C156 H140 0.939 . S
C156 C155 1.396 . S
C156 C157 1.397 . S
C157 C156 1.397 . S
C157 C158 1.385 . S
C158 H141 0.940 . S
C158 C157 1.385 . S
C158 C159 1.388 . S
C159 H138 0.939 . S
C159 C154 1.391 . S
C159 C158 1.388 . S
P160 O171 1.490 . S
P160 C174 1.812 . S
P160 C180 1.803 . S
P160 C186 1.819 . S
H161 C175 0.941 . S
H162 C176 0.939 . S
H163 C178 0.940 . S
H164 C179 0.940 . S
H165 C181 0.939 . S
H166 C182 0.942 . S
H167 C184 0.940 . S
H168 C185 0.939 . S
H169 C187 0.941 . S
H170 C191 0.939 . S
O171 P160 1.490 . S
H172 C188 0.939 . S
H173 C190 0.940 . S
C174 P160 1.812 . S
C174 C175 1.389 . S
C174 C179 1.391 . S
C175 H161 0.941 . S
C175 C174 1.389 . S
C175 C176 1.397 . S
C176 H162 0.939 . S
C176 C175 1.397 . S
C176 C177 1.378 . S
C177 C176 1.378 . S
C177 C178 1.378 . S
C178 H163 0.940 . S
C178 C177 1.378 . S
C178 C179 1.396 . S
C179 H164 0.940 . S
C179 C174 1.391 . S
C179 C178 1.396 . S
C180 P160 1.803 . S
C180 C181 1.378 . S
C180 C185 1.400 . S
C181 H165 0.939 . S
C181 C180 1.378 . S
C181 C182 1.361 . S
C182 H166 0.942 . S
C182 C181 1.361 . S
C182 C183 1.369 . S
C183 C182 1.369 . S
C183 C184 1.404 . S
C184 H167 0.940 . S
C184 C183 1.404 . S
C184 C185 1.389 . S
C185 H168 0.939 . S
C185 C180 1.400 . S
C185 C184 1.389 . S
C186 P160 1.819 . S
C186 C187 1.391 . S
C186 C191 1.391 . S
C187 H169 0.941 . S
C187 C186 1.391 . S
C187 C188 1.396 . S
C188 H172 0.939 . S
C188 C187 1.396 . S
C188 C189 1.397 . S
C189 C188 1.397 . S
C189 C190 1.385 . S
C190 H173 0.940 . S
C190 C189 1.385 . S
C190 C191 1.388 . S
C191 H170 0.939 . S
C191 C186 1.391 . S
C191 C190 1.388 . S
P192 O203 1.490 . S
P192 C206 1.812 . S
P192 C212 1.803 . S
P192 C218 1.819 . S
H193 C207 0.941 . S
H194 C208 0.939 . S
H195 C210 0.940 . S
H196 C211 0.940 . S
H197 C213 0.939 . S
H198 C214 0.942 . S
H199 C216 0.940 . S
H200 C217 0.939 . S
H201 C219 0.941 . S
H202 C223 0.939 . S
O203 P192 1.490 . S
H204 C220 0.939 . S
H205 C222 0.940 . S
C206 P192 1.812 . S
C206 C207 1.389 . S
C206 C211 1.391 . S
C207 H193 0.941 . S
C207 C206 1.389 . S
C207 C208 1.397 . S
C208 H194 0.939 . S
C208 C207 1.397 . S
C208 C209 1.378 . S
C209 C208 1.378 . S
C209 C210 1.378 . S
C210 H195 0.940 . S
C210 C209 1.378 . S
C210 C211 1.396 . S
C211 H196 0.940 . S
C211 C206 1.391 . S
C211 C210 1.396 . S
C212 P192 1.803 . S
C212 C213 1.378 . S
C212 C217 1.400 . S
C213 H197 0.939 . S
C213 C212 1.378 . S
C213 C214 1.361 . S
C214 H198 0.942 . S
C214 C213 1.361 . S
C214 C215 1.369 . S
C215 C214 1.369 . S
C215 C216 1.404 . S
C216 H199 0.940 . S
C216 C215 1.404 . S
C216 C217 1.389 . S
C217 H200 0.939 . S
C217 C212 1.400 . S
C217 C216 1.389 . S
C218 P192 1.819 . S
C218 C219 1.391 . S
C218 C223 1.391 . S
C219 H201 0.941 . S
C219 C218 1.391 . S
C219 C220 1.396 . S
C220 H204 0.939 . S
C220 C219 1.396 . S
C220 C221 1.397 . S
C221 C220 1.397 . S
C221 C222 1.385 . S
C222 H205 0.940 . S
C222 C221 1.385 . S
C222 C223 1.388 . S
C223 H202 0.939 . S
C223 C218 1.391 . S
C223 C222 1.388 . S
P224 O235 1.490 . S
P224 C238 1.812 . S
P224 C244 1.803 . S
P224 C250 1.819 . S
H225 C239 0.941 . S
H226 C240 0.939 . S
H227 C242 0.940 . S
H228 C243 0.940 . S
H229 C245 0.939 . S
H230 C246 0.942 . S
H231 C248 0.940 . S
H232 C249 0.939 . S
H233 C251 0.941 . S
H234 C255 0.939 . S
O235 P224 1.490 . S
H236 C252 0.939 . S
H237 C254 0.940 . S
C238 P224 1.812 . S
C238 C239 1.389 . S
C238 C243 1.391 . S
C239 H225 0.941 . S
C239 C238 1.389 . S
C239 C240 1.397 . S
C240 H226 0.939 . S
C240 C239 1.397 . S
C240 C241 1.378 . S
C241 C240 1.378 . S
C241 C242 1.378 . S
C242 H227 0.940 . S
C242 C241 1.378 . S
C242 C243 1.396 . S
C243 H228 0.940 . S
C243 C238 1.391 . S
C243 C242 1.396 . S
C244 P224 1.803 . S
C244 C245 1.378 . S
C244 C249 1.400 . S
C245 H229 0.939 . S
C245 C244 1.378 . S
C245 C246 1.361 . S
C246 H230 0.942 . S
C246 C245 1.361 . S
C246 C247 1.369 . S
C247 C246 1.369 . S
C247 C248 1.404 . S
C248 H231 0.940 . S
C248 C247 1.404 . S
C248 C249 1.389 . S
C249 H232 0.939 . S
C249 C244 1.400 . S
C249 C248 1.389 . S
C250 P224 1.819 . S
C250 C251 1.391 . S
C250 C255 1.391 . S
C251 H233 0.941 . S
C251 C250 1.391 . S
C251 C252 1.396 . S
C252 H236 0.939 . S
C252 C251 1.396 . S
C252 C253 1.397 . S
C253 C252 1.397 . S
C253 C254 1.385 . S
C254 H237 0.940 . S
C254 C253 1.385 . S
C254 C255 1.388 . S
C255 H234 0.939 . S
C255 C250 1.391 . S
C255 C254 1.388 . S
La256 C258 2.928 . S
La256 O276 2.521 . S
La256 O277 2.628 . S
La256 O278 2.554 1_545 S
La256 O279 2.757 1_545 S
La256 O280 2.470 . S
La256 O285 2.482 1_455 S
La256 O287 2.503 1_445 S
La257 C267 2.928 . S
La257 O279 2.482 1_655 S
La257 O281 2.503 1_665 S
La257 O282 2.521 . S
La257 O283 2.628 . S
La257 O284 2.554 1_565 S
La257 O285 2.757 1_565 S
La257 O286 2.470 . S
C258 La256 2.928 . S
C258 C259 1.503 . S
C258 O276 1.261 . S
C258 O277 1.243 . S
C259 C258 1.503 . S
C259 C260 1.394 . S
C259 C264 1.373 . S
C260 C259 1.394 . S
C260 C261 1.380 . S
C260 H288 0.930 . S
C261 C260 1.380 . S
C261 C262 1.376 . S
C261 H289 0.930 . S
C262 C261 1.376 . S
C262 C263 1.370 . S
C263 C262 1.370 . S
C263 C264 1.396 . S
C263 H290 0.929 . S
C264 C259 1.373 . S
C264 C263 1.396 . S
C264 H291 0.929 . S
C265 O278 1.240 . S
C265 O279 1.289 . S
C266 O280 1.258 . S
C266 O281 1.256 . S
C267 La257 2.928 . S
C267 C268 1.503 . S
C267 O282 1.261 . S
C267 O283 1.243 . S
C268 C267 1.503 . S
C268 C269 1.394 . S
C268 C273 1.373 . S
C269 C268 1.394 . S
C269 C270 1.380 . S
C269 H292 0.930 . S
C270 C269 1.380 . S
C270 C271 1.376 . S
C270 H293 0.930 . S
C271 C270 1.376 . S
C271 C272 1.370 . S
C272 C271 1.370 . S
C272 C273 1.396 . S
C272 H294 0.929 . S
C273 C268 1.373 . S
C273 C272 1.396 . S
C273 H295 0.929 . S
C274 O284 1.240 . S
C274 O285 1.289 . S
C275 O286 1.258 . S
C275 O287 1.256 . S
O276 La256 2.521 . S
O276 C258 1.261 . S
O277 La256 2.628 . S
O277 C258 1.243 . S
O278 La256 2.554 1_565 S
O278 C265 1.240 . S
O279 La256 2.757 1_565 S
O279 La257 2.482 1_455 S
O279 C265 1.289 . S
O280 La256 2.470 . S
O280 C266 1.258 . S
O281 La257 2.503 1_445 S
O281 C266 1.256 . S
O282 La257 2.521 . S
O282 C267 1.261 . S
O283 La257 2.628 . S
O283 C267 1.243 . S
O284 La257 2.554 1_545 S
O284 C274 1.240 . S
O285 La256 2.482 1_655 S
O285 La257 2.757 1_545 S
O285 C274 1.289 . S
O286 La257 2.470 . S
O286 C275 1.258 . S
O287 La256 2.503 1_665 S
O287 C275 1.256 . S
H288 C260 0.930 . S
H289 C261 0.930 . S
H290 C263 0.929 . S
H291 C264 0.929 . S
H292 C269 0.930 . S
H293 C270 0.930 . S
H294 C272 0.929 . S
H295 C273 0.929 . S
La296 C298 2.928 . S
La296 O316 2.521 . S
La296 O317 2.628 . S
La296 O318 2.554 1_545 S
La296 O319 2.757 1_545 S
La296 O320 2.470 . S
La296 O325 2.460 1_554 S
La296 O327 2.503 1_544 S
La297 C307 2.928 1_545 S
La297 O319 2.482 1_546 S
La297 O321 2.503 1_556 S
La297 O322 2.519 1_545 S
La297 O323 2.628 1_545 S
La297 O324 2.554 . S
La297 O325 2.767 . S
La297 O326 2.470 1_545 S
C298 La296 2.928 . S
C298 C299 1.503 . S
C298 O316 1.261 . S
C298 O317 1.243 . S
C299 C298 1.503 . S
C299 C300 1.394 . S
C299 C304 1.373 . S
C300 C299 1.394 . S
C300 C301 1.380 . S
C300 H328 0.930 . S
C301 C300 1.380 . S
C301 C302 1.376 . S
C301 H329 0.930 . S
C302 C301 1.376 . S
C302 C303 1.370 . S
C303 C302 1.370 . S
C303 C304 1.396 . S
C303 H330 0.929 . S
C304 C299 1.373 . S
C304 C303 1.396 . S
C304 H331 0.929 . S
C305 O318 1.240 . S
C305 O319 1.289 . S
C306 O320 1.258 . S
C306 O321 1.256 . S
C307 La297 2.928 1_565 S
C307 C308 1.503 . S
C307 O322 1.288 . S
C307 O323 1.243 . S
C308 C307 1.503 . S
C308 C309 1.394 . S
C308 C313 1.373 . S
C309 C308 1.394 . S
C309 C310 1.380 . S
C309 H332 0.930 . S
C310 C309 1.380 . S
C310 C311 1.376 . S
C310 H333 0.930 . S
C311 C310 1.376 . S
C311 C312 1.370 . S
C312 C311 1.370 . S
C312 C313 1.396 . S
C312 H334 0.929 . S
C313 C308 1.373 . S
C313 C312 1.396 . S
C313 H335 0.929 . S
C314 O324 1.240 . S
C314 O325 1.315 . S
C315 O326 1.258 . S
C315 O327 1.256 . S
O316 La296 2.521 . S
O316 C298 1.261 . S
O317 La296 2.628 . S
O317 C298 1.243 . S
O318 La296 2.554 1_565 S
O318 C305 1.240 . S
O319 La296 2.757 1_565 S
O319 La297 2.482 1_564 S
O319 C305 1.289 . S
O320 La296 2.470 . S
O320 C306 1.258 . S
O321 La297 2.503 1_554 S
O321 C306 1.256 . S
O322 La297 2.519 1_565 S
O322 C307 1.288 . S
O323 La297 2.628 1_565 S
O323 C307 1.243 . S
O324 La297 2.554 . S
O324 C314 1.240 . S
O325 La296 2.460 1_556 S
O325 La297 2.767 . S
O325 C314 1.315 . S
O326 La297 2.470 1_565 S
O326 C315 1.258 . S
O327 La296 2.503 1_566 S
O327 C315 1.256 . S
H328 C300 0.930 . S
H329 C301 0.930 . S
H330 C303 0.929 . S
H331 C304 0.929 . S
H332 C309 0.930 . S
H333 C310 0.930 . S
H334 C312 0.929 . S
H335 C313 0.929 . S
La336 C338 2.928 . S
La336 O356 2.521 . S
La336 O357 2.628 . S
La336 O358 2.554 . S
La336 O359 2.757 . S
La336 O360 2.470 . S
La336 O365 2.482 . S
La336 O367 2.503 . S
La337 C347 2.928 . S
La337 O359 2.482 . S
La337 O361 2.503 . S
La337 O362 2.521 . S
La337 O363 2.628 . S
La337 O364 2.554 . S
La337 O365 2.757 . S
La337 O366 2.470 . S
C338 La336 2.928 . S
C338 C339 1.503 . S
C338 O356 1.261 . S
C338 O357 1.243 . S
C339 C338 1.503 . S
C339 C340 1.394 . S
C339 C344 1.373 . S
C340 C339 1.394 . S
C340 C341 1.380 . S
C340 H368 0.930 . S
C341 C340 1.380 . S
C341 C342 1.376 . S
C341 H369 0.930 . S
C342 C341 1.376 . S
C342 C343 1.370 . S
C343 C342 1.370 . S
C343 C344 1.396 . S
C343 H370 0.929 . S
C344 C339 1.373 . S
C344 C343 1.396 . S
C344 H371 0.929 . S
C345 O358 1.240 . S
C345 O359 1.289 . S
C346 O360 1.258 . S
C346 O361 1.256 . S
C347 La337 2.928 . S
C347 C348 1.503 . S
C347 O362 1.261 . S
C347 O363 1.243 . S
C348 C347 1.503 . S
C348 C349 1.394 . S
C348 C353 1.373 . S
C349 C348 1.394 . S
C349 C350 1.380 . S
C349 H372 0.930 . S
C350 C349 1.380 . S
C350 C351 1.376 . S
C350 H373 0.930 . S
C351 C350 1.376 . S
C351 C352 1.370 . S
C352 C351 1.370 . S
C352 C353 1.396 . S
C352 H374 0.929 . S
C353 C348 1.373 . S
C353 C352 1.396 . S
C353 H375 0.929 . S
C354 O364 1.240 . S
C354 O365 1.289 . S
C355 O366 1.258 . S
C355 O367 1.256 . S
O356 La336 2.521 . S
O356 C338 1.261 . S
O357 La336 2.628 . S
O357 C338 1.243 . S
O358 La336 2.554 . S
O358 C345 1.240 . S
O359 La336 2.757 . S
O359 La337 2.482 . S
O359 C345 1.289 . S
O360 La336 2.470 . S
O360 C346 1.258 . S
O361 La337 2.503 . S
O361 C346 1.256 . S
O362 La337 2.521 . S
O362 C347 1.261 . S
O363 La337 2.628 . S
O363 C347 1.243 . S
O364 La337 2.554 . S
O364 C354 1.240 . S
O365 La336 2.482 . S
O365 La337 2.757 . S
O365 C354 1.289 . S
O366 La337 2.470 . S
O366 C355 1.258 . S
O367 La336 2.503 . S
O367 C355 1.256 . S
H368 C340 0.930 . S
H369 C341 0.930 . S
H370 C343 0.929 . S
H371 C344 0.929 . S
H372 C349 0.930 . S
H373 C350 0.930 . S
H374 C352 0.929 . S
H375 C353 0.929 . S
La376 C378 2.928 . S
La376 O396 2.521 . S
La376 O397 2.628 . S
La376 O398 2.554 1_455 S
La376 O399 2.757 1_455 S
La376 O400 2.470 . S
La376 O405 2.482 1_554 S
La376 O407 2.503 1_454 S
La377 C387 2.928 . S
La377 O399 2.482 1_556 S
La377 O401 2.503 1_656 S
La377 O402 2.521 . S
La377 O403 2.628 . S
La377 O404 2.554 1_655 S
La377 O405 2.757 1_655 S
La377 O406 2.470 . S
C378 La376 2.928 . S
C378 C379 1.503 . S
C378 O396 1.261 . S
C378 O397 1.243 . S
C379 C378 1.503 . S
C379 C380 1.394 . S
C379 C384 1.373 . S
C380 C379 1.394 . S
C380 C381 1.380 . S
C380 H408 0.930 . S
C381 C380 1.380 . S
C381 C382 1.376 . S
C381 H409 0.930 . S
C382 C381 1.376 . S
C382 C383 1.370 . S
C383 C382 1.370 . S
C383 C384 1.396 . S
C383 H410 0.929 . S
C384 C379 1.373 . S
C384 C383 1.396 . S
C384 H411 0.929 . S
C385 O398 1.240 . S
C385 O399 1.289 . S
C386 O400 1.258 . S
C386 O401 1.256 . S
C387 La377 2.928 . S
C387 C388 1.503 . S
C387 O402 1.261 . S
C387 O403 1.243 . S
C388 C387 1.503 . S
C388 C389 1.394 . S
C388 C393 1.373 . S
C389 C388 1.394 . S
C389 C390 1.380 . S
C389 H412 0.930 . S
C390 C389 1.380 . S
C390 C391 1.376 . S
C390 H413 0.930 . S
C391 C390 1.376 . S
C391 C392 1.370 . S
C392 C391 1.370 . S
C392 C393 1.396 . S
C392 H414 0.929 . S
C393 C388 1.373 . S
C393 C392 1.396 . S
C393 H415 0.929 . S
C394 O404 1.240 . S
C394 O405 1.289 . S
C395 O406 1.258 . S
C395 O407 1.256 . S
O396 La376 2.521 . S
O396 C378 1.261 . S
O397 La376 2.628 . S
O397 C378 1.243 . S
O398 La376 2.554 1_655 S
O398 C385 1.240 . S
O399 La376 2.757 1_655 S
O399 La377 2.482 1_554 S
O399 C385 1.289 . S
O400 La376 2.470 . S
O400 C386 1.258 . S
O401 La377 2.503 1_454 S
O401 C386 1.256 . S
O402 La377 2.521 . S
O402 C387 1.261 . S
O403 La377 2.628 . S
O403 C387 1.243 . S
O404 La377 2.554 1_455 S
O404 C394 1.240 . S
O405 La376 2.482 1_556 S
O405 La377 2.757 1_455 S
O405 C394 1.289 . S
O406 La377 2.470 . S
O406 C395 1.258 . S
O407 La376 2.503 1_656 S
O407 C395 1.256 . S
H408 C380 0.930 . S
H409 C381 0.930 . S
H410 C383 0.929 . S
H411 C384 0.929 . S
H412 C389 0.930 . S
H413 C390 0.930 . S
H414 C392 0.929 . S
H415 C393 0.929 . S
C416 C417 1.391 . S
C416 C418 1.394 . S
C416 H432 0.931 . S
C417 C416 1.391 . S
C417 C421 1.376 . S
C418 C416 1.394 . S
C418 C419 1.369 . S
C418 C422 1.531 . S
C419 C418 1.369 . S
C419 C420 1.410 . S
C419 C427 1.503 . S
C420 C419 1.410 . S
C420 C421 1.392 . S
C420 C423 1.511 . S
C421 C417 1.376 . S
C421 C420 1.392 . S
C421 H433 0.929 . S
C422 C418 1.531 . S
C422 H434 0.960 . S
C422 H435 0.962 . S
C422 H436 0.960 . S
C423 C420 1.511 . S
C423 H437 0.961 . S
C423 H438 0.961 . S
C423 H439 0.961 . S
C424 C425 1.370 . S
C424 C426 1.363 . S
C424 H440 0.931 . S
C425 C424 1.370 . S
C425 C429 1.408 . S
C426 C424 1.363 . S
C426 C427 1.370 . S
C426 C430 1.524 . S
C427 C419 1.503 . S
C427 C426 1.370 . S
C427 C428 1.403 . S
C428 C427 1.403 . S
C428 C429 1.404 . S
C428 C431 1.539 . S
C429 C425 1.408 . S
C429 C428 1.404 . S
C429 H441 0.930 . S
C430 C426 1.524 . S
C430 H442 0.956 . S
C430 H443 0.961 . S
C430 H444 0.961 . S
C431 C428 1.539 . S
C431 H445 0.958 . S
C431 H446 0.961 . S
C431 H447 0.960 . S
H432 C416 0.931 . S
H433 C421 0.929 . S
H434 C422 0.960 . S
H435 C422 0.962 . S
H436 C422 0.960 . S
H437 C423 0.961 . S
H438 C423 0.961 . S
H439 C423 0.961 . S
H440 C424 0.931 . S
H441 C429 0.930 . S
H442 C430 0.956 . S
H443 C430 0.961 . S
H444 C430 0.961 . S
H445 C431 0.958 . S
H446 C431 0.961 . S
H447 C431 0.960 . S
C448 C449 1.391 . S
C448 C450 1.394 . S
C448 H464 0.931 . S
C449 C448 1.391 . S
C449 C453 1.376 . S
C450 C448 1.394 . S
C450 C451 1.369 . S
C450 C454 1.531 . S
C451 C450 1.369 . S
C451 C452 1.410 . S
C451 C459 1.503 . S
C452 C451 1.410 . S
C452 C453 1.392 . S
C452 C455 1.511 . S
C453 C449 1.376 . S
C453 C452 1.392 . S
C453 H465 0.929 . S
C454 C450 1.531 . S
C454 H466 0.960 . S
C454 H467 0.962 . S
C454 H468 0.960 . S
C455 C452 1.511 . S
C455 H469 0.961 . S
C455 H470 0.961 . S
C455 H471 0.961 . S
C456 C457 1.370 . S
C456 C458 1.363 . S
C456 H472 0.931 . S
C457 C456 1.370 . S
C457 C461 1.408 . S
C458 C456 1.363 . S
C458 C459 1.370 . S
C458 C462 1.524 . S
C459 C451 1.503 . S
C459 C458 1.370 . S
C459 C460 1.403 . S
C460 C459 1.403 . S
C460 C461 1.404 . S
C460 C463 1.539 . S
C461 C457 1.408 . S
C461 C460 1.404 . S
C461 H473 0.930 . S
C462 C458 1.524 . S
C462 H474 0.956 . S
C462 H475 0.961 . S
C462 H476 0.961 . S
C463 C460 1.539 . S
C463 H477 0.958 . S
C463 H478 0.961 . S
C463 H479 0.960 . S
H464 C448 0.931 . S
H465 C453 0.929 . S
H466 C454 0.960 . S
H467 C454 0.962 . S
H468 C454 0.960 . S
H469 C455 0.961 . S
H470 C455 0.961 . S
H471 C455 0.961 . S
H472 C456 0.931 . S
H473 C461 0.930 . S
H474 C462 0.956 . S
H475 C462 0.961 . S
H476 C462 0.961 . S
H477 C463 0.958 . S
H478 C463 0.961 . S
H479 C463 0.960 . S
C480 C481 1.391 . S
C480 C482 1.394 . S
C480 H496 0.931 . S
C481 C480 1.391 . S
C481 C485 1.376 . S
C482 C480 1.394 . S
C482 C483 1.369 . S
C482 C486 1.531 . S
C483 C482 1.369 . S
C483 C484 1.410 . S
C483 C491 1.503 . S
C484 C483 1.410 . S
C484 C485 1.392 . S
C484 C487 1.511 . S
C485 C481 1.376 . S
C485 C484 1.392 . S
C485 H497 0.929 . S
C486 C482 1.531 . S
C486 H498 0.960 . S
C486 H499 0.962 . S
C486 H500 0.960 . S
C487 C484 1.511 . S
C487 H501 0.961 . S
C487 H502 0.961 . S
C487 H503 0.961 . S
C488 C489 1.370 . S
C488 C490 1.363 . S
C488 H504 0.931 . S
C489 C488 1.370 . S
C489 C493 1.408 . S
C490 C488 1.363 . S
C490 C491 1.370 . S
C490 C494 1.524 . S
C491 C483 1.503 . S
C491 C490 1.370 . S
C491 C492 1.403 . S
C492 C491 1.403 . S
C492 C493 1.404 . S
C492 C495 1.539 . S
C493 C489 1.408 . S
C493 C492 1.404 . S
C493 H505 0.930 . S
C494 C490 1.524 . S
C494 H506 0.956 . S
C494 H507 0.961 . S
C494 H508 0.961 . S
C495 C492 1.539 . S
C495 H509 0.958 . S
C495 H510 0.961 . S
C495 H511 0.960 . S
H496 C480 0.931 . S
H497 C485 0.929 . S
H498 C486 0.960 . S
H499 C486 0.962 . S
H500 C486 0.960 . S
H501 C487 0.961 . S
H502 C487 0.961 . S
H503 C487 0.961 . S
H504 C488 0.931 . S
H505 C493 0.930 . S
H506 C494 0.956 . S
H507 C494 0.961 . S
H508 C494 0.961 . S
H509 C495 0.958 . S
H510 C495 0.961 . S
H511 C495 0.960 . S
C512 C513 1.391 . S
C512 C514 1.394 . S
C512 H528 0.931 . S
C513 C512 1.391 . S
C513 C517 1.376 . S
C514 C512 1.394 . S
C514 C515 1.369 . S
C514 C518 1.531 . S
C515 C514 1.369 . S
C515 C516 1.410 . S
C515 C523 1.503 . S
C516 C515 1.410 . S
C516 C517 1.392 . S
C516 C519 1.511 . S
C517 C513 1.376 . S
C517 C516 1.392 . S
C517 H529 0.929 . S
C518 C514 1.531 . S
C518 H530 0.960 . S
C518 H531 0.962 . S
C518 H532 0.960 . S
C519 C516 1.511 . S
C519 H533 0.961 . S
C519 H534 0.961 . S
C519 H535 0.961 . S
C520 C521 1.370 . S
C520 C522 1.363 . S
C520 H536 0.931 . S
C521 C520 1.370 . S
C521 C525 1.408 . S
C522 C520 1.363 . S
C522 C523 1.370 . S
C522 C526 1.524 . S
C523 C515 1.503 . S
C523 C522 1.370 . S
C523 C524 1.403 . S
C524 C523 1.403 . S
C524 C525 1.404 . S
C524 C527 1.539 . S
C525 C521 1.408 . S
C525 C524 1.404 . S
C525 H537 0.930 . S
C526 C522 1.524 . S
C526 H538 0.956 . S
C526 H539 0.961 . S
C526 H540 0.961 . S
C527 C524 1.539 . S
C527 H541 0.958 . S
C527 H542 0.961 . S
C527 H543 0.960 . S
H528 C512 0.931 . S
H529 C517 0.929 . S
H530 C518 0.960 . S
H531 C518 0.962 . S
H532 C518 0.960 . S
H533 C519 0.961 . S
H534 C519 0.961 . S
H535 C519 0.961 . S
H536 C520 0.931 . S
H537 C525 0.930 . S
H538 C526 0.956 . S
H539 C526 0.961 . S
H540 C526 0.961 . S
H541 C527 0.958 . S
H542 C527 0.961 . S
H543 C527 0.960 . S
C544 C545 1.391 . S
C544 C546 1.394 . S
C544 H560 0.931 . S
C545 C544 1.391 . S
C545 C549 1.376 . S
C546 C544 1.394 . S
C546 C547 1.369 . S
C546 C550 1.531 . S
C547 C546 1.369 . S
C547 C548 1.410 . S
C547 C555 1.503 . S
C548 C547 1.410 . S
C548 C549 1.392 . S
C548 C551 1.511 . S
C549 C545 1.376 . S
C549 C548 1.392 . S
C549 H561 0.929 . S
C550 C546 1.531 . S
C550 H562 0.960 . S
C550 H563 0.962 . S
C550 H564 0.960 . S
C551 C548 1.511 . S
C551 H565 0.961 . S
C551 H566 0.961 . S
C551 H567 0.961 . S
C552 C553 1.370 . S
C552 C554 1.363 . S
C552 H568 0.931 . S
C553 C552 1.370 . S
C553 C557 1.408 . S
C554 C552 1.363 . S
C554 C555 1.370 . S
C554 C558 1.524 . S
C555 C547 1.503 . S
C555 C554 1.370 . S
C555 C556 1.403 . S
C556 C555 1.403 . S
C556 C557 1.404 . S
C556 C559 1.539 . S
C557 C553 1.408 . S
C557 C556 1.404 . S
C557 H569 0.930 . S
C558 C554 1.524 . S
C558 H570 0.956 . S
C558 H571 0.961 . S
C558 H572 0.961 . S
C559 C556 1.539 . S
C559 H573 0.958 . S
C559 H574 0.961 . S
C559 H575 0.960 . S
H560 C544 0.931 . S
H561 C549 0.929 . S
H562 C550 0.960 . S
H563 C550 0.962 . S
H564 C550 0.960 . S
H565 C551 0.961 . S
H566 C551 0.961 . S
H567 C551 0.961 . S
H568 C552 0.931 . S
H569 C557 0.930 . S
H570 C558 0.956 . S
H571 C558 0.961 . S
H572 C558 0.961 . S
H573 C559 0.958 . S
H574 C559 0.961 . S
H575 C559 0.960 . S
C576 C577 1.391 . S
C576 C578 1.394 . S
C576 H592 0.931 . S
C577 C576 1.391 . S
C577 C581 1.376 . S
C578 C576 1.394 . S
C578 C579 1.369 . S
C578 C582 1.531 . S
C579 C578 1.369 . S
C579 C580 1.410 . S
C579 C587 1.503 . S
C580 C579 1.410 . S
C580 C581 1.392 . S
C580 C583 1.511 . S
C581 C577 1.376 . S
C581 C580 1.392 . S
C581 H593 0.929 . S
C582 C578 1.531 . S
C582 H594 0.960 . S
C582 H595 0.962 . S
C582 H596 0.960 . S
C583 C580 1.511 . S
C583 H597 0.961 . S
C583 H598 0.961 . S
C583 H599 0.961 . S
C584 C585 1.370 . S
C584 C586 1.363 . S
C584 H600 0.931 . S
C585 C584 1.370 . S
C585 C589 1.408 . S
C586 C584 1.363 . S
C586 C587 1.370 . S
C586 C590 1.524 . S
C587 C579 1.503 . S
C587 C586 1.370 . S
C587 C588 1.403 . S
C588 C587 1.403 . S
C588 C589 1.404 . S
C588 C591 1.539 . S
C589 C585 1.408 . S
C589 C588 1.404 . S
C589 H601 0.930 . S
C590 C586 1.524 . S
C590 H602 0.956 . S
C590 H603 0.961 . S
C590 H604 0.961 . S
C591 C588 1.539 . S
C591 H605 0.958 . S
C591 H606 0.961 . S
C591 H607 0.960 . S
H592 C576 0.931 . S
H593 C581 0.929 . S
H594 C582 0.960 . S
H595 C582 0.962 . S
H596 C582 0.960 . S
H597 C583 0.961 . S
H598 C583 0.961 . S
H599 C583 0.961 . S
H600 C584 0.931 . S
H601 C589 0.930 . S
H602 C590 0.956 . S
H603 C590 0.961 . S
H604 C590 0.961 . S
H605 C591 0.958 . S
H606 C591 0.961 . S
H607 C591 0.960 . S
C608 C609 1.391 . S
C608 C610 1.394 . S
C608 H624 0.931 . S
C609 C608 1.391 . S
C609 C613 1.376 . S
C610 C608 1.394 . S
C610 C611 1.369 . S
C610 C614 1.531 . S
C611 C610 1.369 . S
C611 C612 1.410 . S
C611 C619 1.503 . S
C612 C611 1.410 . S
C612 C613 1.392 . S
C612 C615 1.511 . S
C613 C609 1.376 . S
C613 C612 1.392 . S
C613 H625 0.929 . S
C614 C610 1.531 . S
C614 H626 0.960 . S
C614 H627 0.962 . S
C614 H628 0.960 . S
C615 C612 1.511 . S
C615 H629 0.961 . S
C615 H630 0.961 . S
C615 H631 0.961 . S
C616 C617 1.370 . S
C616 C618 1.363 . S
C616 H632 0.931 . S
C617 C616 1.370 . S
C617 C621 1.408 . S
C618 C616 1.363 . S
C618 C619 1.370 . S
C618 C622 1.524 . S
C619 C611 1.503 . S
C619 C618 1.370 . S
C619 C620 1.403 . S
C620 C619 1.403 . S
C620 C621 1.404 . S
C620 C623 1.539 . S
C621 C617 1.408 . S
C621 C620 1.404 . S
C621 H633 0.930 . S
C622 C618 1.524 . S
C622 H634 0.956 . S
C622 H635 0.961 . S
C622 H636 0.961 . S
C623 C620 1.539 . S
C623 H637 0.958 . S
C623 H638 0.961 . S
C623 H639 0.960 . S
H624 C608 0.931 . S
H625 C613 0.929 . S
H626 C614 0.960 . S
H627 C614 0.962 . S
H628 C614 0.960 . S
H629 C615 0.961 . S
H630 C615 0.961 . S
H631 C615 0.961 . S
H632 C616 0.931 . S
H633 C621 0.930 . S
H634 C622 0.956 . S
H635 C622 0.961 . S
H636 C622 0.961 . S
H637 C623 0.958 . S
H638 C623 0.961 . S
H639 C623 0.960 . S
C640 C641 1.391 . S
C640 C642 1.394 . S
C640 H656 0.931 . S
C641 C640 1.391 . S
C641 C645 1.376 . S
C642 C640 1.394 . S
C642 C643 1.369 . S
C642 C646 1.531 . S
C643 C642 1.369 . S
C643 C644 1.410 . S
C643 C651 1.503 . S
C644 C643 1.410 . S
C644 C645 1.392 . S
C644 C647 1.511 . S
C645 C641 1.376 . S
C645 C644 1.392 . S
C645 H657 0.929 . S
C646 C642 1.531 . S
C646 H658 0.960 . S
C646 H659 0.962 . S
C646 H660 0.960 . S
C647 C644 1.511 . S
C647 H661 0.961 . S
C647 H662 0.961 . S
C647 H663 0.961 . S
C648 C649 1.370 . S
C648 C650 1.363 . S
C648 H664 0.931 . S
C649 C648 1.370 . S
C649 C653 1.408 . S
C650 C648 1.363 . S
C650 C651 1.370 . S
C650 C654 1.524 . S
C651 C643 1.503 . S
C651 C650 1.370 . S
C651 C652 1.403 . S
C652 C651 1.403 . S
C652 C653 1.404 . S
C652 C655 1.539 . S
C653 C649 1.408 . S
C653 C652 1.404 . S
C653 H665 0.930 . S
C654 C650 1.524 . S
C654 H666 0.956 . S
C654 H667 0.961 . S
C654 H668 0.961 . S
C655 C652 1.539 . S
C655 H669 0.958 . S
C655 H670 0.961 . S
C655 H671 0.960 . S
H656 C640 0.931 . S
H657 C645 0.929 . S
H658 C646 0.960 . S
H659 C646 0.962 . S
H660 C646 0.960 . S
H661 C647 0.961 . S
H662 C647 0.961 . S
H663 C647 0.961 . S
H664 C648 0.931 . S
H665 C653 0.930 . S
H666 C654 0.956 . S
H667 C654 0.961 . S
H668 C654 0.961 . S
H669 C655 0.958 . S
H670 C655 0.961 . S
H671 C655 0.960 . S
C672 C673 1.391 . S
C672 C674 1.394 . S
C672 H688 0.931 . S
C673 C672 1.391 . S
C673 C677 1.376 . S
C674 C672 1.394 . S
C674 C675 1.369 . S
C674 C678 1.531 . S
C675 C674 1.369 . S
C675 C676 1.410 . S
C675 C683 1.503 . S
C676 C675 1.410 . S
C676 C677 1.392 . S
C676 C679 1.511 . S
C677 C673 1.376 . S
C677 C676 1.392 . S
C677 H689 0.929 . S
C678 C674 1.531 . S
C678 H690 0.960 . S
C678 H691 0.962 . S
C678 H692 0.960 . S
C679 C676 1.511 . S
C679 H693 0.961 . S
C679 H694 0.961 . S
C679 H695 0.961 . S
C680 C681 1.370 . S
C680 C682 1.363 . S
C680 H696 0.931 . S
C681 C680 1.370 . S
C681 C685 1.408 . S
C682 C680 1.363 . S
C682 C683 1.370 . S
C682 C686 1.524 . S
C683 C675 1.503 . S
C683 C682 1.370 . S
C683 C684 1.403 . S
C684 C683 1.403 . S
C684 C685 1.404 . S
C684 C687 1.539 . S
C685 C681 1.408 . S
C685 C684 1.404 . S
C685 H697 0.930 . S
C686 C682 1.524 . S
C686 H698 0.956 . S
C686 H699 0.961 . S
C686 H700 0.961 . S
C687 C684 1.539 . S
C687 H701 0.958 . S
C687 H702 0.961 . S
C687 H703 0.960 . S
H688 C672 0.931 . S
H689 C677 0.929 . S
H690 C678 0.960 . S
H691 C678 0.962 . S
H692 C678 0.960 . S
H693 C679 0.961 . S
H694 C679 0.961 . S
H695 C679 0.961 . S
H696 C680 0.931 . S
H697 C685 0.930 . S
H698 C686 0.956 . S
H699 C686 0.961 . S
H700 C686 0.961 . S
H701 C687 0.958 . S
H702 C687 0.961 . S
H703 C687 0.960 . S
C704 C705 1.391 . S
C704 C706 1.394 . S
C704 H720 0.931 . S
C705 C704 1.391 . S
C705 C709 1.376 . S
C706 C704 1.394 . S
C706 C707 1.369 . S
C706 C710 1.531 . S
C707 C706 1.369 . S
C707 C708 1.410 . S
C707 C715 1.503 . S
C708 C707 1.410 . S
C708 C709 1.392 . S
C708 C711 1.511 . S
C709 C705 1.376 . S
C709 C708 1.392 . S
C709 H721 0.929 . S
C710 C706 1.531 . S
C710 H722 0.960 . S
C710 H723 0.962 . S
C710 H724 0.960 . S
C711 C708 1.511 . S
C711 H725 0.961 . S
C711 H726 0.961 . S
C711 H727 0.961 . S
C712 C713 1.370 . S
C712 C714 1.363 . S
C712 H728 0.931 . S
C713 C712 1.370 . S
C713 C717 1.408 . S
C714 C712 1.363 . S
C714 C715 1.370 . S
C714 C718 1.524 . S
C715 C707 1.503 . S
C715 C714 1.370 . S
C715 C716 1.403 . S
C716 C715 1.403 . S
C716 C717 1.404 . S
C716 C719 1.539 . S
C717 C713 1.408 . S
C717 C716 1.404 . S
C717 H729 0.930 . S
C718 C714 1.524 . S
C718 H730 0.956 . S
C718 H731 0.961 . S
C718 H732 0.961 . S
C719 C716 1.539 . S
C719 H733 0.958 . S
C719 H734 0.961 . S
C719 H735 0.960 . S
H720 C704 0.931 . S
H721 C709 0.929 . S
H722 C710 0.960 . S
H723 C710 0.962 . S
H724 C710 0.960 . S
H725 C711 0.961 . S
H726 C711 0.961 . S
H727 C711 0.961 . S
H728 C712 0.931 . S
H729 C717 0.930 . S
H730 C718 0.956 . S
H731 C718 0.961 . S
H732 C718 0.961 . S
H733 C719 0.958 . S
H734 C719 0.961 . S
H735 C719 0.960 . S
C736 C737 1.391 . S
C736 C738 1.394 . S
C736 H752 0.931 . S
C737 C736 1.391 . S
C737 C741 1.376 . S
C738 C736 1.394 . S
C738 C739 1.369 . S
C738 C742 1.531 . S
C739 C738 1.369 . S
C739 C740 1.410 . S
C739 C747 1.503 . S
C740 C739 1.410 . S
C740 C741 1.392 . S
C740 C743 1.511 . S
C741 C737 1.376 . S
C741 C740 1.392 . S
C741 H753 0.929 . S
C742 C738 1.531 . S
C742 H754 0.960 . S
C742 H755 0.962 . S
C742 H756 0.960 . S
C743 C740 1.511 . S
C743 H757 0.961 . S
C743 H758 0.961 . S
C743 H759 0.961 . S
C744 C745 1.370 . S
C744 C746 1.363 . S
C744 H760 0.931 . S
C745 C744 1.370 . S
C745 C749 1.408 . S
C746 C744 1.363 . S
C746 C747 1.370 . S
C746 C750 1.524 . S
C747 C739 1.503 . S
C747 C746 1.370 . S
C747 C748 1.403 . S
C748 C747 1.403 . S
C748 C749 1.404 . S
C748 C751 1.539 . S
C749 C745 1.408 . S
C749 C748 1.404 . S
C749 H761 0.930 . S
C750 C746 1.524 . S
C750 H762 0.956 . S
C750 H763 0.961 . S
C750 H764 0.961 . S
C751 C748 1.539 . S
C751 H765 0.958 . S
C751 H766 0.961 . S
C751 H767 0.960 . S
H752 C736 0.931 . S
H753 C741 0.929 . S
H754 C742 0.960 . S
H755 C742 0.962 . S
H756 C742 0.960 . S
H757 C743 0.961 . S
H758 C743 0.961 . S
H759 C743 0.961 . S
H760 C744 0.931 . S
H761 C749 0.930 . S
H762 C750 0.956 . S
H763 C750 0.961 . S
H764 C750 0.961 . S
H765 C751 0.958 . S
H766 C751 0.961 . S
H767 C751 0.960 . S
C768 C769 1.391 . S
C768 C770 1.394 . S
C768 H784 0.931 . S
C769 C768 1.391 . S
C769 C773 1.376 . S
C770 C768 1.394 . S
C770 C771 1.369 . S
C770 C774 1.531 . S
C771 C770 1.369 . S
C771 C772 1.410 . S
C771 C779 1.503 . S
C772 C771 1.410 . S
C772 C773 1.392 . S
C772 C775 1.511 . S
C773 C769 1.376 . S
C773 C772 1.392 . S
C773 H785 0.929 . S
C774 C770 1.531 . S
C774 H786 0.960 . S
C774 H787 0.962 . S
C774 H788 0.960 . S
C775 C772 1.511 . S
C775 H789 0.961 . S
C775 H790 0.961 . S
C775 H791 0.961 . S
C776 C777 1.370 . S
C776 C778 1.363 . S
C776 H792 0.931 . S
C777 C776 1.370 . S
C777 C781 1.408 . S
C778 C776 1.363 . S
C778 C779 1.370 . S
C778 C782 1.524 . S
C779 C771 1.503 . S
C779 C778 1.370 . S
C779 C780 1.403 . S
C780 C779 1.403 . S
C780 C781 1.404 . S
C780 C783 1.539 . S
C781 C777 1.408 . S
C781 C780 1.404 . S
C781 H793 0.930 . S
C782 C778 1.524 . S
C782 H794 0.956 . S
C782 H795 0.961 . S
C782 H796 0.961 . S
C783 C780 1.539 . S
C783 H797 0.958 . S
C783 H798 0.961 . S
C783 H799 0.960 . S
H784 C768 0.931 . S
H785 C773 0.929 . S
H786 C774 0.960 . S
H787 C774 0.962 . S
H788 C774 0.960 . S
H789 C775 0.961 . S
H790 C775 0.961 . S
H791 C775 0.961 . S
H792 C776 0.931 . S
H793 C781 0.930 . S
H794 C782 0.956 . S
H795 C782 0.961 . S
H796 C782 0.961 . S
H797 C783 0.958 . S
H798 C783 0.961 . S
H799 C783 0.960 . S
C800 C801 1.391 . S
C800 C802 1.394 . S
C800 H816 0.931 . S
C801 C800 1.391 . S
C801 C805 1.376 . S
C802 C800 1.394 . S
C802 C803 1.369 . S
C802 C806 1.531 . S
C803 C802 1.369 . S
C803 C804 1.410 . S
C803 C811 1.503 . S
C804 C803 1.410 . S
C804 C805 1.392 . S
C804 C807 1.511 . S
C805 C801 1.376 . S
C805 C804 1.392 . S
C805 H817 0.929 . S
C806 C802 1.531 . S
C806 H818 0.960 . S
C806 H819 0.962 . S
C806 H820 0.960 . S
C807 C804 1.511 . S
C807 H821 0.961 . S
C807 H822 0.961 . S
C807 H823 0.961 . S
C808 C809 1.370 . S
C808 C810 1.363 . S
C808 H824 0.931 . S
C809 C808 1.370 . S
C809 C813 1.408 . S
C810 C808 1.363 . S
C810 C811 1.370 . S
C810 C814 1.524 . S
C811 C803 1.503 . S
C811 C810 1.370 . S
C811 C812 1.403 . S
C812 C811 1.403 . S
C812 C813 1.404 . S
C812 C815 1.539 . S
C813 C809 1.408 . S
C813 C812 1.404 . S
C813 H825 0.930 . S
C814 C810 1.524 . S
C814 H826 0.956 . S
C814 H827 0.961 . S
C814 H828 0.961 . S
C815 C812 1.539 . S
C815 H829 0.958 . S
C815 H830 0.961 . S
C815 H831 0.960 . S
H816 C800 0.931 . S
H817 C805 0.929 . S
H818 C806 0.960 . S
H819 C806 0.962 . S
H820 C806 0.960 . S
H821 C807 0.961 . S
H822 C807 0.961 . S
H823 C807 0.961 . S
H824 C808 0.931 . S
H825 C813 0.930 . S
H826 C814 0.956 . S
H827 C814 0.961 . S
H828 C814 0.961 . S
H829 C815 0.958 . S
H830 C815 0.961 . S
H831 C815 0.960 . S
C832 C833 1.391 . S
C832 C834 1.394 . S
C832 H848 0.931 . S
C833 C832 1.391 . S
C833 C837 1.376 . S
C834 C832 1.394 . S
C834 C835 1.369 . S
C834 C838 1.531 . S
C835 C834 1.369 . S
C835 C836 1.410 . S
C835 C843 1.503 . S
C836 C835 1.410 . S
C836 C837 1.392 . S
C836 C839 1.511 . S
C837 C833 1.376 . S
C837 C836 1.392 . S
C837 H849 0.929 . S
C838 C834 1.531 . S
C838 H850 0.960 . S
C838 H851 0.962 . S
C838 H852 0.960 . S
C839 C836 1.511 . S
C839 H853 0.961 . S
C839 H854 0.961 . S
C839 H855 0.961 . S
C840 C841 1.370 . S
C840 C842 1.363 . S
C840 H856 0.931 . S
C841 C840 1.370 . S
C841 C845 1.408 . S
C842 C840 1.363 . S
C842 C843 1.370 . S
C842 C846 1.524 . S
C843 C835 1.503 . S
C843 C842 1.370 . S
C843 C844 1.403 . S
C844 C843 1.403 . S
C844 C845 1.404 . S
C844 C847 1.539 . S
C845 C841 1.408 . S
C845 C844 1.404 . S
C845 H857 0.930 . S
C846 C842 1.524 . S
C846 H858 0.956 . S
C846 H859 0.961 . S
C846 H860 0.961 . S
C847 C844 1.539 . S
C847 H861 0.958 . S
C847 H862 0.961 . S
C847 H863 0.960 . S
H848 C832 0.931 . S
H849 C837 0.929 . S
H850 C838 0.960 . S
H851 C838 0.962 . S
H852 C838 0.960 . S
H853 C839 0.961 . S
H854 C839 0.961 . S
H855 C839 0.961 . S
H856 C840 0.931 . S
H857 C845 0.930 . S
H858 C846 0.956 . S
H859 C846 0.961 . S
H860 C846 0.961 . S
H861 C847 0.958 . S
H862 C847 0.961 . S
H863 C847 0.960 . S
C864 C865 1.391 . S
C864 C866 1.394 . S
C864 H880 0.931 . S
C865 C864 1.391 . S
C865 C869 1.376 . S
C866 C864 1.394 . S
C866 C867 1.369 . S
C866 C870 1.531 . S
C867 C866 1.369 . S
C867 C868 1.410 . S
C867 C875 1.503 . S
C868 C867 1.410 . S
C868 C869 1.392 . S
C868 C871 1.511 . S
C869 C865 1.376 . S
C869 C868 1.392 . S
C869 H881 0.929 . S
C870 C866 1.531 . S
C870 H882 0.960 . S
C870 H883 0.962 . S
C870 H884 0.960 . S
C871 C868 1.511 . S
C871 H885 0.961 . S
C871 H886 0.961 . S
C871 H887 0.961 . S
C872 C873 1.370 . S
C872 C874 1.363 . S
C872 H888 0.931 . S
C873 C872 1.370 . S
C873 C877 1.408 . S
C874 C872 1.363 . S
C874 C875 1.370 . S
C874 C878 1.524 . S
C875 C867 1.503 . S
C875 C874 1.370 . S
C875 C876 1.403 . S
C876 C875 1.403 . S
C876 C877 1.404 . S
C876 C879 1.539 . S
C877 C873 1.408 . S
C877 C876 1.404 . S
C877 H889 0.930 . S
C878 C874 1.524 . S
C878 H890 0.956 . S
C878 H891 0.961 . S
C878 H892 0.961 . S
C879 C876 1.539 . S
C879 H893 0.958 . S
C879 H894 0.961 . S
C879 H895 0.960 . S
H880 C864 0.931 . S
H881 C869 0.929 . S
H882 C870 0.960 . S
H883 C870 0.962 . S
H884 C870 0.960 . S
H885 C871 0.961 . S
H886 C871 0.961 . S
H887 C871 0.961 . S
H888 C872 0.931 . S
H889 C877 0.930 . S
H890 C878 0.956 . S
H891 C878 0.961 . S
H892 C878 0.961 . S
H893 C879 0.958 . S
H894 C879 0.961 . S
H895 C879 0.960 . S
C896 C897 1.391 . S
C896 C898 1.394 . S
C896 H912 0.931 . S
C897 C896 1.391 . S
C897 C901 1.376 . S
C898 C896 1.394 . S
C898 C899 1.369 . S
C898 C902 1.531 . S
C899 C898 1.369 . S
C899 C900 1.410 . S
C899 C907 1.503 . S
C900 C899 1.410 . S
C900 C901 1.392 . S
C900 C903 1.511 . S
C901 C897 1.376 . S
C901 C900 1.392 . S
C901 H913 0.929 . S
C902 C898 1.531 . S
C902 H914 0.960 . S
C902 H915 0.962 . S
C902 H916 0.960 . S
C903 C900 1.511 . S
C903 H917 0.961 . S
C903 H918 0.961 . S
C903 H919 0.961 . S
C904 C905 1.370 . S
C904 C906 1.363 . S
C904 H920 0.931 . S
C905 C904 1.370 . S
C905 C909 1.408 . S
C906 C904 1.363 . S
C906 C907 1.370 . S
C906 C910 1.524 . S
C907 C899 1.503 . S
C907 C906 1.370 . S
C907 C908 1.403 . S
C908 C907 1.403 . S
C908 C909 1.404 . S
C908 C911 1.539 . S
C909 C905 1.408 . S
C909 C908 1.404 . S
C909 H921 0.930 . S
C910 C906 1.524 . S
C910 H922 0.956 . S
C910 H923 0.961 . S
C910 H924 0.961 . S
C911 C908 1.539 . S
C911 H925 0.958 . S
C911 H926 0.961 . S
C911 H927 0.960 . S
H912 C896 0.931 . S
H913 C901 0.929 . S
H914 C902 0.960 . S
H915 C902 0.962 . S
H916 C902 0.960 . S
H917 C903 0.961 . S
H918 C903 0.961 . S
H919 C903 0.961 . S
H920 C904 0.931 . S
H921 C909 0.930 . S
H922 C910 0.956 . S
H923 C910 0.961 . S
H924 C910 0.961 . S
H925 C911 0.958 . S
H926 C911 0.961 . S
H927 C911 0.960 . S
C928 C929 1.391 . S
C928 C930 1.394 . S
C928 H944 0.931 . S
C929 C928 1.391 . S
C929 C933 1.376 . S
C930 C928 1.394 . S
C930 C931 1.369 . S
C930 C934 1.531 . S
C931 C930 1.369 . S
C931 C932 1.410 . S
C931 C939 1.503 . S
C932 C931 1.410 . S
C932 C933 1.392 . S
C932 C935 1.511 . S
C933 C929 1.376 . S
C933 C932 1.392 . S
C933 H945 0.929 . S
C934 C930 1.531 . S
C934 H946 0.960 . S
C934 H947 0.962 . S
C934 H948 0.960 . S
C935 C932 1.511 . S
C935 H949 0.961 . S
C935 H950 0.961 . S
C935 H951 0.961 . S
C936 C937 1.370 . S
C936 C938 1.363 . S
C936 H952 0.931 . S
C937 C936 1.370 . S
C937 C941 1.408 . S
C938 C936 1.363 . S
C938 C939 1.370 . S
C938 C942 1.524 . S
C939 C931 1.503 . S
C939 C938 1.370 . S
C939 C940 1.403 . S
C940 C939 1.403 . S
C940 C941 1.404 . S
C940 C943 1.539 . S
C941 C937 1.408 . S
C941 C940 1.404 . S
C941 H953 0.930 . S
C942 C938 1.524 . S
C942 H954 0.956 . S
C942 H955 0.961 . S
C942 H956 0.961 . S
C943 C940 1.539 . S
C943 H957 0.958 . S
C943 H958 0.961 . S
C943 H959 0.960 . S
H944 C928 0.931 . S
H945 C933 0.929 . S
H946 C934 0.960 . S
H947 C934 0.962 . S
H948 C934 0.960 . S
H949 C935 0.961 . S
H950 C935 0.961 . S
H951 C935 0.961 . S
H952 C936 0.931 . S
H953 C941 0.930 . S
H954 C942 0.956 . S
H955 C942 0.961 . S
H956 C942 0.961 . S
H957 C943 0.958 . S
H958 C943 0.961 . S
H959 C943 0.960 . S
C960 C961 1.391 . S
C960 C962 1.394 . S
C960 H976 0.931 . S
C961 C960 1.391 . S
C961 C965 1.376 . S
C962 C960 1.394 . S
C962 C963 1.369 . S
C962 C966 1.531 . S
C963 C962 1.369 . S
C963 C964 1.410 . S
C963 C971 1.503 . S
C964 C963 1.410 . S
C964 C965 1.392 . S
C964 C967 1.511 . S
C965 C961 1.376 . S
C965 C964 1.392 . S
C965 H977 0.929 . S
C966 C962 1.531 . S
C966 H978 0.960 . S
C966 H979 0.962 . S
C966 H980 0.960 . S
C967 C964 1.511 . S
C967 H981 0.961 . S
C967 H982 0.961 . S
C967 H983 0.961 . S
C968 C969 1.370 . S
C968 C970 1.363 . S
C968 H984 0.931 . S
C969 C968 1.370 . S
C969 C973 1.408 . S
C970 C968 1.363 . S
C970 C971 1.370 . S
C970 C974 1.524 . S
C971 C963 1.503 . S
C971 C970 1.370 . S
C971 C972 1.403 . S
C972 C971 1.403 . S
C972 C973 1.404 . S
C972 C975 1.539 . S
C973 C969 1.408 . S
C973 C972 1.404 . S
C973 H985 0.930 . S
C974 C970 1.524 . S
C974 H986 0.956 . S
C974 H987 0.961 . S
C974 H988 0.961 . S
C975 C972 1.539 . S
C975 H989 0.958 . S
C975 H990 0.961 . S
C975 H991 0.960 . S
H976 C960 0.931 . S
H977 C965 0.929 . S
H978 C966 0.960 . S
H979 C966 0.962 . S
H980 C966 0.960 . S
H981 C967 0.961 . S
H982 C967 0.961 . S
H983 C967 0.961 . S
H984 C968 0.931 . S
H985 C973 0.930 . S
H986 C974 0.956 . S
H987 C974 0.961 . S
H988 C974 0.961 . S
H989 C975 0.958 . S
H990 C975 0.961 . S
H991 C975 0.960 . S
C992 C993 1.391 . S
C992 C994 1.394 . S
C992 H1008 0.931 . S
C993 C992 1.391 . S
C993 C997 1.376 . S
C994 C992 1.394 . S
C994 C995 1.369 . S
C994 C998 1.531 . S
C995 C994 1.369 . S
C995 C996 1.410 . S
C995 C1003 1.503 . S
C996 C995 1.410 . S
C996 C997 1.392 . S
C996 C999 1.511 . S
C997 C993 1.376 . S
C997 C996 1.392 . S
C997 H1009 0.929 . S
C998 C994 1.531 . S
C998 H1010 0.960 . S
C998 H1011 0.962 . S
C998 H1012 0.960 . S
C999 C996 1.511 . S
C999 H1013 0.961 . S
C999 H1014 0.961 . S
C999 H1015 0.961 . S
C1000 C1001 1.370 . S
C1000 C1002 1.363 . S
C1000 H1016 0.931 . S
C1001 C1000 1.370 . S
C1001 C1005 1.408 . S
C1002 C1000 1.363 . S
C1002 C1003 1.370 . S
C1002 C1006 1.524 . S
C1003 C995 1.503 . S
C1003 C1002 1.370 . S
C1003 C1004 1.403 . S
C1004 C1003 1.403 . S
C1004 C1005 1.404 . S
C1004 C1007 1.539 . S
C1005 C1001 1.408 . S
C1005 C1004 1.404 . S
C1005 H1017 0.930 . S
C1006 C1002 1.524 . S
C1006 H1018 0.956 . S
C1006 H1019 0.961 . S
C1006 H1020 0.961 . S
C1007 C1004 1.539 . S
C1007 H1021 0.958 . S
C1007 H1022 0.961 . S
C1007 H1023 0.960 . S
H1008 C992 0.931 . S
H1009 C997 0.929 . S
H1010 C998 0.960 . S
H1011 C998 0.962 . S
H1012 C998 0.960 . S
H1013 C999 0.961 . S
H1014 C999 0.961 . S
H1015 C999 0.961 . S
H1016 C1000 0.931 . S
H1017 C1005 0.930 . S
H1018 C1006 0.956 . S
H1019 C1006 0.961 . S
H1020 C1006 0.961 . S
H1021 C1007 0.958 . S
H1022 C1007 0.961 . S
H1023 C1007 0.960 . S
C1024 C1025 1.391 . S
C1024 C1026 1.394 . S
C1024 H1040 0.931 . S
C1025 C1024 1.391 . S
C1025 C1029 1.376 . S
C1026 C1024 1.394 . S
C1026 C1027 1.369 . S
C1026 C1030 1.531 . S
C1027 C1026 1.369 . S
C1027 C1028 1.410 . S
C1027 C1035 1.503 . S
C1028 C1027 1.410 . S
C1028 C1029 1.392 . S
C1028 C1031 1.511 . S
C1029 C1025 1.376 . S
C1029 C1028 1.392 . S
C1029 H1041 0.929 . S
C1030 C1026 1.531 . S
C1030 H1042 0.960 . S
C1030 H1043 0.962 . S
C1030 H1044 0.960 . S
C1031 C1028 1.511 . S
C1031 H1045 0.961 . S
C1031 H1046 0.961 . S
C1031 H1047 0.961 . S
C1032 C1033 1.370 . S
C1032 C1034 1.363 . S
C1032 H1048 0.931 . S
C1033 C1032 1.370 . S
C1033 C1037 1.408 . S
C1034 C1032 1.363 . S
C1034 C1035 1.370 . S
C1034 C1038 1.524 . S
C1035 C1027 1.503 . S
C1035 C1034 1.370 . S
C1035 C1036 1.403 . S
C1036 C1035 1.403 . S
C1036 C1037 1.404 . S
C1036 C1039 1.539 . S
C1037 C1033 1.408 . S
C1037 C1036 1.404 . S
C1037 H1049 0.930 . S
C1038 C1034 1.524 . S
C1038 H1050 0.956 . S
C1038 H1051 0.961 . S
C1038 H1052 0.961 . S
C1039 C1036 1.539 . S
C1039 H1053 0.958 . S
C1039 H1054 0.961 . S
C1039 H1055 0.960 . S
H1040 C1024 0.931 . S
H1041 C1029 0.929 . S
H1042 C1030 0.960 . S
H1043 C1030 0.962 . S
H1044 C1030 0.960 . S
H1045 C1031 0.961 . S
H1046 C1031 0.961 . S
H1047 C1031 0.961 . S
H1048 C1032 0.931 . S
H1049 C1037 0.930 . S
H1050 C1038 0.956 . S
H1051 C1038 0.961 . S
H1052 C1038 0.961 . S
H1053 C1039 0.958 . S
H1054 C1039 0.961 . S
H1055 C1039 0.960 . S
C1056 C1057 1.391 . S
C1056 C1058 1.394 . S
C1056 H1072 0.931 . S
C1057 C1056 1.391 . S
C1057 C1061 1.376 . S
C1058 C1056 1.394 . S
C1058 C1059 1.369 . S
C1058 C1062 1.531 . S
C1059 C1058 1.369 . S
C1059 C1060 1.410 . S
C1059 C1067 1.503 . S
C1060 C1059 1.410 . S
C1060 C1061 1.392 . S
C1060 C1063 1.511 . S
C1061 C1057 1.376 . S
C1061 C1060 1.392 . S
C1061 H1073 0.929 . S
C1062 C1058 1.531 . S
C1062 H1074 0.960 . S
C1062 H1075 0.962 . S
C1062 H1076 0.960 . S
C1063 C1060 1.511 . S
C1063 H1077 0.961 . S
C1063 H1078 0.961 . S
C1063 H1079 0.961 . S
C1064 C1065 1.370 . S
C1064 C1066 1.363 . S
C1064 H1080 0.931 . S
C1065 C1064 1.370 . S
C1065 C1069 1.408 . S
C1066 C1064 1.363 . S
C1066 C1067 1.370 . S
C1066 C1070 1.524 . S
C1067 C1059 1.503 . S
C1067 C1066 1.370 . S
C1067 C1068 1.403 . S
C1068 C1067 1.403 . S
C1068 C1069 1.404 . S
C1068 C1071 1.539 . S
C1069 C1065 1.408 . S
C1069 C1068 1.404 . S
C1069 H1081 0.930 . S
C1070 C1066 1.524 . S
C1070 H1082 0.956 . S
C1070 H1083 0.961 . S
C1070 H1084 0.961 . S
C1071 C1068 1.539 . S
C1071 H1085 0.958 . S
C1071 H1086 0.961 . S
C1071 H1087 0.960 . S
H1072 C1056 0.931 . S
H1073 C1061 0.929 . S
H1074 C1062 0.960 . S
H1075 C1062 0.962 . S
H1076 C1062 0.960 . S
H1077 C1063 0.961 . S
H1078 C1063 0.961 . S
H1079 C1063 0.961 . S
H1080 C1064 0.931 . S
H1081 C1069 0.930 . S
H1082 C1070 0.956 . S
H1083 C1070 0.961 . S
H1084 C1070 0.961 . S
H1085 C1071 0.958 . S
H1086 C1071 0.961 . S
H1087 C1071 0.960 . S
C1088 C1089 1.391 . S
C1088 C1090 1.394 . S
C1088 H1104 0.931 . S
C1089 C1088 1.391 . S
C1089 C1093 1.376 . S
C1090 C1088 1.394 . S
C1090 C1091 1.369 . S
C1090 C1094 1.531 . S
C1091 C1090 1.369 . S
C1091 C1092 1.410 . S
C1091 C1099 1.503 . S
C1092 C1091 1.410 . S
C1092 C1093 1.392 . S
C1092 C1095 1.511 . S
C1093 C1089 1.376 . S
C1093 C1092 1.392 . S
C1093 H1105 0.929 . S
C1094 C1090 1.531 . S
C1094 H1106 0.960 . S
C1094 H1107 0.962 . S
C1094 H1108 0.960 . S
C1095 C1092 1.511 . S
C1095 H1109 0.961 . S
C1095 H1110 0.961 . S
C1095 H1111 0.961 . S
C1096 C1097 1.370 . S
C1096 C1098 1.363 . S
C1096 H1112 0.931 . S
C1097 C1096 1.370 . S
C1097 C1101 1.408 . S
C1098 C1096 1.363 . S
C1098 C1099 1.370 . S
C1098 C1102 1.524 . S
C1099 C1091 1.503 . S
C1099 C1098 1.370 . S
C1099 C1100 1.403 . S
C1100 C1099 1.403 . S
C1100 C1101 1.404 . S
C1100 C1103 1.539 . S
C1101 C1097 1.408 . S
C1101 C1100 1.404 . S
C1101 H1113 0.930 . S
C1102 C1098 1.524 . S
C1102 H1114 0.956 . S
C1102 H1115 0.961 . S
C1102 H1116 0.961 . S
C1103 C1100 1.539 . S
C1103 H1117 0.958 . S
C1103 H1118 0.961 . S
C1103 H1119 0.960 . S
H1104 C1088 0.931 . S
H1105 C1093 0.929 . S
H1106 C1094 0.960 . S
H1107 C1094 0.962 . S
H1108 C1094 0.960 . S
H1109 C1095 0.961 . S
H1110 C1095 0.961 . S
H1111 C1095 0.961 . S
H1112 C1096 0.931 . S
H1113 C1101 0.930 . S
H1114 C1102 0.956 . S
H1115 C1102 0.961 . S
H1116 C1102 0.961 . S
H1117 C1103 0.958 . S
H1118 C1103 0.961 . S
H1119 C1103 0.960 . S
C1120 C1121 1.391 . S
C1120 C1122 1.394 . S
C1120 H1136 0.931 . S
C1121 C1120 1.391 . S
C1121 C1125 1.376 . S
C1122 C1120 1.394 . S
C1122 C1123 1.369 . S
C1122 C1126 1.531 . S
C1123 C1122 1.369 . S
C1123 C1124 1.410 . S
C1123 C1131 1.503 . S
C1124 C1123 1.410 . S
C1124 C1125 1.392 . S
C1124 C1127 1.511 . S
C1125 C1121 1.376 . S
C1125 C1124 1.392 . S
C1125 H1137 0.929 . S
C1126 C1122 1.531 . S
C1126 H1138 0.960 . S
C1126 H1139 0.962 . S
C1126 H1140 0.960 . S
C1127 C1124 1.511 . S
C1127 H1141 0.961 . S
C1127 H1142 0.961 . S
C1127 H1143 0.961 . S
C1128 C1129 1.370 . S
C1128 C1130 1.363 . S
C1128 H1144 0.931 . S
C1129 C1128 1.370 . S
C1129 C1133 1.408 . S
C1130 C1128 1.363 . S
C1130 C1131 1.370 . S
C1130 C1134 1.524 . S
C1131 C1123 1.503 . S
C1131 C1130 1.370 . S
C1131 C1132 1.403 . S
C1132 C1131 1.403 . S
C1132 C1133 1.404 . S
C1132 C1135 1.539 . S
C1133 C1129 1.408 . S
C1133 C1132 1.404 . S
C1133 H1145 0.930 . S
C1134 C1130 1.524 . S
C1134 H1146 0.956 . S
C1134 H1147 0.961 . S
C1134 H1148 0.961 . S
C1135 C1132 1.539 . S
C1135 H1149 0.958 . S
C1135 H1150 0.961 . S
C1135 H1151 0.960 . S
H1136 C1120 0.931 . S
H1137 C1125 0.929 . S
H1138 C1126 0.960 . S
H1139 C1126 0.962 . S
H1140 C1126 0.960 . S
H1141 C1127 0.961 . S
H1142 C1127 0.961 . S
H1143 C1127 0.961 . S
H1144 C1128 0.931 . S
H1145 C1133 0.930 . S
H1146 C1134 0.956 . S
H1147 C1134 0.961 . S
H1148 C1134 0.961 . S
H1149 C1135 0.958 . S
H1150 C1135 0.961 . S
H1151 C1135 0.960 . S
C1152 C1153 1.391 . S
C1152 C1154 1.394 . S
C1152 H1168 0.931 . S
C1153 C1152 1.391 . S
C1153 C1157 1.376 . S
C1154 C1152 1.394 . S
C1154 C1155 1.369 . S
C1154 C1158 1.531 . S
C1155 C1154 1.369 . S
C1155 C1156 1.410 . S
C1155 C1163 1.503 . S
C1156 C1155 1.410 . S
C1156 C1157 1.392 . S
C1156 C1159 1.511 . S
C1157 C1153 1.376 . S
C1157 C1156 1.392 . S
C1157 H1169 0.929 . S
C1158 C1154 1.531 . S
C1158 H1170 0.960 . S
C1158 H1171 0.962 . S
C1158 H1172 0.960 . S
C1159 C1156 1.511 . S
C1159 H1173 0.961 . S
C1159 H1174 0.961 . S
C1159 H1175 0.961 . S
C1160 C1161 1.370 . S
C1160 C1162 1.363 . S
C1160 H1176 0.931 . S
C1161 C1160 1.370 . S
C1161 C1165 1.408 . S
C1162 C1160 1.363 . S
C1162 C1163 1.370 . S
C1162 C1166 1.524 . S
C1163 C1155 1.503 . S
C1163 C1162 1.370 . S
C1163 C1164 1.403 . S
C1164 C1163 1.403 . S
C1164 C1165 1.404 . S
C1164 C1167 1.539 . S
C1165 C1161 1.408 . S
C1165 C1164 1.404 . S
C1165 H1177 0.930 . S
C1166 C1162 1.524 . S
C1166 H1178 0.956 . S
C1166 H1179 0.961 . S
C1166 H1180 0.961 . S
C1167 C1164 1.539 . S
C1167 H1181 0.958 . S
C1167 H1182 0.961 . S
C1167 H1183 0.960 . S
H1168 C1152 0.931 . S
H1169 C1157 0.929 . S
H1170 C1158 0.960 . S
H1171 C1158 0.962 . S
H1172 C1158 0.960 . S
H1173 C1159 0.961 . S
H1174 C1159 0.961 . S
H1175 C1159 0.961 . S
H1176 C1160 0.931 . S
H1177 C1165 0.930 . S
H1178 C1166 0.956 . S
H1179 C1166 0.961 . S
H1180 C1166 0.961 . S
H1181 C1167 0.958 . S
H1182 C1167 0.961 . S
H1183 C1167 0.960 . S
C417 C29 1.170 . S
C425 C262 1.194 . S
C449 C49 0.855 . S
C457 C311 0.912 . S
C489 C346 2.519 . S
C481 C93 2.523 . S
C513 C119 2.328 . S
C521 C385 2.306 . S
C553 C306 2.277 . S
C545 C17 2.242 . S
C585 C265 0.859 . S
C577 C61 0.872 . S
C617 C395 1.881 . S
C609 C81 1.905 . S
C649 C354 1.683 . S
C641 C125 1.667 . S
C673 C23 1.576 . S
C681 C382 1.585 . S
C713 C314 2.307 . S
C705 C87 2.335 . S
C737 C113 2.320 . S
C745 C275 2.364 . S
C769 C55 0.821 . S
C777 C351 0.854 . S
C809 C271 1.168 . S
C801 C157 1.104 . S
C833 C189 0.890 . S
C841 C302 0.948 . S
C865 C221 2.499 . S
C873 C355 2.480 . S
C897 C253 2.396 . S
C905 C394 2.392 . S
C929 C145 2.146 . S
C937 C315 2.362 . S
C969 C274 0.806 . S
C961 C183 0.741 . S
C1001 C386 1.930 . S
C993 C209 1.911 . S
C1033 C345 1.636 . S
C1025 C247 1.612 . S
C1057 C151 1.429 . S
C1065 C391 1.598 . S
C1097 C305 2.303 . S
C1089 C215 2.329 . S
C1129 C266 2.334 . S
C1121 C241 2.304 . S
C1153 C177 0.866 . S
C1161 C342 0.832 . S
