# Generated by pormake.
# Topology zzz, (3,6)-cn, num edge types: 1
# Building blocks:
#     Node 0, Type 0, BuildingBlock: CUQRIR_clean_linker_1, # of connection points: 3
#     Node 1, Type 0, BuildingBlock: CUQRIR_clean_linker_1, # of connection points: 3
#     Node 2, Type 0, BuildingBlock: CUQRIR_clean_linker_1, # of connection points: 3
#     Node 3, Type 0, BuildingBlock: CUQRIR_clean_linker_1, # of connection points: 3
#     Node 4, Type 0, BuildingBlock: CUQRIR_clean_linker_1, # of connection points: 3
#     Node 5, Type 0, BuildingBlock: CUQRIR_clean_linker_1, # of connection points: 3
#     Node 6, Type 0, BuildingBlock: CUQRIR_clean_linker_1, # of connection points: 3
#     Node 7, Type 0, BuildingBlock: CUQRIR_clean_linker_1, # of connection points: 3
#     Node 8, Type 1, BuildingBlock: GEDQOX_clean_sbu_0, # of connection points: 6
#     Node 9, Type 1, BuildingBlock: GEDQOX_clean_sbu_0, # of connection points: 6
#     Node 10, Type 1, BuildingBlock: GEDQOX_clean_sbu_0, # of connection points: 6
#     Node 11, Type 1, BuildingBlock: GEDQOX_clean_sbu_0, # of connection points: 6
#     Edge 12, Type (0, 1), BuildingBlock: XUDNAN_clean_linker_2, # of connection points: 2
#     Edge 13, Type (0, 1), BuildingBlock: XUDNAN_clean_linker_2, # of connection points: 2
#     Edge 14, Type (0, 1), BuildingBlock: XUDNAN_clean_linker_2, # of connection points: 2
#     Edge 15, Type (0, 1), BuildingBlock: XUDNAN_clean_linker_2, # of connection points: 2
#     Edge 16, Type (0, 1), BuildingBlock: XUDNAN_clean_linker_2, # of connection points: 2
#     Edge 17, Type (0, 1), BuildingBlock: XUDNAN_clean_linker_2, # of connection points: 2
#     Edge 18, Type (0, 1), BuildingBlock: XUDNAN_clean_linker_2, # of connection points: 2
#     Edge 19, Type (0, 1), BuildingBlock: XUDNAN_clean_linker_2, # of connection points: 2
#     Edge 20, Type (0, 1), BuildingBlock: XUDNAN_clean_linker_2, # of connection points: 2
#     Edge 21, Type (0, 1), BuildingBlock: XUDNAN_clean_linker_2, # of connection points: 2
#     Edge 22, Type (0, 1), BuildingBlock: XUDNAN_clean_linker_2, # of connection points: 2
#     Edge 23, Type (0, 1), BuildingBlock: XUDNAN_clean_linker_2, # of connection points: 2
#     Edge 24, Type (0, 1), BuildingBlock: XUDNAN_clean_linker_2, # of connection points: 2
#     Edge 25, Type (0, 1), BuildingBlock: XUDNAN_clean_linker_2, # of connection points: 2
#     Edge 26, Type (0, 1), BuildingBlock: XUDNAN_clean_linker_2, # of connection points: 2
#     Edge 27, Type (0, 1), BuildingBlock: XUDNAN_clean_linker_2, # of connection points: 2
#     Edge 28, Type (0, 1), BuildingBlock: XUDNAN_clean_linker_2, # of connection points: 2
#     Edge 29, Type (0, 1), BuildingBlock: XUDNAN_clean_linker_2, # of connection points: 2
#     Edge 30, Type (0, 1), BuildingBlock: XUDNAN_clean_linker_2, # of connection points: 2
#     Edge 31, Type (0, 1), BuildingBlock: XUDNAN_clean_linker_2, # of connection points: 2
#     Edge 32, Type (0, 1), BuildingBlock: XUDNAN_clean_linker_2, # of connection points: 2
#     Edge 33, Type (0, 1), BuildingBlock: XUDNAN_clean_linker_2, # of connection points: 2
#     Edge 34, Type (0, 1), BuildingBlock: XUDNAN_clean_linker_2, # of connection points: 2
#     Edge 35, Type (0, 1), BuildingBlock: XUDNAN_clean_linker_2, # of connection points: 2
# Relax obj value: 0.125
# Max RMSD: 0.190
# Mean RMSD: 0.088
data_MOF--net-zzz--node1-GEDQOX_clean_sbu_0--node2-CUQRIR_clean_linker_1--edge1-XUDNAN_clean_linker_2
_symmetry_space_group_name_H-M    P1
_symmetry_Int_Tables_number       1
_symmetry_cell_setting            triclinic
loop_
_symmetry_equiv_pos_as_xyz
'x, y, z'
_cell_length_a     51.387196
_cell_length_b     50.07053
_cell_length_c     15.704099
_cell_angle_alpha  78.670284
_cell_angle_beta   89.258558
_cell_angle_gamma 100.33809
loop_
_atom_site_label
_atom_site_type_symbol
_atom_site_fract_x
_atom_site_fract_y
_atom_site_fract_z
_atom_type_partial_charge
C0 C 0.76441 0.53189 0.24472 0.0
N1 N 0.79074 0.53405 0.22887 0.0
N2 N 0.75103 0.53023 0.17123 0.0
C3 C 0.752 0.53276 0.33111 0.0
C4 C 0.77045 0.53136 0.11024 0.0
N5 N 0.79458 0.53358 0.14545 0.0
C6 C 0.7656 0.52813 0.01832 0.0
H7 H 0.74723 0.51139 0.37064 0.0
H8 H 0.73348 0.54125 0.32264 0.0
H9 H 0.76596 0.54554 0.36711 0.0
H10 H 0.76547 0.54883 0.9772 0.0
H11 H 0.74613 0.51471 0.01473 0.0
H12 H 0.78143 0.51914 0.99197 0.0
C13 C 0.03025 0.75791 0.34399 0.0
N14 N 0.03112 0.78473 0.35139 0.0
N15 N 0.03484 0.7562 0.25953 0.0
C16 C 0.02289 0.73334 0.41758 0.0
C17 C 0.03852 0.78307 0.21649 0.0
N18 N 0.03612 0.80019 0.27179 0.0
C19 C 0.04289 0.79251 0.11944 0.0
H20 H 0.0345 0.71711 0.41194 0.0
H21 H 1.00163 0.72431 0.41478 0.0
H22 H 0.02618 0.73942 0.48136 0.0
H23 H 0.05135 0.7773 0.09021 0.0
H24 H 0.05647 0.81283 0.1027 0.0
H25 H 0.02366 0.79503 0.0906 0.0
C26 C 0.78265 0.99697 0.16949 0.0
N27 N 0.75737 0.99845 0.1495 0.0
N28 N 0.79959 0.01063 0.1016 0.0
C29 C 0.79095 0.98409 0.25695 0.0
C30 C 0.78371 0.0211 0.04079 0.0
N31 N 0.7581 0.01352 0.06967 0.0
C32 C 0.79345 0.04165 0.95846 0.0
H33 H 0.79314 0.99968 0.29903 0.0
H34 H 0.81027 0.97749 0.25092 0.0
H35 H 0.77569 0.96609 0.28829 0.0
H36 H 0.81172 0.03694 0.9311 0.0
H37 H 0.79826 0.06268 0.97353 0.0
H38 H 0.77805 0.04162 0.90956 0.0
C39 C 0.52417 0.79541 0.49055 0.0
N40 N 0.51764 0.76734 0.51614 0.0
N41 N 0.51014 0.80459 0.42113 0.0
C42 C 0.54328 0.81384 0.53497 0.0
C43 C 0.49524 0.781 0.40521 0.0
N44 N 0.49961 0.75868 0.46297 0.0
C45 C 0.47826 0.7794 0.3282 0.0
H46 H 0.53726 0.83426 0.5305 0.0
H47 H 0.56318 0.81732 0.50203 0.0
H48 H 0.54459 0.80403 0.6042 0.0
H49 H 0.4782 0.75972 0.3057 0.0
H50 H 0.48535 0.79702 0.27335 0.0
H51 H 0.45759 0.78001 0.34773 0.0
C52 C 0.29316 0.51648 0.66428 0.0
N53 N 0.26818 0.52064 0.67712 0.0
N54 N 0.31038 0.53097 0.7111 0.0
C55 C 0.30104 0.49978 0.60191 0.0
C56 C 0.29486 0.54428 0.75225 0.0
N57 N 0.26924 0.53801 0.73147 0.0
C58 C 0.30488 0.56421 0.80966 0.0
H59 H 0.28547 0.48137 0.6013 0.0
H60 H 0.32006 0.49302 0.61893 0.0
H61 H 0.30348 0.51283 0.53545 0.0
H62 H 0.31065 0.5853 0.76878 0.0
H63 H 0.32257 0.55863 0.84332 0.0
H64 H 0.28925 0.56467 0.85847 0.0
C65 C 0.03908 0.3339 0.55248 0.0
N66 N 0.0413 0.30747 0.54857 0.0
N67 N 0.03534 0.33647 0.63648 0.0
C68 C 0.03926 0.35675 0.47458 0.0
C69 C 0.03568 0.31062 0.68306 0.0
N70 N 0.03924 0.2932 0.62997 0.0
C71 C 0.03472 0.30286 0.78078 0.0
H72 H 0.05974 0.36871 0.46051 0.0
H73 H 0.02623 0.37109 0.4875 0.0
H74 H 0.03277 0.34821 0.41665 0.0
H75 H 0.01389 0.29456 0.80497 0.0
H76 H 0.04232 0.32114 0.80946 0.0
H77 H 0.04653 0.28652 0.80293 0.0
C78 C 0.27654 0.09263 0.63728 0.0
N79 N 0.29965 0.08371 0.62903 0.0
N80 N 0.26354 0.07955 0.71422 0.0
C81 C 0.26612 0.11312 0.56934 0.0
C82 C 0.27946 0.06223 0.75166 0.0
N83 N 0.30121 0.06471 0.69979 0.0
C84 C 0.27349 0.04232 0.83771 0.0
H85 H 0.28242 0.12869 0.53207 0.0
H86 H 0.25247 0.12387 0.5994 0.0
H87 H 0.25504 0.10183 0.52296 0.0
H88 H 0.2519 0.03422 0.84845 0.0
H89 H 0.28017 0.05338 0.89049 0.0
H90 H 0.28405 0.02468 0.84149 0.0
C91 C 0.52921 0.26254 0.3109 0.0
N92 N 0.53445 0.29067 0.2972 0.0
N93 N 0.537 0.25129 0.39038 0.0
C94 C 0.51592 0.24602 0.24841 0.0
C95 C 0.54653 0.27361 0.4251 0.0
N96 N 0.54497 0.29738 0.36874 0.0
C97 C 0.55461 0.27227 0.51744 0.0
H98 H 0.49419 0.24205 0.26233 0.0
H99 H 0.52244 0.22574 0.25642 0.0
H100 H 0.52025 0.25763 0.1804 0.0
H101 H 0.57642 0.27878 0.51713 0.0
H102 H 0.54893 0.25111 0.55778 0.0
H103 H 0.54549 0.28689 0.54748 0.0
Nd104 Nd 0.02138 0.03057 0.87919 0.0
Nd105 Nd 0.04684 0.06345 0.02507 0.0
C106 C 0.99553 0.99581 0.78691 0.0
C107 C 0.9978 0.96955 0.75875 0.0
C108 C 0.97545 0.95401 0.72951 0.0
C109 C 0.9772 0.9298 0.69906 0.0
C110 C 1.00141 0.92031 0.69698 0.0
C111 C 0.02382 0.93594 0.72685 0.0
C112 C 0.02203 0.96022 0.75748 0.0
C113 C 0.07539 0.04741 0.86668 0.0
C114 C 0.03623 0.99601 0.06958 0.0
C115 C 0.077 0.09661 0.11189 0.0
C116 C 0.0745 0.12194 0.14508 0.0
C117 C 0.09684 0.13778 0.17327 0.0
C118 C 0.09483 0.16184 0.20431 0.0
C119 C 0.07037 0.17073 0.20809 0.0
C120 C 0.04796 0.15467 0.17992 0.0
C121 C 0.05003 0.13065 0.14851 0.0
C122 C 0.99237 0.05925 0.03222 0.0
C123 C 0.03075 0.09633 0.83852 0.0
O124 O 0.98985 0.99442 0.86938 0.0
O125 O 0.0131 0.0178 0.75317 0.0
O126 O 0.06101 0.04531 0.80038 0.0
O127 O 0.06164 0.03838 0.93681 0.0
O128 O 0.02387 0.99593 0.99637 0.0
O129 O 0.04877 0.01878 0.0929 0.0
O130 O 0.07918 0.09935 0.02718 0.0
O131 O 0.06136 0.0735 0.14967 0.0
O132 O 0.00814 0.07094 0.08304 0.0
O133 O 0.0057 0.05008 0.98058 0.0
O134 O 0.04887 0.09501 0.89722 0.0
O135 O 0.01318 0.07441 0.82913 0.0
H136 H 0.95659 0.96081 0.72917 0.0
H137 H 0.95956 0.91882 0.67542 0.0
H138 H 0.04275 0.9293 0.72733 0.0
H139 H 0.0396 0.9718 0.77973 0.0
H140 H 0.11592 0.13151 0.17142 0.0
H141 H 0.11248 0.1733 0.22645 0.0
H142 H 0.02886 0.16091 0.18079 0.0
H143 H 0.03249 0.11894 0.12659 0.0
Nd144 Nd 0.53079 0.01352 0.82312 0.0
Nd145 Nd 0.52374 0.03986 0.97034 0.0
C146 C 0.53727 0.98218 0.70992 0.0
C147 C 0.55847 0.98109 0.64731 0.0
C148 C 0.56098 0.95561 0.62713 0.0
C149 C 0.58152 0.95395 0.57023 0.0
C150 C 0.59999 0.97782 0.53197 0.0
C151 C 0.59742 1.00336 0.55285 0.0
C152 C 0.57693 1.00495 0.61023 0.0
C153 C 0.53655 0.07076 0.77338 0.0
C154 C 0.58257 0.04034 0.91022 0.0
C155 C 0.51025 0.06414 0.09569 0.0
C156 C 0.48717 0.07181 0.136 0.0
C157 C 0.47633 0.09499 0.09817 0.0
C158 C 0.45496 0.1019 0.14038 0.0
C159 C 0.44403 0.08565 0.22066 0.0
C160 C 0.45503 0.06263 0.25817 0.0
C161 C 0.47637 0.05591 0.21666 0.0
C162 C 0.53037 0.98511 0.01934 0.0
C163 C 0.47081 0.01734 0.87272 0.0
O164 O 0.54244 0.97584 0.792 0.0
O165 O 0.52527 1.00345 0.69245 0.0
O166 O 0.55224 0.05632 0.74599 0.0
O167 O 0.51925 0.05499 0.82686 0.0
O168 O 0.57165 0.01849 0.8798 0.0
O169 O 0.56775 0.05653 0.93536 0.0
O170 O 0.52015 0.07813 0.01923 0.0
O171 O 0.51002 0.03763 0.10532 0.0
O172 O 0.5438 1.00557 0.04848 0.0
O173 O 0.51559 0.99437 0.96152 0.0
O174 O 0.48105 0.03274 0.9275 0.0
O175 O 0.48554 1.00516 0.82899 0.0
H176 H 0.54715 0.9369 0.65602 0.0
H177 H 0.5831 0.93384 0.55718 0.0
H178 H 0.61104 0.02222 0.52404 0.0
H179 H 0.57551 0.02482 0.62568 0.0
H180 H 0.48436 0.1078 0.0364 0.0
H181 H 0.44685 0.11976 0.10997 0.0
H182 H 0.44743 0.05003 0.32073 0.0
H183 H 0.48458 0.03824 0.24828 0.0
Nd184 Nd 0.51288 0.53201 0.98694 0.0
Nd185 Nd 0.55153 0.53256 0.84891 0.0
C186 C 0.4739 0.53739 0.09062 0.0
C187 C 0.47068 0.55178 0.16199 0.0
C188 C 0.44954 0.56592 0.16271 0.0
C189 C 0.44727 0.58154 0.226 0.0
C190 C 0.46608 0.58317 0.29002 0.0
C191 C 0.48658 0.5679 0.29134 0.0
C192 C 0.48897 0.55248 0.22758 0.0
C193 C 0.56349 0.53112 0.04575 0.0
C194 C 0.54159 0.59162 0.86674 0.0
C195 C 0.58986 0.52597 0.7449 0.0
C196 C 0.59161 0.50859 0.67986 0.0
C197 C 0.59944 0.48278 0.70403 0.0
C198 C 0.597 0.4644 0.64706 0.0
C199 C 0.58679 0.47159 0.56485 0.0
C200 C 0.58112 0.49827 0.53797 0.0
C201 C 0.58358 0.51666 0.59482 0.0
C202 C 0.50051 0.53269 0.79205 0.0
C203 C 0.52253 0.47288 0.96505 0.0
O204 O 0.47997 0.55306 0.01356 0.0
O205 O 0.487 0.51707 0.1066 0.0
O206 O 0.54192 0.51778 0.08868 0.0
O207 O 0.55814 0.54614 0.97624 0.0
O208 O 0.51921 0.57744 0.90768 0.0
O209 O 0.5609 0.57857 0.85389 0.0
O210 O 0.58583 0.51308 0.82617 0.0
O211 O 0.5758 0.54542 0.72534 0.0
O212 O 0.52178 0.54625 0.74767 0.0
O213 O 0.50644 0.518 0.86107 0.0
O214 O 0.54508 0.48708 0.9259 0.0
O215 O 0.50329 0.486 0.97866 0.0
H216 H 0.43524 0.56559 0.1126 0.0
H217 H 0.4315 0.59341 0.22203 0.0
H218 H 0.50123 0.5685 0.34026 0.0
H219 H 0.50546 0.54167 0.22845 0.0
H220 H 0.60615 0.47619 0.76857 0.0
H221 H 0.60143 0.44391 0.66964 0.0
H222 H 0.57362 0.50446 0.47435 0.0
H223 H 0.57799 0.53667 0.57339 0.0
Nd224 Nd 0.03467 0.56546 0.8401 0.0
Nd225 Nd 0.03905 0.5318 0.02245 0.0
C226 C 0.01911 0.59487 0.69731 0.0
C227 C 0.99667 0.58771 0.64257 0.0
C228 C 0.97976 0.60654 0.61525 0.0
C229 C 0.95672 0.59855 0.57231 0.0
C230 C 0.95013 0.5715 0.55625 0.0
C231 C 0.96769 0.5531 0.58097 0.0
C232 C 0.99053 0.56101 0.62404 0.0
C233 C 0.03742 0.51055 0.84386 0.0
C234 C 0.97998 0.53988 0.96593 0.0
C235 C 0.04953 0.49339 0.1525 0.0
C236 C 0.06879 0.49216 0.22205 0.0
C237 C 0.08119 0.4691 0.24246 0.0
C238 C 0.10052 0.46811 0.30452 0.0
C239 C 0.10793 0.49019 0.34807 0.0
C240 C 0.09512 0.51314 0.32828 0.0
C241 C 0.07585 0.51416 0.2658 0.0
C242 C 0.04577 0.58717 0.03715 0.0
C243 C 0.09238 0.56274 0.89813 0.0
O244 O 0.01263 0.59766 0.77535 0.0
O245 O 0.0384 0.58103 0.69721 0.0
O246 O 0.04972 0.53132 0.78659 0.0
O247 O 0.02384 0.51899 0.89784 0.0
O248 O 0.99183 0.55556 0.8937 0.0
O249 O 0.99326 0.52601 0.02539 0.0
O250 O 0.05944 0.49679 0.07304 0.0
O251 O 0.03096 0.5079 0.15787 0.0
O252 O 0.04739 0.56688 0.10071 0.0
O253 O 0.04191 0.57792 0.96817 0.0
O254 O 0.08068 0.54026 0.95376 0.0
O255 O 0.07848 0.58061 0.85722 0.0
H256 H 0.98394 0.62714 0.62952 0.0
H257 H 0.94358 0.6132 0.55481 0.0
H258 H 0.96358 0.5323 0.56828 0.0
H259 H 1.00303 0.54591 0.64484 0.0
H260 H 0.07624 0.45198 0.20916 0.0
H261 H 0.11017 0.4503 0.31648 0.0
H262 H 0.09997 0.53039 0.361 0.0
H263 H 0.0667 0.5323 0.25114 0.0
H264 H 0.21775 0.07279 0.63189 0.0
H265 H 0.25141 0.08968 0.87118 0.0
H266 H 0.20636 0.08582 0.93632 0.0
H267 H 0.16226 0.11135 0.64032 0.0
H268 H 0.13994 0.08654 0.59414 0.0
H269 H 0.1749 0.09321 0.56523 0.0
H270 H 0.17551 0.04076 0.61352 0.0
H271 H 0.14072 0.03397 0.64372 0.0
H272 H 0.16391 0.02321 0.7225 0.0
H273 H 0.15747 0.07401 0.98025 0.0
H274 H 0.10857 0.05977 0.99466 0.0
H275 H 0.10743 0.05422 0.72259 0.0
C276 C 0.21557 0.07658 0.69689 0.0
C277 C 0.23783 0.08151 0.74686 0.0
C278 C 0.2344 0.08568 0.83253 0.0
C279 C 0.20898 0.08362 0.86972 0.0
C280 C 0.1873 0.07791 0.81953 0.0
C281 C 0.19038 0.07501 0.73435 0.0
C282 C 0.16391 0.06792 0.69537 0.0
C283 C 0.16003 0.09114 0.61927 0.0
C284 C 0.16085 0.0398 0.66717 0.0
C285 C 0.14547 0.06643 0.77266 0.0
C286 C 0.15926 0.07222 0.84381 0.0
C287 C 0.14641 0.07003 0.92444 0.0
C288 C 0.11872 0.06186 0.93219 0.0
C289 C 0.10435 0.05629 0.8595 0.0
C290 C 0.11793 0.05881 0.77888 0.0
H291 H 0.5723 0.21744 0.43747 0.0
H292 H 0.48916 0.22188 0.45209 0.0
H293 H 0.4799 0.17601 0.55287 0.0
H294 H 0.56229 0.14177 0.44405 0.0
H295 H 0.5907 0.13755 0.50795 0.0
H296 H 0.59024 0.16989 0.43398 0.0
H297 H 0.59954 0.19591 0.56069 0.0
H298 H 0.59961 0.16364 0.63534 0.0
H299 H 0.57757 0.18606 0.65658 0.0
H300 H 0.48071 0.13208 0.66362 0.0
H301 H 0.49001 0.08995 0.75994 0.0
H302 H 0.57241 0.11181 0.66662 0.0
C303 C 0.55211 0.20825 0.46039 0.0
C304 C 0.53127 0.2228 0.43646 0.0
C305 C 0.50515 0.21067 0.46876 0.0
C306 C 0.49984 0.18481 0.52645 0.0
C307 C 0.52088 0.17119 0.55045 0.0
C308 C 0.54642 0.18219 0.517 0.0
C309 C 0.56543 0.16327 0.55345 0.0
C310 C 0.5779 0.15248 0.48051 0.0
C311 C 0.5868 0.17811 0.60454 0.0
C312 C 0.54669 0.14011 0.61358 0.0
C313 C 0.52114 0.1453 0.61159 0.0
C314 C 0.50057 0.12764 0.66464 0.0
C315 C 0.5061 0.10382 0.71968 0.0
C316 C 0.53192 0.09747 0.72059 0.0
C317 C 0.55246 0.11601 0.66691 0.0
H318 H 0.34135 0.51229 0.84064 0.0
H319 H 0.3437 0.55687 0.57436 0.0
H320 H 0.39271 0.56234 0.56611 0.0
H321 H 0.40189 0.55249 0.9031 0.0
H322 H 0.41207 0.523 0.97028 0.0
H323 H 0.37738 0.52325 0.95581 0.0
H324 H 0.37235 0.47707 0.90145 0.0
H325 H 0.40703 0.47671 0.91559 0.0
H326 H 0.39336 0.47476 0.81137 0.0
H327 H 0.44144 0.56325 0.58759 0.0
H328 H 0.48631 0.55848 0.63501 0.0
H329 H 0.4529 0.51189 0.8871 0.0
C330 C 0.35235 0.52333 0.78106 0.0
C331 C 0.33895 0.53438 0.70805 0.0
C332 C 0.35377 0.54841 0.63067 0.0
C333 C 0.38153 0.55158 0.62563 0.0
C334 C 0.39424 0.54043 0.69859 0.0
C335 C 0.38016 0.52651 0.77488 0.0
C336 C 0.3987 0.51607 0.84316 0.0
C337 C 0.39743 0.52951 0.9228 0.0
C338 C 0.39248 0.48426 0.86942 0.0
C339 C 0.42535 0.52615 0.79333 0.0
C340 C 0.42229 0.54033 0.71024 0.0
C341 C 0.44401 0.55204 0.65234 0.0
C342 C 0.46946 0.5492 0.67989 0.0
C343 C 0.47316 0.53457 0.76441 0.0
C344 C 0.45071 0.52289 0.82174 0.0
H345 H 0.0649 0.38919 0.60439 0.0
H346 H 0.99496 0.3376 0.74626 0.0
H347 H 0.98866 0.37578 0.81849 0.0
H348 H 0.08921 0.42415 0.77317 0.0
H349 H 0.09995 0.45758 0.70294 0.0
H350 H 0.09897 0.42648 0.66083 0.0
H351 H 0.06862 0.4437 0.5401 0.0
H352 H 0.06994 0.47507 0.58099 0.0
H353 H 0.03838 0.45394 0.56941 0.0
H354 H 0.99114 0.41891 0.88167 0.0
H355 H 0.99956 0.46548 0.91888 0.0
H356 H 0.06657 0.4904 0.73165 0.0
C357 C 0.04806 0.38617 0.64962 0.0
C358 C 0.03053 0.36023 0.67045 0.0
C359 C 0.00882 0.35708 0.73046 0.0
C360 C 0.00508 0.37869 0.7717 0.0
C361 C 0.02303 0.40372 0.75169 0.0
C362 C 0.04387 0.40779 0.69097 0.0
C363 C 0.06002 0.43697 0.68059 0.0
C364 C 0.08873 0.43623 0.70593 0.0
C365 C 0.05917 0.45339 0.58725 0.0
C366 C 0.04511 0.44847 0.74544 0.0
C367 C 0.02395 0.42887 0.7862 0.0
C368 C 0.00755 0.43449 0.84968 0.0
C369 C 0.01254 0.46096 0.87088 0.0
C370 C 0.03363 0.48166 0.82829 0.0
C371 C 0.05021 0.47507 0.76534 0.0
H372 H 0.83823 0.99323 0.02014 0.0
H373 H 0.82333 0.04944 0.18417 0.0
H374 H 0.87127 0.06931 0.1769 0.0
H375 H 0.90064 0.98011 0.11378 0.0
H376 H 0.91596 0.97845 0.0115 0.0
H377 H 0.88055 0.96863 0.02992 0.0
H378 H 0.87437 1.00414 0.89113 0.0
H379 H 0.90978 0.01432 0.87294 0.0
H380 H 0.88984 0.03999 0.88078 0.0
H381 H 0.91932 0.08363 0.14951 0.0
H382 H 0.967 0.08951 0.11583 0.0
H383 H 0.95263 0.02342 0.97026 0.0
C384 C 0.84537 1.00949 0.05507 0.0
C385 C 0.82757 0.01989 0.10341 0.0
C386 C 0.83705 0.04126 0.14795 0.0
C387 C 0.86405 0.05269 0.14354 0.0
C388 C 0.88118 0.0423 0.0945 0.0
C389 C 0.87242 0.02097 0.05189 0.0
C390 C 0.89536 0.01343 1.00542 0.0
C391 C 0.8983 0.98337 0.04238 0.0
C392 C 0.89214 0.01827 0.9067 0.0
C393 C 0.91834 0.03398 0.02839 0.0
C394 C 0.90946 0.05048 0.07931 0.0
C395 C 0.92657 0.07082 0.11003 0.0
C396 C 0.95362 0.07398 0.09037 0.0
C397 C 0.96344 0.05688 0.04062 0.0
C398 C 0.94556 0.0369 0.00775 0.0
H399 H 0.55171 0.84551 0.3461 0.0
H400 H 0.46647 0.82681 0.39189 0.0
H401 H 0.46269 0.87035 0.29145 0.0
H402 H 0.55705 0.92168 0.33498 0.0
H403 H 0.58361 0.9309 0.25247 0.0
H404 H 0.58003 0.89864 0.33034 0.0
H405 H 0.57852 0.87202 0.20452 0.0
H406 H 0.58185 0.90412 0.12618 0.0
H407 H 0.55422 0.87648 0.12363 0.0
H408 H 0.46735 0.91233 0.17292 0.0
H409 H 0.48072 0.95594 0.06489 0.0
H410 H 0.56337 0.95186 0.10525 0.0
C411 C 0.53239 0.85104 0.33652 0.0
C412 C 0.50926 0.83255 0.37574 0.0
C413 C 0.48431 0.84044 0.36133 0.0
C414 C 0.48198 0.8651 0.30432 0.0
C415 C 0.50491 0.88227 0.26358 0.0
C416 C 0.52974 0.87614 0.28084 0.0
C417 C 0.55111 0.89883 0.22912 0.0
C418 C 0.56901 0.91336 0.29039 0.0
C419 C 0.56738 0.88715 0.1672 0.0
C420 C 0.53431 0.91815 0.17888 0.0
C421 C 0.5077 0.90784 0.19905 0.0
C422 C 0.48814 0.92089 0.15772 0.0
C423 C 0.49592 0.94553 0.09579 0.0
C424 C 0.52303 0.95729 0.07675 0.0
C425 C 0.54249 0.94334 0.11885 0.0
H426 H 0.72333 0.55956 0.05055 0.0
H427 H 0.71436 0.49086 0.27122 0.0
H428 H 0.66571 0.48401 0.26219 0.0
H429 H 0.66647 0.5869 0.10198 0.0
H430 H 0.65706 0.59562 0.99121 0.0
H431 H 0.69127 0.59515 0.01387 0.0
H432 H 0.69285 0.56035 0.91266 0.0
H433 H 0.65866 0.56082 0.88938 0.0
H434 H 0.66901 0.52839 0.9311 0.0
H435 H 0.61831 0.48534 0.23287 0.0
H436 H 0.57474 0.49333 0.18195 0.0
H437 H 0.61301 0.56018 0.97486 0.0
C438 C 0.71104 0.54295 0.09627 0.0
C439 C 0.7226 0.52588 0.16243 0.0
C440 C 0.7059 0.50445 0.22133 0.0
C441 C 0.67827 0.50033 0.21628 0.0
C442 C 0.66747 0.51766 0.15123 0.0
C443 C 0.68326 0.53842 0.09167 0.0
C444 C 0.66633 0.554 0.02808 0.0
C445 C 0.67054 0.58474 0.03418 0.0
C446 C 0.67206 0.55069 0.93477 0.0
C447 C 0.63861 0.53895 0.06188 0.0
C448 C 0.63987 0.51809 0.13307 0.0
C449 C 0.6171 0.50154 0.177 0.0
C450 C 0.59238 0.50633 0.1476 0.0
C451 C 0.59036 0.52742 0.07452 0.0
C452 C 0.61389 0.5439 0.03088 0.0
H453 H 0.06154 0.71266 0.29525 0.0
H454 H 1.00177 0.74446 0.13399 0.0
H455 H 1.00027 0.70663 0.05285 0.0
H456 H 0.09594 0.68846 0.13652 0.0
H457 H 0.1007 0.65691 0.20737 0.0
H458 H 0.09771 0.68679 0.25199 0.0
H459 H 0.05868 0.65795 0.35556 0.0
H460 H 0.06188 0.62785 0.31235 0.0
H461 H 0.03053 0.63927 0.31115 0.0
H462 H 0.00767 0.66674 0.98188 0.0
H463 H 0.01719 0.62342 0.94474 0.0
H464 H 0.06796 0.61394 0.16268 0.0
C465 C 0.04771 0.71128 0.24423 0.0
C466 C 0.03193 0.73182 0.22046 0.0
C467 C 0.01437 0.72933 0.15231 0.0
C468 C 0.01339 0.70787 0.10586 0.0
C469 C 0.02962 0.68837 0.12938 0.0
C470 C 0.04592 0.6894 0.19858 0.0
C471 C 0.06028 0.66494 0.21325 0.0
C472 C 0.09045 0.67488 0.20158 0.0
C473 C 0.05236 0.6464 0.30342 0.0
C474 C 0.04981 0.65028 0.14096 0.0
C475 C 0.0325 0.66442 0.09226 0.0
C476 C 0.02099 0.65538 0.02023 0.0
C477 C 0.0267 0.63088 0.99897 0.0
C478 C 0.04335 0.61533 0.05046 0.0
C479 C 0.05517 0.62541 0.12192 0.0
H480 H 0.00386 0.25028 0.72306 0.0
H481 H 0.08179 0.27236 0.59321 0.0
H482 H 0.08546 0.22285 0.61871 0.0
H483 H 0.02067 0.19513 0.89106 0.0
H484 H 0.98835 0.17361 0.89594 0.0
H485 H 0.99197 0.21074 0.8658 0.0
H486 H 0.96859 0.20566 0.7223 0.0
H487 H 0.96516 0.16854 0.75345 0.0
H488 H 0.9814 0.18651 0.65064 0.0
H489 H 0.08046 0.17171 0.65507 0.0
H490 H 0.07046 0.12183 0.72211 0.0
H491 H 0.9961 0.13206 0.83273 0.0
C492 C 0.02175 0.24451 0.70131 0.0
C493 C 0.04249 0.26481 0.65541 0.0
C494 C 0.0657 0.25686 0.62766 0.0
C495 C 0.06787 0.2289 0.64162 0.0
C496 C 0.04672 0.20923 0.6844 0.0
C497 C 0.02433 0.21661 0.71558 0.0
C498 C 0.00515 0.19131 0.7636 0.0
C499 C 1.00132 0.19279 0.8598 0.0
C500 C 0.97851 0.18783 0.71982 0.0
C501 C 0.02014 0.16855 0.75337 0.0
C502 C 0.04393 0.17944 0.70647 0.0
C503 C 0.06184 0.16288 0.69138 0.0
C504 C 0.0559 0.1346 0.72876 0.0
C505 C 0.03222 0.12323 0.77996 0.0
C506 C 0.01382 0.14021 0.79087 0.0
H507 H 0.34502 0.08745 0.76843 0.0
H508 H 0.30758 0.01392 0.68081 0.0
H509 H 0.34699 0.99231 0.71887 0.0
H510 H 0.41155 0.0878 0.69421 0.0
H511 H 0.4264 0.09958 0.78679 0.0
H512 H 0.39552 0.10892 0.75081 0.0
H513 H 0.37376 0.08786 0.90505 0.0
H514 H 0.40454 0.07833 0.94149 0.0
H515 H 0.37479 0.05233 0.95351 0.0
H516 H 0.39152 0.98009 0.76187 0.0
H517 H 0.43683 0.97739 0.81111 0.0
H518 H 0.44295 0.05798 0.87999 0.0
C519 C 0.34535 0.06681 0.75763 0.0
C520 C 0.3238 0.05215 0.72169 0.0
C521 C 0.32429 0.02519 0.70821 0.0
C522 C 0.34645 0.0129 0.72965 0.0
C523 C 0.36755 0.02786 0.76555 0.0
C524 C 0.36708 0.05417 0.7799 0.0
C525 C 0.39205 0.06581 0.82006 0.0
C526 C 0.40728 0.09207 0.75934 0.0
C527 C 0.38591 0.0714 0.91039 0.0
C528 C 0.40665 0.04192 0.82644 0.0
C529 C 0.39241 0.02032 0.79388 0.0
C530 C 0.40271 0.99671 0.7886 0.0
C531 C 0.42836 0.99532 0.81671 0.0
C532 C 0.44306 0.01721 0.85082 0.0
C533 C 0.43187 0.04058 0.85644 0.0
H534 H 0.58889 0.32836 0.41812 0.0
H535 H 0.50598 0.32657 0.36876 0.0
H536 H 0.50992 0.37431 0.39327 0.0
H537 H 0.58826 0.36261 0.59601 0.0
H538 H 0.62124 0.38272 0.57203 0.0
H539 H 0.61272 0.34977 0.54 0.0
H540 H 0.62751 0.37345 0.37976 0.0
H541 H 0.6361 0.40635 0.41255 0.0
H542 H 0.61332 0.40255 0.32766 0.0
H543 H 0.5221 0.42086 0.42667 0.0
H544 H 0.53972 0.46126 0.48988 0.0
H545 H 0.61436 0.43251 0.52823 0.0
C546 C 0.57172 0.33822 0.41255 0.0
C547 C 0.5473 0.32438 0.38952 0.0
C548 C 0.52498 0.3374 0.38398 0.0
C549 C 0.52706 0.36441 0.39764 0.0
C550 C 0.55152 0.37783 0.41856 0.0
C551 C 0.57336 0.36509 0.42767 0.0
C552 C 0.59654 0.38326 0.45916 0.0
C553 C 0.60519 0.36873 0.54702 0.0
C554 C 0.61973 0.3919 0.39067 0.0
C555 C 0.58403 0.4078 0.46838 0.0
C556 C 0.55829 0.4045 0.44217 0.0
C557 C 0.54229 0.42386 0.44688 0.0
C558 C 0.55256 0.44684 0.48227 0.0
C559 C 0.57844 0.45004 0.51345 0.0
C560 C 0.59455 0.43056 0.50459 0.0
H561 H 0.22459 0.50692 0.81535 0.0
H562 H 0.26263 0.59138 0.708 0.0
H563 H 0.22164 0.60788 0.7425 0.0
H564 H 0.16131 0.51295 0.73228 0.0
H565 H 0.14298 0.49043 0.82576 0.0
H566 H 0.17572 0.48596 0.7968 0.0
H567 H 0.19068 0.49072 0.95109 0.0
H568 H 0.15798 0.49513 0.98072 0.0
H569 H 0.18637 0.52092 0.99211 0.0
H570 H 0.17486 0.61426 0.78084 0.0
H571 H 0.12769 0.61035 0.82644 0.0
H572 H 0.12123 0.52148 0.91116 0.0
C573 C 0.22428 0.52891 0.80046 0.0
C574 C 0.24668 0.54802 0.76023 0.0
C575 C 0.24572 0.57661 0.74045 0.0
C576 C 0.2225 0.58604 0.75916 0.0
C577 C 0.20051 0.56656 0.79781 0.0
C578 C 0.20134 0.53858 0.8187 0.0
C579 C 0.17495 0.5217 0.85766 0.0
C580 C 0.16304 0.50158 0.79968 0.0
C581 C 0.17767 0.50621 0.95094 0.0
C582 C 0.15913 0.54453 0.85654 0.0
C583 C 0.17405 0.57025 0.82096 0.0
C584 C 0.16313 0.59425 0.80974 0.0
C585 C 0.13634 0.59185 0.83575 0.0
C586 C 0.1209 0.56571 0.87364 0.0
C587 C 0.13263 0.54186 0.8842 0.0
H588 H 0.072 0.84562 0.19301 0.0
H589 H 0.99118 0.81817 0.29813 0.0
H590 H 0.98483 0.8668 0.27506 0.0
H591 H 0.08806 0.91092 0.26707 0.0
H592 H 0.10556 0.92877 0.16637 0.0
H593 H 0.10382 0.89197 0.20154 0.0
H594 H 0.08443 0.88565 0.05206 0.0
H595 H 0.08564 0.92245 0.02092 0.0
H596 H 0.0548 0.89879 0.02029 0.0
H597 H 0.98707 0.91759 0.24171 0.0
H598 H 0.99501 0.96763 0.17621 0.0
H599 H 0.07322 0.9628 0.08163 0.0
C600 C 0.05293 0.85 0.20983 0.0
C601 C 0.03207 0.82839 0.24805 0.0
C602 C 0.00737 0.83466 0.26972 0.0
C603 C 0.00367 0.86212 0.25719 0.0
C604 C 0.02473 0.88306 0.22096 0.0
C605 C 0.04868 0.8774 0.1955 0.0
C606 C 0.0671 0.90373 0.15049 0.0
C607 C 0.09263 0.90911 0.19937 0.0
C608 C 0.07335 0.90259 0.0553 0.0
C609 C 0.04993 0.92503 0.1565 0.0
C610 C 0.02571 0.9126 0.19859 0.0
C611 C 0.006 0.92765 0.20924 0.0
C612 C 0.01075 0.95602 0.17278 0.0
C613 C 0.03496 0.96892 0.12671 0.0
C614 C 0.05497 0.95343 0.1196 0.0
H615 H 0.72015 0.9908 0.97625 0.0
H616 H 0.74706 0.06241 0.08856 0.0
H617 H 0.70617 0.08051 0.04541 0.0
H618 H 0.68499 0.02499 0.79277 0.0
H619 H 0.65849 0.99538 0.80428 0.0
H620 H 0.69147 0.99062 0.83255 0.0
H621 H 0.67338 0.96408 0.98693 0.0
H622 H 0.64043 0.96885 0.95939 0.0
H623 H 0.65482 0.98051 0.05282 0.0
H624 H 0.66024 0.0876 1.00457 0.0
H625 H 0.61306 0.08337 0.96934 0.0
H626 H 0.61666 1.00651 0.88484 0.0
C627 C 0.71758 0.01067 0.98895 0.0
C628 C 0.7365 0.02568 0.03371 0.0
C629 C 0.73264 0.05118 0.05248 0.0
C630 C 0.70959 0.06145 0.02845 0.0
C631 C 0.69082 0.04585 0.98572 0.0
C632 C 0.69465 0.02105 0.9658 0.0
C633 C 0.67048 1.00688 0.92743 0.0
C634 C 0.67674 1.00433 0.83368 0.0
C635 C 0.65911 0.97841 0.98508 0.0
C636 C 0.65231 0.02736 0.92989 0.0
C637 C 0.66437 0.04978 0.96319 0.0
C638 C 0.65071 0.07036 0.97709 0.0
C639 C 0.62394 0.06777 0.95709 0.0
C640 C 0.61123 0.04471 0.92392 0.0
C641 C 0.62584 0.02459 0.90905 0.0
H642 H 0.52846 0.72189 0.43051 0.0
H643 H 0.44874 0.73215 0.48666 0.0
H644 H 0.43167 0.68335 0.47538 0.0
H645 H 0.51347 0.68582 0.26945 0.0
H646 H 0.53709 0.66316 0.29504 0.0
H647 H 0.543 0.69657 0.32416 0.0
H648 H 0.54684 0.67348 0.48643 0.0
H649 H 0.54161 0.64018 0.45529 0.0
H650 H 0.52064 0.64613 0.5396 0.0
H651 H 0.42322 0.63591 0.44028 0.0
H652 H 0.42332 0.59553 0.37182 0.0
H653 H 0.50889 0.61741 0.33477 0.0
C654 C 0.50753 0.71343 0.44249 0.0
C655 C 0.48976 0.7302 0.46001 0.0
C656 C 0.46241 0.71919 0.47332 0.0
C657 C 0.45271 0.69158 0.46796 0.0
C658 C 0.47076 0.67545 0.44969 0.0
C659 C 0.49763 0.68603 0.43714 0.0
C660 C 0.51251 0.66582 0.40737 0.0
C661 C 0.52736 0.67861 0.31876 0.0
C662 C 0.53151 0.65582 0.4763 0.0
C663 C 0.48967 0.64281 0.40037 0.0
C664 C 0.46584 0.64832 0.42755 0.0
C665 C 0.44179 0.63118 0.41989 0.0
C666 C 0.44202 0.60843 0.38035 0.0
C667 C 0.46611 0.60334 0.34775 0.0
C668 C 0.49022 0.62027 0.36085 0.0
H669 H 0.83205 0.5017 0.19161 0.0
H670 H 0.81496 0.5712 1.00311 0.0
H671 H 0.85984 0.57818 0.93396 0.0
H672 H 0.89936 0.53031 0.22356 0.0
H673 H 0.91077 0.49806 0.23214 0.0
H674 H 0.87681 0.4981 0.26206 0.0
H675 H 0.8622 0.46578 0.15368 0.0
H676 H 0.89632 0.4669 0.12234 0.0
H677 H 0.87354 0.47686 0.041 0.0
H678 H 0.90591 0.57891 0.889 0.0
H679 H 0.95211 0.57501 0.86963 0.0
H680 H 0.94231 0.50598 0.0915 0.0
C681 C 0.83786 0.5183 0.13561 0.0
C682 C 0.82009 0.53594 0.102 0.0
C683 C 0.82818 0.5573 0.02849 0.0
C684 C 0.85363 0.56146 0.98937 0.0
C685 C 0.8708 0.54404 0.02468 0.0
C686 C 0.86339 0.52284 0.09602 0.0
C687 C 0.88616 0.50759 0.12147 0.0
C688 C 0.8937 0.50859 0.21537 0.0
C689 C 0.87913 0.4775 0.10885 0.0
C690 C 0.90789 0.52445 0.05558 0.0
C691 C 0.89815 0.54489 0.99955 0.0
C692 C 0.91379 0.563 0.93234 0.0
C693 C 0.94019 0.56048 0.92199 0.0
C694 C 0.9512 0.54014 0.97906 0.0
C695 C 0.93466 0.52177 0.04689 0.0
H696 H 0.01186 0.26205 0.50421 0.0
H697 H 0.082 0.32501 0.42759 0.0
H698 H 0.09546 0.29863 0.32149 0.0
H699 H 0.04278 0.20451 0.50271 0.0
H700 H 0.01415 0.1845 0.46546 0.0
H701 H 0.01015 0.21088 0.52498 0.0
H702 H 0.98417 0.2325 0.39484 0.0
H703 H 0.99015 0.20671 0.33522 0.0
H704 H 1.00038 0.243 0.28787 0.0
H705 H 0.10405 0.26196 0.23817 0.0
H706 H 0.1059 0.22019 0.17864 0.0
H707 H 0.03055 0.18008 0.31334 0.0
C708 C 0.0296 0.27065 0.46286 0.0
C709 C 0.04576 0.29581 0.47312 0.0
C710 C 0.06909 0.30619 0.41927 0.0
C711 C 0.07697 0.29113 0.35961 0.0
C712 C 0.06123 0.26572 0.35413 0.0
C713 C 0.03783 0.25572 0.40373 0.0
C714 C 0.02543 0.22699 0.39035 0.0
C715 C 0.02297 0.20546 0.47603 0.0
C716 C 0.99843 0.22733 0.34963 0.0
C717 C 0.04577 0.22201 0.32712 0.0
C718 C 0.0662 0.24466 0.30664 0.0
C719 C 0.088 0.24428 0.25327 0.0
C720 C 0.08898 0.22026 0.22034 0.0
C721 C 0.06841 0.19661 0.24094 0.0
C722 C 0.04642 0.19783 0.2947 0.0
H723 H 0.31423 0.04948 0.53343 0.0
H724 H 0.32925 0.13451 0.56623 0.0
H725 H 0.36575 0.14596 0.45218 0.0
H726 H 0.38133 0.04466 0.52026 0.0
H727 H 0.37756 0.02187 0.4437 0.0
H728 H 0.35028 0.02159 0.51704 0.0
H729 H 0.32047 0.03157 0.38727 0.0
H730 H 0.34749 0.03162 0.31294 0.0
H731 H 0.33132 0.06117 0.30059 0.0
H732 H 0.40263 0.14678 0.34066 0.0
H733 H 0.43792 0.1366 0.24962 0.0
H734 H 0.39974 0.05009 0.29862 0.0
C735 C 0.325 0.07057 0.51528 0.0
C736 C 0.31876 0.09131 0.55657 0.0
C737 C 0.33338 0.11863 0.53291 0.0
C738 C 0.35417 0.12519 0.46883 0.0
C739 C 0.36016 0.10404 0.43015 0.0
C740 C 0.34602 0.07723 0.45303 0.0
C741 C 0.35784 0.05762 0.40891 0.0
C742 C 0.36732 0.03512 0.47648 0.0
C743 C 0.3381 0.04474 0.34884 0.0
C744 C 0.38091 0.0775 0.35737 0.0
C745 C 0.38183 0.10425 0.36955 0.0
C746 C 0.40196 0.12594 0.33022 0.0
C747 C 0.42183 0.12002 0.27829 0.0
C748 C 0.42155 0.09258 0.2671 0.0
C749 C 0.40054 0.07125 0.30627 0.0
H750 H 0.5686 0.33471 0.20723 0.0
H751 H 0.48654 0.29381 0.22893 0.0
H752 H 0.47465 0.33511 0.13344 0.0
H753 H 0.55654 0.39929 0.22568 0.0
H754 H 0.58337 0.41894 0.15164 0.0
H755 H 0.58533 0.38461 0.20933 0.0
H756 H 0.5931 0.37027 0.06198 0.0
H757 H 0.59082 0.40461 1.00457 0.0
H758 H 0.56944 0.37484 0.97901 0.0
H759 H 0.47103 0.3841 0.05621 0.0
H760 H 0.47651 0.43421 0.99193 0.0
H761 H 0.56133 0.44296 0.01808 0.0
C762 C 0.54833 0.3341 0.18852 0.0
C763 C 0.52854 0.31086 0.22381 0.0
C764 C 0.50206 0.31102 0.20049 0.0
C765 C 0.49514 0.33458 0.14725 0.0
C766 C 0.51499 0.35774 0.11712 0.0
C767 C 0.54116 0.35745 0.13581 0.0
C768 C 0.55848 0.3856 0.10168 0.0
C769 C 0.5717 0.39782 0.17653 0.0
C770 C 0.57918 0.38371 0.03269 0.0
C771 C 0.53799 0.40198 0.06165 0.0
C772 C 0.51298 0.38562 0.07155 0.0
C773 C 0.49061 0.39686 0.04642 0.0
C774 C 0.49389 0.42539 0.01022 0.0
C775 C 0.51937 0.44244 0.99838 0.0
C776 C 0.54166 0.43036 0.02395 0.0
H777 H 0.24076 0.55116 0.5629 0.0
H778 H 0.24217 0.46769 0.70009 0.0
H779 H 0.19965 0.45079 0.63738 0.0
H780 H 0.16976 0.54704 0.58674 0.0
H781 H 0.1676 0.56778 0.48034 0.0
H782 H 0.19766 0.57297 0.5377 0.0
H783 H 0.22439 0.56489 0.40676 0.0
H784 H 0.19444 0.55983 0.34906 0.0
H785 H 0.21461 0.53346 0.36625 0.0
H786 H 0.15663 0.4435 0.55991 0.0
H787 H 0.11866 0.44533 0.46577 0.0
H788 H 0.14644 0.5337 0.37417 0.0
C789 C 0.2321 0.52931 0.57875 0.0
C790 C 0.24471 0.51051 0.63493 0.0
C791 C 0.23288 0.48214 0.65569 0.0
C792 C 0.20869 0.47252 0.62112 0.0
C793 C 0.19662 0.49161 0.56597 0.0
C794 C 0.20805 0.5194 0.54445 0.0
C795 C 0.19142 0.53555 0.48223 0.0
C796 C 0.18099 0.55711 0.52426 0.0
C797 C 0.20715 0.54923 0.39596 0.0
C798 C 0.16912 0.51244 0.47033 0.0
C799 C 0.17225 0.48734 0.52031 0.0
C800 C 0.15415 0.46302 0.51995 0.0
C801 C 0.1327 0.46425 0.46561 0.0
C802 C 0.12954 0.48958 0.41122 0.0
C803 C 0.14794 0.51401 0.41515 0.0
H804 H 0.06087 0.82794 0.40585 0.0
H805 H 0.98738 0.7687 0.46203 0.0
H806 H 0.97339 0.79474 0.56806 0.0
H807 H 0.06921 0.84499 0.62541 0.0
H808 H 0.08135 0.8812 0.58101 0.0
H809 H 0.08729 0.85536 0.52148 0.0
H810 H 0.06467 0.87924 0.3874 0.0
H811 H 0.06016 0.90557 0.44661 0.0
H812 H 0.0321 0.88677 0.40244 0.0
H813 H 0.96541 0.83071 0.65574 0.0
H814 H 0.96432 0.87197 0.71857 0.0
H815 H 0.0421 0.90968 0.59747 0.0
C816 C 0.04224 0.81996 0.44294 0.0
C817 C 0.02551 0.79583 0.42723 0.0
C818 C 1.00091 0.78649 0.47502 0.0
C819 C 0.99269 0.80142 0.5346 0.0
C820 C 0.00924 0.8258 0.54571 0.0
C821 C 0.03361 0.83489 0.50144 0.0
C822 C 0.04664 0.86298 0.5185 0.0
C823 C 0.07267 0.861 0.56435 0.0
C824 C 0.05115 0.88495 0.43366 0.0
C825 C 0.0257 0.86857 0.57838 0.0
C826 C 0.00436 0.84678 0.59382 0.0
C827 C 0.98213 0.84776 0.64422 0.0
C828 C 0.98161 0.87152 0.67911 0.0
C829 C 0.00306 0.89443 0.66322 0.0
C830 C 0.0255 0.89256 0.61255 0.0
H831 H 0.74475 0.01727 0.29207 0.0
H832 H 0.71648 0.95917 0.12845 0.0
H833 H 0.67311 0.94653 0.21102 0.0
H834 H 0.71021 0.97628 0.49634 0.0
H835 H 0.703 1.00642 0.53177 0.0
H836 H 0.73222 1.00925 0.46346 0.0
H837 H 0.71707 0.04829 0.3524 0.0
H838 H 0.68764 0.04537 0.41967 0.0
H839 H 0.68491 0.04184 0.30793 0.0
H840 H 0.6324 0.94223 0.30602 0.0
H841 H 0.59702 0.9457 0.40856 0.0
H842 H 0.65185 1.00614 0.5137 0.0
C843 C 0.72956 1.00136 0.27574 0.0
C844 C 0.73377 0.98873 0.20529 0.0
C845 C 0.71342 0.96868 0.18309 0.0
C846 C 0.68884 0.96148 0.22944 0.0
C847 C 0.68505 0.97455 0.298 0.0
C848 C 0.70487 0.99395 0.32155 0.0
C849 C 0.69521 1.00577 0.39535 0.0
C850 C 0.7111 0.99902 0.47655 0.0
C851 C 0.69627 0.03718 0.36712 0.0
C852 C 0.66687 0.99009 0.40933 0.0
C853 C 0.66145 0.97219 0.35252 0.0
C854 C 0.63648 0.95596 0.35149 0.0
C855 C 0.61652 0.95797 0.41039 0.0
C856 C 0.62155 0.97602 0.46988 0.0
C857 C 0.64718 0.99228 0.46887 0.0
H858 H 0.48923 0.72861 0.64394 0.0
H859 H 0.56896 0.76242 0.53698 0.0
H860 H 0.58491 0.72286 0.62872 0.0
H861 H 0.50627 0.69613 0.86711 0.0
H862 H 0.48027 0.66638 0.87198 0.0
H863 H 0.47638 0.69973 0.81064 0.0
H864 H 0.46732 0.67846 0.67403 0.0
H865 H 0.47147 0.64515 0.73433 0.0
H866 H 0.49129 0.66081 0.63581 0.0
H867 H 0.59077 0.67625 0.71719 0.0
H868 H 0.5867 0.6279 0.79697 0.0
H869 H 0.50243 0.62339 0.84286 0.0
C870 C 0.51021 0.72813 0.64254 0.0
C871 C 0.52801 0.74882 0.58464 0.0
C872 C 0.55519 0.74723 0.58259 0.0
C873 C 0.5643 0.72464 0.63381 0.0
C874 C 0.54595 0.70385 0.68705 0.0
C875 C 0.51947 0.70558 0.69237 0.0
C876 C 0.50333 0.67939 0.7479 0.0
C877 C 0.49083 0.6858 0.82925 0.0
C878 C 0.48211 0.66512 0.69486 0.0
C879 C 0.52474 0.66229 0.77168 0.0
C880 C 0.54922 0.67688 0.73661 0.0
C881 C 0.57176 0.66486 0.7459 0.0
C882 C 0.56922 0.63728 0.79141 0.0
C883 C 0.5443 0.62175 0.82728 0.0
C884 C 0.52187 0.63473 0.81786 0.0
H885 H 0.83055 0.57758 0.23051 0.0
H886 H 0.79709 0.4941 0.36394 0.0
H887 H 0.83419 0.49486 0.46347 0.0
H888 H 0.89928 0.5743 0.24003 0.0
H889 H 0.90904 0.60836 0.26275 0.0
H890 H 0.8798 0.60046 0.20357 0.0
H891 H 0.85289 0.61707 0.31763 0.0
H892 H 0.88222 0.62399 0.37741 0.0
H893 H 0.85297 0.60114 0.43102 0.0
H894 H 0.87533 0.50397 0.54359 0.0
H895 H 0.91722 0.52122 0.60575 0.0
H896 H 0.92445 0.59976 0.42271 0.0
C897 C 0.83111 0.55968 0.28143 0.0
C898 C 0.81117 0.53573 0.29054 0.0
C899 C 0.8122 0.51258 0.35729 0.0
C900 C 0.8332 0.51285 0.41341 0.0
C901 C 0.85276 0.53665 0.40252 0.0
C902 C 0.85178 0.55982 0.33903 0.0
C903 C 0.87498 0.58299 0.34348 0.0
C904 C 0.89174 0.59202 0.25735 0.0
C905 C 0.86517 0.60776 0.36891 0.0
C906 C 0.8899 0.56865 0.4163 0.0
C907 C 0.87648 0.54207 0.44993 0.0
C908 C 0.88607 0.52471 0.51772 0.0
C909 C 0.91005 0.53467 0.55213 0.0
C910 C 0.92445 0.56175 0.51861 0.0
C911 C 0.91398 0.579 0.45006 0.0
loop_
_geom_bond_atom_site_label_1
_geom_bond_atom_site_label_2
_geom_bond_distance
_geom_bond_site_symmetry_2
_ccdc_geom_bond_type
C0 N1 1.317 . S
C0 N2 1.348 1_554 S
C0 C3 1.485 . S
N1 C0 1.317 . S
N1 N5 1.370 1_554 S
N2 C0 1.348 1_556 S
N2 C4 1.346 . S
C3 C0 1.485 . S
C3 H7 0.960 . S
C3 H8 0.961 . S
C3 H9 0.960 . S
C4 N2 1.346 . S
C4 N5 1.307 . S
C4 C6 1.486 . S
N5 N1 1.370 1_556 S
N5 C4 1.307 . S
C6 C4 1.486 . S
C6 H10 0.960 . S
C6 H11 0.960 . S
C6 H12 0.959 . S
H7 C3 0.960 . S
H8 C3 0.961 . S
H9 C3 0.960 . S
H10 C6 0.960 . S
H11 C6 0.960 . S
H12 C6 0.959 . S
C13 N14 1.317 . S
C13 N15 1.348 . S
C13 C16 1.485 . S
N14 C13 1.317 . S
N14 N18 1.370 . S
N15 C13 1.348 . S
N15 C17 1.346 . S
C16 C13 1.485 . S
C16 H20 0.960 1_655 S
C16 H21 0.961 . S
C16 H22 0.960 . S
C17 N15 1.346 . S
C17 N18 1.307 . S
C17 C19 1.486 1_554 S
N18 N14 1.370 . S
N18 C17 1.307 . S
C19 C17 1.486 1_556 S
C19 H23 0.960 . S
C19 H24 0.960 1_655 S
C19 H25 0.959 . S
H20 C16 0.960 1_455 S
H21 C16 0.961 . S
H22 C16 0.960 . S
H23 C19 0.960 . S
H24 C19 0.960 1_455 S
H25 C19 0.959 . S
C26 N27 1.317 . S
C26 N28 1.348 . S
C26 C29 1.485 . S
N27 C26 1.317 . S
N27 N31 1.370 . S
N28 C26 1.348 . S
N28 C30 1.346 . S
C29 C26 1.485 . S
C29 H33 0.960 . S
C29 H34 0.961 . S
C29 H35 0.960 . S
C30 N28 1.346 . S
C30 N31 1.307 . S
C30 C32 1.486 1_554 S
N31 N27 1.370 . S
N31 C30 1.307 . S
C32 C30 1.486 1_556 S
C32 H36 0.960 . S
C32 H37 0.960 . S
C32 H38 0.959 . S
H33 C29 0.960 . S
H34 C29 0.961 . S
H35 C29 0.960 . S
H36 C32 0.960 . S
H37 C32 0.960 . S
H38 C32 0.959 . S
C39 N40 1.317 . S
C39 N41 1.348 . S
C39 C42 1.485 . S
N40 C39 1.317 . S
N40 N44 1.370 . S
N41 C39 1.348 . S
N41 C43 1.346 . S
C42 C39 1.485 . S
C42 H46 0.960 . S
C42 H47 0.961 . S
C42 H48 0.960 . S
C43 N41 1.346 . S
C43 N44 1.307 . S
C43 C45 1.486 . S
N44 N40 1.370 . S
N44 C43 1.307 . S
C45 C43 1.486 . S
C45 H49 0.960 . S
C45 H50 0.960 . S
C45 H51 0.959 . S
H46 C42 0.960 . S
H47 C42 0.961 . S
H48 C42 0.960 . S
H49 C45 0.960 . S
H50 C45 0.960 . S
H51 C45 0.959 . S
C52 N53 1.317 . S
C52 N54 1.348 . S
C52 C55 1.485 . S
N53 C52 1.317 . S
N53 N57 1.370 . S
N54 C52 1.348 . S
N54 C56 1.346 . S
C55 C52 1.485 . S
C55 H59 0.960 . S
C55 H60 0.961 . S
C55 H61 0.960 . S
C56 N54 1.346 . S
C56 N57 1.307 . S
C56 C58 1.486 1_556 S
N57 N53 1.370 . S
N57 C56 1.307 . S
C58 C56 1.486 1_554 S
C58 H62 0.960 . S
C58 H63 0.960 . S
C58 H64 0.959 . S
H59 C55 0.960 . S
H60 C55 0.961 . S
H61 C55 0.960 . S
H62 C58 0.960 . S
H63 C58 0.960 . S
H64 C58 0.959 . S
C65 N66 1.317 . S
C65 N67 1.348 . S
C65 C68 1.485 . S
N66 C65 1.317 . S
N66 N70 1.370 . S
N67 C65 1.348 . S
N67 C69 1.346 . S
C68 C65 1.485 . S
C68 H72 0.960 . S
C68 H73 0.961 . S
C68 H74 0.960 . S
C69 N67 1.346 . S
C69 N70 1.307 . S
C69 C71 1.486 . S
N70 N66 1.370 . S
N70 C69 1.307 . S
C71 C69 1.486 . S
C71 H75 0.960 . S
C71 H76 0.960 . S
C71 H77 0.959 . S
H72 C68 0.960 . S
H73 C68 0.961 . S
H74 C68 0.960 . S
H75 C71 0.960 . S
H76 C71 0.960 . S
H77 C71 0.959 . S
C78 N79 1.317 . S
C78 N80 1.348 . S
C78 C81 1.485 . S
N79 C78 1.317 . S
N79 N83 1.370 . S
N80 C78 1.348 . S
N80 C82 1.346 . S
C81 C78 1.485 . S
C81 H85 0.960 . S
C81 H86 0.961 . S
C81 H87 0.960 . S
C82 N80 1.346 . S
C82 N83 1.307 . S
C82 C84 1.486 . S
N83 N79 1.370 . S
N83 C82 1.307 . S
C84 C82 1.486 . S
C84 H88 0.960 . S
C84 H89 0.960 . S
C84 H90 0.959 . S
H85 C81 0.960 . S
H86 C81 0.961 . S
H87 C81 0.960 . S
H88 C84 0.960 . S
H89 C84 0.960 . S
H90 C84 0.959 . S
C91 N92 1.317 . S
C91 N93 1.348 . S
C91 C94 1.485 . S
N92 C91 1.317 . S
N92 N96 1.370 . S
N93 C91 1.348 . S
N93 C95 1.346 . S
C94 C91 1.485 . S
C94 H98 0.960 . S
C94 H99 0.961 . S
C94 H100 0.960 . S
C95 N93 1.346 . S
C95 N96 1.307 . S
C95 C97 1.486 . S
N96 N92 1.370 . S
N96 C95 1.307 . S
C97 C95 1.486 . S
C97 H101 0.960 . S
C97 H102 0.960 . S
C97 H103 0.959 . S
H98 C94 0.960 . S
H99 C94 0.961 . S
H100 C94 0.960 . S
H101 C97 0.960 . S
H102 C97 0.960 . S
H103 C97 0.959 . S
Nd104 C106 2.836 1_545 S
Nd104 O124 2.483 1_445 S
Nd104 O125 2.492 1_545 S
Nd104 O126 2.487 . S
Nd104 O127 2.682 . S
Nd104 O128 2.410 1_545 S
Nd104 O133 2.414 1_455 S
Nd104 O135 2.424 . S
Nd105 C115 2.836 . S
Nd105 O127 2.414 1_554 S
Nd105 O129 2.424 1_545 S
Nd105 O130 2.500 . S
Nd105 O131 2.492 . S
Nd105 O132 2.487 1_455 S
Nd105 O133 2.682 1_454 S
Nd105 O134 2.410 1_554 S
C106 Nd104 2.836 1_565 S
C106 C107 1.498 . S
C106 O124 1.228 1_455 S
C106 O125 1.239 . S
C107 C106 1.498 . S
C107 C108 1.366 1_455 S
C107 C112 1.407 . S
C108 C107 1.366 1_655 S
C108 C109 1.392 . S
C108 H136 0.930 . S
C109 C108 1.392 . S
C109 C110 1.398 1_655 S
C109 H137 0.929 . S
C110 C109 1.398 1_455 S
C110 C111 1.352 . S
C111 C110 1.352 . S
C111 C112 1.384 . S
C111 H138 0.930 . S
C112 C107 1.407 . S
C112 C111 1.384 . S
C112 H139 0.929 . S
C113 O126 1.241 . S
C113 O127 1.273 . S
C114 O128 1.251 . S
C114 O129 1.268 1_556 S
C115 Nd105 2.836 . S
C115 C116 1.498 . S
C115 O130 1.258 . S
C115 O131 1.239 . S
C116 C115 1.498 . S
C116 C117 1.366 . S
C116 C121 1.407 . S
C117 C116 1.366 . S
C117 C118 1.392 . S
C117 H140 0.930 . S
C118 C117 1.392 . S
C118 C119 1.398 . S
C118 H141 0.929 . S
C119 C118 1.398 . S
C119 C120 1.352 . S
C120 C119 1.352 . S
C120 C121 1.384 . S
C120 H142 0.930 . S
C121 C116 1.407 . S
C121 C120 1.384 . S
C121 H143 0.929 . S
C122 O132 1.241 1_556 S
C122 O133 1.273 . S
C123 O134 1.251 . S
C123 O135 1.268 . S
O124 Nd104 2.483 1_665 S
O124 C106 1.228 1_655 S
O125 Nd104 2.492 1_565 S
O125 C106 1.239 . S
O126 Nd104 2.487 . S
O126 C113 1.241 . S
O127 Nd104 2.682 . S
O127 Nd105 2.414 1_556 S
O127 C113 1.273 . S
O128 Nd104 2.410 1_565 S
O128 C114 1.251 . S
O129 Nd105 2.424 1_565 S
O129 C114 1.268 1_554 S
O130 Nd105 2.500 . S
O130 C115 1.258 . S
O131 Nd105 2.492 . S
O131 C115 1.239 . S
O132 Nd105 2.487 1_655 S
O132 C122 1.241 1_554 S
O133 Nd104 2.414 1_655 S
O133 Nd105 2.682 1_656 S
O133 C122 1.273 . S
O134 Nd105 2.410 1_556 S
O134 C123 1.251 . S
O135 Nd104 2.424 . S
O135 C123 1.268 . S
H136 C108 0.930 . S
H137 C109 0.929 . S
H138 C111 0.930 . S
H139 C112 0.929 . S
H140 C117 0.930 . S
H141 C118 0.929 . S
H142 C120 0.930 . S
H143 C121 0.929 . S
Nd144 C146 2.836 1_545 S
Nd144 O164 2.500 1_545 S
Nd144 O165 2.492 . S
Nd144 O166 2.487 . S
Nd144 O167 2.682 . S
Nd144 O168 2.410 . S
Nd144 O173 2.414 1_545 S
Nd144 O175 2.424 . S
Nd145 C155 2.836 . S
Nd145 O167 2.414 1_554 S
Nd145 O169 2.424 . S
Nd145 O170 2.500 . S
Nd145 O171 2.492 . S
Nd145 O172 2.487 1_545 S
Nd145 O173 2.682 1_544 S
Nd145 O174 2.410 1_554 S
C146 Nd144 2.836 1_565 S
C146 C147 1.498 . S
C146 O164 1.258 . S
C146 O165 1.239 1_565 S
C147 C146 1.498 . S
C147 C148 1.366 . S
C147 C152 1.407 . S
C148 C147 1.366 . S
C148 C149 1.392 . S
C148 H176 0.930 . S
C149 C148 1.392 . S
C149 C150 1.398 . S
C149 H177 0.929 . S
C150 C149 1.398 . S
C150 C151 1.352 . S
C151 C150 1.352 . S
C151 C152 1.384 . S
C151 H178 0.930 . S
C152 C147 1.407 . S
C152 C151 1.384 . S
C152 H179 0.929 1_565 S
C153 O166 1.241 . S
C153 O167 1.273 . S
C154 O168 1.251 . S
C154 O169 1.268 1_556 S
C155 Nd145 2.836 . S
C155 C156 1.498 . S
C155 O170 1.258 . S
C155 O171 1.239 . S
C156 C155 1.498 . S
C156 C157 1.366 . S
C156 C161 1.407 . S
C157 C156 1.366 . S
C157 C158 1.392 . S
C157 H180 0.930 . S
C158 C157 1.392 . S
C158 C159 1.398 . S
C158 H181 0.929 . S
C159 C158 1.398 . S
C159 C160 1.352 . S
C160 C159 1.352 . S
C160 C161 1.384 . S
C160 H182 0.930 . S
C161 C156 1.407 . S
C161 C160 1.384 . S
C161 H183 0.929 . S
C162 O172 1.241 . S
C162 O173 1.273 1_554 S
C163 O174 1.251 . S
C163 O175 1.268 . S
O164 Nd144 2.500 1_565 S
O164 C146 1.258 . S
O165 Nd144 2.492 . S
O165 C146 1.239 1_545 S
O166 Nd144 2.487 . S
O166 C153 1.241 . S
O167 Nd144 2.682 . S
O167 Nd145 2.414 1_556 S
O167 C153 1.273 . S
O168 Nd144 2.410 . S
O168 C154 1.251 . S
O169 Nd145 2.424 . S
O169 C154 1.268 1_554 S
O170 Nd145 2.500 . S
O170 C155 1.258 . S
O171 Nd145 2.492 . S
O171 C155 1.239 . S
O172 Nd145 2.487 1_565 S
O172 C162 1.241 . S
O173 Nd144 2.414 1_565 S
O173 Nd145 2.682 1_566 S
O173 C162 1.273 1_556 S
O174 Nd145 2.410 1_556 S
O174 C163 1.251 . S
O175 Nd144 2.424 . S
O175 C163 1.268 . S
H176 C148 0.930 . S
H177 C149 0.929 . S
H178 C151 0.930 . S
H179 C152 0.929 1_545 S
H180 C157 0.930 . S
H181 C158 0.929 . S
H182 C160 0.930 . S
H183 C161 0.929 . S
Nd184 C186 2.836 . S
Nd184 O204 2.500 . S
Nd184 O205 2.492 . S
Nd184 O206 2.487 . S
Nd184 O207 2.682 1_554 S
Nd184 O208 2.410 1_554 S
Nd184 O213 2.414 1_554 S
Nd184 O215 2.424 . S
Nd185 C195 2.836 . S
Nd185 O207 2.414 . S
Nd185 O209 2.424 . S
Nd185 O210 2.500 . S
Nd185 O211 2.492 . S
Nd185 O212 2.487 . S
Nd185 O213 2.682 . S
Nd185 O214 2.410 . S
C186 Nd184 2.836 . S
C186 C187 1.498 . S
C186 O204 1.258 . S
C186 O205 1.239 . S
C187 C186 1.498 . S
C187 C188 1.366 . S
C187 C192 1.407 . S
C188 C187 1.366 . S
C188 C189 1.392 . S
C188 H216 0.930 . S
C189 C188 1.392 . S
C189 C190 1.398 . S
C189 H217 0.929 . S
C190 C189 1.398 . S
C190 C191 1.352 . S
C191 C190 1.352 . S
C191 C192 1.384 . S
C191 H218 0.930 . S
C192 C187 1.407 . S
C192 C191 1.384 . S
C192 H219 0.929 . S
C193 O206 1.241 1_556 S
C193 O207 1.273 . S
C194 O208 1.251 . S
C194 O209 1.268 . S
C195 Nd185 2.836 . S
C195 C196 1.498 . S
C195 O210 1.258 . S
C195 O211 1.239 . S
C196 C195 1.498 . S
C196 C197 1.366 . S
C196 C201 1.407 . S
C197 C196 1.366 . S
C197 C198 1.392 . S
C197 H220 0.930 . S
C198 C197 1.392 . S
C198 C199 1.398 . S
C198 H221 0.929 . S
C199 C198 1.398 . S
C199 C200 1.352 . S
C200 C199 1.352 . S
C200 C201 1.384 . S
C200 H222 0.930 . S
C201 C196 1.407 . S
C201 C200 1.384 . S
C201 H223 0.929 . S
C202 O212 1.241 . S
C202 O213 1.273 . S
C203 O214 1.251 1_554 S
C203 O215 1.268 . S
O204 Nd184 2.500 . S
O204 C186 1.258 . S
O205 Nd184 2.492 . S
O205 C186 1.239 . S
O206 Nd184 2.487 . S
O206 C193 1.241 1_554 S
O207 Nd184 2.682 1_556 S
O207 Nd185 2.414 . S
O207 C193 1.273 . S
O208 Nd184 2.410 1_556 S
O208 C194 1.251 . S
O209 Nd185 2.424 . S
O209 C194 1.268 . S
O210 Nd185 2.500 . S
O210 C195 1.258 . S
O211 Nd185 2.492 . S
O211 C195 1.239 . S
O212 Nd185 2.487 . S
O212 C202 1.241 . S
O213 Nd184 2.414 1_556 S
O213 Nd185 2.682 . S
O213 C202 1.273 . S
O214 Nd185 2.410 . S
O214 C203 1.251 1_556 S
O215 Nd184 2.424 . S
O215 C203 1.268 . S
H216 C188 0.930 . S
H217 C189 0.929 . S
H218 C191 0.930 . S
H219 C192 0.929 . S
H220 C197 0.930 . S
H221 C198 0.929 . S
H222 C200 0.930 . S
H223 C201 0.929 . S
Nd224 C226 2.836 1_455 S
Nd224 O244 2.500 1_455 S
Nd224 O245 2.492 1_455 S
Nd224 O246 2.487 . S
Nd224 O247 2.682 . S
Nd224 O248 2.410 1_455 S
Nd224 O253 2.414 . S
Nd224 O255 2.424 . S
Nd225 C235 2.836 . S
Nd225 O247 2.414 1_554 S
Nd225 O249 2.424 1_455 S
Nd225 O250 2.500 . S
Nd225 O251 2.492 . S
Nd225 O252 2.487 . S
Nd225 O253 2.682 1_554 S
Nd225 O254 2.410 1_554 S
C226 Nd224 2.836 1_655 S
C226 C227 1.498 . S
C226 O244 1.258 . S
C226 O245 1.239 . S
C227 C226 1.498 . S
C227 C228 1.366 . S
C227 C232 1.407 . S
C228 C227 1.366 . S
C228 C229 1.392 . S
C228 H256 0.930 . S
C229 C228 1.392 . S
C229 C230 1.398 . S
C229 H257 0.929 . S
C230 C229 1.398 . S
C230 C231 1.352 . S
C231 C230 1.352 . S
C231 C232 1.384 . S
C231 H258 0.930 . S
C232 C227 1.407 . S
C232 C231 1.384 . S
C232 H259 0.929 . S
C233 O246 1.241 . S
C233 O247 1.273 . S
C234 O248 1.251 . S
C234 O249 1.268 1_556 S
C235 Nd225 2.836 . S
C235 C236 1.498 . S
C235 O250 1.258 . S
C235 O251 1.239 . S
C236 C235 1.498 . S
C236 C237 1.366 . S
C236 C241 1.407 . S
C237 C236 1.366 . S
C237 C238 1.392 . S
C237 H260 0.930 . S
C238 C237 1.392 . S
C238 C239 1.398 . S
C238 H261 0.929 . S
C239 C238 1.398 . S
C239 C240 1.352 . S
C240 C239 1.352 . S
C240 C241 1.384 . S
C240 H262 0.930 . S
C241 C236 1.407 . S
C241 C240 1.384 . S
C241 H263 0.929 . S
C242 O252 1.241 1_556 S
C242 O253 1.273 . S
C243 O254 1.251 . S
C243 O255 1.268 . S
O244 Nd224 2.500 1_655 S
O244 C226 1.258 . S
O245 Nd224 2.492 1_655 S
O245 C226 1.239 . S
O246 Nd224 2.487 . S
O246 C233 1.241 . S
O247 Nd224 2.682 . S
O247 Nd225 2.414 1_556 S
O247 C233 1.273 . S
O248 Nd224 2.410 1_655 S
O248 C234 1.251 . S
O249 Nd225 2.424 1_655 S
O249 C234 1.268 1_554 S
O250 Nd225 2.500 . S
O250 C235 1.258 . S
O251 Nd225 2.492 . S
O251 C235 1.239 . S
O252 Nd225 2.487 . S
O252 C242 1.241 1_554 S
O253 Nd224 2.414 . S
O253 Nd225 2.682 1_556 S
O253 C242 1.273 . S
O254 Nd225 2.410 1_556 S
O254 C243 1.251 . S
O255 Nd224 2.424 . S
O255 C243 1.268 . S
H256 C228 0.930 . S
H257 C229 0.929 . S
H258 C231 0.930 . S
H259 C232 0.929 . S
H260 C237 0.930 . S
H261 C238 0.929 . S
H262 C240 0.930 . S
H263 C241 0.929 . S
H264 C276 0.930 . S
H265 C278 0.930 . S
H266 C279 0.930 . S
H267 C283 0.959 . S
H268 C283 0.959 . S
H269 C283 0.961 . S
H270 C284 0.960 . S
H271 C284 0.961 . S
H272 C284 0.959 . S
H273 C287 0.929 . S
H274 C288 0.931 . S
H275 C290 0.930 . S
C276 H264 0.930 . S
C276 C277 1.399 . S
C276 C281 1.399 . S
C277 C276 1.399 . S
C277 C278 1.376 . S
C278 H265 0.930 . S
C278 C277 1.376 . S
C278 C279 1.388 . S
C279 H266 0.930 . S
C279 C278 1.388 . S
C279 C280 1.390 . S
C280 C279 1.390 . S
C280 C281 1.394 . S
C280 C286 1.465 . S
C281 C276 1.399 . S
C281 C280 1.394 . S
C281 C282 1.516 . S
C282 C281 1.516 . S
C282 C283 1.502 . S
C282 C284 1.561 . S
C282 C285 1.526 . S
C283 H267 0.959 . S
C283 H268 0.959 . S
C283 H269 0.961 . S
C283 C282 1.502 . S
C284 H270 0.960 . S
C284 H271 0.961 . S
C284 H272 0.959 . S
C284 C282 1.561 . S
C285 C282 1.526 . S
C285 C286 1.396 . S
C285 C290 1.390 . S
C286 C280 1.465 . S
C286 C285 1.396 . S
C286 C287 1.399 . S
C287 H273 0.929 . S
C287 C286 1.399 . S
C287 C288 1.385 . S
C288 H274 0.931 . S
C288 C287 1.385 . S
C288 C289 1.389 . S
C289 C288 1.389 . S
C289 C290 1.387 . S
C290 H275 0.930 . S
C290 C285 1.390 . S
C290 C289 1.387 . S
H291 C303 0.930 . S
H292 C305 0.930 . S
H293 C306 0.930 . S
H294 C310 0.959 . S
H295 C310 0.959 . S
H296 C310 0.961 . S
H297 C311 0.960 . S
H298 C311 0.961 . S
H299 C311 0.959 . S
H300 C314 0.929 . S
H301 C315 0.931 . S
H302 C317 0.930 . S
C303 H291 0.930 . S
C303 C304 1.399 . S
C303 C308 1.399 . S
C304 C303 1.399 . S
C304 C305 1.376 . S
C305 H292 0.930 . S
C305 C304 1.376 . S
C305 C306 1.388 . S
C306 H293 0.930 . S
C306 C305 1.388 . S
C306 C307 1.390 . S
C307 C306 1.390 . S
C307 C308 1.394 . S
C307 C313 1.465 . S
C308 C303 1.399 . S
C308 C307 1.394 . S
C308 C309 1.516 . S
C309 C308 1.516 . S
C309 C310 1.502 . S
C309 C311 1.561 . S
C309 C312 1.526 . S
C310 H294 0.959 . S
C310 H295 0.959 . S
C310 H296 0.961 . S
C310 C309 1.502 . S
C311 H297 0.960 . S
C311 H298 0.961 . S
C311 H299 0.959 . S
C311 C309 1.561 . S
C312 C309 1.526 . S
C312 C313 1.396 . S
C312 C317 1.390 . S
C313 C307 1.465 . S
C313 C312 1.396 . S
C313 C314 1.399 . S
C314 H300 0.929 . S
C314 C313 1.399 . S
C314 C315 1.385 . S
C315 H301 0.931 . S
C315 C314 1.385 . S
C315 C316 1.389 . S
C316 C315 1.389 . S
C316 C317 1.387 . S
C317 H302 0.930 . S
C317 C312 1.390 . S
C317 C316 1.387 . S
H318 C330 0.930 . S
H319 C332 0.930 . S
H320 C333 0.930 . S
H321 C337 0.959 . S
H322 C337 0.959 . S
H323 C337 0.961 . S
H324 C338 0.960 . S
H325 C338 0.961 . S
H326 C338 0.959 . S
H327 C341 0.929 . S
H328 C342 0.931 . S
H329 C344 0.930 . S
C330 H318 0.930 . S
C330 C331 1.399 . S
C330 C335 1.399 . S
C331 C330 1.399 . S
C331 C332 1.376 . S
C332 H319 0.930 . S
C332 C331 1.376 . S
C332 C333 1.388 . S
C333 H320 0.930 . S
C333 C332 1.388 . S
C333 C334 1.390 . S
C334 C333 1.390 . S
C334 C335 1.394 . S
C334 C340 1.465 . S
C335 C330 1.399 . S
C335 C334 1.394 . S
C335 C336 1.516 . S
C336 C335 1.516 . S
C336 C337 1.502 1_556 S
C336 C338 1.561 . S
C336 C339 1.526 . S
C337 H321 0.959 . S
C337 H322 0.959 . S
C337 H323 0.961 . S
C337 C336 1.502 1_554 S
C338 H324 0.960 . S
C338 H325 0.961 . S
C338 H326 0.959 . S
C338 C336 1.561 . S
C339 C336 1.526 . S
C339 C340 1.396 . S
C339 C344 1.390 . S
C340 C334 1.465 . S
C340 C339 1.396 . S
C340 C341 1.399 . S
C341 H327 0.929 . S
C341 C340 1.399 . S
C341 C342 1.385 . S
C342 H328 0.931 . S
C342 C341 1.385 . S
C342 C343 1.389 . S
C343 C342 1.389 . S
C343 C344 1.387 . S
C344 H329 0.930 . S
C344 C339 1.390 . S
C344 C343 1.387 . S
H345 C357 0.930 . S
H346 C359 0.930 . S
H347 C360 0.930 . S
H348 C364 0.959 . S
H349 C364 0.959 . S
H350 C364 0.961 . S
H351 C365 0.960 . S
H352 C365 0.961 . S
H353 C365 0.959 . S
H354 C368 0.929 . S
H355 C369 0.931 1_554 S
H356 C371 0.930 . S
C357 H345 0.930 . S
C357 C358 1.399 . S
C357 C362 1.399 . S
C358 C357 1.399 . S
C358 C359 1.376 . S
C359 H346 0.930 . S
C359 C358 1.376 . S
C359 C360 1.388 . S
C360 H347 0.930 . S
C360 C359 1.388 . S
C360 C361 1.390 . S
C361 C360 1.390 . S
C361 C362 1.394 . S
C361 C367 1.465 . S
C362 C357 1.399 . S
C362 C361 1.394 . S
C362 C363 1.516 . S
C363 C362 1.516 . S
C363 C364 1.502 . S
C363 C365 1.561 . S
C363 C366 1.526 . S
C364 H348 0.959 . S
C364 H349 0.959 . S
C364 H350 0.961 . S
C364 C363 1.502 . S
C365 H351 0.960 . S
C365 H352 0.961 . S
C365 H353 0.959 . S
C365 C363 1.561 . S
C366 C363 1.526 . S
C366 C367 1.396 . S
C366 C371 1.390 . S
C367 C361 1.465 . S
C367 C366 1.396 . S
C367 C368 1.399 . S
C368 H354 0.929 . S
C368 C367 1.399 . S
C368 C369 1.385 . S
C369 H355 0.931 1_556 S
C369 C368 1.385 . S
C369 C370 1.389 . S
C370 C369 1.389 . S
C370 C371 1.387 . S
C371 H356 0.930 . S
C371 C366 1.390 . S
C371 C370 1.387 . S
H372 C384 0.930 . S
H373 C386 0.930 . S
H374 C387 0.930 . S
H375 C391 0.959 . S
H376 C391 0.959 . S
H377 C391 0.961 . S
H378 C392 0.956 1_565 S
H379 C392 0.958 . S
H380 C392 0.977 . S
H381 C395 0.929 . S
H382 C396 0.931 . S
H383 C398 0.930 . S
C384 H372 0.930 . S
C384 C385 1.399 1_556 S
C384 C389 1.399 . S
C385 C384 1.399 1_554 S
C385 C386 1.376 . S
C386 H373 0.930 . S
C386 C385 1.376 . S
C386 C387 1.388 . S
C387 H374 0.930 . S
C387 C386 1.388 . S
C387 C388 1.390 . S
C388 C387 1.390 . S
C388 C389 1.394 1_554 S
C388 C394 1.465 . S
C389 C384 1.399 . S
C389 C388 1.394 1_556 S
C389 C390 1.516 . S
C390 C389 1.516 . S
C390 C391 1.502 . S
C390 C392 1.551 1_565 S
C390 C393 1.526 . S
C391 H375 0.959 . S
C391 H376 0.959 . S
C391 H377 0.961 . S
C391 C390 1.502 . S
C392 H378 0.956 1_545 S
C392 H379 0.958 . S
C392 H380 0.977 . S
C392 C390 1.551 1_545 S
C393 C390 1.526 . S
C393 C394 1.396 1_556 S
C393 C398 1.390 . S
C394 C388 1.465 . S
C394 C393 1.396 1_554 S
C394 C395 1.399 1_565 S
C395 H381 0.929 . S
C395 C394 1.399 1_545 S
C395 C396 1.385 . S
C396 H382 0.931 . S
C396 C395 1.385 . S
C396 C397 1.389 1_554 S
C397 C396 1.389 1_556 S
C397 C398 1.387 1_545 S
C398 H383 0.930 . S
C398 C393 1.390 . S
C398 C397 1.387 1_565 S
H399 C411 0.930 . S
H400 C413 0.930 . S
H401 C414 0.930 . S
H402 C418 0.959 . S
H403 C418 0.959 . S
H404 C418 0.961 . S
H405 C419 0.960 . S
H406 C419 0.961 . S
H407 C419 0.959 . S
H408 C422 0.929 . S
H409 C423 0.931 . S
H410 C425 0.930 . S
C411 H399 0.930 . S
C411 C412 1.399 . S
C411 C416 1.399 . S
C412 C411 1.399 . S
C412 C413 1.376 . S
C413 H400 0.930 . S
C413 C412 1.376 . S
C413 C414 1.388 . S
C414 H401 0.930 . S
C414 C413 1.388 . S
C414 C415 1.390 . S
C415 C414 1.390 . S
C415 C416 1.394 . S
C415 C421 1.465 . S
C416 C411 1.399 . S
C416 C415 1.394 . S
C416 C417 1.516 . S
C417 C416 1.516 . S
C417 C418 1.502 . S
C417 C419 1.561 . S
C417 C420 1.526 . S
C418 H402 0.959 . S
C418 H403 0.959 . S
C418 H404 0.961 . S
C418 C417 1.502 . S
C419 H405 0.960 . S
C419 H406 0.961 . S
C419 H407 0.959 . S
C419 C417 1.561 . S
C420 C417 1.526 . S
C420 C421 1.396 . S
C420 C425 1.390 . S
C421 C415 1.465 . S
C421 C420 1.396 . S
C421 C422 1.399 . S
C422 H408 0.929 . S
C422 C421 1.399 . S
C422 C423 1.385 . S
C423 H409 0.931 . S
C423 C422 1.385 . S
C423 C424 1.389 . S
C424 C423 1.389 . S
C424 C425 1.387 . S
C425 H410 0.930 . S
C425 C420 1.390 . S
C425 C424 1.387 . S
H426 C438 0.930 . S
H427 C440 0.930 . S
H428 C441 0.930 . S
H429 C445 0.959 . S
H430 C445 0.959 . S
H431 C445 0.961 . S
H432 C446 0.960 . S
H433 C446 0.961 . S
H434 C446 0.959 . S
H435 C449 0.929 . S
H436 C450 0.931 . S
H437 C452 0.930 . S
C438 H426 0.930 . S
C438 C439 1.399 . S
C438 C443 1.399 . S
C439 C438 1.399 . S
C439 C440 1.376 . S
C440 H427 0.930 . S
C440 C439 1.376 . S
C440 C441 1.388 . S
C441 H428 0.930 . S
C441 C440 1.388 . S
C441 C442 1.390 . S
C442 C441 1.390 . S
C442 C443 1.394 . S
C442 C448 1.465 . S
C443 C438 1.399 . S
C443 C442 1.394 . S
C443 C444 1.516 . S
C444 C443 1.516 . S
C444 C445 1.502 1_556 S
C444 C446 1.561 . S
C444 C447 1.526 . S
C445 H429 0.959 . S
C445 H430 0.959 . S
C445 H431 0.961 . S
C445 C444 1.502 1_554 S
C446 H432 0.960 . S
C446 H433 0.961 . S
C446 H434 0.959 . S
C446 C444 1.561 . S
C447 C444 1.526 . S
C447 C448 1.396 . S
C447 C452 1.390 . S
C448 C442 1.465 . S
C448 C447 1.396 . S
C448 C449 1.399 . S
C449 H435 0.929 . S
C449 C448 1.399 . S
C449 C450 1.385 . S
C450 H436 0.931 . S
C450 C449 1.385 . S
C450 C451 1.389 . S
C451 C450 1.389 . S
C451 C452 1.387 . S
C452 H437 0.930 . S
C452 C447 1.390 . S
C452 C451 1.387 . S
H453 C465 0.930 . S
H454 C467 0.930 . S
H455 C468 0.930 . S
H456 C472 0.959 . S
H457 C472 0.959 . S
H458 C472 0.961 . S
H459 C473 0.960 . S
H460 C473 0.961 . S
H461 C473 0.959 . S
H462 C476 0.929 . S
H463 C477 0.931 . S
H464 C479 0.930 . S
C465 H453 0.930 . S
C465 C466 1.399 1_455 S
C465 C470 1.399 . S
C466 C465 1.399 1_655 S
C466 C467 1.376 . S
C467 H454 0.930 . S
C467 C466 1.376 . S
C467 C468 1.388 . S
C468 H455 0.930 . S
C468 C467 1.388 . S
C468 C469 1.390 . S
C469 C468 1.390 . S
C469 C470 1.394 1_655 S
C469 C475 1.451 1_655 S
C470 C465 1.399 . S
C470 C469 1.394 1_455 S
C470 C471 1.516 1_554 S
C471 C470 1.516 1_556 S
C471 C472 1.502 . S
C471 C473 1.561 1_556 S
C471 C474 1.526 . S
C472 H456 0.959 . S
C472 H457 0.959 . S
C472 H458 0.961 . S
C472 C471 1.502 . S
C473 H459 0.960 . S
C473 H460 0.961 . S
C473 H461 0.959 . S
C473 C471 1.561 1_554 S
C474 C471 1.526 . S
C474 C475 1.434 1_556 S
C474 C479 1.390 . S
C475 C469 1.451 1_455 S
C475 C474 1.434 1_554 S
C475 C476 1.383 1_455 S
C476 H462 0.929 . S
C476 C475 1.383 1_655 S
C476 C477 1.385 . S
C477 H463 0.931 . S
C477 C476 1.385 . S
C477 C478 1.389 1_654 S
C478 C477 1.389 1_456 S
C478 C479 1.387 . S
C479 H464 0.930 . S
C479 C474 1.390 . S
C479 C478 1.387 . S
H480 C492 0.930 . S
H481 C494 0.930 . S
H482 C495 0.930 . S
H483 C499 0.984 . S
H484 C499 0.959 . S
H485 C499 0.961 . S
H486 C500 0.960 . S
H487 C500 0.961 . S
H488 C500 0.959 . S
H489 C503 0.929 . S
H490 C504 0.931 . S
H491 C506 0.930 . S
C492 H480 0.930 . S
C492 C493 1.399 . S
C492 C497 1.399 . S
C493 C492 1.399 . S
C493 C494 1.376 . S
C494 H481 0.930 . S
C494 C493 1.376 . S
C494 C495 1.388 . S
C495 H482 0.930 . S
C495 C494 1.388 . S
C495 C496 1.390 . S
C496 C495 1.390 . S
C496 C497 1.394 . S
C496 C502 1.465 . S
C497 C492 1.399 . S
C497 C496 1.394 . S
C497 C498 1.516 . S
C498 C497 1.516 . S
C498 C499 1.502 . S
C498 C500 1.561 . S
C498 C501 1.526 . S
C499 H483 0.984 . S
C499 H484 0.959 . S
C499 H485 0.961 . S
C499 C498 1.502 . S
C500 H486 0.960 . S
C500 H487 0.961 . S
C500 H488 0.959 . S
C500 C498 1.561 . S
C501 C498 1.526 . S
C501 C502 1.396 . S
C501 C506 1.390 . S
C502 C496 1.465 . S
C502 C501 1.396 . S
C502 C503 1.399 . S
C503 H489 0.929 . S
C503 C502 1.399 . S
C503 C504 1.385 . S
C504 H490 0.931 . S
C504 C503 1.385 . S
C504 C505 1.389 . S
C505 C504 1.389 . S
C505 C506 1.387 . S
C506 H491 0.930 . S
C506 C501 1.390 . S
C506 C505 1.387 . S
H507 C519 0.930 . S
H508 C521 0.930 . S
H509 C522 0.930 . S
H510 C526 0.959 . S
H511 C526 0.959 . S
H512 C526 0.961 . S
H513 C527 0.960 . S
H514 C527 0.961 . S
H515 C527 0.959 . S
H516 C530 0.929 . S
H517 C531 0.970 . S
H518 C533 0.930 . S
C519 H507 0.930 . S
C519 C520 1.399 . S
C519 C524 1.399 . S
C520 C519 1.399 . S
C520 C521 1.376 . S
C521 H508 0.930 . S
C521 C520 1.376 . S
C521 C522 1.388 . S
C522 H509 0.930 . S
C522 C521 1.388 . S
C522 C523 1.390 . S
C523 C522 1.390 . S
C523 C524 1.394 . S
C523 C529 1.465 . S
C524 C519 1.399 . S
C524 C523 1.394 . S
C524 C525 1.516 . S
C525 C524 1.516 . S
C525 C526 1.502 . S
C525 C527 1.561 1_556 S
C525 C528 1.526 . S
C526 H510 0.959 . S
C526 H511 0.959 . S
C526 H512 0.961 . S
C526 C525 1.502 . S
C527 H513 0.960 . S
C527 H514 0.961 . S
C527 H515 0.959 . S
C527 C525 1.561 1_554 S
C528 C525 1.526 . S
C528 C529 1.396 . S
C528 C533 1.390 . S
C529 C523 1.465 . S
C529 C528 1.396 . S
C529 C530 1.399 . S
C530 H516 0.929 . S
C530 C529 1.399 . S
C530 C531 1.385 . S
C531 H517 0.970 . S
C531 C530 1.385 . S
C531 C532 1.389 . S
C532 C531 1.389 . S
C532 C533 1.387 . S
C533 H518 0.930 . S
C533 C528 1.390 . S
C533 C532 1.387 . S
H534 C546 0.930 . S
H535 C548 0.930 . S
H536 C549 0.930 . S
H537 C553 0.959 . S
H538 C553 0.959 . S
H539 C553 0.961 . S
H540 C554 0.960 . S
H541 C554 0.961 . S
H542 C554 0.959 . S
H543 C557 0.929 . S
H544 C558 0.931 . S
H545 C560 0.930 . S
C546 H534 0.930 . S
C546 C547 1.399 . S
C546 C551 1.399 . S
C547 C546 1.399 . S
C547 C548 1.376 . S
C548 H535 0.930 . S
C548 C547 1.376 . S
C548 C549 1.388 . S
C549 H536 0.930 . S
C549 C548 1.388 . S
C549 C550 1.390 . S
C550 C549 1.390 . S
C550 C551 1.394 . S
C550 C556 1.465 . S
C551 C546 1.399 . S
C551 C550 1.394 . S
C551 C552 1.516 . S
C552 C551 1.516 . S
C552 C553 1.502 . S
C552 C554 1.561 . S
C552 C555 1.526 . S
C553 H537 0.959 . S
C553 H538 0.959 . S
C553 H539 0.961 . S
C553 C552 1.502 . S
C554 H540 0.960 . S
C554 H541 0.961 . S
C554 H542 0.959 . S
C554 C552 1.561 . S
C555 C552 1.526 . S
C555 C556 1.396 . S
C555 C560 1.390 . S
C556 C550 1.465 . S
C556 C555 1.396 . S
C556 C557 1.399 . S
C557 H543 0.929 . S
C557 C556 1.399 . S
C557 C558 1.385 . S
C558 H544 0.931 . S
C558 C557 1.385 . S
C558 C559 1.389 . S
C559 C558 1.389 . S
C559 C560 1.387 . S
C560 H545 0.930 . S
C560 C555 1.390 . S
C560 C559 1.387 . S
H561 C573 0.930 . S
H562 C575 0.930 . S
H563 C576 0.930 . S
H564 C580 0.959 1_556 S
H565 C580 0.959 . S
H566 C580 0.961 . S
H567 C581 0.960 . S
H568 C581 0.961 . S
H569 C581 0.959 . S
H570 C584 0.929 . S
H571 C585 0.931 . S
H572 C587 0.930 1_554 S
C573 H561 0.930 . S
C573 C574 1.399 . S
C573 C578 1.399 . S
C574 C573 1.399 . S
C574 C575 1.376 . S
C575 H562 0.930 . S
C575 C574 1.376 . S
C575 C576 1.388 . S
C576 H563 0.930 . S
C576 C575 1.388 . S
C576 C577 1.390 . S
C577 C576 1.390 . S
C577 C578 1.394 . S
C577 C583 1.465 . S
C578 C573 1.399 . S
C578 C577 1.394 . S
C578 C579 1.516 . S
C579 C578 1.516 . S
C579 C580 1.502 1_556 S
C579 C581 1.561 1_556 S
C579 C582 1.526 . S
C580 H564 0.959 1_554 S
C580 H565 0.959 . S
C580 H566 0.961 . S
C580 C579 1.502 1_554 S
C581 H567 0.960 . S
C581 H568 0.961 . S
C581 H569 0.959 . S
C581 C579 1.561 1_554 S
C582 C579 1.526 . S
C582 C583 1.396 . S
C582 C587 1.390 . S
C583 C577 1.465 . S
C583 C582 1.396 . S
C583 C584 1.399 . S
C584 H570 0.929 . S
C584 C583 1.399 . S
C584 C585 1.385 . S
C585 H571 0.931 . S
C585 C584 1.385 . S
C585 C586 1.389 . S
C586 C585 1.389 . S
C586 C587 1.387 . S
C587 H572 0.930 1_556 S
C587 C582 1.390 . S
C587 C586 1.387 . S
H588 C600 0.930 . S
H589 C602 0.930 . S
H590 C603 0.930 . S
H591 C607 0.959 . S
H592 C607 0.959 . S
H593 C607 0.961 . S
H594 C608 0.960 . S
H595 C608 0.961 1_455 S
H596 C608 0.959 . S
H597 C611 0.934 . S
H598 C612 0.931 . S
H599 C614 0.930 . S
C600 H588 0.930 . S
C600 C601 1.399 1_456 S
C600 C605 1.399 . S
C601 C600 1.399 1_654 S
C601 C602 1.376 . S
C602 H589 0.930 . S
C602 C601 1.376 . S
C602 C603 1.388 . S
C603 H590 0.930 . S
C603 C602 1.388 . S
C603 C604 1.390 . S
C604 C603 1.390 . S
C604 C605 1.394 1_654 S
C604 C610 1.465 1_655 S
C605 C600 1.399 . S
C605 C604 1.394 1_456 S
C605 C606 1.516 . S
C606 C605 1.516 . S
C606 C607 1.502 . S
C606 C608 1.561 1_455 S
C606 C609 1.526 . S
C607 H591 0.959 . S
C607 H592 0.959 . S
C607 H593 0.961 . S
C607 C606 1.502 . S
C608 H594 0.960 . S
C608 H595 0.961 1_655 S
C608 H596 0.959 . S
C608 C606 1.561 1_655 S
C609 C606 1.526 . S
C609 C610 1.396 1_556 S
C609 C614 1.390 . S
C610 C604 1.465 1_455 S
C610 C609 1.396 1_554 S
C610 C611 1.396 1_455 S
C611 H597 0.934 . S
C611 C610 1.396 1_655 S
C611 C612 1.383 1_655 S
C612 H598 0.931 . S
C612 C611 1.383 1_455 S
C612 C613 1.389 1_554 S
C613 C612 1.389 1_556 S
C613 C614 1.387 . S
C614 H599 0.930 . S
C614 C609 1.390 . S
C614 C613 1.387 . S
H615 C627 0.930 . S
H616 C629 0.930 . S
H617 C630 0.930 . S
H618 C634 0.997 . S
H619 C634 0.966 . S
H620 C634 0.935 1_565 S
H621 C635 0.960 . S
H622 C635 0.961 . S
H623 C635 0.959 . S
H624 C638 0.929 . S
H625 C639 0.931 . S
H626 C641 0.930 . S
C627 H615 0.930 . S
C627 C628 1.399 1_556 S
C627 C632 1.399 . S
C628 C627 1.399 1_554 S
C628 C629 1.376 . S
C629 H616 0.930 . S
C629 C628 1.376 . S
C629 C630 1.388 . S
C630 H617 0.930 . S
C630 C629 1.388 . S
C630 C631 1.390 . S
C631 C630 1.390 . S
C631 C632 1.394 1_554 S
C631 C637 1.465 . S
C632 C627 1.399 . S
C632 C631 1.394 1_556 S
C632 C633 1.516 . S
C633 C632 1.516 . S
C633 C634 1.487 1_565 S
C633 C635 1.561 . S
C633 C636 1.526 . S
C634 H618 0.997 . S
C634 H619 0.966 . S
C634 H620 0.935 1_545 S
C634 C633 1.487 1_545 S
C635 H621 0.960 . S
C635 H622 0.961 . S
C635 H623 0.959 . S
C635 C633 1.561 . S
C636 C633 1.526 . S
C636 C637 1.396 1_556 S
C636 C641 1.390 1_565 S
C637 C631 1.465 . S
C637 C636 1.396 1_554 S
C637 C638 1.399 1_565 S
C638 H624 0.929 . S
C638 C637 1.399 1_545 S
C638 C639 1.385 . S
C639 H625 0.931 . S
C639 C638 1.385 . S
C639 C640 1.389 1_554 S
C640 C639 1.389 1_556 S
C640 C641 1.387 . S
C641 H626 0.930 . S
C641 C636 1.390 1_545 S
C641 C640 1.387 . S
H642 C654 0.930 . S
H643 C656 0.930 . S
H644 C657 0.930 . S
H645 C661 0.959 . S
H646 C661 0.959 . S
H647 C661 0.961 . S
H648 C662 0.960 . S
H649 C662 0.961 . S
H650 C662 0.959 . S
H651 C665 0.929 . S
H652 C666 0.931 . S
H653 C668 0.930 . S
C654 H642 0.930 . S
C654 C655 1.399 . S
C654 C659 1.399 . S
C655 C654 1.399 . S
C655 C656 1.376 . S
C656 H643 0.930 . S
C656 C655 1.376 . S
C656 C657 1.388 . S
C657 H644 0.930 . S
C657 C656 1.388 . S
C657 C658 1.390 . S
C658 C657 1.390 . S
C658 C659 1.394 . S
C658 C664 1.465 . S
C659 C654 1.399 . S
C659 C658 1.394 . S
C659 C660 1.516 . S
C660 C659 1.516 . S
C660 C661 1.502 . S
C660 C662 1.561 . S
C660 C663 1.526 . S
C661 H645 0.959 . S
C661 H646 0.959 . S
C661 H647 0.961 . S
C661 C660 1.502 . S
C662 H648 0.960 . S
C662 H649 0.961 . S
C662 H650 0.959 . S
C662 C660 1.561 . S
C663 C660 1.526 . S
C663 C664 1.396 . S
C663 C668 1.390 . S
C664 C658 1.465 . S
C664 C663 1.396 . S
C664 C665 1.399 . S
C665 H651 0.929 . S
C665 C664 1.399 . S
C665 C666 1.385 . S
C666 H652 0.931 . S
C666 C665 1.385 . S
C666 C667 1.389 . S
C667 C666 1.389 . S
C667 C668 1.387 . S
C668 H653 0.930 . S
C668 C663 1.390 . S
C668 C667 1.387 . S
H669 C681 0.930 . S
H670 C683 0.930 . S
H671 C684 0.930 . S
H672 C688 0.959 . S
H673 C688 0.959 . S
H674 C688 0.961 . S
H675 C689 0.960 . S
H676 C689 0.961 . S
H677 C689 0.959 . S
H678 C692 0.929 . S
H679 C693 0.931 . S
H680 C695 0.930 . S
C681 H669 0.930 . S
C681 C682 1.399 . S
C681 C686 1.399 . S
C682 C681 1.399 . S
C682 C683 1.376 1_556 S
C683 H670 0.930 . S
C683 C682 1.376 1_554 S
C683 C684 1.388 . S
C684 H671 0.930 . S
C684 C683 1.388 . S
C684 C685 1.390 1_554 S
C685 C684 1.390 1_556 S
C685 C686 1.394 . S
C685 C691 1.465 . S
C686 C681 1.399 . S
C686 C685 1.394 . S
C686 C687 1.516 . S
C687 C686 1.516 . S
C687 C688 1.502 . S
C687 C689 1.561 . S
C687 C690 1.526 . S
C688 H672 0.959 . S
C688 H673 0.959 . S
C688 H674 0.961 . S
C688 C687 1.502 . S
C689 H675 0.960 . S
C689 H676 0.961 . S
C689 H677 0.959 . S
C689 C687 1.561 . S
C690 C687 1.526 . S
C690 C691 1.396 . S
C690 C695 1.390 . S
C691 C685 1.465 . S
C691 C690 1.396 . S
C691 C692 1.399 1_556 S
C692 H678 0.929 . S
C692 C691 1.399 1_554 S
C692 C693 1.385 . S
C693 H679 0.931 . S
C693 C692 1.385 . S
C693 C694 1.389 1_554 S
C694 C693 1.389 1_556 S
C694 C695 1.387 . S
C695 H680 0.930 . S
C695 C690 1.390 . S
C695 C694 1.387 . S
H696 C708 0.930 . S
H697 C710 0.930 . S
H698 C711 0.930 . S
H699 C715 0.959 . S
H700 C715 0.959 . S
H701 C715 0.961 . S
H702 C716 0.960 . S
H703 C716 0.961 . S
H704 C716 0.959 . S
H705 C719 0.929 . S
H706 C720 0.931 . S
H707 C722 0.930 . S
C708 H696 0.930 . S
C708 C709 1.399 . S
C708 C713 1.399 . S
C709 C708 1.399 . S
C709 C710 1.376 . S
C710 H697 0.930 . S
C710 C709 1.376 . S
C710 C711 1.388 . S
C711 H698 0.930 . S
C711 C710 1.388 . S
C711 C712 1.390 . S
C712 C711 1.390 . S
C712 C713 1.394 . S
C712 C718 1.465 . S
C713 C708 1.399 . S
C713 C712 1.394 . S
C713 C714 1.516 . S
C714 C713 1.516 . S
C714 C715 1.502 . S
C714 C716 1.561 . S
C714 C717 1.526 . S
C715 H699 0.959 . S
C715 H700 0.959 . S
C715 H701 0.961 . S
C715 C714 1.502 . S
C716 H702 0.960 . S
C716 H703 0.961 . S
C716 H704 0.959 . S
C716 C714 1.561 . S
C717 C714 1.526 . S
C717 C718 1.396 . S
C717 C722 1.390 . S
C718 C712 1.465 . S
C718 C717 1.396 . S
C718 C719 1.399 . S
C719 H705 0.929 . S
C719 C718 1.399 . S
C719 C720 1.385 . S
C720 H706 0.931 . S
C720 C719 1.385 . S
C720 C721 1.389 . S
C721 C720 1.389 . S
C721 C722 1.387 . S
C722 H707 0.930 . S
C722 C717 1.390 . S
C722 C721 1.387 . S
H723 C735 0.930 . S
H724 C737 0.930 . S
H725 C738 0.930 . S
H726 C742 0.959 . S
H727 C742 0.959 . S
H728 C742 0.961 . S
H729 C743 0.960 . S
H730 C743 0.961 . S
H731 C743 0.959 . S
H732 C746 0.929 . S
H733 C747 0.931 . S
H734 C749 0.930 . S
C735 H723 0.930 . S
C735 C736 1.399 . S
C735 C740 1.399 . S
C736 C735 1.399 . S
C736 C737 1.376 . S
C737 H724 0.930 . S
C737 C736 1.376 . S
C737 C738 1.388 . S
C738 H725 0.930 . S
C738 C737 1.388 . S
C738 C739 1.390 . S
C739 C738 1.390 . S
C739 C740 1.394 . S
C739 C745 1.465 . S
C740 C735 1.399 . S
C740 C739 1.394 . S
C740 C741 1.516 . S
C741 C740 1.516 . S
C741 C742 1.502 . S
C741 C743 1.561 . S
C741 C744 1.526 . S
C742 H726 0.959 . S
C742 H727 0.959 . S
C742 H728 0.961 . S
C742 C741 1.502 . S
C743 H729 0.960 . S
C743 H730 0.961 . S
C743 H731 0.959 . S
C743 C741 1.561 . S
C744 C741 1.526 . S
C744 C745 1.396 . S
C744 C749 1.390 . S
C745 C739 1.465 . S
C745 C744 1.396 . S
C745 C746 1.399 . S
C746 H732 0.929 . S
C746 C745 1.399 . S
C746 C747 1.385 . S
C747 H733 0.931 . S
C747 C746 1.385 . S
C747 C748 1.389 . S
C748 C747 1.389 . S
C748 C749 1.387 . S
C749 H734 0.930 . S
C749 C744 1.390 . S
C749 C748 1.387 . S
H750 C762 0.930 . S
H751 C764 0.930 . S
H752 C765 0.930 . S
H753 C769 0.959 . S
H754 C769 0.959 . S
H755 C769 0.961 . S
H756 C770 0.960 . S
H757 C770 0.961 . S
H758 C770 0.959 . S
H759 C773 0.929 1_556 S
H760 C774 0.931 . S
H761 C776 0.930 . S
C762 H750 0.930 . S
C762 C763 1.399 . S
C762 C767 1.399 . S
C763 C762 1.399 . S
C763 C764 1.376 . S
C764 H751 0.930 . S
C764 C763 1.376 . S
C764 C765 1.388 . S
C765 H752 0.930 . S
C765 C764 1.388 . S
C765 C766 1.390 . S
C766 C765 1.390 . S
C766 C767 1.394 . S
C766 C772 1.465 . S
C767 C762 1.399 . S
C767 C766 1.394 . S
C767 C768 1.516 . S
C768 C767 1.516 . S
C768 C769 1.502 . S
C768 C770 1.561 . S
C768 C771 1.526 . S
C769 H753 0.959 . S
C769 H754 0.959 . S
C769 H755 0.961 . S
C769 C768 1.502 . S
C770 H756 0.960 . S
C770 H757 0.961 . S
C770 H758 0.959 . S
C770 C768 1.561 . S
C771 C768 1.526 . S
C771 C772 1.396 . S
C771 C776 1.390 . S
C772 C766 1.465 . S
C772 C771 1.396 . S
C772 C773 1.399 . S
C773 H759 0.929 1_554 S
C773 C772 1.399 . S
C773 C774 1.385 1_554 S
C774 H760 0.931 . S
C774 C773 1.385 1_556 S
C774 C775 1.389 1_556 S
C775 C774 1.389 1_554 S
C775 C776 1.387 . S
C776 H761 0.930 . S
C776 C771 1.390 . S
C776 C775 1.387 . S
H777 C789 0.930 . S
H778 C791 0.930 . S
H779 C792 0.930 . S
H780 C796 0.959 . S
H781 C796 0.959 . S
H782 C796 0.961 . S
H783 C797 0.960 . S
H784 C797 0.961 . S
H785 C797 0.959 . S
H786 C800 0.929 . S
H787 C801 0.931 . S
H788 C803 0.930 . S
C789 H777 0.930 . S
C789 C790 1.399 . S
C789 C794 1.399 . S
C790 C789 1.399 . S
C790 C791 1.376 . S
C791 H778 0.930 . S
C791 C790 1.376 . S
C791 C792 1.388 . S
C792 H779 0.930 . S
C792 C791 1.388 . S
C792 C793 1.390 . S
C793 C792 1.390 . S
C793 C794 1.394 . S
C793 C799 1.465 . S
C794 C789 1.399 . S
C794 C793 1.394 . S
C794 C795 1.516 . S
C795 C794 1.516 . S
C795 C796 1.502 . S
C795 C797 1.561 . S
C795 C798 1.526 . S
C796 H780 0.959 . S
C796 H781 0.959 . S
C796 H782 0.961 . S
C796 C795 1.502 . S
C797 H783 0.960 . S
C797 H784 0.961 . S
C797 H785 0.959 . S
C797 C795 1.561 . S
C798 C795 1.526 . S
C798 C799 1.396 . S
C798 C803 1.390 . S
C799 C793 1.465 . S
C799 C798 1.396 . S
C799 C800 1.399 . S
C800 H786 0.929 . S
C800 C799 1.399 . S
C800 C801 1.385 . S
C801 H787 0.931 . S
C801 C800 1.385 . S
C801 C802 1.389 . S
C802 C801 1.389 . S
C802 C803 1.387 . S
C803 H788 0.930 . S
C803 C798 1.390 . S
C803 C802 1.387 . S
H804 C816 0.930 . S
H805 C818 0.930 . S
H806 C819 0.930 . S
H807 C823 0.959 . S
H808 C823 0.959 . S
H809 C823 0.961 . S
H810 C824 0.960 . S
H811 C824 0.961 . S
H812 C824 0.959 . S
H813 C827 0.929 . S
H814 C828 0.931 . S
H815 C830 0.930 . S
C816 H804 0.930 . S
C816 C817 1.399 1_455 S
C816 C821 1.395 1_455 S
C817 C816 1.399 1_655 S
C817 C818 1.376 . S
C818 H805 0.930 . S
C818 C817 1.376 . S
C818 C819 1.388 . S
C819 H806 0.930 . S
C819 C818 1.388 . S
C819 C820 1.390 . S
C820 C819 1.390 . S
C820 C821 1.404 . S
C820 C826 1.465 . S
C821 C816 1.395 1_655 S
C821 C820 1.404 . S
C821 C822 1.513 1_655 S
C822 C821 1.513 1_455 S
C822 C823 1.502 . S
C822 C824 1.561 1_455 S
C822 C825 1.526 . S
C823 H807 0.959 . S
C823 H808 0.959 . S
C823 H809 0.961 . S
C823 C822 1.502 . S
C824 H810 0.960 . S
C824 H811 0.961 . S
C824 H812 0.959 . S
C824 C822 1.561 1_655 S
C825 C822 1.526 . S
C825 C826 1.396 1_455 S
C825 C830 1.390 . S
C826 C820 1.465 . S
C826 C825 1.396 1_655 S
C826 C827 1.399 . S
C827 H813 0.929 . S
C827 C826 1.399 . S
C827 C828 1.385 . S
C828 H814 0.931 . S
C828 C827 1.385 . S
C828 C829 1.403 . S
C829 C828 1.403 . S
C829 C830 1.377 1_655 S
C830 H815 0.930 . S
C830 C825 1.390 . S
C830 C829 1.377 1_455 S
H831 C843 0.930 . S
H832 C845 0.930 . S
H833 C846 0.930 . S
H834 C850 0.959 1_565 S
H835 C850 0.959 . S
H836 C850 0.961 . S
H837 C851 0.960 . S
H838 C851 0.961 . S
H839 C851 0.959 . S
H840 C854 0.929 . S
H841 C855 0.931 . S
H842 C857 0.930 . S
C843 H831 0.930 . S
C843 C844 1.399 . S
C843 C848 1.399 . S
C844 C843 1.399 . S
C844 C845 1.376 . S
C845 H832 0.930 . S
C845 C844 1.376 . S
C845 C846 1.388 . S
C846 H833 0.930 . S
C846 C845 1.388 . S
C846 C847 1.390 . S
C847 C846 1.390 . S
C847 C848 1.394 . S
C847 C853 1.465 . S
C848 C843 1.399 . S
C848 C847 1.394 . S
C848 C849 1.516 . S
C849 C848 1.516 . S
C849 C850 1.502 1_565 S
C849 C851 1.561 1_565 S
C849 C852 1.526 . S
C850 H834 0.959 1_545 S
C850 H835 0.959 . S
C850 H836 0.961 . S
C850 C849 1.502 1_545 S
C851 H837 0.960 . S
C851 H838 0.961 . S
C851 H839 0.959 . S
C851 C849 1.561 1_545 S
C852 C849 1.526 . S
C852 C853 1.396 . S
C852 C857 1.390 . S
C853 C847 1.465 . S
C853 C852 1.396 . S
C853 C854 1.399 . S
C854 H840 0.929 . S
C854 C853 1.399 . S
C854 C855 1.385 . S
C855 H841 0.931 . S
C855 C854 1.385 . S
C855 C856 1.389 . S
C856 C855 1.389 . S
C856 C857 1.387 . S
C857 H842 0.930 . S
C857 C852 1.390 . S
C857 C856 1.387 . S
H858 C870 0.930 . S
H859 C872 0.930 . S
H860 C873 0.930 . S
H861 C877 0.959 . S
H862 C877 0.959 . S
H863 C877 0.961 . S
H864 C878 0.960 . S
H865 C878 0.961 . S
H866 C878 0.959 . S
H867 C881 0.929 . S
H868 C882 0.931 . S
H869 C884 0.930 . S
C870 H858 0.930 . S
C870 C871 1.399 . S
C870 C875 1.399 . S
C871 C870 1.399 . S
C871 C872 1.376 . S
C872 H859 0.930 . S
C872 C871 1.376 . S
C872 C873 1.388 . S
C873 H860 0.930 . S
C873 C872 1.388 . S
C873 C874 1.390 . S
C874 C873 1.390 . S
C874 C875 1.394 . S
C874 C880 1.465 . S
C875 C870 1.399 . S
C875 C874 1.394 . S
C875 C876 1.516 . S
C876 C875 1.516 . S
C876 C877 1.502 . S
C876 C878 1.561 . S
C876 C879 1.526 . S
C877 H861 0.959 . S
C877 H862 0.959 . S
C877 H863 0.961 . S
C877 C876 1.502 . S
C878 H864 0.960 . S
C878 H865 0.961 . S
C878 H866 0.959 . S
C878 C876 1.561 . S
C879 C876 1.526 . S
C879 C880 1.396 . S
C879 C884 1.390 . S
C880 C874 1.465 . S
C880 C879 1.396 . S
C880 C881 1.399 . S
C881 H867 0.929 . S
C881 C880 1.399 . S
C881 C882 1.385 . S
C882 H868 0.931 . S
C882 C881 1.385 . S
C882 C883 1.389 . S
C883 C882 1.389 . S
C883 C884 1.387 . S
C884 H869 0.930 . S
C884 C879 1.390 . S
C884 C883 1.387 . S
H885 C897 0.930 . S
H886 C899 0.930 . S
H887 C900 0.930 . S
H888 C904 0.959 . S
H889 C904 0.959 . S
H890 C904 0.961 . S
H891 C905 0.960 . S
H892 C905 0.961 . S
H893 C905 0.959 . S
H894 C908 0.929 . S
H895 C909 0.931 . S
H896 C911 0.930 . S
C897 H885 0.930 . S
C897 C898 1.399 . S
C897 C902 1.399 . S
C898 C897 1.399 . S
C898 C899 1.376 . S
C899 H886 0.930 . S
C899 C898 1.376 . S
C899 C900 1.388 . S
C900 H887 0.930 . S
C900 C899 1.388 . S
C900 C901 1.390 . S
C901 C900 1.390 . S
C901 C902 1.394 . S
C901 C907 1.465 . S
C902 C897 1.399 . S
C902 C901 1.394 . S
C902 C903 1.516 . S
C903 C902 1.516 . S
C903 C904 1.502 . S
C903 C905 1.561 . S
C903 C906 1.526 . S
C904 H888 0.959 . S
C904 H889 0.959 . S
C904 H890 0.961 . S
C904 C903 1.502 . S
C905 H891 0.960 . S
C905 H892 0.961 . S
C905 H893 0.959 . S
C905 C903 1.561 . S
C906 C903 1.526 . S
C906 C907 1.396 . S
C906 C911 1.390 . S
C907 C901 1.465 . S
C907 C906 1.396 . S
C907 C908 1.399 . S
C908 H894 0.929 . S
C908 C907 1.399 . S
C908 C909 1.385 . S
C909 H895 0.931 . S
C909 C908 1.385 . S
C909 C910 1.389 . S
C910 C909 1.389 . S
C910 C911 1.387 . S
C911 H896 0.930 . S
C911 C906 1.390 . S
C911 C910 1.387 . S
C277 N80 1.605 . S
C289 C113 1.601 . S
C316 C153 1.237 . S
C304 N93 1.367 . S
C343 C202 1.305 . S
C331 N54 1.327 . S
C370 C233 1.741 . S
C358 N67 1.776 . S
C397 C122 1.538 . S
C385 N28 1.589 . S
C412 N41 1.378 . S
C424 C162 1.233 . S
C439 N2 1.353 . S
C451 C193 1.336 . S
C466 N15 1.810 . S
C478 C242 1.682 . S
C505 C123 0.917 . S
C493 N70 0.945 . S
C532 C163 1.365 . S
C520 N83 1.275 . S
C559 C199 0.750 . S
C547 N96 0.738 . S
C574 N57 1.034 . S
C586 C243 1.091 . S
C601 N18 0.893 . S
C613 C114 0.913 . S
C640 C154 1.353 . S
C628 N31 1.301 . S
C667 C190 0.767 . S
C655 N44 0.745 . S
C682 N5 1.045 . S
C694 C234 1.082 . S
C709 N66 1.650 . S
C721 C119 1.655 . S
C736 N79 1.451 . S
C748 C159 1.452 . S
C775 C203 1.879 . S
C763 N92 1.858 . S
C802 C239 1.443 . S
C790 N53 1.436 . S
C817 N14 1.655 . S
C829 C110 1.659 1_655 S
C856 C150 1.442 . S
C844 N27 1.445 . S
C883 C194 1.876 . S
C871 N40 1.836 . S
C898 N1 1.443 . S
C910 C230 1.399 . S
