# Generated by pormake.
# Topology ssa, (4,4)-cn, num edge types: 1
# Building blocks:
#     Node 0, Type 0, BuildingBlock: KOZSID_clean_sbu_0, # of connection points: 4
#     Node 1, Type 0, BuildingBlock: KOZSID_clean_sbu_0, # of connection points: 4
#     Node 2, Type 0, BuildingBlock: KOZSID_clean_sbu_0, # of connection points: 4
#     Node 3, Type 0, BuildingBlock: KOZSID_clean_sbu_0, # of connection points: 4
#     Node 4, Type 0, BuildingBlock: KOZSID_clean_sbu_0, # of connection points: 4
#     Node 5, Type 0, BuildingBlock: KOZSID_clean_sbu_0, # of connection points: 4
#     Node 6, Type 1, BuildingBlock: MUDLON_clean_linker_0, # of connection points: 4
#     Node 7, Type 1, BuildingBlock: MUDLON_clean_linker_0, # of connection points: 4
#     Node 8, Type 1, BuildingBlock: MUDLON_clean_linker_0, # of connection points: 4
#     Node 9, Type 1, BuildingBlock: MUDLON_clean_linker_0, # of connection points: 4
#     Node 10, Type 1, BuildingBlock: MUDLON_clean_linker_0, # of connection points: 4
#     Node 11, Type 1, BuildingBlock: MUDLON_clean_linker_0, # of connection points: 4
#     Edge 12, Type (0, 1), BuildingBlock: EZIPEK_clean_linker_0, # of connection points: 2
#     Edge 13, Type (0, 1), BuildingBlock: EZIPEK_clean_linker_0, # of connection points: 2
#     Edge 14, Type (0, 1), BuildingBlock: EZIPEK_clean_linker_0, # of connection points: 2
#     Edge 15, Type (0, 1), BuildingBlock: EZIPEK_clean_linker_0, # of connection points: 2
#     Edge 16, Type (0, 1), BuildingBlock: EZIPEK_clean_linker_0, # of connection points: 2
#     Edge 17, Type (0, 1), BuildingBlock: EZIPEK_clean_linker_0, # of connection points: 2
#     Edge 18, Type (0, 1), BuildingBlock: EZIPEK_clean_linker_0, # of connection points: 2
#     Edge 19, Type (0, 1), BuildingBlock: EZIPEK_clean_linker_0, # of connection points: 2
#     Edge 20, Type (0, 1), BuildingBlock: EZIPEK_clean_linker_0, # of connection points: 2
#     Edge 21, Type (0, 1), BuildingBlock: EZIPEK_clean_linker_0, # of connection points: 2
#     Edge 22, Type (0, 1), BuildingBlock: EZIPEK_clean_linker_0, # of connection points: 2
#     Edge 23, Type (0, 1), BuildingBlock: EZIPEK_clean_linker_0, # of connection points: 2
#     Edge 24, Type (0, 1), BuildingBlock: EZIPEK_clean_linker_0, # of connection points: 2
#     Edge 25, Type (0, 1), BuildingBlock: EZIPEK_clean_linker_0, # of connection points: 2
#     Edge 26, Type (0, 1), BuildingBlock: EZIPEK_clean_linker_0, # of connection points: 2
#     Edge 27, Type (0, 1), BuildingBlock: EZIPEK_clean_linker_0, # of connection points: 2
#     Edge 28, Type (0, 1), BuildingBlock: EZIPEK_clean_linker_0, # of connection points: 2
#     Edge 29, Type (0, 1), BuildingBlock: EZIPEK_clean_linker_0, # of connection points: 2
#     Edge 30, Type (0, 1), BuildingBlock: EZIPEK_clean_linker_0, # of connection points: 2
#     Edge 31, Type (0, 1), BuildingBlock: EZIPEK_clean_linker_0, # of connection points: 2
#     Edge 32, Type (0, 1), BuildingBlock: EZIPEK_clean_linker_0, # of connection points: 2
#     Edge 33, Type (0, 1), BuildingBlock: EZIPEK_clean_linker_0, # of connection points: 2
#     Edge 34, Type (0, 1), BuildingBlock: EZIPEK_clean_linker_0, # of connection points: 2
#     Edge 35, Type (0, 1), BuildingBlock: EZIPEK_clean_linker_0, # of connection points: 2
# Relax obj value: 0.008
# Max RMSD: 0.045
# Mean RMSD: 0.026
data_MOF--net-ssa--node1-KOZSID_clean_sbu_0--node2-MUDLON_clean_linker_0--edge1-EZIPEK_clean_linker_0
_symmetry_space_group_name_H-M    P1
_symmetry_Int_Tables_number       1
_symmetry_cell_setting            triclinic
loop_
_symmetry_equiv_pos_as_xyz
'x, y, z'
_cell_length_a     60.816122
_cell_length_b     62.279302
_cell_length_c     34.532866
_cell_angle_alpha  87.066279
_cell_angle_beta   89.901695
_cell_angle_gamma 122.32936
loop_
_atom_site_label
_atom_site_type_symbol
_atom_site_fract_x
_atom_site_fract_y
_atom_site_fract_z
_atom_type_partial_charge
C0 C 0.96816 0.50469 0.03974 0.0
C1 C 0.94568 0.49889 0.05985 0.0
C2 C 0.94721 0.4907 0.09676 0.0
C3 C 0.97039 0.49185 0.09704 0.0
N4 N 0.98346 0.50009 0.06254 0.0
Co5 Co 0.01746 0.50413 0.0501 0.0
N6 N 0.0141 0.48217 0.09654 0.0
C7 C 0.99746 0.4755 0.12713 0.0
C8 C 0.99989 0.46066 0.15539 0.0
C9 C 0.01949 0.45803 0.142 0.0
C10 C 0.02799 0.47153 0.1062 0.0
N11 N 0.05181 0.50869 0.03813 0.0
C12 C 0.06235 0.49559 0.05235 0.0
C13 C 0.08702 0.50531 0.03599 0.0
C14 C 0.09227 0.52552 0.01123 0.0
C15 C 0.07057 0.52694 0.01371 0.0
N16 N 0.0207 0.52578 0.00347 0.0
C17 C 0.04278 0.54218 0.9828 0.0
C18 C 0.03904 0.55483 0.95237 0.0
C19 C 0.013 0.54595 0.95419 0.0
C20 C 0.00231 0.52832 0.98574 0.0
N21 N 0.03488 0.53434 0.08054 0.0
C22 C 0.06306 0.579 0.11968 0.0
C23 C 0.04413 0.57597 0.09372 0.0
C24 C 0.03011 0.55337 0.07462 0.0
C25 C 0.06705 0.5591 0.12672 0.0
C26 C 0.05272 0.53696 0.10693 0.0
N27 N 1.00005 0.47414 0.01928 0.0
C28 C 0.99854 0.45371 0.96115 0.0
C29 C 0.97349 0.43314 0.97178 0.0
C30 C 0.96235 0.4331 0.00733 0.0
C31 C 0.97619 0.4535 0.03102 0.0
C32 C 0.0112 0.47421 0.98482 0.0
H33 H 0.9673 0.45278 0.05845 0.0
H34 H 0.02981 0.49033 0.97471 0.0
H35 H 0.01569 0.55149 0.05468 0.0
H36 H 0.05622 0.52206 0.11269 0.0
C37 C 0.97811 0.48118 0.12633 0.0
C38 C 0.97528 0.51622 7e-05 0.0
C39 C 0.05108 0.4761 0.08456 0.0
C40 C 0.06558 0.54246 0.98951 0.0
H41 H 0.92993 0.50055 0.04905 0.0
H42 H 0.93265 0.48375 0.12007 0.0
H43 H 0.98852 0.45239 0.18224 0.0
H44 H 0.02708 0.44786 0.15725 0.0
H45 H 0.1001 0.49887 0.04208 0.0
H46 H 0.10958 0.53732 0.99289 0.0
H47 H 0.05337 0.56837 0.93082 0.0
H48 H 0.00309 0.55205 0.93488 0.0
H49 H 0.0404 0.59099 0.08808 0.0
H50 H 0.08137 0.56079 0.14706 0.0
H51 H 0.00782 0.45436 0.93393 0.0
H52 H 0.94305 0.41746 0.01663 0.0
C53 C 0.57078 0.03814 0.56254 0.0
C54 C 0.57056 0.03346 0.6024 0.0
C55 C 0.54512 0.01698 0.61424 0.0
C56 C 0.5312 0.01258 0.58124 0.0
N57 N 0.54627 0.02495 0.54912 0.0
Co58 Co 0.53326 0.02578 0.49653 0.0
N59 N 0.49803 0.99562 0.51086 0.0
C60 C 0.48826 0.98647 0.54715 0.0
C61 C 0.46316 0.96576 0.5482 0.0
C62 C 0.45664 0.96171 0.51014 0.0
C63 C 0.47825 0.98023 0.488 0.0
N64 N 0.52011 0.02669 0.44418 0.0
C65 C 0.49883 0.00836 0.42666 0.0
C66 C 0.49764 0.01652 0.38897 0.0
C67 C 0.51855 0.04096 0.38313 0.0
C68 C 0.53149 0.04631 0.41725 0.0
N69 N 0.56855 0.05596 0.48203 0.0
C70 C 0.57488 0.07197 0.45035 0.0
C71 C 0.60103 0.08996 0.44639 0.0
C72 C 0.61185 0.08532 0.47787 0.0
C73 C 0.59153 0.06493 0.49972 0.0
N74 N 0.54401 0.00327 0.479 0.0
C75 C 0.55723 0.96994 0.45187 0.0
C76 C 0.56414 0.9924 0.43027 0.0
C77 C 0.55728 0.00873 0.44424 0.0
C78 C 0.54386 0.96455 0.48758 0.0
C79 C 0.53762 0.9816 0.50078 0.0
N80 N 0.52225 0.04809 0.51433 0.0
C81 C 0.52941 0.08104 0.55562 0.0
C82 C 0.5038 0.07459 0.55118 0.0
C83 C 0.48805 0.05582 0.52591 0.0
C84 C 0.49778 0.04296 0.50742 0.0
C85 C 0.53819 0.06755 0.53701 0.0
H86 H 0.48509 0.02802 0.48911 0.0
H87 H 0.55738 0.07193 0.54275 0.0
H88 H 0.56243 0.0256 0.42655 0.0
H89 H 0.5273 0.97705 0.52834 0.0
C90 C 0.50437 0.99552 0.57881 0.0
C91 C 0.59425 0.05732 0.53955 0.0
C92 C 0.47851 0.98391 0.4457 0.0
C93 C 0.55665 0.06707 0.42207 0.0
H94 H 0.58692 0.04168 0.6213 0.0
H95 H 0.53769 0.00915 0.64345 0.0
H96 H 0.45127 0.95452 0.57352 0.0
H97 H 0.43803 0.94702 0.49985 0.0
H98 H 0.48323 0.00597 0.36779 0.0
H99 H 0.52435 0.0529 0.35649 0.0
H100 H 0.61115 0.10429 0.42287 0.0
H101 H 0.63224 0.09628 0.48467 0.0
H102 H 0.57441 0.99706 0.40244 0.0
H103 H 0.53817 0.94726 0.50493 0.0
H104 H 0.54207 0.09546 0.57507 0.0
H105 H 0.4681 0.0504 0.52188 0.0
C106 C 0.57729 0.54397 0.95414 0.0
C107 C 0.58516 0.56072 0.92155 0.0
C108 C 0.56769 0.56818 0.91835 0.0
C109 C 0.55026 0.55567 0.94909 0.0
N110 N 0.55563 0.54074 0.97127 0.0
Co111 Co 0.53601 0.52006 0.01899 0.0
N112 N 0.50494 0.52129 0.00494 0.0
C113 C 0.50465 0.53775 0.9784 0.0
C114 C 0.48067 0.53477 0.9757 0.0
C115 C 0.46491 0.51545 0.00258 0.0
C116 C 0.48023 0.50768 0.02025 0.0
N117 N 0.51658 0.4999 0.0674 0.0
C118 C 0.4909 0.48791 0.0773 0.0
C119 C 0.48566 0.47575 0.11408 0.0
C120 C 0.50896 0.48094 0.12802 0.0
C121 C 0.52707 0.49573 0.09902 0.0
N122 N 0.56684 0.51848 0.03271 0.0
C123 C 0.57186 0.51215 0.06794 0.0
C124 C 0.59417 0.51167 0.06799 0.0
C125 C 0.60385 0.51825 0.03046 0.0
C126 C 0.58692 0.52256 0.00968 0.0
N127 N 0.55018 0.55153 0.04604 0.0
C128 C 0.56982 0.5956 0.0864 0.0
C129 C 0.58657 0.59179 0.06422 0.0
C130 C 0.5763 0.56966 0.04395 0.0
C131 C 0.54319 0.57736 0.08748 0.0
C132 C 0.53385 0.55552 0.06716 0.0
N133 N 0.52231 0.48883 0.99165 0.0
C134 C 0.51413 0.4466 0.9888 0.0
C135 C 0.50843 0.44638 0.94952 0.0
C136 C 0.50877 0.46738 0.9322 0.0
C137 C 0.51531 0.4882 0.95393 0.0
C138 C 0.52138 0.46814 0.00917 0.0
H139 H 0.5154 0.50408 0.93983 0.0
H140 H 0.52684 0.46824 0.03883 0.0
H141 H 0.58951 0.56718 0.02682 0.0
H142 H 0.51344 0.54182 0.06852 0.0
C143 C 0.52651 0.55392 0.95417 0.0
C144 C 0.59152 0.53257 0.96914 0.0
C145 C 0.47148 0.48972 0.05453 0.0
C146 C 0.553 0.50245 0.09804 0.0
H147 H 0.60177 0.56689 0.90219 0.0
H148 H 0.56719 0.58045 0.89548 0.0
H149 H 0.47521 0.54523 0.95629 0.0
H150 H 0.44467 0.50839 0.00923 0.0
H151 H 0.46701 0.46459 0.12952 0.0
H152 H 0.51216 0.47406 0.15551 0.0
H153 H 0.60188 0.50614 0.09201 0.0
H154 H 0.62144 0.51987 0.01975 0.0
H155 H 0.60735 0.60566 0.06287 0.0
H156 H 0.52975 0.57979 0.10445 0.0
H157 H 0.51378 0.43056 0.00324 0.0
H158 H 0.50419 0.46775 0.90197 0.0
C159 C 1.00055 0.46159 0.54165 0.0
C160 C 0.97796 0.44507 0.5229 0.0
C161 C 0.97768 0.45814 0.49016 0.0
C162 C 1.00001 0.48179 0.49078 0.0
N163 N 0.01466 0.48455 0.52181 0.0
Co164 Co 0.04848 0.51592 0.53436 0.0
N165 N 0.04573 0.53632 0.49003 0.0
C166 C 0.02559 0.52846 0.46605 0.0
C167 C 0.02883 0.547 0.43921 0.0
C168 C 0.05252 0.56794 0.44635 0.0
C169 C 0.06246 0.56083 0.47708 0.0
N170 N 0.08304 0.54687 0.54555 0.0
C171 C 0.09707 0.5698 0.52556 0.0
C172 C 0.12114 0.58536 0.54149 0.0
C173 C 0.12244 0.57174 0.57265 0.0
C174 C 0.09925 0.5487 0.57375 0.0
N175 N 0.05037 0.49592 0.58018 0.0
C176 C 0.06944 0.50435 0.60619 0.0
C177 C 0.06466 0.48676 0.63587 0.0
C178 C 0.04082 0.466 0.62887 0.0
C179 C 0.03247 0.47219 0.59517 0.0
N180 N 0.067 0.50535 0.50026 0.0
C181 C 0.09268 0.49002 0.45161 0.0
C182 C 0.09821 0.49307 0.49083 0.0
C183 C 0.08541 0.50094 0.51444 0.0
C184 C 0.0744 0.49498 0.43696 0.0
C185 C 0.06175 0.50236 0.46161 0.0
N186 N 0.02992 0.52645 0.56824 0.0
C187 C 0.02798 0.54667 0.62501 0.0
C188 C 0.00272 0.54009 0.61677 0.0
C189 C 0.99138 0.52684 0.58385 0.0
C190 C 0.00531 0.52054 0.55993 0.0
C191 C 0.04105 0.53944 0.60074 0.0
H192 H 0.99564 0.51078 0.53494 0.0
H193 H 0.06006 0.54443 0.60894 0.0
H194 H 0.09068 0.50321 0.54403 0.0
H195 H 0.0477 0.50538 0.44861 0.0
C196 C 0.00544 0.50287 0.46664 0.0
C197 C 0.00701 0.45521 0.57936 0.0
C198 C 0.08857 0.5775 0.49111 0.0
C199 C 0.09181 0.52871 0.60146 0.0
H200 H 0.9628 0.42586 0.53255 0.0
H201 H 0.9623 0.45163 0.46954 0.0
H202 H 0.01594 0.54525 0.41629 0.0
H203 H 0.06179 0.58616 0.43006 0.0
H204 H 0.13623 0.60453 0.53152 0.0
H205 H 0.13841 0.57787 0.59209 0.0
H206 H 0.07692 0.48888 0.65992 0.0
H207 H 0.03054 0.4484 0.6468 0.0
H208 H 0.11228 0.48932 0.50319 0.0
H209 H 0.06957 0.49272 0.40664 0.0
H210 H 0.03739 0.55699 0.65037 0.0
H211 H 0.97183 0.52148 0.57653 0.0
C212 C 0.50249 0.00413 0.08084 0.0
C213 C 0.50186 0.01317 0.11652 0.0
C214 C 0.52698 0.03153 0.12397 0.0
C215 C 0.5415 0.03291 0.09241 0.0
N216 N 0.52705 0.01678 0.06522 0.0
Co217 Co 0.54045 0.01327 0.01481 0.0
N218 N 0.57412 0.04623 0.01876 0.0
C219 C 0.58338 0.05922 0.05091 0.0
C220 C 0.60691 0.08173 0.04446 0.0
C221 C 0.61295 0.08292 0.00585 0.0
C222 C 0.59274 0.0609 0.991 0.0
N223 N 0.55412 0.00944 0.96511 0.0
C224 C 0.57496 0.02683 0.94251 0.0
C225 C 0.57808 0.01585 0.91066 0.0
C226 C 0.55849 0.99064 0.91365 0.0
C227 C 0.54461 0.98766 0.94703 0.0
N228 N 0.50654 0.98051 0.01055 0.0
C229 C 0.50186 0.96209 0.98684 0.0
C230 C 0.47694 0.94118 0.99102 0.0
C231 C 0.46524 0.94658 0.01951 0.0
C232 C 0.48375 0.9706 0.03115 0.0
N233 N 0.5264 0.03134 0.98716 0.0
C234 C 0.50979 0.05941 0.94486 0.0
C235 C 0.50759 0.03787 0.92999 0.0
C236 C 0.51551 0.02383 0.95189 0.0
C237 C 0.5198 0.0662 0.9818 0.0
C238 C 0.52842 0.05223 0.00211 0.0
N239 N 0.55481 0.99535 0.04221 0.0
C240 C 0.54943 0.96306 0.08956 0.0
C241 C 0.57546 0.97093 0.08394 0.0
C242 C 0.59094 0.99076 0.05636 0.0
C243 C 0.58013 0.00257 0.03553 0.0
C244 C 0.53955 0.97551 0.06839 0.0
H245 H 0.59229 0.01764 0.01429 0.0
H246 H 0.5196 0.96915 0.07324 0.0
H247 H 0.51324 0.00716 0.93991 0.0
H248 H 0.53712 0.05864 0.02964 0.0
C249 C 0.56769 0.05173 0.08463 0.0
C250 C 0.47991 0.98179 0.06499 0.0
C251 C 0.59309 0.05331 0.95164 0.0
C252 C 0.52052 0.9661 0.95882 0.0
H253 H 0.48507 0.00685 0.13555 0.0
H254 H 0.53372 0.04307 0.14884 0.0
H255 H 0.61794 0.09599 0.06501 0.0
H256 H 0.6304 0.09804 0.99055 0.0
H257 H 0.59302 0.02506 0.8878 0.0
H258 H 0.55438 0.97643 0.89321 0.0
H259 H 0.46825 0.92412 0.97508 0.0
H260 H 0.44557 0.93396 0.03118 0.0
H261 H 0.4998 0.03193 0.90161 0.0
H262 H 0.52164 0.08266 0.99434 0.0
H263 H 0.53695 0.94769 0.11069 0.0
H264 H 0.6112 0.9972 0.0513 0.0
C265 C 0.53663 0.55948 0.49193 0.0
C266 C 0.53025 0.57571 0.50731 0.0
C267 C 0.51349 0.56252 0.53816 0.0
C268 C 0.51049 0.53906 0.5397 0.0
N269 N 0.52455 0.53652 0.51199 0.0
Co270 Co 0.52403 0.50486 0.50178 0.0
N271 N 0.50085 0.4861 0.54877 0.0
C272 C 0.49161 0.49534 0.57441 0.0
C273 C 0.47759 0.47856 0.60518 0.0
C274 C 0.47838 0.45748 0.59929 0.0
C275 C 0.49283 0.46269 0.56506 0.0
N276 N 0.5222 0.47274 0.49028 0.0
C277 C 0.51116 0.45017 0.51128 0.0
C278 C 0.51431 0.43271 0.49274 0.0
C279 C 0.52808 0.44479 0.45891 0.0
C280 C 0.5325 0.46883 0.45872 0.0
N281 N 0.54878 0.52413 0.45649 0.0
C282 C 0.55904 0.51515 0.43215 0.0
C283 C 0.57627 0.53307 0.40471 0.0
C284 C 0.57706 0.55481 0.41197 0.0
C285 C 0.56003 0.54878 0.44335 0.0
N286 N 0.55445 0.51526 0.53458 0.0
C287 C 0.59655 0.52812 0.58257 0.0
C288 C 0.5929 0.51464 0.54969 0.0
C289 C 0.57209 0.50875 0.52596 0.0
C290 C 0.57908 0.53546 0.59082 0.0
C291 C 0.55812 0.52865 0.5668 0.0
N292 N 0.49343 0.49432 0.46867 0.0
C293 C 0.47408 0.48509 0.40564 0.0
C294 C 0.45023 0.47902 0.4216 0.0
C295 C 0.44824 0.48085 0.46135 0.0
C296 C 0.46999 0.48876 0.48412 0.0
C297 C 0.49515 0.49237 0.4295 0.0
H298 H 0.46719 0.49013 0.51411 0.0
H299 H 0.51253 0.49617 0.41533 0.0
H300 H 0.5705 0.49867 0.50099 0.0
H301 H 0.54498 0.53417 0.57502 0.0
C302 C 0.49602 0.51966 0.56823 0.0
C303 C 0.55399 0.56667 0.458 0.0
C304 C 0.49902 0.44508 0.54984 0.0
C305 C 0.55 0.48924 0.43339 0.0
H306 H 0.53701 0.59508 0.49726 0.0
H307 H 0.50471 0.56929 0.55737 0.0
H308 H 0.46814 0.4814 0.6292 0.0
H309 H 0.46957 0.44031 0.6182 0.0
H310 H 0.50807 0.41355 0.50324 0.0
H311 H 0.53529 0.43741 0.43805 0.0
H312 H 0.58643 0.53045 0.38148 0.0
H313 H 0.58835 0.57289 0.39541 0.0
H314 H 0.60612 0.5087 0.54235 0.0
H315 H 0.58136 0.54599 0.6161 0.0
H316 H 0.47632 0.48382 0.37486 0.0
H317 H 0.42998 0.47626 0.47475 0.0
H318 H 0.35737 0.47049 0.22887 0.0
N319 N 0.31436 0.42255 0.22106 0.0
H320 H 0.38833 0.48331 0.28089 0.0
H321 H 0.30848 0.39654 0.2882 0.0
H322 H 0.33898 0.41002 0.34172 0.0
H323 H 0.33288 0.39548 0.19586 0.0
H324 H 0.36767 0.40962 0.14632 0.0
H325 H 0.32981 0.4619 0.1663 0.0
H326 H 0.36433 0.47584 0.11641 0.0
H327 H 0.31038 0.46162 0.24707 0.0
H328 H 0.26873 0.39066 0.19117 0.0
H329 H 0.27103 0.46255 0.25078 0.0
H330 H 0.22964 0.39243 0.1918 0.0
H331 H 0.16144 0.47193 0.24804 0.0
H332 H 0.15004 0.4886 0.30199 0.0
H333 H 0.12691 0.42018 0.37261 0.0
H334 H 0.13711 0.40289 0.31778 0.0
H335 H 0.09946 0.3954 0.23699 0.0
H336 H 0.0742 0.40488 0.19177 0.0
H337 H 0.14547 0.46543 0.1351 0.0
H338 H 0.17065 0.4564 0.1803 0.0
H339 H 0.19935 0.46627 0.23323 0.0
H340 H 0.23983 0.46781 0.22184 0.0
H341 H 0.19709 0.3855 0.23428 0.0
N342 N 0.15058 0.42322 0.24539 0.0
H343 H 0.15671 0.38436 0.24271 0.0
C344 C 0.33078 0.43218 0.25417 0.0
C345 C 0.35306 0.45708 0.25325 0.0
C346 C 0.37071 0.46451 0.28309 0.0
C347 C 0.36611 0.44751 0.31489 0.0
C348 C 0.34297 0.42333 0.31723 0.0
C349 C 0.32558 0.41568 0.28688 0.0
C350 C 0.32888 0.42764 0.18501 0.0
C351 C 0.3389 0.41248 0.17751 0.0
C352 C 0.35867 0.4205 0.14926 0.0
C353 C 0.36856 0.44378 0.12789 0.0
C354 C 0.35675 0.45771 0.13248 0.0
C355 C 0.33707 0.44976 0.16097 0.0
C356 C 0.29239 0.42558 0.21968 0.0
C357 C 0.29287 0.44633 0.2351 0.0
C358 C 0.27024 0.44701 0.23678 0.0
C359 C 0.24677 0.42733 0.2222 0.0
C360 C 0.24694 0.40751 0.20459 0.0
C361 C 0.26938 0.40657 0.20374 0.0
C362 C 0.14954 0.43581 0.27868 0.0
C363 C 0.15428 0.4606 0.2752 0.0
C364 C 0.14785 0.47018 0.30602 0.0
C365 C 0.13729 0.45546 0.34106 0.0
C366 C 0.13485 0.43172 0.34569 0.0
C367 C 0.14071 0.42191 0.31456 0.0
C368 C 0.13695 0.42511 0.21242 0.0
C369 C 0.10961 0.41009 0.21391 0.0
C370 C 0.09522 0.41547 0.18818 0.0
C371 C 0.10802 0.43585 0.16023 0.0
C372 C 0.13529 0.44951 0.15639 0.0
C373 C 0.14969 0.44431 0.18239 0.0
C374 C 0.17491 0.42508 0.23812 0.0
C375 C 0.19871 0.44859 0.23273 0.0
C376 C 0.22195 0.44941 0.2267 0.0
C377 C 0.22198 0.42677 0.22686 0.0
C378 C 0.19802 0.40336 0.23277 0.0
C379 C 0.17483 0.4026 0.23799 0.0
H380 H 0.70474 0.09171 0.76993 0.0
N381 N 0.72903 0.13877 0.73756 0.0
H382 H 0.67241 0.07362 0.8241 0.0
H383 H 0.7153 0.16519 0.7828 0.0
H384 H 0.68347 0.14721 0.83742 0.0
H385 H 0.68708 0.14253 0.72029 0.0
H386 H 0.65812 0.12319 0.66694 0.0
H387 H 0.73863 0.12156 0.67443 0.0
H388 H 0.71056 0.10417 0.61843 0.0
H389 H 0.77314 0.14861 0.76808 0.0
H390 H 0.7376 0.18509 0.71084 0.0
H391 H 0.81289 0.18999 0.77518 0.0
H392 H 0.77776 0.22669 0.71612 0.0
H393 H 0.92704 0.31056 0.8191 0.0
H394 H 0.94447 0.33929 0.8724 0.0
H395 H 0.88954 0.3617 0.84997 0.0
H396 H 0.87353 0.3345 0.79517 0.0
H397 H 0.87518 0.33167 0.72167 0.0
H398 H 0.90048 0.36634 0.67178 0.0
H399 H 0.96687 0.3599 0.69062 0.0
H400 H 0.94134 0.32483 0.73958 0.0
H401 H 0.88908 0.26468 0.75137 0.0
H402 H 0.84925 0.22392 0.74081 0.0
H403 H 0.80393 0.25735 0.7611 0.0
N404 N 0.89382 0.30805 0.76719 0.0
H405 H 0.84391 0.29818 0.76959 0.0
C406 C 0.71269 0.12977 0.77252 0.0
C407 C 0.70046 0.104 0.7849 0.0
C408 C 0.68197 0.0937 0.8155 0.0
C409 C 0.67548 0.10908 0.8344 0.0
C410 C 0.68819 0.13507 0.82298 0.0
C411 C 0.70654 0.14534 0.79206 0.0
C412 C 0.71478 0.13282 0.7021 0.0
C413 C 0.69251 0.1342 0.69844 0.0
C414 C 0.67591 0.12317 0.66781 0.0
C415 C 0.68177 0.11157 0.63916 0.0
C416 C 0.70533 0.11244 0.64069 0.0
C417 C 0.72144 0.12258 0.67233 0.0
C418 C 0.75257 0.16366 0.73858 0.0
C419 C 0.77416 0.16561 0.75645 0.0
C420 C 0.79692 0.18933 0.76026 0.0
C421 C 0.79876 0.21184 0.74597 0.0
C422 C 0.77704 0.20986 0.72783 0.0
C423 C 0.75411 0.18602 0.72434 0.0
C424 C 0.89861 0.31985 0.80361 0.0
C425 C 0.91823 0.32108 0.82648 0.0
C426 C 0.92823 0.33752 0.85671 0.0
C427 C 0.91834 0.35268 0.86509 0.0
C428 C 0.89736 0.35008 0.84407 0.0
C429 C 0.88791 0.3342 0.81306 0.0
C430 C 0.90642 0.32556 0.73399 0.0
C431 C 0.89492 0.33726 0.71434 0.0
C432 C 0.90937 0.3571 0.6861 0.0
C433 C 0.93558 0.36576 0.67781 0.0
C434 C 0.9467 0.3535 0.69663 0.0
C435 C 0.93218 0.33349 0.72432 0.0
C436 C 0.86961 0.28441 0.76192 0.0
C437 C 0.8705 0.26313 0.75354 0.0
C438 C 0.84766 0.23981 0.74774 0.0
C439 C 0.82319 0.23712 0.75049 0.0
C440 C 0.82236 0.25866 0.75841 0.0
C441 C 0.84533 0.28209 0.76383 0.0
H442 H 0.64457 0.92865 0.32129 0.0
N443 N 0.61809 0.88378 0.29066 0.0
H444 H 0.62779 0.94586 0.36693 0.0
H445 H 0.5722 0.85578 0.33345 0.0
H446 H 0.55552 0.87289 0.37986 0.0
H447 H 0.65292 0.9141 0.23482 0.0
H448 H 0.6458 0.93543 0.17858 0.0
H449 H 0.57088 0.8733 0.26533 0.0
H450 H 0.56398 0.89494 0.21003 0.0
H451 H 0.58221 0.84069 0.25385 0.0
H452 H 0.64512 0.86987 0.33345 0.0
H453 H 0.58091 0.80114 0.25346 0.0
H454 H 0.64264 0.82943 0.33559 0.0
H455 H 0.57175 0.69949 0.32993 0.0
H456 H 0.55749 0.66329 0.37663 0.0
H457 H 0.62966 0.6674 0.35653 0.0
H458 H 0.64424 0.70407 0.31006 0.0
H459 H 0.64909 0.72868 0.22612 0.0
H460 H 0.63954 0.70083 0.17229 0.0
H461 H 0.55804 0.65892 0.20613 0.0
H462 H 0.56747 0.6867 0.25949 0.0
H463 H 0.57264 0.72505 0.27744 0.0
H464 H 0.57092 0.76287 0.28403 0.0
H465 H 0.65426 0.8072 0.29816 0.0
N466 N 0.61615 0.72214 0.28288 0.0
H467 H 0.65526 0.76876 0.29437 0.0
C468 C 0.60974 0.89103 0.32399 0.0
C469 C 0.62542 0.91616 0.33485 0.0
C470 C 0.61581 0.92598 0.36068 0.0
C471 C 0.59035 0.91071 0.37637 0.0
C472 C 0.57521 0.88495 0.3679 0.0
C473 C 0.58477 0.87518 0.34162 0.0
C474 C 0.61258 0.89229 0.25438 0.0
C475 C 0.63337 0.90933 0.22888 0.0
C476 C 0.62934 0.92148 0.19702 0.0
C477 C 0.60442 0.91683 0.1906 0.0
C478 C 0.58334 0.89876 0.21474 0.0
C479 C 0.58732 0.88647 0.2463 0.0
C480 C 0.61427 0.85873 0.29319 0.0
C481 C 0.59556 0.83859 0.27178 0.0
C482 C 0.59463 0.81564 0.27189 0.0
C483 C 0.61193 0.81198 0.29405 0.0
C484 C 0.62953 0.83167 0.31715 0.0
C485 C 0.6308 0.85476 0.31639 0.0
C486 C 0.6093 0.70472 0.31648 0.0
C487 C 0.58497 0.69332 0.33627 0.0
C488 C 0.57671 0.67251 0.36287 0.0
C489 C 0.59247 0.66262 0.36971 0.0
C490 C 0.61726 0.6748 0.35163 0.0
C491 C 0.62561 0.69574 0.32537 0.0
C492 C 0.60911 0.70987 0.24674 0.0
C493 C 0.62908 0.71411 0.22097 0.0
C494 C 0.62366 0.69823 0.19049 0.0
C495 C 0.59813 0.67786 0.18555 0.0
C496 C 0.57783 0.67466 0.20953 0.0
C497 C 0.58324 0.69062 0.23987 0.0
C498 C 0.61413 0.744 0.28613 0.0
C499 C 0.59045 0.74277 0.28267 0.0
C500 C 0.58957 0.76463 0.28597 0.0
C501 C 0.61243 0.78831 0.2919 0.0
C502 C 0.63609 0.78936 0.29472 0.0
C503 C 0.63681 0.76744 0.29216 0.0
H504 H 0.94221 0.5992 0.83946 0.0
N505 N 0.89909 0.57437 0.80025 0.0
H506 H 0.95594 0.58184 0.89257 0.0
H507 H 0.86763 0.52851 0.84081 0.0
H508 H 0.88102 0.51133 0.89524 0.0
H509 H 0.88575 0.52845 0.77336 0.0
H510 H 0.91053 0.52151 0.72532 0.0
H511 H 0.93895 0.60961 0.75537 0.0
H512 H 0.96486 0.60261 0.70892 0.0
H513 H 0.88652 0.60478 0.83046 0.0
H514 H 0.85502 0.53852 0.76341 0.0
H515 H 0.84554 0.60306 0.82612 0.0
H516 H 0.81479 0.53746 0.75718 0.0
H517 H 0.7219 0.60194 0.8089 0.0
H518 H 0.68825 0.59119 0.8589 0.0
H519 H 0.67282 0.51508 0.87343 0.0
H520 H 0.70553 0.52548 0.8223 0.0
H521 H 0.70177 0.52337 0.74898 0.0
H522 H 0.67063 0.51284 0.69733 0.0
H523 H 0.69754 0.59228 0.67803 0.0
H524 H 0.72946 0.60288 0.72872 0.0
H525 H 0.78058 0.61044 0.77749 0.0
H526 H 0.82099 0.61106 0.78234 0.0
H527 H 0.77654 0.52872 0.78937 0.0
N528 N 0.73238 0.57037 0.77754 0.0
H529 H 0.73664 0.52846 0.78228 0.0
C530 C 0.90397 0.56526 0.83635 0.0
C531 C 0.92855 0.58021 0.85207 0.0
C532 C 0.9364 0.57027 0.88212 0.0
C533 C 0.91961 0.54521 0.89742 0.0
C534 C 0.89429 0.53065 0.88352 0.0
C535 C 0.88661 0.5405 0.85276 0.0
C536 C 0.91004 0.5697 0.76707 0.0
C537 C 0.90217 0.54482 0.75808 0.0
C538 C 0.91655 0.54083 0.73109 0.0
C539 C 0.93957 0.56154 0.71371 0.0
C540 C 0.94708 0.58638 0.72186 0.0
C541 C 0.93226 0.59038 0.74806 0.0
C542 C 0.87423 0.57209 0.79708 0.0
C543 C 0.87084 0.58997 0.81458 0.0
C544 C 0.84744 0.58906 0.81174 0.0
C545 C 0.8268 0.57028 0.79088 0.0
C546 C 0.83007 0.55206 0.77381 0.0
C547 C 0.85341 0.55281 0.77711 0.0
C548 C 0.71654 0.56474 0.81213 0.0
C549 C 0.71167 0.58313 0.82351 0.0
C550 C 0.69243 0.57696 0.85177 0.0
C551 C 0.67795 0.55229 0.86959 0.0
C552 C 0.68377 0.5342 0.85989 0.0
C553 C 0.70267 0.54025 0.83092 0.0
C554 C 0.71827 0.56405 0.74227 0.0
C555 C 0.70185 0.53865 0.73259 0.0
C556 C 0.68386 0.5326 0.70338 0.0
C557 C 0.68165 0.55177 0.68417 0.0
C558 C 0.69896 0.57723 0.6925 0.0
C559 C 0.71722 0.58329 0.72115 0.0
C560 C 0.75556 0.56954 0.77988 0.0
C561 C 0.77967 0.59257 0.77991 0.0
C562 C 0.80272 0.59283 0.78307 0.0
C563 C 0.80216 0.56992 0.7867 0.0
C564 C 0.77786 0.54677 0.78627 0.0
C565 C 0.75483 0.54657 0.78263 0.0
H566 H 0.12616 0.69972 0.33285 0.0
N567 N 0.16987 0.71979 0.29067 0.0
H568 H 0.1109 0.66707 0.38646 0.0
H569 H 0.19974 0.70495 0.32841 0.0
H570 H 0.18471 0.67271 0.38283 0.0
H571 H 0.13419 0.71855 0.24497 0.0
H572 H 0.10847 0.68653 0.19801 0.0
H573 H 0.18075 0.68589 0.26322 0.0
H574 H 0.15529 0.65418 0.21625 0.0
H575 H 0.21605 0.72847 0.26018 0.0
H576 H 0.1801 0.76432 0.31184 0.0
H577 H 0.2571 0.76965 0.25158 0.0
H578 H 0.22126 0.80545 0.30471 0.0
H579 H 0.38356 0.89413 0.26198 0.0
H580 H 0.41632 0.91417 0.3108 0.0
H581 H 0.36147 0.91925 0.38287 0.0
H582 H 0.32918 0.90118 0.33214 0.0
H583 H 0.35449 0.93748 0.23111 0.0
H584 H 0.38557 0.95911 0.17586 0.0
H585 H 0.37807 0.88839 0.15109 0.0
H586 H 0.34733 0.86686 0.20643 0.0
H587 H 0.33302 0.84546 0.27815 0.0
H588 H 0.2929 0.80314 0.28552 0.0
H589 H 0.2481 0.83646 0.25462 0.0
N590 N 0.3363 0.89059 0.26106 0.0
H591 H 0.28815 0.87858 0.24882 0.0
C592 C 0.16401 0.70481 0.32676 0.0
C593 C 0.13927 0.69437 0.34427 0.0
C594 C 0.13056 0.67573 0.37463 0.0
C595 C 0.14661 0.66736 0.38824 0.0
C596 C 0.17206 0.67892 0.37252 0.0
C597 C 0.18066 0.69738 0.34165 0.0
C598 C 0.15948 0.70481 0.25734 0.0
C599 C 0.13944 0.7051 0.23781 0.0
C600 C 0.12475 0.68683 0.21129 0.0
C601 C 0.13004 0.66807 0.20392 0.0
C602 C 0.15109 0.66865 0.22153 0.0
C603 C 0.16572 0.68687 0.24813 0.0
C604 C 0.19481 0.7434 0.28622 0.0
C605 C 0.21695 0.74514 0.2698 0.0
C606 C 0.24055 0.76875 0.26517 0.0
C607 C 0.24248 0.79098 0.27704 0.0
C608 C 0.2204 0.7889 0.29435 0.0
C609 C 0.19689 0.76541 0.29874 0.0
C610 C 0.35402 0.89702 0.29265 0.0
C611 C 0.37836 0.89948 0.2881 0.0
C612 C 0.3971 0.91074 0.31622 0.0
C613 C 0.39153 0.91865 0.35018 0.0
C614 C 0.3663 0.9136 0.35663 0.0
C615 C 0.34789 0.90327 0.32781 0.0
C616 C 0.34866 0.90066 0.22308 0.0
C617 C 0.35875 0.92645 0.21281 0.0
C618 C 0.37639 0.93875 0.18132 0.0
C619 C 0.38404 0.92531 0.15952 0.0
C620 C 0.37214 0.89897 0.16742 0.0
C621 C 0.35459 0.88669 0.19907 0.0
C622 C 0.31341 0.86518 0.26345 0.0
C623 C 0.31452 0.84356 0.27305 0.0
C624 C 0.29157 0.81937 0.27698 0.0
C625 C 0.26717 0.81637 0.27114 0.0
C626 C 0.26641 0.83805 0.26029 0.0
C627 C 0.28926 0.86213 0.25663 0.0
H628 H 0.42348 0.10486 0.72731 0.0
N629 N 0.45597 0.14944 0.75659 0.0
H630 H 0.43219 0.08707 0.6717 0.0
H631 H 0.49628 0.17609 0.70322 0.0
H632 H 0.50531 0.15813 0.64811 0.0
H633 H 0.50368 0.1544 0.76112 0.0
H634 H 0.51568 0.13308 0.8097 0.0
H635 H 0.43165 0.12758 0.82503 0.0
H636 H 0.44497 0.10811 0.87602 0.0
H637 H 0.42455 0.16195 0.72433 0.0
H638 H 0.49549 0.19334 0.7871 0.0
H639 H 0.42773 0.20258 0.72345 0.0
H640 H 0.49776 0.23357 0.78932 0.0
H641 H 0.43244 0.33045 0.73559 0.0
H642 H 0.44143 0.36044 0.6798 0.0
H643 H 0.50872 0.35837 0.64735 0.0
H644 H 0.50019 0.32902 0.70342 0.0
H645 H 0.50994 0.35755 0.76647 0.0
H646 H 0.52143 0.38842 0.81588 0.0
H647 H 0.44952 0.33559 0.87944 0.0
H648 H 0.43722 0.30534 0.82846 0.0
H649 H 0.42144 0.2665 0.76219 0.0
H650 H 0.42103 0.2272 0.76235 0.0
H651 H 0.50533 0.27101 0.75817 0.0
N652 N 0.4622 0.31372 0.76059 0.0
H653 H 0.50517 0.31014 0.76136 0.0
C654 C 0.45925 0.14162 0.71952 0.0
C655 C 0.44095 0.11683 0.70934 0.0
C656 C 0.44592 0.10673 0.67776 0.0
C657 C 0.46946 0.12127 0.65612 0.0
C658 C 0.48702 0.14669 0.6645 0.0
C659 C 0.48188 0.1569 0.69586 0.0
C660 C 0.46618 0.14187 0.78868 0.0
C661 C 0.49055 0.1443 0.78581 0.0
C662 C 0.49756 0.13224 0.81381 0.0
C663 C 0.48101 0.11855 0.84619 0.0
C664 C 0.45785 0.11821 0.85095 0.0
C665 C 0.45033 0.12943 0.82209 0.0
C666 C 0.45941 0.1743 0.75618 0.0
C667 C 0.4407 0.17761 0.73829 0.0
C668 C 0.44244 0.20088 0.73829 0.0
C669 C 0.46269 0.22147 0.75715 0.0
C670 C 0.48191 0.21834 0.77433 0.0
C671 C 0.48048 0.19511 0.77347 0.0
C672 C 0.46542 0.3273 0.72374 0.0
C673 C 0.44875 0.33598 0.7159 0.0
C674 C 0.45391 0.3531 0.68426 0.0
C675 C 0.4758 0.36167 0.6597 0.0
C676 C 0.49173 0.35193 0.66606 0.0
C677 C 0.48674 0.33503 0.69804 0.0
C678 C 0.47235 0.32931 0.79339 0.0
C679 C 0.49675 0.35241 0.7912 0.0
C680 C 0.50334 0.37004 0.81943 0.0
C681 C 0.4861 0.36448 0.85097 0.0
C682 C 0.46294 0.34037 0.8551 0.0
C683 C 0.45601 0.32308 0.82625 0.0
C684 C 0.46322 0.29114 0.76097 0.0
C685 C 0.43978 0.2675 0.76144 0.0
C686 C 0.43968 0.24506 0.76107 0.0
C687 C 0.46318 0.24569 0.75935 0.0
C688 C 0.48681 0.26957 0.75962 0.0
C689 C 0.48681 0.29206 0.76091 0.0
C690 C 0.08546 0.4802 0.12992 0.0
C691 C 0.06677 0.46617 0.10194 0.0
C692 C 0.07689 0.43291 0.10917 0.0
C693 C 0.09341 0.4458 0.13999 0.0
N694 N 0.10862 0.47865 0.18564 0.0
N695 N 0.04259 0.42802 0.06725 0.0
C696 C 0.09631 0.46857 0.15207 0.0
C697 C 0.06186 0.44214 0.09221 0.0
N698 N 0.09356 0.50498 0.13464 0.0
N699 N 0.0761 0.4123 0.09557 0.0
H700 H 0.03191 0.43464 0.05334 0.0
H701 H 0.03609 0.40923 0.06216 0.0
H702 H 0.08671 0.40504 0.10764 0.0
H703 H 0.06651 0.40356 0.0707 0.0
H704 H 0.10903 0.51681 0.15181 0.0
H705 H 0.08702 0.51465 0.11794 0.0
H706 H 0.10865 0.49355 0.19807 0.0
H707 H 0.11656 0.47056 0.20331 0.0
C708 C 0.63022 0.09856 0.5668 0.0
C709 C 0.61955 0.07249 0.55983 0.0
C710 C 0.65089 0.07191 0.60375 0.0
C711 C 0.6627 0.09844 0.60822 0.0
N712 N 0.66862 0.13812 0.58325 0.0
N713 N 0.62453 0.03657 0.5636 0.0
C714 C 0.65403 0.11212 0.58606 0.0
C715 C 0.63168 0.06 0.57539 0.0
N716 N 0.61713 0.1102 0.5572 0.0
N717 N 0.65642 0.05762 0.62826 0.0
H718 H 0.63432 0.02757 0.57153 0.0
H719 H 0.61045 0.02734 0.54294 0.0
H720 H 0.66923 0.0651 0.65087 0.0
H721 H 0.64627 0.03782 0.62859 0.0
H722 H 0.62293 0.12827 0.5657 0.0
H723 H 0.59933 0.10114 0.54386 0.0
H724 H 0.66421 0.14894 0.5647 0.0
H725 H 0.68663 0.14865 0.59611 0.0
C726 C 0.58497 0.61543 0.14996 0.0
C727 C 0.57995 0.61789 0.11041 0.0
C728 C 0.58748 0.66012 0.11957 0.0
C729 C 0.59306 0.65787 0.15888 0.0
N730 N 0.60154 0.6358 0.21034 0.0
N731 N 0.58008 0.64343 0.05553 0.0
C732 C 0.59317 0.63623 0.1737 0.0
C733 C 0.58241 0.64058 0.09455 0.0
N734 N 0.58107 0.59285 0.16509 0.0
N735 N 0.58623 0.68055 0.10662 0.0
H736 H 0.57584 0.62925 0.03663 0.0
H737 H 0.58414 0.66037 0.04132 0.0
H738 H 0.59052 0.69547 0.12397 0.0
H739 H 0.57951 0.68213 0.0796 0.0
H740 H 0.58106 0.58859 0.19462 0.0
H741 H 0.57628 0.57758 0.14826 0.0
H742 H 0.60489 0.62197 0.22139 0.0
H743 H 0.60704 0.65035 0.22908 0.0
C744 C 0.98066 0.53598 0.68098 0.0
C745 C 0.9879 0.54684 0.64241 0.0
C746 C 0.96187 0.56588 0.6495 0.0
C747 C 0.95672 0.55707 0.68917 0.0
N748 N 0.967 0.53936 0.74497 0.0
N749 N 0.9904 0.57702 0.59302 0.0
C750 C 0.96786 0.54379 0.70565 0.0
C751 C 0.98001 0.5633 0.62757 0.0
N752 N 0.98494 0.5174 0.69368 0.0
N753 N 0.94868 0.57577 0.6323 0.0
H754 H 0.00428 0.57613 0.57659 0.0
H755 H 0.98726 0.59114 0.58269 0.0
H756 H 0.93474 0.57742 0.64711 0.0
H757 H 0.94976 0.58006 0.60253 0.0
H758 H 0.97753 0.50702 0.7202 0.0
H759 H 0.99368 0.5106 0.6763 0.0
H760 H 0.97701 0.53194 0.75861 0.0
H761 H 0.95861 0.54556 0.76425 0.0
C762 C 0.43216 0.96576 0.07563 0.0
C763 C 0.45486 0.96686 0.08874 0.0
C764 C 0.43141 0.94277 0.14912 0.0
C765 C 0.40814 0.93955 0.13453 0.0
N766 N 0.38514 0.94512 0.08232 0.0
N767 N 0.4743 0.95167 0.13469 0.0
C768 C 0.40814 0.95025 0.09726 0.0
C769 C 0.45391 0.95389 0.12444 0.0
N770 N 0.43375 0.98004 0.04309 0.0
N771 N 0.43243 0.93622 0.18723 0.0
H772 H 0.49159 0.9602 0.11844 0.0
H773 H 0.47326 0.93966 0.15774 0.0
H774 H 0.41653 0.92825 0.20677 0.0
H775 H 0.44971 0.94099 0.20052 0.0
H776 H 0.41864 0.98215 0.03416 0.0
H777 H 0.45094 0.99136 0.02642 0.0
H778 H 0.38336 0.95014 0.05381 0.0
H779 H 0.36737 0.93409 0.09772 0.0
C780 C 0.51204 0.42679 0.60485 0.0
C781 C 0.49443 0.42281 0.57516 0.0
C782 C 0.46729 0.37762 0.59663 0.0
C783 C 0.48307 0.38239 0.6293 0.0
N784 N 0.5182 0.41248 0.66798 0.0
N785 N 0.4539 0.39536 0.54451 0.0
C786 C 0.50498 0.40721 0.63425 0.0
C787 C 0.47168 0.39842 0.57139 0.0
N788 N 0.53563 0.44926 0.60476 0.0
N789 N 0.44852 0.35316 0.58933 0.0
H790 H 0.45676 0.41008 0.52503 0.0
H791 H 0.43557 0.37879 0.54325 0.0
H792 H 0.44495 0.33749 0.60714 0.0
H793 H 0.4381 0.3482 0.56398 0.0
H794 H 0.55046 0.45216 0.62307 0.0
H795 H 0.54129 0.4642 0.58398 0.0
H796 H 0.53244 0.43085 0.67491 0.0
H797 H 0.51343 0.39889 0.69073 0.0
C798 C 0.55046 0.93907 0.40242 0.0
C799 C 0.56327 0.95184 0.43591 0.0
C800 C 0.58902 0.93212 0.43531 0.0
C801 C 0.5791 0.92267 0.39864 0.0
N802 N 0.55303 0.92035 0.3443 0.0
N803 N 0.59675 0.96282 0.48239 0.0
C804 C 0.56034 0.92678 0.38149 0.0
C805 C 0.58296 0.94882 0.45215 0.0
N806 N 0.52865 0.93844 0.39088 0.0
N807 N 0.60398 0.92487 0.45418 0.0
H808 H 0.59299 0.97532 0.49545 0.0
H809 H 0.61324 0.96357 0.49259 0.0
H810 H 0.6086 0.91255 0.44264 0.0
H811 H 0.60972 0.92912 0.48261 0.0
H812 H 0.51694 0.92723 0.36907 0.0
H813 H 0.52081 0.94717 0.40564 0.0
H814 H 0.54175 0.92561 0.3289 0.0
H815 H 0.56007 0.91175 0.32743 0.0
C816 C 0.60907 0.52113 0.91339 0.0
C817 C 0.61396 0.53609 0.94563 0.0
C818 C 0.66088 0.55796 0.93191 0.0
C819 C 0.65589 0.54535 0.89694 0.0
N820 N 0.62479 0.51825 0.85067 0.0
N821 N 0.6442 0.57238 0.98109 0.0
C822 C 0.62985 0.52766 0.8867 0.0
C823 C 0.6398 0.55553 0.95373 0.0
N824 N 0.58457 0.50067 0.90832 0.0
N825 N 0.6857 0.57183 0.94469 0.0
H826 H 0.62927 0.57152 0.99737 0.0
H827 H 0.66246 0.58853 0.98518 0.0
H828 H 0.7016 0.57363 0.92978 0.0
H829 H 0.69011 0.57939 0.97188 0.0
H830 H 0.58035 0.48749 0.88763 0.0
H831 H 0.56882 0.49561 0.92705 0.0
H832 H 0.60607 0.50747 0.84025 0.0
H833 H 0.63931 0.52314 0.82965 0.0
C834 C 0.11213 0.62518 0.4791 0.0
C835 C 0.10719 0.60147 0.46777 0.0
C836 C 0.12987 0.62121 0.40524 0.0
C837 C 0.13567 0.6452 0.417 0.0
N838 N 0.13781 0.67115 0.46804 0.0
N839 N 0.11672 0.57791 0.42497 0.0
C840 C 0.12856 0.64753 0.45498 0.0
C841 C 0.11796 0.59987 0.43245 0.0
N842 N 0.10031 0.62618 0.51205 0.0
N843 N 0.13415 0.61836 0.36749 0.0
H844 H 0.10798 0.56186 0.44432 0.0
H845 H 0.12645 0.5764 0.40144 0.0
H846 H 0.14234 0.6333 0.34622 0.0
H847 H 0.12753 0.60073 0.35642 0.0
H848 H 0.10077 0.6424 0.51951 0.0
H849 H 0.0885 0.61023 0.53074 0.0
H850 H 0.13533 0.67423 0.49663 0.0
H851 H 0.1501 0.68788 0.45109 0.0
C852 C 0.47617 0.06337 0.90816 0.0
C853 C 0.50193 0.07494 0.9215 0.0
C854 C 0.51179 0.11603 0.89237 0.0
C855 C 0.48755 0.10366 0.87384 0.0
N856 N 0.44916 0.0639 0.85747 0.0
N857 N 0.5461 0.11161 0.91848 0.0
C858 C 0.47033 0.07685 0.87995 0.0
C859 C 0.5203 0.10114 0.91154 0.0
N860 N 0.45708 0.03979 0.92304 0.0
N861 N 0.52645 0.14198 0.8925 0.0
H862 H 0.55348 0.10116 0.93064 0.0
H863 H 0.56049 0.13 0.90831 0.0
H864 H 0.5204 0.1535 0.88001 0.0
H865 H 0.54316 0.15176 0.90858 0.0
H866 H 0.43751 0.03159 0.91673 0.0
H867 H 0.46033 0.02968 0.94485 0.0
H868 H 0.43755 0.04408 0.85852 0.0
H869 H 0.44485 0.07265 0.83486 0.0
C870 C 0.41739 0.44708 0.37781 0.0
C871 C 0.42734 0.47011 0.3966 0.0
C872 C 0.39379 0.47558 0.36733 0.0
C873 C 0.38639 0.45461 0.34437 0.0
N874 N 0.39514 0.42359 0.32223 0.0
N875 N 0.42778 0.50867 0.40424 0.0
C876 C 0.39922 0.44114 0.34815 0.0
C877 C 0.41625 0.48502 0.39014 0.0
N878 N 0.42483 0.43056 0.38888 0.0
N879 N 0.37903 0.48611 0.36806 0.0
H880 H 0.44456 0.51653 0.42038 0.0
H881 H 0.4221 0.52141 0.3969 0.0
H882 H 0.36219 0.47938 0.35227 0.0
H883 H 0.38206 0.4998 0.38714 0.0
H884 H 0.4162 0.41238 0.37875 0.0
H885 H 0.43766 0.43395 0.41117 0.0
H886 H 0.40608 0.41524 0.32136 0.0
H887 H 0.38275 0.41925 0.29907 0.0
C888 C 0.94973 0.38661 0.95709 0.0
C889 C 0.95871 0.41225 0.94497 0.0
C890 C 0.94367 0.39899 0.87957 0.0
C891 C 0.93174 0.37307 0.89298 0.0
N892 N 0.91911 0.34205 0.94684 0.0
N893 N 0.95838 0.44163 0.89669 0.0
C894 C 0.93348 0.36681 0.9325 0.0
C895 C 0.95392 0.41809 0.9068 0.0
N896 N 0.95765 0.3812 0.99119 0.0
N897 N 0.94642 0.40564 0.8407 0.0
H898 H 0.96534 0.45609 0.91589 0.0
H899 H 0.95264 0.4459 0.87051 0.0
H900 H 0.94038 0.39246 0.81945 0.0
H901 H 0.95727 0.42448 0.82951 0.0
H902 H 0.9537 0.36312 0.99949 0.0
H903 H 0.97041 0.39521 0.00929 0.0
H904 H 0.91772 0.33671 0.97627 0.0
H905 H 0.90658 0.3271 0.92989 0.0
C906 C 0.94518 0.50638 0.94496 0.0
C907 C 0.95712 0.52081 0.97744 0.0
C908 C 0.93746 0.54573 0.96288 0.0
C909 C 0.92949 0.53437 0.92684 0.0
N910 N 0.92893 0.50598 0.88099 0.0
N911 N 0.96722 0.55636 0.01534 0.0
C912 C 0.93388 0.51499 0.91728 0.0
C913 C 0.95383 0.54098 0.98611 0.0
N914 N 0.94464 0.48444 0.94063 0.0
N915 N 0.92914 0.56085 0.97503 0.0
H916 H 0.97934 0.55351 0.03318 0.0
H917 H 0.96785 0.57307 0.01998 0.0
H918 H 0.91677 0.56433 0.95885 0.0
H919 H 0.93234 0.56775 0.00264 0.0
H920 H 0.93393 0.47177 0.91958 0.0
H921 H 0.95279 0.47769 0.96056 0.0
H922 H 0.93451 0.49396 0.87128 0.0
H923 H 0.92133 0.51218 0.85931 0.0
C924 C 0.43784 0.97363 0.41105 0.0
C925 C 0.45488 0.96598 0.424 0.0
C926 C 0.42705 0.92491 0.3953 0.0
C927 C 0.4128 0.93446 0.37691 0.0
N928 N 0.40929 0.97077 0.36052 0.0
N929 N 0.46711 0.93498 0.42603 0.0
C930 C 0.41937 0.95958 0.38304 0.0
C931 C 0.44986 0.94173 0.41552 0.0
N932 N 0.43916 0.99425 0.42561 0.0
N933 N 0.41835 0.89968 0.39453 0.0
H934 H 0.48367 0.9466 0.44157 0.0
H935 H 0.46598 0.91873 0.41694 0.0
H936 H 0.40133 0.88673 0.38097 0.0
H937 H 0.42656 0.89117 0.41042 0.0
H938 H 0.42554 0.99915 0.41968 0.0
H939 H 0.4522 0.00481 0.4467 0.0
H940 H 0.41556 0.98992 0.36155 0.0
H941 H 0.39697 0.96194 0.33777 0.0
C942 C 0.47788 0.4107 0.90831 0.0
C943 C 0.50223 0.42435 0.9263 0.0
C944 C 0.51403 0.39573 0.90022 0.0
C945 C 0.49136 0.38462 0.87785 0.0
N946 N 0.45468 0.386 0.8542 0.0
N947 N 0.54571 0.43278 0.93314 0.0
C948 C 0.47404 0.39329 0.88015 0.0
C949 C 0.52095 0.41765 0.92065 0.0
N950 N 0.45813 0.41381 0.91882 0.0
N951 N 0.52859 0.385 0.90283 0.0
H952 H 0.5519 0.44935 0.94738 0.0
H953 H 0.56078 0.43022 0.92603 0.0
H954 H 0.52379 0.3686 0.88898 0.0
H955 H 0.54385 0.39087 0.92175 0.0
H956 H 0.43923 0.4025 0.9092 0.0
H957 H 0.45988 0.42578 0.94029 0.0
H958 H 0.44324 0.39384 0.85236 0.0
H959 H 0.45185 0.37426 0.83179 0.0
C960 C 0.08902 0.45644 0.41027 0.0
C961 C 0.10492 0.48052 0.42591 0.0
C962 C 0.143 0.48616 0.39093 0.0
C963 C 0.1264 0.46378 0.37131 0.0
N964 N 0.08261 0.43052 0.3566 0.0
N965 N 0.14646 0.52024 0.42684 0.0
C966 C 0.09912 0.44963 0.37948 0.0
C967 C 0.13182 0.49593 0.41523 0.0
N968 N 0.06441 0.43981 0.42537 0.0
N969 N 0.1694 0.49775 0.38707 0.0
H970 H 0.13895 0.52818 0.44428 0.0
H971 H 0.16544 0.53323 0.41649 0.0
H972 H 0.17821 0.49093 0.36987 0.0
H973 H 0.18242 0.51264 0.40364 0.0
H974 H 0.05295 0.42103 0.41761 0.0
H975 H 0.05647 0.44391 0.44852 0.0
H976 H 0.06243 0.42145 0.35891 0.0
H977 H 0.08896 0.42545 0.33268 0.0
C978 C 0.63983 0.073 0.92858 0.0
C979 C 0.6153 0.07033 0.9238 0.0
C980 C 0.6303 0.09376 0.86035 0.0
C981 C 0.65527 0.09764 0.86626 0.0
N982 N 0.68562 0.09639 0.90963 0.0
N983 N 0.58857 0.08207 0.88915 0.0
C984 C 0.66059 0.08896 0.90158 0.0
C985 C 0.61102 0.08206 0.89095 0.0
N986 N 0.64302 0.05943 0.95791 0.0
N987 N 0.62457 0.10005 0.82494 0.0
H988 H 0.57396 0.07338 0.91093 0.0
H989 H 0.58539 0.09248 0.86785 0.0
H990 H 0.63807 0.1085 0.8017 0.0
H991 H 0.6059 0.0951 0.81757 0.0
H992 H 0.65945 0.05828 0.95998 0.0
H993 H 0.62844 0.04765 0.97856 0.0
H994 H 0.69106 0.09281 0.93659 0.0
H995 H 0.70138 0.10831 0.8906 0.0
C996 C 0.55141 0.59204 0.40122 0.0
C997 C 0.56359 0.59152 0.4359 0.0
C998 C 0.59258 0.63799 0.42971 0.0
C999 C 0.58218 0.63821 0.39305 0.0
N1000 N 0.55518 0.61499 0.34035 0.0
N1001 N 0.59797 0.61312 0.48084 0.0
C1002 C 0.56249 0.6151 0.37782 0.0
C1003 C 0.58485 0.61427 0.44952 0.0
N1004 N 0.52895 0.5706 0.39106 0.0
N1005 N 0.60925 0.66044 0.44607 0.0
H1006 H 0.59258 0.59608 0.49634 0.0
H1007 H 0.61532 0.6287 0.48967 0.0
H1008 H 0.61521 0.67815 0.43242 0.0
H1009 H 0.61541 0.66152 0.47441 0.0
H1010 H 0.51767 0.57055 0.36837 0.0
H1011 H 0.52033 0.55326 0.40735 0.0
H1012 H 0.54303 0.59836 0.3264 0.0
H1013 H 0.5631 0.63139 0.32188 0.0
C1014 C 0.4883 0.10424 0.5622 0.0
C1015 C 0.49291 0.08533 0.57685 0.0
C1016 C 0.48374 0.09127 0.64312 0.0
C1017 C 0.47722 0.1088 0.6284 0.0
N1018 N 0.46915 0.12908 0.57387 0.0
N1019 N 0.48917 0.05659 0.62977 0.0
C1020 C 0.47827 0.11445 0.58784 0.0
C1021 C 0.48881 0.07753 0.61689 0.0
N1022 N 0.49432 0.11301 0.52418 0.0
N1023 N 0.48628 0.08855 0.68212 0.0
H1024 H 0.49254 0.04578 0.61137 0.0
H1025 H 0.48361 0.04845 0.65798 0.0
H1026 H 0.48328 0.09861 0.7025 0.0
H1027 H 0.49379 0.07816 0.694 0.0
H1028 H 0.49411 0.12868 0.51272 0.0
H1029 H 0.50136 0.10569 0.50457 0.0
H1030 H 0.46692 0.13178 0.54448 0.0
H1031 H 0.46183 0.13693 0.59192 0.0
C1032 C 0.44083 0.48891 0.1051 0.0
C1033 C 0.44451 0.47859 0.07172 0.0
C1034 C 0.39731 0.44738 0.07167 0.0
C1035 C 0.39441 0.45595 0.10749 0.0
N1036 N 0.41444 0.48112 0.16267 0.0
N1037 N 0.42671 0.4464 0.02502 0.0
C1038 C 0.41644 0.4757 0.12539 0.0
C1039 C 0.42282 0.45738 0.05537 0.0
N1040 N 0.46048 0.51162 0.11726 0.0
N1041 N 0.37567 0.4301 0.05298 0.0
H1042 H 0.44504 0.45347 0.01209 0.0
H1043 H 0.41215 0.42934 0.01435 0.0
H1044 H 0.35684 0.42237 0.06443 0.0
H1045 H 0.37623 0.4249 0.02499 0.0
H1046 H 0.45789 0.52143 0.13852 0.0
H1047 H 0.47878 0.52182 0.10371 0.0
H1048 H 0.43054 0.49324 0.17862 0.0
H1049 H 0.39708 0.47169 0.17925 0.0
C1050 C 0.98184 0.40767 0.59393 0.0
C1051 C 0.98712 0.43191 0.60294 0.0
C1052 C 0.95897 0.413 0.66151 0.0
C1053 C 0.95202 0.38844 0.65086 0.0
N1054 N 0.9526 0.36189 0.60293 0.0
N1055 N 0.97696 0.45724 0.64063 0.0
C1056 C 0.9622 0.38562 0.6158 0.0
C1057 C 0.97443 0.43442 0.63525 0.0
N1058 N 0.99614 0.40578 0.56526 0.0
N1059 N 0.95203 0.4161 0.6975 0.0
H1060 H 0.98831 0.47342 0.62212 0.0
H1061 H 0.96603 0.45953 0.66136 0.0
H1062 H 0.94122 0.40104 0.71806 0.0
H1063 H 0.959 0.43386 0.70833 0.0
H1064 H 0.99514 0.38894 0.56022 0.0
H1065 H 0.01055 0.42152 0.54839 0.0
H1066 H 0.95741 0.35876 0.57573 0.0
H1067 H 0.93789 0.34534 0.61794 0.0
C1068 C 0.58578 0.9373 0.09684 0.0
C1069 C 0.58655 0.95914 0.10878 0.0
C1070 C 0.60403 0.95586 0.17118 0.0
C1071 C 0.6005 0.93245 0.16093 0.0
N1072 N 0.58749 0.90004 0.11535 0.0
N1073 N 0.59524 0.9891 0.15708 0.0
C1074 C 0.59144 0.92303 0.12394 0.0
C1075 C 0.59563 0.96856 0.14576 0.0
N1076 N 0.57978 0.9304 0.05951 0.0
N1077 N 0.6155 0.96595 0.20522 0.0
H1078 H 0.59038 0.99963 0.13863 0.0
H1079 H 0.59837 0.99504 0.18526 0.0
H1080 H 0.62098 0.95674 0.22536 0.0
H1081 H 0.6213 0.98421 0.21255 0.0
H1082 H 0.58122 0.91616 0.04761 0.0
H1083 H 0.57507 0.94021 0.03926 0.0
H1084 H 0.57815 0.89056 0.09084 0.0
H1085 H 0.59248 0.88968 0.13394 0.0
C1086 C 0.64456 0.5504 0.5945 0.0
C1087 C 0.61839 0.53415 0.60856 0.0
C1088 C 0.6338 0.53138 0.67302 0.0
C1089 C 0.65984 0.54514 0.6578 0.0
N1090 N 0.68965 0.56373 0.6023 0.0
N1091 N 0.58815 0.50482 0.65914 0.0
C1092 C 0.66513 0.55349 0.61797 0.0
C1093 C 0.613 0.52335 0.64725 0.0
N1094 N 0.64985 0.56368 0.5594 0.0
N1095 N 0.62888 0.52692 0.71221 0.0
H1096 H 0.57234 0.49811 0.64109 0.0
H1097 H 0.58364 0.4944 0.68571 0.0
H1098 H 0.64352 0.53312 0.73235 0.0
H1099 H 0.61042 0.51933 0.72491 0.0
H1100 H 0.66862 0.57773 0.54951 0.0
H1101 H 0.63537 0.56247 0.54178 0.0
H1102 H 0.69404 0.56777 0.57263 0.0
H1103 H 0.70512 0.56595 0.6185 0.0
C1104 C 0.07161 0.60422 0.17809 0.0
C1105 C 0.07891 0.60292 0.1397 0.0
C1106 C 0.11775 0.64602 0.14146 0.0
C1107 C 0.11187 0.64616 0.18115 0.0
N1108 N 0.08494 0.62471 0.23895 0.0
N1109 N 0.10965 0.62117 0.08529 0.0
C1110 C 0.08918 0.62512 0.19991 0.0
C1111 C 0.10213 0.62352 0.12137 0.0
N1112 N 0.04769 0.58561 0.1934 0.0
N1113 N 0.13803 0.66755 0.12293 0.0
H1114 H 0.09835 0.60527 0.06928 0.0
H1115 H 0.12777 0.63418 0.07213 0.0
H1116 H 0.15008 0.68419 0.13705 0.0
H1117 H 0.14178 0.66966 0.09311 0.0
H1118 H 0.04 0.58675 0.21962 0.0
H1119 H 0.03448 0.56985 0.17836 0.0
H1120 H 0.0705 0.60872 0.25521 0.0
H1121 H 0.09705 0.63982 0.2559 0.0
loop_
_geom_bond_atom_site_label_1
_geom_bond_atom_site_label_2
_geom_bond_distance
_geom_bond_site_symmetry_2
_ccdc_geom_bond_type
C0 C1 1.443 . S
C0 N4 1.376 . S
C0 C38 1.389 . S
C1 C0 1.443 . S
C1 C2 1.340 . S
C1 H41 0.951 . S
C2 C1 1.340 . S
C2 C3 1.439 . S
C2 H42 0.950 . S
C3 C2 1.439 . S
C3 N4 1.374 . S
C3 C37 1.395 . S
N4 C0 1.376 . S
N4 C3 1.374 . S
N4 Co5 2.008 1_655 S
Co5 N4 2.008 1_455 S
Co5 N6 1.995 1_455 S
Co5 N11 2.008 . S
Co5 N16 1.995 . S
Co5 N21 2.282 . S
Co5 N27 2.282 1_455 S
N6 Co5 1.995 1_655 S
N6 C7 1.377 . S
N6 C10 1.381 1_655 S
C7 N6 1.377 . S
C7 C8 1.446 . S
C7 C37 1.391 . S
C8 C7 1.446 . S
C8 C9 1.339 1_655 S
C8 H43 0.949 . S
C9 C8 1.339 1_455 S
C9 C10 1.439 . S
C9 H44 0.950 . S
C10 N6 1.381 1_455 S
C10 C9 1.439 . S
C10 C39 1.392 . S
N11 Co5 2.008 . S
N11 C12 1.376 . S
N11 C15 1.374 . S
C12 N11 1.376 . S
C12 C13 1.443 . S
C12 C39 1.389 . S
C13 C12 1.443 . S
C13 C14 1.340 . S
C13 H45 0.951 . S
C14 C13 1.340 . S
C14 C15 1.439 . S
C14 H46 0.950 1_554 S
C15 N11 1.374 . S
C15 C14 1.439 . S
C15 C40 1.395 1_554 S
N16 Co5 1.995 . S
N16 C17 1.376 1_554 S
N16 C20 1.383 1_454 S
C17 N16 1.376 1_556 S
C17 C18 1.446 . S
C17 C40 1.391 . S
C18 C17 1.446 . S
C18 C19 1.339 1_455 S
C18 H47 0.949 . S
C19 C18 1.339 1_655 S
C19 C20 1.439 . S
C19 H48 0.950 . S
C20 N16 1.383 1_656 S
C20 C19 1.439 . S
C20 C38 1.392 1_556 S
N21 Co5 2.282 . S
N21 C24 1.332 . S
N21 C26 1.332 . S
C22 C23 1.386 . S
C22 C25 1.388 . S
C23 C22 1.386 . S
C23 C24 1.382 . S
C23 H49 0.950 . S
C24 N21 1.332 . S
C24 C23 1.382 . S
C24 H35 0.952 . S
C25 C22 1.388 . S
C25 C26 1.382 . S
C25 H50 0.950 . S
C26 N21 1.332 . S
C26 C25 1.382 . S
C26 H36 0.948 . S
N27 Co5 2.282 1_655 S
N27 C31 1.332 . S
N27 C32 1.332 1_554 S
C28 C29 1.388 . S
C28 C32 1.382 . S
C28 H51 0.950 . S
C29 C28 1.388 . S
C29 C30 1.386 1_556 S
C30 C29 1.386 1_554 S
C30 C31 1.382 . S
C30 H52 0.950 . S
C31 N27 1.332 . S
C31 C30 1.382 . S
C31 H33 0.952 . S
C32 N27 1.332 1_556 S
C32 C28 1.382 . S
C32 H34 0.948 . S
H33 C31 0.952 . S
H34 C32 0.948 . S
H35 C24 0.952 . S
H36 C26 0.948 . S
C37 C3 1.395 . S
C37 C7 1.391 . S
C38 C0 1.389 . S
C38 C20 1.392 1_554 S
C39 C10 1.392 . S
C39 C12 1.389 . S
C40 C15 1.395 1_556 S
C40 C17 1.391 . S
H41 C1 0.951 . S
H42 C2 0.950 . S
H43 C8 0.949 . S
H44 C9 0.950 . S
H45 C13 0.951 . S
H46 C14 0.950 1_556 S
H47 C18 0.949 . S
H48 C19 0.950 . S
H49 C23 0.950 . S
H50 C25 0.950 . S
H51 C28 0.950 . S
H52 C30 0.950 . S
C53 C54 1.443 . S
C53 N57 1.376 . S
C53 C91 1.389 . S
C54 C53 1.443 . S
C54 C55 1.340 . S
C54 H94 0.951 . S
C55 C54 1.340 . S
C55 C56 1.439 1_545 S
C55 H95 0.950 1_545 S
C56 C55 1.439 1_565 S
C56 N57 1.374 1_565 S
C56 C90 1.395 . S
N57 C53 1.376 . S
N57 C56 1.374 1_545 S
N57 Co58 2.008 . S
Co58 N57 2.008 . S
Co58 N59 1.995 1_545 S
Co58 N64 2.008 . S
Co58 N69 1.995 . S
Co58 N74 2.282 1_545 S
Co58 N80 2.282 . S
N59 Co58 1.995 1_565 S
N59 C60 1.376 . S
N59 C63 1.383 . S
C60 N59 1.376 . S
C60 C61 1.446 . S
C60 C90 1.391 . S
C61 C60 1.446 . S
C61 C62 1.339 . S
C61 H96 0.949 . S
C62 C61 1.339 . S
C62 C63 1.439 . S
C62 H97 0.950 . S
C63 N59 1.383 . S
C63 C62 1.439 . S
C63 C92 1.392 . S
N64 Co58 2.008 . S
N64 C65 1.376 1_545 S
N64 C68 1.374 . S
C65 N64 1.376 1_565 S
C65 C66 1.443 . S
C65 C92 1.389 . S
C66 C65 1.443 . S
C66 C67 1.340 1_565 S
C66 H98 0.951 . S
C67 C66 1.340 1_545 S
C67 C68 1.439 . S
C67 H99 0.950 . S
C68 N64 1.374 . S
C68 C67 1.439 . S
C68 C93 1.395 . S
N69 Co58 1.995 . S
N69 C70 1.376 . S
N69 C73 1.383 . S
C70 N69 1.376 . S
C70 C71 1.446 . S
C70 C93 1.391 . S
C71 C70 1.446 . S
C71 C72 1.339 . S
C71 H100 0.949 . S
C72 C71 1.339 . S
C72 C73 1.439 . S
C72 H101 0.950 . S
C73 N69 1.383 . S
C73 C72 1.439 . S
C73 C91 1.392 . S
N74 Co58 2.282 1_565 S
N74 C77 1.332 . S
N74 C79 1.332 . S
C75 C76 1.386 . S
C75 C78 1.388 . S
C76 C75 1.386 . S
C76 C77 1.382 . S
C76 H102 0.950 . S
C77 N74 1.332 . S
C77 C76 1.382 . S
C77 H88 0.952 1_565 S
C78 C75 1.388 . S
C78 C79 1.382 . S
C78 H103 0.950 . S
C79 N74 1.332 . S
C79 C78 1.382 . S
C79 H89 0.948 . S
N80 Co58 2.282 . S
N80 C84 1.332 . S
N80 C85 1.332 . S
C81 C82 1.388 . S
C81 C85 1.382 . S
C81 H104 0.950 . S
C82 C81 1.388 . S
C82 C83 1.386 . S
C83 C82 1.386 . S
C83 C84 1.382 . S
C83 H105 0.950 . S
C84 N80 1.332 . S
C84 C83 1.382 . S
C84 H86 0.952 . S
C85 N80 1.332 . S
C85 C81 1.382 . S
C85 H87 0.948 . S
H86 C84 0.952 . S
H87 C85 0.948 . S
H88 C77 0.952 1_545 S
H89 C79 0.948 . S
C90 C56 1.395 . S
C90 C60 1.391 . S
C91 C53 1.389 . S
C91 C73 1.392 . S
C92 C63 1.392 . S
C92 C65 1.389 . S
C93 C68 1.395 . S
C93 C70 1.391 . S
H94 C54 0.951 . S
H95 C55 0.950 1_565 S
H96 C61 0.949 . S
H97 C62 0.950 . S
H98 C66 0.951 . S
H99 C67 0.950 . S
H100 C71 0.949 . S
H101 C72 0.950 . S
H102 C76 0.950 . S
H103 C78 0.950 . S
H104 C81 0.950 . S
H105 C83 0.950 . S
C106 C107 1.443 . S
C106 N110 1.376 . S
C106 C144 1.389 . S
C107 C106 1.443 . S
C107 C108 1.340 . S
C107 H147 0.951 . S
C108 C107 1.340 . S
C108 C109 1.439 . S
C108 H148 0.950 . S
C109 C108 1.439 . S
C109 N110 1.374 . S
C109 C143 1.395 . S
N110 C106 1.376 . S
N110 C109 1.374 . S
N110 Co111 2.008 1_556 S
Co111 N110 2.008 1_554 S
Co111 N112 1.995 1_554 S
Co111 N117 2.008 . S
Co111 N122 1.995 . S
Co111 N127 2.282 . S
Co111 N133 2.282 1_554 S
N112 Co111 1.995 1_556 S
N112 C113 1.376 . S
N112 C116 1.383 1_556 S
C113 N112 1.376 . S
C113 C114 1.446 . S
C113 C143 1.391 . S
C114 C113 1.446 . S
C114 C115 1.339 . S
C114 H149 0.949 . S
C115 C114 1.339 . S
C115 C116 1.439 1_556 S
C115 H150 0.950 . S
C116 N112 1.383 1_554 S
C116 C115 1.439 1_554 S
C116 C145 1.392 . S
N117 Co111 2.008 . S
N117 C118 1.376 . S
N117 C121 1.374 . S
C118 N117 1.376 . S
C118 C119 1.443 . S
C118 C145 1.389 . S
C119 C118 1.443 . S
C119 C120 1.340 . S
C119 H151 0.951 . S
C120 C119 1.340 . S
C120 C121 1.439 . S
C120 H152 0.950 . S
C121 N117 1.374 . S
C121 C120 1.439 . S
C121 C146 1.395 . S
N122 Co111 1.995 . S
N122 C123 1.376 . S
N122 C126 1.392 . S
C123 N122 1.376 . S
C123 C124 1.446 . S
C123 C146 1.391 . S
C124 C123 1.446 . S
C124 C125 1.339 . S
C124 H153 0.949 . S
C125 C124 1.339 . S
C125 C126 1.447 . S
C125 H154 0.950 . S
C126 N122 1.392 . S
C126 C125 1.447 . S
C126 C144 1.376 1_554 S
N127 Co111 2.282 . S
N127 C130 1.332 . S
N127 C132 1.332 . S
C128 C129 1.386 . S
C128 C131 1.388 . S
C129 C128 1.386 . S
C129 C130 1.382 . S
C129 H155 0.950 . S
C130 N127 1.332 . S
C130 C129 1.382 . S
C130 H141 0.952 . S
C131 C128 1.388 . S
C131 C132 1.382 . S
C131 H156 0.950 . S
C132 N127 1.332 . S
C132 C131 1.382 . S
C132 H142 0.948 1_554 S
N133 Co111 2.282 1_556 S
N133 C137 1.332 . S
N133 C138 1.332 . S
C134 C135 1.388 . S
C134 C138 1.382 . S
C134 H157 0.950 . S
C135 C134 1.388 . S
C135 C136 1.386 . S
C136 C135 1.386 . S
C136 C137 1.382 . S
C136 H158 0.950 . S
C137 N133 1.332 . S
C137 C136 1.382 . S
C137 H139 0.952 . S
C138 N133 1.332 . S
C138 C134 1.382 . S
C138 H140 0.948 1_556 S
H139 C137 0.952 . S
H140 C138 0.948 1_554 S
H141 C130 0.952 . S
H142 C132 0.948 1_556 S
C143 C109 1.395 . S
C143 C113 1.391 . S
C144 C106 1.389 . S
C144 C126 1.376 1_556 S
C145 C116 1.392 . S
C145 C118 1.389 . S
C146 C121 1.395 . S
C146 C123 1.391 . S
H147 C107 0.951 . S
H148 C108 0.950 . S
H149 C114 0.949 . S
H150 C115 0.950 . S
H151 C119 0.951 . S
H152 C120 0.950 . S
H153 C124 0.949 . S
H154 C125 0.950 . S
H155 C129 0.950 . S
H156 C131 0.950 . S
H157 C134 0.950 . S
H158 C136 0.950 . S
C159 C160 1.443 1_455 S
C159 N163 1.376 . S
C159 C197 1.389 . S
C160 C159 1.443 1_655 S
C160 C161 1.340 . S
C160 H200 0.951 . S
C161 C160 1.340 . S
C161 C162 1.439 1_655 S
C161 H201 0.950 . S
C162 C161 1.439 1_455 S
C162 N163 1.374 . S
C162 C196 1.395 . S
N163 C159 1.376 . S
N163 C162 1.374 . S
N163 Co164 2.008 . S
Co164 N163 2.008 . S
Co164 N165 1.995 . S
Co164 N170 2.008 . S
Co164 N175 1.995 . S
Co164 N180 2.282 . S
Co164 N186 2.282 . S
N165 Co164 1.995 . S
N165 C166 1.376 . S
N165 C169 1.383 . S
C166 N165 1.376 . S
C166 C167 1.446 . S
C166 C196 1.391 . S
C167 C166 1.446 . S
C167 C168 1.339 . S
C167 H202 0.949 . S
C168 C167 1.339 . S
C168 C169 1.439 . S
C168 H203 0.950 . S
C169 N165 1.383 . S
C169 C168 1.439 . S
C169 C198 1.392 . S
N170 Co164 2.008 . S
N170 C171 1.376 . S
N170 C174 1.374 . S
C171 N170 1.376 . S
C171 C172 1.443 . S
C171 C198 1.389 . S
C172 C171 1.443 . S
C172 C173 1.340 . S
C172 H204 0.951 . S
C173 C172 1.340 . S
C173 C174 1.439 . S
C173 H205 0.950 . S
C174 N170 1.374 . S
C174 C173 1.439 . S
C174 C199 1.395 . S
N175 Co164 1.995 . S
N175 C176 1.376 . S
N175 C179 1.383 . S
C176 N175 1.376 . S
C176 C177 1.446 . S
C176 C199 1.391 . S
C177 C176 1.446 . S
C177 C178 1.339 . S
C177 H206 0.949 . S
C178 C177 1.339 . S
C178 C179 1.439 . S
C178 H207 0.950 . S
C179 N175 1.383 . S
C179 C178 1.439 . S
C179 C197 1.392 . S
N180 Co164 2.282 . S
N180 C183 1.332 . S
N180 C185 1.332 . S
C181 C182 1.386 . S
C181 C184 1.388 . S
C182 C181 1.386 . S
C182 C183 1.382 . S
C182 H208 0.950 . S
C183 N180 1.332 . S
C183 C182 1.382 . S
C183 H194 0.952 . S
C184 C181 1.388 . S
C184 C185 1.382 . S
C184 H209 0.950 . S
C185 N180 1.332 . S
C185 C184 1.382 . S
C185 H195 0.948 . S
N186 Co164 2.282 . S
N186 C190 1.332 . S
N186 C191 1.332 . S
C187 C188 1.388 . S
C187 C191 1.382 . S
C187 H210 0.950 . S
C188 C187 1.388 . S
C188 C189 1.386 . S
C189 C188 1.386 . S
C189 C190 1.382 . S
C189 H211 0.950 1_455 S
C190 N186 1.332 . S
C190 C189 1.382 . S
C190 H192 0.952 . S
C191 N186 1.332 . S
C191 C187 1.382 . S
C191 H193 0.948 . S
H192 C190 0.952 . S
H193 C191 0.948 . S
H194 C183 0.952 . S
H195 C185 0.948 . S
C196 C162 1.395 . S
C196 C166 1.391 . S
C197 C159 1.389 . S
C197 C179 1.392 . S
C198 C169 1.392 . S
C198 C171 1.389 . S
C199 C174 1.395 . S
C199 C176 1.391 . S
H200 C160 0.951 . S
H201 C161 0.950 . S
H202 C167 0.949 . S
H203 C168 0.950 . S
H204 C172 0.951 . S
H205 C173 0.950 . S
H206 C177 0.949 . S
H207 C178 0.950 . S
H208 C182 0.950 . S
H209 C184 0.950 . S
H210 C187 0.950 . S
H211 C189 0.950 1_655 S
C212 C213 1.443 . S
C212 N216 1.376 1_565 S
C212 C250 1.389 . S
C213 C212 1.443 . S
C213 C214 1.340 1_565 S
C213 H253 0.951 . S
C214 C213 1.340 1_545 S
C214 C215 1.439 . S
C214 H254 0.950 . S
C215 C214 1.439 . S
C215 N216 1.374 . S
C215 C249 1.395 . S
N216 C212 1.376 1_545 S
N216 C215 1.374 . S
N216 Co217 2.008 . S
Co217 N216 2.008 . S
Co217 N218 1.995 . S
Co217 N223 2.008 1_554 S
Co217 N228 1.995 1_544 S
Co217 N233 2.282 1_554 S
Co217 N239 2.282 1_545 S
N218 Co217 1.995 . S
N218 C219 1.376 . S
N218 C222 1.383 1_554 S
C219 N218 1.376 . S
C219 C220 1.446 . S
C219 C249 1.391 . S
C220 C219 1.446 . S
C220 C221 1.339 . S
C220 H255 0.949 . S
C221 C220 1.339 . S
C221 C222 1.439 1_554 S
C221 H256 0.950 1_554 S
C222 N218 1.383 1_556 S
C222 C221 1.439 1_556 S
C222 C251 1.392 . S
N223 Co217 2.008 1_556 S
N223 C224 1.376 . S
N223 C227 1.366 1_545 S
C224 N223 1.376 . S
C224 C225 1.443 . S
C224 C251 1.389 . S
C225 C224 1.443 . S
C225 C226 1.340 . S
C225 H257 0.951 . S
C226 C225 1.340 . S
C226 C227 1.438 1_545 S
C226 H258 0.950 . S
C227 N223 1.366 1_565 S
C227 C226 1.438 1_565 S
C227 C252 1.402 . S
N228 Co217 1.995 1_566 S
N228 C229 1.376 . S
N228 C232 1.383 1_556 S
C229 N228 1.376 . S
C229 C230 1.446 . S
C229 C252 1.391 . S
C230 C229 1.446 . S
C230 C231 1.355 . S
C230 H259 0.949 . S
C231 C230 1.355 . S
C231 C232 1.430 1_556 S
C231 H260 0.943 1_556 S
C232 N228 1.383 1_554 S
C232 C231 1.430 1_554 S
C232 C250 1.392 . S
N233 Co217 2.282 1_556 S
N233 C236 1.332 . S
N233 C238 1.332 . S
C234 C235 1.386 . S
C234 C237 1.388 . S
C235 C234 1.386 . S
C235 C236 1.382 . S
C235 H261 0.950 . S
C236 N233 1.332 . S
C236 C235 1.382 . S
C236 H247 0.952 . S
C237 C234 1.388 . S
C237 C238 1.382 . S
C237 H262 0.950 . S
C238 N233 1.332 . S
C238 C237 1.382 . S
C238 H248 0.948 1_556 S
N239 Co217 2.282 1_565 S
N239 C243 1.332 . S
N239 C244 1.332 . S
C240 C241 1.388 . S
C240 C244 1.382 . S
C240 H263 0.950 . S
C241 C240 1.388 . S
C241 C242 1.386 . S
C242 C241 1.386 . S
C242 C243 1.382 . S
C242 H264 0.950 . S
C243 N239 1.332 . S
C243 C242 1.382 . S
C243 H245 0.952 1_565 S
C244 N239 1.332 . S
C244 C240 1.382 . S
C244 H246 0.972 . S
H245 C243 0.952 1_545 S
H246 C244 0.972 . S
H247 C236 0.952 . S
H248 C238 0.948 1_554 S
C249 C215 1.395 . S
C249 C219 1.391 . S
C250 C212 1.389 . S
C250 C232 1.392 . S
C251 C222 1.392 . S
C251 C224 1.389 . S
C252 C227 1.402 . S
C252 C229 1.391 . S
H253 C213 0.951 . S
H254 C214 0.950 . S
H255 C220 0.949 . S
H256 C221 0.950 1_556 S
H257 C225 0.951 . S
H258 C226 0.950 . S
H259 C230 0.949 . S
H260 C231 0.943 1_554 S
H261 C235 0.950 . S
H262 C237 0.950 . S
H263 C240 0.950 . S
H264 C242 0.950 . S
C265 C266 1.443 . S
C265 N269 1.376 . S
C265 C303 1.389 . S
C266 C265 1.443 . S
C266 C267 1.340 . S
C266 H306 0.951 . S
C267 C266 1.340 . S
C267 C268 1.439 . S
C267 H307 0.950 . S
C268 C267 1.439 . S
C268 N269 1.374 . S
C268 C302 1.395 . S
N269 C265 1.376 . S
N269 C268 1.374 . S
N269 Co270 2.008 . S
Co270 N269 2.008 . S
Co270 N271 1.995 . S
Co270 N276 2.008 . S
Co270 N281 1.995 . S
Co270 N286 2.282 . S
Co270 N292 2.282 . S
N271 Co270 1.995 . S
N271 C272 1.376 . S
N271 C275 1.383 . S
C272 N271 1.376 . S
C272 C273 1.446 . S
C272 C302 1.391 . S
C273 C272 1.446 . S
C273 C274 1.339 . S
C273 H308 0.949 . S
C274 C273 1.339 . S
C274 C275 1.439 . S
C274 H309 0.950 . S
C275 N271 1.383 . S
C275 C274 1.439 . S
C275 C304 1.392 . S
N276 Co270 2.008 . S
N276 C277 1.376 . S
N276 C280 1.374 . S
C277 N276 1.376 . S
C277 C278 1.443 . S
C277 C304 1.389 . S
C278 C277 1.443 . S
C278 C279 1.340 . S
C278 H310 0.951 . S
C279 C278 1.340 . S
C279 C280 1.439 . S
C279 H311 0.950 . S
C280 N276 1.374 . S
C280 C279 1.439 . S
C280 C305 1.395 . S
N281 Co270 1.995 . S
N281 C282 1.376 . S
N281 C285 1.383 . S
C282 N281 1.376 . S
C282 C283 1.446 . S
C282 C305 1.391 . S
C283 C282 1.446 . S
C283 C284 1.339 . S
C283 H312 0.949 . S
C284 C283 1.339 . S
C284 C285 1.439 . S
C284 H313 0.950 . S
C285 N281 1.383 . S
C285 C284 1.439 . S
C285 C303 1.392 . S
N286 Co270 2.282 . S
N286 C289 1.332 . S
N286 C291 1.332 . S
C287 C288 1.386 . S
C287 C290 1.388 . S
C288 C287 1.386 . S
C288 C289 1.382 . S
C288 H314 0.950 . S
C289 N286 1.332 . S
C289 C288 1.382 . S
C289 H300 0.952 . S
C290 C287 1.388 . S
C290 C291 1.382 . S
C290 H315 0.950 . S
C291 N286 1.332 . S
C291 C290 1.382 . S
C291 H301 0.948 . S
N292 Co270 2.282 . S
N292 C296 1.332 . S
N292 C297 1.332 . S
C293 C294 1.388 . S
C293 C297 1.382 . S
C293 H316 0.950 . S
C294 C293 1.388 . S
C294 C295 1.386 . S
C295 C294 1.386 . S
C295 C296 1.382 . S
C295 H317 0.950 . S
C296 N292 1.332 . S
C296 C295 1.382 . S
C296 H298 0.952 . S
C297 N292 1.332 . S
C297 C293 1.382 . S
C297 H299 0.948 . S
H298 C296 0.952 . S
H299 C297 0.948 . S
H300 C289 0.952 . S
H301 C291 0.948 . S
C302 C268 1.395 . S
C302 C272 1.391 . S
C303 C265 1.389 . S
C303 C285 1.392 . S
C304 C275 1.392 . S
C304 C277 1.389 . S
C305 C280 1.395 . S
C305 C282 1.391 . S
H306 C266 0.951 . S
H307 C267 0.950 . S
H308 C273 0.949 . S
H309 C274 0.950 . S
H310 C278 0.951 . S
H311 C279 0.950 . S
H312 C283 0.949 . S
H313 C284 0.950 . S
H314 C288 0.950 . S
H315 C290 0.950 . S
H316 C293 0.950 . S
H317 C295 0.950 . S
H318 C345 0.929 . S
N319 C344 1.433 . S
N319 C350 1.435 . S
N319 C356 1.423 . S
H320 C346 0.930 . S
H321 C349 0.931 . S
H322 C348 0.929 . S
H323 C351 0.930 . S
H324 C352 0.932 . S
H325 C355 0.929 . S
H326 C354 0.931 . S
H327 C357 0.929 . S
H328 C361 0.932 . S
H329 C358 0.931 . S
H330 C360 0.929 . S
H331 C363 0.929 . S
H332 C364 0.930 . S
H333 C366 0.929 . S
H334 C367 0.931 . S
H335 C369 0.930 . S
H336 C370 0.932 . S
H337 C372 0.931 . S
H338 C373 0.929 . S
H339 C375 0.929 . S
H340 C376 0.931 . S
H341 C378 0.929 . S
N342 C362 1.433 . S
N342 C368 1.435 . S
N342 C374 1.423 . S
H343 C379 0.932 . S
C344 N319 1.433 . S
C344 C345 1.363 . S
C344 C349 1.370 . S
C345 H318 0.929 . S
C345 C344 1.363 . S
C345 C346 1.385 . S
C346 H320 0.930 . S
C346 C345 1.385 . S
C346 C347 1.357 . S
C347 C346 1.357 . S
C347 C348 1.406 . S
C348 H322 0.929 . S
C348 C347 1.406 . S
C348 C349 1.391 . S
C349 H321 0.931 . S
C349 C344 1.370 . S
C349 C348 1.391 . S
C350 N319 1.435 . S
C350 C351 1.358 . S
C350 C355 1.371 . S
C351 H323 0.930 . S
C351 C350 1.358 . S
C351 C352 1.405 . S
C352 H324 0.932 . S
C352 C351 1.405 . S
C352 C353 1.383 . S
C353 C352 1.383 . S
C353 C354 1.393 . S
C354 H326 0.931 . S
C354 C353 1.393 . S
C354 C355 1.382 . S
C355 H325 0.929 . S
C355 C350 1.371 . S
C355 C354 1.382 . S
C356 N319 1.423 . S
C356 C357 1.362 . S
C356 C361 1.388 . S
C357 H327 0.929 . S
C357 C356 1.362 . S
C357 C358 1.376 . S
C358 H329 0.931 . S
C358 C357 1.376 . S
C358 C359 1.396 . S
C359 C358 1.396 . S
C359 C360 1.348 . S
C359 C377 1.472 . S
C360 H330 0.929 . S
C360 C359 1.348 . S
C360 C361 1.443 . S
C361 H328 0.932 . S
C361 C356 1.388 . S
C361 C360 1.443 . S
C362 N342 1.433 . S
C362 C363 1.363 . S
C362 C367 1.370 . S
C363 H331 0.929 . S
C363 C362 1.363 . S
C363 C364 1.385 . S
C364 H332 0.930 . S
C364 C363 1.385 . S
C364 C365 1.357 . S
C365 C364 1.357 . S
C365 C366 1.406 . S
C366 H333 0.929 . S
C366 C365 1.406 . S
C366 C367 1.391 . S
C367 H334 0.931 . S
C367 C362 1.370 . S
C367 C366 1.391 . S
C368 N342 1.435 . S
C368 C369 1.358 . S
C368 C373 1.371 . S
C369 H335 0.930 . S
C369 C368 1.358 . S
C369 C370 1.405 . S
C370 H336 0.932 . S
C370 C369 1.405 . S
C370 C371 1.383 . S
C371 C370 1.383 . S
C371 C372 1.393 . S
C372 H337 0.931 . S
C372 C371 1.393 . S
C372 C373 1.382 . S
C373 H338 0.929 . S
C373 C368 1.371 . S
C373 C372 1.382 . S
C374 N342 1.423 . S
C374 C375 1.362 . S
C374 C379 1.388 . S
C375 H339 0.929 . S
C375 C374 1.362 . S
C375 C376 1.376 . S
C376 H340 0.931 . S
C376 C375 1.376 . S
C376 C377 1.396 . S
C377 C359 1.472 . S
C377 C376 1.396 . S
C377 C378 1.348 . S
C378 H341 0.929 . S
C378 C377 1.348 . S
C378 C379 1.443 . S
C379 H343 0.932 . S
C379 C374 1.388 . S
C379 C378 1.443 . S
H380 C407 0.929 . S
N381 C406 1.433 . S
N381 C412 1.435 . S
N381 C418 1.423 . S
H382 C408 0.930 . S
H383 C411 0.931 . S
H384 C410 0.929 . S
H385 C413 0.930 . S
H386 C414 0.932 . S
H387 C417 0.929 . S
H388 C416 0.931 . S
H389 C419 0.929 . S
H390 C423 0.932 . S
H391 C420 0.931 . S
H392 C422 0.929 . S
H393 C425 0.929 . S
H394 C426 0.930 . S
H395 C428 0.929 . S
H396 C429 0.931 . S
H397 C431 0.930 . S
H398 C432 0.932 . S
H399 C434 0.931 . S
H400 C435 0.929 . S
H401 C437 0.929 . S
H402 C438 0.931 . S
H403 C440 0.929 . S
N404 C424 1.433 . S
N404 C430 1.435 . S
N404 C436 1.423 . S
H405 C441 0.932 . S
C406 N381 1.433 . S
C406 C407 1.363 . S
C406 C411 1.370 . S
C407 H380 0.929 . S
C407 C406 1.363 . S
C407 C408 1.385 . S
C408 H382 0.930 . S
C408 C407 1.385 . S
C408 C409 1.357 . S
C409 C408 1.357 . S
C409 C410 1.406 . S
C410 H384 0.929 . S
C410 C409 1.406 . S
C410 C411 1.391 . S
C411 H383 0.931 . S
C411 C406 1.370 . S
C411 C410 1.391 . S
C412 N381 1.435 . S
C412 C413 1.358 . S
C412 C417 1.371 . S
C413 H385 0.930 . S
C413 C412 1.358 . S
C413 C414 1.405 . S
C414 H386 0.932 . S
C414 C413 1.405 . S
C414 C415 1.383 . S
C415 C414 1.383 . S
C415 C416 1.393 . S
C416 H388 0.931 . S
C416 C415 1.393 . S
C416 C417 1.382 . S
C417 H387 0.929 . S
C417 C412 1.371 . S
C417 C416 1.382 . S
C418 N381 1.423 . S
C418 C419 1.362 . S
C418 C423 1.388 . S
C419 H389 0.929 . S
C419 C418 1.362 . S
C419 C420 1.376 . S
C420 H391 0.931 . S
C420 C419 1.376 . S
C420 C421 1.396 . S
C421 C420 1.396 . S
C421 C422 1.348 . S
C421 C439 1.472 . S
C422 H392 0.929 . S
C422 C421 1.348 . S
C422 C423 1.443 . S
C423 H390 0.932 . S
C423 C418 1.388 . S
C423 C422 1.443 . S
C424 N404 1.433 . S
C424 C425 1.363 . S
C424 C429 1.370 . S
C425 H393 0.929 . S
C425 C424 1.363 . S
C425 C426 1.385 . S
C426 H394 0.930 . S
C426 C425 1.385 . S
C426 C427 1.357 . S
C427 C426 1.357 . S
C427 C428 1.406 . S
C428 H395 0.929 . S
C428 C427 1.406 . S
C428 C429 1.391 . S
C429 H396 0.931 . S
C429 C424 1.370 . S
C429 C428 1.391 . S
C430 N404 1.435 . S
C430 C431 1.358 . S
C430 C435 1.371 . S
C431 H397 0.930 . S
C431 C430 1.358 . S
C431 C432 1.405 . S
C432 H398 0.932 . S
C432 C431 1.405 . S
C432 C433 1.383 . S
C433 C432 1.383 . S
C433 C434 1.393 . S
C434 H399 0.931 . S
C434 C433 1.393 . S
C434 C435 1.382 . S
C435 H400 0.929 . S
C435 C430 1.371 . S
C435 C434 1.382 . S
C436 N404 1.423 . S
C436 C437 1.362 . S
C436 C441 1.388 . S
C437 H401 0.929 . S
C437 C436 1.362 . S
C437 C438 1.376 . S
C438 H402 0.931 . S
C438 C437 1.376 . S
C438 C439 1.396 . S
C439 C421 1.472 . S
C439 C438 1.396 . S
C439 C440 1.348 . S
C440 H403 0.929 . S
C440 C439 1.348 . S
C440 C441 1.443 . S
C441 H405 0.932 . S
C441 C436 1.388 . S
C441 C440 1.443 . S
H442 C469 0.929 . S
N443 C468 1.433 . S
N443 C474 1.435 . S
N443 C480 1.423 . S
H444 C470 0.930 . S
H445 C473 0.931 . S
H446 C472 0.929 . S
H447 C475 0.930 . S
H448 C476 0.932 . S
H449 C479 0.929 . S
H450 C478 0.931 . S
H451 C481 0.929 . S
H452 C485 0.932 . S
H453 C482 0.931 . S
H454 C484 0.929 . S
H455 C487 0.929 . S
H456 C488 0.930 . S
H457 C490 0.929 . S
H458 C491 0.931 . S
H459 C493 0.930 . S
H460 C494 0.932 . S
H461 C496 0.931 . S
H462 C497 0.929 . S
H463 C499 0.929 . S
H464 C500 0.931 . S
H465 C502 0.929 . S
N466 C486 1.433 . S
N466 C492 1.435 . S
N466 C498 1.423 . S
H467 C503 0.932 . S
C468 N443 1.433 . S
C468 C469 1.363 . S
C468 C473 1.370 . S
C469 H442 0.929 . S
C469 C468 1.363 . S
C469 C470 1.385 . S
C470 H444 0.930 . S
C470 C469 1.385 . S
C470 C471 1.357 . S
C471 C470 1.357 . S
C471 C472 1.406 . S
C472 H446 0.929 . S
C472 C471 1.406 . S
C472 C473 1.391 . S
C473 H445 0.931 . S
C473 C468 1.370 . S
C473 C472 1.391 . S
C474 N443 1.435 . S
C474 C475 1.358 . S
C474 C479 1.371 . S
C475 H447 0.930 . S
C475 C474 1.358 . S
C475 C476 1.405 . S
C476 H448 0.932 . S
C476 C475 1.405 . S
C476 C477 1.383 . S
C477 C476 1.383 . S
C477 C478 1.393 . S
C478 H450 0.931 . S
C478 C477 1.393 . S
C478 C479 1.382 . S
C479 H449 0.929 . S
C479 C474 1.371 . S
C479 C478 1.382 . S
C480 N443 1.423 . S
C480 C481 1.362 . S
C480 C485 1.388 . S
C481 H451 0.929 . S
C481 C480 1.362 . S
C481 C482 1.376 . S
C482 H453 0.931 . S
C482 C481 1.376 . S
C482 C483 1.396 . S
C483 C482 1.396 . S
C483 C484 1.348 . S
C483 C501 1.472 . S
C484 H454 0.929 . S
C484 C483 1.348 . S
C484 C485 1.443 . S
C485 H452 0.932 . S
C485 C480 1.388 . S
C485 C484 1.443 . S
C486 N466 1.433 . S
C486 C487 1.363 . S
C486 C491 1.370 . S
C487 H455 0.929 . S
C487 C486 1.363 . S
C487 C488 1.385 . S
C488 H456 0.930 . S
C488 C487 1.385 . S
C488 C489 1.357 . S
C489 C488 1.357 . S
C489 C490 1.406 . S
C490 H457 0.929 . S
C490 C489 1.406 . S
C490 C491 1.391 . S
C491 H458 0.931 . S
C491 C486 1.370 . S
C491 C490 1.391 . S
C492 N466 1.435 . S
C492 C493 1.358 . S
C492 C497 1.371 . S
C493 H459 0.930 . S
C493 C492 1.358 . S
C493 C494 1.405 . S
C494 H460 0.932 . S
C494 C493 1.405 . S
C494 C495 1.383 . S
C495 C494 1.383 . S
C495 C496 1.393 . S
C496 H461 0.931 . S
C496 C495 1.393 . S
C496 C497 1.382 . S
C497 H462 0.929 . S
C497 C492 1.371 . S
C497 C496 1.382 . S
C498 N466 1.423 . S
C498 C499 1.362 . S
C498 C503 1.388 . S
C499 H463 0.929 . S
C499 C498 1.362 . S
C499 C500 1.376 . S
C500 H464 0.931 . S
C500 C499 1.376 . S
C500 C501 1.396 . S
C501 C483 1.472 . S
C501 C500 1.396 . S
C501 C502 1.348 . S
C502 H465 0.929 . S
C502 C501 1.348 . S
C502 C503 1.443 . S
C503 H467 0.932 . S
C503 C498 1.388 . S
C503 C502 1.443 . S
H504 C531 0.929 . S
N505 C530 1.433 . S
N505 C536 1.435 . S
N505 C542 1.423 . S
H506 C532 0.930 . S
H507 C535 0.931 . S
H508 C534 0.929 . S
H509 C537 0.930 . S
H510 C538 0.932 . S
H511 C541 0.929 . S
H512 C540 0.931 . S
H513 C543 0.929 . S
H514 C547 0.932 . S
H515 C544 0.931 . S
H516 C546 0.929 . S
H517 C549 0.929 . S
H518 C550 0.930 . S
H519 C552 0.929 . S
H520 C553 0.931 . S
H521 C555 0.930 . S
H522 C556 0.932 . S
H523 C558 0.931 . S
H524 C559 0.929 . S
H525 C561 0.929 . S
H526 C562 0.931 . S
H527 C564 0.929 . S
N528 C548 1.433 . S
N528 C554 1.435 . S
N528 C560 1.423 . S
H529 C565 0.932 . S
C530 N505 1.433 . S
C530 C531 1.363 . S
C530 C535 1.370 . S
C531 H504 0.929 . S
C531 C530 1.363 . S
C531 C532 1.385 . S
C532 H506 0.930 . S
C532 C531 1.385 . S
C532 C533 1.357 . S
C533 C532 1.357 . S
C533 C534 1.406 . S
C534 H508 0.929 . S
C534 C533 1.406 . S
C534 C535 1.391 . S
C535 H507 0.931 . S
C535 C530 1.370 . S
C535 C534 1.391 . S
C536 N505 1.435 . S
C536 C537 1.358 . S
C536 C541 1.371 . S
C537 H509 0.930 . S
C537 C536 1.358 . S
C537 C538 1.405 . S
C538 H510 0.932 . S
C538 C537 1.405 . S
C538 C539 1.383 . S
C539 C538 1.383 . S
C539 C540 1.393 . S
C540 H512 0.931 . S
C540 C539 1.393 . S
C540 C541 1.382 . S
C541 H511 0.929 . S
C541 C536 1.371 . S
C541 C540 1.382 . S
C542 N505 1.423 . S
C542 C543 1.362 . S
C542 C547 1.388 . S
C543 H513 0.929 . S
C543 C542 1.362 . S
C543 C544 1.376 . S
C544 H515 0.931 . S
C544 C543 1.376 . S
C544 C545 1.396 . S
C545 C544 1.396 . S
C545 C546 1.348 . S
C545 C563 1.472 . S
C546 H516 0.929 . S
C546 C545 1.348 . S
C546 C547 1.443 . S
C547 H514 0.932 . S
C547 C542 1.388 . S
C547 C546 1.443 . S
C548 N528 1.433 . S
C548 C549 1.363 . S
C548 C553 1.370 . S
C549 H517 0.929 . S
C549 C548 1.363 . S
C549 C550 1.385 . S
C550 H518 0.930 . S
C550 C549 1.385 . S
C550 C551 1.357 . S
C551 C550 1.357 . S
C551 C552 1.406 . S
C552 H519 0.929 . S
C552 C551 1.406 . S
C552 C553 1.391 . S
C553 H520 0.931 . S
C553 C548 1.370 . S
C553 C552 1.391 . S
C554 N528 1.435 . S
C554 C555 1.358 . S
C554 C559 1.371 . S
C555 H521 0.930 . S
C555 C554 1.358 . S
C555 C556 1.405 . S
C556 H522 0.932 . S
C556 C555 1.405 . S
C556 C557 1.383 . S
C557 C556 1.383 . S
C557 C558 1.393 . S
C558 H523 0.931 . S
C558 C557 1.393 . S
C558 C559 1.382 . S
C559 H524 0.929 . S
C559 C554 1.371 . S
C559 C558 1.382 . S
C560 N528 1.423 . S
C560 C561 1.362 . S
C560 C565 1.388 . S
C561 H525 0.929 . S
C561 C560 1.362 . S
C561 C562 1.376 . S
C562 H526 0.931 . S
C562 C561 1.376 . S
C562 C563 1.396 . S
C563 C545 1.472 . S
C563 C562 1.396 . S
C563 C564 1.348 . S
C564 H527 0.929 . S
C564 C563 1.348 . S
C564 C565 1.443 . S
C565 H529 0.932 . S
C565 C560 1.388 . S
C565 C564 1.443 . S
H566 C593 0.929 . S
N567 C592 1.433 . S
N567 C598 1.435 . S
N567 C604 1.423 . S
H568 C594 0.930 . S
H569 C597 0.931 . S
H570 C596 0.929 . S
H571 C599 0.930 . S
H572 C600 0.932 . S
H573 C603 0.929 . S
H574 C602 0.931 . S
H575 C605 0.929 . S
H576 C609 0.932 . S
H577 C606 0.931 . S
H578 C608 0.929 . S
H579 C611 0.929 . S
H580 C612 0.930 . S
H581 C614 0.929 . S
H582 C615 0.931 . S
H583 C617 0.930 . S
H584 C618 0.932 . S
H585 C620 0.931 . S
H586 C621 0.929 . S
H587 C623 0.929 . S
H588 C624 0.931 . S
H589 C626 0.929 . S
N590 C610 1.433 . S
N590 C616 1.435 . S
N590 C622 1.423 . S
H591 C627 0.932 . S
C592 N567 1.433 . S
C592 C593 1.363 . S
C592 C597 1.370 . S
C593 H566 0.929 . S
C593 C592 1.363 . S
C593 C594 1.385 . S
C594 H568 0.930 . S
C594 C593 1.385 . S
C594 C595 1.357 . S
C595 C594 1.357 . S
C595 C596 1.406 . S
C596 H570 0.929 . S
C596 C595 1.406 . S
C596 C597 1.391 . S
C597 H569 0.931 . S
C597 C592 1.370 . S
C597 C596 1.391 . S
C598 N567 1.435 . S
C598 C599 1.358 . S
C598 C603 1.371 . S
C599 H571 0.930 . S
C599 C598 1.358 . S
C599 C600 1.405 . S
C600 H572 0.932 . S
C600 C599 1.405 . S
C600 C601 1.383 . S
C601 C600 1.383 . S
C601 C602 1.393 . S
C602 H574 0.931 . S
C602 C601 1.393 . S
C602 C603 1.382 . S
C603 H573 0.929 . S
C603 C598 1.371 . S
C603 C602 1.382 . S
C604 N567 1.423 . S
C604 C605 1.362 . S
C604 C609 1.388 . S
C605 H575 0.929 . S
C605 C604 1.362 . S
C605 C606 1.376 . S
C606 H577 0.931 . S
C606 C605 1.376 . S
C606 C607 1.396 . S
C607 C606 1.396 . S
C607 C608 1.348 . S
C607 C625 1.472 . S
C608 H578 0.929 . S
C608 C607 1.348 . S
C608 C609 1.443 . S
C609 H576 0.932 . S
C609 C604 1.388 . S
C609 C608 1.443 . S
C610 N590 1.433 . S
C610 C611 1.363 . S
C610 C615 1.370 . S
C611 H579 0.929 . S
C611 C610 1.363 . S
C611 C612 1.385 . S
C612 H580 0.930 . S
C612 C611 1.385 . S
C612 C613 1.357 . S
C613 C612 1.357 . S
C613 C614 1.406 . S
C614 H581 0.929 . S
C614 C613 1.406 . S
C614 C615 1.391 . S
C615 H582 0.931 . S
C615 C610 1.370 . S
C615 C614 1.391 . S
C616 N590 1.435 . S
C616 C617 1.358 . S
C616 C621 1.371 . S
C617 H583 0.930 . S
C617 C616 1.358 . S
C617 C618 1.405 . S
C618 H584 0.932 . S
C618 C617 1.405 . S
C618 C619 1.383 . S
C619 C618 1.383 . S
C619 C620 1.393 . S
C620 H585 0.931 . S
C620 C619 1.393 . S
C620 C621 1.382 . S
C621 H586 0.929 . S
C621 C616 1.371 . S
C621 C620 1.382 . S
C622 N590 1.423 . S
C622 C623 1.362 . S
C622 C627 1.388 . S
C623 H587 0.929 . S
C623 C622 1.362 . S
C623 C624 1.376 . S
C624 H588 0.931 . S
C624 C623 1.376 . S
C624 C625 1.396 . S
C625 C607 1.472 . S
C625 C624 1.396 . S
C625 C626 1.348 . S
C626 H589 0.929 . S
C626 C625 1.348 . S
C626 C627 1.443 . S
C627 H591 0.932 . S
C627 C622 1.388 . S
C627 C626 1.443 . S
H628 C655 0.929 . S
N629 C654 1.433 . S
N629 C660 1.435 . S
N629 C666 1.423 . S
H630 C656 0.930 . S
H631 C659 0.931 . S
H632 C658 0.929 . S
H633 C661 0.930 . S
H634 C662 0.932 . S
H635 C665 0.929 . S
H636 C664 0.931 . S
H637 C667 0.929 . S
H638 C671 0.932 . S
H639 C668 0.931 . S
H640 C670 0.929 . S
H641 C673 0.929 . S
H642 C674 0.930 . S
H643 C676 0.929 . S
H644 C677 0.931 . S
H645 C679 0.930 . S
H646 C680 0.932 . S
H647 C682 0.931 . S
H648 C683 0.929 . S
H649 C685 0.929 . S
H650 C686 0.931 . S
H651 C688 0.929 . S
N652 C672 1.433 . S
N652 C678 1.435 . S
N652 C684 1.423 . S
H653 C689 0.932 . S
C654 N629 1.433 . S
C654 C655 1.363 . S
C654 C659 1.370 . S
C655 H628 0.929 . S
C655 C654 1.363 . S
C655 C656 1.385 . S
C656 H630 0.930 . S
C656 C655 1.385 . S
C656 C657 1.357 . S
C657 C656 1.357 . S
C657 C658 1.406 . S
C658 H632 0.929 . S
C658 C657 1.406 . S
C658 C659 1.391 . S
C659 H631 0.931 . S
C659 C654 1.370 . S
C659 C658 1.391 . S
C660 N629 1.435 . S
C660 C661 1.358 . S
C660 C665 1.371 . S
C661 H633 0.930 . S
C661 C660 1.358 . S
C661 C662 1.405 . S
C662 H634 0.932 . S
C662 C661 1.405 . S
C662 C663 1.383 . S
C663 C662 1.383 . S
C663 C664 1.393 . S
C664 H636 0.931 . S
C664 C663 1.393 . S
C664 C665 1.382 . S
C665 H635 0.929 . S
C665 C660 1.371 . S
C665 C664 1.382 . S
C666 N629 1.423 . S
C666 C667 1.362 . S
C666 C671 1.388 . S
C667 H637 0.929 . S
C667 C666 1.362 . S
C667 C668 1.376 . S
C668 H639 0.931 . S
C668 C667 1.376 . S
C668 C669 1.396 . S
C669 C668 1.396 . S
C669 C670 1.348 . S
C669 C687 1.472 . S
C670 H640 0.929 . S
C670 C669 1.348 . S
C670 C671 1.443 . S
C671 H638 0.932 . S
C671 C666 1.388 . S
C671 C670 1.443 . S
C672 N652 1.433 . S
C672 C673 1.363 . S
C672 C677 1.370 . S
C673 H641 0.929 . S
C673 C672 1.363 . S
C673 C674 1.385 . S
C674 H642 0.930 . S
C674 C673 1.385 . S
C674 C675 1.357 . S
C675 C674 1.357 . S
C675 C676 1.406 . S
C676 H643 0.929 . S
C676 C675 1.406 . S
C676 C677 1.391 . S
C677 H644 0.931 . S
C677 C672 1.370 . S
C677 C676 1.391 . S
C678 N652 1.435 . S
C678 C679 1.358 . S
C678 C683 1.371 . S
C679 H645 0.930 . S
C679 C678 1.358 . S
C679 C680 1.405 . S
C680 H646 0.932 . S
C680 C679 1.405 . S
C680 C681 1.383 . S
C681 C680 1.383 . S
C681 C682 1.393 . S
C682 H647 0.931 . S
C682 C681 1.393 . S
C682 C683 1.382 . S
C683 H648 0.929 . S
C683 C678 1.371 . S
C683 C682 1.382 . S
C684 N652 1.423 . S
C684 C685 1.362 . S
C684 C689 1.388 . S
C685 H649 0.929 . S
C685 C684 1.362 . S
C685 C686 1.376 . S
C686 H650 0.931 . S
C686 C685 1.376 . S
C686 C687 1.396 . S
C687 C669 1.472 . S
C687 C686 1.396 . S
C687 C688 1.348 . S
C688 H651 0.929 . S
C688 C687 1.348 . S
C688 C689 1.443 . S
C689 H653 0.932 . S
C689 C684 1.388 . S
C689 C688 1.443 . S
C690 C691 1.363 . S
C690 C696 1.379 . S
C690 N698 1.356 . S
C691 C690 1.363 . S
C691 C697 1.363 . S
C692 C693 1.363 . S
C692 C697 1.379 . S
C692 N699 1.356 . S
C693 C692 1.363 . S
C693 C696 1.363 . S
N694 C696 1.356 . S
N694 H706 0.984 . S
N694 H707 0.985 . S
N695 C697 1.356 . S
N695 H700 0.984 . S
N695 H701 0.985 . S
C696 C690 1.379 . S
C696 C693 1.363 . S
C696 N694 1.356 . S
C697 C691 1.363 . S
C697 C692 1.379 . S
C697 N695 1.356 . S
N698 C690 1.356 . S
N698 H704 0.984 . S
N698 H705 0.984 . S
N699 C692 1.356 . S
N699 H702 0.984 . S
N699 H703 0.985 . S
H700 N695 0.984 . S
H701 N695 0.985 . S
H702 N699 0.984 . S
H703 N699 0.985 . S
H704 N698 0.984 . S
H705 N698 0.984 . S
H706 N694 0.984 . S
H707 N694 0.985 . S
C708 C709 1.363 . S
C708 C714 1.379 . S
C708 N716 1.356 . S
C709 C708 1.363 . S
C709 C715 1.363 . S
C710 C711 1.363 . S
C710 C715 1.379 . S
C710 N717 1.356 . S
C711 C710 1.363 . S
C711 C714 1.363 . S
N712 C714 1.356 . S
N712 H724 0.984 . S
N712 H725 0.985 . S
N713 C715 1.356 . S
N713 H718 0.984 . S
N713 H719 0.985 . S
C714 C708 1.379 . S
C714 C711 1.363 . S
C714 N712 1.356 . S
C715 C709 1.363 . S
C715 C710 1.379 . S
C715 N713 1.356 . S
N716 C708 1.356 . S
N716 H722 0.984 . S
N716 H723 0.984 . S
N717 C710 1.356 . S
N717 H720 0.984 . S
N717 H721 0.985 . S
H718 N713 0.984 . S
H719 N713 0.985 . S
H720 N717 0.984 . S
H721 N717 0.985 . S
H722 N716 0.984 . S
H723 N716 0.984 . S
H724 N712 0.984 . S
H725 N712 0.985 . S
C726 C727 1.363 . S
C726 C732 1.379 . S
C726 N734 1.356 . S
C727 C726 1.363 . S
C727 C733 1.363 . S
C728 C729 1.363 . S
C728 C733 1.379 . S
C728 N735 1.356 . S
C729 C728 1.363 . S
C729 C732 1.363 . S
N730 C732 1.356 . S
N730 H742 0.984 . S
N730 H743 0.985 . S
N731 C733 1.356 . S
N731 H736 0.984 . S
N731 H737 0.985 . S
C732 C726 1.379 . S
C732 C729 1.363 . S
C732 N730 1.356 . S
C733 C727 1.363 . S
C733 C728 1.379 . S
C733 N731 1.356 . S
N734 C726 1.356 . S
N734 H740 0.984 . S
N734 H741 0.984 . S
N735 C728 1.356 . S
N735 H738 0.984 . S
N735 H739 0.985 . S
H736 N731 0.984 . S
H737 N731 0.985 . S
H738 N735 0.984 . S
H739 N735 0.985 . S
H740 N734 0.984 . S
H741 N734 0.984 . S
H742 N730 0.984 . S
H743 N730 0.985 . S
C744 C745 1.363 . S
C744 C750 1.379 . S
C744 N752 1.356 . S
C745 C744 1.363 . S
C745 C751 1.363 . S
C746 C747 1.363 . S
C746 C751 1.379 . S
C746 N753 1.356 . S
C747 C746 1.363 . S
C747 C750 1.363 . S
N748 C750 1.356 . S
N748 H760 0.984 . S
N748 H761 0.985 . S
N749 C751 1.356 . S
N749 H754 0.984 . S
N749 H755 0.985 . S
C750 C744 1.379 . S
C750 C747 1.363 . S
C750 N748 1.356 . S
C751 C745 1.363 . S
C751 C746 1.379 . S
C751 N749 1.356 . S
N752 C744 1.356 . S
N752 H758 0.984 . S
N752 H759 0.984 . S
N753 C746 1.356 . S
N753 H756 0.984 . S
N753 H757 0.985 . S
H754 N749 0.984 . S
H755 N749 0.985 . S
H756 N753 0.984 . S
H757 N753 0.985 . S
H758 N752 0.984 . S
H759 N752 0.984 . S
H760 N748 0.984 . S
H761 N748 0.985 . S
C762 C763 1.363 . S
C762 C768 1.379 . S
C762 N770 1.356 . S
C763 C762 1.363 . S
C763 C769 1.363 . S
C764 C765 1.363 . S
C764 C769 1.379 . S
C764 N771 1.356 . S
C765 C764 1.363 . S
C765 C768 1.363 . S
N766 C768 1.356 . S
N766 H778 0.984 . S
N766 H779 0.985 . S
N767 C769 1.356 . S
N767 H772 0.984 . S
N767 H773 0.985 . S
C768 C762 1.379 . S
C768 C765 1.363 . S
C768 N766 1.356 . S
C769 C763 1.363 . S
C769 C764 1.379 . S
C769 N767 1.356 . S
N770 C762 1.356 . S
N770 H776 0.984 . S
N770 H777 0.984 . S
N771 C764 1.356 . S
N771 H774 0.984 . S
N771 H775 0.985 . S
H772 N767 0.984 . S
H773 N767 0.985 . S
H774 N771 0.984 . S
H775 N771 0.985 . S
H776 N770 0.984 . S
H777 N770 0.984 . S
H778 N766 0.984 . S
H779 N766 0.985 . S
C780 C781 1.363 . S
C780 C786 1.379 . S
C780 N788 1.356 . S
C781 C780 1.363 . S
C781 C787 1.363 . S
C782 C783 1.363 . S
C782 C787 1.379 . S
C782 N789 1.356 . S
C783 C782 1.363 . S
C783 C786 1.363 . S
N784 C786 1.356 . S
N784 H796 0.984 . S
N784 H797 0.985 . S
N785 C787 1.356 . S
N785 H790 0.984 . S
N785 H791 0.985 . S
C786 C780 1.379 . S
C786 C783 1.363 . S
C786 N784 1.356 . S
C787 C781 1.363 . S
C787 C782 1.379 . S
C787 N785 1.356 . S
N788 C780 1.356 . S
N788 H794 0.984 . S
N788 H795 0.984 . S
N789 C782 1.356 . S
N789 H792 0.984 . S
N789 H793 0.985 . S
H790 N785 0.984 . S
H791 N785 0.985 . S
H792 N789 0.984 . S
H793 N789 0.985 . S
H794 N788 0.984 . S
H795 N788 0.984 . S
H796 N784 0.984 . S
H797 N784 0.985 . S
C798 C799 1.363 . S
C798 C804 1.379 . S
C798 N806 1.356 . S
C799 C798 1.363 . S
C799 C805 1.363 . S
C800 C801 1.363 . S
C800 C805 1.379 . S
C800 N807 1.356 . S
C801 C800 1.363 . S
C801 C804 1.363 . S
N802 C804 1.356 . S
N802 H814 0.984 . S
N802 H815 0.985 . S
N803 C805 1.356 . S
N803 H808 0.984 . S
N803 H809 0.985 . S
C804 C798 1.379 . S
C804 C801 1.363 . S
C804 N802 1.356 . S
C805 C799 1.363 . S
C805 C800 1.379 . S
C805 N803 1.356 . S
N806 C798 1.356 . S
N806 H812 0.984 . S
N806 H813 0.984 . S
N807 C800 1.356 . S
N807 H810 0.984 . S
N807 H811 0.985 . S
H808 N803 0.984 . S
H809 N803 0.985 . S
H810 N807 0.984 . S
H811 N807 0.985 . S
H812 N806 0.984 . S
H813 N806 0.984 . S
H814 N802 0.984 . S
H815 N802 0.985 . S
C816 C817 1.363 . S
C816 C822 1.379 . S
C816 N824 1.356 . S
C817 C816 1.363 . S
C817 C823 1.363 . S
C818 C819 1.363 . S
C818 C823 1.379 . S
C818 N825 1.356 . S
C819 C818 1.363 . S
C819 C822 1.363 . S
N820 C822 1.356 . S
N820 H832 0.984 . S
N820 H833 0.985 . S
N821 C823 1.356 . S
N821 H826 0.984 . S
N821 H827 0.985 . S
C822 C816 1.379 . S
C822 C819 1.363 . S
C822 N820 1.356 . S
C823 C817 1.363 . S
C823 C818 1.379 . S
C823 N821 1.356 . S
N824 C816 1.356 . S
N824 H830 0.984 . S
N824 H831 0.984 . S
N825 C818 1.356 . S
N825 H828 0.984 . S
N825 H829 0.985 . S
H826 N821 0.984 . S
H827 N821 0.985 . S
H828 N825 0.984 . S
H829 N825 0.985 . S
H830 N824 0.984 . S
H831 N824 0.984 . S
H832 N820 0.984 . S
H833 N820 0.985 . S
C834 C835 1.363 . S
C834 C840 1.379 . S
C834 N842 1.356 . S
C835 C834 1.363 . S
C835 C841 1.363 . S
C836 C837 1.363 . S
C836 C841 1.379 . S
C836 N843 1.356 . S
C837 C836 1.363 . S
C837 C840 1.363 . S
N838 C840 1.356 . S
N838 H850 0.984 . S
N838 H851 0.985 . S
N839 C841 1.356 . S
N839 H844 0.984 . S
N839 H845 0.985 . S
C840 C834 1.379 . S
C840 C837 1.363 . S
C840 N838 1.356 . S
C841 C835 1.363 . S
C841 C836 1.379 . S
C841 N839 1.356 . S
N842 C834 1.356 . S
N842 H848 0.984 . S
N842 H849 0.984 . S
N843 C836 1.356 . S
N843 H846 0.984 . S
N843 H847 0.985 . S
H844 N839 0.984 . S
H845 N839 0.985 . S
H846 N843 0.984 . S
H847 N843 0.985 . S
H848 N842 0.984 . S
H849 N842 0.984 . S
H850 N838 0.984 . S
H851 N838 0.985 . S
C852 C853 1.363 . S
C852 C858 1.379 . S
C852 N860 1.356 . S
C853 C852 1.363 . S
C853 C859 1.363 . S
C854 C855 1.363 . S
C854 C859 1.379 . S
C854 N861 1.356 . S
C855 C854 1.363 . S
C855 C858 1.363 . S
N856 C858 1.356 . S
N856 H868 0.984 . S
N856 H869 0.985 . S
N857 C859 1.356 . S
N857 H862 0.984 . S
N857 H863 0.985 . S
C858 C852 1.379 . S
C858 C855 1.363 . S
C858 N856 1.356 . S
C859 C853 1.363 . S
C859 C854 1.379 . S
C859 N857 1.356 . S
N860 C852 1.356 . S
N860 H866 0.984 . S
N860 H867 0.984 . S
N861 C854 1.356 . S
N861 H864 0.984 . S
N861 H865 0.985 . S
H862 N857 0.984 . S
H863 N857 0.985 . S
H864 N861 0.984 . S
H865 N861 0.985 . S
H866 N860 0.984 . S
H867 N860 0.984 . S
H868 N856 0.984 . S
H869 N856 0.985 . S
C870 C871 1.363 . S
C870 C876 1.379 . S
C870 N878 1.356 . S
C871 C870 1.363 . S
C871 C877 1.363 . S
C872 C873 1.363 . S
C872 C877 1.379 . S
C872 N879 1.356 . S
C873 C872 1.363 . S
C873 C876 1.363 . S
N874 C876 1.356 . S
N874 H886 0.984 . S
N874 H887 0.985 . S
N875 C877 1.356 . S
N875 H880 0.984 . S
N875 H881 0.985 . S
C876 C870 1.379 . S
C876 C873 1.363 . S
C876 N874 1.356 . S
C877 C871 1.363 . S
C877 C872 1.379 . S
C877 N875 1.356 . S
N878 C870 1.356 . S
N878 H884 0.984 . S
N878 H885 0.984 . S
N879 C872 1.356 . S
N879 H882 0.984 . S
N879 H883 0.985 . S
H880 N875 0.984 . S
H881 N875 0.985 . S
H882 N879 0.984 . S
H883 N879 0.985 . S
H884 N878 0.984 . S
H885 N878 0.984 . S
H886 N874 0.984 . S
H887 N874 0.985 . S
C888 C889 1.363 . S
C888 C894 1.379 . S
C888 N896 1.356 1_556 S
C889 C888 1.363 . S
C889 C895 1.363 . S
C890 C891 1.363 . S
C890 C895 1.379 . S
C890 N897 1.356 . S
C891 C890 1.363 . S
C891 C894 1.363 . S
N892 C894 1.356 . S
N892 H904 0.984 . S
N892 H905 0.985 . S
N893 C895 1.356 . S
N893 H898 0.984 . S
N893 H899 0.985 . S
C894 C888 1.379 . S
C894 C891 1.363 . S
C894 N892 1.356 . S
C895 C889 1.363 . S
C895 C890 1.379 . S
C895 N893 1.356 . S
N896 C888 1.356 1_554 S
N896 H902 0.984 . S
N896 H903 0.984 . S
N897 C890 1.356 . S
N897 H900 0.984 . S
N897 H901 0.985 . S
H898 N893 0.984 . S
H899 N893 0.985 . S
H900 N897 0.984 . S
H901 N897 0.985 . S
H902 N896 0.984 . S
H903 N896 0.984 . S
H904 N892 0.984 . S
H905 N892 0.985 . S
C906 C907 1.363 . S
C906 C912 1.379 . S
C906 N914 1.356 . S
C907 C906 1.363 . S
C907 C913 1.363 . S
C908 C909 1.363 . S
C908 C913 1.379 . S
C908 N915 1.356 . S
C909 C908 1.363 . S
C909 C912 1.363 . S
N910 C912 1.356 . S
N910 H922 0.984 . S
N910 H923 0.985 . S
N911 C913 1.356 . S
N911 H916 0.984 1_556 S
N911 H917 0.985 . S
C912 C906 1.379 . S
C912 C909 1.363 . S
C912 N910 1.356 . S
C913 C907 1.363 . S
C913 C908 1.379 . S
C913 N911 1.356 . S
N914 C906 1.356 . S
N914 H920 0.984 . S
N914 H921 0.984 1_556 S
N915 C908 1.356 . S
N915 H918 0.984 . S
N915 H919 0.985 . S
H916 N911 0.984 1_554 S
H917 N911 0.985 . S
H918 N915 0.984 . S
H919 N915 0.985 . S
H920 N914 0.984 . S
H921 N914 0.984 1_554 S
H922 N910 0.984 . S
H923 N910 0.985 . S
C924 C925 1.363 . S
C924 C930 1.379 . S
C924 N932 1.356 . S
C925 C924 1.363 . S
C925 C931 1.363 . S
C926 C927 1.363 . S
C926 C931 1.379 . S
C926 N933 1.356 . S
C927 C926 1.363 . S
C927 C930 1.363 . S
N928 C930 1.356 . S
N928 H940 0.984 . S
N928 H941 0.985 . S
N929 C931 1.356 . S
N929 H934 0.984 . S
N929 H935 0.985 . S
C930 C924 1.379 . S
C930 C927 1.363 . S
C930 N928 1.356 . S
C931 C925 1.363 . S
C931 C926 1.379 . S
C931 N929 1.356 . S
N932 C924 1.356 . S
N932 H938 0.984 . S
N932 H939 0.984 . S
N933 C926 1.356 . S
N933 H936 0.984 . S
N933 H937 0.985 . S
H934 N929 0.984 . S
H935 N929 0.985 . S
H936 N933 0.984 . S
H937 N933 0.985 . S
H938 N932 0.984 . S
H939 N932 0.984 . S
H940 N928 0.984 . S
H941 N928 0.985 . S
C942 C943 1.363 . S
C942 C948 1.379 . S
C942 N950 1.356 . S
C943 C942 1.363 . S
C943 C949 1.363 . S
C944 C945 1.363 . S
C944 C949 1.379 . S
C944 N951 1.356 . S
C945 C944 1.363 . S
C945 C948 1.363 . S
N946 C948 1.356 . S
N946 H958 0.984 . S
N946 H959 0.985 . S
N947 C949 1.356 . S
N947 H952 0.984 . S
N947 H953 0.985 . S
C948 C942 1.379 . S
C948 C945 1.363 . S
C948 N946 1.356 . S
C949 C943 1.363 . S
C949 C944 1.379 . S
C949 N947 1.356 . S
N950 C942 1.356 . S
N950 H956 0.984 . S
N950 H957 0.984 . S
N951 C944 1.356 . S
N951 H954 0.984 . S
N951 H955 0.985 . S
H952 N947 0.984 . S
H953 N947 0.985 . S
H954 N951 0.984 . S
H955 N951 0.985 . S
H956 N950 0.984 . S
H957 N950 0.984 . S
H958 N946 0.984 . S
H959 N946 0.985 . S
C960 C961 1.363 . S
C960 C966 1.379 . S
C960 N968 1.356 . S
C961 C960 1.363 . S
C961 C967 1.363 . S
C962 C963 1.363 . S
C962 C967 1.379 . S
C962 N969 1.356 . S
C963 C962 1.363 . S
C963 C966 1.363 . S
N964 C966 1.356 . S
N964 H976 0.984 . S
N964 H977 0.985 . S
N965 C967 1.356 . S
N965 H970 0.984 . S
N965 H971 0.985 . S
C966 C960 1.379 . S
C966 C963 1.363 . S
C966 N964 1.356 . S
C967 C961 1.363 . S
C967 C962 1.379 . S
C967 N965 1.356 . S
N968 C960 1.356 . S
N968 H974 0.984 . S
N968 H975 0.984 . S
N969 C962 1.356 . S
N969 H972 0.984 . S
N969 H973 0.985 . S
H970 N965 0.984 . S
H971 N965 0.985 . S
H972 N969 0.984 . S
H973 N969 0.985 . S
H974 N968 0.984 . S
H975 N968 0.984 . S
H976 N964 0.984 . S
H977 N964 0.985 . S
C978 C979 1.363 . S
C978 C984 1.379 . S
C978 N986 1.356 . S
C979 C978 1.363 . S
C979 C985 1.363 . S
C980 C981 1.363 . S
C980 C985 1.379 . S
C980 N987 1.356 . S
C981 C980 1.363 . S
C981 C984 1.363 . S
N982 C984 1.356 . S
N982 H994 0.984 . S
N982 H995 0.985 . S
N983 C985 1.356 . S
N983 H988 0.984 . S
N983 H989 0.985 . S
C984 C978 1.379 . S
C984 C981 1.363 . S
C984 N982 1.356 . S
C985 C979 1.363 . S
C985 C980 1.379 . S
C985 N983 1.356 . S
N986 C978 1.356 . S
N986 H992 0.984 . S
N986 H993 0.984 . S
N987 C980 1.356 . S
N987 H990 0.984 . S
N987 H991 0.985 . S
H988 N983 0.984 . S
H989 N983 0.985 . S
H990 N987 0.984 . S
H991 N987 0.985 . S
H992 N986 0.984 . S
H993 N986 0.984 . S
H994 N982 0.984 . S
H995 N982 0.985 . S
C996 C997 1.363 . S
C996 C1002 1.379 . S
C996 N1004 1.356 . S
C997 C996 1.363 . S
C997 C1003 1.363 . S
C998 C999 1.363 . S
C998 C1003 1.379 . S
C998 N1005 1.356 . S
C999 C998 1.363 . S
C999 C1002 1.363 . S
N1000 C1002 1.356 . S
N1000 H1012 0.984 . S
N1000 H1013 0.985 . S
N1001 C1003 1.356 . S
N1001 H1006 0.984 . S
N1001 H1007 0.985 . S
C1002 C996 1.379 . S
C1002 C999 1.363 . S
C1002 N1000 1.356 . S
C1003 C997 1.363 . S
C1003 C998 1.379 . S
C1003 N1001 1.356 . S
N1004 C996 1.356 . S
N1004 H1010 0.984 . S
N1004 H1011 0.984 . S
N1005 C998 1.356 . S
N1005 H1008 0.984 . S
N1005 H1009 0.985 . S
H1006 N1001 0.984 . S
H1007 N1001 0.985 . S
H1008 N1005 0.984 . S
H1009 N1005 0.985 . S
H1010 N1004 0.984 . S
H1011 N1004 0.984 . S
H1012 N1000 0.984 . S
H1013 N1000 0.985 . S
C1014 C1015 1.363 . S
C1014 C1020 1.379 . S
C1014 N1022 1.356 . S
C1015 C1014 1.363 . S
C1015 C1021 1.363 . S
C1016 C1017 1.363 . S
C1016 C1021 1.379 . S
C1016 N1023 1.356 . S
C1017 C1016 1.363 . S
C1017 C1020 1.363 . S
N1018 C1020 1.356 . S
N1018 H1030 0.984 . S
N1018 H1031 0.985 . S
N1019 C1021 1.356 . S
N1019 H1024 0.984 . S
N1019 H1025 0.985 . S
C1020 C1014 1.379 . S
C1020 C1017 1.363 . S
C1020 N1018 1.356 . S
C1021 C1015 1.363 . S
C1021 C1016 1.379 . S
C1021 N1019 1.356 . S
N1022 C1014 1.356 . S
N1022 H1028 0.984 . S
N1022 H1029 0.984 . S
N1023 C1016 1.356 . S
N1023 H1026 0.984 . S
N1023 H1027 0.985 . S
H1024 N1019 0.984 . S
H1025 N1019 0.985 . S
H1026 N1023 0.984 . S
H1027 N1023 0.985 . S
H1028 N1022 0.984 . S
H1029 N1022 0.984 . S
H1030 N1018 0.984 . S
H1031 N1018 0.985 . S
C1032 C1033 1.363 . S
C1032 C1038 1.379 . S
C1032 N1040 1.356 . S
C1033 C1032 1.363 . S
C1033 C1039 1.363 . S
C1034 C1035 1.363 . S
C1034 C1039 1.379 . S
C1034 N1041 1.356 . S
C1035 C1034 1.363 . S
C1035 C1038 1.363 . S
N1036 C1038 1.356 . S
N1036 H1048 0.984 . S
N1036 H1049 0.985 . S
N1037 C1039 1.356 . S
N1037 H1042 0.984 . S
N1037 H1043 0.985 . S
C1038 C1032 1.379 . S
C1038 C1035 1.363 . S
C1038 N1036 1.356 . S
C1039 C1033 1.363 . S
C1039 C1034 1.379 . S
C1039 N1037 1.356 . S
N1040 C1032 1.356 . S
N1040 H1046 0.984 . S
N1040 H1047 0.984 . S
N1041 C1034 1.356 . S
N1041 H1044 0.984 . S
N1041 H1045 0.985 . S
H1042 N1037 0.984 . S
H1043 N1037 0.985 . S
H1044 N1041 0.984 . S
H1045 N1041 0.985 . S
H1046 N1040 0.984 . S
H1047 N1040 0.984 . S
H1048 N1036 0.984 . S
H1049 N1036 0.985 . S
C1050 C1051 1.363 . S
C1050 C1056 1.379 . S
C1050 N1058 1.356 . S
C1051 C1050 1.363 . S
C1051 C1057 1.363 . S
C1052 C1053 1.363 . S
C1052 C1057 1.379 . S
C1052 N1059 1.356 . S
C1053 C1052 1.363 . S
C1053 C1056 1.363 . S
N1054 C1056 1.356 . S
N1054 H1066 0.984 . S
N1054 H1067 0.985 . S
N1055 C1057 1.356 1_455 S
N1055 H1060 0.984 . S
N1055 H1061 0.985 . S
C1056 C1050 1.379 . S
C1056 C1053 1.363 . S
C1056 N1054 1.356 . S
C1057 C1051 1.363 . S
C1057 C1052 1.379 . S
C1057 N1055 1.356 1_655 S
N1058 C1050 1.356 . S
N1058 H1064 0.984 . S
N1058 H1065 0.984 . S
N1059 C1052 1.356 . S
N1059 H1062 0.984 . S
N1059 H1063 0.985 . S
H1060 N1055 0.984 . S
H1061 N1055 0.985 . S
H1062 N1059 0.984 . S
H1063 N1059 0.985 . S
H1064 N1058 0.984 . S
H1065 N1058 0.984 . S
H1066 N1054 0.984 . S
H1067 N1054 0.985 . S
C1068 C1069 1.363 . S
C1068 C1074 1.379 . S
C1068 N1076 1.356 . S
C1069 C1068 1.363 . S
C1069 C1075 1.363 . S
C1070 C1071 1.363 . S
C1070 C1075 1.379 . S
C1070 N1077 1.356 . S
C1071 C1070 1.363 . S
C1071 C1074 1.363 . S
N1072 C1074 1.356 . S
N1072 H1084 0.984 . S
N1072 H1085 0.985 . S
N1073 C1075 1.356 . S
N1073 H1078 0.984 . S
N1073 H1079 0.985 . S
C1074 C1068 1.379 . S
C1074 C1071 1.363 . S
C1074 N1072 1.356 . S
C1075 C1069 1.363 . S
C1075 C1070 1.379 . S
C1075 N1073 1.356 . S
N1076 C1068 1.356 . S
N1076 H1082 0.984 . S
N1076 H1083 0.984 . S
N1077 C1070 1.356 . S
N1077 H1080 0.984 . S
N1077 H1081 0.985 . S
H1078 N1073 0.984 . S
H1079 N1073 0.985 . S
H1080 N1077 0.984 . S
H1081 N1077 0.985 . S
H1082 N1076 0.984 . S
H1083 N1076 0.984 . S
H1084 N1072 0.984 . S
H1085 N1072 0.985 . S
C1086 C1087 1.363 . S
C1086 C1092 1.379 . S
C1086 N1094 1.356 . S
C1087 C1086 1.363 . S
C1087 C1093 1.363 . S
C1088 C1089 1.363 . S
C1088 C1093 1.379 . S
C1088 N1095 1.356 . S
C1089 C1088 1.363 . S
C1089 C1092 1.363 . S
N1090 C1092 1.356 . S
N1090 H1102 0.984 . S
N1090 H1103 0.985 . S
N1091 C1093 1.356 . S
N1091 H1096 0.984 . S
N1091 H1097 0.985 . S
C1092 C1086 1.379 . S
C1092 C1089 1.363 . S
C1092 N1090 1.356 . S
C1093 C1087 1.363 . S
C1093 C1088 1.379 . S
C1093 N1091 1.356 . S
N1094 C1086 1.356 . S
N1094 H1100 0.984 . S
N1094 H1101 0.984 . S
N1095 C1088 1.356 . S
N1095 H1098 0.984 . S
N1095 H1099 0.985 . S
H1096 N1091 0.984 . S
H1097 N1091 0.985 . S
H1098 N1095 0.984 . S
H1099 N1095 0.985 . S
H1100 N1094 0.984 . S
H1101 N1094 0.984 . S
H1102 N1090 0.984 . S
H1103 N1090 0.985 . S
C1104 C1105 1.363 . S
C1104 C1110 1.379 . S
C1104 N1112 1.356 . S
C1105 C1104 1.363 . S
C1105 C1111 1.363 . S
C1106 C1107 1.363 . S
C1106 C1111 1.379 . S
C1106 N1113 1.356 . S
C1107 C1106 1.363 . S
C1107 C1110 1.363 . S
N1108 C1110 1.356 . S
N1108 H1120 0.984 . S
N1108 H1121 0.985 . S
N1109 C1111 1.356 . S
N1109 H1114 0.984 . S
N1109 H1115 0.985 . S
C1110 C1104 1.379 . S
C1110 C1107 1.363 . S
C1110 N1108 1.356 . S
C1111 C1105 1.363 . S
C1111 C1106 1.379 . S
C1111 N1109 1.356 . S
N1112 C1104 1.356 . S
N1112 H1118 0.984 . S
N1112 H1119 0.984 . S
N1113 C1106 1.356 . S
N1113 H1116 0.984 . S
N1113 H1117 0.985 . S
H1114 N1109 0.984 . S
H1115 N1109 0.985 . S
H1116 N1113 0.984 . S
H1117 N1113 0.985 . S
H1118 N1112 0.984 . S
H1119 N1112 0.984 . S
H1120 N1108 0.984 . S
H1121 N1108 0.985 . S
C691 C39 1.772 . S
C693 C371 1.649 . S
C709 C91 1.791 . S
C711 C415 1.737 . S
C729 C495 1.510 . S
C727 C128 1.566 . S
C747 C539 1.486 . S
C745 C188 1.521 1_655 S
C765 C619 1.665 . S
C763 C250 1.729 . S
C783 C675 1.782 . S
C781 C304 1.980 . S
C799 C75 1.943 . S
C801 C471 1.651 . S
C817 C144 1.797 . S
C819 C551 1.634 . S
C837 C595 1.715 . S
C835 C198 1.899 . S
C855 C663 1.562 . S
C853 C234 1.579 . S
C871 C294 1.537 . S
C873 C347 1.424 . S
C891 C427 1.698 . S
C889 C29 1.725 . S
C909 C533 1.851 . S
C907 C38 1.975 1_556 S
C925 C92 1.743 . S
C927 C613 1.569 . S
C945 C681 1.604 . S
C943 C135 1.613 . S
C961 C181 1.750 . S
C963 C365 1.668 . S
C979 C251 1.607 . S
C981 C409 1.545 . S
C997 C303 2.018 . S
C999 C489 1.734 . S
C1015 C82 1.910 . S
C1017 C657 1.695 . S
C1035 C353 1.703 . S
C1033 C145 1.842 . S
C1051 C197 1.674 1_655 S
C1053 C433 1.602 . S
C1069 C241 1.534 . S
C1071 C477 1.470 . S
C1087 C287 1.655 . S
C1089 C557 1.637 . S
C1105 C22 1.539 . S
C1107 C601 1.469 . S
