# Generated by pormake.
# Topology csq, (4,8)-cn, num edge types: 1
# Building blocks:
#     Node 0, Type 0, BuildingBlock: NAHDIM_clean_linker_0, # of connection points: 4
#     Node 1, Type 0, BuildingBlock: NAHDIM_clean_linker_0, # of connection points: 4
#     Node 2, Type 0, BuildingBlock: NAHDIM_clean_linker_0, # of connection points: 4
#     Node 3, Type 0, BuildingBlock: NAHDIM_clean_linker_0, # of connection points: 4
#     Node 4, Type 0, BuildingBlock: NAHDIM_clean_linker_0, # of connection points: 4
#     Node 5, Type 0, BuildingBlock: NAHDIM_clean_linker_0, # of connection points: 4
#     Node 6, Type 1, BuildingBlock: TAGTUT_clean_sbu_1, # of connection points: 8
#     Node 7, Type 1, BuildingBlock: TAGTUT_clean_sbu_1, # of connection points: 8
#     Node 8, Type 1, BuildingBlock: TAGTUT_clean_sbu_1, # of connection points: 8
#     Edge 9, Type (0, 1), BuildingBlock: OJICUG_clean_linker_0, # of connection points: 2
#     Edge 10, Type (0, 1), BuildingBlock: OJICUG_clean_linker_0, # of connection points: 2
#     Edge 11, Type (0, 1), BuildingBlock: OJICUG_clean_linker_0, # of connection points: 2
#     Edge 12, Type (0, 1), BuildingBlock: OJICUG_clean_linker_0, # of connection points: 2
#     Edge 13, Type (0, 1), BuildingBlock: OJICUG_clean_linker_0, # of connection points: 2
#     Edge 14, Type (0, 1), BuildingBlock: OJICUG_clean_linker_0, # of connection points: 2
#     Edge 15, Type (0, 1), BuildingBlock: OJICUG_clean_linker_0, # of connection points: 2
#     Edge 16, Type (0, 1), BuildingBlock: OJICUG_clean_linker_0, # of connection points: 2
#     Edge 17, Type (0, 1), BuildingBlock: OJICUG_clean_linker_0, # of connection points: 2
#     Edge 18, Type (0, 1), BuildingBlock: OJICUG_clean_linker_0, # of connection points: 2
#     Edge 19, Type (0, 1), BuildingBlock: OJICUG_clean_linker_0, # of connection points: 2
#     Edge 20, Type (0, 1), BuildingBlock: OJICUG_clean_linker_0, # of connection points: 2
#     Edge 21, Type (0, 1), BuildingBlock: OJICUG_clean_linker_0, # of connection points: 2
#     Edge 22, Type (0, 1), BuildingBlock: OJICUG_clean_linker_0, # of connection points: 2
#     Edge 23, Type (0, 1), BuildingBlock: OJICUG_clean_linker_0, # of connection points: 2
#     Edge 24, Type (0, 1), BuildingBlock: OJICUG_clean_linker_0, # of connection points: 2
#     Edge 25, Type (0, 1), BuildingBlock: OJICUG_clean_linker_0, # of connection points: 2
#     Edge 26, Type (0, 1), BuildingBlock: OJICUG_clean_linker_0, # of connection points: 2
#     Edge 27, Type (0, 1), BuildingBlock: OJICUG_clean_linker_0, # of connection points: 2
#     Edge 28, Type (0, 1), BuildingBlock: OJICUG_clean_linker_0, # of connection points: 2
#     Edge 29, Type (0, 1), BuildingBlock: OJICUG_clean_linker_0, # of connection points: 2
#     Edge 30, Type (0, 1), BuildingBlock: OJICUG_clean_linker_0, # of connection points: 2
#     Edge 31, Type (0, 1), BuildingBlock: OJICUG_clean_linker_0, # of connection points: 2
#     Edge 32, Type (0, 1), BuildingBlock: OJICUG_clean_linker_0, # of connection points: 2
# Relax obj value: 0.050
# Max RMSD: 0.132
# Mean RMSD: 0.088
data_MOF--net-csq--node1-TAGTUT_clean_sbu_1--node2-NAHDIM_clean_linker_0--edge1-OJICUG_clean_linker_0
_symmetry_space_group_name_H-M    P1
_symmetry_Int_Tables_number       1
_symmetry_cell_setting            triclinic
loop_
_symmetry_equiv_pos_as_xyz
'x, y, z'
_cell_length_a     55.217056
_cell_length_b     54.334936
_cell_length_c     21.942344
_cell_angle_alpha  92.533322
_cell_angle_beta   92.39683
_cell_angle_gamma 119.85543
loop_
_atom_site_label
_atom_site_type_symbol
_atom_site_fract_x
_atom_site_fract_y
_atom_site_fract_z
_atom_type_partial_charge
C0 C 0.35154 0.51458 0.66229 0.0
C1 C 0.35142 0.50172 0.59861 0.0
C2 C 0.3289 0.50747 0.50441 0.0
C3 C 0.31681 0.47944 0.47801 0.0
C4 C 0.29754 0.47024 0.42646 0.0
C5 C 0.29063 0.48954 0.40042 0.0
C6 C 0.30395 0.51812 0.42503 0.0
C7 C 0.32295 0.52667 0.4766 0.0
C8 C 0.28402 0.43975 0.40062 0.0
C9 C 0.2974 0.53941 0.39806 0.0
C10 C 0.10287 0.39905 0.54269 0.0
C11 C 0.11546 0.42578 0.50718 0.0
C12 C 0.14004 0.42918 0.41549 0.0
C13 C 0.15877 0.45855 0.41833 0.0
C14 C 0.18342 0.46958 0.3874 0.0
C15 C 0.18971 0.45072 0.35417 0.0
C16 C 0.17041 0.42107 0.35031 0.0
C17 C 0.14546 0.4108 0.37984 0.0
C18 C 0.20304 0.50134 0.39166 0.0
C19 C 0.17653 0.40006 0.31708 0.0
C20 C 0.17026 0.4473 0.93191 0.0
C21 C 0.18243 0.47372 0.9655 0.0
C22 C 0.20323 0.48092 0.01292 0.0
C23 C 0.21152 0.46093 0.02764 0.0
C24 C 0.19919 0.43421 0.99347 0.0
C25 C 0.17897 0.42792 0.94531 0.0
C26 C 0.21655 0.50996 0.04672 0.0
C27 C 0.20748 0.41234 0.0074 0.0
C28 C 0.39544 0.46424 0.00912 0.0
C29 C 0.38093 0.47111 0.95673 0.0
C30 C 0.35427 0.48985 0.00903 0.0
C31 C 0.35167 0.51388 0.02119 0.0
C32 C 0.32928 0.51219 0.05265 0.0
C33 C 0.30913 0.48579 0.07282 0.0
C34 C 0.31207 0.46157 0.06246 0.0
C35 C 0.33448 0.4638 0.03061 0.0
C36 C 0.32674 0.53841 0.06309 0.0
C37 C 0.29103 0.43304 0.08355 0.0
C38 C 0.26741 0.47936 0.35193 0.0
C39 C 0.2405 0.46955 0.37104 0.0
C40 C 0.21762 0.46169 0.32918 0.0
C41 C 0.22167 0.46387 0.26592 0.0
C42 C 0.19943 0.45723 0.22247 0.0
C43 C 0.2035 0.45876 0.1602 0.0
C44 C 0.23004 0.46728 0.13903 0.0
C45 C 0.23438 0.4686 0.07582 0.0
C46 C 0.26082 0.47617 0.05653 0.0
C47 C 0.28325 0.48243 0.09833 0.0
C48 C 0.27968 0.48236 0.16179 0.0
C49 C 0.30209 0.48969 0.20525 0.0
C50 C 0.29823 0.48908 0.26766 0.0
C51 C 0.27169 0.48055 0.28878 0.0
C52 C 0.24874 0.47296 0.24566 0.0
C53 C 0.25286 0.4744 0.18215 0.0
C54 C 0.1029 0.40607 0.90828 0.0
C55 C 0.12401 0.43728 0.89929 0.0
O56 O 0.34648 0.51718 0.55606 0.0
O57 O 0.37588 0.49269 0.97627 0.0
O58 O 0.14958 0.43995 0.8874 0.0
O59 O 0.11663 0.41798 0.44676 0.0
H60 H 0.33424 0.47918 0.59545 0.0
H61 H 0.3318 0.51507 0.66636 0.0
H62 H 0.36944 0.5367 0.66999 0.0
H63 H 0.35291 0.50167 0.69868 0.0
H64 H 0.32215 0.46463 0.49731 0.0
H65 H 0.33279 0.54839 0.49656 0.0
H66 H 0.2612 0.42884 0.40665 0.0
H67 H 0.293 0.42786 0.42315 0.0
H68 H 0.28659 0.43902 0.35077 0.0
H69 H 0.31081 0.56123 0.42015 0.0
H70 H 0.27515 0.53286 0.4036 0.0
H71 H 0.30033 0.53986 0.34829 0.0
H72 H 0.13695 0.44042 0.5287 0.0
H73 H 0.10247 0.40459 0.59186 0.0
H74 H 0.11577 0.38865 0.53919 0.0
H75 H 0.08118 0.38368 0.52378 0.0
H76 H 0.15409 0.47281 0.44473 0.0
H77 H 0.13062 0.38816 0.37757 0.0
H78 H 0.21145 0.50854 0.3467 0.0
H79 H 0.22099 0.50682 0.42497 0.0
H80 H 0.19256 0.51319 0.40729 0.0
H81 H 0.16131 0.37771 0.32572 0.0
H82 H 0.19795 0.40447 0.33129 0.0
H83 H 0.17555 0.40219 0.26714 0.0
H84 H 0.12581 0.44932 0.94339 0.0
H85 H 0.17573 0.48873 0.95413 0.0
H86 H 0.16938 0.40758 0.91882 0.0
H87 H 0.21113 0.50772 0.09506 0.0
H88 H 0.20951 0.52388 0.02618 0.0
H89 H 0.23971 0.52054 0.04678 0.0
H90 H 0.19251 0.39104 0.9846 0.0
H91 H 0.20875 0.41047 0.05748 0.0
H92 H 0.2285 0.41919 0.99101 0.0
H93 H 0.36075 0.45161 0.9415 0.0
H94 H 0.39984 0.44726 0.99312 0.0
H95 H 0.382 0.4566 0.04801 0.0
H96 H 0.41546 0.48344 0.02629 0.0
H97 H 0.36701 0.53395 0.00486 0.0
H98 H 0.33601 0.4449 0.02236 0.0
H99 H 0.32367 0.54141 0.11197 0.0
H100 H 0.30805 0.53558 0.03565 0.0
H101 H 0.34548 0.55789 0.05002 0.0
H102 H 0.29649 0.4163 0.07274 0.0
H103 H 0.26996 0.42613 0.0614 0.0
H104 H 0.2897 0.43491 0.13372 0.0
H105 H 0.23735 0.46823 0.41956 0.0
H106 H 0.17858 0.45065 0.23619 0.0
H107 H 0.18555 0.45309 0.12878 0.0
H108 H 0.26376 0.47626 0.0079 0.0
H109 H 0.3229 0.49613 0.19139 0.0
H110 H 0.31621 0.49501 0.29919 0.0
H111 H 0.08173 0.40322 0.91341 0.0
H112 H 0.10942 0.39965 0.95047 0.0
H113 H 0.10188 0.39178 0.86928 0.0
C114 C 0.84001 0.38642 0.49801 0.0
C115 C 0.85237 0.37 0.46608 0.0
C116 C 0.83426 0.34287 0.36832 0.0
C117 C 0.84376 0.32339 0.37363 0.0
C118 C 0.83096 0.29758 0.33725 0.0
C119 C 0.80784 0.29098 0.29576 0.0
C120 C 0.79805 0.31055 0.29109 0.0
C121 C 0.8119 0.33659 0.32645 0.0
C122 C 0.84233 0.27756 0.3427 0.0
C123 C 0.77293 0.30406 0.24889 0.0
C124 C 0.7245 0.15081 0.53197 0.0
C125 C 0.70507 0.14379 0.47411 0.0
C126 C 0.72383 0.15141 0.37337 0.0
C127 C 0.70906 0.16379 0.34789 0.0
C128 C 0.71959 0.18174 0.3 0.0
C129 C 0.74528 0.18725 0.2772 0.0
C130 C 0.75855 0.17237 0.2985 0.0
C131 C 0.74745 0.15437 0.3461 0.0
C132 C 0.70437 0.19646 0.27686 0.0
C133 C 0.78578 0.1774 0.27476 0.0
C134 C 0.7143 0.15339 0.84293 0.0
C135 C 0.70567 0.17021 0.87463 0.0
C136 C 0.72236 0.18954 0.9238 0.0
C137 C 0.74844 0.19204 0.94197 0.0
C138 C 0.75696 0.17442 0.91147 0.0
C139 C 0.73986 0.1553 0.86214 0.0
C140 C 0.71263 0.20812 0.9547 0.0
C141 C 0.7846 0.1765 0.92977 0.0
C142 C 0.91137 0.40699 0.07322 0.0
C143 C 0.91164 0.38941 0.01691 0.0
C144 C 0.86675 0.34955 0.97348 0.0
C145 C 0.83853 0.3418 0.96679 0.0
C146 C 0.81745 0.31323 0.96728 0.0
C147 C 0.82503 0.29214 0.97437 0.0
C148 C 0.85338 0.29945 0.97252 0.0
C149 C 0.87404 0.32817 0.97199 0.0
C150 C 0.78729 0.306 0.96687 0.0
C151 C 0.86205 0.27727 0.97732 0.0
C152 C 0.79441 0.26415 0.25554 0.0
C153 C 0.77652 0.23877 0.28071 0.0
C154 C 0.76156 0.21317 0.24423 0.0
C155 C 0.7633 0.21306 0.17998 0.0
C156 C 0.74693 0.18836 0.14088 0.0
C157 C 0.74841 0.18906 0.07739 0.0
C158 C 0.76682 0.21433 0.05097 0.0
C159 C 0.76825 0.21573 0.98665 0.0
C160 C 0.78764 0.24111 0.96263 0.0
C161 C 0.80524 0.26535 0.00095 0.0
C162 C 0.80349 0.26462 0.06492 0.0
C163 C 0.82054 0.28903 0.10443 0.0
C164 C 0.81785 0.28875 0.16682 0.0
C165 C 0.79822 0.26401 0.19246 0.0
C166 C 0.78195 0.23866 0.15418 0.0
C167 C 0.78419 0.23912 0.08998 0.0
C168 C 0.71996 0.13068 0.70697 0.0
C169 C 0.70038 0.11641 0.75778 0.0
O170 O 0.84607 0.3677 0.40367 0.0
O171 O 0.88609 0.37766 0.98298 0.0
O172 O 0.6976 0.13641 0.79356 0.0
O173 O 0.71647 0.13727 0.42503 0.0
H174 H 0.842 0.34849 0.48423 0.0
H175 H 0.81686 0.37458 0.48926 0.0
H176 H 0.84822 0.40785 0.48065 0.0
H177 H 0.84511 0.38883 0.54822 0.0
H178 H 0.86141 0.32858 0.40559 0.0
H179 H 0.80479 0.35185 0.3229 0.0
H180 H 0.82677 0.258 0.36304 0.0
H181 H 0.86228 0.28725 0.37186 0.0
H182 H 0.84588 0.27111 0.29671 0.0
H183 H 0.76459 0.31844 0.26009 0.0
H184 H 0.75595 0.2817 0.25132 0.0
H185 H 0.77904 0.3068 0.20105 0.0
H186 H 0.70381 0.16333 0.46745 0.0
H187 H 0.71535 0.15549 0.57193 0.0
H188 H 0.74507 0.16992 0.52615 0.0
H189 H 0.72814 0.13294 0.54142 0.0
H190 H 0.68982 0.16023 0.36657 0.0
H191 H 0.75825 0.14406 0.365 0.0
H192 H 0.70463 0.19707 0.22635 0.0
H193 H 0.71519 0.21877 0.29714 0.0
H194 H 0.68231 0.18578 0.28942 0.0
H195 H 0.7919 0.16206 0.29117 0.0
H196 H 0.80268 0.19929 0.29019 0.0
H197 H 0.78408 0.17565 0.22398 0.0
H198 H 0.7097 0.10626 0.78598 0.0
H199 H 0.68593 0.16857 0.85971 0.0
H200 H 0.74702 0.14257 0.8382 0.0
H201 H 0.71174 0.20515 0.00445 0.0
H202 H 0.69164 0.2033 0.93565 0.0
H203 H 0.72784 0.23085 0.94931 0.0
H204 H 0.78661 0.15893 0.9074 0.0
H205 H 0.78705 0.17616 0.98018 0.0
H206 H 0.80194 0.19705 0.91668 0.0
H207 H 0.91531 0.37277 0.03574 0.0
H208 H 0.93259 0.41921 0.09726 0.0
H209 H 0.89678 0.39251 0.10546 0.0
H210 H 0.90398 0.42183 0.06048 0.0
H211 H 0.83305 0.35837 0.96565 0.0
H212 H 0.89577 0.33373 0.9728 0.0
H213 H 0.78042 0.30232 0.01408 0.0
H214 H 0.77368 0.28613 0.93761 0.0
H215 H 0.78435 0.32341 0.95014 0.0
H216 H 0.88373 0.28515 0.96381 0.0
H217 H 0.84747 0.25772 0.94806 0.0
H218 H 0.86107 0.2714 0.02536 0.0
H219 H 0.77422 0.23892 0.3296 0.0
H220 H 0.73245 0.16843 0.15903 0.0
H221 H 0.73506 0.1696 0.04918 0.0
H222 H 0.78862 0.24219 0.91347 0.0
H223 H 0.83597 0.3089 0.08782 0.0
H224 H 0.83136 0.30827 0.19469 0.0
H225 H 0.7141 0.14468 0.68278 0.0
H226 H 0.71934 0.11438 0.67353 0.0
H227 H 0.74183 0.14408 0.7269 0.0
C228 C 0.47093 0.91275 0.1055 0.0
C229 C 0.48455 0.9032 0.15417 0.0
C230 C 0.50981 0.87794 0.13169 0.0
C231 C 0.53716 0.88303 0.14014 0.0
C232 C 0.54265 0.86048 0.1411 0.0
C233 C 0.52017 0.83213 0.13189 0.0
C234 C 0.49236 0.82679 0.12376 0.0
C235 C 0.48746 0.84979 0.12352 0.0
C236 C 0.57257 0.86699 0.14983 0.0
C237 C 0.468 0.79683 0.11267 0.0
C238 C 0.46762 0.65747 0.36612 0.0
C239 C 0.49293 0.66119 0.33277 0.0
C240 C 0.51607 0.70952 0.29705 0.0
C241 C 0.49523 0.70443 0.25118 0.0
C242 C 0.49952 0.72496 0.20996 0.0
C243 C 0.52517 0.75105 0.21448 0.0
C244 C 0.5457 0.75676 0.26212 0.0
C245 C 0.54079 0.73589 0.30302 0.0
C246 C 0.47696 0.71836 0.16014 0.0
C247 C 0.57321 0.78439 0.26814 0.0
C248 C 0.59694 0.69089 0.94382 0.0
C249 C 0.56831 0.68078 0.9293 0.0
C250 C 0.55823 0.69981 0.92354 0.0
C251 C 0.57708 0.72944 0.93292 0.0
C252 C 0.60605 0.73965 0.94426 0.0
C253 C 0.61559 0.72019 0.94931 0.0
C254 C 0.52726 0.68825 0.91024 0.0
C255 C 0.62677 0.77111 0.95382 0.0
C256 C 0.48142 0.83886 0.78406 0.0
C257 C 0.51281 0.85584 0.77431 0.0
C258 C 0.53041 0.82337 0.76518 0.0
C259 C 0.51323 0.79419 0.76943 0.0
C260 C 0.52221 0.77919 0.80561 0.0
C261 C 0.5491 0.7939 0.83713 0.0
C262 C 0.56781 0.82256 0.82594 0.0
C263 C 0.55803 0.8372 0.79068 0.0
C264 C 0.50198 0.74842 0.81501 0.0
C265 C 0.59698 0.83856 0.85679 0.0
C266 C 0.52617 0.80851 0.12272 0.0
C267 C 0.52476 0.79237 0.17178 0.0
C268 C 0.53138 0.7707 0.16526 0.0
C269 C 0.54115 0.76602 0.10984 0.0
C270 C 0.55014 0.746 0.10349 0.0
C271 C 0.55897 0.74101 0.04823 0.0
C272 C 0.5583 0.75516 0.99652 0.0
C273 C 0.56622 0.74946 0.93938 0.0
C274 C 0.56387 0.76281 0.88809 0.0
C275 C 0.55422 0.78221 0.89289 0.0
C276 C 0.54751 0.78915 0.95035 0.0
C277 C 0.53854 0.80922 0.95712 0.0
C278 C 0.53209 0.81598 0.01358 0.0
C279 C 0.53329 0.80219 0.06529 0.0
C280 C 0.54143 0.78133 0.05922 0.0
C281 C 0.54927 0.77534 0.00206 0.0
C282 C 0.61111 0.635 0.99144 0.0
C283 C 0.59238 0.64415 0.95802 0.0
O284 O 0.50594 0.90068 0.12936 0.0
O285 O 0.51959 0.83835 0.73983 0.0
O286 O 0.60744 0.67332 0.95352 0.0
O287 O 0.51337 0.68973 0.33613 0.0
H288 H 0.46765 0.8824 0.16758 0.0
H289 H 0.46105 0.89605 0.06705 0.0
H290 H 0.48681 0.93272 0.0869 0.0
H291 H 0.45435 0.91595 0.12493 0.0
H292 H 0.55426 0.90485 0.14593 0.0
H293 H 0.4663 0.84569 0.11463 0.0
H294 H 0.57444 0.85361 0.18445 0.0
H295 H 0.58722 0.88975 0.16452 0.0
H296 H 0.57903 0.86182 0.10607 0.0
H297 H 0.44756 0.79617 0.10845 0.0
H298 H 0.46787 0.78404 0.15088 0.0
H299 H 0.47037 0.78665 0.07006 0.0
H300 H 0.48623 0.65285 0.28413 0.0
H301 H 0.45106 0.63467 0.36311 0.0
H302 H 0.45865 0.66966 0.34512 0.0
H303 H 0.47384 0.66525 0.41508 0.0
H304 H 0.47569 0.68444 0.24666 0.0
H305 H 0.55662 0.73976 0.33896 0.0
H306 H 0.4843 0.7159 0.11514 0.0
H307 H 0.47264 0.73623 0.15862 0.0
H308 H 0.45713 0.69852 0.1667 0.0
H309 H 0.58642 0.78623 0.3096 0.0
H310 H 0.56936 0.80261 0.27008 0.0
H311 H 0.58493 0.78599 0.2272 0.0
H312 H 0.57436 0.63877 0.9864 0.0
H313 H 0.55365 0.65815 0.92347 0.0
H314 H 0.63767 0.7278 0.95958 0.0
H315 H 0.51839 0.69228 0.95147 0.0
H316 H 0.51581 0.665 0.89722 0.0
H317 H 0.52367 0.69938 0.87271 0.0
H318 H 0.64878 0.77571 0.95784 0.0
H319 H 0.62266 0.77993 0.99622 0.0
H320 H 0.62413 0.78229 0.91515 0.0
H321 H 0.52469 0.86233 0.82 0.0
H322 H 0.47542 0.85051 0.8173 0.0
H323 H 0.47623 0.81833 0.80309 0.0
H324 H 0.46875 0.83428 0.73999 0.0
H325 H 0.49209 0.78368 0.74814 0.0
H326 H 0.57136 0.85973 0.78564 0.0
H327 H 0.49513 0.74667 0.86227 0.0
H328 H 0.51246 0.73561 0.80964 0.0
H329 H 0.48315 0.73926 0.78232 0.0
H330 H 0.61078 0.85772 0.8328 0.0
H331 H 0.60636 0.82463 0.85863 0.0
H332 H 0.596 0.84555 0.90449 0.0
H333 H 0.51791 0.79631 0.2149 0.0
H334 H 0.55069 0.73412 0.14133 0.0
H335 H 0.56585 0.72552 0.04644 0.0
H336 H 0.56921 0.75779 0.84404 0.0
H337 H 0.53646 0.82018 0.91909 0.0
H338 H 0.52557 0.83175 0.01572 0.0
H339 H 0.62988 0.64026 0.96597 0.0
H340 H 0.59937 0.61171 0.99654 0.0
H341 H 0.61816 0.64622 0.0378 0.0
C342 C 0.84246 0.52684 0.53175 0.0
C343 C 0.85368 0.51903 0.47585 0.0
C344 C 0.84334 0.53414 0.37779 0.0
C345 C 0.82465 0.50713 0.34857 0.0
C346 C 0.80804 0.50439 0.29557 0.0
C347 C 0.81046 0.52905 0.27088 0.0
C348 C 0.83085 0.55623 0.29729 0.0
C349 C 0.84704 0.55837 0.35036 0.0
C350 C 0.78705 0.4751 0.26732 0.0
C351 C 0.83453 0.58305 0.27133 0.0
C352 C 0.64208 0.54601 0.42599 0.0
C353 C 0.66686 0.55019 0.39309 0.0
C354 C 0.68109 0.52791 0.31415 0.0
C355 C 0.70577 0.55313 0.3037 0.0
C356 C 0.72552 0.55265 0.26619 0.0
C357 C 0.72093 0.52638 0.23934 0.0
C358 C 0.69574 0.50105 0.24804 0.0
C359 C 0.67599 0.50222 0.28482 0.0
C360 C 0.75192 0.58022 0.25755 0.0
C361 C 0.69022 0.47265 0.22049 0.0
C362 C 0.69962 0.5353 0.82303 0.0
C363 C 0.72367 0.55993 0.84881 0.0
C364 C 0.7417 0.55813 0.89301 0.0
C365 C 0.73604 0.53113 0.91052 0.0
C366 C 0.71226 0.50624 0.88354 0.0
C367 C 0.69432 0.50869 0.84014 0.0
C368 C 0.76709 0.58512 0.92025 0.0
C369 C 0.70594 0.4771 0.9003 0.0
C370 C 0.8819 0.55778 0.72829 0.0
C371 C 0.89839 0.55349 0.78082 0.0
C372 C 0.86338 0.53231 0.85749 0.0
C373 C 0.86448 0.55759 0.87964 0.0
C374 C 0.84538 0.55698 0.92075 0.0
C375 C 0.82429 0.53058 0.93915 0.0
C376 C 0.8239 0.50526 0.91914 0.0
C377 C 0.84365 0.50654 0.87909 0.0
C378 C 0.84691 0.58454 0.94193 0.0
C379 C 0.8017 0.4767 0.93746 0.0
C380 C 0.78867 0.52651 0.22499 0.0
C381 C 0.76493 0.52534 0.2479 0.0
C382 C 0.74409 0.5252 0.20945 0.0
C383 C 0.74673 0.52585 0.1456 0.0
C384 C 0.72652 0.52639 0.10551 0.0
C385 C 0.72947 0.52736 0.04281 0.0
C386 C 0.75271 0.52776 0.01786 0.0
C387 C 0.75597 0.52897 0.95434 0.0
C388 C 0.77924 0.52934 0.931 0.0
C389 C 0.79996 0.52906 0.96924 0.0
C390 C 0.79731 0.52813 0.03318 0.0
C391 C 0.81789 0.52835 0.0735 0.0
C392 C 0.8151 0.5277 0.13643 0.0
C393 C 0.7916 0.52678 0.16126 0.0
C394 C 0.7705 0.52644 0.12142 0.0
C395 C 0.77344 0.52728 0.05742 0.0
C396 C 0.64918 0.55172 0.75146 0.0
C397 C 0.67829 0.55961 0.77108 0.0
O398 O 0.85831 0.53817 0.43184 0.0
O399 O 0.88033 0.53156 0.8148 0.0
O400 O 0.68123 0.53619 0.78139 0.0
O401 O 0.66217 0.52756 0.35272 0.0
H402 H 0.8375 0.49701 0.45972 0.0
H403 H 0.82144 0.52388 0.51898 0.0
H404 H 0.8564 0.54938 0.54907 0.0
H405 H 0.8404 0.51284 0.56899 0.0
H406 H 0.82258 0.48804 0.36647 0.0
H407 H 0.86202 0.57913 0.37215 0.0
H408 H 0.76557 0.47069 0.27521 0.0
H409 H 0.79005 0.45821 0.2869 0.0
H410 H 0.78867 0.47409 0.21709 0.0
H411 H 0.8532 0.60243 0.29315 0.0
H412 H 0.81572 0.58491 0.2785 0.0
H413 H 0.83659 0.58209 0.22129 0.0
H414 H 0.68673 0.55865 0.42262 0.0
H415 H 0.648 0.54596 0.47569 0.0
H416 H 0.6264 0.52252 0.42033 0.0
H417 H 0.63383 0.57691 0.39286 0.0
H418 H 0.71007 0.57331 0.32534 0.0
H419 H 0.65687 0.48287 0.29257 0.0
H420 H 0.75743 0.58116 0.20929 0.0
H421 H 0.76943 0.58145 0.28678 0.0
H422 H 0.74987 0.59906 0.27054 0.0
H423 H 0.6693 0.45498 0.23003 0.0
H424 H 0.70649 0.46812 0.23917 0.0
H425 H 0.69163 0.47329 0.17021 0.0
H426 H 0.68811 0.57708 0.80827 0.0
H427 H 0.72879 0.58061 0.83412 0.0
H428 H 0.67591 0.48978 0.81946 0.0
H429 H 0.76859 0.58518 0.97089 0.0
H430 H 0.76666 0.60449 0.9077 0.0
H431 H 0.78622 0.58612 0.90353 0.0
H432 H 0.6868 0.4598 0.87453 0.0
H433 H 0.70308 0.47533 0.95001 0.0
H434 H 0.72392 0.47404 0.89096 0.0
H435 H 0.90958 0.57383 0.80989 0.0
H436 H 0.89642 0.57293 0.69687 0.0
H437 H 0.8693 0.56675 0.74694 0.0
H438 H 0.86725 0.53726 0.70214 0.0
H439 H 0.87966 0.57788 0.86437 0.0
H440 H 0.84305 0.48715 0.86241 0.0
H441 H 0.84243 0.58461 0.9908 0.0
H442 H 0.83091 0.58686 0.91455 0.0
H443 H 0.86775 0.60324 0.93597 0.0
H444 H 0.80514 0.45915 0.92082 0.0
H445 H 0.78081 0.47222 0.91852 0.0
H446 H 0.80136 0.47702 0.98803 0.0
H447 H 0.76302 0.52538 0.29696 0.0
H448 H 0.70822 0.52612 0.12226 0.0
H449 H 0.71328 0.5278 0.01408 0.0
H450 H 0.78151 0.53035 0.8821 0.0
H451 H 0.8364 0.52911 0.05672 0.0
H452 H 0.83156 0.52795 0.16552 0.0
H453 H 0.65196 0.56467 0.66198 0.0
H454 H 0.64224 0.56084 0.78955 0.0
H455 H 0.63534 0.52898 0.76251 0.0
C456 C 0.33628 0.85134 0.79743 0.0
C457 C 0.34966 0.88083 0.83183 0.0
C458 C 0.33662 0.86654 0.93462 0.0
C459 C 0.31318 0.87004 0.93776 0.0
C460 C 0.29192 0.85396 0.97592 0.0
C461 C 0.29405 0.83378 0.01095 0.0
C462 C 0.31874 0.8319 0.01146 0.0
C463 C 0.33997 0.84874 0.97388 0.0
C464 C 0.26634 0.85723 0.97575 0.0
C465 C 0.3218 0.81058 0.04799 0.0
C466 C 0.17832 0.64985 0.79019 0.0
C467 C 0.15558 0.64529 0.83359 0.0
C468 C 0.1737 0.69325 0.88446 0.0
C469 C 0.19596 0.69407 0.91967 0.0
C470 C 0.2139 0.71801 0.95892 0.0
C471 C 0.20911 0.74127 0.96384 0.0
C472 C 0.18694 0.74065 0.92803 0.0
C473 C 0.16954 0.71659 0.88856 0.0
C474 C 0.23765 0.71823 0.99611 0.0
C475 C 0.18125 0.76507 0.9327 0.0
C476 C 0.12808 0.67787 0.27254 0.0
C477 C 0.15351 0.67777 0.27801 0.0
C478 C 0.17925 0.70338 0.28092 0.0
C479 C 0.17953 0.72952 0.27868 0.0
C480 C 0.15408 0.72978 0.27999 0.0
C481 C 0.12866 0.7039 0.27706 0.0
C482 C 0.20607 0.70239 0.28146 0.0
C483 C 0.15361 0.75728 0.27925 0.0
C484 C 0.33517 0.92281 0.42752 0.0
C485 C 0.34343 0.90675 0.47272 0.0
C486 C 0.31535 0.85951 0.4146 0.0
C487 C 0.31872 0.83968 0.3789 0.0
C488 C 0.29663 0.8186 0.34005 0.0
C489 C 0.27073 0.81815 0.33487 0.0
C490 C 0.26657 0.83694 0.37414 0.0
C491 C 0.28874 0.85685 0.41511 0.0
C492 C 0.30149 0.79746 0.30341 0.0
C493 C 0.23903 0.83654 0.37188 0.0
C494 C 0.26847 0.81072 0.03489 0.0
C495 C 0.25005 0.78868 0.9922 0.0
C496 C 0.22609 0.76522 0.00995 0.0
C497 C 0.21981 0.76356 0.07169 0.0
C498 C 0.19542 0.74038 0.0903 0.0
C499 C 0.19016 0.73792 0.15151 0.0
C500 C 0.20926 0.75835 0.1968 0.0
C501 C 0.20483 0.7549 0.25958 0.0
C502 C 0.22478 0.77494 0.30368 0.0
C503 C 0.24882 0.799 0.28644 0.0
C504 C 0.25286 0.80337 0.22347 0.0
C505 C 0.27601 0.82785 0.20393 0.0
C506 C 0.28096 0.83069 0.14207 0.0
C507 C 0.26292 0.80921 0.09748 0.0
C508 C 0.2386 0.78526 0.11591 0.0
C509 C 0.23346 0.78247 0.17878 0.0
C510 C 0.08057 0.62255 0.17386 0.0
C511 C 0.09657 0.6274 0.23606 0.0
O512 O 0.35585 0.87921 0.89301 0.0
O513 O 0.33843 0.88062 0.44725 0.0
O514 O 0.10266 0.65371 0.26289 0.0
O515 O 0.1557 0.67058 0.84597 0.0
H516 H 0.33462 0.88874 0.82774 0.0
H517 H 0.31598 0.83677 0.81606 0.0
H518 H 0.35019 0.8421 0.80224 0.0
H519 H 0.33218 0.85281 0.74808 0.0
H520 H 0.31108 0.88485 0.90972 0.0
H521 H 0.35846 0.84667 0.97193 0.0
H522 H 0.24907 0.83946 0.94646 0.0
H523 H 0.27036 0.87759 0.95757 0.0
H524 H 0.25927 0.85627 0.02269 0.0
H525 H 0.3425 0.81212 0.04415 0.0
H526 H 0.30515 0.78869 0.03179 0.0
H527 H 0.31919 0.81398 0.09695 0.0
H528 H 0.15913 0.63724 0.87687 0.0
H529 H 0.17828 0.62962 0.78003 0.0
H530 H 0.19938 0.6658 0.81105 0.0
H531 H 0.1747 0.65758 0.74656 0.0
H532 H 0.19943 0.67616 0.91717 0.0
H533 H 0.15231 0.71571 0.8611 0.0
H534 H 0.23381 0.71804 0.04539 0.0
H535 H 0.25763 0.73801 0.99007 0.0
H536 H 0.24006 0.69961 0.98311 0.0
H537 H 0.16344 0.76151 0.90082 0.0
H538 H 0.20021 0.78504 0.92253 0.0
H539 H 0.17646 0.7681 0.98018 0.0
H540 H 0.11578 0.62672 0.22628 0.0
H541 H 0.1536 0.65794 0.2789 0.0
H542 H 0.109 0.70387 0.27491 0.0
H543 H 0.21428 0.70657 0.23543 0.0
H544 H 0.2029 0.68136 0.29333 0.0
H545 H 0.22217 0.71919 0.31465 0.0
H546 H 0.13295 0.75446 0.29014 0.0
H547 H 0.1582 0.76539 0.23311 0.0
H548 H 0.17007 0.77363 0.31261 0.0
H549 H 0.33141 0.90333 0.514 0.0
H550 H 0.34526 0.94574 0.44325 0.0
H551 H 0.31236 0.9147 0.42437 0.0
H552 H 0.34164 0.92097 0.38105 0.0
H553 H 0.33905 0.84115 0.38061 0.0
H554 H 0.28522 0.87039 0.44672 0.0
H555 H 0.30781 0.80512 0.25752 0.0
H556 H 0.28221 0.77624 0.29724 0.0
H557 H 0.31854 0.79503 0.32577 0.0
H558 H 0.24037 0.85489 0.39944 0.0
H559 H 0.22284 0.81663 0.38992 0.0
H560 H 0.23201 0.83689 0.3239 0.0
H561 H 0.25481 0.78945 0.94456 0.0
H562 H 0.18016 0.7237 0.05779 0.0
H563 H 0.17108 0.71938 0.16263 0.0
H564 H 0.22181 0.77148 0.35175 0.0
H565 H 0.29078 0.84493 0.23634 0.0
H566 H 0.29933 0.84965 0.12958 0.0
H567 H 0.06073 0.62271 0.17938 0.0
H568 H 0.07602 0.60206 0.15007 0.0
H569 H 0.0936 0.63988 0.14456 0.0
C570 C 0.53166 0.38835 0.45747 0.0
C571 C 0.51581 0.39125 0.40125 0.0
C572 C 0.49645 0.34281 0.35278 0.0
C573 C 0.52216 0.34593 0.33677 0.0
C574 C 0.52414 0.32237 0.3154 0.0
C575 C 0.49958 0.29533 0.30593 0.0
C576 C 0.47346 0.29226 0.31969 0.0
C577 C 0.4723 0.31606 0.34351 0.0
C578 C 0.55264 0.3266 0.30298 0.0
C579 C 0.44679 0.26393 0.30897 0.0
C580 C 0.49421 0.10706 0.50385 0.0
C581 C 0.48618 0.12362 0.46401 0.0
C582 C 0.50684 0.1689 0.41672 0.0
C583 C 0.48223 0.16263 0.38173 0.0
C584 C 0.48161 0.18265 0.34439 0.0
C585 C 0.50607 0.20939 0.34169 0.0
C586 C 0.53074 0.21593 0.37748 0.0
C587 C 0.53078 0.19552 0.41446 0.0
C588 C 0.455 0.17502 0.30663 0.0
C589 C 0.5572 0.24424 0.37556 0.0
C590 C 0.56346 0.16631 0.03081 0.0
C591 C 0.53611 0.1598 0.0125 0.0
C592 C 0.52863 0.18099 0.01467 0.0
C593 C 0.54887 0.20914 0.03611 0.0
C594 C 0.57702 0.21622 0.04902 0.0
C595 C 0.58401 0.19465 0.04558 0.0
C596 C 0.49862 0.17288 0.99852 0.0
C597 C 0.59925 0.24613 0.07097 0.0
C598 C 0.53218 0.38561 0.01678 0.0
C599 C 0.54408 0.38725 0.95408 0.0
C600 C 0.53608 0.33844 0.94554 0.0
C601 C 0.51482 0.31059 0.92848 0.0
C602 C 0.51455 0.28734 0.95464 0.0
C603 C 0.53648 0.29219 0.9979 0.0
C604 C 0.55945 0.3201 0.0107 0.0
C605 C 0.55894 0.34299 0.9847 0.0
C606 C 0.48991 0.25785 0.93941 0.0
C607 C 0.58365 0.32601 0.05518 0.0
C608 C 0.50143 0.27075 0.27944 0.0
C609 C 0.50079 0.25082 0.3186 0.0
C610 C 0.50646 0.22962 0.29792 0.0
C611 C 0.51359 0.22857 0.23708 0.0
C612 C 0.52085 0.2085 0.21578 0.0
C613 C 0.52912 0.20852 0.15684 0.0
C614 C 0.53023 0.22846 0.11649 0.0
C615 C 0.53958 0.22928 0.05708 0.0
C616 C 0.54102 0.2498 0.01859 0.0
C617 C 0.53299 0.26946 0.03794 0.0
C618 C 0.52305 0.26849 0.09673 0.0
C619 C 0.51427 0.28754 0.11711 0.0
C620 C 0.50642 0.28779 0.17635 0.0
C621 C 0.50702 0.26901 0.21761 0.0
C622 C 0.51397 0.24843 0.19689 0.0
C623 C 0.52218 0.24829 0.13645 0.0
C624 C 0.56878 0.1131 0.10751 0.0
C625 C 0.55318 0.11888 0.05583 0.0
O626 O 0.49411 0.36479 0.37822 0.0
O627 O 0.53325 0.36021 0.92505 0.0
O628 O 0.57047 0.14578 0.03651 0.0
O629 O 0.50841 0.14991 0.45268 0.0
H630 H 0.53046 0.40142 0.36505 0.0
H631 H 0.54209 0.37606 0.44559 0.0
H632 H 0.51702 0.37738 0.49314 0.0
H633 H 0.54822 0.40969 0.47723 0.0
H634 H 0.54094 0.36661 0.34149 0.0
H635 H 0.45249 0.31386 0.35532 0.0
H636 H 0.55505 0.30873 0.31872 0.0
H637 H 0.56983 0.34682 0.32591 0.0
H638 H 0.55506 0.32732 0.25304 0.0
H639 H 0.42791 0.26565 0.31668 0.0
H640 H 0.44744 0.24878 0.3404 0.0
H641 H 0.44489 0.2549 0.26144 0.0
H642 H 0.46745 0.12477 0.47742 0.0
H643 H 0.4857 0.07125 0.44673 0.0
H644 H 0.48328 0.10546 0.54694 0.0
H645 H 0.51575 0.12239 0.52586 0.0
H646 H 0.46353 0.14205 0.38263 0.0
H647 H 0.54964 0.20019 0.44158 0.0
H648 H 0.45851 0.17425 0.25729 0.0
H649 H 0.4492 0.19165 0.31525 0.0
H650 H 0.43723 0.15411 0.31677 0.0
H651 H 0.57442 0.24635 0.40739 0.0
H652 H 0.553 0.26176 0.38766 0.0
H653 H 0.56422 0.24684 0.3284 0.0
H654 H 0.53463 0.11789 0.07647 0.0
H655 H 0.52037 0.1381 0.99821 0.0
H656 H 0.60523 0.19959 0.05818 0.0
H657 H 0.48823 0.17212 0.0412 0.0
H658 H 0.48672 0.15172 0.97267 0.0
H659 H 0.49772 0.18909 0.97088 0.0
H660 H 0.62057 0.24879 0.07349 0.0
H661 H 0.59491 0.25147 0.11717 0.0
H662 H 0.59877 0.2615 0.03993 0.0
H663 H 0.56728 0.39763 0.96021 0.0
H664 H 0.54006 0.40733 0.03871 0.0
H665 H 0.53875 0.37408 0.04782 0.0
H666 H 0.50892 0.37432 0.01178 0.0
H667 H 0.49752 0.30725 0.89729 0.0
H668 H 0.57603 0.36438 0.99661 0.0
H669 H 0.47794 0.25017 0.98054 0.0
H670 H 0.49735 0.24292 0.92623 0.0
H671 H 0.47558 0.2573 0.9016 0.0
H672 H 0.6021 0.3474 0.05107 0.0
H673 H 0.58993 0.30967 0.04769 0.0
H674 H 0.57711 0.32504 0.10258 0.0
H675 H 0.49663 0.25232 0.36611 0.0
H676 H 0.52068 0.19279 0.24471 0.0
H677 H 0.5349 0.19281 0.14376 0.0
H678 H 0.54879 0.25073 0.97368 0.0
H679 H 0.51368 0.30279 0.08786 0.0
H680 H 0.50021 0.30316 0.18965 0.0
H681 H 0.55584 0.09104 0.12126 0.0
H682 H 0.57305 0.1281 0.14794 0.0
H683 H 0.58915 0.11617 0.09362 0.0
C684 C 0.98756 0.44703 0.83196 0.0
C685 C 0.06183 0.46976 0.74118 0.0
C686 C 0.05697 0.56294 0.68535 0.0
Mg687 Mg 0.00013 0.44138 0.69651 0.0
O688 O 0.00154 0.47662 0.69947 0.0
Mg689 Mg 0.02782 0.50698 0.76317 0.0
Mg690 Mg 0.01255 0.49879 0.62619 0.0
O691 O 0.02357 0.52102 0.55304 0.0
Mg692 Mg 0.02339 0.55535 0.5581 0.0
Mg693 Mg 0.99713 0.49098 0.48903 0.0
C694 C 0.96569 0.43426 0.56948 0.0
C695 C 0.04361 0.47472 0.53858 0.0
O696 O 0.00273 0.47428 0.83302 0.0
O697 O 0.98365 0.43046 0.78455 0.0
O698 O 0.05885 0.49014 0.76376 0.0
O699 O 0.0425 0.44941 0.7062 0.0
O700 O 0.97208 0.42276 0.61275 0.0
O701 O 0.97745 0.46144 0.56821 0.0
C702 C 0.98175 0.52339 0.71359 0.0
O703 O 0.98372 0.51569 0.65868 0.0
O704 O 0.99638 0.52227 0.75903 0.0
O705 O 0.02131 0.5254 0.41849 0.0
O706 O 0.04072 0.56799 0.47282 0.0
O707 O 0.96405 0.50511 0.49428 0.0
C708 C 0.03695 0.55276 0.42334 0.0
O709 O 0.98071 0.54578 0.55213 0.0
O710 O 0.04956 0.57381 0.64267 0.0
C711 C 0.96071 0.52457 0.52058 0.0
O712 O 0.048 0.53609 0.68449 0.0
O713 O 0.04073 0.48172 0.59337 0.0
O714 O 0.02983 0.47659 0.49209 0.0
C715 C 0.51765 0.04124 0.83881 0.0
C716 C 0.45323 0.9649 0.73776 0.0
C717 C 0.53526 0.95464 0.64173 0.0
Mg718 Mg 0.48957 0.02689 0.70716 0.0
O719 O 0.5197 0.02103 0.69451 0.0
Mg720 Mg 0.52382 0.99333 0.74576 0.0
Mg721 Mg 0.52298 0.00678 0.61205 0.0
O722 O 0.52626 0.99241 0.52974 0.0
Mg723 Mg 0.55472 0.98414 0.51629 0.0
Mg724 Mg 0.52398 0.0212 0.47986 0.0
C725 C 0.50499 0.05314 0.57736 0.0
C726 C 0.46329 0.97908 0.53064 0.0
O727 O 0.52563 0.02288 0.82913 0.0
O728 O 0.50394 0.04663 0.79808 0.0
O729 O 0.47591 0.96478 0.75172 0.0
O730 O 0.45348 0.98621 0.71508 0.0
O731 O 0.49101 0.04887 0.62496 0.0
O732 O 0.52212 0.04391 0.56988 0.0
C733 C 0.58358 0.03447 0.6904 0.0
O734 O 0.57079 0.03257 0.6386 0.0
O735 O 0.57032 0.02154 0.73594 0.0
O736 O 0.52347 0.99383 0.39416 0.0
O737 O 0.54033 0.96585 0.42436 0.0
O738 O 0.57247 0.04946 0.4826 0.0
C739 C 0.52897 0.97372 0.38332 0.0
O740 O 0.59206 0.02458 0.51581 0.0
O741 O 0.54801 0.95754 0.59253 0.0
C742 C 0.59409 0.04757 0.49817 0.0
O743 O 0.52337 0.96928 0.65455 0.0
O744 O 0.47521 0.98141 0.58398 0.0
O745 O 0.47728 0.99208 0.48576 0.0
C746 C 0.53026 0.593 0.45927 0.0
C747 C 0.58407 0.55666 0.48897 0.0
C748 C 0.49298 0.46363 0.54872 0.0
Mg749 Mg 0.56097 0.58582 0.57277 0.0
O750 O 0.52634 0.55229 0.57106 0.0
Mg751 Mg 0.51362 0.52646 0.49399 0.0
Mg752 Mg 0.52165 0.52448 0.63169 0.0
O753 O 0.51751 0.49684 0.69257 0.0
Mg754 Mg 0.48357 0.46257 0.69229 0.0
Mg755 Mg 0.53114 0.5229 0.76922 0.0
C756 C 0.5536 0.58456 0.71654 0.0
C757 C 0.58366 0.54027 0.68574 0.0
O758 O 0.51745 0.56588 0.44618 0.0
O759 O 0.54758 0.60504 0.50634 0.0
O760 O 0.5588 0.53893 0.46923 0.0
O761 O 0.58991 0.57542 0.53271 0.0
O762 O 0.56622 0.59823 0.67076 0.0
O763 O 0.53381 0.55844 0.71019 0.0
C764 C 0.46038 0.51095 0.57552 0.0
O765 O 0.47495 0.51227 0.62414 0.0
O766 O 0.47046 0.51526 0.52297 0.0
O767 O 0.52863 0.48414 0.81726 0.0
O768 O 0.4978 0.44423 0.76011 0.0
O769 O 0.4861 0.50951 0.79453 0.0
C770 C 0.51565 0.45691 0.80613 0.0
O771 O 0.45438 0.47222 0.73378 0.0
O772 O 0.48048 0.44982 0.59459 0.0
C773 C 0.46061 0.49137 0.77709 0.0
O774 O 0.51017 0.49061 0.5543 0.0
O775 O 0.56805 0.53699 0.6377 0.0
O776 O 0.57462 0.53622 0.73922 0.0
C777 C 0.10107 0.45675 0.56617 0.0
C778 C 0.09806 0.44019 0.51227 0.0
H779 H 0.08637 0.48067 0.61678 0.0
C780 C 0.07726 0.43549 0.46659 0.0
H781 H 0.11664 0.46033 0.60248 0.0
C782 C 0.06007 0.44733 0.47452 0.0
C783 C 0.06284 0.46353 0.52886 0.0
H784 H 0.07396 0.42237 0.42505 0.0
H785 H 0.04409 0.44311 0.4387 0.0
C786 C 0.08362 0.46821 0.57449 0.0
C787 C 0.67266 0.09206 0.49186 0.0
C788 C 0.67627 0.119 0.48182 0.0
H789 H 0.64405 0.04859 0.50581 0.0
C790 C 0.65268 0.12245 0.47814 0.0
H791 H 0.69044 0.08874 0.49428 0.0
C792 C 0.62596 0.09934 0.48393 0.0
C793 C 0.62236 0.07238 0.49393 0.0
H794 H 0.65488 0.14298 0.47029 0.0
H795 H 0.60815 0.10262 0.48048 0.0
C796 C 0.64605 0.06908 0.49837 0.0
C797 C 0.52442 0.65609 0.41243 0.0
C798 C 0.50472 0.64425 0.36175 0.0
H799 H 0.54846 0.64955 0.48156 0.0
C800 C 0.49445 0.61565 0.34131 0.0
H801 H 0.53233 0.67788 0.43008 0.0
C802 C 0.50348 0.59914 0.37134 0.0
C803 C 0.52292 0.61093 0.42258 0.0
H804 H 0.47894 0.60591 0.30289 0.0
H805 H 0.49469 0.577 0.35537 0.0
C806 C 0.53362 0.63974 0.44202 0.0
C807 C 0.88373 0.49598 0.47738 0.0
C808 C 0.88091 0.51979 0.49233 0.0
H809 H 0.91107 0.47874 0.47485 0.0
C810 C 0.90435 0.54491 0.5185 0.0
H811 H 0.8661 0.47644 0.45663 0.0
C812 C 0.93007 0.54621 0.52935 0.0
C813 C 0.93305 0.5226 0.51306 0.0
H814 H 0.90298 0.56379 0.52939 0.0
H815 H 0.94778 0.56598 0.54892 0.0
C816 C 0.90953 0.49737 0.4876 0.0
C817 C 0.38513 0.93633 0.55032 0.0
C818 C 0.37459 0.92456 0.49016 0.0
H819 H 0.42171 0.96281 0.6107 0.0
C820 C 0.39352 0.93011 0.4448 0.0
H821 H 0.37101 0.93232 0.58622 0.0
C822 C 0.42216 0.94772 0.45854 0.0
C823 C 0.43279 0.95988 0.5183 0.0
H824 H 0.38605 0.92108 0.39824 0.0
H825 H 0.43605 0.95171 0.42213 0.0
C826 C 0.41407 0.95369 0.56437 0.0
C827 C 0.47967 0.39908 0.45217 0.0
C828 C 0.50432 0.41021 0.42115 0.0
H829 H 0.45594 0.40772 0.5152 0.0
C830 C 0.52129 0.4399 0.42099 0.0
H831 H 0.46623 0.3763 0.45344 0.0
C832 C 0.51548 0.458 0.45678 0.0
C833 C 0.49276 0.44663 0.49389 0.0
H834 H 0.54048 0.44903 0.39771 0.0
H835 H 0.53046 0.48058 0.46025 0.0
C836 C 0.47383 0.41715 0.48776 0.0
C837 C 0.51178 0.90194 0.76444 0.0
C838 C 0.52041 0.8829 0.74273 0.0
H839 H 0.50928 0.93935 0.74947 0.0
C840 C 0.53704 0.89003 0.69249 0.0
H841 H 0.50016 0.89804 0.80481 0.0
C842 C 0.54292 0.91411 0.66197 0.0
C843 C 0.53241 0.93188 0.68069 0.0
H844 H 0.5452 0.87679 0.67557 0.0
H845 H 0.55502 0.9182 0.62226 0.0
C846 C 0.51734 0.92593 0.73322 0.0
C847 C 0.65964 0.53363 0.66531 0.0
C848 C 0.68306 0.56791 0.71103 0.0
H849 H 0.6077 0.5032 0.6398 0.0
C850 C 0.67493 0.59722 0.71923 0.0
H851 H 0.66577 0.51782 0.65648 0.0
C852 C 0.63828 0.5859 0.7091 0.0
C853 C 0.61315 0.54991 0.68082 0.0
H854 H 0.68968 0.61773 0.74213 0.0
H855 H 0.63113 0.60045 0.7227 0.0
C856 C 0.62348 0.52449 0.65691 0.0
C857 C 0.118 0.59416 0.80503 0.0
C858 C 0.1273 0.62337 0.80349 0.0
H859 H 0.088 0.55176 0.76934 0.0
C860 C 0.11132 0.6319 0.7682 0.0
H861 H 0.13012 0.58709 0.8314 0.0
C862 C 0.08719 0.61186 0.73382 0.0
C863 C 0.07876 0.58279 0.73233 0.0
H864 H 0.11795 0.65419 0.76518 0.0
H865 H 0.07597 0.61942 0.70583 0.0
C866 C 0.09388 0.57399 0.76976 0.0
C867 C 0.56268 0.09085 0.97361 0.0
C868 C 0.54362 0.09678 0.00227 0.0
H869 H 0.56897 0.06757 0.90038 0.0
C870 C 0.51558 0.08291 0.97837 0.0
H871 H 0.58454 0.1016 0.99004 0.0
C872 C 0.50696 0.06421 0.92603 0.0
C873 C 0.52602 0.05837 0.8976 0.0
H874 H 0.50041 0.08701 0.99938 0.0
H875 H 0.48544 0.05449 0.90736 0.0
C876 C 0.55381 0.07139 0.92238 0.0
C877 C 0.42512 0.50515 0.90737 0.0
C878 C 0.39914 0.47977 0.90301 0.0
H879 H 0.46495 0.52901 0.87034 0.0
C880 C 0.39198 0.46064 0.85122 0.0
H881 H 0.43113 0.52032 0.94663 0.0
C882 C 0.41116 0.4657 0.80714 0.0
C883 C 0.43814 0.48978 0.81442 0.0
H884 H 0.37208 0.44095 0.84645 0.0
H885 H 0.40545 0.44971 0.76965 0.0
C886 C 0.44446 0.51007 0.86361 0.0
C887 C 0.9466 0.39282 0.94304 0.0
C888 C 0.93471 0.40646 0.97581 0.0
H889 H 0.97286 0.39507 0.87191 0.0
C890 C 0.94208 0.43448 0.9635 0.0
H891 H 0.94109 0.37118 0.95085 0.0
C892 C 0.96084 0.44839 0.91943 0.0
C893 C 0.97174 0.43422 0.88518 0.0
H894 H 0.93283 0.44548 0.98633 0.0
H895 H 0.96552 0.46964 0.9097 0.0
C896 C 0.96478 0.40647 0.89791 0.0
C897 C 0.94521 0.55654 0.79664 0.0
C898 C 0.92056 0.54707 0.75892 0.0
H899 H 0.9839 0.55698 0.81139 0.0
C900 C 0.91656 0.53021 0.7045 0.0
H901 H 0.94871 0.56906 0.83931 0.0
C902 C 0.93698 0.52351 0.68808 0.0
C903 C 0.9614 0.53281 0.72648 0.0
H904 H 0.89759 0.52181 0.67485 0.0
H905 H 0.93313 0.51011 0.64664 0.0
C906 C 0.96534 0.54955 0.78067 0.0
C907 C 0.40083 0.89998 0.8135 0.0
C908 C 0.37619 0.90127 0.80347 0.0
H909 H 0.44449 0.91884 0.79995 0.0
C910 C 0.37644 0.92167 0.76601 0.0
H911 H 0.40103 0.88404 0.84115 0.0
C912 C 0.40121 0.94152 0.74218 0.0
C913 C 0.42626 0.94126 0.7549 0.0
H914 H 0.35759 0.92273 0.7564 0.0
H915 H 0.40084 0.95761 0.71538 0.0
C916 C 0.42563 0.91979 0.78952 0.0
C917 C 0.51116 0.393 0.87916 0.0
C918 C 0.53669 0.40524 0.91503 0.0
H919 H 0.48462 0.39966 0.81652 0.0
C920 C 0.55451 0.4349 0.91764 0.0
H921 H 0.49655 0.37034 0.87771 0.0
C922 C 0.54743 0.45184 0.88347 0.0
C923 C 0.52237 0.43945 0.84587 0.0
H924 H 0.57398 0.44495 0.94613 0.0
H925 H 0.56184 0.47457 0.88566 0.0
C926 C 0.50425 0.40986 0.84444 0.0
C927 C 0.10113 0.43329 0.79265 0.0
C928 C 0.11394 0.44902 0.84886 0.0
H929 H 0.07455 0.42776 0.71306 0.0
C930 C 0.11558 0.47547 0.85988 0.0
H931 H 0.10072 0.41351 0.78116 0.0
C932 C 0.10128 0.48405 0.82011 0.0
C933 C 0.0848 0.46618 0.76868 0.0
H934 H 0.1263 0.48864 0.90155 0.0
H935 H 0.10117 0.50348 0.83287 0.0
C936 C 0.0864 0.44165 0.75316 0.0
C937 C 0.65714 0.06871 0.76447 0.0
C938 C 0.67131 0.09337 0.73287 0.0
H939 H 0.61861 0.03063 0.77509 0.0
C940 C 0.6567 0.09742 0.68361 0.0
H941 H 0.66756 0.06517 0.80318 0.0
C942 C 0.62856 0.07739 0.66705 0.0
C943 C 0.61427 0.05334 0.70042 0.0
H944 H 0.66659 0.11645 0.65905 0.0
H945 H 0.61763 0.08153 0.6304 0.0
C946 C 0.62903 0.04897 0.74847 0.0
C947 C 0.55636 0.60322 0.8862 0.0
C948 C 0.58232 0.62852 0.89524 0.0
H949 H 0.52679 0.5694 0.82248 0.0
C950 C 0.59921 0.6385 0.84584 0.0
H951 H 0.54321 0.59486 0.92389 0.0
C952 C 0.58985 0.62411 0.78801 0.0
C953 C 0.5636 0.59912 0.77849 0.0
H954 H 0.6196 0.65758 0.85187 0.0
H955 H 0.60329 0.63256 0.75079 0.0
C956 C 0.54707 0.58862 0.82833 0.0
C957 C 0.45165 0.07266 0.45576 0.0
C958 C 0.48127 0.10189 0.41969 0.0
H959 H 0.44639 0.04249 0.54331 0.0
C960 C 0.51651 0.10515 0.41821 0.0
H961 H 0.43073 0.06964 0.4517 0.0
C962 C 0.52461 0.08826 0.47836 0.0
C963 C 0.49793 0.06559 0.52685 0.0
H964 H 0.53272 0.1206 0.39213 0.0
H965 H 0.54571 0.09205 0.4859 0.0
C966 C 0.46193 0.057 0.51461 0.0
C967 C 0.39609 0.51733 0.54321 0.0
C968 C 0.37918 0.50277 0.59029 0.0
H969 H 0.43462 0.53099 0.50171 0.0
C970 C 0.3887 0.4894 0.63068 0.0
H971 H 0.38964 0.5277 0.51059 0.0
C972 C 0.41504 0.49187 0.62621 0.0
C973 C 0.432 0.50693 0.57993 0.0
H974 H 0.37598 0.47741 0.66651 0.0
H975 H 0.42202 0.48188 0.65863 0.0
C976 C 0.42201 0.51917 0.5379 0.0
C977 C 0.90151 0.41226 0.46334 0.0
C978 C 0.88371 0.38465 0.48075 0.0
H979 H 0.94197 0.44961 0.47663 0.0
C980 C 0.89501 0.37181 0.51754 0.0
H981 H 0.89341 0.42245 0.43408 0.0
C982 C 0.92284 0.38715 0.5412 0.0
C983 C 0.93989 0.41587 0.52936 0.0
H984 H 0.88188 0.35039 0.53087 0.0
H985 H 0.93025 0.37707 0.57255 0.0
C986 C 0.92935 0.42776 0.48757 0.0
C987 C 0.5004 0.95055 0.21785 0.0
C988 C 0.49645 0.92279 0.21234 0.0
H989 H 0.51367 0.98836 0.27634 0.0
C990 C 0.50486 0.91291 0.26249 0.0
H991 H 0.49477 0.95938 0.1803 0.0
C992 C 0.51631 0.92986 0.31706 0.0
C993 C 0.51939 0.95714 0.32329 0.0
H994 H 0.50238 0.89181 0.2595 0.0
H995 H 0.52205 0.9212 0.35493 0.0
C996 C 0.51146 0.96738 0.27302 0.0
C997 C 0.67104 0.59501 0.43392 0.0
C998 C 0.66265 0.57045 0.36461 0.0
H999 H 0.64603 0.5977 0.52461 0.0
C1000 C 0.6264 0.54816 0.32801 0.0
H1001 H 0.69239 0.60972 0.45125 0.0
C1002 C 0.59904 0.5407 0.37867 0.0
C1003 C 0.60714 0.55881 0.45422 0.0
H1004 H 0.62216 0.53626 0.28427 0.0
H1005 H 0.5775 0.52601 0.36272 0.0
C1006 C 0.64227 0.58601 0.48078 0.0
C1007 C 0.09425 0.60856 0.33884 0.0
C1008 C 0.08102 0.60487 0.28045 0.0
H1009 H 0.09059 0.5949 0.42942 0.0
C1010 C 0.05377 0.58123 0.26721 0.0
H1011 H 0.11527 0.62615 0.3503 0.0
C1012 C 0.03978 0.56288 0.31258 0.0
C1013 C 0.05259 0.56808 0.37183 0.0
H1014 H 0.04274 0.57713 0.22276 0.0
H1015 H 0.01849 0.54563 0.30227 0.0
C1016 C 0.08015 0.59063 0.38407 0.0
loop_
_geom_bond_atom_site_label_1
_geom_bond_atom_site_label_2
_geom_bond_distance
_geom_bond_site_symmetry_2
_ccdc_geom_bond_type
C0 C1 1.560 . S
C0 H61 0.959 . S
C0 H62 0.959 . S
C0 H63 0.960 . S
C1 C0 1.560 . S
C1 O56 1.426 . S
C1 H60 0.980 . S
C2 C3 1.407 . S
C2 C7 1.418 . S
C2 O56 1.334 . S
C3 C2 1.407 . S
C3 C4 1.360 . S
C3 H64 0.929 . S
C4 C3 1.360 . S
C4 C5 1.401 . S
C4 C8 1.527 . S
C5 C4 1.401 . S
C5 C6 1.405 . S
C5 C38 1.587 . S
C6 C5 1.405 . S
C6 C7 1.332 . S
C6 C9 1.496 . S
C7 C2 1.418 . S
C7 C6 1.332 . S
C7 H65 0.929 . S
C8 C4 1.527 . S
C8 H66 0.959 . S
C8 H67 0.961 . S
C8 H68 0.961 . S
C9 C6 1.496 . S
C9 H69 0.960 . S
C9 H70 0.960 . S
C9 H71 0.961 . S
C10 C11 1.517 . S
C10 H73 0.961 . S
C10 H74 0.960 . S
C10 H75 0.959 . S
C11 C10 1.517 . S
C11 O59 1.468 . S
C11 H72 0.980 . S
C12 C13 1.349 . S
C12 C17 1.367 . S
C12 O59 1.408 . S
C13 C12 1.349 . S
C13 C14 1.407 . S
C13 H76 0.930 . S
C14 C13 1.407 . S
C14 C15 1.449 . S
C14 C18 1.535 . S
C15 C14 1.449 . S
C15 C16 1.384 . S
C15 C40 1.553 . S
C16 C15 1.384 . S
C16 C17 1.364 . S
C16 C19 1.450 . S
C17 C12 1.367 . S
C17 C16 1.364 . S
C17 H77 0.931 . S
C18 C14 1.535 . S
C18 H78 0.959 . S
C18 H79 0.961 . S
C18 H80 0.959 . S
C19 C16 1.450 . S
C19 H81 0.960 . S
C19 H82 0.960 . S
C19 H83 0.960 . S
C20 C21 1.309 . S
C20 C25 1.304 . S
C20 O58 1.435 . S
C21 C20 1.309 . S
C21 C22 1.476 1_556 S
C21 H85 0.930 . S
C22 C21 1.476 1_554 S
C22 C23 1.400 . S
C22 C26 1.567 . S
C23 C22 1.400 . S
C23 C24 1.367 1_554 S
C23 C45 1.432 . S
C24 C23 1.367 1_556 S
C24 C25 1.347 . S
C24 C27 1.527 1_556 S
C25 C20 1.304 . S
C25 C24 1.347 . S
C25 H86 0.930 . S
C26 C22 1.567 . S
C26 H87 0.961 . S
C26 H88 0.960 . S
C26 H89 0.958 . S
C27 C24 1.527 1_554 S
C27 H90 0.961 1_554 S
C27 H91 0.960 . S
C27 H92 0.960 1_554 S
C28 C29 1.530 . S
C28 H94 0.961 . S
C28 H95 0.961 . S
C28 H96 0.959 . S
C29 C28 1.530 . S
C29 O57 1.412 . S
C29 H93 0.980 . S
C30 C31 1.288 . S
C30 C35 1.377 . S
C30 O57 1.393 . S
C31 C30 1.288 . S
C31 C32 1.369 1_556 S
C31 H97 0.932 . S
C32 C31 1.369 1_554 S
C32 C33 1.398 . S
C32 C36 1.527 . S
C33 C32 1.398 . S
C33 C34 1.380 . S
C33 C47 1.497 . S
C34 C33 1.380 . S
C34 C35 1.383 1_554 S
C34 C37 1.603 . S
C35 C30 1.377 . S
C35 C34 1.383 1_556 S
C35 H98 0.929 . S
C36 C32 1.527 . S
C36 H99 0.961 . S
C36 H100 0.959 . S
C36 H101 0.959 . S
C37 C34 1.603 . S
C37 H102 0.960 1_554 S
C37 H103 0.962 . S
C37 H104 0.961 . S
C38 C5 1.587 . S
C38 C39 1.360 . S
C38 C51 1.412 . S
C39 C38 1.360 . S
C39 C40 1.365 . S
C39 H105 0.929 . S
C40 C15 1.553 . S
C40 C39 1.365 . S
C40 C41 1.404 . S
C41 C40 1.404 . S
C41 C42 1.395 . S
C41 C52 1.451 . S
C42 C41 1.395 . S
C42 C43 1.322 . S
C42 H106 0.930 . S
C43 C42 1.322 . S
C43 C44 1.459 . S
C43 H107 0.929 . S
C44 C43 1.459 . S
C44 C45 1.445 . S
C44 C53 1.395 . S
C45 C23 1.432 . S
C45 C44 1.445 . S
C45 C46 1.370 . S
C46 C45 1.370 . S
C46 C47 1.438 . S
C46 H108 0.930 1_554 S
C47 C33 1.497 . S
C47 C46 1.438 . S
C47 C48 1.360 . S
C48 C47 1.360 . S
C48 C49 1.401 . S
C48 C53 1.446 . S
C49 C48 1.401 . S
C49 C50 1.347 . S
C49 H109 0.929 . S
C50 C49 1.347 . S
C50 C51 1.455 . S
C50 H110 0.930 . S
C51 C38 1.412 . S
C51 C50 1.455 . S
C51 C52 1.331 . S
C52 C41 1.451 . S
C52 C51 1.331 . S
C52 C53 1.497 . S
C53 C44 1.395 . S
C53 C48 1.446 . S
C53 C52 1.497 . S
C54 C55 1.582 . S
C54 H111 0.962 . S
C54 H112 0.959 . S
C54 H113 0.958 . S
C55 C54 1.582 . S
C55 O58 1.458 . S
C55 H84 0.980 . S
O56 C1 1.426 . S
O56 C2 1.334 . S
O57 C29 1.412 . S
O57 C30 1.393 . S
O58 C20 1.435 . S
O58 C55 1.458 . S
O59 C11 1.468 . S
O59 C12 1.408 . S
H60 C1 0.980 . S
H61 C0 0.959 . S
H62 C0 0.959 . S
H63 C0 0.960 . S
H64 C3 0.929 . S
H65 C7 0.929 . S
H66 C8 0.959 . S
H67 C8 0.961 . S
H68 C8 0.961 . S
H69 C9 0.960 . S
H70 C9 0.960 . S
H71 C9 0.961 . S
H72 C11 0.980 . S
H73 C10 0.961 . S
H74 C10 0.960 . S
H75 C10 0.959 . S
H76 C13 0.930 . S
H77 C17 0.931 . S
H78 C18 0.959 . S
H79 C18 0.961 . S
H80 C18 0.959 . S
H81 C19 0.960 . S
H82 C19 0.960 . S
H83 C19 0.960 . S
H84 C55 0.980 . S
H85 C21 0.930 . S
H86 C25 0.930 . S
H87 C26 0.961 . S
H88 C26 0.960 . S
H89 C26 0.958 . S
H90 C27 0.961 1_556 S
H91 C27 0.960 . S
H92 C27 0.960 1_556 S
H93 C29 0.980 . S
H94 C28 0.961 . S
H95 C28 0.961 . S
H96 C28 0.959 . S
H97 C31 0.932 . S
H98 C35 0.929 . S
H99 C36 0.961 . S
H100 C36 0.959 . S
H101 C36 0.959 . S
H102 C37 0.960 1_556 S
H103 C37 0.962 . S
H104 C37 0.961 . S
H105 C39 0.929 . S
H106 C42 0.930 . S
H107 C43 0.929 . S
H108 C46 0.930 1_556 S
H109 C49 0.929 . S
H110 C50 0.930 . S
H111 C54 0.962 . S
H112 C54 0.959 . S
H113 C54 0.958 . S
C114 C115 1.560 . S
C114 H175 0.959 . S
C114 H176 0.959 . S
C114 H177 0.960 . S
C115 C114 1.560 . S
C115 O170 1.426 . S
C115 H174 0.980 . S
C116 C117 1.407 . S
C116 C121 1.418 . S
C116 O170 1.334 . S
C117 C116 1.407 . S
C117 C118 1.360 . S
C117 H178 0.929 . S
C118 C117 1.360 . S
C118 C119 1.401 . S
C118 C122 1.527 . S
C119 C118 1.401 . S
C119 C120 1.405 . S
C119 C152 1.587 . S
C120 C119 1.405 . S
C120 C121 1.332 . S
C120 C123 1.496 . S
C121 C116 1.418 . S
C121 C120 1.332 . S
C121 H179 0.929 . S
C122 C118 1.527 . S
C122 H180 0.959 . S
C122 H181 0.961 . S
C122 H182 0.961 . S
C123 C120 1.496 . S
C123 H183 0.960 . S
C123 H184 0.960 . S
C123 H185 0.961 . S
C124 C125 1.517 . S
C124 H187 0.961 . S
C124 H188 0.960 . S
C124 H189 0.959 . S
C125 C124 1.517 . S
C125 O173 1.468 . S
C125 H186 0.980 . S
C126 C127 1.349 . S
C126 C131 1.367 . S
C126 O173 1.408 . S
C127 C126 1.349 . S
C127 C128 1.407 . S
C127 H190 0.930 . S
C128 C127 1.407 . S
C128 C129 1.449 . S
C128 C132 1.535 . S
C129 C128 1.449 . S
C129 C130 1.384 . S
C129 C154 1.553 . S
C130 C129 1.384 . S
C130 C131 1.364 . S
C130 C133 1.450 . S
C131 C126 1.367 . S
C131 C130 1.364 . S
C131 H191 0.931 . S
C132 C128 1.535 . S
C132 H192 0.959 . S
C132 H193 0.961 . S
C132 H194 0.959 . S
C133 C130 1.450 . S
C133 H195 0.960 . S
C133 H196 0.960 . S
C133 H197 0.960 . S
C134 C135 1.309 . S
C134 C139 1.304 . S
C134 O172 1.435 . S
C135 C134 1.309 . S
C135 C136 1.476 . S
C135 H199 0.930 . S
C136 C135 1.476 . S
C136 C137 1.400 . S
C136 C140 1.567 1_556 S
C137 C136 1.400 . S
C137 C138 1.373 . S
C137 C159 1.432 1_556 S
C138 C137 1.373 . S
C138 C139 1.339 . S
C138 C141 1.530 . S
C139 C134 1.304 . S
C139 C138 1.339 . S
C139 H200 0.930 . S
C140 C136 1.567 1_554 S
C140 H201 0.961 . S
C140 H202 0.960 . S
C140 H203 0.958 1_554 S
C141 C138 1.530 . S
C141 H204 0.961 . S
C141 H205 0.960 1_556 S
C141 H206 0.960 . S
C142 C143 1.530 . S
C142 H208 0.961 . S
C142 H209 0.961 . S
C142 H210 0.959 . S
C143 C142 1.530 . S
C143 O171 1.412 . S
C143 H207 0.980 . S
C144 C145 1.288 . S
C144 C149 1.377 . S
C144 O171 1.393 . S
C145 C144 1.288 . S
C145 C146 1.369 . S
C145 H211 0.932 . S
C146 C145 1.369 . S
C146 C147 1.398 . S
C146 C150 1.527 1_556 S
C147 C146 1.398 . S
C147 C148 1.380 . S
C147 C161 1.497 1_556 S
C148 C147 1.380 . S
C148 C149 1.383 . S
C148 C151 1.603 . S
C149 C144 1.377 . S
C149 C148 1.383 . S
C149 H212 0.929 . S
C150 C146 1.527 1_554 S
C150 H213 0.961 . S
C150 H214 0.959 1_554 S
C150 H215 0.957 1_554 S
C151 C148 1.603 . S
C151 H216 0.960 . S
C151 H217 0.962 1_556 S
C151 H218 0.961 1_556 S
C152 C119 1.587 . S
C152 C153 1.360 . S
C152 C165 1.412 . S
C153 C152 1.360 . S
C153 C154 1.365 . S
C153 H219 0.929 . S
C154 C129 1.553 . S
C154 C153 1.365 . S
C154 C155 1.404 . S
C155 C154 1.404 . S
C155 C156 1.395 . S
C155 C166 1.451 . S
C156 C155 1.395 . S
C156 C157 1.322 . S
C156 H220 0.930 . S
C157 C156 1.322 . S
C157 C158 1.459 . S
C157 H221 0.929 . S
C158 C157 1.459 . S
C158 C159 1.445 . S
C158 C167 1.395 . S
C159 C137 1.432 1_554 S
C159 C158 1.445 . S
C159 C160 1.370 . S
C160 C159 1.370 . S
C160 C161 1.438 . S
C160 H222 0.930 1_554 S
C161 C147 1.497 1_554 S
C161 C160 1.438 . S
C161 C162 1.360 . S
C162 C161 1.360 . S
C162 C163 1.401 . S
C162 C167 1.446 . S
C163 C162 1.401 . S
C163 C164 1.347 . S
C163 H223 0.929 . S
C164 C163 1.347 . S
C164 C165 1.455 . S
C164 H224 0.930 . S
C165 C152 1.412 . S
C165 C164 1.455 . S
C165 C166 1.331 . S
C166 C155 1.451 . S
C166 C165 1.331 . S
C166 C167 1.497 . S
C167 C158 1.395 . S
C167 C162 1.446 . S
C167 C166 1.497 . S
C168 C169 1.582 . S
C168 H225 0.962 . S
C168 H226 0.959 . S
C168 H227 0.958 . S
C169 C168 1.582 . S
C169 O172 1.458 . S
C169 H198 0.980 . S
O170 C115 1.426 . S
O170 C116 1.334 . S
O171 C143 1.412 . S
O171 C144 1.393 . S
O172 C134 1.435 . S
O172 C169 1.458 . S
O173 C125 1.468 . S
O173 C126 1.408 . S
H174 C115 0.980 . S
H175 C114 0.959 . S
H176 C114 0.959 . S
H177 C114 0.960 . S
H178 C117 0.929 . S
H179 C121 0.929 . S
H180 C122 0.959 . S
H181 C122 0.961 . S
H182 C122 0.961 . S
H183 C123 0.960 . S
H184 C123 0.960 . S
H185 C123 0.961 . S
H186 C125 0.980 . S
H187 C124 0.961 . S
H188 C124 0.960 . S
H189 C124 0.959 . S
H190 C127 0.930 . S
H191 C131 0.931 . S
H192 C132 0.959 . S
H193 C132 0.961 . S
H194 C132 0.959 . S
H195 C133 0.960 . S
H196 C133 0.960 . S
H197 C133 0.960 . S
H198 C169 0.980 . S
H199 C135 0.930 . S
H200 C139 0.930 . S
H201 C140 0.961 . S
H202 C140 0.960 . S
H203 C140 0.958 1_556 S
H204 C141 0.961 . S
H205 C141 0.960 1_554 S
H206 C141 0.960 . S
H207 C143 0.980 . S
H208 C142 0.961 . S
H209 C142 0.961 . S
H210 C142 0.959 . S
H211 C145 0.932 . S
H212 C149 0.929 . S
H213 C150 0.961 . S
H214 C150 0.959 1_556 S
H215 C150 0.957 1_556 S
H216 C151 0.960 . S
H217 C151 0.962 1_554 S
H218 C151 0.961 1_554 S
H219 C153 0.929 . S
H220 C156 0.930 . S
H221 C157 0.929 . S
H222 C160 0.930 1_556 S
H223 C163 0.929 . S
H224 C164 0.930 . S
H225 C168 0.962 . S
H226 C168 0.959 . S
H227 C168 0.958 . S
C228 C229 1.560 . S
C228 H289 0.959 . S
C228 H290 0.959 . S
C228 H291 0.960 . S
C229 C228 1.560 . S
C229 O284 1.426 . S
C229 H288 0.980 . S
C230 C231 1.407 . S
C230 C235 1.418 . S
C230 O284 1.334 . S
C231 C230 1.407 . S
C231 C232 1.360 . S
C231 H292 0.929 . S
C232 C231 1.360 . S
C232 C233 1.401 . S
C232 C236 1.527 . S
C233 C232 1.401 . S
C233 C234 1.405 . S
C233 C266 1.587 . S
C234 C233 1.405 . S
C234 C235 1.332 . S
C234 C237 1.496 . S
C235 C230 1.418 . S
C235 C234 1.332 . S
C235 H293 0.929 . S
C236 C232 1.527 . S
C236 H294 0.959 . S
C236 H295 0.961 . S
C236 H296 0.961 . S
C237 C234 1.496 . S
C237 H297 0.960 . S
C237 H298 0.960 . S
C237 H299 0.961 . S
C238 C239 1.517 . S
C238 H301 0.961 . S
C238 H302 0.960 . S
C238 H303 0.959 . S
C239 C238 1.517 . S
C239 O287 1.468 . S
C239 H300 0.980 . S
C240 C241 1.349 . S
C240 C245 1.367 . S
C240 O287 1.408 . S
C241 C240 1.349 . S
C241 C242 1.407 . S
C241 H304 0.930 . S
C242 C241 1.407 . S
C242 C243 1.449 . S
C242 C246 1.535 . S
C243 C242 1.449 . S
C243 C244 1.384 . S
C243 C268 1.553 . S
C244 C243 1.384 . S
C244 C245 1.364 . S
C244 C247 1.450 . S
C245 C240 1.367 . S
C245 C244 1.364 . S
C245 H305 0.931 . S
C246 C242 1.535 . S
C246 H306 0.959 . S
C246 H307 0.961 . S
C246 H308 0.959 . S
C247 C244 1.450 . S
C247 H309 0.960 . S
C247 H310 0.960 . S
C247 H311 0.960 . S
C248 C249 1.309 . S
C248 C253 1.304 . S
C248 O286 1.435 . S
C249 C248 1.309 . S
C249 C250 1.476 . S
C249 H313 0.930 . S
C250 C249 1.476 . S
C250 C251 1.400 . S
C250 C254 1.567 . S
C251 C250 1.400 . S
C251 C252 1.373 . S
C251 C273 1.432 . S
C252 C251 1.373 . S
C252 C253 1.339 . S
C252 C255 1.530 . S
C253 C248 1.304 . S
C253 C252 1.339 . S
C253 H314 0.930 . S
C254 C250 1.567 . S
C254 H315 0.961 . S
C254 H316 0.960 . S
C254 H317 0.958 . S
C255 C252 1.530 . S
C255 H318 0.961 . S
C255 H319 0.960 . S
C255 H320 0.960 . S
C256 C257 1.530 . S
C256 H322 0.961 . S
C256 H323 0.961 . S
C256 H324 0.959 . S
C257 C256 1.530 . S
C257 O285 1.412 . S
C257 H321 0.980 . S
C258 C259 1.288 . S
C258 C263 1.377 . S
C258 O285 1.393 . S
C259 C258 1.288 . S
C259 C260 1.369 . S
C259 H325 0.932 . S
C260 C259 1.369 . S
C260 C261 1.398 . S
C260 C264 1.527 . S
C261 C260 1.398 . S
C261 C262 1.380 . S
C261 C275 1.497 . S
C262 C261 1.380 . S
C262 C263 1.383 . S
C262 C265 1.603 . S
C263 C258 1.377 . S
C263 C262 1.383 . S
C263 H326 0.929 . S
C264 C260 1.527 . S
C264 H327 0.961 . S
C264 H328 0.959 . S
C264 H329 0.959 . S
C265 C262 1.603 . S
C265 H330 0.960 . S
C265 H331 0.962 . S
C265 H332 0.961 . S
C266 C233 1.587 . S
C266 C267 1.360 . S
C266 C279 1.412 . S
C267 C266 1.360 . S
C267 C268 1.365 . S
C267 H333 0.929 . S
C268 C243 1.553 . S
C268 C267 1.365 . S
C268 C269 1.404 . S
C269 C268 1.404 . S
C269 C270 1.395 . S
C269 C280 1.451 . S
C270 C269 1.395 . S
C270 C271 1.322 . S
C270 H334 0.930 . S
C271 C270 1.322 . S
C271 C272 1.459 1_554 S
C271 H335 0.929 1_554 S
C272 C271 1.459 1_556 S
C272 C273 1.445 . S
C272 C281 1.395 1_556 S
C273 C251 1.432 . S
C273 C272 1.445 . S
C273 C274 1.370 . S
C274 C273 1.370 . S
C274 C275 1.438 . S
C274 H336 0.930 . S
C275 C261 1.497 . S
C275 C274 1.438 . S
C275 C276 1.360 . S
C276 C275 1.360 . S
C276 C277 1.401 1_556 S
C276 C281 1.446 1_556 S
C277 C276 1.401 1_554 S
C277 C278 1.347 . S
C277 H337 0.929 1_554 S
C278 C277 1.347 . S
C278 C279 1.455 . S
C278 H338 0.930 . S
C279 C266 1.412 . S
C279 C278 1.455 . S
C279 C280 1.331 . S
C280 C269 1.451 . S
C280 C279 1.331 . S
C280 C281 1.497 . S
C281 C272 1.395 1_554 S
C281 C276 1.446 1_554 S
C281 C280 1.497 . S
C282 C283 1.582 . S
C282 H339 0.962 . S
C282 H340 0.959 . S
C282 H341 0.958 . S
C283 C282 1.582 . S
C283 O286 1.458 . S
C283 H312 0.980 . S
O284 C229 1.426 . S
O284 C230 1.334 . S
O285 C257 1.412 . S
O285 C258 1.393 . S
O286 C248 1.435 . S
O286 C283 1.458 . S
O287 C239 1.468 . S
O287 C240 1.408 . S
H288 C229 0.980 . S
H289 C228 0.959 . S
H290 C228 0.959 . S
H291 C228 0.960 . S
H292 C231 0.929 . S
H293 C235 0.929 . S
H294 C236 0.959 . S
H295 C236 0.961 . S
H296 C236 0.961 . S
H297 C237 0.960 . S
H298 C237 0.960 . S
H299 C237 0.961 . S
H300 C239 0.980 . S
H301 C238 0.961 . S
H302 C238 0.960 . S
H303 C238 0.959 . S
H304 C241 0.930 . S
H305 C245 0.931 . S
H306 C246 0.959 . S
H307 C246 0.961 . S
H308 C246 0.959 . S
H309 C247 0.960 . S
H310 C247 0.960 . S
H311 C247 0.960 . S
H312 C283 0.980 . S
H313 C249 0.930 . S
H314 C253 0.930 . S
H315 C254 0.961 . S
H316 C254 0.960 . S
H317 C254 0.958 . S
H318 C255 0.961 . S
H319 C255 0.960 . S
H320 C255 0.960 . S
H321 C257 0.980 . S
H322 C256 0.961 . S
H323 C256 0.961 . S
H324 C256 0.959 . S
H325 C259 0.932 . S
H326 C263 0.929 . S
H327 C264 0.961 . S
H328 C264 0.959 . S
H329 C264 0.959 . S
H330 C265 0.960 . S
H331 C265 0.962 . S
H332 C265 0.961 . S
H333 C267 0.929 . S
H334 C270 0.930 . S
H335 C271 0.929 1_556 S
H336 C274 0.930 . S
H337 C277 0.929 1_556 S
H338 C278 0.930 . S
H339 C282 0.962 . S
H340 C282 0.959 . S
H341 C282 0.958 . S
C342 C343 1.560 . S
C342 H403 0.959 . S
C342 H404 0.959 . S
C342 H405 0.960 . S
C343 C342 1.560 . S
C343 O398 1.426 . S
C343 H402 0.980 . S
C344 C345 1.407 . S
C344 C349 1.418 . S
C344 O398 1.334 . S
C345 C344 1.407 . S
C345 C346 1.360 . S
C345 H406 0.929 . S
C346 C345 1.360 . S
C346 C347 1.401 . S
C346 C350 1.527 . S
C347 C346 1.401 . S
C347 C348 1.405 . S
C347 C380 1.587 . S
C348 C347 1.405 . S
C348 C349 1.332 . S
C348 C351 1.496 . S
C349 C344 1.418 . S
C349 C348 1.332 . S
C349 H407 0.929 . S
C350 C346 1.527 . S
C350 H408 0.959 . S
C350 H409 0.961 . S
C350 H410 0.961 . S
C351 C348 1.496 . S
C351 H411 0.960 . S
C351 H412 0.960 . S
C351 H413 0.961 . S
C352 C353 1.517 . S
C352 H415 0.961 . S
C352 H416 0.960 . S
C352 H417 0.959 . S
C353 C352 1.517 . S
C353 O401 1.468 . S
C353 H414 0.980 . S
C354 C355 1.349 . S
C354 C359 1.367 . S
C354 O401 1.408 . S
C355 C354 1.349 . S
C355 C356 1.407 . S
C355 H418 0.930 . S
C356 C355 1.407 . S
C356 C357 1.449 . S
C356 C360 1.535 . S
C357 C356 1.449 . S
C357 C358 1.384 . S
C357 C382 1.553 . S
C358 C357 1.384 . S
C358 C359 1.364 . S
C358 C361 1.450 . S
C359 C354 1.367 . S
C359 C358 1.364 . S
C359 H419 0.931 . S
C360 C356 1.535 . S
C360 H420 0.959 . S
C360 H421 0.961 . S
C360 H422 0.959 . S
C361 C358 1.450 . S
C361 H423 0.960 . S
C361 H424 0.960 . S
C361 H425 0.960 . S
C362 C363 1.309 . S
C362 C367 1.304 . S
C362 O400 1.435 . S
C363 C362 1.309 . S
C363 C364 1.476 . S
C363 H427 0.930 . S
C364 C363 1.476 . S
C364 C365 1.400 . S
C364 C368 1.567 . S
C365 C364 1.400 . S
C365 C366 1.373 . S
C365 C387 1.432 . S
C366 C365 1.373 . S
C366 C367 1.339 . S
C366 C369 1.530 . S
C367 C362 1.304 . S
C367 C366 1.339 . S
C367 H428 0.930 . S
C368 C364 1.567 . S
C368 H429 0.961 . S
C368 H430 0.960 . S
C368 H431 0.958 . S
C369 C366 1.530 . S
C369 H432 0.961 . S
C369 H433 0.960 . S
C369 H434 0.960 . S
C370 C371 1.530 . S
C370 H436 0.961 . S
C370 H437 0.961 . S
C370 H438 0.959 . S
C371 C370 1.530 . S
C371 O399 1.412 . S
C371 H435 0.980 . S
C372 C373 1.288 . S
C372 C377 1.377 . S
C372 O399 1.393 . S
C373 C372 1.288 . S
C373 C374 1.369 . S
C373 H439 0.932 . S
C374 C373 1.369 . S
C374 C375 1.398 . S
C374 C378 1.527 . S
C375 C374 1.398 . S
C375 C376 1.380 . S
C375 C389 1.497 . S
C376 C375 1.380 . S
C376 C377 1.383 . S
C376 C379 1.603 . S
C377 C372 1.377 . S
C377 C376 1.383 . S
C377 H440 0.929 . S
C378 C374 1.527 . S
C378 H441 0.961 . S
C378 H442 0.959 . S
C378 H443 0.959 . S
C379 C376 1.603 . S
C379 H444 0.960 . S
C379 H445 0.962 . S
C379 H446 0.961 . S
C380 C347 1.587 . S
C380 C381 1.360 . S
C380 C393 1.412 . S
C381 C380 1.360 . S
C381 C382 1.365 . S
C381 H447 0.929 . S
C382 C357 1.553 . S
C382 C381 1.365 . S
C382 C383 1.404 . S
C383 C382 1.404 . S
C383 C384 1.395 . S
C383 C394 1.451 . S
C384 C383 1.395 . S
C384 C385 1.322 . S
C384 H448 0.930 . S
C385 C384 1.322 . S
C385 C386 1.459 . S
C385 H449 0.929 . S
C386 C385 1.459 . S
C386 C387 1.445 1_554 S
C386 C395 1.395 . S
C387 C365 1.432 . S
C387 C386 1.445 1_556 S
C387 C388 1.370 . S
C388 C387 1.370 . S
C388 C389 1.438 . S
C388 H450 0.930 . S
C389 C375 1.497 . S
C389 C388 1.438 . S
C389 C390 1.360 1_556 S
C390 C389 1.360 1_554 S
C390 C391 1.401 . S
C390 C395 1.446 . S
C391 C390 1.401 . S
C391 C392 1.347 . S
C391 H451 0.929 . S
C392 C391 1.347 . S
C392 C393 1.455 . S
C392 H452 0.930 . S
C393 C380 1.412 . S
C393 C392 1.455 . S
C393 C394 1.331 . S
C394 C383 1.451 . S
C394 C393 1.331 . S
C394 C395 1.497 . S
C395 C386 1.395 . S
C395 C390 1.446 . S
C395 C394 1.497 . S
C396 C397 1.582 . S
C396 H453 0.962 . S
C396 H454 0.959 . S
C396 H455 0.958 . S
C397 C396 1.582 . S
C397 O400 1.458 . S
C397 H426 0.980 . S
O398 C343 1.426 . S
O398 C344 1.334 . S
O399 C371 1.412 . S
O399 C372 1.393 . S
O400 C362 1.435 . S
O400 C397 1.458 . S
O401 C353 1.468 . S
O401 C354 1.408 . S
H402 C343 0.980 . S
H403 C342 0.959 . S
H404 C342 0.959 . S
H405 C342 0.960 . S
H406 C345 0.929 . S
H407 C349 0.929 . S
H408 C350 0.959 . S
H409 C350 0.961 . S
H410 C350 0.961 . S
H411 C351 0.960 . S
H412 C351 0.960 . S
H413 C351 0.961 . S
H414 C353 0.980 . S
H415 C352 0.961 . S
H416 C352 0.960 . S
H417 C352 0.959 . S
H418 C355 0.930 . S
H419 C359 0.931 . S
H420 C360 0.959 . S
H421 C360 0.961 . S
H422 C360 0.959 . S
H423 C361 0.960 . S
H424 C361 0.960 . S
H425 C361 0.960 . S
H426 C397 0.980 . S
H427 C363 0.930 . S
H428 C367 0.930 . S
H429 C368 0.961 . S
H430 C368 0.960 . S
H431 C368 0.958 . S
H432 C369 0.961 . S
H433 C369 0.960 . S
H434 C369 0.960 . S
H435 C371 0.980 . S
H436 C370 0.961 . S
H437 C370 0.961 . S
H438 C370 0.959 . S
H439 C373 0.932 . S
H440 C377 0.929 . S
H441 C378 0.961 . S
H442 C378 0.959 . S
H443 C378 0.959 . S
H444 C379 0.960 . S
H445 C379 0.962 . S
H446 C379 0.961 . S
H447 C381 0.929 . S
H448 C384 0.930 . S
H449 C385 0.929 . S
H450 C388 0.930 . S
H451 C391 0.929 . S
H452 C392 0.930 . S
H453 C396 0.962 . S
H454 C396 0.959 . S
H455 C396 0.958 . S
C456 C457 1.560 . S
C456 H517 0.959 . S
C456 H518 0.959 . S
C456 H519 0.960 . S
C457 C456 1.560 . S
C457 O512 1.426 . S
C457 H516 0.980 . S
C458 C459 1.407 . S
C458 C463 1.418 . S
C458 O512 1.334 . S
C459 C458 1.407 . S
C459 C460 1.360 . S
C459 H520 0.929 . S
C460 C459 1.360 . S
C460 C461 1.401 . S
C460 C464 1.527 . S
C461 C460 1.401 . S
C461 C462 1.405 . S
C461 C494 1.587 . S
C462 C461 1.405 . S
C462 C463 1.332 . S
C462 C465 1.496 . S
C463 C458 1.418 . S
C463 C462 1.332 . S
C463 H521 0.929 . S
C464 C460 1.527 . S
C464 H522 0.959 . S
C464 H523 0.961 . S
C464 H524 0.961 . S
C465 C462 1.496 . S
C465 H525 0.960 . S
C465 H526 0.960 . S
C465 H527 0.961 . S
C466 C467 1.517 . S
C466 H529 0.961 . S
C466 H530 0.960 . S
C466 H531 0.959 . S
C467 C466 1.517 . S
C467 O515 1.468 . S
C467 H528 0.980 . S
C468 C469 1.349 . S
C468 C473 1.367 . S
C468 O515 1.408 . S
C469 C468 1.349 . S
C469 C470 1.407 . S
C469 H532 0.930 . S
C470 C469 1.407 . S
C470 C471 1.449 . S
C470 C474 1.535 . S
C471 C470 1.449 . S
C471 C472 1.384 . S
C471 C496 1.553 . S
C472 C471 1.384 . S
C472 C473 1.364 . S
C472 C475 1.450 . S
C473 C468 1.367 . S
C473 C472 1.364 . S
C473 H533 0.931 . S
C474 C470 1.535 . S
C474 H534 0.959 . S
C474 H535 0.961 . S
C474 H536 0.959 . S
C475 C472 1.450 . S
C475 H537 0.960 . S
C475 H538 0.960 . S
C475 H539 0.960 . S
C476 C477 1.309 . S
C476 C481 1.304 . S
C476 O514 1.435 . S
C477 C476 1.309 . S
C477 C478 1.476 . S
C477 H541 0.930 . S
C478 C477 1.476 . S
C478 C479 1.400 . S
C478 C482 1.567 . S
C479 C478 1.400 . S
C479 C480 1.373 . S
C479 C501 1.432 . S
C480 C479 1.373 . S
C480 C481 1.339 . S
C480 C483 1.530 . S
C481 C476 1.304 . S
C481 C480 1.339 . S
C481 H542 0.930 . S
C482 C478 1.567 . S
C482 H543 0.961 . S
C482 H544 0.960 . S
C482 H545 0.958 . S
C483 C480 1.530 . S
C483 H546 0.961 . S
C483 H547 0.960 . S
C483 H548 0.960 . S
C484 C485 1.530 . S
C484 H550 0.961 . S
C484 H551 0.961 . S
C484 H552 0.959 . S
C485 C484 1.530 . S
C485 O513 1.412 . S
C485 H549 0.980 . S
C486 C487 1.288 . S
C486 C491 1.377 . S
C486 O513 1.393 . S
C487 C486 1.288 . S
C487 C488 1.369 . S
C487 H553 0.932 . S
C488 C487 1.369 . S
C488 C489 1.398 . S
C488 C492 1.527 . S
C489 C488 1.398 . S
C489 C490 1.380 . S
C489 C503 1.497 . S
C490 C489 1.380 . S
C490 C491 1.383 . S
C490 C493 1.603 . S
C491 C486 1.377 . S
C491 C490 1.383 . S
C491 H554 0.929 . S
C492 C488 1.527 . S
C492 H555 0.961 . S
C492 H556 0.959 . S
C492 H557 0.959 . S
C493 C490 1.603 . S
C493 H558 0.960 . S
C493 H559 0.962 . S
C493 H560 0.961 . S
C494 C461 1.587 . S
C494 C495 1.360 . S
C494 C507 1.412 1_556 S
C495 C494 1.360 . S
C495 C496 1.365 . S
C495 H561 0.929 . S
C496 C471 1.553 . S
C496 C495 1.365 . S
C496 C497 1.404 1_556 S
C497 C496 1.404 1_554 S
C497 C498 1.395 . S
C497 C508 1.451 . S
C498 C497 1.395 . S
C498 C499 1.322 . S
C498 H562 0.930 . S
C499 C498 1.322 . S
C499 C500 1.459 . S
C499 H563 0.929 . S
C500 C499 1.459 . S
C500 C501 1.445 . S
C500 C509 1.395 . S
C501 C479 1.432 . S
C501 C500 1.445 . S
C501 C502 1.370 . S
C502 C501 1.370 . S
C502 C503 1.438 . S
C502 H564 0.930 . S
C503 C489 1.497 . S
C503 C502 1.438 . S
C503 C504 1.360 . S
C504 C503 1.360 . S
C504 C505 1.401 . S
C504 C509 1.446 . S
C505 C504 1.401 . S
C505 C506 1.347 . S
C505 H565 0.929 . S
C506 C505 1.347 . S
C506 C507 1.455 . S
C506 H566 0.930 . S
C507 C494 1.412 1_554 S
C507 C506 1.455 . S
C507 C508 1.331 . S
C508 C497 1.451 . S
C508 C507 1.331 . S
C508 C509 1.497 . S
C509 C500 1.395 . S
C509 C504 1.446 . S
C509 C508 1.497 . S
C510 C511 1.582 . S
C510 H567 0.962 . S
C510 H568 0.959 . S
C510 H569 0.958 . S
C511 C510 1.582 . S
C511 O514 1.458 . S
C511 H540 0.980 . S
O512 C457 1.426 . S
O512 C458 1.334 . S
O513 C485 1.412 . S
O513 C486 1.393 . S
O514 C476 1.435 . S
O514 C511 1.458 . S
O515 C467 1.468 . S
O515 C468 1.408 . S
H516 C457 0.980 . S
H517 C456 0.959 . S
H518 C456 0.959 . S
H519 C456 0.960 . S
H520 C459 0.929 . S
H521 C463 0.929 . S
H522 C464 0.959 . S
H523 C464 0.961 . S
H524 C464 0.961 . S
H525 C465 0.960 . S
H526 C465 0.960 . S
H527 C465 0.961 . S
H528 C467 0.980 . S
H529 C466 0.961 . S
H530 C466 0.960 . S
H531 C466 0.959 . S
H532 C469 0.930 . S
H533 C473 0.931 . S
H534 C474 0.959 . S
H535 C474 0.961 . S
H536 C474 0.959 . S
H537 C475 0.960 . S
H538 C475 0.960 . S
H539 C475 0.960 . S
H540 C511 0.980 . S
H541 C477 0.930 . S
H542 C481 0.930 . S
H543 C482 0.961 . S
H544 C482 0.960 . S
H545 C482 0.958 . S
H546 C483 0.961 . S
H547 C483 0.960 . S
H548 C483 0.960 . S
H549 C485 0.980 . S
H550 C484 0.961 . S
H551 C484 0.961 . S
H552 C484 0.959 . S
H553 C487 0.932 . S
H554 C491 0.929 . S
H555 C492 0.961 . S
H556 C492 0.959 . S
H557 C492 0.959 . S
H558 C493 0.960 . S
H559 C493 0.962 . S
H560 C493 0.961 . S
H561 C495 0.929 . S
H562 C498 0.930 . S
H563 C499 0.929 . S
H564 C502 0.930 . S
H565 C505 0.929 . S
H566 C506 0.930 . S
H567 C510 0.962 . S
H568 C510 0.959 . S
H569 C510 0.958 . S
C570 C571 1.560 . S
C570 H631 0.959 . S
C570 H632 0.959 . S
C570 H633 0.960 . S
C571 C570 1.560 . S
C571 O626 1.426 . S
C571 H630 0.980 . S
C572 C573 1.407 . S
C572 C577 1.418 . S
C572 O626 1.334 . S
C573 C572 1.407 . S
C573 C574 1.360 . S
C573 H634 0.929 . S
C574 C573 1.360 . S
C574 C575 1.401 . S
C574 C578 1.527 . S
C575 C574 1.401 . S
C575 C576 1.405 . S
C575 C608 1.587 . S
C576 C575 1.405 . S
C576 C577 1.332 . S
C576 C579 1.496 . S
C577 C572 1.418 . S
C577 C576 1.332 . S
C577 H635 0.929 . S
C578 C574 1.527 . S
C578 H636 0.959 . S
C578 H637 0.961 . S
C578 H638 0.961 . S
C579 C576 1.496 . S
C579 H639 0.960 . S
C579 H640 0.960 . S
C579 H641 0.961 . S
C580 C581 1.517 . S
C580 H643 0.961 . S
C580 H644 0.960 . S
C580 H645 0.959 . S
C581 C580 1.517 . S
C581 O629 1.468 . S
C581 H642 0.980 . S
C582 C583 1.349 . S
C582 C587 1.367 . S
C582 O629 1.408 . S
C583 C582 1.349 . S
C583 C584 1.407 . S
C583 H646 0.930 . S
C584 C583 1.407 . S
C584 C585 1.449 . S
C584 C588 1.535 . S
C585 C584 1.449 . S
C585 C586 1.384 . S
C585 C610 1.553 . S
C586 C585 1.384 . S
C586 C587 1.364 . S
C586 C589 1.450 . S
C587 C582 1.367 . S
C587 C586 1.364 . S
C587 H647 0.931 . S
C588 C584 1.535 . S
C588 H648 0.959 . S
C588 H649 0.961 . S
C588 H650 0.959 . S
C589 C586 1.450 . S
C589 H651 0.960 . S
C589 H652 0.960 . S
C589 H653 0.960 . S
C590 C591 1.309 . S
C590 C595 1.304 . S
C590 O628 1.435 1_554 S
C591 C590 1.309 . S
C591 C592 1.476 . S
C591 H655 0.930 . S
C592 C591 1.476 . S
C592 C593 1.400 . S
C592 C596 1.567 . S
C593 C592 1.400 . S
C593 C594 1.373 . S
C593 C615 1.432 . S
C594 C593 1.373 . S
C594 C595 1.339 . S
C594 C597 1.530 . S
C595 C590 1.304 . S
C595 C594 1.339 . S
C595 H656 0.930 . S
C596 C592 1.567 . S
C596 H657 0.961 . S
C596 H658 0.960 . S
C596 H659 0.958 . S
C597 C594 1.530 . S
C597 H660 0.961 . S
C597 H661 0.960 . S
C597 H662 0.960 . S
C598 C599 1.530 . S
C598 H664 0.961 . S
C598 H665 0.961 . S
C598 H666 0.959 . S
C599 C598 1.530 . S
C599 O627 1.412 . S
C599 H663 0.980 . S
C600 C601 1.288 1_556 S
C600 C605 1.377 1_556 S
C600 O627 1.393 . S
C601 C600 1.288 1_554 S
C601 C602 1.369 . S
C601 H667 0.932 1_554 S
C602 C601 1.369 . S
C602 C603 1.398 . S
C602 C606 1.527 . S
C603 C602 1.398 . S
C603 C604 1.380 . S
C603 C617 1.497 . S
C604 C603 1.380 . S
C604 C605 1.383 . S
C604 C607 1.603 . S
C605 C600 1.377 1_554 S
C605 C604 1.383 . S
C605 H668 0.929 . S
C606 C602 1.527 . S
C606 H669 0.961 . S
C606 H670 0.959 . S
C606 H671 0.959 . S
C607 C604 1.603 . S
C607 H672 0.960 . S
C607 H673 0.962 . S
C607 H674 0.961 . S
C608 C575 1.587 . S
C608 C609 1.360 . S
C608 C621 1.412 . S
C609 C608 1.360 . S
C609 C610 1.365 . S
C609 H675 0.929 . S
C610 C585 1.553 . S
C610 C609 1.365 . S
C610 C611 1.404 . S
C611 C610 1.404 . S
C611 C612 1.395 . S
C611 C622 1.451 . S
C612 C611 1.395 . S
C612 C613 1.322 . S
C612 H676 0.930 . S
C613 C612 1.322 . S
C613 C614 1.459 . S
C613 H677 0.929 . S
C614 C613 1.459 . S
C614 C615 1.445 . S
C614 C623 1.395 . S
C615 C593 1.432 . S
C615 C614 1.445 . S
C615 C616 1.370 . S
C616 C615 1.370 . S
C616 C617 1.438 . S
C616 H678 0.930 . S
C617 C603 1.497 . S
C617 C616 1.438 . S
C617 C618 1.360 . S
C618 C617 1.360 . S
C618 C619 1.401 . S
C618 C623 1.446 . S
C619 C618 1.401 . S
C619 C620 1.347 . S
C619 H679 0.929 . S
C620 C619 1.347 . S
C620 C621 1.455 . S
C620 H680 0.930 . S
C621 C608 1.412 . S
C621 C620 1.455 . S
C621 C622 1.331 . S
C622 C611 1.451 . S
C622 C621 1.331 . S
C622 C623 1.497 . S
C623 C614 1.395 . S
C623 C618 1.446 . S
C623 C622 1.497 . S
C624 C625 1.582 . S
C624 H681 0.962 . S
C624 H682 0.959 . S
C624 H683 0.958 . S
C625 C624 1.582 . S
C625 O628 1.458 . S
C625 H654 0.980 1_556 S
O626 C571 1.426 . S
O626 C572 1.334 . S
O627 C599 1.412 . S
O627 C600 1.393 . S
O628 C590 1.435 1_556 S
O628 C625 1.458 . S
O629 C581 1.468 . S
O629 C582 1.408 . S
H630 C571 0.980 . S
H631 C570 0.959 . S
H632 C570 0.959 . S
H633 C570 0.960 . S
H634 C573 0.929 . S
H635 C577 0.929 . S
H636 C578 0.959 . S
H637 C578 0.961 . S
H638 C578 0.961 . S
H639 C579 0.960 . S
H640 C579 0.960 . S
H641 C579 0.961 . S
H642 C581 0.980 . S
H643 C580 0.961 . S
H644 C580 0.960 . S
H645 C580 0.959 . S
H646 C583 0.930 . S
H647 C587 0.931 . S
H648 C588 0.959 . S
H649 C588 0.961 . S
H650 C588 0.959 . S
H651 C589 0.960 . S
H652 C589 0.960 . S
H653 C589 0.960 . S
H654 C625 0.980 1_554 S
H655 C591 0.930 . S
H656 C595 0.930 . S
H657 C596 0.961 . S
H658 C596 0.960 . S
H659 C596 0.958 . S
H660 C597 0.961 . S
H661 C597 0.960 . S
H662 C597 0.960 . S
H663 C599 0.980 . S
H664 C598 0.961 . S
H665 C598 0.961 . S
H666 C598 0.959 . S
H667 C601 0.932 1_556 S
H668 C605 0.929 . S
H669 C606 0.961 . S
H670 C606 0.959 . S
H671 C606 0.959 . S
H672 C607 0.960 . S
H673 C607 0.962 . S
H674 C607 0.961 . S
H675 C609 0.929 . S
H676 C612 0.930 . S
H677 C613 0.929 . S
H678 C616 0.930 . S
H679 C619 0.929 . S
H680 C620 0.930 . S
H681 C624 0.962 . S
H682 C624 0.959 . S
H683 C624 0.958 . S
C684 O696 1.241 . S
C684 O697 1.280 . S
C685 O698 1.277 . S
C685 O699 1.245 . S
C686 O710 1.247 . S
C686 O712 1.289 . S
Mg687 O688 1.926 . S
Mg687 O697 1.984 1_455 S
Mg687 O699 1.988 . S
Mg687 O700 2.061 1_455 S
O688 Mg687 1.926 . S
O688 Mg689 1.986 . S
O688 Mg690 1.917 . S
Mg689 O688 1.986 . S
Mg689 O696 2.042 1_455 S
Mg689 O698 2.041 . S
Mg689 O704 2.038 1_455 S
Mg689 O712 2.238 . S
Mg690 O688 1.917 . S
Mg690 O691 1.917 . S
Mg690 O701 2.106 1_455 S
Mg690 O703 2.079 1_455 S
Mg690 O712 2.106 . S
Mg690 O713 2.079 . S
O691 Mg690 1.917 . S
O691 Mg692 1.926 . S
O691 Mg693 1.986 . S
Mg692 O691 1.926 . S
Mg692 O706 1.984 . S
Mg692 O709 1.988 1_455 S
Mg692 O710 2.061 . S
Mg693 O691 1.986 . S
Mg693 O701 2.238 1_455 S
Mg693 O705 2.042 . S
Mg693 O707 2.041 1_455 S
Mg693 O714 2.038 . S
C694 O700 1.247 . S
C694 O701 1.289 . S
C695 O713 1.245 . S
C695 O714 1.274 . S
O696 C684 1.241 . S
O696 Mg689 2.042 1_655 S
O697 C684 1.280 . S
O697 Mg687 1.984 1_655 S
O698 C685 1.277 . S
O698 Mg689 2.041 . S
O699 C685 1.245 . S
O699 Mg687 1.988 . S
O700 Mg687 2.061 1_655 S
O700 C694 1.247 . S
O701 Mg690 2.106 1_655 S
O701 Mg693 2.238 1_655 S
O701 C694 1.289 . S
C702 O703 1.245 . S
C702 O704 1.274 . S
O703 Mg690 2.079 1_655 S
O703 C702 1.245 . S
O704 Mg689 2.038 1_655 S
O704 C702 1.274 . S
O705 Mg693 2.042 . S
O705 C708 1.241 . S
O706 Mg692 1.984 . S
O706 C708 1.280 . S
O707 Mg693 2.041 1_655 S
O707 C711 1.277 . S
C708 O705 1.241 . S
C708 O706 1.280 . S
O709 Mg692 1.988 1_655 S
O709 C711 1.245 . S
O710 C686 1.247 . S
O710 Mg692 2.061 . S
C711 O707 1.277 . S
C711 O709 1.245 . S
O712 C686 1.289 . S
O712 Mg689 2.238 . S
O712 Mg690 2.106 . S
O713 Mg690 2.079 . S
O713 C695 1.245 . S
O714 Mg693 2.038 . S
O714 C695 1.274 . S
C715 O727 1.241 . S
C715 O728 1.280 . S
C716 O729 1.277 . S
C716 O730 1.245 . S
C717 O741 1.247 . S
C717 O743 1.289 . S
Mg718 O719 1.926 . S
Mg718 O728 1.984 . S
Mg718 O730 1.988 1_545 S
Mg718 O731 2.061 . S
O719 Mg718 1.926 . S
O719 Mg720 1.986 . S
O719 Mg721 1.917 . S
Mg720 O719 1.986 . S
Mg720 O727 2.042 . S
Mg720 O729 2.041 1_545 S
Mg720 O735 2.038 . S
Mg720 O743 2.238 1_545 S
Mg721 O719 1.917 . S
Mg721 O722 1.911 1_545 S
Mg721 O732 2.106 . S
Mg721 O734 2.079 . S
Mg721 O743 2.106 1_545 S
Mg721 O744 2.079 1_545 S
O722 Mg721 1.911 1_565 S
O722 Mg723 1.932 . S
O722 Mg724 1.981 1_565 S
Mg723 O722 1.932 . S
Mg723 O737 1.984 . S
Mg723 O740 1.988 1_565 S
Mg723 O741 2.061 . S
Mg724 O722 1.981 1_545 S
Mg724 O732 2.238 . S
Mg724 O736 2.042 1_545 S
Mg724 O738 2.041 . S
Mg724 O745 2.038 1_545 S
C725 O731 1.247 . S
C725 O732 1.289 . S
C726 O744 1.245 . S
C726 O745 1.274 . S
O727 C715 1.241 . S
O727 Mg720 2.042 . S
O728 C715 1.280 . S
O728 Mg718 1.984 . S
O729 C716 1.277 . S
O729 Mg720 2.041 1_565 S
O730 C716 1.245 . S
O730 Mg718 1.988 1_565 S
O731 Mg718 2.061 . S
O731 C725 1.247 . S
O732 Mg721 2.106 . S
O732 Mg724 2.238 . S
O732 C725 1.289 . S
C733 O734 1.245 . S
C733 O735 1.274 . S
O734 Mg721 2.079 . S
O734 C733 1.245 . S
O735 Mg720 2.038 . S
O735 C733 1.274 . S
O736 Mg724 2.042 1_565 S
O736 C739 1.241 . S
O737 Mg723 1.984 . S
O737 C739 1.280 . S
O738 Mg724 2.041 . S
O738 C742 1.277 . S
C739 O736 1.241 . S
C739 O737 1.280 . S
O740 Mg723 1.988 1_545 S
O740 C742 1.245 . S
O741 C717 1.247 . S
O741 Mg723 2.061 . S
C742 O738 1.277 . S
C742 O740 1.245 . S
O743 C717 1.289 . S
O743 Mg720 2.238 1_565 S
O743 Mg721 2.106 1_565 S
O744 Mg721 2.079 1_565 S
O744 C726 1.245 . S
O745 Mg724 2.038 1_565 S
O745 C726 1.274 . S
C746 O758 1.241 . S
C746 O759 1.280 . S
C747 O760 1.277 . S
C747 O761 1.245 . S
C748 O772 1.247 . S
C748 O774 1.289 . S
Mg749 O750 1.926 . S
Mg749 O759 1.984 . S
Mg749 O761 1.988 . S
Mg749 O762 2.061 . S
O750 Mg749 1.926 . S
O750 Mg751 1.986 . S
O750 Mg752 1.917 . S
Mg751 O750 1.986 . S
Mg751 O758 2.042 . S
Mg751 O760 2.041 . S
Mg751 O766 2.038 . S
Mg751 O774 2.238 . S
Mg752 O750 1.917 . S
Mg752 O753 1.917 . S
Mg752 O763 2.106 . S
Mg752 O765 2.079 . S
Mg752 O774 2.106 . S
Mg752 O775 2.079 . S
O753 Mg752 1.917 . S
O753 Mg754 1.926 . S
O753 Mg755 1.986 . S
Mg754 O753 1.926 . S
Mg754 O768 1.984 . S
Mg754 O771 1.988 . S
Mg754 O772 2.061 . S
Mg755 O753 1.986 . S
Mg755 O763 2.238 . S
Mg755 O767 2.042 . S
Mg755 O769 2.041 . S
Mg755 O776 2.038 . S
C756 O762 1.247 . S
C756 O763 1.289 . S
C757 O775 1.245 . S
C757 O776 1.274 . S
O758 C746 1.241 . S
O758 Mg751 2.042 . S
O759 C746 1.280 . S
O759 Mg749 1.984 . S
O760 C747 1.277 . S
O760 Mg751 2.041 . S
O761 C747 1.245 . S
O761 Mg749 1.988 . S
O762 Mg749 2.061 . S
O762 C756 1.247 . S
O763 Mg752 2.106 . S
O763 Mg755 2.238 . S
O763 C756 1.289 . S
C764 O765 1.245 . S
C764 O766 1.274 . S
O765 Mg752 2.079 . S
O765 C764 1.245 . S
O766 Mg751 2.038 . S
O766 C764 1.274 . S
O767 Mg755 2.042 . S
O767 C770 1.241 . S
O768 Mg754 1.984 . S
O768 C770 1.280 . S
O769 Mg755 2.041 . S
O769 C773 1.277 . S
C770 O767 1.241 . S
C770 O768 1.280 . S
O771 Mg754 1.988 . S
O771 C773 1.245 . S
O772 C748 1.247 . S
O772 Mg754 2.061 . S
C773 O769 1.277 . S
C773 O771 1.245 . S
O774 C748 1.289 . S
O774 Mg751 2.238 . S
O774 Mg752 2.106 . S
O775 Mg752 2.079 . S
O775 C757 1.245 . S
O776 Mg755 2.038 . S
O776 C757 1.274 . S
C777 C778 1.387 . S
C777 H781 0.950 . S
C777 C786 1.390 . S
C778 C777 1.387 . S
C778 C780 1.387 . S
H779 C786 0.950 . S
C780 C778 1.387 . S
C780 C782 1.390 . S
C780 H784 0.950 . S
H781 C777 0.950 . S
C782 C780 1.390 . S
C782 C783 1.387 . S
C782 H785 0.950 . S
C783 C782 1.387 . S
C783 C786 1.387 . S
H784 C780 0.950 . S
H785 C782 0.950 . S
C786 C777 1.390 . S
C786 H779 0.950 . S
C786 C783 1.387 . S
C787 C788 1.387 . S
C787 H791 0.950 . S
C787 C796 1.390 . S
C788 C787 1.387 . S
C788 C790 1.387 . S
H789 C796 0.950 . S
C790 C788 1.387 . S
C790 C792 1.390 . S
C790 H794 0.950 . S
H791 C787 0.950 . S
C792 C790 1.390 . S
C792 C793 1.387 . S
C792 H795 0.950 . S
C793 C792 1.387 . S
C793 C796 1.387 . S
H794 C790 0.950 . S
H795 C792 0.950 . S
C796 C787 1.390 . S
C796 H789 0.950 . S
C796 C793 1.387 . S
C797 C798 1.387 . S
C797 H801 0.950 . S
C797 C806 1.390 . S
C798 C797 1.387 . S
C798 C800 1.387 . S
H799 C806 0.950 . S
C800 C798 1.387 . S
C800 C802 1.390 . S
C800 H804 0.950 . S
H801 C797 0.950 . S
C802 C800 1.390 . S
C802 C803 1.387 . S
C802 H805 0.950 . S
C803 C802 1.387 . S
C803 C806 1.387 . S
H804 C800 0.950 . S
H805 C802 0.950 . S
C806 C797 1.390 . S
C806 H799 0.950 . S
C806 C803 1.387 . S
C807 C808 1.387 . S
C807 H811 0.950 . S
C807 C816 1.390 . S
C808 C807 1.387 . S
C808 C810 1.387 . S
H809 C816 0.950 . S
C810 C808 1.387 . S
C810 C812 1.390 . S
C810 H814 0.950 . S
H811 C807 0.950 . S
C812 C810 1.390 . S
C812 C813 1.387 . S
C812 H815 0.950 . S
C813 C812 1.387 . S
C813 C816 1.387 . S
H814 C810 0.950 . S
H815 C812 0.950 . S
C816 C807 1.390 . S
C816 H809 0.950 . S
C816 C813 1.387 . S
C817 C818 1.387 . S
C817 H821 0.950 . S
C817 C826 1.390 . S
C818 C817 1.387 . S
C818 C820 1.387 . S
H819 C826 0.950 . S
C820 C818 1.387 . S
C820 C822 1.390 . S
C820 H824 0.950 . S
H821 C817 0.950 . S
C822 C820 1.390 . S
C822 C823 1.387 . S
C822 H825 0.950 . S
C823 C822 1.387 . S
C823 C826 1.387 . S
H824 C820 0.950 . S
H825 C822 0.950 . S
C826 C817 1.390 . S
C826 H819 0.950 . S
C826 C823 1.387 . S
C827 C828 1.387 . S
C827 H831 0.950 . S
C827 C836 1.390 . S
C828 C827 1.387 . S
C828 C830 1.387 . S
H829 C836 0.950 . S
C830 C828 1.387 . S
C830 C832 1.390 . S
C830 H834 0.950 . S
H831 C827 0.950 . S
C832 C830 1.390 . S
C832 C833 1.387 . S
C832 H835 0.950 . S
C833 C832 1.387 . S
C833 C836 1.387 . S
H834 C830 0.950 . S
H835 C832 0.950 . S
C836 C827 1.390 . S
C836 H829 0.950 . S
C836 C833 1.387 . S
C837 C838 1.387 . S
C837 H841 0.950 . S
C837 C846 1.390 . S
C838 C837 1.387 . S
C838 C840 1.387 . S
H839 C846 0.950 . S
C840 C838 1.387 . S
C840 C842 1.390 . S
C840 H844 0.950 . S
H841 C837 0.950 . S
C842 C840 1.390 . S
C842 C843 1.387 . S
C842 H845 0.950 . S
C843 C842 1.387 . S
C843 C846 1.387 . S
H844 C840 0.950 . S
H845 C842 0.950 . S
C846 C837 1.390 . S
C846 H839 0.950 . S
C846 C843 1.387 . S
C847 C848 1.387 . S
C847 H851 0.950 . S
C847 C856 1.390 . S
C848 C847 1.387 . S
C848 C850 1.387 . S
H849 C856 0.950 . S
C850 C848 1.387 . S
C850 C852 1.390 . S
C850 H854 0.950 . S
H851 C847 0.950 . S
C852 C850 1.390 . S
C852 C853 1.387 . S
C852 H855 0.950 . S
C853 C852 1.387 . S
C853 C856 1.387 . S
H854 C850 0.950 . S
H855 C852 0.950 . S
C856 C847 1.390 . S
C856 H849 0.950 . S
C856 C853 1.387 . S
C857 C858 1.387 . S
C857 H861 0.950 . S
C857 C866 1.390 . S
C858 C857 1.387 . S
C858 C860 1.387 . S
H859 C866 0.950 . S
C860 C858 1.387 . S
C860 C862 1.390 . S
C860 H864 0.950 . S
H861 C857 0.950 . S
C862 C860 1.390 . S
C862 C863 1.387 . S
C862 H865 0.950 . S
C863 C862 1.387 . S
C863 C866 1.387 . S
H864 C860 0.950 . S
H865 C862 0.950 . S
C866 C857 1.390 . S
C866 H859 0.950 . S
C866 C863 1.387 . S
C867 C868 1.387 . S
C867 H871 0.950 . S
C867 C876 1.390 . S
C868 C867 1.387 . S
C868 C870 1.387 . S
H869 C876 0.950 . S
C870 C868 1.387 . S
C870 C872 1.390 . S
C870 H874 0.950 . S
H871 C867 0.950 . S
C872 C870 1.390 . S
C872 C873 1.387 . S
C872 H875 0.950 . S
C873 C872 1.387 . S
C873 C876 1.387 . S
H874 C870 0.950 . S
H875 C872 0.950 . S
C876 C867 1.390 . S
C876 H869 0.950 . S
C876 C873 1.387 . S
C877 C878 1.387 . S
C877 H881 0.950 . S
C877 C886 1.390 . S
C878 C877 1.387 . S
C878 C880 1.387 . S
H879 C886 0.950 . S
C880 C878 1.387 . S
C880 C882 1.390 . S
C880 H884 0.950 . S
H881 C877 0.950 . S
C882 C880 1.390 . S
C882 C883 1.387 . S
C882 H885 0.950 . S
C883 C882 1.387 . S
C883 C886 1.387 . S
H884 C880 0.950 . S
H885 C882 0.950 . S
C886 C877 1.390 . S
C886 H879 0.950 . S
C886 C883 1.387 . S
C887 C888 1.387 . S
C887 H891 0.950 . S
C887 C896 1.390 . S
C888 C887 1.387 . S
C888 C890 1.387 . S
H889 C896 0.950 . S
C890 C888 1.387 . S
C890 C892 1.390 . S
C890 H894 0.950 . S
H891 C887 0.950 . S
C892 C890 1.390 . S
C892 C893 1.387 . S
C892 H895 0.950 . S
C893 C892 1.387 . S
C893 C896 1.387 . S
H894 C890 0.950 . S
H895 C892 0.950 . S
C896 C887 1.390 . S
C896 H889 0.950 . S
C896 C893 1.387 . S
C897 C898 1.387 . S
C897 H901 0.950 . S
C897 C906 1.390 . S
C898 C897 1.387 . S
C898 C900 1.387 . S
H899 C906 0.950 . S
C900 C898 1.387 . S
C900 C902 1.390 . S
C900 H904 0.950 . S
H901 C897 0.950 . S
C902 C900 1.390 . S
C902 C903 1.387 . S
C902 H905 0.950 . S
C903 C902 1.387 . S
C903 C906 1.387 . S
H904 C900 0.950 . S
H905 C902 0.950 . S
C906 C897 1.390 . S
C906 H899 0.950 . S
C906 C903 1.387 . S
C907 C908 1.387 . S
C907 H911 0.950 . S
C907 C916 1.390 . S
C908 C907 1.387 . S
C908 C910 1.387 . S
H909 C916 0.950 . S
C910 C908 1.387 . S
C910 C912 1.390 . S
C910 H914 0.950 . S
H911 C907 0.950 . S
C912 C910 1.390 . S
C912 C913 1.387 . S
C912 H915 0.950 . S
C913 C912 1.387 . S
C913 C916 1.387 . S
H914 C910 0.950 . S
H915 C912 0.950 . S
C916 C907 1.390 . S
C916 H909 0.950 . S
C916 C913 1.387 . S
C917 C918 1.387 . S
C917 H921 0.950 . S
C917 C926 1.390 . S
C918 C917 1.387 . S
C918 C920 1.387 . S
H919 C926 0.950 . S
C920 C918 1.387 . S
C920 C922 1.390 . S
C920 H924 0.950 . S
H921 C917 0.950 . S
C922 C920 1.390 . S
C922 C923 1.387 . S
C922 H925 0.950 . S
C923 C922 1.387 . S
C923 C926 1.387 . S
H924 C920 0.950 . S
H925 C922 0.950 . S
C926 C917 1.390 . S
C926 H919 0.950 . S
C926 C923 1.387 . S
C927 C928 1.387 . S
C927 H931 0.950 . S
C927 C936 1.390 . S
C928 C927 1.387 . S
C928 C930 1.387 . S
H929 C936 0.950 . S
C930 C928 1.387 . S
C930 C932 1.390 . S
C930 H934 0.950 . S
H931 C927 0.950 . S
C932 C930 1.390 . S
C932 C933 1.387 . S
C932 H935 0.950 . S
C933 C932 1.387 . S
C933 C936 1.387 . S
H934 C930 0.950 . S
H935 C932 0.950 . S
C936 C927 1.390 . S
C936 H929 0.950 . S
C936 C933 1.387 . S
C937 C938 1.387 . S
C937 H941 0.950 . S
C937 C946 1.390 . S
C938 C937 1.387 . S
C938 C940 1.387 . S
H939 C946 0.950 . S
C940 C938 1.387 . S
C940 C942 1.390 . S
C940 H944 0.950 . S
H941 C937 0.950 . S
C942 C940 1.390 . S
C942 C943 1.387 . S
C942 H945 0.950 . S
C943 C942 1.387 . S
C943 C946 1.387 . S
H944 C940 0.950 . S
H945 C942 0.950 . S
C946 C937 1.390 . S
C946 H939 0.950 . S
C946 C943 1.387 . S
C947 C948 1.387 . S
C947 H951 0.950 . S
C947 C956 1.390 . S
C948 C947 1.387 . S
C948 C950 1.387 . S
H949 C956 0.950 . S
C950 C948 1.387 . S
C950 C952 1.390 . S
C950 H954 0.950 . S
H951 C947 0.950 . S
C952 C950 1.390 . S
C952 C953 1.387 . S
C952 H955 0.950 . S
C953 C952 1.387 . S
C953 C956 1.387 . S
H954 C950 0.950 . S
H955 C952 0.950 . S
C956 C947 1.390 . S
C956 H949 0.950 . S
C956 C953 1.387 . S
C957 C958 1.387 . S
C957 H961 0.950 . S
C957 C966 1.390 . S
C958 C957 1.387 . S
C958 C960 1.387 . S
H959 C966 0.950 . S
C960 C958 1.387 . S
C960 C962 1.390 . S
C960 H964 0.950 . S
H961 C957 0.950 . S
C962 C960 1.390 . S
C962 C963 1.387 . S
C962 H965 0.950 . S
C963 C962 1.387 . S
C963 C966 1.387 . S
H964 C960 0.950 . S
H965 C962 0.950 . S
C966 C957 1.390 . S
C966 H959 0.950 . S
C966 C963 1.387 . S
C967 C968 1.387 . S
C967 H971 0.950 . S
C967 C976 1.390 . S
C968 C967 1.387 . S
C968 C970 1.387 . S
H969 C976 0.950 . S
C970 C968 1.387 . S
C970 C972 1.390 . S
C970 H974 0.950 . S
H971 C967 0.950 . S
C972 C970 1.390 . S
C972 C973 1.387 . S
C972 H975 0.950 . S
C973 C972 1.387 . S
C973 C976 1.387 . S
H974 C970 0.950 . S
H975 C972 0.950 . S
C976 C967 1.390 . S
C976 H969 0.950 . S
C976 C973 1.387 . S
C977 C978 1.387 . S
C977 H981 0.950 . S
C977 C986 1.390 . S
C978 C977 1.387 . S
C978 C980 1.387 . S
H979 C986 0.950 . S
C980 C978 1.387 . S
C980 C982 1.390 . S
C980 H984 0.950 . S
H981 C977 0.950 . S
C982 C980 1.390 . S
C982 C983 1.387 . S
C982 H985 0.950 . S
C983 C982 1.387 . S
C983 C986 1.387 . S
H984 C980 0.950 . S
H985 C982 0.950 . S
C986 C977 1.390 . S
C986 H979 0.950 . S
C986 C983 1.387 . S
C987 C988 1.387 . S
C987 H991 0.950 . S
C987 C996 1.390 . S
C988 C987 1.387 . S
C988 C990 1.387 . S
H989 C996 0.950 . S
C990 C988 1.387 . S
C990 C992 1.390 . S
C990 H994 0.950 . S
H991 C987 0.950 . S
C992 C990 1.390 . S
C992 C993 1.387 . S
C992 H995 0.950 . S
C993 C992 1.387 . S
C993 C996 1.387 . S
H994 C990 0.950 . S
H995 C992 0.950 . S
C996 C987 1.390 . S
C996 H989 0.950 . S
C996 C993 1.387 . S
C997 C998 1.387 . S
C997 H1001 0.950 . S
C997 C1006 1.390 . S
C998 C997 1.387 . S
C998 C1000 1.387 . S
H999 C1006 0.950 . S
C1000 C998 1.387 . S
C1000 C1002 1.390 . S
C1000 H1004 0.950 . S
H1001 C997 0.950 . S
C1002 C1000 1.390 . S
C1002 C1003 1.387 . S
C1002 H1005 0.950 . S
C1003 C1002 1.387 . S
C1003 C1006 1.387 . S
H1004 C1000 0.950 . S
H1005 C1002 0.950 . S
C1006 C997 1.390 . S
C1006 H999 0.950 . S
C1006 C1003 1.387 . S
C1007 C1008 1.387 . S
C1007 H1011 0.950 . S
C1007 C1016 1.390 . S
C1008 C1007 1.387 . S
C1008 C1010 1.387 . S
H1009 C1016 0.950 . S
C1010 C1008 1.387 . S
C1010 C1012 1.390 . S
C1010 H1014 0.950 . S
H1011 C1007 0.950 . S
C1012 C1010 1.390 . S
C1012 C1013 1.387 . S
C1012 H1015 0.950 . S
C1013 C1012 1.387 . S
C1013 C1016 1.387 . S
H1014 C1010 0.950 . S
H1015 C1012 0.950 . S
C1016 C1007 1.390 . S
C1016 H1009 0.950 . S
C1016 C1013 1.387 . S
C778 C11 1.699 . S
C783 C695 1.994 . S
C788 C125 1.267 . S
C793 C742 1.648 . S
C803 C746 1.869 . S
C798 C239 1.383 . S
C813 C711 1.420 . S
C808 C343 1.256 . S
C818 C485 1.407 . S
C823 C726 1.937 . S
C833 C748 1.091 . S
C828 C571 1.209 . S
C843 C717 1.613 . S
C838 C257 1.057 . S
C848 C397 0.899 . S
C853 C757 1.633 . S
C863 C686 1.536 . S
C858 C467 1.329 . S
C868 C625 1.031 . S
C873 C715 1.492 . S
C878 C29 1.514 . S
C883 C773 1.941 . S
C893 C684 1.599 . S
C888 C143 1.079 . S
C903 C702 1.944 . S
C898 C371 1.707 . S
C913 C716 1.458 . S
C908 C457 1.180 . S
C923 C770 1.744 . S
C918 C599 1.568 . S
C933 C685 1.516 . S
C928 C55 1.303 . S
C943 C733 1.838 . S
C938 C169 1.723 . S
C948 C283 0.923 . S
C953 C756 1.096 . S
C963 C725 1.443 . S
C958 C581 0.977 . S
C973 C764 1.380 . S
C968 C1 1.095 . S
C983 C694 1.279 . S
C978 C115 1.040 . S
C993 C739 1.228 . S
C988 C229 0.957 . S
C998 C353 1.099 . S
C1003 C747 1.896 . S
C1008 C511 1.286 . S
C1013 C708 1.503 . S
