# Generated by pormake.
# Topology zzz, (3,6)-cn, num edge types: 1
# Building blocks:
#     Node 0, Type 0, BuildingBlock: QEWDON_clean_linker_0, # of connection points: 3
#     Node 1, Type 0, BuildingBlock: QEWDON_clean_linker_0, # of connection points: 3
#     Node 2, Type 0, BuildingBlock: QEWDON_clean_linker_0, # of connection points: 3
#     Node 3, Type 0, BuildingBlock: QEWDON_clean_linker_0, # of connection points: 3
#     Node 4, Type 0, BuildingBlock: QEWDON_clean_linker_0, # of connection points: 3
#     Node 5, Type 0, BuildingBlock: QEWDON_clean_linker_0, # of connection points: 3
#     Node 6, Type 0, BuildingBlock: QEWDON_clean_linker_0, # of connection points: 3
#     Node 7, Type 0, BuildingBlock: QEWDON_clean_linker_0, # of connection points: 3
#     Node 8, Type 1, BuildingBlock: INOVEN_clean_sbu_0, # of connection points: 6
#     Node 9, Type 1, BuildingBlock: INOVEN_clean_sbu_0, # of connection points: 6
#     Node 10, Type 1, BuildingBlock: INOVEN_clean_sbu_0, # of connection points: 6
#     Node 11, Type 1, BuildingBlock: INOVEN_clean_sbu_0, # of connection points: 6
#     Edge 12, Type (0, 1), BuildingBlock: UVAHIK_clean_linker_0, # of connection points: 2
#     Edge 13, Type (0, 1), BuildingBlock: UVAHIK_clean_linker_0, # of connection points: 2
#     Edge 14, Type (0, 1), BuildingBlock: UVAHIK_clean_linker_0, # of connection points: 2
#     Edge 15, Type (0, 1), BuildingBlock: UVAHIK_clean_linker_0, # of connection points: 2
#     Edge 16, Type (0, 1), BuildingBlock: UVAHIK_clean_linker_0, # of connection points: 2
#     Edge 17, Type (0, 1), BuildingBlock: UVAHIK_clean_linker_0, # of connection points: 2
#     Edge 18, Type (0, 1), BuildingBlock: UVAHIK_clean_linker_0, # of connection points: 2
#     Edge 19, Type (0, 1), BuildingBlock: UVAHIK_clean_linker_0, # of connection points: 2
#     Edge 20, Type (0, 1), BuildingBlock: UVAHIK_clean_linker_0, # of connection points: 2
#     Edge 21, Type (0, 1), BuildingBlock: UVAHIK_clean_linker_0, # of connection points: 2
#     Edge 22, Type (0, 1), BuildingBlock: UVAHIK_clean_linker_0, # of connection points: 2
#     Edge 23, Type (0, 1), BuildingBlock: UVAHIK_clean_linker_0, # of connection points: 2
#     Edge 24, Type (0, 1), BuildingBlock: UVAHIK_clean_linker_0, # of connection points: 2
#     Edge 25, Type (0, 1), BuildingBlock: UVAHIK_clean_linker_0, # of connection points: 2
#     Edge 26, Type (0, 1), BuildingBlock: UVAHIK_clean_linker_0, # of connection points: 2
#     Edge 27, Type (0, 1), BuildingBlock: UVAHIK_clean_linker_0, # of connection points: 2
#     Edge 28, Type (0, 1), BuildingBlock: UVAHIK_clean_linker_0, # of connection points: 2
#     Edge 29, Type (0, 1), BuildingBlock: UVAHIK_clean_linker_0, # of connection points: 2
#     Edge 30, Type (0, 1), BuildingBlock: UVAHIK_clean_linker_0, # of connection points: 2
#     Edge 31, Type (0, 1), BuildingBlock: UVAHIK_clean_linker_0, # of connection points: 2
#     Edge 32, Type (0, 1), BuildingBlock: UVAHIK_clean_linker_0, # of connection points: 2
#     Edge 33, Type (0, 1), BuildingBlock: UVAHIK_clean_linker_0, # of connection points: 2
#     Edge 34, Type (0, 1), BuildingBlock: UVAHIK_clean_linker_0, # of connection points: 2
#     Edge 35, Type (0, 1), BuildingBlock: UVAHIK_clean_linker_0, # of connection points: 2
# Relax obj value: 0.134
# Max RMSD: 0.157
# Mean RMSD: 0.118
data_MOF--net-zzz--node1-INOVEN_clean_sbu_0--node2-QEWDON_clean_linker_0--edge1-UVAHIK_clean_linker_0
_symmetry_space_group_name_H-M    P1
_symmetry_Int_Tables_number       1
_symmetry_cell_setting            triclinic
loop_
_symmetry_equiv_pos_as_xyz
'x, y, z'
_cell_length_a     71.57745
_cell_length_b     71.586225
_cell_length_c     16.345854
_cell_angle_alpha  90.087579
_cell_angle_beta   90.073319
_cell_angle_gamma 89.945354
loop_
_atom_site_label
_atom_site_type_symbol
_atom_site_fract_x
_atom_site_fract_y
_atom_site_fract_z
_atom_type_partial_charge
H0 H 0.75804 0.54678 0.18153 0.0
C1 C 0.76852 0.54275 0.22596 0.0
C2 C 0.78736 0.5452 0.20582 0.0
C3 C 0.76329 0.53567 0.3032 0.0
H4 H 0.81581 0.54223 0.24727 0.0
C5 C 0.80117 0.5407 0.2632 0.0
C6 C 0.79652 0.53367 0.34005 0.0
C7 C 0.77759 0.53103 0.36012 0.0
C8 C 0.74298 0.53375 0.32435 0.0
H9 H 0.77416 0.5252 0.41927 0.0
C10 C 0.72934 0.53014 0.26333 0.0
C11 C 0.71009 0.52984 0.28232 0.0
C12 C 0.73692 0.53649 0.40536 0.0
H13 H 0.74672 0.53975 0.45376 0.0
C14 C 0.71798 0.53571 0.42492 0.0
H15 H 0.73361 0.52743 0.20095 0.0
C16 C 0.70466 0.53254 0.36412 0.0
H17 H 0.69004 0.53271 0.38109 0.0
H18 H 0.71354 0.53799 0.48743 0.0
H19 H 0.02616 0.75751 0.16315 0.0
C20 C 0.02487 0.76661 0.21575 0.0
C21 C 0.03598 0.78268 0.21856 0.0
C22 C 1.0118 0.76281 0.27836 0.0
H23 H 0.0416 0.80847 0.28138 0.0
C24 C 0.03371 0.79552 0.28222 0.0
C25 C 0.02006 0.79289 0.34193 0.0
C26 C 1.0094 0.77638 0.34113 0.0
C27 C 1.00028 0.74522 0.2758 0.0
H28 H 0.99931 0.77439 0.38947 0.0
C29 C 1.00661 0.72902 0.23397 0.0
C30 C 0.99563 0.7127 0.23058 0.0
C31 C 0.98263 0.74447 0.31404 0.0
H32 H 0.97667 0.75654 0.34402 0.0
C33 C 0.97201 0.72813 0.31275 0.0
H34 H 0.02014 0.72879 0.20459 0.0
C35 C 0.97845 0.71233 0.27157 0.0
H36 H 0.96973 0.69997 0.26965 0.0
H37 H 0.95853 0.72782 0.34266 0.0
H38 H 0.78177 1.00164 0.17017 0.0
C39 C 0.77148 1.00312 0.21817 0.0
C40 C 0.75281 1.00546 0.19516 0.0
C41 C 0.77664 1.00214 0.30154 0.0
H42 H 0.72446 1.00842 0.23721 0.0
C43 C 0.73895 1.0065 0.25516 0.0
C44 C 0.74347 1.00551 0.33808 0.0
C45 C 0.76231 1.00353 0.36152 0.0
C46 C 0.79679 0.9991 0.32464 0.0
H47 H 0.76562 1.00327 0.42611 0.0
C48 C 0.81155 1.00449 0.27179 0.0
C49 C 0.83033 1.0002 0.29016 0.0
C50 C 0.80148 0.98989 0.39798 0.0
H51 H 0.79083 0.98496 0.43952 0.0
C52 C 0.8201 0.98628 0.41795 0.0
H53 H 0.80861 1.01211 0.21615 0.0
C54 C 0.83441 0.99127 0.36449 0.0
H55 H 0.84865 0.9876 0.38031 0.0
H56 H 0.82343 0.97911 0.4744 0.0
H57 H 0.5151 0.78369 0.14661 0.0
C58 C 0.51477 0.77417 0.19799 0.0
C59 C 0.50413 0.75789 0.19084 0.0
C60 C 0.52554 0.77764 0.26884 0.0
H61 H 0.49704 0.73152 0.24445 0.0
C62 C 0.50451 0.74457 0.25318 0.0
C63 C 0.51579 0.74696 0.32234 0.0
C64 C 0.52602 0.76369 0.33077 0.0
C65 C 0.53708 0.79515 0.27486 0.0
H66 H 0.53431 0.76564 0.38549 0.0
C67 C 0.53181 0.81179 0.23351 0.0
C68 C 0.54342 0.82775 0.23421 0.0
C69 C 0.554 0.79515 0.31899 0.0
H70 H 0.55902 0.78273 0.34952 0.0
C71 C 0.56513 0.8111 0.32257 0.0
H72 H 0.51888 0.8123 0.19928 0.0
C73 C 0.55997 0.82722 0.28054 0.0
H74 H 0.56902 0.83931 0.28422 0.0
H75 H 0.57805 0.81086 0.35709 0.0
H76 H 0.29025 0.51169 0.16737 0.0
C77 C 0.28027 0.5105 0.11795 0.0
C78 C 0.26255 0.50327 0.13571 0.0
C79 C 0.28481 0.51686 0.0387 0.0
H80 H 0.235 0.49787 0.08771 0.0
C81 C 0.24905 0.50254 0.07362 0.0
C82 C 0.2528 0.50917 0.99499 0.0
C83 C 0.27072 0.5162 0.97727 0.0
C84 C 0.30378 0.5252 0.02304 0.0
H85 H 0.27351 0.52105 0.91584 0.0
C86 C 0.31953 0.5201 0.07099 0.0
C87 C 0.33685 0.52933 0.06251 0.0
C88 C 0.30612 0.53921 0.96351 0.0
H89 H 0.29453 0.54404 0.92671 0.0
C90 C 0.32343 0.54781 0.9524 0.0
H91 H 0.31847 0.50896 0.11535 0.0
C92 C 0.33862 0.54306 0.00173 0.0
H93 H 0.35159 0.55061 0.99386 0.0
H94 H 0.32493 0.55864 0.90674 0.0
H95 H 0.03832 0.28372 0.17222 0.0
C96 C 0.03869 0.2743 0.12035 0.0
C97 C 0.04899 0.25777 0.12742 0.0
C98 C 0.02813 0.27809 0.04932 0.0
H99 H 0.05572 0.2314 0.07201 0.0
C100 C 0.04862 0.24467 0.06388 0.0
C101 C 0.03742 0.24741 0.99474 0.0
C102 C 0.0274 0.26428 0.98689 0.0
C103 C 0.01688 0.29576 0.04449 0.0
H104 H 0.019 0.26641 0.93261 0.0
C105 C 0.02278 0.31219 0.08549 0.0
C106 C 1.01142 0.3283 0.08807 0.0
C107 C 0.99964 0.29611 0.00299 0.0
H108 H 0.99426 0.28382 0.9725 0.0
C109 C 0.98865 0.31222 0.00275 0.0
H110 H 0.03624 0.31251 0.11571 0.0
C111 C 0.99436 0.32812 0.04535 0.0
H112 H 0.98509 0.34008 0.04672 0.0
H113 H 0.97535 0.3122 0.97113 0.0
H114 H 0.25271 1.00646 0.1885 0.0
C115 C 0.26308 1.01106 0.14474 0.0
C116 C 0.2817 1.01239 0.1702 0.0
C117 C 0.25795 1.01518 0.06336 0.0
H118 H 0.31001 0.01785 0.13291 0.0
C119 C 0.29549 0.01746 0.11383 0.0
C120 C 0.29104 0.02085 0.03196 0.0
C121 C 0.27224 0.01986 0.00667 0.0
C122 C 0.23785 1.01363 0.03808 0.0
H123 H 0.26888 0.02283 0.94343 0.0
C124 C 0.22322 0.01747 0.09408 0.0
C125 C 0.20431 1.01443 0.07295 0.0
C126 C 0.2331 1.00737 0.95918 0.0
H127 H 0.24377 1.00387 0.91488 0.0
C128 C 0.21444 1.00484 0.93704 0.0
H129 H 0.2265 0.02289 0.15424 0.0
C130 C 0.20018 1.00817 0.99334 0.0
H131 H 0.18593 1.00533 0.97488 0.0
H132 H 0.21103 0.99983 0.87634 0.0
H133 H 0.50534 0.25772 0.17489 0.0
C134 C 0.5051 0.267 0.12263 0.0
C135 C 0.4946 0.28345 0.1279 0.0
C136 C 0.51599 0.26308 0.05283 0.0
H137 H 0.48773 0.30952 0.07023 0.0
C138 C 0.49504 0.29631 0.06356 0.0
C139 C 0.50645 0.29341 0.99522 0.0
C140 C 0.51671 0.27663 0.98943 0.0
C141 C 0.52757 0.24559 0.05014 0.0
H142 H 0.52529 0.27434 0.93586 0.0
C143 C 0.52175 0.22908 0.09066 0.0
C144 C 0.5333 0.21308 0.09348 0.0
C145 C 0.54504 0.24553 0.01071 0.0
H146 H 0.55037 0.25791 0.98096 0.0
C147 C 0.5563 0.22962 0.01153 0.0
H148 H 0.50819 0.22857 0.11979 0.0
C149 C 0.55059 0.21359 0.05279 0.0
H150 H 0.55999 0.20173 0.05456 0.0
H151 H 0.56977 0.22986 0.98146 0.0
Gd152 Gd 0.02415 1.01335 0.77029 0.0
Gd153 Gd 1.00816 0.02538 0.59723 0.0
C154 C 1.01428 0.9819 0.62847 0.0
C155 C 0.02647 0.99767 0.91054 0.0
C156 C 0.03458 0.97921 0.92954 0.0
C157 C 0.04892 0.97747 0.98777 0.0
C158 C 0.02953 0.96351 0.88263 0.0
C159 C 0.05363 0.94499 0.94827 0.0
C160 C 0.039 0.94665 0.89162 0.0
C161 C 0.05829 0.96042 -0.00246 0.0
C162 C 0.05225 1.01529 0.6575 0.0
C163 C 0.02207 0.05685 0.7317 0.0
C164 C 1.00427 0.0432 0.46244 0.0
C165 C 1.01429 0.06027 0.43925 0.0
C166 C 1.00541 0.0742 0.39335 0.0
C167 C 0.03197 0.06381 0.47332 0.0
C168 C 0.03136 0.09536 0.42014 0.0
C169 C 0.04044 0.08116 0.46373 0.0
C170 C 1.01394 0.09164 0.38347 0.0
C171 C 0.98261 0.01653 0.71233 0.0
O172 O 0.01755 0.98598 0.7064 0.0
O173 O 1.0116 0.99483 0.57185 0.0
O174 O 0.03847 1.01041 0.88662 0.0
O175 O 1.01108 0.99746 0.86664 0.0
O176 O 0.05489 1.01119 0.73391 0.0
O177 O 0.03509 0.01826 0.6481 0.0
O178 O 0.01935 0.05207 0.65417 0.0
O179 O 0.02253 0.04432 0.79124 0.0
O180 O 0.99273 0.04532 0.52394 0.0
O181 O 1.01458 0.0281 0.46847 0.0
O182 O 0.98026 1.01344 0.63452 0.0
O183 O 0.99771 0.02523 0.72407 0.0
H184 H 0.05315 0.9894 0.02415 0.0
H185 H 0.0185 0.96427 0.83745 0.0
H186 H 0.03481 0.93486 0.85423 0.0
H187 H 0.06947 0.95942 0.04206 0.0
H188 H 0.99163 0.07183 0.36786 0.0
H189 H 0.03895 0.05343 0.51045 0.0
H190 H 0.05394 0.08357 0.49183 0.0
H191 H 1.00659 0.10242 0.34991 0.0
Gd192 Gd 0.52262 0.03047 0.75213 0.0
Gd193 Gd 0.5104 1.01295 0.58451 0.0
C194 C 0.5541 1.01586 0.61794 0.0
C195 C 0.54091 0.04001 0.88129 0.0
C196 C 0.56129 0.04077 0.89377 0.0
C197 C 0.56979 0.05778 0.91509 0.0
C198 C 0.57258 0.02555 0.87121 0.0
C199 C 0.60028 0.04493 0.88192 0.0
C200 C 0.59188 0.02763 0.86534 0.0
C201 C 0.58918 0.05983 0.90954 0.0
C202 C 0.51354 0.05464 0.63135 0.0
C203 C 0.4794 0.02296 0.72699 0.0
C204 C 0.49341 1.01003 0.44748 0.0
C205 C 0.47398 1.00342 0.43569 0.0
C206 C 0.47029 0.98452 0.41801 0.0
C207 C 0.45895 1.01525 0.45575 0.0
C208 C 0.43759 0.98902 0.45248 0.0
C209 C 0.44101 1.00808 0.46487 0.0
C210 C 0.45217 0.97739 0.4259 0.0
C211 C 0.51235 0.98567 0.70078 0.0
O212 O 0.54987 0.02058 0.69437 0.0
O213 O 0.54122 1.01376 0.56045 0.0
O214 O 0.53457 0.05212 0.82836 0.0
O215 O 0.53343 0.02342 0.87228 0.0
O216 O 0.50901 0.05701 0.70755 0.0
O217 O 0.52277 0.03972 0.6231 0.0
O218 O 0.48332 0.02099 0.6481 0.0
O219 O 0.49267 0.02462 0.7831 0.0
O220 O 0.50555 0.99746 0.47223 0.0
O221 O 0.49508 0.02601 0.48631 0.0
O222 O 0.50812 0.98258 0.62483 0.0
O223 O 0.51542 1.00287 0.70857 0.0
H224 H 0.56134 0.06973 0.9321 0.0
H225 H 0.56646 1.01225 0.85438 0.0
H226 H 0.60025 1.01579 0.8462 0.0
H227 H 0.5954 0.07326 0.92345 0.0
H228 H 0.48154 0.97507 0.40201 0.0
H229 H 0.46114 0.02992 0.46891 0.0
H230 H 0.42983 0.01739 0.48331 0.0
H231 H 0.44971 0.96268 0.41472 0.0
Gd232 Gd 0.51781 0.52587 0.75547 0.0
Gd233 Gd 0.53279 0.51441 0.57925 0.0
C234 C 0.52651 0.55783 0.61437 0.0
C235 C 0.51673 0.54145 0.89633 0.0
C236 C 0.50984 0.56044 0.91574 0.0
C237 C 0.49247 0.56295 0.95436 0.0
C238 C 0.51926 0.57619 0.88503 0.0
C239 C 0.49314 0.59606 0.92171 0.0
C240 C 0.51093 0.59376 0.88747 0.0
C241 C 0.48422 0.58068 0.95772 0.0
C242 C 0.48926 0.52394 0.6444 0.0
C243 C 0.51963 0.48254 0.71386 0.0
C244 C 0.53549 0.49636 0.44471 0.0
C245 C 0.52522 0.47907 0.4259 0.0
C246 C 0.53471 0.46345 0.39512 0.0
C247 C 0.50672 0.47704 0.45334 0.0
C248 C 0.50785 0.44375 0.42588 0.0
C249 C 0.49811 0.4596 0.45306 0.0
C250 C 0.52608 0.44592 0.3949 0.0
C251 C 0.55891 0.52267 0.69311 0.0
O252 O 0.52431 0.55342 0.69274 0.0
O253 O 0.52847 0.54502 0.55632 0.0
O254 O 0.50397 0.52941 0.87249 0.0
O255 O 0.53204 0.54067 0.85223 0.0
O256 O 0.48674 0.52755 0.72144 0.0
O257 O 0.50643 0.52144 0.63428 0.0
O258 O 0.52183 0.48753 0.6362 0.0
O259 O 0.51957 0.49491 0.7742 0.0
O260 O 0.54785 0.49465 0.50343 0.0
O261 O 0.52531 0.51154 0.45143 0.0
O262 O 0.56093 0.52618 0.61546 0.0
O263 O 0.54381 0.514 0.70496 0.0
H264 H 0.48492 0.55109 0.97868 0.0
H265 H 0.53273 0.5749 0.85545 0.0
H266 H 0.51827 0.60554 0.86113 0.0
H267 H 0.47056 0.58223 0.98539 0.0
H268 H 0.54906 0.46465 0.37486 0.0
H269 H 0.49921 0.48871 0.47964 0.0
H270 H 0.48418 0.45841 0.47829 0.0
H271 H 0.53383 0.434 0.37213 0.0
Gd272 Gd 0.01946 0.51192 0.74595 0.0
Gd273 Gd 0.02924 0.52805 0.58365 0.0
C274 C 0.98626 0.52335 0.61547 0.0
C275 C 1.00211 0.50605 0.88085 0.0
C276 C 0.9823 0.51035 0.89821 0.0
C277 C 0.96905 0.4959 0.89864 0.0
C278 C 0.97604 0.52899 0.90056 0.0
C279 C 0.94377 0.51862 0.89319 0.0
C280 C 0.95699 0.53306 0.89813 0.0
C281 C 0.94997 0.49998 0.89585 0.0
C282 C 0.02833 0.48618 0.63159 0.0
C283 C 0.06248 0.51697 0.71528 0.0
C284 C 0.04634 0.53332 0.44775 0.0
C285 C 0.06633 0.52979 0.43118 0.0
C286 C 0.07889 0.54483 0.42858 0.0
C287 C 0.07344 0.51145 0.43187 0.0
C288 C 0.10518 0.52336 0.43832 0.0
C289 C 0.09266 0.50829 0.43539 0.0
C290 C 0.09812 0.54166 0.43249 0.0
C291 C 0.02002 0.55394 0.69661 0.0
O292 O 0.9914 0.52079 0.69252 0.0
O293 O 0.99878 0.52489 0.55672 0.0
O294 O 1.0049 0.49287 0.82667 0.0
O295 O 1.01316 0.5204 0.87013 0.0
O296 O 0.03303 0.48478 0.70815 0.0
O297 O 0.01858 0.50064 0.62043 0.0
O298 O 0.05743 0.51995 0.63837 0.0
O299 O 0.04991 0.5149 0.77351 0.0
O300 O 0.0429 0.54692 0.4992 0.0
O301 O 0.03602 0.51856 0.46142 0.0
O302 O 1.01567 0.55521 0.61959 0.0
O303 O 0.02985 0.53954 0.70911 0.0
H304 H 0.97346 0.48142 0.89651 0.0
H305 H 0.98583 0.54052 0.9004 0.0
H306 H 0.95264 0.54755 0.89825 0.0
H307 H 0.94015 0.48852 0.89188 0.0
H308 H 0.07382 0.5591 0.42831 0.0
H309 H 0.0642 0.49949 0.4337 0.0
H310 H 0.09768 0.49402 0.43778 0.0
H311 H 0.10739 0.55359 0.43492 0.0
C312 C 0.1916 1.01176 0.21673 0.0
C313 C 0.18894 0.01685 0.13438 0.0
C314 C 0.17682 1.01264 0.2728 0.0
C315 C 0.12862 0.03199 0.3036 0.0
H316 H 0.12581 0.9929 0.46693 0.0
C317 C 0.0635 0.01973 0.51229 0.0
C318 C 0.0673 0.01637 0.59528 0.0
C319 C 0.07808 0.02047 0.45491 0.0
C320 C 0.12645 1.00401 0.4221 0.0
H321 H 0.16857 0.02765 0.04805 0.0
H322 H 0.14277 0.02852 0.14457 0.0
H323 H 0.15169 0.99322 0.37063 0.0
H324 H 0.08936 1.01099 0.68311 0.0
H325 H 0.11464 1.01204 0.58359 0.0
H326 H 0.10304 0.04248 0.35477 0.0
C327 C 0.15635 0.02405 0.16637 0.0
C328 C 0.14138 1.00427 0.36693 0.0
C329 C 0.17116 0.0233 0.11045 0.0
C330 C 0.08594 1.01363 0.61959 0.0
C331 C 0.10045 1.01415 0.56244 0.0
C332 C 0.11355 0.03162 0.35845 0.0
C333 C 0.15887 0.0185 0.24824 0.0
C334 C 0.14281 0.01833 0.30709 0.0
C335 C 0.09674 0.01753 0.4793 0.0
C336 C 0.11236 0.01769 0.41879 0.0
H337 H 0.20497 1.00655 0.23769 0.0
H338 H 0.1795 1.0086 0.33553 0.0
H339 H 0.12927 0.0432 0.25932 0.0
H340 H 0.04929 0.02152 0.49152 0.0
H341 H 0.07472 0.02291 0.3912 0.0
C342 C 0.51943 0.1978 0.21883 0.0
C343 C 0.52791 0.19612 0.14148 0.0
C344 C 0.51602 0.18195 0.26696 0.0
C345 C 0.53274 0.13351 0.29671 0.0
H346 H 0.48808 0.12806 0.42833 0.0
C347 C 0.52012 0.0671 0.4906 0.0
C348 C 0.5125 0.06965 0.56899 0.0
C349 C 0.5205 0.08187 0.43436 0.0
C350 C 0.50074 0.12942 0.39264 0.0
H351 H 0.5385 0.17619 0.05278 0.0
H352 H 0.53266 0.14869 0.13663 0.0
H353 H 0.49142 0.15511 0.33878 0.0
H354 H 0.49893 0.08958 0.64919 0.0
H355 H 0.49988 0.11537 0.55222 0.0
H356 H 0.54229 0.10811 0.35147 0.0
C357 C 0.52896 0.1623 0.16079 0.0
C358 C 0.50263 0.14495 0.34112 0.0
C359 C 0.5323 0.1781 0.11262 0.0
C360 C 0.50485 0.08715 0.58917 0.0
C361 C 0.50531 0.10194 0.53319 0.0
C362 C 0.5309 0.11805 0.34846 0.0
C363 C 0.52104 0.16401 0.23916 0.0
C364 C 0.51868 0.14724 0.29261 0.0
C365 C 0.51336 0.09961 0.45526 0.0
C366 C 0.51491 0.11578 0.39751 0.0
H367 H 0.51606 0.21142 0.24364 0.0
H368 H 0.51005 0.18384 0.32726 0.0
H369 H 0.54544 0.13494 0.26135 0.0
H370 H 0.52608 0.05376 0.47314 0.0
H371 H 0.52651 0.07939 0.37456 0.0
C372 C 0.34938 0.52338 0.20441 0.0
C373 C 0.35269 0.52562 0.12015 0.0
C374 C 0.36427 0.52174 0.25969 0.0
C375 C 0.41532 0.51187 0.27516 0.0
H376 H 0.41107 0.53965 0.478 0.0
C377 C 0.47804 0.52299 0.49819 0.0
C378 C 0.47419 0.52251 0.58235 0.0
C379 C 0.46345 0.52239 0.44067 0.0
C380 C 0.41245 0.53159 0.42224 0.0
H381 H 0.37443 0.52705 0.02805 0.0
H382 H 0.40035 0.52443 0.12444 0.0
H383 H 0.3853 0.53985 0.38098 0.0
H384 H 0.45209 0.52095 0.67241 0.0
H385 H 0.42675 0.51968 0.57291 0.0
H386 H 0.44258 0.50369 0.31664 0.0
C387 C 0.38622 0.52387 0.14784 0.0
C388 C 0.3976 0.5317 0.36642 0.0
C389 C 0.37132 0.52556 0.09253 0.0
C390 C 0.45551 0.52135 0.60788 0.0
C391 C 0.44096 0.52075 0.5507 0.0
C392 C 0.4302 0.51174 0.33119 0.0
C393 C 0.38291 0.52226 0.23239 0.0
C394 C 0.39878 0.52182 0.29212 0.0
C395 C 0.44467 0.52142 0.46621 0.0
C396 C 0.42895 0.52157 0.40568 0.0
H397 H 0.33527 0.52353 0.22821 0.0
H398 H 0.36115 0.52022 0.32415 0.0
H399 H 0.41669 0.50395 0.219 0.0
H400 H 0.49225 0.52431 0.47685 0.0
H401 H 0.46688 0.52319 0.37628 0.0
C402 C 1.01247 0.36315 0.11278 0.0
C403 C 0.01672 0.34489 0.13884 0.0
C404 C 1.01589 0.37855 0.1636 0.0
C405 C 0.02286 0.39058 0.38279 0.0
H406 H 0.03694 0.43893 0.29592 0.0
C407 C 0.0381 0.45364 0.59417 0.0
C408 C 0.02982 0.47068 0.57171 0.0
C409 C 0.03826 0.4385 0.53974 0.0
C410 C 0.0329 0.42554 0.32107 0.0
H411 H 0.0284 0.32875 0.23889 0.0
H412 H 0.03495 0.35555 0.32599 0.0
H413 H 0.03441 0.41213 0.20404 0.0
H414 H 1.01566 0.48539 0.47383 0.0
H415 H 0.01607 0.45905 0.37857 0.0
H416 H 0.02136 0.40401 0.49975 0.0
C417 C 0.02858 0.35797 0.26681 0.0
C418 C 0.03141 0.41015 0.26835 0.0
C419 C 0.02508 0.34256 0.21615 0.0
C420 C 0.02221 0.47246 0.4928 0.0
C421 C 0.0225 0.45737 0.43812 0.0
C422 C 0.02448 0.40593 0.43549 0.0
C423 C 0.02376 0.37616 0.24188 0.0
C424 C 0.02623 0.39246 0.29834 0.0
C425 C 0.03027 0.4401 0.46134 0.0
C426 C 0.02938 0.42364 0.4053 0.0
H427 H 1.00627 0.36556 0.05327 0.0
H428 H 1.01183 0.39227 0.14225 0.0
H429 H 0.01848 0.37734 0.40819 0.0
H430 H 0.04414 0.45186 0.65443 0.0
H431 H 0.04459 0.4255 0.55923 0.0
C432 C 0.86314 1.01056 0.25631 0.0
C433 C 0.8456 1.00396 0.23012 0.0
C434 C 0.87793 1.01253 0.20089 0.0
C435 C 0.89471 0.99446 0.00231 0.0
H436 H 0.92837 0.03682 0.009 0.0
C437 C 0.95039 1.00646 0.75176 0.0
C438 C 0.96767 1.01421 0.7743 0.0
C439 C 0.9358 1.00516 0.8084 0.0
C440 C 0.91929 0.02474 0.00693 0.0
H441 H 0.82989 0.99451 0.12441 0.0
H442 H 0.85561 0.99809 0.02775 0.0
H443 H 0.90223 0.03529 0.10445 0.0
H444 H 0.98331 0.02642 0.87444 0.0
H445 H 0.95802 0.02373 0.97419 0.0
H446 H 0.91181 0.98375 0.90575 0.0
C447 C 0.85796 1.00162 0.09138 0.0
C448 C 0.90423 0.02391 0.0616 0.0
C449 C 0.84314 0.99979 0.14666 0.0
C450 C 0.97015 0.02036 0.85525 0.0
C451 C 0.95557 0.01897 0.9122 0.0
C452 C 0.90981 0.99523 0.94804 0.0
C453 C 0.87563 1.0078 0.11791 0.0
C454 C 0.89168 1.0088 0.05974 0.0
C455 C 0.93811 1.01147 0.88943 0.0
C456 C 0.92229 1.01043 0.94918 0.0
H457 H 0.86549 1.01404 0.32 0.0
H458 H 0.89135 0.01724 0.2236 0.0
H459 H 0.88555 0.98244 0.00011 0.0
H460 H 0.948 1.00167 0.68973 0.0
H461 H 0.92254 0.99956 0.78792 0.0
C462 C 0.52049 0.85158 0.17836 0.0
C463 C 0.53887 0.84472 0.18455 0.0
C464 C 0.51656 0.86767 0.13234 0.0
C465 C 0.5394 0.90956 0.04079 0.0
H466 H 0.49541 0.91097 0.90258 0.0
C467 C 0.52021 0.97464 0.84369 0.0
C468 C 0.51415 0.97084 0.76366 0.0
C469 C 0.5222 0.96011 0.90085 0.0
C470 C 0.5078 0.91081 0.94068 0.0
H471 H 0.5674 0.84924 0.14438 0.0
H472 H 0.56058 0.87708 0.06491 0.0
H473 H 0.501 0.88393 0.9898 0.0
H474 H 0.50522 0.94887 0.68106 0.0
H475 H 0.50875 0.92371 0.77956 0.0
H476 H 0.54649 0.93619 0.98972 0.0
C477 C 0.54923 0.87034 0.09707 0.0
C478 C 0.5109 0.89536 0.99148 0.0
C479 C 0.55314 0.8543 0.14279 0.0
C480 C 0.5099 0.9523 0.7423 0.0
C481 C 0.5118 0.93785 0.79914 0.0
C482 C 0.53628 0.92504 0.99011 0.0
C483 C 0.53091 0.87732 0.09133 0.0
C484 C 0.52689 0.89437 0.04136 0.0
C485 C 0.51802 0.94149 0.8792 0.0
C486 C 0.52058 0.92575 0.93835 0.0
H487 H 0.50917 0.84471 0.21022 0.0
H488 H 0.5023 0.87271 0.12992 0.0
H489 H 0.55173 0.90945 0.07924 0.0
H490 H 0.52351 0.98877 0.862 0.0
H491 H 0.52688 0.96348 0.96213 0.0
C492 C 0.67913 0.51735 0.23232 0.0
C493 C 0.69556 0.52755 0.21711 0.0
C494 C 0.66479 0.51651 0.17406 0.0
C495 C 0.64636 0.54165 0.99193 0.0
H496 H 0.61646 0.49692 0.9651 0.0
C497 C 0.5909 0.5334 0.73447 0.0
C498 C 0.57408 0.52441 0.75454 0.0
C499 C 0.60572 0.53404 0.79056 0.0
C500 C 0.62454 0.5096 0.97243 0.0
H501 H 0.70981 0.54456 0.12698 0.0
H502 H 0.68508 0.54265 0.02455 0.0
H503 H 0.64267 0.49685 0.06041 0.0
H504 H 0.55947 0.50932 0.84975 0.0
H505 H 0.58526 0.5105 0.94785 0.0
H506 H 0.62825 0.55432 0.90338 0.0
C507 C 0.68312 0.53556 0.08238 0.0
C508 C 0.63961 0.50957 0.02721 0.0
C509 C 0.69746 0.53644 0.14081 0.0
C510 C 0.57227 0.51634 0.83245 0.0
C511 C 0.58711 0.51689 0.88842 0.0
C512 C 0.63133 0.54164 0.93686 0.0
C513 C 0.66646 0.52579 0.09856 0.0
C514 C 0.65071 0.52562 0.03809 0.0
C515 C 0.6041 0.52561 0.868 0.0
C516 C 0.62016 0.52565 0.9266 0.0
H517 H 0.67722 0.5101 0.28982 0.0
H518 H 0.65216 0.50897 0.18933 0.0
H519 H 0.65432 0.55438 -0.00051 0.0
H520 H 0.59273 0.53972 0.67484 0.0
H521 H 0.61862 0.54074 0.77241 0.0
C522 C 1.00191 0.67836 0.21499 0.0
C523 C 1.00143 0.69633 0.18073 0.0
C524 C 1.00561 0.66271 0.16608 0.0
C525 C 0.02174 0.64859 0.95543 0.0
H526 H 0.99674 0.60225 0.01052 0.0
C527 C 1.01175 0.58714 0.72826 0.0
C528 C 0.01802 0.5696 0.75541 0.0
C529 C 1.01063 0.60227 0.78236 0.0
C530 C 1.0039 0.61508 0.99478 0.0
H531 H 1.00446 0.71207 0.06875 0.0
H532 H 1.01005 0.68488 0.98249 0.0
H533 H 0.99335 0.62931 0.09993 0.0
H534 H 0.02787 0.55414 0.86081 0.0
H535 H 0.0251 0.58045 0.95642 0.0
H536 H 0.03143 0.63438 0.84782 0.0
C537 C 1.00829 0.68271 0.04752 0.0
C538 C 1.00211 0.63063 0.04634 0.0
C539 C 1.005 0.69838 0.09686 0.0
C540 C 0.02282 0.56742 0.83827 0.0
C541 C 0.02128 0.58247 0.8929 0.0
C542 C 0.02318 0.63316 0.90308 0.0
C543 C 1.00847 0.66456 0.08111 0.0
C544 C 1.01096 0.6477 0.02746 0.0
C545 C 1.01538 0.6001 0.8652 0.0
C546 C 1.01425 0.61627 0.92211 0.0
H547 H 0.99928 0.67643 0.27968 0.0
H548 H 1.00609 0.64915 0.19516 0.0
H549 H 0.02918 0.66121 0.93921 0.0
H550 H 1.00798 0.58929 0.66476 0.0
H551 H 1.00591 0.61568 0.75957 0.0
C552 C 0.07554 0.24548 0.20974 0.0
C553 C 0.05705 0.25192 0.20634 0.0
C554 C 0.08091 0.23284 0.27037 0.0
C555 C 0.06063 0.20208 0.43518 0.0
H556 H 0.07974 0.16344 0.29126 0.0
C557 C 0.04747 0.1227 0.48527 0.0
C558 C 0.03986 0.11415 0.41514 0.0
C559 C 0.05526 0.14056 0.4807 0.0
C560 C 0.07457 0.17407 0.33274 0.0
H561 H 0.0305 0.25261 0.26922 0.0
H562 H 0.03943 0.23011 0.37247 0.0
H563 H 0.08496 0.19583 0.2576 0.0
H564 H 0.03469 0.11737 0.28537 0.0
H565 H 0.04825 0.14851 0.27716 0.0
H566 H 0.04877 0.17987 0.50601 0.0
C567 C 0.05007 0.23484 0.33029 0.0
C568 C 0.07781 0.19276 0.31428 0.0
C569 C 0.04485 0.24779 0.27078 0.0
C570 C 0.04035 0.12367 0.34035 0.0
C571 C 0.04832 0.14139 0.33559 0.0
C572 C 0.05732 0.18327 0.45346 0.0
C573 C 0.06764 0.226 0.3263 0.0
C574 C 0.0699 0.20705 0.36244 0.0
C575 C 0.05585 0.15001 0.40564 0.0
C576 C 0.06334 0.16921 0.39954 0.0
H577 H 0.08521 0.24869 0.16081 0.0
H578 H 0.09479 0.22685 0.26747 0.0
H579 H 0.0547 0.2127 0.47462 0.0
H580 H 0.04716 0.11567 0.54386 0.0
H581 H 0.06088 0.14694 0.5356 0.0
C582 C 0.29952 0.01877 0.29767 0.0
C583 C 0.28749 1.00704 0.25369 0.0
C584 C 0.30949 1.01191 0.36434 0.0
C585 C 0.33078 0.96749 0.41281 0.0
H586 H 0.35778 1.0003 0.55961 0.0
C587 C 0.4088 0.97291 0.40393 0.0
C588 C 0.41867 0.98164 0.46724 0.0
C589 C 0.38974 0.96935 0.41245 0.0
C590 C 0.35032 0.99053 0.52096 0.0
H591 H 0.2746 0.9797 0.25012 0.0
H592 H 0.29193 0.96763 0.36791 0.0
H593 H 0.32601 1.00788 0.52138 0.0
H594 H 0.41719 0.99163 0.59217 0.0
H595 H 0.38398 0.98476 0.60856 0.0
H596 H 0.35523 0.95035 0.41093 0.0
C597 C 0.29392 0.98205 0.3501 0.0
C598 C 0.33207 0.99505 0.4983 0.0
C599 C 0.28389 0.98898 0.2831 0.0
C600 C 0.40968 0.98515 0.542 0.0
C601 C 0.39068 0.98128 0.55117 0.0
C602 C 0.34891 0.96277 0.43675 0.0
C603 C 0.30767 0.9931 0.38827 0.0
C604 C 0.32275 0.98448 0.43833 0.0
C605 C 0.38024 0.97422 0.48505 0.0
C606 C 0.35945 0.9751 0.48536 0.0
H607 H 0.30235 0.03282 0.27637 0.0
H608 H 0.31997 0.0209 0.39144 0.0
H609 H 0.324 0.9588 0.36741 0.0
H610 H 0.4155 0.97012 0.34575 0.0
H611 H 0.38227 0.96413 0.35955 0.0
C612 C 0.49761 0.29301 0.27291 0.0
C613 C 0.48599 0.28937 0.20569 0.0
C614 C 0.49181 0.30537 0.33391 0.0
C615 C 0.46382 0.34739 0.32519 0.0
H616 H 0.48944 0.35724 0.52969 0.0
C617 C 0.48023 0.42231 0.41446 0.0
C618 C 0.49924 0.42497 0.43266 0.0
C619 C 0.47239 0.40447 0.41705 0.0
C620 C 0.48204 0.35467 0.47293 0.0
H621 H 0.45827 0.29308 0.15546 0.0
H622 H 0.4477 0.31398 0.26418 0.0
H623 H 0.48505 0.32501 0.48414 0.0
H624 H 0.52454 0.41122 0.47413 0.0
H625 H 0.51114 0.38002 0.47492 0.0
H626 H 0.46187 0.37686 0.31072 0.0
C627 C 0.46156 0.30797 0.26847 0.0
C628 C 0.47948 0.33622 0.44694 0.0
C629 C 0.46751 0.2959 0.20658 0.0
C630 C 0.50998 0.40955 0.45755 0.0
C631 C 0.50217 0.39171 0.45975 0.0
C632 C 0.46632 0.36574 0.35117 0.0
C633 C 0.47423 0.31414 0.32868 0.0
C634 C 0.47132 0.33242 0.37031 0.0
C635 C 0.48341 0.38888 0.4373 0.0
C636 C 0.47639 0.36963 0.42295 0.0
H637 H 0.51195 0.28813 0.27332 0.0
H638 H 0.502 0.30966 0.3792 0.0
H639 H 0.45763 0.34521 0.26548 0.0
H640 H 0.47154 0.4339 0.39532 0.0
H641 H 0.45784 0.4028 0.40033 0.0
C642 C 0.24453 0.48389 0.2352 0.0
C643 C 0.25699 0.49865 0.22082 0.0
C644 C 0.23433 0.48319 0.30764 0.0
C645 C 0.21568 0.51957 0.44139 0.0
H646 H 0.18073 0.47939 0.48206 0.0
C647 C 0.13858 0.53088 0.40803 0.0
C648 C 0.12545 0.52006 0.4503 0.0
C649 C 0.15764 0.52781 0.41902 0.0
C650 C 0.19045 0.4908 0.47363 0.0
H651 H 0.27113 0.52219 0.27725 0.0
H652 H 0.25422 0.52025 0.40568 0.0
H653 H 0.21261 0.47206 0.44292 0.0
H654 H 0.12204 0.49784 0.53928 0.0
H655 H 0.15544 0.49256 0.5589 0.0
H656 H 0.19349 0.53829 0.47169 0.0
C657 C 0.25144 0.50984 0.35914 0.0
C658 C 0.20874 0.48659 0.45005 0.0
C659 C 0.26136 0.51081 0.28565 0.0
C660 C 0.13183 0.50623 0.50475 0.0
C661 C 0.15095 0.50327 0.51646 0.0
C662 C 0.19758 0.52375 0.4668 0.0
C663 C 0.23662 0.49708 0.36799 0.0
C664 C 0.22102 0.50094 0.42618 0.0
C665 C 0.16409 0.51393 0.4731 0.0
C666 C 0.18434 0.50946 0.47605 0.0
H667 H 0.24136 0.47389 0.18735 0.0
H668 H 0.22329 0.47292 0.31151 0.0
H669 H 0.22462 0.53117 0.42528 0.0
H670 H 0.13415 0.5414 0.36457 0.0
H671 H 0.16729 0.53591 0.3825 0.0
C672 C 0.06697 0.79112 0.16119 0.0
C673 C 0.04779 0.78827 0.14917 0.0
C674 C 0.07685 0.80312 0.10966 0.0
C675 C 0.06938 0.8379 0.93883 0.0
H676 H 0.09444 0.87058 0.09299 0.0
C677 C 0.06901 0.91681 0.88728 0.0
C678 C 0.06336 0.92686 0.95696 0.0
C679 C 0.07548 0.89846 0.89441 0.0
C680 C 0.08751 0.86164 0.04887 0.0
H681 H 0.02427 0.79381 0.06995 0.0
H682 H 0.04098 0.81525 0.98236 0.0
H683 H 0.09029 0.83804 0.12652 0.0
H684 H 0.06099 0.92608 0.08884 0.0
H685 H 0.07167 0.89402 0.10163 0.0
H686 H 0.06471 0.86212 0.86567 0.0
C687 C 0.04884 0.80807 0.02937 0.0
C688 C 0.08541 0.84275 0.06737 0.0
C689 C 0.03912 0.79573 0.07973 0.0
C690 C 0.06538 0.91868 0.03426 0.0
C691 C 0.07163 0.90028 0.04139 0.0
C692 C 0.07113 0.85691 0.92114 0.0
C693 C 0.06748 0.81298 0.04733 0.0
C694 C 0.07523 0.83085 0.01497 0.0
C695 C 0.07622 0.88973 0.97132 0.0
C696 C 0.0792 0.8692 0.97843 0.0
H697 H 0.07389 0.78542 0.21464 0.0
H698 H 0.09136 0.80598 0.12358 0.0
H699 H 0.06208 0.82907 0.89551 0.0
H700 H 0.06784 0.92295 0.82695 0.0
H701 H 0.07923 0.89092 0.83935 0.0
C702 C 0.73296 0.99691 0.07623 0.0
C703 C 0.74738 1.00787 0.10876 0.0
C704 C 0.72378 1.00247 0.00516 0.0
C705 C 0.70989 0.04698 0.92486 0.0
H706 H 0.67712 1.01452 0.80069 0.0
C707 C 0.63181 0.0544 0.93258 0.0
C708 C 0.62061 0.04717 0.8698 0.0
C709 C 0.65124 0.05389 0.92574 0.0
C710 C 0.68632 0.02404 0.8328 0.0
H711 H 0.76511 0.03189 0.08844 0.0
H712 H 0.749 0.04172 0.96339 0.0
H713 H 0.7074 1.00302 0.84513 0.0
H714 H 0.62062 0.03568 0.74727 0.0
H715 H 0.65465 0.03462 0.73514 0.0
H716 H 0.68843 0.06768 0.91604 0.0
C717 C 0.74467 0.02893 0.9931 0.0
C718 C 0.70367 0.01736 0.85881 0.0
C719 C 0.75395 0.02327 0.06428 0.0
C720 C 0.62907 0.04079 0.79742 0.0
C721 C 0.6485 0.04031 0.79035 0.0
C722 C 0.69263 0.05371 0.89825 0.0
C723 C 0.72877 0.0192 0.96568 0.0
C724 C 0.71495 0.02825 0.91065 0.0
C725 C 0.65982 0.04624 0.85569 0.0
C726 C 0.68009 0.04181 0.85752 0.0
H727 H 0.72778 0.98491 0.10952 0.0
H728 H 0.71156 0.99464 0.98649 0.0
H729 H 0.71825 0.05586 0.96413 0.0
H730 H 0.6256 0.05939 0.98894 0.0
H731 H 0.65947 0.05831 0.97788 0.0
C732 C 0.47557 0.75038 0.11074 0.0
C733 C 0.495 0.75269 0.11347 0.0
C734 C 0.4675 0.73878 0.05161 0.0
C735 C 0.481 0.70363 0.88858 0.0
H736 H 0.44843 0.67218 0.01781 0.0
C737 C 0.48303 0.62451 0.84516 0.0
C738 C 0.48414 0.61461 0.91916 0.0
C739 C 0.47674 0.64298 0.84412 0.0
C740 C 0.45757 0.68074 0.98078 0.0
H741 H 0.52108 0.74659 0.05285 0.0
H742 H 0.50749 0.72578 0.95279 0.0
H743 H 0.45187 0.70464 0.05356 0.0
H744 H 0.47882 0.61576 0.0492 0.0
H745 H 0.46873 0.64814 0.04885 0.0
H746 H 0.48847 0.67907 0.82239 0.0
C747 C 0.49808 0.7331 0.99347 0.0
C748 C 0.45928 0.69964 0.00023 0.0
C749 C 0.50602 0.74507 0.05117 0.0
C750 C 0.47798 0.62311 0.99141 0.0
C751 C 0.47203 0.64168 0.99074 0.0
C752 C 0.4797 0.68458 0.87062 0.0
C753 C 0.47888 0.72871 0.99669 0.0
C754 C 0.47204 0.71107 0.95795 0.0
C755 C 0.47179 0.65206 0.9174 0.0
C756 C 0.46889 0.67268 0.92009 0.0
H757 H 0.46684 0.75621 0.15853 0.0
H758 H 0.45258 0.7364 0.05406 0.0
H759 H 0.49031 0.71212 0.85211 0.0
H760 H 0.48749 0.61807 0.78838 0.0
H761 H 0.47638 0.65031 0.78626 0.0
C762 C 0.78766 0.54068 0.05432 0.0
C763 C 0.79323 0.55104 0.12307 0.0
C764 C 0.79802 0.54164 0.98193 0.0
C765 C 0.84276 0.56196 0.89796 0.0
H766 H 0.85427 0.50954 0.86703 0.0
C767 C 0.91784 0.53764 0.83139 0.0
C768 C 0.92364 0.523 0.88289 0.0
C769 C 0.89889 0.54201 0.82319 0.0
C770 C 0.85123 0.52427 0.87452 0.0
H771 H 0.81178 0.57272 0.1667 0.0
H772 H 0.83012 0.57407 0.04304 0.0
H773 H 0.82369 0.51849 0.91565 0.0
H774 H 0.91408 0.50141 0.96563 0.0
H775 H 0.88123 0.50911 0.95252 0.0
H776 H 0.87115 0.56745 0.86595 0.0
C777 C 0.8179 0.56518 0.04304 0.0
C778 C 0.83348 0.5295 0.90111 0.0
C779 C 0.80747 0.56433 0.11477 0.0
C780 C 0.91008 0.51258 0.92459 0.0
C781 C 0.89119 0.51695 0.91645 0.0
C782 C 0.86066 0.55668 0.87282 0.0
C783 C 0.81421 0.55278 0.97801 0.0
C784 C 0.82949 0.54832 0.91927 0.0
C785 C 0.88534 0.5318 0.86617 0.0
C786 C 0.86542 0.53767 0.86665 0.0
H787 H 0.77654 0.53047 0.05901 0.0
H788 H 0.7944 0.53234 0.93206 0.0
H789 H 0.83995 0.57664 0.90827 0.0
H790 H 0.92794 0.54569 0.79703 0.0
H791 H 0.89488 0.55347 0.78372 0.0
C792 C 0.05006 0.22134 0.90822 0.0
C793 C 0.03457 0.23124 0.93867 0.0
C794 C 0.04787 0.20354 0.87377 0.0
C795 C 0.01721 0.16282 0.89219 0.0
H796 H 0.04549 0.14345 0.70846 0.0
C797 C 0.02572 0.08333 0.83286 0.0
C798 C 0.02398 0.07712 0.7515 0.0
C799 C 0.02664 0.10248 0.85096 0.0
C800 C 0.03742 0.14864 0.7597 0.0
H801 H 1.00454 0.23059 0.95342 0.0
H802 H 1.00064 0.1995 0.89285 0.0
H803 H 0.04693 0.17676 0.74154 0.0
H804 H 0.02191 0.08645 0.62543 0.0
H805 H 0.02353 0.11963 0.65712 0.0
H806 H 1.00783 0.13472 0.91098 0.0
C807 C 1.01451 0.2055 0.89587 0.0
C808 C 0.03832 0.16773 0.77888 0.0
C809 C 0.01669 0.22342 0.92945 0.0
C810 C 0.0234 0.09059 0.68878 0.0
C811 C 0.02441 0.1097 0.70686 0.0
C812 C 0.01646 0.14372 0.87357 0.0
C813 C 0.03015 0.1951 0.86992 0.0
C814 C 0.02828 0.17506 0.84557 0.0
C815 C 0.02594 0.11592 0.78818 0.0
C816 C 0.02662 0.13634 0.80736 0.0
H817 H 0.06402 0.22696 0.91525 0.0
H818 H 0.06022 0.19594 0.85483 0.0
H819 H 1.00948 0.16791 0.94459 0.0
H820 H 0.02619 0.07342 0.88282 0.0
H821 H 0.02802 0.10676 0.91425 0.0
C822 C 0.31333 1.0095 0.92507 0.0
C823 C 0.30676 0.02414 0.97455 0.0
C824 C 0.33107 1.0105 0.88868 0.0
C825 C 0.37663 0.03468 0.92028 0.0
H826 H 0.39036 1.00946 0.71932 0.0
C827 C 0.45421 0.02255 0.83496 0.0
C828 C 0.45937 0.02349 0.75213 0.0
C829 C 0.43533 0.02291 0.85795 0.0
C830 C 0.3868 0.01675 0.77523 0.0
H831 H 0.31311 0.05162 0.02181 0.0
H832 H 0.34354 0.05391 0.95518 0.0
H833 H 0.35765 1.01082 0.76001 0.0
H834 H 0.4485 0.0257 0.62864 0.0
H835 H 0.4158 0.02671 0.66834 0.0
H836 H 0.40562 0.04106 0.93458 0.0
C837 C 0.33536 0.04137 0.94593 0.0
C838 C 0.36797 0.01734 0.79915 0.0
C839 C 0.31776 0.04025 0.98299 0.0
C840 C 0.44512 0.02481 0.69294 0.0
C841 C 0.42626 0.02529 0.71588 0.0
C842 C 0.39539 0.03419 0.89614 0.0
C843 C 0.34263 0.02621 0.90085 0.0
C844 C 0.36258 0.02626 0.87233 0.0
C845 C 0.42103 0.02437 0.79879 0.0
C846 C 0.40084 0.02511 0.82356 0.0
H847 H 0.30531 0.99674 0.91929 0.0
H848 H 0.33611 0.99845 0.8552 0.0
H849 H 0.37324 0.04139 0.97778 0.0
H850 H 0.46476 0.02136 0.8823 0.0
H851 H 0.43197 0.0218 0.92228 0.0
C852 C 0.52691 0.31692 0.92498 0.0
C853 C 0.50906 0.30926 0.93722 0.0
C854 C 0.52897 0.3345 0.88807 0.0
C855 C 0.50444 0.37144 0.76788 0.0
H856 H 0.53614 0.40526 0.89088 0.0
C857 C 0.51774 0.44871 0.67066 0.0
C858 C 0.51791 0.46224 0.73341 0.0
C859 C 0.51697 0.42959 0.68905 0.0
C860 C 0.52717 0.39605 0.85592 0.0
H861 H 0.47951 0.31345 0.91552 0.0
H862 H 0.48308 0.34386 0.84978 0.0
H863 H 0.53478 0.37237 0.92868 0.0
H864 H 0.51724 0.46601 0.86507 0.0
H865 H 0.51591 0.43277 0.89697 0.0
H866 H 0.4966 0.39527 0.69596 0.0
C867 C 0.49552 0.3364 0.86883 0.0
C868 C 0.52658 0.37709 0.87694 0.0
C869 C 0.49345 0.31895 0.90651 0.0
C870 C 0.51714 0.45608 0.81502 0.0
C871 C 0.51652 0.43696 0.83339 0.0
C872 C 0.50517 0.39041 0.74629 0.0
C873 C 0.51324 0.34472 0.86175 0.0
C874 C 0.51504 0.36455 0.83393 0.0
C875 C 0.51654 0.42343 0.77073 0.0
C876 C 0.51634 0.40303 0.79087 0.0
H877 H 0.53917 0.30992 0.94885 0.0
H878 H 0.54285 0.34038 0.88265 0.0
H879 H 0.49548 0.36218 0.73311 0.0
H880 H 0.51846 0.45285 0.60712 0.0
H881 H 0.51716 0.41961 0.6392 0.0
C882 C 0.22747 0.49339 0.91528 0.0
C883 C 0.23697 0.5099 0.93593 0.0
C884 C 0.20977 0.49405 0.87875 0.0
C885 C 0.17399 0.52594 0.78441 0.0
H886 H 0.13965 0.48916 0.87134 0.0
C887 C 0.09637 0.52138 0.67802 0.0
C888 C 0.08279 0.51621 0.73596 0.0
C889 C 0.11545 0.52092 0.6976 0.0
C890 C 0.14893 0.4997 0.8469 0.0
H891 H 0.23568 0.54005 0.93184 0.0
H892 H 0.20468 0.54135 0.86887 0.0
H893 H 0.17236 0.48793 0.90938 0.0
H894 H 0.07883 0.50669 0.86056 0.0
H895 H 0.11196 0.50579 0.89446 0.0
H896 H 0.15029 0.53816 0.72462 0.0
C897 C 0.21099 0.5278 0.87921 0.0
C898 C 0.1679 0.49878 0.86764 0.0
C899 C 0.22884 0.52711 0.91503 0.0
C900 C 0.08884 0.51063 0.81406 0.0
C901 C 0.10794 0.51 0.83335 0.0
C902 C 0.15494 0.52692 0.76395 0.0
C903 C 0.20089 0.51127 0.86323 0.0
C904 C 0.18076 0.51191 0.83704 0.0
C905 C 0.12159 0.515 0.77522 0.0
C906 C 0.14206 0.51388 0.79542 0.0
H907 H 0.23335 0.47994 0.9314 0.0
H908 H 0.20276 0.481 0.86548 0.0
H909 H 0.1834 0.53622 0.75888 0.0
H910 H 0.09228 0.52592 0.61746 0.0
H911 H 0.12541 0.52502 0.65131 0.0
C912 C 0.99934 0.81932 0.38246 0.0
C913 C 1.01565 0.80887 0.39644 0.0
C914 C 0.99735 0.83721 0.41621 0.0
C915 C 1.01372 0.87002 0.57331 0.0
H916 H 1.00659 0.90808 0.40771 0.0
C917 C 0.02388 0.9485 0.64825 0.0
C918 C 1.01355 0.96189 0.6046 0.0
C919 C 0.0232 0.92959 0.62638 0.0
C920 C 1.00818 0.89775 0.45547 0.0
H921 H 0.04225 0.8085 0.45939 0.0
H922 H 0.03838 0.83947 0.52177 0.0
H923 H 1.00573 0.87526 0.36929 0.0
H924 H 0.99411 0.96589 0.50458 0.0
H925 H 0.99215 0.93292 0.4686 0.0
H926 H 1.01566 0.89229 0.66018 0.0
C927 C 0.02722 0.83387 0.48428 0.0
C928 C 1.00777 0.87887 0.43308 0.0
C929 C 0.02939 0.81614 0.44907 0.0
C930 C 1.00239 0.95593 0.53889 0.0
C931 C 1.00139 0.93695 0.51801 0.0
C932 C 1.01373 0.88892 0.59618 0.0
C933 C 1.01149 0.84487 0.46575 0.0
C934 C 1.01069 0.8648 0.49154 0.0
C935 C 1.01186 0.92344 0.56109 0.0
C936 C 1.01116 0.90314 0.53746 0.0
H937 H 0.98874 0.81419 0.34072 0.0
H938 H 0.98506 0.84536 0.40117 0.0
H939 H 1.01595 0.85946 0.6197 0.0
H940 H 0.03282 0.95269 0.69852 0.0
H941 H 0.03186 0.91989 0.66016 0.0
C942 C 0.71825 0.99034 0.41969 0.0
C943 C 0.72789 1.00663 0.39757 0.0
C944 C 0.70053 0.99143 0.45598 0.0
C945 C 0.65993 0.02347 0.46231 0.0
H946 H 0.64005 0.98741 0.61577 0.0
C947 C 0.58038 0.0165 0.51566 0.0
C948 C 0.57416 1.01355 0.59611 0.0
C949 C 0.59946 1.01547 0.49661 0.0
C950 C 0.64536 0.99772 0.57338 0.0
H951 H 0.72692 0.03681 0.39808 0.0
H952 H 0.6963 0.03885 0.46394 0.0
H953 H 0.67323 0.98681 0.58159 0.0
H954 H 0.58301 1.00608 0.71832 0.0
H955 H 0.61621 1.00432 0.68566 0.0
H956 H 0.63221 0.03456 0.45468 0.0
C957 C 0.70223 0.02517 0.45255 0.0
C958 C 0.66442 0.99726 0.55317 0.0
C959 C 0.71992 0.02405 0.41611 0.0
C960 C 0.5874 1.00889 0.6563 0.0
C961 C 0.60645 1.00767 0.6372 0.0
C962 C 0.64092 0.02394 0.48247 0.0
C963 C 0.69198 1.00888 0.47035 0.0
C964 C 0.67196 1.01004 0.49683 0.0
C965 C 0.61283 1.01128 0.55735 0.0
C966 C 0.63328 1.01095 0.53763 0.0
H967 H 0.7239 0.97676 0.40397 0.0
H968 H 0.69307 0.97857 0.4679 0.0
H969 H 0.66507 0.03341 0.41785 0.0
H970 H 0.57055 0.02002 0.46766 0.0
H971 H 0.60372 0.01791 0.43401 0.0
C972 C 0.50232 0.7206 0.40463 0.0
C973 C 0.51807 0.73079 0.37914 0.0
C974 C 0.5043 0.70305 0.44139 0.0
C975 C 0.53724 0.66327 0.44707 0.0
H976 H 0.50283 0.64404 0.60929 0.0
C977 C 0.52963 0.58381 0.51058 0.0
C978 C 0.52661 0.57804 0.59173 0.0
C979 C 0.52945 0.60285 0.48997 0.0
C980 C 0.5127 0.64917 0.56449 0.0
H981 H 0.5483 0.73091 0.37648 0.0
H982 H 0.55183 0.70039 0.44226 0.0
H983 H 0.50156 0.67693 0.57135 0.0
H984 H 0.52101 0.58803 0.71454 0.0
H985 H 0.52093 0.62099 0.67922 0.0
H986 H 0.54846 0.63555 0.44055 0.0
C987 C 0.53789 0.70586 0.43261 0.0
C988 C 0.51185 0.66806 0.54212 0.0
C989 C 0.5359 0.72351 0.39607 0.0
C990 C 0.52344 0.59185 0.65154 0.0
C991 C 0.52324 0.61085 0.63103 0.0
C992 C 0.53808 0.64438 0.46934 0.0
C993 C 0.52209 0.69514 0.45357 0.0
C994 C 0.52398 0.67537 0.4825 0.0
C995 C 0.52622 0.61666 0.5499 0.0
C996 C 0.52571 0.63698 0.52785 0.0
H997 H 0.48839 0.72582 0.39235 0.0
H998 H 0.49179 0.69526 0.45607 0.0
H999 H 0.54668 0.66827 0.40025 0.0
H1000 H 0.53205 0.57363 0.46265 0.0
H1001 H 0.53153 0.60671 0.42662 0.0
C1002 C 0.81962 0.54296 0.4472 0.0
C1003 C 0.81211 0.52905 0.39633 0.0
C1004 C 0.83743 0.54079 0.48194 0.0
C1005 C 0.88181 0.51634 0.43765 0.0
H1006 H 0.89747 0.53654 0.64669 0.0
C1007 C 0.95985 0.52816 0.51539 0.0
C1008 C 0.96595 0.52402 0.59516 0.0
C1009 C 0.94077 0.52814 0.49589 0.0
C1010 C 0.89333 0.53067 0.58845 0.0
H1011 H 0.81695 0.50175 0.34383 0.0
H1012 H 0.84776 0.4976 0.40622 0.0
H1013 H 0.86434 0.53641 0.61055 0.0
H1014 H 0.95655 0.51654 0.7169 0.0
H1015 H 0.92339 0.51616 0.68248 0.0
H1016 H 0.91072 0.51049 0.41565 0.0
C1017 C 0.84007 0.51031 0.4189 0.0
C1018 C 0.87431 0.53075 0.56733 0.0
C1019 C 0.82229 0.51251 0.38423 0.0
C1020 C 0.95241 0.51996 0.65501 0.0
C1021 C 0.93334 0.51985 0.63538 0.0
C1022 C 0.90079 0.51629 0.4587 0.0
C1023 C 0.84819 0.5247 0.46579 0.0
C1024 C 0.86828 0.52366 0.49136 0.0
C1025 C 0.92722 0.52391 0.5555 0.0
C1026 C 0.90686 0.52358 0.53415 0.0
H1027 H 0.81225 0.55605 0.45557 0.0
H1028 H 0.84323 0.55225 0.51699 0.0
H1029 H 0.87783 0.51101 0.3781 0.0
H1030 H 0.96983 0.5314 0.46771 0.0
H1031 H 0.93662 0.5316 0.43401 0.0
loop_
_geom_bond_atom_site_label_1
_geom_bond_atom_site_label_2
_geom_bond_distance
_geom_bond_site_symmetry_2
_ccdc_geom_bond_type
H0 C1 0.949 . S
C1 H0 0.949 . S
C1 C2 1.395 . S
C1 C3 1.391 . S
C2 C1 1.395 . S
C2 C5 1.390 . S
C3 C1 1.391 . S
C3 C7 1.387 . S
C3 C8 1.491 . S
H4 C5 0.950 . S
C5 C2 1.390 . S
C5 H4 0.950 . S
C5 C6 1.378 . S
C6 C5 1.378 . S
C6 C7 1.409 . S
C7 C3 1.387 . S
C7 C6 1.409 . S
C7 H9 0.951 . S
C8 C3 1.491 . S
C8 C10 1.382 . S
C8 C12 1.404 . S
H9 C7 0.951 . S
C10 C8 1.382 . S
C10 C11 1.390 . S
C10 H15 0.949 . S
C11 C10 1.390 . S
C11 C16 1.399 . S
C12 C8 1.404 . S
C12 H13 0.950 . S
C12 C14 1.375 . S
H13 C12 0.950 . S
C14 C12 1.375 . S
C14 C16 1.382 . S
C14 H18 0.950 . S
H15 C10 0.949 . S
C16 C11 1.399 . S
C16 C14 1.382 . S
C16 H17 0.952 . S
H17 C16 0.952 . S
H18 C14 0.950 . S
H19 C20 0.949 . S
C20 H19 0.949 . S
C20 C21 1.395 . S
C20 C22 1.391 . S
C21 C20 1.395 . S
C21 C24 1.390 . S
C22 C20 1.391 . S
C22 C26 1.387 . S
C22 C27 1.491 . S
H23 C24 0.945 1_455 S
C24 C21 1.390 . S
C24 H23 0.945 1_655 S
C24 C25 1.378 . S
C25 C24 1.378 . S
C25 C26 1.409 . S
C26 C22 1.387 . S
C26 C25 1.409 . S
C26 H28 0.951 . S
C27 C22 1.491 . S
C27 C29 1.382 . S
C27 C31 1.404 . S
H28 C26 0.951 . S
C29 C27 1.382 . S
C29 C30 1.390 . S
C29 H34 0.949 1_655 S
C30 C29 1.390 . S
C30 C35 1.399 . S
C31 C27 1.404 . S
C31 H32 0.950 . S
C31 C33 1.375 . S
H32 C31 0.950 . S
C33 C31 1.375 . S
C33 C35 1.382 . S
C33 H37 0.950 . S
H34 C29 0.949 1_455 S
C35 C30 1.399 . S
C35 C33 1.382 . S
C35 H36 0.952 . S
H36 C35 0.952 . S
H37 C33 0.950 . S
H38 C39 0.949 . S
C39 H38 0.949 . S
C39 C40 1.395 . S
C39 C41 1.391 . S
C40 C39 1.395 . S
C40 C43 1.390 . S
C41 C39 1.391 . S
C41 C45 1.387 . S
C41 C46 1.491 . S
H42 C43 0.961 . S
C43 C40 1.390 . S
C43 H42 0.961 . S
C43 C44 1.378 . S
C44 C43 1.378 . S
C44 C45 1.409 . S
C45 C41 1.387 . S
C45 C44 1.409 . S
C45 H47 0.951 . S
C46 C41 1.491 . S
C46 C48 1.382 . S
C46 C50 1.404 . S
H47 C45 0.951 . S
C48 C46 1.382 . S
C48 C49 1.390 . S
C48 H53 0.949 1_565 S
C49 C48 1.390 . S
C49 C54 1.399 . S
C50 C46 1.404 . S
C50 H51 0.950 . S
C50 C52 1.375 . S
H51 C50 0.950 . S
C52 C50 1.375 . S
C52 C54 1.382 . S
C52 H56 0.950 . S
H53 C48 0.949 1_545 S
C54 C49 1.399 . S
C54 C52 1.382 . S
C54 H55 0.952 . S
H55 C54 0.952 . S
H56 C52 0.950 . S
H57 C58 0.949 . S
C58 H57 0.949 . S
C58 C59 1.395 . S
C58 C60 1.391 . S
C59 C58 1.395 . S
C59 C62 1.390 . S
C60 C58 1.391 . S
C60 C64 1.387 . S
C60 C65 1.491 . S
H61 C62 0.950 . S
C62 C59 1.390 . S
C62 H61 0.950 . S
C62 C63 1.378 . S
C63 C62 1.378 . S
C63 C64 1.409 . S
C64 C60 1.387 . S
C64 C63 1.409 . S
C64 H66 0.951 . S
C65 C60 1.491 . S
C65 C67 1.382 . S
C65 C69 1.404 . S
H66 C64 0.951 . S
C67 C65 1.382 . S
C67 C68 1.390 . S
C67 H72 0.949 . S
C68 C67 1.390 . S
C68 C73 1.399 . S
C69 C65 1.404 . S
C69 H70 0.950 . S
C69 C71 1.375 . S
H70 C69 0.950 . S
C71 C69 1.375 . S
C71 C73 1.382 . S
C71 H75 0.950 . S
H72 C67 0.949 . S
C73 C68 1.399 . S
C73 C71 1.382 . S
C73 H74 0.952 . S
H74 C73 0.952 . S
H75 C71 0.950 . S
H76 C77 0.949 . S
C77 H76 0.949 . S
C77 C78 1.395 . S
C77 C79 1.391 1_554 S
C78 C77 1.395 . S
C78 C81 1.390 1_554 S
C79 C77 1.391 1_556 S
C79 C83 1.387 . S
C79 C84 1.491 . S
H80 C81 0.950 . S
C81 C78 1.390 1_556 S
C81 H80 0.950 . S
C81 C82 1.378 . S
C82 C81 1.378 . S
C82 C83 1.409 . S
C83 C79 1.387 . S
C83 C82 1.409 . S
C83 H85 0.951 . S
C84 C79 1.491 . S
C84 C86 1.382 1_556 S
C84 C88 1.404 . S
H85 C83 0.951 . S
C86 C84 1.382 1_554 S
C86 C87 1.390 . S
C86 H91 0.949 . S
C87 C86 1.390 . S
C87 C92 1.399 1_554 S
C88 C84 1.404 . S
C88 H89 0.950 . S
C88 C90 1.375 . S
H89 C88 0.950 . S
C90 C88 1.375 . S
C90 C92 1.382 . S
C90 H94 0.950 . S
H91 C86 0.949 . S
C92 C87 1.399 1_556 S
C92 C90 1.382 . S
C92 H93 0.952 . S
H93 C92 0.952 . S
H94 C90 0.950 . S
H95 C96 0.949 . S
C96 H95 0.949 . S
C96 C97 1.395 . S
C96 C98 1.391 1_554 S
C97 C96 1.395 . S
C97 C100 1.390 1_554 S
C98 C96 1.391 1_556 S
C98 C102 1.387 . S
C98 C103 1.491 . S
H99 C100 0.950 . S
C100 C97 1.390 1_556 S
C100 H99 0.950 . S
C100 C101 1.378 . S
C101 C100 1.378 . S
C101 C102 1.409 . S
C102 C98 1.387 . S
C102 C101 1.409 . S
C102 H104 0.951 . S
C103 C98 1.491 . S
C103 C105 1.382 1_556 S
C103 C107 1.404 1_455 S
H104 C102 0.951 . S
C105 C103 1.382 1_554 S
C105 C106 1.390 . S
C105 H110 0.949 . S
C106 C105 1.390 . S
C106 C111 1.399 1_454 S
C107 C103 1.404 1_655 S
C107 H108 0.950 . S
C107 C109 1.375 . S
H108 C107 0.950 . S
C109 C107 1.375 . S
C109 C111 1.382 . S
C109 H113 0.950 . S
H110 C105 0.949 . S
C111 C106 1.399 1_656 S
C111 C109 1.382 . S
C111 H112 0.952 . S
H112 C111 0.952 . S
H113 C109 0.950 . S
H114 C115 0.949 . S
C115 H114 0.949 . S
C115 C116 1.395 . S
C115 C117 1.391 1_554 S
C116 C115 1.395 . S
C116 C119 1.390 1_554 S
C117 C115 1.391 1_556 S
C117 C121 1.387 . S
C117 C122 1.491 . S
H118 C119 0.950 . S
C119 C116 1.390 1_556 S
C119 H118 0.950 . S
C119 C120 1.378 . S
C120 C119 1.378 . S
C120 C121 1.409 . S
C121 C117 1.387 . S
C121 C120 1.409 . S
C121 H123 0.951 . S
C122 C117 1.491 . S
C122 C124 1.382 1_556 S
C122 C126 1.404 1_545 S
H123 C121 0.951 . S
C124 C122 1.382 1_554 S
C124 C125 1.390 . S
C124 H129 0.949 . S
C125 C124 1.390 . S
C125 C130 1.399 1_544 S
C126 C122 1.404 1_565 S
C126 H127 0.950 . S
C126 C128 1.375 . S
H127 C126 0.950 . S
C128 C126 1.375 . S
C128 C130 1.382 . S
C128 H132 0.950 . S
H129 C124 0.949 . S
C130 C125 1.399 1_566 S
C130 C128 1.382 . S
C130 H131 0.952 . S
H131 C130 0.952 . S
H132 C128 0.950 . S
H133 C134 0.949 . S
C134 H133 0.949 . S
C134 C135 1.395 . S
C134 C136 1.391 1_554 S
C135 C134 1.395 . S
C135 C138 1.390 1_554 S
C136 C134 1.391 1_556 S
C136 C140 1.387 . S
C136 C141 1.491 . S
H137 C138 0.950 . S
C138 C135 1.390 1_556 S
C138 H137 0.950 . S
C138 C139 1.378 . S
C139 C138 1.378 . S
C139 C140 1.409 . S
C140 C136 1.387 . S
C140 C139 1.409 . S
C140 H142 0.951 . S
C141 C136 1.491 . S
C141 C143 1.382 1_556 S
C141 C145 1.404 . S
H142 C140 0.951 . S
C143 C141 1.382 1_554 S
C143 C144 1.390 . S
C143 H148 0.949 . S
C144 C143 1.390 . S
C144 C149 1.399 1_554 S
C145 C141 1.404 . S
C145 H146 0.950 . S
C145 C147 1.375 . S
H146 C145 0.950 . S
C147 C145 1.375 . S
C147 C149 1.382 . S
C147 H151 0.950 . S
H148 C143 0.949 . S
C149 C144 1.399 1_556 S
C149 C147 1.382 . S
C149 H150 0.952 . S
H150 C149 0.952 . S
H151 C147 0.950 . S
Gd152 C155 2.818 . S
Gd152 O172 2.377 . S
Gd152 O174 2.448 . S
Gd152 O175 2.506 . S
Gd152 O176 2.435 . S
Gd152 O177 2.717 1_565 S
Gd152 O179 2.395 1_565 S
Gd152 O183 2.327 1_455 S
Gd153 C164 2.818 . S
Gd153 O173 2.395 1_545 S
Gd153 O177 2.327 1_655 S
Gd153 O178 2.377 . S
Gd153 O180 2.448 . S
Gd153 O181 2.506 1_655 S
Gd153 O182 2.435 . S
Gd153 O183 2.717 1_545 S
C154 O172 1.240 1_655 S
C154 O173 1.240 . S
C155 Gd152 2.818 . S
C155 C156 1.510 . S
C155 O174 1.249 . S
C155 O175 1.252 . S
C156 C155 1.510 . S
C156 C157 1.404 . S
C156 C158 1.352 . S
C157 C156 1.404 . S
C157 C161 1.389 . S
C157 H184 0.930 . S
C158 C156 1.352 . S
C158 C160 1.374 . S
C158 H185 0.931 1_455 S
C159 C160 1.359 . S
C159 C161 1.364 . S
C160 C158 1.374 . S
C160 C159 1.359 . S
C160 H186 0.931 1_455 S
C161 C157 1.389 . S
C161 C159 1.364 . S
C161 H187 0.931 . S
C162 O176 1.256 1_545 S
C162 O177 1.257 . S
C163 O178 1.240 1_455 S
C163 O179 1.240 . S
C164 Gd153 2.818 . S
C164 C165 1.510 . S
C164 O180 1.249 . S
C164 O181 1.252 1_655 S
C165 C164 1.510 . S
C165 C166 1.404 . S
C165 C167 1.352 1_655 S
C166 C165 1.404 . S
C166 C170 1.389 . S
C166 H188 0.930 . S
C167 C165 1.352 1_455 S
C167 C169 1.374 . S
C167 H189 0.931 . S
C168 C169 1.359 1_655 S
C168 C170 1.364 . S
C169 C167 1.374 . S
C169 C168 1.359 1_455 S
C169 H190 0.931 . S
C170 C166 1.389 . S
C170 C168 1.364 . S
C170 H191 0.931 . S
C171 O182 1.256 . S
C171 O183 1.257 1_545 S
O172 Gd152 2.377 . S
O172 C154 1.240 1_455 S
O173 Gd153 2.395 1_565 S
O173 C154 1.240 . S
O174 Gd152 2.448 . S
O174 C155 1.249 . S
O175 Gd152 2.506 . S
O175 C155 1.252 . S
O176 Gd152 2.435 . S
O176 C162 1.256 1_565 S
O177 Gd152 2.717 1_545 S
O177 Gd153 2.327 1_455 S
O177 C162 1.257 . S
O178 Gd153 2.377 . S
O178 C163 1.240 1_655 S
O179 Gd152 2.395 1_545 S
O179 C163 1.240 . S
O180 Gd153 2.448 . S
O180 C164 1.249 . S
O181 Gd153 2.506 1_455 S
O181 C164 1.252 1_455 S
O182 Gd153 2.435 . S
O182 C171 1.256 . S
O183 Gd152 2.327 1_655 S
O183 Gd153 2.717 1_565 S
O183 C171 1.257 1_565 S
H184 C157 0.930 . S
H185 C158 0.931 1_655 S
H186 C160 0.931 1_655 S
H187 C161 0.931 . S
H188 C166 0.930 . S
H189 C167 0.931 . S
H190 C169 0.931 . S
H191 C170 0.931 . S
Gd192 C195 2.818 . S
Gd192 O212 2.377 . S
Gd192 O214 2.448 . S
Gd192 O215 2.506 . S
Gd192 O216 2.435 . S
Gd192 O217 2.717 . S
Gd192 O219 2.395 . S
Gd192 O223 2.327 1_545 S
Gd193 C204 2.818 . S
Gd193 O213 2.395 . S
Gd193 O217 2.327 1_565 S
Gd193 O218 2.377 . S
Gd193 O220 2.448 . S
Gd193 O221 2.506 1_565 S
Gd193 O222 2.435 . S
Gd193 O223 2.717 . S
C194 O212 1.240 1_565 S
C194 O213 1.240 . S
C195 Gd192 2.818 . S
C195 C196 1.510 . S
C195 O214 1.249 . S
C195 O215 1.252 . S
C196 C195 1.510 . S
C196 C197 1.404 . S
C196 C198 1.352 . S
C197 C196 1.404 . S
C197 C201 1.389 . S
C197 H224 0.930 . S
C198 C196 1.352 . S
C198 C200 1.374 . S
C198 H225 0.931 1_545 S
C199 C200 1.359 . S
C199 C201 1.364 . S
C200 C198 1.374 . S
C200 C199 1.359 . S
C200 H226 0.931 1_545 S
C201 C197 1.389 . S
C201 C199 1.364 . S
C201 H227 0.931 . S
C202 O216 1.256 . S
C202 O217 1.257 . S
C203 O218 1.240 1_545 S
C203 O219 1.240 . S
C204 Gd193 2.818 . S
C204 C205 1.510 . S
C204 O220 1.249 . S
C204 O221 1.252 1_565 S
C205 C204 1.510 . S
C205 C206 1.404 . S
C205 C207 1.352 1_565 S
C206 C205 1.404 . S
C206 C210 1.389 . S
C206 H228 0.930 . S
C207 C205 1.352 1_545 S
C207 C209 1.374 . S
C207 H229 0.931 . S
C208 C209 1.359 1_565 S
C208 C210 1.364 . S
C209 C207 1.374 . S
C209 C208 1.359 1_545 S
C209 H230 0.931 . S
C210 C206 1.389 . S
C210 C208 1.364 . S
C210 H231 0.931 . S
C211 O222 1.256 . S
C211 O223 1.257 . S
O212 Gd192 2.377 . S
O212 C194 1.240 1_545 S
O213 Gd193 2.395 . S
O213 C194 1.240 . S
O214 Gd192 2.448 . S
O214 C195 1.249 . S
O215 Gd192 2.506 . S
O215 C195 1.252 . S
O216 Gd192 2.435 . S
O216 C202 1.256 . S
O217 Gd192 2.717 . S
O217 Gd193 2.327 1_545 S
O217 C202 1.257 . S
O218 Gd193 2.377 . S
O218 C203 1.240 1_565 S
O219 Gd192 2.395 . S
O219 C203 1.240 . S
O220 Gd193 2.448 . S
O220 C204 1.249 . S
O221 Gd193 2.506 1_545 S
O221 C204 1.252 1_545 S
O222 Gd193 2.435 . S
O222 C211 1.256 . S
O223 Gd192 2.327 1_565 S
O223 Gd193 2.717 . S
O223 C211 1.257 . S
H224 C197 0.930 . S
H225 C198 0.931 1_565 S
H226 C200 0.931 1_565 S
H227 C201 0.931 . S
H228 C206 0.930 . S
H229 C207 0.931 . S
H230 C209 0.931 . S
H231 C210 0.931 . S
Gd232 C235 2.818 . S
Gd232 O252 2.377 . S
Gd232 O254 2.448 . S
Gd232 O255 2.506 . S
Gd232 O256 2.435 . S
Gd232 O257 2.717 . S
Gd232 O259 2.395 . S
Gd232 O263 2.327 . S
Gd233 C244 2.818 . S
Gd233 O253 2.395 . S
Gd233 O257 2.327 . S
Gd233 O258 2.377 . S
Gd233 O260 2.448 . S
Gd233 O261 2.506 . S
Gd233 O262 2.435 . S
Gd233 O263 2.717 . S
C234 O252 1.240 . S
C234 O253 1.240 . S
C235 Gd232 2.818 . S
C235 C236 1.510 . S
C235 O254 1.249 . S
C235 O255 1.252 . S
C236 C235 1.510 . S
C236 C237 1.404 . S
C236 C238 1.352 . S
C237 C236 1.404 . S
C237 C241 1.389 . S
C237 H264 0.930 . S
C238 C236 1.352 . S
C238 C240 1.374 . S
C238 H265 0.931 . S
C239 C240 1.359 . S
C239 C241 1.364 . S
C240 C238 1.374 . S
C240 C239 1.359 . S
C240 H266 0.931 . S
C241 C237 1.389 . S
C241 C239 1.364 . S
C241 H267 0.931 . S
C242 O256 1.256 . S
C242 O257 1.257 . S
C243 O258 1.240 . S
C243 O259 1.240 . S
C244 Gd233 2.818 . S
C244 C245 1.510 . S
C244 O260 1.249 . S
C244 O261 1.252 . S
C245 C244 1.510 . S
C245 C246 1.404 . S
C245 C247 1.352 . S
C246 C245 1.404 . S
C246 C250 1.389 . S
C246 H268 0.930 . S
C247 C245 1.352 . S
C247 C249 1.374 . S
C247 H269 0.931 . S
C248 C249 1.359 . S
C248 C250 1.364 . S
C249 C247 1.374 . S
C249 C248 1.359 . S
C249 H270 0.931 . S
C250 C246 1.389 . S
C250 C248 1.364 . S
C250 H271 0.931 . S
C251 O262 1.256 . S
C251 O263 1.257 . S
O252 Gd232 2.377 . S
O252 C234 1.240 . S
O253 Gd233 2.395 . S
O253 C234 1.240 . S
O254 Gd232 2.448 . S
O254 C235 1.249 . S
O255 Gd232 2.506 . S
O255 C235 1.252 . S
O256 Gd232 2.435 . S
O256 C242 1.256 . S
O257 Gd232 2.717 . S
O257 Gd233 2.327 . S
O257 C242 1.257 . S
O258 Gd233 2.377 . S
O258 C243 1.240 . S
O259 Gd232 2.395 . S
O259 C243 1.240 . S
O260 Gd233 2.448 . S
O260 C244 1.249 . S
O261 Gd233 2.506 . S
O261 C244 1.252 . S
O262 Gd233 2.435 . S
O262 C251 1.256 . S
O263 Gd232 2.327 . S
O263 Gd233 2.717 . S
O263 C251 1.257 . S
H264 C237 0.930 . S
H265 C238 0.931 . S
H266 C240 0.931 . S
H267 C241 0.931 . S
H268 C246 0.930 . S
H269 C247 0.931 . S
H270 C249 0.931 . S
H271 C250 0.931 . S
Gd272 C275 2.818 . S
Gd272 O292 2.377 . S
Gd272 O294 2.448 . S
Gd272 O295 2.506 . S
Gd272 O296 2.435 . S
Gd272 O297 2.717 1_655 S
Gd272 O299 2.395 1_655 S
Gd272 O303 2.322 1_655 S
Gd273 C284 2.818 . S
Gd273 O293 2.395 1_455 S
Gd273 O297 2.327 . S
Gd273 O298 2.377 . S
Gd273 O300 2.448 . S
Gd273 O301 2.506 . S
Gd273 O302 2.435 . S
Gd273 O303 2.729 . S
C274 O292 1.240 . S
C274 O293 1.240 . S
C275 Gd272 2.818 . S
C275 C276 1.510 . S
C275 O294 1.249 . S
C275 O295 1.252 . S
C276 C275 1.510 . S
C276 C277 1.404 . S
C276 C278 1.352 . S
C277 C276 1.404 . S
C277 C281 1.389 . S
C277 H304 0.930 . S
C278 C276 1.352 . S
C278 C280 1.374 . S
C278 H305 0.931 . S
C279 C280 1.359 . S
C279 C281 1.364 . S
C280 C278 1.374 . S
C280 C279 1.359 . S
C280 H306 0.931 . S
C281 C277 1.389 . S
C281 C279 1.364 . S
C281 H307 0.931 . S
C282 O296 1.256 1_455 S
C282 O297 1.257 . S
C283 O298 1.240 . S
C283 O299 1.240 . S
C284 Gd273 2.818 . S
C284 C285 1.510 . S
C284 O300 1.249 . S
C284 O301 1.252 . S
C285 C284 1.510 . S
C285 C286 1.404 . S
C285 C287 1.352 . S
C286 C285 1.404 . S
C286 C290 1.389 . S
C286 H308 0.930 . S
C287 C285 1.352 . S
C287 C289 1.374 . S
C287 H309 0.931 . S
C288 C289 1.359 . S
C288 C290 1.364 . S
C289 C287 1.374 . S
C289 C288 1.359 . S
C289 H310 0.931 . S
C290 C286 1.389 . S
C290 C288 1.364 . S
C290 H311 0.931 . S
C291 O302 1.256 . S
C291 O303 1.266 . S
O292 Gd272 2.377 . S
O292 C274 1.240 . S
O293 Gd273 2.395 1_655 S
O293 C274 1.240 . S
O294 Gd272 2.448 . S
O294 C275 1.249 . S
O295 Gd272 2.506 . S
O295 C275 1.252 . S
O296 Gd272 2.435 . S
O296 C282 1.256 1_655 S
O297 Gd272 2.717 1_455 S
O297 Gd273 2.327 . S
O297 C282 1.257 . S
O298 Gd273 2.377 . S
O298 C283 1.240 . S
O299 Gd272 2.395 1_455 S
O299 C283 1.240 . S
O300 Gd273 2.448 . S
O300 C284 1.249 . S
O301 Gd273 2.506 . S
O301 C284 1.252 . S
O302 Gd273 2.435 . S
O302 C291 1.256 . S
O303 Gd272 2.322 1_455 S
O303 Gd273 2.729 . S
O303 C291 1.266 . S
H304 C277 0.930 . S
H305 C278 0.931 . S
H306 C280 0.931 . S
H307 C281 0.931 . S
H308 C286 0.930 . S
H309 C287 0.931 . S
H310 C289 0.931 . S
H311 C290 0.931 . S
C312 C313 1.349 1_565 S
C312 C314 1.327 . S
C312 H337 0.950 . S
C313 C312 1.349 1_545 S
C313 C329 1.349 . S
C314 C312 1.327 . S
C314 C333 1.429 1_565 S
C314 H338 0.950 . S
C315 C332 1.574 . S
C315 C334 1.368 . S
C315 H339 0.949 . S
H316 C320 0.949 . S
C317 C318 1.349 . S
C317 C319 1.327 . S
C317 H340 0.950 . S
C318 C317 1.349 . S
C318 C330 1.349 1_545 S
C319 C317 1.327 . S
C319 C335 1.429 . S
C319 H341 0.950 . S
C320 H316 0.949 . S
C320 C328 1.574 . S
C320 C336 1.368 1_565 S
H321 C329 0.950 . S
H322 C327 0.950 . S
H323 C328 0.949 . S
H324 C330 0.950 . S
H325 C331 0.950 . S
H326 C332 0.949 . S
C327 H322 0.950 . S
C327 C329 1.327 . S
C327 C333 1.429 . S
C328 C320 1.574 . S
C328 H323 0.949 . S
C328 C334 1.368 1_565 S
C329 C313 1.349 . S
C329 H321 0.950 . S
C329 C327 1.327 . S
C330 C318 1.349 1_565 S
C330 H324 0.950 . S
C330 C331 1.327 . S
C331 H325 0.950 . S
C331 C330 1.327 . S
C331 C335 1.429 1_565 S
C332 C315 1.574 . S
C332 H326 0.949 . S
C332 C336 1.368 . S
C333 C314 1.429 1_545 S
C333 C327 1.429 . S
C333 C334 1.523 . S
C334 C315 1.368 . S
C334 C328 1.368 1_545 S
C334 C333 1.523 . S
C335 C319 1.429 . S
C335 C331 1.429 1_545 S
C335 C336 1.523 . S
C336 C320 1.368 1_545 S
C336 C332 1.368 . S
C336 C335 1.523 . S
H337 C312 0.950 . S
H338 C314 0.950 . S
H339 C315 0.949 . S
H340 C317 0.950 . S
H341 C319 0.950 . S
C342 C343 1.349 . S
C342 C344 1.327 . S
C342 H367 0.950 . S
C343 C342 1.349 . S
C343 C359 1.349 . S
C344 C342 1.327 . S
C344 C363 1.429 . S
C344 H368 0.950 . S
C345 C362 1.574 . S
C345 C364 1.368 . S
C345 H369 0.949 . S
H346 C350 0.949 . S
C347 C348 1.349 . S
C347 C349 1.327 . S
C347 H370 0.950 . S
C348 C347 1.349 . S
C348 C360 1.349 . S
C349 C347 1.327 . S
C349 C365 1.429 . S
C349 H371 0.950 . S
C350 H346 0.949 . S
C350 C358 1.574 . S
C350 C366 1.368 . S
H351 C359 0.950 . S
H352 C357 0.950 . S
H353 C358 0.949 . S
H354 C360 0.950 . S
H355 C361 0.950 . S
H356 C362 0.949 . S
C357 H352 0.950 . S
C357 C359 1.327 . S
C357 C363 1.429 . S
C358 C350 1.574 . S
C358 H353 0.949 . S
C358 C364 1.368 . S
C359 C343 1.349 . S
C359 H351 0.950 . S
C359 C357 1.327 . S
C360 C348 1.349 . S
C360 H354 0.950 . S
C360 C361 1.327 . S
C361 H355 0.950 . S
C361 C360 1.327 . S
C361 C365 1.429 . S
C362 C345 1.574 . S
C362 H356 0.949 . S
C362 C366 1.368 . S
C363 C344 1.429 . S
C363 C357 1.429 . S
C363 C364 1.523 . S
C364 C345 1.368 . S
C364 C358 1.368 . S
C364 C363 1.523 . S
C365 C349 1.429 . S
C365 C361 1.429 . S
C365 C366 1.523 . S
C366 C350 1.368 . S
C366 C362 1.368 . S
C366 C365 1.523 . S
H367 C342 0.950 . S
H368 C344 0.950 . S
H369 C345 0.949 . S
H370 C347 0.950 . S
H371 C349 0.950 . S
C372 C373 1.349 . S
C372 C374 1.327 . S
C372 H397 0.950 . S
C373 C372 1.349 . S
C373 C389 1.349 . S
C374 C372 1.327 . S
C374 C393 1.429 . S
C374 H398 0.950 . S
C375 C392 1.574 . S
C375 C394 1.368 . S
C375 H399 0.949 . S
H376 C380 0.949 . S
C377 C378 1.349 . S
C377 C379 1.327 . S
C377 H400 0.950 . S
C378 C377 1.349 . S
C378 C390 1.349 . S
C379 C377 1.327 . S
C379 C395 1.429 . S
C379 H401 0.950 . S
C380 H376 0.949 . S
C380 C388 1.574 . S
C380 C396 1.368 . S
H381 C389 0.950 . S
H382 C387 0.950 . S
H383 C388 0.949 . S
H384 C390 0.950 . S
H385 C391 0.950 . S
H386 C392 0.949 . S
C387 H382 0.950 . S
C387 C389 1.327 . S
C387 C393 1.429 . S
C388 C380 1.574 . S
C388 H383 0.949 . S
C388 C394 1.368 . S
C389 C373 1.349 . S
C389 H381 0.950 . S
C389 C387 1.327 . S
C390 C378 1.349 . S
C390 H384 0.950 . S
C390 C391 1.327 . S
C391 H385 0.950 . S
C391 C390 1.327 . S
C391 C395 1.429 . S
C392 C375 1.574 . S
C392 H386 0.949 . S
C392 C396 1.368 . S
C393 C374 1.429 . S
C393 C387 1.429 . S
C393 C394 1.523 . S
C394 C375 1.368 . S
C394 C388 1.368 . S
C394 C393 1.523 . S
C395 C379 1.429 . S
C395 C391 1.429 . S
C395 C396 1.523 . S
C396 C380 1.368 . S
C396 C392 1.368 . S
C396 C395 1.523 . S
H397 C372 0.950 . S
H398 C374 0.950 . S
H399 C375 0.949 . S
H400 C377 0.950 . S
H401 C379 0.950 . S
C402 C403 1.349 . S
C402 C404 1.327 . S
C402 H427 0.950 . S
C403 C402 1.349 . S
C403 C419 1.349 . S
C404 C402 1.327 . S
C404 C423 1.429 . S
C404 H428 0.950 . S
C405 C422 1.574 . S
C405 C424 1.368 . S
C405 H429 0.941 1_455 S
H406 C410 0.949 . S
C407 C408 1.349 . S
C407 C409 1.327 . S
C407 H430 0.950 1_455 S
C408 C407 1.349 . S
C408 C420 1.349 . S
C409 C407 1.327 . S
C409 C425 1.429 . S
C409 H431 0.950 1_455 S
C410 H406 0.949 . S
C410 C418 1.574 . S
C410 C426 1.368 . S
H411 C419 0.950 . S
H412 C417 0.955 . S
H413 C418 0.949 . S
H414 C420 0.950 . S
H415 C421 0.950 . S
H416 C422 0.949 1_655 S
C417 H412 0.955 . S
C417 C419 1.327 . S
C417 C423 1.429 . S
C418 C410 1.574 . S
C418 H413 0.949 . S
C418 C424 1.368 . S
C419 C403 1.349 . S
C419 H411 0.950 . S
C419 C417 1.327 . S
C420 C408 1.349 . S
C420 H414 0.950 . S
C420 C421 1.327 . S
C421 H415 0.950 . S
C421 C420 1.327 . S
C421 C425 1.429 . S
C422 C405 1.574 . S
C422 H416 0.949 1_455 S
C422 C426 1.368 . S
C423 C404 1.429 . S
C423 C417 1.429 . S
C423 C424 1.523 . S
C424 C405 1.368 . S
C424 C418 1.368 . S
C424 C423 1.523 . S
C425 C409 1.429 . S
C425 C421 1.429 . S
C425 C426 1.523 . S
C426 C410 1.368 . S
C426 C422 1.368 . S
C426 C425 1.523 . S
H427 C402 0.950 . S
H428 C404 0.950 . S
H429 C405 0.941 1_655 S
H430 C407 0.950 1_655 S
H431 C409 0.950 1_655 S
C432 C433 1.349 1_545 S
C432 C434 1.327 . S
C432 H457 0.950 . S
C433 C432 1.349 1_565 S
C433 C449 1.349 . S
C434 C432 1.327 . S
C434 C453 1.429 1_545 S
C434 H458 0.950 . S
C435 C452 1.574 1_554 S
C435 C454 1.368 . S
C435 H459 0.949 1_554 S
H436 C440 0.949 . S
C437 C438 1.318 1_565 S
C437 C439 1.327 . S
C437 H460 0.950 . S
C438 C437 1.318 1_545 S
C438 C450 1.380 . S
C439 C437 1.327 . S
C439 C455 1.434 . S
C439 H461 0.950 . S
C440 H436 0.949 . S
C440 C448 1.574 . S
C440 C456 1.336 1_544 S
H441 C449 0.950 . S
H442 C447 0.950 . S
H443 C448 0.949 . S
H444 C450 0.950 . S
H445 C451 0.950 . S
H446 C452 0.949 . S
C447 H442 0.950 . S
C447 C449 1.327 . S
C447 C453 1.429 . S
C448 C440 1.574 . S
C448 H443 0.949 . S
C448 C454 1.368 1_545 S
C449 C433 1.349 . S
C449 H441 0.950 . S
C449 C447 1.327 . S
C450 C438 1.380 . S
C450 H444 0.950 . S
C450 C451 1.327 . S
C451 H445 0.950 . S
C451 C450 1.327 . S
C451 C455 1.422 1_545 S
C452 C435 1.574 1_556 S
C452 H446 0.949 . S
C452 C456 1.403 . S
C453 C434 1.429 1_565 S
C453 C447 1.429 . S
C453 C454 1.523 . S
C454 C435 1.368 . S
C454 C448 1.368 1_565 S
C454 C453 1.523 . S
C455 C439 1.434 . S
C455 C451 1.422 1_565 S
C455 C456 1.522 . S
C456 C440 1.336 1_566 S
C456 C452 1.403 . S
C456 C455 1.522 . S
H457 C432 0.950 . S
H458 C434 0.950 . S
H459 C435 0.949 1_556 S
H460 C437 0.950 . S
H461 C439 0.950 . S
C462 C463 1.349 . S
C462 C464 1.327 . S
C462 H487 0.950 . S
C463 C462 1.349 . S
C463 C479 1.349 . S
C464 C462 1.327 . S
C464 C483 1.429 . S
C464 H488 0.950 . S
C465 C482 1.574 . S
C465 C484 1.368 . S
C465 H489 0.949 . S
H466 C470 0.949 . S
C467 C468 1.349 . S
C467 C469 1.327 . S
C467 H490 0.950 . S
C468 C467 1.349 . S
C468 C480 1.349 . S
C469 C467 1.327 . S
C469 C485 1.429 . S
C469 H491 0.950 . S
C470 H466 0.949 . S
C470 C478 1.574 1_556 S
C470 C486 1.368 . S
H471 C479 0.950 . S
H472 C477 0.950 . S
H473 C478 0.949 1_556 S
H474 C480 0.950 . S
H475 C481 0.950 . S
H476 C482 0.949 . S
C477 H472 0.950 . S
C477 C479 1.327 . S
C477 C483 1.429 . S
C478 C470 1.574 1_554 S
C478 H473 0.949 1_554 S
C478 C484 1.368 . S
C479 C463 1.349 . S
C479 H471 0.950 . S
C479 C477 1.327 . S
C480 C468 1.349 . S
C480 H474 0.950 . S
C480 C481 1.327 . S
C481 H475 0.950 . S
C481 C480 1.327 . S
C481 C485 1.429 . S
C482 C465 1.574 . S
C482 H476 0.949 . S
C482 C486 1.368 1_554 S
C483 C464 1.429 . S
C483 C477 1.429 . S
C483 C484 1.523 . S
C484 C465 1.368 . S
C484 C478 1.368 . S
C484 C483 1.523 . S
C485 C469 1.429 . S
C485 C481 1.429 . S
C485 C486 1.523 . S
C486 C470 1.368 . S
C486 C482 1.368 1_556 S
C486 C485 1.523 . S
H487 C462 0.950 . S
H488 C464 0.950 . S
H489 C465 0.949 . S
H490 C467 0.950 . S
H491 C469 0.950 . S
C492 C493 1.349 . S
C492 C494 1.327 . S
C492 H517 0.950 . S
C493 C492 1.349 . S
C493 C509 1.349 . S
C494 C492 1.327 . S
C494 C513 1.429 . S
C494 H518 0.950 . S
C495 C512 1.574 1_554 S
C495 C514 1.368 . S
C495 H519 0.950 . S
H496 C500 0.949 . S
C497 C498 1.349 . S
C497 C499 1.327 . S
C497 H520 0.950 . S
C498 C497 1.349 . S
C498 C510 1.349 . S
C499 C497 1.327 . S
C499 C515 1.429 . S
C499 H521 0.950 . S
C500 H496 0.949 . S
C500 C508 1.574 . S
C500 C516 1.368 1_554 S
H501 C509 0.950 . S
H502 C507 0.950 . S
H503 C508 0.949 . S
H504 C510 0.950 . S
H505 C511 0.950 . S
H506 C512 0.949 . S
C507 H502 0.950 . S
C507 C509 1.327 . S
C507 C513 1.429 . S
C508 C500 1.574 . S
C508 H503 0.949 . S
C508 C514 1.368 . S
C509 C493 1.349 . S
C509 H501 0.950 . S
C509 C507 1.327 . S
C510 C498 1.349 . S
C510 H504 0.950 . S
C510 C511 1.327 . S
C511 H505 0.950 . S
C511 C510 1.327 . S
C511 C515 1.429 . S
C512 C495 1.574 1_556 S
C512 H506 0.949 . S
C512 C516 1.368 . S
C513 C494 1.429 . S
C513 C507 1.429 . S
C513 C514 1.523 . S
C514 C495 1.368 . S
C514 C508 1.368 . S
C514 C513 1.523 . S
C515 C499 1.429 . S
C515 C511 1.429 . S
C515 C516 1.523 . S
C516 C500 1.368 1_556 S
C516 C512 1.368 . S
C516 C515 1.523 . S
H517 C492 0.950 . S
H518 C494 0.950 . S
H519 C495 0.950 . S
H520 C497 0.950 . S
H521 C499 0.950 . S
C522 C523 1.349 . S
C522 C524 1.327 . S
C522 H547 0.950 . S
C523 C522 1.349 . S
C523 C539 1.349 1_655 S
C524 C522 1.327 . S
C524 C543 1.449 . S
C524 H548 0.950 . S
C525 C542 1.574 . S
C525 C544 1.363 1_456 S
C525 H549 0.949 . S
H526 C530 0.949 . S
C527 C528 1.349 . S
C527 C529 1.327 . S
C527 H550 0.950 . S
C528 C527 1.349 . S
C528 C540 1.349 1_455 S
C529 C527 1.327 . S
C529 C545 1.429 . S
C529 H551 0.950 . S
C530 H526 0.949 . S
C530 C538 1.574 . S
C530 C546 1.352 1_654 S
H531 C539 0.950 . S
H532 C537 0.950 . S
H533 C538 0.949 . S
H534 C540 0.950 . S
H535 C541 0.950 . S
H536 C542 0.949 . S
C537 H532 0.950 . S
C537 C539 1.327 . S
C537 C543 1.412 1_455 S
C538 C530 1.574 . S
C538 H533 0.949 . S
C538 C544 1.373 . S
C539 C523 1.349 1_455 S
C539 H531 0.950 . S
C539 C537 1.327 . S
C540 C528 1.349 1_655 S
C540 H534 0.950 . S
C540 C541 1.327 . S
C541 H535 0.950 . S
C541 C540 1.327 . S
C541 C545 1.429 1_655 S
C542 C525 1.574 . S
C542 H536 0.949 . S
C542 C546 1.385 . S
C543 C524 1.449 . S
C543 C537 1.412 1_655 S
C543 C544 1.522 . S
C544 C525 1.363 1_654 S
C544 C538 1.373 . S
C544 C543 1.522 . S
C545 C529 1.429 . S
C545 C541 1.429 1_455 S
C545 C546 1.525 . S
C546 C530 1.352 1_456 S
C546 C542 1.385 . S
C546 C545 1.525 . S
H547 C522 0.950 . S
H548 C524 0.950 . S
H549 C525 0.949 . S
H550 C527 0.950 . S
H551 C529 0.950 . S
C552 C553 1.349 . S
C552 C554 1.327 . S
C552 H577 0.950 . S
C553 C552 1.349 . S
C553 C569 1.315 1_455 S
C554 C552 1.327 . S
C554 C573 1.429 . S
C554 H578 0.950 . S
C555 C572 1.574 . S
C555 C574 1.368 1_655 S
C555 H579 0.949 . S
H556 C560 0.949 . S
C557 C558 1.349 . S
C557 C559 1.327 . S
C557 H580 0.950 . S
C558 C557 1.349 . S
C558 C570 1.351 . S
C559 C557 1.327 . S
C559 C575 1.429 . S
C559 H581 0.950 . S
C560 H556 0.949 . S
C560 C568 1.574 . S
C560 C576 1.368 1_455 S
H561 C569 0.976 . S
H562 C567 0.950 . S
H563 C568 0.949 . S
H564 C570 0.948 1_455 S
H565 C571 0.950 . S
H566 C572 0.949 . S
C567 H562 0.950 . S
C567 C569 1.337 . S
C567 C573 1.429 1_655 S
C568 C560 1.574 . S
C568 H563 0.949 . S
C568 C574 1.368 . S
C569 C553 1.315 1_655 S
C569 H561 0.976 . S
C569 C567 1.337 . S
C570 C558 1.351 . S
C570 H564 0.948 1_655 S
C570 C571 1.327 1_655 S
C571 H565 0.950 . S
C571 C570 1.327 1_455 S
C571 C575 1.429 1_455 S
C572 C555 1.574 . S
C572 H566 0.949 . S
C572 C576 1.368 . S
C573 C554 1.429 . S
C573 C567 1.429 1_455 S
C573 C574 1.523 . S
C574 C555 1.368 1_455 S
C574 C568 1.368 . S
C574 C573 1.523 . S
C575 C559 1.429 . S
C575 C571 1.429 1_655 S
C575 C576 1.523 . S
C576 C560 1.368 1_655 S
C576 C572 1.368 . S
C576 C575 1.523 . S
H577 C552 0.950 . S
H578 C554 0.950 . S
H579 C555 0.949 . S
H580 C557 0.950 . S
H581 C559 0.950 . S
C582 C583 1.349 . S
C582 C584 1.327 . S
C582 H607 0.950 . S
C583 C582 1.349 . S
C583 C599 1.349 . S
C584 C582 1.327 . S
C584 C603 1.429 . S
C584 H608 0.950 . S
C585 C602 1.574 . S
C585 C604 1.368 1_565 S
C585 H609 0.949 . S
H586 C590 0.949 . S
C587 C588 1.349 . S
C587 C589 1.327 . S
C587 H610 0.950 . S
C588 C587 1.349 . S
C588 C600 1.349 . S
C589 C587 1.327 . S
C589 C605 1.429 . S
C589 H611 0.950 . S
C590 H586 0.949 . S
C590 C598 1.574 . S
C590 C606 1.368 1_545 S
H591 C599 0.950 1_566 S
H592 C597 0.950 . S
H593 C598 0.949 . S
H594 C600 0.955 . S
H595 C601 0.950 1_545 S
H596 C602 0.949 . S
C597 H592 0.950 . S
C597 C599 1.327 1_565 S
C597 C603 1.429 1_565 S
C598 C590 1.574 . S
C598 H593 0.949 . S
C598 C604 1.368 . S
C599 C583 1.349 . S
C599 H591 0.950 1_544 S
C599 C597 1.327 1_545 S
C600 C588 1.349 . S
C600 H594 0.955 . S
C600 C601 1.327 . S
C601 H595 0.950 1_565 S
C601 C600 1.327 . S
C601 C605 1.429 . S
C602 C585 1.574 . S
C602 H596 0.949 . S
C602 C606 1.368 . S
C603 C584 1.429 . S
C603 C597 1.429 1_545 S
C603 C604 1.523 . S
C604 C585 1.368 1_545 S
C604 C598 1.368 . S
C604 C603 1.523 . S
C605 C589 1.429 . S
C605 C601 1.429 . S
C605 C606 1.523 . S
C606 C590 1.368 1_565 S
C606 C602 1.368 . S
C606 C605 1.523 . S
H607 C582 0.950 . S
H608 C584 0.950 . S
H609 C585 0.949 . S
H610 C587 0.950 . S
H611 C589 0.950 . S
C612 C613 1.349 . S
C612 C614 1.327 . S
C612 H637 0.950 . S
C613 C612 1.349 . S
C613 C629 1.349 . S
C614 C612 1.327 . S
C614 C633 1.429 . S
C614 H638 0.950 . S
C615 C632 1.574 . S
C615 C634 1.368 . S
C615 H639 0.949 . S
H616 C620 0.949 . S
C617 C618 1.349 . S
C617 C619 1.327 . S
C617 H640 0.950 . S
C618 C617 1.349 . S
C618 C630 1.349 . S
C619 C617 1.327 . S
C619 C635 1.429 . S
C619 H641 0.950 . S
C620 H616 0.949 . S
C620 C628 1.574 . S
C620 C636 1.368 . S
H621 C629 0.950 . S
H622 C627 0.950 . S
H623 C628 0.949 . S
H624 C630 0.950 . S
H625 C631 0.950 . S
H626 C632 0.949 . S
C627 H622 0.950 . S
C627 C629 1.327 . S
C627 C633 1.429 . S
C628 C620 1.574 . S
C628 H623 0.949 . S
C628 C634 1.368 . S
C629 C613 1.349 . S
C629 H621 0.950 . S
C629 C627 1.327 . S
C630 C618 1.349 . S
C630 H624 0.950 . S
C630 C631 1.327 . S
C631 H625 0.950 . S
C631 C630 1.327 . S
C631 C635 1.429 . S
C632 C615 1.574 . S
C632 H626 0.949 . S
C632 C636 1.368 . S
C633 C614 1.429 . S
C633 C627 1.429 . S
C633 C634 1.523 . S
C634 C615 1.368 . S
C634 C628 1.368 . S
C634 C633 1.523 . S
C635 C619 1.429 . S
C635 C631 1.429 . S
C635 C636 1.523 . S
C636 C620 1.368 . S
C636 C632 1.368 . S
C636 C635 1.523 . S
H637 C612 0.950 . S
H638 C614 0.950 . S
H639 C615 0.949 . S
H640 C617 0.950 . S
H641 C619 0.950 . S
C642 C643 1.349 . S
C642 C644 1.327 . S
C642 H667 0.950 . S
C643 C642 1.349 . S
C643 C659 1.349 . S
C644 C642 1.327 . S
C644 C663 1.429 . S
C644 H668 0.950 . S
C645 C662 1.574 . S
C645 C664 1.368 . S
C645 H669 0.949 . S
H646 C650 0.949 . S
C647 C648 1.349 . S
C647 C649 1.327 . S
C647 H670 0.950 . S
C648 C647 1.349 . S
C648 C660 1.349 . S
C649 C647 1.327 . S
C649 C665 1.429 . S
C649 H671 0.950 . S
C650 H646 0.949 . S
C650 C658 1.574 . S
C650 C666 1.368 . S
H651 C659 0.950 . S
H652 C657 0.950 . S
H653 C658 0.949 . S
H654 C660 0.950 . S
H655 C661 0.950 . S
H656 C662 0.949 . S
C657 H652 0.950 . S
C657 C659 1.327 . S
C657 C663 1.429 . S
C658 C650 1.574 . S
C658 H653 0.949 . S
C658 C664 1.368 . S
C659 C643 1.349 . S
C659 H651 0.950 . S
C659 C657 1.327 . S
C660 C648 1.349 . S
C660 H654 0.950 . S
C660 C661 1.327 . S
C661 H655 0.950 . S
C661 C660 1.327 . S
C661 C665 1.429 . S
C662 C645 1.574 . S
C662 H656 0.949 . S
C662 C666 1.368 . S
C663 C644 1.429 . S
C663 C657 1.429 . S
C663 C664 1.523 . S
C664 C645 1.368 . S
C664 C658 1.368 . S
C664 C663 1.523 . S
C665 C649 1.429 . S
C665 C661 1.429 . S
C665 C666 1.523 . S
C666 C650 1.368 . S
C666 C662 1.368 . S
C666 C665 1.523 . S
H667 C642 0.950 . S
H668 C644 0.950 . S
H669 C645 0.949 . S
H670 C647 0.950 . S
H671 C649 0.950 . S
C672 C673 1.349 1_455 S
C672 C674 1.327 . S
C672 H697 0.950 . S
C673 C672 1.349 1_655 S
C673 C689 1.349 . S
C674 C672 1.327 . S
C674 C693 1.429 . S
C674 H698 0.950 . S
C675 C692 1.567 1_655 S
C675 C694 1.351 1_655 S
C675 H699 0.973 . S
H676 C680 0.949 . S
C677 C678 1.349 . S
C677 C679 1.327 . S
C677 H700 0.950 . S
C678 C677 1.349 . S
C678 C690 1.349 1_556 S
C679 C677 1.327 . S
C679 C695 1.429 1_556 S
C679 H701 0.950 . S
C680 H676 0.949 . S
C680 C688 1.574 . S
C680 C696 1.368 . S
H681 C689 0.950 . S
H682 C687 0.950 . S
H683 C688 0.949 . S
H684 C690 0.950 . S
H685 C691 0.950 . S
H686 C692 0.949 1_656 S
C687 H682 0.950 . S
C687 C689 1.327 . S
C687 C693 1.429 1_655 S
C688 C680 1.574 . S
C688 H683 0.949 . S
C688 C694 1.368 . S
C689 C673 1.349 . S
C689 H681 0.950 . S
C689 C687 1.327 . S
C690 C678 1.349 1_554 S
C690 H684 0.950 . S
C690 C691 1.327 . S
C691 H685 0.950 . S
C691 C690 1.327 . S
C691 C695 1.429 . S
C692 C675 1.567 1_455 S
C692 H686 0.949 1_454 S
C692 C696 1.368 . S
C693 C674 1.429 . S
C693 C687 1.429 1_455 S
C693 C694 1.523 . S
C694 C675 1.351 1_455 S
C694 C688 1.368 . S
C694 C693 1.523 . S
C695 C679 1.429 1_554 S
C695 C691 1.429 . S
C695 C696 1.523 . S
C696 C680 1.368 . S
C696 C692 1.368 . S
C696 C695 1.523 . S
H697 C672 0.950 . S
H698 C674 0.950 . S
H699 C675 0.973 . S
H700 C677 0.950 . S
H701 C679 0.950 . S
C702 C703 1.349 . S
C702 C704 1.327 . S
C702 H727 0.950 . S
C703 C702 1.349 . S
C703 C719 1.349 1_565 S
C704 C702 1.327 . S
C704 C723 1.429 1_565 S
C704 H728 0.950 . S
C705 C722 1.574 . S
C705 C724 1.368 . S
C705 H729 0.949 . S
H706 C710 0.980 1_556 S
C707 C708 1.349 1_554 S
C707 C709 1.327 . S
C707 H730 0.950 . S
C708 C707 1.349 1_556 S
C708 C720 1.349 . S
C709 C707 1.327 . S
C709 C725 1.429 . S
C709 H731 0.950 . S
C710 H706 0.980 1_554 S
C710 C718 1.586 . S
C710 C726 1.325 1_565 S
H711 C719 0.950 . S
H712 C717 0.950 . S
H713 C718 0.949 . S
H714 C720 0.950 . S
H715 C721 0.950 1_565 S
H716 C722 0.949 . S
C717 H712 0.950 . S
C717 C719 1.327 . S
C717 C723 1.429 . S
C718 C710 1.586 . S
C718 H713 0.949 . S
C718 C724 1.368 1_565 S
C719 C703 1.349 1_545 S
C719 H711 0.950 . S
C719 C717 1.327 . S
C720 C708 1.349 . S
C720 H714 0.950 . S
C720 C721 1.327 . S
C721 H715 0.950 1_545 S
C721 C720 1.327 . S
C721 C725 1.429 1_556 S
C722 C705 1.574 . S
C722 H716 0.949 . S
C722 C726 1.368 . S
C723 C704 1.429 1_545 S
C723 C717 1.429 . S
C723 C724 1.523 . S
C724 C705 1.368 . S
C724 C718 1.368 1_545 S
C724 C723 1.523 . S
C725 C709 1.429 . S
C725 C721 1.429 1_554 S
C725 C726 1.523 . S
C726 C710 1.325 1_545 S
C726 C722 1.368 . S
C726 C725 1.523 . S
H727 C702 0.950 . S
H728 C704 0.950 . S
H729 C705 0.949 . S
H730 C707 0.950 . S
H731 C709 0.950 . S
C732 C733 1.349 . S
C732 C734 1.327 . S
C732 H757 0.950 . S
C733 C732 1.349 . S
C733 C749 1.349 . S
C734 C732 1.327 . S
C734 C753 1.429 . S
C734 H758 0.950 . S
C735 C752 1.574 . S
C735 C754 1.368 . S
C735 H759 0.949 . S
H736 C740 0.949 . S
C737 C738 1.349 . S
C737 C739 1.327 . S
C737 H760 0.950 . S
C738 C737 1.349 . S
C738 C750 1.349 1_556 S
C739 C737 1.327 . S
C739 C755 1.429 1_556 S
C739 H761 0.950 . S
C740 H736 0.949 . S
C740 C748 1.574 . S
C740 C756 1.368 . S
H741 C749 0.950 . S
H742 C747 0.950 . S
H743 C748 0.949 . S
H744 C750 0.950 . S
H745 C751 0.950 . S
H746 C752 0.949 1_556 S
C747 H742 0.950 . S
C747 C749 1.327 . S
C747 C753 1.429 . S
C748 C740 1.574 . S
C748 H743 0.949 . S
C748 C754 1.368 . S
C749 C733 1.349 . S
C749 H741 0.950 . S
C749 C747 1.327 . S
C750 C738 1.349 1_554 S
C750 H744 0.950 . S
C750 C751 1.327 . S
C751 H745 0.950 . S
C751 C750 1.327 . S
C751 C755 1.429 . S
C752 C735 1.574 . S
C752 H746 0.949 1_554 S
C752 C756 1.368 . S
C753 C734 1.429 . S
C753 C747 1.429 . S
C753 C754 1.523 . S
C754 C735 1.368 . S
C754 C748 1.368 . S
C754 C753 1.523 . S
C755 C739 1.429 1_554 S
C755 C751 1.429 . S
C755 C756 1.523 . S
C756 C740 1.368 . S
C756 C752 1.368 . S
C756 C755 1.523 . S
H757 C732 0.950 . S
H758 C734 0.950 . S
H759 C735 0.949 . S
H760 C737 0.950 . S
H761 C739 0.950 . S
C762 C763 1.349 . S
C762 C764 1.327 . S
C762 H787 0.950 . S
C763 C762 1.349 . S
C763 C779 1.349 . S
C764 C762 1.327 . S
C764 C783 1.429 . S
C764 H788 0.950 . S
C765 C782 1.574 . S
C765 C784 1.368 . S
C765 H789 0.949 . S
H766 C770 0.949 . S
C767 C768 1.349 . S
C767 C769 1.327 . S
C767 H790 0.950 . S
C768 C767 1.349 . S
C768 C780 1.349 1_556 S
C769 C767 1.327 . S
C769 C785 1.429 1_556 S
C769 H791 0.950 . S
C770 H766 0.949 . S
C770 C778 1.574 . S
C770 C786 1.368 . S
H771 C779 0.950 . S
H772 C777 0.950 . S
H773 C778 0.949 . S
H774 C780 0.950 . S
H775 C781 0.950 . S
H776 C782 0.949 . S
C777 H772 0.950 . S
C777 C779 1.327 . S
C777 C783 1.429 . S
C778 C770 1.574 . S
C778 H773 0.949 . S
C778 C784 1.368 . S
C779 C763 1.349 . S
C779 H771 0.950 . S
C779 C777 1.327 . S
C780 C768 1.349 1_554 S
C780 H774 0.950 . S
C780 C781 1.327 . S
C781 H775 0.950 . S
C781 C780 1.327 . S
C781 C785 1.429 . S
C782 C765 1.574 . S
C782 H776 0.949 . S
C782 C786 1.368 . S
C783 C764 1.429 . S
C783 C777 1.429 . S
C783 C784 1.523 . S
C784 C765 1.368 . S
C784 C778 1.368 . S
C784 C783 1.523 . S
C785 C769 1.429 1_554 S
C785 C781 1.429 . S
C785 C786 1.523 . S
C786 C770 1.368 . S
C786 C782 1.368 . S
C786 C785 1.523 . S
H787 C762 0.950 . S
H788 C764 0.950 . S
H789 C765 0.949 . S
H790 C767 0.950 . S
H791 C769 0.950 . S
C792 C793 1.349 . S
C792 C794 1.327 . S
C792 H817 0.950 . S
C793 C792 1.349 . S
C793 C809 1.388 . S
C794 C792 1.327 . S
C794 C813 1.429 . S
C794 H818 0.950 . S
C795 C812 1.574 . S
C795 C814 1.390 . S
C795 H819 0.930 1_455 S
H796 C800 0.949 . S
C797 C798 1.349 . S
C797 C799 1.327 . S
C797 H820 0.950 1_455 S
C798 C797 1.349 . S
C798 C810 1.349 . S
C799 C797 1.327 . S
C799 C815 1.429 . S
C799 H821 0.950 1_455 S
C800 H796 0.949 . S
C800 C808 1.574 . S
C800 C816 1.368 . S
H801 C809 0.913 1_655 S
H802 C807 0.918 1_655 S
H803 C808 0.949 . S
H804 C810 0.950 . S
H805 C811 0.950 . S
H806 C812 0.923 1_655 S
C807 H802 0.918 1_455 S
C807 C809 1.327 . S
C807 C813 1.461 . S
C808 C800 1.574 . S
C808 H803 0.949 . S
C808 C814 1.368 . S
C809 C793 1.388 . S
C809 H801 0.913 1_455 S
C809 C807 1.327 . S
C810 C798 1.349 . S
C810 H804 0.950 . S
C810 C811 1.327 . S
C811 H805 0.950 . S
C811 C810 1.327 . S
C811 C815 1.429 . S
C812 C795 1.574 . S
C812 H806 0.923 1_455 S
C812 C816 1.399 . S
C813 C794 1.429 . S
C813 C807 1.461 . S
C813 C814 1.523 . S
C814 C795 1.390 . S
C814 C808 1.368 . S
C814 C813 1.523 . S
C815 C799 1.429 . S
C815 C811 1.429 . S
C815 C816 1.523 . S
C816 C800 1.368 . S
C816 C812 1.399 . S
C816 C815 1.523 . S
H817 C792 0.950 . S
H818 C794 0.950 . S
H819 C795 0.930 1_655 S
H820 C797 0.950 1_655 S
H821 C799 0.950 1_655 S
C822 C823 1.349 1_565 S
C822 C824 1.327 . S
C822 H847 0.950 . S
C823 C822 1.349 1_545 S
C823 C839 1.349 . S
C824 C822 1.327 . S
C824 C843 1.429 1_565 S
C824 H848 0.950 . S
C825 C842 1.574 . S
C825 C844 1.368 . S
C825 H849 0.949 . S
H826 C830 0.949 . S
C827 C828 1.349 . S
C827 C829 1.327 . S
C827 H850 0.950 . S
C828 C827 1.349 . S
C828 C840 1.335 1_545 S
C829 C827 1.327 . S
C829 C845 1.429 . S
C829 H851 0.950 . S
C830 H826 0.949 . S
C830 C838 1.574 . S
C830 C846 1.368 1_565 S
H831 C839 0.950 . S
H832 C837 0.950 . S
H833 C838 0.949 . S
H834 C840 0.964 . S
H835 C841 0.989 . S
H836 C842 0.949 . S
C837 H832 0.950 . S
C837 C839 1.327 . S
C837 C843 1.429 . S
C838 C830 1.574 . S
C838 H833 0.949 . S
C838 C844 1.368 1_565 S
C839 C823 1.349 . S
C839 H831 0.950 . S
C839 C837 1.327 . S
C840 C828 1.335 1_565 S
C840 H834 0.964 . S
C840 C841 1.327 . S
C841 H835 0.989 . S
C841 C840 1.327 . S
C841 C845 1.393 1_565 S
C842 C825 1.574 . S
C842 H836 0.949 . S
C842 C846 1.368 . S
C843 C824 1.429 1_545 S
C843 C837 1.429 . S
C843 C844 1.523 . S
C844 C825 1.368 . S
C844 C838 1.368 1_545 S
C844 C843 1.523 . S
C845 C829 1.429 . S
C845 C841 1.393 1_545 S
C845 C846 1.523 . S
C846 C830 1.368 1_545 S
C846 C842 1.368 . S
C846 C845 1.523 . S
H847 C822 0.950 . S
H848 C824 0.950 . S
H849 C825 0.949 . S
H850 C827 0.950 . S
H851 C829 0.950 . S
C852 C853 1.349 . S
C852 C854 1.327 . S
C852 H877 0.950 . S
C853 C852 1.349 . S
C853 C869 1.349 . S
C854 C852 1.327 . S
C854 C873 1.429 . S
C854 H878 0.950 . S
C855 C872 1.574 . S
C855 C874 1.368 . S
C855 H879 0.949 . S
H856 C860 0.949 . S
C857 C858 1.349 . S
C857 C859 1.327 . S
C857 H880 0.950 . S
C858 C857 1.349 . S
C858 C870 1.349 . S
C859 C857 1.327 . S
C859 C875 1.429 . S
C859 H881 0.950 . S
C860 H856 0.949 . S
C860 C868 1.574 . S
C860 C876 1.368 . S
H861 C869 0.950 . S
H862 C867 0.950 . S
H863 C868 0.949 . S
H864 C870 0.950 . S
H865 C871 0.950 . S
H866 C872 0.949 . S
C867 H862 0.950 . S
C867 C869 1.327 . S
C867 C873 1.429 . S
C868 C860 1.574 . S
C868 H863 0.949 . S
C868 C874 1.368 . S
C869 C853 1.349 . S
C869 H861 0.950 . S
C869 C867 1.327 . S
C870 C858 1.349 . S
C870 H864 0.950 . S
C870 C871 1.327 . S
C871 H865 0.950 . S
C871 C870 1.327 . S
C871 C875 1.429 . S
C872 C855 1.574 . S
C872 H866 0.949 . S
C872 C876 1.368 . S
C873 C854 1.429 . S
C873 C867 1.429 . S
C873 C874 1.523 . S
C874 C855 1.368 . S
C874 C868 1.368 . S
C874 C873 1.523 . S
C875 C859 1.429 . S
C875 C871 1.429 . S
C875 C876 1.523 . S
C876 C860 1.368 . S
C876 C872 1.368 . S
C876 C875 1.523 . S
H877 C852 0.950 . S
H878 C854 0.950 . S
H879 C855 0.949 . S
H880 C857 0.950 . S
H881 C859 0.950 . S
C882 C883 1.349 . S
C882 C884 1.327 . S
C882 H907 0.950 . S
C883 C882 1.349 . S
C883 C899 1.349 . S
C884 C882 1.327 . S
C884 C903 1.429 . S
C884 H908 0.950 . S
C885 C902 1.574 . S
C885 C904 1.368 . S
C885 H909 0.949 . S
H886 C890 0.949 . S
C887 C888 1.349 . S
C887 C889 1.327 . S
C887 H910 0.950 . S
C888 C887 1.349 . S
C888 C900 1.349 . S
C889 C887 1.327 . S
C889 C905 1.429 . S
C889 H911 0.950 . S
C890 H886 0.949 . S
C890 C898 1.574 . S
C890 C906 1.368 . S
H891 C899 0.950 . S
H892 C897 0.950 . S
H893 C898 0.949 . S
H894 C900 0.950 . S
H895 C901 0.950 . S
H896 C902 0.949 . S
C897 H892 0.950 . S
C897 C899 1.327 . S
C897 C903 1.429 . S
C898 C890 1.574 . S
C898 H893 0.949 . S
C898 C904 1.368 . S
C899 C883 1.349 . S
C899 H891 0.950 . S
C899 C897 1.327 . S
C900 C888 1.349 . S
C900 H894 0.950 . S
C900 C901 1.327 . S
C901 H895 0.950 . S
C901 C900 1.327 . S
C901 C905 1.429 . S
C902 C885 1.574 . S
C902 H896 0.949 . S
C902 C906 1.368 . S
C903 C884 1.429 . S
C903 C897 1.429 . S
C903 C904 1.523 . S
C904 C885 1.368 . S
C904 C898 1.368 . S
C904 C903 1.523 . S
C905 C889 1.429 . S
C905 C901 1.429 . S
C905 C906 1.523 . S
C906 C890 1.368 . S
C906 C902 1.368 . S
C906 C905 1.523 . S
H907 C882 0.950 . S
H908 C884 0.950 . S
H909 C885 0.949 . S
H910 C887 0.950 . S
H911 C889 0.950 . S
C912 C913 1.349 . S
C912 C914 1.327 . S
C912 H937 0.950 . S
C913 C912 1.349 . S
C913 C929 1.349 1_655 S
C914 C912 1.327 . S
C914 C933 1.429 . S
C914 H938 0.950 . S
C915 C932 1.574 . S
C915 C934 1.368 1_455 S
C915 H939 0.949 . S
H916 C920 0.949 . S
C917 C918 1.349 1_455 S
C917 C919 1.327 . S
C917 H940 0.950 . S
C918 C917 1.349 1_655 S
C918 C930 1.349 . S
C919 C917 1.327 . S
C919 C935 1.429 1_455 S
C919 H941 0.950 . S
C920 H916 0.949 . S
C920 C928 1.574 . S
C920 C936 1.368 . S
H921 C929 0.950 . S
H922 C927 0.950 . S
H923 C928 0.949 . S
H924 C930 0.950 . S
H925 C931 0.950 . S
H926 C932 0.949 . S
C927 H922 0.950 . S
C927 C929 1.327 . S
C927 C933 1.429 1_455 S
C928 C920 1.574 . S
C928 H923 0.949 . S
C928 C934 1.368 . S
C929 C913 1.349 1_455 S
C929 H921 0.950 . S
C929 C927 1.327 . S
C930 C918 1.349 . S
C930 H924 0.950 . S
C930 C931 1.327 . S
C931 H925 0.950 . S
C931 C930 1.327 . S
C931 C935 1.429 . S
C932 C915 1.574 . S
C932 H926 0.949 . S
C932 C936 1.368 1_455 S
C933 C914 1.429 . S
C933 C927 1.429 1_655 S
C933 C934 1.523 . S
C934 C915 1.368 1_655 S
C934 C928 1.368 . S
C934 C933 1.523 . S
C935 C919 1.429 1_655 S
C935 C931 1.429 . S
C935 C936 1.523 . S
C936 C920 1.368 . S
C936 C932 1.368 1_655 S
C936 C935 1.523 . S
H937 C912 0.950 . S
H938 C914 0.950 . S
H939 C915 0.949 . S
H940 C917 0.950 . S
H941 C919 0.950 . S
C942 C943 1.349 . S
C942 C944 1.327 . S
C942 H967 0.950 . S
C943 C942 1.349 . S
C943 C959 1.349 1_565 S
C944 C942 1.327 . S
C944 C963 1.429 . S
C944 H968 0.950 . S
C945 C962 1.574 . S
C945 C964 1.368 1_545 S
C945 H969 0.949 . S
H946 C950 0.949 . S
C947 C948 1.349 1_545 S
C947 C949 1.327 . S
C947 H970 0.950 . S
C948 C947 1.349 1_565 S
C948 C960 1.349 . S
C949 C947 1.327 . S
C949 C965 1.429 1_545 S
C949 H971 0.950 . S
C950 H946 0.949 . S
C950 C958 1.574 . S
C950 C966 1.368 . S
H951 C959 0.950 . S
H952 C957 0.950 . S
H953 C958 0.949 . S
H954 C960 0.950 . S
H955 C961 0.950 . S
H956 C962 0.949 . S
C957 H952 0.950 . S
C957 C959 1.327 . S
C957 C963 1.429 1_545 S
C958 C950 1.574 . S
C958 H953 0.949 . S
C958 C964 1.368 . S
C959 C943 1.349 1_545 S
C959 H951 0.950 . S
C959 C957 1.327 . S
C960 C948 1.349 . S
C960 H954 0.950 . S
C960 C961 1.327 . S
C961 H955 0.950 . S
C961 C960 1.327 . S
C961 C965 1.429 . S
C962 C945 1.574 . S
C962 H956 0.949 . S
C962 C966 1.368 1_545 S
C963 C944 1.429 . S
C963 C957 1.429 1_565 S
C963 C964 1.523 . S
C964 C945 1.368 1_565 S
C964 C958 1.368 . S
C964 C963 1.523 . S
C965 C949 1.429 1_565 S
C965 C961 1.429 . S
C965 C966 1.523 . S
C966 C950 1.368 . S
C966 C962 1.368 1_565 S
C966 C965 1.523 . S
H967 C942 0.950 . S
H968 C944 0.950 . S
H969 C945 0.949 . S
H970 C947 0.950 . S
H971 C949 0.950 . S
C972 C973 1.349 . S
C972 C974 1.327 . S
C972 H997 0.950 . S
C973 C972 1.349 . S
C973 C989 1.349 . S
C974 C972 1.327 . S
C974 C993 1.429 . S
C974 H998 0.950 . S
C975 C992 1.574 . S
C975 C994 1.368 . S
C975 H999 0.949 . S
H976 C980 0.949 . S
C977 C978 1.349 . S
C977 C979 1.327 . S
C977 H1000 0.950 . S
C978 C977 1.349 . S
C978 C990 1.349 . S
C979 C977 1.327 . S
C979 C995 1.429 . S
C979 H1001 0.950 . S
C980 H976 0.949 . S
C980 C988 1.574 . S
C980 C996 1.368 . S
H981 C989 0.950 . S
H982 C987 0.950 . S
H983 C988 0.949 . S
H984 C990 0.950 . S
H985 C991 0.950 . S
H986 C992 0.949 . S
C987 H982 0.950 . S
C987 C989 1.327 . S
C987 C993 1.429 . S
C988 C980 1.574 . S
C988 H983 0.949 . S
C988 C994 1.368 . S
C989 C973 1.349 . S
C989 H981 0.950 . S
C989 C987 1.327 . S
C990 C978 1.349 . S
C990 H984 0.950 . S
C990 C991 1.327 . S
C991 H985 0.950 . S
C991 C990 1.327 . S
C991 C995 1.429 . S
C992 C975 1.574 . S
C992 H986 0.949 . S
C992 C996 1.368 . S
C993 C974 1.429 . S
C993 C987 1.429 . S
C993 C994 1.523 . S
C994 C975 1.368 . S
C994 C988 1.368 . S
C994 C993 1.523 . S
C995 C979 1.429 . S
C995 C991 1.429 . S
C995 C996 1.523 . S
C996 C980 1.368 . S
C996 C992 1.368 . S
C996 C995 1.523 . S
H997 C972 0.950 . S
H998 C974 0.950 . S
H999 C975 0.949 . S
H1000 C977 0.950 . S
H1001 C979 0.950 . S
C1002 C1003 1.349 . S
C1002 C1004 1.327 . S
C1002 H1027 0.950 . S
C1003 C1002 1.349 . S
C1003 C1019 1.349 . S
C1004 C1002 1.327 . S
C1004 C1023 1.429 . S
C1004 H1028 0.950 . S
C1005 C1022 1.574 . S
C1005 C1024 1.368 . S
C1005 H1029 0.949 . S
H1006 C1010 0.949 . S
C1007 C1008 1.349 . S
C1007 C1009 1.327 . S
C1007 H1030 0.950 . S
C1008 C1007 1.349 . S
C1008 C1020 1.349 . S
C1009 C1007 1.327 . S
C1009 C1025 1.429 . S
C1009 H1031 0.950 . S
C1010 H1006 0.949 . S
C1010 C1018 1.574 . S
C1010 C1026 1.368 . S
H1011 C1019 0.950 . S
H1012 C1017 0.950 . S
H1013 C1018 0.949 . S
H1014 C1020 0.950 . S
H1015 C1021 0.950 . S
H1016 C1022 0.949 . S
C1017 H1012 0.950 . S
C1017 C1019 1.327 . S
C1017 C1023 1.429 . S
C1018 C1010 1.574 . S
C1018 H1013 0.949 . S
C1018 C1024 1.368 . S
C1019 C1003 1.349 . S
C1019 H1011 0.950 . S
C1019 C1017 1.327 . S
C1020 C1008 1.349 . S
C1020 H1014 0.950 . S
C1020 C1021 1.327 . S
C1021 H1015 0.950 . S
C1021 C1020 1.327 . S
C1021 C1025 1.429 . S
C1022 C1005 1.574 . S
C1022 H1016 0.949 . S
C1022 C1026 1.368 . S
C1023 C1004 1.429 . S
C1023 C1017 1.429 . S
C1023 C1024 1.523 . S
C1024 C1005 1.368 . S
C1024 C1018 1.368 . S
C1024 C1023 1.523 . S
C1025 C1009 1.429 . S
C1025 C1021 1.429 . S
C1025 C1026 1.523 . S
C1026 C1010 1.368 . S
C1026 C1022 1.368 . S
C1026 C1025 1.523 . S
H1027 C1002 0.950 . S
H1028 C1004 0.950 . S
H1029 C1005 0.949 . S
H1030 C1007 0.950 . S
H1031 C1009 0.950 . S
C313 C125 1.790 . S
C318 C162 1.836 . S
C348 C202 1.837 . S
C343 C144 1.791 . S
C378 C242 1.836 . S
C373 C87 1.790 . S
C408 C282 1.835 . S
C403 C106 1.789 . S
C438 C171 1.844 . S
C433 C49 1.803 . S
C463 C68 1.801 . S
C468 C211 1.835 . S
C493 C11 1.802 . S
C498 C251 1.836 . S
C523 C30 1.803 . S
C528 C291 1.837 . S
C558 C168 0.395 . S
C553 C97 0.477 . S
C588 C208 0.395 . S
C583 C116 0.477 . S
C618 C248 0.395 . S
C613 C135 0.477 . S
C643 C78 0.477 . S
C648 C288 0.395 . S
C673 C21 0.475 . S
C678 C159 0.396 . S
C708 C199 0.396 . S
C703 C40 0.475 . S
C738 C239 0.395 . S
C733 C59 0.475 . S
C763 C2 0.475 . S
C768 C279 0.395 . S
C793 C101 1.914 . S
C798 C163 2.095 . S
C823 C120 1.915 . S
C828 C203 2.096 . S
C858 C243 2.097 . S
C853 C139 1.916 . S
C888 C283 2.096 . S
C883 C82 1.915 . S
C913 C25 1.915 . S
C918 C154 2.096 . S
C948 C194 2.096 . S
C943 C44 1.915 . S
C978 C234 2.096 . S
C973 C63 1.915 . S
C1003 C6 1.915 . S
C1008 C274 2.096 . S
