# Generated by pormake.
# Topology anh, (6,3)-cn, num edge types: 1
# Building blocks:
#     Node 0, Type 0, BuildingBlock: BETGAK_clean_sbu_0, # of connection points: 6
#     Node 1, Type 0, BuildingBlock: BETGAK_clean_sbu_0, # of connection points: 6
#     Node 2, Type 0, BuildingBlock: BETGAK_clean_sbu_0, # of connection points: 6
#     Node 3, Type 1, BuildingBlock: CUQRIR_clean_linker_1, # of connection points: 3
#     Node 4, Type 1, BuildingBlock: CUQRIR_clean_linker_1, # of connection points: 3
#     Node 5, Type 1, BuildingBlock: CUQRIR_clean_linker_1, # of connection points: 3
#     Node 6, Type 1, BuildingBlock: CUQRIR_clean_linker_1, # of connection points: 3
#     Node 7, Type 1, BuildingBlock: CUQRIR_clean_linker_1, # of connection points: 3
#     Node 8, Type 1, BuildingBlock: CUQRIR_clean_linker_1, # of connection points: 3
#     Edge 9, Type (0, 1), BuildingBlock: CIFDUS_clean_linker_0, # of connection points: 2
#     Edge 10, Type (0, 1), BuildingBlock: CIFDUS_clean_linker_0, # of connection points: 2
#     Edge 11, Type (0, 1), BuildingBlock: CIFDUS_clean_linker_0, # of connection points: 2
#     Edge 12, Type (0, 1), BuildingBlock: CIFDUS_clean_linker_0, # of connection points: 2
#     Edge 13, Type (0, 1), BuildingBlock: CIFDUS_clean_linker_0, # of connection points: 2
#     Edge 14, Type (0, 1), BuildingBlock: CIFDUS_clean_linker_0, # of connection points: 2
#     Edge 15, Type (0, 1), BuildingBlock: CIFDUS_clean_linker_0, # of connection points: 2
#     Edge 16, Type (0, 1), BuildingBlock: CIFDUS_clean_linker_0, # of connection points: 2
#     Edge 17, Type (0, 1), BuildingBlock: CIFDUS_clean_linker_0, # of connection points: 2
#     Edge 18, Type (0, 1), BuildingBlock: CIFDUS_clean_linker_0, # of connection points: 2
#     Edge 19, Type (0, 1), BuildingBlock: CIFDUS_clean_linker_0, # of connection points: 2
#     Edge 20, Type (0, 1), BuildingBlock: CIFDUS_clean_linker_0, # of connection points: 2
#     Edge 21, Type (0, 1), BuildingBlock: CIFDUS_clean_linker_0, # of connection points: 2
#     Edge 22, Type (0, 1), BuildingBlock: CIFDUS_clean_linker_0, # of connection points: 2
#     Edge 23, Type (0, 1), BuildingBlock: CIFDUS_clean_linker_0, # of connection points: 2
#     Edge 24, Type (0, 1), BuildingBlock: CIFDUS_clean_linker_0, # of connection points: 2
#     Edge 25, Type (0, 1), BuildingBlock: CIFDUS_clean_linker_0, # of connection points: 2
#     Edge 26, Type (0, 1), BuildingBlock: CIFDUS_clean_linker_0, # of connection points: 2
# Relax obj value: 0.233
# Max RMSD: 0.221
# Mean RMSD: 0.167
data_MOF--net-anh--node1-BETGAK_clean_sbu_0--node2-CUQRIR_clean_linker_1--edge1-CIFDUS_clean_linker_0
_symmetry_space_group_name_H-M    P1
_symmetry_Int_Tables_number       1
_symmetry_cell_setting            triclinic
loop_
_symmetry_equiv_pos_as_xyz
'x, y, z'
_cell_length_a     24.065267
_cell_length_b     31.36715
_cell_length_c     40.442308
_cell_angle_alpha  87.735884
_cell_angle_beta   90.192453
_cell_angle_gamma 132.15409
loop_
_atom_site_label
_atom_site_type_symbol
_atom_site_fract_x
_atom_site_fract_y
_atom_site_fract_z
_atom_type_partial_charge
La0 La 0.16156 0.43219 0.16124 0.0
La1 La 1.0651 0.45872 0.16047 0.0
C2 C 0.26683 0.43856 0.14473 0.0
C3 C 0.33826 0.4893 0.12846 0.0
C4 C 0.40466 0.52095 0.14613 0.0
C5 C 0.46972 0.57477 0.1336 0.0
C6 C 0.46956 0.59763 0.10306 0.0
C7 C 0.40379 0.56537 0.08494 0.0
C8 C 0.33872 0.51179 0.09752 0.0
C9 C 1.11339 0.4289 0.2206 0.0
C10 C 0.23487 0.56438 0.16138 0.0
C11 C 0.96674 0.46474 0.16772 0.0
C12 C 0.95926 0.5066 0.15939 0.0
C13 C 0.89093 0.48674 0.14768 0.0
C14 C 0.88238 0.52551 0.13905 0.0
C15 C 0.94201 0.58496 0.14221 0.0
C16 C 1.01063 0.60474 0.15398 0.0
C17 C 1.01933 0.5659 0.16234 0.0
C18 C 1.12538 0.47129 0.10231 0.0
C19 C 0.99294 0.32705 0.16978 0.0
O20 O 0.25639 0.44575 0.175 0.0
O21 O 0.20671 0.41287 0.12722 0.0
O22 O 1.12609 0.39637 0.21244 0.0
O23 O 1.13294 0.46374 0.19664 0.0
O24 O 0.24197 0.52741 0.15364 0.0
O25 O 0.16827 0.54608 0.169 0.0
O26 O 1.01491 0.47866 0.19031 0.0
O27 O 0.97017 0.44157 0.14255 0.0
O28 O 1.11532 0.50441 0.1123 0.0
O29 O 1.09769 0.43075 0.12383 0.0
O30 O 0.98753 0.36574 0.17472 0.0
O31 O 1.05715 0.34305 0.16005 0.0
H32 H 0.40555 0.50488 0.17016 0.0
H33 H 0.5203 0.5984 0.1477 0.0
H34 H 0.40233 0.58205 0.0613 0.0
H35 H 0.28831 0.48901 0.0834 0.0
H36 H 0.84423 0.44114 0.14499 0.0
H37 H 0.82928 0.50888 0.12949 0.0
H38 H 1.0574 0.65016 0.15705 0.0
H39 H 1.07285 0.58221 0.17113 0.0
La40 La 0.71165 1.00671 0.48939 0.0
La41 La 0.61669 0.03228 0.47252 0.0
C42 C 0.76826 0.97164 0.51863 0.0
C43 C 0.7568 0.91935 0.52389 0.0
C44 C 0.75841 0.89251 0.49737 0.0
C45 C 0.75428 0.84624 0.50342 0.0
C46 C 0.74814 0.8258 0.53602 0.0
C47 C 0.74442 0.85168 0.56241 0.0
C48 C 0.74906 0.89817 0.55638 0.0
C49 C 0.70637 1.02427 0.42512 0.0
C50 C 0.53857 0.9029 0.47404 0.0
C51 C 0.56007 0.07169 0.45064 0.0
C52 C 0.55948 0.1143 0.46411 0.0
C53 C 0.55197 0.11532 0.49843 0.0
C54 C 0.55422 0.15691 0.51144 0.0
C55 C 0.56508 0.19886 0.49047 0.0
C56 C 0.57338 0.19829 0.45613 0.0
C57 C 0.57024 0.15606 0.44303 0.0
C58 C 0.62071 1.01503 0.53684 0.0
C59 C 0.79334 0.13612 0.48002 0.0
O60 O 0.78956 0.99681 0.48894 0.0
O61 O 0.71843 0.97082 0.53246 0.0
O62 O 0.76366 0.03583 0.43886 0.0
O63 O 0.65402 0.99859 0.44636 0.0
O64 O 0.59802 0.9188 0.48987 0.0
O65 O 0.54025 0.9424 0.45951 0.0
O66 O 0.5224 1.02312 0.46813 0.0
O67 O 0.62564 0.09151 0.44061 0.0
O68 O 0.56375 1.00123 0.52172 0.0
O69 O 0.67528 0.04215 0.51635 0.0
O70 O 0.73059 0.11814 0.46693 0.0
O71 O 0.79578 0.09931 0.49515 0.0
H72 H 0.76415 0.90779 0.47203 0.0
H73 H 0.75627 0.8266 0.48257 0.0
H74 H 0.74033 0.83718 0.58779 0.0
H75 H 0.74826 0.91846 0.57722 0.0
H76 H 0.54515 0.08433 0.51534 0.0
H77 H 0.54909 0.15701 0.53803 0.0
H78 H 0.58186 0.23025 0.43948 0.0
H79 H 0.57696 0.15633 0.41652 0.0
La80 La 0.75624 0.63464 0.83574 0.0
La81 La 0.66959 0.52234 0.86788 0.0
C82 C 0.79742 0.71819 0.79777 0.0
C83 C 0.78266 0.7571 0.79481 0.0
C84 C 0.78199 0.78218 0.82269 0.0
C85 C 0.77495 0.82296 0.81908 0.0
C86 C 0.76762 0.8392 0.78757 0.0
C87 C 0.76525 0.81232 0.75986 0.0
C88 C 0.77309 0.77192 0.76345 0.0
C89 C 0.78861 0.64097 0.89828 0.0
C90 C 0.59079 0.57098 0.86876 0.0
C91 C 0.62373 0.43011 0.89635 0.0
C92 C 0.63524 0.39091 0.88686 0.0
C93 C 0.58084 0.34209 0.8688 0.0
C94 C 0.595 0.30912 0.85607 0.0
C95 C 0.66387 0.32384 0.86118 0.0
C96 C 0.71673 0.37092 0.88067 0.0
C97 C 0.70266 0.40399 0.89334 0.0
C98 C 0.64957 0.52307 0.80342 0.0
C99 C 0.83944 0.58842 0.84421 0.0
O100 O 0.8338 0.72334 0.82366 0.0
O101 O 0.74229 0.66419 0.79141 0.0
O102 O 0.83563 0.67485 0.87424 0.0
O103 O 0.7227 0.605 0.88726 0.0
O104 O 0.64642 0.61133 0.84743 0.0
O105 O 0.59419 0.53468 0.88428 0.0
O106 O 0.58315 0.43279 0.87649 0.0
O107 O 0.68251 0.48135 0.90557 0.0
O108 O 0.59691 0.48714 0.82509 0.0
O109 O 0.71071 0.55516 0.81775 0.0
O110 O 0.77991 0.54691 0.86303 0.0
O111 O 0.8395 0.62564 0.82697 0.0
H112 H 0.78846 0.77121 0.84725 0.0
H113 H 0.77586 0.8422 0.84097 0.0
H114 H 0.76002 0.82404 0.73526 0.0
H115 H 0.77339 0.75317 0.74159 0.0
H116 H 0.52807 0.33043 0.86349 0.0
H117 H 0.55301 0.27341 0.8411 0.0
H118 H 0.76958 0.38271 0.88585 0.0
H119 H 0.74565 0.4408 0.90744 0.0
C120 C 0.62145 0.94261 0.18459 0.0
N121 N 0.66934 0.98594 0.20528 0.0
N122 N 0.56327 0.89363 0.20197 0.0
C123 C 0.62904 0.9489 0.1475 0.0
C124 C 0.57758 0.90871 0.23385 0.0
N125 N 0.64137 0.96462 0.2359 0.0
C126 C 0.53095 0.86767 0.26313 0.0
H127 H 0.65232 0.99228 0.13871 0.0
H128 H 0.57423 0.91543 0.13607 0.0
H129 H 0.66848 0.94404 0.13942 0.0
H130 H 0.4991 0.82246 0.25687 0.0
H131 H 0.49035 0.87163 0.27068 0.0
H132 H 0.56675 0.87804 0.28443 0.0
C133 C 0.67812 0.51828 0.55606 0.0
N134 N 0.68508 0.54751 0.58203 0.0
N135 N 0.66853 0.47223 0.56683 0.0
C136 C 0.67308 0.53107 0.52047 0.0
C137 C 0.6694 0.47418 0.6002 0.0
N138 N 0.67878 0.51956 0.60944 0.0
C139 C 0.66519 0.43362 0.62372 0.0
H140 H 0.64807 0.55055 0.51863 0.0
H141 H 0.63888 0.49139 0.50635 0.0
H142 H 0.73033 0.56199 0.50896 0.0
H143 H 0.69839 0.45591 0.64597 0.0
H144 H 0.68609 0.41541 0.61155 0.0
H145 H 0.6059 0.39772 0.63191 0.0
C146 C 0.21129 0.57621 0.86464 0.0
N147 N 0.24916 0.56932 0.88669 0.0
N148 N 0.1521 0.56636 0.87965 0.0
C149 C 0.22801 0.58827 0.82807 0.0
C150 C 0.15477 0.55239 0.91135 0.0
N151 N 0.21193 0.55364 0.91565 0.0
C152 C 1.10141 0.5382 0.93873 0.0
H153 H 0.26943 0.63554 0.82277 0.0
H154 H 0.1765 0.56989 0.81449 0.0
H155 H 0.25179 0.57023 0.81911 0.0
H156 H 1.05719 0.49071 0.94268 0.0
H157 H 1.0743 0.55523 0.9325 0.0
H158 H 1.1309 0.55612 0.9623 0.0
C159 C 0.17499 0.51462 0.46133 0.0
N160 N 1.13349 0.47272 0.43918 0.0
N161 N 0.23178 0.56632 0.44563 0.0
C162 C 0.15728 0.50592 0.49785 0.0
C163 C 0.22347 0.5542 0.41327 0.0
N164 N 0.16359 0.49777 0.4093 0.0
C165 C 0.27703 0.59703 0.38578 0.0
H166 H 0.18094 0.54686 0.50878 0.0
H167 H 0.18235 0.49014 0.51001 0.0
H168 H 1.09575 0.47309 0.50277 0.0
H169 H 0.33382 0.63167 0.39525 0.0
H170 H 0.2563 0.61698 0.37488 0.0
H171 H 0.28103 0.57564 0.36597 0.0
C172 C 0.69936 0.07946 0.78027 0.0
N173 N 0.70533 0.057 0.75389 0.0
N174 N 0.69277 0.11763 0.77011 0.0
C175 C 0.69625 0.06214 0.8159 0.0
C176 C 0.69393 0.11704 0.73667 0.0
N177 N 0.70139 0.08029 0.7268 0.0
C178 C 0.683 0.1496 0.71368 0.0
H179 H 0.66897 0.07158 0.83212 0.0
H180 H 0.75427 0.0868 0.82428 0.0
H181 H 0.66566 1.01558 0.81865 0.0
H182 H 0.62228 0.12189 0.70909 0.0
H183 H 0.71292 0.16072 0.68958 0.0
H184 H 0.70292 0.18947 0.72468 0.0
C185 C 0.91321 0.84322 0.0954 0.0
N186 N 0.94787 0.83045 0.078 0.0
N187 N 0.88802 0.86241 0.07511 0.0
C188 C 0.89722 0.83136 0.13221 0.0
C189 C 0.91915 0.86811 0.04534 0.0
N190 N 0.94934 0.84412 0.04641 0.0
C191 C 0.91072 0.89016 0.01374 0.0
H192 H 0.93406 0.82632 0.14435 0.0
H193 H 0.83783 0.7914 0.13718 0.0
H194 H 0.90679 0.86749 0.14333 0.0
H195 H 0.8843 0.90781 0.01865 0.0
H196 H 0.87699 0.85543 0.99601 0.0
H197 H 0.96698 0.92443 0.00181 0.0
H198 H 0.5678 0.69881 0.13389 0.0
H199 H 0.5278 0.62025 0.04102 0.0
H200 H 0.6525 0.7054 0.0204 0.0
H201 H 0.77699 0.79005 0.03333 0.0
H202 H 0.82178 0.87399 0.12443 0.0
H203 H 0.68872 0.79876 0.14107 0.0
C204 C 0.58589 0.70121 0.10886 0.0
C205 C 0.53936 0.6532 0.08913 0.0
C206 C 0.65786 0.75052 0.09709 0.0
C207 C 0.56277 0.65663 0.05664 0.0
C208 C 0.63406 0.70522 0.04488 0.0
C209 C 0.75838 0.79433 0.05617 0.0
C210 C 0.81074 0.83652 0.07832 0.0
C211 C 0.6829 0.75109 0.06546 0.0
C212 C 0.78342 0.84058 0.10756 0.0
C213 C 0.70743 0.79743 0.11711 0.0
H214 H 0.81445 0.2227 0.44499 0.0
H215 H 0.92834 0.19093 0.50903 0.0
H216 H 1.04279 0.29265 0.50326 0.0
H217 H 1.1128 0.39114 0.47842 0.0
H218 H 0.99954 0.42179 0.41359 0.0
H219 H 0.88312 0.32061 0.42115 0.0
C220 C 0.86408 0.23794 0.45787 0.0
C221 C 0.86228 0.19876 0.47744 0.0
C222 C 0.93025 0.29661 0.45418 0.0
C223 C 0.92768 0.21972 0.49375 0.0
C224 C 0.9934 0.27808 0.49047 0.0
C225 C 1.06221 0.37547 0.46633 0.0
C226 C 1.06438 0.41361 0.44549 0.0
C227 C 0.99562 0.31694 0.47058 0.0
C228 C 0.99895 0.39296 0.42957 0.0
C229 C 0.93252 0.3352 0.43394 0.0
H230 H 0.67349 0.84075 0.75041 0.0
H231 H 0.85912 0.9431 0.81583 0.0
H232 H 0.85845 1.02053 0.80996 0.0
H233 H 0.80477 0.0594 0.78648 0.0
H234 H 0.6142 0.95524 0.72419 0.0
H235 H 0.61841 0.87932 0.72759 0.0
C236 C 0.71399 0.88014 0.76322 0.0
C237 C 0.7661 0.88592 0.78364 0.0
C238 C 0.71287 0.92451 0.75997 0.0
C239 C 0.81778 0.93711 0.80032 0.0
C240 C 0.81774 0.98162 0.79682 0.0
C241 C 0.76407 1.01991 0.77382 0.0
C242 C 0.70975 1.01318 0.75485 0.0
C243 C 0.7654 0.97574 0.77684 0.0
C244 C 0.65768 0.96206 0.73826 0.0
C245 C 0.65957 0.91836 0.74054 0.0
H246 H 1.04309 0.69064 0.1102 0.0
H247 H 0.819 0.57136 0.15389 0.0
H248 H 0.80086 0.63677 0.13741 0.0
H249 H 0.84766 0.72695 0.10975 0.0
H250 H 1.07282 0.84877 0.06864 0.0
H251 H 1.09196 0.78314 0.0848 0.0
C252 C 0.99069 0.67929 0.11657 0.0
C253 C 0.93242 0.62598 0.13314 0.0
C254 C 0.98095 0.71751 0.10749 0.0
C255 C 0.86436 0.6116 0.14064 0.0
C256 C 0.85404 0.64913 0.13144 0.0
C257 C 0.9015 0.73963 0.10525 0.0
C258 C 0.95985 0.79309 0.08914 0.0
C259 C 0.91185 0.70206 0.11483 0.0
C260 C 1.02806 0.80809 0.08168 0.0
C261 C 1.03873 0.77064 0.09084 0.0
H262 H 0.51077 0.80631 0.49869 0.0
H263 H 0.41688 0.85925 0.43744 0.0
H264 H 0.31137 0.75973 0.42559 0.0
H265 H 0.24787 0.65756 0.42976 0.0
H266 H 0.33826 0.6019 0.49009 0.0
H267 H 0.44165 0.70164 0.50566 0.0
C268 C 0.46702 0.79603 0.48292 0.0
C269 C 0.47269 0.84084 0.46884 0.0
C270 C 0.40539 0.73791 0.47611 0.0
C271 C 0.41487 0.82625 0.44859 0.0
C272 C 0.35409 0.76908 0.44174 0.0
C273 C 0.28984 0.66744 0.44667 0.0
C274 C 0.28578 0.62281 0.45882 0.0
C275 C 0.34913 0.72467 0.455 0.0
C276 C 0.34015 0.63569 0.48073 0.0
C277 C 0.39946 0.69273 0.48933 0.0
H278 H 0.57205 0.2076 0.85326 0.0
H279 H 0.79694 0.36934 0.83151 0.0
H280 H 0.82675 0.3197 0.80265 0.0
H281 H 0.78772 0.23022 0.78145 0.0
H282 H 0.56327 0.06917 0.80213 0.0
H283 H 0.53401 0.11812 0.83319 0.0
C284 C 0.62754 0.23206 0.84216 0.0
C285 C 0.68212 0.29232 0.84479 0.0
C286 C 0.64429 0.20318 0.82525 0.0
C287 C 0.75403 0.32296 0.83048 0.0
C288 C 0.77107 0.29462 0.81368 0.0
C289 C 0.73277 0.20618 0.79307 0.0
C290 C 0.67766 0.14637 0.78985 0.0
C291 C 0.71659 0.23481 0.8107 0.0
C292 C 0.60637 0.11522 0.80465 0.0
C293 C 0.58977 0.14326 0.82225 0.0
H294 H 0.65649 0.73203 0.57878 0.0
H295 H 0.84048 0.81485 0.50794 0.0
H296 H 0.84079 0.73773 0.51797 0.0
H297 H 0.78667 0.64541 0.54584 0.0
H298 H 0.59852 0.55958 0.61413 0.0
H299 H 0.6035 0.64011 0.60729 0.0
C300 C 0.69699 0.73335 0.56577 0.0
C301 C 0.74808 0.77888 0.54251 0.0
C302 C 0.69658 0.68867 0.57152 0.0
C303 C 0.79982 0.7798 0.52558 0.0
C304 C 0.8004 0.73597 0.53147 0.0
C305 C 0.747 0.64467 0.55917 0.0
C306 C 0.69242 0.59704 0.58043 0.0
C307 C 0.7487 0.69002 0.55417 0.0
C308 C 0.64165 0.59636 0.59801 0.0
C309 C 0.64402 0.64203 0.5938 0.0
H310 H 0.84386 0.50286 0.8551 0.0
H311 H 0.99018 0.68573 0.83432 0.0
H312 H 1.09993 0.69567 0.84086 0.0
H313 H 0.15618 0.65286 0.85679 0.0
H314 H 1.00774 0.46936 0.87481 0.0
H315 H 0.89928 0.45942 0.86474 0.0
C316 C 0.89965 0.54499 0.85164 0.0
C317 C 0.90737 0.59352 0.84427 0.0
C318 C 0.96328 0.55032 0.85497 0.0
C319 C 0.98116 0.64736 0.83973 0.0
C320 C 1.04449 0.65311 0.84368 0.0
C321 C 1.10025 0.61055 0.85756 0.0
C322 C 1.09112 0.56162 0.8662 0.0
C323 C 1.0367 0.60502 0.85173 0.0
C324 C 1.01727 0.50754 0.86777 0.0
C325 C 0.95478 0.50192 0.86232 0.0
H326 H 0.24505 0.65235 0.18042 0.0
H327 H 0.3804 0.61766 0.14605 0.0
H328 H 0.49394 0.71814 0.15251 0.0
H329 H 0.55666 0.8151 0.17187 0.0
H330 H 0.42164 0.84854 0.20764 0.0
H331 H 0.30686 0.75021 0.19642 0.0
C332 C 0.29926 0.66672 0.17403 0.0
C333 C 0.30357 0.62688 0.16294 0.0
C334 C 0.36489 0.72472 0.17808 0.0
C335 C 0.37479 0.64684 0.15479 0.0
C336 C 0.44009 0.70448 0.15847 0.0
C337 C 0.50194 0.80091 0.17645 0.0
C338 C 0.49724 0.8389 0.19028 0.0
C339 C 0.43609 0.7437 0.17057 0.0
C340 C 0.4262 0.81997 0.19675 0.0
C341 C 0.36074 0.7637 0.19053 0.0
H342 H 0.67073 0.3146 0.47745 0.0
H343 H 0.4696 0.18311 0.53628 0.0
H344 H 0.48221 0.25676 0.56421 0.0
H345 H 0.55366 0.35864 0.57371 0.0
H346 H 0.75686 0.49046 0.51678 0.0
H347 H 0.73996 0.41693 0.48568 0.0
C348 C 0.62915 0.30222 0.49602 0.0
C349 C 0.56947 0.24365 0.50491 0.0
C350 C 0.63736 0.34483 0.5123 0.0
C351 C 0.51637 0.22802 0.52928 0.0
C352 C 0.52348 0.27003 0.54521 0.0
C353 C 0.59401 0.37089 0.55449 0.0
C354 C 0.65654 0.42934 0.54751 0.0
C355 C 0.58434 0.3285 0.53729 0.0
C356 C 0.70826 0.44543 0.5223 0.0
C357 C 0.69869 0.4035 0.50472 0.0
H358 H 0.56064 0.63989 0.84551 0.0
H359 H 0.4647 0.48832 0.90761 0.0
H360 H 0.35358 0.47423 0.91844 0.0
H361 H 0.27926 0.50266 0.90993 0.0
H362 H 0.37612 0.6563 0.85013 0.0
H363 H 0.48763 0.67057 0.83873 0.0
C364 C 0.51571 0.60378 0.86152 0.0
C365 C 0.52307 0.56535 0.87557 0.0
C366 C 0.45026 0.59564 0.868 0.0
C367 C 0.46267 0.51907 0.89625 0.0
C368 C 0.39814 0.51074 0.90252 0.0
C369 C 0.32484 0.53974 0.89468 0.0
C370 C 0.31699 0.57782 0.88067 0.0
C371 C 0.3907 0.54849 0.88855 0.0
C372 C 0.37798 0.62508 0.8607 0.0
C373 C 0.44282 0.63365 0.85436 0.0
H374 H 0.97055 0.23137 0.15514 0.0
H375 H 0.8648 0.28229 0.20382 0.0
H376 H 0.75696 0.18207 0.21966 0.0
H377 H 0.69121 0.0789 0.22002 0.0
H378 H 0.79281 0.0264 0.17002 0.0
H379 H 0.90294 0.1274 0.15437 0.0
C380 C 0.92389 0.22057 0.16915 0.0
C381 C 0.92641 0.26489 0.17817 0.0
C382 C 0.86094 0.1622 0.17802 0.0
C383 C 0.86487 0.24958 0.19627 0.0
C384 C 0.80293 0.19204 0.2055 0.0
C385 C 0.73779 0.08988 0.20582 0.0
C386 C 0.73427 0.04553 0.19621 0.0
C387 C 0.80026 0.14795 0.1966 0.0
C388 C 0.79437 0.05995 0.1775 0.0
C389 C 0.85727 0.11767 0.16865 0.0
H390 H 0.2393 0.56729 0.06623 0.0
H391 H 1.06564 0.38317 0.06132 0.0
H392 H 1.08874 0.39154 0.00135 0.0
H393 H 0.14296 0.45349 0.94947 0.0
H394 H 0.31798 0.63688 0.9547 0.0
H395 H 0.31243 0.62698 0.01534 0.0
C396 C 0.20781 0.52896 0.05206 0.0
C397 C 0.14991 0.47475 0.06795 0.0
C398 C 0.22213 0.53417 0.01767 0.0
C399 C 1.11021 0.4253 0.04957 0.0
C400 C 1.12328 0.43017 0.01526 0.0
C401 C 0.18247 0.4908 0.96399 0.0
C402 C 0.23131 0.54587 0.94774 0.0
C403 C 0.17716 0.48458 0.99888 0.0
C404 C 0.28113 0.59418 0.96669 0.0
C405 C 0.27674 0.58848 0.00136 0.0
H406 H 0.79402 0.04253 0.37284 0.0
H407 H 0.59128 1.00678 0.39696 0.0
H408 H 0.55889 0.99392 0.3389 0.0
H409 H 0.57977 0.98095 0.28233 0.0
H410 H 0.77736 1.011 0.25745 0.0
H411 H 0.82158 0.03951 0.31412 0.0
C412 C 0.74353 0.03291 0.3652 0.0
C413 C 0.69465 1.02492 0.38922 0.0
C414 C 0.72432 1.02445 0.33156 0.0
C415 C 0.62943 1.01255 0.37902 0.0
C416 C 0.61078 1.00517 0.34579 0.0
C417 C 0.63324 0.995 0.28933 0.0
C418 C 0.67521 0.99368 0.26617 0.0
C419 C 0.65656 1.0093 0.32203 0.0
C420 C 0.74458 1.01208 0.27506 0.0
C421 C 0.76926 0.0277 0.3075 0.0
H422 H 0.75529 0.59677 0.75516 0.0
H423 H 0.52442 0.43921 0.77079 0.0
H424 H 0.51123 0.42675 0.7112 0.0
H425 H 0.56811 0.45695 0.65496 0.0
H426 H 0.79703 0.61474 0.63847 0.0
H427 H 0.80845 0.63204 0.69797 0.0
C428 C 0.70196 0.56011 0.74541 0.0
C429 C 0.64109 0.51863 0.76726 0.0
C430 C 0.69458 0.55352 0.71104 0.0
C431 C 0.57215 0.47148 0.75443 0.0
C432 C 0.56455 0.46433 0.72038 0.0
C433 C 0.61984 0.49547 0.66458 0.0
C434 C 0.68179 0.53454 0.64292 0.0
C435 C 0.62567 0.50453 0.69855 0.0
C436 C 0.74885 0.58452 0.65505 0.0
C437 C 0.75535 0.594 0.68895 0.0
H438 H 0.74348 0.06427 0.57582 0.0
H439 H 0.50588 0.96808 0.58012 0.0
H440 H 0.50904 0.97653 0.6397 0.0
H441 H 0.58029 1.01749 0.69031 0.0
H442 H 0.81615 0.11168 0.68824 0.0
H443 H 0.81332 0.09773 0.62847 0.0
C444 C 0.69247 0.04471 0.58994 0.0
C445 C 0.62475 1.0163 0.57343 0.0
C446 C 0.69449 0.04959 0.62463 0.0
C447 C 0.55892 0.99075 0.59209 0.0
C448 C 0.56054 0.99552 0.62624 0.0
C449 C 0.63052 0.03398 0.67666 0.0
C450 C 0.69819 0.06536 0.69318 0.0
C451 C 0.62807 0.02573 0.64266 0.0
C452 C 0.76348 0.08701 0.67571 0.0
C453 C 0.76176 0.07928 0.64163 0.0
H454 H 0.92633 0.72787 0.91934 0.0
H455 H 0.69407 0.60322 0.95251 0.0
H456 H 0.72727 0.65316 0.00426 0.0
H457 H 0.8204 0.73881 0.03649 0.0
H458 H 1.048 0.86927 0.99933 0.0
H459 H 1.01933 0.81048 0.95226 0.0
C460 C 0.88289 0.71108 0.93804 0.0
C461 C 0.80761 0.66229 0.93205 0.0
C462 C 0.90183 0.74155 0.96661 0.0
C463 C 0.75223 0.64068 0.95661 0.0
C464 C 0.7712 0.66948 0.98599 0.0
C465 C 0.86338 0.75382 0.01799 0.0
C466 C 0.93586 0.80811 0.02067 0.0
C467 C 0.84534 0.72094 0.99065 0.0
C468 C 0.99205 0.82768 0.99726 0.0
C469 C 0.97543 0.79415 0.97055 0.0
H470 H 1.11118 0.37812 0.27767 0.0
H471 H 1.10269 0.50456 0.24078 0.0
H472 H 1.10767 0.53192 0.297 0.0
H473 H 1.12756 0.52707 0.35609 0.0
H474 H 0.14505 0.40629 0.39328 0.0
H475 H 1.12187 0.36846 0.33794 0.0
C476 C 1.10929 0.41101 0.28206 0.0
C477 C 1.10673 0.43937 0.25508 0.0
C478 C 1.11415 0.42766 0.31455 0.0
C479 C 1.1044 0.48196 0.26109 0.0
C480 C 1.10762 0.49786 0.29325 0.0
C481 C 1.12552 0.49211 0.35193 0.0
C482 C 1.13874 0.46976 0.3783 0.0
C483 C 1.11448 0.4721 0.32003 0.0
C484 C 1.13491 0.4239 0.37314 0.0
C485 C 1.12227 0.40272 0.34152 0.0
loop_
_geom_bond_atom_site_label_1
_geom_bond_atom_site_label_2
_geom_bond_distance
_geom_bond_site_symmetry_2
_ccdc_geom_bond_type
La0 C2 2.928 . S
La0 O20 2.521 . S
La0 O21 2.628 . S
La0 O22 2.554 . S
La0 O23 2.757 1_455 S
La0 O24 2.470 . S
La0 O29 2.482 . S
La0 O31 2.503 1_455 S
La1 C11 2.928 . S
La1 O23 2.482 . S
La1 O25 2.503 1_655 S
La1 O26 2.521 . S
La1 O27 2.628 . S
La1 O28 2.554 . S
La1 O29 2.757 1_655 S
La1 O30 2.470 . S
C2 La0 2.928 . S
C2 C3 1.503 . S
C2 O20 1.261 . S
C2 O21 1.243 . S
C3 C2 1.503 . S
C3 C4 1.394 . S
C3 C8 1.373 . S
C4 C3 1.394 . S
C4 C5 1.380 . S
C4 H32 0.930 . S
C5 C4 1.380 . S
C5 C6 1.376 . S
C5 H33 0.930 . S
C6 C5 1.376 . S
C6 C7 1.370 . S
C7 C6 1.370 . S
C7 C8 1.396 . S
C7 H34 0.929 . S
C8 C3 1.373 . S
C8 C7 1.396 . S
C8 H35 0.929 . S
C9 O22 1.240 . S
C9 O23 1.289 1_455 S
C10 O24 1.258 . S
C10 O25 1.256 . S
C11 La1 2.928 . S
C11 C12 1.503 . S
C11 O26 1.261 . S
C11 O27 1.243 . S
C12 C11 1.503 . S
C12 C13 1.394 . S
C12 C17 1.373 . S
C13 C12 1.394 . S
C13 C14 1.380 . S
C13 H36 0.930 . S
C14 C13 1.380 . S
C14 C15 1.376 . S
C14 H37 0.930 . S
C15 C14 1.376 . S
C15 C16 1.370 . S
C16 C15 1.370 . S
C16 C17 1.396 . S
C16 H38 0.929 . S
C17 C12 1.373 . S
C17 C16 1.396 . S
C17 H39 0.929 . S
C18 O28 1.240 1_455 S
C18 O29 1.289 . S
C19 O30 1.258 . S
C19 O31 1.256 . S
O20 La0 2.521 . S
O20 C2 1.261 . S
O21 La0 2.628 . S
O21 C2 1.243 . S
O22 La0 2.554 . S
O22 C9 1.240 . S
O23 La0 2.757 1_655 S
O23 La1 2.482 . S
O23 C9 1.289 1_655 S
O24 La0 2.470 . S
O24 C10 1.258 . S
O25 La1 2.503 1_455 S
O25 C10 1.256 . S
O26 La1 2.521 . S
O26 C11 1.261 . S
O27 La1 2.628 . S
O27 C11 1.243 . S
O28 La1 2.554 . S
O28 C18 1.240 1_655 S
O29 La0 2.482 . S
O29 La1 2.757 1_455 S
O29 C18 1.289 . S
O30 La1 2.470 . S
O30 C19 1.258 . S
O31 La0 2.503 1_655 S
O31 C19 1.256 . S
H32 C4 0.930 . S
H33 C5 0.930 . S
H34 C7 0.929 . S
H35 C8 0.929 . S
H36 C13 0.930 . S
H37 C14 0.930 . S
H38 C16 0.929 . S
H39 C17 0.929 . S
La40 C42 2.928 1_545 S
La40 O60 2.521 1_545 S
La40 O61 2.628 1_545 S
La40 O62 2.554 . S
La40 O63 2.757 . S
La40 O64 2.470 1_545 S
La40 O69 2.482 . S
La40 O71 2.503 . S
La41 C51 2.928 . S
La41 O63 2.482 . S
La41 O65 2.503 1_545 S
La41 O66 2.521 . S
La41 O67 2.628 . S
La41 O68 2.554 . S
La41 O69 2.757 . S
La41 O70 2.470 . S
C42 La40 2.928 1_565 S
C42 C43 1.503 . S
C42 O60 1.261 . S
C42 O61 1.243 . S
C43 C42 1.503 . S
C43 C44 1.394 . S
C43 C48 1.373 . S
C44 C43 1.394 . S
C44 C45 1.380 . S
C44 H72 0.930 . S
C45 C44 1.380 . S
C45 C46 1.376 . S
C45 H73 0.930 . S
C46 C45 1.376 . S
C46 C47 1.370 . S
C47 C46 1.370 . S
C47 C48 1.396 . S
C47 H74 0.929 . S
C48 C43 1.373 . S
C48 C47 1.396 . S
C48 H75 0.929 . S
C49 O62 1.240 . S
C49 O63 1.289 . S
C50 O64 1.258 . S
C50 O65 1.256 . S
C51 La41 2.928 . S
C51 C52 1.503 . S
C51 O66 1.261 . S
C51 O67 1.243 . S
C52 C51 1.503 . S
C52 C53 1.394 . S
C52 C57 1.373 . S
C53 C52 1.394 . S
C53 C54 1.380 . S
C53 H76 0.930 . S
C54 C53 1.380 . S
C54 C55 1.376 . S
C54 H77 0.930 . S
C55 C54 1.376 . S
C55 C56 1.370 . S
C56 C55 1.370 . S
C56 C57 1.396 . S
C56 H78 0.929 . S
C57 C52 1.373 . S
C57 C56 1.396 . S
C57 H79 0.929 . S
C58 O68 1.240 . S
C58 O69 1.289 . S
C59 O70 1.258 . S
C59 O71 1.256 . S
O60 La40 2.521 1_565 S
O60 C42 1.261 . S
O61 La40 2.628 1_565 S
O61 C42 1.243 . S
O62 La40 2.554 . S
O62 C49 1.240 . S
O63 La40 2.757 . S
O63 La41 2.482 . S
O63 C49 1.289 . S
O64 La40 2.470 1_565 S
O64 C50 1.258 . S
O65 La41 2.503 1_565 S
O65 C50 1.256 . S
O66 La41 2.521 . S
O66 C51 1.261 . S
O67 La41 2.628 . S
O67 C51 1.243 . S
O68 La41 2.554 . S
O68 C58 1.240 . S
O69 La40 2.482 . S
O69 La41 2.757 . S
O69 C58 1.289 . S
O70 La41 2.470 . S
O70 C59 1.258 . S
O71 La40 2.503 . S
O71 C59 1.256 . S
H72 C44 0.930 . S
H73 C45 0.930 . S
H74 C47 0.929 . S
H75 C48 0.929 . S
H76 C53 0.930 . S
H77 C54 0.930 . S
H78 C56 0.929 . S
H79 C57 0.929 . S
La80 C82 2.928 . S
La80 O100 2.521 . S
La80 O101 2.628 . S
La80 O102 2.554 . S
La80 O103 2.757 . S
La80 O104 2.470 . S
La80 O109 2.482 . S
La80 O111 2.503 . S
La81 C91 2.928 . S
La81 O103 2.482 . S
La81 O105 2.503 . S
La81 O106 2.521 . S
La81 O107 2.628 . S
La81 O108 2.554 . S
La81 O109 2.757 . S
La81 O110 2.470 . S
C82 La80 2.928 . S
C82 C83 1.503 . S
C82 O100 1.261 . S
C82 O101 1.243 . S
C83 C82 1.503 . S
C83 C84 1.394 . S
C83 C88 1.373 . S
C84 C83 1.394 . S
C84 C85 1.380 . S
C84 H112 0.930 . S
C85 C84 1.380 . S
C85 C86 1.376 . S
C85 H113 0.930 . S
C86 C85 1.376 . S
C86 C87 1.370 . S
C87 C86 1.370 . S
C87 C88 1.396 . S
C87 H114 0.929 . S
C88 C83 1.373 . S
C88 C87 1.396 . S
C88 H115 0.929 . S
C89 O102 1.240 . S
C89 O103 1.289 . S
C90 O104 1.258 . S
C90 O105 1.256 . S
C91 La81 2.928 . S
C91 C92 1.503 . S
C91 O106 1.261 . S
C91 O107 1.243 . S
C92 C91 1.503 . S
C92 C93 1.394 . S
C92 C97 1.373 . S
C93 C92 1.394 . S
C93 C94 1.380 . S
C93 H116 0.930 . S
C94 C93 1.380 . S
C94 C95 1.376 . S
C94 H117 0.930 . S
C95 C94 1.376 . S
C95 C96 1.370 . S
C96 C95 1.370 . S
C96 C97 1.396 . S
C96 H118 0.929 . S
C97 C92 1.373 . S
C97 C96 1.396 . S
C97 H119 0.929 . S
C98 O108 1.240 . S
C98 O109 1.289 . S
C99 O110 1.258 . S
C99 O111 1.256 . S
O100 La80 2.521 . S
O100 C82 1.261 . S
O101 La80 2.628 . S
O101 C82 1.243 . S
O102 La80 2.554 . S
O102 C89 1.240 . S
O103 La80 2.757 . S
O103 La81 2.482 . S
O103 C89 1.289 . S
O104 La80 2.470 . S
O104 C90 1.258 . S
O105 La81 2.503 . S
O105 C90 1.256 . S
O106 La81 2.521 . S
O106 C91 1.261 . S
O107 La81 2.628 . S
O107 C91 1.243 . S
O108 La81 2.554 . S
O108 C98 1.240 . S
O109 La80 2.482 . S
O109 La81 2.757 . S
O109 C98 1.289 . S
O110 La81 2.470 . S
O110 C99 1.258 . S
O111 La80 2.503 . S
O111 C99 1.256 . S
H112 C84 0.930 . S
H113 C85 0.930 . S
H114 C87 0.929 . S
H115 C88 0.929 . S
H116 C93 0.930 . S
H117 C94 0.930 . S
H118 C96 0.929 . S
H119 C97 0.929 . S
C120 N121 1.317 1_565 S
C120 N122 1.348 . S
C120 C123 1.485 1_565 S
N121 C120 1.317 1_545 S
N121 N125 1.370 . S
N122 C120 1.348 . S
N122 C124 1.346 . S
C123 C120 1.485 1_545 S
C123 H127 0.960 . S
C123 H128 0.961 1_545 S
C123 H129 0.960 . S
C124 N122 1.346 . S
C124 N125 1.307 1_565 S
C124 C126 1.486 . S
N125 N121 1.370 . S
N125 C124 1.307 1_545 S
C126 C124 1.486 . S
C126 H130 0.960 . S
C126 H131 0.960 . S
C126 H132 0.959 . S
H127 C123 0.960 . S
H128 C123 0.961 1_565 S
H129 C123 0.960 . S
H130 C126 0.960 . S
H131 C126 0.960 . S
H132 C126 0.959 . S
C133 N134 1.317 . S
C133 N135 1.348 . S
C133 C136 1.485 . S
N134 C133 1.317 . S
N134 N138 1.370 . S
N135 C133 1.348 . S
N135 C137 1.346 . S
C136 C133 1.485 . S
C136 H140 0.960 . S
C136 H141 0.961 . S
C136 H142 0.960 . S
C137 N135 1.346 . S
C137 N138 1.307 . S
C137 C139 1.486 . S
N138 N134 1.370 . S
N138 C137 1.307 . S
C139 C137 1.486 . S
C139 H143 0.960 . S
C139 H144 0.960 . S
C139 H145 0.959 . S
H140 C136 0.960 . S
H141 C136 0.961 . S
H142 C136 0.960 . S
H143 C139 0.960 . S
H144 C139 0.960 . S
H145 C139 0.959 . S
C146 N147 1.317 . S
C146 N148 1.348 . S
C146 C149 1.485 . S
N147 C146 1.317 . S
N147 N151 1.370 . S
N148 C146 1.348 . S
N148 C150 1.346 . S
C149 C146 1.485 . S
C149 H153 0.960 . S
C149 H154 0.961 . S
C149 H155 0.960 . S
C150 N148 1.346 . S
C150 N151 1.307 . S
C150 C152 1.486 1_455 S
N151 N147 1.370 . S
N151 C150 1.307 . S
C152 C150 1.486 1_655 S
C152 H156 0.960 . S
C152 H157 0.960 . S
C152 H158 0.959 . S
H153 C149 0.960 . S
H154 C149 0.961 . S
H155 C149 0.960 . S
H156 C152 0.960 . S
H157 C152 0.960 . S
H158 C152 0.959 . S
C159 N160 1.317 . S
C159 N161 1.348 . S
C159 C162 1.485 . S
N160 C159 1.317 . S
N160 N164 1.370 . S
N161 C159 1.348 . S
N161 C163 1.346 . S
C162 C159 1.485 . S
C162 H166 0.960 . S
C162 H167 0.961 . S
C162 H168 0.960 . S
C163 N161 1.346 . S
C163 N164 1.307 . S
C163 C165 1.486 . S
N164 N160 1.370 . S
N164 C163 1.307 . S
C165 C163 1.486 . S
C165 H169 0.960 . S
C165 H170 0.960 . S
C165 H171 0.959 . S
H166 C162 0.960 . S
H167 C162 0.961 . S
H168 C162 0.960 . S
H169 C165 0.960 . S
H170 C165 0.960 . S
H171 C165 0.959 . S
C172 N173 1.317 . S
C172 N174 1.348 . S
C172 C175 1.485 . S
N173 C172 1.317 . S
N173 N177 1.370 . S
N174 C172 1.348 . S
N174 C176 1.346 . S
C175 C172 1.485 . S
C175 H179 0.960 . S
C175 H180 0.961 . S
C175 H181 0.960 . S
C176 N174 1.346 . S
C176 N177 1.307 . S
C176 C178 1.486 . S
N177 N173 1.370 . S
N177 C176 1.307 . S
C178 C176 1.486 . S
C178 H182 0.960 . S
C178 H183 0.960 . S
C178 H184 0.959 . S
H179 C175 0.960 . S
H180 C175 0.961 . S
H181 C175 0.960 . S
H182 C178 0.960 . S
H183 C178 0.960 . S
H184 C178 0.959 . S
C185 N186 1.317 . S
C185 N187 1.348 . S
C185 C188 1.485 . S
N186 C185 1.317 . S
N186 N190 1.370 . S
N187 C185 1.348 . S
N187 C189 1.346 . S
C188 C185 1.485 . S
C188 H192 0.960 . S
C188 H193 0.961 . S
C188 H194 0.960 . S
C189 N187 1.346 . S
C189 N190 1.307 . S
C189 C191 1.486 . S
N190 N186 1.370 . S
N190 C189 1.307 . S
C191 C189 1.486 . S
C191 H195 0.960 . S
C191 H196 0.960 . S
C191 H197 0.959 . S
H192 C188 0.960 . S
H193 C188 0.961 . S
H194 C188 0.960 . S
H195 C191 0.960 . S
H196 C191 0.960 . S
H197 C191 0.959 . S
H198 C204 0.930 . S
H199 C207 0.930 . S
H200 C208 0.930 . S
H201 C209 0.930 . S
H202 C212 0.930 . S
H203 C213 0.930 . S
C204 H198 0.930 . S
C204 C205 1.355 . S
C204 C206 1.415 . S
C205 C204 1.355 . S
C205 C207 1.419 . S
C206 C204 1.415 . S
C206 C211 1.425 . S
C206 C213 1.409 . S
C207 H199 0.930 . S
C207 C205 1.419 . S
C207 C208 1.362 . S
C208 H200 0.930 . S
C208 C207 1.362 . S
C208 C211 1.409 . S
C209 H201 0.930 . S
C209 C210 1.355 . S
C209 C211 1.415 . S
C210 C209 1.355 . S
C210 C212 1.419 . S
C211 C206 1.425 . S
C211 C208 1.409 . S
C211 C209 1.415 . S
C212 H202 0.930 . S
C212 C210 1.419 . S
C212 C213 1.362 . S
C213 H203 0.930 . S
C213 C206 1.409 . S
C213 C212 1.362 . S
H214 C220 0.930 . S
H215 C223 0.930 . S
H216 C224 0.930 . S
H217 C225 0.930 . S
H218 C228 0.930 . S
H219 C229 0.930 . S
C220 H214 0.930 . S
C220 C221 1.355 . S
C220 C222 1.415 . S
C221 C220 1.355 . S
C221 C223 1.419 . S
C222 C220 1.415 . S
C222 C227 1.425 . S
C222 C229 1.409 . S
C223 H215 0.930 . S
C223 C221 1.419 . S
C223 C224 1.362 . S
C224 H216 0.930 . S
C224 C223 1.362 . S
C224 C227 1.409 . S
C225 H217 0.930 . S
C225 C226 1.355 . S
C225 C227 1.415 . S
C226 C225 1.355 . S
C226 C228 1.419 . S
C227 C222 1.425 . S
C227 C224 1.409 . S
C227 C225 1.415 . S
C228 H218 0.930 . S
C228 C226 1.419 . S
C228 C229 1.362 . S
C229 H219 0.930 . S
C229 C222 1.409 . S
C229 C228 1.362 . S
H230 C236 0.930 . S
H231 C239 0.930 . S
H232 C240 0.930 1_545 S
H233 C241 0.930 1_545 S
H234 C244 0.930 . S
H235 C245 0.930 . S
C236 H230 0.930 . S
C236 C237 1.355 . S
C236 C238 1.415 . S
C237 C236 1.355 . S
C237 C239 1.419 . S
C238 C236 1.415 . S
C238 C243 1.425 . S
C238 C245 1.409 . S
C239 H231 0.930 . S
C239 C237 1.419 . S
C239 C240 1.362 . S
C240 H232 0.930 1_565 S
C240 C239 1.362 . S
C240 C243 1.409 . S
C241 H233 0.930 1_565 S
C241 C242 1.355 . S
C241 C243 1.415 . S
C242 C241 1.355 . S
C242 C244 1.419 . S
C243 C238 1.425 . S
C243 C240 1.409 . S
C243 C241 1.415 . S
C244 H234 0.930 . S
C244 C242 1.419 . S
C244 C245 1.362 . S
C245 H235 0.930 . S
C245 C238 1.409 . S
C245 C244 1.362 . S
H246 C252 0.930 . S
H247 C255 0.930 . S
H248 C256 0.930 . S
H249 C257 0.930 . S
H250 C260 0.930 . S
H251 C261 0.930 . S
C252 H246 0.930 . S
C252 C253 1.355 . S
C252 C254 1.415 . S
C253 C252 1.355 . S
C253 C255 1.419 . S
C254 C252 1.415 . S
C254 C259 1.425 . S
C254 C261 1.409 . S
C255 H247 0.930 . S
C255 C253 1.419 . S
C255 C256 1.362 . S
C256 H248 0.930 . S
C256 C255 1.362 . S
C256 C259 1.409 . S
C257 H249 0.930 . S
C257 C258 1.355 . S
C257 C259 1.415 . S
C258 C257 1.355 . S
C258 C260 1.419 . S
C259 C254 1.425 . S
C259 C256 1.409 . S
C259 C257 1.415 . S
C260 H250 0.930 . S
C260 C258 1.419 . S
C260 C261 1.362 . S
C261 H251 0.930 . S
C261 C254 1.409 . S
C261 C260 1.362 . S
H262 C268 0.930 . S
H263 C271 0.930 . S
H264 C272 0.930 . S
H265 C273 0.930 . S
H266 C276 0.930 . S
H267 C277 0.930 . S
C268 H262 0.930 . S
C268 C269 1.355 . S
C268 C270 1.415 . S
C269 C268 1.355 . S
C269 C271 1.419 . S
C270 C268 1.415 . S
C270 C275 1.425 . S
C270 C277 1.409 . S
C271 H263 0.930 . S
C271 C269 1.419 . S
C271 C272 1.362 . S
C272 H264 0.930 . S
C272 C271 1.362 . S
C272 C275 1.409 . S
C273 H265 0.930 . S
C273 C274 1.355 . S
C273 C275 1.415 . S
C274 C273 1.355 . S
C274 C276 1.419 . S
C275 C270 1.425 . S
C275 C272 1.409 . S
C275 C273 1.415 . S
C276 H266 0.930 . S
C276 C274 1.419 . S
C276 C277 1.362 . S
C277 H267 0.930 . S
C277 C270 1.409 . S
C277 C276 1.362 . S
H278 C284 0.930 . S
H279 C287 0.930 . S
H280 C288 0.930 . S
H281 C289 0.930 . S
H282 C292 0.930 . S
H283 C293 0.930 . S
C284 H278 0.930 . S
C284 C285 1.355 . S
C284 C286 1.415 . S
C285 C284 1.355 . S
C285 C287 1.419 . S
C286 C284 1.415 . S
C286 C291 1.425 . S
C286 C293 1.409 . S
C287 H279 0.930 . S
C287 C285 1.419 . S
C287 C288 1.362 . S
C288 H280 0.930 . S
C288 C287 1.362 . S
C288 C291 1.409 . S
C289 H281 0.930 . S
C289 C290 1.355 . S
C289 C291 1.415 . S
C290 C289 1.355 . S
C290 C292 1.419 . S
C291 C286 1.425 . S
C291 C288 1.409 . S
C291 C289 1.415 . S
C292 H282 0.930 . S
C292 C290 1.419 . S
C292 C293 1.362 . S
C293 H283 0.930 . S
C293 C286 1.409 . S
C293 C292 1.362 . S
H294 C300 0.930 . S
H295 C303 0.930 . S
H296 C304 0.930 . S
H297 C305 0.930 . S
H298 C308 0.930 . S
H299 C309 0.930 . S
C300 H294 0.930 . S
C300 C301 1.355 . S
C300 C302 1.415 . S
C301 C300 1.355 . S
C301 C303 1.419 . S
C302 C300 1.415 . S
C302 C307 1.425 . S
C302 C309 1.409 . S
C303 H295 0.930 . S
C303 C301 1.419 . S
C303 C304 1.362 . S
C304 H296 0.930 . S
C304 C303 1.362 . S
C304 C307 1.409 . S
C305 H297 0.930 . S
C305 C306 1.355 . S
C305 C307 1.415 . S
C306 C305 1.355 . S
C306 C308 1.419 . S
C307 C302 1.425 . S
C307 C304 1.409 . S
C307 C305 1.415 . S
C308 H298 0.930 . S
C308 C306 1.419 . S
C308 C309 1.362 . S
C309 H299 0.930 . S
C309 C302 1.409 . S
C309 C308 1.362 . S
H310 C316 0.930 . S
H311 C319 0.930 . S
H312 C320 0.930 . S
H313 C321 0.930 . S
H314 C324 0.930 . S
H315 C325 0.930 . S
C316 H310 0.930 . S
C316 C317 1.355 . S
C316 C318 1.415 . S
C317 C316 1.355 . S
C317 C319 1.419 . S
C318 C316 1.415 . S
C318 C323 1.425 . S
C318 C325 1.409 . S
C319 H311 0.930 . S
C319 C317 1.419 . S
C319 C320 1.362 . S
C320 H312 0.930 . S
C320 C319 1.362 . S
C320 C323 1.409 . S
C321 H313 0.930 . S
C321 C322 1.355 . S
C321 C323 1.415 . S
C322 C321 1.355 . S
C322 C324 1.419 . S
C323 C318 1.425 . S
C323 C320 1.409 . S
C323 C321 1.415 . S
C324 H314 0.930 . S
C324 C322 1.419 . S
C324 C325 1.362 . S
C325 H315 0.930 . S
C325 C318 1.409 . S
C325 C324 1.362 . S
H326 C332 0.930 . S
H327 C335 0.930 . S
H328 C336 0.930 . S
H329 C337 0.930 . S
H330 C340 0.930 . S
H331 C341 0.930 . S
C332 H326 0.930 . S
C332 C333 1.355 . S
C332 C334 1.415 . S
C333 C332 1.355 . S
C333 C335 1.419 . S
C334 C332 1.415 . S
C334 C339 1.425 . S
C334 C341 1.409 . S
C335 H327 0.930 . S
C335 C333 1.419 . S
C335 C336 1.362 . S
C336 H328 0.930 . S
C336 C335 1.362 . S
C336 C339 1.409 . S
C337 H329 0.930 . S
C337 C338 1.355 . S
C337 C339 1.415 . S
C338 C337 1.355 . S
C338 C340 1.419 . S
C339 C334 1.425 . S
C339 C336 1.409 . S
C339 C337 1.415 . S
C340 H330 0.930 . S
C340 C338 1.419 . S
C340 C341 1.362 . S
C341 H331 0.930 . S
C341 C334 1.409 . S
C341 C340 1.362 . S
H342 C348 0.930 . S
H343 C351 0.930 . S
H344 C352 0.930 . S
H345 C353 0.930 . S
H346 C356 0.930 . S
H347 C357 0.930 . S
C348 H342 0.930 . S
C348 C349 1.355 . S
C348 C350 1.415 . S
C349 C348 1.355 . S
C349 C351 1.419 . S
C350 C348 1.415 . S
C350 C355 1.425 . S
C350 C357 1.409 . S
C351 H343 0.930 . S
C351 C349 1.419 . S
C351 C352 1.362 . S
C352 H344 0.930 . S
C352 C351 1.362 . S
C352 C355 1.409 . S
C353 H345 0.930 . S
C353 C354 1.355 . S
C353 C355 1.415 . S
C354 C353 1.355 . S
C354 C356 1.419 . S
C355 C350 1.425 . S
C355 C352 1.409 . S
C355 C353 1.415 . S
C356 H346 0.930 . S
C356 C354 1.419 . S
C356 C357 1.362 . S
C357 H347 0.930 . S
C357 C350 1.409 . S
C357 C356 1.362 . S
H358 C364 0.930 . S
H359 C367 0.930 . S
H360 C368 0.930 . S
H361 C369 0.930 . S
H362 C372 0.930 . S
H363 C373 0.930 . S
C364 H358 0.930 . S
C364 C365 1.355 . S
C364 C366 1.415 . S
C365 C364 1.355 . S
C365 C367 1.419 . S
C366 C364 1.415 . S
C366 C371 1.425 . S
C366 C373 1.409 . S
C367 H359 0.930 . S
C367 C365 1.419 . S
C367 C368 1.362 . S
C368 H360 0.930 . S
C368 C367 1.362 . S
C368 C371 1.409 . S
C369 H361 0.930 . S
C369 C370 1.355 . S
C369 C371 1.415 . S
C370 C369 1.355 . S
C370 C372 1.419 . S
C371 C366 1.425 . S
C371 C368 1.409 . S
C371 C369 1.415 . S
C372 H362 0.930 . S
C372 C370 1.419 . S
C372 C373 1.362 . S
C373 H363 0.930 . S
C373 C366 1.409 . S
C373 C372 1.362 . S
H374 C380 0.930 . S
H375 C383 0.930 . S
H376 C384 0.930 . S
H377 C385 0.930 . S
H378 C388 0.930 . S
H379 C389 0.930 . S
C380 H374 0.930 . S
C380 C381 1.355 . S
C380 C382 1.415 . S
C381 C380 1.355 . S
C381 C383 1.419 . S
C382 C380 1.415 . S
C382 C387 1.425 . S
C382 C389 1.409 . S
C383 H375 0.930 . S
C383 C381 1.419 . S
C383 C384 1.362 . S
C384 H376 0.930 . S
C384 C383 1.362 . S
C384 C387 1.409 . S
C385 H377 0.930 . S
C385 C386 1.355 . S
C385 C387 1.415 . S
C386 C385 1.355 . S
C386 C388 1.419 . S
C387 C382 1.425 . S
C387 C384 1.409 . S
C387 C385 1.415 . S
C388 H378 0.930 . S
C388 C386 1.419 . S
C388 C389 1.362 . S
C389 H379 0.930 . S
C389 C382 1.409 . S
C389 C388 1.362 . S
H390 C396 0.930 . S
H391 C399 0.930 . S
H392 C400 0.942 . S
H393 C401 0.930 1_655 S
H394 C404 0.930 . S
H395 C405 0.930 1_554 S
C396 H390 0.930 . S
C396 C397 1.355 . S
C396 C398 1.415 . S
C397 C396 1.355 . S
C397 C399 1.419 1_455 S
C398 C396 1.415 . S
C398 C403 1.425 1_554 S
C398 C405 1.409 1_554 S
C399 H391 0.930 . S
C399 C397 1.419 1_655 S
C399 C400 1.362 . S
C400 H392 0.942 . S
C400 C399 1.362 . S
C400 C403 1.409 1_654 S
C401 H393 0.930 1_455 S
C401 C402 1.355 . S
C401 C403 1.415 . S
C402 C401 1.355 . S
C402 C404 1.419 . S
C403 C398 1.425 1_556 S
C403 C400 1.409 1_456 S
C403 C401 1.415 . S
C404 H394 0.930 . S
C404 C402 1.419 . S
C404 C405 1.362 . S
C405 H395 0.930 1_556 S
C405 C398 1.409 1_556 S
C405 C404 1.362 . S
H406 C412 0.930 . S
H407 C415 0.930 . S
H408 C416 0.930 . S
H409 C417 0.930 . S
H410 C420 0.940 . S
H411 C421 0.930 . S
C412 H406 0.930 . S
C412 C413 1.355 . S
C412 C414 1.415 . S
C413 C412 1.355 . S
C413 C415 1.419 . S
C414 C412 1.415 . S
C414 C419 1.425 . S
C414 C421 1.409 . S
C415 H407 0.930 . S
C415 C413 1.419 . S
C415 C416 1.362 . S
C416 H408 0.930 . S
C416 C415 1.362 . S
C416 C419 1.409 . S
C417 H409 0.930 . S
C417 C418 1.355 . S
C417 C419 1.415 . S
C418 C417 1.355 . S
C418 C420 1.419 . S
C419 C414 1.425 . S
C419 C416 1.409 . S
C419 C417 1.415 . S
C420 H410 0.940 . S
C420 C418 1.419 . S
C420 C421 1.362 . S
C421 H411 0.930 . S
C421 C414 1.409 . S
C421 C420 1.362 . S
H422 C428 0.930 . S
H423 C431 0.930 . S
H424 C432 0.930 . S
H425 C433 0.930 . S
H426 C436 0.930 . S
H427 C437 0.930 . S
C428 H422 0.930 . S
C428 C429 1.355 . S
C428 C430 1.415 . S
C429 C428 1.355 . S
C429 C431 1.419 . S
C430 C428 1.415 . S
C430 C435 1.425 . S
C430 C437 1.409 . S
C431 H423 0.930 . S
C431 C429 1.419 . S
C431 C432 1.362 . S
C432 H424 0.930 . S
C432 C431 1.362 . S
C432 C435 1.409 . S
C433 H425 0.930 . S
C433 C434 1.355 . S
C433 C435 1.415 . S
C434 C433 1.355 . S
C434 C436 1.419 . S
C435 C430 1.425 . S
C435 C432 1.409 . S
C435 C433 1.415 . S
C436 H426 0.930 . S
C436 C434 1.419 . S
C436 C437 1.362 . S
C437 H427 0.930 . S
C437 C430 1.409 . S
C437 C436 1.362 . S
H438 C444 0.930 . S
H439 C447 0.930 . S
H440 C448 0.930 . S
H441 C449 0.930 . S
H442 C452 0.930 . S
H443 C453 0.930 . S
C444 H438 0.930 . S
C444 C445 1.355 . S
C444 C446 1.415 . S
C445 C444 1.355 . S
C445 C447 1.419 1_545 S
C446 C444 1.415 . S
C446 C451 1.425 . S
C446 C453 1.409 . S
C447 H439 0.930 . S
C447 C445 1.419 1_565 S
C447 C448 1.362 . S
C448 H440 0.930 . S
C448 C447 1.362 . S
C448 C451 1.409 1_565 S
C449 H441 0.930 . S
C449 C450 1.355 1_565 S
C449 C451 1.415 1_565 S
C450 C449 1.355 1_545 S
C450 C452 1.419 . S
C451 C446 1.425 . S
C451 C448 1.409 1_545 S
C451 C449 1.415 1_545 S
C452 H442 0.930 . S
C452 C450 1.419 . S
C452 C453 1.362 . S
C453 H443 0.930 . S
C453 C446 1.409 . S
C453 C452 1.362 . S
H454 C460 0.930 . S
H455 C463 0.930 . S
H456 C464 0.930 . S
H457 C465 0.930 . S
H458 C468 0.930 . S
H459 C469 0.923 1_556 S
C460 H454 0.930 . S
C460 C461 1.355 . S
C460 C462 1.415 . S
C461 C460 1.355 . S
C461 C463 1.419 . S
C462 C460 1.415 . S
C462 C467 1.425 . S
C462 C469 1.409 1_556 S
C463 H455 0.930 . S
C463 C461 1.419 . S
C463 C464 1.362 . S
C464 H456 0.930 . S
C464 C463 1.362 . S
C464 C467 1.409 . S
C465 H457 0.930 . S
C465 C466 1.355 . S
C465 C467 1.415 1_554 S
C466 C465 1.355 . S
C466 C468 1.419 . S
C467 C462 1.425 . S
C467 C464 1.409 . S
C467 C465 1.415 1_556 S
C468 H458 0.930 . S
C468 C466 1.419 . S
C468 C469 1.362 . S
C469 H459 0.923 1_554 S
C469 C462 1.409 1_554 S
C469 C468 1.362 . S
H470 C476 0.930 . S
H471 C479 0.930 . S
H472 C480 0.930 . S
H473 C481 0.930 . S
H474 C484 0.930 . S
H475 C485 0.930 1_655 S
C476 H470 0.930 . S
C476 C477 1.355 . S
C476 C478 1.415 1_655 S
C477 C476 1.355 . S
C477 C479 1.419 1_655 S
C478 C476 1.415 1_455 S
C478 C483 1.425 . S
C478 C485 1.409 . S
C479 H471 0.930 . S
C479 C477 1.419 1_455 S
C479 C480 1.362 . S
C480 H472 0.930 . S
C480 C479 1.362 . S
C480 C483 1.409 . S
C481 H473 0.930 . S
C481 C482 1.355 . S
C481 C483 1.415 . S
C482 C481 1.355 . S
C482 C484 1.419 . S
C483 C478 1.425 . S
C483 C480 1.409 . S
C483 C481 1.415 . S
C484 H474 0.930 . S
C484 C482 1.419 . S
C484 C485 1.362 . S
C485 H475 0.930 1_455 S
C485 C478 1.409 . S
C485 C484 1.362 . S
C205 C6 0.472 . S
C210 N187 0.480 . S
C221 C59 1.809 . S
C226 N160 1.830 1_655 S
C237 C86 1.269 . S
C242 N173 1.271 1_565 S
C253 C15 0.890 . S
C258 N186 0.878 . S
C274 N161 1.992 . S
C269 C50 1.942 . S
C290 N174 1.404 . S
C285 C95 1.395 . S
C301 C46 1.097 . S
C306 N134 1.115 . S
C317 C99 2.891 . S
C322 N148 2.849 1_655 S
C333 C10 2.007 . S
C338 N122 1.999 . S
C354 N135 1.439 . S
C349 C55 1.374 . S
C370 N147 3.298 . S
C365 C90 3.231 . S
C381 C19 1.824 . S
C386 N121 1.840 . S
C402 N151 1.773 . S
C397 C18 1.716 . S
C413 C49 1.476 . S
C418 N125 1.449 . S
C429 C98 1.490 . S
C434 N138 1.554 . S
C450 N177 1.509 . S
C445 C58 1.454 . S
C466 N190 1.175 . S
C461 C89 1.225 . S
C477 C9 1.439 1_655 S
C482 N164 1.444 . S
