# Generated by pormake.
# Topology ptr, (4,4)-cn, num edge types: 1
# Building blocks:
#     Node 0, Type 0, BuildingBlock: KUFVIS_clean_sbu_0, # of connection points: 4
#     Node 1, Type 0, BuildingBlock: KUFVIS_clean_sbu_0, # of connection points: 4
#     Node 2, Type 0, BuildingBlock: KUFVIS_clean_sbu_0, # of connection points: 4
#     Node 3, Type 0, BuildingBlock: KUFVIS_clean_sbu_0, # of connection points: 4
#     Node 4, Type 0, BuildingBlock: KUFVIS_clean_sbu_0, # of connection points: 4
#     Node 5, Type 0, BuildingBlock: KUFVIS_clean_sbu_0, # of connection points: 4
#     Node 6, Type 0, BuildingBlock: KUFVIS_clean_sbu_0, # of connection points: 4
#     Node 7, Type 0, BuildingBlock: KUFVIS_clean_sbu_0, # of connection points: 4
#     Node 8, Type 0, BuildingBlock: KUFVIS_clean_sbu_0, # of connection points: 4
#     Node 9, Type 0, BuildingBlock: KUFVIS_clean_sbu_0, # of connection points: 4
#     Node 10, Type 0, BuildingBlock: KUFVIS_clean_sbu_0, # of connection points: 4
#     Node 11, Type 0, BuildingBlock: KUFVIS_clean_sbu_0, # of connection points: 4
#     Node 12, Type 0, BuildingBlock: KUFVIS_clean_sbu_0, # of connection points: 4
#     Node 13, Type 0, BuildingBlock: KUFVIS_clean_sbu_0, # of connection points: 4
#     Node 14, Type 0, BuildingBlock: KUFVIS_clean_sbu_0, # of connection points: 4
#     Node 15, Type 0, BuildingBlock: KUFVIS_clean_sbu_0, # of connection points: 4
#     Node 16, Type 0, BuildingBlock: KUFVIS_clean_sbu_0, # of connection points: 4
#     Node 17, Type 0, BuildingBlock: KUFVIS_clean_sbu_0, # of connection points: 4
#     Node 18, Type 1, BuildingBlock: MIFKUJ_clean_linker_1, # of connection points: 4
#     Node 19, Type 1, BuildingBlock: MIFKUJ_clean_linker_1, # of connection points: 4
#     Node 20, Type 1, BuildingBlock: MIFKUJ_clean_linker_1, # of connection points: 4
#     Node 21, Type 1, BuildingBlock: MIFKUJ_clean_linker_1, # of connection points: 4
#     Node 22, Type 1, BuildingBlock: MIFKUJ_clean_linker_1, # of connection points: 4
#     Node 23, Type 1, BuildingBlock: MIFKUJ_clean_linker_1, # of connection points: 4
#     Node 24, Type 1, BuildingBlock: MIFKUJ_clean_linker_1, # of connection points: 4
#     Node 25, Type 1, BuildingBlock: MIFKUJ_clean_linker_1, # of connection points: 4
#     Node 26, Type 1, BuildingBlock: MIFKUJ_clean_linker_1, # of connection points: 4
#     Node 27, Type 1, BuildingBlock: MIFKUJ_clean_linker_1, # of connection points: 4
#     Node 28, Type 1, BuildingBlock: MIFKUJ_clean_linker_1, # of connection points: 4
#     Node 29, Type 1, BuildingBlock: MIFKUJ_clean_linker_1, # of connection points: 4
#     Node 30, Type 1, BuildingBlock: MIFKUJ_clean_linker_1, # of connection points: 4
#     Node 31, Type 1, BuildingBlock: MIFKUJ_clean_linker_1, # of connection points: 4
#     Node 32, Type 1, BuildingBlock: MIFKUJ_clean_linker_1, # of connection points: 4
#     Node 33, Type 1, BuildingBlock: MIFKUJ_clean_linker_1, # of connection points: 4
#     Node 34, Type 1, BuildingBlock: MIFKUJ_clean_linker_1, # of connection points: 4
#     Node 35, Type 1, BuildingBlock: MIFKUJ_clean_linker_1, # of connection points: 4
#     Edge 36, Type (0, 1), BuildingBlock: ZUJKAS_clean_linker_0, # of connection points: 2
#     Edge 37, Type (0, 1), BuildingBlock: ZUJKAS_clean_linker_0, # of connection points: 2
#     Edge 38, Type (0, 1), BuildingBlock: ZUJKAS_clean_linker_0, # of connection points: 2
#     Edge 39, Type (0, 1), BuildingBlock: ZUJKAS_clean_linker_0, # of connection points: 2
#     Edge 40, Type (0, 1), BuildingBlock: ZUJKAS_clean_linker_0, # of connection points: 2
#     Edge 41, Type (0, 1), BuildingBlock: ZUJKAS_clean_linker_0, # of connection points: 2
#     Edge 42, Type (0, 1), BuildingBlock: ZUJKAS_clean_linker_0, # of connection points: 2
#     Edge 43, Type (0, 1), BuildingBlock: ZUJKAS_clean_linker_0, # of connection points: 2
#     Edge 44, Type (0, 1), BuildingBlock: ZUJKAS_clean_linker_0, # of connection points: 2
#     Edge 45, Type (0, 1), BuildingBlock: ZUJKAS_clean_linker_0, # of connection points: 2
#     Edge 46, Type (0, 1), BuildingBlock: ZUJKAS_clean_linker_0, # of connection points: 2
#     Edge 47, Type (0, 1), BuildingBlock: ZUJKAS_clean_linker_0, # of connection points: 2
#     Edge 48, Type (0, 1), BuildingBlock: ZUJKAS_clean_linker_0, # of connection points: 2
#     Edge 49, Type (0, 1), BuildingBlock: ZUJKAS_clean_linker_0, # of connection points: 2
#     Edge 50, Type (0, 1), BuildingBlock: ZUJKAS_clean_linker_0, # of connection points: 2
#     Edge 51, Type (0, 1), BuildingBlock: ZUJKAS_clean_linker_0, # of connection points: 2
#     Edge 52, Type (0, 1), BuildingBlock: ZUJKAS_clean_linker_0, # of connection points: 2
#     Edge 53, Type (0, 1), BuildingBlock: ZUJKAS_clean_linker_0, # of connection points: 2
#     Edge 54, Type (0, 1), BuildingBlock: ZUJKAS_clean_linker_0, # of connection points: 2
#     Edge 55, Type (0, 1), BuildingBlock: ZUJKAS_clean_linker_0, # of connection points: 2
#     Edge 56, Type (0, 1), BuildingBlock: ZUJKAS_clean_linker_0, # of connection points: 2
#     Edge 57, Type (0, 1), BuildingBlock: ZUJKAS_clean_linker_0, # of connection points: 2
#     Edge 58, Type (0, 1), BuildingBlock: ZUJKAS_clean_linker_0, # of connection points: 2
#     Edge 59, Type (0, 1), BuildingBlock: ZUJKAS_clean_linker_0, # of connection points: 2
#     Edge 60, Type (0, 1), BuildingBlock: ZUJKAS_clean_linker_0, # of connection points: 2
#     Edge 61, Type (0, 1), BuildingBlock: ZUJKAS_clean_linker_0, # of connection points: 2
#     Edge 62, Type (0, 1), BuildingBlock: ZUJKAS_clean_linker_0, # of connection points: 2
#     Edge 63, Type (0, 1), BuildingBlock: ZUJKAS_clean_linker_0, # of connection points: 2
#     Edge 64, Type (0, 1), BuildingBlock: ZUJKAS_clean_linker_0, # of connection points: 2
#     Edge 65, Type (0, 1), BuildingBlock: ZUJKAS_clean_linker_0, # of connection points: 2
#     Edge 66, Type (0, 1), BuildingBlock: ZUJKAS_clean_linker_0, # of connection points: 2
#     Edge 67, Type (0, 1), BuildingBlock: ZUJKAS_clean_linker_0, # of connection points: 2
#     Edge 68, Type (0, 1), BuildingBlock: ZUJKAS_clean_linker_0, # of connection points: 2
#     Edge 69, Type (0, 1), BuildingBlock: ZUJKAS_clean_linker_0, # of connection points: 2
#     Edge 70, Type (0, 1), BuildingBlock: ZUJKAS_clean_linker_0, # of connection points: 2
#     Edge 71, Type (0, 1), BuildingBlock: ZUJKAS_clean_linker_0, # of connection points: 2
#     Edge 72, Type (0, 1), BuildingBlock: ZUJKAS_clean_linker_0, # of connection points: 2
#     Edge 73, Type (0, 1), BuildingBlock: ZUJKAS_clean_linker_0, # of connection points: 2
#     Edge 74, Type (0, 1), BuildingBlock: ZUJKAS_clean_linker_0, # of connection points: 2
#     Edge 75, Type (0, 1), BuildingBlock: ZUJKAS_clean_linker_0, # of connection points: 2
#     Edge 76, Type (0, 1), BuildingBlock: ZUJKAS_clean_linker_0, # of connection points: 2
#     Edge 77, Type (0, 1), BuildingBlock: ZUJKAS_clean_linker_0, # of connection points: 2
#     Edge 78, Type (0, 1), BuildingBlock: ZUJKAS_clean_linker_0, # of connection points: 2
#     Edge 79, Type (0, 1), BuildingBlock: ZUJKAS_clean_linker_0, # of connection points: 2
#     Edge 80, Type (0, 1), BuildingBlock: ZUJKAS_clean_linker_0, # of connection points: 2
#     Edge 81, Type (0, 1), BuildingBlock: ZUJKAS_clean_linker_0, # of connection points: 2
#     Edge 82, Type (0, 1), BuildingBlock: ZUJKAS_clean_linker_0, # of connection points: 2
#     Edge 83, Type (0, 1), BuildingBlock: ZUJKAS_clean_linker_0, # of connection points: 2
#     Edge 84, Type (0, 1), BuildingBlock: ZUJKAS_clean_linker_0, # of connection points: 2
#     Edge 85, Type (0, 1), BuildingBlock: ZUJKAS_clean_linker_0, # of connection points: 2
#     Edge 86, Type (0, 1), BuildingBlock: ZUJKAS_clean_linker_0, # of connection points: 2
#     Edge 87, Type (0, 1), BuildingBlock: ZUJKAS_clean_linker_0, # of connection points: 2
#     Edge 88, Type (0, 1), BuildingBlock: ZUJKAS_clean_linker_0, # of connection points: 2
#     Edge 89, Type (0, 1), BuildingBlock: ZUJKAS_clean_linker_0, # of connection points: 2
#     Edge 90, Type (0, 1), BuildingBlock: ZUJKAS_clean_linker_0, # of connection points: 2
#     Edge 91, Type (0, 1), BuildingBlock: ZUJKAS_clean_linker_0, # of connection points: 2
#     Edge 92, Type (0, 1), BuildingBlock: ZUJKAS_clean_linker_0, # of connection points: 2
#     Edge 93, Type (0, 1), BuildingBlock: ZUJKAS_clean_linker_0, # of connection points: 2
#     Edge 94, Type (0, 1), BuildingBlock: ZUJKAS_clean_linker_0, # of connection points: 2
#     Edge 95, Type (0, 1), BuildingBlock: ZUJKAS_clean_linker_0, # of connection points: 2
#     Edge 96, Type (0, 1), BuildingBlock: ZUJKAS_clean_linker_0, # of connection points: 2
#     Edge 97, Type (0, 1), BuildingBlock: ZUJKAS_clean_linker_0, # of connection points: 2
#     Edge 98, Type (0, 1), BuildingBlock: ZUJKAS_clean_linker_0, # of connection points: 2
#     Edge 99, Type (0, 1), BuildingBlock: ZUJKAS_clean_linker_0, # of connection points: 2
#     Edge 100, Type (0, 1), BuildingBlock: ZUJKAS_clean_linker_0, # of connection points: 2
#     Edge 101, Type (0, 1), BuildingBlock: ZUJKAS_clean_linker_0, # of connection points: 2
#     Edge 102, Type (0, 1), BuildingBlock: ZUJKAS_clean_linker_0, # of connection points: 2
#     Edge 103, Type (0, 1), BuildingBlock: ZUJKAS_clean_linker_0, # of connection points: 2
#     Edge 104, Type (0, 1), BuildingBlock: ZUJKAS_clean_linker_0, # of connection points: 2
#     Edge 105, Type (0, 1), BuildingBlock: ZUJKAS_clean_linker_0, # of connection points: 2
#     Edge 106, Type (0, 1), BuildingBlock: ZUJKAS_clean_linker_0, # of connection points: 2
#     Edge 107, Type (0, 1), BuildingBlock: ZUJKAS_clean_linker_0, # of connection points: 2
# Relax obj value: 0.041
# Max RMSD: 0.153
# Mean RMSD: 0.069
data_MOF--net-ptr--node1-KUFVIS_clean_sbu_0--node2-MIFKUJ_clean_linker_1--edge1-ZUJKAS_clean_linker_0
_symmetry_space_group_name_H-M    P1
_symmetry_Int_Tables_number       1
_symmetry_cell_setting            triclinic
loop_
_symmetry_equiv_pos_as_xyz
'x, y, z'
_cell_length_a     111.30483
_cell_length_b     110.83171
_cell_length_c     77.209205
_cell_angle_alpha  89.816898
_cell_angle_beta   90.496431
_cell_angle_gamma 119.5075
loop_
_atom_site_label
_atom_site_type_symbol
_atom_site_fract_x
_atom_site_fract_y
_atom_site_fract_z
_atom_type_partial_charge
Mn0 Mn 1.00036 0.3505 0.00845 0.0
Mn1 Mn 0.03064 0.38058 0.00733 0.0
C2 C 0.00267 0.36814 0.99038 0.0
C3 C 0.98612 0.32792 0.99863 0.0
C4 C 0.00954 0.37366 0.0356 0.0
O5 O 0.01358 0.34525 0.02 0.0
O6 O 0.03314 0.36576 0.01851 0.0
C7 C 0.04494 0.37152 0.98279 0.0
N8 N 0.04062 0.38063 0.98729 0.0
C9 C 0.05118 0.39462 0.96212 0.0
C10 C 0.05582 0.38544 0.95727 0.0
C11 C 0.05264 0.37381 0.96763 0.0
C12 C 0.04354 0.39179 0.97737 0.0
H13 H 0.04252 0.36257 0.99072 0.0
C14 C 0.02647 0.35296 0.02283 0.0
O15 O 0.98432 0.3319 0.01373 0.0
O16 O 0.99641 0.33692 0.98956 0.0
N17 N 0.03019 0.39601 0.99686 0.0
C18 C 0.02443 0.40351 0.00295 0.0
C19 C 0.02657 0.41546 0.99403 0.0
C20 C 0.0347 0.41963 0.97904 0.0
C21 C 0.04052 0.41176 0.97302 0.0
C22 C 0.03817 0.40005 0.98257 0.0
H23 H 0.01826 0.40041 0.01454 0.0
O24 O 0.99057 0.35847 0.99514 0.0
O25 O 0.0132 0.36713 0.99609 0.0
O26 O 1.00084 0.36159 0.03003 0.0
O27 O 0.02095 0.38157 0.02805 0.0
C28 C 0.04841 0.41496 0.9578 0.0
C29 C 0.05368 0.40636 0.95231 0.0
H30 H 0.06175 0.38716 0.94557 0.0
H31 H 0.05613 0.36664 0.96393 0.0
H32 H 0.022 0.42147 0.99871 0.0
H33 H 0.03633 0.42886 0.97218 0.0
H34 H 0.05033 0.42392 0.95011 0.0
H35 H 0.05958 0.40883 0.94047 0.0
Mn36 Mn 0.64969 0.64745 0.01709 0.0
Mn37 Mn 0.65057 0.61742 0.01807 0.0
C38 C 0.63605 0.63031 0.0365 0.0
C39 C 0.65868 0.67038 0.02604 0.0
C40 C 0.63468 0.62389 0.99089 0.0
O41 O 0.66701 0.65213 0.00345 0.0
O42 O 0.66727 0.63206 0.00639 0.0
C43 C 0.67459 0.62641 0.04166 0.0
N44 N 0.66113 0.61742 0.0377 0.0
C45 C 0.65873 0.60356 0.06284 0.0
C46 C 0.6726 0.61261 0.06713 0.0
C47 C 0.68054 0.62412 0.05653 0.0
C48 C 0.65335 0.60642 0.04792 0.0
H49 H 0.68075 0.63524 0.03351 0.0
C50 C 0.67257 0.6446 0.00108 0.0
O51 O 0.6516 0.66593 0.01175 0.0
O52 O 0.66078 0.6616 0.03485 0.0
N53 N 0.63524 0.60219 0.02908 0.0
C54 C 0.62191 0.59473 0.02346 0.0
C55 C 0.6125 0.58305 0.03287 0.0
C56 C 0.61696 0.57899 0.04775 0.0
C57 C 0.63079 0.58667 0.05309 0.0
C58 C 0.63967 0.59826 0.04325 0.0
H59 H 0.61847 0.59771 0.01192 0.0
O60 O 0.63324 0.64 0.03236 0.0
O61 O 0.64705 0.63113 0.02955 0.0
O62 O 0.63757 0.63579 0.99676 0.0
O63 O 0.63922 0.61637 0.9977 0.0
C64 C 0.63611 0.58334 0.06785 0.0
C65 C 0.65003 0.59184 0.07282 0.0
H66 H 0.67723 0.61086 0.07857 0.0
H67 H 0.69124 0.63118 0.05979 0.0
H68 H 0.60185 0.57715 0.02863 0.0
H69 H 0.60966 0.56999 0.05498 0.0
H70 H 0.62955 0.57431 0.07557 0.0
H71 H 0.65393 0.58929 0.08434 0.0
Mn72 Mn 0.34975 0.99866 0.01165 0.0
Mn73 Mn 0.37941 0.02929 0.01344 0.0
C74 C 0.36715 0.00142 0.03055 0.0
C75 C 0.32704 0.98463 0.02081 0.0
C76 C 0.37269 0.00814 0.98476 0.0
O77 O 0.34477 0.01185 0.99917 0.0
O78 O 0.3645 0.03202 0.00309 0.0
C79 C 0.371 0.04328 0.03934 0.0
N80 N 0.37985 0.03885 0.03419 0.0
C81 C 0.3938 0.04815 0.05988 0.0
C82 C 0.38487 0.05288 0.06542 0.0
C83 C 0.3734 0.0504 0.05512 0.0
C84 C 0.39086 0.0411 0.04405 0.0
H85 H 0.36216 0.04136 0.03146 0.0
C86 C 0.35201 0.02499 0.99762 0.0
O87 O 0.33126 0.98244 0.00612 0.0
O88 O 0.33592 0.99512 0.02989 0.0
N89 N 0.39483 0.0284 0.02317 0.0
C90 C 0.40223 0.02285 0.01616 0.0
C91 C 0.41407 0.02446 0.02482 0.0
C92 C 0.41825 0.03184 0.0405 0.0
C93 C 0.4105 0.03749 0.04743 0.0
C94 C 0.39889 0.03572 0.0381 0.0
H95 H 0.39915 0.01728 0.00404 0.0
O96 O 0.35757 0.98913 0.02601 0.0
O97 O 0.36609 0.01175 0.0242 0.0
O98 O 0.36114 0.99882 0.99075 0.0
O99 O 0.38001 0.01996 0.99197 0.0
C100 C 0.41378 0.04474 0.06327 0.0
C101 C 0.40539 0.05 0.06954 0.0
H102 H 0.38668 0.05836 0.0776 0.0
H103 H 0.36644 0.05397 0.05935 0.0
H104 H 0.42 0.02006 0.0194 0.0
H105 H 0.42744 0.03314 0.04706 0.0
H106 H 0.42264 0.04619 0.07083 0.0
H107 H 0.40792 0.05542 0.08184 0.0
Mn108 Mn 1.00093 0.65159 0.00238 0.0
Mn109 Mn 0.03165 0.65248 1.00008 0.0
C110 C 0.00351 0.63685 0.98358 0.0
C111 C 0.98642 0.66016 0.99382 0.0
C112 C 0.01124 0.63834 0.02918 0.0
O113 O 0.01411 0.66966 0.01455 0.0
O114 O 0.0343 0.67014 0.01014 0.0
C115 C 0.04474 0.67456 0.97371 0.0
N116 N 0.04067 0.6614 0.97909 0.0
C117 C 0.04974 0.65664 0.95343 0.0
C118 C 0.0541 0.67017 0.94765 0.0
C119 C 0.05155 0.67915 0.95781 0.0
C120 C 0.04298 0.65264 0.96936 0.0
H121 H 0.04277 0.68148 0.98148 0.0
C122 C 0.02723 0.67558 0.01573 0.0
O123 O 0.98478 0.65381 0.00851 0.0
O124 O 0.99665 0.66176 0.9843 0.0
N125 N 0.0309 0.6362 0.99057 0.0
C126 C 0.02574 0.62338 0.99781 0.0
C127 C 0.02745 0.61316 0.98929 0.0
C128 C 0.03456 0.61626 0.97353 0.0
C129 C 0.03985 0.62954 0.96638 0.0
C130 C 0.03797 0.63935 0.97556 0.0
H131 H 0.02037 0.62096 0.01 0.0
O132 O 0.99132 0.63426 0.98832 0.0
O133 O 0.01386 0.64823 0.98958 0.0
O134 O 0.00175 0.64053 0.02322 0.0
O135 O 0.02292 0.64277 0.02184 0.0
C136 C 0.04682 0.63339 0.95044 0.0
C137 C 0.05169 0.64691 0.94392 0.0
H138 H 0.05934 0.67375 0.93538 0.0
H139 H 0.05483 0.68959 0.9534 0.0
H140 H 0.02334 0.60293 0.99489 0.0
H141 H 0.03595 0.60838 0.96707 0.0
H142 H 0.04834 0.62599 0.94299 0.0
H143 H 0.05689 0.6497 0.93156 0.0
Mn144 Mn 0.35258 0.35491 0.01299 0.0
Mn145 Mn 0.38217 0.35344 0.01272 0.0
C146 C 0.37031 0.3686 0.03191 0.0
C147 C 0.33004 0.34635 0.02282 0.0
C148 C 0.37503 0.36892 0.98566 0.0
O149 O 0.34732 0.33721 0.99944 0.0
O150 O 0.367 0.33627 0.0022 0.0
C151 C 0.37431 0.33041 0.03756 0.0
N152 N 0.38303 0.34374 0.03277 0.0
C153 C 0.39747 0.34755 0.05784 0.0
C154 C 0.38868 0.33383 0.06301 0.0
C155 C 0.37703 0.32523 0.05284 0.0
C156 C 0.39422 0.35213 0.0425 0.0
H157 H 0.36533 0.32378 0.0298 0.0
C158 C 0.35444 0.33118 0.99711 0.0
O159 O 0.33413 0.35319 0.00838 0.0
O160 O 0.33894 0.3442 0.03125 0.0
N161 N 0.39778 0.36931 0.02252 0.0
C162 C 0.40502 0.38238 0.01594 0.0
C163 C 0.417 0.39228 0.02455 0.0
C164 C 0.42147 0.38861 0.03973 0.0
C165 C 0.41388 0.37509 0.04622 0.0
C166 C 0.40212 0.36562 0.03696 0.0
H167 H 0.40172 0.38524 0.0042 0.0
O168 O 0.36073 0.37166 0.02823 0.0
O169 O 0.36907 0.35745 0.0247 0.0
O170 O 0.36368 0.36675 0.99234 0.0
O171 O 0.38236 0.36396 0.99191 0.0
C172 C 0.41747 0.37067 0.06157 0.0
C173 C 0.40923 0.35692 0.06742 0.0
H174 H 0.39073 0.32981 0.0748 0.0
H175 H 0.37017 0.31465 0.05678 0.0
H176 H 0.42281 0.40269 0.01946 0.0
H177 H 0.43076 0.39626 0.04626 0.0
H178 H 0.42645 0.37779 0.06906 0.0
H179 H 0.412 0.35368 0.07934 0.0
Mn180 Mn 0.65296 0.00367 0.0105 0.0
Mn181 Mn 0.62323 0.97318 0.00814 0.0
C182 C 0.63596 0.00111 0.99112 0.0
C183 C 0.67573 0.01757 0.00179 0.0
C184 C 0.62984 0.99421 0.03694 0.0
O185 O 0.65756 0.99035 0.02323 0.0
O186 O 0.63799 0.97018 0.01841 0.0
C187 C 0.63141 0.95907 0.98213 0.0
N188 N 0.62271 0.96369 0.98729 0.0
C189 C 0.60887 0.95478 0.96145 0.0
C190 C 0.61763 0.94985 0.9559 0.0
C191 C 0.62897 0.95204 0.96627 0.0
C192 C 0.61181 0.96169 0.97738 0.0
H193 H 0.64016 0.96077 0.99005 0.0
C194 C 0.65036 0.97717 0.02429 0.0
O195 O 0.67138 0.0198 0.01636 0.0
O196 O 0.66696 0.00707 0.99264 0.0
N197 N 0.60804 0.97447 0.99835 0.0
C198 C 0.60093 0.98037 0.00524 0.0
C199 C 0.58936 0.97927 0.99636 0.0
C200 C 0.58517 0.97202 0.98059 0.0
C201 C 0.59261 0.96598 0.97381 0.0
C202 C 0.60396 0.96728 0.98333 0.0
H203 H 0.60404 0.98589 0.0174 0.0
O204 O 0.64551 0.01337 0.99581 0.0
O205 O 0.63681 0.99071 0.99763 0.0
O206 O 0.64134 0.00362 0.03098 0.0
O207 O 0.62264 0.98237 0.02975 0.0
C208 C 0.58932 0.95886 0.95787 0.0
C209 C 0.59747 0.9533 0.95166 0.0
H210 H 0.61582 0.94446 0.94365 0.0
H211 H 0.63582 0.94832 0.96204 0.0
H212 H 0.58368 0.98397 0.00167 0.0
H213 H 0.57624 0.97119 0.9738 0.0
H214 H 0.58065 0.95776 0.95016 0.0
H215 H 0.59495 0.94801 0.93928 0.0
Mn216 Mn 0.6639 0.68324 0.34336 0.0
Mn217 Mn 0.69405 0.71342 0.34303 0.0
C218 C 0.66682 0.70064 0.32441 0.0
C219 C 0.65033 0.66047 0.33382 0.0
C220 C 0.67225 0.70596 0.37065 0.0
O221 O 0.67703 0.67854 0.35649 0.0
O222 O 0.69696 0.6986 0.35328 0.0
C223 C 0.70908 0.70591 0.31767 0.0
N224 N 0.70417 0.71442 0.3227 0.0
C225 C 0.71372 0.72885 0.29757 0.0
C226 C 0.71895 0.72027 0.29217 0.0
C227 C 0.71658 0.70873 0.30224 0.0
C228 C 0.70631 0.7255 0.31305 0.0
H229 H 0.70726 0.69702 0.32538 0.0
C230 C 0.69008 0.68601 0.35846 0.0
O231 O 0.64785 0.66464 0.34837 0.0
O232 O 0.66092 0.66942 0.32511 0.0
N233 N 0.69282 0.72871 0.33338 0.0
C234 C 0.68674 0.73569 0.34016 0.0
C235 C 0.68814 0.74753 0.33168 0.0
C236 C 0.69586 0.75213 0.3164 0.0
C237 C 0.70204 0.74478 0.30967 0.0
C238 C 0.70043 0.73316 0.31882 0.0
H239 H 0.68089 0.73229 0.35199 0.0
O240 O 0.65452 0.69091 0.32839 0.0
O241 O 0.67703 0.69977 0.3314 0.0
O242 O 0.66327 0.69442 0.36408 0.0
O243 O 0.6842 0.71352 0.36416 0.0
C244 C 0.70965 0.74848 0.2942 0.0
C245 C 0.71543 0.74048 0.28811 0.0
H246 H 0.72473 0.72241 0.28026 0.0
H247 H 0.72054 0.70204 0.29812 0.0
H248 H 0.68333 0.75314 0.33694 0.0
H249 H 0.697 0.76133 0.30999 0.0
H250 H 0.71099 0.75737 0.28678 0.0
H251 H 0.72112 0.74333 0.27609 0.0
Mn252 Mn 0.31437 0.98204 0.34916 0.0
Mn253 Mn 0.31344 0.95108 0.34947 0.0
C254 C 0.29983 0.96496 0.36814 0.0
C255 C 0.324 0.00498 0.35848 0.0
C256 C 0.2988 0.9591 0.32232 0.0
O257 O 0.33172 0.9861 0.33595 0.0
O258 O 0.33058 0.96534 0.33819 0.0
C259 C 0.33699 0.95845 0.37338 0.0
N260 N 0.32349 0.95002 0.36904 0.0
C261 C 0.32015 0.93519 0.39347 0.0
C262 C 0.33404 0.94367 0.39816 0.0
C263 C 0.34249 0.95538 0.3881 0.0
C264 C 0.31526 0.93878 0.37867 0.0
H265 H 0.34351 0.96745 0.36566 0.0
C266 C 0.3366 0.978 0.33327 0.0
O267 O 0.31721 0.00088 0.34395 0.0
O268 O 0.32553 0.99585 0.36732 0.0
N269 N 0.2976 0.93608 0.35995 0.0
C270 C 0.28428 0.92941 0.35416 0.0
C271 C 0.27445 0.91753 0.36288 0.0
C272 C 0.27844 0.91259 0.37736 0.0
C273 C 0.29221 0.91961 0.38306 0.0
C274 C 0.30158 0.93129 0.37372 0.0
H275 H 0.28119 0.93308 0.34294 0.0
O276 O 0.29774 0.97512 0.36396 0.0
O277 O 0.31066 0.9652 0.3614 0.0
O278 O 0.30226 0.97107 0.32845 0.0
O279 O 0.30261 0.95098 0.32906 0.0
C280 C 0.29696 0.91562 0.39778 0.0
C281 C 0.31091 0.92344 0.40304 0.0
H282 H 0.33831 0.94135 0.40952 0.0
H283 H 0.3532 0.962 0.39168 0.0
H284 H 0.26383 0.91217 0.35843 0.0
H285 H 0.27083 0.90345 0.38409 0.0
H286 H 0.28993 0.90667 0.40531 0.0
H287 H 0.31439 0.92039 0.41453 0.0
Mn288 Mn 0.01742 0.33262 0.34622 0.0
Mn289 Mn 0.04709 0.36331 0.34789 0.0
C290 C 0.03493 0.33528 0.36491 0.0
C291 C 0.99471 0.3185 0.35532 0.0
C292 C 0.04065 0.34195 0.31964 0.0
O293 O 0.01226 0.34566 0.3337 0.0
O294 O 0.03222 0.36563 0.33679 0.0
C295 C 0.0378 0.37725 0.37273 0.0
N296 N 0.04704 0.37317 0.36811 0.0
C297 C 0.06106 0.38395 0.39335 0.0
C298 C 0.05175 0.38835 0.39834 0.0
C299 C 0.04004 0.38493 0.38802 0.0
C300 C 0.05825 0.37626 0.37803 0.0
H301 H 0.02881 0.37467 0.36481 0.0
C302 C 0.01967 0.35871 0.33158 0.0
O303 O 0.99897 0.31638 0.34063 0.0
O304 O 0.00355 0.32896 0.36447 0.0
N305 N 0.06266 0.36314 0.35826 0.0
C306 C 0.07047 0.35786 0.3518 0.0
C307 C 0.08267 0.36051 0.36045 0.0
C308 C 0.08678 0.36864 0.37556 0.0
C309 C 0.07858 0.37394 0.38198 0.0
C310 C 0.06665 0.37115 0.37265 0.0
H311 H 0.06747 0.35178 0.34004 0.0
O312 O 0.02524 0.32305 0.36036 0.0
O313 O 0.03388 0.34573 0.35887 0.0
O314 O 0.02886 0.33283 0.32531 0.0
O315 O 0.04812 0.35369 0.32696 0.0
C316 C 0.08176 0.38186 0.39729 0.0
C317 C 0.07295 0.38678 0.40303 0.0
H318 H 0.05345 0.39428 0.41012 0.0
H319 H 0.03278 0.38825 0.39182 0.0
H320 H 0.08895 0.35636 0.35543 0.0
H321 H 0.09622 0.37069 0.38218 0.0
H322 H 0.09089 0.38411 0.40482 0.0
H323 H 0.07542 0.39272 0.41492 0.0
Mn324 Mn 0.6682 0.98305 0.33762 0.0
Mn325 Mn 0.699 0.98396 0.3384 0.0
C326 C 0.67213 0.96914 0.31894 0.0
C327 C 0.65391 0.99154 0.32772 0.0
C328 C 0.67656 0.96817 0.36469 0.0
O329 O 0.6804 0.00075 0.35115 0.0
O330 O 0.70051 1.00061 0.35005 0.0
C331 C 0.71403 0.00819 0.31539 0.0
N332 N 0.70972 0.99467 0.31922 0.0
C333 C 0.72161 0.99242 0.29465 0.0
C334 C 0.72625 0.00635 0.29049 0.0
C335 C 0.72239 0.01425 0.30087 0.0
C336 C 0.71323 0.98693 0.30922 0.0
H337 H 0.71113 0.01431 0.32338 0.0
C338 C 0.69326 0.00614 0.35454 0.0
O339 O 0.65153 0.98479 0.34222 0.0
O340 O 0.66482 0.99369 0.31926 0.0
N341 N 0.69942 0.96867 0.32755 0.0
C342 C 0.69376 0.95529 0.33307 0.0
C343 C 0.6964 0.94594 0.32388 0.0
C344 C 0.70504 0.95049 0.30937 0.0
C345 C 0.71097 0.96437 0.30415 0.0
C346 C 0.70791 0.9732 0.31375 0.0
H347 H 0.68724 0.95178 0.34433 0.0
O348 O 0.65965 0.96626 0.32259 0.0
O349 O 0.68205 0.98033 0.32598 0.0
O350 O 0.66778 0.97126 0.35837 0.0
O351 O 0.68855 0.97247 0.35833 0.0
C352 C 0.71971 0.96979 0.28972 0.0
C353 C 0.72493 0.98376 0.28489 0.0
H354 H 0.73273 0.01106 0.27932 0.0
H355 H 0.72589 0.02499 0.29771 0.0
H356 H 0.69182 0.93525 0.32803 0.0
H357 H 0.70704 0.94324 0.30231 0.0
H358 H 0.72242 0.96327 0.28217 0.0
H359 H 0.73148 0.98774 0.27363 0.0
Mn360 Mn 0.02144 0.68947 0.34708 0.0
Mn361 Mn 0.05052 0.68715 0.34575 0.0
C362 C 0.03996 0.70346 0.36504 0.0
C363 C 0.99919 0.6816 0.35764 0.0
C364 C 0.04295 0.70221 0.31855 0.0
O365 O 0.01539 0.67136 0.33399 0.0
O366 O 0.03473 0.66979 0.3367 0.0
C367 C 0.04323 0.66502 0.37184 0.0
N368 N 0.05203 0.67804 0.36601 0.0
C369 C 0.06813 0.68199 0.38919 0.0
C370 C 0.05928 0.6686 0.39541 0.0
C371 C 0.04674 0.66011 0.38675 0.0
C372 C 0.064 0.68637 0.3744 0.0
H373 H 0.03362 0.65846 0.36514 0.0
C374 C 0.02212 0.66489 0.33199 0.0
O375 O 0.00312 0.68814 0.34299 0.0
O376 O 0.00812 0.67941 0.36598 0.0
N377 N 0.06675 0.70311 0.35414 0.0
C378 C 0.0739 0.71589 0.34674 0.0
C379 C 0.0868 0.72557 0.35363 0.0
C380 C 0.09227 0.72198 0.36791 0.0
C381 C 0.08463 0.70885 0.3755 0.0
C382 C 0.0719 0.69958 0.36796 0.0
H383 H 0.06991 0.71861 0.33551 0.0
O384 O 0.0304 0.70661 0.36167 0.0
O385 O 0.0382 0.69198 0.35821 0.0
O386 O 0.03203 0.70064 0.32583 0.0
O387 O 0.05016 0.69703 0.32455 0.0
C388 C 0.08918 0.70454 0.39013 0.0
C389 C 0.08087 0.69118 0.39709 0.0
H390 H 0.06199 0.66475 0.40686 0.0
H391 H 0.03984 0.64978 0.3915 0.0
H392 H 0.09261 0.73571 0.34777 0.0
H393 H 0.10238 0.72937 0.37286 0.0
H394 H 0.09902 0.71143 0.3962 0.0
H395 H 0.08439 0.68805 0.40848 0.0
Mn396 Mn 0.31851 0.3367 0.34404 0.0
Mn397 Mn 0.28955 0.30544 0.3452 0.0
C398 C 0.30003 0.33248 0.3263 0.0
C399 C 0.34056 0.35113 0.33332 0.0
C400 C 0.29654 0.32779 0.37221 0.0
O401 O 0.3249 0.32471 0.35664 0.0
O402 O 0.30528 0.3042 0.35567 0.0
C403 C 0.29832 0.29087 0.32063 0.0
N404 N 0.28905 0.29485 0.32547 0.0
C405 C 0.27415 0.28281 0.30133 0.0
C406 C 0.28349 0.2785 0.29614 0.0
C407 C 0.29565 0.28259 0.3058 0.0
C408 C 0.27738 0.29107 0.31619 0.0
H409 H 0.30767 0.29398 0.32804 0.0
C410 C 0.31803 0.31176 0.35978 0.0
O411 O 0.33678 0.35354 0.34819 0.0
O412 O 0.33164 0.3402 0.32493 0.0
N413 N 0.27334 0.30472 0.33553 0.0
C414 C 0.26567 0.31018 0.34192 0.0
C415 C 0.25312 0.30702 0.3338 0.0
C416 C 0.24854 0.2982 0.31931 0.0
C417 C 0.25666 0.29279 0.31289 0.0
C418 C 0.26896 0.29614 0.32167 0.0
H419 H 0.26905 0.31681 0.3532 0.0
O420 O 0.30944 0.34507 0.32998 0.0
O421 O 0.30186 0.32263 0.33279 0.0
O422 O 0.30789 0.33687 0.36553 0.0
O423 O 0.28903 0.31571 0.36576 0.0
C424 C 0.25305 0.28428 0.29808 0.0
C425 C 0.26183 0.27935 0.29224 0.0
H426 H 0.28147 0.27213 0.28471 0.0
H427 H 0.30294 0.27936 0.30184 0.0
H428 H 0.24694 0.31129 0.33876 0.0
H429 H 0.2388 0.29568 0.31316 0.0
H430 H 0.24362 0.28157 0.29098 0.0
H431 H 0.25904 0.27296 0.28072 0.0
Mn432 Mn 0.33281 0.01902 0.67468 0.0
Mn433 Mn 0.36243 0.04964 0.67201 0.0
C434 C 0.33457 0.03544 0.65484 0.0
C435 C 0.31933 0.99585 0.66662 0.0
C436 C 0.34133 0.04293 0.70033 0.0
O437 O 0.34662 0.01524 0.68764 0.0
O438 O 0.36599 0.03566 0.68357 0.0
C439 C 0.37725 0.0412 0.64749 0.0
N440 N 0.37224 0.04979 0.65175 0.0
C441 C 0.38132 0.06309 0.62569 0.0
C442 C 0.38664 0.05443 0.62107 0.0
C443 C 0.38455 0.04341 0.63199 0.0
C444 C 0.37411 0.06037 0.64129 0.0
H445 H 0.37566 0.03271 0.65586 0.0
C446 C 0.35962 0.02322 0.68936 0.0
O447 O 0.31724 1.00049 0.68106 0.0
O448 O 0.32953 0.00458 0.65719 0.0
N449 N 0.36072 0.06424 0.66108 0.0
C450 C 0.35454 0.07136 0.66715 0.0
C451 C 0.35562 0.0827 0.65772 0.0
C452 C 0.36315 0.0867 0.64226 0.0
C453 C 0.36945 0.07925 0.63629 0.0
C454 C 0.36815 0.06813 0.64634 0.0
H455 H 0.34885 0.06842 0.67911 0.0
O456 O 0.32256 0.02567 0.65973 0.0
O457 O 0.34524 0.03519 0.66146 0.0
O458 O 0.33258 0.03086 0.69489 0.0
O459 O 0.35288 0.0506 0.69295 0.0
C460 C 0.37686 0.08233 0.62069 0.0
C461 C 0.38273 0.07422 0.61535 0.0
H462 H 0.39226 0.05609 0.60911 0.0
H463 H 0.38858 0.03664 0.62847 0.0
H464 H 0.35071 0.0884 0.6624 0.0
H465 H 0.36404 0.09551 0.63509 0.0
H466 H 0.37796 0.09081 0.61259 0.0
H467 H 0.38826 0.07658 0.60323 0.0
Mn468 Mn 0.9819 0.31266 0.68049 0.0
Mn469 Mn 0.98448 0.28362 0.67832 0.0
C470 C 0.96791 0.29367 0.69753 0.0
C471 C 0.98872 0.33459 0.6919 0.0
C472 C 0.96892 0.2908 0.65169 0.0
O473 O 1.00035 0.31952 0.66847 0.0
O474 O 1.00088 0.29953 0.66784 0.0
C475 C 0.00823 0.29256 0.70239 0.0
N476 N 0.99504 0.2832 0.69771 0.0
C477 C 0.99332 0.26779 0.72075 0.0
C478 C 0.0069 0.27723 0.72581 0.0
C479 C 0.01435 0.28971 0.71665 0.0
C480 C 0.98769 0.27131 0.70664 0.0
H481 H 0.01404 0.30208 0.69526 0.0
C482 C 0.00617 0.31247 0.66453 0.0
O483 O 0.98281 0.3309 0.67679 0.0
O484 O 0.99096 0.32568 0.70018 0.0
N485 N 0.96956 0.26723 0.68794 0.0
C486 C 0.95646 0.25942 0.68167 0.0
C487 C 0.94763 0.24657 0.68933 0.0
C488 C 0.95245 0.24177 0.70311 0.0
C489 C 0.96597 0.24999 0.70937 0.0
C490 C 0.97426 0.26275 0.7013 0.0
H491 H 0.9528 0.26294 0.67085 0.0
O492 O 0.96448 0.30303 0.694 0.0
O493 O 0.97962 0.29579 0.69128 0.0
O494 O 0.97155 0.30237 0.6584 0.0
O495 O 0.97321 0.28297 0.65814 0.0
C496 C 0.9716 0.24601 0.72321 0.0
C497 C 0.98519 0.25499 0.72906 0.0
H498 H 0.01171 0.27501 0.73669 0.0
H499 H 0.02483 0.29707 0.72048 0.0
H500 H 0.9372 0.2403 0.68448 0.0
H501 H 0.94566 0.23176 0.70882 0.0
H502 H 0.96552 0.23612 0.72957 0.0
H503 H 0.98931 0.2519 0.7399 0.0
Mn504 Mn 0.68329 0.66517 0.67622 0.0
Mn505 Mn 0.7123 0.69647 0.67603 0.0
C506 C 0.70141 0.66922 0.69467 0.0
C507 C 0.66094 0.65069 0.68626 0.0
C508 C 0.70599 0.6743 0.64893 0.0
O509 O 0.6772 0.67729 0.66318 0.0
O510 O 0.69678 0.69776 0.66508 0.0
C511 C 0.70294 0.71074 0.70027 0.0
N512 N 0.71237 0.7069 0.69572 0.0
C513 C 0.72689 0.71898 0.72012 0.0
C514 C 0.71738 0.72315 0.72503 0.0
C515 C 0.70532 0.71896 0.71509 0.0
C516 C 0.72393 0.71076 0.70527 0.0
H517 H 0.69368 0.70756 0.69264 0.0
C518 C 0.68416 0.6903 0.66041 0.0
O519 O 0.66507 0.64831 0.67163 0.0
O520 O 0.66968 0.66162 0.6948 0.0
N521 N 0.72838 0.69723 0.6862 0.0
C522 C 0.73628 0.69197 0.68001 0.0
C523 C 0.74877 0.69527 0.68839 0.0
C524 C 0.75306 0.70404 0.70294 0.0
C525 C 0.74475 0.70929 0.7091 0.0
C526 C 0.73252 0.70582 0.70006 0.0
H527 H 0.73313 0.68539 0.66868 0.0
O528 O 0.69201 0.65668 0.69079 0.0
O529 O 0.69976 0.67915 0.68805 0.0
O530 O 0.69449 0.6651 0.65519 0.0
O531 O 0.71325 0.68635 0.65558 0.0
C532 C 0.74809 0.71778 0.72391 0.0
C533 C 0.73912 0.72255 0.72948 0.0
H534 H 0.71918 0.72949 0.73644 0.0
H535 H 0.69791 0.72209 0.71883 0.0
H536 H 0.75512 0.69114 0.6836 0.0
H537 H 0.76273 0.7066 0.70935 0.0
H538 H 0.75746 0.72058 0.73121 0.0
H539 H 0.7417 0.72893 0.74101 0.0
Mn540 Mn 0.33449 0.31693 0.67136 0.0
Mn541 Mn 0.36474 0.31677 0.67034 0.0
C542 C 0.33721 0.30247 0.65221 0.0
C543 C 0.32072 0.32631 0.66255 0.0
C544 C 0.34324 0.30239 0.69826 0.0
O545 O 0.34767 0.33454 0.68445 0.0
O546 O 0.36764 0.33437 0.68086 0.0
C547 C 0.37937 0.33942 0.64505 0.0
N548 N 0.37466 0.32603 0.64997 0.0
C549 C 0.38429 0.32149 0.62467 0.0
C550 C 0.38931 0.33525 0.61938 0.0
C551 C 0.3868 0.34424 0.62959 0.0
C552 C 0.37693 0.31727 0.64018 0.0
H553 H 0.37745 0.34635 0.65287 0.0
C554 C 0.36074 0.34004 0.68625 0.0
O555 O 0.3185 0.31953 0.677 0.0
O556 O 0.33113 0.32789 0.65342 0.0
N557 N 0.36367 0.30045 0.66045 0.0
C558 C 0.35777 0.28739 0.66714 0.0
C559 C 0.35933 0.27712 0.65849 0.0
C560 C 0.36702 0.28041 0.64317 0.0
C561 C 0.37301 0.29392 0.63656 0.0
C562 C 0.37125 0.30377 0.64585 0.0
H563 H 0.35196 0.28482 0.679 0.0
O564 O 0.32497 0.30005 0.65645 0.0
O565 O 0.34753 0.31347 0.65899 0.0
O566 O 0.33421 0.3051 0.69193 0.0
O567 O 0.35511 0.30666 0.69152 0.0
C568 C 0.38057 0.29799 0.62105 0.0
C569 C 0.38614 0.31174 0.61506 0.0
H570 H 0.39503 0.33901 0.60745 0.0
H571 H 0.3906 0.35486 0.62556 0.0
H572 H 0.35466 0.26671 0.66366 0.0
H573 H 0.36828 0.27249 0.63662 0.0
H574 H 0.38201 0.29058 0.61353 0.0
H575 H 0.39179 0.3147 0.60302 0.0
Mn576 Mn 0.68746 0.02189 0.67852 0.0
Mn577 Mn 0.7163 0.01917 0.67622 0.0
C578 C 0.70636 0.03575 0.69599 0.0
C579 C 0.66553 0.01458 0.68986 0.0
C580 C 0.70872 0.03454 0.64956 0.0
O581 O 0.68082 0.00355 0.66567 0.0
O582 O 0.7003 0.00215 0.66684 0.0
C583 C 0.70869 0.99651 0.7016 0.0
N584 N 0.71762 0.0096 0.69612 0.0
C585 C 0.73356 0.01295 0.71928 0.0
C586 C 0.72456 0.99948 0.72516 0.0
C587 C 0.71204 0.99126 0.71632 0.0
C588 C 0.72959 0.01767 0.70467 0.0
H589 H 0.6991 0.99014 0.69476 0.0
C590 C 0.68755 0.99719 0.66278 0.0
O591 O 0.66921 0.0209 0.67505 0.0
O592 O 0.67447 0.01222 0.69785 0.0
N593 N 0.73271 0.03481 0.68483 0.0
C594 C 0.74006 0.04767 0.67771 0.0
C595 C 0.75296 0.05712 0.6848 0.0
C596 C 0.75824 0.0532 0.69899 0.0
C597 C 0.75042 0.03997 0.70625 0.0
C598 C 0.73768 0.03096 0.69853 0.0
H599 H 0.73619 0.05063 0.66656 0.0
O600 O 0.69694 0.03913 0.69283 0.0
O601 O 0.70429 0.02415 0.68916 0.0
O602 O 0.69777 0.03284 0.65693 0.0
O603 O 0.71605 0.02946 0.65543 0.0
C604 C 0.75479 0.03533 0.72073 0.0
C605 C 0.7463 0.02188 0.72736 0.0
H606 H 0.72715 0.99537 0.73645 0.0
H607 H 0.70503 0.98087 0.72079 0.0
H608 H 0.75893 0.06733 0.67918 0.0
H609 H 0.76835 0.06042 0.70412 0.0
H610 H 0.76463 0.04203 0.72694 0.0
H611 H 0.7497 0.01849 0.73863 0.0
Mn612 Mn 0.98435 0.66978 0.67507 0.0
Mn613 Mn 0.95432 0.63943 0.67538 0.0
C614 C 0.9666 0.6667 0.65663 0.0
C615 C 0.00682 0.68339 0.66515 0.0
C616 C 0.96198 0.66184 0.70249 0.0
O617 O 0.98949 0.65695 0.68807 0.0
O618 O 0.96923 0.63711 0.68639 0.0
C619 C 0.96235 0.62399 0.65122 0.0
N620 N 0.95353 0.62864 0.65573 0.0
C621 C 0.93873 0.61717 0.63129 0.0
C622 C 0.9476 0.61219 0.62643 0.0
C623 C 0.95949 0.61566 0.63641 0.0
C624 C 0.94214 0.62547 0.64615 0.0
H625 H 0.97147 0.62661 0.65888 0.0
C626 C 0.98193 0.64403 0.691 0.0
O627 O 0.00291 0.686 0.6798 0.0
O628 O 0.99777 0.67268 0.65653 0.0
N629 N 0.93877 0.63976 0.66517 0.0
C630 C 0.93157 0.64583 0.67127 0.0
C631 C 0.91934 0.64334 0.66282 0.0
C632 C 0.91458 0.63454 0.64831 0.0
C633 C 0.92221 0.6285 0.6422 0.0
C634 C 0.93421 0.6312 0.6513 0.0
H635 H 0.93508 0.65244 0.68257 0.0
O636 O 0.97641 0.67904 0.66056 0.0
O637 O 0.96759 0.6564 0.66329 0.0
O638 O 0.97362 0.67053 0.6961 0.0
O639 O 0.95407 0.64991 0.69587 0.0
C640 C 0.91842 0.61996 0.6274 0.0
C641 C 0.92673 0.61437 0.62188 0.0
H642 H 0.94544 0.60576 0.61502 0.0
H643 H 0.96642 0.6119 0.63271 0.0
H644 H 0.91353 0.6481 0.66755 0.0
H645 H 0.90509 0.63257 0.64188 0.0
H646 H 0.90923 0.61776 0.62005 0.0
H647 H 0.92381 0.60797 0.61035 0.0
H648 H 0.15499 0.33915 0.18241 0.0
H649 H 0.13775 0.34031 0.2005 0.0
H650 H 0.10612 0.3018 0.17832 0.0
H651 H 0.12359 0.30042 0.16071 0.0
H652 H 0.1638 0.32115 0.18211 0.0
H653 H 0.14374 0.33796 0.14003 0.0
H654 H 0.1248 0.33814 0.12414 0.0
H655 H 0.11196 0.29689 0.10494 0.0
H656 H 0.13126 0.297 0.12056 0.0
H657 H 0.1724 0.30018 0.11675 0.0
H658 H 0.1916 0.30252 0.09903 0.0
H659 H 0.21857 0.34191 0.12349 0.0
H660 H 0.1993 0.33973 0.14063 0.0
H661 H 0.16019 0.31609 0.11817 0.0
H662 H 0.18371 0.30181 0.15967 0.0
H663 H 0.2025 0.30313 0.17785 0.0
H664 H 0.20917 0.34199 0.1991 0.0
H665 H 0.19055 0.3407 0.18079 0.0
C666 C 0.1406 0.31974 0.17011 0.0
C667 C 0.14435 0.33093 0.18145 0.0
C668 C 0.13443 0.33165 0.19166 0.0
C669 C 0.1205 0.32119 0.19079 0.0
C670 C 0.11675 0.30998 0.1794 0.0
C671 C 0.12672 0.30925 0.16919 0.0
C672 C 0.15136 0.31901 0.1596 0.0
C673 C 0.16306 0.32016 0.16811 0.0
C674 C 0.15028 0.3174 0.14139 0.0
C675 C 0.13881 0.31742 0.13157 0.0
C676 C 0.13681 0.32894 0.13243 0.0
C677 C 0.12591 0.32898 0.12342 0.0
C678 C 0.11674 0.31746 0.11337 0.0
C679 C 0.11888 0.30598 0.11241 0.0
C680 C 0.12987 0.30599 0.12137 0.0
C681 C 0.18444 0.31969 0.13018 0.0
C682 C 0.18245 0.30932 0.11825 0.0
C683 C 0.19346 0.31063 0.10822 0.0
C684 C 0.20664 0.3224 0.10984 0.0
C685 C 0.20854 0.33278 0.12176 0.0
C686 C 0.19756 0.33147 0.13174 0.0
C687 C 0.17277 0.31847 0.1407 0.0
C688 C 0.16087 0.31691 0.13218 0.0
C689 C 0.17377 0.31996 0.15893 0.0
C690 C 0.18576 0.32116 0.16889 0.0
C691 C 0.18937 0.3107 0.16806 0.0
C692 C 0.20003 0.31142 0.17851 0.0
C693 C 0.20729 0.32266 0.18989 0.0
C694 C 0.20388 0.33329 0.19032 0.0
C695 C 0.19318 0.33251 0.17997 0.0
H696 H 0.70833 0.86984 0.18269 0.0
H697 H 0.70738 0.88694 0.20174 0.0
H698 H 0.66815 0.87765 0.17891 0.0
H699 H 0.66922 0.86066 0.15985 0.0
H700 H 0.69025 0.84217 0.18135 0.0
H701 H 0.70666 0.88071 0.1412 0.0
H702 H 0.70485 0.89934 0.12641 0.0
H703 H 0.66606 0.86906 0.10348 0.0
H704 H 0.66778 0.85054 0.11856 0.0
H705 H 0.668 0.81551 0.11543 0.0
H706 H 0.66589 0.79601 0.09844 0.0
H707 H 0.70251 0.79993 0.12358 0.0
H708 H 0.7049 0.81983 0.13995 0.0
H709 H 0.68635 0.84171 0.11729 0.0
H710 H 0.66832 0.80371 0.15656 0.0
H711 H 0.66608 0.78453 0.17449 0.0
H712 H 0.70416 0.81244 0.201 0.0
H713 H 0.70668 0.83138 0.18243 0.0
C714 C 0.68892 0.86408 0.16974 0.0
C715 C 0.69957 0.87156 0.18174 0.0
C716 C 0.69898 0.88128 0.19266 0.0
C717 C 0.68767 0.88365 0.19187 0.0
C718 C 0.6771 0.87624 0.17968 0.0
C719 C 0.6777 0.86651 0.16877 0.0
C720 C 0.68918 0.85316 0.15892 0.0
C721 C 0.68972 0.8422 0.16731 0.0
C722 C 0.68794 0.85297 0.14067 0.0
C723 C 0.68729 0.86425 0.13109 0.0
C724 C 0.69776 0.87811 0.133 0.0
C725 C 0.69677 0.88872 0.12446 0.0
C726 C 0.68527 0.88566 0.11388 0.0
C727 C 0.67494 0.87176 0.11175 0.0
C728 C 0.67597 0.86116 0.12023 0.0
C729 C 0.68653 0.81906 0.12911 0.0
C730 C 0.67566 0.81226 0.11715 0.0
C731 C 0.67439 0.80102 0.10757 0.0
C732 C 0.68397 0.79631 0.10973 0.0
C733 C 0.69501 0.80333 0.12147 0.0
C734 C 0.69631 0.81463 0.13099 0.0
C735 C 0.68748 0.83066 0.13973 0.0
C736 C 0.68714 0.84175 0.13131 0.0
C737 C 0.68866 0.83085 0.15802 0.0
C738 C 0.68776 0.81897 0.16801 0.0
C739 C 0.67636 0.80562 0.16595 0.0
C740 C 0.675 0.79469 0.17637 0.0
C741 C 0.68491 0.79693 0.18925 0.0
C742 C 0.69644 0.81027 0.19106 0.0
C743 C 0.69784 0.82116 0.18055 0.0
H744 H 0.12823 0.8376 0.17866 0.0
H745 H 0.11189 0.81916 0.19761 0.0
H746 H 0.12324 0.79067 0.17478 0.0
H747 H 0.13992 0.80924 0.15646 0.0
H748 H 0.15553 0.84892 0.17786 0.0
H749 H 0.11901 0.82562 0.13604 0.0
H750 H 0.10127 0.80534 0.12047 0.0
H751 H 0.13277 0.7973 0.10044 0.0
H752 H 0.15042 0.81742 0.11624 0.0
H753 H 0.18532 0.85243 0.11585 0.0
H754 H 0.20486 0.86936 0.09897 0.0
H755 H 0.19796 0.90204 0.11804 0.0
H756 H 0.1784 0.88503 0.13495 0.0
H757 H 0.15875 0.84441 0.11441 0.0
H758 H 0.19414 0.86433 0.15882 0.0
H759 H 0.21174 0.8815 0.17804 0.0
H760 H 0.18317 0.8953 0.19334 0.0
H761 H 0.16548 0.87771 0.17452 0.0
C762 C 0.13521 0.8248 0.166 0.0
C763 C 0.12714 0.82736 0.17771 0.0
C764 C 0.11772 0.81677 0.18844 0.0
C765 C 0.11625 0.80342 0.18774 0.0
C766 C 0.12422 0.80086 0.17581 0.0
C767 C 0.13364 0.81144 0.16515 0.0
C768 C 0.14586 0.83623 0.15539 0.0
C769 C 0.15605 0.84808 0.16392 0.0
C770 C 0.14676 0.83498 0.13727 0.0
C771 C 0.13603 0.82298 0.1274 0.0
C772 C 0.12208 0.81946 0.12832 0.0
C773 C 0.11197 0.80794 0.11933 0.0
C774 C 0.11562 0.79969 0.10929 0.0
C775 C 0.12962 0.80334 0.10824 0.0
C776 C 0.13972 0.8149 0.11714 0.0
C777 C 0.18044 0.86745 0.12679 0.0
C778 C 0.18798 0.86324 0.11635 0.0
C779 C 0.19913 0.87293 0.10666 0.0
C780 C 0.20298 0.88706 0.10713 0.0
C781 C 0.19539 0.89126 0.11757 0.0
C782 C 0.1842 0.88155 0.12725 0.0
C783 C 0.16854 0.85701 0.13694 0.0
C784 C 0.1581 0.84536 0.12831 0.0
C785 C 0.16744 0.85839 0.15499 0.0
C786 C 0.17853 0.86978 0.16522 0.0
C787 C 0.19175 0.8712 0.16614 0.0
C788 C 0.20183 0.88109 0.1771 0.0
C789 C 0.1989 0.8898 0.18734 0.0
C790 C 0.18574 0.88862 0.18592 0.0
C791 C 0.17563 0.87863 0.17508 0.0
H792 H 0.29016 0.16697 0.83854 0.0
H793 H 0.29338 0.18614 0.81973 0.0
H794 H 0.33163 0.21325 0.84639 0.0
H795 H 0.32854 0.19396 0.86479 0.0
H796 H 0.30699 0.15576 0.84075 0.0
H797 H 0.29064 0.17815 0.88006 0.0
H798 H 0.29259 0.19828 0.89553 0.0
H799 H 0.32923 0.20331 0.92177 0.0
H800 H 0.3272 0.18319 0.90633 0.0
H801 H 0.32696 0.14828 0.90664 0.0
H802 H 0.32885 0.13013 0.92235 0.0
H803 H 0.29213 0.099 0.89625 0.0
H804 H 0.2903 0.11725 0.88056 0.0
H805 H 0.3086 0.15666 0.90498 0.0
H806 H 0.32804 0.13841 0.86514 0.0
H807 H 0.33082 0.12203 0.84684 0.0
H808 H 0.29267 0.11182 0.82021 0.0
H809 H 0.28974 0.12795 0.83893 0.0
C810 C 0.30905 0.17905 0.85316 0.0
C811 C 0.29918 0.17708 0.8404 0.0
C812 C 0.30099 0.18807 0.82974 0.0
C813 C 0.31277 0.20122 0.83156 0.0
C814 C 0.32251 0.20322 0.84455 0.0
C815 C 0.32069 0.19223 0.8552 0.0
C816 C 0.30764 0.16715 0.8636 0.0
C817 C 0.30699 0.15578 0.85481 0.0
C818 C 0.30817 0.16746 0.88192 0.0
C819 C 0.30884 0.17922 0.89193 0.0
C820 C 0.29909 0.1836 0.88915 0.0
C821 C 0.30023 0.19512 0.89797 0.0
C822 C 0.31108 0.20243 0.90986 0.0
C823 C 0.32064 0.19781 0.91289 0.0
C824 C 0.31952 0.18632 0.90404 0.0
C825 C 0.30856 0.13415 0.8923 0.0
C826 C 0.31922 0.13756 0.90444 0.0
C827 C 0.32027 0.12716 0.91344 0.0
C828 C 0.31066 0.1131 0.91053 0.0
C829 C 0.29982 0.10971 0.89861 0.0
C830 C 0.29875 0.12014 0.88965 0.0
C831 C 0.308 0.14526 0.88211 0.0
C832 C 0.30829 0.15648 0.89093 0.0
C833 C 0.30743 0.14498 0.86378 0.0
C834 C 0.30861 0.13431 0.85351 0.0
C835 C 0.32013 0.13245 0.8556 0.0
C836 C 0.32178 0.12318 0.84501 0.0
C837 C 0.31199 0.11565 0.83203 0.0
C838 C 0.30031 0.11733 0.83021 0.0
C839 C 0.29867 0.12661 0.84081 0.0
H840 H 0.83142 0.13259 0.84169 0.0
H841 H 0.81352 0.1152 0.82306 0.0
H842 H 0.78324 0.12343 0.8468 0.0
H843 H 0.80138 0.1413 0.86486 0.0
H844 H 0.84063 0.15923 0.84176 0.0
H845 H 0.82043 0.12341 0.88433 0.0
H846 H 0.80211 0.10547 0.90184 0.0
H847 H 0.79314 0.13617 0.92313 0.0
H848 H 0.81154 0.15406 0.90567 0.0
H849 H 0.84797 0.19217 0.9016 0.0
H850 H 0.86624 0.21152 0.91798 0.0
H851 H 0.89556 0.19911 0.90158 0.0
H852 H 0.87725 0.17982 0.88512 0.0
H853 H 0.83862 0.16353 0.90544 0.0
H854 H 0.8586 0.19909 0.86176 0.0
H855 H 0.87567 0.21629 0.84221 0.0
H856 H 0.88523 0.1854 0.82309 0.0
H857 H 0.86806 0.16825 0.8425 0.0
C858 C 0.81777 0.13823 0.85476 0.0
C859 C 0.82091 0.1306 0.84295 0.0
C860 C 0.81061 0.12055 0.83241 0.0
C861 C 0.7969 0.11787 0.83343 0.0
C862 C 0.79371 0.12531 0.84554 0.0
C863 C 0.80405 0.13543 0.85604 0.0
C864 C 0.829 0.14972 0.86482 0.0
C865 C 0.84029 0.16001 0.85573 0.0
C866 C 0.82841 0.15096 0.883 0.0
C867 C 0.81726 0.14005 0.89356 0.0
C868 C 0.81445 0.12625 0.89268 0.0
C869 C 0.80397 0.11601 0.9027 0.0
C870 C 0.79615 0.11938 0.91388 0.0
C871 C 0.79909 0.13325 0.91484 0.0
C872 C 0.80956 0.14348 0.90481 0.0
C873 C 0.86129 0.18464 0.8921 0.0
C874 C 0.85834 0.19364 0.90153 0.0
C875 C 0.86878 0.2047 0.91079 0.0
C876 C 0.8823 0.20679 0.91102 0.0
C877 C 0.88521 0.19767 0.9017 0.0
C878 C 0.8748 0.18672 0.89224 0.0
C879 C 0.85019 0.17292 0.88233 0.0
C880 C 0.83895 0.16263 0.89148 0.0
C881 C 0.85087 0.1716 0.86422 0.0
C882 C 0.86209 0.18239 0.85362 0.0
C883 C 0.86455 0.1961 0.85357 0.0
C884 C 0.87431 0.20592 0.84238 0.0
C885 C 0.88174 0.2022 0.83099 0.0
C886 C 0.87951 0.18855 0.83146 0.0
C887 C 0.86975 0.17875 0.84261 0.0
H888 H 0.81531 0.66473 0.83747 0.0
H889 H 0.79682 0.66314 0.81866 0.0
H890 H 0.80276 0.7019 0.83932 0.0
H891 H 0.82141 0.7035 0.85808 0.0
H892 H 0.84235 0.68458 0.83791 0.0
H893 H 0.80412 0.66573 0.87564 0.0
H894 H 0.78424 0.66422 0.89069 0.0
H895 H 0.81108 0.70196 0.91844 0.0
H896 H 0.83101 0.70366 0.90293 0.0
H897 H 0.8708 0.70462 0.90356 0.0
H898 H 0.88873 0.7031 0.92049 0.0
H899 H 0.87645 0.66314 0.89741 0.0
H900 H 0.85883 0.66491 0.88036 0.0
H901 H 0.842 0.68689 0.90205 0.0
H902 H 0.88108 0.70325 0.8637 0.0
H903 H 0.89937 0.70233 0.84737 0.0
H904 H 0.8686 0.66576 0.82058 0.0
H905 H 0.85053 0.66637 0.83746 0.0
C906 C 0.81972 0.68422 0.84917 0.0
C907 C 0.81262 0.67288 0.83797 0.0
C908 C 0.80197 0.67192 0.82735 0.0
C909 C 0.79831 0.68237 0.82758 0.0
C910 C 0.80541 0.69373 0.83883 0.0
C911 C 0.81601 0.69463 0.84959 0.0
C912 C 0.83115 0.68516 0.86015 0.0
C913 C 0.84225 0.685 0.85195 0.0
C914 C 0.83107 0.68596 0.87844 0.0
C915 C 0.81904 0.68499 0.88786 0.0
C916 C 0.80573 0.67384 0.88471 0.0
C917 C 0.79437 0.67297 0.89334 0.0
C918 C 0.79611 0.68306 0.90559 0.0
C919 C 0.80946 0.69405 0.90906 0.0
C920 C 0.82083 0.69502 0.90022 0.0
C921 C 0.86362 0.68497 0.89055 0.0
C922 C 0.87198 0.69554 0.90222 0.0
C923 C 0.88219 0.69462 0.91192 0.0
C924 C 0.88413 0.68305 0.91021 0.0
C925 C 0.87548 0.67235 0.89877 0.0
C926 C 0.86535 0.6733 0.88907 0.0
C927 C 0.85312 0.68608 0.87978 0.0
C928 C 0.84221 0.68668 0.88802 0.0
C929 C 0.8532 0.68537 0.86149 0.0
C930 C 0.86443 0.68482 0.85191 0.0
C931 C 0.87832 0.69492 0.8545 0.0
C932 C 0.88875 0.69446 0.84502 0.0
C933 C 0.88547 0.68395 0.83268 0.0
C934 C 0.87155 0.67386 0.83018 0.0
C935 C 0.86117 0.67428 0.8397 0.0
H936 H 0.82101 0.67163 0.51339 0.0
H937 H 0.80357 0.67243 0.53142 0.0
H938 H 0.77211 0.63463 0.50759 0.0
H939 H 0.7898 0.63362 0.48995 0.0
H940 H 0.8298 0.6538 0.51235 0.0
H941 H 0.81022 0.67154 0.47211 0.0
H942 H 0.7915 0.67249 0.45671 0.0
H943 H 0.77993 0.63311 0.43249 0.0
H944 H 0.79857 0.63204 0.44844 0.0
H945 H 0.83986 0.6336 0.44807 0.0
H946 H 0.85978 0.63571 0.43218 0.0
H947 H 0.88528 0.67634 0.45454 0.0
H948 H 0.86544 0.67405 0.47049 0.0
H949 H 0.82713 0.65026 0.44823 0.0
H950 H 0.85042 0.6354 0.49015 0.0
H951 H 0.86953 0.63726 0.50816 0.0
H952 H 0.87567 0.67608 0.52891 0.0
H953 H 0.85671 0.67423 0.51081 0.0
C954 C 0.80674 0.6526 0.50025 0.0
C955 C 0.81037 0.66348 0.51205 0.0
C956 C 0.80034 0.66401 0.52224 0.0
C957 C 0.7864 0.65365 0.52087 0.0
C958 C 0.78276 0.64273 0.50904 0.0
C959 C 0.79284 0.6422 0.49884 0.0
C960 C 0.81763 0.65212 0.48973 0.0
C961 C 0.82922 0.6531 0.49832 0.0
C962 C 0.81685 0.65104 0.47143 0.0
C963 C 0.80568 0.65164 0.46157 0.0
C964 C 0.80361 0.66307 0.46357 0.0
C965 C 0.79298 0.66365 0.45462 0.0
C966 C 0.78424 0.65289 0.44334 0.0
C967 C 0.7864 0.64149 0.44122 0.0
C968 C 0.79709 0.64092 0.45021 0.0
C969 C 0.85121 0.65358 0.46065 0.0
C970 C 0.84974 0.64297 0.44947 0.0
C971 C 0.86114 0.64422 0.44036 0.0
C972 C 0.87419 0.65615 0.4422 0.0
C973 C 0.87549 0.66688 0.45311 0.0
C974 C 0.86413 0.66561 0.4622 0.0
C975 C 0.83935 0.65212 0.47092 0.0
C976 C 0.82757 0.65073 0.46227 0.0
C977 C 0.84012 0.65325 0.48918 0.0
C978 C 0.85217 0.65468 0.49917 0.0
C979 C 0.85602 0.64439 0.49842 0.0
C980 C 0.86686 0.64543 0.50876 0.0
C981 C 0.87408 0.65682 0.51992 0.0
C982 C 0.87041 0.66727 0.52029 0.0
C983 C 0.85952 0.66617 0.51007 0.0
H984 H 0.37139 0.20272 0.5175 0.0
H985 H 0.36958 0.21957 0.53596 0.0
H986 H 0.33601 0.2163 0.50399 0.0
H987 H 0.33751 0.19897 0.48603 0.0
H988 H 0.35249 0.17631 0.5129 0.0
H989 H 0.37616 0.21641 0.47556 0.0
H990 H 0.37744 0.23639 0.46027 0.0
H991 H 0.34123 0.20884 0.43028 0.0
H992 H 0.3401 0.18899 0.44548 0.0
H993 H 0.332 0.13973 0.47116 0.0
H994 H 0.32963 0.1197 0.45517 0.0
H995 H 0.37024 0.14504 0.43358 0.0
H996 H 0.37242 0.16512 0.44948 0.0
H997 H 0.35675 0.17819 0.44891 0.0
H998 H 0.33213 0.15011 0.51228 0.0
H999 H 0.32941 0.13086 0.53043 0.0
H1000 H 0.36655 0.1341 0.50875 0.0
H1001 H 0.36942 0.15366 0.49092 0.0
C1002 C 0.35467 0.19965 0.5003 0.0
C1003 C 0.36369 0.20569 0.51442 0.0
C1004 C 0.36271 0.21542 0.52488 0.0
C1005 C 0.35266 0.21933 0.52146 0.0
C1006 C 0.34378 0.21343 0.50711 0.0
C1007 C 0.34473 0.20364 0.49669 0.0
C1008 C 0.35511 0.18854 0.49007 0.0
C1009 C 0.35351 0.17677 0.49891 0.0
C1010 C 0.35645 0.18914 0.47182 0.0
C1011 C 0.35797 0.20122 0.46175 0.0
C1012 C 0.36855 0.2147 0.46562 0.0
C1013 C 0.36925 0.2261 0.45691 0.0
C1014 C 0.35943 0.22422 0.44408 0.0
C1015 C 0.34909 0.21066 0.4399 0.0
C1016 C 0.3484 0.19928 0.44861 0.0
C1017 C 0.35245 0.15388 0.46166 0.0
C1018 C 0.34041 0.14096 0.46303 0.0
C1019 C 0.3391 0.1295 0.45392 0.0
C1020 C 0.3498 0.13072 0.44318 0.0
C1021 C 0.36175 0.14376 0.4416 0.0
C1022 C 0.36304 0.15523 0.45071 0.0
C1023 C 0.35398 0.16592 0.47178 0.0
C1024 C 0.35592 0.17783 0.46291 0.0
C1025 C 0.35286 0.16545 0.49003 0.0
C1026 C 0.35096 0.1533 0.50024 0.0
C1027 C 0.33966 0.14665 0.5114 0.0
C1028 C 0.33805 0.13556 0.52164 0.0
C1029 C 0.34775 0.13093 0.52099 0.0
C1030 C 0.35897 0.1375 0.50963 0.0
C1031 C 0.36057 0.14859 0.49935 0.0
H1032 H 0.79507 0.17205 0.51058 0.0
H1033 H 0.77818 0.15392 0.52938 0.0
H1034 H 0.78948 0.12482 0.50829 0.0
H1035 H 0.8061 0.14292 0.48935 0.0
H1036 H 0.82311 0.18217 0.51008 0.0
H1037 H 0.78498 0.15965 0.47 0.0
H1038 H 0.76663 0.13951 0.45496 0.0
H1039 H 0.79721 0.13125 0.43223 0.0
H1040 H 0.81546 0.1514 0.44722 0.0
H1041 H 0.85055 0.18603 0.44573 0.0
H1042 H 0.87 0.20307 0.42884 0.0
H1043 H 0.86441 0.23585 0.45052 0.0
H1044 H 0.84495 0.21872 0.46747 0.0
H1045 H 0.82405 0.17836 0.44619 0.0
H1046 H 0.86189 0.19938 0.48584 0.0
H1047 H 0.88059 0.21651 0.50401 0.0
H1048 H 0.85171 0.2257 0.52962 0.0
H1049 H 0.83307 0.20887 0.51106 0.0
C1050 C 0.80176 0.15882 0.49846 0.0
C1051 C 0.79382 0.16173 0.50994 0.0
C1052 C 0.78421 0.15136 0.52073 0.0
C1053 C 0.78245 0.13788 0.52039 0.0
C1054 C 0.79035 0.13499 0.50871 0.0
C1055 C 0.79991 0.14535 0.49789 0.0
C1056 C 0.81247 0.17 0.48767 0.0
C1057 C 0.82319 0.18154 0.49606 0.0
C1058 C 0.81275 0.16886 0.46946 0.0
C1059 C 0.8016 0.15698 0.45985 0.0
C1060 C 0.78772 0.15348 0.4618 0.0
C1061 C 0.77724 0.14195 0.45322 0.0
C1062 C 0.78045 0.13376 0.4424 0.0
C1063 C 0.79438 0.13744 0.44026 0.0
C1064 C 0.80484 0.14894 0.44886 0.0
C1065 C 0.84634 0.20108 0.45799 0.0
C1066 C 0.85344 0.19688 0.44675 0.0
C1067 C 0.86455 0.20664 0.43706 0.0
C1068 C 0.86879 0.22084 0.43833 0.0
C1069 C 0.86155 0.22502 0.44943 0.0
C1070 C 0.8504 0.21524 0.4591 0.0
C1071 C 0.83479 0.19062 0.46859 0.0
C1072 C 0.8239 0.17918 0.46017 0.0
C1073 C 0.83445 0.19179 0.48684 0.0
C1074 C 0.84606 0.20292 0.4969 0.0
C1075 C 0.85962 0.20533 0.49502 0.0
C1076 C 0.8703 0.2151 0.50545 0.0
C1077 C 0.86758 0.22242 0.51821 0.0
C1078 C 0.85406 0.22014 0.51995 0.0
C1079 C 0.84342 0.21053 0.50935 0.0
H1080 H 0.96534 0.50434 0.16939 0.0
H1081 H 0.96777 0.52337 0.15089 0.0
H1082 H 0.00658 0.55092 0.17611 0.0
H1083 H 0.00427 0.53176 0.1942 0.0
H1084 H 0.9822 0.49317 0.17088 0.0
H1085 H 0.96577 0.5147 0.21181 0.0
H1086 H 0.96721 0.53441 0.22772 0.0
H1087 H 0.00625 0.54239 0.24996 0.0
H1088 H 0.00447 0.52241 0.23443 0.0
H1089 H 0.00246 0.485 0.23629 0.0
H1090 H 0.00331 0.46634 0.25217 0.0
H1091 H 0.96525 0.43642 0.22735 0.0
H1092 H 0.96446 0.45517 0.21148 0.0
H1093 H 0.9849 0.49468 0.23506 0.0
H1094 H 0.00144 0.47324 0.1956 0.0
H1095 H 0.00194 0.45513 0.17813 0.0
H1096 H 0.96505 0.44851 0.15107 0.0
H1097 H 0.96441 0.46645 0.16883 0.0
C1098 C 0.98456 0.51665 0.18327 0.0
C1099 C 0.97433 0.5145 0.17098 0.0
C1100 C 0.97569 0.52541 0.16051 0.0
C1101 C 0.98737 0.53867 0.16203 0.0
C1102 C 0.99752 0.54081 0.1745 0.0
C1103 C 0.99615 0.5299 0.18498 0.0
C1104 C 0.98348 0.50487 0.19368 0.0
C1105 C 0.98248 0.49333 0.18493 0.0
C1106 C 0.98433 0.50535 0.21197 0.0
C1107 C 0.98503 0.51712 0.22191 0.0
C1108 C 0.97462 0.5207 0.22016 0.0
C1109 C 0.97551 0.53203 0.2292 0.0
C1110 C 0.98687 0.54006 0.24014 0.0
C1111 C 0.99723 0.53634 0.24192 0.0
C1112 C 0.99627 0.52495 0.23299 0.0
C1113 C 0.98348 0.47149 0.22256 0.0
C1114 C 0.99422 0.47444 0.23441 0.0
C1115 C 0.99467 0.46376 0.2435 0.0
C1116 C 0.98436 0.44988 0.24099 0.0
C1117 C 0.97345 0.44697 0.22939 0.0
C1118 C 0.97298 0.45768 0.22034 0.0
C1119 C 0.9835 0.48285 0.21226 0.0
C1120 C 0.98438 0.49436 0.22102 0.0
C1121 C 0.98266 0.48239 0.19393 0.0
C1122 C 0.98278 0.47109 0.18371 0.0
C1123 C 0.9933 0.46772 0.18614 0.0
C1124 C 0.99359 0.45738 0.17614 0.0
C1125 C 0.98351 0.45039 0.16326 0.0
C1126 C 0.973 0.45379 0.16082 0.0
C1127 C 0.97263 0.46402 0.17096 0.0
H1128 H 0.50034 0.46282 0.17558 0.0
H1129 H 0.48245 0.44591 0.1564 0.0
H1130 H 0.45269 0.45543 0.17905 0.0
H1131 H 0.47079 0.47284 0.19748 0.0
H1132 H 0.51028 0.48977 0.17573 0.0
H1133 H 0.48919 0.45412 0.22008 0.0
H1134 H 0.46958 0.4366 0.23663 0.0
H1135 H 0.45929 0.46778 0.25216 0.0
H1136 H 0.47894 0.48526 0.23572 0.0
H1137 H 0.516 0.5208 0.23818 0.0
H1138 H 0.53379 0.54006 0.25497 0.0
H1139 H 0.56467 0.53119 0.23463 0.0
H1140 H 0.54681 0.51196 0.2178 0.0
H1141 H 0.50696 0.49383 0.23924 0.0
H1142 H 0.52768 0.52949 0.19658 0.0
H1143 H 0.54498 0.54713 0.17773 0.0
H1144 H 0.55491 0.51677 0.1576 0.0
H1145 H 0.53752 0.49916 0.17643 0.0
C1146 C 0.48692 0.46903 0.18811 0.0
C1147 C 0.48993 0.4612 0.17648 0.0
C1148 C 0.47965 0.45144 0.16562 0.0
C1149 C 0.4661 0.44929 0.16615 0.0
C1150 C 0.46304 0.45692 0.17812 0.0
C1151 C 0.47335 0.46675 0.18888 0.0
C1152 C 0.49815 0.48029 0.19845 0.0
C1153 C 0.50971 0.4905 0.18968 0.0
C1154 C 0.49718 0.48154 0.21654 0.0
C1155 C 0.48545 0.47095 0.22664 0.0
C1156 C 0.4827 0.45716 0.22707 0.0
C1157 C 0.47157 0.4472 0.23657 0.0
C1158 C 0.46293 0.45086 0.24562 0.0
C1159 C 0.46573 0.46468 0.24518 0.0
C1160 C 0.47697 0.47466 0.2359 0.0
C1161 C 0.53008 0.515 0.22662 0.0
C1162 C 0.5266 0.52297 0.23738 0.0
C1163 C 0.53677 0.53395 0.24702 0.0
C1164 C 0.55066 0.53716 0.24616 0.0
C1165 C 0.55411 0.52912 0.23541 0.0
C1166 C 0.54391 0.51812 0.22578 0.0
C1167 C 0.51917 0.50328 0.21652 0.0
C1168 C 0.50766 0.49302 0.22532 0.0
C1169 C 0.52014 0.50205 0.19842 0.0
C1170 C 0.53137 0.51302 0.188 0.0
C1171 C 0.53375 0.52669 0.18833 0.0
C1172 C 0.54365 0.53677 0.17754 0.0
C1173 C 0.55129 0.53334 0.16612 0.0
C1174 C 0.54906 0.5197 0.16607 0.0
C1175 C 0.53917 0.50964 0.17687 0.0
H1176 H 0.53692 0.03711 0.17608 0.0
H1177 H 0.5551 0.03736 0.15829 0.0
H1178 H 0.54366 0.99607 0.17613 0.0
H1179 H 0.52583 0.99614 0.19428 0.0
H1180 H 0.50863 0.01796 0.17342 0.0
H1181 H 0.54504 0.03367 0.21627 0.0
H1182 H 0.56329 0.03222 0.23235 0.0
H1183 H 0.53316 0.99225 0.25242 0.0
H1184 H 0.51494 0.99384 0.23641 0.0
H1185 H 0.47871 0.99393 0.23673 0.0
H1186 H 0.45889 0.99215 0.25231 0.0
H1187 H 0.46594 0.0307 0.22938 0.0
H1188 H 0.48574 0.03239 0.21378 0.0
H1189 H 0.50541 0.01213 0.23724 0.0
H1190 H 0.4691 0.9956 0.1955 0.0
H1191 H 0.45067 0.99431 0.17688 0.0
H1192 H 0.47983 0.03277 0.15241 0.0
H1193 H 0.49803 0.03434 0.1717 0.0
C1194 C 0.53009 0.01664 0.18653 0.0
C1195 C 0.53844 0.02818 0.17624 0.0
C1196 C 0.54878 0.02826 0.16601 0.0
C1197 C 0.55083 0.0167 0.16567 0.0
C1198 C 0.54255 0.00524 0.17625 0.0
C1199 C 0.5323 0.00523 0.18659 0.0
C1200 C 0.51861 0.01627 0.19654 0.0
C1201 C 0.50802 0.01697 0.18742 0.0
C1202 C 0.51763 0.01441 0.2147 0.0
C1203 C 0.52864 0.0138 0.22499 0.0
C1204 C 0.54238 0.02458 0.2241 0.0
C1205 C 0.55281 0.02372 0.23328 0.0
C1206 C 0.54971 0.01208 0.24361 0.0
C1207 C 0.53589 0.00143 0.24475 0.0
C1208 C 0.52546 0.0023 0.23556 0.0
C1209 C 0.48364 0.01322 0.22396 0.0
C1210 C 0.47605 0.00205 0.23516 0.0
C1211 C 0.46474 0.00107 0.24409 0.0
C1212 C 0.46081 0.01127 0.24207 0.0
C1213 C 0.46856 0.02256 0.23103 0.0
C1214 C 0.4799 0.02355 0.22212 0.0
C1215 C 0.49541 0.01399 0.21413 0.0
C1216 C 0.50604 0.01329 0.22326 0.0
C1217 C 0.49633 0.01564 0.1959 0.0
C1218 C 0.48494 0.01516 0.18517 0.0
C1219 C 0.47147 0.00391 0.18639 0.0
C1220 C 0.46096 0.00309 0.17556 0.0
C1221 C 0.46374 0.01342 0.16309 0.0
C1222 C 0.47723 0.02474 0.16202 0.0
C1223 C 0.4877 0.02559 0.17294 0.0
H1224 H 0.49076 0.01092 0.85159 0.0
H1225 H 0.47274 0.01048 0.8698 0.0
H1226 H 0.44237 0.97319 0.84391 0.0
H1227 H 0.46049 0.97373 0.82563 0.0
H1228 H 0.49986 0.9931 0.84912 0.0
H1229 H 0.48056 0.01246 0.81056 0.0
H1230 H 0.46198 0.01379 0.79527 0.0
H1231 H 0.45164 0.97582 0.7681 0.0
H1232 H 0.47009 0.97435 0.7839 0.0
H1233 H 0.50952 0.97551 0.78247 0.0
H1234 H 0.52891 0.97747 0.76555 0.0
H1235 H 0.55639 0.01549 0.79248 0.0
H1236 H 0.53692 0.0137 0.80886 0.0
H1237 H 0.49824 0.9924 0.78489 0.0
H1238 H 0.52103 0.97569 0.82431 0.0
H1239 H 0.5397 0.97633 0.84201 0.0
H1240 H 0.54442 0.01282 0.86828 0.0
H1241 H 0.52616 0.0124 0.8502 0.0
C1242 C 0.477 0.99239 0.83719 0.0
C1243 C 0.48022 0.00263 0.84984 0.0
C1244 C 0.4699 0.00234 0.86029 0.0
C1245 C 0.45611 0.99175 0.85839 0.0
C1246 C 0.45286 0.98157 0.84558 0.0
C1247 C 0.46322 0.98186 0.83513 0.0
C1248 C 0.48817 0.9926 0.82654 0.0
C1249 C 0.49957 0.99309 0.83507 0.0
C1250 C 0.48769 0.99234 0.80821 0.0
C1251 C 0.4766 0.99322 0.79851 0.0
C1252 C 0.47423 0.00437 0.8014 0.0
C1253 C 0.46369 0.00518 0.79252 0.0
C1254 C 0.45534 0.99491 0.78045 0.0
C1255 C 0.4578 0.9838 0.77746 0.0
C1256 C 0.46839 0.98301 0.78636 0.0
C1257 C 0.52178 0.99436 0.79709 0.0
C1258 C 0.51972 0.9843 0.78464 0.0
C1259 C 0.53084 0.98538 0.77509 0.0
C1260 C 0.54424 0.99661 0.77769 0.0
C1261 C 0.54621 0.00677 0.79 0.0
C1262 C 0.5351 0.00569 0.79952 0.0
C1263 C 0.51004 0.99307 0.80752 0.0
C1264 C 0.49849 0.9923 0.79894 0.0
C1265 C 0.51053 0.99341 0.82585 0.0
C1266 C 0.52225 0.99404 0.83588 0.0
C1267 C 0.52625 0.98394 0.8337 0.0
C1268 C 0.53684 0.98425 0.84392 0.0
C1269 C 0.54356 0.99463 0.85655 0.0
C1270 C 0.53963 0.00481 0.8585 0.0
C1271 C 0.52909 0.00451 0.84829 0.0
H1272 H 0.03157 0.53132 0.84975 0.0
H1273 H 0.0308 0.54859 0.86855 0.0
H1274 H 0.99452 0.54338 0.84113 0.0
H1275 H 0.99496 0.52563 0.82295 0.0
H1276 H 0.01384 0.50487 0.84683 0.0
H1277 H 0.03281 0.543 0.80757 0.0
H1278 H 0.03368 0.56278 0.7923 0.0
H1279 H 0.99499 0.53527 0.76676 0.0
H1280 H 0.99424 0.51555 0.78199 0.0
H1281 H 0.98953 0.4753 0.785 0.0
H1282 H 0.98728 0.45519 0.76898 0.0
H1283 H 0.02783 0.46449 0.78682 0.0
H1284 H 0.02997 0.48451 0.80293 0.0
H1285 H 0.01054 0.50423 0.78268 0.0
H1286 H 0.99079 0.46691 0.82465 0.0
H1287 H 0.9888 0.4479 0.84293 0.0
H1288 H 0.02963 0.47477 0.86373 0.0
H1289 H 0.0316 0.49367 0.84531 0.0
C1290 C 0.0134 0.52724 0.83482 0.0
C1291 C 0.02347 0.53392 0.84777 0.0
C1292 C 0.02308 0.5439 0.85841 0.0
C1293 C 0.01261 0.54742 0.85635 0.0
C1294 C 0.00264 0.54083 0.84322 0.0
C1295 C 0.00299 0.53079 0.83264 0.0
C1296 C 0.01338 0.51606 0.8242 0.0
C1297 C 0.01341 0.5049 0.83279 0.0
C1298 C 0.01253 0.51591 0.80588 0.0
C1299 C 0.01338 0.52782 0.79604 0.0
C1300 C 0.02451 0.54125 0.79868 0.0
C1301 C 0.02499 0.55254 0.78998 0.0
C1302 C 0.01439 0.55061 0.77835 0.0
C1303 C 0.00341 0.5371 0.77545 0.0
C1304 C 0.00294 0.52582 0.78418 0.0
C1305 C 0.00989 0.48134 0.79516 0.0
C1306 C 0.99795 0.47303 0.78537 0.0
C1307 C 0.99665 0.46153 0.77633 0.0
C1308 C 0.00738 0.4583 0.7767 0.0
C1309 C 0.01945 0.46681 0.78623 0.0
C1310 C 0.02066 0.47819 0.79547 0.0
C1311 C 0.01099 0.49313 0.80538 0.0
C1312 C 0.01116 0.50436 0.79671 0.0
C1313 C 0.01217 0.49344 0.82362 0.0
C1314 C 0.01138 0.48165 0.83359 0.0
C1315 C 0.99939 0.46861 0.83294 0.0
C1316 C 0.99823 0.45781 0.84346 0.0
C1317 C 0.00906 0.45987 0.85474 0.0
C1318 C 0.02119 0.47284 0.85501 0.0
C1319 C 0.02229 0.48366 0.8446 0.0
H1320 H 0.46241 0.50506 0.84404 0.0
H1321 H 0.44499 0.48743 0.86285 0.0
H1322 H 0.4572 0.45796 0.84567 0.0
H1323 H 0.4743 0.47554 0.82664 0.0
H1324 H 0.49081 0.51502 0.84549 0.0
H1325 H 0.45369 0.49203 0.80344 0.0
H1326 H 0.43577 0.47151 0.78843 0.0
H1327 H 0.46689 0.46232 0.76985 0.0
H1328 H 0.48469 0.48266 0.78512 0.0
H1329 H 0.51959 0.51773 0.78225 0.0
H1330 H 0.53909 0.53457 0.76524 0.0
H1331 H 0.5333 0.56757 0.78576 0.0
H1332 H 0.51384 0.55065 0.80284 0.0
H1333 H 0.49324 0.50993 0.78202 0.0
H1334 H 0.52957 0.5297 0.82323 0.0
H1335 H 0.54828 0.54618 0.84187 0.0
H1336 H 0.52066 0.55869 0.86429 0.0
H1337 H 0.5021 0.54251 0.84515 0.0
C1338 C 0.46956 0.49158 0.83383 0.0
C1339 C 0.46122 0.49475 0.84424 0.0
C1340 C 0.45132 0.48467 0.85505 0.0
C1341 C 0.44967 0.47124 0.85583 0.0
C1342 C 0.45797 0.46809 0.84521 0.0
C1343 C 0.46781 0.47815 0.83434 0.0
C1344 C 0.48061 0.50248 0.82313 0.0
C1345 C 0.4912 0.51411 0.83154 0.0
C1346 C 0.48138 0.50094 0.80507 0.0
C1347 C 0.47051 0.48882 0.7955 0.0
C1348 C 0.45663 0.48556 0.79617 0.0
C1349 C 0.44642 0.4739 0.78749 0.0
C1350 C 0.44991 0.46526 0.77803 0.0
C1351 C 0.46385 0.46866 0.77723 0.0
C1352 C 0.47404 0.48034 0.78582 0.0
C1353 C 0.51529 0.53291 0.79394 0.0
C1354 C 0.52248 0.52858 0.78303 0.0
C1355 C 0.53361 0.53823 0.77326 0.0
C1356 C 0.53778 0.55244 0.77412 0.0
C1357 C 0.5305 0.55674 0.78498 0.0
C1358 C 0.51935 0.54707 0.79474 0.0
C1359 C 0.50351 0.52258 0.80437 0.0
C1360 C 0.49278 0.51103 0.79591 0.0
C1361 C 0.50278 0.52404 0.82249 0.0
C1362 C 0.51445 0.53495 0.83266 0.0
C1363 C 0.52762 0.53622 0.83186 0.0
C1364 C 0.53828 0.54554 0.84267 0.0
C1365 C 0.53595 0.5537 0.85465 0.0
C1366 C 0.52285 0.55268 0.85509 0.0
C1367 C 0.5122 0.54336 0.84425 0.0
H1368 H 0.61786 0.83145 0.50762 0.0
H1369 H 0.62039 0.85023 0.4886 0.0
H1370 H 0.66161 0.87635 0.50891 0.0
H1371 H 0.65877 0.85767 0.52825 0.0
H1372 H 0.63512 0.81956 0.50712 0.0
H1373 H 0.62181 0.84418 0.54693 0.0
H1374 H 0.62522 0.86494 0.56215 0.0
H1375 H 0.66108 0.86773 0.5881 0.0
H1376 H 0.65805 0.84746 0.57215 0.0
H1377 H 0.65745 0.81259 0.57143 0.0
H1378 H 0.65955 0.7943 0.58648 0.0
H1379 H 0.62129 0.76351 0.56292 0.0
H1380 H 0.61929 0.78189 0.54782 0.0
H1381 H 0.63938 0.82163 0.57119 0.0
H1382 H 0.65736 0.80323 0.52964 0.0
H1383 H 0.6596 0.78661 0.51126 0.0
H1384 H 0.61943 0.77409 0.48878 0.0
H1385 H 0.61745 0.79105 0.50699 0.0
C1386 C 0.63809 0.84321 0.51941 0.0
C1387 C 0.62737 0.8413 0.50809 0.0
C1388 C 0.62888 0.85202 0.49715 0.0
C1389 C 0.64125 0.86482 0.49711 0.0
C1390 C 0.65187 0.86675 0.50875 0.0
C1391 C 0.65029 0.85606 0.51979 0.0
C1392 C 0.63692 0.83148 0.52993 0.0
C1393 C 0.63571 0.81986 0.52116 0.0
C1394 C 0.63829 0.83219 0.54821 0.0
C1395 C 0.63979 0.84434 0.55816 0.0
C1396 C 0.63049 0.84935 0.55577 0.0
C1397 C 0.63236 0.86114 0.56465 0.0
C1398 C 0.64349 0.86811 0.57628 0.0
C1399 C 0.65256 0.86283 0.57899 0.0
C1400 C 0.65074 0.85112 0.57001 0.0
C1401 C 0.63828 0.79862 0.55837 0.0
C1402 C 0.64943 0.80192 0.56967 0.0
C1403 C 0.6506 0.79144 0.57829 0.0
C1404 C 0.64061 0.77742 0.57586 0.0
C1405 C 0.62927 0.77417 0.56487 0.0
C1406 C 0.6281 0.78467 0.55626 0.0
C1407 C 0.63762 0.80974 0.54834 0.0
C1408 C 0.6385 0.82123 0.55717 0.0
C1409 C 0.63637 0.80916 0.53006 0.0
C1410 C 0.63719 0.79831 0.51977 0.0
C1411 C 0.64895 0.79677 0.52092 0.0
C1412 C 0.65019 0.7872 0.51043 0.0
C1413 C 0.63969 0.77897 0.49851 0.0
C1414 C 0.6278 0.78038 0.49762 0.0
C1415 C 0.62661 0.79002 0.50808 0.0
H1416 H 0.16588 0.80005 0.50987 0.0
H1417 H 0.14781 0.78306 0.49101 0.0
H1418 H 0.11783 0.79109 0.51597 0.0
H1419 H 0.13611 0.80857 0.53425 0.0
H1420 H 0.1754 0.82683 0.5112 0.0
H1421 H 0.15481 0.78977 0.55225 0.0
H1422 H 0.13595 0.77134 0.5686 0.0
H1423 H 0.12709 0.80161 0.59154 0.0
H1424 H 0.14603 0.81998 0.57525 0.0
H1425 H 0.1816 0.8568 0.5743 0.0
H1426 H 0.1995 0.87604 0.59108 0.0
H1427 H 0.23029 0.86737 0.56995 0.0
H1428 H 0.21235 0.84817 0.55322 0.0
H1429 H 0.1731 0.82935 0.57513 0.0
H1430 H 0.18855 0.86397 0.52722 0.0
H1431 H 0.2052 0.8816 0.50783 0.0
H1432 H 0.22405 0.85604 0.49931 0.0
H1433 H 0.2067 0.83813 0.51781 0.0
C1434 C 0.15237 0.80553 0.52358 0.0
C1435 C 0.1554 0.79811 0.51133 0.0
C1436 C 0.14501 0.78829 0.50066 0.0
C1437 C 0.13132 0.78565 0.50199 0.0
C1438 C 0.12826 0.79294 0.51448 0.0
C1439 C 0.13869 0.80283 0.52509 0.0
C1440 C 0.16365 0.81667 0.53399 0.0
C1441 C 0.17497 0.8272 0.52521 0.0
C1442 C 0.16302 0.8174 0.55225 0.0
C1443 C 0.15174 0.80623 0.5624 0.0
C1444 C 0.14876 0.79242 0.56075 0.0
C1445 C 0.13797 0.7819 0.57009 0.0
C1446 C 0.12999 0.785 0.58135 0.0
C1447 C 0.13315 0.79888 0.58316 0.0
C1448 C 0.14394 0.80939 0.57381 0.0
C1449 C 0.19565 0.85117 0.56232 0.0
C1450 C 0.19221 0.85905 0.5733 0.0
C1451 C 0.20244 0.87 0.58294 0.0
C1452 C 0.21633 0.87325 0.58183 0.0
C1453 C 0.21973 0.86528 0.57088 0.0
C1454 C 0.20949 0.85431 0.56128 0.0
C1455 C 0.18473 0.83945 0.55228 0.0
C1456 C 0.17351 0.82884 0.56113 0.0
C1457 C 0.18543 0.83857 0.53411 0.0
C1458 C 0.19643 0.84979 0.52386 0.0
C1459 C 0.19635 0.86226 0.52121 0.0
C1460 C 0.20597 0.87238 0.5102 0.0
C1461 C 0.21602 0.8703 0.50182 0.0
C1462 C 0.21631 0.85793 0.50512 0.0
C1463 C 0.20649 0.8477 0.51583 0.0
H1464 H 0.1445 0.32548 0.51646 0.0
H1465 H 0.12513 0.32191 0.49797 0.0
H1466 H 0.13829 0.36566 0.50163 0.0
H1467 H 0.15715 0.36886 0.521 0.0
H1468 H 0.17436 0.34718 0.50809 0.0
H1469 H 0.1393 0.33055 0.55235 0.0
H1470 H 0.12009 0.33032 0.56754 0.0
H1471 H 0.14609 0.37354 0.58089 0.0
H1472 H 0.16543 0.37353 0.56589 0.0
H1473 H 0.20584 0.37195 0.5716 0.0
H1474 H 0.22436 0.37113 0.58811 0.0
H1475 H 0.21117 0.33015 0.56777 0.0
H1476 H 0.19295 0.33116 0.55121 0.0
H1477 H 0.17726 0.35501 0.57162 0.0
H1478 H 0.21424 0.36892 0.5315 0.0
H1479 H 0.23239 0.36788 0.51505 0.0
H1480 H 0.20179 0.32939 0.49166 0.0
H1481 H 0.18385 0.33017 0.5087 0.0
C1482 C 0.15221 0.34742 0.52001 0.0
C1483 C 0.14307 0.33424 0.51339 0.0
C1484 C 0.13207 0.33226 0.5027 0.0
C1485 C 0.13017 0.34351 0.49806 0.0
C1486 C 0.13926 0.35669 0.50505 0.0
C1487 C 0.15012 0.35859 0.51603 0.0
C1488 C 0.1643 0.34953 0.53041 0.0
C1489 C 0.17502 0.34882 0.52199 0.0
C1490 C 0.16524 0.3521 0.5484 0.0
C1491 C 0.15373 0.35209 0.55787 0.0
C1492 C 0.14084 0.33999 0.55847 0.0
C1493 C 0.12984 0.33991 0.5671 0.0
C1494 C 0.13147 0.35196 0.5753 0.0
C1495 C 0.14449 0.36406 0.57483 0.0
C1496 C 0.15553 0.36409 0.56623 0.0
C1497 C 0.19816 0.35171 0.55999 0.0
C1498 C 0.20695 0.3628 0.57078 0.0
C1499 C 0.2175 0.36229 0.58023 0.0
C1500 C 0.21936 0.35063 0.57911 0.0
C1501 C 0.21027 0.33942 0.56861 0.0
C1502 C 0.1998 0.33995 0.55919 0.0
C1503 C 0.1873 0.3523 0.54936 0.0
C1504 C 0.17681 0.35361 0.55768 0.0
C1505 C 0.18656 0.35024 0.53119 0.0
C1506 C 0.19768 0.34956 0.52145 0.0
C1507 C 0.21148 0.36015 0.52303 0.0
C1508 C 0.22183 0.35962 0.51347 0.0
C1509 C 0.21856 0.34854 0.50204 0.0
C1510 C 0.20473 0.33795 0.50054 0.0
C1511 C 0.19442 0.33846 0.51014 0.0
H1512 H 0.0237 0.39995 0.04869 0.0
H1513 H 0.01762 0.40958 0.0731 0.0
H1514 H 0.9817 0.36985 0.08253 0.0
H1515 H 0.98752 0.36008 0.05764 0.0
H1516 H 0.97543 0.3903 0.08335 0.0
H1517 H 0.02167 0.40557 0.12415 0.0
H1518 H 0.02645 0.41271 0.10283 0.0
H1519 H 0.01759 0.39417 0.10574 0.0
C1520 C 0.01457 0.39314 0.05601 0.0
C1521 C 0.00614 0.37918 0.05118 0.0
C1522 C 0.01116 0.39869 0.07009 0.0
C1523 C 0.99937 0.39038 0.07991 0.0
C1524 C 0.99092 0.37642 0.07523 0.0
H1525 H 0.98835 0.42933 0.17284 0.0
H1526 H 0.99051 0.4128 0.1539 0.0
C1527 C 0.99427 0.37085 0.061 0.0
C1528 C 0.99554 0.39663 0.09433 0.0
H1529 H 0.00891 0.41755 0.12977 0.0
C1530 C 0.98266 0.39607 0.09367 0.0
C1531 C 0.00482 0.40392 0.10803 0.0
C1532 C 0.01834 0.404 0.11035 0.0
C1533 C 0.97915 0.40324 0.10575 0.0
C1534 C 0.98893 0.41151 0.11855 0.0
C1535 C 0.00148 0.41142 0.1198 0.0
C1536 C 0.98671 0.42089 0.13016 0.0
C1537 C 0.96501 0.40192 0.1046 0.0
C1538 C 0.98395 0.43099 0.12315 0.0
C1539 C 0.98263 0.44035 0.13394 0.0
C1540 C 0.98428 0.43998 0.15196 0.0
C1541 C 0.98709 0.4299 0.15899 0.0
C1542 C 0.98828 0.42044 0.14819 0.0
H1543 H 0.9574 0.39186 0.09869 0.0
H1544 H 0.96123 0.40277 0.11755 0.0
H1545 H 0.9655 0.4103 0.09622 0.0
H1546 H 0.98316 0.43187 0.10927 0.0
H1547 H 0.98072 0.44817 0.12812 0.0
H1548 H 0.6083 0.61434 0.03828 0.0
H1549 H 0.59487 0.59872 0.06185 0.0
H1550 H 0.63259 0.60946 0.08976 0.0
H1551 H 0.64601 0.62502 0.06608 0.0
H1552 H 0.61445 0.58122 0.08888 0.0
H1553 H 0.58762 0.60957 0.10945 0.0
H1554 H 0.58555 0.6054 0.08679 0.0
H1555 H 0.60242 0.61713 0.09538 0.0
C1556 C 0.61367 0.61328 0.04945 0.0
C1557 C 0.62813 0.62046 0.05024 0.0
C1558 C 0.60602 0.60448 0.06294 0.0
C1559 C 0.61273 0.60306 0.07765 0.0
C1560 C 0.62722 0.61042 0.07854 0.0
H1561 H 0.56977 0.56078 0.17226 0.0
H1562 H 0.58545 0.57803 0.15152 0.0
C1563 C 0.63486 0.61918 0.06499 0.0
C1564 C 0.60462 0.5936 0.09186 0.0
H1565 H 0.5789 0.58665 0.12065 0.0
C1566 C 0.60676 0.58246 0.0959 0.0
C1567 C 0.59472 0.59537 0.10121 0.0
C1568 C 0.59251 0.60759 0.09814 0.0
C1569 C 0.59896 0.57275 0.10863 0.0
C1570 C 0.5886 0.57413 0.11739 0.0
C1571 C 0.58676 0.58554 0.11378 0.0
C1572 C 0.57933 0.56366 0.13003 0.0
C1573 C 0.60193 0.56113 0.11262 0.0
C1574 C 0.57061 0.54992 0.12476 0.0
C1575 C 0.56164 0.54008 0.13653 0.0
C1576 C 0.56114 0.5438 0.1538 0.0
C1577 C 0.56984 0.5576 0.15902 0.0
C1578 C 0.57883 0.56745 0.14722 0.0
H1579 H 0.61249 0.56374 0.10854 0.0
H1580 H 0.60085 0.55868 0.12667 0.0
H1581 H 0.59446 0.55169 0.10545 0.0
H1582 H 0.57058 0.54685 0.11144 0.0
H1583 H 0.55487 0.52961 0.13198 0.0
H1584 H 0.3842 0.99048 0.0316 0.0
H1585 H 0.39986 0.99225 0.05532 0.0
H1586 H 0.38699 0.0169 0.08471 0.0
H1587 H 0.37121 0.01495 0.06109 0.0
H1588 H 0.42184 0.01631 0.06942 0.0
H1589 H 0.38231 0.9865 0.11899 0.0
H1590 H 0.37815 0.98596 0.09625 0.0
H1591 H 0.38081 1.00047 0.10933 0.0
C1592 C 0.38479 0.99629 0.04315 0.0
C1593 C 0.37692 0.00296 0.04442 0.0
C1594 C 0.39368 0.99728 0.05665 0.0
C1595 C 0.39452 0.00463 0.07181 0.0
C1596 C 0.38638 0.01104 0.07323 0.0
H1597 H 0.45905 0.03404 0.15085 0.0
H1598 H 0.44207 0.03205 0.12902 0.0
C1599 C 0.37755 0.0101 0.05968 0.0
C1600 C 0.40416 0.00587 0.08593 0.0
H1601 H 0.40572 0.99799 0.12843 0.0
C1602 C 0.41832 0.0124 0.08233 0.0
C1603 C 0.39951 1.00049 0.1027 0.0
C1604 C 0.38436 0.99285 0.10708 0.0
C1605 C 0.428 0.01394 0.09513 0.0
C1606 C 0.42337 0.00877 0.11195 0.0
C1607 C 0.4092 0.00206 0.11553 0.0
C1608 C 0.43314 0.0099 0.12579 0.0
C1609 C 0.4431 0.02088 0.09054 0.0
C1610 C 0.43353 0.99805 0.13136 0.0
C1611 C 0.44331 0.99916 0.14367 0.0
C1612 C 0.45281 0.01214 0.15076 0.0
C1613 C 0.45207 0.02393 0.14546 0.0
C1614 C 0.44234 0.02281 0.13306 0.0
H1615 H 0.44474 0.02232 0.07634 0.0
H1616 H 0.4486 0.03123 0.09682 0.0
H1617 H 0.4478 0.01469 0.09541 0.0
H1618 H 0.42651 0.98799 0.12584 0.0
H1619 H 0.44367 0.98989 0.14724 0.0
H1620 H 0.3962 0.02572 0.96735 0.0
H1621 H 0.40674 0.02034 0.94329 0.0
H1622 H 0.37306 0.97826 0.94252 0.0
H1623 H 0.3624 0.98348 0.96692 0.0
H1624 H 0.39856 0.97986 0.94247 0.0
H1625 H 0.39668 0.01447 0.89211 0.0
H1626 H 0.4042 0.02356 0.91194 0.0
H1627 H 0.38641 0.01005 0.9115 0.0
C1628 C 0.39088 0.01533 0.96199 0.0
C1629 C 0.3784 0.00503 0.96913 0.0
C1630 C 0.39691 0.01231 0.94811 0.0
C1631 C 0.39059 0.99896 0.94091 0.0
C1632 C 0.37805 0.98867 0.9478 0.0
H1633 H 0.4297 0.98568 0.8498 0.0
H1634 H 0.41213 0.98538 0.86901 0.0
C1635 C 0.37197 0.99168 0.96173 0.0
C1636 C 0.39769 0.99566 0.92707 0.0
H1637 H 0.41346 0.00698 0.88798 0.0
C1638 C 0.40163 0.98562 0.93042 0.0
C1639 C 0.40152 0.00302 0.91124 0.0
C1640 C 0.39685 0.01327 0.90639 0.0
C1641 C 0.40994 0.98333 0.91881 0.0
C1642 C 0.41463 0.99144 0.90359 0.0
C1643 C 0.41003 0.0009 0.89976 0.0
C1644 C 0.42496 0.99091 0.89205 0.0
C1645 C 0.41375 0.97234 0.92306 0.0
C1646 C 0.43802 0.99421 0.8986 0.0
C1647 C 0.44804 0.99433 0.88771 0.0
C1648 C 0.44525 0.99126 0.86997 0.0
C1649 C 0.43213 0.98793 0.86343 0.0
C1650 C 0.4221 0.98782 0.87436 0.0
H1651 H 0.40603 0.96427 0.93171 0.0
H1652 H 0.41464 0.96725 0.91114 0.0
H1653 H 0.42387 0.97721 0.92991 0.0
H1654 H 0.44057 0.99691 0.91212 0.0
H1655 H 0.45797 0.9968 0.89322 0.0
H1656 H 0.01817 0.37523 0.96124 0.0
H1657 H 0.01924 0.39099 0.93829 0.0
H1658 H 0.98767 0.39596 0.96411 0.0
H1659 H 0.98784 0.38146 0.98795 0.0
H1660 H 0.00224 0.38931 0.91585 0.0
H1661 H 0.01271 0.43502 0.95537 0.0
H1662 H 0.01162 0.41977 0.9651 0.0
H1663 H 0.99619 0.42067 0.9607 0.0
C1664 C 0.01198 0.38026 0.96235 0.0
C1665 C 0.00363 0.37793 0.97683 0.0
C1666 C 0.01235 0.38903 0.94907 0.0
C1667 C 0.00388 0.39513 0.94967 0.0
C1668 C 0.99483 0.39202 0.96369 0.0
H1669 H 0.98691 0.44388 0.8751 0.0
H1670 H 0.985 0.42713 0.89719 0.0
C1671 C 0.99483 0.38363 0.97723 0.0
C1672 C 0.00406 0.40415 0.93521 0.0
H1673 H 0.00598 0.43522 0.9258 0.0
C1674 C 0.00321 0.39941 0.91811 0.0
C1675 C 0.00515 0.41731 0.93801 0.0
C1676 C 0.0066 0.42351 0.95579 0.0
C1677 C 0.00344 0.40741 0.90385 0.0
C1678 C 0.00449 0.42044 0.90675 0.0
C1679 C 0.00515 0.42516 0.92372 0.0
C1680 C 0.00517 0.42955 0.89234 0.0
C1681 C 0.00242 0.40185 0.88577 0.0
C1682 C 0.01713 0.43635 0.8823 0.0
C1683 C 0.01828 0.44596 0.86973 0.0
C1684 C 0.00745 0.44885 0.86698 0.0
C1685 C 0.99534 0.44173 0.87678 0.0
C1686 C 0.99426 0.43222 0.88944 0.0
H1687 H 0.99938 0.39068 0.88577 0.0
H1688 H 0.99481 0.40329 0.87793 0.0
H1689 H 0.0126 0.40771 0.87938 0.0
H1690 H 0.02571 0.4345 0.88452 0.0
H1691 H 0.02769 0.45125 0.86231 0.0
H1692 H 0.62134 0.63551 0.9731 0.0
H1693 H 0.60457 0.62513 0.94936 0.0
H1694 H 0.60975 0.58908 0.95067 0.0
H1695 H 0.62633 0.59918 0.97438 0.0
H1696 H 0.60708 0.61546 0.91608 0.0
H1697 H 0.56794 0.57304 0.95641 0.0
H1698 H 0.58244 0.58823 0.96564 0.0
H1699 H 0.58464 0.57429 0.95737 0.0
C1700 C 0.61896 0.62539 0.96831 0.0
C1701 C 0.62514 0.61815 0.9758 0.0
C1702 C 0.60937 0.61949 0.95474 0.0
C1703 C 0.60575 0.60624 0.94849 0.0
C1704 C 0.6122 0.59919 0.95555 0.0
H1705 H 0.55328 0.5473 0.87267 0.0
H1706 H 0.5704 0.5612 0.89467 0.0
C1707 C 0.62174 0.60504 0.96908 0.0
C1708 C 0.59514 0.59962 0.9347 0.0
H1709 H 0.56436 0.57064 0.92585 0.0
C1710 C 0.59766 0.60574 0.91822 0.0
C1711 C 0.58283 0.58698 0.93759 0.0
C1712 C 0.5792 0.5803 0.95525 0.0
C1713 C 0.58845 0.59922 0.90434 0.0
C1714 C 0.57638 0.58635 0.90713 0.0
C1715 C 0.57369 0.58045 0.92373 0.0
C1716 C 0.56659 0.57851 0.89293 0.0
C1717 C 0.59193 0.60585 0.88666 0.0
C1718 C 0.55879 0.58367 0.88461 0.0
C1719 C 0.54901 0.57576 0.87192 0.0
C1720 C 0.54686 0.56255 0.86736 0.0
C1721 C 0.55483 0.55752 0.87563 0.0
C1722 C 0.56455 0.56541 0.88831 0.0
H1723 H 0.60283 0.61431 0.88593 0.0
H1724 H 0.5901 0.59802 0.87654 0.0
H1725 H 0.58515 0.61033 0.88372 0.0
H1726 H 0.56007 0.59368 0.88818 0.0
H1727 H 0.54309 0.57995 0.86574 0.0
H1728 H 0.01649 0.64524 0.95266 0.0
H1729 H 0.01813 0.63065 0.92998 0.0
H1730 H 0.99398 0.59432 0.96117 0.0
H1731 H 0.99262 0.60898 0.98398 0.0
H1732 H 0.01696 0.59485 0.94783 0.0
H1733 H 0.98812 0.60502 0.89622 0.0
H1734 H 0.00242 0.62042 0.90507 0.0
H1735 H 0.98797 0.60962 0.91859 0.0
C1736 C 0.01169 0.63415 0.95467 0.0
C1737 C 0.00485 0.6282 0.9702 0.0
C1738 C 0.01244 0.62581 0.94164 0.0
C1739 C 0.00608 0.61138 0.94382 0.0
C1740 C 0.99899 0.60543 0.95924 0.0
H1741 H 0.98947 0.54614 0.87042 0.0
H1742 H 0.98825 0.56222 0.89098 0.0
C1743 C 0.99822 0.61377 0.97223 0.0
C1744 C 0.00711 0.60247 0.93029 0.0
H1745 H 0.99929 0.59236 0.88802 0.0
C1746 C 0.01321 0.59441 0.93473 0.0
C1747 C 0.0019 0.60165 0.91329 0.0
C1748 C 0.99461 0.60953 0.908 0.0
C1749 C 0.01447 0.58573 0.92257 0.0
C1750 C 0.00951 0.58511 0.9055 0.0
C1751 C 0.00323 0.59301 0.90108 0.0
C1752 C 0.01033 0.57591 0.89227 0.0
C1753 C 0.02087 0.57707 0.92814 0.0
C1754 C 0.02314 0.57846 0.88597 0.0
C1755 C 0.02389 0.56936 0.87408 0.0
C1756 C 0.01181 0.55753 0.86828 0.0
C1757 C 0.99897 0.55522 0.8744 0.0
C1758 C 0.99824 0.56435 0.88622 0.0
H1759 H 0.02183 0.5768 0.94245 0.0
H1760 H 0.01464 0.56628 0.92328 0.0
H1761 H 0.03135 0.58151 0.92255 0.0
H1762 H 0.03258 0.58744 0.89033 0.0
H1763 H 0.03393 0.57161 0.86941 0.0
H1764 H 0.39654 0.37312 0.96494 0.0
H1765 H 0.40722 0.39027 0.94204 0.0
H1766 H 0.37717 0.4036 0.94933 0.0
H1767 H 0.36619 0.38623 0.97216 0.0
H1768 H 0.38289 0.40215 0.91448 0.0
H1769 H 0.43113 0.43146 0.95275 0.0
H1770 H 0.42633 0.41359 0.94974 0.0
H1771 H 0.41539 0.41799 0.96207 0.0
C1772 C 0.3921 0.3796 0.96163 0.0
C1773 C 0.38057 0.37837 0.97056 0.0
C1774 C 0.39828 0.38946 0.94857 0.0
C1775 C 0.39319 0.39843 0.94426 0.0
C1776 C 0.38132 0.39684 0.95255 0.0
H1777 H 0.4439 0.47548 0.88899 0.0
H1778 H 0.42881 0.45816 0.90985 0.0
C1779 C 0.37506 0.3869 0.96559 0.0
C1780 C 0.40056 0.4097 0.93149 0.0
H1781 H 0.43202 0.43775 0.9231 0.0
C1782 C 0.39361 0.41 0.91638 0.0
C1783 C 0.41446 0.42009 0.93416 0.0
C1784 C 0.42224 0.42089 0.95063 0.0
C1785 C 0.40033 0.42018 0.90361 0.0
C1786 C 0.41444 0.43014 0.9059 0.0
C1787 C 0.42125 0.43004 0.92125 0.0
C1788 C 0.42249 0.4407 0.89256 0.0
C1789 C 0.3922 0.42024 0.88791 0.0
C1790 C 0.4239 0.43669 0.87581 0.0
C1791 C 0.4324 0.44661 0.86373 0.0
C1792 C 0.43981 0.46075 0.86821 0.0
C1793 C 0.4382 0.46474 0.88495 0.0
C1794 C 0.42965 0.45482 0.89697 0.0
H1795 H 0.38095 0.41496 0.89058 0.0
H1796 H 0.39556 0.43098 0.88351 0.0
H1797 H 0.39386 0.41459 0.87719 0.0
H1798 H 0.41873 0.42584 0.8722 0.0
H1799 H 0.43326 0.44316 0.85093 0.0
H1800 H 0.63236 0.98735 0.9609 0.0
H1801 H 0.61716 0.98545 0.93661 0.0
H1802 H 0.60449 0.01103 0.96433 0.0
H1803 H 0.61941 0.01256 0.98881 0.0
H1804 H 0.58266 0.98819 0.9504 0.0
H1805 H 0.62324 0.01477 0.90097 0.0
H1806 H 0.6235 1.00025 0.91095 0.0
H1807 H 0.62716 0.01521 0.92377 0.0
C1808 C 0.62616 0.99239 0.96181 0.0
C1809 C 0.62658 0.99967 0.97683 0.0
C1810 C 0.61768 0.9915 0.94787 0.0
C1811 C 0.60978 0.9982 0.94861 0.0
C1812 C 0.61047 0.00575 0.96352 0.0
H1813 H 0.56779 0.01683 0.86764 0.0
H1814 H 0.5839 0.01693 0.88945 0.0
C1815 C 0.61894 0.00662 0.97746 0.0
C1816 C 0.60054 0.99711 0.93406 0.0
H1817 H 0.6 0.00413 0.89105 0.0
C1818 C 0.58643 0.9916 0.93741 0.0
C1819 C 0.60555 0.0018 0.91718 0.0
C1820 C 0.62071 0.00846 0.91299 0.0
C1821 C 0.57716 0.99062 0.92436 0.0
C1822 C 0.58211 0.99505 0.9074 0.0
C1823 C 0.59622 1.00059 0.90402 0.0
C1824 C 0.57289 0.99471 0.89325 0.0
C1825 C 0.56222 0.98523 0.92898 0.0
C1826 C 0.56157 0.98214 0.88783 0.0
C1827 C 0.55226 0.98206 0.8755 0.0
C1828 C 0.55417 0.99455 0.86828 0.0
C1829 C 0.56589 0.00705 0.87318 0.0
C1830 C 0.57516 0.00713 0.88554 0.0
H1831 H 0.56081 0.9854 0.94319 0.0
H1832 H 0.5581 0.99144 0.92257 0.0
H1833 H 0.55601 0.97434 0.9245 0.0
H1834 H 0.55978 0.97242 0.8934 0.0
H1835 H 0.54331 0.97225 0.87209 0.0
H1836 H 0.60861 0.97586 0.05714 0.0
H1837 H 0.59719 0.98109 0.08039 0.0
H1838 H 0.62588 0.02474 0.0747 0.0
H1839 H 0.63762 0.01961 0.05155 0.0
H1840 H 0.61985 0.0166 0.10924 0.0
H1841 H 0.57202 0.99722 0.06977 0.0
H1842 H 0.57755 0.98461 0.07259 0.0
H1843 H 0.58819 1.00029 0.06075 0.0
C1844 C 0.6126 0.98659 0.06089 0.0
C1845 C 0.62395 0.99734 0.05232 0.0
C1846 C 0.60601 0.98955 0.07416 0.0
C1847 C 0.61048 0.00331 0.07898 0.0
C1848 C 0.62221 0.01404 0.07107 0.0
H1849 H 0.55697 0.02683 0.13259 0.0
H1850 H 0.57278 0.02514 0.11239 0.0
C1851 C 0.62891 0.01108 0.05786 0.0
C1852 C 0.60254 0.00648 0.09173 0.0
H1853 H 0.57043 0.00195 0.09939 0.0
C1854 C 0.60907 0.01348 0.10709 0.0
C1855 C 0.58854 0.00262 0.08873 0.0
C1856 C 0.58119 0.9959 0.072 0.0
C1857 C 0.60185 0.01641 0.11973 0.0
C1858 C 0.58767 0.01197 0.11705 0.0
C1859 C 0.58126 0.00525 0.10152 0.0
C1860 C 0.57918 0.01415 0.13007 0.0
C1861 C 0.60953 0.0244 0.13569 0.0
C1862 C 0.57758 0.00863 0.14683 0.0
C1863 C 0.56869 0.00978 0.15857 0.0
C1864 C 0.56107 0.01631 0.1537 0.0
C1865 C 0.56284 0.02196 0.13695 0.0
C1866 C 0.5718 0.0209 0.1253 0.0
H1867 H 0.62082 0.03054 0.1334 0.0
H1868 H 0.60581 0.03154 0.13996 0.0
H1869 H 0.60783 0.01701 0.14635 0.0
H1870 H 0.58293 0.00312 0.15071 0.0
H1871 H 0.5677 0.00544 0.1714 0.0
H1872 H 0.98704 0.62477 0.04739 0.0
H1873 H 0.98215 0.6093 0.07221 0.0
H1874 H 0.02391 0.61654 0.0713 0.0
H1875 H 0.02897 0.63206 0.04664 0.0
H1876 H 0.98425 0.58501 0.07245 0.0
H1877 H 0.01831 0.62213 0.12254 0.0
H1878 H 0.01347 0.62761 0.10289 0.0
H1879 H 0.02695 0.62313 0.10261 0.0
C1880 C 0.99526 0.62324 0.05259 0.0
C1881 C 0.00842 0.62971 0.04498 0.0
C1882 C 0.99242 0.61437 0.06677 0.0
C1883 C 0.00271 0.61193 0.07373 0.0
C1884 C 0.01589 0.61851 0.06635 0.0
H1885 H 0.01095 0.55735 0.1456 0.0
H1886 H 0.01381 0.57537 0.12503 0.0
C1887 C 0.01874 0.62733 0.05216 0.0
C1888 C 0.99948 0.60178 0.08793 0.0
H1889 H 0.00949 0.59808 0.12862 0.0
C1890 C 0.98962 0.58787 0.08483 0.0
C1891 C 0.00655 0.60557 0.10402 0.0
C1892 C 0.01682 0.62044 0.10833 0.0
C1893 C 0.98703 0.57754 0.09714 0.0
C1894 C 0.99431 0.58127 0.1131 0.0
C1895 C 0.00394 0.59524 0.11636 0.0
C1896 C 0.99255 0.57075 0.12624 0.0
C1897 C 0.97694 0.56263 0.09265 0.0
C1898 C 0.9797 0.56236 0.13401 0.0
C1899 C 0.97804 0.55205 0.1458 0.0
C1900 C 0.98922 0.55003 0.15016 0.0
C1901 C 0.00216 0.55872 0.14268 0.0
C1902 C 0.0038 0.56899 0.13087 0.0
H1903 H 0.97466 0.56119 0.07853 0.0
H1904 H 0.98098 0.5557 0.09681 0.0
H1905 H 0.96709 0.55938 0.0995 0.0
H1906 H 0.97096 0.56375 0.1309 0.0
H1907 H 0.968 0.54568 0.15155 0.0
H1908 H 0.37439 0.35774 0.06141 0.0
H1909 H 0.3903 0.37033 0.0854 0.0
H1910 H 0.40365 0.4089 0.05828 0.0
H1911 H 0.38777 0.39629 0.03426 0.0
H1912 H 0.42554 0.40461 0.07213 0.0
H1913 H 0.3855 0.39601 0.12071 0.0
H1914 H 0.38347 0.3808 0.10979 0.0
H1915 H 0.38188 0.39382 0.09774 0.0
C1916 C 0.38086 0.36889 0.06056 0.0
C1917 C 0.38025 0.37608 0.04588 0.0
C1918 C 0.38979 0.37607 0.0743 0.0
C1919 C 0.39809 0.39054 0.07361 0.0
C1920 C 0.39734 0.39773 0.05901 0.0
H1921 H 0.44634 0.45287 0.14922 0.0
H1922 H 0.42958 0.4377 0.12761 0.0
C1923 C 0.38832 0.39056 0.04534 0.0
C1924 C 0.40765 0.39822 0.08804 0.0
H1925 H 0.40873 0.40761 0.13036 0.0
C1926 C 0.42189 0.40518 0.08489 0.0
C1927 C 0.4028 0.39907 0.10461 0.0
C1928 C 0.38758 0.39213 0.10848 0.0
C1929 C 0.43145 0.41294 0.0979 0.0
C1930 C 0.42661 0.41376 0.11448 0.0
C1931 C 0.41237 0.40684 0.11765 0.0
C1932 C 0.43621 0.42236 0.1284 0.0
C1933 C 0.44664 0.4205 0.09375 0.0
C1934 C 0.4453 0.41859 0.13621 0.0
C1935 C 0.45481 0.42716 0.14875 0.0
C1936 C 0.45542 0.43968 0.15365 0.0
C1937 C 0.44605 0.44323 0.14599 0.0
C1938 C 0.43651 0.43462 0.13355 0.0
H1939 H 0.44853 0.42057 0.07963 0.0
H1940 H 0.45156 0.43138 0.09844 0.0
H1941 H 0.45175 0.41535 0.10047 0.0
H1942 H 0.44509 0.40907 0.13252 0.0
H1943 H 0.4617 0.42399 0.15456 0.0
H1944 H 0.68956 0.727 0.39222 0.0
H1945 H 0.68329 0.73741 0.41576 0.0
H1946 H 0.64021 0.70817 0.40692 0.0
H1947 H 0.64642 0.69742 0.38361 0.0
H1948 H 0.66854 0.75024 0.41267 0.0
H1949 H 0.64252 0.70676 0.45897 0.0
H1950 H 0.65272 0.7063 0.44121 0.0
H1951 H 0.63523 0.70254 0.43755 0.0
C1952 C 0.67875 0.72262 0.39543 0.0
C1953 C 0.66849 0.71136 0.38601 0.0
C1954 C 0.67518 0.7286 0.40891 0.0
C1955 C 0.66129 0.7235 0.41325 0.0
C1956 C 0.65102 0.71209 0.4041 0.0
H1957 H 0.63211 0.77384 0.46427 0.0
H1958 H 0.63646 0.75958 0.44407 0.0
C1959 C 0.65459 0.706 0.3907 0.0
C1960 C 0.65759 0.73087 0.42636 0.0
H1961 H 0.63995 0.72662 0.46395 0.0
C1962 C 0.66234 0.74507 0.42393 0.0
C1963 C 0.64961 0.72417 0.44114 0.0
C1964 C 0.64483 0.70914 0.445 0.0
C1965 C 0.65927 0.75273 0.43573 0.0
C1966 C 0.65085 0.74593 0.45015 0.0
C1967 C 0.64624 0.73177 0.45276 0.0
C1968 C 0.64702 0.75347 0.46282 0.0
C1969 C 0.66532 0.76811 0.43279 0.0
C1970 C 0.6509 0.75424 0.4803 0.0
C1971 C 0.64818 0.76218 0.49201 0.0
C1972 C 0.64151 0.76952 0.48647 0.0
C1973 C 0.63717 0.76828 0.46907 0.0
C1974 C 0.63982 0.76026 0.45741 0.0
H1975 H 0.67445 0.7723 0.4242 0.0
H1976 H 0.65744 0.77006 0.42647 0.0
H1977 H 0.66845 0.77391 0.44523 0.0
H1978 H 0.65635 0.74897 0.48479 0.0
H1979 H 0.65142 0.76267 0.50537 0.0
H1980 H 0.30863 0.95631 0.39606 0.0
H1981 H 0.29447 0.93996 0.41848 0.0
H1982 H 0.25821 0.93873 0.39597 0.0
H1983 H 0.27221 0.9535 0.37229 0.0
H1984 H 0.28088 0.94028 0.44264 0.0
H1985 H 0.24214 0.89921 0.40032 0.0
H1986 H 0.25636 0.91444 0.39133 0.0
H1987 H 0.24102 0.91469 0.39794 0.0
C1988 C 0.29754 0.95192 0.39548 0.0
C1989 C 0.29135 0.95524 0.38179 0.0
C1990 C 0.28944 0.94285 0.40853 0.0
C1991 C 0.27505 0.93751 0.40865 0.0
C1992 C 0.26909 0.94191 0.39572 0.0
H1993 H 0.22758 0.89878 0.50235 0.0
H1994 H 0.24179 0.91526 0.48022 0.0
C1995 C 0.27712 0.9505 0.38228 0.0
C1996 C 0.26649 0.92778 0.42262 0.0
H1997 H 0.23664 0.89755 0.43041 0.0
C1998 C 0.2713 0.93085 0.43984 0.0
C1999 C 0.2539 0.91539 0.41921 0.0
C2000 C 0.24816 0.9107 0.40117 0.0
C2001 C 0.26407 0.92193 0.45358 0.0
C2002 C 0.25131 0.90985 0.45018 0.0
C2003 C 0.24641 0.90682 0.43305 0.0
C2004 C 0.24293 0.89996 0.464 0.0
C2005 C 0.27045 0.92538 0.47148 0.0
C2006 C 0.23842 0.88577 0.46207 0.0
C2007 C 0.22984 0.87622 0.47437 0.0
C2008 C 0.22567 0.88063 0.4891 0.0
C2009 C 0.23039 0.89491 0.49113 0.0
C2010 C 0.23877 0.90443 0.47861 0.0
H2011 H 0.28183 0.93217 0.47092 0.0
H2012 H 0.26619 0.93105 0.4787 0.0
H2013 H 0.26818 0.91587 0.47882 0.0
H2014 H 0.2414 0.88202 0.45086 0.0
H2015 H 0.22621 0.86534 0.47203 0.0
H2016 H 0.04231 0.35061 0.39452 0.0
H2017 H 0.05862 0.35179 0.41689 0.0
H2018 H 0.06446 0.32146 0.38883 0.0
H2019 H 0.04911 0.32128 0.3658 0.0
H2020 H 0.05751 0.33336 0.43812 0.0
H2021 H 0.10335 0.34881 0.3974 0.0
H2022 H 0.0873 0.34592 0.38811 0.0
H2023 H 0.09017 0.33157 0.39202 0.0
C2024 C 0.04757 0.34467 0.39285 0.0
C2025 C 0.04516 0.33651 0.37802 0.0
C2026 C 0.05668 0.34513 0.40576 0.0
C2027 C 0.06317 0.33704 0.40435 0.0
C2028 C 0.06011 0.32826 0.38992 0.0
H2029 H 0.12094 0.32624 0.46979 0.0
H2030 H 0.10359 0.3236 0.44851 0.0
C2031 C 0.05127 0.32809 0.37682 0.0
C2032 C 0.07259 0.33732 0.41838 0.0
H2033 H 0.10474 0.34178 0.42647 0.0
C2034 C 0.06787 0.3353 0.43556 0.0
C2035 C 0.08605 0.33954 0.4151 0.0
C2036 C 0.09201 0.34169 0.39715 0.0
C2037 C 0.07616 0.3354 0.44945 0.0
C2038 C 0.08971 0.33799 0.44617 0.0
C2039 C 0.09438 0.33987 0.42902 0.0
C2040 C 0.09932 0.3388 0.46019 0.0
C2041 C 0.07013 0.33233 0.46741 0.0
C2042 C 0.10269 0.34817 0.474 0.0
C2043 C 0.1124 0.34946 0.48655 0.0
C2044 C 0.11919 0.34162 0.48535 0.0
C2045 C 0.11576 0.33225 0.47146 0.0
C2046 C 0.10591 0.33081 0.45911 0.0
H2047 H 0.05867 0.32625 0.46697 0.0
H2048 H 0.07402 0.3265 0.47516 0.0
H2049 H 0.07307 0.34225 0.47415 0.0
H2050 H 0.09803 0.35472 0.47491 0.0
H2051 H 0.11463 0.35667 0.49712 0.0
H2052 H 0.06262 0.35993 0.30022 0.0
H2053 H 0.07368 0.35449 0.27677 0.0
H2054 H 0.04348 0.31114 0.28111 0.0
H2055 H 0.03211 0.31652 0.30448 0.0
H2056 H 0.08547 0.33815 0.27986 0.0
H2057 H 0.04459 0.3171 0.22894 0.0
H2058 H 0.04385 0.32668 0.24738 0.0
H2059 H 0.03943 0.30883 0.2497 0.0
C2060 C 0.05818 0.34924 0.29608 0.0
C2061 C 0.04646 0.33866 0.30429 0.0
C2062 C 0.06453 0.34615 0.28265 0.0
C2063 C 0.05936 0.33243 0.27708 0.0
C2064 C 0.04749 0.32184 0.28495 0.0
H2065 H 0.09911 0.29999 0.20834 0.0
H2066 H 0.08324 0.30171 0.22871 0.0
C2067 C 0.04104 0.32494 0.29836 0.0
C2068 C 0.0671 0.32928 0.26395 0.0
H2069 H 0.06501 0.3161 0.22334 0.0
C2070 C 0.08097 0.33332 0.26752 0.0
C2071 C 0.0612 0.32289 0.24787 0.0
C2072 C 0.04648 0.31871 0.24312 0.0
C2073 C 0.08915 0.33133 0.25541 0.0
C2074 C 0.08334 0.3252 0.23926 0.0
C2075 C 0.06939 0.32082 0.23577 0.0
C2076 C 0.09189 0.32384 0.22568 0.0
C2077 C 0.104 0.33588 0.25988 0.0
C2078 C 0.10176 0.33567 0.21699 0.0
C2079 C 0.11075 0.33473 0.20528 0.0
C2080 C 0.1101 0.32192 0.20208 0.0
C2081 C 0.09984 0.30999 0.21038 0.0
C2082 C 0.09079 0.31095 0.22207 0.0
H2083 H 0.10623 0.33819 0.27391 0.0
H2084 H 0.10658 0.32774 0.2562 0.0
H2085 H 0.11085 0.34539 0.25248 0.0
H2086 H 0.10267 0.3457 0.21954 0.0
H2087 H 0.11833 0.34408 0.19887 0.0
H2088 H 0.65586 0.71767 0.32131 0.0
H2089 H 0.65851 0.73307 0.2969 0.0
H2090 H 0.68389 0.71958 0.27062 0.0
H2091 H 0.68114 0.70413 0.29494 0.0
H2092 H 0.6837 0.75487 0.28388 0.0
H2093 H 0.65456 0.71473 0.23396 0.0
H2094 H 0.65302 0.71093 0.25686 0.0
H2095 H 0.66775 0.71285 0.24519 0.0
C2096 C 0.66199 0.71806 0.31029 0.0
C2097 C 0.66865 0.71012 0.31009 0.0
C2098 C 0.66349 0.72679 0.2964 0.0
C2099 C 0.67132 0.72738 0.28193 0.0
C2100 C 0.67768 0.71915 0.28157 0.0
H2101 H 0.70446 0.79102 0.20228 0.0
H2102 H 0.7013 0.77378 0.22433 0.0
C2103 C 0.67625 0.71049 0.29551 0.0
C2104 C 0.67321 0.73693 0.26748 0.0
H2105 H 0.66674 0.7381 0.22435 0.0
C2106 C 0.68006 0.75122 0.27087 0.0
C2107 C 0.66825 0.73209 0.25055 0.0
C2108 C 0.66038 0.71681 0.24637 0.0
C2109 C 0.6823 0.76083 0.25772 0.0
C2110 C 0.67752 0.756 0.24077 0.0
C2111 C 0.6705 0.74172 0.23737 0.0
C2112 C 0.67931 0.76571 0.22659 0.0
C2113 C 0.68959 0.77609 0.26206 0.0
C2114 C 0.66792 0.76664 0.2204 0.0
C2115 C 0.66969 0.77655 0.20797 0.0
C2116 C 0.68289 0.78566 0.20141 0.0
C2117 C 0.69421 0.78434 0.20726 0.0
C2118 C 0.69242 0.77447 0.21978 0.0
H2119 H 0.69079 0.77797 0.27626 0.0
H2120 H 0.70002 0.7812 0.25621 0.0
H2121 H 0.68383 0.78104 0.25657 0.0
H2122 H 0.65773 0.75997 0.22558 0.0
H2123 H 0.66078 0.77739 0.20396 0.0
H2124 H 0.28356 0.97001 0.30782 0.0
H2125 H 0.26652 0.9601 0.28429 0.0
H2126 H 0.27587 0.92692 0.27864 0.0
H2127 H 0.29265 0.9365 0.30225 0.0
H2128 H 0.26812 0.95389 0.24989 0.0
H2129 H 0.23448 0.90615 0.28674 0.0
H2130 H 0.24855 0.92125 0.29674 0.0
H2131 H 0.25181 0.90922 0.28488 0.0
C2132 C 0.28206 0.96065 0.3015 0.0
C2133 C 0.28937 0.95397 0.30709 0.0
C2134 C 0.27231 0.955 0.28806 0.0
C2135 C 0.26972 0.94261 0.27999 0.0
C2136 C 0.27745 0.93629 0.285 0.0
H2137 H 0.22713 0.90516 0.18408 0.0
H2138 H 0.24402 0.91898 0.20635 0.0
C2139 C 0.28709 0.94184 0.29847 0.0
C2140 C 0.25874 0.93604 0.26659 0.0
H2141 H 0.22961 0.90573 0.25656 0.0
C2142 C 0.25963 0.9434 0.25137 0.0
C2143 C 0.24751 0.92246 0.26869 0.0
C2144 C 0.24542 0.91436 0.28522 0.0
C2145 C 0.24982 0.93735 0.23795 0.0
C2146 C 0.23904 0.92348 0.23968 0.0
C2147 C 0.23794 0.91631 0.25513 0.0
C2148 C 0.22882 0.91603 0.22565 0.0
C2149 C 0.25105 0.94593 0.22217 0.0
C2150 C 0.21463 0.90957 0.22912 0.0
C2151 C 0.20495 0.90136 0.21656 0.0
C2152 C 0.20922 0.89946 0.20018 0.0
C2153 C 0.22345 0.90625 0.19659 0.0
C2154 C 0.23314 0.91436 0.20924 0.0
H2155 H 0.25685 0.9572 0.22515 0.0
H2156 H 0.25679 0.94386 0.21199 0.0
H2157 H 0.24074 0.94331 0.21689 0.0
H2158 H 0.21105 0.91062 0.24173 0.0
H2159 H 0.19413 0.89612 0.21996 0.0
H2160 H 0.68761 0.97887 0.28989 0.0
H2161 H 0.69031 0.96519 0.26682 0.0
H2162 H 0.66347 0.92756 0.29436 0.0
H2163 H 0.66074 0.94124 0.31734 0.0
H2164 H 0.70061 0.9469 0.26914 0.0
H2165 H 0.64638 0.91991 0.24579 0.0
H2166 H 0.6532 0.93493 0.25974 0.0
H2167 H 0.6481 0.91809 0.26866 0.0
C2168 C 0.68245 0.96768 0.29104 0.0
C2169 C 0.67433 0.96106 0.30554 0.0
C2170 C 0.68388 0.95989 0.27784 0.0
C2171 C 0.67697 0.94535 0.2788 0.0
C2172 C 0.66871 0.93874 0.29322 0.0
H2173 H 0.69399 0.88691 0.22646 0.0
H2174 H 0.69188 0.90261 0.24676 0.0
C2175 C 0.66725 0.94654 0.30638 0.0
C2176 C 0.67868 0.93709 0.26496 0.0
H2177 H 0.66084 0.91119 0.23563 0.0
C2178 C 0.69195 0.93917 0.26175 0.0
C2179 C 0.66736 0.92712 0.25513 0.0
C2180 C 0.65297 0.92495 0.25735 0.0
C2181 C 0.69418 0.93127 0.24935 0.0
C2182 C 0.68278 0.92088 0.24007 0.0
C2183 C 0.66955 0.91907 0.24289 0.0
C2184 C 0.68433 0.91161 0.22762 0.0
C2185 C 0.70873 0.93419 0.24624 0.0
C2186 C 0.68054 0.91127 0.21017 0.0
C2187 C 0.68174 0.90231 0.1985 0.0
C2188 C 0.68669 0.89345 0.20411 0.0
C2189 C 0.69042 0.89379 0.22163 0.0
C2190 C 0.68921 0.90275 0.23327 0.0
H2191 H 0.71648 0.94474 0.25072 0.0
H2192 H 0.71052 0.92658 0.25357 0.0
H2193 H 0.71044 0.93319 0.23229 0.0
H2194 H 0.6767 0.91801 0.20557 0.0
H2195 H 0.67889 0.90238 0.18507 0.0
H2196 H 0.03213 0.71701 0.30257 0.0
H2197 H 0.04179 0.73302 0.27813 0.0
H2198 H 0.07521 0.72398 0.27507 0.0
H2199 H 0.06564 0.70791 0.29922 0.0
H2200 H 0.06764 0.75659 0.27704 0.0
H2201 H 0.06255 0.72026 0.22477 0.0
H2202 H 0.05326 0.71448 0.24489 0.0
H2203 H 0.07099 0.71851 0.24374 0.0
C2204 C 0.04142 0.71826 0.29654 0.0
C2205 C 0.04806 0.7111 0.30289 0.0
C2206 C 0.04694 0.72744 0.2826 0.0
C2207 C 0.05911 0.72955 0.27462 0.0
C2208 C 0.06564 0.72229 0.28076 0.0
H2209 H 0.12101 0.78453 0.20491 0.0
H2210 H 0.10586 0.76657 0.22512 0.0
C2211 C 0.06017 0.71314 0.29468 0.0
C2212 C 0.06556 0.73998 0.26066 0.0
H2213 H 0.07842 0.74434 0.21971 0.0
C2214 C 0.06981 0.75391 0.2644 0.0
C2215 C 0.06837 0.73644 0.24418 0.0
C2216 C 0.06343 0.72159 0.23907 0.0
C2217 C 0.07739 0.76447 0.2524 0.0
C2218 C 0.08062 0.76097 0.23616 0.0
C2219 C 0.07598 0.747 0.23221 0.0
C2220 C 0.08948 0.7717 0.22348 0.0
C2221 C 0.0824 0.77935 0.25748 0.0
C2222 C 0.08522 0.78044 0.21568 0.0
C2223 C 0.09385 0.7907 0.204 0.0
C2224 C 0.10687 0.79235 0.19985 0.0
C2225 C 0.11099 0.78343 0.20758 0.0
C2226 C 0.10237 0.7732 0.21922 0.0
H2227 H 0.08134 0.78048 0.27159 0.0
H2228 H 0.0934 0.78601 0.25389 0.0
H2229 H 0.07624 0.78321 0.25043 0.0
H2230 H 0.07521 0.7793 0.21858 0.0
H2231 H 0.09027 0.79725 0.1981 0.0
H2232 H 0.28488 0.34544 0.32345 0.0
H2233 H 0.26943 0.34365 0.2996 0.0
H2234 H 0.27677 0.31298 0.27495 0.0
H2235 H 0.29317 0.31579 0.29805 0.0
H2236 H 0.27772 0.33013 0.25208 0.0
H2237 H 0.23094 0.3152 0.29071 0.0
H2238 H 0.24393 0.33256 0.29591 0.0
H2239 H 0.24685 0.31836 0.30078 0.0
C2240 C 0.28301 0.3382 0.31301 0.0
C2241 C 0.2896 0.33019 0.31296 0.0
C2242 C 0.27412 0.3371 0.29945 0.0
C2243 C 0.27151 0.32781 0.28571 0.0
C2244 C 0.27839 0.32004 0.28552 0.0
H2245 H 0.20545 0.3014 0.20972 0.0
H2246 H 0.22174 0.30241 0.23194 0.0
C2247 C 0.28755 0.32143 0.29886 0.0
C2248 C 0.26225 0.32672 0.27106 0.0
H2249 H 0.23012 0.32166 0.26102 0.0
C2250 C 0.26727 0.32816 0.25408 0.0
C2251 C 0.2486 0.32424 0.27357 0.0
C2252 C 0.24226 0.32238 0.29124 0.0
C2253 C 0.2591 0.32722 0.23965 0.0
C2254 C 0.24559 0.3249 0.24225 0.0
C2255 C 0.24051 0.32341 0.25912 0.0
C2256 C 0.2365 0.32404 0.22769 0.0
C2257 C 0.26489 0.32859 0.22171 0.0
C2258 C 0.2395 0.33585 0.21788 0.0
C2259 C 0.23021 0.33531 0.20519 0.0
C2260 C 0.21779 0.32294 0.2021 0.0
C2261 C 0.21501 0.31103 0.21164 0.0
C2262 C 0.22426 0.3116 0.2244 0.0
H2263 H 0.27434 0.3276 0.22174 0.0
H2264 H 0.2571 0.3206 0.21292 0.0
H2265 H 0.26757 0.33893 0.21638 0.0
H2266 H 0.24882 0.34558 0.22039 0.0
H2267 H 0.23265 0.34463 0.19797 0.0
H2268 H 0.27521 0.31045 0.39306 0.0
H2269 H 0.26551 0.31672 0.41737 0.0
H2270 H 0.2962 0.3597 0.41113 0.0
H2271 H 0.30609 0.35357 0.3867 0.0
H2272 H 0.27999 0.33317 0.44963 0.0
H2273 H 0.2567 0.35682 0.40665 0.0
H2274 H 0.2617 0.34466 0.39858 0.0
H2275 H 0.27466 0.36203 0.40388 0.0
C2276 C 0.28001 0.32124 0.39688 0.0
C2277 C 0.2914 0.33152 0.38783 0.0
C2278 C 0.27445 0.32478 0.41083 0.0
C2279 C 0.28009 0.33866 0.41591 0.0
C2280 C 0.29167 0.34893 0.40728 0.0
H2281 H 0.2402 0.37018 0.4855 0.0
H2282 H 0.25713 0.36921 0.46641 0.0
C2283 C 0.29732 0.34539 0.39337 0.0
C2284 C 0.27335 0.3423 0.42977 0.0
H2285 H 0.25175 0.35545 0.43628 0.0
C2286 C 0.27393 0.33817 0.4468 0.0
C2287 C 0.26554 0.34889 0.42598 0.0
C2288 C 0.26448 0.35334 0.40779 0.0
C2289 C 0.26665 0.34025 0.46016 0.0
C2290 C 0.25829 0.34626 0.45623 0.0
C2291 C 0.25813 0.35082 0.43928 0.0
C2292 C 0.24892 0.34709 0.46914 0.0
C2293 C 0.26798 0.33597 0.47832 0.0
C2294 C 0.23871 0.33499 0.47706 0.0
C2295 C 0.22912 0.33553 0.48812 0.0
C2296 C 0.22942 0.34816 0.49131 0.0
C2297 C 0.23979 0.36031 0.48353 0.0
C2298 C 0.24942 0.35976 0.47253 0.0
H2299 H 0.27798 0.33614 0.48024 0.0
H2300 H 0.26718 0.34285 0.48812 0.0
H2301 H 0.25959 0.3252 0.48061 0.0
H2302 H 0.2379 0.32504 0.47434 0.0
H2303 H 0.22138 0.32601 0.49403 0.0
H2304 H 0.69319 0.96219 0.38506 0.0
H2305 H 0.6863 0.94527 0.40845 0.0
H2306 H 0.64388 0.93523 0.40158 0.0
H2307 H 0.65071 0.9524 0.37838 0.0
H2308 H 0.65112 0.93684 0.43588 0.0
H2309 H 0.6671 0.90383 0.40017 0.0
H2310 H 0.68084 0.92132 0.40287 0.0
H2311 H 0.66593 0.91788 0.38999 0.0
C2312 C 0.68239 0.95645 0.38854 0.0
C2313 C 0.67249 0.95859 0.3797 0.0
C2314 C 0.67846 0.94672 0.40187 0.0
C2315 C 0.66454 0.93876 0.40649 0.0
C2316 C 0.65468 0.94119 0.39814 0.0
H2317 H 0.6326 0.86152 0.46326 0.0
H2318 H 0.637 0.87948 0.44196 0.0
C2319 C 0.65861 0.95102 0.38487 0.0
C2320 C 0.66025 0.92773 0.41978 0.0
H2321 H 0.66134 0.89827 0.42979 0.0
C2322 C 0.65329 0.92837 0.43454 0.0
C2323 C 0.66287 0.91654 0.41786 0.0
C2324 C 0.66946 0.91474 0.40179 0.0
C2325 C 0.64913 0.91826 0.44759 0.0
C2326 C 0.65229 0.9074 0.446 0.0
C2327 C 0.65903 0.90666 0.43109 0.0
C2328 C 0.64867 0.89661 0.45951 0.0
C2329 C 0.64118 0.91918 0.46279 0.0
C2330 C 0.65368 0.90023 0.47654 0.0
C2331 C 0.65097 0.88995 0.48888 0.0
C2332 C 0.64335 0.87582 0.48439 0.0
C2333 C 0.63827 0.87226 0.46733 0.0
C2334 C 0.64088 0.88253 0.45505 0.0
H2335 H 0.63607 0.92536 0.45957 0.0
H2336 H 0.63319 0.90872 0.46711 0.0
H2337 H 0.64842 0.92437 0.47375 0.0
H2338 H 0.65996 0.91101 0.4802 0.0
H2339 H 0.65494 0.89309 0.50192 0.0
H2340 H 0.05636 0.73136 0.36687 0.0
H2341 H 0.07193 0.74482 0.39071 0.0
H2342 H 0.06218 0.70689 0.41743 0.0
H2343 H 0.04629 0.69345 0.39381 0.0
H2344 H 0.05942 0.72832 0.43713 0.0
H2345 H 0.11036 0.75118 0.40412 0.0
H2346 H 0.09469 0.74543 0.39175 0.0
H2347 H 0.09833 0.73298 0.40196 0.0
C2348 C 0.05777 0.72593 0.37771 0.0
C2349 C 0.05056 0.71139 0.37828 0.0
C2350 C 0.06666 0.7336 0.39127 0.0
C2351 C 0.06842 0.72684 0.40567 0.0
C2352 C 0.06113 0.7123 0.40631 0.0
H2353 H 0.12759 0.76075 0.48996 0.0
H2354 H 0.11133 0.74591 0.46764 0.0
C2355 C 0.0522 0.70464 0.39276 0.0
C2356 C 0.07707 0.73498 0.42061 0.0
H2357 H 0.11039 0.75669 0.4333 0.0
C2358 C 0.07057 0.73455 0.4363 0.0
C2359 C 0.0916 0.7431 0.4195 0.0
C2360 C 0.09922 0.74332 0.40342 0.0
C2361 C 0.07823 0.74208 0.45087 0.0
C2362 C 0.09274 0.7502 0.44966 0.0
C2363 C 0.09923 0.75054 0.43407 0.0
C2364 C 0.1015 0.75843 0.46441 0.0
C2365 C 0.07085 0.7412 0.46751 0.0
C2366 C 0.10127 0.77033 0.47001 0.0
C2367 C 0.11068 0.77896 0.4826 0.0
C2368 C 0.12049 0.77582 0.4898 0.0
C2369 C 0.12034 0.76361 0.48451 0.0
C2370 C 0.111 0.75505 0.47186 0.0
H2371 H 0.05996 0.73267 0.46722 0.0
H2372 H 0.07626 0.73958 0.47866 0.0
H2373 H 0.0709 0.75112 0.46965 0.0
H2374 H 0.09416 0.77322 0.46419 0.0
H2375 H 0.11061 0.78837 0.48616 0.0
H2376 H 0.35771 0.06756 0.71684 0.0
H2377 H 0.35147 0.07794 0.74039 0.0
H2378 H 0.31063 0.04231 0.74152 0.0
H2379 H 0.31682 0.03165 0.71804 0.0
H2380 H 0.33057 0.08466 0.73902 0.0
H2381 H 0.32198 0.04784 0.79279 0.0
H2382 H 0.33103 0.04828 0.77328 0.0
H2383 H 0.31252 0.04014 0.77316 0.0
C2384 C 0.34744 0.0618 0.72218 0.0
C2385 C 0.33777 0.04874 0.71549 0.0
C2386 C 0.34389 0.06778 0.73566 0.0
C2387 C 0.33064 0.06085 0.74281 0.0
C2388 C 0.32101 0.04772 0.73641 0.0
H2389 H 0.29319 0.08985 0.81976 0.0
H2390 H 0.29701 0.07596 0.79809 0.0
C2391 C 0.32455 0.04168 0.72291 0.0
C2392 C 0.32678 0.06784 0.75623 0.0
H2393 H 0.3169 0.06584 0.7984 0.0
C2394 C 0.32758 0.08054 0.752 0.0
C2395 C 0.32278 0.06238 0.77311 0.0
C2396 C 0.32211 0.04897 0.77848 0.0
C2397 C 0.3246 0.088 0.76422 0.0
C2398 C 0.32091 0.08271 0.7812 0.0
C2399 C 0.31978 0.06986 0.78536 0.0
C2400 C 0.31869 0.0907 0.79491 0.0
C2401 C 0.32539 0.10148 0.75886 0.0
C2402 C 0.32968 0.10343 0.80049 0.0
C2403 C 0.32754 0.11137 0.81278 0.0
C2404 C 0.31435 0.10672 0.81978 0.0
C2405 C 0.30342 0.09379 0.81446 0.0
C2406 C 0.3056 0.08581 0.80218 0.0
H2407 H 0.32495 0.10234 0.74455 0.0
H2408 H 0.31684 0.10252 0.76463 0.0
H2409 H 0.33529 0.11025 0.76354 0.0
H2410 H 0.3399 0.1073 0.79516 0.0
H2411 H 0.33614 0.12134 0.81644 0.0
H2412 H 0.97785 0.28748 0.72652 0.0
H2413 H 0.9644 0.2724 0.75045 0.0
H2414 H 0.92672 0.26155 0.72239 0.0
H2415 H 0.9402 0.27694 0.69871 0.0
H2416 H 0.92557 0.26895 0.75527 0.0
H2417 H 0.94453 0.23095 0.75602 0.0
H2418 H 0.9577 0.24888 0.75603 0.0
H2419 H 0.94632 0.24172 0.73765 0.0
C2420 C 0.96671 0.28155 0.72531 0.0
C2421 C 0.96003 0.28303 0.71062 0.0
C2422 C 0.95902 0.27294 0.73898 0.0
C2423 C 0.94452 0.26563 0.73815 0.0
C2424 C 0.93788 0.26702 0.72333 0.0
H2425 H 0.88467 0.19728 0.79709 0.0
H2426 H 0.90034 0.21362 0.77576 0.0
C2427 C 0.94556 0.27574 0.70977 0.0
C2428 C 0.93616 0.25717 0.75302 0.0
H2429 H 0.92939 0.22907 0.77806 0.0
C2430 C 0.92643 0.26025 0.76028 0.0
C2431 C 0.93727 0.24583 0.75963 0.0
C2432 C 0.94696 0.24153 0.75193 0.0
C2433 C 0.91765 0.25214 0.77366 0.0
C2434 C 0.91877 0.24078 0.78011 0.0
C2435 C 0.92864 0.23786 0.77313 0.0
C2436 C 0.90919 0.23116 0.79324 0.0
C2437 C 0.90695 0.2555 0.78041 0.0
C2438 C 0.90904 0.2356 0.8102 0.0
C2439 C 0.90013 0.22624 0.82251 0.0
C2440 C 0.89129 0.21226 0.81807 0.0
C2441 C 0.8915 0.2079 0.80104 0.0
C2442 C 0.90038 0.21724 0.78879 0.0
H2443 H 0.90573 0.26293 0.7719 0.0
H2444 H 0.89679 0.24592 0.7816 0.0
H2445 H 0.91012 0.2602 0.79349 0.0
H2446 H 0.91593 0.24626 0.81396 0.0
H2447 H 0.90032 0.22988 0.83556 0.0
H2448 H 0.70859 0.68585 0.72308 0.0
H2449 H 0.7255 0.68887 0.74557 0.0
H2450 H 0.7322 0.65791 0.72056 0.0
H2451 H 0.71633 0.656 0.69723 0.0
H2452 H 0.72569 0.67265 0.76854 0.0
H2453 H 0.77086 0.6861 0.72727 0.0
H2454 H 0.75458 0.68251 0.71796 0.0
H2455 H 0.75773 0.66854 0.72334 0.0
C2456 C 0.71417 0.68019 0.72205 0.0
C2457 C 0.71188 0.67138 0.70793 0.0
C2458 C 0.72363 0.68168 0.73506 0.0
C2459 C 0.73055 0.67395 0.73454 0.0
C2460 C 0.72755 0.66448 0.72092 0.0
H2461 H 0.77303 0.65993 0.82064 0.0
H2462 H 0.75606 0.65815 0.79889 0.0
C2463 C 0.7184 0.6633 0.70765 0.0
C2464 C 0.74036 0.67538 0.7487 0.0
H2465 H 0.77284 0.6807 0.75707 0.0
C2466 C 0.73604 0.67453 0.76596 0.0
C2467 C 0.75388 0.67771 0.74548 0.0
C2468 C 0.75954 0.67888 0.72749 0.0
C2469 C 0.74478 0.67595 0.77996 0.0
C2470 C 0.75817 0.67817 0.77664 0.0
C2471 C 0.76255 0.67904 0.75951 0.0
C2472 C 0.76784 0.67954 0.79075 0.0
C2473 C 0.73972 0.67518 0.79821 0.0
C2474 C 0.78004 0.69216 0.79333 0.0
C2475 C 0.78974 0.69322 0.80573 0.0
C2476 C 0.78747 0.6816 0.81558 0.0
C2477 C 0.7751 0.66903 0.81315 0.0
C2478 C 0.76536 0.66802 0.80085 0.0
H2479 H 0.73017 0.67599 0.79861 0.0
H2480 H 0.73746 0.66511 0.80403 0.0
H2481 H 0.74779 0.68357 0.8063 0.0
H2482 H 0.78216 0.70114 0.78555 0.0
H2483 H 0.79924 0.70298 0.80717 0.0
H2484 H 0.72752 0.69208 0.62875 0.0
H2485 H 0.73858 0.68636 0.6056 0.0
H2486 H 0.70915 0.64294 0.61168 0.0
H2487 H 0.69778 0.64859 0.63481 0.0
H2488 H 0.75086 0.67035 0.60965 0.0
H2489 H 0.70971 0.64775 0.55913 0.0
H2490 H 0.70898 0.65776 0.5771 0.0
H2491 H 0.70484 0.64007 0.58025 0.0
C2492 C 0.72324 0.6813 0.62507 0.0
C2493 C 0.71175 0.67079 0.63371 0.0
C2494 C 0.7296 0.67806 0.61179 0.0
C2495 C 0.72466 0.66424 0.60681 0.0
C2496 C 0.71299 0.6537 0.61508 0.0
H2497 H 0.76469 0.63216 0.53766 0.0
H2498 H 0.74866 0.63361 0.55806 0.0
C2499 C 0.70654 0.65695 0.62836 0.0
C2500 C 0.73244 0.66099 0.59385 0.0
H2501 H 0.73044 0.6474 0.55353 0.0
C2502 C 0.74637 0.66531 0.5974 0.0
C2503 C 0.72654 0.65432 0.57792 0.0
C2504 C 0.71173 0.64978 0.57324 0.0
C2505 C 0.75462 0.66335 0.58538 0.0
C2506 C 0.74883 0.657 0.56931 0.0
C2507 C 0.73481 0.6523 0.56588 0.0
C2508 C 0.75749 0.65582 0.55571 0.0
C2509 C 0.76953 0.66817 0.58988 0.0
C2510 C 0.76749 0.66777 0.54736 0.0
C2511 C 0.77657 0.66699 0.53566 0.0
C2512 C 0.77587 0.65421 0.5321 0.0
C2513 C 0.76546 0.64214 0.54001 0.0
C2514 C 0.75633 0.64295 0.5517 0.0
H2515 H 0.77165 0.67025 0.60396 0.0
H2516 H 0.77241 0.66031 0.58593 0.0
H2517 H 0.77623 0.67789 0.58276 0.0
H2518 H 0.76843 0.67778 0.55017 0.0
H2519 H 0.78425 0.67643 0.52953 0.0
H2520 H 0.32173 0.05072 0.65172 0.0
H2521 H 0.32294 0.06545 0.62725 0.0
H2522 H 0.35035 0.05464 0.6008 0.0
H2523 H 0.34869 0.03953 0.62499 0.0
H2524 H 0.34482 0.08792 0.61536 0.0
H2525 H 0.32323 0.04893 0.5628 0.0
H2526 H 0.322 0.04417 0.58536 0.0
H2527 H 0.33761 0.049 0.57357 0.0
C2528 C 0.32795 0.05149 0.64061 0.0
C2529 C 0.33552 0.04446 0.64036 0.0
C2530 C 0.32863 0.05986 0.62666 0.0
C2531 C 0.33666 0.06108 0.61212 0.0
C2532 C 0.34389 0.05368 0.6117 0.0
H2533 H 0.36818 0.12982 0.53965 0.0
H2534 H 0.36565 0.11234 0.56095 0.0
C2535 C 0.34316 0.04527 0.62563 0.0
C2536 C 0.33803 0.07065 0.59786 0.0
H2537 H 0.33458 0.0727 0.55409 0.0
C2538 C 0.34265 0.08459 0.60198 0.0
C2539 C 0.33484 0.06623 0.58041 0.0
C2540 C 0.32901 0.05124 0.57527 0.0
C2541 C 0.3445 0.0943 0.58913 0.0
C2542 C 0.34178 0.08998 0.57164 0.0
C2543 C 0.33687 0.076 0.5675 0.0
C2544 C 0.34353 0.0998 0.55759 0.0
C2545 C 0.34915 0.10906 0.59441 0.0
C2546 C 0.33201 0.09822 0.54821 0.0
C2547 C 0.33343 0.10812 0.53592 0.0
C2548 C 0.34643 0.11973 0.53277 0.0
C2549 C 0.35804 0.12096 0.5417 0.0
C2550 C 0.35661 0.11106 0.55399 0.0
H2551 H 0.34774 0.10995 0.60849 0.0
H2552 H 0.36028 0.11562 0.5915 0.0
H2553 H 0.34337 0.11324 0.58709 0.0
H2554 H 0.32184 0.08954 0.55074 0.0
H2555 H 0.32432 0.10677 0.52906 0.0
H2556 H 0.96094 0.30543 0.6301 0.0
H2557 H 0.94523 0.29658 0.60514 0.0
H2558 H 0.94038 0.25591 0.61348 0.0
H2559 H 0.9564 0.26473 0.63786 0.0
H2560 H 0.94305 0.26196 0.58011 0.0
H2561 H 0.90398 0.27365 0.60766 0.0
H2562 H 0.92077 0.28855 0.60524 0.0
H2563 H 0.91836 0.27509 0.62022 0.0
C2564 C 0.95656 0.29461 0.62657 0.0
C2565 C 0.95988 0.28578 0.6361 0.0
C2566 C 0.9475 0.28954 0.61237 0.0
C2567 C 0.94138 0.2755 0.60764 0.0
C2568 C 0.94492 0.26677 0.61689 0.0
H2569 H 0.86623 0.22283 0.55335 0.0
H2570 H 0.88475 0.23697 0.57378 0.0
C2571 C 0.9541 0.27185 0.63089 0.0
C2572 C 0.9312 0.2697 0.59317 0.0
H2573 H 0.89953 0.26399 0.5796 0.0
C2574 C 0.93355 0.26245 0.57994 0.0
C2575 C 0.91875 0.27024 0.59307 0.0
C2576 C 0.91521 0.27718 0.60737 0.0
C2577 C 0.92368 0.25543 0.5669 0.0
C2578 C 0.91128 0.25605 0.56671 0.0
C2579 C 0.90908 0.2636 0.57968 0.0
C2580 C 0.89998 0.24807 0.55403 0.0
C2581 C 0.92639 0.24686 0.55398 0.0
C2582 C 0.90228 0.24977 0.5361 0.0
C2583 C 0.89173 0.24153 0.52439 0.0
C2584 C 0.87862 0.23171 0.53042 0.0
C2585 C 0.8762 0.2304 0.54834 0.0
C2586 C 0.88679 0.23847 0.56002 0.0
H2587 H 0.93453 0.24457 0.55863 0.0
H2588 H 0.91687 0.23689 0.55125 0.0
H2589 H 0.92997 0.2527 0.54166 0.0
H2590 H 0.91225 0.25737 0.53114 0.0
H2591 H 0.8938 0.24286 0.51063 0.0
H2592 H 0.35149 0.31216 0.62236 0.0
H2593 H 0.35384 0.29857 0.59893 0.0
H2594 H 0.32768 0.26086 0.62675 0.0
H2595 H 0.32563 0.27451 0.65036 0.0
H2596 H 0.35088 0.26143 0.61479 0.0
H2597 H 0.3258 0.27529 0.56205 0.0
H2598 H 0.33976 0.29006 0.57247 0.0
H2599 H 0.32453 0.27885 0.58456 0.0
C2600 C 0.34638 0.30097 0.62347 0.0
C2601 C 0.33878 0.29433 0.63831 0.0
C2602 C 0.34753 0.29321 0.61 0.0
C2603 C 0.34083 0.27868 0.61101 0.0
C2604 C 0.33295 0.27205 0.62571 0.0
H2605 H 0.32865 0.21783 0.53266 0.0
H2606 H 0.32604 0.23282 0.55368 0.0
C2607 C 0.33179 0.27982 0.63916 0.0
C2608 C 0.34244 0.2704 0.59709 0.0
H2609 H 0.33743 0.26304 0.5538 0.0
C2610 C 0.34803 0.26187 0.60146 0.0
C2611 C 0.3384 0.27072 0.57973 0.0
C2612 C 0.33166 0.27911 0.57441 0.0
C2613 C 0.34998 0.25388 0.58891 0.0
C2614 C 0.34626 0.25446 0.57151 0.0
C2615 C 0.34043 0.26278 0.56714 0.0
C2616 C 0.34796 0.24612 0.55781 0.0
C2617 C 0.35581 0.2447 0.59441 0.0
C2618 C 0.36117 0.24885 0.5529 0.0
C2619 C 0.36271 0.24038 0.54077 0.0
C2620 C 0.35107 0.229 0.53333 0.0
C2621 C 0.33785 0.22658 0.53795 0.0
C2622 C 0.33632 0.23509 0.55003 0.0
H2623 H 0.35562 0.24339 0.60869 0.0
H2624 H 0.34994 0.23432 0.58827 0.0
H2625 H 0.36669 0.24943 0.59013 0.0
H2626 H 0.37028 0.25745 0.5586 0.0
H2627 H 0.37304 0.24271 0.53729 0.0
H2628 H 0.70088 0.05296 0.6373 0.0
H2629 H 0.71154 0.06981 0.6139 0.0
H2630 H 0.73884 0.05352 0.60342 0.0
H2631 H 0.72851 0.03691 0.62695 0.0
H2632 H 0.75275 0.08118 0.60719 0.0
H2633 H 0.70895 0.06651 0.56155 0.0
H2634 H 0.70547 0.06959 0.58326 0.0
H2635 H 0.7084 0.05532 0.57894 0.0
C2636 C 0.70899 0.05279 0.62981 0.0
C2637 C 0.71385 0.04359 0.63406 0.0
C2638 C 0.71503 0.06241 0.61637 0.0
C2639 C 0.72592 0.06286 0.60678 0.0
C2640 C 0.73046 0.05337 0.61063 0.0
H2641 H 0.76544 0.11008 0.51421 0.0
H2642 H 0.75139 0.09208 0.53516 0.0
C2643 C 0.72452 0.04386 0.62411 0.0
C2644 C 0.73338 0.07387 0.5937 0.0
H2645 H 0.72941 0.08789 0.55606 0.0
C2646 C 0.74764 0.08261 0.59599 0.0
C2647 C 0.72673 0.07567 0.57901 0.0
C2648 C 0.71157 0.0662 0.5754 0.0
C2649 C 0.75544 0.09311 0.58406 0.0
C2650 C 0.74874 0.09519 0.56964 0.0
C2651 C 0.73449 0.08639 0.56723 0.0
C2652 C 0.75649 0.10624 0.55673 0.0
C2653 C 0.77085 0.10167 0.58685 0.0
C2654 C 0.76376 0.12021 0.5618 0.0
C2655 C 0.77195 0.13049 0.54993 0.0
C2656 C 0.77292 0.12704 0.53267 0.0
C2657 C 0.76515 0.11308 0.52747 0.0
C2658 C 0.75701 0.10279 0.53938 0.0
H2659 H 0.77477 0.09644 0.59568 0.0
H2660 H 0.77643 0.10381 0.57438 0.0
H2661 H 0.7733 0.11174 0.59281 0.0
H2662 H 0.7633 0.12313 0.57505 0.0
H2663 H 0.77784 0.14109 0.55446 0.0
H2664 H 0.95303 0.68123 0.65303 0.0
H2665 H 0.93813 0.68021 0.6289 0.0
H2666 H 0.94325 0.64783 0.60514 0.0
H2667 H 0.95923 0.6499 0.62843 0.0
H2668 H 0.94488 0.66477 0.58177 0.0
H2669 H 0.89911 0.65334 0.62086 0.0
H2670 H 0.91277 0.67061 0.62508 0.0
H2671 H 0.91488 0.65608 0.63092 0.0
C2672 C 0.95081 0.6738 0.6427 0.0
C2673 C 0.9566 0.66507 0.64298 0.0
C2674 C 0.94223 0.67315 0.62899 0.0
C2675 C 0.93909 0.66356 0.61546 0.0
C2676 C 0.94526 0.65513 0.61554 0.0
H2677 H 0.87277 0.63605 0.54023 0.0
H2678 H 0.8894 0.6377 0.56239 0.0
C2679 C 0.95416 0.65609 0.62901 0.0
C2680 C 0.9299 0.66269 0.60082 0.0
H2681 H 0.89818 0.65872 0.5908 0.0
C2682 C 0.93463 0.66335 0.58381 0.0
C2683 C 0.91653 0.66097 0.60336 0.0
C2684 C 0.91052 0.66009 0.62106 0.0
C2685 C 0.9264 0.66227 0.56938 0.0
C2686 C 0.91313 0.66056 0.57202 0.0
C2687 C 0.90838 0.65997 0.58891 0.0
C2688 C 0.90389 0.6593 0.55746 0.0
C2689 C 0.93182 0.66278 0.5514 0.0
C2690 C 0.90666 0.67088 0.5473 0.0
C2691 C 0.89718 0.66998 0.53467 0.0
C2692 C 0.88481 0.65746 0.532 0.0
C2693 C 0.88229 0.64577 0.54185 0.0
C2694 C 0.89172 0.64671 0.55456 0.0
H2695 H 0.94138 0.66198 0.55156 0.0
H2696 H 0.92389 0.65426 0.54332 0.0
H2697 H 0.93416 0.67274 0.54518 0.0
H2698 H 0.91595 0.68071 0.5495 0.0
H2699 H 0.89941 0.67912 0.52719 0.0
H2700 H 0.97177 0.68783 0.71638 0.0
H2701 H 0.96248 0.69432 0.74114 0.0
H2702 H 0.93184 0.65146 0.7485 0.0
H2703 H 0.94091 0.64485 0.72384 0.0
H2704 H 0.93338 0.68769 0.74322 0.0
H2705 H 0.94952 0.66591 0.79766 0.0
H2706 H 0.95803 0.67009 0.77691 0.0
H2707 H 0.94181 0.65444 0.7795 0.0
C2708 C 0.96316 0.67976 0.7234 0.0
C2709 C 0.95708 0.66582 0.71811 0.0
C2710 C 0.95788 0.6835 0.73751 0.0
C2711 C 0.9466 0.67334 0.74672 0.0
C2712 C 0.94069 0.65942 0.7417 0.0
H2713 H 0.88744 0.66127 0.82288 0.0
H2714 H 0.90387 0.66051 0.80284 0.0
C2715 C 0.94585 0.65569 0.72752 0.0
C2716 C 0.94027 0.67724 0.76082 0.0
H2717 H 0.93189 0.6716 0.8036 0.0
C2718 C 0.93322 0.68441 0.75651 0.0
C2719 C 0.94008 0.67286 0.77807 0.0
C2720 C 0.94786 0.6655 0.78342 0.0
C2721 C 0.92532 0.68666 0.76881 0.0
C2722 C 0.92478 0.68191 0.786 0.0
C2723 C 0.93231 0.67523 0.79044 0.0
C2724 C 0.91556 0.68272 0.79913 0.0
C2725 C 0.91702 0.69339 0.76304 0.0
C2726 C 0.91688 0.6955 0.80406 0.0
C2727 C 0.90733 0.69596 0.81532 0.0
C2728 C 0.89638 0.68365 0.822 0.0
C2729 C 0.89554 0.67093 0.81768 0.0
C2730 C 0.90501 0.67048 0.80635 0.0
H2731 H 0.91611 0.69352 0.74871 0.0
H2732 H 0.90647 0.68791 0.76855 0.0
H2733 H 0.92218 0.70428 0.76766 0.0
H2734 H 0.92513 0.7051 0.79895 0.0
H2735 H 0.90827 0.70593 0.81832 0.0
H2736 H 0.31843 0.28911 0.7152 0.0
H2737 H 0.31232 0.27322 0.73979 0.0
H2738 H 0.35357 0.27905 0.74086 0.0
H2739 H 0.35984 0.29497 0.71642 0.0
H2740 H 0.31357 0.24836 0.7405 0.0
H2741 H 0.3468 0.2848 0.7917 0.0
H2742 H 0.34271 0.29058 0.77173 0.0
H2743 H 0.35585 0.28563 0.7722 0.0
C2744 C 0.32627 0.28715 0.72077 0.0
C2745 C 0.33966 0.29338 0.71381 0.0
C2746 C 0.32274 0.27805 0.73481 0.0
C2747 C 0.33254 0.27511 0.74228 0.0
C2748 C 0.34593 0.28139 0.73551 0.0
H2749 H 0.33696 0.21951 0.81599 0.0
H2750 H 0.34083 0.23763 0.79506 0.0
C2751 C 0.34946 0.29045 0.72145 0.0
C2752 C 0.32862 0.26485 0.75648 0.0
H2753 H 0.33711 0.26066 0.7978 0.0
C2754 C 0.31857 0.25106 0.75311 0.0
C2755 C 0.3352 0.26842 0.77289 0.0
C2756 C 0.34565 0.28319 0.77745 0.0
C2757 C 0.31532 0.24061 0.7655 0.0
C2758 C 0.32211 0.24413 0.78179 0.0
C2759 C 0.33193 0.25799 0.78529 0.0
C2760 C 0.31969 0.23347 0.79506 0.0
C2761 C 0.30505 0.22581 0.76076 0.0
C2762 C 0.30657 0.22528 0.80225 0.0
C2763 C 0.30432 0.21491 0.81426 0.0
C2764 C 0.3152 0.21263 0.81941 0.0
C2765 C 0.3284 0.22109 0.81247 0.0
C2766 C 0.33062 0.23142 0.80045 0.0
H2767 H 0.3032 0.22446 0.74655 0.0
H2768 H 0.30868 0.21863 0.76533 0.0
H2769 H 0.29505 0.22281 0.76708 0.0
H2770 H 0.29805 0.2269 0.79855 0.0
H2771 H 0.29408 0.2087 0.81956 0.0
H2772 H 0.72327 0.06356 0.69794 0.0
H2773 H 0.73888 0.07671 0.72191 0.0
H2774 H 0.72824 0.03848 0.74842 0.0
H2775 H 0.7124 0.02534 0.72461 0.0
H2776 H 0.72561 0.0604 0.76791 0.0
H2777 H 0.77696 0.08142 0.73635 0.0
H2778 H 0.76174 0.07703 0.72353 0.0
H2779 H 0.76396 0.06357 0.73345 0.0
C2780 C 0.7245 0.058 0.70875 0.0
C2781 C 0.71704 0.04346 0.70923 0.0
C2782 C 0.73341 0.06549 0.72239 0.0
C2783 C 0.73488 0.05855 0.7368 0.0
C2784 C 0.72739 0.04401 0.73731 0.0
H2785 H 0.79334 0.09286 0.8221 0.0
H2786 H 0.77736 0.07777 0.79971 0.0
C2787 C 0.71848 0.03653 0.72366 0.0
C2788 C 0.74343 0.06653 0.75188 0.0
H2789 H 0.7767 0.08775 0.7651 0.0
C2790 C 0.73678 0.06639 0.76732 0.0
C2791 C 0.75798 0.07432 0.75107 0.0
C2792 C 0.76567 0.07421 0.73521 0.0
C2793 C 0.74434 0.07394 0.78193 0.0
C2794 C 0.75888 0.08181 0.78101 0.0
C2795 C 0.76552 0.0818 0.76567 0.0
C2796 C 0.76752 0.09022 0.79574 0.0
C2797 C 0.73679 0.07338 0.7983 0.0
C2798 C 0.76721 0.10216 0.80097 0.0
C2799 C 0.77645 0.11092 0.8136 0.0
C2800 C 0.78619 0.10788 0.82123 0.0
C2801 C 0.78614 0.09564 0.81631 0.0
C2802 C 0.77695 0.08695 0.80362 0.0
H2803 H 0.72591 0.06482 0.79799 0.0
H2804 H 0.74209 0.07203 0.80977 0.0
H2805 H 0.73675 0.08331 0.79989 0.0
H2806 H 0.76015 0.10498 0.79482 0.0
H2807 H 0.77632 0.12035 0.81685 0.0
H2808 H 0.0529 0.36676 0.03531 0.0
H2809 H 0.06597 0.35705 0.04912 0.0
H2810 H 0.03116 0.31587 0.04349 0.0
H2811 H 0.01777 0.32554 0.02991 0.0
H2812 H 0.04293 0.31998 0.07547 0.0
H2813 H 0.08347 0.33709 0.02577 0.0
H2814 H 0.08177 0.35136 0.03368 0.0
H2815 H 0.06758 0.33741 0.02221 0.0
C2816 C 0.04798 0.35562 0.03691 0.0
C2817 C 0.03428 0.34693 0.03137 0.0
C2818 C 0.05553 0.35008 0.04472 0.0
C2819 C 0.04966 0.33572 0.04696 0.0
C2820 C 0.03592 0.32698 0.04173 0.0
H2821 H 0.10691 0.30735 0.0808 0.0
H2822 H 0.08878 0.30889 0.06452 0.0
C2823 C 0.02829 0.33253 0.03398 0.0
C2824 C 0.05785 0.33001 0.05527 0.0
H2825 H 0.08921 0.33159 0.05377 0.0
C2826 C 0.05296 0.32233 0.0706 0.0
C2827 C 0.07079 0.33277 0.0487 0.0
C2828 C 0.07614 0.33998 0.03158 0.0
C2829 C 0.06103 0.31805 0.08006 0.0
C2830 C 0.07446 0.32186 0.07425 0.0
C2831 C 0.079 0.32884 0.05839 0.0
C2832 C 0.08434 0.31952 0.0848 0.0
C2833 C 0.05508 0.30955 0.09623 0.0
C2834 C 0.08783 0.3249 0.10167 0.0
C2835 C 0.09803 0.32385 0.1111 0.0
C2836 C 0.10517 0.31762 0.10377 0.0
C2837 C 0.10151 0.31205 0.08695 0.0
C2838 C 0.09121 0.313 0.07757 0.0
H2839 H 0.04363 0.30343 0.09544 0.0
H2840 H 0.05917 0.30234 0.09853 0.0
H2841 H 0.05782 0.31661 0.10754 0.0
H2842 H 0.08294 0.33028 0.10739 0.0
H2843 H 0.10042 0.32808 0.1241 0.0
H2844 H 0.65214 0.68964 0.01376 0.0
H2845 H 0.65816 0.71206 0.02677 0.0
H2846 H 0.68206 0.70554 0.06622 0.0
H2847 H 0.67581 0.68301 0.05355 0.0
H2848 H 0.66446 0.71273 0.07998 0.0
H2849 H 0.69333 0.74914 0.02698 0.0
H2850 H 0.67658 0.73564 0.02033 0.0
H2851 H 0.68951 0.73131 0.02704 0.0
C2852 C 0.65885 0.69309 0.02505 0.0
C2853 C 0.66348 0.68456 0.03265 0.0
C2854 C 0.66235 0.70594 0.03242 0.0
C2855 C 0.6707 0.71056 0.04736 0.0
C2856 C 0.67563 0.7022 0.05467 0.0
H2857 H 0.70405 0.79231 0.09485 0.0
H2858 H 0.70115 0.77155 0.07995 0.0
C2859 C 0.67206 0.68933 0.0474 0.0
C2860 C 0.67341 0.72355 0.0562 0.0
H2861 H 0.68631 0.75832 0.05032 0.0
C2862 C 0.66932 0.72271 0.07352 0.0
C2863 C 0.67989 0.73659 0.04783 0.0
C2864 C 0.68521 0.73829 0.02958 0.0
C2865 C 0.67129 0.7345 0.0826 0.0
C2866 C 0.67723 0.74744 0.07401 0.0
C2867 C 0.6816 0.74835 0.05681 0.0
C2868 C 0.67894 0.76011 0.0827 0.0
C2869 C 0.66716 0.73299 0.10139 0.0
C2870 C 0.66741 0.76063 0.08895 0.0
C2871 C 0.66904 0.77238 0.09764 0.0
C2872 C 0.68225 0.78395 0.10008 0.0
C2873 C 0.69377 0.78351 0.09345 0.0
C2874 C 0.69212 0.7717 0.08481 0.0
H2875 H 0.66653 0.72353 0.10726 0.0
H2876 H 0.67458 0.74214 0.10908 0.0
H2877 H 0.65681 0.73211 0.10235 0.0
H2878 H 0.65712 0.75189 0.08719 0.0
H2879 H 0.65996 0.7723 0.1027 0.0
H2880 H 0.30675 0.9606 0.00617 0.0
H2881 H 0.2843 0.94428 0.0186 0.0
H2882 H 0.29346 0.97087 0.06313 0.0
H2883 H 0.31576 0.98725 0.05078 0.0
H2884 H 0.28017 0.93047 0.05001 0.0
H2885 H 0.25449 0.96245 0.05018 0.0
H2886 H 0.26965 0.96688 0.03745 0.0
H2887 H 0.27127 0.97087 0.06021 0.0
C2888 C 0.30389 0.96306 0.01849 0.0
C2889 C 0.31303 0.97523 0.02747 0.0
C2890 C 0.29107 0.95372 0.02558 0.0
C2891 C 0.28712 0.95645 0.04168 0.0
C2892 C 0.29615 0.96869 0.05053 0.0
H2893 H 0.2231 0.91306 0.11692 0.0
H2894 H 0.24303 0.92964 0.10014 0.0
C2895 C 0.30894 0.97801 0.04348 0.0
C2896 C 0.27403 0.9461 0.04986 0.0
H2897 H 0.2442 0.94197 0.06757 0.0
C2898 C 0.27222 0.93291 0.05366 0.0
C2899 C 0.26371 0.94934 0.05469 0.0
C2900 C 0.26478 0.96311 0.05029 0.0
C2901 C 0.26059 0.92304 0.06267 0.0
C2902 C 0.25037 0.92636 0.06775 0.0
C2903 C 0.25207 0.93946 0.06371 0.0
C2904 C 0.238 0.91645 0.07757 0.0
C2905 C 0.25957 0.9093 0.0672 0.0
C2906 C 0.22842 0.90365 0.07032 0.0
C2907 C 0.217 0.89417 0.07985 0.0
C2908 C 0.21489 0.89734 0.0968 0.0
C2909 C 0.22435 0.91033 0.10387 0.0
C2910 C 0.23577 0.9198 0.09432 0.0
H2911 H 0.26968 0.90965 0.06604 0.0
H2912 H 0.25573 0.90616 0.0806 0.0
H2913 H 0.25217 0.90122 0.0582 0.0
H2914 H 0.22977 0.90098 0.05728 0.0
H2915 H 0.20978 0.88438 0.07389 0.0
H2916 H 0.32584 0.01459 0.98382 0.0
H2917 H 0.31639 0.02741 0.96823 0.0
H2918 H 0.35473 0.06543 0.97588 0.0
H2919 H 0.36429 0.05285 0.99135 0.0
H2920 H 0.31368 0.05083 0.97956 0.0
H2921 H 0.34799 0.06322 0.92279 0.0
H2922 H 0.34529 0.04979 0.93812 0.0
H2923 H 0.35698 0.06768 0.94323 0.0
C2924 C 0.33227 0.02568 0.98221 0.0
C2925 C 0.34589 0.03264 0.98875 0.0
C2926 C 0.32684 0.03298 0.97331 0.0
C2927 C 0.33495 0.04732 0.97067 0.0
C2928 C 0.34839 0.05432 0.9775 0.0
H2929 H 0.31766 0.11244 0.94448 0.0
H2930 H 0.32193 0.09513 0.95864 0.0
C2931 C 0.35381 0.04709 0.98642 0.0
C2932 C 0.32949 0.05509 0.96081 0.0
H2933 H 0.33594 0.07593 0.92548 0.0
C2934 C 0.31843 0.0562 0.96763 0.0
C2935 C 0.33558 0.06192 0.94514 0.0
C2936 C 0.34703 0.06052 0.93676 0.0
C2937 C 0.31368 0.06447 0.95954 0.0
C2938 C 0.32029 0.07192 0.94438 0.0
C2939 C 0.33096 0.07032 0.93719 0.0
C2940 C 0.31673 0.08186 0.93611 0.0
C2941 C 0.30166 0.06519 0.96732 0.0
C2942 C 0.31258 0.08027 0.91866 0.0
C2943 C 0.31028 0.09023 0.91047 0.0
C2944 C 0.31221 0.10205 0.91954 0.0
C2945 C 0.31619 0.10352 0.93709 0.0
C2946 C 0.31847 0.09354 0.94527 0.0
H2947 H 0.29528 0.05599 0.97552 0.0
H2948 H 0.30564 0.07454 0.97564 0.0
H2949 H 0.29498 0.06592 0.95709 0.0
H2950 H 0.31131 0.0714 0.91131 0.0
H2951 H 0.30741 0.08888 0.89688 0.0
H2952 H 0.98473 0.3191 0.96545 0.0
H2953 H 0.9673 0.29732 0.95261 0.0
H2954 H 0.94821 0.28352 0.00254 0.0
H2955 H 0.96539 0.30562 0.0154 0.0
H2956 H 0.95991 0.2709 0.95747 0.0
H2957 H 0.91597 0.27902 0.97398 0.0
H2958 H 0.9337 0.29239 0.97674 0.0
H2959 H 0.92569 0.27874 0.99248 0.0
C2960 C 0.97687 0.31141 0.97375 0.0
C2961 C 0.97635 0.31413 0.99142 0.0
C2962 C 0.9669 0.29895 0.96638 0.0
C2963 C 0.95626 0.28888 0.97652 0.0
C2964 C 0.95609 0.29129 0.99435 0.0
H2965 H 0.90076 0.20604 0.93391 0.0
H2966 H 0.91869 0.22535 0.95068 0.0
C2967 C 0.96598 0.30387 0.00172 0.0
C2968 C 0.94524 0.2761 0.96816 0.0
H2969 H 0.91048 0.25776 0.96064 0.0
C2970 C 0.94909 0.268 0.9582 0.0
C2971 C 0.93114 0.27244 0.9689 0.0
C2972 C 0.92636 0.28116 0.97845 0.0
C2973 C 0.93929 0.25645 0.94878 0.0
C2974 C 0.92516 0.25264 0.9498 0.0
C2975 C 0.92129 0.26064 0.95996 0.0
C2976 C 0.91426 0.2408 0.93984 0.0
C2977 C 0.94426 0.24883 0.93732 0.0
C2978 C 0.90551 0.24295 0.92858 0.0
C2979 C 0.89512 0.2319 0.91926 0.0
C2980 C 0.89333 0.21849 0.92092 0.0
C2981 C 0.90206 0.21632 0.93221 0.0
C2982 C 0.91234 0.22735 0.94173 0.0
H2983 H 0.95539 0.25531 0.93421 0.0
H2984 H 0.94292 0.23943 0.94415 0.0
H2985 H 0.93829 0.24555 0.92499 0.0
H2986 H 0.90678 0.25322 0.92691 0.0
H2987 H 0.88858 0.23386 0.91058 0.0
H2988 H 0.6905 0.63453 1.0003 0.0
H2989 H 0.7119 0.64346 0.98416 0.0
H2990 H 0.7061 0.67662 0.9641 0.0
H2991 H 0.68472 0.66791 0.98064 0.0
H2992 H 0.7148 0.64567 0.94969 0.0
H2993 H 0.74608 0.69749 0.97997 0.0
H2994 H 0.73026 0.68418 0.98934 0.0
H2995 H 0.72972 0.69431 0.97144 0.0
C2996 C 0.69378 0.64378 0.99256 0.0
C2997 C 0.68585 0.65048 0.99174 0.0
C2998 C 0.70605 0.64889 0.98335 0.0
C2999 C 0.71068 0.66078 0.97304 0.0
C3000 C 0.70288 0.66759 0.97226 0.0
H3001 H 0.77124 0.67766 0.89199 0.0
H3002 H 0.75055 0.67352 0.90773 0.0
C3003 C 0.69062 0.66256 0.98164 0.0
C3004 C 0.72329 0.66546 0.96249 0.0
H3005 H 0.75571 0.69254 0.95552 0.0
C3006 C 0.72374 0.65593 0.95095 0.0
C3007 C 0.73498 0.6788 0.96427 0.0
C3008 C 0.73535 0.68926 0.97703 0.0
C3009 C 0.73558 0.65929 0.94128 0.0
C3010 C 0.74719 0.67272 0.94279 0.0
C3011 C 0.74674 0.6823 0.95426 0.0
C3012 C 0.76007 0.67673 0.93311 0.0
C3013 C 0.73567 0.64823 0.93 0.0
C3014 C 0.77246 0.68059 0.9421 0.0
C3015 C 0.78433 0.68312 0.93312 0.0
C3016 C 0.78398 0.68179 0.915 0.0
C3017 C 0.77172 0.67851 0.90598 0.0
C3018 C 0.7599 0.67613 0.91495 0.0
H3019 H 0.72754 0.63767 0.9338 0.0
H3020 H 0.73368 0.64993 0.91635 0.0
H3021 H 0.74583 0.64863 0.93066 0.0
H3022 H 0.77282 0.68116 0.95612 0.0
H3023 H 0.79363 0.68558 0.94039 0.0
H3024 H 0.9882 0.67487 0.9646 0.0
H3025 H 0.97105 0.68058 0.95317 0.0
H3026 H 0.94529 0.66128 0.99749 0.0
H3027 H 0.9624 0.65548 0.00904 0.0
H3028 H 0.9318 0.65191 0.96506 0.0
H3029 H 0.96001 0.70936 0.96905 0.0
H3030 H 0.96951 0.70211 0.95892 0.0
H3031 H 0.96507 0.69869 0.98142 0.0
C3032 C 0.97898 0.672 0.97205 0.0
C3033 C 0.97664 0.66471 0.98772 0.0
C3034 C 0.96922 0.67535 0.96554 0.0
C3035 C 0.95698 0.67148 0.97458 0.0
C3036 C 0.95473 0.66443 0.99038 0.0
H3037 H 0.89228 0.69077 0.94398 0.0
H3038 H 0.90992 0.6884 0.96049 0.0
C3039 C 0.96451 0.66114 0.99696 0.0
C3040 C 0.94607 0.67382 0.96682 0.0
H3041 H 0.93956 0.69902 0.95153 0.0
C3042 C 0.93344 0.66221 0.96226 0.0
C3043 C 0.94822 0.68727 0.96329 0.0
C3044 C 0.96138 0.7001 0.96855 0.0
C3045 C 0.92306 0.66368 0.95372 0.0
C3046 C 0.92542 0.6771 0.94955 0.0
C3047 C 0.93785 0.68874 0.95464 0.0
C3048 C 0.91523 0.67914 0.93941 0.0
C3049 C 0.90966 0.65087 0.94909 0.0
C3050 C 0.91262 0.67498 0.92202 0.0
C3051 C 0.90268 0.67644 0.91251 0.0
C3052 C 0.89511 0.68207 0.92022 0.0
C3053 C 0.89798 0.68651 0.93759 0.0
C3054 C 0.908 0.6851 0.94707 0.0
H3055 H 0.90827 0.64165 0.95646 0.0
H3056 H 0.90074 0.65247 0.95163 0.0
H3057 H 0.9096 0.64866 0.93507 0.0
H3058 H 0.91826 0.67056 0.91582 0.0
H3059 H 0.90098 0.67321 0.89908 0.0
H3060 H 0.36638 0.31544 0.98936 0.0
H3061 H 0.35629 0.29359 0.97359 0.0
H3062 H 0.31801 0.29416 0.96802 0.0
H3063 H 0.328 0.31616 0.98395 0.0
H3064 H 0.31514 0.26798 0.97862 0.0
H3065 H 0.34837 0.2893 0.92091 0.0
H3066 H 0.35787 0.29354 0.94097 0.0
H3067 H 0.34629 0.30015 0.93663 0.0
C3068 C 0.35581 0.311 0.9848 0.0
C3069 C 0.34805 0.31767 0.98785 0.0
C3070 C 0.35009 0.2985 0.9757 0.0
C3071 C 0.3365 0.29239 0.96939 0.0
C3072 C 0.32857 0.29879 0.97269 0.0
H3073 H 0.30782 0.22344 0.89602 0.0
H3074 H 0.31184 0.24483 0.91024 0.0
C3075 C 0.3343 0.31136 0.98178 0.0
C3076 C 0.33068 0.27924 0.9595 0.0
H3077 H 0.3364 0.26465 0.92391 0.0
C3078 C 0.31966 0.26725 0.96655 0.0
C3079 C 0.33645 0.27837 0.94362 0.0
C3080 C 0.34781 0.29105 0.93497 0.0
C3081 C 0.31468 0.25427 0.95853 0.0
C3082 C 0.32104 0.25328 0.9432 0.0
C3083 C 0.33162 0.26539 0.93575 0.0
C3084 C 0.31736 0.23977 0.93508 0.0
C3085 C 0.30273 0.24173 0.96658 0.0
C3086 C 0.3191 0.2298 0.94432 0.0
C3087 C 0.31675 0.21755 0.93627 0.0
C3088 C 0.31269 0.21504 0.91875 0.0
C3089 C 0.31075 0.22495 0.90959 0.0
C3090 C 0.31312 0.23722 0.91766 0.0
H3091 H 0.29644 0.24471 0.97477 0.0
H3092 H 0.29594 0.23431 0.95651 0.0
H3093 H 0.30677 0.23637 0.97497 0.0
H3094 H 0.32264 0.23167 0.95766 0.0
H3095 H 0.31822 0.21008 0.94373 0.0
H3096 H 0.69547 0.04221 0.01582 0.0
H3097 H 0.7172 0.05928 0.00242 0.0
H3098 H 0.70909 0.03166 0.95924 0.0
H3099 H 0.68739 0.01465 0.97239 0.0
H3100 H 0.74096 0.05728 0.98972 0.0
H3101 H 0.71235 0.06765 0.93781 0.0
H3102 H 0.70428 0.0588 0.95763 0.0
H3103 H 0.70741 0.0497 0.94061 0.0
C3104 C 0.69841 0.03971 0.00359 0.0
C3105 C 0.68965 0.02715 0.99507 0.0
C3106 C 0.71081 0.04946 0.99596 0.0
C3107 C 0.71459 0.0468 0.97973 0.0
C3108 C 0.70622 0.03399 0.97165 0.0
H3109 H 0.77707 0.09313 0.90373 0.0
H3110 H 0.75806 0.07542 0.92064 0.0
C3111 C 0.69385 0.02427 0.97922 0.0
C3112 C 0.72687 0.05763 0.97071 0.0
H3113 H 0.73654 0.07794 0.93456 0.0
C3114 C 0.74004 0.06187 0.97771 0.0
C3115 C 0.72558 0.06358 0.95508 0.0
C3116 C 0.71165 0.05982 0.94737 0.0
C3117 C 0.75201 0.0717 0.96917 0.0
C3118 C 0.7507 0.07754 0.95343 0.0
C3119 C 0.73751 0.07338 0.94658 0.0
C3120 C 0.76282 0.08801 0.94375 0.0
C3121 C 0.76594 0.07546 0.97682 0.0
C3122 C 0.77179 0.10097 0.95113 0.0
C3123 C 0.78273 0.11109 0.94154 0.0
C3124 C 0.78484 0.10847 0.92432 0.0
C3125 C 0.77587 0.09543 0.91702 0.0
C3126 C 0.76495 0.08532 0.92663 0.0
H3127 H 0.76525 0.0676 0.98632 0.0
H3128 H 0.77332 0.07655 0.96653 0.0
H3129 H 0.77016 0.08555 0.98366 0.0
H3130 H 0.77019 0.10335 0.96421 0.0
H3131 H 0.78952 0.12098 0.9476 0.0
H3132 H 0.63994 0.94912 0.02508 0.0
H3133 H 0.64922 0.9362 0.04039 0.0
H3134 H 0.68382 0.97447 0.05826 0.0
H3135 H 0.67458 0.98761 0.04302 0.0
H3136 H 0.67599 0.9381 0.03715 0.0
H3137 H 0.66592 0.95135 0.10302 0.0
H3138 H 0.65781 0.95351 0.08381 0.0
H3139 H 0.67562 0.96551 0.08843 0.0
C3140 C 0.64953 0.95485 0.03224 0.0
C3141 C 0.65644 0.96943 0.03293 0.0
C3142 C 0.65484 0.94743 0.04093 0.0
C3143 C 0.66711 0.95439 0.05057 0.0
C3144 C 0.67424 0.96893 0.05103 0.0
H3145 H 0.70516 0.90832 0.09671 0.0
H3146 H 0.70249 0.92643 0.08172 0.0
C3147 C 0.66896 0.9764 0.04226 0.0
C3148 C 0.67212 0.94624 0.06041 0.0
H3149 H 0.67495 0.93616 0.10137 0.0
C3150 C 0.67596 0.93779 0.0512 0.0
C3151 C 0.67192 0.94582 0.07871 0.0
C3152 C 0.66752 0.95444 0.08917 0.0
C3153 C 0.67929 0.92864 0.05982 0.0
C3154 C 0.67885 0.92805 0.07811 0.0
C3155 C 0.67534 0.93674 0.08734 0.0
C3156 C 0.68084 0.91762 0.08781 0.0
C3157 C 0.68265 0.91925 0.04931 0.0
C3158 C 0.66963 0.9069 0.09647 0.0
C3159 C 0.67113 0.89661 0.10505 0.0
C3160 C 0.68389 0.8969 0.1052 0.0
C3161 C 0.69521 0.90786 0.09686 0.0
C3162 C 0.69369 0.91814 0.0882 0.0
H3163 H 0.68041 0.91946 0.0353 0.0
H3164 H 0.69379 0.92262 0.05084 0.0
H3165 H 0.67668 0.9084 0.05401 0.0
H3166 H 0.65965 0.90638 0.09636 0.0
H3167 H 0.66228 0.88843 0.1116 0.0
H3168 H 0.01667 0.68886 0.03518 0.0
H3169 H 0.02959 0.71102 0.05052 0.0
H3170 H 0.06776 0.71543 0.03118 0.0
H3171 H 0.05506 0.69344 0.01581 0.0
H3172 H 0.05052 0.71731 0.07623 0.0
H3173 H 0.07036 0.75322 0.02033 0.0
H3174 H 0.05593 0.73582 0.01852 0.0
H3175 H 0.07331 0.73872 0.0188 0.0
C3176 C 0.02781 0.69462 0.03403 0.0
C3177 C 0.03482 0.68934 0.02427 0.0
C3178 C 0.03516 0.70726 0.04283 0.0
C3179 C 0.0496 0.71492 0.04181 0.0
C3180 C 0.0566 0.70979 0.0319 0.0
H3181 H 0.11338 0.77406 0.10742 0.0
H3182 H 0.09612 0.75375 0.09152 0.0
C3183 C 0.0493 0.69714 0.02322 0.0
C3184 C 0.05754 0.7279 0.05186 0.0
H3185 H 0.08148 0.76215 0.04767 0.0
C3186 C 0.05715 0.72716 0.07001 0.0
C3187 C 0.06607 0.74075 0.0437 0.0
C3188 C 0.06638 0.74226 0.02426 0.0
C3189 C 0.06558 0.73882 0.08022 0.0
C3190 C 0.07468 0.75148 0.07203 0.0
C3191 C 0.07458 0.75238 0.05391 0.0
C3192 C 0.08484 0.76372 0.08202 0.0
C3193 C 0.06479 0.73747 0.09968 0.0
C3194 C 0.08434 0.77612 0.0817 0.0
C3195 C 0.09423 0.78778 0.09072 0.0
C3196 C 0.1049 0.78727 0.10002 0.0
C3197 C 0.10536 0.77481 0.10026 0.0
C3198 C 0.09543 0.76316 0.09133 0.0
H3199 H 0.05494 0.72841 0.10388 0.0
H3200 H 0.0734 0.736 0.1045 0.0
H3201 H 0.06578 0.74698 0.1058 0.0
H3202 H 0.0763 0.77677 0.07446 0.0
H3203 H 0.09369 0.79726 0.09015 0.0
H3204 H 0.30954 0.35041 0.00901 0.0
H3205 H 0.28763 0.34514 0.02252 0.0
H3206 H 0.29738 0.32723 0.06634 0.0
H3207 H 0.31929 0.33252 0.05305 0.0
H3208 H 0.2649 0.31937 0.03515 0.0
H3209 H 0.29146 0.35837 0.08718 0.0
H3210 H 0.30006 0.35803 0.06763 0.0
H3211 H 0.29723 0.34592 0.08476 0.0
C3212 C 0.30696 0.34524 0.02145 0.0
C3213 C 0.31621 0.34199 0.03003 0.0
C3214 C 0.29444 0.34222 0.02913 0.0
C3215 C 0.291 0.33599 0.04554 0.0
C3216 C 0.29995 0.33224 0.0538 0.0
H3217 H 0.21353 0.3025 0.10164 0.0
H3218 H 0.23345 0.30543 0.08507 0.0
C3219 C 0.31245 0.33523 0.04614 0.0
C3220 C 0.27834 0.33391 0.05435 0.0
H3221 H 0.2673 0.34395 0.08979 0.0
C3222 C 0.26539 0.32474 0.04709 0.0
C3223 C 0.27904 0.34107 0.06979 0.0
C3224 C 0.29268 0.3515 0.07777 0.0
C3225 C 0.2531 0.32238 0.05504 0.0
C3226 C 0.25382 0.32929 0.07073 0.0
C3227 C 0.26678 0.3386 0.07783 0.0
C3228 C 0.24129 0.32723 0.07992 0.0
C3229 C 0.23947 0.3127 0.04648 0.0
C3230 C 0.23916 0.33854 0.08267 0.0
C3231 C 0.22781 0.33691 0.09212 0.0
C3232 C 0.21838 0.32394 0.09915 0.0
C3233 C 0.22047 0.31258 0.09621 0.0
C3234 C 0.23185 0.31423 0.08673 0.0
H3235 H 0.24075 0.31087 0.03264 0.0
H3236 H 0.2347 0.30256 0.05324 0.0
H3237 H 0.23225 0.31689 0.04729 0.0
H3238 H 0.24633 0.34866 0.07754 0.0
H3239 H 0.22641 0.34583 0.09391 0.0
H3240 H 0.68036 0.65936 0.37053 0.0
H3241 H 0.69355 0.65017 0.3859 0.0
H3242 H 0.73044 0.68993 0.38173 0.0
H3243 H 0.71756 0.6992 0.3665 0.0
H3244 H 0.71944 0.65051 0.37424 0.0
H3245 H 0.72575 0.68001 0.43472 0.0
H3246 H 0.71239 0.67659 0.41889 0.0
H3247 H 0.72976 0.69027 0.41535 0.0
C3248 C 0.69128 0.66615 0.37288 0.0
C3249 C 0.69785 0.68006 0.36736 0.0
C3250 C 0.69878 0.66086 0.38163 0.0
C3251 C 0.7129 0.66944 0.38511 0.0
C3252 C 0.7195 0.68321 0.37936 0.0
H3253 H 0.78547 0.67545 0.42736 0.0
H3254 H 0.76665 0.67734 0.41358 0.0
C3255 C 0.71209 0.68847 0.3706 0.0
C3256 C 0.72097 0.66428 0.39479 0.0
H3257 H 0.74127 0.67115 0.43082 0.0
C3258 C 0.72402 0.65477 0.38677 0.0
C3259 C 0.72686 0.66986 0.41114 0.0
C3260 C 0.72344 0.67966 0.42064 0.0
C3261 C 0.73353 0.65137 0.39424 0.0
C3262 C 0.73998 0.65756 0.41015 0.0
C3263 C 0.73637 0.6665 0.41855 0.0
C3264 C 0.75133 0.65587 0.41767 0.0
C3265 C 0.73719 0.64179 0.38468 0.0
C3266 C 0.74894 0.64312 0.42444 0.0
C3267 C 0.7597 0.64202 0.43245 0.0
C3268 C 0.77298 0.65368 0.43387 0.0
C3269 C 0.77533 0.66634 0.42673 0.0
C3270 C 0.76461 0.66742 0.41878 0.0
H3271 H 0.73268 0.63937 0.37141 0.0
H3272 H 0.74858 0.64649 0.38376 0.0
H3273 H 0.73326 0.63192 0.39195 0.0
H3274 H 0.73871 0.63413 0.42391 0.0
H3275 H 0.75753 0.63216 0.43798 0.0
H3276 H 0.33871 0.0164 0.38822 0.0
H3277 H 0.34452 0.0388 0.40108 0.0
H3278 H 0.32599 0.04788 0.35731 0.0
H3279 H 0.32009 0.02547 0.34435 0.0
H3280 H 0.35999 0.06697 0.38768 0.0
H3281 H 0.30481 0.04996 0.40053 0.0
H3282 H 0.31077 0.03791 0.39545 0.0
H3283 H 0.30886 0.04804 0.37858 0.0
C3284 C 0.336 0.02322 0.38123 0.0
C3285 C 0.32884 0.01912 0.36532 0.0
C3286 C 0.33934 0.03602 0.38859 0.0
C3287 C 0.33551 0.04489 0.38025 0.0
C3288 C 0.32887 0.04108 0.36405 0.0
H3289 H 0.3577 0.12942 0.40995 0.0
H3290 H 0.35498 0.10897 0.39443 0.0
C3291 C 0.32556 0.0283 0.35664 0.0
C3292 C 0.3379 0.05781 0.38891 0.0
H3293 H 0.32106 0.07308 0.40767 0.0
C3294 C 0.35151 0.06836 0.39201 0.0
C3295 C 0.32678 0.05947 0.39471 0.0
C3296 C 0.31197 0.04823 0.39231 0.0
C3297 C 0.35429 0.08061 0.40069 0.0
C3298 C 0.34316 0.08233 0.40629 0.0
C3299 C 0.32957 0.07175 0.40325 0.0
C3300 C 0.34535 0.09486 0.4158 0.0
C3301 C 0.36909 0.09148 0.40416 0.0
C3302 C 0.34073 0.09367 0.43289 0.0
C3303 C 0.34231 0.10532 0.44181 0.0
C3304 C 0.34845 0.1184 0.43377 0.0
C3305 C 0.35312 0.11955 0.41663 0.0
C3306 C 0.35156 0.10788 0.40773 0.0
H3307 H 0.3763 0.08737 0.40224 0.0
H3308 H 0.37204 0.10029 0.39513 0.0
H3309 H 0.37035 0.09552 0.41758 0.0
H3310 H 0.33591 0.0837 0.43935 0.0
H3311 H 0.33879 0.10408 0.45507 0.0
H3312 H 0.97425 0.29491 0.34004 0.0
H3313 H 0.95158 0.27867 0.352 0.0
H3314 H 0.96096 0.30432 0.39751 0.0
H3315 H 0.98346 0.32064 0.3856 0.0
H3316 H 0.94665 0.26397 0.38265 0.0
H3317 H 0.92253 0.29735 0.38453 0.0
H3318 H 0.93776 0.30173 0.372 0.0
H3319 H 0.93916 0.30504 0.39493 0.0
C3320 C 0.9714 0.29718 0.35249 0.0
C3321 C 0.98064 0.30909 0.36185 0.0
C3322 C 0.95846 0.28788 0.35931 0.0
C3323 C 0.95449 0.29038 0.37554 0.0
C3324 C 0.96365 0.30233 0.3848 0.0
H3325 H 0.88942 0.24624 0.44922 0.0
H3326 H 0.9097 0.26289 0.43306 0.0
C3327 C 0.97657 0.31161 0.37801 0.0
C3328 C 0.94118 0.28009 0.38334 0.0
H3329 H 0.91153 0.27642 0.40103 0.0
C3330 C 0.93889 0.26663 0.38649 0.0
C3331 C 0.93109 0.2836 0.3884 0.0
C3332 C 0.93267 0.29768 0.38465 0.0
C3333 C 0.927 0.25674 0.39505 0.0
C3334 C 0.91703 0.26033 0.40037 0.0
C3335 C 0.91921 0.27371 0.39699 0.0
C3336 C 0.90441 0.25041 0.40981 0.0
C3337 C 0.92543 0.24267 0.39886 0.0
C3338 C 0.89457 0.238 0.40197 0.0
C3339 C 0.88294 0.22848 0.41114 0.0
C3340 C 0.88087 0.23123 0.42832 0.0
C3341 C 0.89061 0.24385 0.43598 0.0
C3342 C 0.90224 0.25335 0.42679 0.0
H3343 H 0.93535 0.24265 0.39755 0.0
H3344 H 0.92146 0.23924 0.41216 0.0
H3345 H 0.91791 0.23498 0.38958 0.0
H3346 H 0.8959 0.23566 0.38875 0.0
H3347 H 0.87552 0.21899 0.40474 0.0
H3348 H 0.03217 0.38658 0.32573 0.0
H3349 H 0.02318 0.39941 0.30976 0.0
H3350 H 0.985 0.36158 0.30034 0.0
H3351 H 0.99391 0.34848 0.31649 0.0
H3352 H 0.01412 0.39473 0.27446 0.0
H3353 H 0.97315 0.38924 0.31991 0.0
H3354 H 0.98707 0.38626 0.32655 0.0
H3355 H 0.97313 0.37362 0.31356 0.0
C3356 C 0.02182 0.38091 0.32037 0.0
C3357 C 0.01378 0.36644 0.3224 0.0
C3358 C 0.01671 0.3883 0.31122 0.0
C3359 C 0.00342 0.38146 0.30395 0.0
C3360 C 0.99524 0.36706 0.30604 0.0
H3361 H 0.97916 0.42481 0.22784 0.0
H3362 H 0.98203 0.40674 0.24248 0.0
C3363 C 1.00037 0.3596 0.31522 0.0
C3364 C 0.9985 0.38955 0.29376 0.0
H3365 H 0.97619 0.40238 0.29463 0.0
C3366 C 0.00572 0.39629 0.27874 0.0
C3367 C 0.98763 0.39163 0.2995 0.0
C3368 C 0.9798 0.38491 0.31582 0.0
C3369 C 0.00259 0.40532 0.26949 0.0
C3370 C 0.99181 0.40752 0.27531 0.0
C3371 C 0.98439 0.40058 0.29015 0.0
C3372 C 0.98879 0.41777 0.26683 0.0
C3373 C 0.01123 0.41288 0.25398 0.0
C3374 C 0.99121 0.42973 0.27586 0.0
C3375 C 0.98949 0.44002 0.26759 0.0
C3376 C 0.98524 0.43851 0.25013 0.0
C3377 C 0.98236 0.42626 0.24131 0.0
C3378 C 0.98411 0.41598 0.2496 0.0
H3379 H 0.02079 0.41211 0.25327 0.0
H3380 H 0.00513 0.40829 0.24197 0.0
H3381 H 0.01415 0.42401 0.25434 0.0
H3382 H 0.99478 0.43128 0.28919 0.0
H3383 H 0.99158 0.44921 0.27483 0.0
H3384 H 0.65252 0.64958 0.30312 0.0
H3385 H 0.63583 0.62743 0.29012 0.0
H3386 H 0.61038 0.61748 0.33552 0.0
H3387 H 0.62694 0.63973 0.34855 0.0
H3388 H 0.62506 0.5998 0.3012 0.0
H3389 H 0.5843 0.61481 0.29598 0.0
H3390 H 0.60211 0.6272 0.3007 0.0
H3391 H 0.59117 0.61591 0.31742 0.0
C3392 C 0.64343 0.64264 0.31041 0.0
C3393 C 0.64098 0.64647 0.3268 0.0
C3394 C 0.63391 0.62998 0.30296 0.0
C3395 C 0.62176 0.62094 0.31172 0.0
C3396 C 0.61957 0.62445 0.3284 0.0
H3397 H 0.54908 0.54438 0.27961 0.0
H3398 H 0.56658 0.56412 0.29613 0.0
C3399 C 0.62908 0.63713 0.33587 0.0
C3400 C 0.61121 0.60808 0.3031 0.0
H3401 H 0.57816 0.59206 0.28738 0.0
C3402 C 0.61479 0.59808 0.29819 0.0
C3403 C 0.59785 0.6059 0.29916 0.0
C3404 C 0.59361 0.61655 0.30343 0.0
C3405 C 0.60531 0.58589 0.28954 0.0
C3406 C 0.592 0.58378 0.28549 0.0
C3407 C 0.58838 0.59371 0.29055 0.0
C3408 C 0.5817 0.57148 0.27568 0.0
C3409 C 0.60957 0.57531 0.28502 0.0
C3410 C 0.58438 0.56913 0.25865 0.0
C3411 C 0.57438 0.5579 0.24913 0.0
C3412 C 0.56146 0.54886 0.25643 0.0
C3413 C 0.55885 0.55123 0.27353 0.0
C3414 C 0.56886 0.56246 0.28303 0.0
H3415 H 0.61853 0.57667 0.29296 0.0
H3416 H 0.6009 0.5646 0.28687 0.0
H3417 H 0.61262 0.57653 0.2712 0.0
H3418 H 0.5941 0.57616 0.25259 0.0
H3419 H 0.57663 0.55651 0.23591 0.0
H3420 H 0.35041 0.96399 0.32601 0.0
H3421 H 0.37178 0.97218 0.31006 0.0
H3422 H 0.37434 0.01197 0.30295 0.0
H3423 H 0.35284 0.0039 0.31911 0.0
H3424 H 0.3767 0.98198 0.27555 0.0
H3425 H 0.41287 0.02137 0.32257 0.0
H3426 H 0.39576 0.00804 0.32853 0.0
H3427 H 0.398 0.02273 0.31615 0.0
C3428 C 0.35548 0.97452 0.32115 0.0
C3429 C 0.34984 0.98328 0.32387 0.0
C3430 C 0.36772 0.97917 0.31201 0.0
C3431 C 0.37468 0.99269 0.30543 0.0
C3432 C 0.3692 0.00154 0.30813 0.0
H3433 H 0.44079 0.01658 0.22942 0.0
H3434 H 0.42014 0.01354 0.24429 0.0
C3435 C 0.35689 0.99689 0.31731 0.0
C3436 C 0.38749 0.99722 0.2954 0.0
H3437 H 0.42243 0.01861 0.29675 0.0
C3438 C 0.3867 0.99008 0.28008 0.0
C3439 C 0.4005 0.00769 0.30147 0.0
C3440 C 0.40195 0.01537 0.31814 0.0
C3441 C 0.39859 0.99295 0.27079 0.0
C3442 C 0.41162 0.00339 0.27688 0.0
C3443 C 0.41241 0.01068 0.29207 0.0
C3444 C 0.42459 0.00625 0.26821 0.0
C3445 C 0.39718 0.98442 0.25491 0.0
C3446 C 0.43412 0.00355 0.27693 0.0
C3447 C 0.44598 0.00538 0.26853 0.0
C3448 C 0.44856 0.01 0.25127 0.0
C3449 C 0.43916 0.01308 0.24274 0.0
C3450 C 0.42729 0.01124 0.25116 0.0
H3451 H 0.38686 0.97496 0.25406 0.0
H3452 H 0.39855 0.99075 0.24316 0.0
H3453 H 0.40521 0.98125 0.25487 0.0
H3454 H 0.43225 0.99975 0.29013 0.0
H3455 H 0.45311 0.00314 0.27556 0.0
H3456 H 0.65592 0.00488 0.29719 0.0
H3457 H 0.63879 0.00987 0.28401 0.0
H3458 H 0.61253 0.9923 0.32838 0.0
H3459 H 0.62968 0.98739 0.34175 0.0
H3460 H 0.61169 0.98983 0.27568 0.0
H3461 H 0.61248 0.02898 0.32107 0.0
H3462 H 0.62612 0.02464 0.32047 0.0
H3463 H 0.61019 0.01338 0.3312 0.0
C3464 C 0.6466 0.00226 0.30427 0.0
C3465 C 0.64416 0.99574 0.32052 0.0
C3466 C 0.63681 0.0051 0.29671 0.0
C3467 C 0.62445 0.00158 0.30528 0.0
C3468 C 0.62211 0.99534 0.32168 0.0
H3469 H 0.54922 0.0024 0.27649 0.0
H3470 H 0.56737 0.99981 0.2913 0.0
C3471 C 0.63189 0.99248 0.32926 0.0
C3472 C 0.61363 0.00355 0.29652 0.0
H3473 H 0.59454 0.01989 0.29991 0.0
C3474 C 0.60799 0.99647 0.28092 0.0
C3475 C 0.60877 0.01213 0.30346 0.0
C3476 C 0.61476 0.02032 0.3199 0.0
C3477 C 0.59748 0.99758 0.27216 0.0
C3478 C 0.59267 0.00622 0.27902 0.0
C3479 C 0.59827 0.01328 0.29467 0.0
C3480 C 0.58181 0.00806 0.27013 0.0
C3481 C 0.5914 0.98922 0.25583 0.0
C3482 C 0.58399 0.01373 0.25342 0.0
C3483 C 0.57362 0.01511 0.24487 0.0
C3484 C 0.56087 0.01094 0.25292 0.0
C3485 C 0.55883 0.00551 0.26982 0.0
C3486 C 0.56922 0.00412 0.27835 0.0
H3487 H 0.59358 0.98048 0.25486 0.0
H3488 H 0.58005 0.98498 0.25525 0.0
H3489 H 0.59603 0.99602 0.24442 0.0
H3490 H 0.59372 0.01705 0.24695 0.0
H3491 H 0.5755 0.01922 0.23182 0.0
H3492 H 0.99955 0.65374 0.31011 0.0
H3493 H 0.98997 0.63168 0.29417 0.0
H3494 H 0.01976 0.62297 0.31876 0.0
H3495 H 0.02947 0.64488 0.3345 0.0
H3496 H 0.01114 0.62444 0.27288 0.0
H3497 H 0.97716 0.5872 0.32283 0.0
H3498 H 0.98042 0.60487 0.32174 0.0
H3499 H 0.99358 0.60138 0.3297 0.0
C3500 C 0.00393 0.64703 0.31227 0.0
C3501 C 0.01532 0.6511 0.3235 0.0
C3502 C 0.99848 0.63448 0.30314 0.0
C3503 C 0.00417 0.62575 0.30538 0.0
C3504 C 0.01522 0.62957 0.31695 0.0
H3505 H 0.99684 0.54897 0.27301 0.0
H3506 H 0.99991 0.56976 0.28773 0.0
C3507 C 0.02077 0.64213 0.32588 0.0
C3508 C 0.99932 0.61301 0.29493 0.0
H3509 H 0.98175 0.57774 0.29798 0.0
C3510 C 0.00453 0.6142 0.27818 0.0
C3511 C 0.99087 0.59976 0.30208 0.0
C3512 C 0.98508 0.5981 0.32006 0.0
C3513 C 0.00195 0.60241 0.26857 0.0
C3514 C 0.99363 0.58907 0.27581 0.0
C3515 C 0.98809 0.58794 0.29242 0.0
C3516 C 0.99128 0.57624 0.26684 0.0
C3517 C 0.00878 0.6044 0.25119 0.0
C3518 C 0.98522 0.57282 0.25028 0.0
C3519 C 0.9837 0.56106 0.24165 0.0
C3520 C 0.98802 0.55234 0.24952 0.0
C3521 C 0.99367 0.55558 0.26636 0.0
C3522 C 0.9953 0.5674 0.27489 0.0
H3523 H 0.01751 0.61512 0.24957 0.0
H3524 H 0.01271 0.59702 0.24943 0.0
H3525 H 0.00111 0.60249 0.24077 0.0
H3526 H 0.98175 0.5793 0.24395 0.0
H3527 H 0.97939 0.55898 0.22867 0.0
H3528 H 0.36301 0.37239 0.3494 0.0
H3529 H 0.38498 0.38898 0.33617 0.0
H3530 H 0.3704 0.36848 0.28683 0.0
H3531 H 0.34872 0.3516 0.30009 0.0
H3532 H 0.39647 0.37515 0.29196 0.0
H3533 H 0.3905 0.42093 0.30632 0.0
H3534 H 0.39049 0.41157 0.32532 0.0
H3535 H 0.37676 0.40341 0.3096 0.0
C3536 C 0.36454 0.3714 0.33575 0.0
C3537 C 0.35412 0.36076 0.32575 0.0
C3538 C 0.37705 0.38094 0.32818 0.0
C3539 C 0.37923 0.38017 0.31041 0.0
C3540 C 0.36895 0.36932 0.30054 0.0
H3541 H 0.43642 0.44587 0.24421 0.0
H3542 H 0.41655 0.42842 0.26026 0.0
C3543 C 0.35655 0.35968 0.30814 0.0
C3544 C 0.39208 0.39069 0.30191 0.0
H3545 H 0.4116 0.42536 0.29381 0.0
C3546 C 0.39979 0.38614 0.29237 0.0
C3547 C 0.3963 0.40501 0.30224 0.0
C3548 C 0.38802 0.41053 0.31127 0.0
C3549 C 0.41151 0.39546 0.28304 0.0
C3550 C 0.41591 0.40981 0.28373 0.0
C3551 C 0.40828 0.41437 0.2934 0.0
C3552 C 0.42805 0.42024 0.27394 0.0
C3553 C 0.41871 0.38974 0.27206 0.0
C3554 C 0.44115 0.42152 0.27636 0.0
C3555 C 0.45247 0.43136 0.267 0.0
C3556 C 0.45094 0.44029 0.25537 0.0
C3557 C 0.43789 0.43916 0.25318 0.0
C3558 C 0.42654 0.42919 0.26233 0.0
H3559 H 0.41185 0.37859 0.26901 0.0
H3560 H 0.42232 0.39553 0.25969 0.0
H3561 H 0.42782 0.3907 0.27924 0.0
H3562 H 0.44267 0.41501 0.28559 0.0
H3563 H 0.46248 0.43216 0.26909 0.0
H3564 H 0.30692 0.28436 0.36803 0.0
H3565 H 0.31781 0.27315 0.38367 0.0
H3566 H 0.3556 0.31221 0.38782 0.0
H3567 H 0.34479 0.32367 0.37198 0.0
H3568 H 0.35903 0.28919 0.37761 0.0
H3569 H 0.32667 0.27757 0.43607 0.0
H3570 H 0.31671 0.272 0.41639 0.0
H3571 H 0.32817 0.29018 0.42012 0.0
C3572 C 0.31755 0.29065 0.37225 0.0
C3573 C 0.32493 0.30498 0.36885 0.0
C3574 C 0.32373 0.2842 0.38126 0.0
C3575 C 0.33741 0.29191 0.38716 0.0
C3576 C 0.34498 0.30613 0.38348 0.0
H3577 H 0.36415 0.24852 0.45915 0.0
H3578 H 0.36188 0.26734 0.44578 0.0
C3579 C 0.33878 0.31264 0.37444 0.0
C3580 C 0.34366 0.28489 0.39703 0.0
H3581 H 0.3383 0.26442 0.43241 0.0
C3582 C 0.35467 0.28395 0.38974 0.0
C3583 C 0.33813 0.27829 0.413 0.0
C3584 C 0.32686 0.27966 0.42196 0.0
C3585 C 0.35974 0.27586 0.39752 0.0
C3586 C 0.35347 0.26838 0.4128 0.0
C3587 C 0.34302 0.27002 0.4206 0.0
C3588 C 0.35679 0.25802 0.42028 0.0
C3589 C 0.37164 0.27525 0.38918 0.0
C3590 C 0.35483 0.2466 0.41034 0.0
C3591 C 0.35623 0.23589 0.4179 0.0
C3592 C 0.35947 0.2363 0.43561 0.0
C3593 C 0.36182 0.24795 0.44543 0.0
C3594 C 0.36046 0.25869 0.43783 0.0
H3595 H 0.37814 0.2848 0.3816 0.0
H3596 H 0.37824 0.27391 0.399 0.0
H3597 H 0.36753 0.26633 0.38011 0.0
H3598 H 0.35169 0.24569 0.39688 0.0
H3599 H 0.35448 0.22713 0.40994 0.0
H3600 H 0.68224 0.02176 0.36741 0.0
H3601 H 0.69441 0.04371 0.3834 0.0
H3602 H 0.7325 0.04269 0.37914 0.0
H3603 H 0.72057 0.02089 0.3634 0.0
H3604 H 0.72687 0.04823 0.41286 0.0
H3605 H 0.72209 0.08224 0.36327 0.0
H3606 H 0.70638 0.06714 0.36974 0.0
H3607 H 0.71921 0.06511 0.3582 0.0
C3608 C 0.69321 0.02622 0.36984 0.0
C3609 C 0.7004 0.01951 0.36409 0.0
C3610 C 0.70015 0.03879 0.37892 0.0
C3611 C 0.71437 0.04486 0.38232 0.0
C3612 C 0.72152 0.03818 0.37664 0.0
H3613 H 0.78015 0.12492 0.40925 0.0
H3614 H 0.7627 0.10343 0.39562 0.0
C3615 C 0.71465 0.02569 0.36761 0.0
C3616 C 0.72197 0.05807 0.39204 0.0
H3617 H 0.73427 0.09295 0.3889 0.0
C3618 C 0.72837 0.058 0.40775 0.0
C3619 C 0.72399 0.07078 0.38521 0.0
C3620 C 0.71766 0.07144 0.36812 0.0
C3621 C 0.73704 0.07036 0.41662 0.0
C3622 C 0.73918 0.0831 0.40972 0.0
C3623 C 0.73253 0.08314 0.3942 0.0
C3624 C 0.74914 0.09654 0.41774 0.0
C3625 C 0.74432 0.06972 0.4329 0.0
C3626 C 0.74716 0.09992 0.43458 0.0
C3627 C 0.75718 0.11214 0.44248 0.0
C3628 C 0.76934 0.12124 0.43364 0.0
C3629 C 0.77103 0.11803 0.41654 0.0
C3630 C 0.76101 0.10581 0.40867 0.0
H3631 H 0.74376 0.05949 0.43449 0.0
H3632 H 0.75535 0.07791 0.43284 0.0
H3633 H 0.73938 0.07147 0.44432 0.0
H3634 H 0.73797 0.09299 0.44171 0.0
H3635 H 0.75559 0.11426 0.4557 0.0
H3636 H 0.97921 0.68665 0.34438 0.0
H3637 H 0.95714 0.68111 0.35756 0.0
H3638 H 0.96597 0.66171 0.40055 0.0
H3639 H 0.98803 0.66715 0.38746 0.0
H3640 H 0.93803 0.64648 0.38686 0.0
H3641 H 0.9548 0.70169 0.40134 0.0
H3642 H 0.95675 0.69792 0.37925 0.0
H3643 H 0.96684 0.69582 0.39602 0.0
C3644 C 0.97642 0.68112 0.35658 0.0
C3645 C 0.98542 0.67742 0.36494 0.0
C3646 C 0.96383 0.67801 0.36412 0.0
C3647 C 0.96001 0.67116 0.38013 0.0
C3648 C 0.96875 0.66705 0.38821 0.0
H3649 H 0.90067 0.66701 0.4545 0.0
H3650 H 0.92101 0.67006 0.43898 0.0
C3651 C 0.98136 0.67019 0.38073 0.0
C3652 C 0.94712 0.66865 0.38873 0.0
H3653 H 0.93172 0.68526 0.4078 0.0
C3654 C 0.93661 0.65494 0.3914 0.0
C3655 C 0.94538 0.67972 0.39481 0.0
C3656 C 0.95656 0.69463 0.39287 0.0
C3657 C 0.92434 0.65201 0.39991 0.0
C3658 C 0.92255 0.66309 0.40578 0.0
C3659 C 0.93309 0.67679 0.40318 0.0
C3660 C 0.91 0.66074 0.41517 0.0
C3661 C 0.91353 0.6371 0.40291 0.0
C3662 C 0.89704 0.65452 0.4069 0.0
C3663 C 0.88537 0.65286 0.41569 0.0
C3664 C 0.88646 0.65745 0.43292 0.0
C3665 C 0.89947 0.66356 0.44117 0.0
C3666 C 0.91111 0.66524 0.43236 0.0
H3667 H 0.91767 0.62991 0.40086 0.0
H3668 H 0.90942 0.63566 0.41626 0.0
H3669 H 0.90481 0.63421 0.39372 0.0
H3670 H 0.896 0.65118 0.39353 0.0
H3671 H 0.87557 0.64829 0.40886 0.0
H3672 H 0.38719 0.03758 0.69692 0.0
H3673 H 0.40087 0.02962 0.71301 0.0
H3674 H 0.36489 0.98941 0.71935 0.0
H3675 H 0.35094 0.99726 0.70315 0.0
H3676 H 0.39444 0.01818 0.74859 0.0
H3677 H 0.39637 0.98237 0.69953 0.0
H3678 H 0.39277 0.99605 0.69355 0.0
H3679 H 0.37991 0.98091 0.70441 0.0
C3680 C 0.38211 0.02701 0.70162 0.0
C3681 C 0.36791 0.01808 0.69873 0.0
C3682 C 0.38998 0.02249 0.71084 0.0
C3683 C 0.38389 0.00894 0.71726 0.0
C3684 C 0.36978 0.99989 0.71432 0.0
H3685 H 0.42898 0.97412 0.7734 0.0
H3686 H 0.41041 0.9762 0.7588 0.0
C3687 C 0.36183 0.00442 0.70512 0.0
C3688 C 0.39242 0.00463 0.7275 0.0
H3689 H 0.40932 0.98602 0.72517 0.0
C3690 C 0.39759 0.01103 0.74358 0.0
C3691 C 0.39639 0.99523 0.72094 0.0
C3692 C 0.39116 0.98823 0.70363 0.0
C3693 C 0.40696 0.00858 0.75308 0.0
C3694 C 0.4115 0.99974 0.74612 0.0
C3695 C 0.40587 0.99286 0.7304 0.0
C3696 C 0.42274 0.99828 0.75447 0.0
C3697 C 0.41202 0.0156 0.77043 0.0
C3698 C 0.43588 0.00994 0.75646 0.0
C3699 C 0.44647 0.00878 0.7647 0.0
C3700 C 0.44417 0.99592 0.77103 0.0
C3701 C 0.43109 0.98416 0.76858 0.0
C3702 C 0.42047 0.98533 0.76033 0.0
H3703 H 0.40465 0.01848 0.77616 0.0
H3704 H 0.41362 0.00882 0.77968 0.0
H3705 H 0.42203 0.02526 0.7687 0.0
H3706 H 0.43794 0.01996 0.75163 0.0
H3707 H 0.4565 0.01798 0.76604 0.0
H3708 H 0.9952 0.34242 0.72566 0.0
H3709 H 0.99882 0.36386 0.73922 0.0
H3710 H 0.99381 0.3788 0.68951 0.0
H3711 H 0.98962 0.35711 0.67598 0.0
H3712 H 0.01745 0.39016 0.73555 0.0
H3713 H 0.96631 0.3836 0.7173 0.0
H3714 H 0.9706 0.37003 0.71437 0.0
H3715 H 0.97616 0.38392 0.69888 0.0
C3716 C 0.9949 0.35028 0.7176 0.0
C3717 C 0.992 0.34803 0.69978 0.0
C3718 C 0.99697 0.36254 0.72537 0.0
C3719 C 0.99628 0.37284 0.71547 0.0
C3720 C 0.99396 0.37085 0.69752 0.0
H3721 H 0.02577 0.45688 0.75477 0.0
H3722 H 0.02333 0.43645 0.7395 0.0
C3723 C 0.99169 0.35849 0.68978 0.0
C3724 C 0.99798 0.38561 0.72401 0.0
H3725 H 0.98239 0.40522 0.72977 0.0
C3726 C 0.00977 0.39344 0.73431 0.0
C3727 C 0.98784 0.38977 0.72265 0.0
C3728 C 0.97446 0.38132 0.71286 0.0
C3729 C 0.01174 0.40532 0.74323 0.0
C3730 C 0.00186 0.40977 0.74133 0.0
C3731 C 0.99004 0.40191 0.73108 0.0
C3732 C 0.00332 0.4223 0.75026 0.0
C3733 C 0.02417 0.41268 0.75501 0.0
C3734 C 0.99268 0.42131 0.76087 0.0
C3735 C 0.99393 0.43303 0.76929 0.0
C3736 C 0.00591 0.44596 0.76738 0.0
C3737 C 0.01652 0.44699 0.75666 0.0
C3738 C 0.01516 0.4353 0.74802 0.0
H3739 H 0.02824 0.40573 0.75906 0.0
H3740 H 0.03251 0.42157 0.74798 0.0
H3741 H 0.02167 0.41668 0.76681 0.0
H3742 H 0.98342 0.41141 0.76277 0.0
H3743 H 0.98564 0.43193 0.77757 0.0
H3744 H 0.64075 0.62631 0.67225 0.0
H3745 H 0.6186 0.60982 0.68521 0.0
H3746 H 0.62807 0.63664 0.72958 0.0
H3747 H 0.65006 0.6532 0.71667 0.0
H3748 H 0.6148 0.59611 0.71641 0.0
H3749 H 0.58895 0.6279 0.71755 0.0
H3750 H 0.60403 0.63246 0.70463 0.0
H3751 H 0.60578 0.63637 0.72742 0.0
C3752 C 0.63802 0.62878 0.68466 0.0
C3753 C 0.64714 0.64109 0.6934 0.0
C3754 C 0.62538 0.61934 0.69206 0.0
C3755 C 0.62159 0.62209 0.70825 0.0
C3756 C 0.63062 0.63443 0.71691 0.0
H3757 H 0.55824 0.5782 0.78418 0.0
H3758 H 0.57812 0.59482 0.76739 0.0
C3759 C 0.64324 0.64386 0.70953 0.0
C3760 C 0.60861 0.6117 0.71665 0.0
H3761 H 0.57889 0.6074 0.7349 0.0
C3762 C 0.60687 0.59851 0.72028 0.0
C3763 C 0.59829 0.61488 0.72174 0.0
C3764 C 0.59926 0.62863 0.7175 0.0
C3765 C 0.59531 0.58857 0.72934 0.0
C3766 C 0.58511 0.59184 0.73468 0.0
C3767 C 0.58675 0.60494 0.73084 0.0
C3768 C 0.57281 0.58186 0.74457 0.0
C3769 C 0.59432 0.57482 0.73362 0.0
C3770 C 0.56311 0.56916 0.7372 0.0
C3771 C 0.5517 0.55966 0.74673 0.0
C3772 C 0.54973 0.56271 0.76381 0.0
C3773 C 0.55936 0.57557 0.77102 0.0
C3774 C 0.57076 0.58506 0.76147 0.0
H3775 H 0.6044 0.57514 0.73216 0.0
H3776 H 0.59066 0.57164 0.74708 0.0
H3777 H 0.58679 0.56676 0.7247 0.0
H3778 H 0.56434 0.56661 0.72404 0.0
H3779 H 0.54435 0.54998 0.74065 0.0
H3780 H 0.69572 0.71784 0.65282 0.0
H3781 H 0.68528 0.72969 0.63769 0.0
H3782 H 0.64725 0.69103 0.63197 0.0
H3783 H 0.65762 0.67892 0.64734 0.0
H3784 H 0.67413 0.72423 0.60366 0.0
H3785 H 0.63546 0.71806 0.65323 0.0
H3786 H 0.64996 0.71555 0.6582 0.0
H3787 H 0.63546 0.70257 0.64628 0.0
C3788 C 0.68511 0.71177 0.64843 0.0
C3789 C 0.67752 0.69737 0.65133 0.0
C3790 C 0.67917 0.7186 0.63975 0.0
C3791 C 0.66548 0.71127 0.63382 0.0
C3792 C 0.65779 0.69691 0.63665 0.0
H3793 H 0.63571 0.75266 0.56196 0.0
H3794 H 0.63986 0.73501 0.57544 0.0
C3795 C 0.66376 0.69001 0.64537 0.0
C3796 C 0.65957 0.71883 0.62439 0.0
H3797 H 0.63661 0.73069 0.62811 0.0
C3798 C 0.66582 0.72552 0.60887 0.0
C3799 C 0.64882 0.72057 0.63135 0.0
C3800 C 0.64204 0.71391 0.64824 0.0
C3801 C 0.66185 0.73422 0.60034 0.0
C3802 C 0.65119 0.7361 0.60738 0.0
C3803 C 0.64472 0.72915 0.6227 0.0
C3804 C 0.64737 0.74603 0.5997 0.0
C3805 C 0.66952 0.7418 0.58427 0.0
C3806 C 0.64974 0.75783 0.60909 0.0
C3807 C 0.64725 0.76787 0.60151 0.0
C3808 C 0.64229 0.76627 0.58437 0.0
C3809 C 0.63945 0.75418 0.57521 0.0
C3810 C 0.64194 0.74414 0.58283 0.0
H3811 H 0.67924 0.74143 0.58261 0.0
H3812 H 0.66288 0.73692 0.57272 0.0
H3813 H 0.67206 0.75283 0.5847 0.0
H3814 H 0.65387 0.75946 0.62217 0.0
H3815 H 0.64933 0.77693 0.60902 0.0
H3816 H 0.29602 0.97583 0.68232 0.0
H3817 H 0.27902 0.95332 0.67031 0.0
H3818 H 0.30393 0.96144 0.62468 0.0
H3819 H 0.32101 0.98382 0.63664 0.0
H3820 H 0.26458 0.95002 0.63975 0.0
H3821 H 0.29392 0.92169 0.63627 0.0
H3822 H 0.29954 0.93705 0.64936 0.0
H3823 H 0.30267 0.93853 0.62643 0.0
C3824 C 0.298 0.97271 0.66988 0.0
C3825 C 0.30986 0.98161 0.66043 0.0
C3826 C 0.28827 0.95986 0.66302 0.0
C3827 C 0.29028 0.95564 0.64669 0.0
C3828 C 0.3023 0.96434 0.63746 0.0
H3829 H 0.24217 0.89267 0.57127 0.0
H3830 H 0.25989 0.91213 0.58797 0.0
C3831 C 0.31202 0.97718 0.64429 0.0
C3832 C 0.27929 0.94276 0.63859 0.0
H3833 H 0.27293 0.9123 0.61978 0.0
C3834 C 0.26634 0.94168 0.63558 0.0
C3835 C 0.28165 0.93195 0.63307 0.0
C3836 C 0.29515 0.93227 0.63658 0.0
C3837 C 0.25582 0.9303 0.62671 0.0
C3838 C 0.25825 0.91959 0.62095 0.0
C3839 C 0.27112 0.92055 0.62418 0.0
C3840 C 0.24764 0.90747 0.61118 0.0
C3841 C 0.24236 0.93007 0.62303 0.0
C3842 C 0.23497 0.89829 0.6188 0.0
C3843 C 0.22483 0.88715 0.60931 0.0
C3844 C 0.22721 0.88493 0.59204 0.0
C3845 C 0.24005 0.89401 0.58458 0.0
C3846 C 0.25017 0.90516 0.59408 0.0
H3847 H 0.24332 0.94046 0.62469 0.0
H3848 H 0.23868 0.92638 0.60965 0.0
H3849 H 0.23441 0.92283 0.63216 0.0
H3850 H 0.23292 0.89973 0.6321 0.0
H3851 H 0.21516 0.88019 0.61554 0.0
H3852 H 0.0232 0.34035 0.65814 0.0
H3853 H 0.04589 0.35128 0.64419 0.0
H3854 H 0.04236 0.31108 0.63705 0.0
H3855 H 0.02003 0.30016 0.65109 0.0
H3856 H 0.06744 0.33016 0.65071 0.0
H3857 H 0.05421 0.35124 0.59258 0.0
H3858 H 0.05088 0.35636 0.61326 0.0
H3859 H 0.04119 0.33855 0.6066 0.0
C3860 C 0.02724 0.33385 0.65352 0.0
C3861 C 0.01975 0.31936 0.65576 0.0
C3862 C 0.04018 0.34011 0.64549 0.0
C3863 C 0.04576 0.33197 0.63945 0.0
C3864 C 0.03828 0.31756 0.64163 0.0
H3865 H 0.10429 0.33893 0.56531 0.0
H3866 H 0.08459 0.33641 0.58179 0.0
C3867 C 0.02546 0.31133 0.64968 0.0
C3868 C 0.05948 0.33822 0.63108 0.0
H3869 H 0.07674 0.35453 0.5943 0.0
C3870 C 0.06956 0.33565 0.63848 0.0
C3871 C 0.06215 0.34529 0.61507 0.0
C3872 C 0.05154 0.34798 0.60628 0.0
C3873 C 0.082 0.3394 0.62999 0.0
C3874 C 0.08461 0.34628 0.61383 0.0
C3875 C 0.07475 0.34934 0.60673 0.0
C3876 C 0.09682 0.34907 0.60333 0.0
C3877 C 0.09187 0.33525 0.63796 0.0
C3878 C 0.1103 0.35733 0.60974 0.0
C3879 C 0.12162 0.35858 0.60047 0.0
C3880 C 0.11965 0.35171 0.58452 0.0
C3881 C 0.10617 0.34407 0.57774 0.0
C3882 C 0.09489 0.34274 0.58706 0.0
H3883 H 0.08695 0.32742 0.64837 0.0
H3884 H 0.09585 0.33094 0.628 0.0
H3885 H 0.10079 0.34452 0.64374 0.0
H3886 H 0.11206 0.36254 0.62211 0.0
H3887 H 0.13184 0.36453 0.60611 0.0
H3888 H 0.32312 0.34112 0.63316 0.0
H3889 H 0.3065 0.34745 0.62144 0.0
H3890 H 0.28042 0.329 0.66576 0.0
H3891 H 0.29697 0.32256 0.67756 0.0
H3892 H 0.26684 0.31965 0.6338 0.0
H3893 H 0.2965 0.37712 0.63615 0.0
H3894 H 0.30549 0.36929 0.62611 0.0
H3895 H 0.3013 0.36635 0.64872 0.0
C3896 C 0.31395 0.33858 0.64055 0.0
C3897 C 0.31135 0.33131 0.65628 0.0
C3898 C 0.3045 0.34229 0.63388 0.0
C3899 C 0.2923 0.33883 0.64283 0.0
C3900 C 0.28982 0.33184 0.65871 0.0
H3901 H 0.22861 0.35955 0.61227 0.0
H3902 H 0.24648 0.35734 0.62847 0.0
C3903 C 0.29929 0.32817 0.66543 0.0
C3904 C 0.28163 0.34145 0.6349 0.0
H3905 H 0.27587 0.36697 0.61895 0.0
C3906 C 0.26877 0.33 0.63071 0.0
C3907 C 0.28414 0.35498 0.63098 0.0
C3908 C 0.29756 0.36766 0.63585 0.0
C3909 C 0.25851 0.33168 0.6222 0.0
C3910 C 0.26122 0.34515 0.61766 0.0
C3911 C 0.27389 0.35665 0.62234 0.0
C3912 C 0.25109 0.34735 0.60758 0.0
C3913 C 0.24484 0.31902 0.61803 0.0
C3914 C 0.24804 0.34276 0.59038 0.0
C3915 C 0.23796 0.34411 0.58107 0.0
C3916 C 0.23068 0.35004 0.58879 0.0
C3917 C 0.23407 0.35501 0.6059 0.0
C3918 C 0.24422 0.35371 0.6152 0.0
H3919 H 0.24327 0.30986 0.62568 0.0
H3920 H 0.23616 0.321 0.62057 0.0
H3921 H 0.24453 0.31648 0.60408 0.0
H3922 H 0.2534 0.33803 0.58421 0.0
H3923 H 0.23586 0.34046 0.5678 0.0
H3924 H 0.69923 0.98187 0.65227 0.0
H3925 H 0.68817 0.95928 0.63841 0.0
H3926 H 0.64887 0.95805 0.64026 0.0
H3927 H 0.65998 0.98103 0.65401 0.0
H3928 H 0.66747 0.93459 0.65108 0.0
H3929 H 0.65121 0.94883 0.58945 0.0
H3930 H 0.66345 0.9617 0.60422 0.0
H3931 H 0.64537 0.95282 0.60914 0.0
C3932 C 0.68823 0.97691 0.64973 0.0
C3933 C 0.68052 0.98336 0.65426 0.0
C3934 C 0.68192 0.96393 0.64179 0.0
C3935 C 0.66772 0.95701 0.63814 0.0
C3936 C 0.65989 0.96331 0.64268 0.0
H3937 H 0.62412 0.87395 0.58988 0.0
H3938 H 0.62823 0.895 0.60526 0.0
C3939 C 0.66625 0.97641 0.65062 0.0
C3940 C 0.66137 0.94312 0.62986 0.0
H3941 H 0.64675 0.92581 0.59213 0.0
C3942 C 0.66279 0.93263 0.63828 0.0
C3943 C 0.65525 0.94057 0.61316 0.0
C3944 C 0.65378 0.95157 0.60334 0.0
C3945 C 0.65872 0.91986 0.63021 0.0
C3946 C 0.65311 0.91752 0.61328 0.0
C3947 C 0.65107 0.9277 0.60513 0.0
C3948 C 0.65045 0.90501 0.6034 0.0
C3949 C 0.66076 0.90905 0.63961 0.0
C3950 C 0.66159 0.90383 0.59708 0.0
C3951 C 0.6593 0.89194 0.58815 0.0
C3952 C 0.6458 0.88092 0.58543 0.0
C3953 C 0.63463 0.88226 0.59159 0.0
C3954 C 0.63695 0.89424 0.60045 0.0
H3955 H 0.66269 0.91133 0.65368 0.0
H3956 H 0.65158 0.89861 0.6379 0.0
H3957 H 0.66978 0.90875 0.63408 0.0
H3958 H 0.67208 0.91213 0.59911 0.0
H3959 H 0.66814 0.89144 0.58328 0.0
H3960 H 0.02738 0.70749 0.67915 0.0
H3961 H 0.04926 0.724 0.66565 0.0
H3962 H 0.03938 0.69686 0.62155 0.0
H3963 H 0.01747 0.68039 0.63482 0.0
H3964 H 0.07184 0.72086 0.65291 0.0
H3965 H 0.0453 0.73385 0.60089 0.0
H3966 H 0.03665 0.72477 0.62035 0.0
H3967 H 0.03962 0.71569 0.60314 0.0
C3968 C 0.02992 0.70498 0.66665 0.0
C3969 C 0.02064 0.6927 0.65797 0.0
C3970 C 0.04242 0.71441 0.65897 0.0
C3971 C 0.0458 0.71174 0.64249 0.0
C3972 C 0.03683 0.69922 0.63415 0.0
H3973 H 0.11085 0.75938 0.56931 0.0
H3974 H 0.09112 0.74121 0.58479 0.0
C3975 C 0.02435 0.6898 0.64179 0.0
C3976 C 0.05843 0.72225 0.63373 0.0
H3977 H 0.06946 0.74355 0.59847 0.0
C3978 C 0.07136 0.72586 0.64103 0.0
C3979 C 0.05772 0.72875 0.61826 0.0
C3980 C 0.04409 0.72569 0.61023 0.0
C3981 C 0.08365 0.73564 0.63305 0.0
C3982 C 0.08292 0.74212 0.61756 0.0
C3983 C 0.06998 0.73851 0.61031 0.0
C3984 C 0.09542 0.75281 0.60869 0.0
C3985 C 0.09728 0.73874 0.64107 0.0
C3986 C 0.10437 0.76536 0.617 0.0
C3987 C 0.11571 0.77574 0.60823 0.0
C3988 C 0.11826 0.77378 0.59093 0.0
C3989 C 0.1093 0.76115 0.58269 0.0
C3990 C 0.09798 0.75078 0.59148 0.0
H3991 H 0.09613 0.73038 0.65004 0.0
H3992 H 0.10488 0.7401 0.63095 0.0
H3993 H 0.10151 0.74851 0.64861 0.0
H3994 H 0.10243 0.76725 0.63017 0.0
H3995 H 0.12246 0.7853 0.61499 0.0
H3996 H 0.96879 0.6167 0.70009 0.0
H3997 H 0.97807 0.60424 0.71629 0.0
H3998 H 0.01771 0.64139 0.71963 0.0
H3999 H 0.00852 0.65413 0.70326 0.0
H4000 H 0.01817 0.61625 0.70973 0.0
H4001 H 0.98758 0.60939 0.76886 0.0
H4002 H 0.97738 0.60445 0.74933 0.0
H4003 H 0.99039 0.62225 0.75258 0.0
C4004 C 0.97949 0.62231 0.70423 0.0
C4005 C 0.98787 0.63649 0.70045 0.0
C4006 C 0.98475 0.61515 0.71357 0.0
C4007 C 0.99848 0.62196 0.71939 0.0
C4008 C 0.00704 0.63601 0.71535 0.0
H4009 H 0.02135 0.5759 0.79236 0.0
H4010 H 0.02027 0.5952 0.7784 0.0
C4011 C 0.00176 0.64325 0.70601 0.0
C4012 C 0.00374 0.61417 0.7295 0.0
H4013 H 0.997 0.5942 0.76569 0.0
C4014 C 0.01374 0.6116 0.72211 0.0
C4015 C 0.99809 0.60831 0.74575 0.0
C4016 C 0.98786 0.61134 0.7547 0.0
C4017 C 0.01763 0.60263 0.73011 0.0
C4018 C 0.0112 0.59596 0.74574 0.0
C4019 C 0.00182 0.5992 0.75361 0.0
C4020 C 0.0133 0.58493 0.75361 0.0
C4021 C 0.02844 0.60024 0.72164 0.0
C4022 C 0.00975 0.57276 0.74429 0.0
C4023 C 0.01043 0.56175 0.75219 0.0
C4024 C 0.01455 0.56265 0.76962 0.0
C4025 C 0.01831 0.57495 0.77885 0.0
C4026 C 0.01764 0.58596 0.77092 0.0
H4027 H 0.03537 0.60916 0.71336 0.0
H4028 H 0.03479 0.5985 0.73144 0.0
H4029 H 0.02327 0.59092 0.71323 0.0
H4030 H 0.00607 0.5716 0.73104 0.0
H4031 H 0.00758 0.55247 0.74468 0.0
H4032 H 0.38872 0.35659 0.68883 0.0
H4033 H 0.40155 0.37844 0.70443 0.0
H4034 H 0.3634 0.37645 0.71941 0.0
H4035 H 0.35033 0.35441 0.70386 0.0
H4036 H 0.40068 0.40378 0.69999 0.0
H4037 H 0.38477 0.38089 0.76578 0.0
H4038 H 0.38286 0.37047 0.74693 0.0
H4039 H 0.3712 0.37704 0.75025 0.0
C4040 C 0.38299 0.36074 0.69542 0.0
C4041 C 0.36845 0.35364 0.69518 0.0
C4042 C 0.39037 0.37328 0.70429 0.0
C4043 C 0.38343 0.37897 0.71321 0.0
C4044 C 0.36894 0.37211 0.71278 0.0
H4045 H 0.42807 0.46267 0.75848 0.0
H4046 H 0.41073 0.44202 0.743 0.0
C4047 C 0.36151 0.35955 0.70382 0.0
C4048 C 0.3915 0.39201 0.72309 0.0
H4049 H 0.40014 0.40491 0.7642 0.0
C4050 C 0.40046 0.4041 0.71402 0.0
C4051 C 0.39126 0.3923 0.74139 0.0
C4052 C 0.3821 0.37949 0.75176 0.0
C4053 C 0.40939 0.41643 0.72279 0.0
C4054 C 0.40925 0.41668 0.74109 0.0
C4055 C 0.40013 0.40467 0.75016 0.0
C4056 C 0.41923 0.42903 0.75106 0.0
C4057 C 0.41928 0.42896 0.71247 0.0
C4058 C 0.42954 0.42845 0.761 0.0
C4059 C 0.43941 0.44017 0.76986 0.0
C4060 C 0.4391 0.4527 0.76905 0.0
C4061 C 0.42854 0.45315 0.75941 0.0
C4062 C 0.4187 0.44141 0.75047 0.0
H4063 H 0.41966 0.42638 0.69866 0.0
H4064 H 0.41595 0.43689 0.71297 0.0
H4065 H 0.42985 0.43363 0.71808 0.0
H4066 H 0.43007 0.41896 0.76167 0.0
H4067 H 0.44728 0.43943 0.77738 0.0
H4068 H 0.65548 0.00178 0.72089 0.0
H4069 H 0.63403 0.99721 0.73491 0.0
H4070 H 0.62387 0.01486 0.69113 0.0
H4071 H 0.64524 0.01931 0.67691 0.0
H4072 H 0.62678 0.01675 0.74431 0.0
H4073 H 0.58795 0.97851 0.69881 0.0
H4074 H 0.60586 0.98286 0.69872 0.0
H4075 H 0.60062 0.99419 0.68862 0.0
C4076 C 0.64861 0.00453 0.71413 0.0
C4077 C 0.65206 0.01089 0.69776 0.0
C4078 C 0.63635 0.00193 0.72219 0.0
C4079 C 0.62726 0.00555 0.71401 0.0
C4080 C 0.63059 0.01172 0.69755 0.0
H4081 H 0.5657 0.01988 0.76352 0.0
H4082 H 0.58569 0.02179 0.74817 0.0
C4083 C 0.64285 0.01433 0.68948 0.0
C4084 C 0.61475 0.00362 0.72315 0.0
H4085 H 0.57958 0.98795 0.72016 0.0
C4086 C 0.61646 0.01041 0.73906 0.0
C4087 C 0.60128 0.99523 0.71639 0.0
C4088 C 0.59875 0.98717 0.69978 0.0
C4089 C 0.60509 0.00924 0.74823 0.0
C4090 C 0.59166 0.00122 0.74119 0.0
C4091 C 0.58991 0.9942 0.72545 0.0
C4092 C 0.57931 0.99997 0.75004 0.0
C4093 C 0.60756 0.01645 0.76551 0.0
C4094 C 0.56889 0.98701 0.75579 0.0
C4095 C 0.55744 0.98588 0.76461 0.0
C4096 C 0.55616 0.9977 0.76777 0.0
C4097 C 0.56649 0.01062 0.76163 0.0
C4098 C 0.57792 0.01173 0.75282 0.0
H4099 H 0.61782 0.01913 0.77107 0.0
H4100 H 0.60721 0.02621 0.76378 0.0
H4101 H 0.59946 0.00986 0.77493 0.0
H4102 H 0.56975 0.9778 0.75374 0.0
H4103 H 0.54976 0.97579 0.76928 0.0
loop_
_geom_bond_atom_site_label_1
_geom_bond_atom_site_label_2
_geom_bond_distance
_geom_bond_site_symmetry_2
_ccdc_geom_bond_type
Mn0 O5 2.095 1_655 S
Mn0 O15 2.162 . S
Mn0 O16 2.297 1_554 S
Mn0 O24 2.385 1_554 S
Mn0 O25 2.209 1_654 S
Mn0 O26 2.094 . S
Mn1 O6 2.121 . S
Mn1 N8 2.257 1_554 S
Mn1 N17 2.282 . S
Mn1 O25 2.215 1_554 S
Mn1 O27 2.117 . S
C2 O24 1.234 1_455 S
C2 O25 1.283 . S
C3 O15 1.281 1_556 S
C3 O16 1.236 . S
C4 O26 1.246 . S
C4 O27 1.249 1_655 S
O5 Mn0 2.095 1_455 S
O5 C14 1.250 . S
O6 Mn1 2.121 . S
O6 C14 1.258 . S
C7 N8 1.326 . S
C7 C11 1.460 . S
C7 H13 0.929 . S
N8 Mn1 2.257 1_556 S
N8 C7 1.326 . S
N8 C12 1.362 . S
C9 C10 1.258 . S
C9 C12 1.431 . S
C9 C29 1.449 . S
C10 C9 1.258 . S
C10 C11 1.477 . S
C10 H30 0.931 . S
C11 C7 1.460 . S
C11 C10 1.477 . S
C11 H31 0.930 . S
C12 N8 1.362 . S
C12 C9 1.431 . S
C12 C22 1.476 . S
H13 C7 0.929 . S
C14 O5 1.250 . S
C14 O6 1.258 . S
O15 Mn0 2.162 . S
O15 C3 1.281 1_554 S
O16 Mn0 2.297 1_556 S
O16 C3 1.236 . S
N17 Mn1 2.282 . S
N17 C18 1.328 . S
N17 C22 1.318 1_554 S
C18 N17 1.328 . S
C18 C19 1.443 1_554 S
C18 H23 0.929 . S
C19 C18 1.443 1_556 S
C19 C20 1.311 . S
C19 H32 0.925 1_556 S
C20 C19 1.311 . S
C20 C21 1.373 . S
C20 H33 0.929 . S
C21 C20 1.373 . S
C21 C22 1.396 . S
C21 C28 1.403 . S
C22 C12 1.476 . S
C22 N17 1.318 1_556 S
C22 C21 1.396 . S
H23 C18 0.929 . S
O24 Mn0 2.385 1_556 S
O24 C2 1.234 1_655 S
O25 Mn0 2.209 1_456 S
O25 Mn1 2.215 1_556 S
O25 C2 1.283 . S
O26 Mn0 2.094 . S
O26 C4 1.246 . S
O27 Mn1 2.117 . S
O27 C4 1.249 1_455 S
C28 C21 1.403 . S
C28 C29 1.399 . S
C28 H34 0.929 . S
C29 C9 1.449 . S
C29 C28 1.399 . S
C29 H35 0.930 . S
H30 C10 0.931 . S
H31 C11 0.930 . S
H32 C19 0.925 1_554 S
H33 C20 0.929 . S
H34 C28 0.929 . S
H35 C29 0.930 . S
Mn36 O41 2.095 1_554 S
Mn36 O51 2.162 . S
Mn36 O52 2.297 . S
Mn36 O60 2.385 . S
Mn36 O61 2.209 . S
Mn36 O62 2.094 1_554 S
Mn37 O42 2.120 . S
Mn37 N44 2.260 1_556 S
Mn37 N53 2.284 1_556 S
Mn37 O61 2.218 1_556 S
Mn37 O63 2.114 . S
C38 O60 1.234 . S
C38 O61 1.283 . S
C39 O51 1.281 . S
C39 O52 1.236 . S
C40 O62 1.240 . S
C40 O63 1.264 . S
O41 Mn36 2.095 1_556 S
O41 C50 1.250 . S
O42 Mn37 2.120 . S
O42 C50 1.258 . S
C43 N44 1.326 . S
C43 C47 1.460 . S
C43 H49 0.929 . S
N44 Mn37 2.260 1_554 S
N44 C43 1.326 . S
N44 C48 1.362 . S
C45 C46 1.258 . S
C45 C48 1.431 . S
C45 C65 1.449 . S
C46 C45 1.258 . S
C46 C47 1.477 . S
C46 H66 0.931 . S
C47 C43 1.460 . S
C47 C46 1.477 . S
C47 H67 0.930 . S
C48 N44 1.362 . S
C48 C45 1.431 . S
C48 C58 1.476 . S
H49 C43 0.929 . S
C50 O41 1.250 . S
C50 O42 1.258 . S
O51 Mn36 2.162 . S
O51 C39 1.281 . S
O52 Mn36 2.297 . S
O52 C39 1.236 . S
N53 Mn37 2.284 1_554 S
N53 C54 1.328 . S
N53 C58 1.318 . S
C54 N53 1.328 . S
C54 C55 1.457 . S
C54 H59 0.966 . S
C55 C54 1.457 . S
C55 C56 1.291 . S
C55 H68 0.931 . S
C56 C55 1.291 . S
C56 C57 1.373 . S
C56 H69 0.929 . S
C57 C56 1.373 . S
C57 C58 1.396 . S
C57 C64 1.403 . S
C58 C48 1.476 . S
C58 N53 1.318 . S
C58 C57 1.396 . S
H59 C54 0.966 . S
O60 Mn36 2.385 . S
O60 C38 1.234 . S
O61 Mn36 2.209 . S
O61 Mn37 2.218 1_554 S
O61 C38 1.283 . S
O62 Mn36 2.094 1_556 S
O62 C40 1.240 . S
O63 Mn37 2.114 . S
O63 C40 1.264 . S
C64 C57 1.403 . S
C64 C65 1.399 . S
C64 H70 0.929 . S
C65 C45 1.449 . S
C65 C64 1.399 . S
C65 H71 0.930 . S
H66 C46 0.931 . S
H67 C47 0.930 . S
H68 C55 0.931 . S
H69 C56 0.929 . S
H70 C64 0.929 . S
H71 C65 0.930 . S
Mn72 O77 2.095 1_564 S
Mn72 O87 2.162 . S
Mn72 O88 2.297 . S
Mn72 O96 2.385 . S
Mn72 O97 2.209 1_565 S
Mn72 O98 2.094 1_554 S
Mn73 O78 2.114 1_554 S
Mn73 N80 2.257 . S
Mn73 N89 2.282 . S
Mn73 O97 2.215 . S
Mn73 O99 2.117 1_554 S
C74 O96 1.234 1_545 S
C74 O97 1.283 . S
C75 O87 1.281 . S
C75 O88 1.236 . S
C76 O98 1.240 . S
C76 O99 1.264 1_565 S
O77 Mn72 2.095 1_546 S
O77 C86 1.250 . S
O78 Mn73 2.114 1_556 S
O78 C86 1.275 . S
C79 N80 1.326 . S
C79 C83 1.460 . S
C79 H85 0.929 . S
N80 Mn73 2.257 . S
N80 C79 1.326 . S
N80 C84 1.362 . S
C81 C82 1.258 . S
C81 C84 1.431 . S
C81 C101 1.449 . S
C82 C81 1.258 . S
C82 C83 1.477 . S
C82 H102 0.931 . S
C83 C79 1.460 . S
C83 C82 1.477 . S
C83 H103 0.930 . S
C84 N80 1.362 . S
C84 C81 1.431 . S
C84 C94 1.476 . S
H85 C79 0.929 . S
C86 O77 1.250 . S
C86 O78 1.275 . S
O87 Mn72 2.162 . S
O87 C75 1.281 . S
O88 Mn72 2.297 . S
O88 C75 1.236 . S
N89 Mn73 2.282 . S
N89 C90 1.328 . S
N89 C94 1.318 . S
C90 N89 1.328 . S
C90 C91 1.457 . S
C90 H95 0.929 . S
C91 C90 1.457 . S
C91 C92 1.291 . S
C91 H104 0.931 . S
C92 C91 1.291 . S
C92 C93 1.373 . S
C92 H105 0.929 . S
C93 C92 1.373 . S
C93 C94 1.396 . S
C93 C100 1.403 . S
C94 C84 1.476 . S
C94 N89 1.318 . S
C94 C93 1.396 . S
H95 C90 0.929 . S
O96 Mn72 2.385 . S
O96 C74 1.234 1_565 S
O97 Mn72 2.209 1_545 S
O97 Mn73 2.215 . S
O97 C74 1.283 . S
O98 Mn72 2.094 1_556 S
O98 C76 1.240 . S
O99 Mn73 2.117 1_556 S
O99 C76 1.264 1_545 S
C100 C93 1.403 . S
C100 C101 1.399 . S
C100 H106 0.929 . S
C101 C81 1.449 . S
C101 C100 1.399 . S
C101 H107 0.930 . S
H102 C82 0.931 . S
H103 C83 0.930 . S
H104 C91 0.931 . S
H105 C92 0.929 . S
H106 C100 0.929 . S
H107 C101 0.930 . S
Mn108 O113 2.095 1_655 S
Mn108 O123 2.162 . S
Mn108 O124 2.297 1_554 S
Mn108 O132 2.385 1_554 S
Mn108 O133 2.209 1_654 S
Mn108 O134 2.094 . S
Mn109 O114 2.121 . S
Mn109 N116 2.257 1_554 S
Mn109 N125 2.282 . S
Mn109 O133 2.215 1_554 S
Mn109 O135 2.117 . S
C110 O132 1.234 1_455 S
C110 O133 1.283 . S
C111 O123 1.281 1_556 S
C111 O124 1.236 . S
C112 O134 1.240 . S
C112 O135 1.264 1_655 S
O113 Mn108 2.095 1_455 S
O113 C122 1.250 . S
O114 Mn109 2.121 . S
O114 C122 1.258 . S
C115 N116 1.326 . S
C115 C119 1.460 . S
C115 H121 0.929 . S
N116 Mn109 2.257 1_556 S
N116 C115 1.326 . S
N116 C120 1.362 . S
C117 C118 1.258 . S
C117 C120 1.431 . S
C117 C137 1.449 . S
C118 C117 1.258 . S
C118 C119 1.477 . S
C118 H138 0.931 . S
C119 C115 1.460 . S
C119 C118 1.477 . S
C119 H139 0.930 . S
C120 N116 1.362 . S
C120 C117 1.431 . S
C120 C130 1.476 . S
H121 C115 0.929 . S
C122 O113 1.250 . S
C122 O114 1.258 . S
O123 Mn108 2.162 . S
O123 C111 1.281 1_554 S
O124 Mn108 2.297 1_556 S
O124 C111 1.236 . S
N125 Mn109 2.282 . S
N125 C126 1.328 . S
N125 C130 1.318 1_554 S
C126 N125 1.328 . S
C126 C127 1.446 1_554 S
C126 H131 0.929 . S
C127 C126 1.446 1_556 S
C127 C128 1.306 . S
C127 H140 0.926 1_556 S
C128 C127 1.306 . S
C128 C129 1.373 . S
C128 H141 0.929 . S
C129 C128 1.373 . S
C129 C130 1.396 . S
C129 C136 1.403 . S
C130 C120 1.476 . S
C130 N125 1.318 1_556 S
C130 C129 1.396 . S
H131 C126 0.929 . S
O132 Mn108 2.385 1_556 S
O132 C110 1.234 1_655 S
O133 Mn108 2.209 1_456 S
O133 Mn109 2.215 1_556 S
O133 C110 1.283 . S
O134 Mn108 2.094 . S
O134 C112 1.240 . S
O135 Mn109 2.117 . S
O135 C112 1.264 1_455 S
C136 C129 1.403 . S
C136 C137 1.399 . S
C136 H142 0.929 . S
C137 C117 1.449 . S
C137 C136 1.399 . S
C137 H143 0.930 . S
H138 C118 0.931 . S
H139 C119 0.930 . S
H140 C127 0.926 1_554 S
H141 C128 0.929 . S
H142 C136 0.929 . S
H143 C137 0.930 . S
Mn144 O149 2.095 1_554 S
Mn144 O159 2.162 . S
Mn144 O160 2.297 . S
Mn144 O168 2.385 . S
Mn144 O169 2.209 . S
Mn144 O170 2.094 1_554 S
Mn145 O150 2.121 1_554 S
Mn145 N152 2.257 . S
Mn145 N161 2.282 . S
Mn145 O169 2.215 . S
Mn145 O171 2.117 1_554 S
C146 O168 1.234 . S
C146 O169 1.283 . S
C147 O159 1.281 . S
C147 O160 1.236 . S
C148 O170 1.240 . S
C148 O171 1.264 . S
O149 Mn144 2.095 1_556 S
O149 C158 1.250 . S
O150 Mn145 2.121 1_556 S
O150 C158 1.258 . S
C151 N152 1.326 . S
C151 C155 1.460 . S
C151 H157 0.929 . S
N152 Mn145 2.257 . S
N152 C151 1.326 . S
N152 C156 1.362 . S
C153 C154 1.258 . S
C153 C156 1.431 . S
C153 C173 1.449 . S
C154 C153 1.258 . S
C154 C155 1.477 . S
C154 H174 0.931 . S
C155 C151 1.460 . S
C155 C154 1.477 . S
C155 H175 0.930 . S
C156 N152 1.362 . S
C156 C153 1.431 . S
C156 C166 1.476 . S
H157 C151 0.929 . S
C158 O149 1.250 . S
C158 O150 1.258 . S
O159 Mn144 2.162 . S
O159 C147 1.281 . S
O160 Mn144 2.297 . S
O160 C147 1.236 . S
N161 Mn145 2.282 . S
N161 C162 1.328 . S
N161 C166 1.318 . S
C162 N161 1.328 . S
C162 C163 1.457 . S
C162 H167 0.929 . S
C163 C162 1.457 . S
C163 C164 1.291 . S
C163 H176 0.931 . S
C164 C163 1.291 . S
C164 C165 1.373 . S
C164 H177 0.929 . S
C165 C164 1.373 . S
C165 C166 1.396 . S
C165 C172 1.403 . S
C166 C156 1.476 . S
C166 N161 1.318 . S
C166 C165 1.396 . S
H167 C162 0.929 . S
O168 Mn144 2.385 . S
O168 C146 1.234 . S
O169 Mn144 2.209 . S
O169 Mn145 2.215 . S
O169 C146 1.283 . S
O170 Mn144 2.094 1_556 S
O170 C148 1.240 . S
O171 Mn145 2.117 1_556 S
O171 C148 1.264 . S
C172 C165 1.403 . S
C172 C173 1.399 . S
C172 H178 0.929 . S
C173 C153 1.449 . S
C173 C172 1.399 . S
C173 H179 0.930 . S
H174 C154 0.931 . S
H175 C155 0.930 . S
H176 C163 0.931 . S
H177 C164 0.929 . S
H178 C172 0.929 . S
H179 C173 0.930 . S
Mn180 O185 2.095 1_545 S
Mn180 O195 2.162 . S
Mn180 O196 2.297 1_554 S
Mn180 O204 2.385 1_554 S
Mn180 O205 2.209 1_544 S
Mn180 O206 2.094 . S
Mn181 O186 2.121 . S
Mn181 N188 2.257 1_554 S
Mn181 N197 2.282 . S
Mn181 O205 2.215 1_554 S
Mn181 O207 2.117 . S
C182 O204 1.255 . S
C182 O205 1.263 1_545 S
C183 O195 1.281 1_556 S
C183 O196 1.236 . S
C184 O206 1.240 . S
C184 O207 1.264 1_545 S
O185 Mn180 2.095 1_565 S
O185 C194 1.250 . S
O186 Mn181 2.121 . S
O186 C194 1.258 . S
C187 N188 1.326 . S
C187 C191 1.460 . S
C187 H193 0.956 . S
N188 Mn181 2.257 1_556 S
N188 C187 1.326 . S
N188 C192 1.362 . S
C189 C190 1.258 . S
C189 C192 1.431 . S
C189 C209 1.449 . S
C190 C189 1.258 . S
C190 C191 1.477 . S
C190 H210 0.931 . S
C191 C187 1.460 . S
C191 C190 1.477 . S
C191 H211 0.930 . S
C192 N188 1.362 . S
C192 C189 1.431 . S
C192 C202 1.476 . S
H193 C187 0.956 . S
C194 O185 1.250 . S
C194 O186 1.258 . S
O195 Mn180 2.162 . S
O195 C183 1.281 1_554 S
O196 Mn180 2.297 1_556 S
O196 C183 1.236 . S
N197 Mn181 2.282 . S
N197 C198 1.328 . S
N197 C202 1.318 1_554 S
C198 N197 1.328 . S
C198 C199 1.461 . S
C198 H203 0.929 . S
C199 C198 1.461 . S
C199 C200 1.285 1_554 S
C199 H212 0.932 . S
C200 C199 1.285 1_556 S
C200 C201 1.373 . S
C200 H213 0.929 . S
C201 C200 1.373 . S
C201 C202 1.396 . S
C201 C208 1.403 . S
C202 C192 1.476 . S
C202 N197 1.318 1_556 S
C202 C201 1.396 . S
H203 C198 0.929 . S
O204 Mn180 2.385 1_556 S
O204 C182 1.255 . S
O205 Mn180 2.209 1_566 S
O205 Mn181 2.215 1_556 S
O205 C182 1.263 1_565 S
O206 Mn180 2.094 . S
O206 C184 1.240 . S
O207 Mn181 2.117 . S
O207 C184 1.264 1_565 S
C208 C201 1.403 . S
C208 C209 1.399 . S
C208 H214 0.929 . S
C209 C189 1.449 . S
C209 C208 1.399 . S
C209 H215 0.930 . S
H210 C190 0.931 . S
H211 C191 0.930 . S
H212 C199 0.932 . S
H213 C200 0.929 . S
H214 C208 0.929 . S
H215 C209 0.930 . S
Mn216 O221 2.095 . S
Mn216 O231 2.162 . S
Mn216 O232 2.297 . S
Mn216 O240 2.385 . S
Mn216 O241 2.209 . S
Mn216 O242 2.094 . S
Mn217 O222 2.121 . S
Mn217 N224 2.257 . S
Mn217 N233 2.282 . S
Mn217 O241 2.215 . S
Mn217 O243 2.117 . S
C218 O240 1.234 . S
C218 O241 1.283 . S
C219 O231 1.281 . S
C219 O232 1.236 . S
C220 O242 1.240 . S
C220 O243 1.264 . S
O221 Mn216 2.095 . S
O221 C230 1.250 . S
O222 Mn217 2.121 . S
O222 C230 1.258 . S
C223 N224 1.326 . S
C223 C227 1.460 . S
C223 H229 0.929 . S
N224 Mn217 2.257 . S
N224 C223 1.326 . S
N224 C228 1.362 . S
C225 C226 1.258 . S
C225 C228 1.431 . S
C225 C245 1.449 . S
C226 C225 1.258 . S
C226 C227 1.477 . S
C226 H246 0.931 . S
C227 C223 1.460 . S
C227 C226 1.477 . S
C227 H247 0.930 . S
C228 N224 1.362 . S
C228 C225 1.431 . S
C228 C238 1.476 . S
H229 C223 0.929 . S
C230 O221 1.250 . S
C230 O222 1.258 . S
O231 Mn216 2.162 . S
O231 C219 1.281 . S
O232 Mn216 2.297 . S
O232 C219 1.236 . S
N233 Mn217 2.282 . S
N233 C234 1.328 . S
N233 C238 1.318 . S
C234 N233 1.328 . S
C234 C235 1.457 . S
C234 H239 0.929 . S
C235 C234 1.457 . S
C235 C236 1.291 . S
C235 H248 0.931 . S
C236 C235 1.291 . S
C236 C237 1.373 . S
C236 H249 0.929 . S
C237 C236 1.373 . S
C237 C238 1.396 . S
C237 C244 1.403 . S
C238 C228 1.476 . S
C238 N233 1.318 . S
C238 C237 1.396 . S
H239 C234 0.929 . S
O240 Mn216 2.385 . S
O240 C218 1.234 . S
O241 Mn216 2.209 . S
O241 Mn217 2.215 . S
O241 C218 1.283 . S
O242 Mn216 2.094 . S
O242 C220 1.240 . S
O243 Mn217 2.117 . S
O243 C220 1.264 . S
C244 C237 1.403 . S
C244 C245 1.399 . S
C244 H250 0.929 . S
C245 C225 1.449 . S
C245 C244 1.399 . S
C245 H251 0.930 . S
H246 C226 0.931 . S
H247 C227 0.930 . S
H248 C235 0.931 . S
H249 C236 0.929 . S
H250 C244 0.929 . S
H251 C245 0.930 . S
Mn252 O257 2.095 . S
Mn252 O267 2.162 1_565 S
Mn252 O268 2.297 1_565 S
Mn252 O276 2.385 . S
Mn252 O277 2.209 . S
Mn252 O278 2.094 . S
Mn253 O258 2.121 . S
Mn253 N260 2.257 . S
Mn253 N269 2.282 . S
Mn253 O277 2.215 . S
Mn253 O279 2.117 . S
C254 O276 1.234 . S
C254 O277 1.283 . S
C255 O267 1.281 . S
C255 O268 1.236 . S
C256 O278 1.240 . S
C256 O279 1.264 . S
O257 Mn252 2.095 . S
O257 C266 1.250 . S
O258 Mn253 2.121 . S
O258 C266 1.258 . S
C259 N260 1.326 . S
C259 C263 1.460 . S
C259 H265 0.929 . S
N260 Mn253 2.257 . S
N260 C259 1.326 . S
N260 C264 1.362 . S
C261 C262 1.258 . S
C261 C264 1.431 . S
C261 C281 1.449 . S
C262 C261 1.258 . S
C262 C263 1.477 . S
C262 H282 0.931 . S
C263 C259 1.460 . S
C263 C262 1.477 . S
C263 H283 0.930 . S
C264 N260 1.362 . S
C264 C261 1.431 . S
C264 C274 1.476 . S
H265 C259 0.929 . S
C266 O257 1.250 . S
C266 O258 1.258 . S
O267 Mn252 2.162 1_545 S
O267 C255 1.281 . S
O268 Mn252 2.297 1_545 S
O268 C255 1.236 . S
N269 Mn253 2.282 . S
N269 C270 1.328 . S
N269 C274 1.318 . S
C270 N269 1.328 . S
C270 C271 1.457 . S
C270 H275 0.929 . S
C271 C270 1.457 . S
C271 C272 1.291 . S
C271 H284 0.931 . S
C272 C271 1.291 . S
C272 C273 1.373 . S
C272 H285 0.929 . S
C273 C272 1.373 . S
C273 C274 1.396 . S
C273 C280 1.403 . S
C274 C264 1.476 . S
C274 N269 1.318 . S
C274 C273 1.396 . S
H275 C270 0.929 . S
O276 Mn252 2.385 . S
O276 C254 1.234 . S
O277 Mn252 2.209 . S
O277 Mn253 2.215 . S
O277 C254 1.283 . S
O278 Mn252 2.094 . S
O278 C256 1.240 . S
O279 Mn253 2.117 . S
O279 C256 1.264 . S
C280 C273 1.403 . S
C280 C281 1.399 . S
C280 H286 0.929 . S
C281 C261 1.449 . S
C281 C280 1.399 . S
C281 H287 0.930 . S
H282 C262 0.931 . S
H283 C263 0.930 . S
H284 C271 0.931 . S
H285 C272 0.929 . S
H286 C280 0.929 . S
H287 C281 0.930 . S
Mn288 O293 2.095 . S
Mn288 O303 2.162 1_455 S
Mn288 O304 2.297 1_455 S
Mn288 O312 2.385 . S
Mn288 O313 2.209 . S
Mn288 O314 2.094 . S
Mn289 O294 2.121 . S
Mn289 N296 2.257 . S
Mn289 N305 2.282 . S
Mn289 O313 2.215 . S
Mn289 O315 2.117 . S
C290 O312 1.234 . S
C290 O313 1.283 . S
C291 O303 1.281 . S
C291 O304 1.236 . S
C292 O314 1.240 . S
C292 O315 1.264 . S
O293 Mn288 2.095 . S
O293 C302 1.250 . S
O294 Mn289 2.121 . S
O294 C302 1.258 . S
C295 N296 1.326 . S
C295 C299 1.460 . S
C295 H301 0.929 . S
N296 Mn289 2.257 . S
N296 C295 1.326 . S
N296 C300 1.362 . S
C297 C298 1.258 . S
C297 C300 1.431 . S
C297 C317 1.449 . S
C298 C297 1.258 . S
C298 C299 1.477 . S
C298 H318 0.931 . S
C299 C295 1.460 . S
C299 C298 1.477 . S
C299 H319 0.930 . S
C300 N296 1.362 . S
C300 C297 1.431 . S
C300 C310 1.476 . S
H301 C295 0.929 . S
C302 O293 1.250 . S
C302 O294 1.258 . S
O303 Mn288 2.162 1_655 S
O303 C291 1.281 . S
O304 Mn288 2.297 1_655 S
O304 C291 1.236 . S
N305 Mn289 2.282 . S
N305 C306 1.328 . S
N305 C310 1.318 . S
C306 N305 1.328 . S
C306 C307 1.457 . S
C306 H311 0.929 . S
C307 C306 1.457 . S
C307 C308 1.291 . S
C307 H320 0.931 . S
C308 C307 1.291 . S
C308 C309 1.373 . S
C308 H321 0.929 . S
C309 C308 1.373 . S
C309 C310 1.396 . S
C309 C316 1.403 . S
C310 C300 1.476 . S
C310 N305 1.318 . S
C310 C309 1.396 . S
H311 C306 0.929 . S
O312 Mn288 2.385 . S
O312 C290 1.234 . S
O313 Mn288 2.209 . S
O313 Mn289 2.215 . S
O313 C290 1.283 . S
O314 Mn288 2.094 . S
O314 C292 1.240 . S
O315 Mn289 2.117 . S
O315 C292 1.264 . S
C316 C309 1.403 . S
C316 C317 1.399 . S
C316 H322 0.929 . S
C317 C297 1.449 . S
C317 C316 1.399 . S
C317 H323 0.930 . S
H318 C298 0.931 . S
H319 C299 0.930 . S
H320 C307 0.931 . S
H321 C308 0.929 . S
H322 C316 0.929 . S
H323 C317 0.930 . S
Mn324 O329 2.095 . S
Mn324 O339 2.162 . S
Mn324 O340 2.297 . S
Mn324 O348 2.385 . S
Mn324 O349 2.209 . S
Mn324 O350 2.094 . S
Mn325 O330 2.121 1_565 S
Mn325 N332 2.257 . S
Mn325 N341 2.282 . S
Mn325 O349 2.215 . S
Mn325 O351 2.117 . S
C326 O348 1.234 . S
C326 O349 1.283 . S
C327 O339 1.281 . S
C327 O340 1.236 . S
C328 O350 1.240 . S
C328 O351 1.264 . S
O329 Mn324 2.095 . S
O329 C338 1.250 1_565 S
O330 Mn325 2.121 1_545 S
O330 C338 1.258 . S
C331 N332 1.326 1_545 S
C331 C335 1.460 . S
C331 H337 0.929 . S
N332 Mn325 2.257 . S
N332 C331 1.326 1_565 S
N332 C336 1.362 . S
C333 C334 1.258 . S
C333 C336 1.431 . S
C333 C353 1.449 . S
C334 C333 1.258 . S
C334 C335 1.477 1_565 S
C334 H354 0.931 . S
C335 C331 1.460 . S
C335 C334 1.477 1_545 S
C335 H355 0.930 . S
C336 N332 1.362 . S
C336 C333 1.431 . S
C336 C346 1.476 . S
H337 C331 0.929 . S
C338 O329 1.250 1_545 S
C338 O330 1.258 . S
O339 Mn324 2.162 . S
O339 C327 1.281 . S
O340 Mn324 2.297 . S
O340 C327 1.236 . S
N341 Mn325 2.282 . S
N341 C342 1.328 . S
N341 C346 1.318 . S
C342 N341 1.328 . S
C342 C343 1.457 . S
C342 H347 0.929 . S
C343 C342 1.457 . S
C343 C344 1.291 . S
C343 H356 0.931 . S
C344 C343 1.291 . S
C344 C345 1.373 . S
C344 H357 0.929 . S
C345 C344 1.373 . S
C345 C346 1.396 . S
C345 C352 1.403 . S
C346 C336 1.476 . S
C346 N341 1.318 . S
C346 C345 1.396 . S
H347 C342 0.929 . S
O348 Mn324 2.385 . S
O348 C326 1.234 . S
O349 Mn324 2.209 . S
O349 Mn325 2.215 . S
O349 C326 1.283 . S
O350 Mn324 2.094 . S
O350 C328 1.240 . S
O351 Mn325 2.117 . S
O351 C328 1.264 . S
C352 C345 1.403 . S
C352 C353 1.399 . S
C352 H358 0.929 . S
C353 C333 1.449 . S
C353 C352 1.399 . S
C353 H359 0.930 . S
H354 C334 0.931 . S
H355 C335 0.930 . S
H356 C343 0.931 . S
H357 C344 0.929 . S
H358 C352 0.929 . S
H359 C353 0.930 . S
Mn360 O365 2.095 . S
Mn360 O375 2.162 1_455 S
Mn360 O376 2.330 . S
Mn360 O384 2.385 . S
Mn360 O385 2.209 . S
Mn360 O386 2.094 . S
Mn361 O366 2.121 . S
Mn361 N368 2.257 . S
Mn361 N377 2.282 . S
Mn361 O385 2.215 . S
Mn361 O387 2.117 . S
C362 O384 1.234 . S
C362 O385 1.283 . S
C363 O375 1.281 . S
C363 O376 1.161 1_655 S
C364 O386 1.240 . S
C364 O387 1.264 . S
O365 Mn360 2.095 . S
O365 C374 1.250 . S
O366 Mn361 2.121 . S
O366 C374 1.258 . S
C367 N368 1.326 . S
C367 C371 1.460 . S
C367 H373 0.929 . S
N368 Mn361 2.257 . S
N368 C367 1.326 . S
N368 C372 1.362 . S
C369 C370 1.258 . S
C369 C372 1.431 . S
C369 C389 1.449 . S
C370 C369 1.258 . S
C370 C371 1.477 . S
C370 H390 0.931 . S
C371 C367 1.460 . S
C371 C370 1.477 . S
C371 H391 0.930 . S
C372 N368 1.362 . S
C372 C369 1.431 . S
C372 C382 1.476 . S
H373 C367 0.929 . S
C374 O365 1.250 . S
C374 O366 1.258 . S
O375 Mn360 2.162 1_655 S
O375 C363 1.281 . S
O376 Mn360 2.330 . S
O376 C363 1.161 1_455 S
N377 Mn361 2.282 . S
N377 C378 1.328 . S
N377 C382 1.318 . S
C378 N377 1.328 . S
C378 C379 1.457 . S
C378 H383 0.929 . S
C379 C378 1.457 . S
C379 C380 1.291 . S
C379 H392 0.931 . S
C380 C379 1.291 . S
C380 C381 1.373 . S
C380 H393 0.929 . S
C381 C380 1.373 . S
C381 C382 1.396 . S
C381 C388 1.403 . S
C382 C372 1.476 . S
C382 N377 1.318 . S
C382 C381 1.396 . S
H383 C378 0.929 . S
O384 Mn360 2.385 . S
O384 C362 1.234 . S
O385 Mn360 2.209 . S
O385 Mn361 2.215 . S
O385 C362 1.283 . S
O386 Mn360 2.094 . S
O386 C364 1.240 . S
O387 Mn361 2.117 . S
O387 C364 1.264 . S
C388 C381 1.403 . S
C388 C389 1.399 . S
C388 H394 0.929 . S
C389 C369 1.449 . S
C389 C388 1.399 . S
C389 H395 0.930 . S
H390 C370 0.931 . S
H391 C371 0.930 . S
H392 C379 0.931 . S
H393 C380 0.929 . S
H394 C388 0.929 . S
H395 C389 0.930 . S
Mn396 O401 2.095 . S
Mn396 O411 2.162 . S
Mn396 O412 2.297 . S
Mn396 O420 2.385 . S
Mn396 O421 2.209 . S
Mn396 O422 2.094 . S
Mn397 O402 2.121 . S
Mn397 N404 2.257 . S
Mn397 N413 2.282 . S
Mn397 O421 2.215 . S
Mn397 O423 2.117 . S
C398 O420 1.234 . S
C398 O421 1.283 . S
C399 O411 1.281 . S
C399 O412 1.236 . S
C400 O422 1.240 . S
C400 O423 1.264 . S
O401 Mn396 2.095 . S
O401 C410 1.250 . S
O402 Mn397 2.121 . S
O402 C410 1.258 . S
C403 N404 1.326 . S
C403 C407 1.460 . S
C403 H409 0.929 . S
N404 Mn397 2.257 . S
N404 C403 1.326 . S
N404 C408 1.362 . S
C405 C406 1.258 . S
C405 C408 1.431 . S
C405 C425 1.449 . S
C406 C405 1.258 . S
C406 C407 1.477 . S
C406 H426 0.931 . S
C407 C403 1.460 . S
C407 C406 1.477 . S
C407 H427 0.930 . S
C408 N404 1.362 . S
C408 C405 1.431 . S
C408 C418 1.476 . S
H409 C403 0.929 . S
C410 O401 1.250 . S
C410 O402 1.258 . S
O411 Mn396 2.162 . S
O411 C399 1.281 . S
O412 Mn396 2.297 . S
O412 C399 1.236 . S
N413 Mn397 2.282 . S
N413 C414 1.328 . S
N413 C418 1.318 . S
C414 N413 1.328 . S
C414 C415 1.457 . S
C414 H419 0.929 . S
C415 C414 1.457 . S
C415 C416 1.291 . S
C415 H428 0.931 . S
C416 C415 1.291 . S
C416 C417 1.373 . S
C416 H429 0.929 . S
C417 C416 1.373 . S
C417 C418 1.396 . S
C417 C424 1.403 . S
C418 C408 1.476 . S
C418 N413 1.318 . S
C418 C417 1.396 . S
H419 C414 0.929 . S
O420 Mn396 2.385 . S
O420 C398 1.234 . S
O421 Mn396 2.209 . S
O421 Mn397 2.215 . S
O421 C398 1.283 . S
O422 Mn396 2.094 . S
O422 C400 1.240 . S
O423 Mn397 2.117 . S
O423 C400 1.264 . S
C424 C417 1.403 . S
C424 C425 1.399 . S
C424 H430 0.929 . S
C425 C405 1.449 . S
C425 C424 1.399 . S
C425 H431 0.930 . S
H426 C406 0.931 . S
H427 C407 0.930 . S
H428 C415 0.931 . S
H429 C416 0.929 . S
H430 C424 0.929 . S
H431 C425 0.930 . S
Mn432 O437 2.095 . S
Mn432 O447 2.162 1_545 S
Mn432 O448 2.324 . S
Mn432 O456 2.385 . S
Mn432 O457 2.209 . S
Mn432 O458 2.094 . S
Mn433 O438 2.121 . S
Mn433 N440 2.257 . S
Mn433 N449 2.282 . S
Mn433 O457 2.215 . S
Mn433 O459 2.117 . S
C434 O456 1.234 . S
C434 O457 1.283 . S
C435 O447 1.281 . S
C435 O448 1.229 1_565 S
C436 O458 1.240 . S
C436 O459 1.264 . S
O437 Mn432 2.095 . S
O437 C446 1.250 . S
O438 Mn433 2.121 . S
O438 C446 1.258 . S
C439 N440 1.326 . S
C439 C443 1.460 . S
C439 H445 0.929 . S
N440 Mn433 2.257 . S
N440 C439 1.326 . S
N440 C444 1.362 . S
C441 C442 1.258 . S
C441 C444 1.431 . S
C441 C461 1.449 . S
C442 C441 1.258 . S
C442 C443 1.477 . S
C442 H462 0.931 . S
C443 C439 1.460 . S
C443 C442 1.477 . S
C443 H463 0.930 . S
C444 N440 1.362 . S
C444 C441 1.431 . S
C444 C454 1.476 . S
H445 C439 0.929 . S
C446 O437 1.250 . S
C446 O438 1.258 . S
O447 Mn432 2.162 1_565 S
O447 C435 1.281 . S
O448 Mn432 2.324 . S
O448 C435 1.229 1_545 S
N449 Mn433 2.282 . S
N449 C450 1.328 . S
N449 C454 1.318 . S
C450 N449 1.328 . S
C450 C451 1.457 . S
C450 H455 0.929 . S
C451 C450 1.457 . S
C451 C452 1.291 . S
C451 H464 0.931 . S
C452 C451 1.291 . S
C452 C453 1.373 . S
C452 H465 0.929 . S
C453 C452 1.373 . S
C453 C454 1.396 . S
C453 C460 1.403 . S
C454 C444 1.476 . S
C454 N449 1.318 . S
C454 C453 1.396 . S
H455 C450 0.929 . S
O456 Mn432 2.385 . S
O456 C434 1.234 . S
O457 Mn432 2.209 . S
O457 Mn433 2.215 . S
O457 C434 1.283 . S
O458 Mn432 2.094 . S
O458 C436 1.240 . S
O459 Mn433 2.117 . S
O459 C436 1.264 . S
C460 C453 1.403 . S
C460 C461 1.399 . S
C460 H466 0.929 . S
C461 C441 1.449 . S
C461 C460 1.399 . S
C461 H467 0.930 . S
H462 C442 0.931 . S
H463 C443 0.930 . S
H464 C451 0.931 . S
H465 C452 0.929 . S
H466 C460 0.929 . S
H467 C461 0.930 . S
Mn468 O473 2.095 . S
Mn468 O483 2.162 . S
Mn468 O484 2.297 . S
Mn468 O492 2.385 . S
Mn468 O493 2.209 . S
Mn468 O494 2.094 . S
Mn469 O474 2.117 . S
Mn469 N476 2.257 . S
Mn469 N485 2.282 . S
Mn469 O493 2.215 . S
Mn469 O495 2.117 . S
C470 O492 1.234 . S
C470 O493 1.283 . S
C471 O483 1.281 . S
C471 O484 1.236 . S
C472 O494 1.240 . S
C472 O495 1.264 . S
O473 Mn468 2.095 . S
O473 C482 1.250 1_655 S
O474 Mn469 2.117 . S
O474 C482 1.257 1_655 S
C475 N476 1.326 1_455 S
C475 C479 1.460 . S
C475 H481 0.929 . S
N476 Mn469 2.257 . S
N476 C475 1.326 1_655 S
N476 C480 1.362 . S
C477 C478 1.258 . S
C477 C480 1.431 . S
C477 C497 1.449 . S
C478 C477 1.258 . S
C478 C479 1.477 1_655 S
C478 H498 0.931 . S
C479 C475 1.460 . S
C479 C478 1.477 1_455 S
C479 H499 0.930 . S
C480 N476 1.362 . S
C480 C477 1.431 . S
C480 C490 1.476 . S
H481 C475 0.929 . S
C482 O473 1.250 1_455 S
C482 O474 1.257 1_455 S
O483 Mn468 2.162 . S
O483 C471 1.281 . S
O484 Mn468 2.297 . S
O484 C471 1.236 . S
N485 Mn469 2.282 . S
N485 C486 1.328 . S
N485 C490 1.318 . S
C486 N485 1.328 . S
C486 C487 1.457 . S
C486 H491 0.929 . S
C487 C486 1.457 . S
C487 C488 1.291 . S
C487 H500 0.931 . S
C488 C487 1.291 . S
C488 C489 1.373 . S
C488 H501 0.929 . S
C489 C488 1.373 . S
C489 C490 1.396 . S
C489 C496 1.403 . S
C490 C480 1.476 . S
C490 N485 1.318 . S
C490 C489 1.396 . S
H491 C486 0.929 . S
O492 Mn468 2.385 . S
O492 C470 1.234 . S
O493 Mn468 2.209 . S
O493 Mn469 2.215 . S
O493 C470 1.283 . S
O494 Mn468 2.094 . S
O494 C472 1.240 . S
O495 Mn469 2.117 . S
O495 C472 1.264 . S
C496 C489 1.403 . S
C496 C497 1.399 . S
C496 H502 0.929 . S
C497 C477 1.449 . S
C497 C496 1.399 . S
C497 H503 0.930 . S
H498 C478 0.931 . S
H499 C479 0.930 . S
H500 C487 0.931 . S
H501 C488 0.929 . S
H502 C496 0.929 . S
H503 C497 0.930 . S
Mn504 O509 2.095 . S
Mn504 O519 2.162 . S
Mn504 O520 2.297 . S
Mn504 O528 2.385 . S
Mn504 O529 2.209 . S
Mn504 O530 2.094 . S
Mn505 O510 2.121 . S
Mn505 N512 2.257 . S
Mn505 N521 2.282 . S
Mn505 O529 2.215 . S
Mn505 O531 2.117 . S
C506 O528 1.234 . S
C506 O529 1.283 . S
C507 O519 1.281 . S
C507 O520 1.236 . S
C508 O530 1.240 . S
C508 O531 1.264 . S
O509 Mn504 2.095 . S
O509 C518 1.250 . S
O510 Mn505 2.121 . S
O510 C518 1.258 . S
C511 N512 1.326 . S
C511 C515 1.460 . S
C511 H517 0.929 . S
N512 Mn505 2.257 . S
N512 C511 1.326 . S
N512 C516 1.362 . S
C513 C514 1.258 . S
C513 C516 1.431 . S
C513 C533 1.449 . S
C514 C513 1.258 . S
C514 C515 1.477 . S
C514 H534 0.931 . S
C515 C511 1.460 . S
C515 C514 1.477 . S
C515 H535 0.930 . S
C516 N512 1.362 . S
C516 C513 1.431 . S
C516 C526 1.476 . S
H517 C511 0.929 . S
C518 O509 1.250 . S
C518 O510 1.258 . S
O519 Mn504 2.162 . S
O519 C507 1.281 . S
O520 Mn504 2.297 . S
O520 C507 1.236 . S
N521 Mn505 2.282 . S
N521 C522 1.328 . S
N521 C526 1.318 . S
C522 N521 1.328 . S
C522 C523 1.457 . S
C522 H527 0.929 . S
C523 C522 1.457 . S
C523 C524 1.291 . S
C523 H536 0.931 . S
C524 C523 1.291 . S
C524 C525 1.373 . S
C524 H537 0.929 . S
C525 C524 1.373 . S
C525 C526 1.396 . S
C525 C532 1.403 . S
C526 C516 1.476 . S
C526 N521 1.318 . S
C526 C525 1.396 . S
H527 C522 0.929 . S
O528 Mn504 2.385 . S
O528 C506 1.234 . S
O529 Mn504 2.209 . S
O529 Mn505 2.215 . S
O529 C506 1.283 . S
O530 Mn504 2.094 . S
O530 C508 1.240 . S
O531 Mn505 2.117 . S
O531 C508 1.264 . S
C532 C525 1.403 . S
C532 C533 1.399 . S
C532 H538 0.929 . S
C533 C513 1.449 . S
C533 C532 1.399 . S
C533 H539 0.930 . S
H534 C514 0.931 . S
H535 C515 0.930 . S
H536 C523 0.931 . S
H537 C524 0.929 . S
H538 C532 0.929 . S
H539 C533 0.930 . S
Mn540 O545 2.095 . S
Mn540 O555 2.162 . S
Mn540 O556 2.297 . S
Mn540 O564 2.385 . S
Mn540 O565 2.209 . S
Mn540 O566 2.094 . S
Mn541 O546 2.121 . S
Mn541 N548 2.257 . S
Mn541 N557 2.282 . S
Mn541 O565 2.215 . S
Mn541 O567 2.117 . S
C542 O564 1.234 . S
C542 O565 1.283 . S
C543 O555 1.281 . S
C543 O556 1.236 . S
C544 O566 1.240 . S
C544 O567 1.264 . S
O545 Mn540 2.095 . S
O545 C554 1.250 . S
O546 Mn541 2.121 . S
O546 C554 1.258 . S
C547 N548 1.326 . S
C547 C551 1.460 . S
C547 H553 0.929 . S
N548 Mn541 2.257 . S
N548 C547 1.326 . S
N548 C552 1.362 . S
C549 C550 1.258 . S
C549 C552 1.431 . S
C549 C569 1.449 . S
C550 C549 1.258 . S
C550 C551 1.477 . S
C550 H570 0.931 . S
C551 C547 1.460 . S
C551 C550 1.477 . S
C551 H571 0.930 . S
C552 N548 1.362 . S
C552 C549 1.431 . S
C552 C562 1.476 . S
H553 C547 0.929 . S
C554 O545 1.250 . S
C554 O546 1.258 . S
O555 Mn540 2.162 . S
O555 C543 1.281 . S
O556 Mn540 2.297 . S
O556 C543 1.236 . S
N557 Mn541 2.282 . S
N557 C558 1.328 . S
N557 C562 1.318 . S
C558 N557 1.328 . S
C558 C559 1.457 . S
C558 H563 0.929 . S
C559 C558 1.457 . S
C559 C560 1.291 . S
C559 H572 0.931 . S
C560 C559 1.291 . S
C560 C561 1.373 . S
C560 H573 0.929 . S
C561 C560 1.373 . S
C561 C562 1.396 . S
C561 C568 1.403 . S
C562 C552 1.476 . S
C562 N557 1.318 . S
C562 C561 1.396 . S
H563 C558 0.929 . S
O564 Mn540 2.385 . S
O564 C542 1.234 . S
O565 Mn540 2.209 . S
O565 Mn541 2.215 . S
O565 C542 1.283 . S
O566 Mn540 2.094 . S
O566 C544 1.240 . S
O567 Mn541 2.117 . S
O567 C544 1.264 . S
C568 C561 1.403 . S
C568 C569 1.399 . S
C568 H574 0.929 . S
C569 C549 1.449 . S
C569 C568 1.399 . S
C569 H575 0.930 . S
H570 C550 0.931 . S
H571 C551 0.930 . S
H572 C559 0.931 . S
H573 C560 0.929 . S
H574 C568 0.929 . S
H575 C569 0.930 . S
Mn576 O581 2.095 . S
Mn576 O591 2.162 . S
Mn576 O592 2.297 . S
Mn576 O600 2.385 . S
Mn576 O601 2.209 . S
Mn576 O602 2.094 . S
Mn577 O582 2.121 1_545 S
Mn577 N584 2.257 . S
Mn577 N593 2.282 . S
Mn577 O601 2.215 . S
Mn577 O603 2.117 . S
C578 O600 1.234 . S
C578 O601 1.283 . S
C579 O591 1.281 . S
C579 O592 1.236 . S
C580 O602 1.240 . S
C580 O603 1.264 . S
O581 Mn576 2.095 . S
O581 C590 1.250 1_545 S
O582 Mn577 2.121 1_565 S
O582 C590 1.258 . S
C583 N584 1.326 1_565 S
C583 C587 1.460 . S
C583 H589 0.929 . S
N584 Mn577 2.257 . S
N584 C583 1.326 1_545 S
N584 C588 1.362 . S
C585 C586 1.258 . S
C585 C588 1.431 . S
C585 C605 1.449 . S
C586 C585 1.258 . S
C586 C587 1.477 1_545 S
C586 H606 0.931 . S
C587 C583 1.460 . S
C587 C586 1.477 1_565 S
C587 H607 0.930 . S
C588 N584 1.362 . S
C588 C585 1.431 . S
C588 C598 1.476 . S
H589 C583 0.929 . S
C590 O581 1.250 1_565 S
C590 O582 1.258 . S
O591 Mn576 2.162 . S
O591 C579 1.281 . S
O592 Mn576 2.297 . S
O592 C579 1.236 . S
N593 Mn577 2.282 . S
N593 C594 1.328 . S
N593 C598 1.318 . S
C594 N593 1.328 . S
C594 C595 1.457 . S
C594 H599 0.929 . S
C595 C594 1.457 . S
C595 C596 1.291 . S
C595 H608 0.931 . S
C596 C595 1.291 . S
C596 C597 1.373 . S
C596 H609 0.929 . S
C597 C596 1.373 . S
C597 C598 1.396 . S
C597 C604 1.403 . S
C598 C588 1.476 . S
C598 N593 1.318 . S
C598 C597 1.396 . S
H599 C594 0.929 . S
O600 Mn576 2.385 . S
O600 C578 1.234 . S
O601 Mn576 2.209 . S
O601 Mn577 2.215 . S
O601 C578 1.283 . S
O602 Mn576 2.094 . S
O602 C580 1.240 . S
O603 Mn577 2.117 . S
O603 C580 1.264 . S
C604 C597 1.403 . S
C604 C605 1.399 . S
C604 H610 0.929 . S
C605 C585 1.449 . S
C605 C604 1.399 . S
C605 H611 0.930 . S
H606 C586 0.931 . S
H607 C587 0.930 . S
H608 C595 0.931 . S
H609 C596 0.929 . S
H610 C604 0.929 . S
H611 C605 0.930 . S
Mn612 O617 2.095 . S
Mn612 O627 2.162 1_655 S
Mn612 O628 2.297 1_655 S
Mn612 O636 2.385 . S
Mn612 O637 2.209 . S
Mn612 O638 2.094 . S
Mn613 O618 2.121 . S
Mn613 N620 2.257 . S
Mn613 N629 2.282 . S
Mn613 O637 2.215 . S
Mn613 O639 2.117 . S
C614 O636 1.234 . S
C614 O637 1.283 . S
C615 O627 1.281 . S
C615 O628 1.236 . S
C616 O638 1.240 . S
C616 O639 1.264 . S
O617 Mn612 2.095 . S
O617 C626 1.250 . S
O618 Mn613 2.121 . S
O618 C626 1.258 . S
C619 N620 1.326 . S
C619 C623 1.460 . S
C619 H625 0.929 . S
N620 Mn613 2.257 . S
N620 C619 1.326 . S
N620 C624 1.362 . S
C621 C622 1.258 . S
C621 C624 1.431 . S
C621 C641 1.449 . S
C622 C621 1.258 . S
C622 C623 1.477 . S
C622 H642 0.931 . S
C623 C619 1.460 . S
C623 C622 1.477 . S
C623 H643 0.930 . S
C624 N620 1.362 . S
C624 C621 1.431 . S
C624 C634 1.476 . S
H625 C619 0.929 . S
C626 O617 1.250 . S
C626 O618 1.258 . S
O627 Mn612 2.162 1_455 S
O627 C615 1.281 . S
O628 Mn612 2.297 1_455 S
O628 C615 1.236 . S
N629 Mn613 2.282 . S
N629 C630 1.328 . S
N629 C634 1.318 . S
C630 N629 1.328 . S
C630 C631 1.457 . S
C630 H635 0.929 . S
C631 C630 1.457 . S
C631 C632 1.291 . S
C631 H644 0.931 . S
C632 C631 1.291 . S
C632 C633 1.373 . S
C632 H645 0.929 . S
C633 C632 1.373 . S
C633 C634 1.396 . S
C633 C640 1.403 . S
C634 C624 1.476 . S
C634 N629 1.318 . S
C634 C633 1.396 . S
H635 C630 0.929 . S
O636 Mn612 2.385 . S
O636 C614 1.234 . S
O637 Mn612 2.209 . S
O637 Mn613 2.215 . S
O637 C614 1.283 . S
O638 Mn612 2.094 . S
O638 C616 1.240 . S
O639 Mn613 2.117 . S
O639 C616 1.264 . S
C640 C633 1.403 . S
C640 C641 1.399 . S
C640 H646 0.929 . S
C641 C621 1.449 . S
C641 C640 1.399 . S
C641 H647 0.930 . S
H642 C622 0.931 . S
H643 C623 0.930 . S
H644 C631 0.931 . S
H645 C632 0.929 . S
H646 C640 0.929 . S
H647 C641 0.930 . S
H648 C667 0.949 . S
H649 C668 0.950 . S
H650 C670 0.950 . S
H651 C671 0.950 . S
H652 C673 0.950 . S
H653 C676 0.950 . S
H654 C677 0.950 . S
H655 C679 0.951 . S
H656 C680 0.949 . S
H657 C682 0.949 . S
H658 C683 0.950 . S
H659 C685 0.950 . S
H660 C686 0.950 . S
H661 C688 0.950 . S
H662 C691 0.950 . S
H663 C692 0.950 . S
H664 C694 0.951 . S
H665 C695 0.949 . S
C666 C667 1.376 . S
C666 C671 1.386 . S
C666 C672 1.483 . S
C667 H648 0.949 . S
C667 C666 1.376 . S
C667 C668 1.397 . S
C668 H649 0.950 . S
C668 C667 1.397 . S
C668 C669 1.391 . S
C669 C668 1.391 . S
C669 C670 1.405 . S
C670 H650 0.950 . S
C670 C669 1.405 . S
C670 C671 1.367 . S
C671 H651 0.950 . S
C671 C666 1.386 . S
C671 C670 1.367 . S
C672 C666 1.483 . S
C672 C673 1.382 . S
C672 C674 1.403 . S
C673 H652 0.950 . S
C673 C672 1.382 . S
C673 C689 1.411 . S
C674 C672 1.403 . S
C674 C675 1.489 . S
C674 C688 1.411 . S
C675 C674 1.489 . S
C675 C676 1.383 . S
C675 C680 1.382 . S
C676 H653 0.950 . S
C676 C675 1.383 . S
C676 C677 1.395 . S
C677 H654 0.950 . S
C677 C676 1.395 . S
C677 C678 1.288 . S
C678 C677 1.288 . S
C678 C679 1.392 . S
C679 H655 0.951 . S
C679 C678 1.392 . S
C679 C680 1.392 . S
C680 H656 0.949 . S
C680 C675 1.382 . S
C680 C679 1.392 . S
C681 C682 1.376 . S
C681 C686 1.386 . S
C681 C687 1.483 . S
C682 H657 0.949 . S
C682 C681 1.376 . S
C682 C683 1.397 . S
C683 H658 0.950 . S
C683 C682 1.397 . S
C683 C684 1.391 . S
C684 C683 1.391 . S
C684 C685 1.405 . S
C685 H659 0.950 . S
C685 C684 1.405 . S
C685 C686 1.367 . S
C686 H660 0.950 . S
C686 C681 1.386 . S
C686 C685 1.367 . S
C687 C681 1.483 . S
C687 C688 1.382 . S
C687 C689 1.403 . S
C688 H661 0.950 . S
C688 C674 1.411 . S
C688 C687 1.382 . S
C689 C673 1.411 . S
C689 C687 1.403 . S
C689 C690 1.489 . S
C690 C689 1.489 . S
C690 C691 1.383 . S
C690 C695 1.382 . S
C691 H662 0.950 . S
C691 C690 1.383 . S
C691 C692 1.395 . S
C692 H663 0.950 . S
C692 C691 1.395 . S
C692 C693 1.288 . S
C693 C692 1.288 . S
C693 C694 1.392 . S
C694 H664 0.951 . S
C694 C693 1.392 . S
C694 C695 1.392 . S
C695 H665 0.949 . S
C695 C690 1.382 . S
C695 C694 1.392 . S
H696 C715 0.949 . S
H697 C716 0.950 . S
H698 C718 0.950 . S
H699 C719 0.950 . S
H700 C721 0.950 . S
H701 C724 0.950 . S
H702 C725 0.950 . S
H703 C727 0.951 . S
H704 C728 0.949 . S
H705 C730 0.949 . S
H706 C731 0.950 . S
H707 C733 0.950 . S
H708 C734 0.950 . S
H709 C736 0.950 . S
H710 C739 0.950 . S
H711 C740 0.950 . S
H712 C742 0.951 . S
H713 C743 0.949 . S
C714 C715 1.376 . S
C714 C719 1.386 . S
C714 C720 1.483 . S
C715 H696 0.949 . S
C715 C714 1.376 . S
C715 C716 1.397 . S
C716 H697 0.950 . S
C716 C715 1.397 . S
C716 C717 1.391 . S
C717 C716 1.391 . S
C717 C718 1.405 . S
C718 H698 0.950 . S
C718 C717 1.405 . S
C718 C719 1.367 . S
C719 H699 0.950 . S
C719 C714 1.386 . S
C719 C718 1.367 . S
C720 C714 1.483 . S
C720 C721 1.382 . S
C720 C722 1.403 . S
C721 H700 0.950 . S
C721 C720 1.382 . S
C721 C737 1.411 . S
C722 C720 1.403 . S
C722 C723 1.489 . S
C722 C736 1.411 . S
C723 C722 1.489 . S
C723 C724 1.383 . S
C723 C728 1.382 . S
C724 H701 0.950 . S
C724 C723 1.383 . S
C724 C725 1.395 . S
C725 H702 0.950 . S
C725 C724 1.395 . S
C725 C726 1.288 . S
C726 C725 1.288 . S
C726 C727 1.392 . S
C727 H703 0.951 . S
C727 C726 1.392 . S
C727 C728 1.392 . S
C728 H704 0.949 . S
C728 C723 1.382 . S
C728 C727 1.392 . S
C729 C730 1.376 . S
C729 C734 1.386 . S
C729 C735 1.483 . S
C730 H705 0.949 . S
C730 C729 1.376 . S
C730 C731 1.397 . S
C731 H706 0.950 . S
C731 C730 1.397 . S
C731 C732 1.391 . S
C732 C731 1.391 . S
C732 C733 1.405 . S
C733 H707 0.950 . S
C733 C732 1.405 . S
C733 C734 1.367 . S
C734 H708 0.950 . S
C734 C729 1.386 . S
C734 C733 1.367 . S
C735 C729 1.483 . S
C735 C736 1.382 . S
C735 C737 1.403 . S
C736 H709 0.950 . S
C736 C722 1.411 . S
C736 C735 1.382 . S
C737 C721 1.411 . S
C737 C735 1.403 . S
C737 C738 1.489 . S
C738 C737 1.489 . S
C738 C739 1.383 . S
C738 C743 1.382 . S
C739 H710 0.950 . S
C739 C738 1.383 . S
C739 C740 1.395 . S
C740 H711 0.950 . S
C740 C739 1.395 . S
C740 C741 1.288 . S
C741 C740 1.288 . S
C741 C742 1.392 . S
C742 H712 0.951 . S
C742 C741 1.392 . S
C742 C743 1.392 . S
C743 H713 0.949 . S
C743 C738 1.382 . S
C743 C742 1.392 . S
H744 C763 0.949 . S
H745 C764 0.950 . S
H746 C766 0.950 . S
H747 C767 0.950 . S
H748 C769 0.950 . S
H749 C772 0.950 . S
H750 C773 0.950 . S
H751 C775 0.951 . S
H752 C776 0.949 . S
H753 C778 0.949 . S
H754 C779 0.950 . S
H755 C781 0.950 . S
H756 C782 0.950 . S
H757 C784 0.950 . S
H758 C787 0.950 . S
H759 C788 0.950 . S
H760 C790 0.951 . S
H761 C791 0.949 . S
C762 C763 1.376 . S
C762 C767 1.386 . S
C762 C768 1.483 . S
C763 H744 0.949 . S
C763 C762 1.376 . S
C763 C764 1.397 . S
C764 H745 0.950 . S
C764 C763 1.397 . S
C764 C765 1.391 . S
C765 C764 1.391 . S
C765 C766 1.405 . S
C766 H746 0.950 . S
C766 C765 1.405 . S
C766 C767 1.367 . S
C767 H747 0.950 . S
C767 C762 1.386 . S
C767 C766 1.367 . S
C768 C762 1.483 . S
C768 C769 1.382 . S
C768 C770 1.403 . S
C769 H748 0.950 . S
C769 C768 1.382 . S
C769 C785 1.411 . S
C770 C768 1.403 . S
C770 C771 1.489 . S
C770 C784 1.411 . S
C771 C770 1.489 . S
C771 C772 1.383 . S
C771 C776 1.382 . S
C772 H749 0.950 . S
C772 C771 1.383 . S
C772 C773 1.395 . S
C773 H750 0.950 . S
C773 C772 1.395 . S
C773 C774 1.288 . S
C774 C773 1.288 . S
C774 C775 1.392 . S
C775 H751 0.951 . S
C775 C774 1.392 . S
C775 C776 1.392 . S
C776 H752 0.949 . S
C776 C771 1.382 . S
C776 C775 1.392 . S
C777 C778 1.376 . S
C777 C782 1.386 . S
C777 C783 1.483 . S
C778 H753 0.949 . S
C778 C777 1.376 . S
C778 C779 1.397 . S
C779 H754 0.950 . S
C779 C778 1.397 . S
C779 C780 1.391 . S
C780 C779 1.391 . S
C780 C781 1.405 . S
C781 H755 0.950 . S
C781 C780 1.405 . S
C781 C782 1.367 . S
C782 H756 0.950 . S
C782 C777 1.386 . S
C782 C781 1.367 . S
C783 C777 1.483 . S
C783 C784 1.382 . S
C783 C785 1.403 . S
C784 H757 0.950 . S
C784 C770 1.411 . S
C784 C783 1.382 . S
C785 C769 1.411 . S
C785 C783 1.403 . S
C785 C786 1.489 . S
C786 C785 1.489 . S
C786 C787 1.383 . S
C786 C791 1.382 . S
C787 H758 0.950 . S
C787 C786 1.383 . S
C787 C788 1.395 . S
C788 H759 0.950 . S
C788 C787 1.395 . S
C788 C789 1.288 . S
C789 C788 1.288 . S
C789 C790 1.392 . S
C790 H760 0.951 . S
C790 C789 1.392 . S
C790 C791 1.392 . S
C791 H761 0.949 . S
C791 C786 1.382 . S
C791 C790 1.392 . S
H792 C811 0.949 . S
H793 C812 0.950 . S
H794 C814 0.950 . S
H795 C815 0.950 . S
H796 C817 0.950 . S
H797 C820 0.950 . S
H798 C821 0.950 . S
H799 C823 0.951 . S
H800 C824 0.949 . S
H801 C826 0.949 . S
H802 C827 0.950 . S
H803 C829 0.950 . S
H804 C830 0.950 . S
H805 C832 0.950 . S
H806 C835 0.950 . S
H807 C836 0.950 . S
H808 C838 0.951 . S
H809 C839 0.949 . S
C810 C811 1.376 . S
C810 C815 1.386 . S
C810 C816 1.483 . S
C811 H792 0.949 . S
C811 C810 1.376 . S
C811 C812 1.397 . S
C812 H793 0.950 . S
C812 C811 1.397 . S
C812 C813 1.391 . S
C813 C812 1.391 . S
C813 C814 1.405 . S
C814 H794 0.950 . S
C814 C813 1.405 . S
C814 C815 1.367 . S
C815 H795 0.950 . S
C815 C810 1.386 . S
C815 C814 1.367 . S
C816 C810 1.483 . S
C816 C817 1.382 . S
C816 C818 1.403 . S
C817 H796 0.950 . S
C817 C816 1.382 . S
C817 C833 1.411 . S
C818 C816 1.403 . S
C818 C819 1.489 . S
C818 C832 1.411 . S
C819 C818 1.489 . S
C819 C820 1.383 . S
C819 C824 1.382 . S
C820 H797 0.950 . S
C820 C819 1.383 . S
C820 C821 1.395 . S
C821 H798 0.950 . S
C821 C820 1.395 . S
C821 C822 1.288 . S
C822 C821 1.288 . S
C822 C823 1.392 . S
C823 H799 0.951 . S
C823 C822 1.392 . S
C823 C824 1.392 . S
C824 H800 0.949 . S
C824 C819 1.382 . S
C824 C823 1.392 . S
C825 C826 1.376 . S
C825 C830 1.386 . S
C825 C831 1.483 . S
C826 H801 0.949 . S
C826 C825 1.376 . S
C826 C827 1.397 . S
C827 H802 0.950 . S
C827 C826 1.397 . S
C827 C828 1.391 . S
C828 C827 1.391 . S
C828 C829 1.405 . S
C829 H803 0.950 . S
C829 C828 1.405 . S
C829 C830 1.367 . S
C830 H804 0.950 . S
C830 C825 1.386 . S
C830 C829 1.367 . S
C831 C825 1.483 . S
C831 C832 1.382 . S
C831 C833 1.403 . S
C832 H805 0.950 . S
C832 C818 1.411 . S
C832 C831 1.382 . S
C833 C817 1.411 . S
C833 C831 1.403 . S
C833 C834 1.489 . S
C834 C833 1.489 . S
C834 C835 1.383 . S
C834 C839 1.382 . S
C835 H806 0.950 . S
C835 C834 1.383 . S
C835 C836 1.395 . S
C836 H807 0.950 . S
C836 C835 1.395 . S
C836 C837 1.288 . S
C837 C836 1.288 . S
C837 C838 1.392 . S
C838 H808 0.951 . S
C838 C837 1.392 . S
C838 C839 1.392 . S
C839 H809 0.949 . S
C839 C834 1.382 . S
C839 C838 1.392 . S
H840 C859 0.949 . S
H841 C860 0.950 . S
H842 C862 0.950 . S
H843 C863 0.950 . S
H844 C865 0.950 . S
H845 C868 0.950 . S
H846 C869 0.950 . S
H847 C871 0.951 . S
H848 C872 0.949 . S
H849 C874 0.949 . S
H850 C875 0.950 . S
H851 C877 0.950 . S
H852 C878 0.950 . S
H853 C880 0.950 . S
H854 C883 0.950 . S
H855 C884 0.950 . S
H856 C886 0.951 . S
H857 C887 0.949 . S
C858 C859 1.376 . S
C858 C863 1.386 . S
C858 C864 1.483 . S
C859 H840 0.949 . S
C859 C858 1.376 . S
C859 C860 1.397 . S
C860 H841 0.950 . S
C860 C859 1.397 . S
C860 C861 1.391 . S
C861 C860 1.391 . S
C861 C862 1.405 . S
C862 H842 0.950 . S
C862 C861 1.405 . S
C862 C863 1.367 . S
C863 H843 0.950 . S
C863 C858 1.386 . S
C863 C862 1.367 . S
C864 C858 1.483 . S
C864 C865 1.382 . S
C864 C866 1.403 . S
C865 H844 0.950 . S
C865 C864 1.382 . S
C865 C881 1.411 . S
C866 C864 1.403 . S
C866 C867 1.489 . S
C866 C880 1.411 . S
C867 C866 1.489 . S
C867 C868 1.383 . S
C867 C872 1.382 . S
C868 H845 0.950 . S
C868 C867 1.383 . S
C868 C869 1.395 . S
C869 H846 0.950 . S
C869 C868 1.395 . S
C869 C870 1.288 . S
C870 C869 1.288 . S
C870 C871 1.392 . S
C871 H847 0.951 . S
C871 C870 1.392 . S
C871 C872 1.392 . S
C872 H848 0.949 . S
C872 C867 1.382 . S
C872 C871 1.392 . S
C873 C874 1.376 . S
C873 C878 1.386 . S
C873 C879 1.483 . S
C874 H849 0.949 . S
C874 C873 1.376 . S
C874 C875 1.397 . S
C875 H850 0.950 . S
C875 C874 1.397 . S
C875 C876 1.391 . S
C876 C875 1.391 . S
C876 C877 1.405 . S
C877 H851 0.950 . S
C877 C876 1.405 . S
C877 C878 1.367 . S
C878 H852 0.950 . S
C878 C873 1.386 . S
C878 C877 1.367 . S
C879 C873 1.483 . S
C879 C880 1.382 . S
C879 C881 1.403 . S
C880 H853 0.950 . S
C880 C866 1.411 . S
C880 C879 1.382 . S
C881 C865 1.411 . S
C881 C879 1.403 . S
C881 C882 1.489 . S
C882 C881 1.489 . S
C882 C883 1.383 . S
C882 C887 1.382 . S
C883 H854 0.950 . S
C883 C882 1.383 . S
C883 C884 1.395 . S
C884 H855 0.950 . S
C884 C883 1.395 . S
C884 C885 1.288 . S
C885 C884 1.288 . S
C885 C886 1.392 . S
C886 H856 0.951 . S
C886 C885 1.392 . S
C886 C887 1.392 . S
C887 H857 0.949 . S
C887 C882 1.382 . S
C887 C886 1.392 . S
H888 C907 0.949 . S
H889 C908 0.950 . S
H890 C910 0.950 . S
H891 C911 0.950 . S
H892 C913 0.950 . S
H893 C916 0.950 . S
H894 C917 0.950 . S
H895 C919 0.951 . S
H896 C920 0.949 . S
H897 C922 0.949 . S
H898 C923 0.950 . S
H899 C925 0.950 . S
H900 C926 0.950 . S
H901 C928 0.950 . S
H902 C931 0.950 . S
H903 C932 0.950 . S
H904 C934 0.951 . S
H905 C935 0.949 . S
C906 C907 1.376 . S
C906 C911 1.386 . S
C906 C912 1.483 . S
C907 H888 0.949 . S
C907 C906 1.376 . S
C907 C908 1.397 . S
C908 H889 0.950 . S
C908 C907 1.397 . S
C908 C909 1.391 . S
C909 C908 1.391 . S
C909 C910 1.405 . S
C910 H890 0.950 . S
C910 C909 1.405 . S
C910 C911 1.367 . S
C911 H891 0.950 . S
C911 C906 1.386 . S
C911 C910 1.367 . S
C912 C906 1.483 . S
C912 C913 1.382 . S
C912 C914 1.403 . S
C913 H892 0.950 . S
C913 C912 1.382 . S
C913 C929 1.411 . S
C914 C912 1.403 . S
C914 C915 1.489 . S
C914 C928 1.411 . S
C915 C914 1.489 . S
C915 C916 1.383 . S
C915 C920 1.382 . S
C916 H893 0.950 . S
C916 C915 1.383 . S
C916 C917 1.395 . S
C917 H894 0.950 . S
C917 C916 1.395 . S
C917 C918 1.288 . S
C918 C917 1.288 . S
C918 C919 1.392 . S
C919 H895 0.951 . S
C919 C918 1.392 . S
C919 C920 1.392 . S
C920 H896 0.949 . S
C920 C915 1.382 . S
C920 C919 1.392 . S
C921 C922 1.376 . S
C921 C926 1.386 . S
C921 C927 1.483 . S
C922 H897 0.949 . S
C922 C921 1.376 . S
C922 C923 1.397 . S
C923 H898 0.950 . S
C923 C922 1.397 . S
C923 C924 1.391 . S
C924 C923 1.391 . S
C924 C925 1.405 . S
C925 H899 0.950 . S
C925 C924 1.405 . S
C925 C926 1.367 . S
C926 H900 0.950 . S
C926 C921 1.386 . S
C926 C925 1.367 . S
C927 C921 1.483 . S
C927 C928 1.382 . S
C927 C929 1.403 . S
C928 H901 0.950 . S
C928 C914 1.411 . S
C928 C927 1.382 . S
C929 C913 1.411 . S
C929 C927 1.403 . S
C929 C930 1.489 . S
C930 C929 1.489 . S
C930 C931 1.383 . S
C930 C935 1.382 . S
C931 H902 0.950 . S
C931 C930 1.383 . S
C931 C932 1.395 . S
C932 H903 0.950 . S
C932 C931 1.395 . S
C932 C933 1.288 . S
C933 C932 1.288 . S
C933 C934 1.392 . S
C934 H904 0.951 . S
C934 C933 1.392 . S
C934 C935 1.392 . S
C935 H905 0.949 . S
C935 C930 1.382 . S
C935 C934 1.392 . S
H936 C955 0.949 . S
H937 C956 0.950 . S
H938 C958 0.950 . S
H939 C959 0.950 . S
H940 C961 0.950 . S
H941 C964 0.950 . S
H942 C965 0.950 . S
H943 C967 0.951 . S
H944 C968 0.949 . S
H945 C970 0.949 . S
H946 C971 0.950 . S
H947 C973 0.950 . S
H948 C974 0.950 . S
H949 C976 0.950 . S
H950 C979 0.950 . S
H951 C980 0.950 . S
H952 C982 0.951 . S
H953 C983 0.949 . S
C954 C955 1.376 . S
C954 C959 1.386 . S
C954 C960 1.483 . S
C955 H936 0.949 . S
C955 C954 1.376 . S
C955 C956 1.397 . S
C956 H937 0.950 . S
C956 C955 1.397 . S
C956 C957 1.391 . S
C957 C956 1.391 . S
C957 C958 1.405 . S
C958 H938 0.950 . S
C958 C957 1.405 . S
C958 C959 1.367 . S
C959 H939 0.950 . S
C959 C954 1.386 . S
C959 C958 1.367 . S
C960 C954 1.483 . S
C960 C961 1.382 . S
C960 C962 1.403 . S
C961 H940 0.950 . S
C961 C960 1.382 . S
C961 C977 1.411 . S
C962 C960 1.403 . S
C962 C963 1.489 . S
C962 C976 1.411 . S
C963 C962 1.489 . S
C963 C964 1.383 . S
C963 C968 1.382 . S
C964 H941 0.950 . S
C964 C963 1.383 . S
C964 C965 1.395 . S
C965 H942 0.950 . S
C965 C964 1.395 . S
C965 C966 1.288 . S
C966 C965 1.288 . S
C966 C967 1.392 . S
C967 H943 0.951 . S
C967 C966 1.392 . S
C967 C968 1.392 . S
C968 H944 0.949 . S
C968 C963 1.382 . S
C968 C967 1.392 . S
C969 C970 1.376 . S
C969 C974 1.386 . S
C969 C975 1.483 . S
C970 H945 0.949 . S
C970 C969 1.376 . S
C970 C971 1.397 . S
C971 H946 0.950 . S
C971 C970 1.397 . S
C971 C972 1.391 . S
C972 C971 1.391 . S
C972 C973 1.405 . S
C973 H947 0.950 . S
C973 C972 1.405 . S
C973 C974 1.367 . S
C974 H948 0.950 . S
C974 C969 1.386 . S
C974 C973 1.367 . S
C975 C969 1.483 . S
C975 C976 1.382 . S
C975 C977 1.403 . S
C976 H949 0.950 . S
C976 C962 1.411 . S
C976 C975 1.382 . S
C977 C961 1.411 . S
C977 C975 1.403 . S
C977 C978 1.489 . S
C978 C977 1.489 . S
C978 C979 1.383 . S
C978 C983 1.382 . S
C979 H950 0.950 . S
C979 C978 1.383 . S
C979 C980 1.395 . S
C980 H951 0.950 . S
C980 C979 1.395 . S
C980 C981 1.288 . S
C981 C980 1.288 . S
C981 C982 1.392 . S
C982 H952 0.951 . S
C982 C981 1.392 . S
C982 C983 1.392 . S
C983 H953 0.949 . S
C983 C978 1.382 . S
C983 C982 1.392 . S
H984 C1003 0.949 . S
H985 C1004 0.950 . S
H986 C1006 0.950 . S
H987 C1007 0.950 . S
H988 C1009 0.950 . S
H989 C1012 0.950 . S
H990 C1013 0.950 . S
H991 C1015 0.951 . S
H992 C1016 0.949 . S
H993 C1018 0.949 . S
H994 C1019 0.950 . S
H995 C1021 0.950 . S
H996 C1022 0.950 . S
H997 C1024 0.950 . S
H998 C1027 0.950 . S
H999 C1028 0.950 . S
H1000 C1030 0.951 . S
H1001 C1031 0.949 . S
C1002 C1003 1.376 . S
C1002 C1007 1.386 . S
C1002 C1008 1.483 . S
C1003 H984 0.949 . S
C1003 C1002 1.376 . S
C1003 C1004 1.397 . S
C1004 H985 0.950 . S
C1004 C1003 1.397 . S
C1004 C1005 1.391 . S
C1005 C1004 1.391 . S
C1005 C1006 1.405 . S
C1006 H986 0.950 . S
C1006 C1005 1.405 . S
C1006 C1007 1.367 . S
C1007 H987 0.950 . S
C1007 C1002 1.386 . S
C1007 C1006 1.367 . S
C1008 C1002 1.483 . S
C1008 C1009 1.382 . S
C1008 C1010 1.403 . S
C1009 H988 0.950 . S
C1009 C1008 1.382 . S
C1009 C1025 1.411 . S
C1010 C1008 1.403 . S
C1010 C1011 1.489 . S
C1010 C1024 1.411 . S
C1011 C1010 1.489 . S
C1011 C1012 1.383 . S
C1011 C1016 1.382 . S
C1012 H989 0.950 . S
C1012 C1011 1.383 . S
C1012 C1013 1.395 . S
C1013 H990 0.950 . S
C1013 C1012 1.395 . S
C1013 C1014 1.288 . S
C1014 C1013 1.288 . S
C1014 C1015 1.392 . S
C1015 H991 0.951 . S
C1015 C1014 1.392 . S
C1015 C1016 1.392 . S
C1016 H992 0.949 . S
C1016 C1011 1.382 . S
C1016 C1015 1.392 . S
C1017 C1018 1.376 . S
C1017 C1022 1.386 . S
C1017 C1023 1.483 . S
C1018 H993 0.949 . S
C1018 C1017 1.376 . S
C1018 C1019 1.397 . S
C1019 H994 0.950 . S
C1019 C1018 1.397 . S
C1019 C1020 1.391 . S
C1020 C1019 1.391 . S
C1020 C1021 1.405 . S
C1021 H995 0.950 . S
C1021 C1020 1.405 . S
C1021 C1022 1.367 . S
C1022 H996 0.950 . S
C1022 C1017 1.386 . S
C1022 C1021 1.367 . S
C1023 C1017 1.483 . S
C1023 C1024 1.382 . S
C1023 C1025 1.403 . S
C1024 H997 0.950 . S
C1024 C1010 1.411 . S
C1024 C1023 1.382 . S
C1025 C1009 1.411 . S
C1025 C1023 1.403 . S
C1025 C1026 1.489 . S
C1026 C1025 1.489 . S
C1026 C1027 1.383 . S
C1026 C1031 1.382 . S
C1027 H998 0.950 . S
C1027 C1026 1.383 . S
C1027 C1028 1.395 . S
C1028 H999 0.950 . S
C1028 C1027 1.395 . S
C1028 C1029 1.288 . S
C1029 C1028 1.288 . S
C1029 C1030 1.392 . S
C1030 H1000 0.951 . S
C1030 C1029 1.392 . S
C1030 C1031 1.392 . S
C1031 H1001 0.949 . S
C1031 C1026 1.382 . S
C1031 C1030 1.392 . S
H1032 C1051 0.949 . S
H1033 C1052 0.950 . S
H1034 C1054 0.950 . S
H1035 C1055 0.950 . S
H1036 C1057 0.950 . S
H1037 C1060 0.950 . S
H1038 C1061 0.950 . S
H1039 C1063 0.951 . S
H1040 C1064 0.949 . S
H1041 C1066 0.949 . S
H1042 C1067 0.950 . S
H1043 C1069 0.950 . S
H1044 C1070 0.950 . S
H1045 C1072 0.950 . S
H1046 C1075 0.950 . S
H1047 C1076 0.950 . S
H1048 C1078 0.951 . S
H1049 C1079 0.949 . S
C1050 C1051 1.376 . S
C1050 C1055 1.386 . S
C1050 C1056 1.483 . S
C1051 H1032 0.949 . S
C1051 C1050 1.376 . S
C1051 C1052 1.397 . S
C1052 H1033 0.950 . S
C1052 C1051 1.397 . S
C1052 C1053 1.391 . S
C1053 C1052 1.391 . S
C1053 C1054 1.405 . S
C1054 H1034 0.950 . S
C1054 C1053 1.405 . S
C1054 C1055 1.367 . S
C1055 H1035 0.950 . S
C1055 C1050 1.386 . S
C1055 C1054 1.367 . S
C1056 C1050 1.483 . S
C1056 C1057 1.382 . S
C1056 C1058 1.403 . S
C1057 H1036 0.950 . S
C1057 C1056 1.382 . S
C1057 C1073 1.411 . S
C1058 C1056 1.403 . S
C1058 C1059 1.489 . S
C1058 C1072 1.411 . S
C1059 C1058 1.489 . S
C1059 C1060 1.383 . S
C1059 C1064 1.382 . S
C1060 H1037 0.950 . S
C1060 C1059 1.383 . S
C1060 C1061 1.395 . S
C1061 H1038 0.950 . S
C1061 C1060 1.395 . S
C1061 C1062 1.288 . S
C1062 C1061 1.288 . S
C1062 C1063 1.392 . S
C1063 H1039 0.951 . S
C1063 C1062 1.392 . S
C1063 C1064 1.392 . S
C1064 H1040 0.949 . S
C1064 C1059 1.382 . S
C1064 C1063 1.392 . S
C1065 C1066 1.376 . S
C1065 C1070 1.386 . S
C1065 C1071 1.483 . S
C1066 H1041 0.949 . S
C1066 C1065 1.376 . S
C1066 C1067 1.397 . S
C1067 H1042 0.950 . S
C1067 C1066 1.397 . S
C1067 C1068 1.391 . S
C1068 C1067 1.391 . S
C1068 C1069 1.405 . S
C1069 H1043 0.950 . S
C1069 C1068 1.405 . S
C1069 C1070 1.367 . S
C1070 H1044 0.950 . S
C1070 C1065 1.386 . S
C1070 C1069 1.367 . S
C1071 C1065 1.483 . S
C1071 C1072 1.382 . S
C1071 C1073 1.403 . S
C1072 H1045 0.950 . S
C1072 C1058 1.411 . S
C1072 C1071 1.382 . S
C1073 C1057 1.411 . S
C1073 C1071 1.403 . S
C1073 C1074 1.489 . S
C1074 C1073 1.489 . S
C1074 C1075 1.383 . S
C1074 C1079 1.382 . S
C1075 H1046 0.950 . S
C1075 C1074 1.383 . S
C1075 C1076 1.395 . S
C1076 H1047 0.950 . S
C1076 C1075 1.395 . S
C1076 C1077 1.288 . S
C1077 C1076 1.288 . S
C1077 C1078 1.392 . S
C1078 H1048 0.951 . S
C1078 C1077 1.392 . S
C1078 C1079 1.392 . S
C1079 H1049 0.949 . S
C1079 C1074 1.382 . S
C1079 C1078 1.392 . S
H1080 C1099 0.949 . S
H1081 C1100 0.950 . S
H1082 C1102 0.950 . S
H1083 C1103 0.950 . S
H1084 C1105 0.950 . S
H1085 C1108 0.950 . S
H1086 C1109 0.950 . S
H1087 C1111 0.951 . S
H1088 C1112 0.949 . S
H1089 C1114 0.949 . S
H1090 C1115 0.950 . S
H1091 C1117 0.950 . S
H1092 C1118 0.950 . S
H1093 C1120 0.950 . S
H1094 C1123 0.950 . S
H1095 C1124 0.950 . S
H1096 C1126 0.951 . S
H1097 C1127 0.949 . S
C1098 C1099 1.376 . S
C1098 C1103 1.386 1_655 S
C1098 C1104 1.483 . S
C1099 H1080 0.949 . S
C1099 C1098 1.376 . S
C1099 C1100 1.397 . S
C1100 H1081 0.950 . S
C1100 C1099 1.397 . S
C1100 C1101 1.391 . S
C1101 C1100 1.391 . S
C1101 C1102 1.405 1_655 S
C1102 H1082 0.950 . S
C1102 C1101 1.405 1_455 S
C1102 C1103 1.367 . S
C1103 H1083 0.950 . S
C1103 C1098 1.386 1_455 S
C1103 C1102 1.367 . S
C1104 C1098 1.483 . S
C1104 C1105 1.382 . S
C1104 C1106 1.403 1_655 S
C1105 H1084 0.950 . S
C1105 C1104 1.382 . S
C1105 C1121 1.411 . S
C1106 C1104 1.403 1_455 S
C1106 C1107 1.489 . S
C1106 C1120 1.411 . S
C1107 C1106 1.489 . S
C1107 C1108 1.383 1_455 S
C1107 C1112 1.382 . S
C1108 H1085 0.950 . S
C1108 C1107 1.383 1_655 S
C1108 C1109 1.395 . S
C1109 H1086 0.950 . S
C1109 C1108 1.395 . S
C1109 C1110 1.288 1_655 S
C1110 C1109 1.288 1_455 S
C1110 C1111 1.392 . S
C1111 H1087 0.951 . S
C1111 C1110 1.392 . S
C1111 C1112 1.392 . S
C1112 H1088 0.949 . S
C1112 C1107 1.382 . S
C1112 C1111 1.392 . S
C1113 C1114 1.376 . S
C1113 C1118 1.386 1_455 S
C1113 C1119 1.483 . S
C1114 H1089 0.949 . S
C1114 C1113 1.376 . S
C1114 C1115 1.397 . S
C1115 H1090 0.950 . S
C1115 C1114 1.397 . S
C1115 C1116 1.391 . S
C1116 C1115 1.391 . S
C1116 C1117 1.405 1_455 S
C1117 H1091 0.950 . S
C1117 C1116 1.405 1_655 S
C1117 C1118 1.367 . S
C1118 H1092 0.950 . S
C1118 C1113 1.386 1_655 S
C1118 C1117 1.367 . S
C1119 C1113 1.483 . S
C1119 C1120 1.382 . S
C1119 C1121 1.403 1_455 S
C1120 H1093 0.950 . S
C1120 C1106 1.411 . S
C1120 C1119 1.382 . S
C1121 C1105 1.411 . S
C1121 C1119 1.403 1_655 S
C1121 C1122 1.489 . S
C1122 C1121 1.489 . S
C1122 C1123 1.383 1_655 S
C1122 C1127 1.382 . S
C1123 H1094 0.950 . S
C1123 C1122 1.383 1_455 S
C1123 C1124 1.395 . S
C1124 H1095 0.950 . S
C1124 C1123 1.395 . S
C1124 C1125 1.288 1_455 S
C1125 C1124 1.288 1_655 S
C1125 C1126 1.392 . S
C1126 H1096 0.951 . S
C1126 C1125 1.392 . S
C1126 C1127 1.392 . S
C1127 H1097 0.949 . S
C1127 C1122 1.382 . S
C1127 C1126 1.392 . S
H1128 C1147 0.949 . S
H1129 C1148 0.950 . S
H1130 C1150 0.950 . S
H1131 C1151 0.950 . S
H1132 C1153 0.950 . S
H1133 C1156 0.950 . S
H1134 C1157 0.950 . S
H1135 C1159 0.951 . S
H1136 C1160 0.949 . S
H1137 C1162 0.949 . S
H1138 C1163 0.950 . S
H1139 C1165 0.950 . S
H1140 C1166 0.950 . S
H1141 C1168 0.950 . S
H1142 C1171 0.950 . S
H1143 C1172 0.950 . S
H1144 C1174 0.951 . S
H1145 C1175 0.949 . S
C1146 C1147 1.376 . S
C1146 C1151 1.386 . S
C1146 C1152 1.483 . S
C1147 H1128 0.949 . S
C1147 C1146 1.376 . S
C1147 C1148 1.397 . S
C1148 H1129 0.950 . S
C1148 C1147 1.397 . S
C1148 C1149 1.391 . S
C1149 C1148 1.391 . S
C1149 C1150 1.405 . S
C1150 H1130 0.950 . S
C1150 C1149 1.405 . S
C1150 C1151 1.367 . S
C1151 H1131 0.950 . S
C1151 C1146 1.386 . S
C1151 C1150 1.367 . S
C1152 C1146 1.483 . S
C1152 C1153 1.382 . S
C1152 C1154 1.403 . S
C1153 H1132 0.950 . S
C1153 C1152 1.382 . S
C1153 C1169 1.411 . S
C1154 C1152 1.403 . S
C1154 C1155 1.489 . S
C1154 C1168 1.411 . S
C1155 C1154 1.489 . S
C1155 C1156 1.383 . S
C1155 C1160 1.382 . S
C1156 H1133 0.950 . S
C1156 C1155 1.383 . S
C1156 C1157 1.395 . S
C1157 H1134 0.950 . S
C1157 C1156 1.395 . S
C1157 C1158 1.288 . S
C1158 C1157 1.288 . S
C1158 C1159 1.392 . S
C1159 H1135 0.951 . S
C1159 C1158 1.392 . S
C1159 C1160 1.392 . S
C1160 H1136 0.949 . S
C1160 C1155 1.382 . S
C1160 C1159 1.392 . S
C1161 C1162 1.376 . S
C1161 C1166 1.386 . S
C1161 C1167 1.483 . S
C1162 H1137 0.949 . S
C1162 C1161 1.376 . S
C1162 C1163 1.397 . S
C1163 H1138 0.950 . S
C1163 C1162 1.397 . S
C1163 C1164 1.391 . S
C1164 C1163 1.391 . S
C1164 C1165 1.405 . S
C1165 H1139 0.950 . S
C1165 C1164 1.405 . S
C1165 C1166 1.367 . S
C1166 H1140 0.950 . S
C1166 C1161 1.386 . S
C1166 C1165 1.367 . S
C1167 C1161 1.483 . S
C1167 C1168 1.382 . S
C1167 C1169 1.403 . S
C1168 H1141 0.950 . S
C1168 C1154 1.411 . S
C1168 C1167 1.382 . S
C1169 C1153 1.411 . S
C1169 C1167 1.403 . S
C1169 C1170 1.489 . S
C1170 C1169 1.489 . S
C1170 C1171 1.383 . S
C1170 C1175 1.382 . S
C1171 H1142 0.950 . S
C1171 C1170 1.383 . S
C1171 C1172 1.395 . S
C1172 H1143 0.950 . S
C1172 C1171 1.395 . S
C1172 C1173 1.288 . S
C1173 C1172 1.288 . S
C1173 C1174 1.392 . S
C1174 H1144 0.951 . S
C1174 C1173 1.392 . S
C1174 C1175 1.392 . S
C1175 H1145 0.949 . S
C1175 C1170 1.382 . S
C1175 C1174 1.392 . S
H1176 C1195 0.949 . S
H1177 C1196 0.950 . S
H1178 C1198 0.950 . S
H1179 C1199 0.950 . S
H1180 C1201 0.950 . S
H1181 C1204 0.950 . S
H1182 C1205 0.950 . S
H1183 C1207 0.951 . S
H1184 C1208 0.949 . S
H1185 C1210 0.949 . S
H1186 C1211 0.950 . S
H1187 C1213 0.950 . S
H1188 C1214 0.950 . S
H1189 C1216 0.950 . S
H1190 C1219 0.950 . S
H1191 C1220 0.950 . S
H1192 C1222 0.951 . S
H1193 C1223 0.949 . S
C1194 C1195 1.376 . S
C1194 C1199 1.386 1_545 S
C1194 C1200 1.483 . S
C1195 H1176 0.949 . S
C1195 C1194 1.376 . S
C1195 C1196 1.397 . S
C1196 H1177 0.950 . S
C1196 C1195 1.397 . S
C1196 C1197 1.391 . S
C1197 C1196 1.391 . S
C1197 C1198 1.405 1_545 S
C1198 H1178 0.950 . S
C1198 C1197 1.405 1_565 S
C1198 C1199 1.367 . S
C1199 H1179 0.950 . S
C1199 C1194 1.386 1_565 S
C1199 C1198 1.367 . S
C1200 C1194 1.483 . S
C1200 C1201 1.382 . S
C1200 C1202 1.403 1_545 S
C1201 H1180 0.950 . S
C1201 C1200 1.382 . S
C1201 C1217 1.411 . S
C1202 C1200 1.403 1_565 S
C1202 C1203 1.489 . S
C1202 C1216 1.411 . S
C1203 C1202 1.489 . S
C1203 C1204 1.383 1_565 S
C1203 C1208 1.382 . S
C1204 H1181 0.950 . S
C1204 C1203 1.383 1_545 S
C1204 C1205 1.395 . S
C1205 H1182 0.950 . S
C1205 C1204 1.395 . S
C1205 C1206 1.288 1_545 S
C1206 C1205 1.288 1_565 S
C1206 C1207 1.392 . S
C1207 H1183 0.951 . S
C1207 C1206 1.392 . S
C1207 C1208 1.392 . S
C1208 H1184 0.949 . S
C1208 C1203 1.382 . S
C1208 C1207 1.392 . S
C1209 C1210 1.376 . S
C1209 C1214 1.386 1_565 S
C1209 C1215 1.483 . S
C1210 H1185 0.949 . S
C1210 C1209 1.376 . S
C1210 C1211 1.397 . S
C1211 H1186 0.950 . S
C1211 C1210 1.397 . S
C1211 C1212 1.391 . S
C1212 C1211 1.391 . S
C1212 C1213 1.405 1_565 S
C1213 H1187 0.950 . S
C1213 C1212 1.405 1_545 S
C1213 C1214 1.367 . S
C1214 H1188 0.950 . S
C1214 C1209 1.386 1_545 S
C1214 C1213 1.367 . S
C1215 C1209 1.483 . S
C1215 C1216 1.382 . S
C1215 C1217 1.403 1_565 S
C1216 H1189 0.950 . S
C1216 C1202 1.411 . S
C1216 C1215 1.382 . S
C1217 C1201 1.411 . S
C1217 C1215 1.403 1_545 S
C1217 C1218 1.489 . S
C1218 C1217 1.489 . S
C1218 C1219 1.383 1_545 S
C1218 C1223 1.382 . S
C1219 H1190 0.950 . S
C1219 C1218 1.383 1_565 S
C1219 C1220 1.395 . S
C1220 H1191 0.950 . S
C1220 C1219 1.395 . S
C1220 C1221 1.288 1_565 S
C1221 C1220 1.288 1_545 S
C1221 C1222 1.392 . S
C1222 H1192 0.951 . S
C1222 C1221 1.392 . S
C1222 C1223 1.392 . S
C1223 H1193 0.949 . S
C1223 C1218 1.382 . S
C1223 C1222 1.392 . S
H1224 C1243 0.949 . S
H1225 C1244 0.950 . S
H1226 C1246 0.950 . S
H1227 C1247 0.950 . S
H1228 C1249 0.950 . S
H1229 C1252 0.950 . S
H1230 C1253 0.950 . S
H1231 C1255 0.951 . S
H1232 C1256 0.949 . S
H1233 C1258 0.949 . S
H1234 C1259 0.950 . S
H1235 C1261 0.950 . S
H1236 C1262 0.950 . S
H1237 C1264 0.950 . S
H1238 C1267 0.950 . S
H1239 C1268 0.950 . S
H1240 C1270 0.951 . S
H1241 C1271 0.949 . S
C1242 C1243 1.378 . S
C1242 C1247 1.385 1_545 S
C1242 C1248 1.505 . S
C1243 H1224 0.949 . S
C1243 C1242 1.378 . S
C1243 C1244 1.397 . S
C1244 H1225 0.950 . S
C1244 C1243 1.397 . S
C1244 C1245 1.391 1_545 S
C1245 C1244 1.391 1_565 S
C1245 C1246 1.405 . S
C1246 H1226 0.950 . S
C1246 C1245 1.405 . S
C1246 C1247 1.367 . S
C1247 H1227 0.950 . S
C1247 C1242 1.385 1_565 S
C1247 C1246 1.367 . S
C1248 C1242 1.505 . S
C1248 C1249 1.361 . S
C1248 C1250 1.398 1_545 S
C1249 H1228 0.950 . S
C1249 C1248 1.361 . S
C1249 C1265 1.447 . S
C1250 C1248 1.398 1_565 S
C1250 C1251 1.486 . S
C1250 C1264 1.435 . S
C1251 C1250 1.486 . S
C1251 C1252 1.342 1_565 S
C1251 C1256 1.404 . S
C1252 H1229 0.950 . S
C1252 C1251 1.342 1_545 S
C1252 C1253 1.395 . S
C1253 H1230 0.950 . S
C1253 C1252 1.395 . S
C1253 C1254 1.331 . S
C1254 C1253 1.331 . S
C1254 C1255 1.312 1_545 S
C1255 H1231 0.951 . S
C1255 C1254 1.312 1_565 S
C1255 C1256 1.392 . S
C1256 H1232 0.949 . S
C1256 C1251 1.404 . S
C1256 C1255 1.392 . S
C1257 C1258 1.378 1_545 S
C1257 C1262 1.385 . S
C1257 C1263 1.496 1_545 S
C1258 H1233 0.949 . S
C1258 C1257 1.378 1_565 S
C1258 C1259 1.397 . S
C1259 H1234 0.950 . S
C1259 C1258 1.397 . S
C1259 C1260 1.391 1_565 S
C1260 C1259 1.391 1_545 S
C1260 C1261 1.405 . S
C1261 H1235 0.950 . S
C1261 C1260 1.405 . S
C1261 C1262 1.367 . S
C1262 H1236 0.950 . S
C1262 C1257 1.385 . S
C1262 C1261 1.367 . S
C1263 C1257 1.496 1_565 S
C1263 C1264 1.368 . S
C1263 C1265 1.398 1_565 S
C1264 H1237 0.950 . S
C1264 C1250 1.435 . S
C1264 C1263 1.368 . S
C1265 C1249 1.447 . S
C1265 C1263 1.398 1_545 S
C1265 C1266 1.486 . S
C1266 C1265 1.486 . S
C1266 C1267 1.321 1_545 S
C1266 C1271 1.417 . S
C1267 H1238 0.950 . S
C1267 C1266 1.321 1_565 S
C1267 C1268 1.395 . S
C1268 H1239 0.950 . S
C1268 C1267 1.395 . S
C1268 C1269 1.319 . S
C1269 C1268 1.319 . S
C1269 C1270 1.333 1_565 S
C1270 H1240 0.951 . S
C1270 C1269 1.333 1_545 S
C1270 C1271 1.392 . S
C1271 H1241 0.949 . S
C1271 C1266 1.417 . S
C1271 C1270 1.392 . S
H1272 C1291 0.949 . S
H1273 C1292 0.950 . S
H1274 C1294 0.950 . S
H1275 C1295 0.950 . S
H1276 C1297 0.950 . S
H1277 C1300 0.950 . S
H1278 C1301 0.950 . S
H1279 C1303 0.951 . S
H1280 C1304 0.949 . S
H1281 C1306 0.949 . S
H1282 C1307 0.950 . S
H1283 C1309 0.950 . S
H1284 C1310 0.950 . S
H1285 C1312 0.950 . S
H1286 C1315 0.950 . S
H1287 C1316 0.950 . S
H1288 C1318 0.951 . S
H1289 C1319 0.949 . S
C1290 C1291 1.376 . S
C1290 C1295 1.386 1_455 S
C1290 C1296 1.483 . S
C1291 H1272 0.949 . S
C1291 C1290 1.376 . S
C1291 C1292 1.397 . S
C1292 H1273 0.950 . S
C1292 C1291 1.397 . S
C1292 C1293 1.391 . S
C1293 C1292 1.391 . S
C1293 C1294 1.405 1_455 S
C1294 H1274 0.950 . S
C1294 C1293 1.405 1_655 S
C1294 C1295 1.367 . S
C1295 H1275 0.950 . S
C1295 C1290 1.386 1_655 S
C1295 C1294 1.367 . S
C1296 C1290 1.483 . S
C1296 C1297 1.382 . S
C1296 C1298 1.403 1_455 S
C1297 H1276 0.950 . S
C1297 C1296 1.382 . S
C1297 C1313 1.411 . S
C1298 C1296 1.403 1_655 S
C1298 C1299 1.489 . S
C1298 C1312 1.411 . S
C1299 C1298 1.489 . S
C1299 C1300 1.383 1_655 S
C1299 C1304 1.382 . S
C1300 H1277 0.950 . S
C1300 C1299 1.383 1_455 S
C1300 C1301 1.395 . S
C1301 H1278 0.950 . S
C1301 C1300 1.395 . S
C1301 C1302 1.288 1_455 S
C1302 C1301 1.288 1_655 S
C1302 C1303 1.392 . S
C1303 H1279 0.951 . S
C1303 C1302 1.392 . S
C1303 C1304 1.392 . S
C1304 H1280 0.949 . S
C1304 C1299 1.382 . S
C1304 C1303 1.392 . S
C1305 C1306 1.376 . S
C1305 C1310 1.386 1_655 S
C1305 C1311 1.483 . S
C1306 H1281 0.949 . S
C1306 C1305 1.376 . S
C1306 C1307 1.397 . S
C1307 H1282 0.950 . S
C1307 C1306 1.397 . S
C1307 C1308 1.391 . S
C1308 C1307 1.391 . S
C1308 C1309 1.405 1_655 S
C1309 H1283 0.950 . S
C1309 C1308 1.405 1_455 S
C1309 C1310 1.367 . S
C1310 H1284 0.950 . S
C1310 C1305 1.386 1_455 S
C1310 C1309 1.367 . S
C1311 C1305 1.483 . S
C1311 C1312 1.382 . S
C1311 C1313 1.403 1_655 S
C1312 H1285 0.950 . S
C1312 C1298 1.411 . S
C1312 C1311 1.382 . S
C1313 C1297 1.411 . S
C1313 C1311 1.403 1_455 S
C1313 C1314 1.489 . S
C1314 C1313 1.489 . S
C1314 C1315 1.383 1_455 S
C1314 C1319 1.382 . S
C1315 H1286 0.950 . S
C1315 C1314 1.383 1_655 S
C1315 C1316 1.395 . S
C1316 H1287 0.950 . S
C1316 C1315 1.395 . S
C1316 C1317 1.288 1_655 S
C1317 C1316 1.288 1_455 S
C1317 C1318 1.392 . S
C1318 H1288 0.951 . S
C1318 C1317 1.392 . S
C1318 C1319 1.392 . S
C1319 H1289 0.949 . S
C1319 C1314 1.382 . S
C1319 C1318 1.392 . S
H1320 C1339 0.949 . S
H1321 C1340 0.950 . S
H1322 C1342 0.950 . S
H1323 C1343 0.950 . S
H1324 C1345 0.950 . S
H1325 C1348 0.950 . S
H1326 C1349 0.950 . S
H1327 C1351 0.951 . S
H1328 C1352 0.949 . S
H1329 C1354 0.949 . S
H1330 C1355 0.950 . S
H1331 C1357 0.950 . S
H1332 C1358 0.950 . S
H1333 C1360 0.950 . S
H1334 C1363 0.950 . S
H1335 C1364 0.950 . S
H1336 C1366 0.951 . S
H1337 C1367 0.949 . S
C1338 C1339 1.376 . S
C1338 C1343 1.386 . S
C1338 C1344 1.483 . S
C1339 H1320 0.949 . S
C1339 C1338 1.376 . S
C1339 C1340 1.397 . S
C1340 H1321 0.950 . S
C1340 C1339 1.397 . S
C1340 C1341 1.391 . S
C1341 C1340 1.391 . S
C1341 C1342 1.405 . S
C1342 H1322 0.950 . S
C1342 C1341 1.405 . S
C1342 C1343 1.367 . S
C1343 H1323 0.950 . S
C1343 C1338 1.386 . S
C1343 C1342 1.367 . S
C1344 C1338 1.483 . S
C1344 C1345 1.382 . S
C1344 C1346 1.403 . S
C1345 H1324 0.950 . S
C1345 C1344 1.382 . S
C1345 C1361 1.411 . S
C1346 C1344 1.403 . S
C1346 C1347 1.489 . S
C1346 C1360 1.411 . S
C1347 C1346 1.489 . S
C1347 C1348 1.383 . S
C1347 C1352 1.382 . S
C1348 H1325 0.950 . S
C1348 C1347 1.383 . S
C1348 C1349 1.395 . S
C1349 H1326 0.950 . S
C1349 C1348 1.395 . S
C1349 C1350 1.288 . S
C1350 C1349 1.288 . S
C1350 C1351 1.392 . S
C1351 H1327 0.951 . S
C1351 C1350 1.392 . S
C1351 C1352 1.392 . S
C1352 H1328 0.949 . S
C1352 C1347 1.382 . S
C1352 C1351 1.392 . S
C1353 C1354 1.376 . S
C1353 C1358 1.386 . S
C1353 C1359 1.483 . S
C1354 H1329 0.949 . S
C1354 C1353 1.376 . S
C1354 C1355 1.397 . S
C1355 H1330 0.950 . S
C1355 C1354 1.397 . S
C1355 C1356 1.391 . S
C1356 C1355 1.391 . S
C1356 C1357 1.405 . S
C1357 H1331 0.950 . S
C1357 C1356 1.405 . S
C1357 C1358 1.367 . S
C1358 H1332 0.950 . S
C1358 C1353 1.386 . S
C1358 C1357 1.367 . S
C1359 C1353 1.483 . S
C1359 C1360 1.382 . S
C1359 C1361 1.403 . S
C1360 H1333 0.950 . S
C1360 C1346 1.411 . S
C1360 C1359 1.382 . S
C1361 C1345 1.411 . S
C1361 C1359 1.403 . S
C1361 C1362 1.489 . S
C1362 C1361 1.489 . S
C1362 C1363 1.383 . S
C1362 C1367 1.382 . S
C1363 H1334 0.950 . S
C1363 C1362 1.383 . S
C1363 C1364 1.395 . S
C1364 H1335 0.950 . S
C1364 C1363 1.395 . S
C1364 C1365 1.288 . S
C1365 C1364 1.288 . S
C1365 C1366 1.392 . S
C1366 H1336 0.951 . S
C1366 C1365 1.392 . S
C1366 C1367 1.392 . S
C1367 H1337 0.949 . S
C1367 C1362 1.382 . S
C1367 C1366 1.392 . S
H1368 C1387 0.949 . S
H1369 C1388 0.950 . S
H1370 C1390 0.950 . S
H1371 C1391 0.950 . S
H1372 C1393 0.950 . S
H1373 C1396 0.950 . S
H1374 C1397 0.950 . S
H1375 C1399 0.951 . S
H1376 C1400 0.949 . S
H1377 C1402 0.949 . S
H1378 C1403 0.950 . S
H1379 C1405 0.950 . S
H1380 C1406 0.950 . S
H1381 C1408 0.950 . S
H1382 C1411 0.950 . S
H1383 C1412 0.950 . S
H1384 C1414 0.951 . S
H1385 C1415 0.949 . S
C1386 C1387 1.376 . S
C1386 C1391 1.386 . S
C1386 C1392 1.483 . S
C1387 H1368 0.949 . S
C1387 C1386 1.376 . S
C1387 C1388 1.397 . S
C1388 H1369 0.950 . S
C1388 C1387 1.397 . S
C1388 C1389 1.391 . S
C1389 C1388 1.391 . S
C1389 C1390 1.405 . S
C1390 H1370 0.950 . S
C1390 C1389 1.405 . S
C1390 C1391 1.367 . S
C1391 H1371 0.950 . S
C1391 C1386 1.386 . S
C1391 C1390 1.367 . S
C1392 C1386 1.483 . S
C1392 C1393 1.382 . S
C1392 C1394 1.403 . S
C1393 H1372 0.950 . S
C1393 C1392 1.382 . S
C1393 C1409 1.411 . S
C1394 C1392 1.403 . S
C1394 C1395 1.489 . S
C1394 C1408 1.411 . S
C1395 C1394 1.489 . S
C1395 C1396 1.383 . S
C1395 C1400 1.382 . S
C1396 H1373 0.950 . S
C1396 C1395 1.383 . S
C1396 C1397 1.395 . S
C1397 H1374 0.950 . S
C1397 C1396 1.395 . S
C1397 C1398 1.288 . S
C1398 C1397 1.288 . S
C1398 C1399 1.392 . S
C1399 H1375 0.951 . S
C1399 C1398 1.392 . S
C1399 C1400 1.392 . S
C1400 H1376 0.949 . S
C1400 C1395 1.382 . S
C1400 C1399 1.392 . S
C1401 C1402 1.376 . S
C1401 C1406 1.386 . S
C1401 C1407 1.483 . S
C1402 H1377 0.949 . S
C1402 C1401 1.376 . S
C1402 C1403 1.397 . S
C1403 H1378 0.950 . S
C1403 C1402 1.397 . S
C1403 C1404 1.391 . S
C1404 C1403 1.391 . S
C1404 C1405 1.405 . S
C1405 H1379 0.950 . S
C1405 C1404 1.405 . S
C1405 C1406 1.367 . S
C1406 H1380 0.950 . S
C1406 C1401 1.386 . S
C1406 C1405 1.367 . S
C1407 C1401 1.483 . S
C1407 C1408 1.382 . S
C1407 C1409 1.403 . S
C1408 H1381 0.950 . S
C1408 C1394 1.411 . S
C1408 C1407 1.382 . S
C1409 C1393 1.411 . S
C1409 C1407 1.403 . S
C1409 C1410 1.489 . S
C1410 C1409 1.489 . S
C1410 C1411 1.383 . S
C1410 C1415 1.382 . S
C1411 H1382 0.950 . S
C1411 C1410 1.383 . S
C1411 C1412 1.395 . S
C1412 H1383 0.950 . S
C1412 C1411 1.395 . S
C1412 C1413 1.288 . S
C1413 C1412 1.288 . S
C1413 C1414 1.392 . S
C1414 H1384 0.951 . S
C1414 C1413 1.392 . S
C1414 C1415 1.392 . S
C1415 H1385 0.949 . S
C1415 C1410 1.382 . S
C1415 C1414 1.392 . S
H1416 C1435 0.949 . S
H1417 C1436 0.950 . S
H1418 C1438 0.950 . S
H1419 C1439 0.950 . S
H1420 C1441 0.950 . S
H1421 C1444 0.950 . S
H1422 C1445 0.950 . S
H1423 C1447 0.951 . S
H1424 C1448 0.949 . S
H1425 C1450 0.949 . S
H1426 C1451 0.950 . S
H1427 C1453 0.950 . S
H1428 C1454 0.950 . S
H1429 C1456 0.950 . S
H1430 C1459 0.950 . S
H1431 C1460 0.950 . S
H1432 C1462 0.951 . S
H1433 C1463 0.949 . S
C1434 C1435 1.376 . S
C1434 C1439 1.386 . S
C1434 C1440 1.483 . S
C1435 H1416 0.949 . S
C1435 C1434 1.376 . S
C1435 C1436 1.397 . S
C1436 H1417 0.950 . S
C1436 C1435 1.397 . S
C1436 C1437 1.391 . S
C1437 C1436 1.391 . S
C1437 C1438 1.405 . S
C1438 H1418 0.950 . S
C1438 C1437 1.405 . S
C1438 C1439 1.367 . S
C1439 H1419 0.950 . S
C1439 C1434 1.386 . S
C1439 C1438 1.367 . S
C1440 C1434 1.483 . S
C1440 C1441 1.382 . S
C1440 C1442 1.403 . S
C1441 H1420 0.950 . S
C1441 C1440 1.382 . S
C1441 C1457 1.411 . S
C1442 C1440 1.403 . S
C1442 C1443 1.489 . S
C1442 C1456 1.411 . S
C1443 C1442 1.489 . S
C1443 C1444 1.383 . S
C1443 C1448 1.382 . S
C1444 H1421 0.950 . S
C1444 C1443 1.383 . S
C1444 C1445 1.395 . S
C1445 H1422 0.950 . S
C1445 C1444 1.395 . S
C1445 C1446 1.288 . S
C1446 C1445 1.288 . S
C1446 C1447 1.392 . S
C1447 H1423 0.951 . S
C1447 C1446 1.392 . S
C1447 C1448 1.392 . S
C1448 H1424 0.949 . S
C1448 C1443 1.382 . S
C1448 C1447 1.392 . S
C1449 C1450 1.376 . S
C1449 C1454 1.386 . S
C1449 C1455 1.483 . S
C1450 H1425 0.949 . S
C1450 C1449 1.376 . S
C1450 C1451 1.397 . S
C1451 H1426 0.950 . S
C1451 C1450 1.397 . S
C1451 C1452 1.391 . S
C1452 C1451 1.391 . S
C1452 C1453 1.405 . S
C1453 H1427 0.950 . S
C1453 C1452 1.405 . S
C1453 C1454 1.367 . S
C1454 H1428 0.950 . S
C1454 C1449 1.386 . S
C1454 C1453 1.367 . S
C1455 C1449 1.483 . S
C1455 C1456 1.382 . S
C1455 C1457 1.403 . S
C1456 H1429 0.950 . S
C1456 C1442 1.411 . S
C1456 C1455 1.382 . S
C1457 C1441 1.411 . S
C1457 C1455 1.403 . S
C1457 C1458 1.489 . S
C1458 C1457 1.489 . S
C1458 C1459 1.383 . S
C1458 C1463 1.382 . S
C1459 H1430 0.950 . S
C1459 C1458 1.383 . S
C1459 C1460 1.395 . S
C1460 H1431 0.950 . S
C1460 C1459 1.395 . S
C1460 C1461 1.288 . S
C1461 C1460 1.288 . S
C1461 C1462 1.392 . S
C1462 H1432 0.951 . S
C1462 C1461 1.392 . S
C1462 C1463 1.392 . S
C1463 H1433 0.949 . S
C1463 C1458 1.382 . S
C1463 C1462 1.392 . S
H1464 C1483 0.949 . S
H1465 C1484 0.950 . S
H1466 C1486 0.950 . S
H1467 C1487 0.950 . S
H1468 C1489 0.950 . S
H1469 C1492 0.950 . S
H1470 C1493 0.950 . S
H1471 C1495 0.951 . S
H1472 C1496 0.949 . S
H1473 C1498 0.949 . S
H1474 C1499 0.950 . S
H1475 C1501 0.950 . S
H1476 C1502 0.950 . S
H1477 C1504 0.950 . S
H1478 C1507 0.950 . S
H1479 C1508 0.950 . S
H1480 C1510 0.951 . S
H1481 C1511 0.949 . S
C1482 C1483 1.376 . S
C1482 C1487 1.386 . S
C1482 C1488 1.483 . S
C1483 H1464 0.949 . S
C1483 C1482 1.376 . S
C1483 C1484 1.397 . S
C1484 H1465 0.950 . S
C1484 C1483 1.397 . S
C1484 C1485 1.391 . S
C1485 C1484 1.391 . S
C1485 C1486 1.405 . S
C1486 H1466 0.950 . S
C1486 C1485 1.405 . S
C1486 C1487 1.367 . S
C1487 H1467 0.950 . S
C1487 C1482 1.386 . S
C1487 C1486 1.367 . S
C1488 C1482 1.483 . S
C1488 C1489 1.382 . S
C1488 C1490 1.403 . S
C1489 H1468 0.950 . S
C1489 C1488 1.382 . S
C1489 C1505 1.411 . S
C1490 C1488 1.403 . S
C1490 C1491 1.489 . S
C1490 C1504 1.411 . S
C1491 C1490 1.489 . S
C1491 C1492 1.383 . S
C1491 C1496 1.382 . S
C1492 H1469 0.950 . S
C1492 C1491 1.383 . S
C1492 C1493 1.395 . S
C1493 H1470 0.950 . S
C1493 C1492 1.395 . S
C1493 C1494 1.288 . S
C1494 C1493 1.288 . S
C1494 C1495 1.392 . S
C1495 H1471 0.951 . S
C1495 C1494 1.392 . S
C1495 C1496 1.392 . S
C1496 H1472 0.949 . S
C1496 C1491 1.382 . S
C1496 C1495 1.392 . S
C1497 C1498 1.376 . S
C1497 C1502 1.386 . S
C1497 C1503 1.483 . S
C1498 H1473 0.949 . S
C1498 C1497 1.376 . S
C1498 C1499 1.397 . S
C1499 H1474 0.950 . S
C1499 C1498 1.397 . S
C1499 C1500 1.391 . S
C1500 C1499 1.391 . S
C1500 C1501 1.405 . S
C1501 H1475 0.950 . S
C1501 C1500 1.405 . S
C1501 C1502 1.367 . S
C1502 H1476 0.950 . S
C1502 C1497 1.386 . S
C1502 C1501 1.367 . S
C1503 C1497 1.483 . S
C1503 C1504 1.382 . S
C1503 C1505 1.403 . S
C1504 H1477 0.950 . S
C1504 C1490 1.411 . S
C1504 C1503 1.382 . S
C1505 C1489 1.411 . S
C1505 C1503 1.403 . S
C1505 C1506 1.489 . S
C1506 C1505 1.489 . S
C1506 C1507 1.383 . S
C1506 C1511 1.382 . S
C1507 H1478 0.950 . S
C1507 C1506 1.383 . S
C1507 C1508 1.395 . S
C1508 H1479 0.950 . S
C1508 C1507 1.395 . S
C1508 C1509 1.288 . S
C1509 C1508 1.288 . S
C1509 C1510 1.392 . S
C1510 H1480 0.951 . S
C1510 C1509 1.392 . S
C1510 C1511 1.392 . S
C1511 H1481 0.949 . S
C1511 C1506 1.382 . S
C1511 C1510 1.392 . S
H1512 C1520 0.929 1_455 S
H1513 C1522 0.971 1_455 S
H1514 C1524 0.930 . S
H1515 C1527 0.929 . S
H1516 C1530 0.930 . S
H1517 C1532 0.960 . S
H1518 C1532 0.960 . S
H1519 C1532 0.960 . S
C1520 H1512 0.929 1_655 S
C1520 C1521 1.370 . S
C1520 C1522 1.380 . S
C1521 C1520 1.370 . S
C1521 C1527 1.390 . S
C1522 H1513 0.971 1_655 S
C1522 C1520 1.380 . S
C1522 C1523 1.373 . S
C1523 C1522 1.373 . S
C1523 C1524 1.400 . S
C1523 C1528 1.490 . S
C1524 H1514 0.930 . S
C1524 C1523 1.400 . S
C1524 C1527 1.386 . S
H1525 C1541 0.930 . S
H1526 C1542 0.931 . S
C1527 H1515 0.929 . S
C1527 C1521 1.390 . S
C1527 C1524 1.386 . S
C1528 C1523 1.490 . S
C1528 C1530 1.395 . S
C1528 C1531 1.403 1_655 S
H1529 C1535 0.930 . S
C1530 H1516 0.930 . S
C1530 C1528 1.395 . S
C1530 C1533 1.403 . S
C1531 C1528 1.403 1_455 S
C1531 C1532 1.524 . S
C1531 C1535 1.400 . S
C1532 H1517 0.960 . S
C1532 H1518 0.960 . S
C1532 H1519 0.960 . S
C1532 C1531 1.524 . S
C1533 C1530 1.403 . S
C1533 C1534 1.392 . S
C1533 C1537 1.495 . S
C1534 C1533 1.392 . S
C1534 C1535 1.385 1_655 S
C1534 C1536 1.478 . S
C1535 H1529 0.930 . S
C1535 C1531 1.400 . S
C1535 C1534 1.385 1_455 S
C1536 C1534 1.478 . S
C1536 C1538 1.381 . S
C1536 C1542 1.383 . S
C1537 C1533 1.495 . S
C1537 H1543 0.959 . S
C1537 H1544 0.961 . S
C1537 H1545 0.960 . S
C1538 C1536 1.381 . S
C1538 C1539 1.382 . S
C1538 H1546 0.929 1_655 S
C1539 C1538 1.382 . S
C1539 C1540 1.387 . S
C1539 H1547 0.940 1_655 S
C1540 C1539 1.387 . S
C1540 C1541 1.377 . S
C1541 H1525 0.930 . S
C1541 C1540 1.377 . S
C1541 C1542 1.379 . S
C1542 H1526 0.931 . S
C1542 C1536 1.383 . S
C1542 C1541 1.379 . S
H1543 C1537 0.959 . S
H1544 C1537 0.961 . S
H1545 C1537 0.960 . S
H1546 C1538 0.929 1_455 S
H1547 C1539 0.940 1_455 S
H1548 C1556 0.929 . S
H1549 C1558 0.930 . S
H1550 C1560 0.930 . S
H1551 C1563 0.929 . S
H1552 C1566 0.930 . S
H1553 C1568 0.960 . S
H1554 C1568 0.960 . S
H1555 C1568 0.960 . S
C1556 H1548 0.929 . S
C1556 C1557 1.377 . S
C1556 C1558 1.384 . S
C1557 C1556 1.377 . S
C1557 C1563 1.390 . S
C1558 H1549 0.930 . S
C1558 C1556 1.384 . S
C1558 C1559 1.372 . S
C1559 C1558 1.372 . S
C1559 C1560 1.400 . S
C1559 C1564 1.490 . S
C1560 H1550 0.930 . S
C1560 C1559 1.400 . S
C1560 C1563 1.386 . S
H1561 C1577 0.930 . S
H1562 C1578 0.931 . S
C1563 H1551 0.929 . S
C1563 C1557 1.390 . S
C1563 C1560 1.386 . S
C1564 C1559 1.490 . S
C1564 C1566 1.395 . S
C1564 C1567 1.403 . S
H1565 C1571 0.930 . S
C1566 H1552 0.930 . S
C1566 C1564 1.395 . S
C1566 C1569 1.403 . S
C1567 C1564 1.403 . S
C1567 C1568 1.524 . S
C1567 C1571 1.400 . S
C1568 H1553 0.960 . S
C1568 H1554 0.960 . S
C1568 H1555 0.960 . S
C1568 C1567 1.524 . S
C1569 C1566 1.403 . S
C1569 C1570 1.392 . S
C1569 C1573 1.495 . S
C1570 C1569 1.392 . S
C1570 C1571 1.385 . S
C1570 C1572 1.478 . S
C1571 H1565 0.930 . S
C1571 C1567 1.400 . S
C1571 C1570 1.385 . S
C1572 C1570 1.478 . S
C1572 C1574 1.381 . S
C1572 C1578 1.383 . S
C1573 C1569 1.495 . S
C1573 H1579 0.959 . S
C1573 H1580 0.961 . S
C1573 H1581 0.960 . S
C1574 C1572 1.381 . S
C1574 C1575 1.394 . S
C1574 H1582 0.930 . S
C1575 C1574 1.394 . S
C1575 C1576 1.383 . S
C1575 H1583 0.929 . S
C1576 C1575 1.383 . S
C1576 C1577 1.377 . S
C1577 H1561 0.930 . S
C1577 C1576 1.377 . S
C1577 C1578 1.379 . S
C1578 H1562 0.931 . S
C1578 C1572 1.383 . S
C1578 C1577 1.379 . S
H1579 C1573 0.959 . S
H1580 C1573 0.961 . S
H1581 C1573 0.960 . S
H1582 C1574 0.930 . S
H1583 C1575 0.929 . S
H1584 C1592 0.929 . S
H1585 C1594 0.930 . S
H1586 C1596 0.930 . S
H1587 C1599 0.929 . S
H1588 C1602 0.930 . S
H1589 C1604 0.960 . S
H1590 C1604 0.960 . S
H1591 C1604 0.960 . S
C1592 H1584 0.929 . S
C1592 C1593 1.377 1_565 S
C1592 C1594 1.384 . S
C1593 C1592 1.377 1_545 S
C1593 C1599 1.390 . S
C1594 H1585 0.930 . S
C1594 C1592 1.384 . S
C1594 C1595 1.372 1_565 S
C1595 C1594 1.372 1_545 S
C1595 C1596 1.400 . S
C1595 C1600 1.490 . S
C1596 H1586 0.930 . S
C1596 C1595 1.400 . S
C1596 C1599 1.386 . S
H1597 C1613 0.930 . S
H1598 C1614 0.931 . S
C1599 H1587 0.929 . S
C1599 C1593 1.390 . S
C1599 C1596 1.386 . S
C1600 C1595 1.490 . S
C1600 C1602 1.395 1_545 S
C1600 C1603 1.403 . S
H1601 C1607 0.930 . S
C1602 H1588 0.930 . S
C1602 C1600 1.395 1_565 S
C1602 C1605 1.403 . S
C1603 C1600 1.403 . S
C1603 C1604 1.524 . S
C1603 C1607 1.400 . S
C1604 H1589 0.960 . S
C1604 H1590 0.960 . S
C1604 H1591 0.960 . S
C1604 C1603 1.524 . S
C1605 C1602 1.403 . S
C1605 C1606 1.392 1_565 S
C1605 C1609 1.495 . S
C1606 C1605 1.392 1_545 S
C1606 C1607 1.385 . S
C1606 C1608 1.478 . S
C1607 H1601 0.930 . S
C1607 C1603 1.400 . S
C1607 C1606 1.385 . S
C1608 C1606 1.478 . S
C1608 C1610 1.381 1_545 S
C1608 C1614 1.383 . S
C1609 C1605 1.495 . S
C1609 H1615 0.959 . S
C1609 H1616 0.961 . S
C1609 H1617 0.960 . S
C1610 C1608 1.381 1_565 S
C1610 C1611 1.394 . S
C1610 H1618 0.930 . S
C1611 C1610 1.394 . S
C1611 C1612 1.383 1_565 S
C1611 H1619 0.929 . S
C1612 C1611 1.383 1_545 S
C1612 C1613 1.377 . S
C1613 H1597 0.930 . S
C1613 C1612 1.377 . S
C1613 C1614 1.379 . S
C1614 H1598 0.931 . S
C1614 C1608 1.383 . S
C1614 C1613 1.379 . S
H1615 C1609 0.959 . S
H1616 C1609 0.961 . S
H1617 C1609 0.960 . S
H1618 C1610 0.930 . S
H1619 C1611 0.929 . S
H1620 C1628 0.929 . S
H1621 C1630 0.930 . S
H1622 C1632 0.930 . S
H1623 C1635 0.929 . S
H1624 C1638 0.930 . S
H1625 C1640 0.960 . S
H1626 C1640 0.960 . S
H1627 C1640 0.960 1_565 S
C1628 H1620 0.929 . S
C1628 C1629 1.377 1_545 S
C1628 C1630 1.384 . S
C1629 C1628 1.377 1_565 S
C1629 C1635 1.390 . S
C1630 H1621 0.930 . S
C1630 C1628 1.384 . S
C1630 C1631 1.372 1_545 S
C1631 C1630 1.372 1_565 S
C1631 C1632 1.400 . S
C1631 C1636 1.490 . S
C1632 H1622 0.930 . S
C1632 C1631 1.400 . S
C1632 C1635 1.386 . S
H1633 C1649 0.930 . S
H1634 C1650 0.931 . S
C1635 H1623 0.929 . S
C1635 C1629 1.390 . S
C1635 C1632 1.386 . S
C1636 C1631 1.490 . S
C1636 C1638 1.395 . S
C1636 C1639 1.403 . S
H1637 C1643 0.939 . S
C1638 H1624 0.930 . S
C1638 C1636 1.395 . S
C1638 C1641 1.403 . S
C1639 C1636 1.403 . S
C1639 C1640 1.524 1_565 S
C1639 C1643 1.400 . S
C1640 H1625 0.960 . S
C1640 H1626 0.960 . S
C1640 H1627 0.960 1_545 S
C1640 C1639 1.524 1_545 S
C1641 C1638 1.403 . S
C1641 C1642 1.392 . S
C1641 C1645 1.495 . S
C1642 C1641 1.392 . S
C1642 C1643 1.385 . S
C1642 C1644 1.478 . S
C1643 H1637 0.939 . S
C1643 C1639 1.400 . S
C1643 C1642 1.385 . S
C1644 C1642 1.478 . S
C1644 C1646 1.381 1_565 S
C1644 C1650 1.383 . S
C1645 C1641 1.495 . S
C1645 H1651 0.959 . S
C1645 H1652 0.961 . S
C1645 H1653 0.960 1_565 S
C1646 C1644 1.381 1_545 S
C1646 C1647 1.394 . S
C1646 H1654 0.930 . S
C1647 C1646 1.394 . S
C1647 C1648 1.383 1_545 S
C1647 H1655 0.929 . S
C1648 C1647 1.383 1_565 S
C1648 C1649 1.377 . S
C1649 H1633 0.930 . S
C1649 C1648 1.377 . S
C1649 C1650 1.379 . S
C1650 H1634 0.931 . S
C1650 C1644 1.383 . S
C1650 C1649 1.379 . S
H1651 C1645 0.959 . S
H1652 C1645 0.961 . S
H1653 C1645 0.960 1_545 S
H1654 C1646 0.930 . S
H1655 C1647 0.929 . S
H1656 C1664 0.929 . S
H1657 C1666 0.930 . S
H1658 C1668 0.930 . S
H1659 C1671 0.929 . S
H1660 C1674 0.930 . S
H1661 C1676 0.862 1_655 S
H1662 C1676 1.026 . S
H1663 C1676 0.928 1_655 S
C1664 H1656 0.929 . S
C1664 C1665 1.377 . S
C1664 C1666 1.384 . S
C1665 C1664 1.377 . S
C1665 C1671 1.390 1_455 S
C1666 H1657 0.930 . S
C1666 C1664 1.384 . S
C1666 C1667 1.372 . S
C1667 C1666 1.372 . S
C1667 C1668 1.400 1_455 S
C1667 C1672 1.490 . S
C1668 H1658 0.930 . S
C1668 C1667 1.400 1_655 S
C1668 C1671 1.386 . S
H1669 C1685 0.930 . S
H1670 C1686 0.931 . S
C1671 H1659 0.929 . S
C1671 C1665 1.390 1_655 S
C1671 C1668 1.386 . S
C1672 C1667 1.490 . S
C1672 C1674 1.395 . S
C1672 C1675 1.403 . S
H1673 C1679 0.963 . S
C1674 H1660 0.930 . S
C1674 C1672 1.395 . S
C1674 C1677 1.403 . S
C1675 C1672 1.403 . S
C1675 C1676 1.547 . S
C1675 C1679 1.400 . S
C1676 H1661 0.862 1_455 S
C1676 H1662 1.026 . S
C1676 H1663 0.928 1_455 S
C1676 C1675 1.547 . S
C1677 C1674 1.403 . S
C1677 C1678 1.392 . S
C1677 C1681 1.495 . S
C1678 C1677 1.392 . S
C1678 C1679 1.385 . S
C1678 C1680 1.478 . S
C1679 H1673 0.963 . S
C1679 C1675 1.400 . S
C1679 C1678 1.385 . S
C1680 C1678 1.478 . S
C1680 C1682 1.381 . S
C1680 C1686 1.383 1_455 S
C1681 C1677 1.495 . S
C1681 H1687 0.959 . S
C1681 H1688 0.961 . S
C1681 H1689 0.960 . S
C1682 C1680 1.381 . S
C1682 C1683 1.394 . S
C1682 H1690 0.930 . S
C1683 C1682 1.394 . S
C1683 C1684 1.383 . S
C1683 H1691 0.929 . S
C1684 C1683 1.383 . S
C1684 C1685 1.377 1_455 S
C1685 H1669 0.930 . S
C1685 C1684 1.377 1_655 S
C1685 C1686 1.379 . S
C1686 H1670 0.931 . S
C1686 C1680 1.383 1_655 S
C1686 C1685 1.379 . S
H1687 C1681 0.959 . S
H1688 C1681 0.961 . S
H1689 C1681 0.960 . S
H1690 C1682 0.930 . S
H1691 C1683 0.929 . S
H1692 C1700 0.929 . S
H1693 C1702 0.930 . S
H1694 C1704 0.930 . S
H1695 C1707 0.929 . S
H1696 C1710 0.930 . S
H1697 C1712 0.960 . S
H1698 C1712 0.960 . S
H1699 C1712 0.960 . S
C1700 H1692 0.929 . S
C1700 C1701 1.377 . S
C1700 C1702 1.384 . S
C1701 C1700 1.377 . S
C1701 C1707 1.390 . S
C1702 H1693 0.930 . S
C1702 C1700 1.384 . S
C1702 C1703 1.372 . S
C1703 C1702 1.372 . S
C1703 C1704 1.400 . S
C1703 C1708 1.490 . S
C1704 H1694 0.930 . S
C1704 C1703 1.400 . S
C1704 C1707 1.386 . S
H1705 C1721 0.930 . S
H1706 C1722 0.931 . S
C1707 H1695 0.929 . S
C1707 C1701 1.390 . S
C1707 C1704 1.386 . S
C1708 C1703 1.490 . S
C1708 C1710 1.395 . S
C1708 C1711 1.403 . S
H1709 C1715 0.930 . S
C1710 H1696 0.930 . S
C1710 C1708 1.395 . S
C1710 C1713 1.403 . S
C1711 C1708 1.403 . S
C1711 C1712 1.524 . S
C1711 C1715 1.400 . S
C1712 H1697 0.960 . S
C1712 H1698 0.960 . S
C1712 H1699 0.960 . S
C1712 C1711 1.524 . S
C1713 C1710 1.403 . S
C1713 C1714 1.392 . S
C1713 C1717 1.495 . S
C1714 C1713 1.392 . S
C1714 C1715 1.385 . S
C1714 C1716 1.478 . S
C1715 H1709 0.930 . S
C1715 C1711 1.400 . S
C1715 C1714 1.385 . S
C1716 C1714 1.478 . S
C1716 C1718 1.381 . S
C1716 C1722 1.383 . S
C1717 C1713 1.495 . S
C1717 H1723 0.959 . S
C1717 H1724 0.961 . S
C1717 H1725 0.960 . S
C1718 C1716 1.381 . S
C1718 C1719 1.394 . S
C1718 H1726 0.930 . S
C1719 C1718 1.394 . S
C1719 C1720 1.383 . S
C1719 H1727 0.929 . S
C1720 C1719 1.383 . S
C1720 C1721 1.377 . S
C1721 H1705 0.930 . S
C1721 C1720 1.377 . S
C1721 C1722 1.379 . S
C1722 H1706 0.931 . S
C1722 C1716 1.383 . S
C1722 C1721 1.379 . S
H1723 C1717 0.959 . S
H1724 C1717 0.961 . S
H1725 C1717 0.960 . S
H1726 C1718 0.930 . S
H1727 C1719 0.929 . S
H1728 C1736 0.929 . S
H1729 C1738 0.930 . S
H1730 C1740 0.930 . S
H1731 C1743 0.929 . S
H1732 C1746 0.930 . S
H1733 C1748 0.960 . S
H1734 C1748 0.960 . S
H1735 C1748 0.960 . S
C1736 H1728 0.929 . S
C1736 C1737 1.377 . S
C1736 C1738 1.384 . S
C1737 C1736 1.377 . S
C1737 C1743 1.390 1_455 S
C1738 H1729 0.930 . S
C1738 C1736 1.384 . S
C1738 C1739 1.372 . S
C1739 C1738 1.372 . S
C1739 C1740 1.400 1_455 S
C1739 C1744 1.490 . S
C1740 H1730 0.930 . S
C1740 C1739 1.400 1_655 S
C1740 C1743 1.386 . S
H1741 C1757 0.930 . S
H1742 C1758 0.931 . S
C1743 H1731 0.929 . S
C1743 C1737 1.390 1_655 S
C1743 C1740 1.386 . S
C1744 C1739 1.490 . S
C1744 C1746 1.395 . S
C1744 C1747 1.403 1_455 S
H1745 C1751 0.930 . S
C1746 H1732 0.930 . S
C1746 C1744 1.395 . S
C1746 C1749 1.403 . S
C1747 C1744 1.403 1_655 S
C1747 C1748 1.524 . S
C1747 C1751 1.400 . S
C1748 H1733 0.960 . S
C1748 H1734 0.960 . S
C1748 H1735 0.960 . S
C1748 C1747 1.524 . S
C1749 C1746 1.403 . S
C1749 C1750 1.392 . S
C1749 C1753 1.495 . S
C1750 C1749 1.392 . S
C1750 C1751 1.385 1_455 S
C1750 C1752 1.478 . S
C1751 H1745 0.930 . S
C1751 C1747 1.400 . S
C1751 C1750 1.385 1_655 S
C1752 C1750 1.478 . S
C1752 C1754 1.381 . S
C1752 C1758 1.383 1_455 S
C1753 C1749 1.495 . S
C1753 H1759 0.959 . S
C1753 H1760 0.961 . S
C1753 H1761 0.960 . S
C1754 C1752 1.381 . S
C1754 C1755 1.394 . S
C1754 H1762 0.930 . S
C1755 C1754 1.394 . S
C1755 C1756 1.383 . S
C1755 H1763 0.929 . S
C1756 C1755 1.383 . S
C1756 C1757 1.377 1_455 S
C1757 H1741 0.930 . S
C1757 C1756 1.377 1_655 S
C1757 C1758 1.379 . S
C1758 H1742 0.931 . S
C1758 C1752 1.383 1_655 S
C1758 C1757 1.379 . S
H1759 C1753 0.959 . S
H1760 C1753 0.961 . S
H1761 C1753 0.960 . S
H1762 C1754 0.930 . S
H1763 C1755 0.929 . S
H1764 C1772 0.929 . S
H1765 C1774 0.930 . S
H1766 C1776 0.930 . S
H1767 C1779 0.929 . S
H1768 C1782 0.930 . S
H1769 C1784 0.960 . S
H1770 C1784 0.960 . S
H1771 C1784 0.960 . S
C1772 H1764 0.929 . S
C1772 C1773 1.377 . S
C1772 C1774 1.384 . S
C1773 C1772 1.377 . S
C1773 C1779 1.390 . S
C1774 H1765 0.930 . S
C1774 C1772 1.384 . S
C1774 C1775 1.372 . S
C1775 C1774 1.372 . S
C1775 C1776 1.400 . S
C1775 C1780 1.490 . S
C1776 H1766 0.930 . S
C1776 C1775 1.400 . S
C1776 C1779 1.386 . S
H1777 C1793 0.930 . S
H1778 C1794 0.931 . S
C1779 H1767 0.929 . S
C1779 C1773 1.390 . S
C1779 C1776 1.386 . S
C1780 C1775 1.490 . S
C1780 C1782 1.395 . S
C1780 C1783 1.403 . S
H1781 C1787 0.930 . S
C1782 H1768 0.930 . S
C1782 C1780 1.395 . S
C1782 C1785 1.403 . S
C1783 C1780 1.403 . S
C1783 C1784 1.524 . S
C1783 C1787 1.400 . S
C1784 H1769 0.960 . S
C1784 H1770 0.960 . S
C1784 H1771 0.960 . S
C1784 C1783 1.524 . S
C1785 C1782 1.403 . S
C1785 C1786 1.392 . S
C1785 C1789 1.495 . S
C1786 C1785 1.392 . S
C1786 C1787 1.385 . S
C1786 C1788 1.478 . S
C1787 H1781 0.930 . S
C1787 C1783 1.400 . S
C1787 C1786 1.385 . S
C1788 C1786 1.478 . S
C1788 C1790 1.381 . S
C1788 C1794 1.383 . S
C1789 C1785 1.495 . S
C1789 H1795 0.959 . S
C1789 H1796 0.961 . S
C1789 H1797 0.960 . S
C1790 C1788 1.381 . S
C1790 C1791 1.394 . S
C1790 H1798 0.930 . S
C1791 C1790 1.394 . S
C1791 C1792 1.383 . S
C1791 H1799 0.929 . S
C1792 C1791 1.383 . S
C1792 C1793 1.377 . S
C1793 H1777 0.930 . S
C1793 C1792 1.377 . S
C1793 C1794 1.379 . S
C1794 H1778 0.931 . S
C1794 C1788 1.383 . S
C1794 C1793 1.379 . S
H1795 C1789 0.959 . S
H1796 C1789 0.961 . S
H1797 C1789 0.960 . S
H1798 C1790 0.930 . S
H1799 C1791 0.929 . S
H1800 C1808 0.929 . S
H1801 C1810 0.930 . S
H1802 C1812 0.930 . S
H1803 C1815 0.929 . S
H1804 C1818 0.928 1_545 S
H1805 C1820 0.960 . S
H1806 C1820 0.960 . S
H1807 C1820 0.960 . S
C1808 H1800 0.929 . S
C1808 C1809 1.377 . S
C1808 C1810 1.384 . S
C1809 C1808 1.377 . S
C1809 C1815 1.390 1_565 S
C1810 H1801 0.930 . S
C1810 C1808 1.384 . S
C1810 C1811 1.372 . S
C1811 C1810 1.372 . S
C1811 C1812 1.400 1_565 S
C1811 C1816 1.490 . S
C1812 H1802 0.930 . S
C1812 C1811 1.400 1_545 S
C1812 C1815 1.386 . S
H1813 C1829 0.930 . S
H1814 C1830 0.931 . S
C1815 H1803 0.929 . S
C1815 C1809 1.390 1_545 S
C1815 C1812 1.386 . S
C1816 C1811 1.490 . S
C1816 C1818 1.402 . S
C1816 C1819 1.403 . S
H1817 C1823 0.930 . S
C1818 H1804 0.928 1_565 S
C1818 C1816 1.402 . S
C1818 C1821 1.392 1_565 S
C1819 C1816 1.403 . S
C1819 C1820 1.524 . S
C1819 C1823 1.400 . S
C1820 H1805 0.960 . S
C1820 H1806 0.960 . S
C1820 H1807 0.960 . S
C1820 C1819 1.524 . S
C1821 C1818 1.392 1_545 S
C1821 C1822 1.389 1_545 S
C1821 C1825 1.505 . S
C1822 C1821 1.389 1_565 S
C1822 C1823 1.385 . S
C1822 C1824 1.478 . S
C1823 H1817 0.930 . S
C1823 C1819 1.400 . S
C1823 C1822 1.385 . S
C1824 C1822 1.478 . S
C1824 C1826 1.381 . S
C1824 C1830 1.383 1_565 S
C1825 C1821 1.505 . S
C1825 H1831 0.959 . S
C1825 H1832 0.961 . S
C1825 H1833 0.960 1_545 S
C1826 C1824 1.381 . S
C1826 C1827 1.394 . S
C1826 H1834 0.930 . S
C1827 C1826 1.394 . S
C1827 C1828 1.383 . S
C1827 H1835 0.929 . S
C1828 C1827 1.383 . S
C1828 C1829 1.377 1_565 S
C1829 H1813 0.930 . S
C1829 C1828 1.377 1_545 S
C1829 C1830 1.379 . S
C1830 H1814 0.931 . S
C1830 C1824 1.383 1_545 S
C1830 C1829 1.379 . S
H1831 C1825 0.959 . S
H1832 C1825 0.961 . S
H1833 C1825 0.960 1_565 S
H1834 C1826 0.930 . S
H1835 C1827 0.929 . S
H1836 C1844 0.929 . S
H1837 C1846 0.930 . S
H1838 C1848 0.930 . S
H1839 C1851 0.929 . S
H1840 C1854 0.930 . S
H1841 C1856 0.960 . S
H1842 C1856 0.960 . S
H1843 C1856 0.960 1_545 S
C1844 H1836 0.929 . S
C1844 C1845 1.377 1_565 S
C1844 C1846 1.384 . S
C1845 C1844 1.377 1_545 S
C1845 C1851 1.390 . S
C1846 H1837 0.930 . S
C1846 C1844 1.384 . S
C1846 C1847 1.372 1_565 S
C1847 C1846 1.372 1_545 S
C1847 C1848 1.400 . S
C1847 C1852 1.490 . S
C1848 H1838 0.930 . S
C1848 C1847 1.400 . S
C1848 C1851 1.386 . S
H1849 C1865 0.930 . S
H1850 C1866 0.931 . S
C1851 H1839 0.929 . S
C1851 C1845 1.390 . S
C1851 C1848 1.386 . S
C1852 C1847 1.490 . S
C1852 C1854 1.395 . S
C1852 C1855 1.403 . S
H1853 C1859 0.948 1_565 S
C1854 H1840 0.930 . S
C1854 C1852 1.395 . S
C1854 C1857 1.403 . S
C1855 C1852 1.403 . S
C1855 C1856 1.524 1_545 S
C1855 C1859 1.400 . S
C1856 H1841 0.960 . S
C1856 H1842 0.960 . S
C1856 H1843 0.960 1_565 S
C1856 C1855 1.524 1_565 S
C1857 C1854 1.403 . S
C1857 C1858 1.392 . S
C1857 C1861 1.495 . S
C1858 C1857 1.392 . S
C1858 C1859 1.385 . S
C1858 C1860 1.478 . S
C1859 H1853 0.948 1_545 S
C1859 C1855 1.400 . S
C1859 C1858 1.385 . S
C1860 C1858 1.478 . S
C1860 C1862 1.381 1_545 S
C1860 C1866 1.383 . S
C1861 C1857 1.495 . S
C1861 H1867 0.959 . S
C1861 H1868 0.961 . S
C1861 H1869 0.960 . S
C1862 C1860 1.381 1_565 S
C1862 C1863 1.394 . S
C1862 H1870 0.930 . S
C1863 C1862 1.394 . S
C1863 C1864 1.383 1_565 S
C1863 H1871 0.929 . S
C1864 C1863 1.383 1_545 S
C1864 C1865 1.377 . S
C1865 H1849 0.930 . S
C1865 C1864 1.377 . S
C1865 C1866 1.379 . S
C1866 H1850 0.931 . S
C1866 C1860 1.383 . S
C1866 C1865 1.379 . S
H1867 C1861 0.959 . S
H1868 C1861 0.961 . S
H1869 C1861 0.960 . S
H1870 C1862 0.930 . S
H1871 C1863 0.929 . S
H1872 C1880 0.929 . S
H1873 C1882 0.930 . S
H1874 C1884 0.930 . S
H1875 C1887 0.929 . S
H1876 C1890 0.930 . S
H1877 C1892 0.976 . S
H1878 C1892 0.884 1_655 S
H1879 C1892 0.999 . S
C1880 H1872 0.929 . S
C1880 C1881 1.377 . S
C1880 C1882 1.384 . S
C1881 C1880 1.377 . S
C1881 C1887 1.390 1_655 S
C1882 H1873 0.930 . S
C1882 C1880 1.384 . S
C1882 C1883 1.372 . S
C1883 C1882 1.372 . S
C1883 C1884 1.400 1_655 S
C1883 C1888 1.490 . S
C1884 H1874 0.930 . S
C1884 C1883 1.400 1_455 S
C1884 C1887 1.386 . S
H1885 C1901 0.930 . S
H1886 C1902 0.931 . S
C1887 H1875 0.929 . S
C1887 C1881 1.390 1_455 S
C1887 C1884 1.386 . S
C1888 C1883 1.490 . S
C1888 C1890 1.395 . S
C1888 C1891 1.403 . S
H1889 C1895 0.927 1_455 S
C1890 H1876 0.930 . S
C1890 C1888 1.395 . S
C1890 C1893 1.403 . S
C1891 C1888 1.403 . S
C1891 C1892 1.552 1_655 S
C1891 C1895 1.400 . S
C1892 H1877 0.976 . S
C1892 H1878 0.884 1_455 S
C1892 H1879 0.999 . S
C1892 C1891 1.552 1_455 S
C1893 C1890 1.403 . S
C1893 C1894 1.392 . S
C1893 C1897 1.495 . S
C1894 C1893 1.392 . S
C1894 C1895 1.385 . S
C1894 C1896 1.478 . S
C1895 H1889 0.927 1_655 S
C1895 C1891 1.400 . S
C1895 C1894 1.385 . S
C1896 C1894 1.478 . S
C1896 C1898 1.381 . S
C1896 C1902 1.383 1_655 S
C1897 C1893 1.495 . S
C1897 H1903 0.959 . S
C1897 H1904 0.999 . S
C1897 H1905 0.960 . S
C1898 C1896 1.381 . S
C1898 C1899 1.394 . S
C1898 H1906 0.930 . S
C1899 C1898 1.394 . S
C1899 C1900 1.383 . S
C1899 H1907 0.929 . S
C1900 C1899 1.383 . S
C1900 C1901 1.377 1_655 S
C1901 H1885 0.930 . S
C1901 C1900 1.377 1_455 S
C1901 C1902 1.379 . S
C1902 H1886 0.931 . S
C1902 C1896 1.383 1_455 S
C1902 C1901 1.379 . S
H1903 C1897 0.959 . S
H1904 C1897 0.999 . S
H1905 C1897 0.960 . S
H1906 C1898 0.930 . S
H1907 C1899 0.929 . S
H1908 C1916 0.929 . S
H1909 C1918 0.930 . S
H1910 C1920 0.930 . S
H1911 C1923 0.929 . S
H1912 C1926 0.930 . S
H1913 C1928 0.960 . S
H1914 C1928 0.960 . S
H1915 C1928 0.960 . S
C1916 H1908 0.929 . S
C1916 C1917 1.377 . S
C1916 C1918 1.384 . S
C1917 C1916 1.377 . S
C1917 C1923 1.390 . S
C1918 H1909 0.930 . S
C1918 C1916 1.384 . S
C1918 C1919 1.372 . S
C1919 C1918 1.372 . S
C1919 C1920 1.400 . S
C1919 C1924 1.490 . S
C1920 H1910 0.930 . S
C1920 C1919 1.400 . S
C1920 C1923 1.386 . S
H1921 C1937 0.930 . S
H1922 C1938 0.931 . S
C1923 H1911 0.929 . S
C1923 C1917 1.390 . S
C1923 C1920 1.386 . S
C1924 C1919 1.490 . S
C1924 C1926 1.395 . S
C1924 C1927 1.403 . S
H1925 C1931 0.930 . S
C1926 H1912 0.930 . S
C1926 C1924 1.395 . S
C1926 C1929 1.403 . S
C1927 C1924 1.403 . S
C1927 C1928 1.524 . S
C1927 C1931 1.400 . S
C1928 H1913 0.960 . S
C1928 H1914 0.960 . S
C1928 H1915 0.960 . S
C1928 C1927 1.524 . S
C1929 C1926 1.403 . S
C1929 C1930 1.392 . S
C1929 C1933 1.495 . S
C1930 C1929 1.392 . S
C1930 C1931 1.385 . S
C1930 C1932 1.478 . S
C1931 H1925 0.930 . S
C1931 C1927 1.400 . S
C1931 C1930 1.385 . S
C1932 C1930 1.478 . S
C1932 C1934 1.381 . S
C1932 C1938 1.383 . S
C1933 C1929 1.495 . S
C1933 H1939 0.959 . S
C1933 H1940 0.961 . S
C1933 H1941 0.960 . S
C1934 C1932 1.381 . S
C1934 C1935 1.394 . S
C1934 H1942 0.930 . S
C1935 C1934 1.394 . S
C1935 C1936 1.383 . S
C1935 H1943 0.929 . S
C1936 C1935 1.383 . S
C1936 C1937 1.377 . S
C1937 H1921 0.930 . S
C1937 C1936 1.377 . S
C1937 C1938 1.379 . S
C1938 H1922 0.931 . S
C1938 C1932 1.383 . S
C1938 C1937 1.379 . S
H1939 C1933 0.959 . S
H1940 C1933 0.961 . S
H1941 C1933 0.960 . S
H1942 C1934 0.930 . S
H1943 C1935 0.929 . S
H1944 C1952 0.929 . S
H1945 C1954 0.930 . S
H1946 C1956 0.930 . S
H1947 C1959 0.929 . S
H1948 C1962 0.930 . S
H1949 C1964 0.960 . S
H1950 C1964 0.960 . S
H1951 C1964 0.960 . S
C1952 H1944 0.929 . S
C1952 C1953 1.377 . S
C1952 C1954 1.384 . S
C1953 C1952 1.377 . S
C1953 C1959 1.390 . S
C1954 H1945 0.930 . S
C1954 C1952 1.384 . S
C1954 C1955 1.372 . S
C1955 C1954 1.372 . S
C1955 C1956 1.400 . S
C1955 C1960 1.490 . S
C1956 H1946 0.930 . S
C1956 C1955 1.400 . S
C1956 C1959 1.386 . S
H1957 C1973 0.930 . S
H1958 C1974 0.931 . S
C1959 H1947 0.929 . S
C1959 C1953 1.390 . S
C1959 C1956 1.386 . S
C1960 C1955 1.490 . S
C1960 C1962 1.395 . S
C1960 C1963 1.403 . S
H1961 C1967 0.930 . S
C1962 H1948 0.930 . S
C1962 C1960 1.395 . S
C1962 C1965 1.403 . S
C1963 C1960 1.403 . S
C1963 C1964 1.524 . S
C1963 C1967 1.400 . S
C1964 H1949 0.960 . S
C1964 H1950 0.960 . S
C1964 H1951 0.960 . S
C1964 C1963 1.524 . S
C1965 C1962 1.403 . S
C1965 C1966 1.392 . S
C1965 C1969 1.495 . S
C1966 C1965 1.392 . S
C1966 C1967 1.385 . S
C1966 C1968 1.478 . S
C1967 H1961 0.930 . S
C1967 C1963 1.400 . S
C1967 C1966 1.385 . S
C1968 C1966 1.478 . S
C1968 C1970 1.381 . S
C1968 C1974 1.383 . S
C1969 C1965 1.495 . S
C1969 H1975 0.959 . S
C1969 H1976 0.961 . S
C1969 H1977 0.960 . S
C1970 C1968 1.381 . S
C1970 C1971 1.394 . S
C1970 H1978 0.930 . S
C1971 C1970 1.394 . S
C1971 C1972 1.383 . S
C1971 H1979 0.929 . S
C1972 C1971 1.383 . S
C1972 C1973 1.377 . S
C1973 H1957 0.930 . S
C1973 C1972 1.377 . S
C1973 C1974 1.379 . S
C1974 H1958 0.931 . S
C1974 C1968 1.383 . S
C1974 C1973 1.379 . S
H1975 C1969 0.959 . S
H1976 C1969 0.961 . S
H1977 C1969 0.960 . S
H1978 C1970 0.930 . S
H1979 C1971 0.929 . S
H1980 C1988 0.929 . S
H1981 C1990 0.930 . S
H1982 C1992 0.930 . S
H1983 C1995 0.929 . S
H1984 C1998 0.930 . S
H1985 C2000 0.960 . S
H1986 C2000 0.960 . S
H1987 C2000 0.960 . S
C1988 H1980 0.929 . S
C1988 C1989 1.377 . S
C1988 C1990 1.384 . S
C1989 C1988 1.377 . S
C1989 C1995 1.390 . S
C1990 H1981 0.930 . S
C1990 C1988 1.384 . S
C1990 C1991 1.372 . S
C1991 C1990 1.372 . S
C1991 C1992 1.400 . S
C1991 C1996 1.490 . S
C1992 H1982 0.930 . S
C1992 C1991 1.400 . S
C1992 C1995 1.386 . S
H1993 C2009 0.930 . S
H1994 C2010 0.931 . S
C1995 H1983 0.929 . S
C1995 C1989 1.390 . S
C1995 C1992 1.386 . S
C1996 C1991 1.490 . S
C1996 C1998 1.395 . S
C1996 C1999 1.403 . S
H1997 C2003 0.930 . S
C1998 H1984 0.930 . S
C1998 C1996 1.395 . S
C1998 C2001 1.403 . S
C1999 C1996 1.403 . S
C1999 C2000 1.524 . S
C1999 C2003 1.400 . S
C2000 H1985 0.960 . S
C2000 H1986 0.960 . S
C2000 H1987 0.960 . S
C2000 C1999 1.524 . S
C2001 C1998 1.403 . S
C2001 C2002 1.392 . S
C2001 C2005 1.495 . S
C2002 C2001 1.392 . S
C2002 C2003 1.385 . S
C2002 C2004 1.478 . S
C2003 H1997 0.930 . S
C2003 C1999 1.400 . S
C2003 C2002 1.385 . S
C2004 C2002 1.478 . S
C2004 C2006 1.381 . S
C2004 C2010 1.383 . S
C2005 C2001 1.495 . S
C2005 H2011 0.959 . S
C2005 H2012 0.961 . S
C2005 H2013 0.960 . S
C2006 C2004 1.381 . S
C2006 C2007 1.394 . S
C2006 H2014 0.930 . S
C2007 C2006 1.394 . S
C2007 C2008 1.383 . S
C2007 H2015 0.929 . S
C2008 C2007 1.383 . S
C2008 C2009 1.377 . S
C2009 H1993 0.930 . S
C2009 C2008 1.377 . S
C2009 C2010 1.379 . S
C2010 H1994 0.931 . S
C2010 C2004 1.383 . S
C2010 C2009 1.379 . S
H2011 C2005 0.959 . S
H2012 C2005 0.961 . S
H2013 C2005 0.960 . S
H2014 C2006 0.930 . S
H2015 C2007 0.929 . S
H2016 C2024 0.929 . S
H2017 C2026 0.930 . S
H2018 C2028 0.930 . S
H2019 C2031 0.929 . S
H2020 C2034 0.930 . S
H2021 C2036 0.960 . S
H2022 C2036 0.960 . S
H2023 C2036 0.960 . S
C2024 H2016 0.929 . S
C2024 C2025 1.377 . S
C2024 C2026 1.384 . S
C2025 C2024 1.377 . S
C2025 C2031 1.390 . S
C2026 H2017 0.930 . S
C2026 C2024 1.384 . S
C2026 C2027 1.372 . S
C2027 C2026 1.372 . S
C2027 C2028 1.400 . S
C2027 C2032 1.490 . S
C2028 H2018 0.930 . S
C2028 C2027 1.400 . S
C2028 C2031 1.386 . S
H2029 C2045 0.930 . S
H2030 C2046 0.931 . S
C2031 H2019 0.929 . S
C2031 C2025 1.390 . S
C2031 C2028 1.386 . S
C2032 C2027 1.490 . S
C2032 C2034 1.395 . S
C2032 C2035 1.403 . S
H2033 C2039 0.930 . S
C2034 H2020 0.930 . S
C2034 C2032 1.395 . S
C2034 C2037 1.403 . S
C2035 C2032 1.403 . S
C2035 C2036 1.524 . S
C2035 C2039 1.400 . S
C2036 H2021 0.960 . S
C2036 H2022 0.960 . S
C2036 H2023 0.960 . S
C2036 C2035 1.524 . S
C2037 C2034 1.403 . S
C2037 C2038 1.392 . S
C2037 C2041 1.495 . S
C2038 C2037 1.392 . S
C2038 C2039 1.385 . S
C2038 C2040 1.478 . S
C2039 H2033 0.930 . S
C2039 C2035 1.400 . S
C2039 C2038 1.385 . S
C2040 C2038 1.478 . S
C2040 C2042 1.381 . S
C2040 C2046 1.383 . S
C2041 C2037 1.495 . S
C2041 H2047 0.959 . S
C2041 H2048 0.961 . S
C2041 H2049 0.960 . S
C2042 C2040 1.381 . S
C2042 C2043 1.394 . S
C2042 H2050 0.930 . S
C2043 C2042 1.394 . S
C2043 C2044 1.383 . S
C2043 H2051 0.929 . S
C2044 C2043 1.383 . S
C2044 C2045 1.377 . S
C2045 H2029 0.930 . S
C2045 C2044 1.377 . S
C2045 C2046 1.379 . S
C2046 H2030 0.931 . S
C2046 C2040 1.383 . S
C2046 C2045 1.379 . S
H2047 C2041 0.959 . S
H2048 C2041 0.961 . S
H2049 C2041 0.960 . S
H2050 C2042 0.930 . S
H2051 C2043 0.929 . S
H2052 C2060 0.929 . S
H2053 C2062 0.930 . S
H2054 C2064 0.930 . S
H2055 C2067 0.929 . S
H2056 C2070 0.930 . S
H2057 C2072 0.960 . S
H2058 C2072 0.960 . S
H2059 C2072 0.960 . S
C2060 H2052 0.929 . S
C2060 C2061 1.377 . S
C2060 C2062 1.384 . S
C2061 C2060 1.377 . S
C2061 C2067 1.390 . S
C2062 H2053 0.930 . S
C2062 C2060 1.384 . S
C2062 C2063 1.372 . S
C2063 C2062 1.372 . S
C2063 C2064 1.400 . S
C2063 C2068 1.490 . S
C2064 H2054 0.930 . S
C2064 C2063 1.400 . S
C2064 C2067 1.386 . S
H2065 C2081 0.930 . S
H2066 C2082 0.931 . S
C2067 H2055 0.929 . S
C2067 C2061 1.390 . S
C2067 C2064 1.386 . S
C2068 C2063 1.490 . S
C2068 C2070 1.395 . S
C2068 C2071 1.403 . S
H2069 C2075 0.930 . S
C2070 H2056 0.930 . S
C2070 C2068 1.395 . S
C2070 C2073 1.403 . S
C2071 C2068 1.403 . S
C2071 C2072 1.524 . S
C2071 C2075 1.400 . S
C2072 H2057 0.960 . S
C2072 H2058 0.960 . S
C2072 H2059 0.960 . S
C2072 C2071 1.524 . S
C2073 C2070 1.403 . S
C2073 C2074 1.392 . S
C2073 C2077 1.495 . S
C2074 C2073 1.392 . S
C2074 C2075 1.385 . S
C2074 C2076 1.478 . S
C2075 H2069 0.930 . S
C2075 C2071 1.400 . S
C2075 C2074 1.385 . S
C2076 C2074 1.478 . S
C2076 C2078 1.381 . S
C2076 C2082 1.383 . S
C2077 C2073 1.495 . S
C2077 H2083 0.959 . S
C2077 H2084 0.961 . S
C2077 H2085 0.960 . S
C2078 C2076 1.381 . S
C2078 C2079 1.394 . S
C2078 H2086 0.930 . S
C2079 C2078 1.394 . S
C2079 C2080 1.383 . S
C2079 H2087 0.929 . S
C2080 C2079 1.383 . S
C2080 C2081 1.377 . S
C2081 H2065 0.930 . S
C2081 C2080 1.377 . S
C2081 C2082 1.379 . S
C2082 H2066 0.931 . S
C2082 C2076 1.383 . S
C2082 C2081 1.379 . S
H2083 C2077 0.959 . S
H2084 C2077 0.961 . S
H2085 C2077 0.960 . S
H2086 C2078 0.930 . S
H2087 C2079 0.929 . S
H2088 C2096 0.929 . S
H2089 C2098 0.930 . S
H2090 C2100 0.930 . S
H2091 C2103 0.929 . S
H2092 C2106 0.930 . S
H2093 C2108 0.960 . S
H2094 C2108 0.960 . S
H2095 C2108 0.960 . S
C2096 H2088 0.929 . S
C2096 C2097 1.377 . S
C2096 C2098 1.384 . S
C2097 C2096 1.377 . S
C2097 C2103 1.390 . S
C2098 H2089 0.930 . S
C2098 C2096 1.384 . S
C2098 C2099 1.372 . S
C2099 C2098 1.372 . S
C2099 C2100 1.400 . S
C2099 C2104 1.490 . S
C2100 H2090 0.930 . S
C2100 C2099 1.400 . S
C2100 C2103 1.386 . S
H2101 C2117 0.930 . S
H2102 C2118 0.931 . S
C2103 H2091 0.929 . S
C2103 C2097 1.390 . S
C2103 C2100 1.386 . S
C2104 C2099 1.490 . S
C2104 C2106 1.395 . S
C2104 C2107 1.403 . S
H2105 C2111 0.930 . S
C2106 H2092 0.930 . S
C2106 C2104 1.395 . S
C2106 C2109 1.403 . S
C2107 C2104 1.403 . S
C2107 C2108 1.524 . S
C2107 C2111 1.400 . S
C2108 H2093 0.960 . S
C2108 H2094 0.960 . S
C2108 H2095 0.960 . S
C2108 C2107 1.524 . S
C2109 C2106 1.403 . S
C2109 C2110 1.392 . S
C2109 C2113 1.495 . S
C2110 C2109 1.392 . S
C2110 C2111 1.385 . S
C2110 C2112 1.478 . S
C2111 H2105 0.930 . S
C2111 C2107 1.400 . S
C2111 C2110 1.385 . S
C2112 C2110 1.478 . S
C2112 C2114 1.381 . S
C2112 C2118 1.383 . S
C2113 C2109 1.495 . S
C2113 H2119 0.959 . S
C2113 H2120 0.961 . S
C2113 H2121 0.960 . S
C2114 C2112 1.381 . S
C2114 C2115 1.394 . S
C2114 H2122 0.930 . S
C2115 C2114 1.394 . S
C2115 C2116 1.383 . S
C2115 H2123 0.929 . S
C2116 C2115 1.383 . S
C2116 C2117 1.377 . S
C2117 H2101 0.930 . S
C2117 C2116 1.377 . S
C2117 C2118 1.379 . S
C2118 H2102 0.931 . S
C2118 C2112 1.383 . S
C2118 C2117 1.379 . S
H2119 C2113 0.959 . S
H2120 C2113 0.961 . S
H2121 C2113 0.960 . S
H2122 C2114 0.930 . S
H2123 C2115 0.929 . S
H2124 C2132 0.929 . S
H2125 C2134 0.930 . S
H2126 C2136 0.930 . S
H2127 C2139 0.929 . S
H2128 C2142 0.930 . S
H2129 C2144 0.960 . S
H2130 C2144 0.960 . S
H2131 C2144 0.960 . S
C2132 H2124 0.929 . S
C2132 C2133 1.377 . S
C2132 C2134 1.384 . S
C2133 C2132 1.377 . S
C2133 C2139 1.390 . S
C2134 H2125 0.930 . S
C2134 C2132 1.384 . S
C2134 C2135 1.372 . S
C2135 C2134 1.372 . S
C2135 C2136 1.400 . S
C2135 C2140 1.490 . S
C2136 H2126 0.930 . S
C2136 C2135 1.400 . S
C2136 C2139 1.386 . S
H2137 C2153 0.930 . S
H2138 C2154 0.931 . S
C2139 H2127 0.929 . S
C2139 C2133 1.390 . S
C2139 C2136 1.386 . S
C2140 C2135 1.490 . S
C2140 C2142 1.395 . S
C2140 C2143 1.403 . S
H2141 C2147 0.930 . S
C2142 H2128 0.930 . S
C2142 C2140 1.395 . S
C2142 C2145 1.403 . S
C2143 C2140 1.403 . S
C2143 C2144 1.524 . S
C2143 C2147 1.400 . S
C2144 H2129 0.960 . S
C2144 H2130 0.960 . S
C2144 H2131 0.960 . S
C2144 C2143 1.524 . S
C2145 C2142 1.403 . S
C2145 C2146 1.392 . S
C2145 C2149 1.495 . S
C2146 C2145 1.392 . S
C2146 C2147 1.385 . S
C2146 C2148 1.478 . S
C2147 H2141 0.930 . S
C2147 C2143 1.400 . S
C2147 C2146 1.385 . S
C2148 C2146 1.478 . S
C2148 C2150 1.381 . S
C2148 C2154 1.383 . S
C2149 C2145 1.495 . S
C2149 H2155 0.959 . S
C2149 H2156 0.961 . S
C2149 H2157 0.960 . S
C2150 C2148 1.381 . S
C2150 C2151 1.394 . S
C2150 H2158 0.930 . S
C2151 C2150 1.394 . S
C2151 C2152 1.383 . S
C2151 H2159 0.929 . S
C2152 C2151 1.383 . S
C2152 C2153 1.377 . S
C2153 H2137 0.930 . S
C2153 C2152 1.377 . S
C2153 C2154 1.379 . S
C2154 H2138 0.931 . S
C2154 C2148 1.383 . S
C2154 C2153 1.379 . S
H2155 C2149 0.959 . S
H2156 C2149 0.961 . S
H2157 C2149 0.960 . S
H2158 C2150 0.930 . S
H2159 C2151 0.929 . S
H2160 C2168 0.929 . S
H2161 C2170 0.930 . S
H2162 C2172 0.930 . S
H2163 C2175 0.929 . S
H2164 C2178 0.930 . S
H2165 C2180 0.960 . S
H2166 C2180 0.960 . S
H2167 C2180 0.960 . S
C2168 H2160 0.929 . S
C2168 C2169 1.377 . S
C2168 C2170 1.384 . S
C2169 C2168 1.377 . S
C2169 C2175 1.390 . S
C2170 H2161 0.930 . S
C2170 C2168 1.384 . S
C2170 C2171 1.372 . S
C2171 C2170 1.372 . S
C2171 C2172 1.400 . S
C2171 C2176 1.490 . S
C2172 H2162 0.930 . S
C2172 C2171 1.400 . S
C2172 C2175 1.386 . S
H2173 C2189 0.930 . S
H2174 C2190 0.931 . S
C2175 H2163 0.929 . S
C2175 C2169 1.390 . S
C2175 C2172 1.386 . S
C2176 C2171 1.490 . S
C2176 C2178 1.395 . S
C2176 C2179 1.403 . S
H2177 C2183 0.930 . S
C2178 H2164 0.930 . S
C2178 C2176 1.395 . S
C2178 C2181 1.403 . S
C2179 C2176 1.403 . S
C2179 C2180 1.524 . S
C2179 C2183 1.400 . S
C2180 H2165 0.960 . S
C2180 H2166 0.960 . S
C2180 H2167 0.960 . S
C2180 C2179 1.524 . S
C2181 C2178 1.403 . S
C2181 C2182 1.392 . S
C2181 C2185 1.495 . S
C2182 C2181 1.392 . S
C2182 C2183 1.385 . S
C2182 C2184 1.478 . S
C2183 H2177 0.930 . S
C2183 C2179 1.400 . S
C2183 C2182 1.385 . S
C2184 C2182 1.478 . S
C2184 C2186 1.381 . S
C2184 C2190 1.383 . S
C2185 C2181 1.495 . S
C2185 H2191 0.959 . S
C2185 H2192 0.961 . S
C2185 H2193 0.960 . S
C2186 C2184 1.381 . S
C2186 C2187 1.394 . S
C2186 H2194 0.930 . S
C2187 C2186 1.394 . S
C2187 C2188 1.383 . S
C2187 H2195 0.929 . S
C2188 C2187 1.383 . S
C2188 C2189 1.377 . S
C2189 H2173 0.930 . S
C2189 C2188 1.377 . S
C2189 C2190 1.379 . S
C2190 H2174 0.931 . S
C2190 C2184 1.383 . S
C2190 C2189 1.379 . S
H2191 C2185 0.959 . S
H2192 C2185 0.961 . S
H2193 C2185 0.960 . S
H2194 C2186 0.930 . S
H2195 C2187 0.929 . S
H2196 C2204 0.929 . S
H2197 C2206 0.930 . S
H2198 C2208 0.930 . S
H2199 C2211 0.929 . S
H2200 C2214 0.930 . S
H2201 C2216 0.960 . S
H2202 C2216 0.960 . S
H2203 C2216 0.960 . S
C2204 H2196 0.929 . S
C2204 C2205 1.377 . S
C2204 C2206 1.384 . S
C2205 C2204 1.377 . S
C2205 C2211 1.390 . S
C2206 H2197 0.930 . S
C2206 C2204 1.384 . S
C2206 C2207 1.372 . S
C2207 C2206 1.372 . S
C2207 C2208 1.400 . S
C2207 C2212 1.490 . S
C2208 H2198 0.930 . S
C2208 C2207 1.400 . S
C2208 C2211 1.386 . S
H2209 C2225 0.930 . S
H2210 C2226 0.931 . S
C2211 H2199 0.929 . S
C2211 C2205 1.390 . S
C2211 C2208 1.386 . S
C2212 C2207 1.490 . S
C2212 C2214 1.395 . S
C2212 C2215 1.403 . S
H2213 C2219 0.930 . S
C2214 H2200 0.930 . S
C2214 C2212 1.395 . S
C2214 C2217 1.403 . S
C2215 C2212 1.403 . S
C2215 C2216 1.524 . S
C2215 C2219 1.400 . S
C2216 H2201 0.960 . S
C2216 H2202 0.960 . S
C2216 H2203 0.960 . S
C2216 C2215 1.524 . S
C2217 C2214 1.403 . S
C2217 C2218 1.392 . S
C2217 C2221 1.495 . S
C2218 C2217 1.392 . S
C2218 C2219 1.385 . S
C2218 C2220 1.478 . S
C2219 H2213 0.930 . S
C2219 C2215 1.400 . S
C2219 C2218 1.385 . S
C2220 C2218 1.478 . S
C2220 C2222 1.381 . S
C2220 C2226 1.383 . S
C2221 C2217 1.495 . S
C2221 H2227 0.959 . S
C2221 H2228 0.961 . S
C2221 H2229 0.960 . S
C2222 C2220 1.381 . S
C2222 C2223 1.394 . S
C2222 H2230 0.930 . S
C2223 C2222 1.394 . S
C2223 C2224 1.383 . S
C2223 H2231 0.929 . S
C2224 C2223 1.383 . S
C2224 C2225 1.377 . S
C2225 H2209 0.930 . S
C2225 C2224 1.377 . S
C2225 C2226 1.379 . S
C2226 H2210 0.931 . S
C2226 C2220 1.383 . S
C2226 C2225 1.379 . S
H2227 C2221 0.959 . S
H2228 C2221 0.961 . S
H2229 C2221 0.960 . S
H2230 C2222 0.930 . S
H2231 C2223 0.929 . S
H2232 C2240 0.929 . S
H2233 C2242 0.930 . S
H2234 C2244 0.930 . S
H2235 C2247 0.929 . S
H2236 C2250 0.930 . S
H2237 C2252 0.960 . S
H2238 C2252 0.960 . S
H2239 C2252 0.960 . S
C2240 H2232 0.929 . S
C2240 C2241 1.377 . S
C2240 C2242 1.384 . S
C2241 C2240 1.377 . S
C2241 C2247 1.390 . S
C2242 H2233 0.930 . S
C2242 C2240 1.384 . S
C2242 C2243 1.372 . S
C2243 C2242 1.372 . S
C2243 C2244 1.400 . S
C2243 C2248 1.490 . S
C2244 H2234 0.930 . S
C2244 C2243 1.400 . S
C2244 C2247 1.386 . S
H2245 C2261 0.930 . S
H2246 C2262 0.931 . S
C2247 H2235 0.929 . S
C2247 C2241 1.390 . S
C2247 C2244 1.386 . S
C2248 C2243 1.490 . S
C2248 C2250 1.395 . S
C2248 C2251 1.403 . S
H2249 C2255 0.930 . S
C2250 H2236 0.930 . S
C2250 C2248 1.395 . S
C2250 C2253 1.403 . S
C2251 C2248 1.403 . S
C2251 C2252 1.524 . S
C2251 C2255 1.400 . S
C2252 H2237 0.960 . S
C2252 H2238 0.960 . S
C2252 H2239 0.960 . S
C2252 C2251 1.524 . S
C2253 C2250 1.403 . S
C2253 C2254 1.392 . S
C2253 C2257 1.495 . S
C2254 C2253 1.392 . S
C2254 C2255 1.385 . S
C2254 C2256 1.478 . S
C2255 H2249 0.930 . S
C2255 C2251 1.400 . S
C2255 C2254 1.385 . S
C2256 C2254 1.478 . S
C2256 C2258 1.381 . S
C2256 C2262 1.383 . S
C2257 C2253 1.495 . S
C2257 H2263 0.959 . S
C2257 H2264 0.961 . S
C2257 H2265 0.960 . S
C2258 C2256 1.381 . S
C2258 C2259 1.394 . S
C2258 H2266 0.930 . S
C2259 C2258 1.394 . S
C2259 C2260 1.383 . S
C2259 H2267 0.929 . S
C2260 C2259 1.383 . S
C2260 C2261 1.377 . S
C2261 H2245 0.930 . S
C2261 C2260 1.377 . S
C2261 C2262 1.379 . S
C2262 H2246 0.931 . S
C2262 C2256 1.383 . S
C2262 C2261 1.379 . S
H2263 C2257 0.959 . S
H2264 C2257 0.961 . S
H2265 C2257 0.960 . S
H2266 C2258 0.930 . S
H2267 C2259 0.929 . S
H2268 C2276 0.929 . S
H2269 C2278 0.930 . S
H2270 C2280 0.930 . S
H2271 C2283 0.929 . S
H2272 C2286 0.930 . S
H2273 C2288 0.960 . S
H2274 C2288 0.960 . S
H2275 C2288 0.960 . S
C2276 H2268 0.929 . S
C2276 C2277 1.377 . S
C2276 C2278 1.384 . S
C2277 C2276 1.377 . S
C2277 C2283 1.390 . S
C2278 H2269 0.930 . S
C2278 C2276 1.384 . S
C2278 C2279 1.372 . S
C2279 C2278 1.372 . S
C2279 C2280 1.400 . S
C2279 C2284 1.490 . S
C2280 H2270 0.930 . S
C2280 C2279 1.400 . S
C2280 C2283 1.386 . S
H2281 C2297 0.930 . S
H2282 C2298 0.931 . S
C2283 H2271 0.929 . S
C2283 C2277 1.390 . S
C2283 C2280 1.386 . S
C2284 C2279 1.490 . S
C2284 C2286 1.395 . S
C2284 C2287 1.403 . S
H2285 C2291 0.930 . S
C2286 H2272 0.930 . S
C2286 C2284 1.395 . S
C2286 C2289 1.403 . S
C2287 C2284 1.403 . S
C2287 C2288 1.524 . S
C2287 C2291 1.400 . S
C2288 H2273 0.960 . S
C2288 H2274 0.960 . S
C2288 H2275 0.960 . S
C2288 C2287 1.524 . S
C2289 C2286 1.403 . S
C2289 C2290 1.392 . S
C2289 C2293 1.495 . S
C2290 C2289 1.392 . S
C2290 C2291 1.385 . S
C2290 C2292 1.478 . S
C2291 H2285 0.930 . S
C2291 C2287 1.400 . S
C2291 C2290 1.385 . S
C2292 C2290 1.478 . S
C2292 C2294 1.381 . S
C2292 C2298 1.383 . S
C2293 C2289 1.495 . S
C2293 H2299 0.959 . S
C2293 H2300 0.961 . S
C2293 H2301 0.960 . S
C2294 C2292 1.381 . S
C2294 C2295 1.394 . S
C2294 H2302 0.930 . S
C2295 C2294 1.394 . S
C2295 C2296 1.383 . S
C2295 H2303 0.929 . S
C2296 C2295 1.383 . S
C2296 C2297 1.377 . S
C2297 H2281 0.930 . S
C2297 C2296 1.377 . S
C2297 C2298 1.379 . S
C2298 H2282 0.931 . S
C2298 C2292 1.383 . S
C2298 C2297 1.379 . S
H2299 C2293 0.959 . S
H2300 C2293 0.961 . S
H2301 C2293 0.960 . S
H2302 C2294 0.930 . S
H2303 C2295 0.929 . S
H2304 C2312 0.929 . S
H2305 C2314 0.930 . S
H2306 C2316 0.930 . S
H2307 C2319 0.929 . S
H2308 C2322 0.930 . S
H2309 C2324 0.960 . S
H2310 C2324 0.960 . S
H2311 C2324 0.960 . S
C2312 H2304 0.929 . S
C2312 C2313 1.377 . S
C2312 C2314 1.384 . S
C2313 C2312 1.377 . S
C2313 C2319 1.390 . S
C2314 H2305 0.930 . S
C2314 C2312 1.384 . S
C2314 C2315 1.372 . S
C2315 C2314 1.372 . S
C2315 C2316 1.400 . S
C2315 C2320 1.490 . S
C2316 H2306 0.930 . S
C2316 C2315 1.400 . S
C2316 C2319 1.386 . S
H2317 C2333 0.930 . S
H2318 C2334 0.931 . S
C2319 H2307 0.929 . S
C2319 C2313 1.390 . S
C2319 C2316 1.386 . S
C2320 C2315 1.490 . S
C2320 C2322 1.395 . S
C2320 C2323 1.403 . S
H2321 C2327 0.930 . S
C2322 H2308 0.930 . S
C2322 C2320 1.395 . S
C2322 C2325 1.403 . S
C2323 C2320 1.403 . S
C2323 C2324 1.524 . S
C2323 C2327 1.400 . S
C2324 H2309 0.960 . S
C2324 H2310 0.960 . S
C2324 H2311 0.960 . S
C2324 C2323 1.524 . S
C2325 C2322 1.403 . S
C2325 C2326 1.392 . S
C2325 C2329 1.495 . S
C2326 C2325 1.392 . S
C2326 C2327 1.385 . S
C2326 C2328 1.478 . S
C2327 H2321 0.930 . S
C2327 C2323 1.400 . S
C2327 C2326 1.385 . S
C2328 C2326 1.478 . S
C2328 C2330 1.381 . S
C2328 C2334 1.383 . S
C2329 C2325 1.495 . S
C2329 H2335 0.959 . S
C2329 H2336 0.961 . S
C2329 H2337 0.960 . S
C2330 C2328 1.381 . S
C2330 C2331 1.394 . S
C2330 H2338 0.930 . S
C2331 C2330 1.394 . S
C2331 C2332 1.383 . S
C2331 H2339 0.929 . S
C2332 C2331 1.383 . S
C2332 C2333 1.377 . S
C2333 H2317 0.930 . S
C2333 C2332 1.377 . S
C2333 C2334 1.379 . S
C2334 H2318 0.931 . S
C2334 C2328 1.383 . S
C2334 C2333 1.379 . S
H2335 C2329 0.959 . S
H2336 C2329 0.961 . S
H2337 C2329 0.960 . S
H2338 C2330 0.930 . S
H2339 C2331 0.929 . S
H2340 C2348 0.929 . S
H2341 C2350 0.930 . S
H2342 C2352 0.930 . S
H2343 C2355 0.929 . S
H2344 C2358 0.930 . S
H2345 C2360 0.960 . S
H2346 C2360 0.960 . S
H2347 C2360 0.960 . S
C2348 H2340 0.929 . S
C2348 C2349 1.377 . S
C2348 C2350 1.384 . S
C2349 C2348 1.377 . S
C2349 C2355 1.390 . S
C2350 H2341 0.930 . S
C2350 C2348 1.384 . S
C2350 C2351 1.372 . S
C2351 C2350 1.372 . S
C2351 C2352 1.400 . S
C2351 C2356 1.490 . S
C2352 H2342 0.930 . S
C2352 C2351 1.400 . S
C2352 C2355 1.386 . S
H2353 C2369 0.930 . S
H2354 C2370 0.931 . S
C2355 H2343 0.929 . S
C2355 C2349 1.390 . S
C2355 C2352 1.386 . S
C2356 C2351 1.490 . S
C2356 C2358 1.395 . S
C2356 C2359 1.403 . S
H2357 C2363 0.930 . S
C2358 H2344 0.930 . S
C2358 C2356 1.395 . S
C2358 C2361 1.403 . S
C2359 C2356 1.403 . S
C2359 C2360 1.524 . S
C2359 C2363 1.400 . S
C2360 H2345 0.960 . S
C2360 H2346 0.960 . S
C2360 H2347 0.960 . S
C2360 C2359 1.524 . S
C2361 C2358 1.403 . S
C2361 C2362 1.392 . S
C2361 C2365 1.495 . S
C2362 C2361 1.392 . S
C2362 C2363 1.385 . S
C2362 C2364 1.478 . S
C2363 H2357 0.930 . S
C2363 C2359 1.400 . S
C2363 C2362 1.385 . S
C2364 C2362 1.478 . S
C2364 C2366 1.381 . S
C2364 C2370 1.383 . S
C2365 C2361 1.495 . S
C2365 H2371 0.959 . S
C2365 H2372 0.961 . S
C2365 H2373 0.960 . S
C2366 C2364 1.381 . S
C2366 C2367 1.394 . S
C2366 H2374 0.930 . S
C2367 C2366 1.394 . S
C2367 C2368 1.383 . S
C2367 H2375 0.929 . S
C2368 C2367 1.383 . S
C2368 C2369 1.377 . S
C2369 H2353 0.930 . S
C2369 C2368 1.377 . S
C2369 C2370 1.379 . S
C2370 H2354 0.931 . S
C2370 C2364 1.383 . S
C2370 C2369 1.379 . S
H2371 C2365 0.959 . S
H2372 C2365 0.961 . S
H2373 C2365 0.960 . S
H2374 C2366 0.930 . S
H2375 C2367 0.929 . S
H2376 C2384 0.929 . S
H2377 C2386 0.930 . S
H2378 C2388 0.930 . S
H2379 C2391 0.929 . S
H2380 C2394 0.930 . S
H2381 C2396 0.960 . S
H2382 C2396 0.960 . S
H2383 C2396 0.960 . S
C2384 H2376 0.929 . S
C2384 C2385 1.377 . S
C2384 C2386 1.384 . S
C2385 C2384 1.377 . S
C2385 C2391 1.390 . S
C2386 H2377 0.930 . S
C2386 C2384 1.384 . S
C2386 C2387 1.372 . S
C2387 C2386 1.372 . S
C2387 C2388 1.400 . S
C2387 C2392 1.490 . S
C2388 H2378 0.930 . S
C2388 C2387 1.400 . S
C2388 C2391 1.386 . S
H2389 C2405 0.930 . S
H2390 C2406 0.931 . S
C2391 H2379 0.929 . S
C2391 C2385 1.390 . S
C2391 C2388 1.386 . S
C2392 C2387 1.490 . S
C2392 C2394 1.395 . S
C2392 C2395 1.403 . S
H2393 C2399 0.930 . S
C2394 H2380 0.930 . S
C2394 C2392 1.395 . S
C2394 C2397 1.403 . S
C2395 C2392 1.403 . S
C2395 C2396 1.524 . S
C2395 C2399 1.400 . S
C2396 H2381 0.960 . S
C2396 H2382 0.960 . S
C2396 H2383 0.960 . S
C2396 C2395 1.524 . S
C2397 C2394 1.403 . S
C2397 C2398 1.392 . S
C2397 C2401 1.495 . S
C2398 C2397 1.392 . S
C2398 C2399 1.385 . S
C2398 C2400 1.478 . S
C2399 H2393 0.930 . S
C2399 C2395 1.400 . S
C2399 C2398 1.385 . S
C2400 C2398 1.478 . S
C2400 C2402 1.381 . S
C2400 C2406 1.383 . S
C2401 C2397 1.495 . S
C2401 H2407 0.959 . S
C2401 H2408 0.961 . S
C2401 H2409 0.960 . S
C2402 C2400 1.381 . S
C2402 C2403 1.394 . S
C2402 H2410 0.930 . S
C2403 C2402 1.394 . S
C2403 C2404 1.383 . S
C2403 H2411 0.929 . S
C2404 C2403 1.383 . S
C2404 C2405 1.377 . S
C2405 H2389 0.930 . S
C2405 C2404 1.377 . S
C2405 C2406 1.379 . S
C2406 H2390 0.931 . S
C2406 C2400 1.383 . S
C2406 C2405 1.379 . S
H2407 C2401 0.959 . S
H2408 C2401 0.961 . S
H2409 C2401 0.960 . S
H2410 C2402 0.930 . S
H2411 C2403 0.929 . S
H2412 C2420 0.929 . S
H2413 C2422 0.930 . S
H2414 C2424 0.930 . S
H2415 C2427 0.929 . S
H2416 C2430 0.930 . S
H2417 C2432 0.960 . S
H2418 C2432 0.960 . S
H2419 C2432 0.960 . S
C2420 H2412 0.929 . S
C2420 C2421 1.377 . S
C2420 C2422 1.384 . S
C2421 C2420 1.377 . S
C2421 C2427 1.390 . S
C2422 H2413 0.930 . S
C2422 C2420 1.384 . S
C2422 C2423 1.372 . S
C2423 C2422 1.372 . S
C2423 C2424 1.400 . S
C2423 C2428 1.490 . S
C2424 H2414 0.930 . S
C2424 C2423 1.400 . S
C2424 C2427 1.386 . S
H2425 C2441 0.930 . S
H2426 C2442 0.931 . S
C2427 H2415 0.929 . S
C2427 C2421 1.390 . S
C2427 C2424 1.386 . S
C2428 C2423 1.490 . S
C2428 C2430 1.395 . S
C2428 C2431 1.403 . S
H2429 C2435 0.930 . S
C2430 H2416 0.930 . S
C2430 C2428 1.395 . S
C2430 C2433 1.403 . S
C2431 C2428 1.403 . S
C2431 C2432 1.524 . S
C2431 C2435 1.400 . S
C2432 H2417 0.960 . S
C2432 H2418 0.960 . S
C2432 H2419 0.960 . S
C2432 C2431 1.524 . S
C2433 C2430 1.403 . S
C2433 C2434 1.392 . S
C2433 C2437 1.495 . S
C2434 C2433 1.392 . S
C2434 C2435 1.385 . S
C2434 C2436 1.478 . S
C2435 H2429 0.930 . S
C2435 C2431 1.400 . S
C2435 C2434 1.385 . S
C2436 C2434 1.478 . S
C2436 C2438 1.381 . S
C2436 C2442 1.383 . S
C2437 C2433 1.495 . S
C2437 H2443 0.959 . S
C2437 H2444 0.961 . S
C2437 H2445 0.960 . S
C2438 C2436 1.381 . S
C2438 C2439 1.394 . S
C2438 H2446 0.930 . S
C2439 C2438 1.394 . S
C2439 C2440 1.383 . S
C2439 H2447 0.929 . S
C2440 C2439 1.383 . S
C2440 C2441 1.377 . S
C2441 H2425 0.930 . S
C2441 C2440 1.377 . S
C2441 C2442 1.379 . S
C2442 H2426 0.931 . S
C2442 C2436 1.383 . S
C2442 C2441 1.379 . S
H2443 C2437 0.959 . S
H2444 C2437 0.961 . S
H2445 C2437 0.960 . S
H2446 C2438 0.930 . S
H2447 C2439 0.929 . S
H2448 C2456 0.929 . S
H2449 C2458 0.930 . S
H2450 C2460 0.930 . S
H2451 C2463 0.929 . S
H2452 C2466 0.930 . S
H2453 C2468 0.960 . S
H2454 C2468 0.960 . S
H2455 C2468 0.960 . S
C2456 H2448 0.929 . S
C2456 C2457 1.377 . S
C2456 C2458 1.384 . S
C2457 C2456 1.377 . S
C2457 C2463 1.390 . S
C2458 H2449 0.930 . S
C2458 C2456 1.384 . S
C2458 C2459 1.372 . S
C2459 C2458 1.372 . S
C2459 C2460 1.400 . S
C2459 C2464 1.490 . S
C2460 H2450 0.930 . S
C2460 C2459 1.400 . S
C2460 C2463 1.386 . S
H2461 C2477 0.930 . S
H2462 C2478 0.931 . S
C2463 H2451 0.929 . S
C2463 C2457 1.390 . S
C2463 C2460 1.386 . S
C2464 C2459 1.490 . S
C2464 C2466 1.395 . S
C2464 C2467 1.403 . S
H2465 C2471 0.930 . S
C2466 H2452 0.930 . S
C2466 C2464 1.395 . S
C2466 C2469 1.403 . S
C2467 C2464 1.403 . S
C2467 C2468 1.524 . S
C2467 C2471 1.400 . S
C2468 H2453 0.960 . S
C2468 H2454 0.960 . S
C2468 H2455 0.960 . S
C2468 C2467 1.524 . S
C2469 C2466 1.403 . S
C2469 C2470 1.392 . S
C2469 C2473 1.495 . S
C2470 C2469 1.392 . S
C2470 C2471 1.385 . S
C2470 C2472 1.478 . S
C2471 H2465 0.930 . S
C2471 C2467 1.400 . S
C2471 C2470 1.385 . S
C2472 C2470 1.478 . S
C2472 C2474 1.381 . S
C2472 C2478 1.383 . S
C2473 C2469 1.495 . S
C2473 H2479 0.959 . S
C2473 H2480 0.961 . S
C2473 H2481 0.960 . S
C2474 C2472 1.381 . S
C2474 C2475 1.394 . S
C2474 H2482 0.930 . S
C2475 C2474 1.394 . S
C2475 C2476 1.383 . S
C2475 H2483 0.929 . S
C2476 C2475 1.383 . S
C2476 C2477 1.377 . S
C2477 H2461 0.930 . S
C2477 C2476 1.377 . S
C2477 C2478 1.379 . S
C2478 H2462 0.931 . S
C2478 C2472 1.383 . S
C2478 C2477 1.379 . S
H2479 C2473 0.959 . S
H2480 C2473 0.961 . S
H2481 C2473 0.960 . S
H2482 C2474 0.930 . S
H2483 C2475 0.929 . S
H2484 C2492 0.929 . S
H2485 C2494 0.930 . S
H2486 C2496 0.930 . S
H2487 C2499 0.929 . S
H2488 C2502 0.930 . S
H2489 C2504 0.960 . S
H2490 C2504 0.960 . S
H2491 C2504 0.960 . S
C2492 H2484 0.929 . S
C2492 C2493 1.377 . S
C2492 C2494 1.384 . S
C2493 C2492 1.377 . S
C2493 C2499 1.390 . S
C2494 H2485 0.930 . S
C2494 C2492 1.384 . S
C2494 C2495 1.372 . S
C2495 C2494 1.372 . S
C2495 C2496 1.400 . S
C2495 C2500 1.490 . S
C2496 H2486 0.930 . S
C2496 C2495 1.400 . S
C2496 C2499 1.386 . S
H2497 C2513 0.930 . S
H2498 C2514 0.931 . S
C2499 H2487 0.929 . S
C2499 C2493 1.390 . S
C2499 C2496 1.386 . S
C2500 C2495 1.490 . S
C2500 C2502 1.395 . S
C2500 C2503 1.403 . S
H2501 C2507 0.930 . S
C2502 H2488 0.930 . S
C2502 C2500 1.395 . S
C2502 C2505 1.403 . S
C2503 C2500 1.403 . S
C2503 C2504 1.524 . S
C2503 C2507 1.400 . S
C2504 H2489 0.960 . S
C2504 H2490 0.960 . S
C2504 H2491 0.960 . S
C2504 C2503 1.524 . S
C2505 C2502 1.403 . S
C2505 C2506 1.392 . S
C2505 C2509 1.495 . S
C2506 C2505 1.392 . S
C2506 C2507 1.385 . S
C2506 C2508 1.478 . S
C2507 H2501 0.930 . S
C2507 C2503 1.400 . S
C2507 C2506 1.385 . S
C2508 C2506 1.478 . S
C2508 C2510 1.381 . S
C2508 C2514 1.383 . S
C2509 C2505 1.495 . S
C2509 H2515 0.959 . S
C2509 H2516 0.961 . S
C2509 H2517 0.960 . S
C2510 C2508 1.381 . S
C2510 C2511 1.394 . S
C2510 H2518 0.930 . S
C2511 C2510 1.394 . S
C2511 C2512 1.383 . S
C2511 H2519 0.929 . S
C2512 C2511 1.383 . S
C2512 C2513 1.377 . S
C2513 H2497 0.930 . S
C2513 C2512 1.377 . S
C2513 C2514 1.379 . S
C2514 H2498 0.931 . S
C2514 C2508 1.383 . S
C2514 C2513 1.379 . S
H2515 C2509 0.959 . S
H2516 C2509 0.961 . S
H2517 C2509 0.960 . S
H2518 C2510 0.930 . S
H2519 C2511 0.929 . S
H2520 C2528 0.929 . S
H2521 C2530 0.930 . S
H2522 C2532 0.930 . S
H2523 C2535 0.929 . S
H2524 C2538 0.930 . S
H2525 C2540 0.960 . S
H2526 C2540 0.960 . S
H2527 C2540 0.960 . S
C2528 H2520 0.929 . S
C2528 C2529 1.377 . S
C2528 C2530 1.384 . S
C2529 C2528 1.377 . S
C2529 C2535 1.390 . S
C2530 H2521 0.930 . S
C2530 C2528 1.384 . S
C2530 C2531 1.372 . S
C2531 C2530 1.372 . S
C2531 C2532 1.400 . S
C2531 C2536 1.490 . S
C2532 H2522 0.930 . S
C2532 C2531 1.400 . S
C2532 C2535 1.386 . S
H2533 C2549 0.930 . S
H2534 C2550 0.931 . S
C2535 H2523 0.929 . S
C2535 C2529 1.390 . S
C2535 C2532 1.386 . S
C2536 C2531 1.490 . S
C2536 C2538 1.395 . S
C2536 C2539 1.403 . S
H2537 C2543 0.930 . S
C2538 H2524 0.930 . S
C2538 C2536 1.395 . S
C2538 C2541 1.403 . S
C2539 C2536 1.403 . S
C2539 C2540 1.524 . S
C2539 C2543 1.400 . S
C2540 H2525 0.960 . S
C2540 H2526 0.960 . S
C2540 H2527 0.960 . S
C2540 C2539 1.524 . S
C2541 C2538 1.403 . S
C2541 C2542 1.392 . S
C2541 C2545 1.495 . S
C2542 C2541 1.392 . S
C2542 C2543 1.385 . S
C2542 C2544 1.478 . S
C2543 H2537 0.930 . S
C2543 C2539 1.400 . S
C2543 C2542 1.385 . S
C2544 C2542 1.478 . S
C2544 C2546 1.381 . S
C2544 C2550 1.383 . S
C2545 C2541 1.495 . S
C2545 H2551 0.959 . S
C2545 H2552 0.961 . S
C2545 H2553 0.960 . S
C2546 C2544 1.381 . S
C2546 C2547 1.394 . S
C2546 H2554 0.930 . S
C2547 C2546 1.394 . S
C2547 C2548 1.383 . S
C2547 H2555 0.929 . S
C2548 C2547 1.383 . S
C2548 C2549 1.377 . S
C2549 H2533 0.930 . S
C2549 C2548 1.377 . S
C2549 C2550 1.379 . S
C2550 H2534 0.931 . S
C2550 C2544 1.383 . S
C2550 C2549 1.379 . S
H2551 C2545 0.959 . S
H2552 C2545 0.961 . S
H2553 C2545 0.960 . S
H2554 C2546 0.930 . S
H2555 C2547 0.929 . S
H2556 C2564 0.929 . S
H2557 C2566 0.930 . S
H2558 C2568 0.930 . S
H2559 C2571 0.929 . S
H2560 C2574 0.930 . S
H2561 C2576 0.960 . S
H2562 C2576 0.960 . S
H2563 C2576 0.960 . S
C2564 H2556 0.929 . S
C2564 C2565 1.377 . S
C2564 C2566 1.384 . S
C2565 C2564 1.377 . S
C2565 C2571 1.390 . S
C2566 H2557 0.930 . S
C2566 C2564 1.384 . S
C2566 C2567 1.372 . S
C2567 C2566 1.372 . S
C2567 C2568 1.400 . S
C2567 C2572 1.490 . S
C2568 H2558 0.930 . S
C2568 C2567 1.400 . S
C2568 C2571 1.386 . S
H2569 C2585 0.930 . S
H2570 C2586 0.931 . S
C2571 H2559 0.929 . S
C2571 C2565 1.390 . S
C2571 C2568 1.386 . S
C2572 C2567 1.490 . S
C2572 C2574 1.395 . S
C2572 C2575 1.403 . S
H2573 C2579 0.930 . S
C2574 H2560 0.930 . S
C2574 C2572 1.395 . S
C2574 C2577 1.403 . S
C2575 C2572 1.403 . S
C2575 C2576 1.524 . S
C2575 C2579 1.400 . S
C2576 H2561 0.960 . S
C2576 H2562 0.960 . S
C2576 H2563 0.960 . S
C2576 C2575 1.524 . S
C2577 C2574 1.403 . S
C2577 C2578 1.392 . S
C2577 C2581 1.495 . S
C2578 C2577 1.392 . S
C2578 C2579 1.385 . S
C2578 C2580 1.478 . S
C2579 H2573 0.930 . S
C2579 C2575 1.400 . S
C2579 C2578 1.385 . S
C2580 C2578 1.478 . S
C2580 C2582 1.381 . S
C2580 C2586 1.383 . S
C2581 C2577 1.495 . S
C2581 H2587 0.959 . S
C2581 H2588 0.961 . S
C2581 H2589 0.960 . S
C2582 C2580 1.381 . S
C2582 C2583 1.394 . S
C2582 H2590 0.930 . S
C2583 C2582 1.394 . S
C2583 C2584 1.383 . S
C2583 H2591 0.929 . S
C2584 C2583 1.383 . S
C2584 C2585 1.377 . S
C2585 H2569 0.930 . S
C2585 C2584 1.377 . S
C2585 C2586 1.379 . S
C2586 H2570 0.931 . S
C2586 C2580 1.383 . S
C2586 C2585 1.379 . S
H2587 C2581 0.959 . S
H2588 C2581 0.961 . S
H2589 C2581 0.960 . S
H2590 C2582 0.930 . S
H2591 C2583 0.929 . S
H2592 C2600 0.929 . S
H2593 C2602 0.930 . S
H2594 C2604 0.930 . S
H2595 C2607 0.929 . S
H2596 C2610 0.930 . S
H2597 C2612 0.960 . S
H2598 C2612 0.960 . S
H2599 C2612 0.960 . S
C2600 H2592 0.929 . S
C2600 C2601 1.377 . S
C2600 C2602 1.384 . S
C2601 C2600 1.377 . S
C2601 C2607 1.390 . S
C2602 H2593 0.930 . S
C2602 C2600 1.384 . S
C2602 C2603 1.372 . S
C2603 C2602 1.372 . S
C2603 C2604 1.400 . S
C2603 C2608 1.490 . S
C2604 H2594 0.930 . S
C2604 C2603 1.400 . S
C2604 C2607 1.386 . S
H2605 C2621 0.930 . S
H2606 C2622 0.931 . S
C2607 H2595 0.929 . S
C2607 C2601 1.390 . S
C2607 C2604 1.386 . S
C2608 C2603 1.490 . S
C2608 C2610 1.395 . S
C2608 C2611 1.403 . S
H2609 C2615 0.930 . S
C2610 H2596 0.930 . S
C2610 C2608 1.395 . S
C2610 C2613 1.403 . S
C2611 C2608 1.403 . S
C2611 C2612 1.524 . S
C2611 C2615 1.400 . S
C2612 H2597 0.960 . S
C2612 H2598 0.960 . S
C2612 H2599 0.960 . S
C2612 C2611 1.524 . S
C2613 C2610 1.403 . S
C2613 C2614 1.392 . S
C2613 C2617 1.495 . S
C2614 C2613 1.392 . S
C2614 C2615 1.385 . S
C2614 C2616 1.478 . S
C2615 H2609 0.930 . S
C2615 C2611 1.400 . S
C2615 C2614 1.385 . S
C2616 C2614 1.478 . S
C2616 C2618 1.381 . S
C2616 C2622 1.383 . S
C2617 C2613 1.495 . S
C2617 H2623 0.959 . S
C2617 H2624 0.961 . S
C2617 H2625 0.960 . S
C2618 C2616 1.381 . S
C2618 C2619 1.394 . S
C2618 H2626 0.930 . S
C2619 C2618 1.394 . S
C2619 C2620 1.383 . S
C2619 H2627 0.929 . S
C2620 C2619 1.383 . S
C2620 C2621 1.377 . S
C2621 H2605 0.930 . S
C2621 C2620 1.377 . S
C2621 C2622 1.379 . S
C2622 H2606 0.931 . S
C2622 C2616 1.383 . S
C2622 C2621 1.379 . S
H2623 C2617 0.959 . S
H2624 C2617 0.961 . S
H2625 C2617 0.960 . S
H2626 C2618 0.930 . S
H2627 C2619 0.929 . S
H2628 C2636 0.929 . S
H2629 C2638 0.930 . S
H2630 C2640 0.930 . S
H2631 C2643 0.929 . S
H2632 C2646 0.930 . S
H2633 C2648 0.960 . S
H2634 C2648 0.960 . S
H2635 C2648 0.960 . S
C2636 H2628 0.929 . S
C2636 C2637 1.377 . S
C2636 C2638 1.384 . S
C2637 C2636 1.377 . S
C2637 C2643 1.390 . S
C2638 H2629 0.930 . S
C2638 C2636 1.384 . S
C2638 C2639 1.372 . S
C2639 C2638 1.372 . S
C2639 C2640 1.400 . S
C2639 C2644 1.490 . S
C2640 H2630 0.930 . S
C2640 C2639 1.400 . S
C2640 C2643 1.386 . S
H2641 C2657 0.930 . S
H2642 C2658 0.931 . S
C2643 H2631 0.929 . S
C2643 C2637 1.390 . S
C2643 C2640 1.386 . S
C2644 C2639 1.490 . S
C2644 C2646 1.395 . S
C2644 C2647 1.403 . S
H2645 C2651 0.930 . S
C2646 H2632 0.930 . S
C2646 C2644 1.395 . S
C2646 C2649 1.403 . S
C2647 C2644 1.403 . S
C2647 C2648 1.524 . S
C2647 C2651 1.400 . S
C2648 H2633 0.960 . S
C2648 H2634 0.960 . S
C2648 H2635 0.960 . S
C2648 C2647 1.524 . S
C2649 C2646 1.403 . S
C2649 C2650 1.392 . S
C2649 C2653 1.495 . S
C2650 C2649 1.392 . S
C2650 C2651 1.385 . S
C2650 C2652 1.478 . S
C2651 H2645 0.930 . S
C2651 C2647 1.400 . S
C2651 C2650 1.385 . S
C2652 C2650 1.478 . S
C2652 C2654 1.381 . S
C2652 C2658 1.383 . S
C2653 C2649 1.495 . S
C2653 H2659 0.959 . S
C2653 H2660 0.961 . S
C2653 H2661 0.960 . S
C2654 C2652 1.381 . S
C2654 C2655 1.394 . S
C2654 H2662 0.930 . S
C2655 C2654 1.394 . S
C2655 C2656 1.383 . S
C2655 H2663 0.929 . S
C2656 C2655 1.383 . S
C2656 C2657 1.377 . S
C2657 H2641 0.930 . S
C2657 C2656 1.377 . S
C2657 C2658 1.379 . S
C2658 H2642 0.931 . S
C2658 C2652 1.383 . S
C2658 C2657 1.379 . S
H2659 C2653 0.959 . S
H2660 C2653 0.961 . S
H2661 C2653 0.960 . S
H2662 C2654 0.930 . S
H2663 C2655 0.929 . S
H2664 C2672 0.929 . S
H2665 C2674 0.930 . S
H2666 C2676 0.930 . S
H2667 C2679 0.929 . S
H2668 C2682 0.930 . S
H2669 C2684 0.960 . S
H2670 C2684 0.960 . S
H2671 C2684 0.960 . S
C2672 H2664 0.929 . S
C2672 C2673 1.377 . S
C2672 C2674 1.384 . S
C2673 C2672 1.377 . S
C2673 C2679 1.390 . S
C2674 H2665 0.930 . S
C2674 C2672 1.384 . S
C2674 C2675 1.372 . S
C2675 C2674 1.372 . S
C2675 C2676 1.400 . S
C2675 C2680 1.490 . S
C2676 H2666 0.930 . S
C2676 C2675 1.400 . S
C2676 C2679 1.386 . S
H2677 C2693 0.930 . S
H2678 C2694 0.931 . S
C2679 H2667 0.929 . S
C2679 C2673 1.390 . S
C2679 C2676 1.386 . S
C2680 C2675 1.490 . S
C2680 C2682 1.395 . S
C2680 C2683 1.403 . S
H2681 C2687 0.930 . S
C2682 H2668 0.930 . S
C2682 C2680 1.395 . S
C2682 C2685 1.403 . S
C2683 C2680 1.403 . S
C2683 C2684 1.524 . S
C2683 C2687 1.400 . S
C2684 H2669 0.960 . S
C2684 H2670 0.960 . S
C2684 H2671 0.960 . S
C2684 C2683 1.524 . S
C2685 C2682 1.403 . S
C2685 C2686 1.392 . S
C2685 C2689 1.495 . S
C2686 C2685 1.392 . S
C2686 C2687 1.385 . S
C2686 C2688 1.478 . S
C2687 H2681 0.930 . S
C2687 C2683 1.400 . S
C2687 C2686 1.385 . S
C2688 C2686 1.478 . S
C2688 C2690 1.381 . S
C2688 C2694 1.383 . S
C2689 C2685 1.495 . S
C2689 H2695 0.959 . S
C2689 H2696 0.961 . S
C2689 H2697 0.960 . S
C2690 C2688 1.381 . S
C2690 C2691 1.394 . S
C2690 H2698 0.930 . S
C2691 C2690 1.394 . S
C2691 C2692 1.383 . S
C2691 H2699 0.929 . S
C2692 C2691 1.383 . S
C2692 C2693 1.377 . S
C2693 H2677 0.930 . S
C2693 C2692 1.377 . S
C2693 C2694 1.379 . S
C2694 H2678 0.931 . S
C2694 C2688 1.383 . S
C2694 C2693 1.379 . S
H2695 C2689 0.959 . S
H2696 C2689 0.961 . S
H2697 C2689 0.960 . S
H2698 C2690 0.930 . S
H2699 C2691 0.929 . S
H2700 C2708 0.929 . S
H2701 C2710 0.930 . S
H2702 C2712 0.930 . S
H2703 C2715 0.929 . S
H2704 C2718 0.930 . S
H2705 C2720 0.960 . S
H2706 C2720 0.960 . S
H2707 C2720 0.960 . S
C2708 H2700 0.929 . S
C2708 C2709 1.377 . S
C2708 C2710 1.384 . S
C2709 C2708 1.377 . S
C2709 C2715 1.390 . S
C2710 H2701 0.930 . S
C2710 C2708 1.384 . S
C2710 C2711 1.372 . S
C2711 C2710 1.372 . S
C2711 C2712 1.400 . S
C2711 C2716 1.490 . S
C2712 H2702 0.930 . S
C2712 C2711 1.400 . S
C2712 C2715 1.386 . S
H2713 C2729 0.930 . S
H2714 C2730 0.931 . S
C2715 H2703 0.929 . S
C2715 C2709 1.390 . S
C2715 C2712 1.386 . S
C2716 C2711 1.490 . S
C2716 C2718 1.395 . S
C2716 C2719 1.403 . S
H2717 C2723 0.930 . S
C2718 H2704 0.930 . S
C2718 C2716 1.395 . S
C2718 C2721 1.403 . S
C2719 C2716 1.403 . S
C2719 C2720 1.524 . S
C2719 C2723 1.400 . S
C2720 H2705 0.960 . S
C2720 H2706 0.960 . S
C2720 H2707 0.960 . S
C2720 C2719 1.524 . S
C2721 C2718 1.403 . S
C2721 C2722 1.392 . S
C2721 C2725 1.495 . S
C2722 C2721 1.392 . S
C2722 C2723 1.385 . S
C2722 C2724 1.478 . S
C2723 H2717 0.930 . S
C2723 C2719 1.400 . S
C2723 C2722 1.385 . S
C2724 C2722 1.478 . S
C2724 C2726 1.381 . S
C2724 C2730 1.383 . S
C2725 C2721 1.495 . S
C2725 H2731 0.959 . S
C2725 H2732 0.961 . S
C2725 H2733 0.960 . S
C2726 C2724 1.381 . S
C2726 C2727 1.394 . S
C2726 H2734 0.930 . S
C2727 C2726 1.394 . S
C2727 C2728 1.383 . S
C2727 H2735 0.929 . S
C2728 C2727 1.383 . S
C2728 C2729 1.377 . S
C2729 H2713 0.930 . S
C2729 C2728 1.377 . S
C2729 C2730 1.379 . S
C2730 H2714 0.931 . S
C2730 C2724 1.383 . S
C2730 C2729 1.379 . S
H2731 C2725 0.959 . S
H2732 C2725 0.961 . S
H2733 C2725 0.960 . S
H2734 C2726 0.930 . S
H2735 C2727 0.929 . S
H2736 C2744 0.929 . S
H2737 C2746 0.930 . S
H2738 C2748 0.930 . S
H2739 C2751 0.929 . S
H2740 C2754 0.930 . S
H2741 C2756 0.960 . S
H2742 C2756 0.960 . S
H2743 C2756 0.960 . S
C2744 H2736 0.929 . S
C2744 C2745 1.377 . S
C2744 C2746 1.384 . S
C2745 C2744 1.377 . S
C2745 C2751 1.390 . S
C2746 H2737 0.930 . S
C2746 C2744 1.384 . S
C2746 C2747 1.372 . S
C2747 C2746 1.372 . S
C2747 C2748 1.400 . S
C2747 C2752 1.490 . S
C2748 H2738 0.930 . S
C2748 C2747 1.400 . S
C2748 C2751 1.386 . S
H2749 C2765 0.930 . S
H2750 C2766 0.931 . S
C2751 H2739 0.929 . S
C2751 C2745 1.390 . S
C2751 C2748 1.386 . S
C2752 C2747 1.490 . S
C2752 C2754 1.395 . S
C2752 C2755 1.403 . S
H2753 C2759 0.930 . S
C2754 H2740 0.930 . S
C2754 C2752 1.395 . S
C2754 C2757 1.403 . S
C2755 C2752 1.403 . S
C2755 C2756 1.524 . S
C2755 C2759 1.400 . S
C2756 H2741 0.960 . S
C2756 H2742 0.960 . S
C2756 H2743 0.960 . S
C2756 C2755 1.524 . S
C2757 C2754 1.403 . S
C2757 C2758 1.392 . S
C2757 C2761 1.495 . S
C2758 C2757 1.392 . S
C2758 C2759 1.385 . S
C2758 C2760 1.478 . S
C2759 H2753 0.930 . S
C2759 C2755 1.400 . S
C2759 C2758 1.385 . S
C2760 C2758 1.478 . S
C2760 C2762 1.381 . S
C2760 C2766 1.383 . S
C2761 C2757 1.495 . S
C2761 H2767 0.959 . S
C2761 H2768 0.961 . S
C2761 H2769 0.960 . S
C2762 C2760 1.381 . S
C2762 C2763 1.394 . S
C2762 H2770 0.930 . S
C2763 C2762 1.394 . S
C2763 C2764 1.383 . S
C2763 H2771 0.929 . S
C2764 C2763 1.383 . S
C2764 C2765 1.377 . S
C2765 H2749 0.930 . S
C2765 C2764 1.377 . S
C2765 C2766 1.379 . S
C2766 H2750 0.931 . S
C2766 C2760 1.383 . S
C2766 C2765 1.379 . S
H2767 C2761 0.959 . S
H2768 C2761 0.961 . S
H2769 C2761 0.960 . S
H2770 C2762 0.930 . S
H2771 C2763 0.929 . S
H2772 C2780 0.929 . S
H2773 C2782 0.930 . S
H2774 C2784 0.930 . S
H2775 C2787 0.929 . S
H2776 C2790 0.930 . S
H2777 C2792 0.960 . S
H2778 C2792 0.960 . S
H2779 C2792 0.960 . S
C2780 H2772 0.929 . S
C2780 C2781 1.377 . S
C2780 C2782 1.384 . S
C2781 C2780 1.377 . S
C2781 C2787 1.390 . S
C2782 H2773 0.930 . S
C2782 C2780 1.384 . S
C2782 C2783 1.372 . S
C2783 C2782 1.372 . S
C2783 C2784 1.400 . S
C2783 C2788 1.490 . S
C2784 H2774 0.930 . S
C2784 C2783 1.400 . S
C2784 C2787 1.386 . S
H2785 C2801 0.930 . S
H2786 C2802 0.931 . S
C2787 H2775 0.929 . S
C2787 C2781 1.390 . S
C2787 C2784 1.386 . S
C2788 C2783 1.490 . S
C2788 C2790 1.395 . S
C2788 C2791 1.403 . S
H2789 C2795 0.930 . S
C2790 H2776 0.930 . S
C2790 C2788 1.395 . S
C2790 C2793 1.403 . S
C2791 C2788 1.403 . S
C2791 C2792 1.524 . S
C2791 C2795 1.400 . S
C2792 H2777 0.960 . S
C2792 H2778 0.960 . S
C2792 H2779 0.960 . S
C2792 C2791 1.524 . S
C2793 C2790 1.403 . S
C2793 C2794 1.392 . S
C2793 C2797 1.495 . S
C2794 C2793 1.392 . S
C2794 C2795 1.385 . S
C2794 C2796 1.478 . S
C2795 H2789 0.930 . S
C2795 C2791 1.400 . S
C2795 C2794 1.385 . S
C2796 C2794 1.478 . S
C2796 C2798 1.381 . S
C2796 C2802 1.383 . S
C2797 C2793 1.495 . S
C2797 H2803 0.959 . S
C2797 H2804 0.961 . S
C2797 H2805 0.960 . S
C2798 C2796 1.381 . S
C2798 C2799 1.394 . S
C2798 H2806 0.930 . S
C2799 C2798 1.394 . S
C2799 C2800 1.383 . S
C2799 H2807 0.929 . S
C2800 C2799 1.383 . S
C2800 C2801 1.377 . S
C2801 H2785 0.930 . S
C2801 C2800 1.377 . S
C2801 C2802 1.379 . S
C2802 H2786 0.931 . S
C2802 C2796 1.383 . S
C2802 C2801 1.379 . S
H2803 C2797 0.959 . S
H2804 C2797 0.961 . S
H2805 C2797 0.960 . S
H2806 C2798 0.930 . S
H2807 C2799 0.929 . S
H2808 C2816 0.929 . S
H2809 C2818 0.930 . S
H2810 C2820 0.930 . S
H2811 C2823 0.929 . S
H2812 C2826 0.930 . S
H2813 C2828 0.960 . S
H2814 C2828 0.960 . S
H2815 C2828 0.960 . S
C2816 H2808 0.929 . S
C2816 C2817 1.377 . S
C2816 C2818 1.384 . S
C2817 C2816 1.377 . S
C2817 C2823 1.390 . S
C2818 H2809 0.930 . S
C2818 C2816 1.384 . S
C2818 C2819 1.372 . S
C2819 C2818 1.372 . S
C2819 C2820 1.400 . S
C2819 C2824 1.490 . S
C2820 H2810 0.930 . S
C2820 C2819 1.400 . S
C2820 C2823 1.386 . S
H2821 C2837 0.930 . S
H2822 C2838 0.931 . S
C2823 H2811 0.929 . S
C2823 C2817 1.390 . S
C2823 C2820 1.386 . S
C2824 C2819 1.490 . S
C2824 C2826 1.395 . S
C2824 C2827 1.403 . S
H2825 C2831 0.930 . S
C2826 H2812 0.930 . S
C2826 C2824 1.395 . S
C2826 C2829 1.403 . S
C2827 C2824 1.403 . S
C2827 C2828 1.524 . S
C2827 C2831 1.400 . S
C2828 H2813 0.960 . S
C2828 H2814 0.960 . S
C2828 H2815 0.960 . S
C2828 C2827 1.524 . S
C2829 C2826 1.403 . S
C2829 C2830 1.392 . S
C2829 C2833 1.495 . S
C2830 C2829 1.392 . S
C2830 C2831 1.385 . S
C2830 C2832 1.478 . S
C2831 H2825 0.930 . S
C2831 C2827 1.400 . S
C2831 C2830 1.385 . S
C2832 C2830 1.478 . S
C2832 C2834 1.381 . S
C2832 C2838 1.383 . S
C2833 C2829 1.495 . S
C2833 H2839 0.959 . S
C2833 H2840 0.961 . S
C2833 H2841 0.960 . S
C2834 C2832 1.381 . S
C2834 C2835 1.394 . S
C2834 H2842 0.930 . S
C2835 C2834 1.394 . S
C2835 C2836 1.383 . S
C2835 H2843 0.929 . S
C2836 C2835 1.383 . S
C2836 C2837 1.377 . S
C2837 H2821 0.930 . S
C2837 C2836 1.377 . S
C2837 C2838 1.379 . S
C2838 H2822 0.931 . S
C2838 C2832 1.383 . S
C2838 C2837 1.379 . S
H2839 C2833 0.959 . S
H2840 C2833 0.961 . S
H2841 C2833 0.960 . S
H2842 C2834 0.930 . S
H2843 C2835 0.929 . S
H2844 C2852 0.929 . S
H2845 C2854 0.930 . S
H2846 C2856 0.930 . S
H2847 C2859 0.929 . S
H2848 C2862 0.930 . S
H2849 C2864 0.960 . S
H2850 C2864 0.960 . S
H2851 C2864 0.960 . S
C2852 H2844 0.929 . S
C2852 C2853 1.377 . S
C2852 C2854 1.384 . S
C2853 C2852 1.377 . S
C2853 C2859 1.390 . S
C2854 H2845 0.930 . S
C2854 C2852 1.384 . S
C2854 C2855 1.372 . S
C2855 C2854 1.372 . S
C2855 C2856 1.400 . S
C2855 C2860 1.490 . S
C2856 H2846 0.930 . S
C2856 C2855 1.400 . S
C2856 C2859 1.386 . S
H2857 C2873 0.930 . S
H2858 C2874 0.931 . S
C2859 H2847 0.929 . S
C2859 C2853 1.390 . S
C2859 C2856 1.386 . S
C2860 C2855 1.490 . S
C2860 C2862 1.395 . S
C2860 C2863 1.403 . S
H2861 C2867 0.930 . S
C2862 H2848 0.930 . S
C2862 C2860 1.395 . S
C2862 C2865 1.403 . S
C2863 C2860 1.403 . S
C2863 C2864 1.524 . S
C2863 C2867 1.400 . S
C2864 H2849 0.960 . S
C2864 H2850 0.960 . S
C2864 H2851 0.960 . S
C2864 C2863 1.524 . S
C2865 C2862 1.403 . S
C2865 C2866 1.392 . S
C2865 C2869 1.495 . S
C2866 C2865 1.392 . S
C2866 C2867 1.385 . S
C2866 C2868 1.478 . S
C2867 H2861 0.930 . S
C2867 C2863 1.400 . S
C2867 C2866 1.385 . S
C2868 C2866 1.478 . S
C2868 C2870 1.381 . S
C2868 C2874 1.383 . S
C2869 C2865 1.495 . S
C2869 H2875 0.959 . S
C2869 H2876 0.961 . S
C2869 H2877 0.960 . S
C2870 C2868 1.381 . S
C2870 C2871 1.394 . S
C2870 H2878 0.930 . S
C2871 C2870 1.394 . S
C2871 C2872 1.383 . S
C2871 H2879 0.929 . S
C2872 C2871 1.383 . S
C2872 C2873 1.377 . S
C2873 H2857 0.930 . S
C2873 C2872 1.377 . S
C2873 C2874 1.379 . S
C2874 H2858 0.931 . S
C2874 C2868 1.383 . S
C2874 C2873 1.379 . S
H2875 C2869 0.959 . S
H2876 C2869 0.961 . S
H2877 C2869 0.960 . S
H2878 C2870 0.930 . S
H2879 C2871 0.929 . S
H2880 C2888 0.929 . S
H2881 C2890 0.930 . S
H2882 C2892 0.930 . S
H2883 C2895 0.929 . S
H2884 C2898 0.930 . S
H2885 C2900 0.960 . S
H2886 C2900 0.960 . S
H2887 C2900 0.960 . S
C2888 H2880 0.929 . S
C2888 C2889 1.377 . S
C2888 C2890 1.384 . S
C2889 C2888 1.377 . S
C2889 C2895 1.390 . S
C2890 H2881 0.930 . S
C2890 C2888 1.384 . S
C2890 C2891 1.372 . S
C2891 C2890 1.372 . S
C2891 C2892 1.400 . S
C2891 C2896 1.490 . S
C2892 H2882 0.930 . S
C2892 C2891 1.400 . S
C2892 C2895 1.386 . S
H2893 C2909 0.930 . S
H2894 C2910 0.931 . S
C2895 H2883 0.929 . S
C2895 C2889 1.390 . S
C2895 C2892 1.386 . S
C2896 C2891 1.490 . S
C2896 C2898 1.395 . S
C2896 C2899 1.403 . S
H2897 C2903 0.930 . S
C2898 H2884 0.930 . S
C2898 C2896 1.395 . S
C2898 C2901 1.403 . S
C2899 C2896 1.403 . S
C2899 C2900 1.524 . S
C2899 C2903 1.400 . S
C2900 H2885 0.960 . S
C2900 H2886 0.960 . S
C2900 H2887 0.960 . S
C2900 C2899 1.524 . S
C2901 C2898 1.403 . S
C2901 C2902 1.392 . S
C2901 C2905 1.495 . S
C2902 C2901 1.392 . S
C2902 C2903 1.385 . S
C2902 C2904 1.478 . S
C2903 H2897 0.930 . S
C2903 C2899 1.400 . S
C2903 C2902 1.385 . S
C2904 C2902 1.478 . S
C2904 C2906 1.381 . S
C2904 C2910 1.383 . S
C2905 C2901 1.495 . S
C2905 H2911 0.959 . S
C2905 H2912 0.961 . S
C2905 H2913 0.960 . S
C2906 C2904 1.381 . S
C2906 C2907 1.394 . S
C2906 H2914 0.930 . S
C2907 C2906 1.394 . S
C2907 C2908 1.383 . S
C2907 H2915 0.929 . S
C2908 C2907 1.383 . S
C2908 C2909 1.377 . S
C2909 H2893 0.930 . S
C2909 C2908 1.377 . S
C2909 C2910 1.379 . S
C2910 H2894 0.931 . S
C2910 C2904 1.383 . S
C2910 C2909 1.379 . S
H2911 C2905 0.959 . S
H2912 C2905 0.961 . S
H2913 C2905 0.960 . S
H2914 C2906 0.930 . S
H2915 C2907 0.929 . S
H2916 C2924 0.929 . S
H2917 C2926 0.930 . S
H2918 C2928 0.930 . S
H2919 C2931 0.929 1_554 S
H2920 C2934 0.930 . S
H2921 C2936 0.960 . S
H2922 C2936 0.960 . S
H2923 C2936 0.960 . S
C2924 H2916 0.929 . S
C2924 C2925 1.377 . S
C2924 C2926 1.384 . S
C2925 C2924 1.377 . S
C2925 C2931 1.390 . S
C2926 H2917 0.930 . S
C2926 C2924 1.384 . S
C2926 C2927 1.372 . S
C2927 C2926 1.372 . S
C2927 C2928 1.400 . S
C2927 C2932 1.490 . S
C2928 H2918 0.930 . S
C2928 C2927 1.400 . S
C2928 C2931 1.386 . S
H2929 C2945 0.930 . S
H2930 C2946 0.931 . S
C2931 H2919 0.929 1_556 S
C2931 C2925 1.390 . S
C2931 C2928 1.386 . S
C2932 C2927 1.490 . S
C2932 C2934 1.395 . S
C2932 C2935 1.403 . S
H2933 C2939 0.930 . S
C2934 H2920 0.930 . S
C2934 C2932 1.395 . S
C2934 C2937 1.403 . S
C2935 C2932 1.403 . S
C2935 C2936 1.524 . S
C2935 C2939 1.400 . S
C2936 H2921 0.960 . S
C2936 H2922 0.960 . S
C2936 H2923 0.960 . S
C2936 C2935 1.524 . S
C2937 C2934 1.403 . S
C2937 C2938 1.392 . S
C2937 C2941 1.495 . S
C2938 C2937 1.392 . S
C2938 C2939 1.385 . S
C2938 C2940 1.478 . S
C2939 H2933 0.930 . S
C2939 C2935 1.400 . S
C2939 C2938 1.385 . S
C2940 C2938 1.478 . S
C2940 C2942 1.381 . S
C2940 C2946 1.383 . S
C2941 C2937 1.495 . S
C2941 H2947 0.959 . S
C2941 H2948 0.961 . S
C2941 H2949 0.960 . S
C2942 C2940 1.381 . S
C2942 C2943 1.394 . S
C2942 H2950 0.930 . S
C2943 C2942 1.394 . S
C2943 C2944 1.383 . S
C2943 H2951 0.929 . S
C2944 C2943 1.383 . S
C2944 C2945 1.377 . S
C2945 H2929 0.930 . S
C2945 C2944 1.377 . S
C2945 C2946 1.379 . S
C2946 H2930 0.931 . S
C2946 C2940 1.383 . S
C2946 C2945 1.379 . S
H2947 C2941 0.959 . S
H2948 C2941 0.961 . S
H2949 C2941 0.960 . S
H2950 C2942 0.930 . S
H2951 C2943 0.929 . S
H2952 C2960 0.929 . S
H2953 C2962 0.930 . S
H2954 C2964 0.930 . S
H2955 C2967 0.929 1_554 S
H2956 C2970 0.930 . S
H2957 C2972 0.960 . S
H2958 C2972 0.960 . S
H2959 C2972 0.960 . S
C2960 H2952 0.929 . S
C2960 C2961 1.377 . S
C2960 C2962 1.384 . S
C2961 C2960 1.377 . S
C2961 C2967 1.390 . S
C2962 H2953 0.930 . S
C2962 C2960 1.384 . S
C2962 C2963 1.372 . S
C2963 C2962 1.372 . S
C2963 C2964 1.400 . S
C2963 C2968 1.490 . S
C2964 H2954 0.930 . S
C2964 C2963 1.400 . S
C2964 C2967 1.386 . S
H2965 C2981 0.930 . S
H2966 C2982 0.931 . S
C2967 H2955 0.929 1_556 S
C2967 C2961 1.390 . S
C2967 C2964 1.386 . S
C2968 C2963 1.490 . S
C2968 C2970 1.395 . S
C2968 C2971 1.403 . S
H2969 C2975 0.930 . S
C2970 H2956 0.930 . S
C2970 C2968 1.395 . S
C2970 C2973 1.403 . S
C2971 C2968 1.403 . S
C2971 C2972 1.524 . S
C2971 C2975 1.400 . S
C2972 H2957 0.960 . S
C2972 H2958 0.960 . S
C2972 H2959 0.960 . S
C2972 C2971 1.524 . S
C2973 C2970 1.403 . S
C2973 C2974 1.392 . S
C2973 C2977 1.495 . S
C2974 C2973 1.392 . S
C2974 C2975 1.385 . S
C2974 C2976 1.478 . S
C2975 H2969 0.930 . S
C2975 C2971 1.400 . S
C2975 C2974 1.385 . S
C2976 C2974 1.478 . S
C2976 C2978 1.381 . S
C2976 C2982 1.383 . S
C2977 C2973 1.495 . S
C2977 H2983 0.959 . S
C2977 H2984 0.961 . S
C2977 H2985 0.960 . S
C2978 C2976 1.381 . S
C2978 C2979 1.394 . S
C2978 H2986 0.930 . S
C2979 C2978 1.394 . S
C2979 C2980 1.383 . S
C2979 H2987 0.929 . S
C2980 C2979 1.383 . S
C2980 C2981 1.377 . S
C2981 H2965 0.930 . S
C2981 C2980 1.377 . S
C2981 C2982 1.379 . S
C2982 H2966 0.931 . S
C2982 C2976 1.383 . S
C2982 C2981 1.379 . S
H2983 C2977 0.959 . S
H2984 C2977 0.961 . S
H2985 C2977 0.960 . S
H2986 C2978 0.930 . S
H2987 C2979 0.929 . S
H2988 C2996 0.929 1_554 S
H2989 C2998 0.930 . S
H2990 C3000 0.930 . S
H2991 C3003 0.929 . S
H2992 C3006 0.930 . S
H2993 C3008 0.960 . S
H2994 C3008 0.960 . S
H2995 C3008 0.960 . S
C2996 H2988 0.929 1_556 S
C2996 C2997 1.377 . S
C2996 C2998 1.384 . S
C2997 C2996 1.377 . S
C2997 C3003 1.390 . S
C2998 H2989 0.930 . S
C2998 C2996 1.384 . S
C2998 C2999 1.372 . S
C2999 C2998 1.372 . S
C2999 C3000 1.400 . S
C2999 C3004 1.490 . S
C3000 H2990 0.930 . S
C3000 C2999 1.400 . S
C3000 C3003 1.386 . S
H3001 C3017 0.930 . S
H3002 C3018 0.931 . S
C3003 H2991 0.929 . S
C3003 C2997 1.390 . S
C3003 C3000 1.386 . S
C3004 C2999 1.490 . S
C3004 C3006 1.395 . S
C3004 C3007 1.403 . S
H3005 C3011 0.930 . S
C3006 H2992 0.930 . S
C3006 C3004 1.395 . S
C3006 C3009 1.403 . S
C3007 C3004 1.403 . S
C3007 C3008 1.524 . S
C3007 C3011 1.400 . S
C3008 H2993 0.960 . S
C3008 H2994 0.960 . S
C3008 H2995 0.960 . S
C3008 C3007 1.524 . S
C3009 C3006 1.403 . S
C3009 C3010 1.392 . S
C3009 C3013 1.495 . S
C3010 C3009 1.392 . S
C3010 C3011 1.385 . S
C3010 C3012 1.478 . S
C3011 H3005 0.930 . S
C3011 C3007 1.400 . S
C3011 C3010 1.385 . S
C3012 C3010 1.478 . S
C3012 C3014 1.381 . S
C3012 C3018 1.383 . S
C3013 C3009 1.495 . S
C3013 H3019 0.959 . S
C3013 H3020 0.961 . S
C3013 H3021 0.960 . S
C3014 C3012 1.381 . S
C3014 C3015 1.394 . S
C3014 H3022 0.930 . S
C3015 C3014 1.394 . S
C3015 C3016 1.383 . S
C3015 H3023 0.929 . S
C3016 C3015 1.383 . S
C3016 C3017 1.377 . S
C3017 H3001 0.930 . S
C3017 C3016 1.377 . S
C3017 C3018 1.379 . S
C3018 H3002 0.931 . S
C3018 C3012 1.383 . S
C3018 C3017 1.379 . S
H3019 C3013 0.959 . S
H3020 C3013 0.961 . S
H3021 C3013 0.960 . S
H3022 C3014 0.930 . S
H3023 C3015 0.929 . S
H3024 C3032 0.929 . S
H3025 C3034 0.930 . S
H3026 C3036 0.930 . S
H3027 C3039 0.929 1_554 S
H3028 C3042 0.930 . S
H3029 C3044 0.960 . S
H3030 C3044 0.960 . S
H3031 C3044 0.960 . S
C3032 H3024 0.929 . S
C3032 C3033 1.377 . S
C3032 C3034 1.384 . S
C3033 C3032 1.377 . S
C3033 C3039 1.390 . S
C3034 H3025 0.930 . S
C3034 C3032 1.384 . S
C3034 C3035 1.372 . S
C3035 C3034 1.372 . S
C3035 C3036 1.400 . S
C3035 C3040 1.490 . S
C3036 H3026 0.930 . S
C3036 C3035 1.400 . S
C3036 C3039 1.386 . S
H3037 C3053 0.930 . S
H3038 C3054 0.931 . S
C3039 H3027 0.929 1_556 S
C3039 C3033 1.390 . S
C3039 C3036 1.386 . S
C3040 C3035 1.490 . S
C3040 C3042 1.395 . S
C3040 C3043 1.403 . S
H3041 C3047 0.930 . S
C3042 H3028 0.930 . S
C3042 C3040 1.395 . S
C3042 C3045 1.403 . S
C3043 C3040 1.403 . S
C3043 C3044 1.524 . S
C3043 C3047 1.400 . S
C3044 H3029 0.960 . S
C3044 H3030 0.960 . S
C3044 H3031 0.960 . S
C3044 C3043 1.524 . S
C3045 C3042 1.403 . S
C3045 C3046 1.392 . S
C3045 C3049 1.495 . S
C3046 C3045 1.392 . S
C3046 C3047 1.385 . S
C3046 C3048 1.478 . S
C3047 H3041 0.930 . S
C3047 C3043 1.400 . S
C3047 C3046 1.385 . S
C3048 C3046 1.478 . S
C3048 C3050 1.381 . S
C3048 C3054 1.383 . S
C3049 C3045 1.495 . S
C3049 H3055 0.959 . S
C3049 H3056 0.961 . S
C3049 H3057 0.960 . S
C3050 C3048 1.381 . S
C3050 C3051 1.394 . S
C3050 H3058 0.930 . S
C3051 C3050 1.394 . S
C3051 C3052 1.383 . S
C3051 H3059 0.929 . S
C3052 C3051 1.383 . S
C3052 C3053 1.377 . S
C3053 H3037 0.930 . S
C3053 C3052 1.377 . S
C3053 C3054 1.379 . S
C3054 H3038 0.931 . S
C3054 C3048 1.383 . S
C3054 C3053 1.379 . S
H3055 C3049 0.959 . S
H3056 C3049 0.961 . S
H3057 C3049 0.960 . S
H3058 C3050 0.930 . S
H3059 C3051 0.929 . S
H3060 C3068 0.929 1_554 S
H3061 C3070 0.930 . S
H3062 C3072 0.930 . S
H3063 C3075 0.929 . S
H3064 C3078 0.930 . S
H3065 C3080 0.960 . S
H3066 C3080 0.960 . S
H3067 C3080 0.960 . S
C3068 H3060 0.929 1_556 S
C3068 C3069 1.377 . S
C3068 C3070 1.384 . S
C3069 C3068 1.377 . S
C3069 C3075 1.390 . S
C3070 H3061 0.930 . S
C3070 C3068 1.384 . S
C3070 C3071 1.372 . S
C3071 C3070 1.372 . S
C3071 C3072 1.400 . S
C3071 C3076 1.490 . S
C3072 H3062 0.930 . S
C3072 C3071 1.400 . S
C3072 C3075 1.386 . S
H3073 C3089 0.930 . S
H3074 C3090 0.931 . S
C3075 H3063 0.929 . S
C3075 C3069 1.390 . S
C3075 C3072 1.386 . S
C3076 C3071 1.490 . S
C3076 C3078 1.395 . S
C3076 C3079 1.403 . S
H3077 C3083 0.930 . S
C3078 H3064 0.930 . S
C3078 C3076 1.395 . S
C3078 C3081 1.403 . S
C3079 C3076 1.403 . S
C3079 C3080 1.524 . S
C3079 C3083 1.400 . S
C3080 H3065 0.960 . S
C3080 H3066 0.960 . S
C3080 H3067 0.960 . S
C3080 C3079 1.524 . S
C3081 C3078 1.403 . S
C3081 C3082 1.392 . S
C3081 C3085 1.495 . S
C3082 C3081 1.392 . S
C3082 C3083 1.385 . S
C3082 C3084 1.478 . S
C3083 H3077 0.930 . S
C3083 C3079 1.400 . S
C3083 C3082 1.385 . S
C3084 C3082 1.478 . S
C3084 C3086 1.381 . S
C3084 C3090 1.383 . S
C3085 C3081 1.495 . S
C3085 H3091 0.959 . S
C3085 H3092 0.961 . S
C3085 H3093 0.960 . S
C3086 C3084 1.381 . S
C3086 C3087 1.394 . S
C3086 H3094 0.930 . S
C3087 C3086 1.394 . S
C3087 C3088 1.383 . S
C3087 H3095 0.929 . S
C3088 C3087 1.383 . S
C3088 C3089 1.377 . S
C3089 H3073 0.930 . S
C3089 C3088 1.377 . S
C3089 C3090 1.379 . S
C3090 H3074 0.931 . S
C3090 C3084 1.383 . S
C3090 C3089 1.379 . S
H3091 C3085 0.959 . S
H3092 C3085 0.961 . S
H3093 C3085 0.960 . S
H3094 C3086 0.930 . S
H3095 C3087 0.929 . S
H3096 C3104 0.929 . S
H3097 C3106 0.930 . S
H3098 C3108 0.930 . S
H3099 C3111 0.929 . S
H3100 C3114 0.930 . S
H3101 C3116 0.960 . S
H3102 C3116 0.960 . S
H3103 C3116 0.960 . S
C3104 H3096 0.929 . S
C3104 C3105 1.377 . S
C3104 C3106 1.384 . S
C3105 C3104 1.377 . S
C3105 C3111 1.390 . S
C3106 H3097 0.930 . S
C3106 C3104 1.384 . S
C3106 C3107 1.372 . S
C3107 C3106 1.372 . S
C3107 C3108 1.400 . S
C3107 C3112 1.490 . S
C3108 H3098 0.930 . S
C3108 C3107 1.400 . S
C3108 C3111 1.386 . S
H3109 C3125 0.930 . S
H3110 C3126 0.931 . S
C3111 H3099 0.929 . S
C3111 C3105 1.390 . S
C3111 C3108 1.386 . S
C3112 C3107 1.490 . S
C3112 C3114 1.395 . S
C3112 C3115 1.403 . S
H3113 C3119 0.930 . S
C3114 H3100 0.930 . S
C3114 C3112 1.395 . S
C3114 C3117 1.403 . S
C3115 C3112 1.403 . S
C3115 C3116 1.524 . S
C3115 C3119 1.400 . S
C3116 H3101 0.960 . S
C3116 H3102 0.960 . S
C3116 H3103 0.960 . S
C3116 C3115 1.524 . S
C3117 C3114 1.403 . S
C3117 C3118 1.392 . S
C3117 C3121 1.495 . S
C3118 C3117 1.392 . S
C3118 C3119 1.385 . S
C3118 C3120 1.478 . S
C3119 H3113 0.930 . S
C3119 C3115 1.400 . S
C3119 C3118 1.385 . S
C3120 C3118 1.478 . S
C3120 C3122 1.381 . S
C3120 C3126 1.383 . S
C3121 C3117 1.495 . S
C3121 H3127 0.959 . S
C3121 H3128 0.961 . S
C3121 H3129 0.960 . S
C3122 C3120 1.381 . S
C3122 C3123 1.394 . S
C3122 H3130 0.930 . S
C3123 C3122 1.394 . S
C3123 C3124 1.383 . S
C3123 H3131 0.929 . S
C3124 C3123 1.383 . S
C3124 C3125 1.377 . S
C3125 H3109 0.930 . S
C3125 C3124 1.377 . S
C3125 C3126 1.379 . S
C3126 H3110 0.931 . S
C3126 C3120 1.383 . S
C3126 C3125 1.379 . S
H3127 C3121 0.959 . S
H3128 C3121 0.961 . S
H3129 C3121 0.960 . S
H3130 C3122 0.930 . S
H3131 C3123 0.929 . S
H3132 C3140 0.929 . S
H3133 C3142 0.930 . S
H3134 C3144 0.930 . S
H3135 C3147 0.929 . S
H3136 C3150 0.930 . S
H3137 C3152 0.960 . S
H3138 C3152 0.960 . S
H3139 C3152 0.960 . S
C3140 H3132 0.929 . S
C3140 C3141 1.377 . S
C3140 C3142 1.384 . S
C3141 C3140 1.377 . S
C3141 C3147 1.390 . S
C3142 H3133 0.930 . S
C3142 C3140 1.384 . S
C3142 C3143 1.372 . S
C3143 C3142 1.372 . S
C3143 C3144 1.400 . S
C3143 C3148 1.490 . S
C3144 H3134 0.930 . S
C3144 C3143 1.400 . S
C3144 C3147 1.386 . S
H3145 C3161 0.930 . S
H3146 C3162 0.931 . S
C3147 H3135 0.929 . S
C3147 C3141 1.390 . S
C3147 C3144 1.386 . S
C3148 C3143 1.490 . S
C3148 C3150 1.395 . S
C3148 C3151 1.403 . S
H3149 C3155 0.930 . S
C3150 H3136 0.930 . S
C3150 C3148 1.395 . S
C3150 C3153 1.403 . S
C3151 C3148 1.403 . S
C3151 C3152 1.524 . S
C3151 C3155 1.400 . S
C3152 H3137 0.960 . S
C3152 H3138 0.960 . S
C3152 H3139 0.960 . S
C3152 C3151 1.524 . S
C3153 C3150 1.403 . S
C3153 C3154 1.392 . S
C3153 C3157 1.495 . S
C3154 C3153 1.392 . S
C3154 C3155 1.385 . S
C3154 C3156 1.478 . S
C3155 H3149 0.930 . S
C3155 C3151 1.400 . S
C3155 C3154 1.385 . S
C3156 C3154 1.478 . S
C3156 C3158 1.381 . S
C3156 C3162 1.383 . S
C3157 C3153 1.495 . S
C3157 H3163 0.959 . S
C3157 H3164 0.961 . S
C3157 H3165 0.960 . S
C3158 C3156 1.381 . S
C3158 C3159 1.394 . S
C3158 H3166 0.930 . S
C3159 C3158 1.394 . S
C3159 C3160 1.383 . S
C3159 H3167 0.929 . S
C3160 C3159 1.383 . S
C3160 C3161 1.377 . S
C3161 H3145 0.930 . S
C3161 C3160 1.377 . S
C3161 C3162 1.379 . S
C3162 H3146 0.931 . S
C3162 C3156 1.383 . S
C3162 C3161 1.379 . S
H3163 C3157 0.959 . S
H3164 C3157 0.961 . S
H3165 C3157 0.960 . S
H3166 C3158 0.930 . S
H3167 C3159 0.929 . S
H3168 C3176 0.929 . S
H3169 C3178 0.930 . S
H3170 C3180 0.930 . S
H3171 C3183 0.929 . S
H3172 C3186 0.930 . S
H3173 C3188 0.960 . S
H3174 C3188 0.960 . S
H3175 C3188 0.960 . S
C3176 H3168 0.929 . S
C3176 C3177 1.377 . S
C3176 C3178 1.384 . S
C3177 C3176 1.377 . S
C3177 C3183 1.390 . S
C3178 H3169 0.930 . S
C3178 C3176 1.384 . S
C3178 C3179 1.372 . S
C3179 C3178 1.372 . S
C3179 C3180 1.400 . S
C3179 C3184 1.490 . S
C3180 H3170 0.930 . S
C3180 C3179 1.400 . S
C3180 C3183 1.386 . S
H3181 C3197 0.930 . S
H3182 C3198 0.931 . S
C3183 H3171 0.929 . S
C3183 C3177 1.390 . S
C3183 C3180 1.386 . S
C3184 C3179 1.490 . S
C3184 C3186 1.395 . S
C3184 C3187 1.403 . S
H3185 C3191 0.930 . S
C3186 H3172 0.930 . S
C3186 C3184 1.395 . S
C3186 C3189 1.403 . S
C3187 C3184 1.403 . S
C3187 C3188 1.524 . S
C3187 C3191 1.400 . S
C3188 H3173 0.960 . S
C3188 H3174 0.960 . S
C3188 H3175 0.960 . S
C3188 C3187 1.524 . S
C3189 C3186 1.403 . S
C3189 C3190 1.392 . S
C3189 C3193 1.495 . S
C3190 C3189 1.392 . S
C3190 C3191 1.385 . S
C3190 C3192 1.478 . S
C3191 H3185 0.930 . S
C3191 C3187 1.400 . S
C3191 C3190 1.385 . S
C3192 C3190 1.478 . S
C3192 C3194 1.381 . S
C3192 C3198 1.383 . S
C3193 C3189 1.495 . S
C3193 H3199 0.959 . S
C3193 H3200 0.961 . S
C3193 H3201 0.960 . S
C3194 C3192 1.381 . S
C3194 C3195 1.394 . S
C3194 H3202 0.930 . S
C3195 C3194 1.394 . S
C3195 C3196 1.383 . S
C3195 H3203 0.929 . S
C3196 C3195 1.383 . S
C3196 C3197 1.377 . S
C3197 H3181 0.930 . S
C3197 C3196 1.377 . S
C3197 C3198 1.379 . S
C3198 H3182 0.931 . S
C3198 C3192 1.383 . S
C3198 C3197 1.379 . S
H3199 C3193 0.959 . S
H3200 C3193 0.961 . S
H3201 C3193 0.960 . S
H3202 C3194 0.930 . S
H3203 C3195 0.929 . S
H3204 C3212 0.929 . S
H3205 C3214 0.930 . S
H3206 C3216 0.930 . S
H3207 C3219 0.929 . S
H3208 C3222 0.930 . S
H3209 C3224 0.960 . S
H3210 C3224 0.960 . S
H3211 C3224 0.960 . S
C3212 H3204 0.929 . S
C3212 C3213 1.377 . S
C3212 C3214 1.384 . S
C3213 C3212 1.377 . S
C3213 C3219 1.390 . S
C3214 H3205 0.930 . S
C3214 C3212 1.384 . S
C3214 C3215 1.372 . S
C3215 C3214 1.372 . S
C3215 C3216 1.400 . S
C3215 C3220 1.490 . S
C3216 H3206 0.930 . S
C3216 C3215 1.400 . S
C3216 C3219 1.386 . S
H3217 C3233 0.930 . S
H3218 C3234 0.931 . S
C3219 H3207 0.929 . S
C3219 C3213 1.390 . S
C3219 C3216 1.386 . S
C3220 C3215 1.490 . S
C3220 C3222 1.395 . S
C3220 C3223 1.403 . S
H3221 C3227 0.930 . S
C3222 H3208 0.930 . S
C3222 C3220 1.395 . S
C3222 C3225 1.403 . S
C3223 C3220 1.403 . S
C3223 C3224 1.524 . S
C3223 C3227 1.400 . S
C3224 H3209 0.960 . S
C3224 H3210 0.960 . S
C3224 H3211 0.960 . S
C3224 C3223 1.524 . S
C3225 C3222 1.403 . S
C3225 C3226 1.392 . S
C3225 C3229 1.495 . S
C3226 C3225 1.392 . S
C3226 C3227 1.385 . S
C3226 C3228 1.478 . S
C3227 H3221 0.930 . S
C3227 C3223 1.400 . S
C3227 C3226 1.385 . S
C3228 C3226 1.478 . S
C3228 C3230 1.381 . S
C3228 C3234 1.383 . S
C3229 C3225 1.495 . S
C3229 H3235 0.959 . S
C3229 H3236 0.961 . S
C3229 H3237 0.960 . S
C3230 C3228 1.381 . S
C3230 C3231 1.394 . S
C3230 H3238 0.930 . S
C3231 C3230 1.394 . S
C3231 C3232 1.383 . S
C3231 H3239 0.929 . S
C3232 C3231 1.383 . S
C3232 C3233 1.377 . S
C3233 H3217 0.930 . S
C3233 C3232 1.377 . S
C3233 C3234 1.379 . S
C3234 H3218 0.931 . S
C3234 C3228 1.383 . S
C3234 C3233 1.379 . S
H3235 C3229 0.959 . S
H3236 C3229 0.961 . S
H3237 C3229 0.960 . S
H3238 C3230 0.930 . S
H3239 C3231 0.929 . S
H3240 C3248 0.929 . S
H3241 C3250 0.930 . S
H3242 C3252 0.930 . S
H3243 C3255 0.929 . S
H3244 C3258 0.930 . S
H3245 C3260 0.960 . S
H3246 C3260 0.960 . S
H3247 C3260 0.960 . S
C3248 H3240 0.929 . S
C3248 C3249 1.377 . S
C3248 C3250 1.384 . S
C3249 C3248 1.377 . S
C3249 C3255 1.390 . S
C3250 H3241 0.930 . S
C3250 C3248 1.384 . S
C3250 C3251 1.372 . S
C3251 C3250 1.372 . S
C3251 C3252 1.400 . S
C3251 C3256 1.490 . S
C3252 H3242 0.930 . S
C3252 C3251 1.400 . S
C3252 C3255 1.386 . S
H3253 C3269 0.930 . S
H3254 C3270 0.931 . S
C3255 H3243 0.929 . S
C3255 C3249 1.390 . S
C3255 C3252 1.386 . S
C3256 C3251 1.490 . S
C3256 C3258 1.395 . S
C3256 C3259 1.403 . S
H3257 C3263 0.930 . S
C3258 H3244 0.930 . S
C3258 C3256 1.395 . S
C3258 C3261 1.403 . S
C3259 C3256 1.403 . S
C3259 C3260 1.524 . S
C3259 C3263 1.400 . S
C3260 H3245 0.960 . S
C3260 H3246 0.960 . S
C3260 H3247 0.960 . S
C3260 C3259 1.524 . S
C3261 C3258 1.403 . S
C3261 C3262 1.392 . S
C3261 C3265 1.495 . S
C3262 C3261 1.392 . S
C3262 C3263 1.385 . S
C3262 C3264 1.478 . S
C3263 H3257 0.930 . S
C3263 C3259 1.400 . S
C3263 C3262 1.385 . S
C3264 C3262 1.478 . S
C3264 C3266 1.381 . S
C3264 C3270 1.383 . S
C3265 C3261 1.495 . S
C3265 H3271 0.959 . S
C3265 H3272 0.961 . S
C3265 H3273 0.960 . S
C3266 C3264 1.381 . S
C3266 C3267 1.394 . S
C3266 H3274 0.930 . S
C3267 C3266 1.394 . S
C3267 C3268 1.383 . S
C3267 H3275 0.929 . S
C3268 C3267 1.383 . S
C3268 C3269 1.377 . S
C3269 H3253 0.930 . S
C3269 C3268 1.377 . S
C3269 C3270 1.379 . S
C3270 H3254 0.931 . S
C3270 C3264 1.383 . S
C3270 C3269 1.379 . S
H3271 C3265 0.959 . S
H3272 C3265 0.961 . S
H3273 C3265 0.960 . S
H3274 C3266 0.930 . S
H3275 C3267 0.929 . S
H3276 C3284 0.929 . S
H3277 C3286 0.930 . S
H3278 C3288 0.930 . S
H3279 C3291 0.929 . S
H3280 C3294 0.930 . S
H3281 C3296 0.960 . S
H3282 C3296 0.960 . S
H3283 C3296 0.960 . S
C3284 H3276 0.929 . S
C3284 C3285 1.377 . S
C3284 C3286 1.384 . S
C3285 C3284 1.377 . S
C3285 C3291 1.390 . S
C3286 H3277 0.930 . S
C3286 C3284 1.384 . S
C3286 C3287 1.372 . S
C3287 C3286 1.372 . S
C3287 C3288 1.400 . S
C3287 C3292 1.490 . S
C3288 H3278 0.930 . S
C3288 C3287 1.400 . S
C3288 C3291 1.386 . S
H3289 C3305 0.930 . S
H3290 C3306 0.931 . S
C3291 H3279 0.929 . S
C3291 C3285 1.390 . S
C3291 C3288 1.386 . S
C3292 C3287 1.490 . S
C3292 C3294 1.395 . S
C3292 C3295 1.403 . S
H3293 C3299 0.930 . S
C3294 H3280 0.930 . S
C3294 C3292 1.395 . S
C3294 C3297 1.403 . S
C3295 C3292 1.403 . S
C3295 C3296 1.524 . S
C3295 C3299 1.400 . S
C3296 H3281 0.960 . S
C3296 H3282 0.960 . S
C3296 H3283 0.960 . S
C3296 C3295 1.524 . S
C3297 C3294 1.403 . S
C3297 C3298 1.392 . S
C3297 C3301 1.495 . S
C3298 C3297 1.392 . S
C3298 C3299 1.385 . S
C3298 C3300 1.478 . S
C3299 H3293 0.930 . S
C3299 C3295 1.400 . S
C3299 C3298 1.385 . S
C3300 C3298 1.478 . S
C3300 C3302 1.381 . S
C3300 C3306 1.383 . S
C3301 C3297 1.495 . S
C3301 H3307 0.959 . S
C3301 H3308 0.961 . S
C3301 H3309 0.960 . S
C3302 C3300 1.381 . S
C3302 C3303 1.394 . S
C3302 H3310 0.930 . S
C3303 C3302 1.394 . S
C3303 C3304 1.383 . S
C3303 H3311 0.929 . S
C3304 C3303 1.383 . S
C3304 C3305 1.377 . S
C3305 H3289 0.930 . S
C3305 C3304 1.377 . S
C3305 C3306 1.379 . S
C3306 H3290 0.931 . S
C3306 C3300 1.383 . S
C3306 C3305 1.379 . S
H3307 C3301 0.959 . S
H3308 C3301 0.961 . S
H3309 C3301 0.960 . S
H3310 C3302 0.930 . S
H3311 C3303 0.929 . S
H3312 C3320 0.929 . S
H3313 C3322 0.930 . S
H3314 C3324 0.930 . S
H3315 C3327 0.929 . S
H3316 C3330 0.930 . S
H3317 C3332 0.960 . S
H3318 C3332 0.960 . S
H3319 C3332 0.960 . S
C3320 H3312 0.929 . S
C3320 C3321 1.377 . S
C3320 C3322 1.384 . S
C3321 C3320 1.377 . S
C3321 C3327 1.390 . S
C3322 H3313 0.930 . S
C3322 C3320 1.384 . S
C3322 C3323 1.372 . S
C3323 C3322 1.372 . S
C3323 C3324 1.400 . S
C3323 C3328 1.490 . S
C3324 H3314 0.930 . S
C3324 C3323 1.400 . S
C3324 C3327 1.386 . S
H3325 C3341 0.930 . S
H3326 C3342 0.931 . S
C3327 H3315 0.929 . S
C3327 C3321 1.390 . S
C3327 C3324 1.386 . S
C3328 C3323 1.490 . S
C3328 C3330 1.395 . S
C3328 C3331 1.403 . S
H3329 C3335 0.930 . S
C3330 H3316 0.930 . S
C3330 C3328 1.395 . S
C3330 C3333 1.403 . S
C3331 C3328 1.403 . S
C3331 C3332 1.524 . S
C3331 C3335 1.400 . S
C3332 H3317 0.960 . S
C3332 H3318 0.960 . S
C3332 H3319 0.960 . S
C3332 C3331 1.524 . S
C3333 C3330 1.403 . S
C3333 C3334 1.392 . S
C3333 C3337 1.495 . S
C3334 C3333 1.392 . S
C3334 C3335 1.385 . S
C3334 C3336 1.478 . S
C3335 H3329 0.930 . S
C3335 C3331 1.400 . S
C3335 C3334 1.385 . S
C3336 C3334 1.478 . S
C3336 C3338 1.381 . S
C3336 C3342 1.383 . S
C3337 C3333 1.495 . S
C3337 H3343 0.959 . S
C3337 H3344 0.961 . S
C3337 H3345 0.960 . S
C3338 C3336 1.381 . S
C3338 C3339 1.394 . S
C3338 H3346 0.930 . S
C3339 C3338 1.394 . S
C3339 C3340 1.383 . S
C3339 H3347 0.929 . S
C3340 C3339 1.383 . S
C3340 C3341 1.377 . S
C3341 H3325 0.930 . S
C3341 C3340 1.377 . S
C3341 C3342 1.379 . S
C3342 H3326 0.931 . S
C3342 C3336 1.383 . S
C3342 C3341 1.379 . S
H3343 C3337 0.959 . S
H3344 C3337 0.961 . S
H3345 C3337 0.960 . S
H3346 C3338 0.930 . S
H3347 C3339 0.929 . S
H3348 C3356 0.929 . S
H3349 C3358 0.930 . S
H3350 C3360 0.930 1_655 S
H3351 C3363 0.934 1_655 S
H3352 C3366 0.930 . S
H3353 C3368 0.960 . S
H3354 C3368 0.960 . S
H3355 C3368 0.960 . S
C3356 H3348 0.929 . S
C3356 C3357 1.377 . S
C3356 C3358 1.384 . S
C3357 C3356 1.377 . S
C3357 C3363 1.390 . S
C3358 H3349 0.930 . S
C3358 C3356 1.384 . S
C3358 C3359 1.372 . S
C3359 C3358 1.372 . S
C3359 C3360 1.400 . S
C3359 C3364 1.490 . S
C3360 H3350 0.930 1_455 S
C3360 C3359 1.400 . S
C3360 C3363 1.386 . S
H3361 C3377 0.944 . S
H3362 C3378 0.931 1_655 S
C3363 H3351 0.934 1_455 S
C3363 C3357 1.390 . S
C3363 C3360 1.386 . S
C3364 C3359 1.490 . S
C3364 C3366 1.395 . S
C3364 C3367 1.403 1_455 S
H3365 C3371 0.930 . S
C3366 H3352 0.930 . S
C3366 C3364 1.395 . S
C3366 C3369 1.403 . S
C3367 C3364 1.403 1_655 S
C3367 C3368 1.524 . S
C3367 C3371 1.400 . S
C3368 H3353 0.960 . S
C3368 H3354 0.960 . S
C3368 H3355 0.960 . S
C3368 C3367 1.524 . S
C3369 C3366 1.403 . S
C3369 C3370 1.392 . S
C3369 C3373 1.495 . S
C3370 C3369 1.392 . S
C3370 C3371 1.385 1_455 S
C3370 C3372 1.478 . S
C3371 H3365 0.930 . S
C3371 C3367 1.400 . S
C3371 C3370 1.385 1_655 S
C3372 C3370 1.478 . S
C3372 C3374 1.381 . S
C3372 C3378 1.383 . S
C3373 C3369 1.495 . S
C3373 H3379 0.959 . S
C3373 H3380 0.961 . S
C3373 H3381 0.960 . S
C3374 C3372 1.381 . S
C3374 C3375 1.394 . S
C3374 H3382 0.930 . S
C3375 C3374 1.394 . S
C3375 C3376 1.383 . S
C3375 H3383 0.929 . S
C3376 C3375 1.383 . S
C3376 C3377 1.383 1_455 S
C3377 H3361 0.944 . S
C3377 C3376 1.383 1_655 S
C3377 C3378 1.360 1_655 S
C3378 H3362 0.931 1_455 S
C3378 C3372 1.383 . S
C3378 C3377 1.360 1_455 S
H3379 C3373 0.959 . S
H3380 C3373 0.961 . S
H3381 C3373 0.960 . S
H3382 C3374 0.930 . S
H3383 C3375 0.929 . S
H3384 C3392 0.929 . S
H3385 C3394 0.930 . S
H3386 C3396 0.930 . S
H3387 C3399 0.929 . S
H3388 C3402 0.930 . S
H3389 C3404 0.960 . S
H3390 C3404 0.960 . S
H3391 C3404 0.960 . S
C3392 H3384 0.929 . S
C3392 C3393 1.377 . S
C3392 C3394 1.384 . S
C3393 C3392 1.377 . S
C3393 C3399 1.390 . S
C3394 H3385 0.930 . S
C3394 C3392 1.384 . S
C3394 C3395 1.372 . S
C3395 C3394 1.372 . S
C3395 C3396 1.400 . S
C3395 C3400 1.490 . S
C3396 H3386 0.930 . S
C3396 C3395 1.400 . S
C3396 C3399 1.386 . S
H3397 C3413 0.930 . S
H3398 C3414 0.931 . S
C3399 H3387 0.929 . S
C3399 C3393 1.390 . S
C3399 C3396 1.386 . S
C3400 C3395 1.490 . S
C3400 C3402 1.395 . S
C3400 C3403 1.403 . S
H3401 C3407 0.930 . S
C3402 H3388 0.930 . S
C3402 C3400 1.395 . S
C3402 C3405 1.403 . S
C3403 C3400 1.403 . S
C3403 C3404 1.524 . S
C3403 C3407 1.400 . S
C3404 H3389 0.960 . S
C3404 H3390 0.960 . S
C3404 H3391 0.960 . S
C3404 C3403 1.524 . S
C3405 C3402 1.403 . S
C3405 C3406 1.392 . S
C3405 C3409 1.495 . S
C3406 C3405 1.392 . S
C3406 C3407 1.385 . S
C3406 C3408 1.478 . S
C3407 H3401 0.930 . S
C3407 C3403 1.400 . S
C3407 C3406 1.385 . S
C3408 C3406 1.478 . S
C3408 C3410 1.381 . S
C3408 C3414 1.383 . S
C3409 C3405 1.495 . S
C3409 H3415 0.959 . S
C3409 H3416 0.961 . S
C3409 H3417 0.960 . S
C3410 C3408 1.381 . S
C3410 C3411 1.394 . S
C3410 H3418 0.930 . S
C3411 C3410 1.394 . S
C3411 C3412 1.383 . S
C3411 H3419 0.929 . S
C3412 C3411 1.383 . S
C3412 C3413 1.377 . S
C3413 H3397 0.930 . S
C3413 C3412 1.377 . S
C3413 C3414 1.379 . S
C3414 H3398 0.931 . S
C3414 C3408 1.383 . S
C3414 C3413 1.379 . S
H3415 C3409 0.959 . S
H3416 C3409 0.961 . S
H3417 C3409 0.960 . S
H3418 C3410 0.930 . S
H3419 C3411 0.929 . S
H3420 C3428 0.929 . S
H3421 C3430 0.930 . S
H3422 C3432 0.930 . S
H3423 C3435 0.994 . S
H3424 C3438 0.930 . S
H3425 C3440 0.960 . S
H3426 C3440 0.960 . S
H3427 C3440 0.960 . S
C3428 H3420 0.929 . S
C3428 C3429 1.377 . S
C3428 C3430 1.384 . S
C3429 C3428 1.377 . S
C3429 C3435 1.353 1_565 S
C3430 H3421 0.930 . S
C3430 C3428 1.384 . S
C3430 C3431 1.372 . S
C3431 C3430 1.372 . S
C3431 C3432 1.400 1_565 S
C3431 C3436 1.490 . S
C3432 H3422 0.930 . S
C3432 C3431 1.400 1_545 S
C3432 C3435 1.361 . S
H3433 C3449 0.930 . S
H3434 C3450 0.931 . S
C3435 H3423 0.994 . S
C3435 C3429 1.353 1_545 S
C3435 C3432 1.361 . S
C3436 C3431 1.490 . S
C3436 C3438 1.395 . S
C3436 C3439 1.403 1_565 S
H3437 C3443 0.930 . S
C3438 H3424 0.930 . S
C3438 C3436 1.395 . S
C3438 C3441 1.403 . S
C3439 C3436 1.403 1_545 S
C3439 C3440 1.524 . S
C3439 C3443 1.400 . S
C3440 H3425 0.960 . S
C3440 H3426 0.960 . S
C3440 H3427 0.960 . S
C3440 C3439 1.524 . S
C3441 C3438 1.403 . S
C3441 C3442 1.392 . S
C3441 C3445 1.495 . S
C3442 C3441 1.392 . S
C3442 C3443 1.385 1_565 S
C3442 C3444 1.478 . S
C3443 H3437 0.930 . S
C3443 C3439 1.400 . S
C3443 C3442 1.385 1_545 S
C3444 C3442 1.478 . S
C3444 C3446 1.381 . S
C3444 C3450 1.383 1_565 S
C3445 C3441 1.495 . S
C3445 H3451 0.959 . S
C3445 H3452 0.961 . S
C3445 H3453 0.960 . S
C3446 C3444 1.381 . S
C3446 C3447 1.394 . S
C3446 H3454 0.930 . S
C3447 C3446 1.394 . S
C3447 C3448 1.383 . S
C3447 H3455 0.929 . S
C3448 C3447 1.383 . S
C3448 C3449 1.377 1_565 S
C3449 H3433 0.930 . S
C3449 C3448 1.377 1_545 S
C3449 C3450 1.379 . S
C3450 H3434 0.931 . S
C3450 C3444 1.383 1_545 S
C3450 C3449 1.379 . S
H3451 C3445 0.959 . S
H3452 C3445 0.961 . S
H3453 C3445 0.960 . S
H3454 C3446 0.930 . S
H3455 C3447 0.929 . S
H3456 C3464 0.929 . S
H3457 C3466 0.930 . S
H3458 C3468 0.930 . S
H3459 C3471 0.929 . S
H3460 C3474 0.930 . S
H3461 C3476 0.960 . S
H3462 C3476 0.960 . S
H3463 C3476 0.960 . S
C3464 H3456 0.929 . S
C3464 C3465 1.377 . S
C3464 C3466 1.384 . S
C3465 C3464 1.377 . S
C3465 C3471 1.390 . S
C3466 H3457 0.930 . S
C3466 C3464 1.384 . S
C3466 C3467 1.372 . S
C3467 C3466 1.372 . S
C3467 C3468 1.400 . S
C3467 C3472 1.490 . S
C3468 H3458 0.930 . S
C3468 C3467 1.400 . S
C3468 C3471 1.386 . S
H3469 C3485 0.930 . S
H3470 C3486 0.931 . S
C3471 H3459 0.929 . S
C3471 C3465 1.390 . S
C3471 C3468 1.386 . S
C3472 C3467 1.490 . S
C3472 C3474 1.395 . S
C3472 C3475 1.403 1_565 S
H3473 C3479 0.930 . S
C3474 H3460 0.930 . S
C3474 C3472 1.395 . S
C3474 C3477 1.403 . S
C3475 C3472 1.403 1_545 S
C3475 C3476 1.524 . S
C3475 C3479 1.400 . S
C3476 H3461 0.960 . S
C3476 H3462 0.960 . S
C3476 H3463 0.960 . S
C3476 C3475 1.524 . S
C3477 C3474 1.403 . S
C3477 C3478 1.392 . S
C3477 C3481 1.495 . S
C3478 C3477 1.392 . S
C3478 C3479 1.385 1_565 S
C3478 C3480 1.478 . S
C3479 H3473 0.930 . S
C3479 C3475 1.400 . S
C3479 C3478 1.385 1_545 S
C3480 C3478 1.478 . S
C3480 C3482 1.381 . S
C3480 C3486 1.383 . S
C3481 C3477 1.495 . S
C3481 H3487 0.959 . S
C3481 H3488 0.961 . S
C3481 H3489 0.960 . S
C3482 C3480 1.381 . S
C3482 C3483 1.394 . S
C3482 H3490 0.930 . S
C3483 C3482 1.394 . S
C3483 C3484 1.383 . S
C3483 H3491 0.929 . S
C3484 C3483 1.383 . S
C3484 C3485 1.377 . S
C3485 H3469 0.930 . S
C3485 C3484 1.377 . S
C3485 C3486 1.379 . S
C3486 H3470 0.931 . S
C3486 C3480 1.383 . S
C3486 C3485 1.379 . S
H3487 C3481 0.959 . S
H3488 C3481 0.961 . S
H3489 C3481 0.960 . S
H3490 C3482 0.930 . S
H3491 C3483 0.929 . S
H3492 C3500 1.003 . S
H3493 C3502 0.930 1_655 S
H3494 C3504 0.930 . S
H3495 C3507 0.929 . S
H3496 C3510 0.930 . S
H3497 C3512 0.960 . S
H3498 C3512 0.960 . S
H3499 C3512 0.960 1_455 S
C3500 H3492 1.003 . S
C3500 C3501 1.377 . S
C3500 C3502 1.384 . S
C3501 C3500 1.377 . S
C3501 C3507 1.390 . S
C3502 H3493 0.930 1_455 S
C3502 C3500 1.384 . S
C3502 C3503 1.372 . S
C3503 C3502 1.372 . S
C3503 C3504 1.400 . S
C3503 C3508 1.490 . S
C3504 H3494 0.930 . S
C3504 C3503 1.400 . S
C3504 C3507 1.386 . S
H3505 C3521 0.930 . S
H3506 C3522 0.931 . S
C3507 H3495 0.929 . S
C3507 C3501 1.390 . S
C3507 C3504 1.386 . S
C3508 C3503 1.490 . S
C3508 C3510 1.395 . S
C3508 C3511 1.403 . S
H3509 C3515 0.930 1_655 S
C3510 H3496 0.930 . S
C3510 C3508 1.395 . S
C3510 C3513 1.403 . S
C3511 C3508 1.403 . S
C3511 C3512 1.524 1_455 S
C3511 C3515 1.400 . S
C3512 H3497 0.960 . S
C3512 H3498 0.960 . S
C3512 H3499 0.960 1_655 S
C3512 C3511 1.524 1_655 S
C3513 C3510 1.403 . S
C3513 C3514 1.392 . S
C3513 C3517 1.495 . S
C3514 C3513 1.392 . S
C3514 C3515 1.385 . S
C3514 C3516 1.478 . S
C3515 H3509 0.930 1_455 S
C3515 C3511 1.400 . S
C3515 C3514 1.385 . S
C3516 C3514 1.478 . S
C3516 C3518 1.381 1_455 S
C3516 C3522 1.383 . S
C3517 C3513 1.495 . S
C3517 H3523 0.959 . S
C3517 H3524 0.961 . S
C3517 H3525 0.960 . S
C3518 C3516 1.381 1_655 S
C3518 C3519 1.394 . S
C3518 H3526 0.930 . S
C3519 C3518 1.394 . S
C3519 C3520 1.383 1_655 S
C3519 H3527 0.929 . S
C3520 C3519 1.383 1_455 S
C3520 C3521 1.377 . S
C3521 H3505 0.930 . S
C3521 C3520 1.377 . S
C3521 C3522 1.379 . S
C3522 H3506 0.931 . S
C3522 C3516 1.383 . S
C3522 C3521 1.379 . S
H3523 C3517 0.959 . S
H3524 C3517 0.961 . S
H3525 C3517 0.960 . S
H3526 C3518 0.930 . S
H3527 C3519 0.929 . S
H3528 C3536 0.929 . S
H3529 C3538 0.930 . S
H3530 C3540 0.930 . S
H3531 C3543 0.929 . S
H3532 C3546 0.930 . S
H3533 C3548 0.960 . S
H3534 C3548 0.960 . S
H3535 C3548 0.960 . S
C3536 H3528 0.929 . S
C3536 C3537 1.377 . S
C3536 C3538 1.384 . S
C3537 C3536 1.377 . S
C3537 C3543 1.390 . S
C3538 H3529 0.930 . S
C3538 C3536 1.384 . S
C3538 C3539 1.372 . S
C3539 C3538 1.372 . S
C3539 C3540 1.400 . S
C3539 C3544 1.490 . S
C3540 H3530 0.930 . S
C3540 C3539 1.400 . S
C3540 C3543 1.386 . S
H3541 C3557 0.930 . S
H3542 C3558 0.931 . S
C3543 H3531 0.929 . S
C3543 C3537 1.390 . S
C3543 C3540 1.386 . S
C3544 C3539 1.490 . S
C3544 C3546 1.395 . S
C3544 C3547 1.403 . S
H3545 C3551 0.930 . S
C3546 H3532 0.930 . S
C3546 C3544 1.395 . S
C3546 C3549 1.403 . S
C3547 C3544 1.403 . S
C3547 C3548 1.524 . S
C3547 C3551 1.400 . S
C3548 H3533 0.960 . S
C3548 H3534 0.960 . S
C3548 H3535 0.960 . S
C3548 C3547 1.524 . S
C3549 C3546 1.403 . S
C3549 C3550 1.392 . S
C3549 C3553 1.495 . S
C3550 C3549 1.392 . S
C3550 C3551 1.385 . S
C3550 C3552 1.478 . S
C3551 H3545 0.930 . S
C3551 C3547 1.400 . S
C3551 C3550 1.385 . S
C3552 C3550 1.478 . S
C3552 C3554 1.381 . S
C3552 C3558 1.383 . S
C3553 C3549 1.495 . S
C3553 H3559 0.959 . S
C3553 H3560 0.961 . S
C3553 H3561 0.960 . S
C3554 C3552 1.381 . S
C3554 C3555 1.394 . S
C3554 H3562 0.930 . S
C3555 C3554 1.394 . S
C3555 C3556 1.383 . S
C3555 H3563 0.929 . S
C3556 C3555 1.383 . S
C3556 C3557 1.377 . S
C3557 H3541 0.930 . S
C3557 C3556 1.377 . S
C3557 C3558 1.379 . S
C3558 H3542 0.931 . S
C3558 C3552 1.383 . S
C3558 C3557 1.379 . S
H3559 C3553 0.959 . S
H3560 C3553 0.961 . S
H3561 C3553 0.960 . S
H3562 C3554 0.930 . S
H3563 C3555 0.929 . S
H3564 C3572 0.929 . S
H3565 C3574 0.930 . S
H3566 C3576 0.930 . S
H3567 C3579 0.929 . S
H3568 C3582 0.930 . S
H3569 C3584 0.960 . S
H3570 C3584 0.960 . S
H3571 C3584 0.960 . S
C3572 H3564 0.929 . S
C3572 C3573 1.377 . S
C3572 C3574 1.384 . S
C3573 C3572 1.377 . S
C3573 C3579 1.390 . S
C3574 H3565 0.930 . S
C3574 C3572 1.384 . S
C3574 C3575 1.372 . S
C3575 C3574 1.372 . S
C3575 C3576 1.400 . S
C3575 C3580 1.490 . S
C3576 H3566 0.930 . S
C3576 C3575 1.400 . S
C3576 C3579 1.386 . S
H3577 C3593 0.930 . S
H3578 C3594 0.931 . S
C3579 H3567 0.929 . S
C3579 C3573 1.390 . S
C3579 C3576 1.386 . S
C3580 C3575 1.490 . S
C3580 C3582 1.395 . S
C3580 C3583 1.403 . S
H3581 C3587 0.930 . S
C3582 H3568 0.930 . S
C3582 C3580 1.395 . S
C3582 C3585 1.403 . S
C3583 C3580 1.403 . S
C3583 C3584 1.524 . S
C3583 C3587 1.400 . S
C3584 H3569 0.960 . S
C3584 H3570 0.960 . S
C3584 H3571 0.960 . S
C3584 C3583 1.524 . S
C3585 C3582 1.403 . S
C3585 C3586 1.392 . S
C3585 C3589 1.495 . S
C3586 C3585 1.392 . S
C3586 C3587 1.385 . S
C3586 C3588 1.478 . S
C3587 H3581 0.930 . S
C3587 C3583 1.400 . S
C3587 C3586 1.385 . S
C3588 C3586 1.478 . S
C3588 C3590 1.381 . S
C3588 C3594 1.383 . S
C3589 C3585 1.495 . S
C3589 H3595 0.959 . S
C3589 H3596 0.961 . S
C3589 H3597 0.960 . S
C3590 C3588 1.381 . S
C3590 C3591 1.394 . S
C3590 H3598 0.930 . S
C3591 C3590 1.394 . S
C3591 C3592 1.383 . S
C3591 H3599 0.929 . S
C3592 C3591 1.383 . S
C3592 C3593 1.377 . S
C3593 H3577 0.930 . S
C3593 C3592 1.377 . S
C3593 C3594 1.379 . S
C3594 H3578 0.931 . S
C3594 C3588 1.383 . S
C3594 C3593 1.379 . S
H3595 C3589 0.959 . S
H3596 C3589 0.961 . S
H3597 C3589 0.960 . S
H3598 C3590 0.930 . S
H3599 C3591 0.929 . S
H3600 C3608 0.929 . S
H3601 C3610 0.930 . S
H3602 C3612 0.930 . S
H3603 C3615 0.929 . S
H3604 C3618 0.930 . S
H3605 C3620 0.960 . S
H3606 C3620 0.960 . S
H3607 C3620 0.960 . S
C3608 H3600 0.929 . S
C3608 C3609 1.377 . S
C3608 C3610 1.384 . S
C3609 C3608 1.377 . S
C3609 C3615 1.390 . S
C3610 H3601 0.930 . S
C3610 C3608 1.384 . S
C3610 C3611 1.372 . S
C3611 C3610 1.372 . S
C3611 C3612 1.400 . S
C3611 C3616 1.490 . S
C3612 H3602 0.930 . S
C3612 C3611 1.400 . S
C3612 C3615 1.386 . S
H3613 C3629 0.930 . S
H3614 C3630 0.931 . S
C3615 H3603 0.929 . S
C3615 C3609 1.390 . S
C3615 C3612 1.386 . S
C3616 C3611 1.490 . S
C3616 C3618 1.395 . S
C3616 C3619 1.403 . S
H3617 C3623 0.930 . S
C3618 H3604 0.930 . S
C3618 C3616 1.395 . S
C3618 C3621 1.403 . S
C3619 C3616 1.403 . S
C3619 C3620 1.524 . S
C3619 C3623 1.400 . S
C3620 H3605 0.960 . S
C3620 H3606 0.960 . S
C3620 H3607 0.960 . S
C3620 C3619 1.524 . S
C3621 C3618 1.403 . S
C3621 C3622 1.392 . S
C3621 C3625 1.495 . S
C3622 C3621 1.392 . S
C3622 C3623 1.385 . S
C3622 C3624 1.478 . S
C3623 H3617 0.930 . S
C3623 C3619 1.400 . S
C3623 C3622 1.385 . S
C3624 C3622 1.478 . S
C3624 C3626 1.381 . S
C3624 C3630 1.383 . S
C3625 C3621 1.495 . S
C3625 H3631 0.959 . S
C3625 H3632 0.961 . S
C3625 H3633 0.960 . S
C3626 C3624 1.381 . S
C3626 C3627 1.394 . S
C3626 H3634 0.930 . S
C3627 C3626 1.394 . S
C3627 C3628 1.383 . S
C3627 H3635 0.929 . S
C3628 C3627 1.383 . S
C3628 C3629 1.377 . S
C3629 H3613 0.930 . S
C3629 C3628 1.377 . S
C3629 C3630 1.379 . S
C3630 H3614 0.931 . S
C3630 C3624 1.383 . S
C3630 C3629 1.379 . S
H3631 C3625 0.959 . S
H3632 C3625 0.961 . S
H3633 C3625 0.960 . S
H3634 C3626 0.930 . S
H3635 C3627 0.929 . S
H3636 C3644 0.929 . S
H3637 C3646 0.930 . S
H3638 C3648 0.930 . S
H3639 C3651 0.929 . S
H3640 C3654 0.930 . S
H3641 C3656 0.960 . S
H3642 C3656 0.960 . S
H3643 C3656 0.960 . S
C3644 H3636 0.929 . S
C3644 C3645 1.377 . S
C3644 C3646 1.384 . S
C3645 C3644 1.377 . S
C3645 C3651 1.390 . S
C3646 H3637 0.930 . S
C3646 C3644 1.384 . S
C3646 C3647 1.372 . S
C3647 C3646 1.372 . S
C3647 C3648 1.400 . S
C3647 C3652 1.490 . S
C3648 H3638 0.930 . S
C3648 C3647 1.400 . S
C3648 C3651 1.386 . S
H3649 C3665 0.930 . S
H3650 C3666 0.931 . S
C3651 H3639 0.929 . S
C3651 C3645 1.390 . S
C3651 C3648 1.386 . S
C3652 C3647 1.490 . S
C3652 C3654 1.395 . S
C3652 C3655 1.403 . S
H3653 C3659 0.930 . S
C3654 H3640 0.930 . S
C3654 C3652 1.395 . S
C3654 C3657 1.403 . S
C3655 C3652 1.403 . S
C3655 C3656 1.524 . S
C3655 C3659 1.400 . S
C3656 H3641 0.960 . S
C3656 H3642 0.960 . S
C3656 H3643 0.960 . S
C3656 C3655 1.524 . S
C3657 C3654 1.403 . S
C3657 C3658 1.392 . S
C3657 C3661 1.495 . S
C3658 C3657 1.392 . S
C3658 C3659 1.385 . S
C3658 C3660 1.478 . S
C3659 H3653 0.930 . S
C3659 C3655 1.400 . S
C3659 C3658 1.385 . S
C3660 C3658 1.478 . S
C3660 C3662 1.381 . S
C3660 C3666 1.383 . S
C3661 C3657 1.495 . S
C3661 H3667 0.959 . S
C3661 H3668 0.961 . S
C3661 H3669 0.960 . S
C3662 C3660 1.381 . S
C3662 C3663 1.394 . S
C3662 H3670 0.930 . S
C3663 C3662 1.394 . S
C3663 C3664 1.383 . S
C3663 H3671 0.929 . S
C3664 C3663 1.383 . S
C3664 C3665 1.377 . S
C3665 H3649 0.930 . S
C3665 C3664 1.377 . S
C3665 C3666 1.379 . S
C3666 H3650 0.931 . S
C3666 C3660 1.383 . S
C3666 C3665 1.379 . S
H3667 C3661 0.959 . S
H3668 C3661 0.961 . S
H3669 C3661 0.960 . S
H3670 C3662 0.930 . S
H3671 C3663 0.929 . S
H3672 C3680 0.929 . S
H3673 C3682 0.930 . S
H3674 C3684 0.872 1_565 S
H3675 C3687 0.929 1_565 S
H3676 C3690 0.930 . S
H3677 C3692 0.960 . S
H3678 C3692 0.960 . S
H3679 C3692 0.960 . S
C3680 H3672 0.929 . S
C3680 C3681 1.377 . S
C3680 C3682 1.384 . S
C3681 C3680 1.377 . S
C3681 C3687 1.390 . S
C3682 H3673 0.930 . S
C3682 C3680 1.384 . S
C3682 C3683 1.372 . S
C3683 C3682 1.372 . S
C3683 C3684 1.429 . S
C3683 C3688 1.490 . S
C3684 H3674 0.872 1_545 S
C3684 C3683 1.429 . S
C3684 C3687 1.415 . S
H3685 C3701 0.930 . S
H3686 C3702 0.931 . S
C3687 H3675 0.929 1_545 S
C3687 C3681 1.390 . S
C3687 C3684 1.415 . S
C3688 C3683 1.490 . S
C3688 C3690 1.395 . S
C3688 C3691 1.403 . S
H3689 C3695 0.930 . S
C3690 H3676 0.930 . S
C3690 C3688 1.395 . S
C3690 C3693 1.403 . S
C3691 C3688 1.403 . S
C3691 C3692 1.524 . S
C3691 C3695 1.400 . S
C3692 H3677 0.960 . S
C3692 H3678 0.960 . S
C3692 H3679 0.960 . S
C3692 C3691 1.524 . S
C3693 C3690 1.403 . S
C3693 C3694 1.392 . S
C3693 C3697 1.495 . S
C3694 C3693 1.392 . S
C3694 C3695 1.385 . S
C3694 C3696 1.478 . S
C3695 H3689 0.930 . S
C3695 C3691 1.400 . S
C3695 C3694 1.385 . S
C3696 C3694 1.478 . S
C3696 C3698 1.381 . S
C3696 C3702 1.383 1_545 S
C3697 C3693 1.495 . S
C3697 H3703 0.959 . S
C3697 H3704 1.052 . S
C3697 H3705 0.960 . S
C3698 C3696 1.381 . S
C3698 C3699 1.394 . S
C3698 H3706 0.930 . S
C3699 C3698 1.394 . S
C3699 C3700 1.383 . S
C3699 H3707 0.929 . S
C3700 C3699 1.383 . S
C3700 C3701 1.377 1_545 S
C3701 H3685 0.930 . S
C3701 C3700 1.377 1_565 S
C3701 C3702 1.379 . S
C3702 H3686 0.931 . S
C3702 C3696 1.383 1_565 S
C3702 C3701 1.379 . S
H3703 C3697 0.959 . S
H3704 C3697 1.052 . S
H3705 C3697 0.960 . S
H3706 C3698 0.930 . S
H3707 C3699 0.929 . S
H3708 C3716 0.929 . S
H3709 C3718 0.930 . S
H3710 C3720 0.930 . S
H3711 C3723 0.929 . S
H3712 C3726 0.930 1_455 S
H3713 C3728 0.960 . S
H3714 C3728 0.960 . S
H3715 C3728 0.960 . S
C3716 H3708 0.929 . S
C3716 C3717 1.377 . S
C3716 C3718 1.384 . S
C3717 C3716 1.377 . S
C3717 C3723 1.390 . S
C3718 H3709 0.930 . S
C3718 C3716 1.384 . S
C3718 C3719 1.372 . S
C3719 C3718 1.372 . S
C3719 C3720 1.400 . S
C3719 C3724 1.490 . S
C3720 H3710 0.930 . S
C3720 C3719 1.400 . S
C3720 C3723 1.386 . S
H3721 C3737 0.930 . S
H3722 C3738 0.931 . S
C3723 H3711 0.929 . S
C3723 C3717 1.390 . S
C3723 C3720 1.386 . S
C3724 C3719 1.490 . S
C3724 C3726 1.395 . S
C3724 C3727 1.403 . S
H3725 C3731 0.930 . S
C3726 H3712 0.930 1_655 S
C3726 C3724 1.395 . S
C3726 C3729 1.395 . S
C3727 C3724 1.403 . S
C3727 C3728 1.524 . S
C3727 C3731 1.400 . S
C3728 H3713 0.960 . S
C3728 H3714 0.960 . S
C3728 H3715 0.960 . S
C3728 C3727 1.524 . S
C3729 C3726 1.395 . S
C3729 C3730 1.414 . S
C3729 C3733 1.482 1_655 S
C3730 C3729 1.414 . S
C3730 C3731 1.385 . S
C3730 C3732 1.478 . S
C3731 H3725 0.930 . S
C3731 C3727 1.400 . S
C3731 C3730 1.385 . S
C3732 C3730 1.478 . S
C3732 C3734 1.381 . S
C3732 C3738 1.383 1_655 S
C3733 C3729 1.482 1_455 S
C3733 H3739 0.959 . S
C3733 H3740 0.961 . S
C3733 H3741 0.960 . S
C3734 C3732 1.381 . S
C3734 C3735 1.394 . S
C3734 H3742 0.930 . S
C3735 C3734 1.394 . S
C3735 C3736 1.383 . S
C3735 H3743 0.929 . S
C3736 C3735 1.383 . S
C3736 C3737 1.377 1_655 S
C3737 H3721 0.930 . S
C3737 C3736 1.377 1_455 S
C3737 C3738 1.379 . S
C3738 H3722 0.931 . S
C3738 C3732 1.383 1_455 S
C3738 C3737 1.379 . S
H3739 C3733 0.959 . S
H3740 C3733 0.961 . S
H3741 C3733 0.960 . S
H3742 C3734 0.930 . S
H3743 C3735 0.929 . S
H3744 C3752 0.929 . S
H3745 C3754 0.930 . S
H3746 C3756 0.930 . S
H3747 C3759 0.929 . S
H3748 C3762 0.930 . S
H3749 C3764 0.960 . S
H3750 C3764 0.960 . S
H3751 C3764 0.960 . S
C3752 H3744 0.929 . S
C3752 C3753 1.377 . S
C3752 C3754 1.384 . S
C3753 C3752 1.377 . S
C3753 C3759 1.390 . S
C3754 H3745 0.930 . S
C3754 C3752 1.384 . S
C3754 C3755 1.372 . S
C3755 C3754 1.372 . S
C3755 C3756 1.400 . S
C3755 C3760 1.490 . S
C3756 H3746 0.930 . S
C3756 C3755 1.400 . S
C3756 C3759 1.386 . S
H3757 C3773 0.930 . S
H3758 C3774 0.931 . S
C3759 H3747 0.929 . S
C3759 C3753 1.390 . S
C3759 C3756 1.386 . S
C3760 C3755 1.490 . S
C3760 C3762 1.395 . S
C3760 C3763 1.403 . S
H3761 C3767 0.930 . S
C3762 H3748 0.930 . S
C3762 C3760 1.395 . S
C3762 C3765 1.403 . S
C3763 C3760 1.403 . S
C3763 C3764 1.524 . S
C3763 C3767 1.400 . S
C3764 H3749 0.960 . S
C3764 H3750 0.960 . S
C3764 H3751 0.960 . S
C3764 C3763 1.524 . S
C3765 C3762 1.403 . S
C3765 C3766 1.392 . S
C3765 C3769 1.495 . S
C3766 C3765 1.392 . S
C3766 C3767 1.385 . S
C3766 C3768 1.478 . S
C3767 H3761 0.930 . S
C3767 C3763 1.400 . S
C3767 C3766 1.385 . S
C3768 C3766 1.478 . S
C3768 C3770 1.381 . S
C3768 C3774 1.383 . S
C3769 C3765 1.495 . S
C3769 H3775 0.959 . S
C3769 H3776 0.961 . S
C3769 H3777 0.960 . S
C3770 C3768 1.381 . S
C3770 C3771 1.394 . S
C3770 H3778 0.930 . S
C3771 C3770 1.394 . S
C3771 C3772 1.383 . S
C3771 H3779 0.929 . S
C3772 C3771 1.383 . S
C3772 C3773 1.377 . S
C3773 H3757 0.930 . S
C3773 C3772 1.377 . S
C3773 C3774 1.379 . S
C3774 H3758 0.931 . S
C3774 C3768 1.383 . S
C3774 C3773 1.379 . S
H3775 C3769 0.959 . S
H3776 C3769 0.961 . S
H3777 C3769 0.960 . S
H3778 C3770 0.930 . S
H3779 C3771 0.929 . S
H3780 C3788 0.929 . S
H3781 C3790 0.930 . S
H3782 C3792 0.930 . S
H3783 C3795 0.929 . S
H3784 C3798 0.930 . S
H3785 C3800 0.960 . S
H3786 C3800 0.960 . S
H3787 C3800 0.960 . S
C3788 H3780 0.929 . S
C3788 C3789 1.377 . S
C3788 C3790 1.384 . S
C3789 C3788 1.377 . S
C3789 C3795 1.390 . S
C3790 H3781 0.930 . S
C3790 C3788 1.384 . S
C3790 C3791 1.372 . S
C3791 C3790 1.372 . S
C3791 C3792 1.400 . S
C3791 C3796 1.490 . S
C3792 H3782 0.930 . S
C3792 C3791 1.400 . S
C3792 C3795 1.386 . S
H3793 C3809 0.930 . S
H3794 C3810 0.931 . S
C3795 H3783 0.929 . S
C3795 C3789 1.390 . S
C3795 C3792 1.386 . S
C3796 C3791 1.490 . S
C3796 C3798 1.395 . S
C3796 C3799 1.403 . S
H3797 C3803 0.930 . S
C3798 H3784 0.930 . S
C3798 C3796 1.395 . S
C3798 C3801 1.403 . S
C3799 C3796 1.403 . S
C3799 C3800 1.524 . S
C3799 C3803 1.400 . S
C3800 H3785 0.960 . S
C3800 H3786 0.960 . S
C3800 H3787 0.960 . S
C3800 C3799 1.524 . S
C3801 C3798 1.403 . S
C3801 C3802 1.392 . S
C3801 C3805 1.495 . S
C3802 C3801 1.392 . S
C3802 C3803 1.385 . S
C3802 C3804 1.478 . S
C3803 H3797 0.930 . S
C3803 C3799 1.400 . S
C3803 C3802 1.385 . S
C3804 C3802 1.478 . S
C3804 C3806 1.381 . S
C3804 C3810 1.383 . S
C3805 C3801 1.495 . S
C3805 H3811 0.959 . S
C3805 H3812 0.961 . S
C3805 H3813 0.960 . S
C3806 C3804 1.381 . S
C3806 C3807 1.394 . S
C3806 H3814 0.930 . S
C3807 C3806 1.394 . S
C3807 C3808 1.383 . S
C3807 H3815 0.929 . S
C3808 C3807 1.383 . S
C3808 C3809 1.377 . S
C3809 H3793 0.930 . S
C3809 C3808 1.377 . S
C3809 C3810 1.379 . S
C3810 H3794 0.931 . S
C3810 C3804 1.383 . S
C3810 C3809 1.379 . S
H3811 C3805 0.959 . S
H3812 C3805 0.961 . S
H3813 C3805 0.960 . S
H3814 C3806 0.930 . S
H3815 C3807 0.929 . S
H3816 C3824 0.929 . S
H3817 C3826 0.930 . S
H3818 C3828 0.930 . S
H3819 C3831 0.929 . S
H3820 C3834 0.930 . S
H3821 C3836 0.960 . S
H3822 C3836 0.960 . S
H3823 C3836 0.960 . S
C3824 H3816 0.929 . S
C3824 C3825 1.377 . S
C3824 C3826 1.384 . S
C3825 C3824 1.377 . S
C3825 C3831 1.390 . S
C3826 H3817 0.930 . S
C3826 C3824 1.384 . S
C3826 C3827 1.372 . S
C3827 C3826 1.372 . S
C3827 C3828 1.400 . S
C3827 C3832 1.490 . S
C3828 H3818 0.930 . S
C3828 C3827 1.400 . S
C3828 C3831 1.386 . S
H3829 C3845 0.930 . S
H3830 C3846 0.931 . S
C3831 H3819 0.929 . S
C3831 C3825 1.390 . S
C3831 C3828 1.386 . S
C3832 C3827 1.490 . S
C3832 C3834 1.395 . S
C3832 C3835 1.403 . S
H3833 C3839 0.930 . S
C3834 H3820 0.930 . S
C3834 C3832 1.395 . S
C3834 C3837 1.403 . S
C3835 C3832 1.403 . S
C3835 C3836 1.524 . S
C3835 C3839 1.400 . S
C3836 H3821 0.960 . S
C3836 H3822 0.960 . S
C3836 H3823 0.960 . S
C3836 C3835 1.524 . S
C3837 C3834 1.403 . S
C3837 C3838 1.392 . S
C3837 C3841 1.495 . S
C3838 C3837 1.392 . S
C3838 C3839 1.385 . S
C3838 C3840 1.478 . S
C3839 H3833 0.930 . S
C3839 C3835 1.400 . S
C3839 C3838 1.385 . S
C3840 C3838 1.478 . S
C3840 C3842 1.381 . S
C3840 C3846 1.383 . S
C3841 C3837 1.495 . S
C3841 H3847 0.959 . S
C3841 H3848 0.961 . S
C3841 H3849 0.960 . S
C3842 C3840 1.381 . S
C3842 C3843 1.394 . S
C3842 H3850 0.930 . S
C3843 C3842 1.394 . S
C3843 C3844 1.383 . S
C3843 H3851 0.929 . S
C3844 C3843 1.383 . S
C3844 C3845 1.377 . S
C3845 H3829 0.930 . S
C3845 C3844 1.377 . S
C3845 C3846 1.379 . S
C3846 H3830 0.931 . S
C3846 C3840 1.383 . S
C3846 C3845 1.379 . S
H3847 C3841 0.959 . S
H3848 C3841 0.961 . S
H3849 C3841 0.960 . S
H3850 C3842 0.930 . S
H3851 C3843 0.929 . S
H3852 C3860 0.929 . S
H3853 C3862 0.930 . S
H3854 C3864 0.930 . S
H3855 C3867 0.929 . S
H3856 C3870 0.930 . S
H3857 C3872 0.960 . S
H3858 C3872 0.960 . S
H3859 C3872 0.960 . S
C3860 H3852 0.929 . S
C3860 C3861 1.377 . S
C3860 C3862 1.384 . S
C3861 C3860 1.377 . S
C3861 C3867 1.390 . S
C3862 H3853 0.930 . S
C3862 C3860 1.384 . S
C3862 C3863 1.372 . S
C3863 C3862 1.372 . S
C3863 C3864 1.400 . S
C3863 C3868 1.490 . S
C3864 H3854 0.930 . S
C3864 C3863 1.400 . S
C3864 C3867 1.386 . S
H3865 C3881 0.930 . S
H3866 C3882 0.931 . S
C3867 H3855 0.929 . S
C3867 C3861 1.390 . S
C3867 C3864 1.386 . S
C3868 C3863 1.490 . S
C3868 C3870 1.395 . S
C3868 C3871 1.403 . S
H3869 C3875 0.930 . S
C3870 H3856 0.930 . S
C3870 C3868 1.395 . S
C3870 C3873 1.403 . S
C3871 C3868 1.403 . S
C3871 C3872 1.524 . S
C3871 C3875 1.400 . S
C3872 H3857 0.960 . S
C3872 H3858 0.960 . S
C3872 H3859 0.960 . S
C3872 C3871 1.524 . S
C3873 C3870 1.403 . S
C3873 C3874 1.392 . S
C3873 C3877 1.495 . S
C3874 C3873 1.392 . S
C3874 C3875 1.385 . S
C3874 C3876 1.478 . S
C3875 H3869 0.930 . S
C3875 C3871 1.400 . S
C3875 C3874 1.385 . S
C3876 C3874 1.478 . S
C3876 C3878 1.381 . S
C3876 C3882 1.383 . S
C3877 C3873 1.495 . S
C3877 H3883 0.959 . S
C3877 H3884 0.961 . S
C3877 H3885 0.960 . S
C3878 C3876 1.381 . S
C3878 C3879 1.394 . S
C3878 H3886 0.930 . S
C3879 C3878 1.394 . S
C3879 C3880 1.383 . S
C3879 H3887 0.929 . S
C3880 C3879 1.383 . S
C3880 C3881 1.377 . S
C3881 H3865 0.930 . S
C3881 C3880 1.377 . S
C3881 C3882 1.379 . S
C3882 H3866 0.931 . S
C3882 C3876 1.383 . S
C3882 C3881 1.379 . S
H3883 C3877 0.959 . S
H3884 C3877 0.961 . S
H3885 C3877 0.960 . S
H3886 C3878 0.930 . S
H3887 C3879 0.929 . S
H3888 C3896 0.929 . S
H3889 C3898 0.930 . S
H3890 C3900 0.930 . S
H3891 C3903 0.929 . S
H3892 C3906 0.930 . S
H3893 C3908 0.960 . S
H3894 C3908 0.960 . S
H3895 C3908 0.960 . S
C3896 H3888 0.929 . S
C3896 C3897 1.377 . S
C3896 C3898 1.384 . S
C3897 C3896 1.377 . S
C3897 C3903 1.390 . S
C3898 H3889 0.930 . S
C3898 C3896 1.384 . S
C3898 C3899 1.372 . S
C3899 C3898 1.372 . S
C3899 C3900 1.400 . S
C3899 C3904 1.490 . S
C3900 H3890 0.930 . S
C3900 C3899 1.400 . S
C3900 C3903 1.386 . S
H3901 C3917 0.930 . S
H3902 C3918 0.931 . S
C3903 H3891 0.929 . S
C3903 C3897 1.390 . S
C3903 C3900 1.386 . S
C3904 C3899 1.490 . S
C3904 C3906 1.395 . S
C3904 C3907 1.403 . S
H3905 C3911 0.930 . S
C3906 H3892 0.930 . S
C3906 C3904 1.395 . S
C3906 C3909 1.403 . S
C3907 C3904 1.403 . S
C3907 C3908 1.524 . S
C3907 C3911 1.400 . S
C3908 H3893 0.960 . S
C3908 H3894 0.960 . S
C3908 H3895 0.960 . S
C3908 C3907 1.524 . S
C3909 C3906 1.403 . S
C3909 C3910 1.392 . S
C3909 C3913 1.495 . S
C3910 C3909 1.392 . S
C3910 C3911 1.385 . S
C3910 C3912 1.478 . S
C3911 H3905 0.930 . S
C3911 C3907 1.400 . S
C3911 C3910 1.385 . S
C3912 C3910 1.478 . S
C3912 C3914 1.381 . S
C3912 C3918 1.383 . S
C3913 C3909 1.495 . S
C3913 H3919 0.959 . S
C3913 H3920 0.961 . S
C3913 H3921 0.960 . S
C3914 C3912 1.381 . S
C3914 C3915 1.394 . S
C3914 H3922 0.930 . S
C3915 C3914 1.394 . S
C3915 C3916 1.383 . S
C3915 H3923 0.929 . S
C3916 C3915 1.383 . S
C3916 C3917 1.377 . S
C3917 H3901 0.930 . S
C3917 C3916 1.377 . S
C3917 C3918 1.379 . S
C3918 H3902 0.931 . S
C3918 C3912 1.383 . S
C3918 C3917 1.379 . S
H3919 C3913 0.959 . S
H3920 C3913 0.961 . S
H3921 C3913 0.960 . S
H3922 C3914 0.930 . S
H3923 C3915 0.929 . S
H3924 C3932 0.929 . S
H3925 C3934 0.930 . S
H3926 C3936 0.930 . S
H3927 C3939 0.929 . S
H3928 C3942 0.930 . S
H3929 C3944 0.960 . S
H3930 C3944 0.960 . S
H3931 C3944 0.960 . S
C3932 H3924 0.929 . S
C3932 C3933 1.377 . S
C3932 C3934 1.384 . S
C3933 C3932 1.377 . S
C3933 C3939 1.390 . S
C3934 H3925 0.930 . S
C3934 C3932 1.384 . S
C3934 C3935 1.372 . S
C3935 C3934 1.372 . S
C3935 C3936 1.400 . S
C3935 C3940 1.490 . S
C3936 H3926 0.930 . S
C3936 C3935 1.400 . S
C3936 C3939 1.386 . S
H3937 C3953 0.930 . S
H3938 C3954 0.931 . S
C3939 H3927 0.929 . S
C3939 C3933 1.390 . S
C3939 C3936 1.386 . S
C3940 C3935 1.490 . S
C3940 C3942 1.395 . S
C3940 C3943 1.403 . S
H3941 C3947 0.930 . S
C3942 H3928 0.930 . S
C3942 C3940 1.395 . S
C3942 C3945 1.403 . S
C3943 C3940 1.403 . S
C3943 C3944 1.524 . S
C3943 C3947 1.400 . S
C3944 H3929 0.960 . S
C3944 H3930 0.960 . S
C3944 H3931 0.960 . S
C3944 C3943 1.524 . S
C3945 C3942 1.403 . S
C3945 C3946 1.392 . S
C3945 C3949 1.495 . S
C3946 C3945 1.392 . S
C3946 C3947 1.385 . S
C3946 C3948 1.478 . S
C3947 H3941 0.930 . S
C3947 C3943 1.400 . S
C3947 C3946 1.385 . S
C3948 C3946 1.478 . S
C3948 C3950 1.381 . S
C3948 C3954 1.383 . S
C3949 C3945 1.495 . S
C3949 H3955 0.959 . S
C3949 H3956 0.961 . S
C3949 H3957 0.960 . S
C3950 C3948 1.381 . S
C3950 C3951 1.394 . S
C3950 H3958 0.930 . S
C3951 C3950 1.394 . S
C3951 C3952 1.383 . S
C3951 H3959 0.929 . S
C3952 C3951 1.383 . S
C3952 C3953 1.377 . S
C3953 H3937 0.930 . S
C3953 C3952 1.377 . S
C3953 C3954 1.379 . S
C3954 H3938 0.931 . S
C3954 C3948 1.383 . S
C3954 C3953 1.379 . S
H3955 C3949 0.959 . S
H3956 C3949 0.961 . S
H3957 C3949 0.960 . S
H3958 C3950 0.930 . S
H3959 C3951 0.929 . S
H3960 C3968 0.929 . S
H3961 C3970 0.930 . S
H3962 C3972 0.930 . S
H3963 C3975 0.929 . S
H3964 C3978 0.930 . S
H3965 C3980 0.960 . S
H3966 C3980 0.960 . S
H3967 C3980 0.960 . S
C3968 H3960 0.929 . S
C3968 C3969 1.377 . S
C3968 C3970 1.384 . S
C3969 C3968 1.377 . S
C3969 C3975 1.390 . S
C3970 H3961 0.930 . S
C3970 C3968 1.384 . S
C3970 C3971 1.372 . S
C3971 C3970 1.372 . S
C3971 C3972 1.400 . S
C3971 C3976 1.490 . S
C3972 H3962 0.930 . S
C3972 C3971 1.400 . S
C3972 C3975 1.386 . S
H3973 C3989 0.930 . S
H3974 C3990 0.931 . S
C3975 H3963 0.929 . S
C3975 C3969 1.390 . S
C3975 C3972 1.386 . S
C3976 C3971 1.490 . S
C3976 C3978 1.395 . S
C3976 C3979 1.403 . S
H3977 C3983 0.930 . S
C3978 H3964 0.930 . S
C3978 C3976 1.395 . S
C3978 C3981 1.403 . S
C3979 C3976 1.403 . S
C3979 C3980 1.524 . S
C3979 C3983 1.400 . S
C3980 H3965 0.960 . S
C3980 H3966 0.960 . S
C3980 H3967 0.960 . S
C3980 C3979 1.524 . S
C3981 C3978 1.403 . S
C3981 C3982 1.392 . S
C3981 C3985 1.495 . S
C3982 C3981 1.392 . S
C3982 C3983 1.385 . S
C3982 C3984 1.478 . S
C3983 H3977 0.930 . S
C3983 C3979 1.400 . S
C3983 C3982 1.385 . S
C3984 C3982 1.478 . S
C3984 C3986 1.381 . S
C3984 C3990 1.383 . S
C3985 C3981 1.495 . S
C3985 H3991 0.959 . S
C3985 H3992 0.961 . S
C3985 H3993 0.960 . S
C3986 C3984 1.381 . S
C3986 C3987 1.394 . S
C3986 H3994 0.930 . S
C3987 C3986 1.394 . S
C3987 C3988 1.383 . S
C3987 H3995 0.929 . S
C3988 C3987 1.383 . S
C3988 C3989 1.377 . S
C3989 H3973 0.930 . S
C3989 C3988 1.377 . S
C3989 C3990 1.379 . S
C3990 H3974 0.931 . S
C3990 C3984 1.383 . S
C3990 C3989 1.379 . S
H3991 C3985 0.959 . S
H3992 C3985 0.961 . S
H3993 C3985 0.960 . S
H3994 C3986 0.930 . S
H3995 C3987 0.929 . S
H3996 C4004 0.929 . S
H3997 C4006 0.930 . S
H3998 C4008 0.930 1_455 S
H3999 C4011 0.933 1_455 S
H4000 C4014 0.930 1_455 S
H4001 C4016 0.960 . S
H4002 C4016 0.960 . S
H4003 C4016 0.960 . S
C4004 H3996 0.929 . S
C4004 C4005 1.377 . S
C4004 C4006 1.384 . S
C4005 C4004 1.377 . S
C4005 C4011 1.390 . S
C4006 H3997 0.930 . S
C4006 C4004 1.384 . S
C4006 C4007 1.372 . S
C4007 C4006 1.372 . S
C4007 C4008 1.400 . S
C4007 C4012 1.490 . S
C4008 H3998 0.930 1_655 S
C4008 C4007 1.400 . S
C4008 C4011 1.386 . S
H4009 C4025 0.930 . S
H4010 C4026 0.931 . S
C4011 H3999 0.933 1_655 S
C4011 C4005 1.390 . S
C4011 C4008 1.386 . S
C4012 C4007 1.490 . S
C4012 C4014 1.395 . S
C4012 C4015 1.403 . S
H4013 C4019 0.930 . S
C4014 H4000 0.930 1_655 S
C4014 C4012 1.395 . S
C4014 C4017 1.402 . S
C4015 C4012 1.403 . S
C4015 C4016 1.524 . S
C4015 C4019 1.400 . S
C4016 H4001 0.960 . S
C4016 H4002 0.960 . S
C4016 H4003 0.960 . S
C4016 C4015 1.524 . S
C4017 C4014 1.402 . S
C4017 C4018 1.392 . S
C4017 C4021 1.498 1_655 S
C4018 C4017 1.392 . S
C4018 C4019 1.385 . S
C4018 C4020 1.478 . S
C4019 H4013 0.930 . S
C4019 C4015 1.400 . S
C4019 C4018 1.385 . S
C4020 C4018 1.478 . S
C4020 C4022 1.381 . S
C4020 C4026 1.383 1_655 S
C4021 C4017 1.498 1_455 S
C4021 H4027 0.959 . S
C4021 H4028 0.961 . S
C4021 H4029 0.974 . S
C4022 C4020 1.381 . S
C4022 C4023 1.394 . S
C4022 H4030 0.930 . S
C4023 C4022 1.394 . S
C4023 C4024 1.383 . S
C4023 H4031 0.929 . S
C4024 C4023 1.383 . S
C4024 C4025 1.377 1_655 S
C4025 H4009 0.930 . S
C4025 C4024 1.377 1_455 S
C4025 C4026 1.379 . S
C4026 H4010 0.931 . S
C4026 C4020 1.383 1_455 S
C4026 C4025 1.379 . S
H4027 C4021 0.959 . S
H4028 C4021 0.961 . S
H4029 C4021 0.974 . S
H4030 C4022 0.930 . S
H4031 C4023 0.929 . S
H4032 C4040 0.929 . S
H4033 C4042 0.930 . S
H4034 C4044 0.930 . S
H4035 C4047 0.929 . S
H4036 C4050 0.930 . S
H4037 C4052 0.960 . S
H4038 C4052 0.960 . S
H4039 C4052 0.960 . S
C4040 H4032 0.929 . S
C4040 C4041 1.377 . S
C4040 C4042 1.384 . S
C4041 C4040 1.377 . S
C4041 C4047 1.390 . S
C4042 H4033 0.930 . S
C4042 C4040 1.384 . S
C4042 C4043 1.372 . S
C4043 C4042 1.372 . S
C4043 C4044 1.400 . S
C4043 C4048 1.490 . S
C4044 H4034 0.930 . S
C4044 C4043 1.400 . S
C4044 C4047 1.386 . S
H4045 C4061 0.930 . S
H4046 C4062 0.931 . S
C4047 H4035 0.929 . S
C4047 C4041 1.390 . S
C4047 C4044 1.386 . S
C4048 C4043 1.490 . S
C4048 C4050 1.395 . S
C4048 C4051 1.403 . S
H4049 C4055 0.930 . S
C4050 H4036 0.930 . S
C4050 C4048 1.395 . S
C4050 C4053 1.403 . S
C4051 C4048 1.403 . S
C4051 C4052 1.524 . S
C4051 C4055 1.400 . S
C4052 H4037 0.960 . S
C4052 H4038 0.960 . S
C4052 H4039 0.960 . S
C4052 C4051 1.524 . S
C4053 C4050 1.403 . S
C4053 C4054 1.392 . S
C4053 C4057 1.495 . S
C4054 C4053 1.392 . S
C4054 C4055 1.385 . S
C4054 C4056 1.478 . S
C4055 H4049 0.930 . S
C4055 C4051 1.400 . S
C4055 C4054 1.385 . S
C4056 C4054 1.478 . S
C4056 C4058 1.381 . S
C4056 C4062 1.383 . S
C4057 C4053 1.495 . S
C4057 H4063 0.959 . S
C4057 H4064 0.961 . S
C4057 H4065 0.960 . S
C4058 C4056 1.381 . S
C4058 C4059 1.394 . S
C4058 H4066 0.930 . S
C4059 C4058 1.394 . S
C4059 C4060 1.383 . S
C4059 H4067 0.929 . S
C4060 C4059 1.383 . S
C4060 C4061 1.377 . S
C4061 H4045 0.930 . S
C4061 C4060 1.377 . S
C4061 C4062 1.379 . S
C4062 H4046 0.931 . S
C4062 C4056 1.383 . S
C4062 C4061 1.379 . S
H4063 C4057 0.959 . S
H4064 C4057 0.961 . S
H4065 C4057 0.960 . S
H4066 C4058 0.930 . S
H4067 C4059 0.929 . S
H4068 C4076 0.929 1_565 S
H4069 C4078 0.918 1_565 S
H4070 C4080 0.930 . S
H4071 C4083 0.929 . S
H4072 C4086 0.930 . S
H4073 C4088 0.955 . S
H4074 C4088 0.980 . S
H4075 C4088 0.950 1_545 S
C4076 H4068 0.929 1_545 S
C4076 C4077 1.377 . S
C4076 C4078 1.376 . S
C4077 C4076 1.377 . S
C4077 C4083 1.390 . S
C4078 H4069 0.918 1_545 S
C4078 C4076 1.376 . S
C4078 C4079 1.393 . S
C4079 C4078 1.393 . S
C4079 C4080 1.400 . S
C4079 C4084 1.490 . S
C4080 H4070 0.930 . S
C4080 C4079 1.400 . S
C4080 C4083 1.386 . S
H4081 C4097 0.930 . S
H4082 C4098 0.931 . S
C4083 H4071 0.929 . S
C4083 C4077 1.390 . S
C4083 C4080 1.386 . S
C4084 C4079 1.490 . S
C4084 C4086 1.395 . S
C4084 C4087 1.403 . S
H4085 C4091 0.930 . S
C4086 H4072 0.930 . S
C4086 C4084 1.395 . S
C4086 C4089 1.403 . S
C4087 C4084 1.403 . S
C4087 C4088 1.520 1_545 S
C4087 C4091 1.400 . S
C4088 H4073 0.955 . S
C4088 H4074 0.980 . S
C4088 H4075 0.950 1_565 S
C4088 C4087 1.520 1_565 S
C4089 C4086 1.403 . S
C4089 C4090 1.392 . S
C4089 C4093 1.495 . S
C4090 C4089 1.392 . S
C4090 C4091 1.385 . S
C4090 C4092 1.478 . S
C4091 H4085 0.930 . S
C4091 C4087 1.400 . S
C4091 C4090 1.385 . S
C4092 C4090 1.478 . S
C4092 C4094 1.381 1_545 S
C4092 C4098 1.383 . S
C4093 C4089 1.495 . S
C4093 H4099 0.959 . S
C4093 H4100 0.961 . S
C4093 H4101 0.960 . S
C4094 C4092 1.381 1_565 S
C4094 C4095 1.394 . S
C4094 H4102 0.930 . S
C4095 C4094 1.394 . S
C4095 C4096 1.383 1_565 S
C4095 H4103 0.929 . S
C4096 C4095 1.383 1_545 S
C4096 C4097 1.377 . S
C4097 H4081 0.930 . S
C4097 C4096 1.377 . S
C4097 C4098 1.379 . S
C4098 H4082 0.931 . S
C4098 C4092 1.383 . S
C4098 C4097 1.379 . S
H4099 C4093 0.959 . S
H4100 C4093 0.961 . S
H4101 C4093 0.960 . S
H4102 C4094 0.930 . S
H4103 C4095 0.929 . S
C1521 C4 1.438 . S
C1540 C1125 1.432 . S
C1557 C38 1.697 . S
C1576 C1173 1.708 . S
C1612 C1221 1.447 . S
C1593 C74 1.434 . S
C1629 C76 1.412 . S
C1648 C1245 1.434 . S
C1665 C2 1.533 . S
C1684 C1317 1.569 . S
C1701 C40 1.528 . S
C1720 C1365 1.542 . S
C1737 C110 1.494 . S
C1756 C1293 1.515 . S
C1792 C1341 1.540 . S
C1773 C148 1.531 . S
C1828 C1269 1.536 . S
C1809 C182 1.511 1_565 S
C1845 C184 1.466 . S
C1864 C1197 1.493 . S
C1900 C1101 1.436 . S
C1881 C112 1.426 . S
C1917 C146 1.637 . S
C1936 C1149 1.649 . S
C1953 C220 1.643 . S
C1972 C1413 1.637 . S
C1989 C254 1.785 . S
C2008 C1461 1.794 . S
C2044 C1485 1.625 . S
C2025 C290 1.641 . S
C2061 C292 1.529 . S
C2080 C669 1.513 . S
C2097 C218 1.691 . S
C2116 C741 1.695 . S
C2133 C256 1.560 . S
C2152 C789 1.568 . S
C2169 C326 1.663 . S
C2188 C717 1.678 . S
C2205 C364 1.600 . S
C2224 C765 1.604 . S
C2260 C693 1.665 . S
C2241 C398 1.690 . S
C2296 C1509 1.655 . S
C2277 C400 1.670 . S
C2332 C1389 1.523 . S
C2313 C328 1.513 . S
C2368 C1437 1.723 . S
C2349 C362 1.720 . S
C2385 C436 1.553 . S
C2404 C837 1.544 . S
C2421 C470 1.756 . S
C2440 C885 1.753 . S
C2457 C506 1.643 . S
C2476 C909 1.645 . S
C2493 C508 1.618 . S
C2512 C957 1.600 . S
C2548 C1029 1.687 . S
C2529 C434 1.689 . S
C2584 C1077 1.596 . S
C2565 C472 1.596 . S
C2620 C1005 1.774 . S
C2601 C542 1.768 . S
C2656 C1053 1.604 . S
C2637 C580 1.620 . S
C2673 C614 1.671 . S
C2692 C981 1.655 . S
C2728 C933 1.539 . S
C2709 C616 1.573 . S
C2745 C544 1.534 . S
C2764 C813 1.529 . S
C2800 C861 1.681 . S
C2781 C578 1.673 . S
C2836 C678 1.608 . S
C2817 C14 1.570 . S
C2853 C39 1.514 . S
C2872 C732 1.472 . S
C2908 C780 1.487 . S
C2889 C75 1.538 . S
C2944 C828 1.440 . S
C2925 C86 1.400 . S
C2980 C876 1.563 . S
C2961 C3 1.588 . S
C3016 C918 1.504 . S
C2997 C50 1.481 . S
C3033 C111 1.579 . S
C3052 C924 1.561 . S
C3069 C158 1.416 . S
C3088 C822 1.435 . S
C3105 C183 1.666 . S
C3124 C870 1.629 . S
C3141 C194 1.556 . S
C3160 C726 1.556 . S
C3196 C774 1.467 . S
C3177 C122 1.460 . S
C3213 C147 1.428 . S
C3232 C684 1.424 . S
C3268 C966 1.568 . S
C3249 C230 1.535 . S
C3285 C255 1.658 . S
C3304 C1020 1.622 . S
C3321 C291 1.581 . S
C3340 C1068 1.535 . S
C3376 C1116 1.289 . S
C3357 C302 1.246 . S
C3393 C219 1.558 . S
C3412 C1164 1.550 . S
C3429 C266 1.340 . S
C3448 C1212 1.389 . S
C3465 C327 1.319 . S
C3484 C1206 1.291 . S
C3501 C374 1.303 . S
C3520 C1110 1.334 . S
C3556 C1158 1.606 . S
C3537 C399 1.627 . S
C3573 C410 1.528 . S
C3592 C1014 1.550 . S
C3609 C338 1.543 . S
C3628 C1062 1.534 . S
C3664 C972 1.567 . S
C3645 C363 1.569 . S
C3700 C1254 1.441 . S
C3681 C446 1.330 . S
C3717 C471 1.385 . S
C3736 C1308 1.380 . S
C3753 C507 1.490 . S
C3772 C1356 1.450 . S
C3808 C1404 1.389 . S
C3789 C518 1.398 . S
C3844 C1452 1.618 . S
C3825 C435 1.656 . S
C3861 C482 1.602 . S
C3880 C1494 1.640 . S
C3897 C543 1.510 . S
C3916 C1500 1.487 . S
C3933 C590 1.546 . S
C3952 C1398 1.541 . S
C3988 C1446 1.680 . S
C3969 C615 1.708 . S
C4024 C1302 1.403 . S
C4005 C626 1.326 . S
C4060 C1350 1.477 . S
C4041 C554 1.470 . S
C4077 C579 1.329 . S
C4096 C1260 1.319 . S
