# Generated by pormake.
# Topology ssb, (4,4)-cn, num edge types: 1
# Building blocks:
#     Node 0, Type 0, BuildingBlock: AZAVOO_clean_linker_0, # of connection points: 4
#     Node 1, Type 0, BuildingBlock: AZAVOO_clean_linker_0, # of connection points: 4
#     Node 2, Type 0, BuildingBlock: AZAVOO_clean_linker_0, # of connection points: 4
#     Node 3, Type 0, BuildingBlock: AZAVOO_clean_linker_0, # of connection points: 4
#     Node 4, Type 0, BuildingBlock: AZAVOO_clean_linker_0, # of connection points: 4
#     Node 5, Type 0, BuildingBlock: AZAVOO_clean_linker_0, # of connection points: 4
#     Node 6, Type 0, BuildingBlock: AZAVOO_clean_linker_0, # of connection points: 4
#     Node 7, Type 0, BuildingBlock: AZAVOO_clean_linker_0, # of connection points: 4
#     Node 8, Type 1, BuildingBlock: NAWXER_clean_sbu_0, # of connection points: 4
#     Node 9, Type 1, BuildingBlock: NAWXER_clean_sbu_0, # of connection points: 4
#     Node 10, Type 1, BuildingBlock: NAWXER_clean_sbu_0, # of connection points: 4
#     Node 11, Type 1, BuildingBlock: NAWXER_clean_sbu_0, # of connection points: 4
#     Node 12, Type 1, BuildingBlock: NAWXER_clean_sbu_0, # of connection points: 4
#     Node 13, Type 1, BuildingBlock: NAWXER_clean_sbu_0, # of connection points: 4
#     Node 14, Type 1, BuildingBlock: NAWXER_clean_sbu_0, # of connection points: 4
#     Node 15, Type 1, BuildingBlock: NAWXER_clean_sbu_0, # of connection points: 4
#     Edge 16, Type (0, 1), BuildingBlock: KIFKEQ_clean_linker_1, # of connection points: 2
#     Edge 17, Type (0, 1), BuildingBlock: KIFKEQ_clean_linker_1, # of connection points: 2
#     Edge 18, Type (0, 1), BuildingBlock: KIFKEQ_clean_linker_1, # of connection points: 2
#     Edge 19, Type (0, 1), BuildingBlock: KIFKEQ_clean_linker_1, # of connection points: 2
#     Edge 20, Type (0, 1), BuildingBlock: KIFKEQ_clean_linker_1, # of connection points: 2
#     Edge 21, Type (0, 1), BuildingBlock: KIFKEQ_clean_linker_1, # of connection points: 2
#     Edge 22, Type (0, 1), BuildingBlock: KIFKEQ_clean_linker_1, # of connection points: 2
#     Edge 23, Type (0, 1), BuildingBlock: KIFKEQ_clean_linker_1, # of connection points: 2
#     Edge 24, Type (0, 1), BuildingBlock: KIFKEQ_clean_linker_1, # of connection points: 2
#     Edge 25, Type (0, 1), BuildingBlock: KIFKEQ_clean_linker_1, # of connection points: 2
#     Edge 26, Type (0, 1), BuildingBlock: KIFKEQ_clean_linker_1, # of connection points: 2
#     Edge 27, Type (0, 1), BuildingBlock: KIFKEQ_clean_linker_1, # of connection points: 2
#     Edge 28, Type (0, 1), BuildingBlock: KIFKEQ_clean_linker_1, # of connection points: 2
#     Edge 29, Type (0, 1), BuildingBlock: KIFKEQ_clean_linker_1, # of connection points: 2
#     Edge 30, Type (0, 1), BuildingBlock: KIFKEQ_clean_linker_1, # of connection points: 2
#     Edge 31, Type (0, 1), BuildingBlock: KIFKEQ_clean_linker_1, # of connection points: 2
#     Edge 32, Type (0, 1), BuildingBlock: KIFKEQ_clean_linker_1, # of connection points: 2
#     Edge 33, Type (0, 1), BuildingBlock: KIFKEQ_clean_linker_1, # of connection points: 2
#     Edge 34, Type (0, 1), BuildingBlock: KIFKEQ_clean_linker_1, # of connection points: 2
#     Edge 35, Type (0, 1), BuildingBlock: KIFKEQ_clean_linker_1, # of connection points: 2
#     Edge 36, Type (0, 1), BuildingBlock: KIFKEQ_clean_linker_1, # of connection points: 2
#     Edge 37, Type (0, 1), BuildingBlock: KIFKEQ_clean_linker_1, # of connection points: 2
#     Edge 38, Type (0, 1), BuildingBlock: KIFKEQ_clean_linker_1, # of connection points: 2
#     Edge 39, Type (0, 1), BuildingBlock: KIFKEQ_clean_linker_1, # of connection points: 2
#     Edge 40, Type (0, 1), BuildingBlock: KIFKEQ_clean_linker_1, # of connection points: 2
#     Edge 41, Type (0, 1), BuildingBlock: KIFKEQ_clean_linker_1, # of connection points: 2
#     Edge 42, Type (0, 1), BuildingBlock: KIFKEQ_clean_linker_1, # of connection points: 2
#     Edge 43, Type (0, 1), BuildingBlock: KIFKEQ_clean_linker_1, # of connection points: 2
#     Edge 44, Type (0, 1), BuildingBlock: KIFKEQ_clean_linker_1, # of connection points: 2
#     Edge 45, Type (0, 1), BuildingBlock: KIFKEQ_clean_linker_1, # of connection points: 2
#     Edge 46, Type (0, 1), BuildingBlock: KIFKEQ_clean_linker_1, # of connection points: 2
#     Edge 47, Type (0, 1), BuildingBlock: KIFKEQ_clean_linker_1, # of connection points: 2
# Relax obj value: 0.057
# Max RMSD: 0.287
# Mean RMSD: 0.112
data_MOF--net-ssb--node1-NAWXER_clean_sbu_0--node2-AZAVOO_clean_linker_0--edge1-KIFKEQ_clean_linker_1
_symmetry_space_group_name_H-M    P1
_symmetry_Int_Tables_number       1
_symmetry_cell_setting            triclinic
loop_
_symmetry_equiv_pos_as_xyz
'x, y, z'
_cell_length_a     52.057496
_cell_length_b     53.806753
_cell_length_c     45.201516
_cell_angle_alpha  92.731201
_cell_angle_beta   90.049043
_cell_angle_gamma 90.005282
loop_
_atom_site_label
_atom_site_type_symbol
_atom_site_fract_x
_atom_site_fract_y
_atom_site_fract_z
_atom_type_partial_charge
H0 H 0.11845 0.51306 0.2586 0.0
H1 H 0.31795 0.40543 0.04681 0.0
H2 H 0.21161 0.42324 0.28966 0.0
H3 H 0.18442 0.41843 0.33327 0.0
H4 H 0.16002 0.34629 0.29786 0.0
H5 H 0.1865 0.35158 0.25376 0.0
H6 H 0.21499 0.45892 0.24048 0.0
H7 H 0.17916 0.48757 0.25012 0.0
H8 H 0.12562 0.4281 0.2278 0.0
H9 H 0.16168 0.39971 0.21792 0.0
H10 H 0.26116 0.45223 0.19595 0.0
H11 H 0.25747 0.48831 0.16552 0.0
H12 H 0.18637 0.45915 0.12864 0.0
H13 H 0.19024 0.42289 0.15947 0.0
H14 H 0.2999 0.40911 0.19313 0.0
H15 H 0.32841 0.41365 0.15073 0.0
H16 H 0.26535 0.39511 0.09135 0.0
H17 H 0.23714 0.39025 0.13397 0.0
H18 H 0.29791 0.37108 0.24353 0.0
H19 H 0.33663 0.34862 0.22766 0.0
H20 H 0.29744 0.32207 0.1478 0.0
H21 H 0.25841 0.34301 0.16503 0.0
H22 H 0.25745 0.38454 0.29211 0.0
H23 H 0.26563 0.35565 0.33113 0.0
H24 H 0.24252 0.29424 0.27193 0.0
H25 H 0.23399 0.32351 0.23299 0.0
O26 O 0.13233 0.50143 0.25452 0.0
O27 O 0.10561 0.47022 0.24291 0.0
O28 O 0.33892 0.41296 0.09546 0.0
O29 O 0.30709 0.40377 0.06397 0.0
C30 C 0.21747 0.39063 0.24218 0.0
C31 C 0.2127 0.4099 0.22268 0.0
C32 C 0.22904 0.41292 0.19821 0.0
C33 C 0.24936 0.39595 0.19245 0.0
C34 C 0.25386 0.37637 0.2117 0.0
C35 C 0.23846 0.37426 0.23715 0.0
C36 C 0.20083 0.38785 0.26846 0.0
C37 C 0.20012 0.40656 0.29114 0.0
C38 C 0.18471 0.40377 0.316 0.0
C39 C 0.17023 0.38199 0.31879 0.0
C40 C 0.17118 0.36316 0.29623 0.0
C41 C 0.18621 0.36617 0.27111 0.0
C42 C 0.19091 0.4273 0.22833 0.0
C43 C 0.19551 0.45218 0.23748 0.0
C44 C 0.175 0.46847 0.24307 0.0
C45 C 0.14951 0.46013 0.23971 0.0
C46 C 0.14501 0.43513 0.23058 0.0
C47 C 0.16555 0.41888 0.22494 0.0
C48 C 0.22611 0.43486 0.17972 0.0
C49 C 0.24484 0.45356 0.18121 0.0
C50 C 0.24272 0.47411 0.16374 0.0
C51 C 0.22175 0.47645 0.14443 0.0
C52 C 0.20268 0.4579 0.14337 0.0
C53 C 0.2049 0.43719 0.16085 0.0
C54 C 0.2665 0.39922 0.16661 0.0
C55 C 0.29232 0.40594 0.17095 0.0
C56 C 0.30854 0.40858 0.14669 0.0
C57 C 0.29916 0.40471 0.11763 0.0
C58 C 0.2732 0.3982 0.11341 0.0
C59 C 0.25702 0.39547 0.1377 0.0
C60 C 0.27539 0.35882 0.20533 0.0
C61 C 0.29743 0.35959 0.2232 0.0
C62 C 0.31968 0.34704 0.21382 0.0
C63 C 0.32045 0.33394 0.18608 0.0
C64 C 0.29766 0.33174 0.16936 0.0
C65 C 0.2753 0.34387 0.17906 0.0
C66 C 0.24513 0.35611 0.25974 0.0
C67 C 0.25432 0.36482 0.28751 0.0
C68 C 0.25909 0.34828 0.30972 0.0
C69 C 0.25472 0.32264 0.30464 0.0
C70 C 0.24582 0.31391 0.27661 0.0
C71 C 0.24116 0.33052 0.25428 0.0
C72 C 0.12777 0.47748 0.24577 0.0
C73 C 0.31633 0.40742 0.09178 0.0
H74 H 0.64316 0.15003 0.29387 0.0
H75 H 0.83065 0.25996 0.51925 0.0
H76 H 0.7229 0.26101 0.27561 0.0
H77 H 0.69357 0.26868 0.23443 0.0
H78 H 0.65166 0.32164 0.29061 0.0
H79 H 0.68131 0.31418 0.33152 0.0
H80 H 0.73067 0.21555 0.3205 0.0
H81 H 0.69942 0.18319 0.30614 0.0
H82 H 0.63798 0.23086 0.33936 0.0
H83 H 0.66947 0.26296 0.35388 0.0
H84 H 0.77621 0.22223 0.37076 0.0
H85 H 0.77797 0.18582 0.40082 0.0
H86 H 0.70175 0.20293 0.43406 0.0
H87 H 0.70104 0.24029 0.40539 0.0
H88 H 0.80881 0.26904 0.37463 0.0
H89 H 0.83891 0.26345 0.41536 0.0
H90 H 0.77592 0.26907 0.47764 0.0
H91 H 0.74607 0.27503 0.43673 0.0
H92 H 0.79964 0.31124 0.3292 0.0
H93 H 0.8365 0.33622 0.34582 0.0
H94 H 0.79955 0.35064 0.43062 0.0
H95 H 0.76209 0.32722 0.41288 0.0
H96 H 0.75874 0.30035 0.28191 0.0
H97 H 0.76365 0.33503 0.24955 0.0
H98 H 0.73613 0.38568 0.31959 0.0
H99 H 0.73055 0.35047 0.35172 0.0
O100 O 0.65519 0.16305 0.2998 0.0
O101 O 0.6243 0.1883 0.31714 0.0
O102 O 0.85091 0.25968 0.46982 0.0
O103 O 0.81917 0.26218 0.50273 0.0
C104 C 0.72245 0.28317 0.331 0.0
C105 C 0.72135 0.26116 0.34679 0.0
C106 C 0.73889 0.25755 0.37007 0.0
C107 C 0.75707 0.27626 0.37798 0.0
C108 C 0.75826 0.29826 0.36203 0.0
C109 C 0.74126 0.30144 0.33815 0.0
C110 C 0.70415 0.28703 0.30647 0.0
C111 C 0.70733 0.2742 0.27898 0.0
C112 C 0.69071 0.27868 0.25554 0.0
C113 C 0.67043 0.29576 0.25942 0.0
C114 C 0.66706 0.30828 0.28714 0.0
C115 C 0.68395 0.30409 0.31042 0.0
C116 C 0.70232 0.24155 0.33824 0.0
C117 C 0.71046 0.21891 0.32475 0.0
C118 C 0.69256 0.20049 0.31652 0.0
C119 C 0.66619 0.20444 0.32159 0.0
C120 C 0.65813 0.22721 0.33513 0.0
C121 C 0.67606 0.24559 0.34339 0.0
C122 C 0.73861 0.23404 0.38609 0.0
C123 C 0.75992 0.21809 0.38458 0.0
C124 C 0.76076 0.19712 0.40159 0.0
C125 C 0.74005 0.1914 0.42009 0.0
C126 C 0.71829 0.20699 0.42062 0.0
C127 C 0.71767 0.2282 0.40394 0.0
C128 C 0.77529 0.27255 0.40276 0.0
C129 C 0.80158 0.26918 0.3971 0.0
C130 C 0.81871 0.26592 0.4204 0.0
C131 C 0.80982 0.26583 0.44978 0.0
C132 C 0.78341 0.26906 0.4553 0.0
C133 C 0.76631 0.27242 0.43199 0.0
C134 C 0.77822 0.31727 0.36988 0.0
C135 C 0.79913 0.32059 0.35094 0.0
C136 C 0.82038 0.33458 0.36071 0.0
C137 C 0.82137 0.34508 0.38985 0.0
C138 C 0.79955 0.34309 0.40799 0.0
C139 C 0.77811 0.32952 0.39797 0.0
C140 C 0.74425 0.32292 0.31909 0.0
C141 C 0.75362 0.31891 0.29021 0.0
C142 C 0.75659 0.33878 0.27185 0.0
C143 C 0.75043 0.36313 0.28208 0.0
C144 C 0.74084 0.3671 0.31103 0.0
C145 C 0.73783 0.34711 0.32944 0.0
C146 C 0.64723 0.18485 0.31276 0.0
C147 C 0.82794 0.26237 0.47461 0.0
H148 H 0.64023 0.89495 0.30617 0.0
H149 H 0.71448 0.64634 0.15493 0.0
H150 H 0.75973 0.82922 0.31952 0.0
H151 H 0.75777 0.86117 0.35964 0.0
H152 H 0.73827 0.80495 0.4211 0.0
H153 H 0.73939 0.7732 0.38036 0.0
H154 H 0.72067 0.82402 0.2699 0.0
H155 H 0.68939 0.85758 0.27803 0.0
H156 H 0.65849 0.82008 0.35271 0.0
H157 H 0.68969 0.78649 0.34409 0.0
H158 H 0.73403 0.78023 0.2211 0.0
H159 H 0.70294 0.7906 0.18325 0.0
H160 H 0.64088 0.77335 0.2424 0.0
H161 H 0.67235 0.76189 0.27981 0.0
H162 H 0.7742 0.74227 0.22418 0.0
H163 H 0.77149 0.7119 0.18227 0.0
H164 H 0.70304 0.68085 0.22017 0.0
H165 H 0.70625 0.71106 0.26224 0.0
H166 H 0.81214 0.75005 0.27311 0.0
H167 H 0.84063 0.71736 0.25277 0.0
H168 H 0.78566 0.66177 0.27733 0.0
H169 H 0.75779 0.69452 0.29839 0.0
H170 H 0.80754 0.79093 0.31586 0.0
H171 H 0.84678 0.78821 0.34553 0.0
H172 H 0.81396 0.72716 0.39137 0.0
H173 H 0.77479 0.72976 0.36116 0.0
O174 O 0.65233 0.88141 0.30324 0.0
O175 O 0.6372 0.86142 0.3415 0.0
O176 O 0.75144 0.67502 0.15291 0.0
O177 O 0.71596 0.65861 0.1712 0.0
C178 C 0.74709 0.78045 0.32179 0.0
C179 C 0.72653 0.78256 0.30158 0.0
C180 C 0.72472 0.7659 0.27654 0.0
C181 C 0.7428 0.7465 0.27241 0.0
C182 C 0.76325 0.74428 0.29275 0.0
C183 C 0.76558 0.76148 0.31715 0.0
C184 C 0.74961 0.79895 0.34704 0.0
C185 C 0.75534 0.8238 0.34173 0.0
C186 C 0.7543 0.842 0.36474 0.0
C187 C 0.74771 0.83567 0.39361 0.0
C188 C 0.74299 0.81052 0.39905 0.0
C189 C 0.74392 0.79231 0.37592 0.0
C190 C 0.70732 0.80278 0.3063 0.0
C191 C 0.707 0.82301 0.28786 0.0
C192 C 0.68917 0.84219 0.29263 0.0
C193 C 0.67142 0.84151 0.31602 0.0
C194 C 0.67186 0.82118 0.33448 0.0
C195 C 0.68966 0.80198 0.32963 0.0
C196 C 0.70544 0.77028 0.25316 0.0
C197 C 0.71372 0.77825 0.22568 0.0
C198 C 0.69592 0.78444 0.20422 0.0
C199 C 0.66942 0.78309 0.20994 0.0
C200 C 0.66115 0.77442 0.23723 0.0
C201 C 0.67905 0.76802 0.25867 0.0
C202 C 0.74056 0.7287 0.24636 0.0
C203 C 0.75871 0.72881 0.22345 0.0
C204 C 0.75707 0.7115 0.1995 0.0
C205 C 0.73707 0.69389 0.19791 0.0
C206 C 0.7187 0.6941 0.22073 0.0
C207 C 0.72045 0.71137 0.24474 0.0
C208 C 0.78289 0.72462 0.28714 0.0
C209 C 0.80678 0.73076 0.27517 0.0
C210 C 0.82289 0.71208 0.26329 0.0
C211 C 0.81529 0.68698 0.2631 0.0
C212 C 0.79227 0.68085 0.27736 0.0
C213 C 0.77622 0.69954 0.28931 0.0
C214 C 0.78842 0.76061 0.33653 0.0
C215 C 0.80882 0.77705 0.3324 0.0
C216 C 0.83122 0.77533 0.34911 0.0
C217 C 0.83339 0.75734 0.3705 0.0
C218 C 0.8127 0.74117 0.375 0.0
C219 C 0.79041 0.74266 0.3579 0.0
C220 C 0.65259 0.86198 0.32111 0.0
C221 C 0.73534 0.67533 0.17261 0.0
H222 H 0.37121 0.0355 0.33134 0.0
H223 H 0.2755 0.81878 0.09926 0.0
H224 H 0.28179 0.92473 0.34606 0.0
H225 H 0.28866 0.9588 0.38304 0.0
H226 H 0.24294 0.00725 0.33067 0.0
H227 H 0.23571 0.97293 0.29408 0.0
H228 H 0.32336 0.93808 0.30871 0.0
H229 H 0.34866 0.97508 0.32309 0.0
H230 H 0.30337 0.01822 0.26381 0.0
H231 H 0.27816 0.98106 0.24977 0.0
H232 H 0.33608 0.90674 0.2544 0.0
H233 H 0.37235 0.91203 0.22084 0.0
H234 H 0.32247 0.9495 0.16075 0.0
H235 H 0.28625 0.94386 0.19447 0.0
H236 H 0.29742 0.85609 0.23987 0.0
H237 H 0.3034 0.82533 0.19879 0.0
H238 H 0.26189 0.87294 0.14091 0.0
H239 H 0.25604 0.90352 0.18226 0.0
H240 H 0.25254 0.84911 0.28373 0.0
H241 H 0.24175 0.80957 0.25794 0.0
H242 H 0.20372 0.84961 0.18961 0.0
H243 H 0.21316 0.88862 0.21658 0.0
H244 H 0.25071 0.88966 0.33894 0.0
H245 H 0.21665 0.87892 0.3732 0.0
H246 H 0.1597 0.90216 0.31054 0.0
H247 H 0.19413 0.91379 0.27688 0.0
O248 O 0.36142 0.02097 0.32477 0.0
O249 O 0.338 0.0422 0.29347 0.0
O250 O 0.29795 0.80861 0.14529 0.0
O251 O 0.2742 0.83105 0.11556 0.0
C252 C 0.26194 0.92961 0.29116 0.0
C253 C 0.2822 0.93511 0.27166 0.0
C254 C 0.28652 0.91989 0.24605 0.0
C255 C 0.27054 0.89924 0.2397 0.0
C256 C 0.24989 0.89398 0.25885 0.0
C257 C 0.24574 0.90898 0.28487 0.0
C258 C 0.25801 0.94633 0.31761 0.0
C259 C 0.27206 0.94227 0.34343 0.0
C260 C 0.27624 0.96181 0.36431 0.0
C261 C 0.26668 0.98564 0.3593 0.0
C262 C 0.25073 0.98906 0.33475 0.0
C263 C 0.24626 0.96944 0.31413 0.0
C264 C 0.29897 0.95699 0.27828 0.0
C265 C 0.31912 0.95551 0.29869 0.0
C266 C 0.33346 0.97668 0.30691 0.0
C267 C 0.32796 0.99964 0.2947 0.0
C268 C 0.30808 0.00085 0.27368 0.0
C269 C 0.29374 0.97966 0.26552 0.0
C270 C 0.30864 0.92477 0.22666 0.0
C271 C 0.33313 0.91632 0.23413 0.0
C272 C 0.35381 0.91953 0.21505 0.0
C273 C 0.35026 0.93119 0.18814 0.0
C274 C 0.32574 0.94025 0.18118 0.0
C275 C 0.30508 0.9371 0.20036 0.0
C276 C 0.27637 0.88199 0.21395 0.0
C277 C 0.28995 0.85996 0.21819 0.0
C278 C 0.29324 0.8424 0.19473 0.0
C279 C 0.283 0.84663 0.16659 0.0
C280 C 0.26994 0.86907 0.1623 0.0
C281 C 0.26672 0.88664 0.1858 0.0
C282 C 0.23402 0.87166 0.25167 0.0
C283 C 0.24053 0.84918 0.26414 0.0
C284 C 0.23477 0.82662 0.249 0.0
C285 C 0.22283 0.82639 0.22101 0.0
C286 C 0.21303 0.84888 0.21097 0.0
C287 C 0.21836 0.87135 0.22643 0.0
C288 C 0.2249 0.90279 0.30562 0.0
C289 C 0.23089 0.89277 0.33283 0.0
C290 C 0.21136 0.88637 0.35221 0.0
C291 C 0.18538 0.88961 0.34463 0.0
C292 C 0.17947 0.89973 0.31728 0.0
C293 C 0.19908 0.90623 0.29794 0.0
C294 C 0.34272 0.02226 0.30415 0.0
C295 C 0.28559 0.82759 0.14191 0.0
H296 H 0.40841 0.019 0.75932 0.0
H297 H 0.15675 0.95336 0.60834 0.0
H298 H 0.34452 0.89785 0.74871 0.0
H299 H 0.37907 0.889 0.78327 0.0
H300 H 0.32589 0.89824 0.85637 0.0
H301 H 0.29129 0.90696 0.82143 0.0
H302 H 0.33574 0.94465 0.71115 0.0
H303 H 0.36964 0.97496 0.72325 0.0
H304 H 0.33604 0.98913 0.80989 0.0
H305 H 0.30208 0.95896 0.79737 0.0
H306 H 0.29014 0.94311 0.66624 0.0
H307 H 0.29053 0.98241 0.64124 0.0
H308 H 0.26789 0.02141 0.72293 0.0
H309 H 0.26669 0.9818 0.74745 0.0
H310 H 0.25821 0.89377 0.66105 0.0
H311 H 0.22787 0.90019 0.62074 0.0
H312 H 0.18936 0.95701 0.67515 0.0
H313 H 0.21965 0.95019 0.7154 0.0
H314 H 0.26935 0.85006 0.70438 0.0
H315 H 0.23903 0.81934 0.68283 0.0
H316 H 0.17573 0.86559 0.7138 0.0
H317 H 0.20612 0.89587 0.7356 0.0
H318 H 0.30782 0.85161 0.76222 0.0
H319 H 0.30186 0.81742 0.79567 0.0
H320 H 0.22771 0.84718 0.82127 0.0
H321 H 0.23417 0.8818 0.78885 0.0
O322 O 0.39474 0.00719 0.75494 0.0
O323 O 0.37672 0.01378 0.79922 0.0
O324 O 0.18935 0.92094 0.59694 0.0
O325 O 0.16898 0.95042 0.62392 0.0
C326 C 0.29496 0.90869 0.76119 0.0
C327 C 0.29603 0.93107 0.74601 0.0
C328 C 0.27784 0.93565 0.72371 0.0
C329 C 0.25936 0.91732 0.71564 0.0
C330 C 0.25824 0.89503 0.73097 0.0
C331 C 0.27535 0.89111 0.75454 0.0
C332 C 0.31548 0.9031 0.78262 0.0
C333 C 0.34037 0.898 0.7722 0.0
C334 C 0.36007 0.89303 0.79197 0.0
C335 C 0.35521 0.89302 0.82254 0.0
C336 C 0.33014 0.89789 0.8329 0.0
C337 C 0.31042 0.90296 0.81306 0.0
C338 C 0.31645 0.94967 0.75336 0.0
C339 C 0.33567 0.95444 0.73266 0.0
C340 C 0.35504 0.9717 0.73967 0.0
C341 C 0.35556 0.98447 0.76755 0.0
C342 C 0.33622 0.97962 0.78823 0.0
C343 C 0.31683 0.96238 0.78116 0.0
C344 C 0.27832 0.9596 0.70862 0.0
C345 C 0.28511 0.96013 0.67865 0.0
C346 C 0.28552 0.98264 0.6645 0.0
C347 C 0.2793 0.00511 0.68011 0.0
C348 C 0.27248 0.00445 0.71017 0.0
C349 C 0.27199 0.98189 0.72428 0.0
C350 C 0.24108 0.92149 0.69112 0.0
C351 C 0.24315 0.90754 0.66422 0.0
C352 C 0.22583 0.91127 0.64124 0.0
C353 C 0.20618 0.92913 0.64472 0.0
C354 C 0.20426 0.94313 0.67172 0.0
C355 C 0.22155 0.93931 0.69472 0.0
C356 C 0.23986 0.87522 0.7213 0.0
C357 C 0.2489 0.85324 0.70696 0.0
C358 C 0.23162 0.83582 0.69459 0.0
C359 C 0.20502 0.84007 0.69657 0.0
C360 C 0.19609 0.86159 0.71224 0.0
C361 C 0.21337 0.87902 0.7245 0.0
C362 C 0.27155 0.86938 0.77327 0.0
C363 C 0.29037 0.85083 0.77516 0.0
C364 C 0.28692 0.83132 0.79416 0.0
C365 C 0.26432 0.82972 0.81098 0.0
C366 C 0.2452 0.84787 0.80835 0.0
C367 C 0.24889 0.86762 0.78988 0.0
C368 C 0.37625 0.00271 0.77497 0.0
C369 C 0.18772 0.93317 0.62037 0.0
H370 H 0.21624 0.55594 0.80346 0.0
H371 H 0.28149 0.30649 0.60999 0.0
H372 H 0.35302 0.4697 0.78149 0.0
H373 H 0.3608 0.50411 0.81787 0.0
H374 H 0.29879 0.47781 0.87165 0.0
H375 H 0.29134 0.44333 0.83532 0.0
H376 H 0.29778 0.48906 0.75971 0.0
H377 H 0.26829 0.5226 0.77524 0.0
H378 H 0.21478 0.46822 0.80643 0.0
H379 H 0.24461 0.43489 0.79113 0.0
H380 H 0.26854 0.46 0.70592 0.0
H381 H 0.22646 0.46295 0.68185 0.0
H382 H 0.20494 0.39234 0.71649 0.0
H383 H 0.24638 0.39024 0.74138 0.0
H384 H 0.31328 0.41642 0.6746 0.0
H385 H 0.30926 0.38933 0.6297 0.0
H386 H 0.2796 0.33067 0.68222 0.0
H387 H 0.28375 0.35794 0.72686 0.0
H388 H 0.36479 0.40927 0.70884 0.0
H389 H 0.3843 0.37748 0.67568 0.0
H390 H 0.34763 0.3203 0.72473 0.0
H391 H 0.329 0.35227 0.75838 0.0
H392 H 0.3838 0.41747 0.76479 0.0
H393 H 0.41734 0.40644 0.80021 0.0
H394 H 0.35882 0.39042 0.86422 0.0
H395 H 0.32558 0.40063 0.82865 0.0
O396 O 0.22762 0.54239 0.79748 0.0
O397 O 0.20067 0.51367 0.8129 0.0
O398 O 0.29952 0.34803 0.60149 0.0
O399 O 0.28296 0.31771 0.62728 0.0
C400 C 0.31443 0.43607 0.78139 0.0
C401 C 0.29144 0.43933 0.76525 0.0
C402 C 0.28562 0.42311 0.7407 0.0
C403 C 0.30355 0.40477 0.73125 0.0
C404 C 0.3265 0.40152 0.74745 0.0
C405 C 0.33137 0.41637 0.77336 0.0
C406 C 0.32146 0.45425 0.8057 0.0
C407 C 0.34152 0.47109 0.80148 0.0
C408 C 0.34585 0.49074 0.82214 0.0
C409 C 0.33029 0.4937 0.84745 0.0
C410 C 0.31123 0.47586 0.85249 0.0
C411 C 0.30683 0.45628 0.83172 0.0
C412 C 0.27331 0.45959 0.7743 0.0
C413 C 0.2797 0.48446 0.76995 0.0
C414 C 0.2628 0.50356 0.77881 0.0
C415 C 0.23916 0.49809 0.79207 0.0
C416 C 0.23281 0.47308 0.79628 0.0
C417 C 0.24977 0.45401 0.7875 0.0
C418 C 0.26052 0.42485 0.72528 0.0
C419 C 0.25462 0.44527 0.70833 0.0
C420 C 0.23064 0.44684 0.6945 0.0
C421 C 0.2122 0.42795 0.69733 0.0
C422 C 0.21839 0.40749 0.71427 0.0
C423 C 0.24222 0.40605 0.7282 0.0
C424 C 0.2987 0.38913 0.70387 0.0
C425 C 0.30561 0.39782 0.67625 0.0
C426 C 0.30342 0.38227 0.6507 0.0
C427 C 0.29418 0.35779 0.65239 0.0
C428 C 0.2868 0.34938 0.68012 0.0
C429 C 0.28903 0.36494 0.70563 0.0
C430 C 0.34541 0.38301 0.73585 0.0
C431 C 0.36214 0.38984 0.71336 0.0
C432 C 0.373 0.37166 0.69423 0.0
C433 C 0.36698 0.34642 0.69713 0.0
C434 C 0.35274 0.33955 0.72192 0.0
C435 C 0.34208 0.35779 0.74125 0.0
C436 C 0.3522 0.40973 0.79405 0.0
C437 C 0.37825 0.41125 0.78629 0.0
C438 C 0.39735 0.40506 0.80654 0.0
C439 C 0.39063 0.39775 0.83499 0.0
C440 C 0.36455 0.39632 0.84261 0.0
C441 C 0.34557 0.40208 0.82229 0.0
C442 C 0.22126 0.51843 0.80148 0.0
C443 C 0.29241 0.34098 0.62546 0.0
H444 H 0.93401 0.35179 0.87624 0.0
H445 H 0.8123 0.18884 0.63033 0.0
H446 H 0.82765 0.26449 0.89373 0.0
H447 H 0.82902 0.29475 0.93583 0.0
H448 H 0.77069 0.33834 0.89388 0.0
H449 H 0.76868 0.30733 0.85285 0.0
H450 H 0.871 0.26545 0.84041 0.0
H451 H 0.90308 0.2965 0.85659 0.0
H452 H 0.84789 0.35502 0.84333 0.0
H453 H 0.81615 0.3238 0.82684 0.0
H454 H 0.8658 0.23422 0.77525 0.0
H455 H 0.89691 0.24675 0.73803 0.0
H456 H 0.85732 0.31703 0.73237 0.0
H457 H 0.82587 0.30389 0.76835 0.0
H458 H 0.81924 0.19315 0.77798 0.0
H459 H 0.82303 0.16952 0.73056 0.0
H460 H 0.80263 0.2354 0.68462 0.0
H461 H 0.79858 0.25871 0.73219 0.0
H462 H 0.77682 0.19247 0.83138 0.0
H463 H 0.75112 0.15748 0.81134 0.0
H464 H 0.7266 0.20197 0.73927 0.0
H465 H 0.75127 0.23707 0.76033 0.0
H466 H 0.77965 0.23212 0.88884 0.0
H467 H 0.7414 0.22907 0.92013 0.0
H468 H 0.69502 0.25837 0.85048 0.0
H469 H 0.73321 0.26132 0.81951 0.0
O470 O 0.92111 0.33983 0.86957 0.0
O471 O 0.89197 0.3692 0.86257 0.0
O472 O 0.82122 0.16436 0.67406 0.0
O473 O 0.81097 0.19774 0.64938 0.0
C474 C 0.80092 0.26841 0.84242 0.0
C475 C 0.82173 0.27336 0.82354 0.0
C476 C 0.82389 0.26048 0.79576 0.0
C477 C 0.80596 0.24176 0.78737 0.0
C478 C 0.78511 0.23673 0.80627 0.0
C479 C 0.78235 0.25037 0.83359 0.0
C480 C 0.79799 0.28371 0.87037 0.0
C481 C 0.81464 0.28022 0.8942 0.0
C482 C 0.81565 0.29775 0.918 0.0
C483 C 0.80026 0.31929 0.91817 0.0
C484 C 0.78262 0.32193 0.89485 0.0
C485 C 0.7814 0.30421 0.8713 0.0
C486 C 0.84123 0.29238 0.83273 0.0
C487 C 0.86593 0.28499 0.84095 0.0
C488 C 0.88418 0.30276 0.85022 0.0
C489 C 0.87801 0.32824 0.85137 0.0
C490 C 0.85325 0.33556 0.84282 0.0
C491 C 0.83506 0.31777 0.83348 0.0
C492 C 0.84365 0.26817 0.77445 0.0
C493 C 0.86394 0.25229 0.76588 0.0
C494 C 0.88174 0.25955 0.7448 0.0
C495 C 0.8795 0.28284 0.73211 0.0
C496 C 0.85934 0.2988 0.74126 0.0
C497 C 0.84152 0.29146 0.76207 0.0
C498 C 0.80875 0.22764 0.75848 0.0
C499 C 0.81561 0.20243 0.75763 0.0
C500 C 0.81777 0.18899 0.73053 0.0
C501 C 0.81316 0.20059 0.70378 0.0
C502 C 0.80635 0.22591 0.70477 0.0
C503 C 0.80411 0.2393 0.7319 0.0
C504 C 0.7662 0.21715 0.79705 0.0
C505 C 0.76531 0.19481 0.81172 0.0
C506 C 0.75081 0.17478 0.80007 0.0
C507 C 0.7371 0.17673 0.7734 0.0
C508 C 0.7367 0.19978 0.75993 0.0
C509 C 0.751 0.21983 0.77177 0.0
C510 C 0.75917 0.24698 0.85197 0.0
C511 C 0.76117 0.2377 0.88035 0.0
C512 C 0.73935 0.23598 0.89814 0.0
C513 C 0.7152 0.24343 0.88773 0.0
C514 C 0.71325 0.25209 0.85895 0.0
C515 C 0.73505 0.25391 0.84129 0.0
C516 C 0.89737 0.34706 0.86147 0.0
C517 C 0.81539 0.18639 0.67493 0.0
H518 H 0.94991 0.66927 0.82306 0.0
H519 H 0.69996 0.72529 0.97864 0.0
H520 H 0.88372 0.78727 0.8249 0.0
H521 H 0.91192 0.79623 0.78332 0.0
H522 H 0.84823 0.78458 0.72284 0.0
H523 H 0.82027 0.77558 0.76449 0.0
H524 H 0.87754 0.74351 0.87197 0.0
H525 H 0.91176 0.71373 0.85923 0.0
H526 H 0.87416 0.69527 0.77569 0.0
H527 H 0.83993 0.72493 0.78884 0.0
H528 H 0.83179 0.74462 0.92032 0.0
H529 H 0.82825 0.70704 0.94857 0.0
H530 H 0.80525 0.66511 0.86903 0.0
H531 H 0.80867 0.70283 0.84099 0.0
H532 H 0.7954 0.79192 0.92369 0.0
H533 H 0.76584 0.78399 0.96427 0.0
H534 H 0.73233 0.72298 0.91174 0.0
H535 H 0.76175 0.73133 0.87122 0.0
H536 H 0.79744 0.83537 0.88009 0.0
H537 H 0.76081 0.86178 0.89535 0.0
H538 H 0.70879 0.80562 0.8589 0.0
H539 H 0.74533 0.77979 0.8434 0.0
H540 H 0.84453 0.83327 0.82568 0.0
H541 H 0.83862 0.86895 0.79439 0.0
H542 H 0.766 0.83843 0.76395 0.0
H543 H 0.77234 0.80262 0.79445 0.0
O544 O 0.93615 0.6809 0.82768 0.0
O545 O 0.91609 0.67213 0.78499 0.0
O546 O 0.72948 0.76062 0.98888 0.0
O547 O 0.71178 0.72891 0.9629 0.0
C548 C 0.83264 0.77622 0.82298 0.0
C549 C 0.83561 0.75451 0.83916 0.0
C550 C 0.81861 0.74987 0.86262 0.0
C551 C 0.7988 0.76702 0.87006 0.0
C552 C 0.79577 0.78862 0.85384 0.0
C553 C 0.81268 0.79327 0.83033 0.0
C554 C 0.84996 0.78083 0.79771 0.0
C555 C 0.87595 0.78651 0.80264 0.0
C556 C 0.89199 0.79161 0.77889 0.0
C557 C 0.88225 0.79124 0.74983 0.0
C558 C 0.8562 0.7854 0.74501 0.0
C559 C 0.84025 0.78013 0.76872 0.0
C560 C 0.85633 0.73642 0.8313 0.0
C561 C 0.87672 0.73296 0.85097 0.0
C562 C 0.89625 0.71597 0.84361 0.0
C563 C 0.89573 0.70214 0.81641 0.0
C564 C 0.87519 0.70565 0.79678 0.0
C565 C 0.85565 0.72261 0.8042 0.0
C566 C 0.82044 0.72645 0.87864 0.0
C567 C 0.82636 0.72723 0.90894 0.0
C568 C 0.82413 0.70583 0.92505 0.0
C569 C 0.81619 0.68321 0.91105 0.0
C570 C 0.81153 0.68223 0.88037 0.0
C571 C 0.81355 0.70371 0.86432 0.0
C572 C 0.78076 0.76214 0.8946 0.0
C573 C 0.7816 0.77691 0.92099 0.0
C574 C 0.76473 0.77231 0.94413 0.0
C575 C 0.74675 0.75281 0.94127 0.0
C576 C 0.74595 0.73811 0.91471 0.0
C577 C 0.76277 0.74279 0.89155 0.0
C578 C 0.77396 0.80567 0.86079 0.0
C579 C 0.7781 0.82904 0.87506 0.0
C580 C 0.75721 0.84399 0.88387 0.0
C581 C 0.7319 0.8358 0.87831 0.0
C582 C 0.728 0.81269 0.86311 0.0
C583 C 0.74882 0.79779 0.85445 0.0
C584 C 0.80875 0.81547 0.81252 0.0
C585 C 0.82736 0.83435 0.81225 0.0
C586 C 0.824 0.85462 0.79439 0.0
C587 C 0.80179 0.85647 0.77696 0.0
C588 C 0.78312 0.83763 0.77752 0.0
C589 C 0.78668 0.81723 0.79495 0.0
C590 C 0.91654 0.68414 0.80864 0.0
C591 C 0.72887 0.74777 0.96584 0.0
C592 C 0.00056 0.34503 0.57838 0.0
C593 C 0.05625 0.36374 0.49646 0.0
O594 O -0.00025 0.36816 0.57259 0.0
Zn595 Zn 0.01742 0.39235 0.5416 0.0
O596 O 0.0151 0.3303 0.56333 0.0
Zn597 Zn 0.02847 0.35433 0.53758 0.0
O598 O 0.05156 0.37724 0.56707 0.0
O599 O 0.03682 0.41572 0.56692 0.0
O600 O 0.05221 0.34283 0.50749 0.0
O601 O 0.04464 0.38319 0.50713 0.0
O602 O 0.98794 0.40401 0.51966 0.0
O603 O 0.99532 0.36382 0.51247 0.0
C604 C 0.0529 0.40012 0.57625 0.0
C605 C 0.9818 0.38308 0.50741 0.0
C606 C 0.71019 0.03793 0.62895 0.0
C607 C 0.72731 0.97475 0.55046 0.0
O608 O 0.73395 0.03656 0.62171 0.0
Zn609 Zn 0.7578 0.01565 0.59089 0.0
O610 O 0.69369 0.02395 0.61575 0.0
Zn611 Zn 0.71786 0.00689 0.58919 0.0
O612 O 0.74047 0.98621 0.61938 0.0
O613 O 0.78068 0.99908 0.61723 0.0
O614 O 0.7056 0.98112 0.56121 0.0
O615 O 0.7476 0.98619 0.55968 0.0
O616 O 0.77145 0.04087 0.56623 0.0
O617 O 0.72952 0.03611 0.5615 0.0
C618 C 0.76389 0.98497 0.62806 0.0
C619 C 0.75032 0.04726 0.55472 0.0
C620 C 0.99433 0.81599 0.57144 0.0
C621 C 0.05083 0.83427 0.48884 0.0
O622 O 0.99865 0.83718 0.56107 0.0
Zn623 Zn 0.02164 0.82555 0.52994 0.0
O624 O 0.00496 0.79651 0.55934 0.0
Zn625 Zn 0.03098 0.7871 0.52314 0.0
O626 O 0.05967 0.77279 0.54389 0.0
O627 O 0.05293 0.81259 0.55569 0.0
O628 O 0.04983 0.811 0.49357 0.0
O629 O 0.03742 0.84943 0.50472 0.0
O630 O 0.99584 0.80455 0.50181 0.0
O631 O 0.01003 0.76589 0.49709 0.0
C632 C 0.06541 0.79242 0.55925 0.0
C633 C 0.99334 0.78217 0.49118 0.0
C634 C 0.33598 0.21353 0.54167 0.0
C635 C 0.31311 0.14089 0.47887 0.0
O636 O 0.35125 0.19875 0.52772 0.0
Zn637 Zn 0.32523 0.17766 0.50906 0.0
O638 O 0.31165 0.21012 0.53959 0.0
Zn639 Zn 0.28552 0.18451 0.51806 0.0
O640 O 0.26865 0.16915 0.55079 0.0
O641 O 0.30959 0.15903 0.54603 0.0
O642 O 0.29366 0.15234 0.49027 0.0
O643 O 0.33558 0.1496 0.48328 0.0
O644 O 0.30642 0.20138 0.47883 0.0
O645 O 0.26587 0.20511 0.4924 0.0
C646 C 0.28804 0.15706 0.55943 0.0
C647 C 0.28389 0.21027 0.47476 0.0
C648 C 0.49851 0.90021 0.05009 0.0
C649 C 0.57088 0.88482 0.98335 0.0
O650 O 0.51568 0.91567 0.04309 0.0
Zn651 Zn 0.53504 0.89286 0.01735 0.0
O652 O 0.49973 0.87761 0.03981 0.0
Zn653 Zn 0.52397 0.85502 0.0111 0.0
O654 O 0.53703 0.83033 0.03667 0.0
O655 O 0.55127 0.86816 0.0483 0.0
O656 O 0.55712 0.86538 0.98662 0.0
O657 O 0.56506 0.90507 0.99734 0.0
O658 O 0.50796 0.88475 0.9819 0.0
O659 O 0.50034 0.84433 0.98056 0.0
C660 C 0.55053 0.84489 0.05325 0.0
C661 C 0.49624 0.8656 0.97046 0.0
C662 C 0.25743 0.70149 0.05295 0.0
C663 C 0.28888 0.64182 0.97738 0.0
O664 O 0.2805 0.69529 0.04726 0.0
Zn665 Zn 0.27374 0.67228 0.01438 0.0
O666 O 0.2392 0.6924 0.0367 0.0
Zn667 Zn 0.23538 0.66724 0.99869 0.0
O668 O 0.21384 0.641 0.01374 0.0
O669 O 0.25246 0.64329 0.03388 0.0
O670 O 0.26457 0.6455 0.97562 0.0
O671 O 0.302 0.65351 0.99729 0.0
O672 O 0.26318 0.69545 0.97926 0.0
O673 O 0.2225 0.68825 0.9681 0.0
C674 C 0.23028 0.633 0.03185 0.0
C675 C 0.24332 0.69985 0.9636 0.0
C676 C 0.55725 0.28402 0.00704 0.0
C677 C 0.48092 0.30241 0.06634 0.0
O678 O 0.55573 0.30697 0.01588 0.0
Zn679 Zn 0.53007 0.33074 0.04107 0.0
O680 O 0.53936 0.2691 0.01335 0.0
Zn681 Zn 0.51856 0.29301 0.03587 0.0
O682 O 0.50436 0.31686 0.00237 0.0
O683 O 0.51919 0.35459 0.01329 0.0
O684 O 0.48752 0.28156 0.05431 0.0
O685 O 0.49498 0.32164 0.0629 0.0
O686 O 0.55179 0.34218 0.07339 0.0
O687 O 0.54261 0.30213 0.07386 0.0
C688 C 0.50604 0.33991 0.99647 0.0
C689 C 0.55397 0.32142 0.08544 0.0
C690 C 0.83402 0.54531 0.12095 0.0
C691 C 0.82098 0.47045 0.05736 0.0
O692 O 0.85129 0.52989 0.11236 0.0
Zn693 Zn 0.82854 0.5081 0.08885 0.0
O694 O 0.81057 0.54167 0.11322 0.0
Zn695 Zn 0.78809 0.51512 0.08775 0.0
O696 O 0.76562 0.50188 0.11727 0.0
O697 O 0.80642 0.49189 0.12299 0.0
O698 O 0.80008 0.48207 0.06372 0.0
O699 O 0.84231 0.47929 0.06668 0.0
O700 O 0.81607 0.53174 0.05472 0.0
O701 O 0.77393 0.53554 0.05772 0.0
C702 C 0.78297 0.49086 0.13152 0.0
C703 C 0.795 0.54086 0.04529 0.0
H704 H 0.1693 0.34288 0.35485 0.0
H705 H 0.13471 0.4144 0.34179 0.0
H706 H 0.14283 0.33823 0.39881 0.0
H707 H 0.10739 0.40947 0.38483 0.0
H708 H 0.07971 0.40561 0.47866 0.0
H709 H 0.10825 0.40968 0.43667 0.0
H710 H 0.10043 0.33093 0.41456 0.0
H711 H 0.07282 0.32674 0.45757 0.0
C712 C 0.1558 0.35747 0.36132 0.0
C713 C 0.15401 0.37901 0.34513 0.0
C714 C 0.14055 0.3548 0.38637 0.0
C715 C 0.12295 0.37349 0.39547 0.0
C716 C 0.12109 0.39494 0.37894 0.0
C717 C 0.13661 0.39775 0.35418 0.0
C718 C 0.08417 0.38915 0.46487 0.0
C719 C 0.07399 0.36587 0.47131 0.0
C720 C 0.10041 0.3915 0.44065 0.0
C721 C 0.10651 0.37068 0.42198 0.0
C722 C 0.09647 0.34731 0.42865 0.0
C723 C 0.08052 0.34491 0.4532 0.0
H724 H 0.72131 0.188 0.47646 0.0
H725 H 0.76237 0.14569 0.40782 0.0
H726 H 0.72388 0.15277 0.50821 0.0
H727 H 0.76583 0.11089 0.44034 0.0
H728 H 0.79001 0.06793 0.52446 0.0
H729 H 0.78765 0.10254 0.49119 0.0
H730 H 0.70592 0.10794 0.50615 0.0
H731 H 0.70811 0.07336 0.539 0.0
C732 C 0.73068 0.17118 0.46796 0.0
C733 C 0.7415 0.16975 0.43941 0.0
C734 C 0.7323 0.15106 0.48629 0.0
C735 C 0.74509 0.12918 0.47671 0.0
C736 C 0.75611 0.12769 0.44835 0.0
C737 C 0.75417 0.14768 0.4298 0.0
C738 C 0.77155 0.07649 0.52057 0.0
C739 C 0.74925 0.06791 0.53432 0.0
C740 C 0.7702 0.09618 0.50146 0.0
C741 C 0.74661 0.10789 0.49622 0.0
C742 C 0.72437 0.09934 0.51 0.0
C743 C 0.72563 0.07946 0.52867 0.0
H744 H 0.83708 0.75689 0.43053 0.0
H745 H 0.88286 0.75515 0.35087 0.0
H746 H 0.87629 0.75944 0.46049 0.0
H747 H 0.9221 0.75751 0.38086 0.0
H748 H 0.98648 0.74281 0.4509 0.0
H749 H 0.94754 0.73289 0.42182 0.0
H750 H 0.90921 0.79631 0.46385 0.0
H751 H 0.94781 0.80647 0.49228 0.0
C752 C 0.85555 0.75657 0.41949 0.0
C753 C 0.85704 0.75603 0.38847 0.0
C754 C 0.87791 0.75811 0.43657 0.0
C755 C 0.90211 0.75873 0.4229 0.0
C756 C 0.90365 0.7569 0.39188 0.0
C757 C 0.88127 0.75575 0.37479 0.0
C758 C 0.96968 0.75454 0.45388 0.0
C759 C 0.9702 0.77549 0.47368 0.0
C760 C 0.94751 0.74889 0.43729 0.0
C761 C 0.92543 0.76376 0.44085 0.0
C762 C 0.92589 0.7844 0.46097 0.0
C763 C 0.94808 0.79032 0.47703 0.0
H764 H 0.28784 0.02806 0.34024 0.0
H765 H 0.26629 0.99164 0.41959 0.0
H766 H 0.30227 0.06445 0.37022 0.0
H767 H 0.28072 0.02811 0.44968 0.0
H768 H 0.2715 0.11104 0.482 0.0
H769 H 0.26293 0.07223 0.45413 0.0
H770 H 0.33611 0.0776 0.41001 0.0
H771 H 0.34496 0.11681 0.43832 0.0
C772 C 0.28615 0.02794 0.36412 0.0
C773 C 0.27556 0.00734 0.3777 0.0
C774 C 0.29471 0.04857 0.38124 0.0
C775 C 0.29254 0.04904 0.41219 0.0
C776 C 0.28244 0.02821 0.4258 0.0
C777 C 0.2742 0.00742 0.40869 0.0
C778 C 0.28586 0.10399 0.46641 0.0
C779 C 0.30884 0.11705 0.46214 0.0
C780 C 0.28101 0.08163 0.45068 0.0
C781 C 0.29889 0.07193 0.43005 0.0
C782 C 0.32201 0.08481 0.4258 0.0
C783 C 0.32708 0.10713 0.44198 0.0
H784 H 0.15865 0.82293 0.71534 0.0
H785 H 0.20962 0.82073 0.63989 0.0
H786 H 0.12472 0.80402 0.68446 0.0
H787 H 0.17575 0.80177 0.60913 0.0
H788 H 0.10841 0.76278 0.56154 0.0
H789 H 0.14346 0.76669 0.59806 0.0
H790 H 0.10218 0.82615 0.6447 0.0
H791 H 0.06775 0.82238 0.60867 0.0
C792 C 0.16275 0.81793 0.69233 0.0
C793 C 0.18661 0.8237 0.67991 0.0
C794 C 0.14339 0.80704 0.67471 0.0
C795 C 0.14752 0.80176 0.64433 0.0
C796 C 0.17209 0.80547 0.63252 0.0
C797 C 0.19147 0.81638 0.65016 0.0
C798 C 0.1068 0.77637 0.5799 0.0
C799 C 0.08558 0.79247 0.58214 0.0
C800 C 0.12679 0.77863 0.6007 0.0
C801 C 0.12544 0.79662 0.62429 0.0
C802 C 0.10362 0.81185 0.62708 0.0
C803 C 0.08401 0.80989 0.6062 0.0
H804 H 0.38242 0.29753 0.69822 0.0
H805 H 0.35912 0.35399 0.63881 0.0
H806 H 0.3798 0.26612 0.65727 0.0
H807 H 0.35719 0.32292 0.59817 0.0
H808 H 0.31085 0.25614 0.55723 0.0
H809 H 0.32441 0.2892 0.59225 0.0
H810 H 0.39629 0.25121 0.6054 0.0
H811 H 0.38271 0.21786 0.56972 0.0
C812 C 0.37742 0.30333 0.67633 0.0
C813 C 0.37094 0.32823 0.67182 0.0
C814 C 0.37611 0.28541 0.65288 0.0
C815 C 0.36809 0.29211 0.62464 0.0
C816 C 0.36327 0.31724 0.61976 0.0
C817 C 0.36466 0.33509 0.64305 0.0
C818 C 0.32968 0.25492 0.5673 0.0
C819 C 0.34569 0.2344 0.56085 0.0
C820 C 0.33751 0.27395 0.58722 0.0
C821 C 0.36141 0.27278 0.60149 0.0
C822 C 0.37774 0.2525 0.5947 0.0
C823 C 0.37004 0.23355 0.57424 0.0
H824 H 0.86872 0.30718 0.68195 0.0
H825 H 0.93171 0.27584 0.7302 0.0
H826 H 0.89882 0.32194 0.64554 0.0
H827 H 0.96181 0.29025 0.6932 0.0
H828 H 0.00104 0.29873 0.60108 0.0
H829 H 0.97224 0.28284 0.63847 0.0
H830 H 0.93392 0.35403 0.64599 0.0
H831 H 0.96251 0.36994 0.6087 0.0
C832 C 0.88901 0.30354 0.68489 0.0
C833 C 0.89784 0.29057 0.70917 0.0
C834 C 0.90621 0.31195 0.66398 0.0
C835 C 0.93263 0.30741 0.66672 0.0
C836 C 0.9415 0.29387 0.69051 0.0
C837 C 0.92426 0.28559 0.71161 0.0
C838 C 0.98653 0.31101 0.6108 0.0
C839 C 0.98399 0.33556 0.60186 0.0
C840 C 0.97015 0.30193 0.63228 0.0
C841 C 0.95079 0.31717 0.64495 0.0
C842 C 0.94848 0.34179 0.63629 0.0
C843 C 0.96496 0.35092 0.61506 0.0
H844 H 0.83582 0.87528 0.73783 0.0
H845 H 0.75922 0.88532 0.77282 0.0
H846 H 0.82781 0.90759 0.70266 0.0
H847 H 0.75135 0.91798 0.73842 0.0
H848 H 0.73371 0.9487 0.64936 0.0
H849 H 0.74422 0.91931 0.68647 0.0
H850 H 0.82006 0.95145 0.69589 0.0
H851 H 0.80969 0.98067 0.65776 0.0
C852 C 0.81745 0.88476 0.73832 0.0
C853 C 0.79802 0.87768 0.75776 0.0
C854 C 0.81287 0.90328 0.71826 0.0
C855 C 0.78882 0.91516 0.71745 0.0
C856 C 0.76986 0.90878 0.73791 0.0
C857 C 0.77436 0.89016 0.7577 0.0
C858 C 0.75265 0.9496 0.6593 0.0
C859 C 0.77084 0.9671 0.65063 0.0
C860 C 0.75862 0.93281 0.68081 0.0
C861 C 0.78289 0.93318 0.69446 0.0
C862 C 0.80123 0.95057 0.68567 0.0
C863 C 0.79528 0.96736 0.66392 0.0
H864 H 0.93102 0.77432 0.73943 0.0
H865 H 0.8718 0.82011 0.70304 0.0
H866 H 0.95842 0.7818 0.69702 0.0
H867 H 0.89899 0.82706 0.66016 0.0
H868 H 0.96636 0.85227 0.60177 0.0
H869 H 0.9397 0.84755 0.64573 0.0
H870 H 0.95803 0.76922 0.64408 0.0
H871 H 0.98472 0.77387 0.60065 0.0
C872 C 0.92394 0.78613 0.72247 0.0
C873 C 0.89922 0.79654 0.72452 0.0
C874 C 0.93952 0.79022 0.69804 0.0
C875 C 0.9308 0.80489 0.67515 0.0
C876 C 0.90631 0.81579 0.67751 0.0
C877 C 0.89065 0.81159 0.7019 0.0
C878 C 0.96467 0.83406 0.61082 0.0
C879 C 0.9777 0.81347 0.5977 0.0
C880 C 0.94934 0.83134 0.63591 0.0
C881 C 0.94689 0.80804 0.64847 0.0
C882 C 0.95985 0.78749 0.63524 0.0
C883 C 0.97501 0.79016 0.61017 0.0
H884 H 0.24566 0.0444 0.68557 0.0
H885 H 0.31518 0.02019 0.64071 0.0
H886 H 0.24747 0.08368 0.66064 0.0
H887 H 0.31633 0.05874 0.6149 0.0
H888 H 0.32671 0.13708 0.59101 0.0
H889 H 0.32426 0.10229 0.62327 0.0
H890 H 0.24188 0.09976 0.6117 0.0
H891 H 0.2443 0.13522 0.57994 0.0
C892 C 0.26137 0.04748 0.67048 0.0
C893 C 0.28026 0.02911 0.66511 0.0
C894 C 0.26225 0.06989 0.65598 0.0
C895 C 0.28208 0.07445 0.63584 0.0
C896 C 0.30099 0.05608 0.63062 0.0
C897 C 0.30013 0.03377 0.6451 0.0
C898 C 0.308 0.12937 0.59571 0.0
C899 C 0.28571 0.13875 0.5827 0.0
C900 C 0.30662 0.10928 0.61404 0.0
C901 C 0.28294 0.09787 0.61961 0.0
C902 C 0.26043 0.10815 0.60796 0.0
C903 C 0.2618 0.12846 0.58974 0.0
H904 H 0.16528 0.41422 0.71854 0.0
H905 H 0.20148 0.44411 0.64187 0.0
H906 H 0.12475 0.41086 0.6916 0.0
H907 H 0.16059 0.44137 0.61532 0.0
H908 H 0.07563 0.44603 0.58428 0.0
H909 H 0.11283 0.4568 0.61591 0.0
H910 H 0.11364 0.38208 0.64672 0.0
H911 H 0.07704 0.37129 0.61512 0.0
C912 C 0.16459 0.42023 0.69602 0.0
C913 C 0.18681 0.42901 0.68222 0.0
C914 C 0.14132 0.41845 0.6807 0.0
C915 C 0.13961 0.4257 0.65134 0.0
C916 C 0.16135 0.43585 0.63804 0.0
C917 C 0.18476 0.43741 0.65328 0.0
C918 C 0.08362 0.43208 0.59813 0.0
C919 C 0.07354 0.40781 0.59719 0.0
C920 C 0.10492 0.43818 0.61605 0.0
C921 C 0.11604 0.42027 0.63377 0.0
C922 C 0.10531 0.39633 0.63353 0.0
C923 C 0.08445 0.39012 0.6153 0.0
H924 H 0.69203 0.17287 0.74146 0.0
H925 H 0.75705 0.12979 0.76929 0.0
H926 H 0.67773 0.13754 0.70959 0.0
H927 H 0.74262 0.09471 0.73807 0.0
H928 H 0.71059 0.03053 0.68758 0.0
H929 H 0.71011 0.0629 0.72752 0.0
H930 H 0.69562 0.11831 0.66337 0.0
H931 H 0.69565 0.08573 0.62376 0.0
C932 C 0.70307 0.15581 0.74113 0.0
C933 C 0.7258 0.15428 0.75786 0.0
C934 C 0.69483 0.13557 0.72294 0.0
C935 C 0.70904 0.11333 0.72125 0.0
C936 C 0.73093 0.11138 0.73921 0.0
C937 C 0.73923 0.13159 0.75722 0.0
C938 C 0.70628 0.04953 0.68236 0.0
C939 C 0.70282 0.05579 0.65289 0.0
C940 C 0.70626 0.06808 0.70508 0.0
C941 C 0.7031 0.09321 0.69859 0.0
C942 C 0.6978 0.09913 0.6692 0.0
C943 C 0.6978 0.08054 0.6465 0.0
H944 H 0.87026 0.32879 0.37795 0.0
H945 H 0.82836 0.38422 0.43087 0.0
H946 H 0.90967 0.34138 0.40279 0.0
H947 H 0.86783 0.3956 0.45732 0.0
H948 H 0.94873 0.41933 0.48895 0.0
H949 H 0.9109 0.41344 0.45701 0.0
H950 H 0.92546 0.33429 0.45089 0.0
H951 H 0.96313 0.34017 0.48169 0.0
C952 C 0.86941 0.34398 0.39451 0.0
C953 C 0.8459 0.35532 0.40245 0.0
C954 C 0.89207 0.35093 0.40916 0.0
C955 C 0.89187 0.36912 0.43254 0.0
C956 C 0.8687 0.3815 0.43944 0.0
C957 C 0.84598 0.37473 0.4245 0.0
C958 C 0.94387 0.40074 0.48056 0.0
C959 C 0.95903 0.38025 0.48781 0.0
C960 C 0.92216 0.39735 0.46237 0.0
C961 C 0.91525 0.37342 0.4511 0.0
C962 C 0.93049 0.35306 0.45848 0.0
C963 C 0.95207 0.35643 0.47645 0.0
H964 H 0.71104 0.83942 0.43714 0.0
H965 H 0.77791 0.8768 0.4042 0.0
H966 H 0.70594 0.87237 0.47562 0.0
H967 H 0.772 0.91032 0.44153 0.0
H968 H 0.77138 0.95292 0.52997 0.0
H969 H 0.7761 0.91879 0.49337 0.0
H970 H 0.69365 0.9155 0.48259 0.0
H971 H 0.68886 0.94938 0.52018 0.0
C972 C 0.72473 0.85459 0.43818 0.0
C973 C 0.74495 0.8554 0.4176 0.0
C974 C 0.72157 0.87369 0.45998 0.0
C975 C 0.73851 0.89406 0.46169 0.0
C976 C 0.75876 0.89479 0.44115 0.0
C977 C 0.76199 0.87568 0.41948 0.0
C978 C 0.7542 0.94498 0.51982 0.0
C979 C 0.72972 0.95398 0.52792 0.0
C980 C 0.75694 0.92544 0.49866 0.0
C981 C 0.73529 0.91447 0.48481 0.0
C982 C 0.71074 0.92334 0.49304 0.0
C983 C 0.70798 0.94286 0.51444 0.0
H984 H 0.13982 0.9135 0.35778 0.0
H985 H 0.18385 0.84826 0.3775 0.0
H986 H 0.10581 0.90047 0.39086 0.0
H987 H 0.1506 0.83594 0.41149 0.0
H988 H 0.07683 0.80616 0.44704 0.0
H989 H 0.10784 0.81991 0.41117 0.0
H990 H 0.09646 0.89613 0.44293 0.0
H991 H 0.06473 0.88235 0.47846 0.0
C992 C 0.14225 0.89638 0.36913 0.0
C993 C 0.16462 0.88195 0.36496 0.0
C994 C 0.12287 0.88906 0.38836 0.0
C995 C 0.12539 0.86712 0.40383 0.0
C996 C 0.14779 0.85275 0.39965 0.0
C997 C 0.16708 0.86002 0.38043 0.0
C998 C 0.08078 0.82589 0.44631 0.0
C999 C 0.0684 0.84314 0.46578 0.0
C1000 C 0.09873 0.83376 0.42582 0.0
C1001 C 0.10494 0.85911 0.42436 0.0
C1002 C 0.09202 0.87648 0.44328 0.0
C1003 C 0.0739 0.86858 0.46374 0.0
H1004 H 0.22422 0.28404 0.32076 0.0
H1005 H 0.29512 0.32214 0.34325 0.0
H1006 H 0.23102 0.25635 0.3614 0.0
H1007 H 0.30153 0.29502 0.38428 0.0
H1008 H 0.31883 0.22559 0.4345 0.0
H1009 H 0.3116 0.25177 0.39289 0.0
H1010 H 0.23129 0.25781 0.41605 0.0
H1011 H 0.23843 0.23119 0.45763 0.0
C1012 C 0.24131 0.28641 0.33427 0.0
C1013 C 0.25914 0.30527 0.32876 0.0
C1014 C 0.24506 0.27075 0.35776 0.0
C1015 C 0.26679 0.2735 0.37613 0.0
C1016 C 0.28471 0.29223 0.37041 0.0
C1017 C 0.28092 0.30793 0.34705 0.0
C1018 C 0.29959 0.23245 0.43078 0.0
C1019 C 0.27921 0.22631 0.4495 0.0
C1020 C 0.29549 0.24759 0.40697 0.0
C1021 C 0.27089 0.25696 0.40118 0.0
C1022 C 0.25043 0.25069 0.41973 0.0
C1023 C 0.25455 0.23557 0.44367 0.0
H1024 H 0.68627 0.84436 0.85052 0.0
H1025 H 0.7267 0.85939 0.93295 0.0
H1026 H 0.64698 0.86132 0.87291 0.0
H1027 H 0.68746 0.87656 0.9552 0.0
H1028 H 0.61291 0.91569 0.98333 0.0
H1029 H 0.65258 0.90935 0.95468 0.0
H1030 H 0.62002 0.84314 0.91181 0.0
H1031 H 0.58074 0.84939 0.94015 0.0
C1032 C 0.68685 0.8516 0.87329 0.0
C1033 C 0.70949 0.85018 0.8901 0.0
C1034 C 0.66439 0.86135 0.88606 0.0
C1035 C 0.66409 0.86998 0.91589 0.0
C1036 C 0.68715 0.87022 0.93209 0.0
C1037 C 0.70964 0.86038 0.91933 0.0
C1038 C 0.61416 0.90003 0.96743 0.0
C1039 C 0.59381 0.88294 0.96412 0.0
C1040 C 0.63686 0.89635 0.95116 0.0
C1041 C 0.63937 0.87578 0.93098 0.0
C1042 C 0.61857 0.85935 0.92688 0.0
C1043 C 0.59612 0.86282 0.94332 0.0
H1044 H 0.29765 0.81643 0.85372 0.0
H1045 H 0.22336 0.79848 0.81619 0.0
H1046 H 0.29171 0.78514 0.89023 0.0
H1047 H 0.21771 0.76612 0.85176 0.0
H1048 H 0.20496 0.72706 0.93871 0.0
H1049 H 0.20967 0.75827 0.90149 0.0
H1050 H 0.29116 0.74283 0.89678 0.0
H1051 H 0.28654 0.71296 0.9349 0.0
C1052 C 0.28022 0.80541 0.85303 0.0
C1053 C 0.26102 0.80975 0.83212 0.0
C1054 C 0.27678 0.78736 0.87387 0.0
C1055 C 0.25425 0.77283 0.87398 0.0
C1056 C 0.23513 0.77713 0.85277 0.0
C1057 C 0.2384 0.79553 0.83222 0.0
C1058 C 0.22382 0.73044 0.92963 0.0
C1059 C 0.2454 0.71781 0.93995 0.0
C1060 C 0.22656 0.74821 0.90815 0.0
C1061 C 0.25089 0.75338 0.89617 0.0
C1062 C 0.27225 0.74003 0.90597 0.0
C1063 C 0.26958 0.72271 0.92775 0.0
H1064 H 0.43169 0.36648 0.82682 0.0
H1065 H 0.39413 0.41455 0.8926 0.0
H1066 H 0.46223 0.35342 0.86439 0.0
H1067 H 0.42449 0.40153 0.93006 0.0
H1068 H 0.49706 0.38839 0.98382 0.0
H1069 H 0.47166 0.40378 0.94305 0.0
H1070 H 0.4579 0.32827 0.9103 0.0
H1071 H 0.48321 0.31281 0.95103 0.0
C1072 C 0.43022 0.37449 0.8492 0.0
C1073 C 0.41052 0.39143 0.85688 0.0
C1074 C 0.44753 0.3669 0.87071 0.0
C1075 C 0.44569 0.37643 0.90015 0.0
C1076 C 0.42652 0.39402 0.90752 0.0
C1077 C 0.40904 0.40133 0.88615 0.0
C1078 C 0.48881 0.37507 0.96779 0.0
C1079 C 0.49204 0.34936 0.97076 0.0
C1080 C 0.47419 0.38389 0.94452 0.0
C1081 C 0.46278 0.36722 0.92354 0.0
C1082 C 0.46666 0.34156 0.92599 0.0
C1083 C 0.48101 0.33272 0.94944 0.0
H1084 H 0.76345 0.35013 0.94334 0.0
H1085 H 0.84499 0.33506 0.94544 0.0
H1086 H 0.76965 0.3858 0.97727 0.0
H1087 H 0.85087 0.36943 0.9816 0.0
H1088 H 0.85683 0.4502 0.01892 0.0
H1089 H 0.85223 0.41271 0.98668 0.0
H1090 H 0.77788 0.39908 0.0255 0.0
H1091 H 0.78197 0.4372 0.05605 0.0
C1092 C 0.7827 0.35424 0.95124 0.0
C1093 C 0.80369 0.33965 0.9414 0.0
C1094 C 0.78623 0.37456 0.97121 0.0
C1095 C 0.81081 0.38064 0.98243 0.0
C1096 C 0.83171 0.36565 0.97319 0.0
C1097 C 0.82824 0.34556 0.9528 0.0
C1098 C 0.83961 0.43905 0.02052 0.0
C1099 C 0.81964 0.44672 0.03966 0.0
C1100 C 0.83697 0.41745 0.00218 0.0
C1101 C 0.81451 0.40284 0.00311 0.0
C1102 C 0.79511 0.41012 0.02336 0.0
C1103 C 0.79751 0.43192 0.04111 0.0
H1104 H 0.61806 0.29529 0.25962 0.0
H1105 H 0.68339 0.3072 0.20328 0.0
H1106 H 0.58908 0.30273 0.21821 0.0
H1107 H 0.65443 0.31483 0.16194 0.0
H1108 H 0.59177 0.3529 0.10645 0.0
H1109 H 0.61973 0.34759 0.14929 0.0
H1110 H 0.58022 0.27951 0.16761 0.0
H1111 H 0.55251 0.28455 0.12469 0.0
C1112 C 0.62616 0.29966 0.23842 0.0
C1113 C 0.65291 0.30062 0.23454 0.0
C1114 C 0.60964 0.30378 0.21476 0.0
C1115 C 0.61956 0.30938 0.18696 0.0
C1116 C 0.64631 0.31073 0.18322 0.0
C1117 C 0.66283 0.30619 0.20674 0.0
C1118 C 0.58896 0.33689 0.11974 0.0
C1119 C 0.56999 0.31911 0.11218 0.0
C1120 C 0.60504 0.33381 0.14411 0.0
C1121 C 0.60211 0.31314 0.16167 0.0
C1122 C 0.58276 0.29569 0.15453 0.0
C1123 C 0.567 0.29853 0.1299 0.0
H1124 H 0.82606 0.63851 0.27542 0.0
H1125 H 0.83432 0.69186 0.20756 0.0
H1126 H 0.8387 0.60514 0.23976 0.0
H1127 H 0.84757 0.65872 0.17242 0.0
H1128 H 0.81274 0.59059 0.11733 0.0
H1129 H 0.81682 0.62616 0.15217 0.0
H1130 H 0.87217 0.58601 0.20278 0.0
H1131 H 0.86825 0.5501 0.16717 0.0
C1132 C 0.83127 0.64321 0.25317 0.0
C1133 C 0.82886 0.66779 0.24425 0.0
C1134 C 0.83876 0.62415 0.23286 0.0
C1135 C 0.84384 0.62934 0.20326 0.0
C1136 C 0.84357 0.65419 0.19505 0.0
C1137 C 0.83616 0.67321 0.21531 0.0
C1138 C 0.8262 0.58953 0.13554 0.0
C1139 C 0.84012 0.56766 0.1397 0.0
C1140 C 0.82869 0.60996 0.15538 0.0
C1141 C 0.84487 0.60888 0.18016 0.0
C1142 C 0.85959 0.5873 0.18382 0.0
C1143 C 0.85746 0.56688 0.16346 0.0
H1144 H 0.40081 0.94281 0.19889 0.0
H1145 H 0.34798 0.92107 0.12855 0.0
H1146 H 0.43669 0.93851 0.16409 0.0
H1147 H 0.38366 0.9174 0.09379 0.0
H1148 H 0.45464 0.87437 0.0588 0.0
H1149 H 0.41872 0.88585 0.09075 0.0
H1150 H 0.45655 0.95483 0.11713 0.0
H1151 H 0.49296 0.94327 0.08485 0.0
C1152 C 0.39684 0.93747 0.17593 0.0
C1153 C 0.37161 0.93206 0.16651 0.0
C1154 C 0.41733 0.93525 0.15599 0.0
C1155 C 0.41295 0.92741 0.12633 0.0
C1156 C 0.3876 0.92321 0.11662 0.0
C1157 C 0.36715 0.92554 0.13648 0.0
C1158 C 0.45539 0.89204 0.07131 0.0
C1159 C 0.47671 0.90789 0.06936 0.0
C1160 C 0.43466 0.8987 0.08943 0.0
C1161 C 0.43475 0.92131 0.10624 0.0
C1162 C 0.45603 0.93726 0.1044 0.0
C1163 C 0.47679 0.93069 0.08591 0.0
H1164 H 0.26042 0.49645 0.11288 0.0
H1165 H 0.17971 0.5054 0.13275 0.0
H1166 H 0.25964 0.53433 0.08563 0.0
H1167 H 0.17892 0.54355 0.10505 0.0
H1168 H 0.19017 0.59942 0.02681 0.0
H1169 H 0.18571 0.56062 0.05297 0.0
H1170 H 0.25445 0.57874 0.10296 0.0
H1171 H 0.25901 0.61692 0.07716 0.0
C1172 C 0.24249 0.50654 0.11143 0.0
C1173 C 0.22024 0.49818 0.12543 0.0
C1174 C 0.24203 0.52822 0.09578 0.0
C1175 C 0.21932 0.54212 0.09366 0.0
C1176 C 0.19668 0.53318 0.10634 0.0
C1177 C 0.19715 0.51138 0.12215 0.0
C1178 C 0.2041 0.5952 0.04366 0.0
C1179 C 0.22513 0.61109 0.0496 0.0
C1180 C 0.20154 0.57303 0.0586 0.0
C1181 C 0.22004 0.56646 0.07956 0.0
C1182 C 0.24025 0.583 0.08641 0.0
C1183 C 0.24277 0.60498 0.07166 0.0
H1184 H 0.36727 0.35671 0.19192 0.0
H1185 H 0.33023 0.29233 0.14976 0.0
H1186 H 0.40655 0.34647 0.16558 0.0
H1187 H 0.36929 0.28318 0.12155 0.0
H1188 H 0.45151 0.26536 0.08897 0.0
H1189 H 0.41382 0.27042 0.12108 0.0
H1190 H 0.41941 0.35025 0.11583 0.0
H1191 H 0.45719 0.34524 0.08492 0.0
C1192 C 0.36753 0.3401 0.17743 0.0
C1193 C 0.34536 0.32546 0.17293 0.0
C1194 C 0.39003 0.33449 0.16183 0.0
C1195 C 0.39093 0.31436 0.14088 0.0
C1196 C 0.36927 0.29886 0.13747 0.0
C1197 C 0.34676 0.3043 0.15342 0.0
C1198 C 0.44461 0.28395 0.09475 0.0
C1199 C 0.45743 0.3049 0.0846 0.0
C1200 C 0.42301 0.28685 0.11307 0.0
C1201 C 0.41378 0.31076 0.12142 0.0
C1202 C 0.42637 0.33159 0.11062 0.0
C1203 C 0.44796 0.3287 0.09263 0.0
H1204 H 0.79168 0.37083 0.24677 0.0
H1205 H 0.71876 0.40298 0.27337 0.0
H1206 H 0.79808 0.40377 0.2127 0.0
H1207 H 0.72566 0.43681 0.23983 0.0
H1208 H 0.73599 0.47236 0.1473 0.0
H1209 H 0.72738 0.44338 0.18626 0.0
H1210 H 0.80706 0.44753 0.2129 0.0
H1211 H 0.81573 0.47571 0.17374 0.0
C1212 C 0.77703 0.38502 0.24539 0.0
C1213 C 0.75464 0.3842 0.26262 0.0
C1214 C 0.78084 0.40412 0.22612 0.0
C1215 C 0.76244 0.42303 0.22366 0.0
C1216 C 0.74011 0.42242 0.2411 0.0
C1217 C 0.73629 0.40321 0.26049 0.0
C1218 C 0.75154 0.46728 0.16175 0.0
C1219 C 0.7766 0.47598 0.15717 0.0
C1220 C 0.7466 0.45076 0.18412 0.0
C1221 C 0.76664 0.44284 0.20236 0.0
C1222 C 0.79134 0.45275 0.19876 0.0
C1223 C 0.79629 0.469 0.17637 0.0
H1224 H 0.62318 0.76205 0.19337 0.0
H1225 H 0.67322 0.82394 0.17683 0.0
H1226 H 0.59259 0.77687 0.15711 0.0
H1227 H 0.64346 0.83796 0.1398 0.0
H1228 H 0.5751 0.87189 0.09717 0.0
H1229 H 0.60197 0.85665 0.13635 0.0
H1230 H 0.58805 0.78099 0.10391 0.0
H1231 H 0.56042 0.79628 0.06503 0.0
C1232 C 0.62764 0.77879 0.18202 0.0
C1233 C 0.65069 0.79175 0.18789 0.0
C1234 C 0.61026 0.78713 0.16104 0.0
C1235 C 0.61555 0.80862 0.14559 0.0
C1236 C 0.63858 0.82154 0.15157 0.0
C1237 C 0.65585 0.81328 0.17252 0.0
C1238 C 0.57765 0.85199 0.09843 0.0
C1239 C 0.56579 0.8353 0.07783 0.0
C1240 C 0.59317 0.84325 0.12083 0.0
C1241 C 0.59742 0.81761 0.12307 0.0
C1242 C 0.58501 0.80085 0.10295 0.0
C1243 C 0.5693 0.80961 0.08058 0.0
H1244 H 0.26273 0.79345 0.2155 0.0
H1245 H 0.18836 0.80954 0.17822 0.0
H1246 H 0.26972 0.76158 0.17686 0.0
H1247 H 0.19635 0.77886 0.138 0.0
H1248 H 0.21088 0.70923 0.07953 0.0
H1249 H 0.20101 0.73659 0.12249 0.0
H1250 H 0.28034 0.76043 0.12637 0.0
H1251 H 0.29033 0.73226 0.08429 0.0
C1252 C 0.24757 0.78993 0.19944 0.0
C1253 C 0.22491 0.80421 0.20014 0.0
C1254 C 0.25188 0.77193 0.17678 0.0
C1255 C 0.23388 0.76794 0.15388 0.0
C1256 C 0.21066 0.78134 0.15528 0.0
C1257 C 0.20617 0.79915 0.17824 0.0
C1258 C 0.2262 0.72033 0.08961 0.0
C1259 C 0.2514 0.71858 0.07856 0.0
C1260 C 0.22052 0.7361 0.11418 0.0
C1261 C 0.23986 0.75071 0.12806 0.0
C1262 C 0.26503 0.74908 0.11674 0.0
C1263 C 0.27077 0.73307 0.09242 0.0
H1264 H 0.40401 0.9115 0.82174 0.0
H1265 H 0.35431 0.86392 0.87057 0.0
H1266 H 0.43909 0.9036 0.85574 0.0
H1267 H 0.38923 0.85667 0.90525 0.0
H1268 H 0.48376 0.90829 0.94355 0.0
H1269 H 0.45003 0.91423 0.90729 0.0
H1270 H 0.4314 0.83599 0.90742 0.0
H1271 H 0.46496 0.83005 0.94417 0.0
C1272 C 0.40061 0.89927 0.83969 0.0
C1273 C 0.37641 0.8883 0.84347 0.0
C1274 C 0.42064 0.89494 0.85933 0.0
C1275 C 0.41692 0.87953 0.88319 0.0
C1276 C 0.39276 0.86843 0.88689 0.0
C1277 C 0.37268 0.87281 0.86726 0.0
C1278 C 0.47261 0.89229 0.93574 0.0
C1279 C 0.47702 0.8687 0.94681 0.0
C1280 C 0.45334 0.89569 0.91484 0.0
C1281 C 0.43801 0.87559 0.90455 0.0
C1282 C 0.44269 0.8519 0.91522 0.0
C1283 C 0.46203 0.84847 0.9361 0.0
H1284 H 0.33019 0.49798 0.90807 0.0
H1285 H 0.33307 0.54129 0.8301 0.0
H1286 H 0.32573 0.53631 0.93908 0.0
H1287 H 0.32883 0.57946 0.86105 0.0
H1288 H 0.27276 0.62752 0.92221 0.0
H1289 H 0.28886 0.59315 0.8905 0.0
H1290 H 0.34759 0.57869 0.95496 0.0
H1291 H 0.33159 0.61357 0.9868 0.0
C1292 C 0.33038 0.5157 0.89767 0.0
C1293 C 0.33185 0.51668 0.86671 0.0
C1294 C 0.32805 0.5376 0.91539 0.0
C1295 C 0.32684 0.56077 0.90237 0.0
C1296 C 0.32963 0.5618 0.87157 0.0
C1297 C 0.33222 0.53997 0.85392 0.0
C1298 C 0.28937 0.61728 0.92942 0.0
C1299 C 0.30089 0.6231 0.95697 0.0
C1300 C 0.29868 0.59771 0.91119 0.0
C1301 C 0.31946 0.58332 0.92033 0.0
C1302 C 0.33151 0.58954 0.9475 0.0
C1303 C 0.32246 0.6095 0.96558 0.0
H1304 H 0.713 0.25961 0.94573 0.0
H1305 H 0.66587 0.22918 0.87408 0.0
H1306 H 0.67483 0.26594 0.9763 0.0
H1307 H 0.6275 0.23618 0.90453 0.0
H1308 H 0.56557 0.23845 0.9784 0.0
H1309 H 0.60428 0.22475 0.95132 0.0
H1310 H 0.63934 0.29631 0.97151 0.0
H1311 H 0.60116 0.3099 0.99838 0.0
C1312 C 0.69455 0.25382 0.93671 0.0
C1313 C 0.69241 0.24408 0.90742 0.0
C1314 C 0.67267 0.25767 0.95412 0.0
C1315 C 0.64819 0.25184 0.94265 0.0
C1316 C 0.64614 0.24079 0.91396 0.0
C1317 C 0.66805 0.23701 0.89647 0.0
C1318 C 0.5816 0.25118 0.97707 0.0
C1319 C 0.58027 0.27526 0.99049 0.0
C1320 C 0.60368 0.24336 0.96156 0.0
C1321 C 0.62488 0.25939 0.95957 0.0
C1322 C 0.6235 0.28338 0.9731 0.0
C1323 C 0.60148 0.29123 0.98829 0.0
H1324 H 0.83072 0.63504 0.89785 0.0
H1325 H 0.79114 0.68134 0.96383 0.0
H1326 H 0.82331 0.5987 0.92724 0.0
H1327 H 0.7842 0.6452 0.99344 0.0
H1328 H 0.75673 0.572 0.02784 0.0
H1329 H 0.76029 0.60521 0.99297 0.0
H1330 H 0.83906 0.58425 0.97519 0.0
H1331 H 0.83551 0.55106 0.00969 0.0
C1332 C 0.82037 0.63741 0.91856 0.0
C1333 C 0.81169 0.66105 0.92866 0.0
C1334 C 0.81624 0.61666 0.93545 0.0
C1335 C 0.80315 0.61909 0.96264 0.0
C1336 C 0.7941 0.64267 0.97245 0.0
C1337 C 0.79838 0.66342 0.95569 0.0
C1338 C 0.77467 0.57425 0.01614 0.0
C1339 C 0.79587 0.55898 0.02167 0.0
C1340 C 0.77676 0.59337 0.99634 0.0
C1341 C 0.80002 0.59744 0.9815 0.0
C1342 C 0.82083 0.58148 0.98609 0.0
C1343 C 0.81881 0.56253 0.00601 0.0
loop_
_geom_bond_atom_site_label_1
_geom_bond_atom_site_label_2
_geom_bond_distance
_geom_bond_site_symmetry_2
_ccdc_geom_bond_type
H0 O26 0.856 . S
H1 O29 0.854 . S
H2 C37 0.930 . S
H3 C38 0.930 . S
H4 C40 0.930 . S
H5 C41 0.930 . S
H6 C43 0.931 . S
H7 C44 0.930 . S
H8 C46 0.930 . S
H9 C47 0.929 . S
H10 C49 0.930 . S
H11 C50 0.931 . S
H12 C52 0.930 . S
H13 C53 0.929 . S
H14 C55 0.931 . S
H15 C56 0.930 . S
H16 C58 0.930 . S
H17 C59 0.932 . S
H18 C61 0.930 . S
H19 C62 0.929 . S
H20 C64 0.931 . S
H21 C65 0.930 . S
H22 C67 0.929 . S
H23 C68 0.931 . S
H24 C70 0.930 . S
H25 C71 0.929 . S
O26 H0 0.856 . S
O26 C72 1.300 . S
O27 C72 1.209 . S
O28 C73 1.199 . S
O29 H1 0.854 . S
O29 C73 1.297 . S
C30 C31 1.404 . S
C30 C35 1.397 . S
C30 C36 1.492 . S
C31 C30 1.404 . S
C31 C32 1.396 . S
C31 C42 1.492 . S
C32 C31 1.396 . S
C32 C33 1.397 . S
C32 C48 1.509 . S
C33 C32 1.397 . S
C33 C34 1.412 . S
C33 C54 1.485 . S
C34 C33 1.412 . S
C34 C35 1.388 . S
C34 C60 1.490 . S
C35 C30 1.397 . S
C35 C34 1.388 . S
C35 C66 1.519 . S
C36 C30 1.492 . S
C36 C37 1.363 . S
C36 C41 1.390 . S
C37 H2 0.930 . S
C37 C36 1.363 . S
C37 C38 1.372 . S
C38 H3 0.930 . S
C38 C37 1.372 . S
C38 C39 1.383 . S
C39 C38 1.383 . S
C39 C40 1.395 . S
C40 H4 0.930 . S
C40 C39 1.395 . S
C40 C41 1.362 . S
C41 H5 0.930 . S
C41 C36 1.390 . S
C41 C40 1.362 . S
C42 C31 1.492 . S
C42 C43 1.377 . S
C42 C47 1.397 . S
C43 H6 0.931 . S
C43 C42 1.377 . S
C43 C44 1.376 . S
C44 H7 0.930 . S
C44 C43 1.376 . S
C44 C45 1.376 . S
C45 C44 1.376 . S
C45 C46 1.378 . S
C45 C72 1.486 . S
C46 H8 0.930 . S
C46 C45 1.378 . S
C46 C47 1.376 . S
C47 H9 0.929 . S
C47 C42 1.397 . S
C47 C46 1.376 . S
C48 C32 1.509 . S
C48 C49 1.391 . S
C48 C53 1.386 . S
C49 H10 0.930 . S
C49 C48 1.391 . S
C49 C50 1.375 . S
C50 H11 0.931 . S
C50 C49 1.375 . S
C50 C51 1.375 . S
C51 C50 1.375 . S
C51 C52 1.361 . S
C52 H12 0.930 . S
C52 C51 1.361 . S
C52 C53 1.399 . S
C53 H13 0.929 . S
C53 C48 1.386 . S
C53 C52 1.399 . S
C54 C33 1.485 . S
C54 C55 1.394 . S
C54 C59 1.360 . S
C55 H14 0.931 . S
C55 C54 1.394 . S
C55 C56 1.372 . S
C56 H15 0.930 . S
C56 C55 1.372 . S
C56 C57 1.397 . S
C57 C56 1.397 . S
C57 C58 1.390 . S
C57 C73 1.476 . S
C58 H16 0.930 . S
C58 C57 1.390 . S
C58 C59 1.366 . S
C59 H17 0.932 . S
C59 C54 1.360 . S
C59 C58 1.366 . S
C60 C34 1.490 . S
C60 C61 1.380 . S
C60 C65 1.386 . S
C61 H18 0.930 . S
C61 C60 1.380 . S
C61 C62 1.381 . S
C62 H19 0.929 . S
C62 C61 1.381 . S
C62 C63 1.371 . S
C63 C62 1.371 . S
C63 C64 1.380 . S
C64 H20 0.931 . S
C64 C63 1.380 . S
C64 C65 1.387 . S
C65 H21 0.930 . S
C65 C60 1.386 . S
C65 C64 1.387 . S
C66 C35 1.519 . S
C66 C67 1.377 . S
C66 C71 1.361 . S
C67 H22 0.929 . S
C67 C66 1.377 . S
C67 C68 1.386 . S
C68 H23 0.931 . S
C68 C67 1.386 . S
C68 C69 1.363 . S
C69 C68 1.363 . S
C69 C70 1.385 . S
C70 H24 0.930 . S
C70 C69 1.385 . S
C70 C71 1.396 . S
C71 H25 0.929 . S
C71 C66 1.361 . S
C71 C70 1.396 . S
C72 O26 1.300 . S
C72 O27 1.209 . S
C72 C45 1.486 . S
C73 O28 1.199 . S
C73 O29 1.297 . S
C73 C57 1.476 . S
H74 O100 0.856 . S
H75 O103 0.854 . S
H76 C111 0.930 . S
H77 C112 0.930 . S
H78 C114 0.930 . S
H79 C115 0.930 . S
H80 C117 0.931 . S
H81 C118 0.930 . S
H82 C120 0.930 . S
H83 C121 0.929 . S
H84 C123 0.930 . S
H85 C124 0.931 . S
H86 C126 0.930 . S
H87 C127 0.929 . S
H88 C129 0.931 . S
H89 C130 0.930 . S
H90 C132 0.930 . S
H91 C133 0.932 . S
H92 C135 0.930 . S
H93 C136 0.929 . S
H94 C138 0.931 . S
H95 C139 0.930 . S
H96 C141 0.929 . S
H97 C142 0.931 . S
H98 C144 0.930 . S
H99 C145 0.929 . S
O100 H74 0.856 . S
O100 C146 1.300 . S
O101 C146 1.209 . S
O102 C147 1.199 . S
O103 H75 0.854 . S
O103 C147 1.297 . S
C104 C105 1.404 . S
C104 C109 1.397 . S
C104 C110 1.492 . S
C105 C104 1.404 . S
C105 C106 1.396 . S
C105 C116 1.492 . S
C106 C105 1.396 . S
C106 C107 1.397 . S
C106 C122 1.509 . S
C107 C106 1.397 . S
C107 C108 1.412 . S
C107 C128 1.485 . S
C108 C107 1.412 . S
C108 C109 1.388 . S
C108 C134 1.490 . S
C109 C104 1.397 . S
C109 C108 1.388 . S
C109 C140 1.519 . S
C110 C104 1.492 . S
C110 C111 1.363 . S
C110 C115 1.390 . S
C111 H76 0.930 . S
C111 C110 1.363 . S
C111 C112 1.372 . S
C112 H77 0.930 . S
C112 C111 1.372 . S
C112 C113 1.383 . S
C113 C112 1.383 . S
C113 C114 1.395 . S
C114 H78 0.930 . S
C114 C113 1.395 . S
C114 C115 1.362 . S
C115 H79 0.930 . S
C115 C110 1.390 . S
C115 C114 1.362 . S
C116 C105 1.492 . S
C116 C117 1.377 . S
C116 C121 1.397 . S
C117 H80 0.931 . S
C117 C116 1.377 . S
C117 C118 1.376 . S
C118 H81 0.930 . S
C118 C117 1.376 . S
C118 C119 1.376 . S
C119 C118 1.376 . S
C119 C120 1.378 . S
C119 C146 1.486 . S
C120 H82 0.930 . S
C120 C119 1.378 . S
C120 C121 1.376 . S
C121 H83 0.929 . S
C121 C116 1.397 . S
C121 C120 1.376 . S
C122 C106 1.509 . S
C122 C123 1.391 . S
C122 C127 1.386 . S
C123 H84 0.930 . S
C123 C122 1.391 . S
C123 C124 1.375 . S
C124 H85 0.931 . S
C124 C123 1.375 . S
C124 C125 1.375 . S
C125 C124 1.375 . S
C125 C126 1.361 . S
C126 H86 0.930 . S
C126 C125 1.361 . S
C126 C127 1.399 . S
C127 H87 0.929 . S
C127 C122 1.386 . S
C127 C126 1.399 . S
C128 C107 1.485 . S
C128 C129 1.394 . S
C128 C133 1.360 . S
C129 H88 0.931 . S
C129 C128 1.394 . S
C129 C130 1.372 . S
C130 H89 0.930 . S
C130 C129 1.372 . S
C130 C131 1.397 . S
C131 C130 1.397 . S
C131 C132 1.390 . S
C131 C147 1.476 . S
C132 H90 0.930 . S
C132 C131 1.390 . S
C132 C133 1.366 . S
C133 H91 0.932 . S
C133 C128 1.360 . S
C133 C132 1.366 . S
C134 C108 1.490 . S
C134 C135 1.380 . S
C134 C139 1.386 . S
C135 H92 0.930 . S
C135 C134 1.380 . S
C135 C136 1.381 . S
C136 H93 0.929 . S
C136 C135 1.381 . S
C136 C137 1.371 . S
C137 C136 1.371 . S
C137 C138 1.380 . S
C138 H94 0.931 . S
C138 C137 1.380 . S
C138 C139 1.387 . S
C139 H95 0.930 . S
C139 C134 1.386 . S
C139 C138 1.387 . S
C140 C109 1.519 . S
C140 C141 1.377 . S
C140 C145 1.361 . S
C141 H96 0.929 . S
C141 C140 1.377 . S
C141 C142 1.386 . S
C142 H97 0.931 . S
C142 C141 1.386 . S
C142 C143 1.363 . S
C143 C142 1.363 . S
C143 C144 1.385 . S
C144 H98 0.930 . S
C144 C143 1.385 . S
C144 C145 1.396 . S
C145 H99 0.929 . S
C145 C140 1.361 . S
C145 C144 1.396 . S
C146 O100 1.300 . S
C146 O101 1.209 . S
C146 C119 1.486 . S
C147 O102 1.199 . S
C147 O103 1.297 . S
C147 C131 1.476 . S
H148 O174 0.856 . S
H149 O177 0.854 . S
H150 C185 0.930 . S
H151 C186 0.930 . S
H152 C188 0.930 . S
H153 C189 0.930 . S
H154 C191 0.931 . S
H155 C192 0.930 . S
H156 C194 0.930 . S
H157 C195 0.929 . S
H158 C197 0.930 . S
H159 C198 0.931 . S
H160 C200 0.930 . S
H161 C201 0.929 . S
H162 C203 0.931 . S
H163 C204 0.930 . S
H164 C206 0.930 . S
H165 C207 0.932 . S
H166 C209 0.930 . S
H167 C210 0.929 . S
H168 C212 0.931 . S
H169 C213 0.930 . S
H170 C215 0.929 . S
H171 C216 0.931 . S
H172 C218 0.930 . S
H173 C219 0.929 . S
O174 H148 0.856 . S
O174 C220 1.300 . S
O175 C220 1.209 . S
O176 C221 1.199 . S
O177 H149 0.854 . S
O177 C221 1.297 . S
C178 C179 1.404 . S
C178 C183 1.397 . S
C178 C184 1.492 . S
C179 C178 1.404 . S
C179 C180 1.396 . S
C179 C190 1.492 . S
C180 C179 1.396 . S
C180 C181 1.397 . S
C180 C196 1.509 . S
C181 C180 1.397 . S
C181 C182 1.412 . S
C181 C202 1.485 . S
C182 C181 1.412 . S
C182 C183 1.388 . S
C182 C208 1.490 . S
C183 C178 1.397 . S
C183 C182 1.388 . S
C183 C214 1.519 . S
C184 C178 1.492 . S
C184 C185 1.363 . S
C184 C189 1.390 . S
C185 H150 0.930 . S
C185 C184 1.363 . S
C185 C186 1.372 . S
C186 H151 0.930 . S
C186 C185 1.372 . S
C186 C187 1.383 . S
C187 C186 1.383 . S
C187 C188 1.395 . S
C188 H152 0.930 . S
C188 C187 1.395 . S
C188 C189 1.362 . S
C189 H153 0.930 . S
C189 C184 1.390 . S
C189 C188 1.362 . S
C190 C179 1.492 . S
C190 C191 1.377 . S
C190 C195 1.397 . S
C191 H154 0.931 . S
C191 C190 1.377 . S
C191 C192 1.376 . S
C192 H155 0.930 . S
C192 C191 1.376 . S
C192 C193 1.376 . S
C193 C192 1.376 . S
C193 C194 1.378 . S
C193 C220 1.486 . S
C194 H156 0.930 . S
C194 C193 1.378 . S
C194 C195 1.376 . S
C195 H157 0.929 . S
C195 C190 1.397 . S
C195 C194 1.376 . S
C196 C180 1.509 . S
C196 C197 1.391 . S
C196 C201 1.386 . S
C197 H158 0.930 . S
C197 C196 1.391 . S
C197 C198 1.375 . S
C198 H159 0.931 . S
C198 C197 1.375 . S
C198 C199 1.375 . S
C199 C198 1.375 . S
C199 C200 1.361 . S
C200 H160 0.930 . S
C200 C199 1.361 . S
C200 C201 1.399 . S
C201 H161 0.929 . S
C201 C196 1.386 . S
C201 C200 1.399 . S
C202 C181 1.485 . S
C202 C203 1.394 . S
C202 C207 1.360 . S
C203 H162 0.931 . S
C203 C202 1.394 . S
C203 C204 1.372 . S
C204 H163 0.930 . S
C204 C203 1.372 . S
C204 C205 1.397 . S
C205 C204 1.397 . S
C205 C206 1.390 . S
C205 C221 1.476 . S
C206 H164 0.930 . S
C206 C205 1.390 . S
C206 C207 1.366 . S
C207 H165 0.932 . S
C207 C202 1.360 . S
C207 C206 1.366 . S
C208 C182 1.490 . S
C208 C209 1.380 . S
C208 C213 1.386 . S
C209 H166 0.930 . S
C209 C208 1.380 . S
C209 C210 1.381 . S
C210 H167 0.929 . S
C210 C209 1.381 . S
C210 C211 1.371 . S
C211 C210 1.371 . S
C211 C212 1.380 . S
C212 H168 0.931 . S
C212 C211 1.380 . S
C212 C213 1.387 . S
C213 H169 0.930 . S
C213 C208 1.386 . S
C213 C212 1.387 . S
C214 C183 1.519 . S
C214 C215 1.377 . S
C214 C219 1.361 . S
C215 H170 0.929 . S
C215 C214 1.377 . S
C215 C216 1.386 . S
C216 H171 0.931 . S
C216 C215 1.386 . S
C216 C217 1.363 . S
C217 C216 1.363 . S
C217 C218 1.385 . S
C218 H172 0.930 . S
C218 C217 1.385 . S
C218 C219 1.396 . S
C219 H173 0.929 . S
C219 C214 1.361 . S
C219 C218 1.396 . S
C220 O174 1.300 . S
C220 O175 1.209 . S
C220 C193 1.486 . S
C221 O176 1.199 . S
C221 O177 1.297 . S
C221 C205 1.476 . S
H222 O248 0.856 . S
H223 O251 0.854 . S
H224 C259 0.930 . S
H225 C260 0.930 . S
H226 C262 0.930 . S
H227 C263 0.930 . S
H228 C265 0.931 . S
H229 C266 0.930 . S
H230 C268 0.930 . S
H231 C269 0.929 . S
H232 C271 0.930 . S
H233 C272 0.931 . S
H234 C274 0.930 . S
H235 C275 0.929 . S
H236 C277 0.931 . S
H237 C278 0.930 . S
H238 C280 0.930 . S
H239 C281 0.932 . S
H240 C283 0.930 . S
H241 C284 0.929 . S
H242 C286 0.931 . S
H243 C287 0.930 . S
H244 C289 0.929 . S
H245 C290 0.931 . S
H246 C292 0.930 . S
H247 C293 0.929 . S
O248 H222 0.856 . S
O248 C294 1.300 . S
O249 C294 1.209 . S
O250 C295 1.199 . S
O251 H223 0.854 . S
O251 C295 1.297 . S
C252 C253 1.404 . S
C252 C257 1.397 . S
C252 C258 1.492 . S
C253 C252 1.404 . S
C253 C254 1.396 . S
C253 C264 1.492 . S
C254 C253 1.396 . S
C254 C255 1.397 . S
C254 C270 1.509 . S
C255 C254 1.397 . S
C255 C256 1.412 . S
C255 C276 1.485 . S
C256 C255 1.412 . S
C256 C257 1.388 . S
C256 C282 1.490 . S
C257 C252 1.397 . S
C257 C256 1.388 . S
C257 C288 1.519 . S
C258 C252 1.492 . S
C258 C259 1.363 . S
C258 C263 1.390 . S
C259 H224 0.930 . S
C259 C258 1.363 . S
C259 C260 1.372 . S
C260 H225 0.930 . S
C260 C259 1.372 . S
C260 C261 1.383 . S
C261 C260 1.383 . S
C261 C262 1.395 . S
C262 H226 0.930 . S
C262 C261 1.395 . S
C262 C263 1.362 . S
C263 H227 0.930 . S
C263 C258 1.390 . S
C263 C262 1.362 . S
C264 C253 1.492 . S
C264 C265 1.377 . S
C264 C269 1.397 . S
C265 H228 0.931 . S
C265 C264 1.377 . S
C265 C266 1.376 . S
C266 H229 0.930 . S
C266 C265 1.376 . S
C266 C267 1.376 1_565 S
C267 C266 1.376 1_545 S
C267 C268 1.378 . S
C267 C294 1.486 . S
C268 H230 0.930 . S
C268 C267 1.378 . S
C268 C269 1.376 1_545 S
C269 H231 0.929 . S
C269 C264 1.397 . S
C269 C268 1.376 1_565 S
C270 C254 1.509 . S
C270 C271 1.391 . S
C270 C275 1.386 . S
C271 H232 0.930 . S
C271 C270 1.391 . S
C271 C272 1.375 . S
C272 H233 0.931 . S
C272 C271 1.375 . S
C272 C273 1.375 . S
C273 C272 1.375 . S
C273 C274 1.361 . S
C274 H234 0.930 . S
C274 C273 1.361 . S
C274 C275 1.399 . S
C275 H235 0.929 . S
C275 C270 1.386 . S
C275 C274 1.399 . S
C276 C255 1.485 . S
C276 C277 1.394 . S
C276 C281 1.360 . S
C277 H236 0.931 . S
C277 C276 1.394 . S
C277 C278 1.372 . S
C278 H237 0.930 . S
C278 C277 1.372 . S
C278 C279 1.397 . S
C279 C278 1.397 . S
C279 C280 1.390 . S
C279 C295 1.476 . S
C280 H238 0.930 . S
C280 C279 1.390 . S
C280 C281 1.366 . S
C281 H239 0.932 . S
C281 C276 1.360 . S
C281 C280 1.366 . S
C282 C256 1.490 . S
C282 C283 1.380 . S
C282 C287 1.386 . S
C283 H240 0.930 . S
C283 C282 1.380 . S
C283 C284 1.381 . S
C284 H241 0.929 . S
C284 C283 1.381 . S
C284 C285 1.371 . S
C285 C284 1.371 . S
C285 C286 1.380 . S
C286 H242 0.931 . S
C286 C285 1.380 . S
C286 C287 1.387 . S
C287 H243 0.930 . S
C287 C282 1.386 . S
C287 C286 1.387 . S
C288 C257 1.519 . S
C288 C289 1.377 . S
C288 C293 1.361 . S
C289 H244 0.929 . S
C289 C288 1.377 . S
C289 C290 1.386 . S
C290 H245 0.931 . S
C290 C289 1.386 . S
C290 C291 1.363 . S
C291 C290 1.363 . S
C291 C292 1.385 . S
C292 H246 0.930 . S
C292 C291 1.385 . S
C292 C293 1.396 . S
C293 H247 0.929 . S
C293 C288 1.361 . S
C293 C292 1.396 . S
C294 O248 1.300 . S
C294 O249 1.209 . S
C294 C267 1.486 . S
C295 O250 1.199 . S
C295 O251 1.297 . S
C295 C279 1.476 . S
H296 O322 0.848 1_545 S
H297 O325 0.854 . S
H298 C333 0.930 . S
H299 C334 0.930 . S
H300 C336 0.930 . S
H301 C337 0.930 . S
H302 C339 0.931 . S
H303 C340 0.930 . S
H304 C342 0.930 . S
H305 C343 0.929 . S
H306 C345 0.930 . S
H307 C346 0.931 . S
H308 C348 0.930 . S
H309 C349 0.929 . S
H310 C351 0.931 . S
H311 C352 0.930 . S
H312 C354 0.930 . S
H313 C355 0.932 . S
H314 C357 0.930 . S
H315 C358 0.929 . S
H316 C360 0.931 . S
H317 C361 0.930 . S
H318 C363 0.929 . S
H319 C364 0.931 . S
H320 C366 0.930 . S
H321 C367 0.929 . S
O322 H296 0.848 1_565 S
O322 C368 1.301 . S
O323 C368 1.209 1_545 S
O324 C369 1.199 . S
O325 H297 0.854 . S
O325 C369 1.297 . S
C326 C327 1.404 . S
C326 C331 1.397 . S
C326 C332 1.492 . S
C327 C326 1.404 . S
C327 C328 1.396 . S
C327 C338 1.492 . S
C328 C327 1.396 . S
C328 C329 1.397 . S
C328 C344 1.509 . S
C329 C328 1.397 . S
C329 C330 1.412 . S
C329 C350 1.485 . S
C330 C329 1.412 . S
C330 C331 1.388 . S
C330 C356 1.490 . S
C331 C326 1.397 . S
C331 C330 1.388 . S
C331 C362 1.519 . S
C332 C326 1.492 . S
C332 C333 1.363 . S
C332 C337 1.390 . S
C333 H298 0.930 . S
C333 C332 1.363 . S
C333 C334 1.372 . S
C334 H299 0.930 . S
C334 C333 1.372 . S
C334 C335 1.383 . S
C335 C334 1.383 . S
C335 C336 1.395 . S
C336 H300 0.930 . S
C336 C335 1.395 . S
C336 C337 1.362 . S
C337 H301 0.930 . S
C337 C332 1.390 . S
C337 C336 1.362 . S
C338 C327 1.492 . S
C338 C339 1.377 . S
C338 C343 1.397 . S
C339 H302 0.931 . S
C339 C338 1.377 . S
C339 C340 1.376 . S
C340 H303 0.930 . S
C340 C339 1.376 . S
C340 C341 1.376 . S
C341 C340 1.376 . S
C341 C342 1.378 . S
C341 C368 1.486 . S
C342 H304 0.930 . S
C342 C341 1.378 . S
C342 C343 1.376 . S
C343 H305 0.929 . S
C343 C338 1.397 . S
C343 C342 1.376 . S
C344 C328 1.509 . S
C344 C345 1.391 . S
C344 C349 1.386 . S
C345 H306 0.930 . S
C345 C344 1.391 . S
C345 C346 1.375 . S
C346 H307 0.931 . S
C346 C345 1.375 . S
C346 C347 1.381 . S
C347 C346 1.381 . S
C347 C348 1.361 1_565 S
C348 H308 0.930 . S
C348 C347 1.361 1_545 S
C348 C349 1.399 1_545 S
C349 H309 0.929 . S
C349 C344 1.386 . S
C349 C348 1.399 1_565 S
C350 C329 1.485 . S
C350 C351 1.394 . S
C350 C355 1.360 . S
C351 H310 0.931 . S
C351 C350 1.394 . S
C351 C352 1.372 . S
C352 H311 0.930 . S
C352 C351 1.372 . S
C352 C353 1.397 . S
C353 C352 1.397 . S
C353 C354 1.390 . S
C353 C369 1.476 . S
C354 H312 0.930 . S
C354 C353 1.390 . S
C354 C355 1.366 . S
C355 H313 0.932 . S
C355 C350 1.360 . S
C355 C354 1.366 . S
C356 C330 1.490 . S
C356 C357 1.380 . S
C356 C361 1.386 . S
C357 H314 0.930 . S
C357 C356 1.380 . S
C357 C358 1.381 . S
C358 H315 0.929 . S
C358 C357 1.381 . S
C358 C359 1.371 . S
C359 C358 1.371 . S
C359 C360 1.380 . S
C360 H316 0.931 . S
C360 C359 1.380 . S
C360 C361 1.387 . S
C361 H317 0.930 . S
C361 C356 1.386 . S
C361 C360 1.387 . S
C362 C331 1.519 . S
C362 C363 1.377 . S
C362 C367 1.361 . S
C363 H318 0.929 . S
C363 C362 1.377 . S
C363 C364 1.386 . S
C364 H319 0.931 . S
C364 C363 1.386 . S
C364 C365 1.363 . S
C365 C364 1.363 . S
C365 C366 1.385 . S
C366 H320 0.930 . S
C366 C365 1.385 . S
C366 C367 1.396 . S
C367 H321 0.929 . S
C367 C362 1.361 . S
C367 C366 1.396 . S
C368 O322 1.301 . S
C368 O323 1.209 1_565 S
C368 C341 1.486 . S
C369 O324 1.199 . S
C369 O325 1.297 . S
C369 C353 1.476 . S
H370 O396 0.856 . S
H371 O399 0.854 . S
H372 C407 0.930 . S
H373 C408 0.930 . S
H374 C410 0.930 . S
H375 C411 0.930 . S
H376 C413 0.931 . S
H377 C414 0.930 . S
H378 C416 0.930 . S
H379 C417 0.929 . S
H380 C419 0.930 . S
H381 C420 0.931 . S
H382 C422 0.930 . S
H383 C423 0.929 . S
H384 C425 0.931 . S
H385 C426 0.930 . S
H386 C428 0.930 . S
H387 C429 0.932 . S
H388 C431 0.930 . S
H389 C432 0.929 . S
H390 C434 0.931 . S
H391 C435 0.930 . S
H392 C437 0.929 . S
H393 C438 0.931 . S
H394 C440 0.930 . S
H395 C441 0.929 . S
O396 H370 0.856 . S
O396 C442 1.300 . S
O397 C442 1.209 . S
O398 C443 1.199 . S
O399 H371 0.854 . S
O399 C443 1.297 . S
C400 C401 1.404 . S
C400 C405 1.397 . S
C400 C406 1.492 . S
C401 C400 1.404 . S
C401 C402 1.396 . S
C401 C412 1.492 . S
C402 C401 1.396 . S
C402 C403 1.397 . S
C402 C418 1.509 . S
C403 C402 1.397 . S
C403 C404 1.412 . S
C403 C424 1.485 . S
C404 C403 1.412 . S
C404 C405 1.388 . S
C404 C430 1.490 . S
C405 C400 1.397 . S
C405 C404 1.388 . S
C405 C436 1.519 . S
C406 C400 1.492 . S
C406 C407 1.363 . S
C406 C411 1.390 . S
C407 H372 0.930 . S
C407 C406 1.363 . S
C407 C408 1.372 . S
C408 H373 0.930 . S
C408 C407 1.372 . S
C408 C409 1.383 . S
C409 C408 1.383 . S
C409 C410 1.395 . S
C410 H374 0.930 . S
C410 C409 1.395 . S
C410 C411 1.362 . S
C411 H375 0.930 . S
C411 C406 1.390 . S
C411 C410 1.362 . S
C412 C401 1.492 . S
C412 C413 1.377 . S
C412 C417 1.397 . S
C413 H376 0.931 . S
C413 C412 1.377 . S
C413 C414 1.376 . S
C414 H377 0.930 . S
C414 C413 1.376 . S
C414 C415 1.376 . S
C415 C414 1.376 . S
C415 C416 1.378 . S
C415 C442 1.486 . S
C416 H378 0.930 . S
C416 C415 1.378 . S
C416 C417 1.376 . S
C417 H379 0.929 . S
C417 C412 1.397 . S
C417 C416 1.376 . S
C418 C402 1.509 . S
C418 C419 1.391 . S
C418 C423 1.386 . S
C419 H380 0.930 . S
C419 C418 1.391 . S
C419 C420 1.375 . S
C420 H381 0.931 . S
C420 C419 1.375 . S
C420 C421 1.375 . S
C421 C420 1.375 . S
C421 C422 1.361 . S
C422 H382 0.930 . S
C422 C421 1.361 . S
C422 C423 1.399 . S
C423 H383 0.929 . S
C423 C418 1.386 . S
C423 C422 1.399 . S
C424 C403 1.485 . S
C424 C425 1.394 . S
C424 C429 1.360 . S
C425 H384 0.931 . S
C425 C424 1.394 . S
C425 C426 1.372 . S
C426 H385 0.930 . S
C426 C425 1.372 . S
C426 C427 1.397 . S
C427 C426 1.397 . S
C427 C428 1.390 . S
C427 C443 1.476 . S
C428 H386 0.930 . S
C428 C427 1.390 . S
C428 C429 1.366 . S
C429 H387 0.932 . S
C429 C424 1.360 . S
C429 C428 1.366 . S
C430 C404 1.490 . S
C430 C431 1.380 . S
C430 C435 1.386 . S
C431 H388 0.930 . S
C431 C430 1.380 . S
C431 C432 1.381 . S
C432 H389 0.929 . S
C432 C431 1.381 . S
C432 C433 1.371 . S
C433 C432 1.371 . S
C433 C434 1.380 . S
C434 H390 0.931 . S
C434 C433 1.380 . S
C434 C435 1.387 . S
C435 H391 0.930 . S
C435 C430 1.386 . S
C435 C434 1.387 . S
C436 C405 1.519 . S
C436 C437 1.377 . S
C436 C441 1.361 . S
C437 H392 0.929 . S
C437 C436 1.377 . S
C437 C438 1.386 . S
C438 H393 0.931 . S
C438 C437 1.386 . S
C438 C439 1.363 . S
C439 C438 1.363 . S
C439 C440 1.385 . S
C440 H394 0.930 . S
C440 C439 1.385 . S
C440 C441 1.396 . S
C441 H395 0.929 . S
C441 C436 1.361 . S
C441 C440 1.396 . S
C442 O396 1.300 . S
C442 O397 1.209 . S
C442 C415 1.486 . S
C443 O398 1.199 . S
C443 O399 1.297 . S
C443 C427 1.476 . S
H444 O470 0.856 . S
H445 O473 0.854 . S
H446 C481 0.930 . S
H447 C482 0.930 . S
H448 C484 0.930 . S
H449 C485 0.930 . S
H450 C487 0.931 . S
H451 C488 0.930 . S
H452 C490 0.930 . S
H453 C491 0.929 . S
H454 C493 0.930 . S
H455 C494 0.931 . S
H456 C496 0.930 . S
H457 C497 0.929 . S
H458 C499 0.931 . S
H459 C500 0.930 . S
H460 C502 0.930 . S
H461 C503 0.932 . S
H462 C505 0.930 . S
H463 C506 0.929 . S
H464 C508 0.931 . S
H465 C509 0.930 . S
H466 C511 0.929 . S
H467 C512 0.931 . S
H468 C514 0.930 . S
H469 C515 0.929 . S
O470 H444 0.856 . S
O470 C516 1.300 . S
O471 C516 1.209 . S
O472 C517 1.199 . S
O473 H445 0.854 . S
O473 C517 1.297 . S
C474 C475 1.404 . S
C474 C479 1.397 . S
C474 C480 1.492 . S
C475 C474 1.404 . S
C475 C476 1.396 . S
C475 C486 1.492 . S
C476 C475 1.396 . S
C476 C477 1.397 . S
C476 C492 1.509 . S
C477 C476 1.397 . S
C477 C478 1.412 . S
C477 C498 1.485 . S
C478 C477 1.412 . S
C478 C479 1.388 . S
C478 C504 1.490 . S
C479 C474 1.397 . S
C479 C478 1.388 . S
C479 C510 1.519 . S
C480 C474 1.492 . S
C480 C481 1.363 . S
C480 C485 1.390 . S
C481 H446 0.930 . S
C481 C480 1.363 . S
C481 C482 1.372 . S
C482 H447 0.930 . S
C482 C481 1.372 . S
C482 C483 1.383 . S
C483 C482 1.383 . S
C483 C484 1.395 . S
C484 H448 0.930 . S
C484 C483 1.395 . S
C484 C485 1.362 . S
C485 H449 0.930 . S
C485 C480 1.390 . S
C485 C484 1.362 . S
C486 C475 1.492 . S
C486 C487 1.377 . S
C486 C491 1.397 . S
C487 H450 0.931 . S
C487 C486 1.377 . S
C487 C488 1.376 . S
C488 H451 0.930 . S
C488 C487 1.376 . S
C488 C489 1.376 . S
C489 C488 1.376 . S
C489 C490 1.378 . S
C489 C516 1.486 . S
C490 H452 0.930 . S
C490 C489 1.378 . S
C490 C491 1.376 . S
C491 H453 0.929 . S
C491 C486 1.397 . S
C491 C490 1.376 . S
C492 C476 1.509 . S
C492 C493 1.391 . S
C492 C497 1.386 . S
C493 H454 0.930 . S
C493 C492 1.391 . S
C493 C494 1.375 . S
C494 H455 0.931 . S
C494 C493 1.375 . S
C494 C495 1.375 . S
C495 C494 1.375 . S
C495 C496 1.361 . S
C496 H456 0.930 . S
C496 C495 1.361 . S
C496 C497 1.399 . S
C497 H457 0.929 . S
C497 C492 1.386 . S
C497 C496 1.399 . S
C498 C477 1.485 . S
C498 C499 1.394 . S
C498 C503 1.360 . S
C499 H458 0.931 . S
C499 C498 1.394 . S
C499 C500 1.372 . S
C500 H459 0.930 . S
C500 C499 1.372 . S
C500 C501 1.397 . S
C501 C500 1.397 . S
C501 C502 1.390 . S
C501 C517 1.476 . S
C502 H460 0.930 . S
C502 C501 1.390 . S
C502 C503 1.366 . S
C503 H461 0.932 . S
C503 C498 1.360 . S
C503 C502 1.366 . S
C504 C478 1.490 . S
C504 C505 1.380 . S
C504 C509 1.386 . S
C505 H462 0.930 . S
C505 C504 1.380 . S
C505 C506 1.381 . S
C506 H463 0.929 . S
C506 C505 1.381 . S
C506 C507 1.371 . S
C507 C506 1.371 . S
C507 C508 1.380 . S
C508 H464 0.931 . S
C508 C507 1.380 . S
C508 C509 1.387 . S
C509 H465 0.930 . S
C509 C504 1.386 . S
C509 C508 1.387 . S
C510 C479 1.519 . S
C510 C511 1.377 . S
C510 C515 1.361 . S
C511 H466 0.929 . S
C511 C510 1.377 . S
C511 C512 1.386 . S
C512 H467 0.931 . S
C512 C511 1.386 . S
C512 C513 1.363 . S
C513 C512 1.363 . S
C513 C514 1.385 . S
C514 H468 0.930 . S
C514 C513 1.385 . S
C514 C515 1.396 . S
C515 H469 0.929 . S
C515 C510 1.361 . S
C515 C514 1.396 . S
C516 O470 1.300 . S
C516 O471 1.209 . S
C516 C489 1.486 . S
C517 O472 1.199 . S
C517 O473 1.297 . S
C517 C501 1.476 . S
H518 O544 0.856 . S
H519 O547 0.854 . S
H520 C555 0.930 . S
H521 C556 0.930 . S
H522 C558 0.930 . S
H523 C559 0.930 . S
H524 C561 0.931 . S
H525 C562 0.930 . S
H526 C564 0.930 . S
H527 C565 0.929 . S
H528 C567 0.930 . S
H529 C568 0.931 . S
H530 C570 0.930 . S
H531 C571 0.929 . S
H532 C573 0.931 . S
H533 C574 0.930 . S
H534 C576 0.930 . S
H535 C577 0.932 . S
H536 C579 0.930 . S
H537 C580 0.929 . S
H538 C582 0.931 . S
H539 C583 0.930 . S
H540 C585 0.929 . S
H541 C586 0.931 . S
H542 C588 0.930 . S
H543 C589 0.929 . S
O544 H518 0.856 . S
O544 C590 1.300 . S
O545 C590 1.209 . S
O546 C591 1.199 . S
O547 H519 0.854 . S
O547 C591 1.297 . S
C548 C549 1.404 . S
C548 C553 1.397 . S
C548 C554 1.492 . S
C549 C548 1.404 . S
C549 C550 1.396 . S
C549 C560 1.492 . S
C550 C549 1.396 . S
C550 C551 1.397 . S
C550 C566 1.509 . S
C551 C550 1.397 . S
C551 C552 1.412 . S
C551 C572 1.485 . S
C552 C551 1.412 . S
C552 C553 1.388 . S
C552 C578 1.490 . S
C553 C548 1.397 . S
C553 C552 1.388 . S
C553 C584 1.519 . S
C554 C548 1.492 . S
C554 C555 1.363 . S
C554 C559 1.390 . S
C555 H520 0.930 . S
C555 C554 1.363 . S
C555 C556 1.372 . S
C556 H521 0.930 . S
C556 C555 1.372 . S
C556 C557 1.383 . S
C557 C556 1.383 . S
C557 C558 1.395 . S
C558 H522 0.930 . S
C558 C557 1.395 . S
C558 C559 1.362 . S
C559 H523 0.930 . S
C559 C554 1.390 . S
C559 C558 1.362 . S
C560 C549 1.492 . S
C560 C561 1.377 . S
C560 C565 1.397 . S
C561 H524 0.931 . S
C561 C560 1.377 . S
C561 C562 1.376 . S
C562 H525 0.930 . S
C562 C561 1.376 . S
C562 C563 1.376 . S
C563 C562 1.376 . S
C563 C564 1.378 . S
C563 C590 1.486 . S
C564 H526 0.930 . S
C564 C563 1.378 . S
C564 C565 1.376 . S
C565 H527 0.929 . S
C565 C560 1.397 . S
C565 C564 1.376 . S
C566 C550 1.509 . S
C566 C567 1.391 . S
C566 C571 1.386 . S
C567 H528 0.930 . S
C567 C566 1.391 . S
C567 C568 1.375 . S
C568 H529 0.931 . S
C568 C567 1.375 . S
C568 C569 1.375 . S
C569 C568 1.375 . S
C569 C570 1.361 . S
C570 H530 0.930 . S
C570 C569 1.361 . S
C570 C571 1.399 . S
C571 H531 0.929 . S
C571 C566 1.386 . S
C571 C570 1.399 . S
C572 C551 1.485 . S
C572 C573 1.394 . S
C572 C577 1.360 . S
C573 H532 0.931 . S
C573 C572 1.394 . S
C573 C574 1.372 . S
C574 H533 0.930 . S
C574 C573 1.372 . S
C574 C575 1.397 . S
C575 C574 1.397 . S
C575 C576 1.390 . S
C575 C591 1.476 . S
C576 H534 0.930 . S
C576 C575 1.390 . S
C576 C577 1.366 . S
C577 H535 0.932 . S
C577 C572 1.360 . S
C577 C576 1.366 . S
C578 C552 1.490 . S
C578 C579 1.380 . S
C578 C583 1.386 . S
C579 H536 0.930 . S
C579 C578 1.380 . S
C579 C580 1.381 . S
C580 H537 0.929 . S
C580 C579 1.381 . S
C580 C581 1.371 . S
C581 C580 1.371 . S
C581 C582 1.380 . S
C582 H538 0.931 . S
C582 C581 1.380 . S
C582 C583 1.387 . S
C583 H539 0.930 . S
C583 C578 1.386 . S
C583 C582 1.387 . S
C584 C553 1.519 . S
C584 C585 1.377 . S
C584 C589 1.361 . S
C585 H540 0.929 . S
C585 C584 1.377 . S
C585 C586 1.386 . S
C586 H541 0.931 . S
C586 C585 1.386 . S
C586 C587 1.363 . S
C587 C586 1.363 . S
C587 C588 1.385 . S
C588 H542 0.930 . S
C588 C587 1.385 . S
C588 C589 1.396 . S
C589 H543 0.929 . S
C589 C584 1.361 . S
C589 C588 1.396 . S
C590 O544 1.300 . S
C590 O545 1.209 . S
C590 C563 1.486 . S
C591 O546 1.199 . S
C591 O547 1.297 . S
C591 C575 1.476 . S
C592 O594 1.247 . S
C592 O596 1.258 . S
C593 O600 1.247 . S
C593 O601 1.258 . S
O594 C592 1.247 . S
O594 Zn595 2.028 . S
Zn595 O594 2.028 . S
Zn595 O599 2.035 1_655 S
Zn595 O601 2.035 1_655 S
Zn595 O602 2.028 . S
O596 C592 1.258 . S
O596 Zn597 2.035 1_655 S
Zn597 O596 2.035 1_455 S
Zn597 O598 2.028 . S
Zn597 O600 2.028 . S
Zn597 O603 2.035 1_455 S
O598 Zn597 2.028 . S
O598 C604 1.247 . S
O599 Zn595 2.035 1_455 S
O599 C604 1.258 . S
O600 C593 1.247 . S
O600 Zn597 2.028 . S
O601 C593 1.258 . S
O601 Zn595 2.035 1_455 S
O602 Zn595 2.028 . S
O602 C605 1.247 . S
O603 Zn597 2.035 1_655 S
O603 C605 1.258 . S
C604 O598 1.247 . S
C604 O599 1.258 . S
C605 O602 1.247 . S
C605 O603 1.258 . S
C606 O608 1.247 . S
C606 O610 1.258 . S
C607 O614 1.247 . S
C607 O615 1.258 . S
O608 C606 1.247 . S
O608 Zn609 2.028 . S
Zn609 O608 2.028 . S
Zn609 O613 2.035 1_545 S
Zn609 O615 2.035 1_545 S
Zn609 O616 2.028 . S
O610 C606 1.258 . S
O610 Zn611 2.035 . S
Zn611 O610 2.035 . S
Zn611 O612 2.028 1_545 S
Zn611 O614 2.028 1_545 S
Zn611 O617 2.035 . S
O612 Zn611 2.028 1_565 S
O612 C618 1.247 . S
O613 Zn609 2.035 1_565 S
O613 C618 1.258 . S
O614 C607 1.247 . S
O614 Zn611 2.028 1_565 S
O615 C607 1.258 . S
O615 Zn609 2.035 1_565 S
O616 Zn609 2.028 . S
O616 C619 1.247 . S
O617 Zn611 2.035 . S
O617 C619 1.258 . S
C618 O612 1.247 . S
C618 O613 1.258 . S
C619 O616 1.247 . S
C619 O617 1.258 . S
C620 O622 1.247 . S
C620 O624 1.258 . S
C621 O628 1.247 . S
C621 O629 1.258 . S
O622 C620 1.247 . S
O622 Zn623 2.028 . S
Zn623 O622 2.028 . S
Zn623 O627 2.035 . S
Zn623 O629 2.035 . S
Zn623 O630 2.028 . S
O624 C620 1.258 . S
O624 Zn625 2.035 . S
Zn625 O624 2.035 . S
Zn625 O626 2.028 . S
Zn625 O628 2.028 . S
Zn625 O631 2.035 . S
O626 Zn625 2.028 . S
O626 C632 1.247 . S
O627 Zn623 2.035 . S
O627 C632 1.258 . S
O628 C621 1.247 . S
O628 Zn625 2.028 . S
O629 C621 1.258 . S
O629 Zn623 2.035 . S
O630 Zn623 2.028 . S
O630 C633 1.247 . S
O631 Zn625 2.035 . S
O631 C633 1.258 . S
C632 O626 1.247 . S
C632 O627 1.258 . S
C633 O630 1.247 . S
C633 O631 1.258 . S
C634 O636 1.247 . S
C634 O638 1.258 . S
C635 O642 1.247 . S
C635 O643 1.258 . S
O636 C634 1.247 . S
O636 Zn637 2.028 . S
Zn637 O636 2.028 . S
Zn637 O641 2.035 . S
Zn637 O643 2.035 . S
Zn637 O644 2.028 . S
O638 C634 1.258 . S
O638 Zn639 2.035 . S
Zn639 O638 2.035 . S
Zn639 O640 2.028 . S
Zn639 O642 2.028 . S
Zn639 O645 2.035 . S
O640 Zn639 2.028 . S
O640 C646 1.247 . S
O641 Zn637 2.035 . S
O641 C646 1.258 . S
O642 C635 1.247 . S
O642 Zn639 2.028 . S
O643 C635 1.258 . S
O643 Zn637 2.035 . S
O644 Zn637 2.028 . S
O644 C647 1.247 . S
O645 Zn639 2.035 . S
O645 C647 1.258 . S
C646 O640 1.247 . S
C646 O641 1.258 . S
C647 O644 1.247 . S
C647 O645 1.258 . S
C648 O650 1.247 . S
C648 O652 1.258 . S
C649 O656 1.247 . S
C649 O657 1.258 . S
O650 C648 1.247 . S
O650 Zn651 2.028 . S
Zn651 O650 2.028 . S
Zn651 O655 2.035 . S
Zn651 O657 2.035 1_554 S
Zn651 O658 2.028 1_554 S
O652 C648 1.258 . S
O652 Zn653 2.035 . S
Zn653 O652 2.035 . S
Zn653 O654 2.028 . S
Zn653 O656 2.028 1_554 S
Zn653 O659 2.035 1_554 S
O654 Zn653 2.028 . S
O654 C660 1.247 . S
O655 Zn651 2.035 . S
O655 C660 1.258 . S
O656 C649 1.247 . S
O656 Zn653 2.028 1_556 S
O657 C649 1.258 . S
O657 Zn651 2.035 1_556 S
O658 Zn651 2.028 1_556 S
O658 C661 1.247 . S
O659 Zn653 2.035 1_556 S
O659 C661 1.258 . S
C660 O654 1.247 . S
C660 O655 1.258 . S
C661 O658 1.247 . S
C661 O659 1.258 . S
C662 O664 1.247 . S
C662 O666 1.258 . S
C663 O670 1.247 . S
C663 O671 1.258 . S
O664 C662 1.247 . S
O664 Zn665 2.028 . S
Zn665 O664 2.028 . S
Zn665 O669 2.035 . S
Zn665 O671 2.035 1_554 S
Zn665 O672 2.028 1_554 S
O666 C662 1.258 . S
O666 Zn667 2.035 . S
Zn667 O666 2.035 . S
Zn667 O668 2.028 . S
Zn667 O670 2.028 1_554 S
Zn667 O673 2.035 1_554 S
O668 Zn667 2.028 . S
O668 C674 1.247 . S
O669 Zn665 2.035 . S
O669 C674 1.258 . S
O670 C663 1.247 . S
O670 Zn667 2.028 1_556 S
O671 C663 1.258 . S
O671 Zn665 2.035 1_556 S
O672 Zn665 2.028 1_556 S
O672 C675 1.247 . S
O673 Zn667 2.035 1_556 S
O673 C675 1.258 . S
C674 O668 1.247 . S
C674 O669 1.258 . S
C675 O672 1.247 . S
C675 O673 1.258 . S
C676 O678 1.251 . S
C676 O680 1.261 . S
C677 O684 1.247 . S
C677 O685 1.258 . S
O678 C676 1.251 . S
O678 Zn679 2.028 . S
Zn679 O678 2.028 . S
Zn679 O683 2.035 . S
Zn679 O685 2.035 . S
Zn679 O686 2.028 . S
O680 C676 1.261 . S
O680 Zn681 2.035 . S
Zn681 O680 2.035 . S
Zn681 O682 2.028 1_554 S
Zn681 O684 2.028 . S
Zn681 O687 2.035 . S
O682 Zn681 2.028 1_556 S
O682 C688 1.247 . S
O683 Zn679 2.035 . S
O683 C688 1.258 1_554 S
O684 C677 1.247 . S
O684 Zn681 2.028 . S
O685 C677 1.258 . S
O685 Zn679 2.035 . S
O686 Zn679 2.028 . S
O686 C689 1.247 . S
O687 Zn681 2.035 . S
O687 C689 1.258 . S
C688 O682 1.247 . S
C688 O683 1.258 1_556 S
C689 O686 1.247 . S
C689 O687 1.258 . S
C690 O692 1.247 . S
C690 O694 1.258 . S
C691 O698 1.247 . S
C691 O699 1.258 . S
O692 C690 1.247 . S
O692 Zn693 2.028 . S
Zn693 O692 2.028 . S
Zn693 O697 2.035 . S
Zn693 O699 2.035 . S
Zn693 O700 2.028 . S
O694 C690 1.258 . S
O694 Zn695 2.035 . S
Zn695 O694 2.035 . S
Zn695 O696 2.028 . S
Zn695 O698 2.028 . S
Zn695 O701 2.035 . S
O696 Zn695 2.028 . S
O696 C702 1.247 . S
O697 Zn693 2.035 . S
O697 C702 1.258 . S
O698 C691 1.247 . S
O698 Zn695 2.028 . S
O699 C691 1.258 . S
O699 Zn693 2.035 . S
O700 Zn693 2.028 . S
O700 C703 1.247 . S
O701 Zn695 2.035 . S
O701 C703 1.258 . S
C702 O696 1.247 . S
C702 O697 1.258 . S
C703 O700 1.247 . S
C703 O701 1.258 . S
H704 C712 0.950 . S
H705 C717 0.950 . S
H706 C714 0.950 . S
H707 C716 0.950 . S
H708 C718 0.950 . S
H709 C720 0.950 . S
H710 C722 0.950 . S
H711 C723 0.950 . S
C712 H704 0.950 . S
C712 C713 1.386 . S
C712 C714 1.391 . S
C713 C712 1.386 . S
C713 C717 1.393 . S
C714 H706 0.950 . S
C714 C712 1.391 . S
C714 C715 1.400 . S
C715 C714 1.400 . S
C715 C716 1.398 . S
C715 C721 1.491 . S
C716 H707 0.950 . S
C716 C715 1.398 . S
C716 C717 1.391 . S
C717 H705 0.950 . S
C717 C713 1.393 . S
C717 C716 1.391 . S
C718 H708 0.950 . S
C718 C719 1.386 . S
C718 C720 1.391 . S
C719 C718 1.386 . S
C719 C723 1.393 . S
C720 H709 0.950 . S
C720 C718 1.391 . S
C720 C721 1.400 . S
C721 C715 1.491 . S
C721 C720 1.400 . S
C721 C722 1.398 . S
C722 H710 0.950 . S
C722 C721 1.398 . S
C722 C723 1.391 . S
C723 H711 0.950 . S
C723 C719 1.393 . S
C723 C722 1.391 . S
H724 C732 0.950 . S
H725 C737 0.950 . S
H726 C734 0.950 . S
H727 C736 0.950 . S
H728 C738 0.950 . S
H729 C740 0.950 . S
H730 C742 0.950 . S
H731 C743 0.950 . S
C732 H724 0.950 . S
C732 C733 1.386 . S
C732 C734 1.391 . S
C733 C732 1.386 . S
C733 C737 1.393 . S
C734 H726 0.950 . S
C734 C732 1.391 . S
C734 C735 1.400 . S
C735 C734 1.400 . S
C735 C736 1.398 . S
C735 C741 1.491 . S
C736 H727 0.950 . S
C736 C735 1.398 . S
C736 C737 1.391 . S
C737 H725 0.950 . S
C737 C733 1.393 . S
C737 C736 1.391 . S
C738 H728 0.950 . S
C738 C739 1.386 . S
C738 C740 1.391 . S
C739 C738 1.386 . S
C739 C743 1.393 . S
C740 H729 0.950 . S
C740 C738 1.391 . S
C740 C741 1.400 . S
C741 C735 1.491 . S
C741 C740 1.400 . S
C741 C742 1.398 . S
C742 H730 0.950 . S
C742 C741 1.398 . S
C742 C743 1.391 . S
C743 H731 0.950 . S
C743 C739 1.393 . S
C743 C742 1.391 . S
H744 C752 0.950 . S
H745 C757 0.950 . S
H746 C754 0.950 . S
H747 C756 0.950 . S
H748 C758 0.950 . S
H749 C760 0.950 . S
H750 C762 0.950 . S
H751 C763 0.950 . S
C752 H744 0.950 . S
C752 C753 1.386 . S
C752 C754 1.391 . S
C753 C752 1.386 . S
C753 C757 1.393 . S
C754 H746 0.950 . S
C754 C752 1.391 . S
C754 C755 1.400 . S
C755 C754 1.400 . S
C755 C756 1.398 . S
C755 C761 1.491 . S
C756 H747 0.950 . S
C756 C755 1.398 . S
C756 C757 1.391 . S
C757 H745 0.950 . S
C757 C753 1.393 . S
C757 C756 1.391 . S
C758 H748 0.950 . S
C758 C759 1.386 . S
C758 C760 1.391 . S
C759 C758 1.386 . S
C759 C763 1.393 . S
C760 H749 0.950 . S
C760 C758 1.391 . S
C760 C761 1.400 . S
C761 C755 1.491 . S
C761 C760 1.400 . S
C761 C762 1.398 . S
C762 H750 0.950 . S
C762 C761 1.398 . S
C762 C763 1.391 . S
C763 H751 0.950 . S
C763 C759 1.393 . S
C763 C762 1.391 . S
H764 C772 0.950 . S
H765 C777 0.950 . S
H766 C774 0.950 . S
H767 C776 0.950 . S
H768 C778 0.950 . S
H769 C780 0.950 . S
H770 C782 0.950 . S
H771 C783 0.950 . S
C772 H764 0.950 . S
C772 C773 1.386 1_545 S
C772 C774 1.391 . S
C773 C772 1.386 1_565 S
C773 C777 1.393 . S
C774 H766 0.950 . S
C774 C772 1.391 . S
C774 C775 1.400 . S
C775 C774 1.400 . S
C775 C776 1.398 . S
C775 C781 1.491 . S
C776 H767 0.950 . S
C776 C775 1.398 . S
C776 C777 1.391 1_545 S
C777 H765 0.950 . S
C777 C773 1.393 . S
C777 C776 1.391 1_565 S
C778 H768 0.950 . S
C778 C779 1.386 . S
C778 C780 1.391 . S
C779 C778 1.386 . S
C779 C783 1.393 . S
C780 H769 0.950 . S
C780 C778 1.391 . S
C780 C781 1.400 . S
C781 C775 1.491 . S
C781 C780 1.400 . S
C781 C782 1.398 . S
C782 H770 0.950 . S
C782 C781 1.398 . S
C782 C783 1.391 . S
C783 H771 0.950 . S
C783 C779 1.393 . S
C783 C782 1.391 . S
H784 C792 0.950 . S
H785 C797 0.950 . S
H786 C794 0.950 . S
H787 C796 0.950 . S
H788 C798 0.950 . S
H789 C800 0.950 . S
H790 C802 0.950 . S
H791 C803 0.950 . S
C792 H784 0.950 . S
C792 C793 1.386 . S
C792 C794 1.391 . S
C793 C792 1.386 . S
C793 C797 1.393 . S
C794 H786 0.950 . S
C794 C792 1.391 . S
C794 C795 1.400 . S
C795 C794 1.400 . S
C795 C796 1.398 . S
C795 C801 1.491 . S
C796 H787 0.950 . S
C796 C795 1.398 . S
C796 C797 1.391 . S
C797 H785 0.950 . S
C797 C793 1.393 . S
C797 C796 1.391 . S
C798 H788 0.950 . S
C798 C799 1.386 . S
C798 C800 1.391 . S
C799 C798 1.386 . S
C799 C803 1.393 . S
C800 H789 0.950 . S
C800 C798 1.391 . S
C800 C801 1.400 . S
C801 C795 1.491 . S
C801 C800 1.400 . S
C801 C802 1.398 . S
C802 H790 0.950 . S
C802 C801 1.398 . S
C802 C803 1.391 . S
C803 H791 0.950 . S
C803 C799 1.393 . S
C803 C802 1.391 . S
H804 C812 0.950 . S
H805 C817 0.950 . S
H806 C814 0.950 . S
H807 C816 0.950 . S
H808 C818 0.950 . S
H809 C820 0.950 . S
H810 C822 0.950 . S
H811 C823 0.950 . S
C812 H804 0.950 . S
C812 C813 1.386 . S
C812 C814 1.391 . S
C813 C812 1.386 . S
C813 C817 1.393 . S
C814 H806 0.950 . S
C814 C812 1.391 . S
C814 C815 1.400 . S
C815 C814 1.400 . S
C815 C816 1.398 . S
C815 C821 1.491 . S
C816 H807 0.950 . S
C816 C815 1.398 . S
C816 C817 1.391 . S
C817 H805 0.950 . S
C817 C813 1.393 . S
C817 C816 1.391 . S
C818 H808 0.950 . S
C818 C819 1.386 . S
C818 C820 1.391 . S
C819 C818 1.386 . S
C819 C823 1.393 . S
C820 H809 0.950 . S
C820 C818 1.391 . S
C820 C821 1.400 . S
C821 C815 1.491 . S
C821 C820 1.400 . S
C821 C822 1.398 . S
C822 H810 0.950 . S
C822 C821 1.398 . S
C822 C823 1.391 . S
C823 H811 0.950 . S
C823 C819 1.393 . S
C823 C822 1.391 . S
H824 C832 0.950 . S
H825 C837 0.950 . S
H826 C834 0.950 . S
H827 C836 0.950 . S
H828 C838 0.950 . S
H829 C840 0.950 . S
H830 C842 0.950 . S
H831 C843 0.950 . S
C832 H824 0.950 . S
C832 C833 1.386 . S
C832 C834 1.391 . S
C833 C832 1.386 . S
C833 C837 1.393 . S
C834 H826 0.950 . S
C834 C832 1.391 . S
C834 C835 1.400 . S
C835 C834 1.400 . S
C835 C836 1.398 . S
C835 C841 1.491 . S
C836 H827 0.950 . S
C836 C835 1.398 . S
C836 C837 1.391 . S
C837 H825 0.950 . S
C837 C833 1.393 . S
C837 C836 1.391 . S
C838 H828 0.950 . S
C838 C839 1.386 . S
C838 C840 1.391 . S
C839 C838 1.386 . S
C839 C843 1.393 . S
C840 H829 0.950 . S
C840 C838 1.391 . S
C840 C841 1.400 . S
C841 C835 1.491 . S
C841 C840 1.400 . S
C841 C842 1.398 . S
C842 H830 0.950 . S
C842 C841 1.398 . S
C842 C843 1.391 . S
C843 H831 0.950 . S
C843 C839 1.393 . S
C843 C842 1.391 . S
H844 C852 0.950 . S
H845 C857 0.950 . S
H846 C854 0.950 . S
H847 C856 0.950 . S
H848 C858 0.950 . S
H849 C860 0.950 . S
H850 C862 0.950 . S
H851 C863 0.950 . S
C852 H844 0.950 . S
C852 C853 1.386 . S
C852 C854 1.391 . S
C853 C852 1.386 . S
C853 C857 1.393 . S
C854 H846 0.950 . S
C854 C852 1.391 . S
C854 C855 1.400 . S
C855 C854 1.400 . S
C855 C856 1.398 . S
C855 C861 1.491 . S
C856 H847 0.950 . S
C856 C855 1.398 . S
C856 C857 1.391 . S
C857 H845 0.950 . S
C857 C853 1.393 . S
C857 C856 1.391 . S
C858 H848 0.950 . S
C858 C859 1.386 . S
C858 C860 1.391 . S
C859 C858 1.386 . S
C859 C863 1.393 . S
C860 H849 0.950 . S
C860 C858 1.391 . S
C860 C861 1.400 . S
C861 C855 1.491 . S
C861 C860 1.400 . S
C861 C862 1.398 . S
C862 H850 0.950 . S
C862 C861 1.398 . S
C862 C863 1.391 . S
C863 H851 0.950 . S
C863 C859 1.393 . S
C863 C862 1.391 . S
H864 C872 0.950 . S
H865 C877 0.950 . S
H866 C874 0.950 . S
H867 C876 0.950 . S
H868 C878 0.950 . S
H869 C880 0.950 . S
H870 C882 0.950 . S
H871 C883 0.964 . S
C872 H864 0.950 . S
C872 C873 1.386 . S
C872 C874 1.391 . S
C873 C872 1.386 . S
C873 C877 1.393 . S
C874 H866 0.950 . S
C874 C872 1.391 . S
C874 C875 1.400 . S
C875 C874 1.400 . S
C875 C876 1.398 . S
C875 C881 1.491 . S
C876 H867 0.950 . S
C876 C875 1.398 . S
C876 C877 1.391 . S
C877 H865 0.950 . S
C877 C873 1.393 . S
C877 C876 1.391 . S
C878 H868 0.950 . S
C878 C879 1.386 . S
C878 C880 1.391 . S
C879 C878 1.386 . S
C879 C883 1.393 . S
C880 H869 0.950 . S
C880 C878 1.391 . S
C880 C881 1.400 . S
C881 C875 1.491 . S
C881 C880 1.400 . S
C881 C882 1.398 . S
C882 H870 0.950 . S
C882 C881 1.398 . S
C882 C883 1.391 . S
C883 H871 0.964 . S
C883 C879 1.393 . S
C883 C882 1.391 . S
H884 C892 0.950 . S
H885 C897 0.950 . S
H886 C894 0.950 . S
H887 C896 0.950 . S
H888 C898 0.950 . S
H889 C900 0.950 . S
H890 C902 0.950 . S
H891 C903 0.950 . S
C892 H884 0.950 . S
C892 C893 1.386 . S
C892 C894 1.391 . S
C893 C892 1.386 . S
C893 C897 1.393 . S
C894 H886 0.950 . S
C894 C892 1.391 . S
C894 C895 1.400 . S
C895 C894 1.400 . S
C895 C896 1.398 . S
C895 C901 1.491 . S
C896 H887 0.950 . S
C896 C895 1.398 . S
C896 C897 1.391 . S
C897 H885 0.950 . S
C897 C893 1.393 . S
C897 C896 1.391 . S
C898 H888 0.950 . S
C898 C899 1.386 . S
C898 C900 1.391 . S
C899 C898 1.386 . S
C899 C903 1.393 . S
C900 H889 0.950 . S
C900 C898 1.391 . S
C900 C901 1.400 . S
C901 C895 1.491 . S
C901 C900 1.400 . S
C901 C902 1.398 . S
C902 H890 0.950 . S
C902 C901 1.398 . S
C902 C903 1.391 . S
C903 H891 0.950 . S
C903 C899 1.393 . S
C903 C902 1.391 . S
H904 C912 0.950 . S
H905 C917 0.950 . S
H906 C914 0.950 . S
H907 C916 0.950 . S
H908 C918 0.950 . S
H909 C920 0.950 . S
H910 C922 0.950 . S
H911 C923 0.950 . S
C912 H904 0.950 . S
C912 C913 1.386 . S
C912 C914 1.391 . S
C913 C912 1.386 . S
C913 C917 1.393 . S
C914 H906 0.950 . S
C914 C912 1.391 . S
C914 C915 1.400 . S
C915 C914 1.400 . S
C915 C916 1.398 . S
C915 C921 1.491 . S
C916 H907 0.950 . S
C916 C915 1.398 . S
C916 C917 1.391 . S
C917 H905 0.950 . S
C917 C913 1.393 . S
C917 C916 1.391 . S
C918 H908 0.950 . S
C918 C919 1.386 . S
C918 C920 1.391 . S
C919 C918 1.386 . S
C919 C923 1.393 . S
C920 H909 0.950 . S
C920 C918 1.391 . S
C920 C921 1.400 . S
C921 C915 1.491 . S
C921 C920 1.400 . S
C921 C922 1.398 . S
C922 H910 0.950 . S
C922 C921 1.398 . S
C922 C923 1.391 . S
C923 H911 0.950 . S
C923 C919 1.393 . S
C923 C922 1.391 . S
H924 C932 0.950 . S
H925 C937 0.950 . S
H926 C934 0.950 . S
H927 C936 0.950 . S
H928 C938 0.950 . S
H929 C940 0.950 . S
H930 C942 0.950 . S
H931 C943 0.950 . S
C932 H924 0.950 . S
C932 C933 1.386 . S
C932 C934 1.391 . S
C933 C932 1.386 . S
C933 C937 1.393 . S
C934 H926 0.950 . S
C934 C932 1.391 . S
C934 C935 1.400 . S
C935 C934 1.400 . S
C935 C936 1.398 . S
C935 C941 1.491 . S
C936 H927 0.950 . S
C936 C935 1.398 . S
C936 C937 1.391 . S
C937 H925 0.950 . S
C937 C933 1.393 . S
C937 C936 1.391 . S
C938 H928 0.950 . S
C938 C939 1.386 . S
C938 C940 1.391 . S
C939 C938 1.386 . S
C939 C943 1.393 . S
C940 H929 0.950 . S
C940 C938 1.391 . S
C940 C941 1.400 . S
C941 C935 1.491 . S
C941 C940 1.400 . S
C941 C942 1.398 . S
C942 H930 0.950 . S
C942 C941 1.398 . S
C942 C943 1.391 . S
C943 H931 0.950 . S
C943 C939 1.393 . S
C943 C942 1.391 . S
H944 C952 0.950 . S
H945 C957 0.950 . S
H946 C954 0.950 . S
H947 C956 0.950 . S
H948 C958 0.950 . S
H949 C960 0.950 . S
H950 C962 0.950 . S
H951 C963 0.950 . S
C952 H944 0.950 . S
C952 C953 1.386 . S
C952 C954 1.391 . S
C953 C952 1.386 . S
C953 C957 1.393 . S
C954 H946 0.950 . S
C954 C952 1.391 . S
C954 C955 1.400 . S
C955 C954 1.400 . S
C955 C956 1.398 . S
C955 C961 1.491 . S
C956 H947 0.950 . S
C956 C955 1.398 . S
C956 C957 1.391 . S
C957 H945 0.950 . S
C957 C953 1.393 . S
C957 C956 1.391 . S
C958 H948 0.950 . S
C958 C959 1.386 . S
C958 C960 1.391 . S
C959 C958 1.386 . S
C959 C963 1.393 . S
C960 H949 0.950 . S
C960 C958 1.391 . S
C960 C961 1.400 . S
C961 C955 1.491 . S
C961 C960 1.400 . S
C961 C962 1.398 . S
C962 H950 0.950 . S
C962 C961 1.398 . S
C962 C963 1.391 . S
C963 H951 0.950 . S
C963 C959 1.393 . S
C963 C962 1.391 . S
H964 C972 0.950 . S
H965 C977 0.950 . S
H966 C974 0.950 . S
H967 C976 0.950 . S
H968 C978 0.950 . S
H969 C980 0.950 . S
H970 C982 0.950 . S
H971 C983 0.950 . S
C972 H964 0.950 . S
C972 C973 1.386 . S
C972 C974 1.391 . S
C973 C972 1.386 . S
C973 C977 1.393 . S
C974 H966 0.950 . S
C974 C972 1.391 . S
C974 C975 1.400 . S
C975 C974 1.400 . S
C975 C976 1.398 . S
C975 C981 1.491 . S
C976 H967 0.950 . S
C976 C975 1.398 . S
C976 C977 1.391 . S
C977 H965 0.950 . S
C977 C973 1.393 . S
C977 C976 1.391 . S
C978 H968 0.950 . S
C978 C979 1.386 . S
C978 C980 1.391 . S
C979 C978 1.386 . S
C979 C983 1.393 . S
C980 H969 0.950 . S
C980 C978 1.391 . S
C980 C981 1.400 . S
C981 C975 1.491 . S
C981 C980 1.400 . S
C981 C982 1.398 . S
C982 H970 0.950 . S
C982 C981 1.398 . S
C982 C983 1.391 . S
C983 H971 0.950 . S
C983 C979 1.393 . S
C983 C982 1.391 . S
H984 C992 0.950 . S
H985 C997 0.950 . S
H986 C994 0.950 . S
H987 C996 0.950 . S
H988 C998 0.950 . S
H989 C1000 0.950 . S
H990 C1002 0.950 . S
H991 C1003 0.950 . S
C992 H984 0.950 . S
C992 C993 1.386 . S
C992 C994 1.391 . S
C993 C992 1.386 . S
C993 C997 1.393 . S
C994 H986 0.950 . S
C994 C992 1.391 . S
C994 C995 1.400 . S
C995 C994 1.400 . S
C995 C996 1.398 . S
C995 C1001 1.491 . S
C996 H987 0.950 . S
C996 C995 1.398 . S
C996 C997 1.391 . S
C997 H985 0.950 . S
C997 C993 1.393 . S
C997 C996 1.391 . S
C998 H988 0.950 . S
C998 C999 1.386 . S
C998 C1000 1.391 . S
C999 C998 1.386 . S
C999 C1003 1.393 . S
C1000 H989 0.950 . S
C1000 C998 1.391 . S
C1000 C1001 1.400 . S
C1001 C995 1.491 . S
C1001 C1000 1.400 . S
C1001 C1002 1.398 . S
C1002 H990 0.950 . S
C1002 C1001 1.398 . S
C1002 C1003 1.391 . S
C1003 H991 0.950 . S
C1003 C999 1.393 . S
C1003 C1002 1.391 . S
H1004 C1012 0.950 . S
H1005 C1017 0.950 . S
H1006 C1014 0.950 . S
H1007 C1016 0.950 . S
H1008 C1018 0.950 . S
H1009 C1020 0.950 . S
H1010 C1022 0.950 . S
H1011 C1023 0.950 . S
C1012 H1004 0.950 . S
C1012 C1013 1.386 . S
C1012 C1014 1.391 . S
C1013 C1012 1.386 . S
C1013 C1017 1.393 . S
C1014 H1006 0.950 . S
C1014 C1012 1.391 . S
C1014 C1015 1.400 . S
C1015 C1014 1.400 . S
C1015 C1016 1.398 . S
C1015 C1021 1.491 . S
C1016 H1007 0.950 . S
C1016 C1015 1.398 . S
C1016 C1017 1.391 . S
C1017 H1005 0.950 . S
C1017 C1013 1.393 . S
C1017 C1016 1.391 . S
C1018 H1008 0.950 . S
C1018 C1019 1.386 . S
C1018 C1020 1.391 . S
C1019 C1018 1.386 . S
C1019 C1023 1.393 . S
C1020 H1009 0.950 . S
C1020 C1018 1.391 . S
C1020 C1021 1.400 . S
C1021 C1015 1.491 . S
C1021 C1020 1.400 . S
C1021 C1022 1.398 . S
C1022 H1010 0.950 . S
C1022 C1021 1.398 . S
C1022 C1023 1.391 . S
C1023 H1011 0.950 . S
C1023 C1019 1.393 . S
C1023 C1022 1.391 . S
H1024 C1032 0.950 . S
H1025 C1037 0.950 . S
H1026 C1034 0.950 . S
H1027 C1036 0.950 . S
H1028 C1038 0.950 . S
H1029 C1040 0.950 . S
H1030 C1042 0.950 . S
H1031 C1043 0.950 . S
C1032 H1024 0.950 . S
C1032 C1033 1.386 . S
C1032 C1034 1.391 . S
C1033 C1032 1.386 . S
C1033 C1037 1.393 . S
C1034 H1026 0.950 . S
C1034 C1032 1.391 . S
C1034 C1035 1.400 . S
C1035 C1034 1.400 . S
C1035 C1036 1.398 . S
C1035 C1041 1.491 . S
C1036 H1027 0.950 . S
C1036 C1035 1.398 . S
C1036 C1037 1.391 . S
C1037 H1025 0.950 . S
C1037 C1033 1.393 . S
C1037 C1036 1.391 . S
C1038 H1028 0.950 . S
C1038 C1039 1.386 . S
C1038 C1040 1.391 . S
C1039 C1038 1.386 . S
C1039 C1043 1.393 . S
C1040 H1029 0.950 . S
C1040 C1038 1.391 . S
C1040 C1041 1.400 . S
C1041 C1035 1.491 . S
C1041 C1040 1.400 . S
C1041 C1042 1.398 . S
C1042 H1030 0.950 . S
C1042 C1041 1.398 . S
C1042 C1043 1.391 . S
C1043 H1031 0.950 . S
C1043 C1039 1.393 . S
C1043 C1042 1.391 . S
H1044 C1052 0.950 . S
H1045 C1057 0.950 . S
H1046 C1054 0.950 . S
H1047 C1056 0.950 . S
H1048 C1058 0.950 . S
H1049 C1060 0.950 . S
H1050 C1062 0.950 . S
H1051 C1063 0.950 . S
C1052 H1044 0.950 . S
C1052 C1053 1.386 . S
C1052 C1054 1.391 . S
C1053 C1052 1.386 . S
C1053 C1057 1.393 . S
C1054 H1046 0.950 . S
C1054 C1052 1.391 . S
C1054 C1055 1.400 . S
C1055 C1054 1.400 . S
C1055 C1056 1.398 . S
C1055 C1061 1.491 . S
C1056 H1047 0.950 . S
C1056 C1055 1.398 . S
C1056 C1057 1.391 . S
C1057 H1045 0.950 . S
C1057 C1053 1.393 . S
C1057 C1056 1.391 . S
C1058 H1048 0.950 . S
C1058 C1059 1.386 . S
C1058 C1060 1.391 . S
C1059 C1058 1.386 . S
C1059 C1063 1.393 . S
C1060 H1049 0.950 . S
C1060 C1058 1.391 . S
C1060 C1061 1.400 . S
C1061 C1055 1.491 . S
C1061 C1060 1.400 . S
C1061 C1062 1.398 . S
C1062 H1050 0.950 . S
C1062 C1061 1.398 . S
C1062 C1063 1.391 . S
C1063 H1051 0.950 . S
C1063 C1059 1.393 . S
C1063 C1062 1.391 . S
H1064 C1072 0.950 . S
H1065 C1077 0.950 . S
H1066 C1074 0.950 . S
H1067 C1076 0.950 . S
H1068 C1078 0.950 . S
H1069 C1080 0.950 . S
H1070 C1082 0.950 . S
H1071 C1083 0.950 . S
C1072 H1064 0.950 . S
C1072 C1073 1.386 . S
C1072 C1074 1.391 . S
C1073 C1072 1.386 . S
C1073 C1077 1.393 . S
C1074 H1066 0.950 . S
C1074 C1072 1.391 . S
C1074 C1075 1.400 . S
C1075 C1074 1.400 . S
C1075 C1076 1.398 . S
C1075 C1081 1.491 . S
C1076 H1067 0.950 . S
C1076 C1075 1.398 . S
C1076 C1077 1.391 . S
C1077 H1065 0.950 . S
C1077 C1073 1.393 . S
C1077 C1076 1.391 . S
C1078 H1068 0.950 . S
C1078 C1079 1.386 . S
C1078 C1080 1.391 . S
C1079 C1078 1.386 . S
C1079 C1083 1.393 . S
C1080 H1069 0.950 . S
C1080 C1078 1.391 . S
C1080 C1081 1.400 . S
C1081 C1075 1.491 . S
C1081 C1080 1.400 . S
C1081 C1082 1.398 . S
C1082 H1070 0.950 . S
C1082 C1081 1.398 . S
C1082 C1083 1.391 . S
C1083 H1071 0.950 . S
C1083 C1079 1.393 . S
C1083 C1082 1.391 . S
H1084 C1092 0.950 . S
H1085 C1097 0.950 . S
H1086 C1094 0.950 1_554 S
H1087 C1096 0.950 . S
H1088 C1098 0.950 . S
H1089 C1100 0.950 1_556 S
H1090 C1102 0.950 . S
H1091 C1103 0.950 . S
C1092 H1084 0.950 . S
C1092 C1093 1.386 . S
C1092 C1094 1.391 . S
C1093 C1092 1.386 . S
C1093 C1097 1.393 . S
C1094 H1086 0.950 1_556 S
C1094 C1092 1.391 . S
C1094 C1095 1.400 . S
C1095 C1094 1.400 . S
C1095 C1096 1.398 . S
C1095 C1101 1.491 1_556 S
C1096 H1087 0.950 . S
C1096 C1095 1.398 . S
C1096 C1097 1.391 . S
C1097 H1085 0.950 . S
C1097 C1093 1.393 . S
C1097 C1096 1.391 . S
C1098 H1088 0.950 . S
C1098 C1099 1.386 . S
C1098 C1100 1.391 . S
C1099 C1098 1.386 . S
C1099 C1103 1.393 . S
C1100 H1089 0.950 1_554 S
C1100 C1098 1.391 . S
C1100 C1101 1.400 . S
C1101 C1095 1.491 1_554 S
C1101 C1100 1.400 . S
C1101 C1102 1.398 . S
C1102 H1090 0.950 . S
C1102 C1101 1.398 . S
C1102 C1103 1.391 . S
C1103 H1091 0.950 . S
C1103 C1099 1.393 . S
C1103 C1102 1.391 . S
H1104 C1112 0.950 . S
H1105 C1117 0.950 . S
H1106 C1114 0.950 . S
H1107 C1116 0.950 . S
H1108 C1118 0.950 . S
H1109 C1120 0.950 . S
H1110 C1122 0.950 . S
H1111 C1123 0.950 . S
C1112 H1104 0.950 . S
C1112 C1113 1.386 . S
C1112 C1114 1.391 . S
C1113 C1112 1.386 . S
C1113 C1117 1.393 . S
C1114 H1106 0.950 . S
C1114 C1112 1.391 . S
C1114 C1115 1.400 . S
C1115 C1114 1.400 . S
C1115 C1116 1.398 . S
C1115 C1121 1.491 . S
C1116 H1107 0.950 . S
C1116 C1115 1.398 . S
C1116 C1117 1.391 . S
C1117 H1105 0.950 . S
C1117 C1113 1.393 . S
C1117 C1116 1.391 . S
C1118 H1108 0.950 . S
C1118 C1119 1.386 . S
C1118 C1120 1.391 . S
C1119 C1118 1.386 . S
C1119 C1123 1.393 . S
C1120 H1109 0.950 . S
C1120 C1118 1.391 . S
C1120 C1121 1.400 . S
C1121 C1115 1.491 . S
C1121 C1120 1.400 . S
C1121 C1122 1.398 . S
C1122 H1110 0.950 . S
C1122 C1121 1.398 . S
C1122 C1123 1.391 . S
C1123 H1111 0.950 . S
C1123 C1119 1.393 . S
C1123 C1122 1.391 . S
H1124 C1132 0.950 . S
H1125 C1137 0.950 . S
H1126 C1134 0.950 . S
H1127 C1136 0.950 . S
H1128 C1138 0.950 . S
H1129 C1140 0.950 . S
H1130 C1142 0.950 . S
H1131 C1143 0.950 . S
C1132 H1124 0.950 . S
C1132 C1133 1.386 . S
C1132 C1134 1.391 . S
C1133 C1132 1.386 . S
C1133 C1137 1.393 . S
C1134 H1126 0.950 . S
C1134 C1132 1.391 . S
C1134 C1135 1.400 . S
C1135 C1134 1.400 . S
C1135 C1136 1.398 . S
C1135 C1141 1.491 . S
C1136 H1127 0.950 . S
C1136 C1135 1.398 . S
C1136 C1137 1.391 . S
C1137 H1125 0.950 . S
C1137 C1133 1.393 . S
C1137 C1136 1.391 . S
C1138 H1128 0.950 . S
C1138 C1139 1.386 . S
C1138 C1140 1.391 . S
C1139 C1138 1.386 . S
C1139 C1143 1.393 . S
C1140 H1129 0.950 . S
C1140 C1138 1.391 . S
C1140 C1141 1.400 . S
C1141 C1135 1.491 . S
C1141 C1140 1.400 . S
C1141 C1142 1.398 . S
C1142 H1130 0.950 . S
C1142 C1141 1.398 . S
C1142 C1143 1.391 . S
C1143 H1131 0.950 . S
C1143 C1139 1.393 . S
C1143 C1142 1.391 . S
H1144 C1152 0.950 . S
H1145 C1157 0.950 . S
H1146 C1154 0.950 . S
H1147 C1156 0.950 . S
H1148 C1158 0.950 . S
H1149 C1160 0.950 . S
H1150 C1162 0.950 . S
H1151 C1163 0.950 . S
C1152 H1144 0.950 . S
C1152 C1153 1.386 . S
C1152 C1154 1.391 . S
C1153 C1152 1.386 . S
C1153 C1157 1.393 . S
C1154 H1146 0.950 . S
C1154 C1152 1.391 . S
C1154 C1155 1.400 . S
C1155 C1154 1.400 . S
C1155 C1156 1.398 . S
C1155 C1161 1.491 . S
C1156 H1147 0.950 . S
C1156 C1155 1.398 . S
C1156 C1157 1.391 . S
C1157 H1145 0.950 . S
C1157 C1153 1.393 . S
C1157 C1156 1.391 . S
C1158 H1148 0.950 . S
C1158 C1159 1.386 . S
C1158 C1160 1.391 . S
C1159 C1158 1.386 . S
C1159 C1163 1.393 . S
C1160 H1149 0.950 . S
C1160 C1158 1.391 . S
C1160 C1161 1.400 . S
C1161 C1155 1.491 . S
C1161 C1160 1.400 . S
C1161 C1162 1.398 . S
C1162 H1150 0.950 . S
C1162 C1161 1.398 . S
C1162 C1163 1.391 . S
C1163 H1151 0.950 . S
C1163 C1159 1.393 . S
C1163 C1162 1.391 . S
H1164 C1172 0.950 . S
H1165 C1177 0.950 . S
H1166 C1174 0.950 . S
H1167 C1176 0.950 . S
H1168 C1178 0.950 . S
H1169 C1180 0.950 . S
H1170 C1182 0.950 . S
H1171 C1183 0.950 . S
C1172 H1164 0.950 . S
C1172 C1173 1.386 . S
C1172 C1174 1.391 . S
C1173 C1172 1.386 . S
C1173 C1177 1.393 . S
C1174 H1166 0.950 . S
C1174 C1172 1.391 . S
C1174 C1175 1.400 . S
C1175 C1174 1.400 . S
C1175 C1176 1.398 . S
C1175 C1181 1.491 . S
C1176 H1167 0.950 . S
C1176 C1175 1.398 . S
C1176 C1177 1.391 . S
C1177 H1165 0.950 . S
C1177 C1173 1.393 . S
C1177 C1176 1.391 . S
C1178 H1168 0.950 . S
C1178 C1179 1.386 . S
C1178 C1180 1.391 . S
C1179 C1178 1.386 . S
C1179 C1183 1.393 . S
C1180 H1169 0.950 . S
C1180 C1178 1.391 . S
C1180 C1181 1.400 . S
C1181 C1175 1.491 . S
C1181 C1180 1.400 . S
C1181 C1182 1.398 . S
C1182 H1170 0.950 . S
C1182 C1181 1.398 . S
C1182 C1183 1.391 . S
C1183 H1171 0.950 . S
C1183 C1179 1.393 . S
C1183 C1182 1.391 . S
H1184 C1192 0.950 . S
H1185 C1197 0.950 . S
H1186 C1194 0.950 . S
H1187 C1196 0.950 . S
H1188 C1198 0.950 . S
H1189 C1200 0.950 . S
H1190 C1202 0.950 . S
H1191 C1203 0.950 . S
C1192 H1184 0.950 . S
C1192 C1193 1.386 . S
C1192 C1194 1.391 . S
C1193 C1192 1.386 . S
C1193 C1197 1.393 . S
C1194 H1186 0.950 . S
C1194 C1192 1.391 . S
C1194 C1195 1.400 . S
C1195 C1194 1.400 . S
C1195 C1196 1.398 . S
C1195 C1201 1.491 . S
C1196 H1187 0.950 . S
C1196 C1195 1.398 . S
C1196 C1197 1.391 . S
C1197 H1185 0.950 . S
C1197 C1193 1.393 . S
C1197 C1196 1.391 . S
C1198 H1188 0.950 . S
C1198 C1199 1.386 . S
C1198 C1200 1.391 . S
C1199 C1198 1.386 . S
C1199 C1203 1.393 . S
C1200 H1189 0.950 . S
C1200 C1198 1.391 . S
C1200 C1201 1.400 . S
C1201 C1195 1.491 . S
C1201 C1200 1.400 . S
C1201 C1202 1.398 . S
C1202 H1190 0.950 . S
C1202 C1201 1.398 . S
C1202 C1203 1.391 . S
C1203 H1191 0.950 . S
C1203 C1199 1.393 . S
C1203 C1202 1.391 . S
H1204 C1212 0.950 . S
H1205 C1217 0.950 . S
H1206 C1214 0.950 . S
H1207 C1216 0.950 . S
H1208 C1218 0.950 . S
H1209 C1220 0.950 . S
H1210 C1222 0.950 . S
H1211 C1223 0.950 . S
C1212 H1204 0.950 . S
C1212 C1213 1.386 . S
C1212 C1214 1.391 . S
C1213 C1212 1.386 . S
C1213 C1217 1.393 . S
C1214 H1206 0.950 . S
C1214 C1212 1.391 . S
C1214 C1215 1.400 . S
C1215 C1214 1.400 . S
C1215 C1216 1.398 . S
C1215 C1221 1.491 . S
C1216 H1207 0.950 . S
C1216 C1215 1.398 . S
C1216 C1217 1.391 . S
C1217 H1205 0.950 . S
C1217 C1213 1.393 . S
C1217 C1216 1.391 . S
C1218 H1208 0.950 . S
C1218 C1219 1.386 . S
C1218 C1220 1.391 . S
C1219 C1218 1.386 . S
C1219 C1223 1.393 . S
C1220 H1209 0.950 . S
C1220 C1218 1.391 . S
C1220 C1221 1.400 . S
C1221 C1215 1.491 . S
C1221 C1220 1.400 . S
C1221 C1222 1.398 . S
C1222 H1210 0.950 . S
C1222 C1221 1.398 . S
C1222 C1223 1.391 . S
C1223 H1211 0.950 . S
C1223 C1219 1.393 . S
C1223 C1222 1.391 . S
H1224 C1232 0.950 . S
H1225 C1237 0.950 . S
H1226 C1234 0.950 . S
H1227 C1236 0.950 . S
H1228 C1238 0.950 . S
H1229 C1240 0.950 . S
H1230 C1242 0.950 . S
H1231 C1243 0.950 . S
C1232 H1224 0.950 . S
C1232 C1233 1.386 . S
C1232 C1234 1.391 . S
C1233 C1232 1.386 . S
C1233 C1237 1.393 . S
C1234 H1226 0.950 . S
C1234 C1232 1.391 . S
C1234 C1235 1.400 . S
C1235 C1234 1.400 . S
C1235 C1236 1.398 . S
C1235 C1241 1.491 . S
C1236 H1227 0.950 . S
C1236 C1235 1.398 . S
C1236 C1237 1.391 . S
C1237 H1225 0.950 . S
C1237 C1233 1.393 . S
C1237 C1236 1.391 . S
C1238 H1228 0.950 . S
C1238 C1239 1.386 . S
C1238 C1240 1.391 . S
C1239 C1238 1.386 . S
C1239 C1243 1.393 . S
C1240 H1229 0.950 . S
C1240 C1238 1.391 . S
C1240 C1241 1.400 . S
C1241 C1235 1.491 . S
C1241 C1240 1.400 . S
C1241 C1242 1.398 . S
C1242 H1230 0.950 . S
C1242 C1241 1.398 . S
C1242 C1243 1.391 . S
C1243 H1231 0.950 . S
C1243 C1239 1.393 . S
C1243 C1242 1.391 . S
H1244 C1252 0.950 . S
H1245 C1257 0.950 . S
H1246 C1254 0.950 . S
H1247 C1256 0.950 . S
H1248 C1258 0.950 . S
H1249 C1260 0.950 . S
H1250 C1262 0.950 . S
H1251 C1263 0.950 . S
C1252 H1244 0.950 . S
C1252 C1253 1.386 . S
C1252 C1254 1.391 . S
C1253 C1252 1.386 . S
C1253 C1257 1.393 . S
C1254 H1246 0.950 . S
C1254 C1252 1.391 . S
C1254 C1255 1.400 . S
C1255 C1254 1.400 . S
C1255 C1256 1.398 . S
C1255 C1261 1.491 . S
C1256 H1247 0.950 . S
C1256 C1255 1.398 . S
C1256 C1257 1.391 . S
C1257 H1245 0.950 . S
C1257 C1253 1.393 . S
C1257 C1256 1.391 . S
C1258 H1248 0.950 . S
C1258 C1259 1.386 . S
C1258 C1260 1.391 . S
C1259 C1258 1.386 . S
C1259 C1263 1.393 . S
C1260 H1249 0.950 . S
C1260 C1258 1.391 . S
C1260 C1261 1.400 . S
C1261 C1255 1.491 . S
C1261 C1260 1.400 . S
C1261 C1262 1.398 . S
C1262 H1250 0.950 . S
C1262 C1261 1.398 . S
C1262 C1263 1.391 . S
C1263 H1251 0.950 . S
C1263 C1259 1.393 . S
C1263 C1262 1.391 . S
H1264 C1272 0.950 . S
H1265 C1277 0.950 . S
H1266 C1274 0.950 . S
H1267 C1276 0.950 . S
H1268 C1278 0.950 . S
H1269 C1280 0.950 . S
H1270 C1282 0.950 . S
H1271 C1283 0.950 . S
C1272 H1264 0.950 . S
C1272 C1273 1.386 . S
C1272 C1274 1.391 . S
C1273 C1272 1.386 . S
C1273 C1277 1.393 . S
C1274 H1266 0.950 . S
C1274 C1272 1.391 . S
C1274 C1275 1.400 . S
C1275 C1274 1.400 . S
C1275 C1276 1.398 . S
C1275 C1281 1.491 . S
C1276 H1267 0.950 . S
C1276 C1275 1.398 . S
C1276 C1277 1.391 . S
C1277 H1265 0.950 . S
C1277 C1273 1.393 . S
C1277 C1276 1.391 . S
C1278 H1268 0.950 . S
C1278 C1279 1.386 . S
C1278 C1280 1.391 . S
C1279 C1278 1.386 . S
C1279 C1283 1.393 . S
C1280 H1269 0.950 . S
C1280 C1278 1.391 . S
C1280 C1281 1.400 . S
C1281 C1275 1.491 . S
C1281 C1280 1.400 . S
C1281 C1282 1.398 . S
C1282 H1270 0.950 . S
C1282 C1281 1.398 . S
C1282 C1283 1.391 . S
C1283 H1271 0.950 . S
C1283 C1279 1.393 . S
C1283 C1282 1.391 . S
H1284 C1292 0.950 . S
H1285 C1297 0.950 . S
H1286 C1294 0.950 . S
H1287 C1296 0.950 . S
H1288 C1298 0.950 . S
H1289 C1300 0.950 . S
H1290 C1302 0.950 . S
H1291 C1303 0.950 . S
C1292 H1284 0.950 . S
C1292 C1293 1.386 . S
C1292 C1294 1.391 . S
C1293 C1292 1.386 . S
C1293 C1297 1.393 . S
C1294 H1286 0.950 . S
C1294 C1292 1.391 . S
C1294 C1295 1.400 . S
C1295 C1294 1.400 . S
C1295 C1296 1.398 . S
C1295 C1301 1.491 . S
C1296 H1287 0.950 . S
C1296 C1295 1.398 . S
C1296 C1297 1.391 . S
C1297 H1285 0.950 . S
C1297 C1293 1.393 . S
C1297 C1296 1.391 . S
C1298 H1288 0.950 . S
C1298 C1299 1.386 . S
C1298 C1300 1.391 . S
C1299 C1298 1.386 . S
C1299 C1303 1.393 . S
C1300 H1289 0.950 . S
C1300 C1298 1.391 . S
C1300 C1301 1.400 . S
C1301 C1295 1.491 . S
C1301 C1300 1.400 . S
C1301 C1302 1.398 . S
C1302 H1290 0.950 . S
C1302 C1301 1.398 . S
C1302 C1303 1.391 . S
C1303 H1291 0.950 . S
C1303 C1299 1.393 . S
C1303 C1302 1.391 . S
H1304 C1312 0.950 . S
H1305 C1317 0.950 . S
H1306 C1314 0.950 . S
H1307 C1316 0.950 . S
H1308 C1318 0.950 . S
H1309 C1320 0.950 . S
H1310 C1322 0.950 . S
H1311 C1323 0.950 1_554 S
C1312 H1304 0.950 . S
C1312 C1313 1.386 . S
C1312 C1314 1.391 . S
C1313 C1312 1.386 . S
C1313 C1317 1.393 . S
C1314 H1306 0.950 . S
C1314 C1312 1.391 . S
C1314 C1315 1.400 . S
C1315 C1314 1.400 . S
C1315 C1316 1.398 . S
C1315 C1321 1.491 . S
C1316 H1307 0.950 . S
C1316 C1315 1.398 . S
C1316 C1317 1.391 . S
C1317 H1305 0.950 . S
C1317 C1313 1.393 . S
C1317 C1316 1.391 . S
C1318 H1308 0.950 . S
C1318 C1319 1.386 . S
C1318 C1320 1.391 . S
C1319 C1318 1.386 . S
C1319 C1323 1.393 . S
C1320 H1309 0.950 . S
C1320 C1318 1.391 . S
C1320 C1321 1.400 . S
C1321 C1315 1.491 . S
C1321 C1320 1.400 . S
C1321 C1322 1.398 . S
C1322 H1310 0.950 . S
C1322 C1321 1.398 . S
C1322 C1323 1.391 . S
C1323 H1311 0.950 1_556 S
C1323 C1319 1.393 . S
C1323 C1322 1.391 . S
H1324 C1332 0.950 . S
H1325 C1337 0.950 . S
H1326 C1334 0.950 . S
H1327 C1336 0.950 1_554 S
H1328 C1338 0.950 . S
H1329 C1340 0.950 . S
H1330 C1342 0.950 1_556 S
H1331 C1343 0.950 . S
C1332 H1324 0.950 . S
C1332 C1333 1.386 . S
C1332 C1334 1.391 . S
C1333 C1332 1.386 . S
C1333 C1337 1.393 . S
C1334 H1326 0.950 . S
C1334 C1332 1.391 . S
C1334 C1335 1.400 . S
C1335 C1334 1.400 . S
C1335 C1336 1.398 . S
C1335 C1341 1.491 1_556 S
C1336 H1327 0.950 1_556 S
C1336 C1335 1.398 . S
C1336 C1337 1.391 . S
C1337 H1325 0.950 . S
C1337 C1333 1.393 . S
C1337 C1336 1.391 . S
C1338 H1328 0.950 . S
C1338 C1339 1.386 . S
C1338 C1340 1.391 . S
C1339 C1338 1.386 . S
C1339 C1343 1.393 . S
C1340 H1329 0.950 . S
C1340 C1338 1.391 . S
C1340 C1341 1.400 . S
C1341 C1335 1.491 1_554 S
C1341 C1340 1.400 . S
C1341 C1342 1.398 . S
C1342 H1330 0.950 1_554 S
C1342 C1341 1.398 . S
C1342 C1343 1.391 . S
C1343 H1331 0.950 . S
C1343 C1339 1.393 . S
C1343 C1342 1.391 . S
C719 C593 1.693 . S
C713 C39 1.658 . S
C739 C619 1.658 . S
C733 C125 1.654 . S
C759 C633 2.208 1_655 S
C753 C217 2.135 . S
C779 C635 1.954 . S
C773 C261 1.856 . S
C793 C359 1.470 . S
C799 C632 1.502 . S
C819 C634 1.554 . S
C813 C433 1.435 . S
C839 C592 1.528 . S
C833 C495 1.557 . S
C859 C618 1.696 . S
C853 C587 1.712 . S
C879 C620 1.735 1_655 S
C873 C557 1.737 . S
C899 C646 1.134 . S
C893 C347 1.135 1_545 S
C919 C604 1.112 . S
C913 C421 1.123 . S
C939 C606 1.653 . S
C933 C507 1.610 . S
C959 C605 1.522 . S
C953 C137 1.525 . S
C979 C607 1.595 . S
C973 C187 1.566 . S
C999 C621 2.607 . S
C993 C291 2.561 . S
C1019 C647 2.098 . S
C1013 C69 2.106 . S
C1039 C649 1.467 . S
C1033 C581 1.463 . S
C1053 C365 2.057 . S
C1059 C675 2.030 . S
C1073 C439 2.466 . S
C1079 C688 2.455 . S
C1093 C483 1.511 . S
C1099 C691 1.528 . S
C1113 C113 1.752 . S
C1119 C689 1.774 . S
C1133 C211 1.619 . S
C1139 C690 1.681 . S
C1153 C273 1.303 . S
C1159 C648 1.369 . S
C1179 C674 1.168 . S
C1173 C51 1.173 . S
C1199 C677 1.600 . S
C1193 C63 1.563 . S
C1213 C143 1.746 . S
C1219 C702 1.741 . S
C1233 C199 1.800 . S
C1239 C660 1.805 . S
C1253 C285 1.420 . S
C1259 C662 1.514 . S
C1279 C661 1.619 . S
C1273 C335 1.599 . S
C1299 C663 2.004 . S
C1293 C409 1.892 . S
C1313 C513 1.998 . S
C1319 C676 2.003 1_556 S
C1339 C703 1.630 . S
C1333 C569 1.637 . S
