# Generated by pormake.
# Topology zzz, (3,6)-cn, num edge types: 1
# Building blocks:
#     Node 0, Type 0, BuildingBlock: BETDAH_clean_linker_0, # of connection points: 3
#     Node 1, Type 0, BuildingBlock: BETDAH_clean_linker_0, # of connection points: 3
#     Node 2, Type 0, BuildingBlock: BETDAH_clean_linker_0, # of connection points: 3
#     Node 3, Type 0, BuildingBlock: BETDAH_clean_linker_0, # of connection points: 3
#     Node 4, Type 0, BuildingBlock: BETDAH_clean_linker_0, # of connection points: 3
#     Node 5, Type 0, BuildingBlock: BETDAH_clean_linker_0, # of connection points: 3
#     Node 6, Type 0, BuildingBlock: BETDAH_clean_linker_0, # of connection points: 3
#     Node 7, Type 0, BuildingBlock: BETDAH_clean_linker_0, # of connection points: 3
#     Node 8, Type 1, BuildingBlock: KUMBUR_clean_sbu_1, # of connection points: 6
#     Node 9, Type 1, BuildingBlock: KUMBUR_clean_sbu_1, # of connection points: 6
#     Node 10, Type 1, BuildingBlock: KUMBUR_clean_sbu_1, # of connection points: 6
#     Node 11, Type 1, BuildingBlock: KUMBUR_clean_sbu_1, # of connection points: 6
#     Edge 12, Type (0, 1), BuildingBlock: CIFDUS_clean_linker_0, # of connection points: 2
#     Edge 13, Type (0, 1), BuildingBlock: CIFDUS_clean_linker_0, # of connection points: 2
#     Edge 14, Type (0, 1), BuildingBlock: CIFDUS_clean_linker_0, # of connection points: 2
#     Edge 15, Type (0, 1), BuildingBlock: CIFDUS_clean_linker_0, # of connection points: 2
#     Edge 16, Type (0, 1), BuildingBlock: CIFDUS_clean_linker_0, # of connection points: 2
#     Edge 17, Type (0, 1), BuildingBlock: CIFDUS_clean_linker_0, # of connection points: 2
#     Edge 18, Type (0, 1), BuildingBlock: CIFDUS_clean_linker_0, # of connection points: 2
#     Edge 19, Type (0, 1), BuildingBlock: CIFDUS_clean_linker_0, # of connection points: 2
#     Edge 20, Type (0, 1), BuildingBlock: CIFDUS_clean_linker_0, # of connection points: 2
#     Edge 21, Type (0, 1), BuildingBlock: CIFDUS_clean_linker_0, # of connection points: 2
#     Edge 22, Type (0, 1), BuildingBlock: CIFDUS_clean_linker_0, # of connection points: 2
#     Edge 23, Type (0, 1), BuildingBlock: CIFDUS_clean_linker_0, # of connection points: 2
#     Edge 24, Type (0, 1), BuildingBlock: CIFDUS_clean_linker_0, # of connection points: 2
#     Edge 25, Type (0, 1), BuildingBlock: CIFDUS_clean_linker_0, # of connection points: 2
#     Edge 26, Type (0, 1), BuildingBlock: CIFDUS_clean_linker_0, # of connection points: 2
#     Edge 27, Type (0, 1), BuildingBlock: CIFDUS_clean_linker_0, # of connection points: 2
#     Edge 28, Type (0, 1), BuildingBlock: CIFDUS_clean_linker_0, # of connection points: 2
#     Edge 29, Type (0, 1), BuildingBlock: CIFDUS_clean_linker_0, # of connection points: 2
#     Edge 30, Type (0, 1), BuildingBlock: CIFDUS_clean_linker_0, # of connection points: 2
#     Edge 31, Type (0, 1), BuildingBlock: CIFDUS_clean_linker_0, # of connection points: 2
#     Edge 32, Type (0, 1), BuildingBlock: CIFDUS_clean_linker_0, # of connection points: 2
#     Edge 33, Type (0, 1), BuildingBlock: CIFDUS_clean_linker_0, # of connection points: 2
#     Edge 34, Type (0, 1), BuildingBlock: CIFDUS_clean_linker_0, # of connection points: 2
#     Edge 35, Type (0, 1), BuildingBlock: CIFDUS_clean_linker_0, # of connection points: 2
# Relax obj value: 0.204
# Max RMSD: 0.113
# Mean RMSD: 0.083
data_MOF--net-zzz--node1-KUMBUR_clean_sbu_1--node2-BETDAH_clean_linker_0--edge1-CIFDUS_clean_linker_0
_symmetry_space_group_name_H-M    P1
_symmetry_Int_Tables_number       1
_symmetry_cell_setting            triclinic
loop_
_symmetry_equiv_pos_as_xyz
'x, y, z'
_cell_length_a     43.442321
_cell_length_b     43.41604
_cell_length_c     13.857689
_cell_angle_alpha  89.824763
_cell_angle_beta   90.130678
_cell_angle_gamma 90.141216
loop_
_atom_site_label
_atom_site_type_symbol
_atom_site_fract_x
_atom_site_fract_y
_atom_site_fract_z
_atom_type_partial_charge
H0 H 0.845 0.56938 0.2631 0.0
H1 H 0.75009 0.57293 0.17943 0.0
H2 H 0.77452 0.55537 0.47703 0.0
C3 C 0.8209 0.56847 0.28327 0.0
C4 C 0.81304 0.562 0.3793 0.0
C5 C 0.79833 0.5725 0.21182 0.0
C6 C 0.76718 0.57036 0.23593 0.0
C7 C 0.75808 0.56425 0.33114 0.0
C8 C 0.78124 0.56042 0.40344 0.0
N9 N 0.72604 0.56103 0.35427 0.0
C10 C 0.7018 0.5622 0.28642 0.0
H11 H 0.06835 0.8498 0.28519 0.0
H12 H 0.05139 0.76465 0.13887 0.0
H13 H 0.99692 0.78902 0.38787 0.0
C14 C 0.05608 0.82801 0.28231 0.0
C15 C 0.03231 0.82226 0.34813 0.0
C16 C 0.06251 0.80756 0.20704 0.0
C17 C 0.0462 0.77991 0.19835 0.0
C18 C 0.02293 0.77232 0.26427 0.0
C19 C 1.01554 0.79405 0.33844 0.0
N20 N 1.00649 0.74359 0.25584 0.0
C21 C 1.01043 0.72123 0.1826 0.0
H22 H 0.72157 0.97932 0.29585 0.0
H23 H 0.81011 0.98649 0.16307 0.0
H24 H 0.79468 0.02549 0.44633 0.0
C25 C 0.74566 0.98559 0.30206 0.0
C26 C 0.75521 1.00212 0.38304 0.0
C27 C 0.76511 0.97983 0.22347 0.0
C28 C 0.79563 0.99021 0.22544 0.0
C29 C 0.807 1.00613 0.30648 0.0
C30 C 0.78643 1.01247 0.38495 0.0
N31 N 0.83853 1.01635 0.30982 0.0
C32 C 0.85984 1.01596 0.23272 0.0
H33 H 0.49465 0.72507 0.31952 0.0
H34 H 0.51469 0.81347 0.20113 0.0
H35 H 0.56928 0.77875 0.43866 0.0
C36 C 0.50768 0.74628 0.32493 0.0
C37 C 0.53151 0.74879 0.39339 0.0
C38 C 0.50143 0.76958 0.25753 0.0
C39 C 0.51957 0.7961 0.25519 0.0
C40 C 0.54437 0.79978 0.31888 0.0
C41 C 0.55028 0.77599 0.38878 0.0
N42 N 0.56367 0.82672 0.31133 0.0
C43 C 0.55938 0.85092 0.2437 0.0
H44 H 0.20726 0.55423 0.17534 0.0
H45 H 0.29197 0.53927 0.32779 0.0
H46 H 0.27437 0.4918 0.05929 0.0
C47 C 0.22977 0.54347 0.17869 0.0
C48 C 0.23827 0.52273 0.10656 0.0
C49 C 0.24882 0.54907 0.25843 0.0
C50 C 0.27761 0.53474 0.26544 0.0
C51 C 0.28762 0.51452 0.19291 0.0
C52 C 0.26739 0.50802 0.11422 0.0
N53 N 0.31738 0.50025 0.19842 0.0
C54 C 0.34006 0.50633 0.26893 0.0
H55 H 0.05367 0.21854 0.16985 0.0
H56 H 0.05884 0.31164 0.26928 0.0
H57 H 0.0514 0.29325 0.96374 0.0
C58 C 0.05442 0.24293 0.15287 0.0
C59 C 0.05197 0.25254 0.05623 0.0
C60 C 0.05688 0.26415 0.22874 0.0
C61 C 0.05726 0.29571 0.20942 0.0
C62 C 0.05539 0.30682 0.11471 0.0
C63 C 0.05312 0.28499 0.03735 0.0
N64 N 0.05529 0.33957 0.09739 0.0
C65 C 0.05306 0.36244 0.16995 0.0
H66 H 0.34589 0.08171 0.18099 0.0
H67 H 0.24855 0.08434 0.23448 0.0
H68 H 0.28335 0.03713 0.98491 0.0
C69 C 0.32249 0.0771 0.15785 0.0
C70 C 0.31789 0.06121 0.07055 0.0
C71 C 0.29769 0.08392 0.21989 0.0
C72 C 0.26766 0.07743 0.18951 0.0
C73 C 0.26203 0.05908 0.10888 0.0
C74 C 0.28733 0.05124 0.04802 0.0
N75 N 0.23158 0.04695 0.09321 0.0
C76 C 0.20818 0.0465 0.16433 0.0
H77 H 0.51449 0.34115 0.17353 0.0
H78 H 0.51246 0.24663 0.26692 0.0
H79 H 0.53437 0.2692 0.97168 0.0
C80 C 0.51566 0.3168 0.15729 0.0
C81 C 0.52261 0.30832 0.06218 0.0
C82 C 0.5129 0.29486 0.23223 0.0
C83 C 0.51571 0.26355 0.21039 0.0
C84 C 0.52434 0.2538 0.11825 0.0
C85 C 0.52775 0.2764 0.04341 0.0
N86 N 0.53062 0.22172 0.10157 0.0
C87 C 0.53184 0.19852 0.17374 0.0
Tb88 Tb 0.99645 0.04898 0.61464 0.0
C89 C 0.09238 0.09098 0.88706 0.0
N90 N 0.09501 0.07693 0.80003 0.0
C91 C 0.13163 0.11516 0.74925 0.0
C92 C 0.10802 0.11876 0.90668 0.0
C93 C 0.11539 0.08781 0.73273 0.0
C94 C 0.12765 0.13091 0.83612 0.0
C95 C 0.06943 0.09194 0.04596 0.0
C96 C 0.07345 0.0776 0.95562 0.0
C97 C 0.08397 0.12025 0.06472 0.0
C98 C 0.10338 0.13354 0.99545 0.0
Tb99 Tb 0.06811 0.03195 0.78116 0.0
N100 N 0.05987 0.05009 0.93499 0.0
C101 C 0.05142 0.07709 0.11544 0.0
C102 C 0.04516 0.03413 1.0067 0.0
C103 C 0.03974 0.04781 0.09627 0.0
H104 H 0.11847 0.07571 0.66543 0.0
H105 H 0.02691 0.03559 0.15095 0.0
H106 H 0.93279 0.04932 0.74885 0.0
H107 H 1.018 0.99804 0.26593 0.0
H108 H 0.03783 1.01062 0.99645 0.0
H109 H 0.0474 0.08746 0.1853 0.0
H110 H 0.02742 0.03386 0.40081 0.0
H111 H 0.14714 0.12411 0.69491 0.0
H112 H 0.08085 0.13174 0.13329 0.0
H113 H 0.11479 0.15516 1.01136 0.0
H114 H 0.8849 1.01922 0.76165 0.0
H115 H 0.14003 0.15225 0.84834 0.0
H116 H 0.97191 0.96463 0.2662 0.0
N117 N 0.94994 1.0242 0.62901 0.0
C118 C 0.94285 1.00372 0.55855 0.0
C119 C 0.90123 1.01422 0.70496 0.0
C120 C 0.91511 0.98679 0.56029 0.0
C121 C 0.92884 0.03075 0.69901 0.0
C122 C 0.89452 0.99178 0.63608 0.0
N123 N 0.98853 1.01878 0.48144 0.0
C124 C 1.00758 1.01895 0.40296 0.0
C125 C 0.95575 0.98125 0.40414 0.0
C126 C 0.96265 1.0012 0.48136 0.0
C127 C 0.97616 0.97993 0.3264 0.0
C128 C 1.00212 0.99895 0.32573 0.0
H129 H 0.87294 0.97927 0.6401 0.0
H130 H 0.8873 0.95289 0.48519 0.0
H131 H 0.9231 0.94783 0.34864 0.0
O132 O 1.00366 0.09057 0.54046 0.0
O133 O 1.01695 1.00285 0.5924 0.0
O134 O 0.04534 0.98934 0.7287 0.0
O135 O 0.95773 0.07339 0.56423 0.0
O136 O 0.04266 0.06039 0.55346 0.0
O137 O 0.0769 0.02715 0.62645 0.0
O138 O 0.09526 1.00665 0.88012 0.0
O139 O 0.0543 0.07931 0.73478 0.0
O140 O 1.00293 0.07708 0.74489 0.0
O141 O 0.1127 1.01917 0.74096 0.0
O142 O 0.02404 1.0108 0.83266 0.0
O143 O 0.98766 0.044 0.77079 0.0
C144 C 0.031 0.98222 0.64704 0.0
C145 C 0.96766 0.12583 0.59901 0.0
C146 C 0.98343 0.1783 0.63756 0.0
C147 C 0.96419 0.17804 0.71861 0.0
C148 C 0.94862 0.12568 0.68115 0.0
C149 C 0.9468 0.15176 0.74004 0.0
C150 C 0.98447 0.15234 0.57734 0.0
C151 C 0.06932 0.04556 0.55497 0.0
C152 C 0.9745 0.09745 0.54477 0.0
C153 C 0.9084 0.96624 0.48488 0.0
C154 C 0.92872 0.96345 0.40696 0.0
C155 C 0.02841 0.09243 0.76034 0.0
C156 C 0.132 0.97352 0.80556 0.0
C157 C 0.13192 0.91778 0.82417 0.0
C158 C 0.16077 0.91631 0.7792 0.0
C159 C 0.16076 0.97171 0.75978 0.0
C160 C 0.11746 0.9464 0.83651 0.0
C161 C 0.17496 0.94322 0.74627 0.0
C162 C 0.99609 1.02302 0.83445 0.0
C163 C 0.11797 1.00399 0.81969 0.0
H164 H 0.9628 0.19797 0.76523 0.0
H165 H 0.93581 0.10526 0.70145 0.0
H166 H 0.93227 0.15139 0.80337 0.0
H167 H 0.99894 0.15248 0.51362 0.0
H168 H 0.17231 0.89442 0.77028 0.0
H169 H 0.1723 0.9924 0.73479 0.0
H170 H 0.09536 0.94753 0.87252 0.0
H171 H 0.19718 0.94205 0.71134 0.0
Tb172 Tb 0.55567 0.06205 0.81608 0.0
C173 C 0.54038 0.94003 0.55683 0.0
N174 N 0.53912 0.97074 0.54025 0.0
C175 C 0.5638 0.96364 0.38721 0.0
C176 C 0.55441 0.91984 0.49094 0.0
C177 C 0.54947 0.98268 0.45503 0.0
C178 C 0.56675 0.93214 0.40594 0.0
C179 C 0.52382 0.89685 0.65423 0.0
C180 C 0.52535 0.92879 0.63657 0.0
C181 C 0.53922 0.87655 0.59207 0.0
C182 C 0.55451 0.88805 0.51039 0.0
Tb183 Tb 0.51686 1.00034 0.65705 0.0
N184 N 0.51005 0.94917 0.6923 0.0
C185 C 0.50587 0.88634 0.73141 0.0
C186 C 0.49087 0.93892 0.76361 0.0
C187 C 0.48896 0.90748 0.78551 0.0
H188 H 0.54704 1.00697 0.44055 0.0
H189 H 0.47435 0.89957 0.84372 0.0
H190 H 0.51024 0.12256 0.82168 0.0
H191 H 0.68055 0.0541 0.82938 0.0
H192 H 0.47739 0.95508 0.8049 0.0
H193 H 0.5041 0.86198 0.74774 0.0
H194 H 0.62762 0.0342 0.83981 0.0
H195 H 0.57239 0.97308 0.32027 0.0
H196 H 0.5386 0.85191 0.60472 0.0
H197 H 0.5655 0.87214 0.46138 0.0
H198 H 0.51449 0.17872 0.79574 0.0
H199 H 0.57765 0.91744 0.35307 0.0
H200 H 0.68985 0.10906 0.79206 0.0
N201 N 0.55794 0.11432 0.80027 0.0
C202 C 0.58611 0.12698 0.78675 0.0
C203 C 0.53483 0.16442 0.79238 0.0
C204 C 0.5898 0.15897 0.77307 0.0
C205 C 0.53248 0.13258 0.80665 0.0
C206 C 0.5636 0.17766 0.77435 0.0
N207 N 0.60651 0.07763 0.81104 0.0
C208 C 0.63113 0.05851 0.82696 0.0
C209 C 0.64135 0.12027 0.78518 0.0
C210 C 0.61137 0.10797 0.79282 0.0
C211 C 0.66645 0.10055 0.7977 0.0
C212 C 0.6613 0.06957 0.81944 0.0
H213 H 0.56542 0.20234 0.76407 0.0
H214 H 0.62285 0.19575 0.75016 0.0
H215 H 0.66809 0.1618 0.7607 0.0
O216 O 0.56325 0.08408 0.94901 0.0
O217 O 0.52713 0.07867 0.69655 0.0
O218 O 0.53507 0.04241 0.58074 0.0
O219 O 0.53513 0.04344 0.94091 0.0
O220 O 0.58755 0.04519 0.70234 0.0
O221 O 0.56756 0.99967 0.63889 0.0
O222 O 0.4843 0.03016 0.59628 0.0
O223 O 0.52392 0.99071 0.81135 0.0
O224 O 0.57011 1.01328 0.8382 0.0
O225 O 0.47873 0.9809 0.58526 0.0
O226 O 0.49265 1.01437 0.79043 0.0
O227 O 0.50519 0.06507 0.791 0.0
C228 C 0.53176 0.07168 0.60565 0.0
C229 C 0.5671 0.0483 0.07467 0.0
C230 C 0.61412 1.02201 0.12139 0.0
C231 C 0.60411 1.02144 0.21753 0.0
C232 C 0.55699 0.04765 0.1704 0.0
C233 C 0.5756 0.0343 0.24167 0.0
C234 C 0.59526 0.03503 0.05101 0.0
C235 C 0.5904 1.01965 0.65107 0.0
C236 C 0.549 0.0627 0.99786 0.0
C237 C 0.61951 0.17127 0.76151 0.0
C238 C 0.64526 0.15194 0.76758 0.0
C239 C 0.55109 0.98997 0.85256 0.0
C240 C 0.43454 1.01135 0.6165 0.0
C241 C 0.39043 0.04524 0.64171 0.0
C242 C 0.37839 1.02359 0.70768 0.0
C243 C 0.42155 0.98957 0.67945 0.0
C244 C 0.41875 0.03869 0.59716 0.0
C245 C 0.39353 0.9957 0.72437 0.0
C246 C 0.48508 0.04302 0.80989 0.0
C247 C 0.46556 1.00768 0.57596 0.0
H248 H 0.61865 1.01201 0.27391 0.0
H249 H 0.53514 0.0578 0.19009 0.0
H250 H 0.56823 0.03451 0.31589 0.0
H251 H 0.60281 0.03529 0.97751 0.0
H252 H 0.35699 0.02776 0.74516 0.0
H253 H 0.43321 0.96817 0.69549 0.0
H254 H 0.42852 0.05434 0.54445 0.0
H255 H 0.38372 0.97896 0.77355 0.0
Tb256 Tb 0.55881 0.52183 0.65715 0.0
C257 C 0.44936 0.50042 0.94623 0.0
N258 N 0.45174 0.51798 0.86499 0.0
C259 C 0.40038 0.50311 0.81905 0.0
C260 C 0.4228 0.4826 0.96501 0.0
C261 C 0.42707 0.52051 0.80384 0.0
C262 C 0.39836 0.48379 0.89933 0.0
C263 C 0.47199 0.48272 0.09675 0.0
C264 C 0.47348 0.50069 1.01186 0.0
C265 C 0.44592 0.46441 0.11451 0.0
C266 C 0.42134 0.46443 0.04894 0.0
Tb267 Tb 0.49695 0.5452 0.84936 0.0
N268 N 0.49838 0.51872 0.99256 0.0
C269 C 0.49668 0.48387 0.16161 0.0
C270 C 0.5214 0.52163 0.05935 0.0
C271 C 0.52142 0.50353 0.14291 0.0
H272 H 0.42724 0.53649 0.74449 0.0
H273 H 0.5403 0.50518 0.19373 0.0
H274 H 0.61933 0.55736 0.74726 0.0
H275 H 0.50063 0.53255 0.31109 0.0
H276 H 0.53988 0.53775 0.04909 0.0
H277 H 0.49653 0.47026 0.22731 0.0
H278 H 0.5159 0.5054 0.45834 0.0
H279 H 0.38118 0.505 0.76947 0.0
H280 H 0.44438 0.45046 0.1793 0.0
H281 H 0.40119 0.45049 0.06421 0.0
H282 H 0.65404 0.60017 0.70065 0.0
H283 H 0.37757 0.47046 0.91112 0.0
H284 H 0.5281 0.57996 0.26161 0.0
N285 N 0.59083 0.56208 0.62328 0.0
C286 C 0.58671 0.57608 0.53641 0.0
C287 C 0.635 0.59381 0.65423 0.0
C288 C 0.60571 0.60073 0.50712 0.0
C289 C 0.61525 0.56974 0.68077 0.0
C290 C 0.63005 0.60958 0.56747 0.0
N291 N 0.54636 0.54082 0.50668 0.0
C292 C 0.52592 0.5276 0.44394 0.0
C293 C 0.55708 0.58064 0.38895 0.0
C294 C 0.56295 0.56586 0.47791 0.0
C295 C 0.53364 0.56908 0.32993 0.0
C296 C 0.51816 0.54229 0.3574 0.0
H297 H 0.64521 0.62839 0.54753 0.0
H298 H 0.61353 0.63525 0.39649 0.0
H299 H 0.5706 0.61795 0.29369 0.0
O300 O 0.58159 0.49759 0.54761 0.0
O301 O 0.55156 0.57102 0.69713 0.0
O302 O 0.50011 0.57097 0.71313 0.0
O303 O 0.59989 0.4988 0.69146 0.0
O304 O 0.51189 0.50368 0.62615 0.0
O305 O 0.47955 0.53851 0.70041 0.0
O306 O 0.50304 0.59051 0.90111 0.0
O307 O 0.51765 0.49867 0.86786 0.0
O308 O 0.53227 0.48219 0.71631 0.0
O309 O 0.46005 0.56672 0.91938 0.0
O310 O 0.54553 0.55712 0.88744 0.0
O311 O 0.57285 0.51969 0.80817 0.0
C312 C 0.5252 0.58528 0.68556 0.0
C313 C 0.60462 0.45278 0.60791 0.0
C314 C 0.5798 0.40259 0.59176 0.0
C315 C 0.60918 0.38875 0.59901 0.0
C316 C 0.63343 0.43874 0.61538 0.0
C317 C 0.63559 0.40672 0.61253 0.0
C318 C 0.57802 0.43469 0.60109 0.0
C319 C 0.48469 0.51709 0.63489 0.0
C320 C 0.60193 0.48632 0.60691 0.0
C321 C 0.59953 0.61592 0.4196 0.0
C322 C 0.57507 0.60608 0.36113 0.0
C323 C 0.52377 0.47632 0.80618 0.0
C324 C 0.4574 0.61811 0.86925 0.0
C325 C 0.4448 0.67233 0.85287 0.0
C326 C 0.42824 0.66631 0.76831 0.0
C327 C 0.44045 0.61213 0.78459 0.0
C328 C 0.45937 0.64825 0.90303 0.0
C329 C 0.42593 0.63611 0.73466 0.0
C330 C 0.57069 0.5403 0.87686 0.0
C331 C 0.47382 0.59322 0.92021 0.0
H332 H 0.61237 0.36426 0.58987 0.0
H333 H 0.65414 0.4525 0.62251 0.0
H334 H 0.65793 0.39581 0.61721 0.0
H335 H 0.55602 0.4461 0.59923 0.0
H336 H 0.41711 0.68481 0.72903 0.0
H337 H 0.43882 0.58906 0.75605 0.0
H338 H 0.47249 0.6531 0.968 0.0
H339 H 0.41317 0.63129 0.66922 0.0
Tb340 Tb 0.04134 0.57069 0.62198 0.0
C341 C 0.04712 0.43386 0.82572 0.0
N342 N 0.02759 0.44763 0.7627 0.0
C343 C 1.02217 0.39981 0.67708 0.0
C344 C 0.05589 0.4028 0.81538 0.0
C345 C 1.01394 0.4306 0.69152 0.0
C346 C 0.04362 0.38595 0.73845 0.0
C347 C 0.07511 0.43687 0.97636 0.0
C348 C 0.05633 0.45041 0.90494 0.0
C349 C 0.08536 0.40646 0.96434 0.0
C350 C 0.07566 0.38938 0.88402 0.0
Tb351 Tb 1.01809 0.49916 0.78694 0.0
N352 N 0.04528 0.47935 0.91457 0.0
C353 C 0.08222 0.45403 0.05871 0.0
C354 C 0.05035 0.49538 0.99789 0.0
C355 C 0.0693 0.48317 0.07039 0.0
H356 H 0.99681 0.4407 0.64491 0.0
H357 H 0.07391 0.49612 0.13539 0.0
H358 H 0.97546 0.60547 0.56164 0.0
H359 H 0.13873 0.54626 0.39188 0.0
H360 H 0.04011 0.5177 1.0084 0.0
H361 H 0.09699 0.44474 0.11462 0.0
H362 H 0.11274 0.55792 0.54611 0.0
H363 H 1.01179 0.38676 0.61904 0.0
H364 H 0.09998 0.39567 0.01808 0.0
H365 H 0.08287 0.36562 0.87706 0.0
H366 H 0.94219 0.6092 0.41742 0.0
H367 H 0.04974 0.36202 0.72778 0.0
H368 H 0.10819 0.54218 0.24128 0.0
N369 N 1.01014 0.57931 0.49078 0.0
C370 C 1.02113 0.56971 0.40458 0.0
C371 C 0.9642 0.59767 0.41293 0.0
C372 C 1.00342 0.57222 0.31954 0.0
C373 C 0.983 0.59521 0.49472 0.0
C374 C 0.97416 0.58549 0.32526 0.0
N375 N 0.06813 0.56093 0.48296 0.0
C376 C 0.09941 0.55705 0.4802 0.0
C377 C 0.06511 0.5534 0.31106 0.0
C378 C 0.05142 0.56047 0.4003 0.0
C379 C 0.09679 0.54762 0.30854 0.0
C380 C 0.11412 0.55006 0.39327 0.0
H381 H 0.95979 0.58781 0.26167 0.0
H382 H 1.00283 0.56437 0.16509 0.0
H383 H 0.05705 0.54817 0.1579 0.0
O384 O 0.04644 0.61595 0.56834 0.0
O385 O 0.9922 0.56044 0.65364 0.0
O386 O 0.99164 0.50819 0.65374 0.0
O387 O 0.0648 0.60348 0.70627 0.0
O388 O 0.05999 0.52424 0.58154 0.0
O389 O 0.0232 0.48992 0.63161 0.0
O390 O 0.97909 0.52141 0.84308 0.0
O391 O 0.06746 0.51033 0.80284 0.0
O392 O 0.08047 0.55327 0.70797 0.0
O393 O 0.98479 0.47222 0.85788 0.0
O394 O 0.03069 0.54375 0.8562 0.0
O395 O 1.01095 0.57675 0.74626 0.0
C396 C 0.97801 0.53443 0.63391 0.0
C397 C 0.08808 0.64548 0.62764 0.0
C398 C 0.13978 0.65372 0.5653 0.0
C399 C 0.13842 0.68466 0.59422 0.0
C400 C 0.08706 0.67631 0.65723 0.0
C401 C 0.11221 0.69578 0.6408 0.0
C402 C 0.11457 0.63425 0.58304 0.0
C403 C 0.04534 0.49769 0.57181 0.0
C404 C 0.06128 0.62552 0.64393 0.0
C405 C 1.01616 0.56301 0.23116 0.0
C406 C 0.04702 0.55372 0.22697 0.0
C407 C 0.08729 0.53124 0.77105 0.0
C408 C 0.93573 0.49086 0.81209 0.0
C409 C 0.88287 0.50792 0.78669 0.0
C410 C 0.88032 0.48816 0.70705 0.0
C411 C 0.93267 0.47095 0.7328 0.0
C412 C 0.91077 0.50913 0.83858 0.0
C413 C 0.90516 0.46974 0.6805 0.0
C414 C 1.02113 0.57168 0.8339 0.0
C415 C 0.96558 0.49521 0.86129 0.0
H416 H 0.15756 0.70011 0.58081 0.0
H417 H 0.06679 0.68533 0.69261 0.0
H418 H 0.11127 0.7196 0.66343 0.0
H419 H 0.11526 0.61063 0.5598 0.0
H420 H 0.85912 0.48682 0.666 0.0
H421 H 0.95162 0.45675 0.71007 0.0
H422 H 0.91308 0.52396 0.90103 0.0
H423 H 0.90316 0.45457 0.61896 0.0
H424 H 0.15194 0.07535 0.18143 0.0
H425 H 0.21288 1.01173 0.32472 0.0
H426 H 0.17583 1.00562 0.45649 0.0
H427 H 0.12596 1.01794 0.53191 0.0
H428 H 0.0648 0.08228 0.39173 0.0
H429 H 0.10188 0.08862 0.26009 0.0
C430 C 0.15708 0.06018 0.24163 0.0
C431 C 0.1853 0.04389 0.24274 0.0
C432 C 0.13546 0.05684 0.31827 0.0
C433 C 0.19146 1.02444 0.32158 0.0
C434 C 0.17019 1.02094 0.39719 0.0
C435 C 0.12049 0.03335 0.47266 0.0
C436 C 0.0921 0.04945 0.47292 0.0
C437 C 0.14205 0.03693 0.39647 0.0
C438 C 0.08607 0.06936 0.39455 0.0
C439 C 0.10737 0.07299 0.31861 0.0
H440 H 0.50432 0.19193 0.35073 0.0
H441 H 0.56593 0.1468 0.15399 0.0
H442 H 0.57155 0.10361 0.26706 0.0
H443 H 0.55816 0.07746 0.42299 0.0
H444 H 0.49738 0.12382 0.62008 0.0
H445 H 0.49189 0.16655 0.50697 0.0
C446 C 0.51883 0.17253 0.33238 0.0
C447 C 0.5346 0.17272 0.2433 0.0
C448 C 0.52178 0.14739 0.39802 0.0
C449 C 0.55341 0.14735 0.2215 0.0
C450 C 0.55648 0.12243 0.28621 0.0
C451 C 0.54344 0.09672 0.44062 0.0
C452 C 0.52809 0.09691 0.53075 0.0
C453 C 0.54061 0.12192 0.3747 0.0
C454 C 0.50966 0.12269 0.55224 0.0
C455 C 0.5064 0.14734 0.48708 0.0
H456 H 0.38841 0.46927 0.31784 0.0
H457 H 0.3474 0.55735 0.37797 0.0
H458 H 0.38829 0.56859 0.49507 0.0
H459 H 0.43607 0.55373 0.58015 0.0
H460 H 0.47671 0.46505 0.52434 0.0
H461 H 0.43632 0.45402 0.40553 0.0
C462 C 0.38842 0.49086 0.35697 0.0
C463 C 0.36469 0.51242 0.33948 0.0
C464 C 0.41216 0.49715 0.42491 0.0
C465 C 0.3652 0.54034 0.39026 0.0
C466 C 0.38867 0.54678 0.45727 0.0
C467 C 0.43594 0.53175 0.54321 0.0
C468 C 0.45957 0.51017 0.56265 0.0
C469 C 0.41227 0.52537 0.47549 0.0
C470 C 0.45906 0.48217 0.51156 0.0
C471 C 0.43581 0.4758 0.44347 0.0
H472 H 0.09388 0.40558 0.24269 0.0
H473 H 1.00024 0.3735 0.26427 0.0
H474 H 0.98941 0.41287 0.38564 0.0
H475 H 1.00606 0.45656 0.48598 0.0
H476 H 0.09968 0.48895 0.47015 0.0
H477 H 0.11055 0.45077 0.34415 0.0
C478 C 0.07109 0.40736 0.27372 0.0
C479 C 0.04783 0.38644 0.24379 0.0
C480 C 0.06489 0.43054 0.34397 0.0
C481 C 1.01854 0.38909 0.28553 0.0
C482 C 1.01232 0.41174 0.35503 0.0
C483 C 0.02904 0.45515 0.45625 0.0
C484 C 0.05206 0.47581 0.48942 0.0
C485 C 0.03526 0.43258 0.38509 0.0
C486 C 0.08132 0.47388 0.44638 0.0
C487 C 0.08763 0.45168 0.37465 0.0
H488 H 0.90757 0.97745 0.17891 0.0
H489 H 0.86527 0.06493 0.11574 0.0
H490 H 0.90418 0.07533 0.99245 0.0
H491 H 0.95037 0.06031 0.9029 0.0
H492 H 0.99221 0.97197 0.9557 0.0
H493 H 0.95434 0.96166 0.08364 0.0
C494 C 0.90679 0.99866 0.13753 0.0
C495 C 0.88315 1.02033 0.15631 0.0
C496 C 0.92949 1.00452 0.06531 0.0
C497 C 0.88286 0.04779 0.1026 0.0
C498 C 0.90525 0.05381 0.03209 0.0
C499 C 0.95104 0.03844 0.94072 0.0
C500 C 0.9741 1.01672 0.91709 0.0
C501 C 0.92865 0.03239 1.01259 0.0
C502 C 0.97492 0.98918 0.97107 0.0
C503 C 0.95304 0.98321 0.04428 0.0
H504 H 0.60139 0.88735 0.14775 0.0
H505 H 0.5041 0.87177 0.18321 0.0
H506 H 0.49291 0.9131 0.06762 0.0
H507 H 0.51047 0.954 0.9559 0.0
H508 H 0.60762 0.97027 0.9189 0.0
H509 H 0.61902 0.92863 0.03373 0.0
C510 C 0.57775 0.89302 0.13004 0.0
C511 C 0.55357 0.8762 0.17422 0.0
C512 C 0.57142 0.91717 0.06291 0.0
C513 C 0.52313 0.88409 0.15046 0.0
C514 C 0.51672 0.90785 0.08422 0.0
C515 C 0.53421 0.94842 0.97222 0.0
C516 C 0.55811 0.96532 0.92681 0.0
C517 C 0.54062 0.92457 0.0397 0.0
C518 C 0.58865 0.95793 0.95192 0.0
C519 C 0.5952 0.93406 0.01813 0.0
H520 H 0.69091 0.52342 0.13746 0.0
H521 H 0.65422 0.60274 0.28214 0.0
H522 H 0.6104 0.60384 0.16942 0.0
H523 H 0.58176 0.58153 0.02881 0.0
H524 H 0.61989 0.50167 0.88768 0.0
H525 H 0.663 0.50162 0.99849 0.0
C526 C 0.67328 0.54094 0.14426 0.0
C527 C 0.67586 0.56297 0.2181 0.0
C528 C 0.64801 0.5413 0.07941 0.0
C529 C 0.6528 0.5855 0.22594 0.0
C530 C 0.62765 0.58607 0.1615 0.0
C531 C 0.59945 0.56411 0.02228 0.0
C532 C 0.597 0.54166 0.94857 0.0
C533 C 0.62483 0.564 0.08772 0.0
C534 C 0.62059 0.51942 0.94235 0.0
C535 C 0.64555 0.51923 1.00633 0.0
H536 H 0.04035 0.66553 0.18606 0.0
H537 H 0.98139 0.72212 1.00968 0.0
H538 H 0.97944 0.68173 0.88634 0.0
H539 H 0.99364 0.62937 0.82851 0.0
H540 H 0.05338 0.5732 1.00387 0.0
H541 H 0.05605 0.6139 0.12541 0.0
C542 C 0.02725 0.66909 0.12028 0.0
C543 C 1.01111 0.69709 0.10734 0.0
C544 C 0.02618 0.6455 0.04903 0.0
C545 C 0.99414 0.70103 0.02169 0.0
C546 C 0.99296 0.6778 0.95098 0.0
C547 C 1.00721 0.62592 0.89338 0.0
C548 C 0.02278 0.59755 0.90705 0.0
C549 C 1.00873 0.64976 0.96378 0.0
C550 C 0.04045 0.59411 0.99174 0.0
C551 C 0.04215 0.61761 0.06143 0.0
H552 H 1.01713 0.28258 0.36538 0.0
H553 H 0.09293 0.22078 0.3154 0.0
H554 H 0.08194 0.19397 0.46705 0.0
H555 H 0.04331 0.18072 0.58794 0.0
H556 H 0.96257 0.23719 0.61935 0.0
H557 H 0.98384 0.27484 0.50612 0.0
C558 C 0.03184 0.26392 0.38963 0.0
C559 C 0.05541 0.25316 0.32935 0.0
C560 C 0.02438 0.24776 0.47393 0.0
C561 C 0.07435 0.22896 0.36055 0.0
C562 C 0.06808 0.21372 0.44702 0.0
C563 C 0.03096 0.20186 0.57223 0.0
C564 C 1.00108 0.20584 0.60857 0.0
C565 C 0.04202 0.22176 0.50082 0.0
C566 C 0.98547 0.23353 0.59087 0.0
C567 C 0.9974 0.25476 0.52485 0.0
H568 H 0.3436 0.11854 0.30539 0.0
H569 H 0.26396 0.06233 0.37274 0.0
H570 H 0.28215 0.05508 0.53444 0.0
H571 H 0.32776 0.04858 0.63055 0.0
H572 H 0.40927 0.10209 0.56876 0.0
H573 H 0.38306 0.12642 0.43278 0.0
C574 C 0.32986 0.10537 0.35617 0.0
C575 C 0.30317 0.08999 0.32431 0.0
C576 C 0.34119 0.09976 0.44958 0.0
C577 C 0.28486 0.07431 0.39293 0.0
C578 C 0.2954 0.06972 0.48639 0.0
C579 C 0.33969 0.06653 0.59104 0.0
C580 C 0.37142 0.07121 0.60395 0.0
C581 C 0.32476 0.0799 0.51207 0.0
C582 C 0.38547 0.09606 0.55495 0.0
C583 C 0.3705 0.11008 0.47707 0.0
H584 H 0.48628 0.34637 0.30895 0.0
H585 H 0.53934 0.26622 0.3903 0.0
H586 H 0.55567 0.29144 0.53668 0.0
H587 H 0.56821 0.34045 0.61225 0.0
H588 H 0.52711 0.42372 0.49689 0.0
H589 H 0.49281 0.39368 0.40003 0.0
C590 C 0.50126 0.33427 0.3589 0.0
C591 C 0.51279 0.30509 0.33485 0.0
C592 C 0.51353 0.35005 0.43801 0.0
C593 C 0.53033 0.28896 0.40437 0.0
C594 C 0.54021 0.30359 0.48834 0.0
C595 C 0.55198 0.35225 0.56572 0.0
C596 C 0.55226 0.3846 0.55894 0.0
C597 C 0.53426 0.33497 0.50089 0.0
C598 C 0.52878 0.39902 0.50415 0.0
C599 C 0.50898 0.38174 0.4466 0.0
H600 H 0.23153 0.6086 0.24848 0.0
H601 H 0.23798 0.53129 0.44295 0.0
H602 H 0.20688 0.55864 0.56236 0.0
H603 H 0.17233 0.60174 0.60089 0.0
H604 H 0.16583 0.67896 0.40552 0.0
H605 H 0.20299 0.65482 0.29738 0.0
C606 C 0.22674 0.59822 0.31819 0.0
C607 C 0.23678 0.56813 0.3375 0.0
C608 C 0.20867 0.61393 0.38556 0.0
C609 C 0.23057 0.5546 0.42747 0.0
C610 C 0.2126 0.5701 0.49512 0.0
C611 C 0.17955 0.61344 0.5354 0.0
C612 C 0.16628 0.64186 0.51034 0.0
C613 C 0.20068 0.59933 0.47345 0.0
C614 C 0.1759 0.65709 0.42613 0.0
C615 C 0.19693 0.64322 0.36407 0.0
H616 H 0.04562 0.82315 0.02823 0.0
H617 H 0.1243 0.8172 0.21675 0.0
H618 H 0.15523 0.84688 0.10132 0.0
H619 H 0.15668 0.88182 0.96162 0.0
H620 H 0.07561 0.89332 0.78573 0.0
H621 H 0.04866 0.85389 0.87984 0.0
C622 C 0.06984 0.82755 0.04195 0.0
C623 C 0.08299 0.81802 0.12947 0.0
C624 C 0.08674 0.84599 0.97812 0.0
C625 C 0.11407 0.82425 0.14885 0.0
C626 C 0.13155 0.84137 0.08342 0.0
C627 C 0.13342 0.87492 0.94257 0.0
C628 C 0.118 0.89012 0.8673 0.0
C629 C 0.11772 0.85345 0.99993 0.0
C630 C 0.08775 0.88169 0.84353 0.0
C631 C 0.07237 0.85932 0.89751 0.0
H632 H 0.75486 1.01362 0.06403 0.0
H633 H 0.73878 0.92347 0.1811 0.0
H634 H 0.68376 0.92816 0.14852 0.0
H635 H 0.64068 0.96585 0.14572 0.0
H636 H 0.65734 0.05737 0.03637 0.0
H637 H 0.71155 0.04525 1.01146 0.0
C638 C 0.73952 0.99425 0.07655 0.0
C639 C 0.74984 0.96965 0.13373 0.0
C640 C 0.70772 0.9986 0.06609 0.0
C641 C 0.73071 0.94356 0.14213 0.0
C642 C 0.69901 0.94671 0.12686 0.0
C643 C 0.65609 0.98266 0.11372 0.0
C644 C 0.64549 1.01255 0.09468 0.0
C645 C 0.6872 0.97544 0.09893 0.0
C646 C 0.66536 0.03431 0.05259 0.0
C647 C 0.69626 0.02736 0.03784 0.0
H648 H 0.50998 0.77523 0.06558 0.0
H649 H 0.44225 0.74971 0.27847 0.0
H650 H 0.41209 0.72308 0.15521 0.0
H651 H 0.41359 0.6956 1.00118 0.0
H652 H 0.48421 0.71685 0.79402 0.0
H653 H 0.5042 0.75758 0.89883 0.0
C654 C 0.48793 0.76501 0.08395 0.0
C655 C 0.4786 0.76362 0.18081 0.0
C656 C 0.47153 0.74866 1.01367 0.0
C657 C 0.45004 0.7504 0.20426 0.0
C658 C 0.43291 0.73511 0.13401 0.0
C659 C 0.43237 0.71031 0.9775 0.0
C660 C 0.44772 0.7035 0.89148 0.0
C661 C 0.44462 0.7323 0.04034 0.0
C662 C 0.47217 0.7221 0.86037 0.0
C663 C 0.48379 0.74501 0.92081 0.0
H664 H 0.77874 0.5363 0.06699 0.0
H665 H 0.83996 0.61189 0.13039 0.0
H666 H 0.8671 0.60353 0.9783 0.0
H667 H 0.88101 0.56662 0.85273 0.0
H668 H 0.82414 0.48644 0.80617 0.0
H669 H 0.78661 0.50561 0.92148 0.0
C670 C 0.79722 0.5517 0.04547 0.0
C671 C 0.80786 0.57424 0.10989 0.0
C672 C 0.81363 0.54567 0.96088 0.0
C673 C 0.83183 0.59407 0.08198 0.0
C674 C 0.84736 0.58922 0.9954 0.0
C675 C 0.85998 0.55379 0.86629 0.0
C676 C 0.85587 0.52466 0.82427 0.0
C677 C 0.83973 0.56378 0.93794 0.0
C678 C 0.82806 0.50875 0.83878 0.0
C679 C 0.80677 0.5195 0.9058 0.0
H680 H 1.01227 0.20313 0.05754 0.0
H681 H 0.08324 0.24454 0.88326 0.0
H682 H 0.08228 0.19952 0.77564 0.0
H683 H 0.06343 0.14601 0.73679 0.0
H684 H 0.99173 0.1063 0.91233 0.0
H685 H 0.99107 0.1524 1.01284 0.0
C686 C 0.02742 0.2026 0.9955 0.0
C687 C 0.04795 0.22763 0.97972 0.0
C688 C 0.02687 0.17643 0.93422 0.0
C689 C 0.067 0.22614 0.8977 0.0
C690 C 0.06664 0.20009 0.83641 0.0
C691 C 0.0476 0.14752 0.7969 0.0
C692 C 0.02788 0.12216 0.8172 0.0
C693 C 0.04707 0.17472 0.85478 0.0
C694 C 1.00723 0.12506 0.89463 0.0
C695 C 1.00688 0.15156 0.95257 0.0
H696 H 0.36086 0.09927 0.98555 0.0
H697 H 0.33988 1.00334 0.02997 0.0
H698 H 0.38972 0.98909 0.95987 0.0
H699 H 0.44042 1.00391 0.88743 0.0
H700 H 0.45904 0.09998 0.8328 0.0
H701 H 0.40969 0.11385 0.9039 0.0
C702 C 0.3669 0.07518 0.97811 0.0
C703 C 0.3461 0.05243 1.01234 0.0
C704 C 0.39563 0.06709 0.93603 0.0
C705 C 0.35484 1.02139 1.00296 0.0
C706 C 0.38365 1.01324 0.96363 0.0
C707 C 0.4337 0.02791 0.8906 0.0
C708 C 0.45407 0.05077 0.85413 0.0
C709 C 0.40445 0.03587 0.93024 0.0
C710 C 0.44447 0.0817 0.86007 0.0
C711 C 0.41593 0.08973 0.90064 0.0
H712 H 0.48039 0.35211 1.01071 0.0
H713 H 0.57365 0.32463 0.95339 0.0
H714 H 0.58254 0.37309 0.86478 0.0
H715 H 0.56492 0.42655 0.81713 0.0
H716 H 0.47029 0.45061 0.86541 0.0
H717 H 0.46104 0.40134 0.94476 0.0
C718 C 0.50251 0.35632 0.97695 0.0
C719 C 0.5262 0.33423 0.98877 0.0
C720 C 0.50749 0.38444 0.92651 0.0
C721 C 0.55474 0.34062 0.94473 0.0
C722 C 0.55994 0.36869 0.89484 0.0
C723 C 0.54218 0.42082 0.84383 0.0
C724 C 0.51855 0.4434 0.83933 0.0
C725 C 0.53671 0.39128 0.88709 0.0
C726 C 0.48928 0.43493 0.87327 0.0
C727 C 0.48386 0.40627 0.91717 0.0
H728 H 0.21648 0.56165 0.9674 0.0
H729 H 0.20502 0.46982 0.07961 0.0
H730 H 0.15766 0.46359 0.98431 0.0
H731 H 0.11689 0.48616 0.87925 0.0
H732 H 0.12991 0.57782 0.76423 0.0
H733 H 0.17899 0.58191 0.84849 0.0
C734 C 0.20416 0.53989 0.96847 0.0
C735 C 0.21477 0.516 0.02949 0.0
C736 C 0.17676 0.53659 0.91369 0.0
C737 C 0.19797 0.48827 0.03169 0.0
C738 C 0.17058 0.48488 0.978 0.0
C739 C 0.13051 0.50697 0.87185 0.0
C740 C 0.11904 0.53177 0.81556 0.0
C741 C 0.1593 0.50917 0.92037 0.0
C742 C 0.13762 0.5583 0.80663 0.0
C743 C 0.16589 0.56074 0.85526 0.0
H744 H 0.07092 0.85218 0.47463 0.0
H745 H 0.97697 0.85191 0.37489 0.0
H746 H 0.96774 0.90074 0.45914 0.0
H747 H 0.98765 0.94592 0.55239 0.0
H748 H 0.08142 0.945 0.654 0.0
H749 H 0.08924 0.89458 0.57991 0.0
C750 C 0.04816 0.86237 0.47315 0.0
C751 C 0.0246 0.84785 0.41847 0.0
C752 C 0.04309 0.89071 0.52167 0.0
C753 C 0.99541 0.86189 0.41729 0.0
C754 C 0.99025 0.89017 0.46473 0.0
C755 C 1.0098 0.93475 0.5582 0.0
C756 C 0.03401 0.9498 0.60849 0.0
C757 C 1.0141 0.90523 0.5155 0.0
C758 C 0.06228 0.93425 0.6168 0.0
C759 C 0.06683 0.90532 0.57368 0.0
H760 H 0.71063 0.96377 0.45581 0.0
H761 H 0.74202 0.05781 0.47319 0.0
H762 H 0.69456 0.07171 0.55939 0.0
H763 H 0.64119 0.05797 0.61558 0.0
H764 H 0.61018 0.96389 0.58557 0.0
H765 H 0.65935 0.94988 0.51487 0.0
C766 C 0.70741 0.98738 0.479 0.0
C767 C 0.73036 1.00965 0.45679 0.0
C768 C 0.67936 0.99549 0.5241 0.0
C769 C 0.72539 0.03993 0.48948 0.0
C770 C 0.69783 0.048 0.53758 0.0
C771 C 0.64527 0.0343 0.59474 0.0
C772 C 0.62141 1.01209 0.60702 0.0
C773 C 0.67417 0.02615 0.55308 0.0
C774 C 0.62747 0.98171 0.57726 0.0
C775 C 0.65589 0.97353 0.53708 0.0
H776 H 0.48781 0.70926 0.4699 0.0
H777 H 0.58574 0.72601 0.47771 0.0
H778 H 0.59262 0.6786 0.57288 0.0
H779 H 0.57054 0.63033 0.64899 0.0
H780 H 0.47394 0.61117 0.60854 0.0
H781 H 0.46703 0.66103 0.53176 0.0
C782 C 0.51098 0.70261 0.48988 0.0
C783 C 0.53626 0.72169 0.46315 0.0
C784 C 0.515 0.67438 0.53971 0.0
C785 C 0.56562 0.7125 0.49614 0.0
C786 C 0.56962 0.68497 0.55013 0.0
C787 C 0.54814 0.63669 0.62132 0.0
C788 C 0.52277 0.61639 0.63574 0.0
C789 C 0.54451 0.6653 0.57104 0.0
C790 C 0.49383 0.62604 0.60145 0.0
C791 C 0.48987 0.65467 0.55621 0.0
H792 H 0.86055 0.52135 0.36294 0.0
H793 H 0.82504 0.59117 0.55225 0.0
H794 H 0.8727 0.58912 0.64829 0.0
H795 H 0.92675 0.57015 0.6706 0.0
H796 H 0.96029 0.4985 0.48407 0.0
H797 H 0.91171 0.49892 0.39447 0.0
C798 C 0.86301 0.53583 0.42615 0.0
C799 C 0.83903 0.55649 0.44984 0.0
C800 C 0.8906 0.53464 0.4805 0.0
C801 C 0.84277 0.57489 0.53245 0.0
C802 C 0.87028 0.57397 0.58675 0.0
C803 C 0.92333 0.55463 0.61037 0.0
C804 C 0.94744 0.53453 0.5834 0.0
C805 C 0.89474 0.55447 0.56013 0.0
C806 C 0.94233 0.51421 0.50629 0.0
C807 C 0.91447 0.51446 0.45493 0.0
loop_
_geom_bond_atom_site_label_1
_geom_bond_atom_site_label_2
_geom_bond_distance
_geom_bond_site_symmetry_2
_ccdc_geom_bond_type
H0 C3 0.929 . S
H1 C6 0.929 . S
H2 C8 0.930 . S
C3 H0 0.929 . S
C3 C4 1.398 . S
C3 C5 1.396 . S
C4 C3 1.398 . S
C4 C8 1.407 . S
C5 C3 1.396 . S
C5 C6 1.394 . S
C6 H1 0.929 . S
C6 C5 1.394 . S
C6 C7 1.382 . S
C7 C6 1.382 . S
C7 C8 1.392 . S
C7 N9 1.420 . S
C8 H2 0.930 . S
C8 C4 1.407 . S
C8 C7 1.392 . S
N9 C7 1.420 . S
N9 C10 1.244 . S
C10 N9 1.244 . S
H11 C14 0.929 . S
H12 C17 0.929 . S
H13 C19 0.930 . S
C14 H11 0.929 . S
C14 C15 1.398 . S
C14 C16 1.396 . S
C15 C14 1.398 . S
C15 C19 1.407 . S
C16 C14 1.396 . S
C16 C17 1.394 . S
C17 H12 0.929 . S
C17 C16 1.394 . S
C17 C18 1.382 . S
C18 C17 1.382 . S
C18 C19 1.392 . S
C18 N20 1.420 . S
C19 H13 0.930 . S
C19 C15 1.407 . S
C19 C18 1.392 . S
N20 C18 1.420 . S
N20 C21 1.244 . S
C21 N20 1.244 . S
H22 C25 0.929 . S
H23 C28 0.929 . S
H24 C30 0.930 . S
C25 H22 0.929 . S
C25 C26 1.398 . S
C25 C27 1.396 . S
C26 C25 1.398 . S
C26 C30 1.407 . S
C27 C25 1.396 . S
C27 C28 1.394 . S
C28 H23 0.929 . S
C28 C27 1.394 . S
C28 C29 1.382 . S
C29 C28 1.382 . S
C29 C30 1.392 . S
C29 N31 1.420 . S
C30 H24 0.930 . S
C30 C26 1.407 . S
C30 C29 1.392 . S
N31 C29 1.420 . S
N31 C32 1.244 . S
C32 N31 1.244 . S
H33 C36 0.929 . S
H34 C39 0.929 . S
H35 C41 0.930 . S
C36 H33 0.929 . S
C36 C37 1.398 . S
C36 C38 1.396 . S
C37 C36 1.398 . S
C37 C41 1.407 . S
C38 C36 1.396 . S
C38 C39 1.394 . S
C39 H34 0.929 . S
C39 C38 1.394 . S
C39 C40 1.382 . S
C40 C39 1.382 . S
C40 C41 1.392 . S
C40 N42 1.420 . S
C41 H35 0.930 . S
C41 C37 1.407 . S
C41 C40 1.392 . S
N42 C40 1.420 . S
N42 C43 1.244 . S
C43 N42 1.244 . S
H44 C47 0.929 . S
H45 C50 0.929 . S
H46 C52 0.930 . S
C47 H44 0.929 . S
C47 C48 1.398 1_554 S
C47 C49 1.396 . S
C48 C47 1.398 1_556 S
C48 C52 1.407 . S
C49 C47 1.396 . S
C49 C50 1.394 . S
C50 H45 0.929 . S
C50 C49 1.394 . S
C50 C51 1.382 . S
C51 C50 1.382 . S
C51 C52 1.392 1_554 S
C51 N53 1.420 . S
C52 H46 0.930 . S
C52 C48 1.407 . S
C52 C51 1.392 1_556 S
N53 C51 1.420 . S
N53 C54 1.244 . S
C54 N53 1.244 . S
H55 C58 0.929 . S
H56 C61 0.929 . S
H57 C63 0.930 . S
C58 H55 0.929 . S
C58 C59 1.398 1_554 S
C58 C60 1.396 . S
C59 C58 1.398 1_556 S
C59 C63 1.407 . S
C60 C58 1.396 . S
C60 C61 1.394 . S
C61 H56 0.929 . S
C61 C60 1.394 . S
C61 C62 1.382 . S
C62 C61 1.382 . S
C62 C63 1.392 1_554 S
C62 N64 1.420 . S
C63 H57 0.930 . S
C63 C59 1.407 . S
C63 C62 1.392 1_556 S
N64 C62 1.420 . S
N64 C65 1.244 . S
C65 N64 1.244 . S
H66 C69 0.929 . S
H67 C72 0.929 . S
H68 C74 0.930 . S
C69 H66 0.929 . S
C69 C70 1.398 1_554 S
C69 C71 1.396 . S
C70 C69 1.398 1_556 S
C70 C74 1.407 . S
C71 C69 1.396 . S
C71 C72 1.394 . S
C72 H67 0.929 . S
C72 C71 1.394 . S
C72 C73 1.382 . S
C73 C72 1.382 . S
C73 C74 1.392 1_554 S
C73 N75 1.420 . S
C74 H68 0.930 . S
C74 C70 1.407 . S
C74 C73 1.392 1_556 S
N75 C73 1.420 . S
N75 C76 1.244 . S
C76 N75 1.244 . S
H77 C80 0.929 . S
H78 C83 0.929 . S
H79 C85 0.930 . S
C80 H77 0.929 . S
C80 C81 1.398 1_554 S
C80 C82 1.396 . S
C81 C80 1.398 1_556 S
C81 C85 1.407 . S
C82 C80 1.396 . S
C82 C83 1.394 . S
C83 H78 0.929 . S
C83 C82 1.394 . S
C83 C84 1.382 . S
C84 C83 1.382 . S
C84 C85 1.392 1_554 S
C84 N86 1.420 . S
C85 H79 0.930 . S
C85 C81 1.407 . S
C85 C84 1.392 1_556 S
N86 C84 1.420 . S
N86 C87 1.244 . S
C87 N86 1.244 . S
Tb88 N117 2.617 . S
Tb88 N123 2.572 . S
Tb88 O132 2.465 . S
Tb88 O133 2.387 1_545 S
Tb88 O135 2.428 . S
Tb88 O136 2.308 1_655 S
Tb88 O140 2.349 1_655 S
Tb88 O143 2.393 . S
Tb88 C152 2.802 . S
C89 N90 1.379 . S
C89 C92 1.416 . S
C89 C96 1.424 1_556 S
N90 C89 1.379 . S
N90 C93 1.334 . S
N90 Tb99 2.617 1_545 S
C91 C93 1.390 . S
C91 C94 1.339 . S
C91 H111 0.930 . S
C92 C89 1.416 . S
C92 C94 1.416 . S
C92 C98 1.448 1_556 S
C93 N90 1.334 . S
C93 C91 1.390 . S
C93 H104 0.930 1_545 S
C94 C91 1.339 . S
C94 C92 1.416 . S
C94 H115 0.930 . S
C95 C96 1.413 . S
C95 C97 1.427 . S
C95 C101 1.416 . S
C96 C89 1.424 1_554 S
C96 C95 1.413 . S
C96 N100 1.361 1_554 S
C97 C95 1.427 . S
C97 C98 1.328 . S
C97 H112 0.929 . S
C98 C92 1.448 1_554 S
C98 C97 1.328 . S
C98 H113 0.930 . S
Tb99 N90 2.617 1_565 S
Tb99 N100 2.572 1_565 S
Tb99 O134 2.349 . S
Tb99 O137 2.393 . S
Tb99 O138 2.465 . S
Tb99 O139 2.387 1_565 S
Tb99 O141 2.428 . S
Tb99 O142 2.308 1_465 S
Tb99 C163 2.802 . S
N100 C96 1.361 1_556 S
N100 Tb99 2.572 1_545 S
N100 C102 1.340 1_556 S
C101 C95 1.416 . S
C101 C103 1.332 . S
C101 H109 0.931 . S
C102 N100 1.340 1_554 S
C102 C103 1.407 . S
C102 H108 0.930 1_455 S
C103 C101 1.332 . S
C103 C102 1.407 . S
C103 H105 0.943 . S
H104 C93 0.930 1_565 S
H105 C103 0.943 . S
H106 C121 0.930 . S
H107 C128 0.912 1_455 S
H108 C102 0.930 1_655 S
H109 C101 0.931 . S
H110 C124 0.930 . S
H111 C91 0.930 . S
H112 C97 0.929 . S
H113 C98 0.930 . S
H114 C119 0.930 . S
H115 C94 0.930 . S
H116 C127 0.931 . S
N117 Tb88 2.617 . S
N117 C118 1.379 . S
N117 C121 1.334 . S
C118 N117 1.379 . S
C118 C120 1.416 1_545 S
C118 C126 1.424 1_545 S
C119 H114 0.930 . S
C119 C121 1.390 . S
C119 C122 1.339 1_545 S
C120 C118 1.416 1_565 S
C120 C122 1.416 . S
C120 C153 1.448 . S
C121 H106 0.930 . S
C121 N117 1.334 . S
C121 C119 1.390 . S
C122 C119 1.339 1_565 S
C122 C120 1.416 . S
C122 H129 0.930 . S
N123 Tb88 2.572 . S
N123 C124 1.340 1_655 S
N123 C126 1.361 1_545 S
C124 H110 0.930 . S
C124 N123 1.340 1_455 S
C124 C128 1.407 1_445 S
C125 C126 1.413 . S
C125 C127 1.416 . S
C125 C154 1.427 . S
C126 C118 1.424 1_565 S
C126 N123 1.361 1_565 S
C126 C125 1.413 . S
C127 H116 0.931 . S
C127 C125 1.416 . S
C127 C128 1.351 . S
C128 H107 0.912 1_655 S
C128 C124 1.407 1_665 S
C128 C127 1.351 . S
H129 C122 0.930 . S
H130 C153 0.930 . S
H131 C154 0.929 . S
O132 Tb88 2.465 . S
O132 C152 1.264 . S
O133 Tb88 2.387 1_565 S
O133 C144 1.264 . S
O134 Tb99 2.349 . S
O134 C144 1.243 1_455 S
O135 Tb88 2.428 . S
O135 C152 1.256 . S
O136 Tb88 2.308 1_455 S
O136 C151 1.266 . S
O137 Tb99 2.393 . S
O137 C151 1.248 1_565 S
O138 Tb99 2.465 . S
O138 C163 1.264 . S
O139 Tb99 2.387 1_545 S
O139 C155 1.264 . S
O140 Tb88 2.349 1_455 S
O140 C155 1.243 . S
O141 Tb99 2.428 . S
O141 C163 1.256 . S
O142 Tb99 2.308 1_645 S
O142 C162 1.266 . S
O143 Tb88 2.393 . S
O143 C162 1.248 . S
C144 O133 1.264 . S
C144 O134 1.243 1_655 S
C145 C148 1.399 . S
C145 C150 1.383 . S
C145 C152 1.496 . S
C146 C147 1.399 . S
C146 C150 1.389 . S
C147 C146 1.399 . S
C147 C149 1.380 . S
C147 H164 0.929 . S
C148 C145 1.399 . S
C148 C149 1.392 . S
C148 H165 0.929 . S
C149 C147 1.380 . S
C149 C148 1.392 . S
C149 H166 0.929 . S
C150 C145 1.383 . S
C150 C146 1.389 . S
C150 H167 0.931 1_655 S
C151 O136 1.266 . S
C151 O137 1.248 1_545 S
C152 Tb88 2.802 . S
C152 O132 1.264 . S
C152 O135 1.256 . S
C152 C145 1.496 . S
C153 C120 1.448 . S
C153 H130 0.930 . S
C153 C154 1.328 . S
C154 C125 1.427 . S
C154 H131 0.929 . S
C154 C153 1.328 . S
C155 O139 1.264 . S
C155 O140 1.243 . S
C156 C159 1.399 . S
C156 C160 1.383 1_556 S
C156 C163 1.496 . S
C157 C158 1.399 . S
C157 C160 1.389 . S
C158 C157 1.399 . S
C158 C161 1.380 1_554 S
C158 H168 0.929 . S
C159 C156 1.399 . S
C159 C161 1.392 . S
C159 H169 0.929 . S
C160 C156 1.383 1_554 S
C160 C157 1.389 . S
C160 H170 0.931 . S
C161 C158 1.380 1_556 S
C161 C159 1.392 . S
C161 H171 0.929 . S
C162 O142 1.266 . S
C162 O143 1.248 . S
C163 Tb99 2.802 . S
C163 O138 1.264 . S
C163 O141 1.256 . S
C163 C156 1.496 . S
H164 C147 0.929 . S
H165 C148 0.929 . S
H166 C149 0.929 . S
H167 C150 0.931 1_455 S
H168 C158 0.929 . S
H169 C159 0.929 . S
H170 C160 0.931 . S
H171 C161 0.929 . S
Tb172 N201 2.617 . S
Tb172 N207 2.572 . S
Tb172 O216 2.465 . S
Tb172 O217 2.387 . S
Tb172 O219 2.428 . S
Tb172 O220 2.308 . S
Tb172 O224 2.349 1_545 S
Tb172 O227 2.393 . S
Tb172 C236 2.802 . S
C173 N174 1.379 . S
C173 C176 1.416 . S
C173 C180 1.424 . S
N174 C173 1.379 . S
N174 C177 1.334 . S
N174 Tb183 2.617 . S
C175 C177 1.390 . S
C175 C178 1.339 . S
C175 H195 0.930 . S
C176 C173 1.416 . S
C176 C178 1.416 . S
C176 C182 1.448 . S
C177 N174 1.334 . S
C177 C175 1.390 . S
C177 H188 0.930 . S
C178 C175 1.339 . S
C178 C176 1.416 . S
C178 H199 0.930 . S
C179 C180 1.413 . S
C179 C181 1.427 . S
C179 C185 1.416 . S
C180 C173 1.424 . S
C180 C179 1.413 . S
C180 N184 1.361 . S
C181 C179 1.427 . S
C181 C182 1.328 . S
C181 H196 0.929 . S
C182 C176 1.448 . S
C182 C181 1.328 . S
C182 H197 0.930 . S
Tb183 N174 2.617 . S
Tb183 N184 2.572 . S
Tb183 O218 2.349 1_565 S
Tb183 O221 2.393 . S
Tb183 O222 2.465 . S
Tb183 O223 2.387 . S
Tb183 O225 2.428 . S
Tb183 O226 2.308 1_565 S
Tb183 C247 2.802 . S
N184 C180 1.361 . S
N184 Tb183 2.572 . S
N184 C186 1.340 . S
C185 C179 1.416 . S
C185 C187 1.332 . S
C185 H193 0.931 . S
C186 N184 1.340 . S
C186 C187 1.407 . S
C186 H192 0.930 . S
C187 C185 1.332 . S
C187 C186 1.407 . S
C187 H189 0.929 . S
H188 C177 0.930 . S
H189 C187 0.929 . S
H190 C205 0.930 . S
H191 C212 0.929 . S
H192 C186 0.930 . S
H193 C185 0.931 . S
H194 C208 0.930 . S
H195 C175 0.930 . S
H196 C181 0.929 . S
H197 C182 0.930 . S
H198 C203 0.930 1_554 S
H199 C178 0.930 . S
H200 C211 0.931 . S
N201 Tb172 2.617 . S
N201 C202 1.379 . S
N201 C205 1.334 . S
C202 N201 1.379 . S
C202 C204 1.416 . S
C202 C210 1.424 . S
C203 H198 0.930 1_556 S
C203 C205 1.390 . S
C203 C206 1.339 . S
C204 C202 1.416 . S
C204 C206 1.416 . S
C204 C237 1.448 . S
C205 H190 0.930 . S
C205 N201 1.334 . S
C205 C203 1.390 . S
C206 C203 1.339 . S
C206 C204 1.416 . S
C206 H213 0.930 . S
N207 Tb172 2.572 . S
N207 C208 1.340 . S
N207 C210 1.361 . S
C208 H194 0.930 . S
C208 N207 1.340 . S
C208 C212 1.407 . S
C209 C210 1.413 . S
C209 C211 1.416 . S
C209 C238 1.427 . S
C210 C202 1.424 . S
C210 N207 1.361 . S
C210 C209 1.413 . S
C211 H200 0.931 . S
C211 C209 1.416 . S
C211 C212 1.332 . S
C212 H191 0.929 . S
C212 C208 1.407 . S
C212 C211 1.332 . S
H213 C206 0.930 . S
H214 C237 0.930 . S
H215 C238 0.929 . S
O216 Tb172 2.465 . S
O216 C236 1.264 . S
O217 Tb172 2.387 . S
O217 C228 1.264 . S
O218 Tb183 2.349 1_545 S
O218 C228 1.243 . S
O219 Tb172 2.428 . S
O219 C236 1.256 . S
O220 Tb172 2.308 . S
O220 C235 1.266 . S
O221 Tb183 2.393 . S
O221 C235 1.248 1_565 S
O222 Tb183 2.465 . S
O222 C247 1.264 . S
O223 Tb183 2.387 . S
O223 C239 1.264 . S
O224 Tb172 2.349 1_565 S
O224 C239 1.243 . S
O225 Tb183 2.428 . S
O225 C247 1.256 . S
O226 Tb183 2.308 1_545 S
O226 C246 1.266 . S
O227 Tb172 2.393 . S
O227 C246 1.248 . S
C228 O217 1.264 . S
C228 O218 1.243 . S
C229 C232 1.399 . S
C229 C234 1.383 . S
C229 C236 1.496 1_554 S
C230 C231 1.399 . S
C230 C234 1.389 . S
C231 C230 1.399 . S
C231 C233 1.380 . S
C231 H248 0.929 . S
C232 C229 1.399 . S
C232 C233 1.392 . S
C232 H249 0.929 . S
C233 C231 1.380 . S
C233 C232 1.392 . S
C233 H250 0.929 . S
C234 C229 1.383 . S
C234 C230 1.389 . S
C234 H251 0.931 1_554 S
C235 O220 1.266 . S
C235 O221 1.248 1_545 S
C236 Tb172 2.802 . S
C236 O216 1.264 . S
C236 O219 1.256 . S
C236 C229 1.496 1_556 S
C237 C204 1.448 . S
C237 H214 0.930 . S
C237 C238 1.328 . S
C238 C209 1.427 . S
C238 H215 0.929 . S
C238 C237 1.328 . S
C239 O223 1.264 . S
C239 O224 1.243 . S
C240 C243 1.399 . S
C240 C244 1.383 1_565 S
C240 C247 1.496 . S
C241 C242 1.399 1_545 S
C241 C244 1.389 . S
C242 C241 1.399 1_565 S
C242 C245 1.380 . S
C242 H252 0.929 . S
C243 C240 1.399 . S
C243 C245 1.392 . S
C243 H253 0.929 . S
C244 C240 1.383 1_545 S
C244 C241 1.389 . S
C244 H254 0.931 . S
C245 C242 1.380 . S
C245 C243 1.392 . S
C245 H255 0.929 . S
C246 O226 1.266 . S
C246 O227 1.248 . S
C247 Tb183 2.802 . S
C247 O222 1.264 . S
C247 O225 1.256 . S
C247 C240 1.496 . S
H248 C231 0.929 . S
H249 C232 0.929 . S
H250 C233 0.929 . S
H251 C234 0.931 1_556 S
H252 C242 0.929 . S
H253 C243 0.929 . S
H254 C244 0.931 . S
H255 C245 0.929 . S
Tb256 N285 2.617 . S
Tb256 N291 2.572 . S
Tb256 O300 2.465 . S
Tb256 O301 2.387 . S
Tb256 O303 2.428 . S
Tb256 O304 2.308 . S
Tb256 O308 2.349 . S
Tb256 O311 2.393 . S
Tb256 C320 2.802 . S
C257 N258 1.379 . S
C257 C260 1.416 . S
C257 C264 1.424 1_556 S
N258 C257 1.379 . S
N258 C261 1.334 . S
N258 Tb267 2.617 . S
C259 C261 1.390 . S
C259 C262 1.339 . S
C259 H279 0.930 . S
C260 C257 1.416 . S
C260 C262 1.416 . S
C260 C266 1.448 1_556 S
C261 N258 1.334 . S
C261 C259 1.390 . S
C261 H272 0.930 . S
C262 C259 1.339 . S
C262 C260 1.416 . S
C262 H283 0.930 . S
C263 C264 1.413 . S
C263 C265 1.427 . S
C263 C269 1.416 . S
C264 C257 1.424 1_554 S
C264 C263 1.413 . S
C264 N268 1.361 1_554 S
C265 C263 1.427 . S
C265 C266 1.328 . S
C265 H280 0.929 . S
C266 C260 1.448 1_554 S
C266 C265 1.328 . S
C266 H281 0.930 . S
Tb267 N258 2.617 . S
Tb267 N268 2.572 . S
Tb267 O302 2.349 . S
Tb267 O305 2.393 . S
Tb267 O306 2.465 . S
Tb267 O307 2.387 . S
Tb267 O309 2.428 . S
Tb267 O310 2.308 . S
Tb267 C331 2.802 . S
N268 C264 1.361 1_556 S
N268 Tb267 2.572 . S
N268 C270 1.340 1_556 S
C269 C263 1.416 . S
C269 C271 1.332 . S
C269 H277 0.931 . S
C270 N268 1.340 1_554 S
C270 C271 1.407 . S
C270 H276 0.930 . S
C271 C269 1.332 . S
C271 C270 1.407 . S
C271 H273 0.929 . S
H272 C261 0.930 . S
H273 C271 0.929 . S
H274 C289 0.930 . S
H275 C296 0.929 . S
H276 C270 0.930 . S
H277 C269 0.931 . S
H278 C292 0.930 . S
H279 C259 0.930 . S
H280 C265 0.929 . S
H281 C266 0.930 . S
H282 C287 0.930 . S
H283 C262 0.930 . S
H284 C295 0.931 . S
N285 Tb256 2.617 . S
N285 C286 1.379 . S
N285 C289 1.334 . S
C286 N285 1.379 . S
C286 C288 1.416 . S
C286 C294 1.424 . S
C287 H282 0.930 . S
C287 C289 1.390 . S
C287 C290 1.339 . S
C288 C286 1.416 . S
C288 C290 1.416 . S
C288 C321 1.448 . S
C289 H274 0.930 . S
C289 N285 1.334 . S
C289 C287 1.390 . S
C290 C287 1.339 . S
C290 C288 1.416 . S
C290 H297 0.930 . S
N291 Tb256 2.572 . S
N291 C292 1.340 . S
N291 C294 1.361 . S
C292 H278 0.930 . S
C292 N291 1.340 . S
C292 C296 1.407 . S
C293 C294 1.413 . S
C293 C295 1.416 . S
C293 C322 1.427 . S
C294 C286 1.424 . S
C294 N291 1.361 . S
C294 C293 1.413 . S
C295 H284 0.931 . S
C295 C293 1.416 . S
C295 C296 1.332 . S
C296 H275 0.929 . S
C296 C292 1.407 . S
C296 C295 1.332 . S
H297 C290 0.930 . S
H298 C321 0.930 . S
H299 C322 0.929 . S
O300 Tb256 2.465 . S
O300 C320 1.264 . S
O301 Tb256 2.387 . S
O301 C312 1.264 . S
O302 Tb267 2.349 . S
O302 C312 1.243 . S
O303 Tb256 2.428 . S
O303 C320 1.256 . S
O304 Tb256 2.308 . S
O304 C319 1.266 . S
O305 Tb267 2.393 . S
O305 C319 1.248 . S
O306 Tb267 2.465 . S
O306 C331 1.264 . S
O307 Tb267 2.387 . S
O307 C323 1.264 . S
O308 Tb256 2.349 . S
O308 C323 1.243 . S
O309 Tb267 2.428 . S
O309 C331 1.256 . S
O310 Tb267 2.308 . S
O310 C330 1.266 . S
O311 Tb256 2.393 . S
O311 C330 1.248 . S
C312 O301 1.264 . S
C312 O302 1.243 . S
C313 C316 1.399 . S
C313 C318 1.383 . S
C313 C320 1.496 . S
C314 C315 1.399 . S
C314 C318 1.389 . S
C315 C314 1.399 . S
C315 C317 1.380 . S
C315 H332 0.929 . S
C316 C313 1.399 . S
C316 C317 1.392 . S
C316 H333 0.929 . S
C317 C315 1.380 . S
C317 C316 1.392 . S
C317 H334 0.929 . S
C318 C313 1.383 . S
C318 C314 1.389 . S
C318 H335 0.931 . S
C319 O304 1.266 . S
C319 O305 1.248 . S
C320 Tb256 2.802 . S
C320 O300 1.264 . S
C320 O303 1.256 . S
C320 C313 1.496 . S
C321 C288 1.448 . S
C321 H298 0.930 . S
C321 C322 1.328 . S
C322 C293 1.427 . S
C322 H299 0.929 . S
C322 C321 1.328 . S
C323 O307 1.264 . S
C323 O308 1.243 . S
C324 C327 1.399 . S
C324 C328 1.383 1_556 S
C324 C331 1.496 . S
C325 C326 1.399 . S
C325 C328 1.389 . S
C326 C325 1.399 . S
C326 C329 1.380 1_554 S
C326 H336 0.929 . S
C327 C324 1.399 . S
C327 C329 1.392 . S
C327 H337 0.929 . S
C328 C324 1.383 1_554 S
C328 C325 1.389 . S
C328 H338 0.931 . S
C329 C326 1.380 1_556 S
C329 C327 1.392 . S
C329 H339 0.929 . S
C330 O310 1.266 . S
C330 O311 1.248 . S
C331 Tb267 2.802 . S
C331 O306 1.264 . S
C331 O309 1.256 . S
C331 C324 1.496 . S
H332 C315 0.929 . S
H333 C316 0.929 . S
H334 C317 0.929 . S
H335 C318 0.931 . S
H336 C326 0.929 . S
H337 C327 0.929 . S
H338 C328 0.931 . S
H339 C329 0.929 . S
Tb340 N369 2.617 . S
Tb340 N375 2.572 . S
Tb340 O384 2.465 . S
Tb340 O385 2.387 1_455 S
Tb340 O387 2.428 . S
Tb340 O388 2.308 . S
Tb340 O392 2.349 . S
Tb340 O395 2.393 . S
Tb340 C404 2.802 . S
C341 N342 1.379 . S
C341 C344 1.416 . S
C341 C348 1.424 1_556 S
N342 C341 1.379 . S
N342 C345 1.331 1_455 S
N342 Tb351 2.617 1_455 S
C343 C345 1.377 1_455 S
C343 C346 1.339 . S
C343 H363 0.930 . S
C344 C341 1.416 . S
C344 C346 1.416 . S
C344 C350 1.448 1_556 S
C345 N342 1.331 1_655 S
C345 C343 1.377 1_655 S
C345 H356 0.949 . S
C346 C343 1.339 . S
C346 C344 1.416 . S
C346 H367 0.930 . S
C347 C348 1.413 . S
C347 C349 1.427 . S
C347 C353 1.416 . S
C348 C341 1.424 1_554 S
C348 C347 1.413 . S
C348 N352 1.361 1_554 S
C349 C347 1.427 . S
C349 C350 1.328 . S
C349 H364 0.929 . S
C350 C344 1.448 1_554 S
C350 C349 1.328 . S
C350 H365 0.930 . S
Tb351 N342 2.617 1_655 S
Tb351 N352 2.572 1_655 S
Tb351 O386 2.349 . S
Tb351 O389 2.393 . S
Tb351 O390 2.465 . S
Tb351 O391 2.387 1_655 S
Tb351 O393 2.428 . S
Tb351 O394 2.308 1_655 S
Tb351 C415 2.802 . S
N352 C348 1.361 1_556 S
N352 Tb351 2.572 1_455 S
N352 C354 1.340 1_556 S
C353 C347 1.416 . S
C353 C355 1.332 . S
C353 H361 0.931 . S
C354 N352 1.340 1_554 S
C354 C355 1.407 . S
C354 H360 0.930 . S
C355 C353 1.332 . S
C355 C354 1.407 . S
C355 H357 0.929 . S
H356 C345 0.949 . S
H357 C355 0.929 . S
H358 C373 0.930 . S
H359 C380 0.929 . S
H360 C354 0.930 . S
H361 C353 0.931 . S
H362 C376 0.930 . S
H363 C343 0.930 . S
H364 C349 0.929 . S
H365 C350 0.930 . S
H366 C371 0.930 . S
H367 C346 0.930 . S
H368 C379 0.931 . S
N369 Tb340 2.617 . S
N369 C370 1.387 . S
N369 C373 1.334 . S
C370 N369 1.387 . S
C370 C372 1.410 1_455 S
C370 C378 1.422 1_455 S
C371 H366 0.930 . S
C371 C373 1.390 . S
C371 C374 1.339 1_455 S
C372 C370 1.410 1_655 S
C372 C374 1.416 . S
C372 C405 1.448 . S
C373 H358 0.930 . S
C373 N369 1.334 . S
C373 C371 1.390 . S
C374 C371 1.339 1_655 S
C374 C372 1.416 . S
C374 H381 0.930 . S
N375 Tb340 2.572 . S
N375 C376 1.340 . S
N375 C378 1.361 1_455 S
C376 H362 0.930 . S
C376 N375 1.340 . S
C376 C380 1.407 1_455 S
C377 C378 1.413 . S
C377 C379 1.416 . S
C377 C406 1.427 . S
C378 C370 1.422 1_655 S
C378 N375 1.361 1_655 S
C378 C377 1.413 . S
C379 H368 0.931 . S
C379 C377 1.416 . S
C379 C380 1.332 . S
C380 H359 0.929 . S
C380 C376 1.407 1_655 S
C380 C379 1.332 . S
H381 C374 0.930 . S
H382 C405 0.930 . S
H383 C406 0.929 . S
O384 Tb340 2.465 . S
O384 C404 1.264 . S
O385 Tb340 2.387 1_655 S
O385 C396 1.264 . S
O386 Tb351 2.349 . S
O386 C396 1.243 . S
O387 Tb340 2.428 . S
O387 C404 1.256 . S
O388 Tb340 2.308 . S
O388 C403 1.266 . S
O389 Tb351 2.393 . S
O389 C403 1.248 1_655 S
O390 Tb351 2.465 . S
O390 C415 1.264 . S
O391 Tb351 2.387 1_455 S
O391 C407 1.264 . S
O392 Tb340 2.349 . S
O392 C407 1.243 . S
O393 Tb351 2.428 . S
O393 C415 1.256 . S
O394 Tb351 2.308 1_455 S
O394 C414 1.266 . S
O395 Tb340 2.393 . S
O395 C414 1.248 . S
C396 O385 1.264 . S
C396 O386 1.243 . S
C397 C400 1.399 . S
C397 C402 1.383 . S
C397 C404 1.496 . S
C398 C399 1.399 . S
C398 C402 1.389 . S
C399 C398 1.399 . S
C399 C401 1.380 . S
C399 H416 0.929 . S
C400 C397 1.399 . S
C400 C401 1.392 . S
C400 H417 0.929 . S
C401 C399 1.380 . S
C401 C400 1.392 . S
C401 H418 0.929 . S
C402 C397 1.383 . S
C402 C398 1.389 . S
C402 H419 0.931 . S
C403 O388 1.266 . S
C403 O389 1.248 1_455 S
C404 Tb340 2.802 . S
C404 O384 1.264 . S
C404 O387 1.256 . S
C404 C397 1.496 . S
C405 C372 1.448 . S
C405 H382 0.930 . S
C405 C406 1.328 . S
C406 C377 1.427 . S
C406 H383 0.929 . S
C406 C405 1.328 . S
C407 O391 1.264 . S
C407 O392 1.243 . S
C408 C411 1.399 . S
C408 C412 1.383 1_556 S
C408 C415 1.496 . S
C409 C410 1.399 . S
C409 C412 1.389 . S
C410 C409 1.399 . S
C410 C413 1.380 1_554 S
C410 H420 0.929 . S
C411 C408 1.399 . S
C411 C413 1.392 . S
C411 H421 0.929 . S
C412 C408 1.383 1_554 S
C412 C409 1.389 . S
C412 H422 0.931 . S
C413 C410 1.380 1_556 S
C413 C411 1.392 . S
C413 H423 0.929 . S
C414 O394 1.266 . S
C414 O395 1.248 . S
C415 Tb351 2.802 . S
C415 O390 1.264 . S
C415 O393 1.256 . S
C415 C408 1.496 . S
H416 C399 0.929 . S
H417 C400 0.929 . S
H418 C401 0.929 . S
H419 C402 0.931 . S
H420 C410 0.929 . S
H421 C411 0.929 . S
H422 C412 0.931 . S
H423 C413 0.929 . S
H424 C430 0.930 . S
H425 C433 0.930 . S
H426 C434 0.930 . S
H427 C435 0.930 . S
H428 C438 0.930 . S
H429 C439 0.930 . S
C430 H424 0.930 . S
C430 C431 1.355 . S
C430 C432 1.415 . S
C431 C430 1.355 . S
C431 C433 1.419 . S
C432 C430 1.415 . S
C432 C437 1.425 . S
C432 C439 1.409 . S
C433 H425 0.930 . S
C433 C431 1.419 . S
C433 C434 1.362 . S
C434 H426 0.930 . S
C434 C433 1.362 . S
C434 C437 1.409 . S
C435 H427 0.930 . S
C435 C436 1.355 . S
C435 C437 1.415 . S
C436 C435 1.355 . S
C436 C438 1.419 . S
C437 C432 1.425 . S
C437 C434 1.409 . S
C437 C435 1.415 . S
C438 H428 0.930 . S
C438 C436 1.419 . S
C438 C439 1.362 . S
C439 H429 0.930 . S
C439 C432 1.409 . S
C439 C438 1.362 . S
H440 C446 0.930 . S
H441 C449 0.930 . S
H442 C450 0.930 . S
H443 C451 0.930 . S
H444 C454 0.930 . S
H445 C455 0.930 . S
C446 H440 0.930 . S
C446 C447 1.355 . S
C446 C448 1.415 . S
C447 C446 1.355 . S
C447 C449 1.419 . S
C448 C446 1.415 . S
C448 C453 1.425 . S
C448 C455 1.409 . S
C449 H441 0.930 . S
C449 C447 1.419 . S
C449 C450 1.362 . S
C450 H442 0.930 . S
C450 C449 1.362 . S
C450 C453 1.409 . S
C451 H443 0.930 . S
C451 C452 1.355 . S
C451 C453 1.415 . S
C452 C451 1.355 . S
C452 C454 1.419 . S
C453 C448 1.425 . S
C453 C450 1.409 . S
C453 C451 1.415 . S
C454 H444 0.930 . S
C454 C452 1.419 . S
C454 C455 1.362 . S
C455 H445 0.930 . S
C455 C448 1.409 . S
C455 C454 1.362 . S
H456 C462 0.930 . S
H457 C465 0.930 . S
H458 C466 0.930 . S
H459 C467 0.930 . S
H460 C470 0.930 . S
H461 C471 0.930 . S
C462 H456 0.930 . S
C462 C463 1.355 . S
C462 C464 1.415 . S
C463 C462 1.355 . S
C463 C465 1.419 . S
C464 C462 1.415 . S
C464 C469 1.425 . S
C464 C471 1.409 . S
C465 H457 0.930 . S
C465 C463 1.419 . S
C465 C466 1.362 . S
C466 H458 0.930 . S
C466 C465 1.362 . S
C466 C469 1.409 . S
C467 H459 0.930 . S
C467 C468 1.355 . S
C467 C469 1.415 . S
C468 C467 1.355 . S
C468 C470 1.419 . S
C469 C464 1.425 . S
C469 C466 1.409 . S
C469 C467 1.415 . S
C470 H460 0.930 . S
C470 C468 1.419 . S
C470 C471 1.362 . S
C471 H461 0.930 . S
C471 C464 1.409 . S
C471 C470 1.362 . S
H472 C478 0.930 . S
H473 C481 0.930 . S
H474 C482 0.930 . S
H475 C483 0.930 . S
H476 C486 0.930 . S
H477 C487 0.930 . S
C478 H472 0.930 . S
C478 C479 1.355 . S
C478 C480 1.415 . S
C479 C478 1.355 . S
C479 C481 1.419 . S
C480 C478 1.415 . S
C480 C485 1.425 . S
C480 C487 1.409 . S
C481 H473 0.930 . S
C481 C479 1.419 . S
C481 C482 1.362 . S
C482 H474 0.930 . S
C482 C481 1.362 . S
C482 C485 1.409 . S
C483 H475 0.930 . S
C483 C484 1.355 . S
C483 C485 1.415 . S
C484 C483 1.355 . S
C484 C486 1.419 . S
C485 C480 1.425 . S
C485 C482 1.409 . S
C485 C483 1.415 . S
C486 H476 0.930 . S
C486 C484 1.419 . S
C486 C487 1.362 . S
C487 H477 0.930 . S
C487 C480 1.409 . S
C487 C486 1.362 . S
H488 C494 0.930 . S
H489 C497 0.930 . S
H490 C498 0.930 . S
H491 C499 0.930 . S
H492 C502 0.930 . S
H493 C503 0.930 . S
C494 H488 0.930 . S
C494 C495 1.355 . S
C494 C496 1.415 . S
C495 C494 1.355 . S
C495 C497 1.419 1_565 S
C496 C494 1.415 . S
C496 C501 1.425 1_565 S
C496 C503 1.409 . S
C497 H489 0.930 . S
C497 C495 1.419 1_545 S
C497 C498 1.362 . S
C498 H490 0.930 . S
C498 C497 1.362 . S
C498 C501 1.409 . S
C499 H491 0.930 . S
C499 C500 1.355 1_545 S
C499 C501 1.415 1_556 S
C500 C499 1.355 1_565 S
C500 C502 1.419 . S
C501 C496 1.425 1_545 S
C501 C498 1.409 . S
C501 C499 1.415 1_554 S
C502 H492 0.930 . S
C502 C500 1.419 . S
C502 C503 1.362 1_556 S
C503 H493 0.930 . S
C503 C496 1.409 . S
C503 C502 1.362 1_554 S
H504 C510 0.930 . S
H505 C513 0.930 . S
H506 C514 0.930 1_556 S
H507 C515 0.930 . S
H508 C518 0.931 . S
H509 C519 0.930 . S
C510 H504 0.930 . S
C510 C511 1.355 . S
C510 C512 1.415 . S
C511 C510 1.355 . S
C511 C513 1.419 . S
C512 C510 1.415 . S
C512 C517 1.425 . S
C512 C519 1.409 . S
C513 H505 0.930 . S
C513 C511 1.419 . S
C513 C514 1.362 . S
C514 H506 0.930 1_554 S
C514 C513 1.362 . S
C514 C517 1.409 . S
C515 H507 0.930 . S
C515 C516 1.355 . S
C515 C517 1.415 1_556 S
C516 C515 1.355 . S
C516 C518 1.419 1_556 S
C517 C512 1.425 . S
C517 C514 1.409 . S
C517 C515 1.415 1_554 S
C518 H508 0.931 . S
C518 C516 1.419 1_554 S
C518 C519 1.362 . S
C519 H509 0.930 . S
C519 C512 1.409 . S
C519 C518 1.362 . S
H520 C526 0.930 . S
H521 C529 0.930 . S
H522 C530 0.930 . S
H523 C531 0.930 . S
H524 C534 0.930 . S
H525 C535 0.930 . S
C526 H520 0.930 . S
C526 C527 1.355 . S
C526 C528 1.415 . S
C527 C526 1.355 . S
C527 C529 1.419 . S
C528 C526 1.415 . S
C528 C533 1.425 . S
C528 C535 1.409 . S
C529 H521 0.930 . S
C529 C527 1.419 . S
C529 C530 1.362 . S
C530 H522 0.930 . S
C530 C529 1.362 . S
C530 C533 1.409 . S
C531 H523 0.930 . S
C531 C532 1.355 . S
C531 C533 1.415 1_556 S
C532 C531 1.355 . S
C532 C534 1.419 . S
C533 C528 1.425 . S
C533 C530 1.409 . S
C533 C531 1.415 1_554 S
C534 H524 0.930 . S
C534 C532 1.419 . S
C534 C535 1.362 1_556 S
C535 H525 0.930 . S
C535 C528 1.409 . S
C535 C534 1.362 1_554 S
H536 C542 0.930 . S
H537 C545 0.930 . S
H538 C546 0.930 1_556 S
H539 C547 0.930 . S
H540 C550 0.930 1_456 S
H541 C551 0.930 . S
C542 H536 0.930 . S
C542 C543 1.355 . S
C542 C544 1.415 . S
C543 C542 1.355 . S
C543 C545 1.419 . S
C544 C542 1.415 . S
C544 C549 1.425 . S
C544 C551 1.409 . S
C545 H537 0.930 . S
C545 C543 1.419 . S
C545 C546 1.362 . S
C546 H538 0.930 1_554 S
C546 C545 1.362 . S
C546 C549 1.409 . S
C547 H539 0.930 . S
C547 C548 1.355 . S
C547 C549 1.415 1_556 S
C548 C547 1.355 . S
C548 C550 1.419 1_556 S
C549 C544 1.425 . S
C549 C546 1.409 . S
C549 C547 1.415 1_554 S
C550 H540 0.930 1_654 S
C550 C548 1.419 1_554 S
C550 C551 1.362 . S
C551 H541 0.930 . S
C551 C544 1.409 . S
C551 C550 1.362 . S
H552 C558 0.930 1_655 S
H553 C561 0.930 . S
H554 C562 0.930 . S
H555 C563 0.930 . S
H556 C566 0.930 . S
H557 C567 0.930 . S
C558 H552 0.930 1_455 S
C558 C559 1.355 . S
C558 C560 1.415 . S
C559 C558 1.355 . S
C559 C561 1.419 . S
C560 C558 1.415 . S
C560 C565 1.425 . S
C560 C567 1.409 1_455 S
C561 H553 0.930 . S
C561 C559 1.419 . S
C561 C562 1.362 . S
C562 H554 0.930 . S
C562 C561 1.362 . S
C562 C565 1.409 . S
C563 H555 0.930 . S
C563 C564 1.331 1_455 S
C563 C565 1.415 . S
C564 C563 1.331 1_655 S
C564 C566 1.439 . S
C565 C560 1.425 . S
C565 C562 1.409 . S
C565 C563 1.415 . S
C566 H556 0.930 . S
C566 C564 1.439 . S
C566 C567 1.362 . S
C567 H557 0.930 . S
C567 C560 1.409 1_655 S
C567 C566 1.362 . S
H568 C574 0.930 . S
H569 C577 0.930 . S
H570 C578 0.930 . S
H571 C579 0.930 . S
H572 C582 0.930 . S
H573 C583 0.930 . S
C574 H568 0.930 . S
C574 C575 1.355 . S
C574 C576 1.415 . S
C575 C574 1.355 . S
C575 C577 1.419 . S
C576 C574 1.415 . S
C576 C581 1.425 . S
C576 C583 1.409 . S
C577 H569 0.930 . S
C577 C575 1.419 . S
C577 C578 1.362 . S
C578 H570 0.930 . S
C578 C577 1.362 . S
C578 C581 1.409 . S
C579 H571 0.930 . S
C579 C580 1.355 . S
C579 C581 1.415 . S
C580 C579 1.355 . S
C580 C582 1.419 . S
C581 C576 1.425 . S
C581 C578 1.409 . S
C581 C579 1.415 . S
C582 H572 0.930 . S
C582 C580 1.419 . S
C582 C583 1.362 . S
C583 H573 0.930 . S
C583 C576 1.409 . S
C583 C582 1.362 . S
H584 C590 0.930 . S
H585 C593 0.930 . S
H586 C594 0.930 . S
H587 C595 0.930 . S
H588 C598 0.930 . S
H589 C599 0.930 . S
C590 H584 0.930 . S
C590 C591 1.355 . S
C590 C592 1.415 . S
C591 C590 1.355 . S
C591 C593 1.419 . S
C592 C590 1.415 . S
C592 C597 1.425 . S
C592 C599 1.409 . S
C593 H585 0.930 . S
C593 C591 1.419 . S
C593 C594 1.362 . S
C594 H586 0.930 . S
C594 C593 1.362 . S
C594 C597 1.409 . S
C595 H587 0.930 . S
C595 C596 1.355 . S
C595 C597 1.415 . S
C596 C595 1.355 . S
C596 C598 1.419 . S
C597 C592 1.425 . S
C597 C594 1.409 . S
C597 C595 1.415 . S
C598 H588 0.930 . S
C598 C596 1.419 . S
C598 C599 1.362 . S
C599 H589 0.930 . S
C599 C592 1.409 . S
C599 C598 1.362 . S
H600 C606 0.930 . S
H601 C609 0.930 . S
H602 C610 0.930 . S
H603 C611 0.930 . S
H604 C614 0.930 . S
H605 C615 0.930 . S
C606 H600 0.930 . S
C606 C607 1.355 . S
C606 C608 1.415 . S
C607 C606 1.355 . S
C607 C609 1.419 . S
C608 C606 1.415 . S
C608 C613 1.425 . S
C608 C615 1.409 . S
C609 H601 0.930 . S
C609 C607 1.419 . S
C609 C610 1.362 . S
C610 H602 0.930 . S
C610 C609 1.362 . S
C610 C613 1.409 . S
C611 H603 0.930 . S
C611 C612 1.355 . S
C611 C613 1.415 . S
C612 C611 1.355 . S
C612 C614 1.419 . S
C613 C608 1.425 . S
C613 C610 1.409 . S
C613 C611 1.415 . S
C614 H604 0.930 . S
C614 C612 1.419 . S
C614 C615 1.362 . S
C615 H605 0.930 . S
C615 C608 1.409 . S
C615 C614 1.362 . S
H616 C622 0.930 . S
H617 C625 0.930 . S
H618 C626 0.930 . S
H619 C627 0.930 . S
H620 C630 0.926 1_655 S
H621 C631 0.930 . S
C622 H616 0.930 . S
C622 C623 1.355 . S
C622 C624 1.415 . S
C623 C622 1.355 . S
C623 C625 1.419 . S
C624 C622 1.415 . S
C624 C629 1.425 1_655 S
C624 C631 1.409 . S
C625 H617 0.930 . S
C625 C623 1.419 . S
C625 C626 1.362 1_655 S
C626 H618 0.930 . S
C626 C625 1.362 1_455 S
C626 C629 1.409 . S
C627 H619 0.930 . S
C627 C628 1.355 . S
C627 C629 1.415 . S
C628 C627 1.355 . S
C628 C630 1.437 . S
C629 C624 1.425 1_455 S
C629 C626 1.409 . S
C629 C627 1.415 . S
C630 H620 0.926 1_455 S
C630 C628 1.437 . S
C630 C631 1.349 1_455 S
C631 H621 0.930 . S
C631 C624 1.409 . S
C631 C630 1.349 1_655 S
H632 C638 0.930 . S
H633 C641 0.930 . S
H634 C642 0.930 . S
H635 C643 0.930 . S
H636 C646 0.930 . S
H637 C647 0.930 . S
C638 H632 0.930 . S
C638 C639 1.355 1_545 S
C638 C640 1.415 . S
C639 C638 1.355 1_565 S
C639 C641 1.419 . S
C640 C638 1.415 . S
C640 C645 1.425 1_545 S
C640 C647 1.409 . S
C641 H633 0.930 . S
C641 C639 1.419 . S
C641 C642 1.362 . S
C642 H634 0.930 . S
C642 C641 1.362 . S
C642 C645 1.409 . S
C643 H635 0.930 . S
C643 C644 1.355 1_565 S
C643 C645 1.415 . S
C644 C643 1.355 1_545 S
C644 C646 1.419 . S
C645 C640 1.425 1_565 S
C645 C642 1.409 . S
C645 C643 1.415 . S
C646 H636 0.930 . S
C646 C644 1.419 . S
C646 C647 1.362 . S
C647 H637 0.930 . S
C647 C640 1.409 . S
C647 C646 1.362 . S
H648 C654 0.930 . S
H649 C657 0.930 . S
H650 C658 0.930 . S
H651 C659 0.930 . S
H652 C662 0.930 1_556 S
H653 C663 0.930 . S
C654 H648 0.930 . S
C654 C655 1.355 . S
C654 C656 1.415 . S
C655 C654 1.355 . S
C655 C657 1.419 . S
C656 C654 1.415 . S
C656 C661 1.425 . S
C656 C663 1.409 . S
C657 H649 0.930 . S
C657 C655 1.419 . S
C657 C658 1.362 . S
C658 H650 0.930 . S
C658 C657 1.362 . S
C658 C661 1.409 . S
C659 H651 0.930 . S
C659 C660 1.355 . S
C659 C661 1.415 . S
C660 C659 1.355 . S
C660 C662 1.419 . S
C661 C656 1.425 . S
C661 C658 1.409 . S
C661 C659 1.415 . S
C662 H652 0.930 1_554 S
C662 C660 1.419 . S
C662 C663 1.362 . S
C663 H653 0.930 . S
C663 C656 1.409 . S
C663 C662 1.362 . S
H664 C670 0.930 . S
H665 C673 0.930 . S
H666 C674 0.930 . S
H667 C675 0.918 1_556 S
H668 C678 0.930 . S
H669 C679 0.930 . S
C670 H664 0.930 . S
C670 C671 1.355 . S
C670 C672 1.415 . S
C671 C670 1.355 . S
C671 C673 1.419 . S
C672 C670 1.415 . S
C672 C677 1.425 . S
C672 C679 1.409 . S
C673 H665 0.930 . S
C673 C671 1.419 . S
C673 C674 1.362 . S
C674 H666 0.930 . S
C674 C673 1.362 . S
C674 C677 1.409 . S
C675 H667 0.918 1_554 S
C675 C676 1.355 . S
C675 C677 1.415 . S
C676 C675 1.355 . S
C676 C678 1.419 . S
C677 C672 1.425 . S
C677 C674 1.409 . S
C677 C675 1.415 . S
C678 H668 0.930 . S
C678 C676 1.419 . S
C678 C679 1.362 . S
C679 H669 0.930 . S
C679 C672 1.409 . S
C679 C678 1.362 . S
H680 C686 0.930 . S
H681 C689 0.930 . S
H682 C690 0.930 . S
H683 C691 0.930 . S
H684 C694 0.930 . S
H685 C695 0.930 1_554 S
C686 H680 0.930 . S
C686 C687 1.355 . S
C686 C688 1.415 . S
C687 C686 1.355 . S
C687 C689 1.419 . S
C688 C686 1.415 . S
C688 C693 1.425 . S
C688 C695 1.409 . S
C689 H681 0.930 . S
C689 C687 1.419 . S
C689 C690 1.362 . S
C690 H682 0.930 . S
C690 C689 1.362 . S
C690 C693 1.409 . S
C691 H683 0.930 . S
C691 C692 1.355 . S
C691 C693 1.415 . S
C692 C691 1.355 . S
C692 C694 1.419 . S
C693 C688 1.425 . S
C693 C690 1.409 . S
C693 C691 1.415 . S
C694 H684 0.930 . S
C694 C692 1.419 . S
C694 C695 1.362 . S
C695 H685 0.930 1_556 S
C695 C688 1.409 . S
C695 C694 1.362 . S
H696 C702 0.930 . S
H697 C705 0.930 . S
H698 C706 0.930 . S
H699 C707 0.930 . S
H700 C710 0.930 . S
H701 C711 0.930 1_554 S
C702 H696 0.930 . S
C702 C703 1.355 . S
C702 C704 1.415 . S
C703 C702 1.355 . S
C703 C705 1.419 . S
C704 C702 1.415 . S
C704 C709 1.425 . S
C704 C711 1.409 . S
C705 H697 0.930 . S
C705 C703 1.419 . S
C705 C706 1.362 . S
C706 H698 0.930 . S
C706 C705 1.362 . S
C706 C709 1.409 . S
C707 H699 0.930 . S
C707 C708 1.355 . S
C707 C709 1.415 . S
C708 C707 1.355 . S
C708 C710 1.419 . S
C709 C704 1.425 . S
C709 C706 1.409 . S
C709 C707 1.415 . S
C710 H700 0.930 . S
C710 C708 1.419 . S
C710 C711 1.362 . S
C711 H701 0.930 1_556 S
C711 C704 1.409 . S
C711 C710 1.362 . S
H712 C718 0.930 . S
H713 C721 0.930 . S
H714 C722 0.930 . S
H715 C723 0.930 . S
H716 C726 0.930 . S
H717 C727 0.930 1_554 S
C718 H712 0.930 . S
C718 C719 1.355 . S
C718 C720 1.415 . S
C719 C718 1.355 . S
C719 C721 1.419 . S
C720 C718 1.415 . S
C720 C725 1.425 . S
C720 C727 1.409 . S
C721 H713 0.930 . S
C721 C719 1.419 . S
C721 C722 1.362 . S
C722 H714 0.930 . S
C722 C721 1.362 . S
C722 C725 1.409 . S
C723 H715 0.930 . S
C723 C724 1.355 . S
C723 C725 1.415 . S
C724 C723 1.355 . S
C724 C726 1.419 . S
C725 C720 1.425 . S
C725 C722 1.409 . S
C725 C723 1.415 . S
C726 H716 0.930 . S
C726 C724 1.419 . S
C726 C727 1.362 . S
C727 H717 0.930 1_556 S
C727 C720 1.409 . S
C727 C726 1.362 . S
H728 C734 0.930 . S
H729 C737 0.930 1_554 S
H730 C738 0.930 1_554 S
H731 C739 0.930 . S
H732 C742 0.930 . S
H733 C743 0.930 . S
C734 H728 0.930 . S
C734 C735 1.355 . S
C734 C736 1.415 . S
C735 C734 1.355 . S
C735 C737 1.419 . S
C736 C734 1.415 . S
C736 C741 1.425 . S
C736 C743 1.409 . S
C737 H729 0.930 1_556 S
C737 C735 1.419 . S
C737 C738 1.362 . S
C738 H730 0.930 1_556 S
C738 C737 1.362 . S
C738 C741 1.409 . S
C739 H731 0.930 . S
C739 C740 1.355 . S
C739 C741 1.415 . S
C740 C739 1.355 . S
C740 C742 1.419 . S
C741 C736 1.425 . S
C741 C738 1.409 . S
C741 C739 1.415 . S
C742 H732 0.930 . S
C742 C740 1.419 . S
C742 C743 1.362 . S
C743 H733 0.930 . S
C743 C736 1.409 . S
C743 C742 1.362 . S
H744 C750 0.930 1_455 S
H745 C753 0.930 . S
H746 C754 0.930 . S
H747 C755 0.930 . S
H748 C758 0.930 . S
H749 C759 0.930 . S
C750 H744 0.930 1_655 S
C750 C751 1.355 . S
C750 C752 1.415 . S
C751 C750 1.355 . S
C751 C753 1.419 . S
C752 C750 1.415 . S
C752 C757 1.425 . S
C752 C759 1.409 1_655 S
C753 H745 0.930 . S
C753 C751 1.419 . S
C753 C754 1.362 . S
C754 H746 0.930 . S
C754 C753 1.362 . S
C754 C757 1.409 . S
C755 H747 0.930 . S
C755 C756 1.355 . S
C755 C757 1.415 . S
C756 C755 1.355 . S
C756 C758 1.419 1_655 S
C757 C752 1.425 . S
C757 C754 1.409 . S
C757 C755 1.415 . S
C758 H748 0.930 . S
C758 C756 1.419 1_455 S
C758 C759 1.362 . S
C759 H749 0.930 . S
C759 C752 1.409 1_455 S
C759 C758 1.362 . S
H760 C766 0.930 . S
H761 C769 0.930 . S
H762 C770 0.930 . S
H763 C771 0.930 . S
H764 C774 0.930 . S
H765 C775 0.930 . S
C766 H760 0.930 . S
C766 C767 1.355 . S
C766 C768 1.415 . S
C767 C766 1.355 . S
C767 C769 1.419 1_565 S
C768 C766 1.415 . S
C768 C773 1.425 1_565 S
C768 C775 1.409 . S
C769 H761 0.930 . S
C769 C767 1.419 1_545 S
C769 C770 1.362 . S
C770 H762 0.930 . S
C770 C769 1.362 . S
C770 C773 1.409 . S
C771 H763 0.930 . S
C771 C772 1.355 1_545 S
C771 C773 1.415 . S
C772 C771 1.355 1_565 S
C772 C774 1.419 . S
C773 C768 1.425 1_545 S
C773 C770 1.409 . S
C773 C771 1.415 . S
C774 H764 0.930 . S
C774 C772 1.419 . S
C774 C775 1.362 . S
C775 H765 0.930 . S
C775 C768 1.409 . S
C775 C774 1.362 . S
H776 C782 0.930 . S
H777 C785 0.930 . S
H778 C786 0.930 . S
H779 C787 0.930 . S
H780 C790 0.930 . S
H781 C791 0.930 . S
C782 H776 0.930 . S
C782 C783 1.355 . S
C782 C784 1.415 . S
C783 C782 1.355 . S
C783 C785 1.419 . S
C784 C782 1.415 . S
C784 C789 1.425 . S
C784 C791 1.409 . S
C785 H777 0.930 . S
C785 C783 1.419 . S
C785 C786 1.362 . S
C786 H778 0.930 . S
C786 C785 1.362 . S
C786 C789 1.409 . S
C787 H779 0.930 . S
C787 C788 1.355 . S
C787 C789 1.415 . S
C788 C787 1.355 . S
C788 C790 1.419 . S
C789 C784 1.425 . S
C789 C786 1.409 . S
C789 C787 1.415 . S
C790 H780 0.930 . S
C790 C788 1.419 . S
C790 C791 1.362 . S
C791 H781 0.930 . S
C791 C784 1.409 . S
C791 C790 1.362 . S
H792 C798 0.930 . S
H793 C801 0.930 . S
H794 C802 0.930 . S
H795 C803 0.930 . S
H796 C806 0.930 . S
H797 C807 0.930 . S
C798 H792 0.930 . S
C798 C799 1.355 . S
C798 C800 1.415 . S
C799 C798 1.355 . S
C799 C801 1.419 . S
C800 C798 1.415 . S
C800 C805 1.425 . S
C800 C807 1.409 . S
C801 H793 0.930 . S
C801 C799 1.419 . S
C801 C802 1.362 . S
C802 H794 0.930 . S
C802 C801 1.362 . S
C802 C805 1.409 . S
C803 H795 0.930 . S
C803 C804 1.355 . S
C803 C805 1.415 . S
C804 C803 1.355 . S
C804 C806 1.419 . S
C805 C800 1.425 . S
C805 C802 1.409 . S
C805 C803 1.415 . S
C806 H796 0.930 . S
C806 C804 1.419 . S
C806 C807 1.362 . S
C807 H797 0.930 . S
C807 C800 1.409 . S
C807 C806 1.362 . S
C431 C76 1.877 . S
C436 C151 2.056 . S
C452 C228 2.066 . S
C447 C87 1.892 . S
C468 C319 2.055 . S
C463 C54 1.870 . S
C484 C403 2.043 . S
C479 C65 1.862 . S
C500 C162 2.074 1_565 S
C495 C32 1.893 . S
C511 C43 1.883 . S
C516 C239 2.063 . S
C527 C10 1.880 . S
C532 C330 2.050 . S
C543 C21 1.866 . S
C548 C414 2.048 1_655 S
C564 C146 0.665 . S
C559 C60 0.723 . S
C580 C241 0.564 . S
C575 C71 0.679 . S
C596 C314 0.725 . S
C591 C82 0.703 . S
C607 C49 0.707 . S
C612 C398 0.615 . S
C623 C16 0.711 . S
C628 C157 0.713 . S
C644 C230 0.611 . S
C639 C27 0.712 . S
C660 C325 0.664 . S
C655 C38 0.588 . S
C671 C5 0.720 . S
C676 C409 0.638 . S
C687 C59 1.998 . S
C692 C155 2.190 . S
C703 C70 2.000 . S
C708 C246 2.195 . S
C724 C323 2.208 . S
C719 C81 2.016 . S
C740 C407 2.182 . S
C735 C48 1.934 . S
C751 C15 1.940 . S
C756 C144 2.170 . S
C772 C235 2.208 1_565 S
C767 C26 1.955 . S
C788 C312 2.186 . S
C783 C37 1.954 . S
C799 C4 2.009 . S
C804 C396 2.210 . S
