# Generated by pormake.
# Topology pyr, (3,6)-cn, num edge types: 1
# Building blocks:
#     Node 0, Type 0, BuildingBlock: MIDCAF_clean_linker_0, # of connection points: 3
#     Node 1, Type 0, BuildingBlock: MIDCAF_clean_linker_0, # of connection points: 3
#     Node 2, Type 0, BuildingBlock: MIDCAF_clean_linker_0, # of connection points: 3
#     Node 3, Type 0, BuildingBlock: MIDCAF_clean_linker_0, # of connection points: 3
#     Node 4, Type 0, BuildingBlock: MIDCAF_clean_linker_0, # of connection points: 3
#     Node 5, Type 0, BuildingBlock: MIDCAF_clean_linker_0, # of connection points: 3
#     Node 6, Type 0, BuildingBlock: MIDCAF_clean_linker_0, # of connection points: 3
#     Node 7, Type 0, BuildingBlock: MIDCAF_clean_linker_0, # of connection points: 3
#     Node 8, Type 1, BuildingBlock: FUNLAD_clean_sbu_0, # of connection points: 6
#     Node 9, Type 1, BuildingBlock: FUNLAD_clean_sbu_0, # of connection points: 6
#     Node 10, Type 1, BuildingBlock: FUNLAD_clean_sbu_0, # of connection points: 6
#     Node 11, Type 1, BuildingBlock: FUNLAD_clean_sbu_0, # of connection points: 6
#     Edge 12, Type (0, 1), BuildingBlock: ZUJKAS_clean_linker_0, # of connection points: 2
#     Edge 13, Type (0, 1), BuildingBlock: ZUJKAS_clean_linker_0, # of connection points: 2
#     Edge 14, Type (0, 1), BuildingBlock: ZUJKAS_clean_linker_0, # of connection points: 2
#     Edge 15, Type (0, 1), BuildingBlock: ZUJKAS_clean_linker_0, # of connection points: 2
#     Edge 16, Type (0, 1), BuildingBlock: ZUJKAS_clean_linker_0, # of connection points: 2
#     Edge 17, Type (0, 1), BuildingBlock: ZUJKAS_clean_linker_0, # of connection points: 2
#     Edge 18, Type (0, 1), BuildingBlock: ZUJKAS_clean_linker_0, # of connection points: 2
#     Edge 19, Type (0, 1), BuildingBlock: ZUJKAS_clean_linker_0, # of connection points: 2
#     Edge 20, Type (0, 1), BuildingBlock: ZUJKAS_clean_linker_0, # of connection points: 2
#     Edge 21, Type (0, 1), BuildingBlock: ZUJKAS_clean_linker_0, # of connection points: 2
#     Edge 22, Type (0, 1), BuildingBlock: ZUJKAS_clean_linker_0, # of connection points: 2
#     Edge 23, Type (0, 1), BuildingBlock: ZUJKAS_clean_linker_0, # of connection points: 2
#     Edge 24, Type (0, 1), BuildingBlock: ZUJKAS_clean_linker_0, # of connection points: 2
#     Edge 25, Type (0, 1), BuildingBlock: ZUJKAS_clean_linker_0, # of connection points: 2
#     Edge 26, Type (0, 1), BuildingBlock: ZUJKAS_clean_linker_0, # of connection points: 2
#     Edge 27, Type (0, 1), BuildingBlock: ZUJKAS_clean_linker_0, # of connection points: 2
#     Edge 28, Type (0, 1), BuildingBlock: ZUJKAS_clean_linker_0, # of connection points: 2
#     Edge 29, Type (0, 1), BuildingBlock: ZUJKAS_clean_linker_0, # of connection points: 2
#     Edge 30, Type (0, 1), BuildingBlock: ZUJKAS_clean_linker_0, # of connection points: 2
#     Edge 31, Type (0, 1), BuildingBlock: ZUJKAS_clean_linker_0, # of connection points: 2
#     Edge 32, Type (0, 1), BuildingBlock: ZUJKAS_clean_linker_0, # of connection points: 2
#     Edge 33, Type (0, 1), BuildingBlock: ZUJKAS_clean_linker_0, # of connection points: 2
#     Edge 34, Type (0, 1), BuildingBlock: ZUJKAS_clean_linker_0, # of connection points: 2
#     Edge 35, Type (0, 1), BuildingBlock: ZUJKAS_clean_linker_0, # of connection points: 2
# Relax obj value: 0.039
# Max RMSD: 0.057
# Mean RMSD: 0.023
data_MOF--net-pry--node1-FUNLAD_clean_sbu_0--node2-MIDCAF_clean_linker_0--edge1-ZUJKAS_clean_linker_0
_symmetry_space_group_name_H-M    P1
_symmetry_Int_Tables_number       1
_symmetry_cell_setting            triclinic
loop_
_symmetry_equiv_pos_as_xyz
'x, y, z'
_cell_length_a     54.78963
_cell_length_b     57.337969
_cell_length_c     57.715825
_cell_angle_alpha  90.085177
_cell_angle_beta   90.123622
_cell_angle_gamma 86.653035
loop_
_atom_site_label
_atom_site_type_symbol
_atom_site_fract_x
_atom_site_fract_y
_atom_site_fract_z
_atom_type_partial_charge
C0 C 0.10953 0.1495 0.2505 0.0
C1 C 0.11745 0.12667 0.25724 0.0
C2 C 0.13451 0.11416 0.24305 0.0
C3 C 0.14363 0.12422 0.22301 0.0
H4 H 0.20486 0.11914 0.18064 0.0
H5 H 0.2416 0.1015 0.1625 0.0
H6 H 0.23233 0.14979 0.10534 0.0
H7 H 0.19609 0.16782 0.1237 0.0
H8 H 0.15717 0.20806 0.12576 0.0
H9 H 0.13953 0.24369 0.10853 0.0
H10 H 0.0892 0.25236 0.1658 0.0
H11 H 0.10658 0.21612 0.18299 0.0
H12 H 0.11212 0.17717 0.2258 0.0
H13 H 0.09669 0.15987 0.26106 0.0
H14 H 0.14071 0.09639 0.24725 0.0
H15 H 0.15673 0.11392 0.21265 0.0
N16 N 0.16587 0.14714 0.1845 0.0
N17 N 0.1646 0.1763 0.15612 0.0
N18 N 0.13542 0.17776 0.18588 0.0
C19 C 0.17538 0.15636 0.16505 0.0
C20 C 0.14467 0.18717 0.1663 0.0
C21 C 0.1459 0.15764 0.19505 0.0
C22 C 0.19744 0.14502 0.15374 0.0
C23 C 0.21061 0.126 0.16419 0.0
C24 C 0.23166 0.11577 0.1537 0.0
C25 C 0.24008 0.12422 0.13244 0.0
C26 C 0.22673 0.14306 0.1219 0.0
C27 C 0.20577 0.15334 0.13241 0.0
C28 C 0.13342 0.20909 0.15591 0.0
C29 C 0.14235 0.21746 0.13482 0.0
C30 C 0.13229 0.23809 0.12492 0.0
C31 C 0.11302 0.25113 0.1358 0.0
C32 C 0.10388 0.24271 0.1568 0.0
C33 C 0.11395 0.22195 0.16674 0.0
C34 C 0.13581 0.14705 0.21633 0.0
C35 C 0.11851 0.15952 0.23028 0.0
C36 C 0.27818 0.90082 0.65394 0.0
C37 C 0.26971 0.89246 0.63261 0.0
C38 C 0.28307 0.87375 0.62188 0.0
C39 C 0.30416 0.86354 0.63226 0.0
H40 H 0.3511 0.80753 0.62668 0.0
H41 H 0.36944 0.77258 0.60868 0.0
H42 H 0.42648 0.76938 0.66052 0.0
H43 H 0.40777 0.8044 0.67903 0.0
H44 H 0.40291 0.84262 0.722 0.0
H45 H 0.41935 0.86049 0.75673 0.0
H46 H 0.36649 0.91889 0.74959 0.0
H47 H 0.35025 0.90134 0.71491 0.0
H48 H 0.3052 0.89747 0.68078 0.0
H49 H 0.26822 0.91499 0.66287 0.0
H50 H 0.2774 0.8671 0.60527 0.0
H51 H 0.31389 0.84918 0.62338 0.0
N52 N 0.34598 0.84105 0.65539 0.0
N53 N 0.37578 0.84003 0.6847 0.0
N54 N 0.34456 0.86995 0.68409 0.0
C55 C 0.36634 0.83054 0.66519 0.0
C56 C 0.36497 0.85981 0.69426 0.0
C57 C 0.33494 0.8607 0.66466 0.0
C58 C 0.37792 0.80898 0.65438 0.0
C59 C 0.36757 0.79951 0.63436 0.0
C60 C 0.37821 0.77944 0.62386 0.0
C61 C 0.39958 0.76817 0.63298 0.0
C62 C 0.40992 0.77748 0.6531 0.0
C63 C 0.39924 0.79766 0.66366 0.0
C64 C 0.37521 0.87047 0.71551 0.0
C65 C 0.3948 0.85929 0.72778 0.0
C66 C 0.40416 0.86948 0.74781 0.0
C67 C 0.3943 0.89118 0.75596 0.0
C68 C 0.37477 0.90234 0.74366 0.0
C69 C 0.36534 0.89213 0.72378 0.0
C70 C 0.31259 0.87181 0.65362 0.0
C71 C 0.29936 0.89065 0.66429 0.0
C72 C 0.59619 0.35275 0.97758 0.0
C73 C 0.57401 0.34536 0.96869 0.0
C74 C 0.55967 0.36064 0.95453 0.0
C75 C 0.56809 0.3822 0.94812 0.0
H76 H 0.56019 0.42611 0.89341 0.0
H77 H 0.54754 0.43532 0.85388 0.0
H78 H 0.61108 0.47552 0.84495 0.0
H79 H 0.62404 0.46613 0.88439 0.0
H80 H 0.66647 0.46044 0.91895 0.0
H81 H 0.70762 0.46915 0.93 0.0
H82 H 0.69884 0.434 0.99542 0.0
H83 H 0.65777 0.42442 0.98392 0.0
H84 H 0.62225 0.3791 0.97761 0.0
H85 H 0.60744 0.34146 0.98882 0.0
H86 H 0.54256 0.35541 0.94731 0.0
H87 H 0.55704 0.39309 0.93635 0.0
N88 N 0.59182 0.41948 0.92607 0.0
N89 N 0.62428 0.44406 0.92312 0.0
N90 N 0.62321 0.41734 0.95378 0.0
C91 C 0.60288 0.43668 0.91475 0.0
C92 C 0.63448 0.43464 0.9427 0.0
C93 C 0.60178 0.40975 0.9456 0.0
C94 C 0.59333 0.4451 0.89204 0.0
C95 C 0.57135 0.43716 0.88317 0.0
C96 C 0.564 0.44253 0.86053 0.0
C97 C 0.57847 0.45591 0.84625 0.0
C98 C 0.59978 0.46484 0.85546 0.0
C99 C 0.6071 0.45955 0.87813 0.0
C100 C 0.65878 0.44162 0.9505 0.0
C101 C 0.67316 0.4547 0.9358 0.0
C102 C 0.69681 0.45983 0.94221 0.0
C103 C 0.70665 0.45228 0.96362 0.0
C104 C 0.69203 0.43975 0.97863 0.0
C105 C 0.6684 0.43438 0.9721 0.0
C106 C 0.59102 0.38899 0.95577 0.0
C107 C 0.60458 0.3744 0.97126 0.0
C108 C 0.81815 0.5767 0.48108 0.0
C109 C 0.80329 0.56396 0.46639 0.0
C110 C 0.81285 0.55599 0.44502 0.0
C111 C 0.83642 0.56104 0.43829 0.0
H112 H 0.88931 0.54425 0.38948 0.0
H113 H 0.90249 0.53312 0.35051 0.0
H114 H 0.95882 0.58273 0.35397 0.0
H115 H 0.94627 0.59332 0.39298 0.0
H116 H 0.9518 0.62388 0.4373 0.0
H117 H 0.96584 0.66208 0.44716 0.0
H118 H 0.90023 0.67725 0.48707 0.0
H119 H 0.88587 0.63905 0.47697 0.0
H120 H 0.85244 0.59214 0.48582 0.0
H121 H 0.81159 0.58274 0.49786 0.0
H122 H 0.80186 0.54647 0.43306 0.0
H123 H 0.8429 0.55504 0.42147 0.0
N124 N 0.88543 0.5715 0.42527 0.0
N125 N 0.91728 0.59689 0.4274 0.0
N126 N 0.88594 0.59947 0.45498 0.0
C127 C 0.90664 0.57902 0.41668 0.0
C128 C 0.90715 0.60719 0.44655 0.0
C129 C 0.87506 0.5815 0.44452 0.0
C130 C 0.91651 0.5699 0.39433 0.0
C131 C 0.90476 0.55252 0.38209 0.0
C132 C 0.91221 0.54623 0.35967 0.0
C133 C 0.93153 0.55722 0.34899 0.0
C134 C 0.94403 0.57373 0.3617 0.0
C135 C 0.93668 0.57994 0.3841 0.0
C136 C 0.91751 0.62851 0.45604 0.0
C137 C 0.94048 0.63516 0.44849 0.0
C138 C 0.94865 0.65703 0.45427 0.0
C139 C 0.93401 0.67276 0.46767 0.0
C140 C 0.91172 0.66559 0.47642 0.0
C141 C 0.90359 0.64363 0.47074 0.0
C142 C 0.85096 0.57442 0.45265 0.0
C143 C 0.84166 0.58197 0.47424 0.0
C144 C 0.77907 0.90123 0.86124 0.0
C145 C 0.77081 0.89298 0.88264 0.0
C146 C 0.78426 0.87427 0.89328 0.0
C147 C 0.8052 0.86396 0.88277 0.0
H148 H 0.85423 0.80987 0.89009 0.0
H149 H 0.87207 0.77457 0.90778 0.0
H150 H 0.92288 0.76573 0.85089 0.0
H151 H 0.90527 0.80166 0.83323 0.0
H152 H 0.90264 0.84202 0.79219 0.0
H153 H 0.91887 0.85968 0.75737 0.0
H154 H 0.86669 0.91856 0.76493 0.0
H155 H 0.85066 0.9012 0.79969 0.0
H156 H 0.80578 0.8977 0.83421 0.0
H157 H 0.76905 0.9154 0.85236 0.0
H158 H 0.77878 0.86769 0.90994 0.0
H159 H 0.81499 0.8496 0.8916 0.0
N160 N 0.84661 0.84116 0.85935 0.0
N161 N 0.87596 0.83974 0.82974 0.0
N162 N 0.84503 0.86994 0.8306 0.0
C163 C 0.86673 0.83042 0.84938 0.0
C164 C 0.86521 0.85959 0.82026 0.0
C165 C 0.83559 0.86085 0.85014 0.0
C166 C 0.87818 0.80874 0.86008 0.0
C167 C 0.8692 0.80051 0.88122 0.0
C168 C 0.87937 0.78006 0.89137 0.0
C169 C 0.89882 0.76707 0.88073 0.0
C170 C 0.90805 0.77536 0.85971 0.0
C171 C 0.89785 0.79594 0.84951 0.0
C172 C 0.87529 0.87011 0.79891 0.0
C173 C 0.89463 0.85875 0.78648 0.0
C174 C 0.90387 0.86882 0.7664 0.0
C175 C 0.89416 0.89061 0.75833 0.0
C176 C 0.87488 0.90194 0.77078 0.0
C177 C 0.86555 0.89184 0.79071 0.0
C178 C 0.81342 0.87212 0.86134 0.0
C179 C 0.80011 0.89097 0.85075 0.0
C180 C 0.6388 0.11849 0.26792 0.0
C181 C 0.61646 0.12694 0.2582 0.0
C182 C 0.60352 0.14582 0.26912 0.0
C183 C 0.6128 0.15607 0.28914 0.0
H184 H 0.598 0.2086 0.34088 0.0
H185 H 0.57956 0.24428 0.35857 0.0
H186 H 0.64598 0.25282 0.39721 0.0
H187 H 0.66436 0.21742 0.37974 0.0
H188 H 0.69971 0.17307 0.38791 0.0
H189 H 0.73613 0.15518 0.40625 0.0
H190 H 0.73877 0.10024 0.35489 0.0
H191 H 0.70251 0.11835 0.33618 0.0
H192 H 0.66527 0.12151 0.29482 0.0
H193 H 0.64911 0.10379 0.26018 0.0
H194 H 0.58635 0.15291 0.262 0.0
H195 H 0.60238 0.17064 0.29698 0.0
N196 N 0.63445 0.17823 0.32944 0.0
N197 N 0.66468 0.17803 0.35833 0.0
N198 N 0.66589 0.14855 0.33019 0.0
C199 C 0.64412 0.18819 0.34858 0.0
C200 C 0.67567 0.15819 0.34936 0.0
C201 C 0.64532 0.1584 0.32006 0.0
C202 C 0.63269 0.21004 0.35885 0.0
C203 C 0.60869 0.21812 0.3531 0.0
C204 C 0.59807 0.23848 0.36333 0.0
C205 C 0.61133 0.25141 0.37926 0.0
C206 C 0.63535 0.24342 0.38483 0.0
C207 C 0.64583 0.22298 0.37488 0.0
C208 C 0.69804 0.1472 0.3605 0.0
C209 C 0.70799 0.15718 0.38044 0.0
C210 C 0.72886 0.14682 0.3911 0.0
C211 C 0.74039 0.1262 0.38213 0.0
C212 C 0.73053 0.11626 0.36214 0.0
C213 C 0.70962 0.1266 0.35147 0.0
C214 C 0.63519 0.1476 0.29884 0.0
C215 C 0.648 0.12861 0.28795 0.0
C216 C 0.31818 0.55359 0.07278 0.0
C217 C 0.30597 0.56512 0.05428 0.0
C218 C 0.31868 0.58064 0.04065 0.0
C219 C 0.34285 0.58521 0.04595 0.0
H220 H 0.3896 0.63847 0.04003 0.0
H221 H 0.40359 0.67681 0.03019 0.0
H222 H 0.47037 0.66123 0.06846 0.0
H223 H 0.4567 0.62287 0.07804 0.0
H224 H 0.45271 0.59119 0.1217 0.0
H225 H 0.46639 0.57953 0.16016 0.0
H226 H 0.41161 0.52833 0.16246 0.0
H227 H 0.39731 0.5405 0.12411 0.0
H228 H 0.351 0.54913 0.09268 0.0
H229 H 0.30895 0.54125 0.08336 0.0
H230 H 0.30968 0.58987 0.02634 0.0
H231 H 0.35189 0.59773 0.03545 0.0
N232 N 0.39007 0.59893 0.06172 0.0
N233 N 0.42297 0.5951 0.08768 0.0
N234 N 0.39103 0.56988 0.09033 0.0
C235 C 0.41185 0.60615 0.06939 0.0
C236 C 0.41277 0.57692 0.09822 0.0
C237 C 0.37961 0.58067 0.07199 0.0
C238 C 0.42185 0.62769 0.06013 0.0
C239 C 0.40748 0.643 0.04597 0.0
C240 C 0.41541 0.66504 0.04044 0.0
C241 C 0.43793 0.67212 0.04879 0.0
C242 C 0.45298 0.65625 0.06166 0.0
C243 C 0.44503 0.63429 0.06728 0.0
C244 C 0.42361 0.56706 0.11989 0.0
C245 C 0.44374 0.57721 0.13019 0.0
C246 C 0.45173 0.5704 0.15227 0.0
C247 C 0.43992 0.55317 0.16453 0.0
C248 C 0.42077 0.54201 0.15366 0.0
C249 C 0.41267 0.5489 0.1316 0.0
C250 C 0.35486 0.57422 0.06493 0.0
C251 C 0.34236 0.55802 0.078 0.0
C252 C 0.09165 0.35306 0.5449 0.0
C253 C 0.06829 0.34768 0.55261 0.0
C254 C 0.05377 0.36497 0.56423 0.0
C255 C 0.06299 0.38654 0.56943 0.0
H256 H 0.05916 0.42854 0.62529 0.0
H257 H 0.04695 0.44019 0.66412 0.0
H258 H 0.10488 0.48816 0.66658 0.0
H259 H 0.1177 0.47597 0.62781 0.0
H260 H 0.16382 0.46314 0.5963 0.0
H261 H 0.20488 0.47107 0.58438 0.0
H262 H 0.1943 0.43429 0.52001 0.0
H263 H 0.15336 0.42548 0.53243 0.0
H264 H 0.11932 0.3779 0.54474 0.0
H265 H 0.1034 0.34011 0.53604 0.0
H266 H 0.03548 0.36159 0.56992 0.0
H267 H 0.05161 0.39912 0.57919 0.0
N268 N 0.08811 0.42348 0.59093 0.0
N269 N 0.12081 0.4479 0.59262 0.0
N270 N 0.11955 0.41936 0.56351 0.0
C271 C 0.09931 0.44121 0.60132 0.0
C272 C 0.13096 0.43721 0.57362 0.0
C273 C 0.098 0.4125 0.57204 0.0
C274 C 0.08968 0.45104 0.62347 0.0
C275 C 0.06918 0.4418 0.63391 0.0
C276 C 0.06202 0.44861 0.6562 0.0
C277 C 0.07507 0.46496 0.66858 0.0
C278 C 0.09473 0.47519 0.65768 0.0
C279 C 0.10198 0.46829 0.63537 0.0
C280 C 0.15527 0.44358 0.56537 0.0
C281 C 0.17011 0.45687 0.57951 0.0
C282 C 0.19371 0.46155 0.57259 0.0
C283 C 0.20302 0.45334 0.5512 0.0
C284 C 0.18793 0.44055 0.53677 0.0
C285 C 0.16437 0.43562 0.54383 0.0
C286 C 0.08689 0.3914 0.56298 0.0
C287 C 0.10082 0.37475 0.54995 0.0
C288 C 0.02558 0.0234 0.46653 0.0
N289 N 0.0133 0.05818 0.52946 0.0
C290 C 0.03568 0.06644 0.52548 0.0
C291 C 0.04 0.08963 0.53027 0.0
C292 C 0.02108 0.1046 0.53911 0.0
C293 C 0.99853 0.09535 0.54427 0.0
C294 C 0.99499 0.07191 0.53922 0.0
Zn295 Zn 0.00716 0.02597 0.5164 0.0
C296 C 0.95947 0.02601 0.49118 0.0
N297 N 0.99637 0.95991 0.48572 0.0
C298 C 0.01473 0.94702 0.47506 0.0
C299 C 0.97435 0.95096 0.48983 0.0
C300 C 0.97044 0.92788 0.48405 0.0
C301 C 0.98937 0.9138 0.47392 0.0
C302 C 0.01159 0.92378 0.46897 0.0
Zn303 Zn 1.00227 0.99202 0.49903 0.0
O304 O 0.02303 0.03626 0.48443 0.0
C305 C 0.04993 0.99195 0.52425 0.0
O306 O 0.0186 1.00264 0.46734 0.0
H307 H 0.96008 0.96145 0.49849 0.0
H308 H 0.04995 0.0553 0.51759 0.0
H309 H 0.03209 0.95451 0.472 0.0
O310 O 0.04198 0.01272 0.52882 0.0
O311 O 0.03701 0.97917 0.51176 0.0
H312 H 0.97731 0.065 0.54212 0.0
O313 O 0.98617 0.9818 0.53098 0.0
O314 O 0.99105 0.01535 0.54814 0.0
O315 O 0.9675 1.00529 0.48645 0.0
O316 O 0.97232 0.03872 0.50383 0.0
C317 C 0.98384 0.99466 0.54893 0.0
H318 H 0.05778 0.09597 0.52642 0.0
H319 H 0.98344 0.10635 0.55101 0.0
H320 H 0.95314 0.92086 0.48852 0.0
H321 H 0.02656 0.91362 0.46092 0.0
C322 C 0.55057 0.99212 0.99041 0.0
N323 N 0.51317 0.05795 0.98541 0.0
C324 C 0.53528 0.06689 0.98921 0.0
C325 C 0.53905 0.09 0.98353 0.0
C326 C 0.51989 0.10413 0.97382 0.0
C327 C 0.49754 0.09417 0.96918 0.0
C328 C 0.49456 0.07089 0.97515 0.0
Zn329 Zn 0.50773 0.02578 0.99868 0.0
C330 C 0.48424 0.9942 0.96613 0.0
N331 N 0.49757 0.9596 0.02909 0.0
C332 C 0.51616 0.94704 0.03978 0.0
C333 C 0.47567 0.95032 0.02508 0.0
C334 C 0.47213 0.92723 0.03103 0.0
C335 C 0.49131 0.91349 0.04122 0.0
C336 C 0.51341 0.92381 0.04603 0.0
Zn337 Zn 0.5029 0.99175 0.01576 0.0
O338 O 0.54242 0.01283 0.98585 0.0
C339 C 0.52641 0.02327 0.04833 0.0
O340 O 0.53785 0.9793 1.003 0.0
H341 H 0.4612 0.96055 0.0164 0.0
H342 H 0.54975 0.05638 0.99758 0.0
H343 H 0.53342 0.95479 0.04277 0.0
O344 O 0.52416 0.03616 0.03045 0.0
O345 O 0.51901 1.00266 0.04744 0.0
H346 H 0.47713 0.06341 0.97232 0.0
O347 O 0.46801 1.00457 0.02828 0.0
O348 O 0.47297 0.03833 0.01173 0.0
O349 O 0.4869 0.98123 0.98391 0.0
O350 O 0.49117 0.01498 0.9671 0.0
C351 C 0.46005 0.0254 0.02401 0.0
H352 H 0.55644 0.09699 0.98777 0.0
H353 H 0.48238 0.1044 0.9615 0.0
H354 H 0.45491 0.91993 0.02667 0.0
H355 H 0.52856 0.91391 0.05411 0.0
C356 C 0.51794 0.46475 0.48985 0.0
N357 N 0.5153 0.49261 0.55753 0.0
C358 C 0.50821 0.4722 0.56663 0.0
C359 C 0.5125 0.46707 0.59003 0.0
C360 C 0.52397 0.48323 0.60406 0.0
C361 C 0.53159 0.50383 0.59402 0.0
C362 C 0.52709 0.50817 0.57065 0.0
Zn363 Zn 0.50712 0.50209 0.52428 0.0
C364 C 0.55008 0.52241 0.50142 0.0
N365 N 0.4906 0.52499 0.45565 0.0
C366 C 0.47744 0.5102 0.44287 0.0
C367 C 0.49915 0.54464 0.44617 0.0
C368 C 0.49497 0.54973 0.42276 0.0
C369 C 0.48168 0.53455 0.40916 0.0
C370 C 0.47266 0.51472 0.41956 0.0
Zn371 Zn 0.49876 0.51547 0.48891 0.0
O372 O 0.51851 0.46802 0.51166 0.0
C373 C 0.45581 0.49518 0.51197 0.0
O374 O 0.51043 0.48152 0.47679 0.0
H375 H 0.5096 0.55613 0.45666 0.0
H376 H 0.49881 0.46013 0.55586 0.0
H377 H 0.4711 0.49451 0.45061 0.0
O378 O 0.47103 0.49168 0.52841 0.0
O379 O 0.46263 0.50474 0.49342 0.0
H380 H 0.53266 0.52425 0.56308 0.0
O381 O 0.48731 0.54952 0.50147 0.0
O382 O 0.49552 0.53612 0.53633 0.0
O383 O 0.53496 0.52592 0.48489 0.0
O384 O 0.54315 0.51278 0.51989 0.0
C385 C 0.48802 0.55288 0.52326 0.0
H386 H 0.5063 0.45101 0.5972 0.0
H387 H 0.54088 0.51654 0.60417 0.0
H388 H 0.50213 0.56527 0.41535 0.0
H389 H 0.46268 0.50237 0.4096 0.0
C390 C 0.99189 0.55367 0.99177 0.0
N391 N 0.9919 0.5266 0.0597 0.0
C392 C 0.99989 0.54654 0.06916 0.0
C393 C 0.99466 0.55216 0.09227 0.0
C394 C 0.98089 0.53721 0.10558 0.0
C395 C 0.97251 0.51704 0.0952 0.0
C396 C 0.97834 0.51199 0.0722 0.0
Zn397 Zn 1.00133 0.5166 0.02686 0.0
C398 C 0.95928 0.49613 1.00246 0.0
N399 N 0.02051 0.49302 0.95901 0.0
C400 C 0.03435 0.50757 0.94674 0.0
C401 C 0.01213 0.4734 0.94923 0.0
C402 C 0.01716 0.46812 0.926 0.0
C403 C 0.03115 0.48307 0.91293 0.0
C404 C 0.04001 0.50285 0.92366 0.0
Zn405 Zn 0.01106 0.50293 0.99187 0.0
O406 O 0.99018 0.55046 0.01351 0.0
C407 C 0.05314 0.52334 0.01631 0.0
O408 O 1.00016 0.53687 0.97909 0.0
H409 H 1.00113 0.46209 0.95931 0.0
H410 H 0.01066 0.55788 0.05889 0.0
H411 H 0.04054 0.52326 0.9547 0.0
O412 O 0.03734 0.52723 0.03214 0.0
O413 O 0.04693 0.51341 0.99771 0.0
H414 H 0.97243 0.49608 0.06448 0.0
O415 O 0.02188 0.469 1.00514 0.0
O416 O 0.01254 0.48272 0.03968 0.0
O417 O 0.97496 0.49263 0.98646 0.0
O418 O 0.96555 0.50575 0.02121 0.0
C419 C 0.0205 0.46585 0.02692 0.0
H420 H 1.00133 0.56795 0.09967 0.0
H421 H 0.96218 0.50487 0.10497 0.0
H422 H 0.0101 0.45264 0.91831 0.0
H423 H 0.05051 0.51502 0.91407 0.0
H424 H 0.07121 0.13156 0.27611 0.0
H425 H 0.0564 0.11417 0.31169 0.0
H426 H 0.12709 0.07876 0.32245 0.0
H427 H 0.14247 0.09708 0.28776 0.0
H428 H 0.05153 0.06974 0.32373 0.0
H429 H 0.1161 0.10825 0.38477 0.0
H430 H 0.11286 0.11783 0.35512 0.0
H431 H 0.13146 0.09184 0.3621 0.0
C432 C 0.0838 0.12043 0.28623 0.0
C433 C 0.10816 0.11593 0.27895 0.0
C434 C 0.07519 0.11029 0.30651 0.0
C435 C 0.09069 0.0954 0.32007 0.0
C436 C 0.11487 0.09058 0.31268 0.0
H437 H 0.03829 1.0003 0.42606 0.0
H438 H 0.05434 0.01695 0.39048 0.0
C439 C 0.12355 0.10085 0.29253 0.0
C440 C 0.08143 0.08462 0.34165 0.0
H441 H 0.0927 0.07799 0.39964 0.0
C442 C 0.06049 0.07162 0.34034 0.0
C443 C 0.09287 0.08727 0.36347 0.0
C444 C 0.11441 0.10225 0.36655 0.0
C445 C 0.05086 0.06108 0.36008 0.0
C446 C 0.06283 0.06302 0.38173 0.0
C447 C 0.08365 0.07619 0.38306 0.0
C448 C 0.05355 0.05246 0.40344 0.0
C449 C 0.02753 0.04854 0.3576 0.0
C450 C 0.04857 0.0666 0.42295 0.0
C451 C 0.03983 0.05706 0.44341 0.0
C452 C 0.03574 0.03309 0.4449 0.0
C453 C 0.04103 0.01884 0.42546 0.0
C454 C 0.05002 0.0284 0.40502 0.0
H455 H 0.01711 0.0543 0.34188 0.0
H456 H 0.03208 0.0295 0.35595 0.0
H457 H 0.01557 0.05151 0.37295 0.0
H458 H 0.0512 0.08517 0.4223 0.0
H459 H 0.03598 0.0686 0.45799 0.0
H460 H 0.40797 0.87009 0.79708 0.0
H461 H 0.42291 0.88853 0.83227 0.0
H462 H 0.41819 0.9555 0.79818 0.0
H463 H 0.40313 0.93725 0.76304 0.0
H464 H 0.46342 0.91288 0.84012 0.0
H465 H 0.38036 0.97029 0.85697 0.0
H466 H 0.38081 0.94672 0.83619 0.0
H467 H 0.39307 0.97415 0.8287 0.0
C468 C 0.41022 0.88873 0.79702 0.0
C469 C 0.40414 0.9022 0.77724 0.0
C470 C 0.41867 0.89928 0.81721 0.0
C471 C 0.42122 0.92351 0.8181 0.0
C472 C 0.41572 0.9369 0.79821 0.0
H473 H 0.47502 0.01673 0.92466 0.0
H474 H 0.45997 0.99992 0.88856 0.0
C475 C 0.40716 0.92641 0.77807 0.0
C476 C 0.43006 0.93466 0.83968 0.0
H477 H 0.41518 0.97673 0.88022 0.0
C478 C 0.45281 0.92677 0.84891 0.0
C479 C 0.41626 0.95286 0.85121 0.0
C480 C 0.39117 0.96138 0.84292 0.0
C481 C 0.46222 0.9367 0.86911 0.0
C482 C 0.44843 0.95486 0.88061 0.0
C483 C 0.42577 0.96288 0.87134 0.0
C484 C 0.45696 0.96526 0.90262 0.0
C485 C 0.48706 0.9279 0.87782 0.0
C486 C 0.45979 0.9515 0.92264 0.0
C487 C 0.46825 0.96104 0.94327 0.0
C488 C 0.47409 0.98462 0.94439 0.0
C489 C 0.47078 0.99852 0.92441 0.0
C490 C 0.46218 0.98894 0.90376 0.0
H491 H 0.49777 0.91821 0.86419 0.0
H492 H 0.4977 0.94257 0.88407 0.0
H493 H 0.48472 0.91583 0.89256 0.0
H494 H 0.45546 0.93331 0.9223 0.0
H495 H 0.47045 0.94981 0.95829 0.0
H496 H 0.53356 0.46724 0.82706 0.0
H497 H 0.5234 0.47082 0.7858 0.0
H498 H 0.59907 0.45505 0.76828 0.0
H499 H 0.60937 0.45159 0.80938 0.0
H500 H 0.57905 0.49225 0.7442 0.0
H501 H 0.51913 0.41764 0.7393 0.0
H502 H 0.51006 0.43889 0.76098 0.0
H503 H 0.53882 0.42234 0.76378 0.0
C504 C 0.54799 0.46446 0.81438 0.0
C505 C 0.57225 0.45916 0.82143 0.0
C506 C 0.54215 0.4664 0.79085 0.0
C507 C 0.56043 0.46278 0.77401 0.0
C508 C 0.5847 0.45782 0.78102 0.0
H509 H 0.54128 0.44301 0.62555 0.0
H510 H 0.54992 0.43747 0.66699 0.0
C511 C 0.59056 0.45601 0.8045 0.0
C512 C 0.55448 0.46471 0.74905 0.0
H513 H 0.51988 0.44218 0.70611 0.0
C514 C 0.56617 0.48127 0.73585 0.0
C515 C 0.53796 0.45007 0.73816 0.0
C516 C 0.52593 0.43107 0.7512 0.0
C517 C 0.56148 0.48389 0.71209 0.0
C518 C 0.54424 0.46991 0.70139 0.0
C519 C 0.53288 0.45303 0.71446 0.0
C520 C 0.53772 0.47273 0.67665 0.0
C521 C 0.57532 0.50137 0.69861 0.0
C522 C 0.52739 0.49414 0.66857 0.0
C523 C 0.52253 0.49734 0.64504 0.0
C524 C 0.52769 0.4791 0.62917 0.0
C525 C 0.5371 0.45733 0.63741 0.0
C526 C 0.54209 0.45418 0.66101 0.0
H527 H 0.59235 0.5058 0.7077 0.0
H528 H 0.5802 0.49462 0.68107 0.0
H529 H 0.56366 0.51772 0.69658 0.0
H530 H 0.5233 0.50846 0.68046 0.0
H531 H 0.51479 0.51414 0.63922 0.0
H532 H 0.97678 0.55355 0.32853 0.0
H533 H 0.98588 0.55124 0.28709 0.0
H534 H 0.90902 0.54813 0.27197 0.0
H535 H 0.89963 0.55153 0.31318 0.0
H536 H 0.97666 0.51832 0.25401 0.0
H537 H 0.9278 0.60308 0.23282 0.0
H538 H 0.93471 0.59419 0.26221 0.0
H539 H 0.90894 0.58311 0.24728 0.0
C540 C 0.9618 0.55248 0.31638 0.0
C541 C 0.93745 0.55297 0.32418 0.0
C542 C 0.96705 0.55104 0.29273 0.0
C543 C 0.94807 0.55007 0.27647 0.0
C544 C 0.92388 0.54944 0.28423 0.0
H545 H 0.93778 0.53428 0.12866 0.0
H546 H 0.93075 0.53835 0.1704 0.0
C547 C 0.91859 0.55102 0.30784 0.0
C548 C 0.95354 0.54989 0.25137 0.0
H549 H 0.94074 0.57911 0.20087 0.0
C550 C 0.96898 0.53169 0.2424 0.0
C551 C 0.94358 0.56748 0.23633 0.0
C552 C 0.92803 0.5882 0.24515 0.0
C553 C 0.97416 0.53025 0.21864 0.0
C554 C 0.96377 0.54755 0.20359 0.0
C555 C 0.94859 0.56588 0.21254 0.0
C556 C 0.9679 0.54646 0.17835 0.0
C557 C 0.99021 0.50996 0.20963 0.0
C558 C 0.99098 0.55024 0.1691 0.0
C559 C 0.99503 0.54802 0.14528 0.0
C560 C 0.97606 0.54188 0.13043 0.0
C561 C 0.95278 0.53878 0.13974 0.0
C562 C 0.94872 0.54117 0.16351 0.0
H563 H 0.9936 0.49616 0.22294 0.0
H564 H 0.98173 0.50213 0.19419 0.0
H565 H 0.00809 0.5163 0.20426 0.0
H566 H 0.00591 0.55456 0.18035 0.0
H567 H 0.01318 0.55033 0.13859 0.0
H568 H 0.256 0.07784 0.13044 0.0
H569 H 0.29335 0.06075 0.11251 0.0
H570 H 0.31225 0.12917 0.09041 0.0
H571 H 0.27563 0.14652 0.10913 0.0
H572 H 0.30799 0.06093 0.06729 0.0
H573 H 0.37485 0.10522 0.12161 0.0
H574 H 0.34288 0.10503 0.12901 0.0
H575 H 0.35307 0.12521 0.10775 0.0
C576 C 0.26828 0.08933 0.1221 0.0
C577 C 0.26276 0.11362 0.12138 0.0
C578 C 0.28955 0.07949 0.11168 0.0
C579 C 0.30585 0.09369 0.10041 0.0
C580 C 0.30027 0.11788 0.09941 0.0
H581 H 0.43997 0.07023 0.0217 0.0
H582 H 0.40211 0.08608 0.03968 0.0
C583 C 0.27908 0.12775 0.10988 0.0
C584 C 0.32839 0.08318 0.08924 0.0
H585 H 0.39061 0.08538 0.08808 0.0
C586 C 0.32607 0.06616 0.07195 0.0
C587 C 0.35201 0.08997 0.09532 0.0
C588 C 0.35594 0.10719 0.11459 0.0
C589 C 0.34662 0.05617 0.06025 0.0
C590 C 0.37017 0.0632 0.06615 0.0
C591 C 0.37253 0.08011 0.0835 0.0
C592 C 0.39265 0.05322 0.05457 0.0
C593 C 0.34296 0.03856 0.0413 0.0
C594 C 0.39996 0.02947 0.05702 0.0
C595 C 0.42165 0.02034 0.04682 0.0
C596 C 0.43648 0.0348 0.03396 0.0
C597 C 0.42897 0.05856 0.0314 0.0
C598 C 0.40735 0.06768 0.04171 0.0
H599 H 0.32366 0.03899 0.0353 0.0
H600 H 0.35489 0.04174 0.02624 0.0
H601 H 0.34794 0.02077 0.04797 0.0
H602 H 0.38911 0.01807 0.06718 0.0
H603 H 0.42691 1.002 0.04923 0.0
H604 H 0.25384 0.93883 0.63087 0.0
H605 H 0.21649 0.956 0.61293 0.0
H606 H 0.19745 0.88765 0.59044 0.0
H607 H 0.23408 0.87022 0.60917 0.0
H608 H 0.20194 0.95581 0.56758 0.0
H609 H 0.13493 0.91178 0.62157 0.0
H610 H 0.1669 0.9119 0.6291 0.0
H611 H 0.15667 0.89173 0.60775 0.0
C612 C 0.24152 0.92737 0.62245 0.0
C613 C 0.247 0.90308 0.62161 0.0
C614 C 0.22026 0.93726 0.61203 0.0
C615 C 0.20393 0.9231 0.60063 0.0
C616 C 0.20946 0.89891 0.59953 0.0
H617 H 0.06993 0.94713 0.52152 0.0
H618 H 0.1078 0.9311 0.53945 0.0
C619 C 0.23065 0.88899 0.61001 0.0
C620 C 0.18145 0.93367 0.58941 0.0
H621 H 0.11922 0.93169 0.58807 0.0
C622 C 0.18384 0.95065 0.57217 0.0
C623 C 0.15781 0.92695 0.59541 0.0
C624 C 0.15383 0.90976 0.61462 0.0
C625 C 0.16332 0.96071 0.56044 0.0
C626 C 0.13975 0.95377 0.56625 0.0
C627 C 0.13733 0.93689 0.58355 0.0
C628 C 0.11732 0.96385 0.55467 0.0
C629 C 0.16702 0.97831 0.54155 0.0
C630 C 0.11007 0.98759 0.55733 0.0
C631 C 0.08839 0.99682 0.54715 0.0
C632 C 0.07351 0.98246 0.53413 0.0
C633 C 0.08097 0.95871 0.53135 0.0
C634 C 0.10258 0.9495 0.54163 0.0
H635 H 0.18633 0.97785 0.53564 0.0
H636 H 0.15509 0.97513 0.52642 0.0
H637 H 0.16207 0.99611 0.54824 0.0
H638 H 0.12097 0.99891 0.56762 0.0
H639 H 0.08317 0.01515 0.54972 0.0
H640 H 0.73135 0.49152 0.95465 0.0
H641 H 0.77445 0.49749 0.96166 0.0
H642 H 0.78297 0.43016 0.99487 0.0
H643 H 0.74028 0.42333 0.98657 0.0
H644 H 0.80037 0.50015 1.00016 0.0
H645 H 0.8374 0.42468 0.94842 0.0
H646 H 0.80556 0.43456 0.94764 0.0
H647 H 0.81726 0.4164 0.97103 0.0
C648 C 0.74243 0.4778 0.96316 0.0
C649 C 0.73234 0.4568 0.96974 0.0
C650 C 0.76704 0.48134 0.96734 0.0
C651 C 0.78208 0.46405 0.97833 0.0
C652 C 0.77188 0.44348 0.9858 0.0
H653 H 0.92461 0.49178 0.03574 0.0
H654 H 0.88187 0.4831 0.03026 0.0
C655 C 0.74732 0.43978 0.98137 0.0
C656 C 0.80836 0.46775 0.98204 0.0
H657 H 0.86596 0.44433 0.97125 0.0
C658 C 0.81472 0.48797 0.9938 0.0
C659 C 0.82707 0.45204 0.97338 0.0
C660 C 0.82153 0.43083 0.95921 0.0
C661 C 0.83924 0.49288 0.99725 0.0
C662 C 0.85794 0.47671 0.9894 0.0
C663 C 0.8516 0.45657 0.9775 0.0
C664 C 0.8842 0.48064 0.99289 0.0
C665 C 0.8448 0.51568 0.00869 0.0
C666 C 0.90003 0.48101 0.9738 0.0
C667 C 0.92463 0.48548 0.97692 0.0
C668 C 0.93375 0.48982 0.99919 0.0
C669 C 0.91802 0.48883 0.01833 0.0
C670 C 0.89355 0.48403 0.01522 0.0
H671 H 0.82914 0.52882 0.00724 0.0
H672 H 0.84841 0.5126 0.02739 0.0
H673 H 0.86115 0.52311 1.00091 0.0
H674 H 0.89324 0.47828 0.95642 0.0
H675 H 0.93632 0.48611 0.96185 0.0
H676 H 0.77022 0.5937 0.48892 0.0
H677 H 0.72766 0.58735 0.4981 0.0
H678 H 0.735 0.51931 0.46603 0.0
H679 H 0.77796 0.52485 0.45811 0.0
H680 H 0.69083 0.58142 0.46941 0.0
H681 H 0.7027 0.50354 0.52564 0.0
H682 H 0.72795 0.52062 0.51753 0.0
H683 H 0.7172 0.49884 0.49808 0.0
C684 C 0.76301 0.57712 0.48434 0.0
C685 C 0.77764 0.55974 0.47286 0.0
C686 C 0.73857 0.57362 0.48941 0.0
C687 C 0.72821 0.55273 0.48305 0.0
C688 C 0.74272 0.53536 0.47159 0.0
H689 H 0.57431 0.53291 0.46178 0.0
H690 H 0.61733 0.54141 0.45797 0.0
C691 C 0.76723 0.53872 0.46675 0.0
C692 C 0.70192 0.5496 0.48734 0.0
H693 H 0.66245 0.51217 0.51056 0.0
C694 C 0.68462 0.56639 0.47861 0.0
C695 C 0.69382 0.53019 0.49966 0.0
C696 C 0.71141 0.51242 0.51098 0.0
C697 C 0.65945 0.56402 0.48134 0.0
C698 C 0.65134 0.54392 0.4925 0.0
C699 C 0.66865 0.52743 0.50174 0.0
C700 C 0.62504 0.53954 0.49477 0.0
C701 C 0.64187 0.58326 0.47254 0.0
C702 C 0.61519 0.53506 0.51664 0.0
C703 C 0.59076 0.52972 0.5188 0.0
C704 C 0.57565 0.52891 0.49913 0.0
C705 C 0.58544 0.53365 0.47727 0.0
C706 C 0.60999 0.53867 0.47509 0.0
H707 H 0.65071 0.60018 0.47148 0.0
H708 H 0.63574 0.57877 0.45483 0.0
H709 H 0.62553 0.58557 0.48384 0.0
H710 H 0.62647 0.53556 0.53206 0.0
H711 H 0.58373 0.5262 0.53589 0.0
H712 H 0.06492 0.268 0.13363 0.0
H713 H 0.04839 0.30409 0.11537 0.0
H714 H 0.12108 0.32045 0.09499 0.0
H715 H 0.13783 0.28499 0.11395 0.0
H716 H 0.09567 0.35832 0.11249 0.0
H717 H 0.03937 0.3159 0.04646 0.0
H718 H 0.03258 0.30786 0.07569 0.0
H719 H 0.06213 0.29978 0.06366 0.0
C720 C 0.07743 0.27936 0.12545 0.0
C721 C 0.10274 0.27338 0.12515 0.0
C722 C 0.0679 0.29987 0.11473 0.0
C723 C 0.08341 0.31481 0.10334 0.0
C724 C 0.10868 0.30913 0.10343 0.0
H725 H 0.04248 0.427 1.00589 0.0
H726 H 0.05764 0.39045 0.02437 0.0
C727 C 0.11823 0.2887 0.11416 0.0
C728 C 0.07352 0.33658 0.09169 0.0
H729 H 0.03424 0.35724 0.0493 0.0
C730 C 0.08225 0.35806 0.09866 0.0
C731 C 0.05629 0.33627 0.07337 0.0
C732 C 0.04719 0.31372 0.06415 0.0
C733 C 0.07405 0.37918 0.08808 0.0
C734 C 0.05621 0.37896 0.07029 0.0
C735 C 0.04772 0.35746 0.06308 0.0
C736 C 0.04626 0.40086 0.05894 0.0
C737 C 0.08499 0.40148 0.09576 0.0
C738 C 0.03434 0.41871 0.07208 0.0
C739 C 0.02577 0.43962 0.0616 0.0
C740 C 0.02868 0.44312 0.03765 0.0
C741 C 0.03999 0.42494 0.02437 0.0
C742 C 0.04865 0.40402 0.03492 0.0
H743 H 0.1029 0.39797 0.10454 0.0
H744 H 0.08761 0.41327 0.08084 0.0
H745 H 0.07246 0.41072 0.10826 0.0
H746 H 0.03172 0.41651 0.09052 0.0
H747 H 0.01695 0.4531 0.07237 0.0
H748 H 0.60344 0.30552 0.96583 0.0
H749 H 0.59139 0.26524 0.96728 0.0
H750 H 0.51673 0.28968 0.98033 0.0
H751 H 0.52866 0.3302 0.97877 0.0
H752 H 0.56974 0.24032 1.00149 0.0
H753 H 0.51025 0.24824 0.9234 0.0
H754 H 0.53117 0.27013 0.93124 0.0
H755 H 0.50247 0.26883 0.94607 0.0
C756 C 0.58452 0.30235 0.9694 0.0
C757 C 0.56698 0.32103 0.97214 0.0
C758 C 0.57764 0.27932 0.97007 0.0
C759 C 0.5531 0.27451 0.97346 0.0
C760 C 0.53566 0.29306 0.97711 0.0
H761 H 0.48669 0.14046 0.98312 0.0
H762 H 0.49351 0.18226 0.98215 0.0
C763 C 0.54252 0.31615 0.97633 0.0
C764 C 0.54596 0.25002 0.97291 0.0
H765 H 0.51167 0.21204 0.94313 0.0
C766 C 0.55702 0.23415 0.98876 0.0
C767 C 0.52938 0.24204 0.95622 0.0
C768 C 0.51776 0.25811 0.93811 0.0
C769 C 0.55199 0.21047 0.98835 0.0
C770 C 0.53565 0.20248 0.97154 0.0
C771 C 0.52421 0.21835 0.95595 0.0
C772 C 0.53067 0.17753 0.96975 0.0
C773 C 0.56415 0.19412 1.00592 0.0
C774 C 0.54907 0.16124 0.96231 0.0
C775 C 0.54518 0.13741 0.96259 0.0
C776 C 0.52282 0.12946 0.97039 0.0
C777 C 0.50402 0.14598 0.9768 0.0
C778 C 0.50791 0.16985 0.97641 0.0
H779 H 0.57237 0.20372 0.02044 0.0
H780 H 0.55081 0.18219 0.0131 0.0
H781 H 0.57892 0.18324 0.99732 0.0
H782 H 0.56664 0.16696 0.95679 0.0
H783 H 0.55987 0.12516 0.95716 0.0
H784 H 0.90459 0.71246 0.46306 0.0
H785 H 0.91661 0.75284 0.46377 0.0
H786 H 0.99108 0.72889 0.47846 0.0
H787 H 0.97913 0.6883 0.47814 0.0
H788 H 0.97042 0.76887 0.5061 0.0
H789 H 0.95917 0.78013 0.41096 0.0
H790 H 0.93369 0.76854 0.42575 0.0
H791 H 0.96237 0.75176 0.42458 0.0
C792 C 0.92344 0.71578 0.46688 0.0
C793 C 0.94094 0.69721 0.47053 0.0
C794 C 0.93031 0.73882 0.46701 0.0
C795 C 0.95476 0.74372 0.47079 0.0
C796 C 0.97214 0.72536 0.47532 0.0
H797 H 0.02289 0.8774 0.48196 0.0
H798 H 0.01643 0.83563 0.47978 0.0
C799 C 0.96531 0.70225 0.47508 0.0
C800 C 0.96214 0.76805 0.46968 0.0
H801 H 0.96579 0.81422 0.43287 0.0
C802 C 0.96965 0.77879 0.49009 0.0
C803 C 0.96104 0.7808 0.44872 0.0
C804 C 0.95383 0.76973 0.42617 0.0
C805 C 0.97531 0.80235 0.49029 0.0
C806 C 0.97394 0.81522 0.46936 0.0
C807 C 0.96684 0.80429 0.44886 0.0
C808 C 0.97875 0.84033 0.4686 0.0
C809 C 0.98179 0.81346 0.51304 0.0
C810 C 0.96008 0.85673 0.46189 0.0
C811 C 0.96383 0.88059 0.46271 0.0
C812 C 0.98635 0.88849 0.47024 0.0
C813 C 0.00538 0.87193 0.47594 0.0
C814 C 1.00163 0.84806 0.47502 0.0
H815 H 0.97629 0.80292 0.52809 0.0
H816 H 1.00188 0.81491 0.51394 0.0
H817 H 0.9729 0.8313 0.5146 0.0
H818 H 0.94236 0.85109 0.45664 0.0
H819 H 0.94895 0.89288 0.45783 0.0
H820 H 0.41982 0.7282 0.65335 0.0
H821 H 0.43637 0.69258 0.6342 0.0
H822 H 0.42089 0.72379 0.56747 0.0
H823 H 0.40455 0.7595 0.58641 0.0
H824 H 0.40443 0.67893 0.57149 0.0
H825 H 0.50115 0.68071 0.59979 0.0
H826 H 0.47938 0.68286 0.62302 0.0
H827 H 0.47989 0.70588 0.60195 0.0
C828 C 0.4203 0.72766 0.6346 0.0
C829 C 0.41079 0.74678 0.62147 0.0
C830 C 0.42977 0.70724 0.62366 0.0
C831 C 0.43012 0.70556 0.59937 0.0
C832 C 0.42082 0.72465 0.58623 0.0
H833 H 0.47076 0.59298 0.50105 0.0
H834 H 0.45699 0.63037 0.51873 0.0
C835 C 0.41137 0.74504 0.59712 0.0
C836 C 0.43926 0.68362 0.58761 0.0
H837 H 0.48959 0.64607 0.58116 0.0
C838 C 0.42309 0.67181 0.57348 0.0
C839 C 0.46361 0.67432 0.59023 0.0
C840 C 0.48212 0.68667 0.60439 0.0
C841 C 0.43041 0.65071 0.56236 0.0
C842 C 0.45474 0.64135 0.56504 0.0
C843 C 0.47095 0.65324 0.57907 0.0
C844 C 0.46355 0.61889 0.55403 0.0
C845 C 0.41179 0.63826 0.54842 0.0
C846 C 0.47248 0.60019 0.56789 0.0
C847 C 0.48052 0.5789 0.55784 0.0
C848 C 0.47992 0.5758 0.53364 0.0
C849 C 0.47133 0.59469 0.51973 0.0
C850 C 0.4633 0.61604 0.52983 0.0
H851 H 0.39278 0.64447 0.55287 0.0
H852 H 0.41461 0.64167 0.52972 0.0
H853 H 0.4138 0.6191 0.55125 0.0
H854 H 0.47296 0.60197 0.58657 0.0
H855 H 0.48708 0.5648 0.56913 0.0
H856 H 0.90321 0.93662 0.75115 0.0
H857 H 0.91781 0.95473 0.71578 0.0
H858 H 0.92234 0.88757 0.68193 0.0
H859 H 0.90731 0.86935 0.71711 0.0
H860 H 0.96224 0.94461 0.69093 0.0
H861 H 0.88058 0.92956 0.637 0.0
H862 H 0.88036 0.92737 0.66821 0.0
H863 H 0.89412 0.904 0.65104 0.0
C864 C 0.90711 0.9257 0.73613 0.0
C865 C 0.9039 0.90151 0.73699 0.0
C866 C 0.9156 0.93608 0.71596 0.0
C867 C 0.92085 0.9226 0.69607 0.0
C868 C 0.91804 0.89841 0.69693 0.0
H869 H 0.96996 0.95027 0.55658 0.0
H870 H 0.95501 0.93375 0.59245 0.0
C871 C 0.90968 0.88797 0.71716 0.0
C872 C 0.92945 0.93383 0.67453 0.0
H873 H 0.9145 0.94445 0.61782 0.0
C874 C 0.95177 0.94469 0.67496 0.0
C875 C 0.91579 0.9339 0.65369 0.0
C876 C 0.89127 0.92328 0.65237 0.0
C877 C 0.96109 0.95509 0.655 0.0
C878 C 0.94742 0.95519 0.63412 0.0
C879 C 0.925 0.94444 0.63378 0.0
C880 C 0.95631 0.96571 0.61227 0.0
C881 C 0.98586 0.96522 0.65633 0.0
C882 C 0.96169 0.98938 0.61119 0.0
C883 C 0.97042 0.99892 0.59063 0.0
C884 C 0.97369 0.98505 0.57061 0.0
C885 C 0.96773 0.96151 0.57163 0.0
C886 C 0.95914 0.95199 0.59217 0.0
H887 H 0.99668 0.95816 0.67132 0.0
H888 H 0.99649 0.96155 0.64024 0.0
H889 H 0.98342 0.98445 0.6585 0.0
H890 H 0.95908 1.00053 0.62625 0.0
H891 H 0.97465 0.01713 0.59046 0.0
H892 H 0.56921 0.11646 0.24848 0.0
H893 H 0.55381 0.09771 0.21364 0.0
H894 H 0.62632 0.09431 0.18448 0.0
H895 H 0.64185 0.11286 0.21924 0.0
H896 H 0.55302 0.11106 0.16879 0.0
H897 H 0.60821 0.02745 0.17695 0.0
H898 H 0.60556 0.04857 0.20015 0.0
H899 H 0.62658 0.05234 0.17671 0.0
C900 C 0.58187 0.1118 0.23461 0.0
C901 C 0.60683 0.11602 0.23678 0.0
C902 C 0.57305 0.10098 0.21473 0.0
C903 C 0.58897 0.09411 0.19657 0.0
C904 C 0.61378 0.09877 0.19848 0.0
H905 H 0.54709 0.06511 0.05456 0.0
H906 H 0.562 0.08167 0.09056 0.0
C907 C 0.62263 0.10946 0.21839 0.0
C908 C 0.57952 0.08263 0.17542 0.0
H909 H 0.58776 0.03431 0.14084 0.0
C910 C 0.56054 0.09422 0.16276 0.0
C911 C 0.58901 0.06046 0.16768 0.0
C912 C 0.60828 0.04635 0.1812 0.0
C913 C 0.55124 0.08457 0.14238 0.0
C914 C 0.56152 0.06291 0.13405 0.0
C915 C 0.58007 0.05104 0.14701 0.0
C916 C 0.55329 0.05233 0.11195 0.0
C917 C 0.53019 0.09754 0.13017 0.0
C918 C 0.54433 0.02985 0.11169 0.0
C919 C 0.53603 0.02015 0.091 0.0
C920 C 0.53658 0.03273 0.0701 0.0
C921 C 0.54617 0.05498 0.07034 0.0
C922 C 0.55455 0.06459 0.09098 0.0
H923 H 0.51987 0.10973 0.14209 0.0
H924 H 0.53739 0.10803 0.11586 0.0
H925 H 0.51733 0.08527 0.12271 0.0
H926 H 0.54334 0.01996 0.12761 0.0
H927 H 0.52881 1.00298 0.09146 0.0
H928 H 0.40858 0.54588 0.20022 0.0
H929 H 0.41841 0.54169 0.24133 0.0
H930 H 0.49495 0.5465 0.22616 0.0
H931 H 0.48542 0.55012 0.18478 0.0
H932 H 0.45318 0.50751 0.26441 0.0
H933 H 0.47614 0.60042 0.27396 0.0
H934 H 0.45837 0.59038 0.24991 0.0
H935 H 0.49078 0.58387 0.25081 0.0
C936 C 0.42758 0.54553 0.20549 0.0
C937 C 0.44622 0.54838 0.18918 0.0
C938 C 0.43311 0.54333 0.22902 0.0
C939 C 0.45732 0.54412 0.2367 0.0
C940 C 0.4761 0.54621 0.22051 0.0
H941 H 0.51558 0.54671 0.37738 0.0
H942 H 0.51054 0.54914 0.33522 0.0
C943 C 0.47061 0.54831 0.19692 0.0
C944 C 0.46269 0.54328 0.26176 0.0
H945 H 0.47942 0.57685 0.30734 0.0
C946 C 0.45901 0.5226 0.27383 0.0
C947 C 0.47036 0.56303 0.27385 0.0
C948 C 0.47404 0.58579 0.2616 0.0
C949 C 0.46277 0.52114 0.29783 0.0
C950 C 0.46979 0.54109 0.31007 0.0
C951 C 0.47393 0.56164 0.2979 0.0
C952 C 0.47245 0.54105 0.33558 0.0
C953 C 0.45945 0.49815 0.3098 0.0
C954 C 0.45249 0.53651 0.34971 0.0
C955 C 0.45531 0.53511 0.3737 0.0
C956 C 0.47809 0.53851 0.38401 0.0
C957 C 0.49778 0.54415 0.36991 0.0
C958 C 0.49497 0.54541 0.34586 0.0
H959 H 0.4611 0.48326 0.29745 0.0
H960 H 0.4731 0.49504 0.32387 0.0
H961 H 0.44092 0.49848 0.31757 0.0
H962 H 0.43477 0.53375 0.34214 0.0
H963 H 0.43972 0.53113 0.38419 0.0
H964 H 0.1073 0.47019 0.7042 0.0
H965 H 0.09811 0.47428 0.74545 0.0
H966 H 0.02102 0.47371 0.73059 0.0
H967 H 0.02992 0.47024 0.68912 0.0
H968 H 0.0645 0.50995 0.7693 0.0
H969 H 0.03831 0.41788 0.7772 0.0
H970 H 0.05666 0.42762 0.75352 0.0
H971 H 0.02442 0.43512 0.75413 0.0
C972 C 0.08835 0.47146 0.70958 0.0
C973 C 0.06934 0.4698 0.69333 0.0
C974 C 0.08317 0.47361 0.73318 0.0
C975 C 0.05895 0.47396 0.74096 0.0
C976 C 0.03986 0.47312 0.72484 0.0
H977 H 0.99809 0.47159 0.87995 0.0
H978 H 0.00446 0.4692 0.83798 0.0
C979 C 0.04499 0.47109 0.7012 0.0
C980 C 0.0538 0.47459 0.76604 0.0
H981 H 0.03543 0.44114 0.81088 0.0
C982 C 0.0581 0.49496 0.77845 0.0
C983 C 0.0454 0.45498 0.77774 0.0
C984 C 0.04102 0.43255 0.7651 0.0
C985 C 0.05407 0.49631 0.80241 0.0
C986 C 0.04617 0.47651 0.81426 0.0
C987 C 0.04158 0.45623 0.80175 0.0
C988 C 0.04273 0.4765 0.83968 0.0
C989 C 0.05793 0.51905 0.81472 0.0
C990 C 0.06235 0.48059 0.85451 0.0
C991 C 0.05876 0.48198 0.87841 0.0
C992 C 0.03555 0.47901 0.88791 0.0
C993 C 0.0162 0.4738 0.87311 0.0
C994 C 0.01978 0.47256 0.84916 0.0
H995 H 0.05705 0.53405 0.80252 0.0
H996 H 0.04407 0.52249 0.8285 0.0
H997 H 0.0763 0.5181 0.82291 0.0
H998 H 0.08038 0.483 0.84757 0.0
H999 H 0.07408 0.48565 0.88947 0.0
H1000 H 0.75487 0.93938 0.88417 0.0
H1001 H 0.71803 0.95675 0.90283 0.0
H1002 H 0.69896 0.88855 0.92534 0.0
H1003 H 0.73538 0.87094 0.90638 0.0
H1004 H 0.66787 0.94643 0.89494 0.0
H1005 H 0.69722 0.92806 0.98558 0.0
H1006 H 0.71841 0.92717 0.96162 0.0
H1007 H 0.69925 0.90328 0.96644 0.0
C1008 C 0.74276 0.92801 0.89291 0.0
C1009 C 0.74827 0.90372 0.89384 0.0
C1010 C 0.72177 0.93801 0.90368 0.0
C1011 C 0.70595 0.924 0.91579 0.0
C1012 C 0.71118 0.89976 0.91653 0.0
H1013 H 0.571 0.94743 0.99311 0.0
H1014 H 0.60864 0.93155 0.9748 0.0
C1015 C 0.73209 0.88973 0.90569 0.0
C1016 C 0.68373 0.93463 0.92729 0.0
H1017 H 0.65621 0.9425 0.98003 0.0
C1018 C 0.66535 0.94571 0.91355 0.0
C1019 C 0.68045 0.93358 0.95157 0.0
C1020 C 0.69993 0.92256 0.96725 0.0
C1021 C 0.64352 0.9553 0.92337 0.0
C1022 C 0.64023 0.95429 0.94769 0.0
C1023 C 0.6587 0.94329 0.96142 0.0
C1024 C 0.61763 0.96425 0.95919 0.0
C1025 C 0.62389 0.96577 0.9075 0.0
C1026 C 0.61036 0.98804 0.95694 0.0
C1027 C 0.58876 0.99716 0.96731 0.0
C1028 C 0.5741 0.98273 0.98038 0.0
C1029 C 0.5818 0.95905 0.98314 0.0
C1030 C 0.60334 0.94993 0.97267 0.0
H1031 H 0.62633 0.95942 0.88941 0.0
H1032 H 0.60542 0.96159 0.91352 0.0
H1033 H 0.62482 0.98504 0.90735 0.0
H1034 H 0.62138 0.99959 0.94714 0.0
H1035 H 0.58351 0.01551 0.96497 0.0
H1036 H 0.74935 0.12104 0.42868 0.0
H1037 H 0.78623 0.10399 0.44751 0.0
H1038 H 0.81826 0.08857 0.38066 0.0
H1039 H 0.78174 0.10624 0.36165 0.0
H1040 H 0.80791 0.05884 0.44444 0.0
H1041 H 0.87093 0.12439 0.41346 0.0
H1042 H 0.83811 0.12899 0.41174 0.0
H1043 H 0.85429 0.11074 0.39083 0.0
C1044 C 0.76434 0.11427 0.41795 0.0
C1045 C 0.76261 0.1152 0.39362 0.0
C1046 C 0.78534 0.10436 0.42876 0.0
C1047 C 0.80516 0.0953 0.41551 0.0
C1048 C 0.80337 0.09582 0.39124 0.0
H1049 H 0.92795 1.00394 0.46274 0.0
H1050 H 0.89017 0.02041 0.44504 0.0
C1051 C 0.78235 0.1057 0.3804 0.0
C1052 C 0.82758 0.08516 0.42714 0.0
H1053 H 0.889 0.09117 0.43274 0.0
C1054 C 0.82564 0.06592 0.44192 0.0
C1055 C 0.85065 0.0946 0.42408 0.0
C1056 C 0.8537 0.11595 0.40935 0.0
C1057 C 0.8462 0.05566 0.45345 0.0
C1058 C 0.86939 0.06469 0.44986 0.0
C1059 C 0.87126 0.08414 0.43534 0.0
C1060 C 0.89195 0.05439 0.46114 0.0
C1061 C 0.84283 0.03551 0.46969 0.0
C1062 C 0.90576 0.06808 0.47581 0.0
C1063 C 0.92744 0.05876 0.48588 0.0
C1064 C 0.93587 0.03554 0.48136 0.0
C1065 C 0.92194 0.02183 0.46671 0.0
C1066 C 0.90025 0.03119 0.45666 0.0
H1067 H 0.82347 0.0347 0.47517 0.0
H1068 H 0.8483 0.01889 0.46071 0.0
H1069 H 0.85443 0.03683 0.48538 0.0
H1070 H 0.89977 0.08606 0.47945 0.0
H1071 H 0.93772 0.06985 0.49701 0.0
H1072 H 0.28368 0.55813 0.01255 0.0
H1073 H 0.2402 0.55268 1.00544 0.0
H1074 H 0.2259 0.55854 0.07871 0.0
H1075 H 0.26917 0.56425 0.08594 0.0
H1076 H 0.21173 0.51615 0.02663 0.0
H1077 H 0.17575 0.60658 0.04687 0.0
H1078 H 0.20738 0.59962 0.03949 0.0
H1079 H 0.19635 0.59307 0.06787 0.0
C1080 C 0.27121 0.55843 0.0271 0.0
C1081 C 0.27979 0.56159 0.0498 0.0
C1082 C 0.24646 0.55524 0.02302 0.0
C1083 C 0.22991 0.55548 0.04154 0.0
C1084 C 0.2384 0.55859 0.06419 0.0
H1085 H 0.07457 0.53873 0.05596 0.0
H1086 H 0.11761 0.54664 0.06172 0.0
C1087 C 0.26313 0.56161 0.0683 0.0
C1088 C 0.20383 0.55175 0.0373 0.0
H1089 H 0.14657 0.5783 0.04081 0.0
C1090 C 0.19745 0.52973 0.02957 0.0
C1091 C 0.18536 0.56951 0.04138 0.0
C1092 C 0.19144 0.59361 0.0492 0.0
C1093 C 0.17291 0.52483 0.0262 0.0
C1094 C 0.15438 0.54265 0.03011 0.0
C1095 C 0.16082 0.5647 0.0378 0.0
C1096 C 0.12821 0.53869 0.02635 0.0
C1097 C 0.16705 0.50042 0.0191 0.0
C1098 C 0.11984 0.53214 1.00444 0.0
C1099 C 0.09537 0.52746 1.00113 0.0
C1100 C 0.07872 0.52954 0.01964 0.0
C1101 C 0.08696 0.5369 0.04139 0.0
C1102 C 0.11152 0.54143 0.04471 0.0
H1103 H 0.18235 0.48748 0.02313 0.0
H1104 H 0.15031 0.49498 0.02792 0.0
H1105 H 0.16383 0.5 1.00012 0.0
H1106 H 0.13229 0.53051 0.9899 0.0
H1107 H 0.08954 0.52208 0.98409 0.0
H1108 H 0.23579 0.42365 0.52807 0.0
H1109 H 0.27834 0.4299 0.51876 0.0
H1110 H 0.27138 0.49787 0.55099 0.0
H1111 H 0.2284 0.49248 0.55896 0.0
H1112 H 0.29665 0.49957 0.51213 0.0
H1113 H 0.33359 0.42447 0.56442 0.0
H1114 H 0.31297 0.41617 0.54211 0.0
H1115 H 0.30188 0.43473 0.56545 0.0
C1116 C 0.24313 0.44012 0.53283 0.0
C1117 C 0.22863 0.45748 0.54449 0.0
C1118 C 0.26762 0.4435 0.52782 0.0
C1119 C 0.27824 0.46409 0.53473 0.0
C1120 C 0.26366 0.48172 0.54572 0.0
H1121 H 0.43206 0.48533 0.552 0.0
H1122 H 0.38892 0.47761 0.55658 0.0
C1123 C 0.23911 0.4785 0.55047 0.0
C1124 C 0.30453 0.46739 0.5306 0.0
H1125 H 0.36205 0.44373 0.54144 0.0
C1126 C 0.31097 0.48737 0.51855 0.0
C1127 C 0.3232 0.45165 0.53931 0.0
C1128 C 0.31762 0.43068 0.55374 0.0
C1129 C 0.33552 0.49209 0.51499 0.0
C1130 C 0.35417 0.47594 0.52303 0.0
C1131 C 0.34774 0.45595 0.53506 0.0
C1132 C 0.38048 0.4799 0.51995 0.0
C1133 C 0.34115 0.51471 0.50334 0.0
C1134 C 0.3902 0.48327 0.49781 0.0
C1135 C 0.41476 0.48804 0.49518 0.0
C1136 C 0.43017 0.489 0.51463 0.0
C1137 C 0.42064 0.48471 0.5367 0.0
C1138 C 0.39599 0.4803 0.53933 0.0
H1139 H 0.32549 0.52787 0.50445 0.0
H1140 H 0.35743 0.52227 0.51122 0.0
H1141 H 0.34495 0.51134 0.48472 0.0
H1142 H 0.37878 0.48234 0.48254 0.0
H1143 H 0.42167 0.49098 0.47792 0.0
H1144 H 0.87409 0.73321 0.90266 0.0
H1145 H 0.89091 0.69804 0.92207 0.0
H1146 H 0.96364 0.71474 0.90216 0.0
H1147 H 0.94702 0.75056 0.88343 0.0
H1148 H 0.91679 0.66018 0.90507 0.0
H1149 H 0.97204 0.70358 0.97128 0.0
H1150 H 0.94933 0.71938 0.95377 0.0
H1151 H 0.97904 0.71143 0.94204 0.0
C1152 C 0.89371 0.72964 0.90264 0.0
C1153 C 0.90918 0.74498 0.89165 0.0
C1154 C 0.9033 0.70937 0.91363 0.0
C1155 C 0.92861 0.70388 0.91399 0.0
C1156 C 0.94411 0.71882 0.9026 0.0
H1157 H 0.99597 0.56637 0.94637 0.0
H1158 H 0.98109 0.60279 0.92796 0.0
C1159 C 0.93452 0.73917 0.89161 0.0
C1160 C 0.93854 0.68226 0.9259 0.0
H1161 H 0.9775 0.66223 0.96882 0.0
C1162 C 0.93005 0.66066 0.91902 0.0
C1163 C 0.95556 0.68284 0.94439 0.0
C1164 C 0.96438 0.70555 0.9535 0.0
C1165 C 0.93831 0.63968 0.92983 0.0
C1166 C 0.95595 0.64017 0.94778 0.0
C1167 C 0.96418 0.66179 0.95492 0.0
C1168 C 0.96599 0.61841 0.95933 0.0
C1169 C 0.92766 0.61722 0.9222 0.0
C1170 C 0.96332 0.6153 0.98333 0.0
C1171 C 0.97204 0.59447 0.99403 0.0
C1172 C 0.98369 0.57635 0.98093 0.0
C1173 C 0.98689 0.57982 0.957 0.0
C1174 C 0.97826 0.60062 0.94638 0.0
H1175 H 0.90983 0.62052 0.91322 0.0
H1176 H 0.94041 0.60798 0.90989 0.0
H1177 H 0.92497 0.60552 0.93719 0.0
H1178 H 0.95406 0.62883 0.99374 0.0
H1179 H 0.96931 0.59244 0.01248 0.0
H1180 H 0.48273 0.68781 0.03754 0.0
H1181 H 0.49457 0.72843 0.03718 0.0
H1182 H 0.42051 0.75216 0.05364 0.0
H1183 H 0.40861 0.71175 0.05442 0.0
H1184 H 0.4733 0.76818 0.01014 0.0
H1185 H 0.46415 0.77981 0.10539 0.0
H1186 H 0.46696 0.75139 0.09178 0.0
H1187 H 0.43827 0.76822 0.09115 0.0
C1188 C 0.46898 0.70171 0.04101 0.0
C1189 C 0.44476 0.69661 0.04605 0.0
C1190 C 0.47575 0.72484 0.04074 0.0
C1191 C 0.45846 0.74314 0.04574 0.0
C1192 C 0.43415 0.73818 0.05005 0.0
H1193 H 0.45139 0.89229 0.0578 0.0
H1194 H 0.44536 0.85041 0.05938 0.0
C1195 C 0.42734 0.71512 0.05022 0.0
C1196 C 0.46577 0.7675 0.04669 0.0
H1197 H 0.46981 0.81393 0.08326 0.0
C1198 C 0.47279 0.77818 0.02612 0.0
C1199 C 0.46503 0.78036 0.06761 0.0
C1200 C 0.4584 0.76937 0.09031 0.0
C1201 C 0.47826 0.80178 0.02576 0.0
C1202 C 0.47719 0.81477 0.04666 0.0
C1203 C 0.47062 0.80391 0.0673 0.0
C1204 C 0.4817 0.83995 0.04722 0.0
C1205 C 0.4842 0.81282 1.00288 0.0
C1206 C 0.50438 0.84786 0.04055 0.0
C1207 C 0.50782 0.87178 0.03942 0.0
C1208 C 0.48866 0.88818 0.04513 0.0
C1209 C 0.46636 0.88011 0.05291 0.0
C1210 C 0.46293 0.85621 0.05395 0.0
H1211 H 0.47862 0.80209 0.98794 0.0
H1212 H 0.47502 0.83054 1.00134 0.0
H1213 H 0.50423 0.81455 1.00176 0.0
H1214 H 0.51926 0.83554 0.03575 0.0
H1215 H 0.52516 0.8774 0.03321 0.0
H1216 H 0.0743 0.31775 0.51558 0.0
H1217 H 0.06377 0.27685 0.51359 0.0
H1218 H 0.0332 0.28222 0.58229 0.0
H1219 H 0.04402 0.32282 0.58467 0.0
H1220 H 0.08137 0.24168 0.54616 0.0
H1221 H 0.97982 0.25146 0.54347 0.0
H1222 H 0.99893 0.27499 0.53611 0.0
H1223 H 0.99426 0.26755 0.56591 0.0
C1224 C 0.06524 0.31026 0.53022 0.0
C1225 C 0.05995 0.3236 0.55025 0.0
C1226 C 0.05913 0.28696 0.52901 0.0
C1227 C 0.04746 0.27668 0.54769 0.0
C1228 C 0.04174 0.29001 0.56751 0.0
H1229 H 0.00677 0.13419 0.57468 0.0
H1230 H 0.01312 0.17615 0.57772 0.0
C1231 C 0.0479 0.31325 0.56878 0.0
C1232 C 0.04287 0.25154 0.54715 0.0
H1233 H 0.99764 0.21306 0.54789 0.0
C1234 C 0.06308 0.23539 0.54643 0.0
C1235 C 0.01899 0.2435 0.54785 0.0
C1236 C 0.99669 0.26023 0.54821 0.0
C1237 C 0.06005 0.21129 0.54645 0.0
C1238 C 0.03615 0.2032 0.54669 0.0
C1239 C 0.01593 0.21936 0.54772 0.0
C1240 C 0.03184 0.17804 0.54486 0.0
C1241 C 0.08249 0.19471 0.54658 0.0
C1242 C 0.03983 0.16545 0.5252 0.0
C1243 C 0.03629 0.14164 0.52345 0.0
C1244 C 0.02451 0.12996 0.54126 0.0
C1245 C 0.01593 0.14274 0.56071 0.0
C1246 C 0.01957 0.16663 0.56248 0.0
H1247 H 0.0988 0.20331 0.55316 0.0
H1248 H 0.07963 0.17912 0.55741 0.0
H1249 H 0.08646 0.18873 0.52861 0.0
H1250 H 0.04875 0.17407 0.51113 0.0
H1251 H 0.04254 0.13243 0.50797 0.0
H1252 H 0.56579 0.25858 0.39853 0.0
H1253 H 0.54864 0.29375 0.41813 0.0
H1254 H 0.61477 0.32849 0.40414 0.0
H1255 H 0.63216 0.29323 0.38505 0.0
H1256 H 0.60093 0.3359 0.44761 0.0
H1257 H 0.52056 0.35353 0.39051 0.0
H1258 H 0.52143 0.32501 0.40331 0.0
H1259 H 0.54494 0.3323 0.38328 0.0
C1260 C 0.57654 0.27382 0.39941 0.0
C1261 C 0.60032 0.27312 0.39019 0.0
C1262 C 0.56669 0.29397 0.41057 0.0
C1263 C 0.58023 0.314 0.41235 0.0
C1264 C 0.60393 0.31332 0.40303 0.0
H1265 H 0.52543 0.45489 0.44405 0.0
H1266 H 0.5404 0.41805 0.42658 0.0
C1267 C 0.61387 0.29313 0.39212 0.0
C1268 C 0.57011 0.33548 0.42442 0.0
H1269 H 0.52215 0.37638 0.42474 0.0
C1270 C 0.5837 0.34476 0.44258 0.0
C1271 C 0.54776 0.34726 0.41774 0.0
C1272 C 0.53294 0.33917 0.3975 0.0
C1273 C 0.57567 0.36541 0.45414 0.0
C1274 C 0.553 0.37685 0.44787 0.0
C1275 C 0.53938 0.36754 0.42975 0.0
C1276 C 0.54366 0.39915 0.45897 0.0
C1277 C 0.59201 0.37516 0.47241 0.0
C1278 C 0.54018 0.40089 0.48307 0.0
C1279 C 0.53185 0.42214 0.49321 0.0
C1280 C 0.52643 0.44198 0.47941 0.0
C1281 C 0.52942 0.44 0.45525 0.0
C1282 C 0.53796 0.41889 0.44519 0.0
H1283 H 0.61126 0.36817 0.47058 0.0
H1284 H 0.59165 0.39452 0.47153 0.0
H1285 H 0.58553 0.37014 0.4898 0.0
H1286 H 0.54381 0.38579 0.49406 0.0
H1287 H 0.52955 0.42298 0.51183 0.0
loop_
_geom_bond_atom_site_label_1
_geom_bond_atom_site_label_2
_geom_bond_distance
_geom_bond_site_symmetry_2
_ccdc_geom_bond_type
C0 C1 1.384 . S
C0 H13 0.947 . S
C0 C35 1.382 . S
C1 C0 1.384 . S
C1 C2 1.378 . S
C2 C1 1.378 . S
C2 C3 1.378 . S
C2 H14 0.952 . S
C3 C2 1.378 . S
C3 H15 0.950 . S
C3 C34 1.383 . S
H4 C23 0.947 . S
H5 C24 0.946 . S
H6 C26 0.953 . S
H7 C27 0.945 . S
H8 C29 0.952 . S
H9 C30 0.949 . S
H10 C32 0.950 . S
H11 C33 0.948 . S
H12 C35 0.951 . S
H13 C0 0.947 . S
H14 C2 0.952 . S
H15 C3 0.950 . S
N16 C19 1.382 . S
N16 C21 1.363 . S
N17 C19 1.371 . S
N17 C20 1.372 . S
N18 C20 1.361 . S
N18 C21 1.377 . S
C19 N16 1.382 . S
C19 N17 1.371 . S
C19 C22 1.480 . S
C20 N17 1.372 . S
C20 N18 1.361 . S
C20 C28 1.457 . S
C21 N16 1.363 . S
C21 N18 1.377 . S
C21 C34 1.479 . S
C22 C19 1.480 . S
C22 C23 1.383 . S
C22 C27 1.385 . S
C23 H4 0.947 . S
C23 C22 1.383 . S
C23 C24 1.388 . S
C24 H5 0.946 . S
C24 C23 1.388 . S
C24 C25 1.384 . S
C25 C24 1.384 . S
C25 C26 1.377 . S
C26 H6 0.953 . S
C26 C25 1.377 . S
C26 C27 1.369 . S
C27 H7 0.945 . S
C27 C22 1.385 . S
C27 C26 1.369 . S
C28 C20 1.457 . S
C28 C29 1.372 . S
C28 C33 1.364 . S
C29 H8 0.952 . S
C29 C28 1.372 . S
C29 C30 1.389 . S
C30 H9 0.949 . S
C30 C29 1.389 . S
C30 C31 1.387 . S
C31 C30 1.387 . S
C31 C32 1.372 . S
C32 H10 0.950 . S
C32 C31 1.372 . S
C32 C33 1.379 . S
C33 H11 0.948 . S
C33 C28 1.364 . S
C33 C32 1.379 . S
C34 C3 1.383 . S
C34 C21 1.479 . S
C34 C35 1.398 . S
C35 C0 1.382 . S
C35 H12 0.951 . S
C35 C34 1.398 . S
C36 C37 1.384 . S
C36 H49 0.947 . S
C36 C71 1.382 . S
C37 C36 1.384 . S
C37 C38 1.378 . S
C38 C37 1.378 . S
C38 C39 1.378 . S
C38 H50 0.952 . S
C39 C38 1.378 . S
C39 H51 0.950 . S
C39 C70 1.383 . S
H40 C59 0.947 . S
H41 C60 0.946 . S
H42 C62 0.953 . S
H43 C63 0.945 . S
H44 C65 0.952 . S
H45 C66 0.949 . S
H46 C68 0.950 . S
H47 C69 0.948 . S
H48 C71 0.951 . S
H49 C36 0.947 . S
H50 C38 0.952 . S
H51 C39 0.950 . S
N52 C55 1.382 . S
N52 C57 1.363 . S
N53 C55 1.371 . S
N53 C56 1.372 . S
N54 C56 1.361 . S
N54 C57 1.377 . S
C55 N52 1.382 . S
C55 N53 1.371 . S
C55 C58 1.480 . S
C56 N53 1.372 . S
C56 N54 1.361 . S
C56 C64 1.457 . S
C57 N52 1.363 . S
C57 N54 1.377 . S
C57 C70 1.479 . S
C58 C55 1.480 . S
C58 C59 1.383 . S
C58 C63 1.385 . S
C59 H40 0.947 . S
C59 C58 1.383 . S
C59 C60 1.388 . S
C60 H41 0.946 . S
C60 C59 1.388 . S
C60 C61 1.384 . S
C61 C60 1.384 . S
C61 C62 1.377 . S
C62 H42 0.953 . S
C62 C61 1.377 . S
C62 C63 1.369 . S
C63 H43 0.945 . S
C63 C58 1.385 . S
C63 C62 1.369 . S
C64 C56 1.457 . S
C64 C65 1.372 . S
C64 C69 1.364 . S
C65 H44 0.952 . S
C65 C64 1.372 . S
C65 C66 1.389 . S
C66 H45 0.949 . S
C66 C65 1.389 . S
C66 C67 1.387 . S
C67 C66 1.387 . S
C67 C68 1.372 . S
C68 H46 0.950 . S
C68 C67 1.372 . S
C68 C69 1.379 . S
C69 H47 0.948 . S
C69 C64 1.364 . S
C69 C68 1.379 . S
C70 C39 1.383 . S
C70 C57 1.479 . S
C70 C71 1.398 . S
C71 C36 1.382 . S
C71 H48 0.951 . S
C71 C70 1.398 . S
C72 C73 1.384 . S
C72 H85 0.947 . S
C72 C107 1.382 . S
C73 C72 1.384 . S
C73 C74 1.378 . S
C74 C73 1.378 . S
C74 C75 1.378 . S
C74 H86 0.952 . S
C75 C74 1.378 . S
C75 H87 0.950 . S
C75 C106 1.383 . S
H76 C95 0.947 . S
H77 C96 0.946 . S
H78 C98 0.953 . S
H79 C99 0.945 . S
H80 C101 0.952 . S
H81 C102 0.949 . S
H82 C104 0.950 . S
H83 C105 0.948 . S
H84 C107 0.951 . S
H85 C72 0.947 . S
H86 C74 0.952 . S
H87 C75 0.950 . S
N88 C91 1.382 . S
N88 C93 1.363 . S
N89 C91 1.371 . S
N89 C92 1.372 . S
N90 C92 1.361 . S
N90 C93 1.377 . S
C91 N88 1.382 . S
C91 N89 1.371 . S
C91 C94 1.480 . S
C92 N89 1.372 . S
C92 N90 1.361 . S
C92 C100 1.457 . S
C93 N88 1.363 . S
C93 N90 1.377 . S
C93 C106 1.479 . S
C94 C91 1.480 . S
C94 C95 1.383 . S
C94 C99 1.385 . S
C95 H76 0.947 . S
C95 C94 1.383 . S
C95 C96 1.388 . S
C96 H77 0.946 . S
C96 C95 1.388 . S
C96 C97 1.384 . S
C97 C96 1.384 . S
C97 C98 1.377 . S
C98 H78 0.953 . S
C98 C97 1.377 . S
C98 C99 1.369 . S
C99 H79 0.945 . S
C99 C94 1.385 . S
C99 C98 1.369 . S
C100 C92 1.457 . S
C100 C101 1.372 . S
C100 C105 1.364 . S
C101 H80 0.952 . S
C101 C100 1.372 . S
C101 C102 1.389 . S
C102 H81 0.949 . S
C102 C101 1.389 . S
C102 C103 1.387 . S
C103 C102 1.387 . S
C103 C104 1.372 . S
C104 H82 0.950 . S
C104 C103 1.372 . S
C104 C105 1.379 . S
C105 H83 0.948 . S
C105 C100 1.364 . S
C105 C104 1.379 . S
C106 C75 1.383 . S
C106 C93 1.479 . S
C106 C107 1.398 . S
C107 C72 1.382 . S
C107 H84 0.951 . S
C107 C106 1.398 . S
C108 C109 1.384 . S
C108 H121 0.947 . S
C108 C143 1.382 . S
C109 C108 1.384 . S
C109 C110 1.378 . S
C110 C109 1.378 . S
C110 C111 1.378 . S
C110 H122 0.952 . S
C111 C110 1.378 . S
C111 H123 0.950 . S
C111 C142 1.383 . S
H112 C131 0.947 . S
H113 C132 0.946 . S
H114 C134 0.953 . S
H115 C135 0.945 . S
H116 C137 0.952 . S
H117 C138 0.949 . S
H118 C140 0.950 . S
H119 C141 0.948 . S
H120 C143 0.951 . S
H121 C108 0.947 . S
H122 C110 0.952 . S
H123 C111 0.950 . S
N124 C127 1.382 . S
N124 C129 1.363 . S
N125 C127 1.371 . S
N125 C128 1.372 . S
N126 C128 1.361 . S
N126 C129 1.377 . S
C127 N124 1.382 . S
C127 N125 1.371 . S
C127 C130 1.480 . S
C128 N125 1.372 . S
C128 N126 1.361 . S
C128 C136 1.457 . S
C129 N124 1.363 . S
C129 N126 1.377 . S
C129 C142 1.479 . S
C130 C127 1.480 . S
C130 C131 1.383 . S
C130 C135 1.385 . S
C131 H112 0.947 . S
C131 C130 1.383 . S
C131 C132 1.388 . S
C132 H113 0.946 . S
C132 C131 1.388 . S
C132 C133 1.384 . S
C133 C132 1.384 . S
C133 C134 1.377 . S
C134 H114 0.953 . S
C134 C133 1.377 . S
C134 C135 1.369 . S
C135 H115 0.945 . S
C135 C130 1.385 . S
C135 C134 1.369 . S
C136 C128 1.457 . S
C136 C137 1.372 . S
C136 C141 1.364 . S
C137 H116 0.952 . S
C137 C136 1.372 . S
C137 C138 1.389 . S
C138 H117 0.949 . S
C138 C137 1.389 . S
C138 C139 1.387 . S
C139 C138 1.387 . S
C139 C140 1.372 . S
C140 H118 0.950 . S
C140 C139 1.372 . S
C140 C141 1.379 . S
C141 H119 0.948 . S
C141 C136 1.364 . S
C141 C140 1.379 . S
C142 C111 1.383 . S
C142 C129 1.479 . S
C142 C143 1.398 . S
C143 C108 1.382 . S
C143 H120 0.951 . S
C143 C142 1.398 . S
C144 C145 1.384 . S
C144 H157 0.947 . S
C144 C179 1.382 . S
C145 C144 1.384 . S
C145 C146 1.378 . S
C146 C145 1.378 . S
C146 C147 1.378 . S
C146 H158 0.952 . S
C147 C146 1.378 . S
C147 H159 0.950 . S
C147 C178 1.383 . S
H148 C167 0.947 . S
H149 C168 0.946 . S
H150 C170 0.953 . S
H151 C171 0.945 . S
H152 C173 0.952 . S
H153 C174 0.949 . S
H154 C176 0.950 . S
H155 C177 0.948 . S
H156 C179 0.951 . S
H157 C144 0.947 . S
H158 C146 0.952 . S
H159 C147 0.950 . S
N160 C163 1.382 . S
N160 C165 1.363 . S
N161 C163 1.371 . S
N161 C164 1.372 . S
N162 C164 1.361 . S
N162 C165 1.377 . S
C163 N160 1.382 . S
C163 N161 1.371 . S
C163 C166 1.480 . S
C164 N161 1.372 . S
C164 N162 1.361 . S
C164 C172 1.457 . S
C165 N160 1.363 . S
C165 N162 1.377 . S
C165 C178 1.479 . S
C166 C163 1.480 . S
C166 C167 1.383 . S
C166 C171 1.385 . S
C167 H148 0.947 . S
C167 C166 1.383 . S
C167 C168 1.388 . S
C168 H149 0.946 . S
C168 C167 1.388 . S
C168 C169 1.384 . S
C169 C168 1.384 . S
C169 C170 1.377 . S
C170 H150 0.953 . S
C170 C169 1.377 . S
C170 C171 1.369 . S
C171 H151 0.945 . S
C171 C166 1.385 . S
C171 C170 1.369 . S
C172 C164 1.457 . S
C172 C173 1.372 . S
C172 C177 1.364 . S
C173 H152 0.952 . S
C173 C172 1.372 . S
C173 C174 1.389 . S
C174 H153 0.949 . S
C174 C173 1.389 . S
C174 C175 1.387 . S
C175 C174 1.387 . S
C175 C176 1.372 . S
C176 H154 0.950 . S
C176 C175 1.372 . S
C176 C177 1.379 . S
C177 H155 0.948 . S
C177 C172 1.364 . S
C177 C176 1.379 . S
C178 C147 1.383 . S
C178 C165 1.479 . S
C178 C179 1.398 . S
C179 C144 1.382 . S
C179 H156 0.951 . S
C179 C178 1.398 . S
C180 C181 1.384 . S
C180 H193 0.947 . S
C180 C215 1.382 . S
C181 C180 1.384 . S
C181 C182 1.378 . S
C182 C181 1.378 . S
C182 C183 1.378 . S
C182 H194 0.952 . S
C183 C182 1.378 . S
C183 H195 0.950 . S
C183 C214 1.383 . S
H184 C203 0.947 . S
H185 C204 0.946 . S
H186 C206 0.953 . S
H187 C207 0.945 . S
H188 C209 0.952 . S
H189 C210 0.949 . S
H190 C212 0.950 . S
H191 C213 0.948 . S
H192 C215 0.951 . S
H193 C180 0.947 . S
H194 C182 0.952 . S
H195 C183 0.950 . S
N196 C199 1.382 . S
N196 C201 1.363 . S
N197 C199 1.371 . S
N197 C200 1.372 . S
N198 C200 1.361 . S
N198 C201 1.377 . S
C199 N196 1.382 . S
C199 N197 1.371 . S
C199 C202 1.480 . S
C200 N197 1.372 . S
C200 N198 1.361 . S
C200 C208 1.457 . S
C201 N196 1.363 . S
C201 N198 1.377 . S
C201 C214 1.479 . S
C202 C199 1.480 . S
C202 C203 1.383 . S
C202 C207 1.385 . S
C203 H184 0.947 . S
C203 C202 1.383 . S
C203 C204 1.388 . S
C204 H185 0.946 . S
C204 C203 1.388 . S
C204 C205 1.384 . S
C205 C204 1.384 . S
C205 C206 1.377 . S
C206 H186 0.953 . S
C206 C205 1.377 . S
C206 C207 1.369 . S
C207 H187 0.945 . S
C207 C202 1.385 . S
C207 C206 1.369 . S
C208 C200 1.457 . S
C208 C209 1.372 . S
C208 C213 1.364 . S
C209 H188 0.952 . S
C209 C208 1.372 . S
C209 C210 1.389 . S
C210 H189 0.949 . S
C210 C209 1.389 . S
C210 C211 1.387 . S
C211 C210 1.387 . S
C211 C212 1.372 . S
C212 H190 0.950 . S
C212 C211 1.372 . S
C212 C213 1.379 . S
C213 H191 0.948 . S
C213 C208 1.364 . S
C213 C212 1.379 . S
C214 C183 1.383 . S
C214 C201 1.479 . S
C214 C215 1.398 . S
C215 C180 1.382 . S
C215 H192 0.951 . S
C215 C214 1.398 . S
C216 C217 1.384 . S
C216 H229 0.947 . S
C216 C251 1.382 . S
C217 C216 1.384 . S
C217 C218 1.378 . S
C218 C217 1.378 . S
C218 C219 1.378 . S
C218 H230 0.952 . S
C219 C218 1.378 . S
C219 H231 0.950 . S
C219 C250 1.383 . S
H220 C239 0.947 . S
H221 C240 0.946 . S
H222 C242 0.953 . S
H223 C243 0.945 . S
H224 C245 0.952 . S
H225 C246 0.949 . S
H226 C248 0.950 . S
H227 C249 0.948 . S
H228 C251 0.951 . S
H229 C216 0.947 . S
H230 C218 0.952 . S
H231 C219 0.950 . S
N232 C235 1.382 . S
N232 C237 1.363 . S
N233 C235 1.371 . S
N233 C236 1.372 . S
N234 C236 1.361 . S
N234 C237 1.377 . S
C235 N232 1.382 . S
C235 N233 1.371 . S
C235 C238 1.480 . S
C236 N233 1.372 . S
C236 N234 1.361 . S
C236 C244 1.457 . S
C237 N232 1.363 . S
C237 N234 1.377 . S
C237 C250 1.479 . S
C238 C235 1.480 . S
C238 C239 1.383 . S
C238 C243 1.385 . S
C239 H220 0.947 . S
C239 C238 1.383 . S
C239 C240 1.388 . S
C240 H221 0.946 . S
C240 C239 1.388 . S
C240 C241 1.384 . S
C241 C240 1.384 . S
C241 C242 1.377 . S
C242 H222 0.953 . S
C242 C241 1.377 . S
C242 C243 1.369 . S
C243 H223 0.945 . S
C243 C238 1.385 . S
C243 C242 1.369 . S
C244 C236 1.457 . S
C244 C245 1.372 . S
C244 C249 1.364 . S
C245 H224 0.952 . S
C245 C244 1.372 . S
C245 C246 1.389 . S
C246 H225 0.949 . S
C246 C245 1.389 . S
C246 C247 1.387 . S
C247 C246 1.387 . S
C247 C248 1.372 . S
C248 H226 0.950 . S
C248 C247 1.372 . S
C248 C249 1.379 . S
C249 H227 0.948 . S
C249 C244 1.364 . S
C249 C248 1.379 . S
C250 C219 1.383 . S
C250 C237 1.479 . S
C250 C251 1.398 . S
C251 C216 1.382 . S
C251 H228 0.951 . S
C251 C250 1.398 . S
C252 C253 1.384 . S
C252 H265 0.947 . S
C252 C287 1.382 . S
C253 C252 1.384 . S
C253 C254 1.378 . S
C254 C253 1.378 . S
C254 C255 1.378 . S
C254 H266 0.952 . S
C255 C254 1.378 . S
C255 H267 0.950 . S
C255 C286 1.383 . S
H256 C275 0.947 . S
H257 C276 0.946 . S
H258 C278 0.953 . S
H259 C279 0.945 . S
H260 C281 0.952 . S
H261 C282 0.949 . S
H262 C284 0.950 . S
H263 C285 0.948 . S
H264 C287 0.951 . S
H265 C252 0.947 . S
H266 C254 0.952 . S
H267 C255 0.950 . S
N268 C271 1.382 . S
N268 C273 1.363 . S
N269 C271 1.371 . S
N269 C272 1.372 . S
N270 C272 1.361 . S
N270 C273 1.377 . S
C271 N268 1.382 . S
C271 N269 1.371 . S
C271 C274 1.480 . S
C272 N269 1.372 . S
C272 N270 1.361 . S
C272 C280 1.457 . S
C273 N268 1.363 . S
C273 N270 1.377 . S
C273 C286 1.479 . S
C274 C271 1.480 . S
C274 C275 1.383 . S
C274 C279 1.385 . S
C275 H256 0.947 . S
C275 C274 1.383 . S
C275 C276 1.388 . S
C276 H257 0.946 . S
C276 C275 1.388 . S
C276 C277 1.384 . S
C277 C276 1.384 . S
C277 C278 1.377 . S
C278 H258 0.953 . S
C278 C277 1.377 . S
C278 C279 1.369 . S
C279 H259 0.945 . S
C279 C274 1.385 . S
C279 C278 1.369 . S
C280 C272 1.457 . S
C280 C281 1.372 . S
C280 C285 1.364 . S
C281 H260 0.952 . S
C281 C280 1.372 . S
C281 C282 1.389 . S
C282 H261 0.949 . S
C282 C281 1.389 . S
C282 C283 1.387 . S
C283 C282 1.387 . S
C283 C284 1.372 . S
C284 H262 0.950 . S
C284 C283 1.372 . S
C284 C285 1.379 . S
C285 H263 0.948 . S
C285 C280 1.364 . S
C285 C284 1.379 . S
C286 C255 1.383 . S
C286 C273 1.479 . S
C286 C287 1.398 . S
C287 C252 1.382 . S
C287 H264 0.951 . S
C287 C286 1.398 . S
C288 O304 1.251 . S
C288 O306 1.254 1_545 S
N289 C290 1.333 . S
N289 C294 1.307 . S
N289 Zn295 2.020 . S
C290 N289 1.333 . S
C290 C291 1.379 . S
C290 H308 0.952 . S
C291 C290 1.379 . S
C291 C292 1.390 . S
C291 H318 0.949 . S
C292 C291 1.390 . S
C292 C293 1.357 . S
C293 C292 1.357 . S
C293 C294 1.370 . S
C293 H319 0.950 . S
C294 N289 1.307 . S
C294 C293 1.370 . S
C294 H312 0.948 1_455 S
Zn295 N289 2.020 . S
Zn295 O304 2.039 . S
Zn295 O310 2.034 . S
Zn295 O314 2.025 1_455 S
Zn295 O316 2.024 1_455 S
C296 O315 1.246 1_545 S
C296 O316 1.249 . S
N297 C298 1.307 . S
N297 C299 1.333 . S
N297 Zn303 2.020 . S
C298 N297 1.307 . S
C298 C302 1.370 . S
C298 H309 0.948 1_655 S
C299 N297 1.333 . S
C299 C300 1.379 . S
C299 H307 0.952 . S
C300 C299 1.379 . S
C300 C301 1.390 . S
C300 H320 0.949 . S
C301 C300 1.390 . S
C301 C302 1.357 . S
C302 C298 1.370 . S
C302 C301 1.357 . S
C302 H321 0.950 . S
Zn303 N297 2.020 . S
Zn303 O306 2.025 1_655 S
Zn303 O311 2.024 1_655 S
Zn303 O313 2.039 . S
Zn303 O315 2.034 . S
O304 C288 1.251 . S
O304 Zn295 2.039 . S
C305 O310 1.246 1_565 S
C305 O311 1.249 . S
O306 C288 1.254 1_565 S
O306 Zn303 2.025 1_455 S
H307 C299 0.952 . S
H308 C290 0.952 . S
H309 C298 0.948 1_455 S
O310 Zn295 2.034 . S
O310 C305 1.246 1_545 S
O311 Zn303 2.024 1_455 S
O311 C305 1.249 . S
H312 C294 0.948 1_655 S
O313 Zn303 2.039 . S
O313 C317 1.251 . S
O314 Zn295 2.025 1_655 S
O314 C317 1.254 1_545 S
O315 C296 1.246 1_565 S
O315 Zn303 2.034 . S
O316 Zn295 2.024 1_655 S
O316 C296 1.249 . S
C317 O313 1.251 . S
C317 O314 1.254 1_565 S
H318 C291 0.949 . S
H319 C293 0.950 . S
H320 C300 0.949 . S
H321 C302 0.950 . S
C322 O338 1.251 1_565 S
C322 O340 1.254 . S
N323 C324 1.333 . S
N323 C328 1.307 . S
N323 Zn329 2.020 . S
C324 N323 1.333 . S
C324 C325 1.379 . S
C324 H342 0.952 . S
C325 C324 1.379 . S
C325 C326 1.390 . S
C325 H352 0.949 . S
C326 C325 1.390 . S
C326 C327 1.357 . S
C327 C326 1.357 . S
C327 C328 1.370 . S
C327 H353 0.950 . S
C328 N323 1.307 . S
C328 C327 1.370 . S
C328 H346 0.948 . S
Zn329 N323 2.020 . S
Zn329 O338 2.039 . S
Zn329 O344 2.034 1_556 S
Zn329 O348 2.025 1_556 S
Zn329 O350 2.024 . S
C330 O349 1.246 . S
C330 O350 1.249 1_565 S
N331 C332 1.307 . S
N331 C333 1.333 . S
N331 Zn337 2.020 . S
C332 N331 1.307 . S
C332 C336 1.370 . S
C332 H343 0.948 . S
C333 N331 1.333 . S
C333 C334 1.379 . S
C333 H341 0.952 . S
C334 C333 1.379 . S
C334 C335 1.390 . S
C334 H354 0.949 . S
C335 C334 1.390 . S
C335 C336 1.357 . S
C336 C332 1.370 . S
C336 C335 1.357 . S
C336 H355 0.950 . S
Zn337 N331 2.020 . S
Zn337 O340 2.025 1_554 S
Zn337 O345 2.024 . S
Zn337 O347 2.039 . S
Zn337 O349 2.034 1_554 S
O338 C322 1.251 1_545 S
O338 Zn329 2.039 . S
C339 O344 1.246 . S
C339 O345 1.249 1_545 S
O340 C322 1.254 . S
O340 Zn337 2.025 1_556 S
H341 C333 0.952 . S
H342 C324 0.952 . S
H343 C332 0.948 . S
O344 Zn329 2.034 1_554 S
O344 C339 1.246 . S
O345 Zn337 2.024 . S
O345 C339 1.249 1_565 S
H346 C328 0.948 . S
O347 Zn337 2.039 . S
O347 C351 1.251 1_565 S
O348 Zn329 2.025 1_554 S
O348 C351 1.254 . S
O349 C330 1.246 . S
O349 Zn337 2.034 1_556 S
O350 Zn329 2.024 . S
O350 C330 1.249 1_545 S
C351 O347 1.251 1_545 S
C351 O348 1.254 . S
H352 C325 0.949 . S
H353 C327 0.950 . S
H354 C334 0.949 . S
H355 C336 0.950 . S
C356 O372 1.251 . S
C356 O374 1.254 . S
N357 C358 1.333 . S
N357 C362 1.307 . S
N357 Zn363 2.020 . S
C358 N357 1.333 . S
C358 C359 1.379 . S
C358 H376 0.952 . S
C359 C358 1.379 . S
C359 C360 1.390 . S
C359 H386 0.949 . S
C360 C359 1.390 . S
C360 C361 1.357 . S
C361 C360 1.357 . S
C361 C362 1.370 . S
C361 H387 0.950 . S
C362 N357 1.307 . S
C362 C361 1.370 . S
C362 H380 0.948 . S
Zn363 N357 2.020 . S
Zn363 O372 2.039 . S
Zn363 O378 2.034 . S
Zn363 O382 2.025 . S
Zn363 O384 2.024 . S
C364 O383 1.246 . S
C364 O384 1.249 . S
N365 C366 1.307 . S
N365 C367 1.333 . S
N365 Zn371 2.020 . S
C366 N365 1.307 . S
C366 C370 1.370 . S
C366 H377 0.948 . S
C367 N365 1.333 . S
C367 C368 1.379 . S
C367 H375 0.952 . S
C368 C367 1.379 . S
C368 C369 1.390 . S
C368 H388 0.949 . S
C369 C368 1.390 . S
C369 C370 1.357 . S
C370 C366 1.370 . S
C370 C369 1.357 . S
C370 H389 0.950 . S
Zn371 N365 2.020 . S
Zn371 O374 2.025 . S
Zn371 O379 2.024 . S
Zn371 O381 2.039 . S
Zn371 O383 2.034 . S
O372 C356 1.251 . S
O372 Zn363 2.039 . S
C373 O378 1.246 . S
C373 O379 1.249 . S
O374 C356 1.254 . S
O374 Zn371 2.025 . S
H375 C367 0.952 . S
H376 C358 0.952 . S
H377 C366 0.948 . S
O378 Zn363 2.034 . S
O378 C373 1.246 . S
O379 Zn371 2.024 . S
O379 C373 1.249 . S
H380 C362 0.948 . S
O381 Zn371 2.039 . S
O381 C385 1.251 . S
O382 Zn363 2.025 . S
O382 C385 1.254 . S
O383 C364 1.246 . S
O383 Zn371 2.034 . S
O384 Zn363 2.024 . S
O384 C364 1.249 . S
C385 O381 1.251 . S
C385 O382 1.254 . S
H386 C359 0.949 . S
H387 C361 0.950 . S
H388 C368 0.949 . S
H389 C370 0.950 . S
C390 O406 1.251 1_556 S
C390 O408 1.254 . S
N391 C392 1.333 . S
N391 C396 1.307 . S
N391 Zn397 2.020 . S
C392 N391 1.333 . S
C392 C393 1.379 . S
C392 H410 0.952 . S
C393 C392 1.379 . S
C393 C394 1.390 . S
C393 H420 0.949 . S
C394 C393 1.390 . S
C394 C395 1.357 . S
C395 C394 1.357 . S
C395 C396 1.370 . S
C395 H421 0.950 . S
C396 N391 1.307 . S
C396 C395 1.370 . S
C396 H414 0.948 . S
Zn397 N391 2.020 . S
Zn397 O406 2.039 . S
Zn397 O412 2.034 1_655 S
Zn397 O416 2.025 1_655 S
Zn397 O418 2.024 . S
C398 O417 1.246 . S
C398 O418 1.249 1_556 S
N399 C400 1.307 . S
N399 C401 1.333 . S
N399 Zn405 2.020 . S
C400 N399 1.307 . S
C400 C404 1.370 . S
C400 H411 0.948 . S
C401 N399 1.333 . S
C401 C402 1.379 . S
C401 H409 0.952 . S
C402 C401 1.379 . S
C402 C403 1.390 . S
C402 H422 0.949 . S
C403 C402 1.390 . S
C403 C404 1.357 . S
C404 C400 1.370 . S
C404 C403 1.357 . S
C404 H423 0.950 . S
Zn405 N399 2.020 . S
Zn405 O408 2.025 1_455 S
Zn405 O413 2.024 . S
Zn405 O415 2.039 . S
Zn405 O417 2.034 1_455 S
O406 C390 1.251 1_554 S
O406 Zn397 2.039 . S
C407 O412 1.246 . S
C407 O413 1.249 1_554 S
O408 C390 1.254 . S
O408 Zn405 2.025 1_655 S
H409 C401 0.952 . S
H410 C392 0.952 . S
H411 C400 0.948 . S
O412 Zn397 2.034 1_455 S
O412 C407 1.246 . S
O413 Zn405 2.024 . S
O413 C407 1.249 1_556 S
H414 C396 0.948 . S
O415 Zn405 2.039 . S
O415 C419 1.251 1_556 S
O416 Zn397 2.025 1_455 S
O416 C419 1.254 . S
O417 C398 1.246 . S
O417 Zn405 2.034 1_655 S
O418 Zn397 2.024 . S
O418 C398 1.249 1_554 S
C419 O415 1.251 1_554 S
C419 O416 1.254 . S
H420 C393 0.949 . S
H421 C395 0.950 . S
H422 C402 0.949 . S
H423 C404 0.950 . S
H424 C432 0.929 . S
H425 C434 0.930 . S
H426 C436 0.930 . S
H427 C439 0.929 . S
H428 C442 0.930 . S
H429 C444 0.960 . S
H430 C444 0.960 . S
H431 C444 0.960 . S
C432 H424 0.929 . S
C432 C433 1.377 . S
C432 C434 1.384 . S
C433 C432 1.377 . S
C433 C439 1.390 . S
C434 H425 0.930 . S
C434 C432 1.384 . S
C434 C435 1.372 . S
C435 C434 1.372 . S
C435 C436 1.400 . S
C435 C440 1.490 . S
C436 H426 0.930 . S
C436 C435 1.400 . S
C436 C439 1.386 . S
H437 C453 0.930 . S
H438 C454 0.931 . S
C439 H427 0.929 . S
C439 C433 1.390 . S
C439 C436 1.386 . S
C440 C435 1.490 . S
C440 C442 1.395 . S
C440 C443 1.403 . S
H441 C447 0.930 . S
C442 H428 0.930 . S
C442 C440 1.395 . S
C442 C445 1.403 . S
C443 C440 1.403 . S
C443 C444 1.524 . S
C443 C447 1.400 . S
C444 H429 0.960 . S
C444 H430 0.960 . S
C444 H431 0.960 . S
C444 C443 1.524 . S
C445 C442 1.403 . S
C445 C446 1.392 . S
C445 C449 1.495 . S
C446 C445 1.392 . S
C446 C447 1.385 . S
C446 C448 1.478 . S
C447 H441 0.930 . S
C447 C443 1.400 . S
C447 C446 1.385 . S
C448 C446 1.478 . S
C448 C450 1.381 . S
C448 C454 1.383 . S
C449 C445 1.495 . S
C449 H455 0.959 1_455 S
C449 H456 0.961 . S
C449 H457 0.960 1_455 S
C450 C448 1.381 . S
C450 C451 1.394 . S
C450 H458 0.953 . S
C451 C450 1.394 . S
C451 C452 1.383 . S
C451 H459 0.929 1_455 S
C452 C451 1.383 . S
C452 C453 1.377 . S
C453 H437 0.930 . S
C453 C452 1.377 . S
C453 C454 1.379 . S
C454 H438 0.931 . S
C454 C448 1.383 . S
C454 C453 1.379 . S
H455 C449 0.959 1_655 S
H456 C449 0.961 . S
H457 C449 0.960 1_655 S
H458 C450 0.953 . S
H459 C451 0.929 1_655 S
H460 C468 0.929 . S
H461 C470 0.930 . S
H462 C472 0.930 . S
H463 C475 0.929 . S
H464 C478 0.930 . S
H465 C480 0.960 . S
H466 C480 0.960 . S
H467 C480 0.960 . S
C468 H460 0.929 . S
C468 C469 1.377 . S
C468 C470 1.384 . S
C469 C468 1.377 . S
C469 C475 1.390 . S
C470 H461 0.930 . S
C470 C468 1.384 . S
C470 C471 1.372 . S
C471 C470 1.372 . S
C471 C472 1.400 . S
C471 C476 1.490 . S
C472 H462 0.930 . S
C472 C471 1.400 . S
C472 C475 1.386 . S
H473 C489 0.930 1_545 S
H474 C490 0.931 . S
C475 H463 0.929 . S
C475 C469 1.390 . S
C475 C472 1.386 . S
C476 C471 1.490 . S
C476 C478 1.395 . S
C476 C479 1.403 . S
H477 C483 0.930 . S
C478 H464 0.930 . S
C478 C476 1.395 . S
C478 C481 1.403 . S
C479 C476 1.403 . S
C479 C480 1.524 . S
C479 C483 1.400 . S
C480 H465 0.960 . S
C480 H466 0.960 . S
C480 H467 0.960 . S
C480 C479 1.524 . S
C481 C478 1.403 . S
C481 C482 1.392 . S
C481 C485 1.495 . S
C482 C481 1.392 . S
C482 C483 1.385 . S
C482 C484 1.478 . S
C483 H477 0.930 . S
C483 C479 1.400 . S
C483 C482 1.385 . S
C484 C482 1.478 . S
C484 C486 1.381 . S
C484 C490 1.383 . S
C485 C481 1.495 . S
C485 H491 0.959 . S
C485 H492 0.961 . S
C485 H493 0.960 . S
C486 C484 1.381 . S
C486 C487 1.394 . S
C486 H494 0.930 . S
C487 C486 1.394 . S
C487 C488 1.383 . S
C487 H495 0.929 . S
C488 C487 1.383 . S
C488 C489 1.377 . S
C489 H473 0.930 1_565 S
C489 C488 1.377 . S
C489 C490 1.379 . S
C490 H474 0.931 . S
C490 C484 1.383 . S
C490 C489 1.379 . S
H491 C485 0.959 . S
H492 C485 0.961 . S
H493 C485 0.960 . S
H494 C486 0.930 . S
H495 C487 0.929 . S
H496 C504 0.929 . S
H497 C506 0.930 . S
H498 C508 0.930 . S
H499 C511 0.929 . S
H500 C514 0.930 . S
H501 C516 0.960 . S
H502 C516 0.960 . S
H503 C516 0.960 . S
C504 H496 0.929 . S
C504 C505 1.377 . S
C504 C506 1.384 . S
C505 C504 1.377 . S
C505 C511 1.390 . S
C506 H497 0.930 . S
C506 C504 1.384 . S
C506 C507 1.372 . S
C507 C506 1.372 . S
C507 C508 1.400 . S
C507 C512 1.490 . S
C508 H498 0.930 . S
C508 C507 1.400 . S
C508 C511 1.386 . S
H509 C525 0.930 . S
H510 C526 0.931 . S
C511 H499 0.929 . S
C511 C505 1.390 . S
C511 C508 1.386 . S
C512 C507 1.490 . S
C512 C514 1.395 . S
C512 C515 1.403 . S
H513 C519 0.930 . S
C514 H500 0.930 . S
C514 C512 1.395 . S
C514 C517 1.403 . S
C515 C512 1.403 . S
C515 C516 1.524 . S
C515 C519 1.400 . S
C516 H501 0.960 . S
C516 H502 0.960 . S
C516 H503 0.960 . S
C516 C515 1.524 . S
C517 C514 1.403 . S
C517 C518 1.392 . S
C517 C521 1.495 . S
C518 C517 1.392 . S
C518 C519 1.385 . S
C518 C520 1.478 . S
C519 H513 0.930 . S
C519 C515 1.400 . S
C519 C518 1.385 . S
C520 C518 1.478 . S
C520 C522 1.381 . S
C520 C526 1.383 . S
C521 C517 1.495 . S
C521 H527 0.959 . S
C521 H528 0.961 . S
C521 H529 0.960 . S
C522 C520 1.381 . S
C522 C523 1.394 . S
C522 H530 0.930 . S
C523 C522 1.394 . S
C523 C524 1.383 . S
C523 H531 0.929 . S
C524 C523 1.383 . S
C524 C525 1.377 . S
C525 H509 0.930 . S
C525 C524 1.377 . S
C525 C526 1.379 . S
C526 H510 0.931 . S
C526 C520 1.383 . S
C526 C525 1.379 . S
H527 C521 0.959 . S
H528 C521 0.961 . S
H529 C521 0.960 . S
H530 C522 0.930 . S
H531 C523 0.929 . S
H532 C540 0.929 . S
H533 C542 0.930 . S
H534 C544 0.930 . S
H535 C547 0.929 . S
H536 C550 0.930 . S
H537 C552 0.960 . S
H538 C552 0.960 . S
H539 C552 0.960 . S
C540 H532 0.929 . S
C540 C541 1.377 . S
C540 C542 1.384 . S
C541 C540 1.377 . S
C541 C547 1.390 . S
C542 H533 0.930 . S
C542 C540 1.384 . S
C542 C543 1.372 . S
C543 C542 1.372 . S
C543 C544 1.400 . S
C543 C548 1.490 . S
C544 H534 0.930 . S
C544 C543 1.400 . S
C544 C547 1.386 . S
H545 C561 0.930 . S
H546 C562 0.931 . S
C547 H535 0.929 . S
C547 C541 1.390 . S
C547 C544 1.386 . S
C548 C543 1.490 . S
C548 C550 1.395 . S
C548 C551 1.403 . S
H549 C555 0.930 . S
C550 H536 0.930 . S
C550 C548 1.395 . S
C550 C553 1.403 . S
C551 C548 1.403 . S
C551 C552 1.524 . S
C551 C555 1.400 . S
C552 H537 0.960 . S
C552 H538 0.960 . S
C552 H539 0.960 . S
C552 C551 1.524 . S
C553 C550 1.403 . S
C553 C554 1.392 . S
C553 C557 1.495 . S
C554 C553 1.392 . S
C554 C555 1.385 . S
C554 C556 1.478 . S
C555 H549 0.930 . S
C555 C551 1.400 . S
C555 C554 1.385 . S
C556 C554 1.478 . S
C556 C558 1.381 . S
C556 C562 1.383 . S
C557 C553 1.495 . S
C557 H563 0.959 . S
C557 H564 0.961 . S
C557 H565 0.960 . S
C558 C556 1.381 . S
C558 C559 1.394 . S
C558 H566 0.930 . S
C559 C558 1.394 . S
C559 C560 1.383 . S
C559 H567 0.929 . S
C560 C559 1.383 . S
C560 C561 1.377 . S
C561 H545 0.930 . S
C561 C560 1.377 . S
C561 C562 1.379 . S
C562 H546 0.931 . S
C562 C556 1.383 . S
C562 C561 1.379 . S
H563 C557 0.959 . S
H564 C557 0.961 . S
H565 C557 0.960 . S
H566 C558 0.930 . S
H567 C559 0.929 . S
H568 C576 0.929 . S
H569 C578 0.930 . S
H570 C580 0.930 . S
H571 C583 0.929 . S
H572 C586 0.930 . S
H573 C588 0.960 . S
H574 C588 0.960 . S
H575 C588 0.960 . S
C576 H568 0.929 . S
C576 C577 1.377 . S
C576 C578 1.384 . S
C577 C576 1.377 . S
C577 C583 1.390 . S
C578 H569 0.930 . S
C578 C576 1.384 . S
C578 C579 1.372 . S
C579 C578 1.372 . S
C579 C580 1.400 . S
C579 C584 1.490 . S
C580 H570 0.930 . S
C580 C579 1.400 . S
C580 C583 1.386 . S
H581 C597 0.930 . S
H582 C598 0.931 . S
C583 H571 0.929 . S
C583 C577 1.390 . S
C583 C580 1.386 . S
C584 C579 1.490 . S
C584 C586 1.395 . S
C584 C587 1.403 . S
H585 C591 0.930 . S
C586 H572 0.930 . S
C586 C584 1.395 . S
C586 C589 1.403 . S
C587 C584 1.403 . S
C587 C588 1.524 . S
C587 C591 1.400 . S
C588 H573 0.960 . S
C588 H574 0.960 . S
C588 H575 0.960 . S
C588 C587 1.524 . S
C589 C586 1.403 . S
C589 C590 1.392 . S
C589 C593 1.495 . S
C590 C589 1.392 . S
C590 C591 1.385 . S
C590 C592 1.478 . S
C591 H585 0.930 . S
C591 C587 1.400 . S
C591 C590 1.385 . S
C592 C590 1.478 . S
C592 C594 1.381 . S
C592 C598 1.383 . S
C593 C589 1.495 . S
C593 H599 0.959 1_554 S
C593 H600 0.961 1_554 S
C593 H601 0.960 . S
C594 C592 1.381 . S
C594 C595 1.394 . S
C594 H602 0.930 . S
C595 C594 1.394 . S
C595 C596 1.383 . S
C595 H603 0.929 1_545 S
C596 C595 1.383 . S
C596 C597 1.377 . S
C597 H581 0.930 . S
C597 C596 1.377 . S
C597 C598 1.379 . S
C598 H582 0.931 . S
C598 C592 1.383 . S
C598 C597 1.379 . S
H599 C593 0.959 1_556 S
H600 C593 0.961 1_556 S
H601 C593 0.960 . S
H602 C594 0.930 . S
H603 C595 0.929 1_565 S
H604 C612 0.929 . S
H605 C614 0.930 . S
H606 C616 0.930 . S
H607 C619 0.929 . S
H608 C622 0.930 . S
H609 C624 0.960 . S
H610 C624 0.960 . S
H611 C624 0.960 . S
C612 H604 0.929 . S
C612 C613 1.377 . S
C612 C614 1.384 . S
C613 C612 1.377 . S
C613 C619 1.390 . S
C614 H605 0.930 . S
C614 C612 1.384 . S
C614 C615 1.372 . S
C615 C614 1.372 . S
C615 C616 1.400 . S
C615 C620 1.490 . S
C616 H606 0.930 . S
C616 C615 1.400 . S
C616 C619 1.386 . S
H617 C633 0.930 . S
H618 C634 0.931 . S
C619 H607 0.929 . S
C619 C613 1.390 . S
C619 C616 1.386 . S
C620 C615 1.490 . S
C620 C622 1.395 . S
C620 C623 1.403 . S
H621 C627 0.930 . S
C622 H608 0.930 . S
C622 C620 1.395 . S
C622 C625 1.403 . S
C623 C620 1.403 . S
C623 C624 1.524 . S
C623 C627 1.400 . S
C624 H609 0.960 . S
C624 H610 0.960 . S
C624 H611 0.960 . S
C624 C623 1.524 . S
C625 C622 1.403 . S
C625 C626 1.392 . S
C625 C629 1.495 . S
C626 C625 1.392 . S
C626 C627 1.385 . S
C626 C628 1.478 . S
C627 H621 0.930 . S
C627 C623 1.400 . S
C627 C626 1.385 . S
C628 C626 1.478 . S
C628 C630 1.381 . S
C628 C634 1.383 . S
C629 C625 1.495 . S
C629 H635 0.959 . S
C629 H636 0.961 . S
C629 H637 0.960 . S
C630 C628 1.381 . S
C630 C631 1.394 . S
C630 H638 0.930 1_565 S
C631 C630 1.394 . S
C631 C632 1.383 . S
C631 H639 0.929 1_565 S
C632 C631 1.383 . S
C632 C633 1.377 . S
C633 H617 0.930 . S
C633 C632 1.377 . S
C633 C634 1.379 . S
C634 H618 0.931 . S
C634 C628 1.383 . S
C634 C633 1.379 . S
H635 C629 0.959 . S
H636 C629 0.961 . S
H637 C629 0.960 . S
H638 C630 0.930 1_545 S
H639 C631 0.929 1_545 S
H640 C648 0.929 . S
H641 C650 0.930 . S
H642 C652 0.930 . S
H643 C655 0.929 . S
H644 C658 0.930 . S
H645 C660 0.960 . S
H646 C660 0.960 . S
H647 C660 0.960 . S
C648 H640 0.929 . S
C648 C649 1.377 . S
C648 C650 1.384 . S
C649 C648 1.377 . S
C649 C655 1.390 . S
C650 H641 0.930 . S
C650 C648 1.384 . S
C650 C651 1.372 . S
C651 C650 1.372 . S
C651 C652 1.400 . S
C651 C656 1.490 . S
C652 H642 0.930 . S
C652 C651 1.400 . S
C652 C655 1.386 . S
H653 C669 0.930 . S
H654 C670 0.931 . S
C655 H643 0.929 . S
C655 C649 1.390 . S
C655 C652 1.386 . S
C656 C651 1.490 . S
C656 C658 1.395 . S
C656 C659 1.403 . S
H657 C663 0.930 . S
C658 H644 0.930 . S
C658 C656 1.395 . S
C658 C661 1.403 . S
C659 C656 1.403 . S
C659 C660 1.524 . S
C659 C663 1.400 . S
C660 H645 0.960 . S
C660 H646 0.960 . S
C660 H647 0.960 . S
C660 C659 1.524 . S
C661 C658 1.403 . S
C661 C662 1.392 . S
C661 C665 1.495 . S
C662 C661 1.392 . S
C662 C663 1.385 . S
C662 C664 1.478 . S
C663 H657 0.930 . S
C663 C659 1.400 . S
C663 C662 1.385 . S
C664 C662 1.478 . S
C664 C666 1.381 . S
C664 C670 1.383 . S
C665 C661 1.495 . S
C665 H671 0.959 1_556 S
C665 H672 0.961 1_556 S
C665 H673 0.960 . S
C666 C664 1.381 . S
C666 C667 1.394 . S
C666 H674 0.930 . S
C667 C666 1.394 . S
C667 C668 1.383 . S
C667 H675 0.929 . S
C668 C667 1.383 . S
C668 C669 1.377 . S
C669 H653 0.930 . S
C669 C668 1.377 . S
C669 C670 1.379 . S
C670 H654 0.931 . S
C670 C664 1.383 . S
C670 C669 1.379 . S
H671 C665 0.959 1_554 S
H672 C665 0.961 1_554 S
H673 C665 0.960 . S
H674 C666 0.930 . S
H675 C667 0.929 . S
H676 C684 0.929 . S
H677 C686 0.930 . S
H678 C688 0.930 . S
H679 C691 0.929 . S
H680 C694 0.930 . S
H681 C696 0.960 . S
H682 C696 0.960 . S
H683 C696 0.960 . S
C684 H676 0.929 . S
C684 C685 1.377 . S
C684 C686 1.384 . S
C685 C684 1.377 . S
C685 C691 1.390 . S
C686 H677 0.930 . S
C686 C684 1.384 . S
C686 C687 1.372 . S
C687 C686 1.372 . S
C687 C688 1.400 . S
C687 C692 1.490 . S
C688 H678 0.930 . S
C688 C687 1.400 . S
C688 C691 1.386 . S
H689 C705 0.930 . S
H690 C706 0.931 . S
C691 H679 0.929 . S
C691 C685 1.390 . S
C691 C688 1.386 . S
C692 C687 1.490 . S
C692 C694 1.395 . S
C692 C695 1.403 . S
H693 C699 0.930 . S
C694 H680 0.930 . S
C694 C692 1.395 . S
C694 C697 1.403 . S
C695 C692 1.403 . S
C695 C696 1.524 . S
C695 C699 1.400 . S
C696 H681 0.960 . S
C696 H682 0.960 . S
C696 H683 0.960 . S
C696 C695 1.524 . S
C697 C694 1.403 . S
C697 C698 1.392 . S
C697 C701 1.495 . S
C698 C697 1.392 . S
C698 C699 1.385 . S
C698 C700 1.478 . S
C699 H693 0.930 . S
C699 C695 1.400 . S
C699 C698 1.385 . S
C700 C698 1.478 . S
C700 C702 1.381 . S
C700 C706 1.383 . S
C701 C697 1.495 . S
C701 H707 0.959 . S
C701 H708 0.961 . S
C701 H709 0.960 . S
C702 C700 1.381 . S
C702 C703 1.394 . S
C702 H710 0.930 . S
C703 C702 1.394 . S
C703 C704 1.383 . S
C703 H711 0.929 . S
C704 C703 1.383 . S
C704 C705 1.377 . S
C705 H689 0.930 . S
C705 C704 1.377 . S
C705 C706 1.379 . S
C706 H690 0.931 . S
C706 C700 1.383 . S
C706 C705 1.379 . S
H707 C701 0.959 . S
H708 C701 0.961 . S
H709 C701 0.960 . S
H710 C702 0.930 . S
H711 C703 0.929 . S
H712 C720 0.929 . S
H713 C722 0.930 . S
H714 C724 0.930 . S
H715 C727 0.929 . S
H716 C730 0.930 . S
H717 C732 0.960 . S
H718 C732 0.960 . S
H719 C732 0.960 . S
C720 H712 0.929 . S
C720 C721 1.377 . S
C720 C722 1.384 . S
C721 C720 1.377 . S
C721 C727 1.390 . S
C722 H713 0.930 . S
C722 C720 1.384 . S
C722 C723 1.372 . S
C723 C722 1.372 . S
C723 C724 1.400 . S
C723 C728 1.490 . S
C724 H714 0.930 . S
C724 C723 1.400 . S
C724 C727 1.386 . S
H725 C741 0.930 . S
H726 C742 0.931 . S
C727 H715 0.929 . S
C727 C721 1.390 . S
C727 C724 1.386 . S
C728 C723 1.490 . S
C728 C730 1.395 . S
C728 C731 1.403 . S
H729 C735 0.930 . S
C730 H716 0.930 . S
C730 C728 1.395 . S
C730 C733 1.403 . S
C731 C728 1.403 . S
C731 C732 1.524 . S
C731 C735 1.400 . S
C732 H717 0.960 . S
C732 H718 0.960 . S
C732 H719 0.960 . S
C732 C731 1.524 . S
C733 C730 1.403 . S
C733 C734 1.392 . S
C733 C737 1.495 . S
C734 C733 1.392 . S
C734 C735 1.385 . S
C734 C736 1.478 . S
C735 H729 0.930 . S
C735 C731 1.400 . S
C735 C734 1.385 . S
C736 C734 1.478 . S
C736 C738 1.381 . S
C736 C742 1.383 . S
C737 C733 1.495 . S
C737 H743 0.959 . S
C737 H744 0.961 . S
C737 H745 0.960 . S
C738 C736 1.381 . S
C738 C739 1.394 . S
C738 H746 0.905 1_455 S
C739 C738 1.394 . S
C739 C740 1.383 . S
C739 H747 0.929 1_455 S
C740 C739 1.383 . S
C740 C741 1.377 . S
C741 H725 0.930 . S
C741 C740 1.377 . S
C741 C742 1.379 . S
C742 H726 0.931 . S
C742 C736 1.383 . S
C742 C741 1.379 . S
H743 C737 0.959 . S
H744 C737 0.961 . S
H745 C737 0.960 . S
H746 C738 0.905 1_655 S
H747 C739 0.929 1_655 S
H748 C756 0.929 . S
H749 C758 0.930 . S
H750 C760 0.930 . S
H751 C763 0.929 . S
H752 C766 0.930 . S
H753 C768 0.960 . S
H754 C768 0.960 . S
H755 C768 0.960 . S
C756 H748 0.929 . S
C756 C757 1.377 . S
C756 C758 1.384 . S
C757 C756 1.377 . S
C757 C763 1.390 . S
C758 H749 0.930 . S
C758 C756 1.384 . S
C758 C759 1.372 . S
C759 C758 1.372 . S
C759 C760 1.400 . S
C759 C764 1.490 . S
C760 H750 0.930 . S
C760 C759 1.400 . S
C760 C763 1.386 . S
H761 C777 0.930 . S
H762 C778 0.931 . S
C763 H751 0.929 . S
C763 C757 1.390 . S
C763 C760 1.386 . S
C764 C759 1.490 . S
C764 C766 1.395 . S
C764 C767 1.403 . S
H765 C771 0.930 . S
C766 H752 0.930 . S
C766 C764 1.395 . S
C766 C769 1.403 . S
C767 C764 1.403 . S
C767 C768 1.524 . S
C767 C771 1.400 . S
C768 H753 0.960 . S
C768 H754 0.960 . S
C768 H755 0.960 . S
C768 C767 1.524 . S
C769 C766 1.403 . S
C769 C770 1.392 . S
C769 C773 1.495 . S
C770 C769 1.392 . S
C770 C771 1.385 . S
C770 C772 1.478 . S
C771 H765 0.930 . S
C771 C767 1.400 . S
C771 C770 1.385 . S
C772 C770 1.478 . S
C772 C774 1.381 . S
C772 C778 1.383 . S
C773 C769 1.495 . S
C773 H779 0.959 1_556 S
C773 H780 0.961 1_556 S
C773 H781 0.960 . S
C774 C772 1.381 . S
C774 C775 1.394 . S
C774 H782 0.930 . S
C775 C774 1.394 . S
C775 C776 1.383 . S
C775 H783 0.929 . S
C776 C775 1.383 . S
C776 C777 1.377 . S
C777 H761 0.930 . S
C777 C776 1.377 . S
C777 C778 1.379 . S
C778 H762 0.931 . S
C778 C772 1.383 . S
C778 C777 1.379 . S
H779 C773 0.959 1_554 S
H780 C773 0.961 1_554 S
H781 C773 0.960 . S
H782 C774 0.930 . S
H783 C775 0.929 . S
H784 C792 0.929 . S
H785 C794 0.930 . S
H786 C796 0.930 . S
H787 C799 0.929 . S
H788 C802 0.930 . S
H789 C804 0.960 . S
H790 C804 0.960 . S
H791 C804 0.960 . S
C792 H784 0.929 . S
C792 C793 1.377 . S
C792 C794 1.384 . S
C793 C792 1.377 . S
C793 C799 1.390 . S
C794 H785 0.930 . S
C794 C792 1.384 . S
C794 C795 1.372 . S
C795 C794 1.372 . S
C795 C796 1.400 . S
C795 C800 1.490 . S
C796 H786 0.930 . S
C796 C795 1.400 . S
C796 C799 1.386 . S
H797 C813 0.930 . S
H798 C814 0.931 . S
C799 H787 0.929 . S
C799 C793 1.390 . S
C799 C796 1.386 . S
C800 C795 1.490 . S
C800 C802 1.395 . S
C800 C803 1.403 . S
H801 C807 0.930 . S
C802 H788 0.930 . S
C802 C800 1.395 . S
C802 C805 1.403 . S
C803 C800 1.403 . S
C803 C804 1.524 . S
C803 C807 1.400 . S
C804 H789 0.960 . S
C804 H790 0.960 . S
C804 H791 0.960 . S
C804 C803 1.524 . S
C805 C802 1.403 . S
C805 C806 1.392 . S
C805 C809 1.495 . S
C806 C805 1.392 . S
C806 C807 1.385 . S
C806 C808 1.478 . S
C807 H801 0.930 . S
C807 C803 1.400 . S
C807 C806 1.385 . S
C808 C806 1.478 . S
C808 C810 1.381 . S
C808 C814 1.383 . S
C809 C805 1.495 . S
C809 H815 0.959 . S
C809 H816 0.961 . S
C809 H817 0.960 . S
C810 C808 1.381 . S
C810 C811 1.394 . S
C810 H818 0.930 . S
C811 C810 1.394 . S
C811 C812 1.383 . S
C811 H819 0.929 . S
C812 C811 1.383 . S
C812 C813 1.377 . S
C813 H797 0.930 . S
C813 C812 1.377 . S
C813 C814 1.379 . S
C814 H798 0.931 . S
C814 C808 1.383 . S
C814 C813 1.379 . S
H815 C809 0.959 . S
H816 C809 0.961 . S
H817 C809 0.960 . S
H818 C810 0.930 . S
H819 C811 0.929 . S
H820 C828 0.929 . S
H821 C830 0.930 . S
H822 C832 0.930 . S
H823 C835 0.929 . S
H824 C838 0.930 . S
H825 C840 0.960 . S
H826 C840 0.960 . S
H827 C840 0.960 . S
C828 H820 0.929 . S
C828 C829 1.377 . S
C828 C830 1.384 . S
C829 C828 1.377 . S
C829 C835 1.390 . S
C830 H821 0.930 . S
C830 C828 1.384 . S
C830 C831 1.372 . S
C831 C830 1.372 . S
C831 C832 1.400 . S
C831 C836 1.490 . S
C832 H822 0.930 . S
C832 C831 1.400 . S
C832 C835 1.386 . S
H833 C849 0.930 . S
H834 C850 0.931 . S
C835 H823 0.929 . S
C835 C829 1.390 . S
C835 C832 1.386 . S
C836 C831 1.490 . S
C836 C838 1.395 . S
C836 C839 1.403 . S
H837 C843 0.930 . S
C838 H824 0.930 . S
C838 C836 1.395 . S
C838 C841 1.403 . S
C839 C836 1.403 . S
C839 C840 1.524 . S
C839 C843 1.400 . S
C840 H825 0.960 . S
C840 H826 0.960 . S
C840 H827 0.960 . S
C840 C839 1.524 . S
C841 C838 1.403 . S
C841 C842 1.392 . S
C841 C845 1.495 . S
C842 C841 1.392 . S
C842 C843 1.385 . S
C842 C844 1.478 . S
C843 H837 0.930 . S
C843 C839 1.400 . S
C843 C842 1.385 . S
C844 C842 1.478 . S
C844 C846 1.381 . S
C844 C850 1.383 . S
C845 C841 1.495 . S
C845 H851 0.959 . S
C845 H852 0.961 . S
C845 H853 0.960 . S
C846 C844 1.381 . S
C846 C847 1.394 . S
C846 H854 0.930 . S
C847 C846 1.394 . S
C847 C848 1.383 . S
C847 H855 0.929 . S
C848 C847 1.383 . S
C848 C849 1.377 . S
C849 H833 0.930 . S
C849 C848 1.377 . S
C849 C850 1.379 . S
C850 H834 0.931 . S
C850 C844 1.383 . S
C850 C849 1.379 . S
H851 C845 0.959 . S
H852 C845 0.961 . S
H853 C845 0.960 . S
H854 C846 0.930 . S
H855 C847 0.929 . S
H856 C864 0.929 . S
H857 C866 0.930 . S
H858 C868 0.930 . S
H859 C871 0.929 . S
H860 C874 0.930 . S
H861 C876 0.960 . S
H862 C876 0.960 . S
H863 C876 0.960 . S
C864 H856 0.929 . S
C864 C865 1.377 . S
C864 C866 1.384 . S
C865 C864 1.377 . S
C865 C871 1.390 . S
C866 H857 0.930 . S
C866 C864 1.384 . S
C866 C867 1.372 . S
C867 C866 1.372 . S
C867 C868 1.400 . S
C867 C872 1.490 . S
C868 H858 0.930 . S
C868 C867 1.400 . S
C868 C871 1.386 . S
H869 C885 0.930 . S
H870 C886 0.931 . S
C871 H859 0.929 . S
C871 C865 1.390 . S
C871 C868 1.386 . S
C872 C867 1.490 . S
C872 C874 1.395 . S
C872 C875 1.403 . S
H873 C879 0.930 . S
C874 H860 0.930 . S
C874 C872 1.395 . S
C874 C877 1.403 . S
C875 C872 1.403 . S
C875 C876 1.524 . S
C875 C879 1.400 . S
C876 H861 0.960 . S
C876 H862 0.960 . S
C876 H863 0.960 . S
C876 C875 1.524 . S
C877 C874 1.403 . S
C877 C878 1.392 . S
C877 C881 1.495 . S
C878 C877 1.392 . S
C878 C879 1.385 . S
C878 C880 1.478 . S
C879 H873 0.930 . S
C879 C875 1.400 . S
C879 C878 1.385 . S
C880 C878 1.478 . S
C880 C882 1.381 . S
C880 C886 1.383 . S
C881 C877 1.495 . S
C881 H887 0.959 1_565 S
C881 H888 0.961 . S
C881 H889 0.960 1_565 S
C882 C880 1.381 . S
C882 C883 1.394 . S
C882 H890 0.932 1_565 S
C883 C882 1.394 . S
C883 C884 1.383 . S
C883 H891 0.929 1_565 S
C884 C883 1.383 . S
C884 C885 1.377 . S
C885 H869 0.930 . S
C885 C884 1.377 . S
C885 C886 1.379 . S
C886 H870 0.931 . S
C886 C880 1.383 . S
C886 C885 1.379 . S
H887 C881 0.959 1_545 S
H888 C881 0.961 . S
H889 C881 0.960 1_545 S
H890 C882 0.932 1_545 S
H891 C883 0.929 1_545 S
H892 C900 0.929 . S
H893 C902 0.930 . S
H894 C904 0.930 . S
H895 C907 0.929 . S
H896 C910 0.930 . S
H897 C912 0.960 . S
H898 C912 0.960 . S
H899 C912 0.960 . S
C900 H892 0.929 . S
C900 C901 1.377 . S
C900 C902 1.384 . S
C901 C900 1.377 . S
C901 C907 1.390 . S
C902 H893 0.930 . S
C902 C900 1.384 . S
C902 C903 1.372 . S
C903 C902 1.372 . S
C903 C904 1.400 . S
C903 C908 1.490 . S
C904 H894 0.930 . S
C904 C903 1.400 . S
C904 C907 1.386 . S
H905 C921 0.930 . S
H906 C922 0.931 . S
C907 H895 0.929 . S
C907 C901 1.390 . S
C907 C904 1.386 . S
C908 C903 1.490 . S
C908 C910 1.395 . S
C908 C911 1.403 . S
H909 C915 0.930 . S
C910 H896 0.930 . S
C910 C908 1.395 . S
C910 C913 1.403 . S
C911 C908 1.403 . S
C911 C912 1.524 . S
C911 C915 1.400 . S
C912 H897 0.960 . S
C912 H898 0.960 . S
C912 H899 0.960 . S
C912 C911 1.524 . S
C913 C910 1.403 . S
C913 C914 1.392 . S
C913 C917 1.495 . S
C914 C913 1.392 . S
C914 C915 1.385 . S
C914 C916 1.478 . S
C915 H909 0.930 . S
C915 C911 1.400 . S
C915 C914 1.385 . S
C916 C914 1.478 . S
C916 C918 1.381 . S
C916 C922 1.383 . S
C917 C913 1.495 . S
C917 H923 0.959 . S
C917 H924 0.961 . S
C917 H925 0.960 . S
C918 C916 1.381 . S
C918 C919 1.394 . S
C918 H926 0.930 . S
C919 C918 1.394 . S
C919 C920 1.383 . S
C919 H927 0.929 . S
C920 C919 1.383 . S
C920 C921 1.377 . S
C921 H905 0.930 . S
C921 C920 1.377 . S
C921 C922 1.379 . S
C922 H906 0.931 . S
C922 C916 1.383 . S
C922 C921 1.379 . S
H923 C917 0.959 . S
H924 C917 0.961 . S
H925 C917 0.960 . S
H926 C918 0.930 . S
H927 C919 0.929 . S
H928 C936 0.929 . S
H929 C938 0.930 . S
H930 C940 0.930 . S
H931 C943 0.929 . S
H932 C946 0.930 . S
H933 C948 0.960 . S
H934 C948 0.960 . S
H935 C948 0.960 . S
C936 H928 0.929 . S
C936 C937 1.377 . S
C936 C938 1.384 . S
C937 C936 1.377 . S
C937 C943 1.390 . S
C938 H929 0.930 . S
C938 C936 1.384 . S
C938 C939 1.372 . S
C939 C938 1.372 . S
C939 C940 1.400 . S
C939 C944 1.490 . S
C940 H930 0.930 . S
C940 C939 1.400 . S
C940 C943 1.386 . S
H941 C957 0.930 . S
H942 C958 0.931 . S
C943 H931 0.929 . S
C943 C937 1.390 . S
C943 C940 1.386 . S
C944 C939 1.490 . S
C944 C946 1.395 . S
C944 C947 1.403 . S
H945 C951 0.930 . S
C946 H932 0.930 . S
C946 C944 1.395 . S
C946 C949 1.403 . S
C947 C944 1.403 . S
C947 C948 1.524 . S
C947 C951 1.400 . S
C948 H933 0.960 . S
C948 H934 0.960 . S
C948 H935 0.960 . S
C948 C947 1.524 . S
C949 C946 1.403 . S
C949 C950 1.392 . S
C949 C953 1.495 . S
C950 C949 1.392 . S
C950 C951 1.385 . S
C950 C952 1.478 . S
C951 H945 0.930 . S
C951 C947 1.400 . S
C951 C950 1.385 . S
C952 C950 1.478 . S
C952 C954 1.381 . S
C952 C958 1.383 . S
C953 C949 1.495 . S
C953 H959 0.959 . S
C953 H960 0.961 . S
C953 H961 0.960 . S
C954 C952 1.381 . S
C954 C955 1.394 . S
C954 H962 0.930 . S
C955 C954 1.394 . S
C955 C956 1.383 . S
C955 H963 0.929 . S
C956 C955 1.383 . S
C956 C957 1.377 . S
C957 H941 0.930 . S
C957 C956 1.377 . S
C957 C958 1.379 . S
C958 H942 0.931 . S
C958 C952 1.383 . S
C958 C957 1.379 . S
H959 C953 0.959 . S
H960 C953 0.961 . S
H961 C953 0.960 . S
H962 C954 0.930 . S
H963 C955 0.929 . S
H964 C972 0.929 . S
H965 C974 0.930 . S
H966 C976 0.930 . S
H967 C979 0.929 . S
H968 C982 0.930 . S
H969 C984 0.960 . S
H970 C984 0.960 . S
H971 C984 0.960 . S
C972 H964 0.929 . S
C972 C973 1.377 . S
C972 C974 1.384 . S
C973 C972 1.377 . S
C973 C979 1.390 . S
C974 H965 0.930 . S
C974 C972 1.384 . S
C974 C975 1.372 . S
C975 C974 1.372 . S
C975 C976 1.400 . S
C975 C980 1.490 . S
C976 H966 0.930 . S
C976 C975 1.400 . S
C976 C979 1.386 . S
H977 C993 0.930 . S
H978 C994 0.931 . S
C979 H967 0.929 . S
C979 C973 1.390 . S
C979 C976 1.386 . S
C980 C975 1.490 . S
C980 C982 1.395 . S
C980 C983 1.403 . S
H981 C987 0.930 . S
C982 H968 0.930 . S
C982 C980 1.395 . S
C982 C985 1.403 . S
C983 C980 1.403 . S
C983 C984 1.524 . S
C983 C987 1.400 . S
C984 H969 0.960 . S
C984 H970 0.960 . S
C984 H971 0.960 . S
C984 C983 1.524 . S
C985 C982 1.403 . S
C985 C986 1.392 . S
C985 C989 1.495 . S
C986 C985 1.392 . S
C986 C987 1.385 . S
C986 C988 1.478 . S
C987 H981 0.930 . S
C987 C983 1.400 . S
C987 C986 1.385 . S
C988 C986 1.478 . S
C988 C990 1.381 . S
C988 C994 1.383 . S
C989 C985 1.495 . S
C989 H995 0.959 . S
C989 H996 0.961 . S
C989 H997 0.960 . S
C990 C988 1.381 . S
C990 C991 1.394 . S
C990 H998 0.930 . S
C991 C990 1.394 . S
C991 C992 1.383 . S
C991 H999 0.929 . S
C992 C991 1.383 . S
C992 C993 1.377 . S
C993 H977 0.930 . S
C993 C992 1.377 . S
C993 C994 1.379 . S
C994 H978 0.931 . S
C994 C988 1.383 . S
C994 C993 1.379 . S
H995 C989 0.959 . S
H996 C989 0.961 . S
H997 C989 0.960 . S
H998 C990 0.930 . S
H999 C991 0.929 . S
H1000 C1008 0.929 . S
H1001 C1010 0.930 . S
H1002 C1012 0.930 . S
H1003 C1015 0.929 . S
H1004 C1018 0.930 . S
H1005 C1020 0.960 . S
H1006 C1020 0.960 . S
H1007 C1020 0.960 . S
C1008 H1000 0.929 . S
C1008 C1009 1.377 . S
C1008 C1010 1.384 . S
C1009 C1008 1.377 . S
C1009 C1015 1.390 . S
C1010 H1001 0.930 . S
C1010 C1008 1.384 . S
C1010 C1011 1.372 . S
C1011 C1010 1.372 . S
C1011 C1012 1.400 . S
C1011 C1016 1.490 . S
C1012 H1002 0.930 . S
C1012 C1011 1.400 . S
C1012 C1015 1.386 . S
H1013 C1029 0.930 . S
H1014 C1030 0.931 . S
C1015 H1003 0.929 . S
C1015 C1009 1.390 . S
C1015 C1012 1.386 . S
C1016 C1011 1.490 . S
C1016 C1018 1.395 . S
C1016 C1019 1.403 . S
H1017 C1023 0.930 . S
C1018 H1004 0.930 . S
C1018 C1016 1.395 . S
C1018 C1021 1.403 . S
C1019 C1016 1.403 . S
C1019 C1020 1.524 . S
C1019 C1023 1.400 . S
C1020 H1005 0.960 . S
C1020 H1006 0.960 . S
C1020 H1007 0.960 . S
C1020 C1019 1.524 . S
C1021 C1018 1.403 . S
C1021 C1022 1.392 . S
C1021 C1025 1.495 . S
C1022 C1021 1.392 . S
C1022 C1023 1.385 . S
C1022 C1024 1.478 . S
C1023 H1017 0.930 . S
C1023 C1019 1.400 . S
C1023 C1022 1.385 . S
C1024 C1022 1.478 . S
C1024 C1026 1.381 . S
C1024 C1030 1.383 . S
C1025 C1021 1.495 . S
C1025 H1031 0.959 . S
C1025 H1032 0.961 . S
C1025 H1033 0.960 . S
C1026 C1024 1.381 . S
C1026 C1027 1.394 . S
C1026 H1034 0.930 . S
C1027 C1026 1.394 . S
C1027 C1028 1.383 . S
C1027 H1035 0.929 1_565 S
C1028 C1027 1.383 . S
C1028 C1029 1.377 . S
C1029 H1013 0.930 . S
C1029 C1028 1.377 . S
C1029 C1030 1.379 . S
C1030 H1014 0.931 . S
C1030 C1024 1.383 . S
C1030 C1029 1.379 . S
H1031 C1025 0.959 . S
H1032 C1025 0.961 . S
H1033 C1025 0.960 . S
H1034 C1026 0.930 . S
H1035 C1027 0.929 1_545 S
H1036 C1044 0.929 . S
H1037 C1046 0.930 . S
H1038 C1048 0.930 . S
H1039 C1051 0.929 . S
H1040 C1054 0.930 . S
H1041 C1056 0.960 . S
H1042 C1056 0.960 . S
H1043 C1056 0.960 . S
C1044 H1036 0.929 . S
C1044 C1045 1.377 . S
C1044 C1046 1.384 . S
C1045 C1044 1.377 . S
C1045 C1051 1.390 . S
C1046 H1037 0.930 . S
C1046 C1044 1.384 . S
C1046 C1047 1.372 . S
C1047 C1046 1.372 . S
C1047 C1048 1.400 . S
C1047 C1052 1.490 . S
C1048 H1038 0.930 . S
C1048 C1047 1.400 . S
C1048 C1051 1.386 . S
H1049 C1065 0.930 . S
H1050 C1066 0.931 . S
C1051 H1039 0.929 . S
C1051 C1045 1.390 . S
C1051 C1048 1.386 . S
C1052 C1047 1.490 . S
C1052 C1054 1.395 . S
C1052 C1055 1.403 . S
H1053 C1059 0.930 . S
C1054 H1040 0.930 . S
C1054 C1052 1.395 . S
C1054 C1057 1.403 . S
C1055 C1052 1.403 . S
C1055 C1056 1.524 . S
C1055 C1059 1.400 . S
C1056 H1041 0.960 . S
C1056 H1042 0.960 . S
C1056 H1043 0.960 . S
C1056 C1055 1.524 . S
C1057 C1054 1.403 . S
C1057 C1058 1.392 . S
C1057 C1061 1.495 . S
C1058 C1057 1.392 . S
C1058 C1059 1.385 . S
C1058 C1060 1.478 . S
C1059 H1053 0.930 . S
C1059 C1055 1.400 . S
C1059 C1058 1.385 . S
C1060 C1058 1.478 . S
C1060 C1062 1.381 . S
C1060 C1066 1.383 . S
C1061 C1057 1.495 . S
C1061 H1067 0.959 . S
C1061 H1068 0.961 1_545 S
C1061 H1069 0.960 . S
C1062 C1060 1.381 . S
C1062 C1063 1.394 . S
C1062 H1070 0.930 . S
C1063 C1062 1.394 . S
C1063 C1064 1.383 . S
C1063 H1071 0.929 . S
C1064 C1063 1.383 . S
C1064 C1065 1.377 . S
C1065 H1049 0.930 . S
C1065 C1064 1.377 . S
C1065 C1066 1.379 . S
C1066 H1050 0.931 . S
C1066 C1060 1.383 . S
C1066 C1065 1.379 . S
H1067 C1061 0.959 . S
H1068 C1061 0.961 1_565 S
H1069 C1061 0.960 . S
H1070 C1062 0.930 . S
H1071 C1063 0.929 . S
H1072 C1080 0.929 . S
H1073 C1082 0.930 . S
H1074 C1084 0.930 . S
H1075 C1087 0.929 . S
H1076 C1090 0.930 . S
H1077 C1092 0.960 . S
H1078 C1092 0.960 . S
H1079 C1092 0.960 . S
C1080 H1072 0.929 . S
C1080 C1081 1.377 . S
C1080 C1082 1.384 . S
C1081 C1080 1.377 . S
C1081 C1087 1.390 . S
C1082 H1073 0.930 . S
C1082 C1080 1.384 . S
C1082 C1083 1.372 . S
C1083 C1082 1.372 . S
C1083 C1084 1.400 . S
C1083 C1088 1.490 . S
C1084 H1074 0.930 . S
C1084 C1083 1.400 . S
C1084 C1087 1.386 . S
H1085 C1101 0.930 . S
H1086 C1102 0.931 . S
C1087 H1075 0.929 . S
C1087 C1081 1.390 . S
C1087 C1084 1.386 . S
C1088 C1083 1.490 . S
C1088 C1090 1.395 . S
C1088 C1091 1.403 . S
H1089 C1095 0.930 . S
C1090 H1076 0.930 . S
C1090 C1088 1.395 . S
C1090 C1093 1.403 . S
C1091 C1088 1.403 . S
C1091 C1092 1.524 . S
C1091 C1095 1.400 . S
C1092 H1077 0.960 . S
C1092 H1078 0.960 . S
C1092 H1079 0.960 . S
C1092 C1091 1.524 . S
C1093 C1090 1.403 . S
C1093 C1094 1.392 . S
C1093 C1097 1.495 . S
C1094 C1093 1.392 . S
C1094 C1095 1.385 . S
C1094 C1096 1.478 . S
C1095 H1089 0.930 . S
C1095 C1091 1.400 . S
C1095 C1094 1.385 . S
C1096 C1094 1.478 . S
C1096 C1098 1.381 . S
C1096 C1102 1.383 . S
C1097 C1093 1.495 . S
C1097 H1103 0.959 . S
C1097 H1104 0.961 . S
C1097 H1105 0.960 . S
C1098 C1096 1.381 . S
C1098 C1099 1.394 . S
C1098 H1106 0.930 1_554 S
C1099 C1098 1.394 . S
C1099 C1100 1.383 . S
C1099 H1107 0.929 1_554 S
C1100 C1099 1.383 . S
C1100 C1101 1.377 . S
C1101 H1085 0.930 . S
C1101 C1100 1.377 . S
C1101 C1102 1.379 . S
C1102 H1086 0.931 . S
C1102 C1096 1.383 . S
C1102 C1101 1.379 . S
H1103 C1097 0.959 . S
H1104 C1097 0.961 . S
H1105 C1097 0.960 . S
H1106 C1098 0.930 1_556 S
H1107 C1099 0.929 1_556 S
H1108 C1116 0.929 . S
H1109 C1118 0.930 . S
H1110 C1120 0.930 . S
H1111 C1123 0.929 . S
H1112 C1126 0.930 . S
H1113 C1128 0.960 . S
H1114 C1128 0.960 . S
H1115 C1128 0.960 . S
C1116 H1108 0.929 . S
C1116 C1117 1.377 . S
C1116 C1118 1.384 . S
C1117 C1116 1.377 . S
C1117 C1123 1.390 . S
C1118 H1109 0.930 . S
C1118 C1116 1.384 . S
C1118 C1119 1.372 . S
C1119 C1118 1.372 . S
C1119 C1120 1.400 . S
C1119 C1124 1.490 . S
C1120 H1110 0.930 . S
C1120 C1119 1.400 . S
C1120 C1123 1.386 . S
H1121 C1137 0.930 . S
H1122 C1138 0.931 . S
C1123 H1111 0.929 . S
C1123 C1117 1.390 . S
C1123 C1120 1.386 . S
C1124 C1119 1.490 . S
C1124 C1126 1.395 . S
C1124 C1127 1.403 . S
H1125 C1131 0.930 . S
C1126 H1112 0.930 . S
C1126 C1124 1.395 . S
C1126 C1129 1.403 . S
C1127 C1124 1.403 . S
C1127 C1128 1.524 . S
C1127 C1131 1.400 . S
C1128 H1113 0.960 . S
C1128 H1114 0.960 . S
C1128 H1115 0.960 . S
C1128 C1127 1.524 . S
C1129 C1126 1.403 . S
C1129 C1130 1.392 . S
C1129 C1133 1.495 . S
C1130 C1129 1.392 . S
C1130 C1131 1.385 . S
C1130 C1132 1.478 . S
C1131 H1125 0.930 . S
C1131 C1127 1.400 . S
C1131 C1130 1.385 . S
C1132 C1130 1.478 . S
C1132 C1134 1.381 . S
C1132 C1138 1.383 . S
C1133 C1129 1.495 . S
C1133 H1139 0.959 . S
C1133 H1140 0.961 . S
C1133 H1141 0.960 . S
C1134 C1132 1.381 . S
C1134 C1135 1.394 . S
C1134 H1142 0.930 . S
C1135 C1134 1.394 . S
C1135 C1136 1.383 . S
C1135 H1143 0.929 . S
C1136 C1135 1.383 . S
C1136 C1137 1.377 . S
C1137 H1121 0.930 . S
C1137 C1136 1.377 . S
C1137 C1138 1.379 . S
C1138 H1122 0.931 . S
C1138 C1132 1.383 . S
C1138 C1137 1.379 . S
H1139 C1133 0.959 . S
H1140 C1133 0.961 . S
H1141 C1133 0.960 . S
H1142 C1134 0.930 . S
H1143 C1135 0.929 . S
H1144 C1152 0.929 . S
H1145 C1154 0.930 . S
H1146 C1156 0.930 . S
H1147 C1159 0.929 . S
H1148 C1162 0.930 . S
H1149 C1164 0.986 . S
H1150 C1164 0.960 . S
H1151 C1164 0.960 . S
C1152 H1144 0.929 . S
C1152 C1153 1.377 . S
C1152 C1154 1.384 . S
C1153 C1152 1.377 . S
C1153 C1159 1.390 . S
C1154 H1145 0.930 . S
C1154 C1152 1.384 . S
C1154 C1155 1.372 . S
C1155 C1154 1.372 . S
C1155 C1156 1.400 . S
C1155 C1160 1.490 . S
C1156 H1146 0.930 . S
C1156 C1155 1.400 . S
C1156 C1159 1.386 . S
H1157 C1173 0.930 1_455 S
H1158 C1174 0.931 . S
C1159 H1147 0.929 . S
C1159 C1153 1.390 . S
C1159 C1156 1.386 . S
C1160 C1155 1.490 . S
C1160 C1162 1.395 . S
C1160 C1163 1.403 . S
H1161 C1167 0.930 . S
C1162 H1148 0.930 . S
C1162 C1160 1.395 . S
C1162 C1165 1.403 . S
C1163 C1160 1.403 . S
C1163 C1164 1.524 . S
C1163 C1167 1.400 . S
C1164 H1149 0.986 . S
C1164 H1150 0.960 . S
C1164 H1151 0.960 . S
C1164 C1163 1.524 . S
C1165 C1162 1.403 . S
C1165 C1166 1.392 . S
C1165 C1169 1.495 . S
C1166 C1165 1.392 . S
C1166 C1167 1.385 . S
C1166 C1168 1.478 . S
C1167 H1161 0.930 . S
C1167 C1163 1.400 . S
C1167 C1166 1.385 . S
C1168 C1166 1.478 . S
C1168 C1170 1.381 . S
C1168 C1174 1.383 . S
C1169 C1165 1.495 . S
C1169 H1175 0.959 . S
C1169 H1176 0.961 . S
C1169 H1177 0.960 . S
C1170 C1168 1.381 . S
C1170 C1171 1.394 . S
C1170 H1178 0.930 . S
C1171 C1170 1.394 . S
C1171 C1172 1.383 . S
C1171 H1179 0.929 . S
C1172 C1171 1.383 . S
C1172 C1173 1.377 . S
C1173 H1157 0.930 1_655 S
C1173 C1172 1.377 . S
C1173 C1174 1.379 . S
C1174 H1158 0.931 . S
C1174 C1168 1.383 . S
C1174 C1173 1.379 . S
H1175 C1169 0.959 . S
H1176 C1169 0.961 . S
H1177 C1169 0.960 . S
H1178 C1170 0.930 . S
H1179 C1171 0.929 . S
H1180 C1188 0.929 . S
H1181 C1190 0.930 . S
H1182 C1192 0.930 . S
H1183 C1195 0.929 . S
H1184 C1198 0.930 . S
H1185 C1200 0.960 . S
H1186 C1200 0.960 . S
H1187 C1200 0.960 . S
C1188 H1180 0.929 . S
C1188 C1189 1.377 . S
C1188 C1190 1.384 . S
C1189 C1188 1.377 . S
C1189 C1195 1.390 . S
C1190 H1181 0.930 . S
C1190 C1188 1.384 . S
C1190 C1191 1.372 . S
C1191 C1190 1.372 . S
C1191 C1192 1.400 . S
C1191 C1196 1.490 . S
C1192 H1182 0.930 . S
C1192 C1191 1.400 . S
C1192 C1195 1.386 . S
H1193 C1209 0.930 . S
H1194 C1210 0.931 . S
C1195 H1183 0.929 . S
C1195 C1189 1.390 . S
C1195 C1192 1.386 . S
C1196 C1191 1.490 . S
C1196 C1198 1.395 . S
C1196 C1199 1.403 . S
H1197 C1203 0.930 . S
C1198 H1184 0.930 . S
C1198 C1196 1.395 . S
C1198 C1201 1.403 . S
C1199 C1196 1.403 . S
C1199 C1200 1.524 . S
C1199 C1203 1.400 . S
C1200 H1185 0.960 . S
C1200 H1186 0.960 . S
C1200 H1187 0.960 . S
C1200 C1199 1.524 . S
C1201 C1198 1.403 . S
C1201 C1202 1.392 . S
C1201 C1205 1.495 . S
C1202 C1201 1.392 . S
C1202 C1203 1.385 . S
C1202 C1204 1.478 . S
C1203 H1197 0.930 . S
C1203 C1199 1.400 . S
C1203 C1202 1.385 . S
C1204 C1202 1.478 . S
C1204 C1206 1.381 . S
C1204 C1210 1.383 . S
C1205 C1201 1.495 . S
C1205 H1211 0.959 1_554 S
C1205 H1212 0.961 1_554 S
C1205 H1213 0.960 1_554 S
C1206 C1204 1.381 . S
C1206 C1207 1.394 . S
C1206 H1214 0.930 . S
C1207 C1206 1.394 . S
C1207 C1208 1.383 . S
C1207 H1215 0.929 . S
C1208 C1207 1.383 . S
C1208 C1209 1.377 . S
C1209 H1193 0.930 . S
C1209 C1208 1.377 . S
C1209 C1210 1.379 . S
C1210 H1194 0.931 . S
C1210 C1204 1.383 . S
C1210 C1209 1.379 . S
H1211 C1205 0.959 1_556 S
H1212 C1205 0.961 1_556 S
H1213 C1205 0.960 1_556 S
H1214 C1206 0.930 . S
H1215 C1207 0.929 . S
H1216 C1224 0.929 . S
H1217 C1226 0.930 . S
H1218 C1228 0.930 . S
H1219 C1231 0.929 . S
H1220 C1234 0.930 . S
H1221 C1236 0.960 . S
H1222 C1236 0.960 . S
H1223 C1236 0.960 . S
C1224 H1216 0.929 . S
C1224 C1225 1.377 . S
C1224 C1226 1.384 . S
C1225 C1224 1.377 . S
C1225 C1231 1.390 . S
C1226 H1217 0.930 . S
C1226 C1224 1.384 . S
C1226 C1227 1.372 . S
C1227 C1226 1.372 . S
C1227 C1228 1.400 . S
C1227 C1232 1.490 . S
C1228 H1218 0.930 . S
C1228 C1227 1.400 . S
C1228 C1231 1.386 . S
H1229 C1245 0.930 . S
H1230 C1246 0.931 . S
C1231 H1219 0.929 . S
C1231 C1225 1.390 . S
C1231 C1228 1.386 . S
C1232 C1227 1.490 . S
C1232 C1234 1.395 . S
C1232 C1235 1.403 . S
H1233 C1239 0.930 . S
C1234 H1220 0.930 . S
C1234 C1232 1.395 . S
C1234 C1237 1.403 . S
C1235 C1232 1.403 . S
C1235 C1236 1.524 . S
C1235 C1239 1.400 . S
C1236 H1221 0.960 . S
C1236 H1222 0.960 . S
C1236 H1223 0.960 . S
C1236 C1235 1.524 . S
C1237 C1234 1.403 . S
C1237 C1238 1.392 . S
C1237 C1241 1.495 . S
C1238 C1237 1.392 . S
C1238 C1239 1.385 . S
C1238 C1240 1.478 . S
C1239 H1233 0.930 . S
C1239 C1235 1.400 . S
C1239 C1238 1.385 . S
C1240 C1238 1.478 . S
C1240 C1242 1.381 . S
C1240 C1246 1.383 . S
C1241 C1237 1.495 . S
C1241 H1247 0.959 . S
C1241 H1248 0.961 . S
C1241 H1249 0.960 . S
C1242 C1240 1.381 . S
C1242 C1243 1.394 . S
C1242 H1250 0.930 . S
C1243 C1242 1.394 . S
C1243 C1244 1.383 . S
C1243 H1251 0.929 . S
C1244 C1243 1.383 . S
C1244 C1245 1.377 . S
C1245 H1229 0.930 . S
C1245 C1244 1.377 . S
C1245 C1246 1.379 . S
C1246 H1230 0.931 . S
C1246 C1240 1.383 . S
C1246 C1245 1.379 . S
H1247 C1241 0.959 . S
H1248 C1241 0.961 . S
H1249 C1241 0.960 . S
H1250 C1242 0.930 . S
H1251 C1243 0.929 . S
H1252 C1260 0.929 . S
H1253 C1262 0.930 . S
H1254 C1264 0.930 . S
H1255 C1267 0.929 . S
H1256 C1270 0.930 . S
H1257 C1272 0.960 . S
H1258 C1272 0.960 . S
H1259 C1272 0.960 . S
C1260 H1252 0.929 . S
C1260 C1261 1.377 . S
C1260 C1262 1.384 . S
C1261 C1260 1.377 . S
C1261 C1267 1.390 . S
C1262 H1253 0.930 . S
C1262 C1260 1.384 . S
C1262 C1263 1.372 . S
C1263 C1262 1.372 . S
C1263 C1264 1.400 . S
C1263 C1268 1.490 . S
C1264 H1254 0.930 . S
C1264 C1263 1.400 . S
C1264 C1267 1.386 . S
H1265 C1281 0.930 . S
H1266 C1282 0.931 . S
C1267 H1255 0.929 . S
C1267 C1261 1.390 . S
C1267 C1264 1.386 . S
C1268 C1263 1.490 . S
C1268 C1270 1.395 . S
C1268 C1271 1.403 . S
H1269 C1275 0.930 . S
C1270 H1256 0.930 . S
C1270 C1268 1.395 . S
C1270 C1273 1.403 . S
C1271 C1268 1.403 . S
C1271 C1272 1.524 . S
C1271 C1275 1.400 . S
C1272 H1257 0.960 . S
C1272 H1258 0.960 . S
C1272 H1259 0.960 . S
C1272 C1271 1.524 . S
C1273 C1270 1.403 . S
C1273 C1274 1.392 . S
C1273 C1277 1.495 . S
C1274 C1273 1.392 . S
C1274 C1275 1.385 . S
C1274 C1276 1.478 . S
C1275 H1269 0.930 . S
C1275 C1271 1.400 . S
C1275 C1274 1.385 . S
C1276 C1274 1.478 . S
C1276 C1278 1.381 . S
C1276 C1282 1.383 . S
C1277 C1273 1.495 . S
C1277 H1283 0.959 . S
C1277 H1284 0.961 . S
C1277 H1285 0.960 . S
C1278 C1276 1.381 . S
C1278 C1279 1.394 . S
C1278 H1286 0.930 . S
C1279 C1278 1.394 . S
C1279 C1280 1.383 . S
C1279 H1287 0.929 . S
C1280 C1279 1.383 . S
C1280 C1281 1.377 . S
C1281 H1265 0.930 . S
C1281 C1280 1.377 . S
C1281 C1282 1.379 . S
C1282 H1266 0.931 . S
C1282 C1276 1.383 . S
C1282 C1281 1.379 . S
H1283 C1277 0.959 . S
H1284 C1277 0.961 . S
H1285 C1277 0.960 . S
H1286 C1278 0.930 . S
H1287 C1279 0.929 . S
C433 C1 2.299 . S
C452 C288 2.325 . S
C469 C67 2.262 . S
C488 C330 2.295 . S
C524 C360 0.949 . S
C505 C97 0.954 . S
C541 C133 1.038 . S
C560 C394 1.019 . S
C596 C351 1.873 . S
C577 C25 1.845 . S
C632 C305 1.861 . S
C613 C37 1.846 . S
C668 C398 1.353 . S
C649 C103 1.327 . S
C704 C364 1.411 . S
C685 C109 1.407 . S
C721 C31 2.201 . S
C740 C419 2.225 . S
C776 C326 1.094 . S
C757 C73 1.083 . S
C793 C139 1.126 . S
C812 C301 1.126 . S
C829 C61 2.151 . S
C848 C385 2.185 . S
C884 C317 2.337 . S
C865 C175 2.339 . S
C901 C181 2.255 . S
C920 C339 2.279 . S
C937 C247 0.978 . S
C956 C369 0.969 . S
C973 C277 1.038 . S
C992 C403 1.016 . S
C1009 C145 1.870 . S
C1028 C322 1.873 . S
C1064 C296 1.866 . S
C1045 C211 1.847 . S
C1100 C407 1.339 . S
C1081 C217 1.335 . S
C1136 C373 1.423 . S
C1117 C283 1.426 . S
C1153 C169 2.224 . S
C1172 C390 2.222 . S
C1208 C335 1.089 . S
C1189 C241 1.103 . S
C1244 C292 1.116 . S
C1225 C253 1.112 . S
C1261 C205 2.161 . S
C1280 C356 2.191 . S
