# Generated by pormake.
# Topology anh, (6,3)-cn, num edge types: 1
# Building blocks:
#     Node 0, Type 0, BuildingBlock: NUHQIS_clean_sbu_0, # of connection points: 6
#     Node 1, Type 0, BuildingBlock: NUHQIS_clean_sbu_0, # of connection points: 6
#     Node 2, Type 0, BuildingBlock: NUHQIS_clean_sbu_0, # of connection points: 6
#     Node 3, Type 1, BuildingBlock: MIDCAF_clean_linker_0, # of connection points: 3
#     Node 4, Type 1, BuildingBlock: MIDCAF_clean_linker_0, # of connection points: 3
#     Node 5, Type 1, BuildingBlock: MIDCAF_clean_linker_0, # of connection points: 3
#     Node 6, Type 1, BuildingBlock: MIDCAF_clean_linker_0, # of connection points: 3
#     Node 7, Type 1, BuildingBlock: MIDCAF_clean_linker_0, # of connection points: 3
#     Node 8, Type 1, BuildingBlock: MIDCAF_clean_linker_0, # of connection points: 3
#     Edge 9, Type (0, 1), BuildingBlock: AJUNOK_clean_linker_0, # of connection points: 2
#     Edge 10, Type (0, 1), BuildingBlock: AJUNOK_clean_linker_0, # of connection points: 2
#     Edge 11, Type (0, 1), BuildingBlock: AJUNOK_clean_linker_0, # of connection points: 2
#     Edge 12, Type (0, 1), BuildingBlock: AJUNOK_clean_linker_0, # of connection points: 2
#     Edge 13, Type (0, 1), BuildingBlock: AJUNOK_clean_linker_0, # of connection points: 2
#     Edge 14, Type (0, 1), BuildingBlock: AJUNOK_clean_linker_0, # of connection points: 2
#     Edge 15, Type (0, 1), BuildingBlock: AJUNOK_clean_linker_0, # of connection points: 2
#     Edge 16, Type (0, 1), BuildingBlock: AJUNOK_clean_linker_0, # of connection points: 2
#     Edge 17, Type (0, 1), BuildingBlock: AJUNOK_clean_linker_0, # of connection points: 2
#     Edge 18, Type (0, 1), BuildingBlock: AJUNOK_clean_linker_0, # of connection points: 2
#     Edge 19, Type (0, 1), BuildingBlock: AJUNOK_clean_linker_0, # of connection points: 2
#     Edge 20, Type (0, 1), BuildingBlock: AJUNOK_clean_linker_0, # of connection points: 2
#     Edge 21, Type (0, 1), BuildingBlock: AJUNOK_clean_linker_0, # of connection points: 2
#     Edge 22, Type (0, 1), BuildingBlock: AJUNOK_clean_linker_0, # of connection points: 2
#     Edge 23, Type (0, 1), BuildingBlock: AJUNOK_clean_linker_0, # of connection points: 2
#     Edge 24, Type (0, 1), BuildingBlock: AJUNOK_clean_linker_0, # of connection points: 2
#     Edge 25, Type (0, 1), BuildingBlock: AJUNOK_clean_linker_0, # of connection points: 2
#     Edge 26, Type (0, 1), BuildingBlock: AJUNOK_clean_linker_0, # of connection points: 2
# Relax obj value: 0.300
# Max RMSD: 0.197
# Mean RMSD: 0.164
data_MOF--net-anh--node1-NUHQIS_clean_sbu_0--node2-MIDCAF_clean_linker_0--edge1-AJUNOK_clean_linker_0
_symmetry_space_group_name_H-M    P1
_symmetry_Int_Tables_number       1
_symmetry_cell_setting            triclinic
loop_
_symmetry_equiv_pos_as_xyz
'x, y, z'
_cell_length_a     28.384774
_cell_length_b     28.499302
_cell_length_c     52.433347
_cell_angle_alpha  90.010459
_cell_angle_beta   92.98017
_cell_angle_gamma 120.12971
loop_
_atom_site_label
_atom_site_type_symbol
_atom_site_fract_x
_atom_site_fract_y
_atom_site_fract_z
_atom_type_partial_charge
Tb0 Tb 0.18845 0.62493 0.16705 0.0
Eu1 Eu 1.12746 0.69131 0.15504 0.0
C2 C 0.14931 0.66931 0.21061 0.0
C3 C 1.05736 0.56028 0.16347 0.0
C4 C 0.27578 0.55854 0.17589 0.0
C5 C 0.30266 0.49115 0.17067 0.0
C6 C 0.26378 0.50464 0.17666 0.0
C7 C 0.32816 0.59962 0.17023 0.0
C8 C 0.36763 0.58612 0.16446 0.0
C9 C 0.35459 0.53146 0.16395 0.0
C10 C 0.23127 0.56889 0.17994 0.0
O11 O 0.20152 0.64375 0.12667 0.0
O12 O 1.12335 0.64621 0.11878 0.0
O13 O 0.21681 0.75748 0.15327 0.0
O14 O 0.25687 0.7108 0.17061 0.0
C15 C 0.16385 0.64205 0.1104 0.0
O16 O 1.09792 0.73097 0.12819 0.0
O17 O 1.07829 0.72493 0.16776 0.0
O18 O 0.15797 0.70956 0.19604 0.0
O19 O 0.14782 0.62633 0.20088 0.0
O20 O 1.1024 0.55985 0.1587 0.0
O21 O 1.05945 0.60728 0.16639 0.0
C22 C 0.26062 0.75683 0.1627 0.0
O23 O 0.24243 0.61379 0.19188 0.0
O24 O 0.19581 0.55657 0.16067 0.0
C25 C 1.00479 0.69059 0.13718 0.0
C26 C 0.913 0.5859 0.13106 0.0
C27 C 0.94464 0.61117 0.11024 0.0
C28 C 0.99007 0.66319 0.11322 0.0
C29 C 0.96812 0.66847 0.15673 0.0
C30 C 0.9229 0.61624 0.15379 0.0
C31 C 1.06314 0.72872 0.14428 0.0
H32 H 0.29106 0.44867 0.17014 0.0
H33 H 0.22347 0.47253 0.18104 0.0
H34 H 0.33805 0.64158 0.16969 0.0
H35 H 0.40769 0.61812 0.15981 0.0
H36 H 0.93606 0.58956 0.09204 0.0
H37 H 1.01658 0.67937 0.09751 0.0
H38 H 0.97773 0.68882 0.17533 0.0
H39 H 0.89821 0.59816 0.16995 0.0
Tb40 Tb 0.73905 0.15901 0.49455 0.0
Eu41 Eu 0.60942 0.08839 0.49038 0.0
C42 C 0.67297 0.12064 0.54275 0.0
C43 C 0.68152 1.02705 0.49441 0.0
C44 C 0.86385 0.27676 0.51529 0.0
C45 C 0.84703 0.33945 0.53933 0.0
C46 C 0.83497 0.28662 0.53357 0.0
C47 C 0.90848 0.32076 0.50482 0.0
C48 C 0.92086 0.3737 0.51071 0.0
C49 C 0.88852 0.38328 0.52707 0.0
C50 C 0.83944 0.22258 0.50293 0.0
O51 O 0.71916 0.13312 0.45419 0.0
O52 O 0.63527 0.12525 0.45206 0.0
O53 O 0.62642 0.17405 0.50084 0.0
O54 O 0.71482 0.22206 0.48945 0.0
C55 C 0.67761 0.13064 0.44065 0.0
O56 O 0.53399 1.03122 0.46913 0.0
O57 O 0.5311 1.06286 0.50639 0.0
O58 O 0.63705 1.07783 0.52948 0.0
O59 O 0.70767 0.1635 0.53091 0.0
O60 O 0.72559 1.07524 0.49966 0.0
O61 O 0.63467 1.02394 0.48729 0.0
C62 C 0.67003 0.22105 0.49632 0.0
O63 O 0.81087 0.18161 0.5173 0.0
O64 O 0.81371 0.21798 0.48089 0.0
C65 C 0.47106 0.96922 0.49683 0.0
C66 C 0.41304 0.86047 0.51136 0.0
C67 C 0.41546 0.87357 0.48546 0.0
C68 C 0.44388 0.92736 0.47828 0.0
C69 C 0.46912 0.95619 0.52284 0.0
C70 C 0.43986 0.90209 0.53006 0.0
C71 C 0.50449 1.02539 0.48849 0.0
H72 H 0.8214 0.3457 0.55188 0.0
H73 H 0.80016 0.25338 0.54186 0.0
H74 H 0.93072 0.31408 0.49043 0.0
H75 H 0.95242 0.40663 0.50054 0.0
H76 H 0.39372 0.84213 0.47073 0.0
H77 H 0.4448 0.93624 0.45816 0.0
H78 H 0.4901 0.98761 0.53761 0.0
H79 H 0.43761 0.89277 0.55015 0.0
Tb80 Tb 0.68026 0.6656 0.82824 0.0
Eu81 Eu 0.62169 0.53769 0.82146 0.0
C82 C 0.6657 0.59411 0.87415 0.0
C83 C 0.75702 0.61124 0.82631 0.0
C84 C 0.68111 0.78892 0.84324 0.0
C85 C 0.65442 0.8339 0.87406 0.0
C86 C 0.6884 0.81393 0.86736 0.0
C87 C 0.63866 0.78337 0.82617 0.0
C88 C 0.60512 0.80337 0.83279 0.0
C89 C 0.61249 0.82892 0.85675 0.0
C90 C 0.71418 0.76436 0.83668 0.0
O91 O 0.68769 0.65065 0.78787 0.0
O92 O 0.61256 0.5664 0.78267 0.0
O93 O 0.55497 0.55481 0.83422 0.0
O94 O 0.59318 0.64166 0.82094 0.0
C95 C 0.65029 0.6109 0.77283 0.0
O96 O 0.60402 0.46193 0.8025 0.0
O97 O 0.56587 0.46015 0.83764 0.0
O98 O 0.67108 0.56287 0.85815 0.0
O99 O 0.65199 0.62868 0.86522 0.0
O100 O 0.75251 0.6542 0.83206 0.0
O101 O 0.7128 0.56443 0.8193 0.0
C102 C 0.55036 0.5977 0.82886 0.0
O103 O 0.71812 0.73324 0.85382 0.0
O104 O 0.70462 0.74251 0.81377 0.0
C105 C 0.60355 0.40391 0.83411 0.0
C106 C 0.66856 0.36019 0.85093 0.0
C107 C 0.62658 0.33314 0.83169 0.0
C108 C 0.59441 0.35504 0.82325 0.0
C109 C 0.64318 0.42905 0.85445 0.0
C110 C 0.67575 0.40759 0.86266 0.0
C111 C 0.57869 0.43329 0.82195 0.0
H112 H 0.66166 0.85432 0.89249 0.0
H113 H 0.7204 0.81808 0.88098 0.0
H114 H 0.63136 0.76395 0.80748 0.0
H115 H 0.575 0.8011 0.81854 0.0
H116 H 0.62108 0.29699 0.82199 0.0
H117 H 0.56458 0.33548 0.80736 0.0
H118 H 0.65097 0.46681 0.86317 0.0
H119 H 0.70807 0.42915 0.87734 0.0
C120 C 0.51381 0.96341 0.19861 0.0
C121 C 0.47804 0.96281 0.17876 0.0
C122 C 0.49633 1.01226 0.16567 0.0
C123 C 0.54673 1.06032 0.17299 0.0
H124 H 0.75746 0.22171 0.16013 0.0
H125 H 0.83754 0.30606 0.14688 0.0
H126 H 0.84297 0.38514 0.21792 0.0
H127 H 0.76375 0.30274 0.2307 0.0
H128 H 0.7499 0.23097 0.28153 0.0
H129 H 0.75209 0.22566 0.32825 0.0
H130 H 0.61174 1.06433 0.32202 0.0
H131 H 0.60886 1.06937 0.27575 0.0
H132 H 0.58799 1.00843 0.22177 0.0
H133 H 0.50252 0.92742 0.20953 0.0
H134 H 0.47158 1.01421 0.14977 0.0
H135 H 0.55762 0.09749 0.16315 0.0
N136 N 0.66677 0.15776 0.19384 0.0
N137 N 0.71181 0.19831 0.23389 0.0
N138 N 0.63488 0.1117 0.23214 0.0
C139 C 0.70887 0.20154 0.20792 0.0
C140 C 0.67539 0.15387 0.24615 0.0
C141 C 0.62916 0.11214 0.20628 0.0
C142 C 0.75309 0.25412 0.19669 0.0
C143 C 0.77512 0.25728 0.17275 0.0
C144 C 0.82199 0.3059 0.16531 0.0
C145 C 0.84852 0.35341 0.18142 0.0
C146 C 0.82475 0.35043 0.20474 0.0
C147 C 0.77872 0.3023 0.21217 0.0
C148 C 0.67885 0.15088 0.27464 0.0
C149 C 0.71951 0.19432 0.29008 0.0
C150 C 0.72095 0.19125 0.31688 0.0
C151 C 0.68158 0.1449 0.32887 0.0
C152 C 0.64195 0.10108 0.31344 0.0
C153 C 0.64053 0.10402 0.28679 0.0
C154 C 0.581 1.0608 0.19364 0.0
C155 C 0.56358 1.01079 0.20578 0.0
C156 C 0.68228 0.44963 0.54086 0.0
C157 C 0.67557 0.43251 0.51511 0.0
C158 C 0.6732 0.4683 0.49683 0.0
C159 C 0.67501 0.51774 0.50431 0.0
H160 H 0.74671 0.74472 0.50483 0.0
H161 H 0.75008 0.82985 0.49238 0.0
H162 H 0.60551 0.78419 0.53281 0.0
H163 H 0.6022 0.70001 0.54484 0.0
H164 H 0.67496 0.70494 0.61085 0.0
H165 H 0.6689 0.70273 0.6574 0.0
H166 H 0.66418 0.54915 0.6579 0.0
H167 H 0.66976 0.55073 0.61177 0.0
H168 H 0.68944 0.50766 0.56852 0.0
H169 H 0.686 0.42506 0.55571 0.0
H170 H 0.66853 0.45744 0.4767 0.0
H171 H 0.67164 0.54286 0.48968 0.0
N172 N 0.67867 0.62504 0.52654 0.0
N173 N 0.67417 0.6672 0.56467 0.0
N174 N 0.67714 0.58697 0.56662 0.0
C175 C 0.67623 0.66728 0.53874 0.0
C176 C 0.67493 0.62767 0.57879 0.0
C177 C 0.67896 0.58392 0.54083 0.0
C178 C 0.67337 0.71379 0.52548 0.0
C179 C 0.71471 0.75203 0.51043 0.0
C180 C 0.71722 0.80187 0.50373 0.0
C181 C 0.67846 0.81568 0.51174 0.0
C182 C 0.63623 0.77624 0.52595 0.0
C183 C 0.63413 0.72716 0.53281 0.0
C184 C 0.67244 0.62782 0.60727 0.0
C185 C 0.67259 0.67063 0.62084 0.0
C186 C 0.66935 0.66955 0.64756 0.0
C187 C 0.66528 0.6254 0.66134 0.0
C188 C 0.66613 0.58323 0.64785 0.0
C189 C 0.66963 0.58437 0.62129 0.0
C190 C 0.68005 0.53367 0.53039 0.0
C191 C 0.68452 0.49831 0.54822 0.0
C192 C 1.00907 0.65452 0.86604 0.0
C193 C 0.9723 0.6189 0.84652 0.0
C194 C 0.98774 0.58404 0.83474 0.0
C195 C 1.03735 0.58481 0.84235 0.0
H196 H 0.23767 0.61712 0.82671 0.0
H197 H 0.31727 0.61296 0.81268 0.0
H198 H 0.35464 0.58645 0.8902 0.0
H199 H 0.27604 0.58849 0.90376 0.0
H200 H 0.21922 0.58654 0.95055 0.0
H201 H 0.22017 0.59018 0.9971 0.0
H202 H 1.11516 0.65929 0.99211 0.0
H203 H 1.11209 0.6532 0.94565 0.0
H204 H 1.08316 0.68239 0.8893 0.0
H205 H 0.99926 0.68101 0.87642 0.0
H206 H 0.96112 0.55561 0.81971 0.0
H207 H 1.04617 0.55606 0.83341 0.0
N208 N 0.15994 0.60999 0.86311 0.0
N209 N 0.20167 0.61053 0.90343 0.0
N210 N 1.12388 0.61883 0.90135 0.0
C211 C 0.20153 0.60775 0.87743 0.0
C212 C 0.16362 0.61606 0.91556 0.0
C213 C 1.12046 0.61553 0.87535 0.0
C214 C 0.24876 0.60325 0.86659 0.0
C215 C 0.26253 0.60997 0.84075 0.0
C216 C 0.30921 0.60823 0.83273 0.0
C217 C 0.34421 0.59966 0.85018 0.0
C218 C 0.32965 0.59249 0.87577 0.0
C219 C 0.28368 0.59413 0.88367 0.0
C220 C 0.16556 0.61954 0.94415 0.0
C221 C 0.19644 0.60269 0.95936 0.0
C222 C 0.1974 0.60527 0.98618 0.0
C223 C 0.16834 0.62576 0.99865 0.0
C224 C 0.13773 0.64283 0.98336 0.0
C225 C 0.13612 0.63951 0.95659 0.0
C226 C 1.07333 0.62012 0.86226 0.0
C227 C 1.05789 0.6551 0.87362 0.0
C228 C 0.24148 0.67894 0.46106 0.0
C229 C 0.23361 0.66974 0.4873 0.0
C230 C 0.1801 0.64089 0.49528 0.0
C231 C 0.13609 0.62903 0.47802 0.0
H232 H 1.00753 0.69433 0.47174 0.0
H233 H 0.95339 0.64329 0.50693 0.0
H234 H 0.86101 0.50385 0.45595 0.0
H235 H 0.91455 0.55515 0.42092 0.0
H236 H 0.98889 0.62137 0.3556 0.0
H237 H 1.00441 0.62805 0.30974 0.0
H238 H 0.17834 0.71157 0.32739 0.0
H239 H 0.16331 0.70521 0.37279 0.0
H240 H 0.20568 0.67812 0.42416 0.0
H241 H 0.28211 0.70104 0.45413 0.0
H242 H 0.17264 0.6318 0.51521 0.0
H243 H 1.0956 0.61061 0.48507 0.0
N244 N 1.05604 0.63875 0.44615 0.0
N245 N 1.02064 0.64624 0.40581 0.0
N246 N 1.10659 0.65247 0.4105 0.0
C247 C 1.01609 0.64019 0.43148 0.0
C248 C 1.06684 0.6536 0.39535 0.0
C249 C 1.10106 0.64423 0.43584 0.0
C250 C 0.96628 0.62772 0.44399 0.0
C251 C 0.97279 0.65411 0.46766 0.0
C252 C 0.94214 0.62473 0.48791 0.0
C253 C 0.90528 0.56892 0.48443 0.0
C254 C 0.8901 0.54664 0.45934 0.0
C255 C 0.92061 0.57617 0.43908 0.0
C256 C 1.07482 0.66219 0.36776 0.0
C257 C 1.03035 0.64179 0.34962 0.0
C258 C 1.03919 0.64531 0.32347 0.0
C259 C 1.09256 0.66989 0.31519 0.0
C260 C 0.13685 0.69252 0.33332 0.0
C261 C 1.12811 0.68848 0.3593 0.0
C262 C 0.14494 0.64482 0.45248 0.0
C263 C 0.19755 0.66645 0.44381 0.0
C264 C 0.80567 0.29383 0.80198 0.0
C265 C 0.80386 0.28022 0.82789 0.0
C266 C 0.80316 0.23195 0.83409 0.0
C267 C 0.78787 0.19172 0.81511 0.0
H268 H 0.60926 0.10232 0.81959 0.0
H269 H 0.5642 1.03351 0.85118 0.0
H270 H 0.52402 0.90841 0.7937 0.0
H271 H 0.56826 0.97707 0.76216 0.0
H272 H 0.5935 1.05599 0.7022 0.0
H273 H 0.5898 1.05818 0.65561 0.0
H274 H 0.76116 0.17865 0.6582 0.0
H275 H 0.76507 0.17758 0.70459 0.0
H276 H 0.784 0.2626 0.76351 0.0
H277 H 0.80801 0.33152 0.79642 0.0
H278 H 0.80442 0.22154 0.85389 0.0
H279 H 0.77748 0.15122 0.82078 0.0
N280 N 0.68626 0.12079 0.78717 0.0
N281 N 0.63781 1.08152 0.74821 0.0
N282 N 0.72802 0.15499 0.74896 0.0
C283 C 0.63978 1.08388 0.77415 0.0
C284 C 0.68199 0.11735 0.73548 0.0
C285 C 0.73069 0.15602 0.77485 0.0
C286 C 0.5941 1.04472 0.78881 0.0
C287 C 0.5883 1.05997 0.81345 0.0
C288 C 0.56199 1.0206 0.83149 0.0
C289 C 0.54228 0.96576 0.82517 0.0
C290 C 0.53907 0.95038 0.79929 0.0
C291 C 0.56499 0.98982 0.78115 0.0
C292 C 0.67953 0.11688 0.70721 0.0
C293 C 0.63045 1.08303 0.69288 0.0
C294 C 0.62821 1.08415 0.66621 0.0
C295 C 0.67496 0.11919 0.6534 0.0
C296 C 0.72417 0.15226 0.66765 0.0
C297 C 0.72644 0.1513 0.69425 0.0
C298 C 0.77587 0.20098 0.7899 0.0
C299 C 0.79169 0.25408 0.78293 0.0
C300 C 0.7349 0.36436 0.08091 0.0
C301 C 0.73654 0.37079 0.10759 0.0
C302 C 0.68729 0.34434 0.11988 0.0
C303 C 0.63766 0.32333 0.10555 0.0
H304 H 0.54044 0.37577 0.12053 0.0
H305 H 0.50686 0.42366 0.14571 0.0
H306 H 0.40423 0.41789 0.08062 0.0
H307 H 0.43911 0.37175 0.05511 0.0
H308 H 0.50703 0.383 0.99267 0.0
H309 H 0.537 0.44628 0.95752 0.0
H310 H 0.70437 0.51457 0.98696 0.0
H311 H 0.67467 0.44853 0.02053 0.0
H312 H 0.68626 0.34502 0.04599 0.0
H313 H 0.77194 0.38344 0.0707 0.0
H314 H 0.6874 0.34708 0.1405 0.0
H315 H 0.60092 0.31024 0.11563 0.0
N316 N 0.55519 0.33636 0.07903 0.0
N317 N 0.53208 0.3757 0.04502 0.0
N318 N 0.60242 0.35628 0.04163 0.0
C319 C 0.5238 0.35604 0.06893 0.0
C320 C 0.57118 0.37584 0.03126 0.0
C321 C 0.59403 0.33532 0.06535 0.0
C322 C 0.49277 0.37056 0.08574 0.0
C323 C 0.50972 0.38353 0.11174 0.0
C324 C 0.49095 0.4114 0.12613 0.0
C325 C 0.45468 0.42627 0.11477 0.0
C326 C 0.43404 0.40893 0.08949 0.0
C327 C 0.45326 0.38174 0.07503 0.0
C328 C 0.58869 0.40984 0.00871 0.0
C329 C 0.55026 0.41076 0.99111 0.0
C330 C 0.56741 0.44755 0.9713 0.0
C331 C 0.6232 0.48509 0.9692 0.0
C332 C 0.66134 0.48498 0.98738 0.0
C333 C 0.64435 0.4471 0.00662 0.0
C334 C 0.63723 0.3284 0.07884 0.0
C335 C 0.68534 0.34275 0.0666 0.0
C336 C 0.39687 0.47289 0.16594 0.0
C337 C 0.39163 0.51436 0.15389 0.0
C338 C 0.41979 0.44616 0.15369 0.0
C339 C 0.43852 0.46022 0.12904 0.0
H340 H 0.3804 0.45901 0.1844 0.0
H341 H 0.42007 0.41236 0.16301 0.0
S342 S 0.44338 0.57236 0.09117 0.0
N343 N 0.41275 0.57219 0.11711 0.0
N344 N 0.45825 0.52358 0.09465 0.0
C345 C 0.43815 0.50484 0.11779 0.0
C346 C 0.4143 0.53169 0.13013 0.0
C347 C 0.84345 0.43768 0.51821 0.0
C348 C 0.89069 0.43628 0.52653 0.0
C349 C 0.84719 0.48459 0.50773 0.0
C350 C 0.89822 0.53143 0.50541 0.0
H351 H 0.80413 0.40078 0.51719 0.0
H352 H 0.81079 0.48255 0.49899 0.0
S353 S 1.03198 0.55247 0.53151 0.0
N354 N 0.988 0.48856 0.53727 0.0
N355 N 0.99571 0.57684 0.51744 0.0
C356 C 0.94465 0.53282 0.51737 0.0
C357 C 0.94072 0.48503 0.52793 0.0
C358 C 0.61506 0.91509 0.86666 0.0
C359 C 0.58353 0.85918 0.8609 0.0
C360 C 0.59641 0.9501 0.85886 0.0
C361 C 0.54598 0.93018 0.84481 0.0
H362 H 0.65712 0.9329 0.87396 0.0
H363 H 0.62523 0.99329 0.86054 0.0
S364 S 0.43965 0.78574 0.83506 0.0
N365 N 0.49298 0.78417 0.84828 0.0
N366 N 0.45849 0.85059 0.83283 0.0
C367 C 0.51013 0.87391 0.84359 0.0
C368 C 0.52887 0.83814 0.85184 0.0
C369 C 0.81831 0.51088 0.13715 0.0
C370 C 0.87075 0.52769 0.12923 0.0
C371 C 0.77597 0.45744 0.1327 0.0
C372 C 0.78455 0.41873 0.12023 0.0
H373 H 0.809 0.53997 0.14535 0.0
H374 H 0.73529 0.44796 0.13708 0.0
S375 S 0.91749 0.43943 0.10131 0.0
N376 N 0.93138 0.49963 0.11231 0.0
N377 N 0.85149 0.39863 0.10422 0.0
C378 C 0.83809 0.43368 0.11469 0.0
C379 C 0.8812 0.48834 0.119 0.0
C380 C 0.37922 0.76203 0.50602 0.0
C381 C 0.37531 0.80395 0.51801 0.0
C382 C 0.33241 0.71172 0.50023 0.0
C383 C 0.28058 0.70288 0.50571 0.0
H384 H 0.41713 0.7705 0.4981 0.0
H385 H 0.33587 0.68297 0.48807 0.0
S386 S 0.2528 0.79384 0.54493 0.0
N387 N 0.31916 0.82856 0.54152 0.0
N388 N 0.23071 0.73466 0.53018 0.0
C389 C 0.27817 0.74066 0.52217 0.0
C390 C 0.32597 0.79152 0.52833 0.0
C391 C 0.76394 0.37904 0.84995 0.0
C392 C 0.70948 0.34325 0.85551 0.0
C393 C 0.79902 0.35935 0.84493 0.0
C394 C 0.78041 0.30335 0.84521 0.0
H395 H 0.77771 0.42144 0.84671 0.0
H396 H 0.83854 0.38713 0.83787 0.0
S397 S 0.64544 0.19589 0.8657 0.0
N398 N 0.64223 0.25209 0.86652 0.0
N399 N 0.70719 0.21427 0.85688 0.0
C400 C 0.72862 0.26869 0.85465 0.0
C401 C 0.69316 0.28887 0.8597 0.0
C402 C 0.63442 0.92271 0.49546 0.0
C403 C 0.68307 0.97398 0.49772 0.0
C404 C 0.63361 0.87287 0.49958 0.0
C405 C 0.68144 0.87038 0.50601 0.0
H406 H 0.59586 0.92077 0.49077 0.0
H407 H 0.59459 0.83562 0.49761 0.0
S408 S 0.82037 0.9921 0.51471 0.0
N409 N 0.78103 1.01795 0.50709 0.0
N410 N 0.77953 0.92562 0.51466 0.0
C411 C 0.73057 0.92127 0.50807 0.0
C412 C 0.73135 0.97224 0.50406 0.0
C413 C 0.81702 0.56662 0.83052 0.0
C414 C 0.81271 0.61417 0.82985 0.0
C415 C 0.86793 0.56832 0.83514 0.0
C416 C 0.91806 0.61767 0.83949 0.0
H417 H 0.78039 0.52723 0.82797 0.0
H418 H 0.86764 0.53021 0.83601 0.0
S419 S 0.93148 0.75457 0.83735 0.0
N420 N 0.8652 0.71261 0.83257 0.0
N421 N 0.95924 0.71588 0.84067 0.0
C422 C 0.91442 0.66551 0.83811 0.0
C423 C 0.86265 0.66376 0.83349 0.0
C424 C 0.36492 0.80988 0.17151 0.0
C425 C 0.31584 0.80997 0.16532 0.0
C426 C 0.4163 0.85858 0.175 0.0
C427 C 0.42234 0.91096 0.17273 0.0
H428 H 0.36384 0.7716 0.17379 0.0
H429 H 0.45185 0.85482 0.17959 0.0
S430 S 0.30687 0.93523 0.15748 0.0
N431 N 0.27752 0.86842 0.15716 0.0
N432 N 0.3725 0.95859 0.16423 0.0
C433 C 0.37356 0.91164 0.16636 0.0
C434 C 0.32117 0.86193 0.16262 0.0
C435 C 0.7032 0.32187 0.48673 0.0
C436 C 0.66915 0.27418 0.49998 0.0
C437 C 0.7031 0.37158 0.49045 0.0
C438 C 0.67054 0.37735 0.5084 0.0
H439 H 0.73032 0.32089 0.47323 0.0
H440 H 0.73024 0.40632 0.47972 0.0
S441 S 0.57181 0.26492 0.54731 0.0
N442 N 0.5997 0.23656 0.53099 0.0
N443 N 0.60082 0.32859 0.53847 0.0
C444 C 0.63567 0.32965 0.52136 0.0
C445 C 0.63475 0.2789 0.51711 0.0
C446 C 0.45872 0.56133 0.84974 0.0
C447 C 0.49671 0.59719 0.83268 0.0
C448 C 0.41011 0.56189 0.8547 0.0
C449 C 0.39539 0.59781 0.84269 0.0
H450 H 0.46708 0.53299 0.85991 0.0
H451 H 0.3836 0.53338 0.86822 0.0
S452 S 0.47803 0.69743 0.79453 0.0
N453 N 0.51404 0.66825 0.80269 0.0
N454 N 0.42357 0.66872 0.81153 0.0
C455 C 0.43224 0.63269 0.82488 0.0
C456 C 0.4823 0.63266 0.82012 0.0
C457 C 0.9581 0.50656 0.17657 0.0
C458 C 1.00368 0.50688 0.16659 0.0
C459 C 0.90862 0.45765 0.18066 0.0
C460 C 0.90103 0.40557 0.1749 0.0
H461 H 0.96071 0.54466 0.18163 0.0
H462 H 0.87574 0.46089 0.18844 0.0
S463 S 1.00667 0.38231 0.14807 0.0
N464 N 1.03667 0.44908 0.15078 0.0
N465 N 0.94501 0.35849 0.15844 0.0
C466 C 0.94599 0.40528 0.16458 0.0
C467 C 0.9966 0.45516 0.16054 0.0
C468 C 1.1189 0.61803 0.066 0.0
C469 C 0.16633 0.63582 0.08221 0.0
C470 C 1.11994 0.61418 0.03931 0.0
C471 C 0.16859 0.62845 0.02737 0.0
H472 H 1.0803 0.60685 0.07397 0.0
H473 H 1.08201 0.59969 0.02793 0.0
S474 S 0.30487 0.67961 0.061 0.0
N475 N 0.26368 0.66833 0.08425 0.0
N476 N 0.26608 0.6627 0.03419 0.0
C477 C 0.21642 0.64622 0.04337 0.0
C478 C 0.21519 0.64955 0.07067 0.0
C479 C 0.72633 0.14968 0.39951 0.0
C480 C 0.67817 0.13438 0.41212 0.0
C481 C 0.72756 0.15391 0.37272 0.0
C482 C 0.68053 0.14235 0.35737 0.0
H483 H 0.76356 0.15872 0.4104 0.0
H484 H 0.76543 0.16545 0.36391 0.0
S485 S 0.5444 0.1023 0.38055 0.0
N486 N 0.58228 0.10867 0.40672 0.0
N487 N 0.58502 0.11682 0.3568 0.0
C488 C 0.63233 0.12748 0.36969 0.0
C489 C 0.63105 0.12346 0.39688 0.0
C490 C 0.69263 0.66202 0.73302 0.0
C491 C 0.652 0.615 0.74429 0.0
C492 C 0.69606 0.66575 0.70627 0.0
C493 C 0.65934 0.62245 0.68962 0.0
H494 H 0.72251 0.69617 0.74494 0.0
H495 H 0.72854 0.70235 0.69859 0.0
S496 S 0.54287 0.49196 0.70873 0.0
N497 N 0.57231 0.52515 0.73603 0.0
N498 N 0.5791 0.5325 0.6862 0.0
C499 C 0.61784 0.57584 0.70051 0.0
C500 C 0.61407 0.57205 0.72765 0.0
C501 C 0.64955 1.07232 0.58384 0.0
C502 C 0.67242 0.12143 0.57085 0.0
C503 C 0.64984 1.0719 0.61055 0.0
C504 C 0.67282 0.12056 0.62517 0.0
H505 H 0.63221 1.03391 0.57335 0.0
H506 H 0.63299 1.03326 0.61984 0.0
S507 S 0.73201 0.25953 0.60025 0.0
N508 N 0.71481 0.2197 0.5745 0.0
N509 N 0.71501 0.21883 0.62472 0.0
C510 C 0.69428 0.16984 0.6124 0.0
C511 C 0.69416 0.1703 0.58522 0.0
C512 C 0.62368 0.57682 0.9163 0.0
C513 C 0.66486 0.58064 0.90126 0.0
C514 C 0.61217 0.54813 0.93907 0.0
C515 C 0.6414 0.52235 0.9474 0.0
H516 H 0.59768 0.59252 0.90956 0.0
H517 H 0.57867 0.54419 0.94967 0.0
S518 S 0.75785 0.5269 0.91589 0.0
N519 N 0.73919 0.56245 0.89753 0.0
N520 N 0.71623 0.50656 0.93945 0.0
C521 C 0.68523 0.52943 0.93329 0.0
C522 C 0.69732 0.55917 0.91044 0.0
C523 C 0.15378 0.71773 0.25116 0.0
C524 C 0.13307 0.66885 0.23693 0.0
C525 C 0.13941 0.71794 0.27632 0.0
C526 C 1.10291 0.66941 0.28786 0.0
H527 H 0.18221 0.75595 0.243 0.0
H528 H 0.15731 0.75628 0.28692 0.0
S529 S 1.03448 0.53103 0.25815 0.0
N530 N 1.07232 0.57088 0.23578 0.0
N531 N 1.04515 0.5715 0.283 0.0
C532 C 1.08067 0.62048 0.27358 0.0
C533 C 1.09586 0.62013 0.24813 0.0
loop_
_geom_bond_atom_site_label_1
_geom_bond_atom_site_label_2
_geom_bond_distance
_geom_bond_site_symmetry_2
_ccdc_geom_bond_type
Tb0 C10 2.825 . S
Tb0 O11 2.347 . S
Tb0 O14 2.366 . S
Tb0 O19 2.418 . S
Tb0 O20 2.384 1_455 S
Tb0 O23 2.479 . S
Tb0 O24 2.471 . S
Eu1 O12 2.418 . S
Eu1 O13 2.384 1_655 S
Eu1 O16 2.479 . S
Eu1 O17 2.471 . S
Eu1 O18 2.347 1_655 S
Eu1 O21 2.366 . S
Eu1 C31 2.825 . S
C2 O18 1.259 . S
C2 O19 1.265 . S
C3 O20 1.255 . S
C3 O21 1.265 . S
C4 C6 1.380 . S
C4 C7 1.374 . S
C4 C10 1.507 . S
C5 C6 1.384 . S
C5 C9 1.387 . S
C5 H32 0.930 . S
C6 C4 1.380 . S
C6 C5 1.384 . S
C6 H33 0.931 . S
C7 C4 1.374 . S
C7 C8 1.390 . S
C7 H34 0.930 . S
C8 C7 1.390 . S
C8 C9 1.391 . S
C8 H35 0.930 . S
C9 C5 1.387 . S
C9 C8 1.391 . S
C10 Tb0 2.825 . S
C10 C4 1.507 . S
C10 O23 1.238 . S
C10 O24 1.247 . S
O11 Tb0 2.347 . S
O11 C15 1.259 . S
O12 Eu1 2.418 . S
O12 C15 1.265 1_655 S
O13 Eu1 2.384 1_455 S
O13 C22 1.255 . S
O14 Tb0 2.366 . S
O14 C22 1.265 . S
C15 O11 1.259 . S
C15 O12 1.265 1_455 S
O16 Eu1 2.479 . S
O16 C31 1.238 . S
O17 Eu1 2.471 . S
O17 C31 1.247 . S
O18 Eu1 2.347 1_455 S
O18 C2 1.259 . S
O19 Tb0 2.418 . S
O19 C2 1.265 . S
O20 Tb0 2.384 1_655 S
O20 C3 1.255 . S
O21 Eu1 2.366 . S
O21 C3 1.265 . S
C22 O13 1.255 . S
C22 O14 1.265 . S
O23 Tb0 2.479 . S
O23 C10 1.238 . S
O24 Tb0 2.471 . S
O24 C10 1.247 . S
C25 C28 1.380 . S
C25 C29 1.374 . S
C25 C31 1.507 . S
C26 C27 1.387 . S
C26 C30 1.391 . S
C27 C26 1.387 . S
C27 C28 1.384 . S
C27 H36 0.930 . S
C28 C25 1.380 . S
C28 C27 1.384 . S
C28 H37 0.931 . S
C29 C25 1.374 . S
C29 C30 1.390 . S
C29 H38 0.930 . S
C30 C26 1.391 . S
C30 C29 1.390 . S
C30 H39 0.930 . S
C31 Eu1 2.825 . S
C31 O16 1.238 . S
C31 O17 1.247 . S
C31 C25 1.507 . S
H32 C5 0.930 . S
H33 C6 0.931 . S
H34 C7 0.930 . S
H35 C8 0.930 . S
H36 C27 0.930 . S
H37 C28 0.931 . S
H38 C29 0.930 . S
H39 C30 0.930 . S
Tb40 C50 2.825 . S
Tb40 O51 2.347 . S
Tb40 O54 2.366 . S
Tb40 O59 2.418 . S
Tb40 O60 2.384 1_545 S
Tb40 O63 2.479 . S
Tb40 O64 2.471 . S
Eu41 O52 2.418 . S
Eu41 O53 2.384 . S
Eu41 O56 2.479 1_545 S
Eu41 O57 2.471 1_545 S
Eu41 O58 2.347 . S
Eu41 O61 2.366 1_545 S
Eu41 C71 2.825 1_545 S
C42 O58 1.259 . S
C42 O59 1.265 . S
C43 O60 1.255 . S
C43 O61 1.265 . S
C44 C46 1.380 . S
C44 C47 1.374 . S
C44 C50 1.507 . S
C45 C46 1.384 . S
C45 C49 1.387 . S
C45 H72 0.930 . S
C46 C44 1.380 . S
C46 C45 1.384 . S
C46 H73 0.931 . S
C47 C44 1.374 . S
C47 C48 1.390 . S
C47 H74 0.930 . S
C48 C47 1.390 . S
C48 C49 1.391 . S
C48 H75 0.930 . S
C49 C45 1.387 . S
C49 C48 1.391 . S
C50 Tb40 2.825 . S
C50 C44 1.507 . S
C50 O63 1.238 . S
C50 O64 1.247 . S
O51 Tb40 2.347 . S
O51 C55 1.259 . S
O52 Eu41 2.418 . S
O52 C55 1.265 . S
O53 Eu41 2.384 . S
O53 C62 1.255 . S
O54 Tb40 2.366 . S
O54 C62 1.265 . S
C55 O51 1.259 . S
C55 O52 1.265 . S
O56 Eu41 2.479 1_565 S
O56 C71 1.238 . S
O57 Eu41 2.471 1_565 S
O57 C71 1.247 . S
O58 Eu41 2.347 . S
O58 C42 1.259 . S
O59 Tb40 2.418 . S
O59 C42 1.265 . S
O60 Tb40 2.384 1_565 S
O60 C43 1.255 . S
O61 Eu41 2.366 1_565 S
O61 C43 1.265 . S
C62 O53 1.255 . S
C62 O54 1.265 . S
O63 Tb40 2.479 . S
O63 C50 1.238 . S
O64 Tb40 2.471 . S
O64 C50 1.247 . S
C65 C68 1.380 . S
C65 C69 1.374 . S
C65 C71 1.507 . S
C66 C67 1.387 . S
C66 C70 1.391 . S
C67 C66 1.387 . S
C67 C68 1.384 . S
C67 H76 0.930 . S
C68 C65 1.380 . S
C68 C67 1.384 . S
C68 H77 0.931 . S
C69 C65 1.374 . S
C69 C70 1.390 . S
C69 H78 0.930 . S
C70 C66 1.391 . S
C70 C69 1.390 . S
C70 H79 0.930 . S
C71 Eu41 2.825 1_565 S
C71 O56 1.238 . S
C71 O57 1.247 . S
C71 C65 1.507 . S
H72 C45 0.930 . S
H73 C46 0.931 . S
H74 C47 0.930 . S
H75 C48 0.930 . S
H76 C67 0.930 . S
H77 C68 0.931 . S
H78 C69 0.930 . S
H79 C70 0.930 . S
Tb80 C90 2.825 . S
Tb80 O91 2.347 . S
Tb80 O94 2.366 . S
Tb80 O99 2.418 . S
Tb80 O100 2.384 . S
Tb80 O103 2.479 . S
Tb80 O104 2.471 . S
Eu81 O92 2.418 . S
Eu81 O93 2.384 . S
Eu81 O96 2.479 . S
Eu81 O97 2.471 . S
Eu81 O98 2.347 . S
Eu81 O101 2.366 . S
Eu81 C111 2.825 . S
C82 O98 1.259 . S
C82 O99 1.265 . S
C83 O100 1.255 . S
C83 O101 1.265 . S
C84 C86 1.380 . S
C84 C87 1.374 . S
C84 C90 1.507 . S
C85 C86 1.384 . S
C85 C89 1.387 . S
C85 H112 0.930 . S
C86 C84 1.380 . S
C86 C85 1.384 . S
C86 H113 0.931 . S
C87 C84 1.374 . S
C87 C88 1.390 . S
C87 H114 0.930 . S
C88 C87 1.390 . S
C88 C89 1.391 . S
C88 H115 0.930 . S
C89 C85 1.387 . S
C89 C88 1.391 . S
C90 Tb80 2.825 . S
C90 C84 1.507 . S
C90 O103 1.238 . S
C90 O104 1.247 . S
O91 Tb80 2.347 . S
O91 C95 1.259 . S
O92 Eu81 2.418 . S
O92 C95 1.265 . S
O93 Eu81 2.384 . S
O93 C102 1.255 . S
O94 Tb80 2.366 . S
O94 C102 1.265 . S
C95 O91 1.259 . S
C95 O92 1.265 . S
O96 Eu81 2.479 . S
O96 C111 1.238 . S
O97 Eu81 2.471 . S
O97 C111 1.247 . S
O98 Eu81 2.347 . S
O98 C82 1.259 . S
O99 Tb80 2.418 . S
O99 C82 1.265 . S
O100 Tb80 2.384 . S
O100 C83 1.255 . S
O101 Eu81 2.366 . S
O101 C83 1.265 . S
C102 O93 1.255 . S
C102 O94 1.265 . S
O103 Tb80 2.479 . S
O103 C90 1.238 . S
O104 Tb80 2.471 . S
O104 C90 1.247 . S
C105 C108 1.380 . S
C105 C109 1.374 . S
C105 C111 1.507 . S
C106 C107 1.387 . S
C106 C110 1.391 . S
C107 C106 1.387 . S
C107 C108 1.384 . S
C107 H116 0.930 . S
C108 C105 1.380 . S
C108 C107 1.384 . S
C108 H117 0.931 . S
C109 C105 1.374 . S
C109 C110 1.390 . S
C109 H118 0.930 . S
C110 C106 1.391 . S
C110 C109 1.390 . S
C110 H119 0.930 . S
C111 Eu81 2.825 . S
C111 O96 1.238 . S
C111 O97 1.247 . S
C111 C105 1.507 . S
H112 C85 0.930 . S
H113 C86 0.931 . S
H114 C87 0.930 . S
H115 C88 0.930 . S
H116 C107 0.930 . S
H117 C108 0.931 . S
H118 C109 0.930 . S
H119 C110 0.930 . S
C120 C121 1.384 . S
C120 H133 0.947 . S
C120 C155 1.382 . S
C121 C120 1.384 . S
C121 C122 1.378 . S
C122 C121 1.378 . S
C122 C123 1.378 . S
C122 H134 0.952 . S
C123 C122 1.378 . S
C123 H135 0.950 . S
C123 C154 1.383 . S
H124 C143 0.947 . S
H125 C144 0.946 . S
H126 C146 0.953 . S
H127 C147 0.945 . S
H128 C149 0.952 . S
H129 C150 0.949 . S
H130 C152 0.950 . S
H131 C153 0.948 . S
H132 C155 0.951 . S
H133 C120 0.947 . S
H134 C122 0.952 . S
H135 C123 0.950 . S
N136 C139 1.382 . S
N136 C141 1.363 1_545 S
N137 C139 1.371 . S
N137 C140 1.372 . S
N138 C140 1.361 1_565 S
N138 C141 1.377 . S
C139 N136 1.382 . S
C139 N137 1.371 . S
C139 C142 1.480 . S
C140 N137 1.372 . S
C140 N138 1.361 1_545 S
C140 C148 1.457 . S
C141 N136 1.363 1_565 S
C141 N138 1.377 . S
C141 C154 1.479 . S
C142 C139 1.480 . S
C142 C143 1.383 . S
C142 C147 1.385 . S
C143 H124 0.947 . S
C143 C142 1.383 . S
C143 C144 1.388 . S
C144 H125 0.946 . S
C144 C143 1.388 . S
C144 C145 1.384 . S
C145 C144 1.384 . S
C145 C146 1.377 . S
C146 H126 0.953 . S
C146 C145 1.377 . S
C146 C147 1.369 . S
C147 H127 0.945 . S
C147 C142 1.385 . S
C147 C146 1.369 . S
C148 C140 1.457 . S
C148 C149 1.372 . S
C148 C153 1.364 1_545 S
C149 H128 0.952 . S
C149 C148 1.372 . S
C149 C150 1.389 . S
C150 H129 0.949 . S
C150 C149 1.389 . S
C150 C151 1.387 . S
C151 C150 1.387 . S
C151 C152 1.372 1_545 S
C152 H130 0.950 . S
C152 C151 1.372 1_565 S
C152 C153 1.379 . S
C153 H131 0.948 . S
C153 C148 1.364 1_565 S
C153 C152 1.379 . S
C154 C123 1.383 . S
C154 C141 1.479 . S
C154 C155 1.398 . S
C155 C120 1.382 . S
C155 H132 0.951 . S
C155 C154 1.398 . S
C156 C157 1.384 . S
C156 H169 0.947 . S
C156 C191 1.382 . S
C157 C156 1.384 . S
C157 C158 1.378 . S
C158 C157 1.378 . S
C158 C159 1.378 . S
C158 H170 0.952 . S
C159 C158 1.378 . S
C159 H171 0.950 . S
C159 C190 1.383 . S
H160 C179 0.947 . S
H161 C180 0.946 . S
H162 C182 0.953 . S
H163 C183 0.945 . S
H164 C185 0.952 . S
H165 C186 0.949 . S
H166 C188 0.950 . S
H167 C189 0.948 . S
H168 C191 0.951 . S
H169 C156 0.947 . S
H170 C158 0.952 . S
H171 C159 0.950 . S
N172 C175 1.382 . S
N172 C177 1.363 . S
N173 C175 1.371 . S
N173 C176 1.372 . S
N174 C176 1.361 . S
N174 C177 1.377 . S
C175 N172 1.382 . S
C175 N173 1.371 . S
C175 C178 1.480 . S
C176 N173 1.372 . S
C176 N174 1.361 . S
C176 C184 1.457 . S
C177 N172 1.363 . S
C177 N174 1.377 . S
C177 C190 1.479 . S
C178 C175 1.480 . S
C178 C179 1.383 . S
C178 C183 1.385 . S
C179 H160 0.947 . S
C179 C178 1.383 . S
C179 C180 1.388 . S
C180 H161 0.946 . S
C180 C179 1.388 . S
C180 C181 1.384 . S
C181 C180 1.384 . S
C181 C182 1.377 . S
C182 H162 0.953 . S
C182 C181 1.377 . S
C182 C183 1.369 . S
C183 H163 0.945 . S
C183 C178 1.385 . S
C183 C182 1.369 . S
C184 C176 1.457 . S
C184 C185 1.372 . S
C184 C189 1.364 . S
C185 H164 0.952 . S
C185 C184 1.372 . S
C185 C186 1.389 . S
C186 H165 0.949 . S
C186 C185 1.389 . S
C186 C187 1.387 . S
C187 C186 1.387 . S
C187 C188 1.372 . S
C188 H166 0.950 . S
C188 C187 1.372 . S
C188 C189 1.379 . S
C189 H167 0.948 . S
C189 C184 1.364 . S
C189 C188 1.379 . S
C190 C159 1.383 . S
C190 C177 1.479 . S
C190 C191 1.398 . S
C191 C156 1.382 . S
C191 H168 0.951 . S
C191 C190 1.398 . S
C192 C193 1.384 . S
C192 H205 0.947 . S
C192 C227 1.382 . S
C193 C192 1.384 . S
C193 C194 1.378 . S
C194 C193 1.378 . S
C194 C195 1.378 . S
C194 H206 0.952 . S
C195 C194 1.378 . S
C195 H207 0.950 . S
C195 C226 1.383 . S
H196 C215 0.947 . S
H197 C216 0.946 . S
H198 C218 0.953 . S
H199 C219 0.945 . S
H200 C221 0.952 . S
H201 C222 0.949 . S
H202 C224 0.950 . S
H203 C225 0.948 . S
H204 C227 0.951 . S
H205 C192 0.947 . S
H206 C194 0.952 . S
H207 C195 0.950 . S
N208 C211 1.382 . S
N208 C213 1.363 1_455 S
N209 C211 1.371 . S
N209 C212 1.372 . S
N210 C212 1.361 1_655 S
N210 C213 1.377 . S
C211 N208 1.382 . S
C211 N209 1.371 . S
C211 C214 1.480 . S
C212 N209 1.372 . S
C212 N210 1.361 1_455 S
C212 C220 1.457 . S
C213 N208 1.363 1_655 S
C213 N210 1.377 . S
C213 C226 1.479 . S
C214 C211 1.480 . S
C214 C215 1.383 . S
C214 C219 1.385 . S
C215 H196 0.947 . S
C215 C214 1.383 . S
C215 C216 1.388 . S
C216 H197 0.946 . S
C216 C215 1.388 . S
C216 C217 1.384 . S
C217 C216 1.384 . S
C217 C218 1.377 . S
C218 H198 0.953 . S
C218 C217 1.377 . S
C218 C219 1.369 . S
C219 H199 0.945 . S
C219 C214 1.385 . S
C219 C218 1.369 . S
C220 C212 1.457 . S
C220 C221 1.372 . S
C220 C225 1.364 1_455 S
C221 H200 0.952 . S
C221 C220 1.372 . S
C221 C222 1.389 . S
C222 H201 0.949 . S
C222 C221 1.389 . S
C222 C223 1.387 . S
C223 C222 1.387 . S
C223 C224 1.372 1_455 S
C224 H202 0.950 . S
C224 C223 1.372 1_655 S
C224 C225 1.379 . S
C225 H203 0.948 . S
C225 C220 1.364 1_655 S
C225 C224 1.379 . S
C226 C195 1.383 . S
C226 C213 1.479 . S
C226 C227 1.398 . S
C227 C192 1.382 . S
C227 H204 0.951 . S
C227 C226 1.398 . S
C228 C229 1.384 . S
C228 H241 0.947 . S
C228 C263 1.382 . S
C229 C228 1.384 . S
C229 C230 1.378 . S
C230 C229 1.378 . S
C230 C231 1.378 . S
C230 H242 0.952 . S
C231 C230 1.378 . S
C231 H243 0.950 . S
C231 C262 1.383 . S
H232 C251 0.947 . S
H233 C252 0.946 . S
H234 C254 0.953 . S
H235 C255 0.945 . S
H236 C257 0.952 . S
H237 C258 0.949 . S
H238 C260 0.950 . S
H239 C261 0.948 . S
H240 C263 0.951 . S
H241 C228 0.947 . S
H242 C230 0.952 . S
H243 C231 0.950 . S
N244 C247 1.382 1_455 S
N244 C249 1.363 . S
N245 C247 1.371 . S
N245 C248 1.372 1_655 S
N246 C248 1.361 . S
N246 C249 1.377 . S
C247 N244 1.382 1_655 S
C247 N245 1.371 . S
C247 C250 1.480 . S
C248 N245 1.372 1_455 S
C248 N246 1.361 . S
C248 C256 1.457 . S
C249 N244 1.363 . S
C249 N246 1.377 . S
C249 C262 1.479 . S
C250 C247 1.480 . S
C250 C251 1.383 . S
C250 C255 1.385 . S
C251 H232 0.947 . S
C251 C250 1.383 . S
C251 C252 1.388 . S
C252 H233 0.946 . S
C252 C251 1.388 . S
C252 C253 1.384 . S
C253 C252 1.384 . S
C253 C254 1.377 . S
C254 H234 0.953 . S
C254 C253 1.377 . S
C254 C255 1.369 . S
C255 H235 0.945 . S
C255 C250 1.385 . S
C255 C254 1.369 . S
C256 C248 1.457 . S
C256 C257 1.372 1_455 S
C256 C261 1.364 . S
C257 H236 0.952 . S
C257 C256 1.372 1_655 S
C257 C258 1.389 . S
C258 H237 0.949 . S
C258 C257 1.389 . S
C258 C259 1.387 1_655 S
C259 C258 1.387 1_455 S
C259 C260 1.372 . S
C260 H238 0.950 . S
C260 C259 1.372 . S
C260 C261 1.379 . S
C261 H239 0.948 . S
C261 C256 1.364 . S
C261 C260 1.379 . S
C262 C231 1.383 . S
C262 C249 1.479 . S
C262 C263 1.398 . S
C263 C228 1.382 . S
C263 H240 0.951 . S
C263 C262 1.398 . S
C264 C265 1.384 . S
C264 H277 0.947 . S
C264 C299 1.382 . S
C265 C264 1.384 . S
C265 C266 1.378 . S
C266 C265 1.378 . S
C266 C267 1.378 . S
C266 H278 0.952 . S
C267 C266 1.378 . S
C267 H279 0.950 . S
C267 C298 1.383 . S
H268 C287 0.947 . S
H269 C288 0.946 . S
H270 C290 0.953 . S
H271 C291 0.945 . S
H272 C293 0.952 . S
H273 C294 0.949 . S
H274 C296 0.950 . S
H275 C297 0.948 . S
H276 C299 0.951 . S
H277 C264 0.947 . S
H278 C266 0.952 . S
H279 C267 0.950 . S
N280 C283 1.382 1_545 S
N280 C285 1.363 . S
N281 C283 1.371 . S
N281 C284 1.372 1_565 S
N282 C284 1.361 . S
N282 C285 1.377 . S
C283 N280 1.382 1_565 S
C283 N281 1.371 . S
C283 C286 1.480 . S
C284 N281 1.372 1_545 S
C284 N282 1.361 . S
C284 C292 1.457 . S
C285 N280 1.363 . S
C285 N282 1.377 . S
C285 C298 1.479 . S
C286 C283 1.480 . S
C286 C287 1.383 . S
C286 C291 1.385 . S
C287 H268 0.947 . S
C287 C286 1.383 . S
C287 C288 1.388 . S
C288 H269 0.946 . S
C288 C287 1.388 . S
C288 C289 1.384 . S
C289 C288 1.384 . S
C289 C290 1.377 . S
C290 H270 0.953 . S
C290 C289 1.377 . S
C290 C291 1.369 . S
C291 H271 0.945 . S
C291 C286 1.385 . S
C291 C290 1.369 . S
C292 C284 1.457 . S
C292 C293 1.372 1_545 S
C292 C297 1.364 . S
C293 H272 0.952 . S
C293 C292 1.372 1_565 S
C293 C294 1.389 . S
C294 H273 0.949 . S
C294 C293 1.389 . S
C294 C295 1.387 1_565 S
C295 C294 1.387 1_545 S
C295 C296 1.372 . S
C296 H274 0.950 . S
C296 C295 1.372 . S
C296 C297 1.379 . S
C297 H275 0.948 . S
C297 C292 1.364 . S
C297 C296 1.379 . S
C298 C267 1.383 . S
C298 C285 1.479 . S
C298 C299 1.398 . S
C299 C264 1.382 . S
C299 H276 0.951 . S
C299 C298 1.398 . S
C300 C301 1.384 . S
C300 H313 0.947 . S
C300 C335 1.382 . S
C301 C300 1.384 . S
C301 C302 1.378 . S
C302 C301 1.378 . S
C302 C303 1.378 . S
C302 H314 0.952 . S
C303 C302 1.378 . S
C303 H315 0.950 . S
C303 C334 1.383 . S
H304 C323 0.947 . S
H305 C324 0.946 . S
H306 C326 0.953 . S
H307 C327 0.945 . S
H308 C329 0.952 . S
H309 C330 0.949 . S
H310 C332 0.950 . S
H311 C333 0.948 . S
H312 C335 0.951 . S
H313 C300 0.947 . S
H314 C302 0.952 . S
H315 C303 0.950 . S
N316 C319 1.382 . S
N316 C321 1.363 . S
N317 C319 1.371 . S
N317 C320 1.372 . S
N318 C320 1.361 . S
N318 C321 1.377 . S
C319 N316 1.382 . S
C319 N317 1.371 . S
C319 C322 1.480 . S
C320 N317 1.372 . S
C320 N318 1.361 . S
C320 C328 1.457 . S
C321 N316 1.363 . S
C321 N318 1.377 . S
C321 C334 1.479 . S
C322 C319 1.480 . S
C322 C323 1.383 . S
C322 C327 1.385 . S
C323 H304 0.947 . S
C323 C322 1.383 . S
C323 C324 1.388 . S
C324 H305 0.946 . S
C324 C323 1.388 . S
C324 C325 1.384 . S
C325 C324 1.384 . S
C325 C326 1.377 . S
C326 H306 0.953 . S
C326 C325 1.377 . S
C326 C327 1.369 . S
C327 H307 0.945 . S
C327 C322 1.385 . S
C327 C326 1.369 . S
C328 C320 1.457 . S
C328 C329 1.372 . S
C328 C333 1.364 . S
C329 H308 0.952 . S
C329 C328 1.372 . S
C329 C330 1.389 1_554 S
C330 H309 0.949 . S
C330 C329 1.389 1_556 S
C330 C331 1.387 . S
C331 C330 1.387 . S
C331 C332 1.372 . S
C332 H310 0.950 . S
C332 C331 1.372 . S
C332 C333 1.379 1_556 S
C333 H311 0.948 . S
C333 C328 1.364 . S
C333 C332 1.379 1_554 S
C334 C303 1.383 . S
C334 C321 1.479 . S
C334 C335 1.398 . S
C335 C300 1.382 . S
C335 H312 0.951 . S
C335 C334 1.398 . S
C336 C337 1.369 . S
C336 C338 1.419 . S
C336 H340 0.930 . S
C337 C336 1.369 . S
C337 C346 1.429 . S
C338 C336 1.419 . S
C338 C339 1.363 . S
C338 H341 0.929 . S
C339 C338 1.363 . S
C339 C345 1.428 . S
H340 C336 0.930 . S
H341 C338 0.929 . S
S342 N343 1.613 . S
S342 N344 1.610 . S
N343 S342 1.613 . S
N343 C346 1.350 . S
N344 S342 1.610 . S
N344 C345 1.351 . S
C345 C339 1.428 . S
C345 N344 1.351 . S
C345 C346 1.434 . S
C346 C337 1.429 . S
C346 N343 1.350 . S
C346 C345 1.434 . S
C347 C348 1.369 . S
C347 C349 1.419 . S
C347 H351 0.930 . S
C348 C347 1.369 . S
C348 C357 1.429 . S
C349 C347 1.419 . S
C349 C350 1.363 . S
C349 H352 0.929 . S
C350 C349 1.363 . S
C350 C356 1.428 . S
H351 C347 0.930 . S
H352 C349 0.929 . S
S353 N354 1.613 . S
S353 N355 1.610 . S
N354 S353 1.613 . S
N354 C357 1.350 . S
N355 S353 1.610 . S
N355 C356 1.351 . S
C356 C350 1.428 . S
C356 N355 1.351 . S
C356 C357 1.434 . S
C357 C348 1.429 . S
C357 N354 1.350 . S
C357 C356 1.434 . S
C358 C359 1.369 . S
C358 C360 1.419 . S
C358 H362 0.930 . S
C359 C358 1.369 . S
C359 C368 1.429 . S
C360 C358 1.419 . S
C360 C361 1.363 . S
C360 H363 0.929 . S
C361 C360 1.363 . S
C361 C367 1.428 . S
H362 C358 0.930 . S
H363 C360 0.929 . S
S364 N365 1.613 . S
S364 N366 1.610 . S
N365 S364 1.613 . S
N365 C368 1.350 . S
N366 S364 1.610 . S
N366 C367 1.351 . S
C367 C361 1.428 . S
C367 N366 1.351 . S
C367 C368 1.434 . S
C368 C359 1.429 . S
C368 N365 1.350 . S
C368 C367 1.434 . S
C369 C370 1.369 . S
C369 C371 1.419 . S
C369 H373 0.930 . S
C370 C369 1.369 . S
C370 C379 1.429 . S
C371 C369 1.419 . S
C371 C372 1.363 . S
C371 H374 0.929 . S
C372 C371 1.363 . S
C372 C378 1.428 . S
H373 C369 0.930 . S
H374 C371 0.929 . S
S375 N376 1.613 . S
S375 N377 1.610 . S
N376 S375 1.613 . S
N376 C379 1.350 . S
N377 S375 1.610 . S
N377 C378 1.351 . S
C378 C372 1.428 . S
C378 N377 1.351 . S
C378 C379 1.434 . S
C379 C370 1.429 . S
C379 N376 1.350 . S
C379 C378 1.434 . S
C380 C381 1.369 . S
C380 C382 1.419 . S
C380 H384 0.930 . S
C381 C380 1.369 . S
C381 C390 1.429 . S
C382 C380 1.419 . S
C382 C383 1.363 . S
C382 H385 0.929 . S
C383 C382 1.363 . S
C383 C389 1.428 . S
H384 C380 0.930 . S
H385 C382 0.929 . S
S386 N387 1.613 . S
S386 N388 1.610 . S
N387 S386 1.613 . S
N387 C390 1.350 . S
N388 S386 1.610 . S
N388 C389 1.351 . S
C389 C383 1.428 . S
C389 N388 1.351 . S
C389 C390 1.434 . S
C390 C381 1.429 . S
C390 N387 1.350 . S
C390 C389 1.434 . S
C391 C392 1.369 . S
C391 C393 1.419 . S
C391 H395 0.930 . S
C392 C391 1.369 . S
C392 C401 1.429 . S
C393 C391 1.419 . S
C393 C394 1.363 . S
C393 H396 0.929 . S
C394 C393 1.363 . S
C394 C400 1.428 . S
H395 C391 0.930 . S
H396 C393 0.929 . S
S397 N398 1.613 . S
S397 N399 1.610 . S
N398 S397 1.613 . S
N398 C401 1.350 . S
N399 S397 1.610 . S
N399 C400 1.351 . S
C400 C394 1.428 . S
C400 N399 1.351 . S
C400 C401 1.434 . S
C401 C392 1.429 . S
C401 N398 1.350 . S
C401 C400 1.434 . S
C402 C403 1.369 . S
C402 C404 1.419 . S
C402 H406 0.930 . S
C403 C402 1.369 . S
C403 C412 1.429 . S
C404 C402 1.419 . S
C404 C405 1.363 . S
C404 H407 0.929 . S
C405 C404 1.363 . S
C405 C411 1.428 . S
H406 C402 0.930 . S
H407 C404 0.929 . S
S408 N409 1.613 . S
S408 N410 1.610 . S
N409 S408 1.613 . S
N409 C412 1.350 . S
N410 S408 1.610 . S
N410 C411 1.351 . S
C411 C405 1.428 . S
C411 N410 1.351 . S
C411 C412 1.434 . S
C412 C403 1.429 . S
C412 N409 1.350 . S
C412 C411 1.434 . S
C413 C414 1.369 . S
C413 C415 1.419 . S
C413 H417 0.930 . S
C414 C413 1.369 . S
C414 C423 1.429 . S
C415 C413 1.419 . S
C415 C416 1.363 . S
C415 H418 0.929 . S
C416 C415 1.363 . S
C416 C422 1.428 . S
H417 C413 0.930 . S
H418 C415 0.929 . S
S419 N420 1.613 . S
S419 N421 1.610 . S
N420 S419 1.613 . S
N420 C423 1.350 . S
N421 S419 1.610 . S
N421 C422 1.351 . S
C422 C416 1.428 . S
C422 N421 1.351 . S
C422 C423 1.434 . S
C423 C414 1.429 . S
C423 N420 1.350 . S
C423 C422 1.434 . S
C424 C425 1.369 . S
C424 C426 1.419 . S
C424 H428 0.930 . S
C425 C424 1.369 . S
C425 C434 1.429 . S
C426 C424 1.419 . S
C426 C427 1.363 . S
C426 H429 0.929 . S
C427 C426 1.363 . S
C427 C433 1.428 . S
H428 C424 0.930 . S
H429 C426 0.929 . S
S430 N431 1.613 . S
S430 N432 1.610 . S
N431 S430 1.613 . S
N431 C434 1.350 . S
N432 S430 1.610 . S
N432 C433 1.351 . S
C433 C427 1.428 . S
C433 N432 1.351 . S
C433 C434 1.434 . S
C434 C425 1.429 . S
C434 N431 1.350 . S
C434 C433 1.434 . S
C435 C436 1.369 . S
C435 C437 1.419 . S
C435 H439 0.930 . S
C436 C435 1.369 . S
C436 C445 1.429 . S
C437 C435 1.419 . S
C437 C438 1.363 . S
C437 H440 0.929 . S
C438 C437 1.363 . S
C438 C444 1.428 . S
H439 C435 0.930 . S
H440 C437 0.929 . S
S441 N442 1.613 . S
S441 N443 1.610 . S
N442 S441 1.613 . S
N442 C445 1.350 . S
N443 S441 1.610 . S
N443 C444 1.351 . S
C444 C438 1.428 . S
C444 N443 1.351 . S
C444 C445 1.434 . S
C445 C436 1.429 . S
C445 N442 1.350 . S
C445 C444 1.434 . S
C446 C447 1.369 . S
C446 C448 1.419 . S
C446 H450 0.930 . S
C447 C446 1.369 . S
C447 C456 1.429 . S
C448 C446 1.419 . S
C448 C449 1.363 . S
C448 H451 0.929 . S
C449 C448 1.363 . S
C449 C455 1.428 . S
H450 C446 0.930 . S
H451 C448 0.929 . S
S452 N453 1.613 . S
S452 N454 1.610 . S
N453 S452 1.613 . S
N453 C456 1.350 . S
N454 S452 1.610 . S
N454 C455 1.351 . S
C455 C449 1.428 . S
C455 N454 1.351 . S
C455 C456 1.434 . S
C456 C447 1.429 . S
C456 N453 1.350 . S
C456 C455 1.434 . S
C457 C458 1.369 . S
C457 C459 1.419 . S
C457 H461 0.930 . S
C458 C457 1.369 . S
C458 C467 1.429 . S
C459 C457 1.419 . S
C459 C460 1.363 . S
C459 H462 0.929 . S
C460 C459 1.363 . S
C460 C466 1.428 . S
H461 C457 0.930 . S
H462 C459 0.929 . S
S463 N464 1.613 . S
S463 N465 1.610 . S
N464 S463 1.613 . S
N464 C467 1.350 . S
N465 S463 1.610 . S
N465 C466 1.351 . S
C466 C460 1.428 . S
C466 N465 1.351 . S
C466 C467 1.434 . S
C467 C458 1.429 . S
C467 N464 1.350 . S
C467 C466 1.434 . S
C468 C469 1.369 1_655 S
C468 C470 1.419 . S
C468 H472 0.930 . S
C469 C468 1.369 1_455 S
C469 C478 1.429 . S
C470 C468 1.419 . S
C470 C471 1.363 1_655 S
C470 H473 0.929 . S
C471 C470 1.363 1_455 S
C471 C477 1.428 . S
H472 C468 0.930 . S
H473 C470 0.929 . S
S474 N475 1.613 . S
S474 N476 1.610 . S
N475 S474 1.613 . S
N475 C478 1.350 . S
N476 S474 1.610 . S
N476 C477 1.351 . S
C477 C471 1.428 . S
C477 N476 1.351 . S
C477 C478 1.434 . S
C478 C469 1.429 . S
C478 N475 1.350 . S
C478 C477 1.434 . S
C479 C480 1.369 . S
C479 C481 1.419 . S
C479 H483 0.930 . S
C480 C479 1.369 . S
C480 C489 1.429 . S
C481 C479 1.419 . S
C481 C482 1.363 . S
C481 H484 0.929 . S
C482 C481 1.363 . S
C482 C488 1.428 . S
H483 C479 0.930 . S
H484 C481 0.929 . S
S485 N486 1.613 . S
S485 N487 1.610 . S
N486 S485 1.613 . S
N486 C489 1.350 1_565 S
N487 S485 1.610 . S
N487 C488 1.351 1_565 S
C488 C482 1.428 . S
C488 N487 1.351 1_545 S
C488 C489 1.434 . S
C489 C480 1.429 . S
C489 N486 1.350 1_545 S
C489 C488 1.434 . S
C490 C491 1.369 . S
C490 C492 1.419 . S
C490 H494 0.930 . S
C491 C490 1.369 . S
C491 C500 1.429 . S
C492 C490 1.419 . S
C492 C493 1.363 . S
C492 H495 0.929 . S
C493 C492 1.363 . S
C493 C499 1.428 . S
H494 C490 0.930 . S
H495 C492 0.929 . S
S496 N497 1.613 . S
S496 N498 1.610 . S
N497 S496 1.613 . S
N497 C500 1.350 . S
N498 S496 1.610 . S
N498 C499 1.351 . S
C499 C493 1.428 . S
C499 N498 1.351 . S
C499 C500 1.434 . S
C500 C491 1.429 . S
C500 N497 1.350 . S
C500 C499 1.434 . S
C501 C502 1.369 1_565 S
C501 C503 1.419 . S
C501 H505 0.930 . S
C502 C501 1.369 1_545 S
C502 C511 1.429 . S
C503 C501 1.419 . S
C503 C504 1.363 1_565 S
C503 H506 0.929 . S
C504 C503 1.363 1_545 S
C504 C510 1.428 . S
H505 C501 0.930 . S
H506 C503 0.929 . S
S507 N508 1.613 . S
S507 N509 1.610 . S
N508 S507 1.613 . S
N508 C511 1.350 . S
N509 S507 1.610 . S
N509 C510 1.351 . S
C510 C504 1.428 . S
C510 N509 1.351 . S
C510 C511 1.434 . S
C511 C502 1.429 . S
C511 N508 1.350 . S
C511 C510 1.434 . S
C512 C513 1.369 . S
C512 C514 1.419 . S
C512 H516 0.930 . S
C513 C512 1.369 . S
C513 C522 1.429 . S
C514 C512 1.419 . S
C514 C515 1.363 . S
C514 H517 0.929 . S
C515 C514 1.363 . S
C515 C521 1.428 . S
H516 C512 0.930 . S
H517 C514 0.929 . S
S518 N519 1.613 . S
S518 N520 1.610 . S
N519 S518 1.613 . S
N519 C522 1.350 . S
N520 S518 1.610 . S
N520 C521 1.351 . S
C521 C515 1.428 . S
C521 N520 1.351 . S
C521 C522 1.434 . S
C522 C513 1.429 . S
C522 N519 1.350 . S
C522 C521 1.434 . S
C523 C524 1.369 . S
C523 C525 1.419 . S
C523 H527 0.930 . S
C524 C523 1.369 . S
C524 C533 1.429 . S
C525 C523 1.419 . S
C525 C526 1.363 . S
C525 H528 0.929 . S
C526 C525 1.363 . S
C526 C532 1.428 1_455 S
H527 C523 0.930 . S
H528 C525 0.929 . S
S529 N530 1.613 . S
S529 N531 1.610 . S
N530 S529 1.613 . S
N530 C533 1.350 1_655 S
N531 S529 1.610 . S
N531 C532 1.351 . S
C532 C526 1.428 1_655 S
C532 N531 1.351 . S
C532 C533 1.433 1_655 S
C533 C524 1.429 . S
C533 N530 1.350 1_455 S
C533 C532 1.433 1_455 S
C337 C9 0.721 . S
C339 C325 0.724 . S
C348 C49 0.526 . S
C350 C253 0.467 . S
C359 C89 0.519 . S
C361 C289 0.519 . S
C370 C26 0.639 . S
C372 C301 0.600 . S
C383 C229 0.712 . S
C381 C66 0.713 . S
C394 C265 0.776 . S
C392 C106 0.758 . S
C403 C43 3.053 . S
C405 C181 2.960 . S
C414 C83 3.176 . S
C416 C193 3.106 . S
C425 C22 3.226 . S
C427 C121 3.154 . S
C438 C157 3.154 . S
C436 C62 3.226 . S
C449 C217 3.002 . S
C447 C102 3.101 . S
C458 C3 3.053 . S
C460 C145 2.965 . S
C471 C223 1.806 1_554 S
C469 C15 1.747 . S
C480 C55 1.761 . S
C482 C151 1.806 . S
C491 C95 1.755 . S
C493 C187 1.802 . S
C504 C295 1.038 . S
C502 C42 1.059 . S
C515 C331 1.064 . S
C513 C82 1.064 . S
C524 C2 1.042 . S
C526 C259 1.030 . S
