# Generated by pormake.
# Topology pyr, (3,6)-cn, num edge types: 1
# Building blocks:
#     Node 0, Type 0, BuildingBlock: MIDCAF_clean_linker_0, # of connection points: 3
#     Node 1, Type 0, BuildingBlock: MIDCAF_clean_linker_0, # of connection points: 3
#     Node 2, Type 0, BuildingBlock: MIDCAF_clean_linker_0, # of connection points: 3
#     Node 3, Type 0, BuildingBlock: MIDCAF_clean_linker_0, # of connection points: 3
#     Node 4, Type 0, BuildingBlock: MIDCAF_clean_linker_0, # of connection points: 3
#     Node 5, Type 0, BuildingBlock: MIDCAF_clean_linker_0, # of connection points: 3
#     Node 6, Type 0, BuildingBlock: MIDCAF_clean_linker_0, # of connection points: 3
#     Node 7, Type 0, BuildingBlock: MIDCAF_clean_linker_0, # of connection points: 3
#     Node 8, Type 1, BuildingBlock: BETDIP_clean_sbu_0, # of connection points: 6
#     Node 9, Type 1, BuildingBlock: BETDIP_clean_sbu_0, # of connection points: 6
#     Node 10, Type 1, BuildingBlock: BETDIP_clean_sbu_0, # of connection points: 6
#     Node 11, Type 1, BuildingBlock: BETDIP_clean_sbu_0, # of connection points: 6
#     Edge 12, Type (0, 1), BuildingBlock: AJUNOK_clean_linker_0, # of connection points: 2
#     Edge 13, Type (0, 1), BuildingBlock: AJUNOK_clean_linker_0, # of connection points: 2
#     Edge 14, Type (0, 1), BuildingBlock: AJUNOK_clean_linker_0, # of connection points: 2
#     Edge 15, Type (0, 1), BuildingBlock: AJUNOK_clean_linker_0, # of connection points: 2
#     Edge 16, Type (0, 1), BuildingBlock: AJUNOK_clean_linker_0, # of connection points: 2
#     Edge 17, Type (0, 1), BuildingBlock: AJUNOK_clean_linker_0, # of connection points: 2
#     Edge 18, Type (0, 1), BuildingBlock: AJUNOK_clean_linker_0, # of connection points: 2
#     Edge 19, Type (0, 1), BuildingBlock: AJUNOK_clean_linker_0, # of connection points: 2
#     Edge 20, Type (0, 1), BuildingBlock: AJUNOK_clean_linker_0, # of connection points: 2
#     Edge 21, Type (0, 1), BuildingBlock: AJUNOK_clean_linker_0, # of connection points: 2
#     Edge 22, Type (0, 1), BuildingBlock: AJUNOK_clean_linker_0, # of connection points: 2
#     Edge 23, Type (0, 1), BuildingBlock: AJUNOK_clean_linker_0, # of connection points: 2
#     Edge 24, Type (0, 1), BuildingBlock: AJUNOK_clean_linker_0, # of connection points: 2
#     Edge 25, Type (0, 1), BuildingBlock: AJUNOK_clean_linker_0, # of connection points: 2
#     Edge 26, Type (0, 1), BuildingBlock: AJUNOK_clean_linker_0, # of connection points: 2
#     Edge 27, Type (0, 1), BuildingBlock: AJUNOK_clean_linker_0, # of connection points: 2
#     Edge 28, Type (0, 1), BuildingBlock: AJUNOK_clean_linker_0, # of connection points: 2
#     Edge 29, Type (0, 1), BuildingBlock: AJUNOK_clean_linker_0, # of connection points: 2
#     Edge 30, Type (0, 1), BuildingBlock: AJUNOK_clean_linker_0, # of connection points: 2
#     Edge 31, Type (0, 1), BuildingBlock: AJUNOK_clean_linker_0, # of connection points: 2
#     Edge 32, Type (0, 1), BuildingBlock: AJUNOK_clean_linker_0, # of connection points: 2
#     Edge 33, Type (0, 1), BuildingBlock: AJUNOK_clean_linker_0, # of connection points: 2
#     Edge 34, Type (0, 1), BuildingBlock: AJUNOK_clean_linker_0, # of connection points: 2
#     Edge 35, Type (0, 1), BuildingBlock: AJUNOK_clean_linker_0, # of connection points: 2
# Relax obj value: 0.154
# Max RMSD: 0.204
# Mean RMSD: 0.092
data_MOF--net-pyr--node1-BETDIP_clean_sbu_0--node2-MIDCAF_clean_linker_0--edge1-AJUNOK_clean_linker_0
_symmetry_space_group_name_H-M    P1
_symmetry_Int_Tables_number       1
_symmetry_cell_setting            triclinic
loop_
_symmetry_equiv_pos_as_xyz
'x, y, z'
_cell_length_a     33.913842
_cell_length_b     37.320379
_cell_length_c     36.17504
_cell_angle_alpha  88.690436
_cell_angle_beta   93.383297
_cell_angle_gamma 103.85416
loop_
_atom_site_label
_atom_site_type_symbol
_atom_site_fract_x
_atom_site_fract_y
_atom_site_fract_z
_atom_type_partial_charge
C0 C 0.33185 0.29676 0.38761 0.0
C1 C 0.3393 0.26453 0.4042 0.0
C2 C 0.37049 0.2499 0.39164 0.0
C3 C 0.39151 0.26532 0.36087 0.0
H4 H 0.45693 0.23492 0.28499 0.0
H5 H 0.48305 0.18819 0.25515 0.0
H6 H 0.46974 0.24026 0.149 0.0
H7 H 0.4435 0.28733 0.17855 0.0
H8 H 0.36512 0.32691 0.17144 0.0
H9 H 0.31564 0.35457 0.13655 0.0
H10 H 0.30235 0.41486 0.23361 0.0
H11 H 0.35169 0.38771 0.26835 0.0
H12 H 0.34433 0.33554 0.34292 0.0
H13 H 0.30774 0.30837 0.39676 0.0
H14 H 0.37683 0.22511 0.40424 0.0
H15 H 0.41366 0.25193 0.35061 0.0
N16 N 0.41865 0.28565 0.2881 0.0
N17 N 0.40862 0.31308 0.23044 0.0
N18 N 0.3787 0.32876 0.28265 0.0
C19 C 0.42588 0.28961 0.25152 0.0
C20 C 0.38537 0.33309 0.24599 0.0
C21 C 0.39522 0.30516 0.30396 0.0
C22 C 0.44743 0.26469 0.23412 0.0
C23 C 0.46 0.23688 0.25534 0.0
C24 C 0.47488 0.20999 0.23833 0.0
C25 C 0.47776 0.21042 0.19982 0.0
C26 C 0.46771 0.23939 0.1788 0.0
C27 C 0.45257 0.26623 0.19575 0.0
C28 C 0.36211 0.35492 0.22277 0.0
C29 C 0.35253 0.34688 0.18502 0.0
C30 C 0.32409 0.36252 0.16507 0.0
C31 C 0.30533 0.3869 0.18236 0.0
C32 C 0.31682 0.39663 0.21939 0.0
C33 C 0.34487 0.38082 0.23937 0.0
C34 C 0.38128 0.29538 0.34178 0.0
C35 C 0.3527 0.31212 0.35663 0.0
C36 C 0.06931 0.85641 0.73475 0.0
C37 C 0.07643 0.86508 0.69743 0.0
C38 C 0.09609 0.84346 0.67728 0.0
C39 C 0.11014 0.81471 0.69454 0.0
H40 H 0.18992 0.75253 0.67835 0.0
H41 H 0.24131 0.73046 0.64742 0.0
H42 H 0.25996 0.6652 0.7441 0.0
H43 H 0.20952 0.68819 0.77563 0.0
H44 H 0.22258 0.75019 0.84666 0.0
H45 H 0.2513 0.77764 0.90517 0.0
H46 H 0.14282 0.81637 0.91891 0.0
H47 H 0.11471 0.79038 0.85901 0.0
H48 H 0.07923 0.82277 0.78143 0.0
H49 H 0.05437 0.87286 0.75086 0.0
H50 H 0.10165 0.84956 0.64835 0.0
H51 H 0.12649 0.79952 0.67841 0.0
N52 N 0.14637 0.76095 0.7328 0.0
N53 N 0.17464 0.74166 0.78819 0.0
N54 N 0.13121 0.78179 0.7897 0.0
C55 C 0.17012 0.74067 0.75066 0.0
C56 C 0.15519 0.76199 0.80795 0.0
C57 C 0.12643 0.78129 0.75215 0.0
C58 C 0.19584 0.72239 0.72961 0.0
C59 C 0.20432 0.73288 0.69279 0.0
C60 C 0.23368 0.72008 0.67494 0.0
C61 C 0.25469 0.69608 0.69333 0.0
C62 C 0.24457 0.68401 0.72939 0.0
C63 C 0.21557 0.69709 0.74738 0.0
C64 C 0.16671 0.76883 0.84773 0.0
C65 C 0.20417 0.76351 0.86258 0.0
C66 C 0.22059 0.77903 0.89649 0.0
C67 C 0.19949 0.79947 0.91667 0.0
C68 C 0.16006 0.80124 0.90371 0.0
C69 C 0.14393 0.78629 0.86944 0.0
C70 C 0.1053 0.80729 0.73252 0.0
C71 C 0.08371 0.82782 0.7522 0.0
C72 C 0.62113 0.24873 0.94102 0.0
C73 C 0.57943 0.23249 0.93484 0.0
C74 C 0.55631 0.25167 0.91155 0.0
C75 C 0.57443 0.28599 0.89505 0.0
H76 H 0.56475 0.37735 0.80855 0.0
H77 H 0.54204 0.41071 0.75541 0.0
H78 H 0.66381 0.47898 0.74957 0.0
H79 H 0.68573 0.4471 0.8033 0.0
H80 H 0.74076 0.46287 0.88268 0.0
H81 H 0.80195 0.49439 0.91911 0.0
H82 H 0.78927 0.39992 0.99232 0.0
H83 H 0.72812 0.36882 0.95677 0.0
H84 H 0.67117 0.29441 0.93124 0.0
H85 H 0.63992 0.2354 0.95919 0.0
H86 H 0.52406 0.24012 0.90614 0.0
H87 H 0.5556 0.30001 0.87772 0.0
N88 N 0.62125 0.35666 0.8572 0.0
N89 N 0.67651 0.40881 0.86424 0.0
N90 N 0.67092 0.35927 0.90597 0.0
C91 C 0.64165 0.39095 0.84502 0.0
C92 C 0.69126 0.39334 0.89488 0.0
C93 C 0.63616 0.34048 0.88774 0.0
C94 C 0.62717 0.40935 0.8108 0.0
C95 C 0.58674 0.39933 0.7958 0.0
C96 C 0.57377 0.41842 0.76485 0.0
C97 C 0.60097 0.44779 0.74737 0.0
C98 C 0.64151 0.45709 0.76211 0.0
C99 C 0.65424 0.4385 0.79316 0.0
C100 C 0.72915 0.41308 0.91648 0.0
C101 C 0.751 0.44875 0.90651 0.0
C102 C 0.78634 0.46679 0.92731 0.0
C103 C 0.80091 0.44966 0.95863 0.0
C104 C 0.77894 0.41416 0.96862 0.0
C105 C 0.74378 0.39618 0.94794 0.0
C106 C 0.61608 0.30251 0.902 0.0
C107 C 0.63902 0.28301 0.92506 0.0
C108 C 0.76488 0.6763 0.45844 0.0
C109 C 0.74094 0.64152 0.44771 0.0
C110 C 0.75209 0.62498 0.41645 0.0
C111 C 0.78619 0.64275 0.39673 0.0
H112 H 0.86626 0.62962 0.31514 0.0
H113 H 0.88775 0.59974 0.26337 0.0
H114 H 0.97508 0.70046 0.23819 0.0
H115 H 0.95336 0.73087 0.29035 0.0
H116 H 0.97983 0.79268 0.37857 0.0
H117 H 1.0113 0.85118 0.41016 0.0
H118 H 0.89479 0.85538 0.44911 0.0
H119 H 0.86356 0.79773 0.41772 0.0
H120 H 0.81597 0.72074 0.44845 0.0
H121 H 0.75768 0.68989 0.48242 0.0
H122 H 0.73403 0.59855 0.40677 0.0
H123 H 0.79361 0.62923 0.37281 0.0
N124 N 0.86031 0.68236 0.35807 0.0
N125 N 0.91333 0.73607 0.35192 0.0
N126 N 0.86606 0.73226 0.39772 0.0
C127 C 0.89371 0.70113 0.34007 0.0
C128 C 0.89931 0.75187 0.38088 0.0
C129 C 0.84632 0.69771 0.38702 0.0
C130 C 0.908 0.683 0.30772 0.0
C131 C 0.89018 0.64571 0.29886 0.0
C132 C 0.90277 0.62827 0.26901 0.0
C133 C 0.93372 0.64724 0.24642 0.0
C134 C 0.95121 0.68471 0.25474 0.0
C135 C 0.93881 0.70219 0.28495 0.0
C136 C 0.91907 0.78991 0.3956 0.0
C137 C 0.96084 0.80633 0.3934 0.0
C138 C 0.97894 0.83979 0.41191 0.0
C139 C 0.95578 0.85805 0.43286 0.0
C140 C 0.91378 0.84244 0.43345 0.0
C141 C 0.89587 0.80902 0.41542 0.0
C142 C 0.81001 0.67767 0.40756 0.0
C143 C 0.79867 0.69401 0.43882 0.0
C144 C 0.55234 0.86583 0.89598 0.0
C145 C 0.55008 0.8665 0.93451 0.0
C146 C 0.56407 0.84008 0.9565 0.0
C147 C 0.5822 0.81475 0.94034 0.0
H148 H 0.67251 0.75435 0.96548 0.0
H149 H 0.72155 0.72523 0.99935 0.0
H150 H 0.73431 0.6676 0.9003 0.0
H151 H 0.68551 0.69623 0.8667 0.0
H152 H 0.70921 0.76182 0.79982 0.0
H153 H 0.74982 0.79438 0.75052 0.0
H154 H 0.67359 0.8719 0.74053 0.0
H155 H 0.633 0.83987 0.79004 0.0
H156 H 0.5727 0.84174 0.85007 0.0
H157 H 0.54153 0.88581 0.87845 0.0
H158 H 0.56308 0.84033 0.98637 0.0
H159 H 0.59444 0.79589 0.95819 0.0
N160 N 0.62789 0.76877 0.90568 0.0
N161 N 0.66499 0.75962 0.85542 0.0
N162 N 0.62357 0.80142 0.84996 0.0
C163 C 0.65395 0.75128 0.89063 0.0
C164 C 0.65008 0.7847 0.83488 0.0
C165 C 0.61195 0.79347 0.88511 0.0
C166 C 0.67543 0.72774 0.91338 0.0
C167 C 0.68475 0.73448 0.95135 0.0
C168 C 0.71295 0.71803 0.97067 0.0
C169 C 0.7316 0.69413 0.95246 0.0
C170 C 0.71994 0.6854 0.91524 0.0
C171 C 0.6922 0.70205 0.89592 0.0
C172 C 0.66836 0.79872 0.79959 0.0
C173 C 0.70046 0.78534 0.78669 0.0
C174 C 0.72375 0.8039 0.75841 0.0
C175 C 0.71535 0.83609 0.74256 0.0
C176 C 0.68117 0.84758 0.75305 0.0
C177 C 0.65784 0.82906 0.78127 0.0
C178 C 0.58673 0.81554 0.9019 0.0
C179 C 0.57027 0.84054 0.87982 0.0
C180 C 0.87565 0.24798 0.24115 0.0
C181 C 0.83899 0.25259 0.22397 0.0
C182 C 0.82169 0.28041 0.23644 0.0
C183 C 0.83842 0.30063 0.26795 0.0
H184 H 0.81848 0.3762 0.34677 0.0
H185 H 0.76189 0.39562 0.37227 0.0
H186 H 0.78366 0.34316 0.47643 0.0
H187 H 0.84053 0.32373 0.45121 0.0
H188 H 0.90751 0.27748 0.45745 0.0
H189 H 0.93665 0.23064 0.48945 0.0
H190 H 1.0068 0.22418 0.39531 0.0
H191 H 0.97765 0.27084 0.36288 0.0
H192 H 0.91927 0.26219 0.28668 0.0
H193 H 0.89011 0.2273 0.23141 0.0
H194 H 0.79352 0.28467 0.22348 0.0
H195 H 0.82267 0.32007 0.27828 0.0
N196 N 0.85994 0.32574 0.34241 0.0
N197 N 0.89062 0.31693 0.40065 0.0
N198 N 0.91064 0.29284 0.34745 0.0
C199 C 0.8636 0.33144 0.37952 0.0
C200 C 0.91482 0.29813 0.3846 0.0
C201 C 0.88328 0.30644 0.3261 0.0
C202 C 0.83383 0.34814 0.39685 0.0
C203 C 0.81165 0.36924 0.3753 0.0
C204 C 0.77932 0.38044 0.38984 0.0
C205 C 0.76819 0.37036 0.42604 0.0
C206 C 0.79143 0.3508 0.44823 0.0
C207 C 0.82414 0.33998 0.43386 0.0
C208 C 0.93975 0.27744 0.40737 0.0
C209 C 0.93006 0.267 0.44394 0.0
C210 C 0.94658 0.24012 0.46223 0.0
C211 C 0.97344 0.22371 0.44448 0.0
C212 C 0.98608 0.23652 0.40941 0.0
C213 C 0.96924 0.26309 0.3909 0.0
C214 C 0.87269 0.29326 0.28762 0.0
C215 C 0.89241 0.26816 0.27269 0.0
C216 C 0.25789 0.62344 0.19604 0.0
C217 C 0.24165 0.64095 0.16589 0.0
C218 C 0.26155 0.67749 0.1572 0.0
C219 C 0.29641 0.69604 0.17792 0.0
H220 H 0.36603 0.80273 0.20516 0.0
H221 H 0.39465 0.86259 0.17742 0.0
H222 H 0.51559 0.84793 0.2044 0.0
H223 H 0.4865 0.78879 0.23447 0.0
H224 H 0.47785 0.71814 0.31551 0.0
H225 H 0.50197 0.68614 0.36931 0.0
H226 H 0.38354 0.61172 0.37285 0.0
H227 H 0.35957 0.6431 0.31941 0.0
H228 H 0.30456 0.62761 0.23973 0.0
H229 H 0.24391 0.5951 0.2032 0.0
H230 H 0.24987 0.69204 0.13445 0.0
H231 H 0.31048 0.72417 0.17008 0.0
N232 N 0.36994 0.73343 0.21865 0.0
N233 N 0.42068 0.73632 0.26655 0.0
N234 N 0.36625 0.68348 0.25972 0.0
C235 C 0.40479 0.75248 0.23653 0.0
C236 C 0.40114 0.70172 0.27867 0.0
C237 C 0.35056 0.69895 0.22955 0.0
C238 C 0.42383 0.79073 0.22254 0.0
C239 C 0.39883 0.81247 0.20577 0.0
C240 C 0.41537 0.84695 0.18942 0.0
C241 C 0.45775 0.86103 0.18847 0.0
C242 C 0.48287 0.83921 0.20536 0.0
C243 C 0.46619 0.8049 0.22254 0.0
C244 C 0.41659 0.68349 0.3126 0.0
C245 C 0.45681 0.69513 0.32785 0.0
C246 C 0.47072 0.67664 0.35877 0.0
C247 C 0.44468 0.64642 0.37603 0.0
C248 C 0.40442 0.63518 0.36104 0.0
C249 C 0.39075 0.65317 0.32992 0.0
C250 C 0.31277 0.67872 0.20814 0.0
C251 C 0.29291 0.64208 0.21691 0.0
C252 C 0.13555 0.24346 0.69811 0.0
C253 C 0.0933 0.22924 0.69223 0.0
C254 C 0.06755 0.24932 0.70724 0.0
C255 C 0.0836 0.28325 0.7257 0.0
H256 H 0.1208 0.35776 0.84919 0.0
H257 H 0.10197 0.38845 0.90221 0.0
H258 H 0.12051 0.49029 0.83918 0.0
H259 H 0.14305 0.46032 0.78816 0.0
H260 H 0.25386 0.4565 0.75269 0.0
H261 H 0.31423 0.48553 0.71867 0.0
H262 H 0.27669 0.40335 0.63357 0.0
H263 H 0.21781 0.37403 0.66753 0.0
H264 H 0.18417 0.28766 0.71848 0.0
H265 H 0.1567 0.2285 0.68871 0.0
H266 H 0.03485 0.2395 0.70359 0.0
H267 H 0.06289 0.29853 0.73541 0.0
N268 N 0.13022 0.35279 0.77163 0.0
N269 N 0.18095 0.40785 0.76326 0.0
N270 N 0.17661 0.35705 0.725 0.0
C271 C 0.14857 0.38842 0.78218 0.0
C272 C 0.19519 0.39226 0.73458 0.0
C273 C 0.14431 0.33698 0.74278 0.0
C274 C 0.13395 0.40643 0.81418 0.0
C275 C 0.12113 0.38681 0.84682 0.0
C276 C 0.1101 0.40465 0.87742 0.0
C277 C 0.11037 0.44272 0.87638 0.0
C278 C 0.12169 0.46175 0.84287 0.0
C279 C 0.13404 0.44422 0.81288 0.0
C280 C 0.2309 0.41245 0.71338 0.0
C281 C 0.25849 0.44466 0.72672 0.0
C282 C 0.29315 0.46135 0.70714 0.0
C283 C 0.30117 0.44633 0.67368 0.0
C284 C 0.27266 0.41506 0.6598 0.0
C285 C 0.23844 0.39833 0.67933 0.0
C286 C 0.12589 0.29825 0.72944 0.0
C287 C 0.15144 0.27739 0.71586 0.0
Tb288 Tb 0.9836 1.03242 0.57043 0.0
Tb289 Tb 0.07011 0.05153 0.55805 0.0
C290 C 0.9098 0.99996 0.57504 0.0
C291 C 0.88416 0.97388 0.5997 0.0
C292 C 0.84724 0.95191 0.5853 0.0
C293 C 0.82116 0.92826 0.60853 0.0
C294 C 0.83162 0.92643 0.64653 0.0
C295 C 0.8693 0.94761 0.66069 0.0
C296 C 0.89541 0.97125 0.63741 0.0
C297 C 0.02373 0.09371 0.60543 0.0
C298 C 0.04246 0.99267 0.61883 0.0
C299 C 0.14349 0.08142 0.54818 0.0
C300 C 0.16752 0.11599 0.53269 0.0
C301 C 0.20602 0.13203 0.54915 0.0
C302 C 0.23215 0.1613 0.53157 0.0
C303 C 0.22007 0.17458 0.49722 0.0
C304 C 0.18058 0.16011 0.48196 0.0
C305 C 0.15431 0.13119 0.49972 0.0
C306 C 0.02919 0.98985 0.52424 0.0
C307 C 1.01154 0.09297 0.51301 0.0
O308 O 0.93539 0.98694 0.55687 0.0
O309 O 0.92608 1.03278 0.58825 0.0
O310 O 0.03632 0.06465 0.6017 0.0
O311 O 0.98634 0.08734 0.59256 0.0
O312 O 1.00475 0.99283 0.60749 0.0
O313 O 0.07379 1.01698 0.6062 0.0
O314 O 0.12631 0.08369 0.57916 0.0
O315 O 0.11959 0.05902 0.52462 0.0
O316 O 0.01751 1.01961 0.52642 0.0
O317 O 0.06517 0.99504 0.54021 0.0
O318 O 0.04839 0.09563 0.52837 0.0
O319 O 0.98185 0.06436 0.52027 0.0
H320 H 0.83825 0.95357 0.55618 0.0
H321 H 0.79227 0.91222 0.59702 0.0
H322 H 0.87834 0.94612 0.6898 0.0
H323 H 0.92402 0.98783 0.6489 0.0
H324 H 0.21663 0.12072 0.57465 0.0
H325 H 0.26265 0.17191 0.54357 0.0
H326 H 0.1708 0.17005 0.45542 0.0
H327 H 0.12453 0.11954 0.48671 0.0
Tb328 Tb 0.55929 0.0556 0.06193 0.0
Tb329 Tb 0.46496 1.0354 1.05143 0.0
C330 C 0.63201 0.08919 1.05498 0.0
C331 C 0.66655 0.10802 0.07906 0.0
C332 C 0.70123 0.12945 0.06318 0.0
C333 C 0.7328 0.15068 0.08557 0.0
C334 C 0.73005 0.15059 0.12416 0.0
C335 C 0.69546 0.1285 0.14001 0.0
C336 C 0.66389 0.10735 0.11759 0.0
C337 C 0.52613 1.00083 0.10882 0.0
C338 C 0.50639 0.09204 0.11249 0.0
C339 C 0.39001 1.00689 1.04529 0.0
C340 C 0.36174 0.9712 1.03743 0.0
C341 C 0.37464 0.94246 1.02127 0.0
C342 C 0.34614 0.91068 1.00928 0.0
C343 C 0.30441 0.90736 1.01326 0.0
C344 C 0.29195 0.93539 1.03127 0.0
C345 C 0.32045 0.96705 1.04332 0.0
C346 C 0.5041 0.09641 1.01662 0.0
C347 C 0.51723 0.99063 1.01002 0.0
O348 O 0.6015 0.10518 1.05234 0.0
O349 O 0.62017 0.05324 1.05885 0.0
O350 O 0.50954 1.01851 0.08518 0.0
O351 O 0.56483 1.01585 0.10798 0.0
O352 O 0.54197 0.0948 0.09795 0.0
O353 O 0.4732 0.06695 0.10195 0.0
O354 O 0.41136 1.00971 0.07698 0.0
O355 O 0.4115 1.02244 1.01769 0.0
O356 O 0.51511 0.06639 1.0209 0.0
O357 O 0.46894 0.09189 1.03055 0.0
O358 O 0.4822 0.98994 1.02467 0.0
O359 O 0.54975 1.01801 1.01572 0.0
H360 H 0.70343 0.13048 1.03339 0.0
H361 H 0.75909 0.16758 0.07276 0.0
H362 H 0.6922 0.12861 0.16961 0.0
H363 H 0.63694 0.09132 0.13016 0.0
H364 H 0.4064 0.94536 1.01635 0.0
H365 H 0.3565 0.88979 0.99489 0.0
H366 H 0.25996 0.93346 1.03461 0.0
H367 H 0.31004 0.98901 1.0558 0.0
Tb368 Tb 0.51975 0.58189 0.57551 0.0
Tb369 Tb 0.52172 0.50619 0.54207 0.0
C370 C 0.50088 0.64218 0.58321 0.0
C371 C 0.46624 0.65117 0.60036 0.0
C372 C 0.44627 0.67624 0.58271 0.0
C373 C 0.41131 0.68279 0.5971 0.0
C374 C 0.39587 0.66435 0.62937 0.0
C375 C 0.41608 0.63948 0.64717 0.0
C376 C 0.4508 0.63272 0.63264 0.0
C377 C 0.55139 0.53995 0.62535 0.0
C378 C 0.44757 0.51245 0.59183 0.0
C379 C 0.53027 0.44238 0.53173 0.0
C380 C 0.55869 0.42709 0.51138 0.0
C381 C 0.57587 0.40009 0.52884 0.0
C382 C 0.60789 0.38925 0.51339 0.0
C383 C 0.623 0.40477 0.47975 0.0
C384 C 0.60499 0.43124 0.46179 0.0
C385 C 0.57327 0.4425 0.4776 0.0
C386 C 0.50062 0.55504 0.49479 0.0
C387 C 0.59593 0.57443 0.53069 0.0
O388 O 0.49134 0.62226 0.55332 0.0
O389 O 0.52736 0.6308 0.60545 0.0
O390 O 0.53892 0.53387 0.59204 0.0
O391 O 0.54798 0.57322 0.63133 0.0
O392 O 0.46216 0.54869 0.59458 0.0
O393 O 0.46566 0.49129 0.57284 0.0
O394 O 0.5478 0.46313 0.55958 0.0
O395 O 0.50345 0.45651 0.51248 0.0
O396 O 0.49146 0.5496 0.52835 0.0
O397 O 0.52004 0.53058 0.48628 0.0
O398 O 0.58361 0.53797 0.53339 0.0
O399 O 0.57414 0.59667 0.54272 0.0
H400 H 0.45744 0.69035 0.55752 0.0
H401 H 0.39644 0.70239 0.58314 0.0
H402 H 0.40456 0.62481 0.67197 0.0
H403 H 0.4652 0.61267 0.64635 0.0
H404 H 0.56573 0.38857 0.55539 0.0
H405 H 0.62186 0.36979 0.52865 0.0
H406 H 0.61594 0.44376 0.43588 0.0
H407 H 0.56108 0.46402 0.46404 0.0
Tb408 Tb 0.0216 0.57629 1.03878 0.0
Tb409 Tb 0.02196 0.51092 0.08539 0.0
C410 C 0.99681 0.62534 1.00208 0.0
C411 C 0.95886 0.6376 1.00261 0.0
C412 C 0.926 0.61671 1.02164 0.0
C413 C 0.88849 0.62612 1.01913 0.0
C414 C 0.88316 0.65637 0.99729 0.0
C415 C 0.91657 0.67804 0.97941 0.0
C416 C 0.95416 0.66865 0.982 0.0
C417 C 0.09317 0.57887 0.07409 0.0
C418 C 0.98808 0.57219 0.12139 0.0
C419 C 0.04474 0.46084 0.1223 0.0
C420 C 0.08188 0.44718 0.12276 0.0
C421 C 0.11561 0.46669 0.10395 0.0
C422 C 0.15255 0.45629 0.10797 0.0
C423 C 0.15639 0.42644 0.13112 0.0
C424 C 0.12204 0.40605 0.14866 0.0
C425 C 0.08505 0.41643 0.14456 0.0
C426 C 0.95049 0.50909 1.05 0.0
C427 C 0.05706 0.5157 1.00344 0.0
O428 O 0.99216 0.59154 0.99073 0.0
O429 O 0.02139 0.63236 1.03165 0.0
O430 O 0.05837 0.56617 0.08619 0.0
O431 O 0.08826 0.59313 1.04156 0.0
O432 O 0.98829 0.58667 0.08741 0.0
O433 O 1.00246 0.54258 0.12793 0.0
O434 O 0.05042 0.49476 0.13355 0.0
O435 O 0.02075 0.45452 0.09233 0.0
O436 O 0.98539 0.52108 1.038 0.0
O437 O 0.9551 0.49527 0.08279 0.0
O438 O 0.05508 0.50023 1.03697 0.0
O439 O 0.0439 0.54595 0.99667 0.0
H440 H 0.92899 0.59246 1.03752 0.0
H441 H 0.86344 0.60931 1.03365 0.0
H442 H 0.91319 0.7014 0.96225 0.0
H443 H 0.97917 0.68494 0.96704 0.0
H444 H 0.11377 0.4907 0.08716 0.0
H445 H 0.17836 0.4721 0.09369 0.0
H446 H 0.12424 0.38302 0.16679 0.0
H447 H 0.05935 0.40123 0.15941 0.0
C448 C 0.28954 0.20652 0.41932 0.0
C449 C 0.31015 0.24252 0.42963 0.0
C450 C 0.26005 0.18516 0.44126 0.0
C451 C 0.25042 0.19886 0.47453 0.0
H452 H 0.2958 0.19498 0.3937 0.0
H453 H 0.2449 0.15752 0.43232 0.0
S454 S 0.29579 0.29118 0.51411 0.0
N455 N 0.31888 0.29111 0.47512 0.0
N456 N 0.26372 0.2503 0.5171 0.0
C457 C 0.27096 0.23463 0.48546 0.0
C458 C 0.30068 0.25671 0.46273 0.0
C459 C 0.21915 0.86159 0.94568 0.0
C460 C 0.22137 0.82438 0.94664 0.0
C461 C 0.24475 0.88772 0.96881 0.0
C462 C 0.27382 0.87782 0.99371 0.0
H463 H 0.19916 0.87119 0.92538 0.0
H464 H 0.24327 0.91632 0.96567 0.0
S465 S 0.2881 0.78339 1.01114 0.0
N466 N 0.25182 0.77824 0.97775 0.0
N467 N 0.30073 0.82786 1.02084 0.0
C468 C 0.27499 0.84049 0.99653 0.0
C469 C 0.24856 0.81367 0.97313 0.0
C470 C 0.60307 0.50864 0.71324 0.0
C471 C 0.58762 0.46996 0.71508 0.0
C472 C 0.59162 0.53036 0.68392 0.0
C473 C 0.56434 0.51479 0.65442 0.0
H474 H 0.6238 0.52265 0.73514 0.0
H475 H 0.60427 0.5599 0.68451 0.0
S476 S 0.51288 0.41544 0.64584 0.0
N477 N 0.54255 0.41725 0.68398 0.0
N478 N 0.52003 0.45831 0.63021 0.0
C479 C 0.5481 0.47634 0.65589 0.0
C480 C 0.55986 0.454 0.68579 0.0
C481 C 0.95219 0.64387 0.17895 0.0
C482 C 0.94762 0.6278 0.21471 0.0
C483 C 0.96427 0.62562 0.14903 0.0
C484 C 0.97305 0.59047 0.15326 0.0
H485 H 0.94589 0.6707 0.17383 0.0
H486 H 0.96716 0.63952 0.12236 0.0
S487 S 0.9677 0.53681 0.24164 0.0
N488 N 0.95416 0.57471 0.25249 0.0
N489 N 0.97673 0.54088 0.19722 0.0
C490 C 0.9689 0.57431 0.18905 0.0
C491 C 0.95628 0.59273 0.21932 0.0
C492 C 0.51915 0.18567 0.15614 0.0
C493 C 0.48793 0.1792 0.1811 0.0
C494 C 0.5265 0.15677 0.13556 0.0
C495 C 0.50234 0.12058 0.13872 0.0
H496 H 0.53746 0.21338 0.152 0.0
H497 H 0.55003 0.16322 0.11577 0.0
S498 S 0.41806 0.08906 0.2016 0.0
N499 N 0.43384 0.13384 0.20905 0.0
N500 N 0.44738 0.07959 0.17018 0.0
C501 C 0.47189 0.11361 0.16447 0.0
C502 C 0.46476 0.14291 0.18572 0.0
C503 C 0.09801 0.92517 0.66447 0.0
C504 C 0.06682 0.8985 0.68012 0.0
C505 C 0.09002 0.95639 0.64639 0.0
C506 C 0.05035 0.96203 0.64281 0.0
H507 H 0.12888 0.92168 0.66593 0.0
H508 H 0.11511 0.97555 0.63406 0.0
S509 S 0.95822 0.9007 0.68065 0.0
N510 N 0.99516 0.88007 0.69245 0.0
N511 N 0.97969 0.93865 0.65804 0.0
C512 C 0.01898 0.93594 0.65933 0.0
C513 C 0.02733 0.90423 0.67812 0.0
C514 C 0.83937 0.46716 1.02015 0.0
C515 C 0.8388 0.46816 0.9811 0.0
C516 C 0.8752 0.48155 1.04204 0.0
C517 C 0.91221 0.49762 1.02597 0.0
H518 H 0.81189 0.45474 1.03402 0.0
H519 H 0.874 0.47941 0.07188 0.0
S520 S 0.9276 0.50748 0.92509 0.0
N521 N 0.87891 0.48698 0.92741 0.0
N522 N 0.94585 0.51417 0.96836 0.0
C523 C 0.91194 0.49972 0.98699 0.0
C524 C 0.87542 0.48501 0.96466 0.0
C525 C 0.67757 0.64436 0.48017 0.0
C526 C 0.70428 0.62342 0.46895 0.0
C527 C 0.64341 0.62855 0.50057 0.0
C528 C 0.63409 0.59091 0.51092 0.0
H529 H 0.68274 0.67331 0.47267 0.0
H530 H 0.62382 0.64607 0.50777 0.0
S531 S 0.69551 0.52414 0.49055 0.0
N532 N 0.71983 0.56314 0.4714 0.0
N533 N 0.65577 0.53333 0.50911 0.0
C534 C 0.66081 0.56967 0.50022 0.0
C535 C 0.69568 0.58585 0.47944 0.0
C536 C 0.23675 0.3719 0.14933 0.0
C537 C 0.27037 0.39872 0.16371 0.0
C538 C 0.20041 0.3813 0.13746 0.0
C539 C 0.19655 0.4179 0.13922 0.0
H540 H 0.23781 0.34312 0.14902 0.0
H541 H 0.17477 0.35961 0.12779 0.0
S542 S 0.27685 0.49884 0.17183 0.0
N543 N 0.29854 0.4637 0.17665 0.0
N544 N 0.23011 0.4814 0.15472 0.0
C545 C 0.23061 0.44526 0.15185 0.0
C546 C 0.26753 0.43565 0.16406 0.0
C547 C 0.5248 0.19374 0.97379 0.0
C548 C 0.56016 0.19672 0.95417 0.0
C549 C 0.50747 0.16145 0.99385 0.0
C550 C 0.52426 0.13023 0.99508 0.0
H551 H 0.51081 0.21693 0.97435 0.0
H552 H 0.48056 0.16107 1.00872 0.0
S553 S 0.61495 0.12226 0.94622 0.0
N554 N 0.6104 0.16455 0.93616 0.0
N555 N 0.57729 0.10392 0.97291 0.0
C556 C 0.55907 0.13244 0.97493 0.0
C557 C 0.57708 0.16555 0.95482 0.0
C558 C 0.95784 0.92308 0.45537 0.0
C559 C 0.97511 0.89205 0.45558 0.0
C560 C 0.9749 0.9545 0.47754 0.0
C561 C 1.00985 0.95626 0.50124 0.0
H562 H 0.93101 0.92322 0.43764 0.0
H563 H 0.96069 0.97761 0.47593 0.0
S564 S 0.06465 0.88128 0.51507 0.0
N565 N 0.02791 0.86474 0.48362 0.0
N566 N 0.05959 0.92287 0.52487 0.0
C567 C 0.0268 0.92511 0.50224 0.0
C568 C 1.00965 0.89339 0.47959 0.0
C569 C 0.32642 0.68938 0.69755 0.0
C570 C 0.28953 0.68626 0.67644 0.0
C571 C 0.3605 0.68196 0.68216 0.0
C572 C 0.35911 0.67143 0.64499 0.0
H573 H 0.32929 0.69839 0.72605 0.0
H574 H 0.38841 0.68516 0.69929 0.0
S575 S 0.26929 0.65634 0.57861 0.0
N576 N 0.25309 0.6697 0.61697 0.0
N577 N 0.31756 0.65631 0.58788 0.0
C578 C 0.3224 0.66765 0.62365 0.0
C579 C 0.28753 0.67495 0.6394 0.0
C580 C 0.75664 0.84444 0.68644 0.0
C581 C 0.74438 0.85948 0.71785 0.0
C582 C 0.78495 0.86625 0.66342 0.0
C583 C 0.80239 0.9036 0.67146 0.0
H584 H 0.74406 0.81572 0.67953 0.0
H585 H 0.79355 0.85377 0.63935 0.0
S586 S 0.78098 0.95575 0.75089 0.0
N587 N 0.75231 0.91367 0.75622 0.0
N588 N 0.80522 0.95468 0.71282 0.0
C589 C 0.79054 0.91883 0.70291 0.0
C590 C 0.76157 0.89677 0.72613 0.0
C591 C 0.79957 0.23813 0.16324 0.0
C592 C 0.81592 0.22573 0.19636 0.0
C593 C 0.77314 0.21335 0.13918 0.0
C594 C 0.76178 0.17541 0.14768 0.0
H595 H 0.80647 0.2673 0.15638 0.0
H596 H 0.76018 0.22417 0.11453 0.0
S597 S 0.79755 0.12876 0.23007 0.0
N598 N 0.81985 0.17287 0.23584 0.0
N599 N 0.77054 0.12634 0.19032 0.0
C600 C 0.77897 0.16252 0.18004 0.0
C601 C 0.80601 0.18766 0.20443 0.0
C602 C 0.4956 0.61303 0.40625 0.0
C603 C 0.45968 0.62552 0.40829 0.0
C604 C 0.50861 0.59102 0.43458 0.0
C605 C 0.48691 0.58084 0.46684 0.0
H606 H 0.51326 0.61937 0.38193 0.0
H607 H 0.53596 0.58158 0.43097 0.0
S608 S 0.39203 0.60779 0.48733 0.0
N609 N 0.40343 0.62699 0.44649 0.0
N610 N 0.42789 0.58592 0.49932 0.0
C611 C 0.45154 0.59392 0.46981 0.0
C612 C 0.43797 0.61603 0.44073 0.0
C613 C 0.06902 0.44258 0.93389 0.0
C614 C 0.0983 0.46199 0.90959 0.0
C615 C 0.05686 0.45973 0.96447 0.0
C616 C 0.07248 0.49752 0.97213 0.0
H617 H 0.05451 0.41382 0.92901 0.0
H618 H 0.03403 0.44337 0.98168 0.0
S619 S 0.15247 0.56102 0.92077 0.0
N620 N 0.14535 0.52144 0.89889 0.0
N621 N 0.12027 0.55349 0.95417 0.0
C622 C 0.10187 0.51732 0.94865 0.0
C623 C 0.11524 0.49973 0.91812 0.0
C624 C 0.55779 0.93392 0.94288 0.0
C625 C 0.53783 0.89746 0.95182 0.0
C626 C 0.54996 0.96395 0.96108 0.0
C627 C 0.52144 0.95869 0.98855 0.0
H628 H 0.58076 0.93924 0.92254 0.0
H629 H 0.5669 0.99148 0.95399 0.0
S630 S 0.45963 0.86871 1.02096 0.0
N631 N 0.48733 0.85769 0.98892 0.0
N632 N 0.4724 0.9142 1.02323 0.0
C633 C 0.50027 0.92241 0.99695 0.0
C634 C 0.50861 0.89176 0.97863 0.0
C635 C 0.02379 0.18892 0.47039 0.0
C636 C 0.98347 0.18991 0.4602 0.0
C637 C 0.03292 0.15693 0.48623 0.0
C638 C 1.00206 0.12473 0.49184 0.0
H639 H 0.04821 0.21326 0.46691 0.0
H640 H 0.06427 0.1578 0.49486 0.0
S641 S 0.89195 0.11285 0.46577 0.0
N642 N 0.91294 0.15591 0.45418 0.0
N643 N 0.92964 0.09565 0.48321 0.0
C644 C 0.96177 0.12518 0.48009 0.0
C645 C 0.9526 0.15782 0.46449 0.0
C646 C 0.20324 0.62453 0.10419 0.0
C647 C 0.20425 0.62172 0.14319 0.0
C648 C 0.16772 0.60944 0.0822 0.0
C649 C 0.1314 0.5909 0.0981 0.0
H650 H 0.23013 0.63892 0.09046 0.0
H651 H 0.16855 0.61304 1.05244 0.0
S652 S 0.11749 0.57532 0.19877 0.0
N653 N 0.16543 0.59829 0.19665 0.0
N654 N 0.099 0.56994 0.15547 0.0
C655 C 0.13219 0.58697 0.13698 0.0
C656 C 0.16844 0.60232 0.15942 0.0
C657 C 0.35197 0.50122 0.64751 0.0
C658 C 0.33897 0.46278 0.6532 0.0
C659 C 0.38656 0.51686 0.62744 0.0
C660 C 0.40995 0.49487 0.61198 0.0
H661 H 0.33493 0.51944 0.65821 0.0
H662 H 0.39488 0.54657 0.62395 0.0
S663 S 0.39101 0.39282 0.6215 0.0
N664 N 0.35412 0.40332 0.64357 0.0
N665 N 0.41808 0.43232 0.60558 0.0
C666 C 0.39753 0.45639 0.61792 0.0
C667 C 0.36246 0.44052 0.6385 0.0
C668 C 0.80071 0.7093 0.98436 0.0
C669 C 0.76712 0.6824 0.97006 0.0
C670 C 0.83775 0.70038 0.99452 0.0
C671 C 0.8424 0.66419 0.99105 0.0
H672 H 0.79909 0.73787 0.98581 0.0
H673 H 0.8633 0.72218 1.00415 0.0
S674 S 0.76258 0.58306 0.95807 0.0
N675 N 0.73989 0.61764 0.9555 0.0
N676 N 0.80962 0.60086 0.9742 0.0
C677 C 0.80842 0.63665 0.9786 0.0
C678 C 0.77076 0.64577 0.96815 0.0
C679 C 0.45544 0.9084 0.13648 0.0
C680 C 0.47501 0.89773 0.16922 0.0
C681 C 0.47097 0.94221 0.11785 0.0
C682 C 0.50727 0.96683 0.1306 0.0
H683 H 0.42816 0.89014 0.12451 0.0
H684 H 0.45504 0.94851 0.09262 0.0
S685 S 0.56882 0.95486 0.21628 0.0
N686 N 0.53136 0.91729 0.21483 0.0
N687 N 0.56124 0.97918 0.17898 0.0
C688 C 0.52682 0.957 0.1634 0.0
C689 C 0.51066 0.923 0.1828 0.0
C690 C 0.0418 0.16756 0.68093 0.0
C691 C 0.07655 0.1941 0.67015 0.0
C692 C 0.02567 0.13485 0.66053 0.0
C693 C 0.04378 0.12666 0.62865 0.0
H694 H 0.02686 0.17198 0.70548 0.0
H695 H 0.99859 0.11579 0.66976 0.0
S696 S 0.13195 0.1881 0.58544 0.0
N697 N 0.12617 0.21054 0.6228 0.0
N698 N 0.09636 0.14922 0.58562 0.0
C699 C 0.07803 0.15295 0.61719 0.0
C700 C 0.09426 0.18645 0.63761 0.0
C701 C 0.72623 0.41494 0.43917 0.0
C702 C 0.73106 0.37858 0.43979 0.0
C703 C 0.69097 0.42306 0.45159 0.0
C704 C 0.65906 0.39507 0.46477 0.0
H705 H 0.75014 0.43732 0.42946 0.0
H706 H 0.68905 0.45158 0.45141 0.0
S707 S 0.65521 0.29477 0.46783 0.0
N708 N 0.70024 0.31405 0.45221 0.0
N709 N 0.63351 0.32904 0.47469 0.0
C710 C 0.66314 0.35841 0.46442 0.0
C711 C 0.69923 0.35024 0.45215 0.0
loop_
_geom_bond_atom_site_label_1
_geom_bond_atom_site_label_2
_geom_bond_distance
_geom_bond_site_symmetry_2
_ccdc_geom_bond_type
C0 C1 1.384 . S
C0 H13 0.947 . S
C0 C35 1.382 . S
C1 C0 1.384 . S
C1 C2 1.378 . S
C2 C1 1.378 . S
C2 C3 1.378 . S
C2 H14 0.952 . S
C3 C2 1.378 . S
C3 H15 0.950 . S
C3 C34 1.383 . S
H4 C23 0.947 . S
H5 C24 0.946 . S
H6 C26 0.953 . S
H7 C27 0.945 . S
H8 C29 0.952 . S
H9 C30 0.949 . S
H10 C32 0.950 . S
H11 C33 0.948 . S
H12 C35 0.951 . S
H13 C0 0.947 . S
H14 C2 0.952 . S
H15 C3 0.950 . S
N16 C19 1.382 . S
N16 C21 1.363 . S
N17 C19 1.371 . S
N17 C20 1.372 . S
N18 C20 1.361 . S
N18 C21 1.377 . S
C19 N16 1.382 . S
C19 N17 1.371 . S
C19 C22 1.480 . S
C20 N17 1.372 . S
C20 N18 1.361 . S
C20 C28 1.457 . S
C21 N16 1.363 . S
C21 N18 1.377 . S
C21 C34 1.479 . S
C22 C19 1.480 . S
C22 C23 1.383 . S
C22 C27 1.385 . S
C23 H4 0.947 . S
C23 C22 1.383 . S
C23 C24 1.388 . S
C24 H5 0.946 . S
C24 C23 1.388 . S
C24 C25 1.384 . S
C25 C24 1.384 . S
C25 C26 1.377 . S
C26 H6 0.953 . S
C26 C25 1.377 . S
C26 C27 1.369 . S
C27 H7 0.945 . S
C27 C22 1.385 . S
C27 C26 1.369 . S
C28 C20 1.457 . S
C28 C29 1.372 . S
C28 C33 1.364 . S
C29 H8 0.952 . S
C29 C28 1.372 . S
C29 C30 1.389 . S
C30 H9 0.949 . S
C30 C29 1.389 . S
C30 C31 1.387 . S
C31 C30 1.387 . S
C31 C32 1.372 . S
C32 H10 0.950 . S
C32 C31 1.372 . S
C32 C33 1.379 . S
C33 H11 0.948 . S
C33 C28 1.364 . S
C33 C32 1.379 . S
C34 C3 1.383 . S
C34 C21 1.479 . S
C34 C35 1.398 . S
C35 C0 1.382 . S
C35 H12 0.951 . S
C35 C34 1.398 . S
C36 C37 1.384 . S
C36 H49 0.947 . S
C36 C71 1.382 . S
C37 C36 1.384 . S
C37 C38 1.378 . S
C38 C37 1.378 . S
C38 C39 1.378 . S
C38 H50 0.952 . S
C39 C38 1.378 . S
C39 H51 0.950 . S
C39 C70 1.383 . S
H40 C59 0.947 . S
H41 C60 0.946 . S
H42 C62 0.953 . S
H43 C63 0.945 . S
H44 C65 0.952 . S
H45 C66 0.949 . S
H46 C68 0.950 . S
H47 C69 0.948 . S
H48 C71 0.951 . S
H49 C36 0.947 . S
H50 C38 0.952 . S
H51 C39 0.950 . S
N52 C55 1.382 . S
N52 C57 1.363 . S
N53 C55 1.371 . S
N53 C56 1.372 . S
N54 C56 1.361 . S
N54 C57 1.377 . S
C55 N52 1.382 . S
C55 N53 1.371 . S
C55 C58 1.480 . S
C56 N53 1.372 . S
C56 N54 1.361 . S
C56 C64 1.457 . S
C57 N52 1.363 . S
C57 N54 1.377 . S
C57 C70 1.479 . S
C58 C55 1.480 . S
C58 C59 1.383 . S
C58 C63 1.385 . S
C59 H40 0.947 . S
C59 C58 1.383 . S
C59 C60 1.388 . S
C60 H41 0.946 . S
C60 C59 1.388 . S
C60 C61 1.384 . S
C61 C60 1.384 . S
C61 C62 1.377 . S
C62 H42 0.953 . S
C62 C61 1.377 . S
C62 C63 1.369 . S
C63 H43 0.945 . S
C63 C58 1.385 . S
C63 C62 1.369 . S
C64 C56 1.457 . S
C64 C65 1.372 . S
C64 C69 1.364 . S
C65 H44 0.952 . S
C65 C64 1.372 . S
C65 C66 1.389 . S
C66 H45 0.949 . S
C66 C65 1.389 . S
C66 C67 1.387 . S
C67 C66 1.387 . S
C67 C68 1.372 . S
C68 H46 0.950 . S
C68 C67 1.372 . S
C68 C69 1.379 . S
C69 H47 0.948 . S
C69 C64 1.364 . S
C69 C68 1.379 . S
C70 C39 1.383 . S
C70 C57 1.479 . S
C70 C71 1.398 . S
C71 C36 1.382 . S
C71 H48 0.951 . S
C71 C70 1.398 . S
C72 C73 1.384 . S
C72 H85 0.947 . S
C72 C107 1.382 . S
C73 C72 1.384 . S
C73 C74 1.378 . S
C74 C73 1.378 . S
C74 C75 1.378 . S
C74 H86 0.952 . S
C75 C74 1.378 . S
C75 H87 0.950 . S
C75 C106 1.383 . S
H76 C95 0.947 . S
H77 C96 0.946 . S
H78 C98 0.953 . S
H79 C99 0.945 . S
H80 C101 0.952 . S
H81 C102 0.949 . S
H82 C104 0.950 . S
H83 C105 0.948 . S
H84 C107 0.951 . S
H85 C72 0.947 . S
H86 C74 0.952 . S
H87 C75 0.950 . S
N88 C91 1.382 . S
N88 C93 1.363 . S
N89 C91 1.371 . S
N89 C92 1.372 . S
N90 C92 1.361 . S
N90 C93 1.377 . S
C91 N88 1.382 . S
C91 N89 1.371 . S
C91 C94 1.480 . S
C92 N89 1.372 . S
C92 N90 1.361 . S
C92 C100 1.457 . S
C93 N88 1.363 . S
C93 N90 1.377 . S
C93 C106 1.479 . S
C94 C91 1.480 . S
C94 C95 1.383 . S
C94 C99 1.385 . S
C95 H76 0.947 . S
C95 C94 1.383 . S
C95 C96 1.388 . S
C96 H77 0.946 . S
C96 C95 1.388 . S
C96 C97 1.384 . S
C97 C96 1.384 . S
C97 C98 1.377 . S
C98 H78 0.953 . S
C98 C97 1.377 . S
C98 C99 1.369 . S
C99 H79 0.945 . S
C99 C94 1.385 . S
C99 C98 1.369 . S
C100 C92 1.457 . S
C100 C101 1.372 . S
C100 C105 1.364 . S
C101 H80 0.952 . S
C101 C100 1.372 . S
C101 C102 1.389 . S
C102 H81 0.949 . S
C102 C101 1.389 . S
C102 C103 1.387 . S
C103 C102 1.387 . S
C103 C104 1.372 . S
C104 H82 0.950 . S
C104 C103 1.372 . S
C104 C105 1.379 . S
C105 H83 0.948 . S
C105 C100 1.364 . S
C105 C104 1.379 . S
C106 C75 1.383 . S
C106 C93 1.479 . S
C106 C107 1.398 . S
C107 C72 1.382 . S
C107 H84 0.951 . S
C107 C106 1.398 . S
C108 C109 1.384 . S
C108 H121 0.947 . S
C108 C143 1.382 . S
C109 C108 1.384 . S
C109 C110 1.378 . S
C110 C109 1.378 . S
C110 C111 1.378 . S
C110 H122 0.952 . S
C111 C110 1.378 . S
C111 H123 0.950 . S
C111 C142 1.383 . S
H112 C131 0.947 . S
H113 C132 0.946 . S
H114 C134 0.953 . S
H115 C135 0.945 . S
H116 C137 0.952 . S
H117 C138 0.949 . S
H118 C140 0.950 . S
H119 C141 0.948 . S
H120 C143 0.951 . S
H121 C108 0.947 . S
H122 C110 0.952 . S
H123 C111 0.950 . S
N124 C127 1.382 . S
N124 C129 1.363 . S
N125 C127 1.371 . S
N125 C128 1.372 . S
N126 C128 1.361 . S
N126 C129 1.377 . S
C127 N124 1.382 . S
C127 N125 1.371 . S
C127 C130 1.480 . S
C128 N125 1.372 . S
C128 N126 1.361 . S
C128 C136 1.457 . S
C129 N124 1.363 . S
C129 N126 1.377 . S
C129 C142 1.479 . S
C130 C127 1.480 . S
C130 C131 1.383 . S
C130 C135 1.385 . S
C131 H112 0.947 . S
C131 C130 1.383 . S
C131 C132 1.388 . S
C132 H113 0.946 . S
C132 C131 1.388 . S
C132 C133 1.384 . S
C133 C132 1.384 . S
C133 C134 1.377 . S
C134 H114 0.953 . S
C134 C133 1.377 . S
C134 C135 1.369 . S
C135 H115 0.945 . S
C135 C130 1.385 . S
C135 C134 1.369 . S
C136 C128 1.457 . S
C136 C137 1.372 . S
C136 C141 1.364 . S
C137 H116 0.952 . S
C137 C136 1.372 . S
C137 C138 1.389 . S
C138 H117 0.949 . S
C138 C137 1.389 . S
C138 C139 1.387 . S
C139 C138 1.387 . S
C139 C140 1.372 . S
C140 H118 0.950 . S
C140 C139 1.372 . S
C140 C141 1.379 . S
C141 H119 0.948 . S
C141 C136 1.364 . S
C141 C140 1.379 . S
C142 C111 1.383 . S
C142 C129 1.479 . S
C142 C143 1.398 . S
C143 C108 1.382 . S
C143 H120 0.951 . S
C143 C142 1.398 . S
C144 C145 1.384 . S
C144 H157 0.947 . S
C144 C179 1.382 . S
C145 C144 1.384 . S
C145 C146 1.378 . S
C146 C145 1.378 . S
C146 C147 1.378 . S
C146 H158 0.952 . S
C147 C146 1.378 . S
C147 H159 0.950 . S
C147 C178 1.383 . S
H148 C167 0.947 . S
H149 C168 0.946 . S
H150 C170 0.953 . S
H151 C171 0.945 . S
H152 C173 0.952 . S
H153 C174 0.949 . S
H154 C176 0.950 . S
H155 C177 0.948 . S
H156 C179 0.951 . S
H157 C144 0.947 . S
H158 C146 0.952 . S
H159 C147 0.950 . S
N160 C163 1.382 . S
N160 C165 1.363 . S
N161 C163 1.371 . S
N161 C164 1.372 . S
N162 C164 1.361 . S
N162 C165 1.377 . S
C163 N160 1.382 . S
C163 N161 1.371 . S
C163 C166 1.480 . S
C164 N161 1.372 . S
C164 N162 1.361 . S
C164 C172 1.457 . S
C165 N160 1.363 . S
C165 N162 1.377 . S
C165 C178 1.479 . S
C166 C163 1.480 . S
C166 C167 1.383 . S
C166 C171 1.385 . S
C167 H148 0.947 . S
C167 C166 1.383 . S
C167 C168 1.388 . S
C168 H149 0.946 . S
C168 C167 1.388 . S
C168 C169 1.384 . S
C169 C168 1.384 . S
C169 C170 1.377 . S
C170 H150 0.953 . S
C170 C169 1.377 . S
C170 C171 1.369 . S
C171 H151 0.945 . S
C171 C166 1.385 . S
C171 C170 1.369 . S
C172 C164 1.457 . S
C172 C173 1.372 . S
C172 C177 1.364 . S
C173 H152 0.952 . S
C173 C172 1.372 . S
C173 C174 1.389 . S
C174 H153 0.949 . S
C174 C173 1.389 . S
C174 C175 1.387 . S
C175 C174 1.387 . S
C175 C176 1.372 . S
C176 H154 0.950 . S
C176 C175 1.372 . S
C176 C177 1.379 . S
C177 H155 0.948 . S
C177 C172 1.364 . S
C177 C176 1.379 . S
C178 C147 1.383 . S
C178 C165 1.479 . S
C178 C179 1.398 . S
C179 C144 1.382 . S
C179 H156 0.951 . S
C179 C178 1.398 . S
C180 C181 1.384 . S
C180 H193 0.947 . S
C180 C215 1.382 . S
C181 C180 1.384 . S
C181 C182 1.378 . S
C182 C181 1.378 . S
C182 C183 1.378 . S
C182 H194 0.952 . S
C183 C182 1.378 . S
C183 H195 0.950 . S
C183 C214 1.383 . S
H184 C203 0.947 . S
H185 C204 0.946 . S
H186 C206 0.953 . S
H187 C207 0.945 . S
H188 C209 0.952 . S
H189 C210 0.949 . S
H190 C212 0.950 . S
H191 C213 0.948 . S
H192 C215 0.951 . S
H193 C180 0.947 . S
H194 C182 0.952 . S
H195 C183 0.950 . S
N196 C199 1.382 . S
N196 C201 1.363 . S
N197 C199 1.371 . S
N197 C200 1.372 . S
N198 C200 1.361 . S
N198 C201 1.377 . S
C199 N196 1.382 . S
C199 N197 1.371 . S
C199 C202 1.480 . S
C200 N197 1.372 . S
C200 N198 1.361 . S
C200 C208 1.457 . S
C201 N196 1.363 . S
C201 N198 1.377 . S
C201 C214 1.479 . S
C202 C199 1.480 . S
C202 C203 1.383 . S
C202 C207 1.385 . S
C203 H184 0.947 . S
C203 C202 1.383 . S
C203 C204 1.388 . S
C204 H185 0.946 . S
C204 C203 1.388 . S
C204 C205 1.384 . S
C205 C204 1.384 . S
C205 C206 1.377 . S
C206 H186 0.953 . S
C206 C205 1.377 . S
C206 C207 1.369 . S
C207 H187 0.945 . S
C207 C202 1.385 . S
C207 C206 1.369 . S
C208 C200 1.457 . S
C208 C209 1.372 . S
C208 C213 1.364 . S
C209 H188 0.952 . S
C209 C208 1.372 . S
C209 C210 1.389 . S
C210 H189 0.949 . S
C210 C209 1.389 . S
C210 C211 1.387 . S
C211 C210 1.387 . S
C211 C212 1.372 . S
C212 H190 0.950 . S
C212 C211 1.372 . S
C212 C213 1.379 . S
C213 H191 0.948 . S
C213 C208 1.364 . S
C213 C212 1.379 . S
C214 C183 1.383 . S
C214 C201 1.479 . S
C214 C215 1.398 . S
C215 C180 1.382 . S
C215 H192 0.951 . S
C215 C214 1.398 . S
C216 C217 1.384 . S
C216 H229 0.947 . S
C216 C251 1.382 . S
C217 C216 1.384 . S
C217 C218 1.378 . S
C218 C217 1.378 . S
C218 C219 1.378 . S
C218 H230 0.952 . S
C219 C218 1.378 . S
C219 H231 0.950 . S
C219 C250 1.383 . S
H220 C239 0.947 . S
H221 C240 0.946 . S
H222 C242 0.953 . S
H223 C243 0.945 . S
H224 C245 0.952 . S
H225 C246 0.949 . S
H226 C248 0.950 . S
H227 C249 0.948 . S
H228 C251 0.951 . S
H229 C216 0.947 . S
H230 C218 0.952 . S
H231 C219 0.950 . S
N232 C235 1.382 . S
N232 C237 1.363 . S
N233 C235 1.371 . S
N233 C236 1.372 . S
N234 C236 1.361 . S
N234 C237 1.377 . S
C235 N232 1.382 . S
C235 N233 1.371 . S
C235 C238 1.480 . S
C236 N233 1.372 . S
C236 N234 1.361 . S
C236 C244 1.457 . S
C237 N232 1.363 . S
C237 N234 1.377 . S
C237 C250 1.479 . S
C238 C235 1.480 . S
C238 C239 1.383 . S
C238 C243 1.385 . S
C239 H220 0.947 . S
C239 C238 1.383 . S
C239 C240 1.388 . S
C240 H221 0.946 . S
C240 C239 1.388 . S
C240 C241 1.384 . S
C241 C240 1.384 . S
C241 C242 1.377 . S
C242 H222 0.953 . S
C242 C241 1.377 . S
C242 C243 1.369 . S
C243 H223 0.945 . S
C243 C238 1.385 . S
C243 C242 1.369 . S
C244 C236 1.457 . S
C244 C245 1.372 . S
C244 C249 1.364 . S
C245 H224 0.952 . S
C245 C244 1.372 . S
C245 C246 1.389 . S
C246 H225 0.949 . S
C246 C245 1.389 . S
C246 C247 1.387 . S
C247 C246 1.387 . S
C247 C248 1.372 . S
C248 H226 0.950 . S
C248 C247 1.372 . S
C248 C249 1.379 . S
C249 H227 0.948 . S
C249 C244 1.364 . S
C249 C248 1.379 . S
C250 C219 1.383 . S
C250 C237 1.479 . S
C250 C251 1.398 . S
C251 C216 1.382 . S
C251 H228 0.951 . S
C251 C250 1.398 . S
C252 C253 1.384 . S
C252 H265 0.947 . S
C252 C287 1.382 . S
C253 C252 1.384 . S
C253 C254 1.378 . S
C254 C253 1.378 . S
C254 C255 1.378 . S
C254 H266 0.952 . S
C255 C254 1.378 . S
C255 H267 0.950 . S
C255 C286 1.383 . S
H256 C275 0.947 . S
H257 C276 0.946 . S
H258 C278 0.953 . S
H259 C279 0.945 . S
H260 C281 0.952 . S
H261 C282 0.949 . S
H262 C284 0.950 . S
H263 C285 0.948 . S
H264 C287 0.951 . S
H265 C252 0.947 . S
H266 C254 0.952 . S
H267 C255 0.950 . S
N268 C271 1.382 . S
N268 C273 1.363 . S
N269 C271 1.371 . S
N269 C272 1.372 . S
N270 C272 1.361 . S
N270 C273 1.377 . S
C271 N268 1.382 . S
C271 N269 1.371 . S
C271 C274 1.480 . S
C272 N269 1.372 . S
C272 N270 1.361 . S
C272 C280 1.457 . S
C273 N268 1.363 . S
C273 N270 1.377 . S
C273 C286 1.479 . S
C274 C271 1.480 . S
C274 C275 1.383 . S
C274 C279 1.385 . S
C275 H256 0.947 . S
C275 C274 1.383 . S
C275 C276 1.388 . S
C276 H257 0.946 . S
C276 C275 1.388 . S
C276 C277 1.384 . S
C277 C276 1.384 . S
C277 C278 1.377 . S
C278 H258 0.953 . S
C278 C277 1.377 . S
C278 C279 1.369 . S
C279 H259 0.945 . S
C279 C274 1.385 . S
C279 C278 1.369 . S
C280 C272 1.457 . S
C280 C281 1.372 . S
C280 C285 1.364 . S
C281 H260 0.952 . S
C281 C280 1.372 . S
C281 C282 1.389 . S
C282 H261 0.949 . S
C282 C281 1.389 . S
C282 C283 1.387 . S
C283 C282 1.387 . S
C283 C284 1.372 . S
C284 H262 0.950 . S
C284 C283 1.372 . S
C284 C285 1.379 . S
C285 H263 0.948 . S
C285 C280 1.364 . S
C285 C284 1.379 . S
C286 C255 1.383 . S
C286 C273 1.479 . S
C286 C287 1.398 . S
C287 C252 1.382 . S
C287 H264 0.951 . S
C287 C286 1.398 . S
Tb288 C290 2.802 1_545 S
Tb288 O308 2.473 1_545 S
Tb288 O309 2.439 1_545 S
Tb288 O310 2.663 1_655 S
Tb288 O311 2.417 . S
Tb288 O312 2.371 1_645 S
Tb288 O316 2.316 1_545 S
Tb288 O319 2.349 . S
Tb289 C299 2.809 . S
Tb289 O310 2.325 . S
Tb289 O313 2.341 1_545 S
Tb289 O314 2.484 . S
Tb289 O315 2.440 . S
Tb289 O316 2.658 1_445 S
Tb289 O317 2.409 1_545 S
Tb289 O318 2.378 . S
C290 Tb288 2.802 1_565 S
C290 C291 1.514 . S
C290 O308 1.248 . S
C290 O309 1.266 . S
C291 C290 1.514 . S
C291 C292 1.359 . S
C291 C296 1.348 . S
C292 C291 1.359 . S
C292 C293 1.380 . S
C292 H320 0.929 . S
C293 C292 1.380 . S
C293 C294 1.347 . S
C293 H321 0.931 . S
C294 C293 1.347 . S
C294 C295 1.369 . S
C295 C294 1.369 . S
C295 C296 1.408 . S
C295 H322 0.930 . S
C296 C291 1.348 . S
C296 C295 1.408 . S
C296 H323 0.930 . S
C297 O310 1.281 . S
C297 O311 1.254 1_455 S
C298 O312 1.236 . S
C298 O313 1.266 . S
C299 Tb289 2.809 . S
C299 C300 1.514 . S
C299 O314 1.248 . S
C299 O315 1.266 . S
C300 C299 1.514 . S
C300 C301 1.359 . S
C300 C305 1.348 . S
C301 C300 1.359 . S
C301 C302 1.380 . S
C301 H324 0.929 . S
C302 C301 1.380 . S
C302 C303 1.347 . S
C302 H325 0.931 . S
C303 C302 1.347 . S
C303 C304 1.369 . S
C304 C303 1.369 . S
C304 C305 1.408 . S
C304 H326 0.930 . S
C305 C300 1.348 . S
C305 C304 1.408 . S
C305 H327 0.930 . S
C306 O316 1.281 . S
C306 O317 1.254 1_655 S
C307 O318 1.236 1_655 S
C307 O319 1.266 . S
O308 Tb288 2.473 1_565 S
O308 C290 1.248 . S
O309 Tb288 2.439 1_565 S
O309 C290 1.266 . S
O310 Tb288 2.663 1_455 S
O310 Tb289 2.325 . S
O310 C297 1.281 . S
O311 Tb288 2.417 . S
O311 C297 1.254 1_655 S
O312 Tb288 2.371 1_465 S
O312 C298 1.236 . S
O313 Tb289 2.341 1_565 S
O313 C298 1.266 . S
O314 Tb289 2.484 . S
O314 C299 1.248 . S
O315 Tb289 2.440 . S
O315 C299 1.266 . S
O316 Tb288 2.316 1_565 S
O316 Tb289 2.658 1_665 S
O316 C306 1.281 . S
O317 Tb289 2.409 1_565 S
O317 C306 1.254 1_455 S
O318 Tb289 2.378 . S
O318 C307 1.236 1_455 S
O319 Tb288 2.349 . S
O319 C307 1.266 . S
H320 C292 0.929 . S
H321 C293 0.931 . S
H322 C295 0.930 . S
H323 C296 0.930 . S
H324 C301 0.929 . S
H325 C302 0.931 . S
H326 C304 0.930 . S
H327 C305 0.930 . S
Tb328 C330 2.809 . S
Tb328 O348 2.484 . S
Tb328 O349 2.440 . S
Tb328 O350 2.658 1_545 S
Tb328 O351 2.409 1_545 S
Tb328 O352 2.378 . S
Tb328 O356 2.325 1_554 S
Tb328 O359 2.341 1_544 S
Tb329 C339 2.809 . S
Tb329 O350 2.325 1_556 S
Tb329 O353 2.341 1_566 S
Tb329 O354 2.484 . S
Tb329 O355 2.440 . S
Tb329 O356 2.658 1_565 S
Tb329 O357 2.409 1_565 S
Tb329 O358 2.378 . S
C330 Tb328 2.809 . S
C330 C331 1.514 . S
C330 O348 1.248 . S
C330 O349 1.266 . S
C331 C330 1.514 . S
C331 C332 1.359 . S
C331 C336 1.348 . S
C332 C331 1.359 . S
C332 C333 1.380 . S
C332 H360 0.929 . S
C333 C332 1.380 . S
C333 C334 1.347 . S
C333 H361 0.931 . S
C334 C333 1.347 . S
C334 C335 1.369 . S
C335 C334 1.369 . S
C335 C336 1.408 . S
C335 H362 0.930 . S
C336 C331 1.348 . S
C336 C335 1.408 . S
C336 H363 0.930 . S
C337 O350 1.281 . S
C337 O351 1.254 . S
C338 O352 1.236 . S
C338 O353 1.266 . S
C339 Tb329 2.809 . S
C339 C340 1.514 . S
C339 O354 1.248 . S
C339 O355 1.266 . S
C340 C339 1.514 . S
C340 C341 1.359 . S
C340 C345 1.348 . S
C341 C340 1.359 . S
C341 C342 1.380 . S
C341 H364 0.929 . S
C342 C341 1.380 . S
C342 C343 1.347 . S
C342 H365 0.931 . S
C343 C342 1.347 . S
C343 C344 1.369 . S
C344 C343 1.369 . S
C344 C345 1.408 . S
C344 H366 0.930 . S
C345 C340 1.348 . S
C345 C344 1.408 . S
C345 H367 0.930 . S
C346 O356 1.281 . S
C346 O357 1.254 . S
C347 O358 1.236 . S
C347 O359 1.266 . S
O348 Tb328 2.484 . S
O348 C330 1.248 . S
O349 Tb328 2.440 . S
O349 C330 1.266 . S
O350 Tb328 2.658 1_565 S
O350 Tb329 2.325 1_554 S
O350 C337 1.281 . S
O351 Tb328 2.409 1_565 S
O351 C337 1.254 . S
O352 Tb328 2.378 . S
O352 C338 1.236 . S
O353 Tb329 2.341 1_544 S
O353 C338 1.266 . S
O354 Tb329 2.484 . S
O354 C339 1.248 . S
O355 Tb329 2.440 . S
O355 C339 1.266 . S
O356 Tb328 2.325 1_556 S
O356 Tb329 2.658 1_545 S
O356 C346 1.281 . S
O357 Tb329 2.409 1_545 S
O357 C346 1.254 . S
O358 Tb329 2.378 . S
O358 C347 1.236 . S
O359 Tb328 2.341 1_566 S
O359 C347 1.266 . S
H360 C332 0.929 . S
H361 C333 0.931 . S
H362 C335 0.930 . S
H363 C336 0.930 . S
H364 C341 0.929 . S
H365 C342 0.931 . S
H366 C344 0.930 . S
H367 C345 0.930 . S
Tb368 C370 2.809 . S
Tb368 O388 2.484 . S
Tb368 O389 2.440 . S
Tb368 O390 2.658 . S
Tb368 O391 2.409 . S
Tb368 O392 2.378 . S
Tb368 O396 2.325 . S
Tb368 O399 2.341 . S
Tb369 C379 2.809 . S
Tb369 O390 2.325 . S
Tb369 O393 2.341 . S
Tb369 O394 2.484 . S
Tb369 O395 2.440 . S
Tb369 O396 2.658 . S
Tb369 O397 2.409 . S
Tb369 O398 2.378 . S
C370 Tb368 2.809 . S
C370 C371 1.514 . S
C370 O388 1.248 . S
C370 O389 1.266 . S
C371 C370 1.514 . S
C371 C372 1.359 . S
C371 C376 1.348 . S
C372 C371 1.359 . S
C372 C373 1.380 . S
C372 H400 0.929 . S
C373 C372 1.380 . S
C373 C374 1.347 . S
C373 H401 0.931 . S
C374 C373 1.347 . S
C374 C375 1.369 . S
C375 C374 1.369 . S
C375 C376 1.408 . S
C375 H402 0.930 . S
C376 C371 1.348 . S
C376 C375 1.408 . S
C376 H403 0.930 . S
C377 O390 1.281 . S
C377 O391 1.254 . S
C378 O392 1.236 . S
C378 O393 1.266 . S
C379 Tb369 2.809 . S
C379 C380 1.514 . S
C379 O394 1.248 . S
C379 O395 1.266 . S
C380 C379 1.514 . S
C380 C381 1.359 . S
C380 C385 1.348 . S
C381 C380 1.359 . S
C381 C382 1.380 . S
C381 H404 0.929 . S
C382 C381 1.380 . S
C382 C383 1.347 . S
C382 H405 0.931 . S
C383 C382 1.347 . S
C383 C384 1.369 . S
C384 C383 1.369 . S
C384 C385 1.408 . S
C384 H406 0.930 . S
C385 C380 1.348 . S
C385 C384 1.408 . S
C385 H407 0.930 . S
C386 O396 1.281 . S
C386 O397 1.254 . S
C387 O398 1.236 . S
C387 O399 1.266 . S
O388 Tb368 2.484 . S
O388 C370 1.248 . S
O389 Tb368 2.440 . S
O389 C370 1.266 . S
O390 Tb368 2.658 . S
O390 Tb369 2.325 . S
O390 C377 1.281 . S
O391 Tb368 2.409 . S
O391 C377 1.254 . S
O392 Tb368 2.378 . S
O392 C378 1.236 . S
O393 Tb369 2.341 . S
O393 C378 1.266 . S
O394 Tb369 2.484 . S
O394 C379 1.248 . S
O395 Tb369 2.440 . S
O395 C379 1.266 . S
O396 Tb368 2.325 . S
O396 Tb369 2.658 . S
O396 C386 1.281 . S
O397 Tb369 2.409 . S
O397 C386 1.254 . S
O398 Tb369 2.378 . S
O398 C387 1.236 . S
O399 Tb368 2.341 . S
O399 C387 1.266 . S
H400 C372 0.929 . S
H401 C373 0.931 . S
H402 C375 0.930 . S
H403 C376 0.930 . S
H404 C381 0.929 . S
H405 C382 0.931 . S
H406 C384 0.930 . S
H407 C385 0.930 . S
Tb408 C410 2.796 1_455 S
Tb408 O428 2.468 1_455 S
Tb408 O429 2.434 1_455 S
Tb408 O430 2.668 1_556 S
Tb408 O431 2.420 1_556 S
Tb408 O432 2.371 1_456 S
Tb408 O436 2.318 1_455 S
Tb408 O439 2.353 . S
Tb409 C419 2.809 . S
Tb409 O430 2.325 . S
Tb409 O433 2.341 1_455 S
Tb409 O434 2.484 . S
Tb409 O435 2.440 . S
Tb409 O436 2.658 1_454 S
Tb409 O437 2.409 1_455 S
Tb409 O438 2.378 1_554 S
C410 Tb408 2.796 1_655 S
C410 C411 1.514 . S
C410 O428 1.248 . S
C410 O429 1.266 . S
C411 C410 1.514 . S
C411 C412 1.359 . S
C411 C416 1.348 . S
C412 C411 1.359 . S
C412 C413 1.380 . S
C412 H440 0.929 . S
C413 C412 1.380 . S
C413 C414 1.347 . S
C413 H441 0.931 . S
C414 C413 1.347 . S
C414 C415 1.369 . S
C415 C414 1.369 . S
C415 C416 1.408 . S
C415 H442 0.930 . S
C416 C411 1.348 . S
C416 C415 1.408 . S
C416 H443 0.930 . S
C417 O430 1.281 . S
C417 O431 1.254 . S
C418 O432 1.236 . S
C418 O433 1.266 . S
C419 Tb409 2.809 . S
C419 C420 1.514 . S
C419 O434 1.248 . S
C419 O435 1.266 . S
C420 C419 1.514 . S
C420 C421 1.359 . S
C420 C425 1.348 . S
C421 C420 1.359 . S
C421 C422 1.380 . S
C421 H444 0.929 . S
C422 C421 1.380 . S
C422 C423 1.347 . S
C422 H445 0.931 . S
C423 C422 1.347 . S
C423 C424 1.369 . S
C424 C423 1.369 . S
C424 C425 1.408 . S
C424 H446 0.930 . S
C425 C420 1.348 . S
C425 C424 1.408 . S
C425 H447 0.930 . S
C426 O436 1.281 . S
C426 O437 1.254 1_556 S
C427 O438 1.236 . S
C427 O439 1.266 . S
O428 Tb408 2.468 1_655 S
O428 C410 1.248 . S
O429 Tb408 2.434 1_655 S
O429 C410 1.266 . S
O430 Tb408 2.668 1_554 S
O430 Tb409 2.325 . S
O430 C417 1.281 . S
O431 Tb408 2.420 1_554 S
O431 C417 1.254 . S
O432 Tb408 2.371 1_654 S
O432 C418 1.236 . S
O433 Tb409 2.341 1_655 S
O433 C418 1.266 . S
O434 Tb409 2.484 . S
O434 C419 1.248 . S
O435 Tb409 2.440 . S
O435 C419 1.266 . S
O436 Tb408 2.318 1_655 S
O436 Tb409 2.658 1_656 S
O436 C426 1.281 . S
O437 Tb409 2.409 1_655 S
O437 C426 1.254 1_554 S
O438 Tb409 2.378 1_556 S
O438 C427 1.236 . S
O439 Tb408 2.353 . S
O439 C427 1.266 . S
H440 C412 0.929 . S
H441 C413 0.931 . S
H442 C415 0.930 . S
H443 C416 0.930 . S
H444 C421 0.929 . S
H445 C422 0.931 . S
H446 C424 0.930 . S
H447 C425 0.930 . S
C448 C449 1.369 . S
C448 C450 1.419 . S
C448 H452 0.930 . S
C449 C448 1.369 . S
C449 C458 1.429 . S
C450 C448 1.419 . S
C450 C451 1.363 . S
C450 H453 0.929 . S
C451 C450 1.363 . S
C451 C457 1.428 . S
H452 C448 0.930 . S
H453 C450 0.929 . S
S454 N455 1.613 . S
S454 N456 1.610 . S
N455 S454 1.613 . S
N455 C458 1.350 . S
N456 S454 1.610 . S
N456 C457 1.351 . S
C457 C451 1.428 . S
C457 N456 1.351 . S
C457 C458 1.434 . S
C458 C449 1.429 . S
C458 N455 1.350 . S
C458 C457 1.434 . S
C459 C460 1.369 . S
C459 C461 1.419 . S
C459 H463 0.930 . S
C460 C459 1.369 . S
C460 C469 1.429 . S
C461 C459 1.419 . S
C461 C462 1.363 . S
C461 H464 0.929 . S
C462 C461 1.363 . S
C462 C468 1.428 . S
H463 C459 0.930 . S
H464 C461 0.929 . S
S465 N466 1.613 . S
S465 N467 1.610 . S
N466 S465 1.613 . S
N466 C469 1.350 . S
N467 S465 1.610 . S
N467 C468 1.351 . S
C468 C462 1.428 . S
C468 N467 1.351 . S
C468 C469 1.434 . S
C469 C460 1.429 . S
C469 N466 1.350 . S
C469 C468 1.434 . S
C470 C471 1.369 . S
C470 C472 1.419 . S
C470 H474 0.930 . S
C471 C470 1.369 . S
C471 C480 1.429 . S
C472 C470 1.419 . S
C472 C473 1.363 . S
C472 H475 0.929 . S
C473 C472 1.363 . S
C473 C479 1.428 . S
H474 C470 0.930 . S
H475 C472 0.929 . S
S476 N477 1.613 . S
S476 N478 1.610 . S
N477 S476 1.613 . S
N477 C480 1.350 . S
N478 S476 1.610 . S
N478 C479 1.351 . S
C479 C473 1.428 . S
C479 N478 1.351 . S
C479 C480 1.434 . S
C480 C471 1.429 . S
C480 N477 1.350 . S
C480 C479 1.434 . S
C481 C482 1.369 . S
C481 C483 1.419 . S
C481 H485 0.930 . S
C482 C481 1.369 . S
C482 C491 1.429 . S
C483 C481 1.419 . S
C483 C484 1.363 . S
C483 H486 0.929 . S
C484 C483 1.363 . S
C484 C490 1.428 . S
H485 C481 0.930 . S
H486 C483 0.929 . S
S487 N488 1.613 . S
S487 N489 1.610 . S
N488 S487 1.613 . S
N488 C491 1.350 . S
N489 S487 1.610 . S
N489 C490 1.351 . S
C490 C484 1.428 . S
C490 N489 1.351 . S
C490 C491 1.434 . S
C491 C482 1.429 . S
C491 N488 1.350 . S
C491 C490 1.434 . S
C492 C493 1.369 . S
C492 C494 1.419 . S
C492 H496 0.930 . S
C493 C492 1.369 . S
C493 C502 1.429 . S
C494 C492 1.419 . S
C494 C495 1.363 . S
C494 H497 0.929 . S
C495 C494 1.363 . S
C495 C501 1.428 . S
H496 C492 0.930 . S
H497 C494 0.929 . S
S498 N499 1.613 . S
S498 N500 1.610 . S
N499 S498 1.613 . S
N499 C502 1.350 . S
N500 S498 1.610 . S
N500 C501 1.351 . S
C501 C495 1.428 . S
C501 N500 1.351 . S
C501 C502 1.434 . S
C502 C493 1.429 . S
C502 N499 1.350 . S
C502 C501 1.434 . S
C503 C504 1.369 . S
C503 C505 1.419 . S
C503 H507 0.930 . S
C504 C503 1.369 . S
C504 C513 1.429 . S
C505 C503 1.419 . S
C505 C506 1.363 . S
C505 H508 0.929 . S
C506 C505 1.363 . S
C506 C512 1.428 . S
H507 C503 0.930 . S
H508 C505 0.929 . S
S509 N510 1.613 . S
S509 N511 1.610 . S
N510 S509 1.613 . S
N510 C513 1.350 . S
N511 S509 1.610 . S
N511 C512 1.351 . S
C512 C506 1.428 . S
C512 N511 1.351 . S
C512 C513 1.434 . S
C513 C504 1.429 . S
C513 N510 1.350 . S
C513 C512 1.434 . S
C514 C515 1.369 . S
C514 C516 1.419 . S
C514 H518 0.930 . S
C515 C514 1.369 . S
C515 C524 1.429 . S
C516 C514 1.419 . S
C516 C517 1.363 . S
C516 H519 0.929 . S
C517 C516 1.363 . S
C517 C523 1.428 . S
H518 C514 0.930 . S
H519 C516 0.929 . S
S520 N521 1.613 . S
S520 N522 1.610 . S
N521 S520 1.613 . S
N521 C524 1.350 . S
N522 S520 1.610 . S
N522 C523 1.351 . S
C523 C517 1.428 . S
C523 N522 1.351 . S
C523 C524 1.434 . S
C524 C515 1.429 . S
C524 N521 1.350 . S
C524 C523 1.434 . S
C525 C526 1.369 . S
C525 C527 1.419 . S
C525 H529 0.930 . S
C526 C525 1.369 . S
C526 C535 1.429 . S
C527 C525 1.419 . S
C527 C528 1.363 . S
C527 H530 0.929 . S
C528 C527 1.363 . S
C528 C534 1.428 . S
H529 C525 0.930 . S
H530 C527 0.929 . S
S531 N532 1.613 . S
S531 N533 1.610 . S
N532 S531 1.613 . S
N532 C535 1.350 . S
N533 S531 1.610 . S
N533 C534 1.351 . S
C534 C528 1.428 . S
C534 N533 1.351 . S
C534 C535 1.434 . S
C535 C526 1.429 . S
C535 N532 1.350 . S
C535 C534 1.434 . S
C536 C537 1.369 . S
C536 C538 1.419 . S
C536 H540 0.930 . S
C537 C536 1.369 . S
C537 C546 1.429 . S
C538 C536 1.419 . S
C538 C539 1.363 . S
C538 H541 0.929 . S
C539 C538 1.363 . S
C539 C545 1.428 . S
H540 C536 0.930 . S
H541 C538 0.929 . S
S542 N543 1.613 . S
S542 N544 1.610 . S
N543 S542 1.613 . S
N543 C546 1.350 . S
N544 S542 1.610 . S
N544 C545 1.351 . S
C545 C539 1.428 . S
C545 N544 1.351 . S
C545 C546 1.434 . S
C546 C537 1.429 . S
C546 N543 1.350 . S
C546 C545 1.434 . S
C547 C548 1.369 . S
C547 C549 1.419 . S
C547 H551 0.930 . S
C548 C547 1.369 . S
C548 C557 1.429 . S
C549 C547 1.419 . S
C549 C550 1.363 . S
C549 H552 0.929 . S
C550 C549 1.363 . S
C550 C556 1.428 . S
H551 C547 0.930 . S
H552 C549 0.929 . S
S553 N554 1.613 . S
S553 N555 1.610 . S
N554 S553 1.613 . S
N554 C557 1.350 . S
N555 S553 1.610 . S
N555 C556 1.351 . S
C556 C550 1.428 . S
C556 N555 1.351 . S
C556 C557 1.434 . S
C557 C548 1.429 . S
C557 N554 1.350 . S
C557 C556 1.434 . S
C558 C559 1.369 . S
C558 C560 1.419 . S
C558 H562 0.930 . S
C559 C558 1.369 . S
C559 C568 1.429 . S
C560 C558 1.419 . S
C560 C561 1.363 . S
C560 H563 0.929 . S
C561 C560 1.363 . S
C561 C567 1.428 . S
H562 C558 0.930 . S
H563 C560 0.929 . S
S564 N565 1.620 . S
S564 N566 1.616 . S
N565 S564 1.620 . S
N565 C568 1.350 . S
N566 S564 1.616 . S
N566 C567 1.351 . S
C567 C561 1.428 . S
C567 N566 1.351 . S
C567 C568 1.434 . S
C568 C559 1.429 . S
C568 N565 1.350 . S
C568 C567 1.434 . S
C569 C570 1.369 . S
C569 C571 1.419 . S
C569 H573 0.930 . S
C570 C569 1.369 . S
C570 C579 1.429 . S
C571 C569 1.419 . S
C571 C572 1.363 . S
C571 H574 0.929 . S
C572 C571 1.363 . S
C572 C578 1.428 . S
H573 C569 0.930 . S
H574 C571 0.929 . S
S575 N576 1.613 . S
S575 N577 1.610 . S
N576 S575 1.613 . S
N576 C579 1.350 . S
N577 S575 1.610 . S
N577 C578 1.351 . S
C578 C572 1.428 . S
C578 N577 1.351 . S
C578 C579 1.434 . S
C579 C570 1.429 . S
C579 N576 1.350 . S
C579 C578 1.434 . S
C580 C581 1.369 . S
C580 C582 1.419 . S
C580 H584 0.930 . S
C581 C580 1.369 . S
C581 C590 1.429 . S
C582 C580 1.419 . S
C582 C583 1.363 . S
C582 H585 0.929 . S
C583 C582 1.363 . S
C583 C589 1.428 . S
H584 C580 0.930 . S
H585 C582 0.929 . S
S586 N587 1.613 . S
S586 N588 1.610 . S
N587 S586 1.613 . S
N587 C590 1.350 . S
N588 S586 1.610 . S
N588 C589 1.351 . S
C589 C583 1.428 . S
C589 N588 1.351 . S
C589 C590 1.434 . S
C590 C581 1.429 . S
C590 N587 1.350 . S
C590 C589 1.434 . S
C591 C592 1.369 . S
C591 C593 1.419 . S
C591 H595 0.930 . S
C592 C591 1.369 . S
C592 C601 1.429 . S
C593 C591 1.419 . S
C593 C594 1.363 . S
C593 H596 0.929 . S
C594 C593 1.363 . S
C594 C600 1.428 . S
H595 C591 0.930 . S
H596 C593 0.929 . S
S597 N598 1.613 . S
S597 N599 1.610 . S
N598 S597 1.613 . S
N598 C601 1.350 . S
N599 S597 1.610 . S
N599 C600 1.351 . S
C600 C594 1.428 . S
C600 N599 1.351 . S
C600 C601 1.434 . S
C601 C592 1.429 . S
C601 N598 1.350 . S
C601 C600 1.434 . S
C602 C603 1.369 . S
C602 C604 1.419 . S
C602 H606 0.930 . S
C603 C602 1.369 . S
C603 C612 1.429 . S
C604 C602 1.419 . S
C604 C605 1.363 . S
C604 H607 0.929 . S
C605 C604 1.363 . S
C605 C611 1.428 . S
H606 C602 0.930 . S
H607 C604 0.929 . S
S608 N609 1.613 . S
S608 N610 1.610 . S
N609 S608 1.613 . S
N609 C612 1.350 . S
N610 S608 1.610 . S
N610 C611 1.351 . S
C611 C605 1.428 . S
C611 N610 1.351 . S
C611 C612 1.434 . S
C612 C603 1.429 . S
C612 N609 1.350 . S
C612 C611 1.434 . S
C613 C614 1.369 . S
C613 C615 1.419 . S
C613 H617 0.930 . S
C614 C613 1.369 . S
C614 C623 1.429 . S
C615 C613 1.419 . S
C615 C616 1.363 . S
C615 H618 0.929 . S
C616 C615 1.363 . S
C616 C622 1.428 . S
H617 C613 0.930 . S
H618 C615 0.929 . S
S619 N620 1.613 . S
S619 N621 1.610 . S
N620 S619 1.613 . S
N620 C623 1.350 . S
N621 S619 1.610 . S
N621 C622 1.351 . S
C622 C616 1.428 . S
C622 N621 1.351 . S
C622 C623 1.434 . S
C623 C614 1.429 . S
C623 N620 1.350 . S
C623 C622 1.434 . S
C624 C625 1.369 . S
C624 C626 1.419 . S
C624 H628 0.930 . S
C625 C624 1.369 . S
C625 C634 1.429 . S
C626 C624 1.419 . S
C626 C627 1.363 . S
C626 H629 0.929 . S
C627 C626 1.363 . S
C627 C633 1.428 . S
H628 C624 0.930 . S
H629 C626 0.929 . S
S630 N631 1.613 . S
S630 N632 1.610 . S
N631 S630 1.613 . S
N631 C634 1.350 . S
N632 S630 1.610 . S
N632 C633 1.351 . S
C633 C627 1.428 . S
C633 N632 1.351 . S
C633 C634 1.434 . S
C634 C625 1.429 . S
C634 N631 1.350 . S
C634 C633 1.434 . S
C635 C636 1.369 1_455 S
C635 C637 1.419 . S
C635 H639 0.930 . S
C636 C635 1.369 1_655 S
C636 C645 1.429 . S
C637 C635 1.419 . S
C637 C638 1.363 1_455 S
C637 H640 0.929 . S
C638 C637 1.363 1_655 S
C638 C644 1.428 . S
H639 C635 0.930 . S
H640 C637 0.929 . S
S641 N642 1.613 . S
S641 N643 1.610 . S
N642 S641 1.613 . S
N642 C645 1.350 . S
N643 S641 1.610 . S
N643 C644 1.351 . S
C644 C638 1.428 . S
C644 N643 1.351 . S
C644 C645 1.434 . S
C645 C636 1.429 . S
C645 N642 1.350 . S
C645 C644 1.434 . S
C646 C647 1.369 . S
C646 C648 1.419 . S
C646 H650 0.930 . S
C647 C646 1.369 . S
C647 C656 1.429 . S
C648 C646 1.419 . S
C648 C649 1.363 . S
C648 H651 0.929 . S
C649 C648 1.363 . S
C649 C655 1.428 . S
H650 C646 0.930 . S
H651 C648 0.929 . S
S652 N653 1.613 . S
S652 N654 1.610 . S
N653 S652 1.613 . S
N653 C656 1.350 . S
N654 S652 1.610 . S
N654 C655 1.351 . S
C655 C649 1.428 . S
C655 N654 1.351 . S
C655 C656 1.434 . S
C656 C647 1.429 . S
C656 N653 1.350 . S
C656 C655 1.434 . S
C657 C658 1.369 . S
C657 C659 1.419 . S
C657 H661 0.930 . S
C658 C657 1.369 . S
C658 C667 1.429 . S
C659 C657 1.419 . S
C659 C660 1.363 . S
C659 H662 0.929 . S
C660 C659 1.363 . S
C660 C666 1.428 . S
H661 C657 0.930 . S
H662 C659 0.929 . S
S663 N664 1.613 . S
S663 N665 1.610 . S
N664 S663 1.613 . S
N664 C667 1.350 . S
N665 S663 1.610 . S
N665 C666 1.351 . S
C666 C660 1.428 . S
C666 N665 1.351 . S
C666 C667 1.434 . S
C667 C658 1.429 . S
C667 N664 1.350 . S
C667 C666 1.434 . S
C668 C669 1.369 . S
C668 C670 1.419 . S
C668 H672 0.930 . S
C669 C668 1.369 . S
C669 C678 1.429 . S
C670 C668 1.419 . S
C670 C671 1.363 . S
C670 H673 0.929 . S
C671 C670 1.363 . S
C671 C677 1.428 . S
H672 C668 0.930 . S
H673 C670 0.929 . S
S674 N675 1.613 . S
S674 N676 1.610 . S
N675 S674 1.613 . S
N675 C678 1.350 . S
N676 S674 1.610 . S
N676 C677 1.351 . S
C677 C671 1.428 . S
C677 N676 1.351 . S
C677 C678 1.434 . S
C678 C669 1.429 . S
C678 N675 1.350 . S
C678 C677 1.434 . S
C679 C680 1.369 . S
C679 C681 1.419 . S
C679 H683 0.930 . S
C680 C679 1.369 . S
C680 C689 1.429 . S
C681 C679 1.419 . S
C681 C682 1.363 . S
C681 H684 0.929 . S
C682 C681 1.363 . S
C682 C688 1.428 . S
H683 C679 0.930 . S
H684 C681 0.929 . S
S685 N686 1.613 . S
S685 N687 1.610 . S
N686 S685 1.613 . S
N686 C689 1.350 . S
N687 S685 1.610 . S
N687 C688 1.351 . S
C688 C682 1.428 . S
C688 N687 1.351 . S
C688 C689 1.434 . S
C689 C680 1.429 . S
C689 N686 1.350 . S
C689 C688 1.434 . S
C690 C691 1.369 . S
C690 C692 1.419 . S
C690 H694 0.930 . S
C691 C690 1.369 . S
C691 C700 1.429 . S
C692 C690 1.419 . S
C692 C693 1.363 . S
C692 H695 0.929 . S
C693 C692 1.363 . S
C693 C699 1.428 . S
H694 C690 0.930 . S
H695 C692 0.929 . S
S696 N697 1.613 . S
S696 N698 1.610 . S
N697 S696 1.613 . S
N697 C700 1.350 . S
N698 S696 1.610 . S
N698 C699 1.351 . S
C699 C693 1.428 . S
C699 N698 1.351 . S
C699 C700 1.434 . S
C700 C691 1.429 . S
C700 N697 1.350 . S
C700 C699 1.434 . S
C701 C702 1.369 . S
C701 C703 1.419 . S
C701 H705 0.930 . S
C702 C701 1.369 . S
C702 C711 1.429 . S
C703 C701 1.419 . S
C703 C704 1.363 . S
C703 H706 0.929 . S
C704 C703 1.363 . S
C704 C710 1.428 . S
H705 C701 0.930 . S
H706 C703 0.929 . S
S707 N708 1.613 . S
S707 N709 1.610 . S
N708 S707 1.613 . S
N708 C711 1.350 . S
N709 S707 1.610 . S
N709 C710 1.351 . S
C710 C704 1.428 . S
C710 N709 1.351 . S
C710 C711 1.434 . S
C711 C702 1.429 . S
C711 N708 1.350 . S
C711 C710 1.434 . S
C449 C1 1.434 . S
C451 C303 1.433 . S
C460 C67 1.492 . S
C462 C343 1.509 . S
C473 C377 2.362 . S
C471 C97 2.361 . S
C482 C133 2.664 . S
C484 C418 2.608 . S
C495 C338 1.636 . S
C493 C25 1.553 . S
C506 C298 2.351 . S
C504 C37 2.185 . S
C517 C426 1.717 . S
C515 C103 1.706 . S
C528 C387 1.889 . S
C526 C109 1.954 . S
C537 C31 1.722 . S
C539 C423 1.727 . S
C550 C346 2.049 . S
C548 C73 2.121 . S
C559 C139 2.464 . S
C561 C306 2.403 . S
C570 C61 1.718 . S
C572 C374 1.793 . S
C583 C294 1.428 . S
C581 C175 1.377 . S
C592 C181 1.445 . S
C594 C334 1.495 . S
C603 C247 2.365 . S
C605 C386 2.384 . S
C614 C277 2.642 . S
C616 C427 2.602 . S
C625 C145 1.471 . S
C627 C347 1.620 . S
C638 C307 2.357 . S
C636 C211 2.178 . S
C649 C417 1.710 . S
C647 C217 1.674 . S
C660 C378 1.904 . S
C658 C283 1.950 . S
C669 C169 1.598 . S
C671 C414 1.719 . S
C682 C337 2.062 . S
C680 C241 2.120 . S
C693 C297 2.387 . S
C691 C253 2.471 . S
C702 C205 1.749 . S
C704 C383 1.799 . S
