# Generated by pormake.
# Topology zzz, (3,6)-cn, num edge types: 1
# Building blocks:
#     Node 0, Type 0, BuildingBlock: KAKCAD_clean_linker_0, # of connection points: 3
#     Node 1, Type 0, BuildingBlock: KAKCAD_clean_linker_0, # of connection points: 3
#     Node 2, Type 0, BuildingBlock: KAKCAD_clean_linker_0, # of connection points: 3
#     Node 3, Type 0, BuildingBlock: KAKCAD_clean_linker_0, # of connection points: 3
#     Node 4, Type 0, BuildingBlock: KAKCAD_clean_linker_0, # of connection points: 3
#     Node 5, Type 0, BuildingBlock: KAKCAD_clean_linker_0, # of connection points: 3
#     Node 6, Type 0, BuildingBlock: KAKCAD_clean_linker_0, # of connection points: 3
#     Node 7, Type 0, BuildingBlock: KAKCAD_clean_linker_0, # of connection points: 3
#     Node 8, Type 1, BuildingBlock: MIFKUJ_clean_sbu_0, # of connection points: 6
#     Node 9, Type 1, BuildingBlock: MIFKUJ_clean_sbu_0, # of connection points: 6
#     Node 10, Type 1, BuildingBlock: MIFKUJ_clean_sbu_0, # of connection points: 6
#     Node 11, Type 1, BuildingBlock: MIFKUJ_clean_sbu_0, # of connection points: 6
#     Edge 12, Type (0, 1), BuildingBlock: KIFKEQ_clean_linker_1, # of connection points: 2
#     Edge 13, Type (0, 1), BuildingBlock: KIFKEQ_clean_linker_1, # of connection points: 2
#     Edge 14, Type (0, 1), BuildingBlock: KIFKEQ_clean_linker_1, # of connection points: 2
#     Edge 15, Type (0, 1), BuildingBlock: KIFKEQ_clean_linker_1, # of connection points: 2
#     Edge 16, Type (0, 1), BuildingBlock: KIFKEQ_clean_linker_1, # of connection points: 2
#     Edge 17, Type (0, 1), BuildingBlock: KIFKEQ_clean_linker_1, # of connection points: 2
#     Edge 18, Type (0, 1), BuildingBlock: KIFKEQ_clean_linker_1, # of connection points: 2
#     Edge 19, Type (0, 1), BuildingBlock: KIFKEQ_clean_linker_1, # of connection points: 2
#     Edge 20, Type (0, 1), BuildingBlock: KIFKEQ_clean_linker_1, # of connection points: 2
#     Edge 21, Type (0, 1), BuildingBlock: KIFKEQ_clean_linker_1, # of connection points: 2
#     Edge 22, Type (0, 1), BuildingBlock: KIFKEQ_clean_linker_1, # of connection points: 2
#     Edge 23, Type (0, 1), BuildingBlock: KIFKEQ_clean_linker_1, # of connection points: 2
#     Edge 24, Type (0, 1), BuildingBlock: KIFKEQ_clean_linker_1, # of connection points: 2
#     Edge 25, Type (0, 1), BuildingBlock: KIFKEQ_clean_linker_1, # of connection points: 2
#     Edge 26, Type (0, 1), BuildingBlock: KIFKEQ_clean_linker_1, # of connection points: 2
#     Edge 27, Type (0, 1), BuildingBlock: KIFKEQ_clean_linker_1, # of connection points: 2
#     Edge 28, Type (0, 1), BuildingBlock: KIFKEQ_clean_linker_1, # of connection points: 2
#     Edge 29, Type (0, 1), BuildingBlock: KIFKEQ_clean_linker_1, # of connection points: 2
#     Edge 30, Type (0, 1), BuildingBlock: KIFKEQ_clean_linker_1, # of connection points: 2
#     Edge 31, Type (0, 1), BuildingBlock: KIFKEQ_clean_linker_1, # of connection points: 2
#     Edge 32, Type (0, 1), BuildingBlock: KIFKEQ_clean_linker_1, # of connection points: 2
#     Edge 33, Type (0, 1), BuildingBlock: KIFKEQ_clean_linker_1, # of connection points: 2
#     Edge 34, Type (0, 1), BuildingBlock: KIFKEQ_clean_linker_1, # of connection points: 2
#     Edge 35, Type (0, 1), BuildingBlock: KIFKEQ_clean_linker_1, # of connection points: 2
# Relax obj value: 0.308
# Max RMSD: 0.213
# Mean RMSD: 0.191
data_MOF--net-zzz--node1-MIFKUJ_clean_sbu_0--node2-KAKCAD_clean_linker_0--edge1-KIFKEQ_clean_linker_1
_symmetry_space_group_name_H-M    P1
_symmetry_Int_Tables_number       1
_symmetry_cell_setting            triclinic
loop_
_symmetry_equiv_pos_as_xyz
'x, y, z'
_cell_length_a     57.856949
_cell_length_b     59.655487
_cell_length_c     21.640052
_cell_angle_alpha  89.389691
_cell_angle_beta   89.872622
_cell_angle_gamma 90.704125
loop_
_atom_site_label
_atom_site_type_symbol
_atom_site_fract_x
_atom_site_fract_y
_atom_site_fract_z
_atom_type_partial_charge
C0 C 0.81194 0.5124 0.95374 0.0
C1 C 0.82327 0.49308 0.97455 0.0
C2 C 0.79181 0.51944 0.98289 0.0
C3 C 0.78294 0.50747 0.034 0.0
C4 C 0.794 0.48787 0.05407 0.0
C5 C 0.81392 0.48056 0.02403 0.0
C6 C 0.76348 0.51667 0.06947 0.0
C7 C 0.74304 0.52298 0.03999 0.0
C8 C 0.72531 0.53348 0.07304 0.0
C9 C 0.72847 0.53818 0.13619 0.0
C10 C 0.74908 0.53196 0.16573 0.0
C11 C 0.76622 0.52089 0.13237 0.0
C12 C 0.75482 0.5388 0.22918 0.0
C13 C 0.76187 0.56102 0.2396 0.0
C14 C 0.75996 0.52222 0.27333 0.0
C15 C 0.77403 0.5273 0.32374 0.0
C16 C 0.78342 0.549 0.33033 0.0
C17 C 0.70362 0.53903 0.04038 0.0
C18 C 0.7046 0.54997 0.98265 0.0
C19 C 0.68225 0.53086 0.06238 0.0
C20 C 0.66253 0.53212 0.02514 0.0
C21 C 0.66387 0.54169 0.96544 0.0
C22 C 0.68493 0.55137 0.9457 0.0
C23 C 0.77613 0.56609 0.28981 0.0
H24 H 0.81883 0.52219 0.9153 0.0
H25 H 0.78369 0.53473 0.96707 0.0
H26 H 0.78743 0.47843 0.09352 0.0
H27 H 0.82244 0.46561 0.04068 0.0
H28 H 0.74087 0.51947 0.99126 0.0
H29 H 0.78241 0.51673 0.15474 0.0
H30 H 0.71525 0.54689 0.16172 0.0
H31 H 0.75836 0.57399 0.20557 0.0
H32 H 0.75497 0.50492 0.26556 0.0
H33 H 0.7794 0.51371 0.35382 0.0
H34 H 0.72084 0.55666 0.96501 0.0
H35 H 0.68111 0.52223 0.10661 0.0
H36 H 0.78288 0.58302 0.29419 0.0
H37 H 0.68643 0.55935 0.90065 0.0
H38 H 0.6466 0.52443 0.04168 0.0
C39 C 0.03911 0.79171 0.84711 0.0
C40 C 0.05437 0.80873 0.86668 0.0
C41 C 0.03293 0.77407 0.88675 0.0
C42 C 0.04189 0.77295 0.94696 0.0
C43 C 0.05835 0.78913 0.96516 0.0
C44 C 0.06448 0.80689 0.92546 0.0
C45 C 0.032 0.75655 0.99227 0.0
C46 C 0.02565 0.73482 0.97419 0.0
C47 C 0.01336 0.72036 0.01448 0.0
C48 C 0.00764 0.72767 0.07415 0.0
C49 C 0.01426 0.74927 0.09302 0.0
C50 C 0.02649 0.76346 0.05213 0.0
C51 C 0.00702 0.7585 0.15297 0.0
C52 C 0.98364 0.76299 0.16416 0.0
C53 C 0.02386 0.7671 0.19305 0.0
C54 C 0.01762 0.78129 0.24095 0.0
C55 C 0.99441 0.78736 0.24934 0.0
C56 C 0.0061 0.69796 0.99227 0.0
C57 C 0.995 0.69604 0.9349 0.0
C58 C 0.01194 0.67842 0.02508 0.0
C59 C 0.0079 0.6573 -0.00081 0.0
C60 C 0.99765 0.65543 0.9405 0.0
C61 C 0.99074 0.67502 0.90939 0.0
C62 C 0.97737 0.7774 0.21188 0.0
H63 H 0.03066 0.79278 0.80258 0.0
H64 H 0.01996 0.76214 0.87142 0.0
H65 H 0.06588 0.7885 0.01091 0.0
H66 H 0.07649 0.81961 0.94155 0.0
H67 H 0.0301 0.72918 0.92826 0.0
H68 H 0.03048 0.78048 0.06603 0.0
H69 H 0.99774 0.71684 0.10515 0.0
H70 H 0.97041 0.75673 0.1332 0.0
H71 H 0.04202 0.76404 0.18472 0.0
H72 H 0.03123 0.78882 0.26835 0.0
H73 H 0.9902 0.71088 0.90888 0.0
H74 H 0.02058 0.6795 0.06933 0.0
H75 H 0.95934 0.78162 0.21756 0.0
H76 H 0.98302 0.67418 0.86391 0.0
H77 H 0.01323 0.64247 0.02441 0.0
C78 C 0.69991 0.9866 0.91664 0.0
C79 C 0.67972 -0.00419 0.94153 0.0
C80 C 0.71959 0.98408 0.95305 0.0
C81 C 0.7195 0.9908 0.01504 0.0
C82 C 0.6998 0.00132 0.03873 0.0
C83 C 0.68008 0.00379 0.00233 0.0
C84 C 0.73901 0.98494 0.0562 0.0
C85 C 0.76194 0.9869 0.03588 0.0
C86 C 0.78031 0.97962 0.07325 0.0
C87 C 0.77555 0.97032 0.13218 0.0
C88 C 0.75256 0.96858 0.15297 0.0
C89 C 0.73455 0.97584 0.11488 0.0
C90 C 0.74608 0.95963 0.21438 0.0
C91 C 0.73485 0.93867 0.21823 0.0
C92 C 0.74397 0.97462 0.26342 0.0
C93 C 0.72877 0.9698 0.31226 0.0
C94 C 0.71539 0.94992 0.31257 0.0
C95 C 0.80405 0.98099 0.04762 0.0
C96 C 0.81753 0.96167 0.04259 0.0
C97 C 0.81174 0.00097 0.01902 0.0
C98 C 0.83153 0.00125 0.98212 0.0
C99 C 0.84406 0.98154 0.97288 0.0
C100 C 0.83743 0.96194 0.00545 0.0
C101 C 0.71972 0.93379 0.26713 0.0
H102 H 0.70025 0.98065 0.86954 0.0
H103 H 0.73443 0.97582 0.93348 0.0
H104 H 0.69938 0.00699 0.0861 0.0
H105 H 0.66478 0.01091 0.02285 0.0
H106 H 0.7655 -0.00626 0.99017 0.0
H107 H 0.71684 0.97389 0.13085 0.0
H108 H 0.78951 0.96459 0.16142 0.0
H109 H 0.73599 0.92702 0.18031 0.0
H110 H 0.75209 0.99107 0.26062 0.0
H111 H 0.72583 0.98268 0.34618 0.0
H112 H 0.81186 0.94602 0.06383 0.0
H113 H 0.80176 0.01615 0.02273 0.0
H114 H 0.71002 0.91815 0.26664 0.0
H115 H 0.84675 0.9465 -0.00079 0.0
H116 H 0.83653 0.01673 0.95881 0.0
C117 C 0.45895 0.71422 0.25766 0.0
C118 C 0.47947 0.70185 0.25257 0.0
C119 C 0.45185 0.72828 0.20934 0.0
C120 C 0.46547 0.73075 0.15603 0.0
C121 C 0.48724 0.72071 0.15416 0.0
C122 C 0.49417 0.70631 0.20183 0.0
C123 C 0.45454 0.73704 0.09701 0.0
C124 C 0.45971 0.75728 0.06605 0.0
C125 C 0.45218 0.76066 0.00477 0.0
C126 C 0.44012 0.74328 0.97464 0.0
C127 C 0.43531 0.72281 0.00501 0.0
C128 C 0.44167 0.72039 0.06714 0.0
C129 C 0.42701 0.70293 0.96992 0.0
C130 C 0.41135 0.705 0.92056 0.0
C131 C 0.43669 0.68182 0.98217 0.0
C132 C 0.43177 0.66361 0.9446 0.0
C133 C 0.41728 0.66597 0.89309 0.0
C134 C 0.45793 0.78172 0.97044 0.0
C135 C 0.45435 0.80274 -0.00271 0.0
C136 C 0.46617 0.78088 0.90935 0.0
C137 C 0.47013 0.80056 0.87525 0.0
C138 C 0.46592 0.8216 0.90134 0.0
C139 C 0.4582 0.82248 0.96299 0.0
C140 C 0.40661 0.68671 0.8823 0.0
H141 H 0.44751 0.71178 0.29687 0.0
H142 H 0.43486 0.73567 0.21134 0.0
H143 H 0.4978 0.72205 0.11282 0.0
H144 H 0.51001 0.69712 0.19573 0.0
H145 H 0.47022 0.76991 0.08866 0.0
H146 H 0.43803 0.70475 0.0915 0.0
H147 H 0.43531 0.74542 0.92662 0.0
H148 H 0.40332 0.72091 0.91029 0.0
H149 H 0.44929 0.67954 0.01853 0.0
H150 H 0.44076 0.64809 0.95349 0.0
H151 H 0.44796 0.80389 0.04424 0.0
H152 H 0.46942 0.76495 0.88764 0.0
H153 H 0.39528 0.68899 0.84302 0.0
H154 H 0.45506 0.83844 0.98467 0.0
H155 H 0.47591 0.79925 0.82781 0.0
C156 C 0.19755 0.51581 0.23633 0.0
C157 C 0.17551 0.50632 0.22747 0.0
C158 C 0.21684 0.50676 0.20715 0.0
C159 C 0.21448 0.4878 0.16936 0.0
C160 C 0.19236 0.47822 0.16134 0.0
C161 C 0.17308 0.48749 0.18965 0.0
C162 C 0.23485 0.47823 0.13743 0.0
C163 C 0.25657 0.4776 0.166 0.0
C164 C 0.27594 0.46898 0.13513 0.0
C165 C 0.27328 0.46028 0.07522 0.0
C166 C 0.25155 0.46074 0.04662 0.0
C167 C 0.23263 0.46984 0.07757 0.0
C168 C 0.24761 0.4529 0.98325 0.0
C169 C 0.24778 0.46877 0.93506 0.0
C170 C 0.23637 0.4322 0.97471 0.0
C171 C 0.22327 0.42846 0.92151 0.0
C172 C 0.22094 0.44553 0.87661 0.0
C173 C 0.29872 0.46956 0.16645 0.0
C174 C 0.30563 0.48892 0.19821 0.0
C175 C 0.31282 0.45055 0.16902 0.0
C176 C 0.33281 0.45058 0.20554 0.0
C177 C 0.33894 0.46961 0.24 0.0
C178 C 0.32547 0.48894 0.23457 0.0
C179 C 0.23458 0.46513 0.88206 0.0
H180 H 0.19981 0.53035 0.26537 0.0
H181 H 0.23353 0.51479 0.21362 0.0
H182 H 0.18991 0.46334 0.13379 0.0
H183 H 0.15632 0.47958 0.1832 0.0
H184 H 0.25839 0.48353 0.21291 0.0
H185 H 0.21615 0.47073 0.05394 0.0
H186 H 0.28801 0.45368 0.05065 0.0
H187 H 0.25599 0.48501 0.94137 0.0
H188 H 0.23578 0.41987 0.01182 0.0
H189 H 0.21339 0.41299 0.91811 0.0
H190 H 0.29538 0.50399 0.196 0.0
H191 H 0.30786 0.43539 0.14508 0.0
H192 H 0.23318 0.47871 0.84875 0.0
H193 H 0.33007 0.50404 0.25931 0.0
H194 H 0.34291 0.43545 0.20884 0.0
C195 C 0.91224 0.17742 0.25471 0.0
C196 C 0.92266 0.17223 0.3118 0.0
C197 C 0.92046 0.1954 0.21861 0.0
C198 C 0.93876 0.2089 0.2397 0.0
C199 C 0.94778 0.20507 0.2988 0.0
C200 C 0.93998 0.18683 0.33428 0.0
C201 C 0.95098 0.22445 0.19704 0.0
C202 C 0.95473 0.24692 0.21234 0.0
C203 C 0.96891 0.26085 0.17507 0.0
C204 C 0.97962 0.25193 0.12234 0.0
C205 C 0.97606 0.2293 0.10725 0.0
C206 C 0.96145 0.21586 0.14423 0.0
C207 C 0.98797 0.21878 0.05472 0.0
C208 C 0.98362 0.22574 0.9938 0.0
C209 C 0.00082 0.19932 0.06525 0.0
C210 C 0.00754 0.18598 0.01605 0.0
C211 C 0.00147 0.19178 0.95513 0.0
C212 C 0.97357 0.28415 0.19476 0.0
C213 C 0.95518 0.29792 0.2119 0.0
C214 C 0.99637 0.29187 0.20303 0.0
C215 C 0.00067 0.3125 0.23119 0.0
C216 C 0.98224 0.32587 0.25072 0.0
C217 C 0.95946 0.31864 0.23928 0.0
C218 C 0.99029 0.2123 0.94429 0.0
H219 H 0.89846 0.16702 0.23646 0.0
H220 H 0.91322 0.19819 0.17309 0.0
H221 H 0.96211 0.21515 0.3156 0.0
H222 H 0.9488 0.18338 0.37731 0.0
H223 H 0.94718 0.25336 0.25439 0.0
H224 H 0.95892 0.1983 0.13314 0.0
H225 H 0.99099 0.26238 0.09407 0.0
H226 H 0.97369 0.2407 0.98471 0.0
H227 H 0.00441 0.19369 0.112 0.0
H228 H 0.01593 0.17025 0.02639 0.0
H229 H 0.93744 0.29233 0.20586 0.0
H230 H 0.01083 0.28146 0.19061 0.0
H231 H 0.98566 0.21739 0.8978 0.0
H232 H 0.94492 0.32849 0.25423 0.0
H233 H 0.0184 0.31777 0.23905 0.0
C234 C 0.30232 0.00263 0.20671 0.0
C235 C 0.32154 0.01728 0.20659 0.0
C236 C 0.28227 0.00827 0.1745 0.0
C237 C 0.28111 0.02865 0.14157 0.0
C238 C 0.30012 0.04349 0.14264 0.0
C239 C 0.32009 0.03789 0.17484 0.0
C240 C 0.2607 0.0339 0.10315 0.0
C241 C 0.23824 0.03023 0.1254 0.0
C242 C 0.21891 0.03429 0.08763 0.0
C243 C 0.22232 0.04214 0.0265 0.0
C244 C 0.24489 0.04595 0.00424 0.0
C245 C 0.26382 0.04192 0.04282 0.0
C246 C 0.2501 0.05202 0.93948 0.0
C247 C 0.25118 0.03479 0.89606 0.0
C248 C 0.26167 0.0724 0.92709 0.0
C249 C 0.27649 0.07446 0.87622 0.0
C250 C 0.28015 0.05605 0.83744 0.0
C251 C 0.19549 0.03034 0.11387 0.0
C252 C 0.19107 0.01096 0.14967 0.0
C253 C 0.17844 0.04689 0.10998 0.0
C254 C 0.15808 0.04478 0.14496 0.0
C255 C 0.15458 0.02613 0.18434 0.0
C256 C 0.1709 0.00892 0.18465 0.0
C257 C 0.26612 0.03677 0.84535 0.0
H258 H 0.30297 0.98659 0.23052 0.0
H259 H 0.26795 -0.00359 0.17384 0.0
H260 H 0.29955 0.05946 0.11838 0.0
H261 H 0.33437 0.0498 0.17518 0.0
H262 H 0.23582 0.02451 0.17273 0.0
H263 H 0.2812 0.04417 0.02461 0.0
H264 H 0.20766 0.0449 0.99639 0.0
H265 H 0.24271 0.0188 0.90534 0.0
H266 H 0.26125 0.08581 0.96044 0.0
H267 H 0.28663 0.08972 0.87057 0.0
H268 H 0.20371 -0.00226 0.15258 0.0
H269 H 0.18145 0.06202 0.08289 0.0
H270 H 0.26848 0.02224 0.81656 0.0
H271 H 0.16839 -0.00585 0.21357 0.0
H272 H 0.14573 0.05827 0.14386 0.0
C273 C 0.51043 0.28678 0.99355 0.0
C274 C 0.52615 0.29688 0.95165 0.0
C275 C 0.5184 0.27337 0.04243 0.0
C276 C 0.54218 0.27001 0.0503 0.0
C277 C 0.55769 0.27872 0.00606 0.0
C278 C 0.54977 0.29192 0.9571 0.0
C279 C 0.55119 0.26203 0.11032 0.0
C280 C 0.54675 0.24027 0.13314 0.0
C281 C 0.55506 0.23377 0.19181 0.0
C282 C 0.56713 0.24955 0.22786 0.0
C283 C 0.57106 0.2715 0.20604 0.0
C284 C 0.56338 0.27738 0.14677 0.0
C285 C 0.58041 0.28924 0.24706 0.0
C286 C 0.57208 0.29101 0.30784 0.0
C287 C 0.59487 0.30638 0.22315 0.0
C288 C 0.59897 0.32586 0.2569 0.0
C289 C 0.58883 0.32848 0.31537 0.0
C290 C 0.55047 0.21094 0.21744 0.0
C291 C 0.5283 0.20112 0.21429 0.0
C292 C 0.56799 0.19941 0.24897 0.0
C293 C 0.56331 0.1789 0.27837 0.0
C294 C 0.54097 0.1694 0.27705 0.0
C295 C 0.52358 0.1806 0.24398 0.0
C296 C 0.57629 0.31042 0.34169 0.0
H297 H 0.49211 0.2901 0.99024 0.0
H298 H 0.50617 0.26703 0.07656 0.0
H299 H 0.57614 0.27654 0.01175 0.0
H300 H 0.56242 0.29959 0.92627 0.0
H301 H 0.53714 0.22845 0.10512 0.0
H302 H 0.56563 0.29447 0.13001 0.0
H303 H 0.57286 0.24495 0.27388 0.0
H304 H 0.56074 0.27823 0.32753 0.0
H305 H 0.60194 0.30529 0.1769 0.0
H306 H 0.60898 0.33939 0.23586 0.0
H307 H 0.51441 0.20967 0.19068 0.0
H308 H 0.5853 0.20645 0.25172 0.0
H309 H 0.56804 0.31198 0.3864 0.0
H310 H 0.50625 0.17358 0.24147 0.0
H311 H 0.57706 0.17085 0.30381 0.0
Zn312 Zn -0.00033 0.02098 0.60565 0.0
Zn313 Zn 0.99125 0.97116 0.54075 0.0
C314 C 0.99307 0.05342 0.69648 0.0
O315 O 0.97254 0.0438 0.69401 0.0
C316 C 0.99751 0.93419 0.46649 0.0
O317 O 0.01862 0.94147 0.47753 0.0
O318 O 0.97297 0.03522 0.56017 0.0
O319 O 0.02621 0.01646 0.54679 0.0
O320 O 0.01146 0.99055 0.48544 0.0
C321 C 0.96421 0.03083 0.50783 0.0
O322 O 0.97202 0.01401 0.4757 0.0
O323 O 0.00925 0.04568 0.6634 0.0
C324 C 0.0012 0.93819 0.62612 0.0
O325 O 0.97935 0.93454 0.61258 0.0
O326 O 0.01136 0.95538 0.60321 0.0
O327 O 0.96394 0.98335 0.58811 0.0
O328 O 0.98797 -0.00456 0.65888 0.0
O329 O 0.98061 0.94548 0.48668 0.0
C330 C 0.02631 0.00587 0.49613 0.0
C331 C 0.96815 0.98783 0.64435 0.0
Zn332 Zn 0.47556 0.00708 0.60553 0.0
Zn333 Zn 0.51923 0.98337 0.56035 0.0
C334 C 0.43008 0.01053 0.64801 0.0
O335 O 0.43062 0.98991 0.62732 0.0
C336 C 0.56481 0.98146 0.51857 0.0
O337 O 0.56339 0.00187 0.54039 0.0
O338 O 0.46177 -0.00284 0.52495 0.0
O339 O 0.50037 0.0303 0.58528 0.0
O340 O 0.51141 0.00996 0.5068 0.0
C341 C 0.45441 0.01329 0.49192 0.0
O342 O 0.45774 0.03393 0.51083 0.0
O343 O 0.44858 0.02228 0.64653 0.0
C344 C 0.54047 0.97871 0.67504 0.0
O345 O 0.5376 0.95775 0.65834 0.0
O346 O 0.53254 -0.00583 0.64059 0.0
O347 O 0.495 0.95969 0.58107 0.0
O348 O 0.48284 0.98007 0.65839 0.0
O349 O 0.5468 0.96898 0.51949 0.0
C350 C 0.50903 0.02906 0.53134 0.0
C351 C 0.48604 0.96094 0.63467 0.0
Zn352 Zn 0.50033 0.47669 0.63516 0.0
Zn353 Zn 0.50726 0.52066 0.56016 0.0
C354 C 0.51306 0.43958 0.70725 0.0
O355 O 0.53315 0.4488 0.69298 0.0
C356 C 0.49762 0.55215 0.46625 0.0
O357 O 0.4784 0.5402 0.46779 0.0
O358 O 0.52353 0.46583 0.57278 0.0
O359 O 0.47082 0.48418 0.59003 0.0
O360 O 0.49144 0.49644 0.51103 0.0
C361 C 0.5165 0.44993 0.53877 0.0
O362 O 0.49502 0.44276 0.54417 0.0
O363 O 0.49473 0.44927 0.68944 0.0
C364 C 0.49054 0.55377 0.63547 0.0
O365 O 0.51157 0.56078 0.6217 0.0
O366 O 0.48392 0.53464 0.61667 0.0
O367 O 0.5358 0.51425 0.61088 0.0
O368 O 0.51538 0.50014 0.68821 0.0
O369 O 0.5144 0.54617 0.50026 0.0
C370 C 0.47276 0.48795 0.53228 0.0
C371 C 0.53344 0.51026 0.66846 0.0
Zn372 Zn 0.03107 0.48842 0.60637 0.0
Zn373 Zn 0.97033 0.50025 0.57872 0.0
C374 C 0.0773 0.48751 0.65314 0.0
O375 O 0.07639 0.50874 0.63664 0.0
C376 C 0.93143 0.52785 0.55693 0.0
O377 O 0.93421 0.53104 0.61646 0.0
O378 O 0.044 0.50989 0.54227 0.0
O379 O 0.01557 0.46286 0.56179 0.0
O380 O 0.98083 0.47357 0.53064 0.0
C381 C 0.03748 0.51124 0.48637 0.0
O382 O 0.01902 0.50003 0.46885 0.0
O383 O 0.05941 0.47516 0.64648 0.0
C384 C 0.95867 0.47898 0.7019 0.0
O385 O 0.98067 0.47582 0.71315 0.0
O386 O 0.95236 0.48822 0.65166 0.0
O387 O 0.99293 0.52418 0.60653 0.0
O388 O 0.01442 0.50548 0.67226 0.0
O389 O 0.94581 0.51573 0.52835 0.0
C390 C 0.99728 0.45964 0.5305 0.0
C391 C 0.00188 0.52223 0.65979 0.0
H392 H 0.1567 0.01683 0.30714 0.0
H393 H 0.10859 0.03362 0.1621 0.0
H394 H 0.12495 0.014 0.3811 0.0
H395 H 0.07659 0.03086 0.23667 0.0
H396 H 0.02752 0.99202 0.37614 0.0
H397 H 0.05776 -0.00083 0.29946 0.0
H398 H 0.09571 0.03875 0.43175 0.0
H399 H 0.06548 0.03167 0.50872 0.0
C400 C 0.13928 0.0199 0.29113 0.0
C401 C 0.13505 0.02522 0.22879 0.0
C402 C 0.12114 0.01851 0.3336 0.0
C403 C 0.09831 0.02224 0.31466 0.0
C404 C 0.09403 0.02779 0.2524 0.0
C405 C 0.11229 0.02947 0.20989 0.0
C406 C 0.04225 0.00236 0.38888 0.0
C407 C 0.04417 0.01114 0.44878 0.0
C408 C 0.05946 0.00658 0.34473 0.0
C409 C 0.07909 0.01947 0.35969 0.0
C410 C 0.08084 0.0286 0.41914 0.0
C411 C 0.06349 0.02459 0.46313 0.0
H412 H 0.56741 0.13174 0.28587 0.0
H413 H 0.5029 0.15947 0.34813 0.0
H414 H 0.56006 0.09817 0.34841 0.0
H415 H 0.49515 0.12553 0.40901 0.0
H416 H 0.52755 0.03198 0.41536 0.0
H417 H 0.53464 0.06554 0.35294 0.0
H418 H 0.50951 0.10646 0.50163 0.0
H419 H 0.50196 0.07278 0.56389 0.0
C420 C 0.55162 0.13064 0.31274 0.0
C421 C 0.53577 0.14832 0.31205 0.0
C422 C 0.5473 0.1113 0.34817 0.0
C423 C 0.52703 0.10917 0.38386 0.0
C424 C 0.51106 0.12675 0.38265 0.0
C425 C 0.51536 0.14608 0.34709 0.0
C426 C 0.52356 0.04812 0.43491 0.0
C427 C 0.51418 0.04967 0.4947 0.0
C428 C 0.52774 0.06739 0.39914 0.0
C429 C 0.52263 0.0887 0.42222 0.0
C430 C 0.51336 0.09028 0.48216 0.0
C431 C 0.50921 0.07098 0.51804 0.0
H432 H 0.38264 0.45352 0.22118 0.0
H433 H 0.33962 0.48488 0.35792 0.0
H434 H 0.41539 0.45501 0.29271 0.0
H435 H 0.37225 0.48686 0.42843 0.0
H436 H 0.42986 0.471 0.56143 0.0
H437 H 0.39782 0.4635 0.49114 0.0
H438 H 0.4403 0.48483 0.33649 0.0
H439 H 0.47241 0.49203 0.40641 0.0
C440 C 0.38016 0.46057 0.2666 0.0
C441 C 0.35866 0.46929 0.28374 0.0
C442 C 0.39891 0.46158 0.30734 0.0
C443 C 0.39642 0.47111 0.36618 0.0
C444 C 0.37471 0.47922 0.38375 0.0
C445 C 0.35608 0.47833 0.34304 0.0
C446 C 0.43242 0.47393 0.5124 0.0
C447 C 0.45364 0.48228 0.48963 0.0
C448 C 0.41405 0.4697 0.47216 0.0
C449 C 0.4165 0.47366 0.40827 0.0
C450 C 0.43793 0.48138 0.38535 0.0
C451 C 0.45627 0.48567 0.42556 0.0
H452 H 0.01142 0.3309 0.34841 0.0
H453 H 0.96233 0.36693 0.2364 0.0
H454 H 0.01553 0.3632 0.41558 0.0
H455 H 0.96685 0.39957 0.3025 0.0
H456 H 0.9589 0.44291 0.47274 0.0
H457 H 0.95643 0.41114 0.4034 0.0
H458 H 0.02979 0.40052 0.42426 0.0
H459 H 0.03209 0.43181 0.49537 0.0
C460 C 0.00188 0.34594 0.33742 0.0
C461 C 0.98653 0.3464 0.28724 0.0
C462 C 0.00422 0.36448 0.37593 0.0
C463 C 0.9914 0.38399 0.36484 0.0
C464 C 0.97661 0.38467 0.3133 0.0
C465 C 0.97411 0.36604 0.27515 0.0
C466 C 0.9745 0.43375 0.46271 0.0
C467 C 0.99567 0.43987 0.4898 0.0
C468 C 0.97313 0.41563 0.42246 0.0
C469 C 0.99294 0.4033 0.40778 0.0
C470 C 0.01411 0.40941 0.43507 0.0
C471 C 0.01545 0.42742 0.47579 0.0
H472 H 0.8428 -0.00054 0.85686 0.0
H473 H 0.88694 0.96237 0.98079 0.0
H474 H 0.87284 -0.00066 0.77799 0.0
H475 H 0.91705 0.96188 0.90093 0.0
H476 H 0.97307 -0.00722 0.76893 0.0
H477 H 0.94328 0.98964 0.8484 0.0
H478 H 0.89276 0.97289 0.70918 0.0
H479 H 0.92256 0.97618 0.62931 0.0
C480 C 0.859 0.99135 0.86734 0.0
C481 C 0.86261 0.98114 0.92534 0.0
C482 C 0.8761 0.99103 0.82181 0.0
C483 C 0.89729 0.98056 0.83314 0.0
C484 C 0.90092 0.97022 0.89102 0.0
C485 C 0.88368 0.97038 0.93657 0.0
C486 C 0.95564 0.9883 0.75519 0.0
C487 C 0.95016 0.98485 0.69265 0.0
C488 C 0.93861 0.98636 0.80087 0.0
C489 C 0.91567 0.98106 0.78507 0.0
C490 C 0.91025 0.97723 0.72269 0.0
C491 C 0.92733 0.97903 0.67698 0.0
H492 H 0.43748 0.85789 0.8956 0.0
H493 H 0.50111 0.83229 0.82099 0.0
H494 H 0.44153 0.89125 0.83021 0.0
H495 H 0.50527 0.86571 0.75589 0.0
H496 H 0.49334 0.91724 0.60232 0.0
H497 H 0.4881 0.88372 0.66668 0.0
H498 H 0.46486 0.92471 0.81748 0.0
H499 H 0.46953 0.95807 0.75288 0.0
C500 C 0.45249 0.85951 0.86582 0.0
C501 C 0.46897 0.84241 0.86353 0.0
C502 C 0.4548 0.87863 0.82822 0.0
C503 C 0.47369 0.88115 0.78754 0.0
C504 C 0.49028 0.86414 0.78577 0.0
C505 C 0.48794 0.84501 0.82325 0.0
C506 C 0.48695 0.91908 0.64906 0.0
C507 C 0.48186 0.94036 0.67236 0.0
C508 C 0.48413 0.89987 0.68615 0.0
C509 C 0.47615 0.9015 0.74742 0.0
C510 C 0.47077 0.92277 0.77034 0.0
C511 C 0.47357 0.94195 0.73329 0.0
H512 H 0.66558 0.53124 0.84319 0.0
H513 H 0.61751 0.54711 0.98891 0.0
H514 H 0.63363 0.52567 0.77228 0.0
H515 H 0.58531 0.54153 0.91742 0.0
H516 H 0.53549 0.50109 0.79239 0.0
H517 H 0.56633 0.51074 0.86406 0.0
H518 H 0.6035 0.54476 0.71646 0.0
H519 H 0.57285 0.5347 0.64436 0.0
C520 C 0.64819 0.53399 0.85983 0.0
C521 C 0.64414 0.53975 0.92175 0.0
C522 C 0.62983 0.53077 0.81906 0.0
C523 C 0.60689 0.53319 0.83904 0.0
C524 C 0.60278 0.53926 0.90074 0.0
C525 C 0.62121 0.54249 0.94168 0.0
C526 C 0.55018 0.51073 0.77521 0.0
C527 C 0.55177 0.51698 0.71248 0.0
C528 C 0.56781 0.5164 0.81648 0.0
C529 C 0.58743 0.52849 0.79604 0.0
C530 C 0.58878 0.53515 0.73355 0.0
C531 C 0.57117 0.52945 0.69224 0.0
H532 H 0.03043 0.62305 0.93344 0.0
H533 H 0.96104 0.63847 0.87517 0.0
H534 H 0.02971 0.58956 0.8701 0.0
H535 H 0.9601 0.60472 0.81241 0.0
H536 H 0.98036 0.56245 0.64439 0.0
H537 H 0.9776 0.59283 0.71803 0.0
H538 H 0.0136 0.55287 0.85402 0.0
H539 H 0.01695 0.52269 0.77962 0.0
C540 C 0.01479 0.61897 0.90829 0.0
C541 C 0.99584 0.63346 0.90905 0.0
C542 C 0.01437 0.59975 0.87188 0.0
C543 C 0.99492 0.59451 0.8356 0.0
C544 C 0.97555 0.60849 0.8387 0.0
C545 C 0.97603 0.62777 0.87486 0.0
C546 C 0.98763 0.5601 0.69005 0.0
C547 C -0.00089 0.54022 0.70582 0.0
C548 C 0.98587 0.57747 0.73256 0.0
C549 C 0.99542 0.57536 0.79205 0.0
C550 C 0.00637 0.55522 0.80833 0.0
C551 C 0.00822 0.53788 0.7657 0.0
H552 H 0.92359 0.16256 0.43661 0.0
H553 H 0.91127 0.1317 0.25953 0.0
H554 H 0.92682 0.1259 0.48396 0.0
H555 H 0.91179 0.09509 0.30825 0.0
H556 H 0.95929 0.04006 0.38537 0.0
H557 H 0.94134 0.07267 0.33974 0.0
H558 H 0.91522 0.09128 0.51948 0.0
H559 H 0.93479 0.05925 0.56548 0.0
C560 C 0.92101 0.148 0.40788 0.0
C561 C 0.91802 0.1503 0.34366 0.0
C562 C 0.92241 0.12679 0.43544 0.0
C563 C 0.9202 0.10727 0.39977 0.0
C564 C 0.91446 0.10965 0.33694 0.0
C565 C 0.91369 0.13084 0.30906 0.0
C566 C 0.94928 0.05085 0.41488 0.0
C567 C 0.94875 0.04737 0.47902 0.0
C568 C 0.93877 0.0696 0.38865 0.0
C569 C 0.92703 0.08505 0.42588 0.0
C570 C 0.92469 0.08025 0.48947 0.0
C571 C 0.93571 0.06177 0.51586 0.0
H572 H 0.32541 -0.00229 0.32095 0.0
H573 H 0.36614 0.02363 0.16793 0.0
H574 H 0.36062 0.99212 0.38055 0.0
H575 H 0.40133 0.01825 0.22792 0.0
H576 H 0.44531 0.04221 0.39806 0.0
H577 H 0.41506 0.03874 0.32076 0.0
H578 H 0.3986 0.97202 0.38839 0.0
H579 H 0.42903 0.97555 0.46634 0.0
C580 C 0.3419 0.00175 0.29955 0.0
C581 C 0.34298 0.01143 0.24013 0.0
C582 C 0.36208 -0.00152 0.33361 0.0
C583 C 0.38368 0.00488 0.30892 0.0
C584 C 0.38486 0.01344 0.24831 0.0
C585 C 0.36472 0.01663 0.21419 0.0
C586 C 0.43557 0.02662 0.39558 0.0
C587 C 0.43933 0.00923 0.43843 0.0
C588 C 0.41835 0.02456 0.35106 0.0
C589 C 0.4044 0.00515 0.34888 0.0
C590 C 0.40902 0.98723 0.38949 0.0
C591 C 0.42649 0.98919 0.43371 0.0
H592 H 0.59445 0.33924 0.43746 0.0
H593 H 0.57951 0.36818 0.25831 0.0
H594 H 0.58225 0.37389 0.48661 0.0
H595 H 0.5676 0.40273 0.30741 0.0
H596 H 0.50606 0.42927 0.43171 0.0
H597 H 0.53052 0.40425 0.37286 0.0
H598 H 0.58721 0.41746 0.49729 0.0
H599 H 0.56266 0.44302 0.5559 0.0
C600 C 0.58926 0.35323 0.40857 0.0
C601 C 0.58768 0.35089 0.34414 0.0
C602 C 0.58245 0.3731 0.43662 0.0
C603 C 0.57376 0.39084 0.4007 0.0
C604 C 0.57411 0.38922 0.33606 0.0
C605 C 0.5811 0.36947 0.30801 0.0
C606 C 0.5239 0.42723 0.4456 0.0
C607 C 0.5325 0.43795 0.49827 0.0
C608 C 0.53795 0.41305 0.41175 0.0
C609 C 0.56075 0.40898 0.43057 0.0
C610 C 0.56969 0.42039 0.48188 0.0
C611 C 0.55572 0.43503 0.5151 0.0
H612 H 0.17135 0.51463 0.35008 0.0
H613 H 0.13374 0.51731 0.17832 0.0
H614 H 0.13624 0.52307 0.40657 0.0
H615 H 0.09856 0.52682 0.23432 0.0
H616 H 0.03944 0.50112 0.36403 0.0
H617 H 0.07247 0.50646 0.29625 0.0
H618 H 0.10623 0.54688 0.43502 0.0
H619 H 0.07347 0.54046 0.50422 0.0
C620 C 0.15564 0.51774 0.32435 0.0
C621 C 0.15512 0.51509 0.26009 0.0
C622 C 0.13547 0.52273 0.35662 0.0
C623 C 0.11439 0.5255 0.32515 0.0
C624 C 0.11432 0.52434 0.26023 0.0
C625 C 0.13445 0.51899 0.22809 0.0
C626 C 0.05362 0.51167 0.37946 0.0
C627 C 0.05409 0.51998 0.43989 0.0
C628 C 0.07263 0.51483 0.34037 0.0
C629 C 0.09235 0.52669 0.36059 0.0
C630 C 0.09166 0.53707 0.41864 0.0
C631 C 0.0728 0.53358 0.45812 0.0
H632 H 0.05966 0.81251 0.74121 0.0
H633 H 0.05413 0.85205 0.90667 0.0
H634 H 0.05245 0.84594 0.67842 0.0
H635 H 0.04748 0.88547 0.84359 0.0
H636 H 0.04084 0.94283 0.69499 0.0
H637 H 0.06148 0.91281 0.75028 0.0
H638 H 0.01161 0.8644 0.6837 0.0
H639 H 0.99097 0.894 0.63031 0.0
C640 C 0.05758 0.82843 0.76409 0.0
C641 C 0.05693 0.82953 0.82891 0.0
C642 C 0.05358 0.84753 0.72816 0.0
C643 C 0.04909 0.86812 0.7564 0.0
C644 C 0.05099 0.86979 0.8208 0.0
C645 C 0.05483 0.85061 0.85686 0.0
C646 C 0.03445 0.92573 0.69227 0.0
C647 C 0.01421 0.92072 0.65908 0.0
C648 C 0.04623 0.90864 0.7236 0.0
C649 C 0.03826 0.88633 0.7204 0.0
C650 C 0.01834 0.88141 0.68604 0.0
C651 C 0.00636 0.89841 0.65615 0.0
H652 H 0.66303 0.96135 0.87317 0.0
H653 H 0.64674 0.02843 0.93123 0.0
H654 H 0.62684 0.95917 0.81709 0.0
H655 H 0.60981 0.02594 0.87625 0.0
H656 H 0.5633 0.01827 0.69691 0.0
H657 H 0.59559 0.02389 0.76787 0.0
H658 H 0.58554 0.95659 0.83953 0.0
H659 H 0.55371 0.95081 0.76785 0.0
C660 C 0.65175 0.97571 0.87364 0.0
C661 C 0.65783 -0.00486 0.90616 0.0
C662 C 0.63081 0.97431 0.84236 0.0
C663 C 0.61534 0.99228 0.84298 0.0
C664 C 0.62142 0.01184 0.87505 0.0
C665 C 0.64246 0.01322 0.90666 0.0
C666 C 0.56766 0.00489 0.72888 0.0
C667 C 0.55629 0.98396 0.72624 0.0
C668 C 0.58613 0.00812 0.76953 0.0
C669 C 0.59338 0.99051 0.80825 0.0
C670 C 0.5807 0.97027 0.80906 0.0
C671 C 0.56241 0.96699 0.76828 0.0
H672 H 0.41327 0.62058 0.91268 0.0
H673 H 0.42102 0.67059 0.76803 0.0
H674 H 0.42574 0.59171 0.84129 0.0
H675 H 0.43267 0.64166 0.69635 0.0
H676 H 0.4966 0.59828 0.65331 0.0
H677 H 0.47119 0.62386 0.7057 0.0
H678 H 0.42255 0.56974 0.74166 0.0
H679 H 0.4483 0.54374 0.68838 0.0
C680 C 0.41682 0.62526 0.86507 0.0
C681 C 0.41674 0.64793 0.8464 0.0
C682 C 0.4238 0.6087 0.82408 0.0
C683 C 0.43073 0.61457 0.76378 0.0
C684 C 0.42785 0.63677 0.74304 0.0
C685 C 0.42093 0.65332 0.78399 0.0
C686 C 0.48047 0.59174 0.67208 0.0
C687 C 0.47455 0.56895 0.6672 0.0
C688 C 0.46572 0.60651 0.70139 0.0
C689 C 0.44471 0.59887 0.72704 0.0
C690 C 0.4386 0.57607 0.72198 0.0
C691 C 0.45333 0.56124 0.69173 0.0
H692 H 0.83331 0.45346 0.91959 0.0
H693 H 0.86235 0.51825 0.96406 0.0
H694 H 0.86846 0.44459 0.86123 0.0
H695 H 0.89751 0.50932 0.90699 0.0
H696 H 0.96332 0.48157 0.82716 0.0
H697 H 0.93192 0.48059 0.90365 0.0
H698 H 0.88303 0.465 0.75948 0.0
H699 H 0.91414 0.46642 0.68323 0.0
C700 C 0.84743 0.46555 0.91783 0.0
C701 C 0.84521 0.48657 0.94553 0.0
C702 C 0.86744 0.46051 0.88466 0.0
C703 C 0.88564 0.47625 0.88002 0.0
C704 C 0.88384 0.4968 0.91059 0.0
C705 C 0.8637 0.50199 0.94263 0.0
C706 C 0.94595 0.47736 0.81229 0.0
C707 C 0.94103 0.47421 0.74946 0.0
C708 C 0.92804 0.47689 0.85586 0.0
C709 C 0.90514 0.47273 0.83723 0.0
C710 C 0.90057 0.46802 0.77505 0.0
C711 C 0.91832 0.46897 0.73145 0.0
H712 H 0.97009 0.18152 0.86554 0.0
H713 H 0.03751 0.16318 0.93356 0.0
H714 H 0.96999 0.14926 0.79793 0.0
H715 H 0.03695 0.13025 0.86737 0.0
H716 H 0.03225 0.07972 0.70613 0.0
H717 H 0.03636 0.11531 0.76065 0.0
H718 H 0.9655 0.10936 0.82257 0.0
H719 H 0.9613 0.07422 0.76799 0.0
C720 C 0.98516 0.17094 0.86506 0.0
C721 C 0.00373 0.17487 0.90547 0.0
C722 C 0.98493 0.15222 0.82693 0.0
C723 C 0.00322 0.13693 0.82833 0.0
C724 C 0.02256 0.14168 0.86536 0.0
C725 C 0.0228 0.16046 0.90357 0.0
C726 C 0.0176 0.086 0.73163 0.0
C727 C 0.99642 0.07416 0.73255 0.0
C728 C 0.01997 0.10637 0.76281 0.0
C729 C 0.00116 0.11532 0.79514 0.0
C730 C 0.98017 0.10322 0.79687 0.0
C731 C 0.97783 0.08292 0.76602 0.0
H732 H 0.28491 0.03781 0.72178 0.0
H733 H 0.32347 0.07129 0.86534 0.0
H734 H 0.32108 0.02962 0.66854 0.0
H735 H 0.35934 0.06309 0.81262 0.0
H736 H 0.42159 0.0531 0.68905 0.0
H737 H 0.38472 0.06805 0.72442 0.0
H738 H 0.35186 0.00384 0.69174 0.0
H739 H 0.38832 0.98915 0.65547 0.0
C740 C 0.30103 0.04376 0.74142 0.0
C741 C 0.30123 0.05513 0.79797 0.0
C742 C 0.32177 0.03899 0.7111 0.0
C743 C 0.34316 0.04542 0.73677 0.0
C744 C 0.34322 0.05807 0.79114 0.0
C745 C 0.32254 0.06285 0.82135 0.0
C746 C 0.40645 0.04224 0.68929 0.0
C747 C 0.40794 0.0199 0.66981 0.0
C748 C 0.38533 0.05079 0.70954 0.0
C749 C 0.36527 0.03719 0.71063 0.0
C750 C 0.3668 0.01495 0.6904 0.0
C751 C 0.38784 0.00643 0.67023 0.0
H752 H 0.54033 0.3038 0.83191 0.0
H753 H 0.49567 0.33076 0.9723 0.0
H754 H 0.53439 0.3372 0.76814 0.0
H755 H 0.4896 0.36404 0.9082 0.0
H756 H 0.4752 0.417 0.75538 0.0
H757 H 0.47466 0.38036 0.80808 0.0
H758 H 0.5486 0.37609 0.78449 0.0
H759 H 0.54919 0.4123 0.73228 0.0
C760 C 0.52896 0.31668 0.84874 0.0
C761 C 0.51872 0.31471 0.90756 0.0
C762 C 0.52558 0.33582 0.81226 0.0
C763 C 0.51183 0.35341 0.83362 0.0
C764 C 0.50021 0.35074 0.89035 0.0
C765 C 0.50365 0.3316 0.927 0.0
C766 C 0.4913 0.40818 0.76146 0.0
C767 C 0.51224 0.41761 0.73982 0.0
C768 C 0.49098 0.38724 0.79162 0.0
C769 C 0.51155 0.37524 0.79986 0.0
C770 C 0.53239 0.38469 0.77787 0.0
C771 C 0.53274 0.4056 0.74846 0.0
H772 H 0.17698 0.43006 0.89728 0.0
H773 H 0.22016 0.46082 0.75604 0.0
H774 H 0.14304 0.4369 0.83484 0.0
H775 H 0.18585 0.46787 0.69342 0.0
H776 H 0.11889 0.50899 0.66459 0.0
H777 H 0.15441 0.49446 0.70833 0.0
H778 H 0.12089 0.43027 0.74044 0.0
H779 H 0.08504 0.44495 0.69723 0.0
C780 C 0.1794 0.43757 0.85192 0.0
C781 C 0.20139 0.44504 0.83199 0.0
C782 C 0.15981 0.44158 0.81612 0.0
C783 C 0.16168 0.45323 0.75958 0.0
C784 C 0.18381 0.45925 0.73743 0.0
C785 C 0.20346 0.45516 0.77321 0.0
C786 C 0.11906 0.49173 0.68067 0.0
C787 C 0.09904 0.4782 0.67795 0.0
C788 C 0.13954 0.48332 0.70513 0.0
C789 C 0.14053 0.46116 0.72762 0.0
C790 C 0.12064 0.44745 0.72382 0.0
C791 C 0.10012 0.45587 0.69907 0.0
H792 H 0.01107 0.79513 0.36562 0.0
H793 H 0.96562 0.82254 0.22669 0.0
H794 H 0.00868 0.82993 0.4234 0.0
H795 H 0.96313 0.85727 0.28481 0.0
H796 H 0.95674 0.91408 0.42954 0.0
H797 H 0.95187 0.87668 0.38455 0.0
H798 H 0.02564 0.86715 0.39407 0.0
H799 H 0.03053 0.90404 0.43837 0.0
C800 C 0.00023 0.80842 0.34801 0.0
C801 C 0.9888 0.80616 0.29115 0.0
C802 C -0.00111 0.82834 0.38103 0.0
C803 C 0.98605 0.84645 0.35801 0.0
C804 C 0.9731 0.84358 0.30378 0.0
C805 C 0.97449 0.82363 0.27059 0.0
C806 C 0.97187 0.90396 0.42185 0.0
C807 C 0.99402 0.91207 0.43735 0.0
C808 C 0.96908 0.88259 0.39622 0.0
C809 C 0.98835 0.86888 0.38659 0.0
C810 C 0.0104 0.87709 0.40208 0.0
C811 C 0.01321 0.89839 0.4269 0.0
H812 H 0.67246 0.93468 0.28025 0.0
H813 H 0.71057 0.96177 0.43446 0.0
H814 H 0.63657 0.93875 0.33701 0.0
H815 H 0.67442 0.96583 0.4916 0.0
H816 H 0.60608 0.00375 0.51907 0.0
H817 H 0.64284 0.99173 0.47785 0.0
H818 H 0.61172 0.92867 0.4244 0.0
H819 H 0.57448 0.94095 0.46512 0.0
C820 C 0.67331 0.9408 0.32713 0.0
C821 C 0.69446 0.94804 0.3526 0.0
C822 C 0.65263 0.94319 0.35969 0.0
C823 C 0.65255 0.95291 0.41852 0.0
C824 C 0.67384 0.95871 0.44578 0.0
C825 C 0.69456 0.95633 0.41316 0.0
C826 C 0.607 0.98726 0.4988 0.0
C827 C 0.58725 0.97339 0.49493 0.0
C828 C 0.62822 0.98025 0.47575 0.0
C829 C 0.63032 0.95917 0.4481 0.0
C830 C 0.61065 0.94507 0.4451 0.0
C831 C 0.58934 0.95209 0.46845 0.0
H832 H 0.44717 0.67288 0.30174 0.0
H833 H 0.521 0.68496 0.29464 0.0
H834 H 0.4534 0.63772 0.35507 0.0
H835 H 0.52725 0.64868 0.3448 0.0
H836 H 0.52645 0.58839 0.48433 0.0
H837 H 0.52311 0.6258 0.43785 0.0
H838 H 0.46663 0.60192 0.32487 0.0
H839 H 0.4695 0.56502 0.37253 0.0
C840 C 0.46478 0.66832 0.31239 0.0
C841 C 0.48357 0.68195 0.29344 0.0
C842 C 0.46836 0.64779 0.34199 0.0
C843 C 0.49085 0.64003 0.35285 0.0
C844 C 0.50969 0.65407 0.33692 0.0
C845 C 0.50609 0.67482 0.30766 0.0
C846 C 0.51355 0.59113 0.44894 0.0
C847 C 0.49812 0.57382 0.43235 0.0
C848 C 0.51161 0.61257 0.42235 0.0
C849 C 0.4943 0.61703 0.37848 0.0
C850 C 0.47971 0.59932 0.35987 0.0
C851 C 0.48149 0.57806 0.38674 0.0
H852 H 0.78946 0.53405 0.44964 0.0
H853 H 0.8237 0.5709 0.30214 0.0
H854 H 0.8258 0.53298 0.50703 0.0
H855 H 0.8598 0.57012 0.35982 0.0
H856 H 0.92188 0.52781 0.43319 0.0
H857 H 0.8856 0.53766 0.38312 0.0
H858 H 0.85686 0.55586 0.55967 0.0
H859 H 0.89316 0.54605 0.60995 0.0
C860 C 0.80459 0.54238 0.4302 0.0
C861 C 0.80369 0.55249 0.37131 0.0
C862 C 0.82537 0.54186 0.46313 0.0
C863 C 0.84569 0.55126 0.43752 0.0
C864 C 0.84447 0.56252 0.38035 0.0
C865 C 0.82369 0.56321 0.3477 0.0
C866 C 0.90794 0.53419 0.46124 0.0
C867 C 0.91038 0.53603 0.52556 0.0
C868 C 0.8872 0.53996 0.43252 0.0
C869 C 0.86838 0.5475 0.46755 0.0
C870 C 0.87102 0.54995 0.53161 0.0
C871 C 0.89186 0.54442 0.56027 0.0
loop_
_geom_bond_atom_site_label_1
_geom_bond_atom_site_label_2
_geom_bond_distance
_geom_bond_site_symmetry_2
_ccdc_geom_bond_type
C0 C1 1.386 . S
C0 C2 1.397 . S
C0 H24 0.931 . S
C1 C0 1.386 . S
C1 C5 1.397 . S
C2 C0 1.397 . S
C2 C3 1.384 . S
C2 H25 0.930 . S
C3 C2 1.384 . S
C3 C4 1.377 . S
C3 C6 1.481 . S
C4 C3 1.377 . S
C4 C5 1.389 . S
C4 H26 0.929 . S
C5 C1 1.397 . S
C5 C4 1.389 . S
C5 H27 0.931 . S
C6 C3 1.481 . S
C6 C7 1.387 . S
C6 C11 1.390 1_556 S
C7 C6 1.387 . S
C7 C8 1.401 . S
C7 H28 0.930 . S
C8 C7 1.401 . S
C8 C9 1.376 1_556 S
C8 C17 1.511 . S
C9 C8 1.376 1_554 S
C9 C10 1.392 . S
C9 H30 0.931 . S
C10 C9 1.392 . S
C10 C11 1.361 . S
C10 C12 1.500 . S
C11 C6 1.390 1_554 S
C11 C10 1.361 . S
C11 H29 0.931 . S
C12 C10 1.500 . S
C12 C13 1.371 . S
C12 C14 1.365 . S
C13 C12 1.371 . S
C13 C23 1.386 . S
C13 H31 0.931 . S
C14 C12 1.365 . S
C14 C15 1.409 . S
C14 H32 0.929 . S
C15 C14 1.409 . S
C15 C16 1.380 . S
C15 H33 0.930 . S
C16 C15 1.380 . S
C16 C23 1.357 . S
C17 C8 1.511 . S
C17 C18 1.341 . S
C17 C19 1.371 1_556 S
C18 C17 1.341 . S
C18 C22 1.394 . S
C18 H34 0.930 . S
C19 C17 1.371 1_554 S
C19 C20 1.392 . S
C19 H35 0.931 . S
C20 C19 1.392 . S
C20 C21 1.331 1_554 S
C20 H38 0.932 . S
C21 C20 1.331 1_556 S
C21 C22 1.336 . S
C22 C18 1.394 . S
C22 C21 1.336 . S
C22 H37 0.929 . S
C23 C13 1.386 . S
C23 C16 1.357 . S
C23 H36 0.928 . S
H24 C0 0.931 . S
H25 C2 0.930 . S
H26 C4 0.929 . S
H27 C5 0.931 . S
H28 C7 0.930 . S
H29 C11 0.931 . S
H30 C9 0.931 . S
H31 C13 0.931 . S
H32 C14 0.929 . S
H33 C15 0.930 . S
H34 C18 0.930 . S
H35 C19 0.931 . S
H36 C23 0.928 . S
H37 C22 0.929 . S
H38 C20 0.932 . S
C39 C40 1.394 . S
C39 C41 1.397 . S
C39 H63 0.931 . S
C40 C39 1.394 . S
C40 C44 1.389 1_655 S
C41 C39 1.397 . S
C41 C42 1.389 . S
C41 H64 0.930 . S
C42 C41 1.389 . S
C42 C43 1.373 1_655 S
C42 C45 1.481 . S
C43 C42 1.373 1_455 S
C43 C44 1.389 . S
C43 H65 0.929 . S
C44 C40 1.389 1_455 S
C44 C43 1.389 . S
C44 H66 0.931 . S
C45 C42 1.481 . S
C45 C46 1.388 . S
C45 C50 1.390 1_556 S
C46 C45 1.388 . S
C46 C47 1.403 1_556 S
C46 H67 0.930 . S
C47 C46 1.403 1_554 S
C47 C48 1.376 . S
C47 C56 1.512 . S
C48 C47 1.376 . S
C48 C49 1.392 . S
C48 H69 0.934 . S
C49 C48 1.392 . S
C49 C50 1.361 . S
C49 C51 1.499 1_655 S
C50 C45 1.390 1_554 S
C50 C49 1.361 . S
C50 H68 0.931 . S
C51 C49 1.499 1_455 S
C51 C52 1.362 1_455 S
C51 C53 1.374 . S
C52 C51 1.362 1_655 S
C52 C62 1.386 . S
C52 H70 0.931 . S
C53 C51 1.374 . S
C53 C54 1.409 . S
C53 H71 0.929 . S
C54 C53 1.409 . S
C54 C55 1.379 . S
C54 H72 0.930 . S
C55 C54 1.379 . S
C55 C62 1.358 1_455 S
C56 C47 1.512 . S
C56 C57 1.341 1_554 S
C56 C58 1.371 1_655 S
C57 C56 1.341 1_556 S
C57 C61 1.394 . S
C57 H73 0.930 . S
C58 C56 1.371 1_455 S
C58 C59 1.392 . S
C58 H74 0.931 . S
C59 C58 1.392 . S
C59 C60 1.322 1_454 S
C59 H77 0.932 . S
C60 C59 1.322 1_656 S
C60 C61 1.346 . S
C61 C57 1.394 . S
C61 C60 1.346 . S
C61 H76 0.929 . S
C62 C52 1.386 . S
C62 C55 1.358 1_655 S
C62 H75 0.928 . S
H63 C39 0.931 . S
H64 C41 0.930 . S
H65 C43 0.929 . S
H66 C44 0.931 . S
H67 C46 0.930 . S
H68 C50 0.931 . S
H69 C48 0.934 . S
H70 C52 0.931 . S
H71 C53 0.929 . S
H72 C54 0.930 . S
H73 C57 0.930 . S
H74 C58 0.931 . S
H75 C62 0.928 . S
H76 C61 0.929 . S
H77 C59 0.932 . S
C78 C79 1.386 . S
C78 C80 1.397 . S
C78 H102 0.931 . S
C79 C78 1.386 . S
C79 C83 1.397 . S
C80 C78 1.397 . S
C80 C81 1.384 . S
C80 H103 0.930 . S
C81 C80 1.384 . S
C81 C82 1.377 . S
C81 C84 1.481 . S
C82 C81 1.377 . S
C82 C83 1.389 . S
C82 H104 0.929 . S
C83 C79 1.397 . S
C83 C82 1.389 . S
C83 H105 0.931 . S
C84 C81 1.481 . S
C84 C85 1.387 . S
C84 C89 1.390 1_556 S
C85 C84 1.387 . S
C85 C86 1.401 1_556 S
C85 H106 0.930 . S
C86 C85 1.401 1_554 S
C86 C87 1.376 . S
C86 C95 1.511 . S
C87 C86 1.376 . S
C87 C88 1.392 . S
C87 H108 0.931 . S
C88 C87 1.392 . S
C88 C89 1.361 . S
C88 C90 1.500 . S
C89 C84 1.390 1_554 S
C89 C88 1.361 . S
C89 H107 0.931 . S
C90 C88 1.500 . S
C90 C91 1.371 . S
C90 C92 1.365 . S
C91 C90 1.371 . S
C91 C101 1.386 . S
C91 H109 0.931 . S
C92 C90 1.365 . S
C92 C93 1.409 . S
C92 H110 0.929 . S
C93 C92 1.409 . S
C93 C94 1.380 . S
C93 H111 0.930 . S
C94 C93 1.380 . S
C94 C101 1.357 . S
C95 C86 1.511 . S
C95 C96 1.341 1_554 S
C95 C97 1.371 . S
C96 C95 1.341 1_556 S
C96 C100 1.394 . S
C96 H112 0.930 . S
C97 C95 1.371 . S
C97 C98 1.392 . S
C97 H113 0.931 . S
C98 C97 1.392 . S
C98 C99 1.331 1_554 S
C98 H116 0.932 . S
C99 C98 1.331 1_556 S
C99 C100 1.336 . S
C100 C96 1.394 . S
C100 C99 1.336 . S
C100 H115 0.929 . S
C101 C91 1.386 . S
C101 C94 1.357 . S
C101 H114 0.928 . S
H102 C78 0.931 . S
H103 C80 0.930 . S
H104 C82 0.929 . S
H105 C83 0.931 . S
H106 C85 0.930 . S
H107 C89 0.931 . S
H108 C87 0.931 . S
H109 C91 0.931 . S
H110 C92 0.929 . S
H111 C93 0.930 . S
H112 C96 0.930 . S
H113 C97 0.931 . S
H114 C101 0.928 . S
H115 C100 0.929 . S
H116 C98 0.932 . S
C117 C118 1.386 . S
C117 C119 1.397 . S
C117 H141 0.931 . S
C118 C117 1.386 . S
C118 C122 1.397 . S
C119 C117 1.397 . S
C119 C120 1.384 . S
C119 H142 0.930 . S
C120 C119 1.384 . S
C120 C121 1.377 . S
C120 C123 1.481 . S
C121 C120 1.377 . S
C121 C122 1.389 . S
C121 H143 0.929 . S
C122 C118 1.397 . S
C122 C121 1.389 . S
C122 H144 0.931 . S
C123 C120 1.481 . S
C123 C124 1.387 . S
C123 C128 1.390 . S
C124 C123 1.387 . S
C124 C125 1.401 . S
C124 H145 0.930 . S
C125 C124 1.401 . S
C125 C126 1.376 1_554 S
C125 C134 1.511 . S
C126 C125 1.376 1_556 S
C126 C127 1.392 . S
C126 H147 0.931 . S
C127 C126 1.392 . S
C127 C128 1.361 1_556 S
C127 C129 1.500 . S
C128 C123 1.390 . S
C128 C127 1.361 1_554 S
C128 H146 0.931 . S
C129 C127 1.500 . S
C129 C130 1.371 . S
C129 C131 1.365 . S
C130 C129 1.371 . S
C130 C140 1.386 . S
C130 H148 0.931 . S
C131 C129 1.365 . S
C131 C132 1.409 . S
C131 H149 0.929 . S
C132 C131 1.409 . S
C132 C133 1.380 . S
C132 H150 0.930 . S
C133 C132 1.380 . S
C133 C140 1.357 . S
C134 C125 1.511 . S
C134 C135 1.341 . S
C134 C136 1.371 1_554 S
C135 C134 1.341 . S
C135 C139 1.394 . S
C135 H151 0.930 . S
C136 C134 1.371 1_556 S
C136 C137 1.392 . S
C136 H152 0.931 . S
C137 C136 1.392 . S
C137 C138 1.331 . S
C137 H155 0.932 . S
C138 C137 1.331 . S
C138 C139 1.336 1_556 S
C139 C135 1.394 . S
C139 C138 1.336 1_554 S
C139 H154 0.929 . S
C140 C130 1.386 . S
C140 C133 1.357 . S
C140 H153 0.928 . S
H141 C117 0.931 . S
H142 C119 0.930 . S
H143 C121 0.929 . S
H144 C122 0.931 . S
H145 C124 0.930 . S
H146 C128 0.931 . S
H147 C126 0.931 . S
H148 C130 0.931 . S
H149 C131 0.929 . S
H150 C132 0.930 . S
H151 C135 0.930 . S
H152 C136 0.931 . S
H153 C140 0.928 . S
H154 C139 0.929 . S
H155 C137 0.932 . S
C156 C157 1.386 . S
C156 C158 1.397 . S
C156 H180 0.931 . S
C157 C156 1.386 . S
C157 C161 1.397 . S
C158 C156 1.397 . S
C158 C159 1.384 . S
C158 H181 0.930 . S
C159 C158 1.384 . S
C159 C160 1.377 . S
C159 C162 1.481 . S
C160 C159 1.377 . S
C160 C161 1.389 . S
C160 H182 0.929 . S
C161 C157 1.397 . S
C161 C160 1.389 . S
C161 H183 0.931 . S
C162 C159 1.481 . S
C162 C163 1.387 . S
C162 C167 1.390 . S
C163 C162 1.387 . S
C163 C164 1.401 . S
C163 H184 0.930 . S
C164 C163 1.401 . S
C164 C165 1.376 . S
C164 C173 1.511 . S
C165 C164 1.376 . S
C165 C166 1.392 . S
C165 H186 0.931 . S
C166 C165 1.392 . S
C166 C167 1.361 . S
C166 C168 1.500 . S
C167 C162 1.390 . S
C167 C166 1.361 . S
C167 H185 0.931 . S
C168 C166 1.500 . S
C168 C169 1.379 . S
C168 C170 1.365 . S
C169 C168 1.379 . S
C169 C179 1.376 1_554 S
C169 H187 0.933 . S
C170 C168 1.365 . S
C170 C171 1.409 1_554 S
C170 H188 0.929 . S
C171 C170 1.409 1_556 S
C171 C172 1.380 . S
C171 H189 0.930 . S
C172 C171 1.380 . S
C172 C179 1.357 . S
C173 C164 1.511 . S
C173 C174 1.341 . S
C173 C175 1.371 . S
C174 C173 1.341 . S
C174 C178 1.394 . S
C174 H190 0.930 . S
C175 C173 1.371 . S
C175 C176 1.392 . S
C175 H191 0.931 . S
C176 C175 1.392 . S
C176 C177 1.331 . S
C176 H194 0.932 . S
C177 C176 1.331 . S
C177 C178 1.336 . S
C178 C174 1.394 . S
C178 C177 1.336 . S
C178 H193 0.929 . S
C179 C169 1.376 1_556 S
C179 C172 1.357 . S
C179 H192 0.928 . S
H180 C156 0.931 . S
H181 C158 0.930 . S
H182 C160 0.929 . S
H183 C161 0.931 . S
H184 C163 0.930 . S
H185 C167 0.931 . S
H186 C165 0.931 . S
H187 C169 0.933 . S
H188 C170 0.929 . S
H189 C171 0.930 . S
H190 C174 0.930 . S
H191 C175 0.931 . S
H192 C179 0.928 . S
H193 C178 0.929 . S
H194 C176 0.932 . S
C195 C196 1.388 . S
C195 C197 1.397 . S
C195 H219 0.931 . S
C196 C195 1.388 . S
C196 C200 1.396 1_655 S
C197 C195 1.397 . S
C197 C198 1.382 . S
C197 H220 0.930 . S
C198 C197 1.382 . S
C198 C199 1.380 1_655 S
C198 C201 1.480 . S
C199 C198 1.380 1_455 S
C199 C200 1.389 . S
C199 H221 0.929 . S
C200 C196 1.396 1_455 S
C200 C199 1.389 . S
C200 H222 0.931 . S
C201 C198 1.480 . S
C201 C202 1.388 . S
C201 C206 1.390 . S
C202 C201 1.388 . S
C202 C203 1.401 . S
C202 H223 0.930 . S
C203 C202 1.401 . S
C203 C204 1.376 . S
C203 C212 1.512 . S
C204 C203 1.376 . S
C204 C205 1.391 1_655 S
C204 H225 0.934 . S
C205 C204 1.391 1_455 S
C205 C206 1.361 1_455 S
C205 C207 1.499 . S
C206 C201 1.390 . S
C206 C205 1.361 1_655 S
C206 H224 0.931 . S
C207 C205 1.499 . S
C207 C208 1.357 1_454 S
C207 C209 1.381 . S
C208 C207 1.357 1_656 S
C208 C218 1.386 . S
C208 H226 0.931 . S
C209 C207 1.381 . S
C209 C210 1.409 1_554 S
C209 H227 0.929 . S
C210 C209 1.409 1_556 S
C210 C211 1.384 . S
C210 H228 0.930 . S
C211 C210 1.384 . S
C211 C218 1.353 1_455 S
C212 C203 1.512 . S
C212 C213 1.341 . S
C212 C214 1.371 1_655 S
C213 C212 1.341 . S
C213 C217 1.394 . S
C213 H229 0.930 . S
C214 C212 1.371 1_455 S
C214 C215 1.392 . S
C214 H230 0.931 . S
C215 C214 1.392 . S
C215 C216 1.325 1_455 S
C215 H233 0.932 . S
C216 C215 1.325 1_655 S
C216 C217 1.341 . S
C217 C213 1.394 . S
C217 C216 1.341 . S
C217 H232 0.929 . S
C218 C208 1.386 . S
C218 C211 1.353 1_655 S
C218 H231 0.928 . S
H219 C195 0.931 . S
H220 C197 0.930 . S
H221 C199 0.929 . S
H222 C200 0.931 . S
H223 C202 0.930 . S
H224 C206 0.931 . S
H225 C204 0.934 . S
H226 C208 0.931 . S
H227 C209 0.929 . S
H228 C210 0.930 . S
H229 C213 0.930 . S
H230 C214 0.931 . S
H231 C218 0.928 . S
H232 C217 0.929 . S
H233 C215 0.932 . S
C234 C235 1.386 . S
C234 C236 1.397 . S
C234 H258 0.931 . S
C235 C234 1.386 . S
C235 C239 1.397 . S
C236 C234 1.397 . S
C236 C237 1.384 . S
C236 H259 0.930 . S
C237 C236 1.384 . S
C237 C238 1.377 . S
C237 C240 1.481 . S
C238 C237 1.377 . S
C238 C239 1.389 . S
C238 H260 0.929 . S
C239 C235 1.397 . S
C239 C238 1.389 . S
C239 H261 0.931 . S
C240 C237 1.481 . S
C240 C241 1.387 . S
C240 C245 1.390 . S
C241 C240 1.387 . S
C241 C242 1.401 . S
C241 H262 0.930 . S
C242 C241 1.401 . S
C242 C243 1.376 . S
C242 C251 1.511 . S
C243 C242 1.376 . S
C243 C244 1.392 . S
C243 H264 0.931 . S
C244 C243 1.392 . S
C244 C245 1.361 . S
C244 C246 1.500 . S
C245 C240 1.390 . S
C245 C244 1.361 . S
C245 H263 0.931 . S
C246 C244 1.500 . S
C246 C247 1.371 1_554 S
C246 C248 1.365 . S
C247 C246 1.371 1_556 S
C247 C257 1.386 . S
C247 H265 0.931 . S
C248 C246 1.365 . S
C248 C249 1.409 1_554 S
C248 H266 0.929 . S
C249 C248 1.409 1_556 S
C249 C250 1.380 . S
C249 H267 0.930 . S
C250 C249 1.380 . S
C250 C257 1.357 . S
C251 C242 1.511 . S
C251 C252 1.341 . S
C251 C253 1.371 . S
C252 C251 1.341 . S
C252 C256 1.394 . S
C252 H268 0.930 . S
C253 C251 1.371 . S
C253 C254 1.392 . S
C253 H269 0.931 . S
C254 C253 1.392 . S
C254 C255 1.331 . S
C254 H272 0.932 . S
C255 C254 1.331 . S
C255 C256 1.336 . S
C256 C252 1.394 . S
C256 C255 1.336 . S
C256 H271 0.929 . S
C257 C247 1.386 . S
C257 C250 1.357 . S
C257 H270 0.928 . S
H258 C234 0.931 . S
H259 C236 0.930 . S
H260 C238 0.929 . S
H261 C239 0.931 . S
H262 C241 0.930 . S
H263 C245 0.931 . S
H264 C243 0.931 . S
H265 C247 0.931 . S
H266 C248 0.929 . S
H267 C249 0.930 . S
H268 C252 0.930 . S
H269 C253 0.931 . S
H270 C257 0.928 . S
H271 C256 0.929 . S
H272 C254 0.932 . S
C273 C274 1.386 . S
C273 C275 1.397 . S
C273 H297 0.931 . S
C274 C273 1.386 . S
C274 C278 1.397 . S
C275 C273 1.397 . S
C275 C276 1.384 1_556 S
C275 H298 0.930 . S
C276 C275 1.384 1_554 S
C276 C277 1.377 . S
C276 C279 1.481 . S
C277 C276 1.377 . S
C277 C278 1.389 1_554 S
C277 H299 0.929 . S
C278 C274 1.397 . S
C278 C277 1.389 1_556 S
C278 H300 0.931 . S
C279 C276 1.481 . S
C279 C280 1.387 . S
C279 C284 1.390 . S
C280 C279 1.387 . S
C280 C281 1.401 . S
C280 H301 0.930 . S
C281 C280 1.401 . S
C281 C282 1.376 . S
C281 C290 1.511 . S
C282 C281 1.376 . S
C282 C283 1.392 . S
C282 H303 0.931 . S
C283 C282 1.392 . S
C283 C284 1.361 . S
C283 C285 1.500 . S
C284 C279 1.390 . S
C284 C283 1.361 . S
C284 H302 0.931 . S
C285 C283 1.500 . S
C285 C286 1.371 . S
C285 C287 1.365 . S
C286 C285 1.371 . S
C286 C296 1.386 . S
C286 H304 0.931 . S
C287 C285 1.365 . S
C287 C288 1.409 . S
C287 H305 0.929 . S
C288 C287 1.409 . S
C288 C289 1.380 . S
C288 H306 0.930 . S
C289 C288 1.380 . S
C289 C296 1.357 . S
C290 C281 1.511 . S
C290 C291 1.341 . S
C290 C292 1.371 . S
C291 C290 1.341 . S
C291 C295 1.394 . S
C291 H307 0.930 . S
C292 C290 1.371 . S
C292 C293 1.392 . S
C292 H308 0.931 . S
C293 C292 1.392 . S
C293 C294 1.331 . S
C293 H311 0.932 . S
C294 C293 1.331 . S
C294 C295 1.336 . S
C295 C291 1.394 . S
C295 C294 1.336 . S
C295 H310 0.929 . S
C296 C286 1.386 . S
C296 C289 1.357 . S
C296 H309 0.928 . S
H297 C273 0.931 . S
H298 C275 0.930 . S
H299 C277 0.929 . S
H300 C278 0.931 . S
H301 C280 0.930 . S
H302 C284 0.931 . S
H303 C282 0.931 . S
H304 C286 0.931 . S
H305 C287 0.929 . S
H306 C288 0.930 . S
H307 C291 0.930 . S
H308 C292 0.931 . S
H309 C296 0.928 . S
H310 C295 0.929 . S
H311 C293 0.932 . S
Zn312 O318 1.969 . S
Zn312 O319 1.965 1_655 S
Zn312 O323 2.024 1_655 S
Zn312 O328 1.969 . S
Zn313 O320 1.969 . S
Zn313 O326 1.969 . S
Zn313 O327 1.965 1_455 S
Zn313 O329 2.024 1_455 S
C314 O315 1.229 1_455 S
C314 O323 1.058 . S
O315 C314 1.229 1_655 S
C316 O317 1.229 1_655 S
C316 O329 1.058 . S
O317 C316 1.229 1_455 S
O318 Zn312 1.969 . S
O318 C321 1.267 . S
O319 Zn312 1.965 1_455 S
O319 C330 1.260 . S
O320 Zn313 1.969 . S
O320 C330 1.258 1_565 S
C321 O318 1.267 . S
C321 O322 1.228 1_655 S
O322 C321 1.228 1_455 S
O323 Zn312 2.024 1_455 S
O323 C314 1.058 . S
C324 O325 1.228 1_455 S
C324 O326 1.267 . S
O325 C324 1.228 1_655 S
O326 Zn313 1.969 . S
O326 C324 1.267 . S
O327 Zn313 1.965 1_655 S
O327 C331 1.260 1_565 S
O328 Zn312 1.969 . S
O328 C331 1.258 . S
O329 Zn313 2.024 1_655 S
O329 C316 1.058 . S
C330 O319 1.260 . S
C330 O320 1.258 1_545 S
C331 O327 1.260 1_545 S
C331 O328 1.258 . S
Zn332 O338 1.969 . S
Zn332 O339 1.965 . S
Zn332 O343 2.024 . S
Zn332 O348 1.969 1_545 S
Zn333 O340 1.969 1_565 S
Zn333 O346 1.969 1_565 S
Zn333 O347 1.965 . S
Zn333 O349 2.024 . S
C334 O335 1.229 . S
C334 O343 1.058 . S
O335 C334 1.229 . S
C336 O337 1.229 . S
C336 O349 1.058 . S
O337 C336 1.229 . S
O338 Zn332 1.969 . S
O338 C341 1.267 . S
O339 Zn332 1.965 . S
O339 C350 1.260 . S
O340 Zn333 1.969 1_545 S
O340 C350 1.258 . S
C341 O338 1.267 . S
C341 O342 1.228 . S
O342 C341 1.228 . S
O343 Zn332 2.024 . S
O343 C334 1.058 . S
C344 O345 1.228 . S
C344 O346 1.267 1_565 S
O345 C344 1.228 . S
O346 Zn333 1.969 1_545 S
O346 C344 1.267 1_545 S
O347 Zn333 1.965 . S
O347 C351 1.260 . S
O348 Zn332 1.969 1_565 S
O348 C351 1.258 . S
O349 Zn333 2.024 . S
O349 C336 1.058 . S
C350 O339 1.260 . S
C350 O340 1.258 . S
C351 O347 1.260 . S
C351 O348 1.258 . S
Zn352 O358 1.969 . S
Zn352 O359 1.965 . S
Zn352 O363 2.024 . S
Zn352 O368 1.969 . S
Zn353 O360 1.969 . S
Zn353 O366 1.969 . S
Zn353 O367 1.965 . S
Zn353 O369 2.024 . S
C354 O355 1.229 . S
C354 O363 1.058 . S
O355 C354 1.229 . S
C356 O357 1.229 . S
C356 O369 1.058 . S
O357 C356 1.229 . S
O358 Zn352 1.969 . S
O358 C361 1.267 . S
O359 Zn352 1.965 . S
O359 C370 1.260 . S
O360 Zn353 1.969 . S
O360 C370 1.258 . S
C361 O358 1.267 . S
C361 O362 1.228 . S
O362 C361 1.228 . S
O363 Zn352 2.024 . S
O363 C354 1.058 . S
C364 O365 1.228 . S
C364 O366 1.267 . S
O365 C364 1.228 . S
O366 Zn353 1.969 . S
O366 C364 1.267 . S
O367 Zn353 1.965 . S
O367 C371 1.260 . S
O368 Zn352 1.969 . S
O368 C371 1.258 . S
O369 Zn353 2.024 . S
O369 C356 1.058 . S
C370 O359 1.260 . S
C370 O360 1.258 . S
C371 O367 1.260 . S
C371 O368 1.258 . S
Zn372 O378 1.969 . S
Zn372 O379 1.965 . S
Zn372 O383 2.024 . S
Zn372 O388 1.969 . S
Zn373 O380 1.969 . S
Zn373 O386 1.969 . S
Zn373 O387 1.965 . S
Zn373 O389 2.024 . S
C374 O375 1.229 . S
C374 O383 1.058 . S
O375 C374 1.229 . S
C376 O377 1.229 . S
C376 O389 1.058 . S
O377 C376 1.229 . S
O378 Zn372 1.969 . S
O378 C381 1.267 . S
O379 Zn372 1.965 . S
O379 C390 1.260 1_455 S
O380 Zn373 1.969 . S
O380 C390 1.258 . S
C381 O378 1.267 . S
C381 O382 1.228 . S
O382 C381 1.228 . S
O383 Zn372 2.024 . S
O383 C374 1.058 . S
C384 O385 1.228 . S
C384 O386 1.267 . S
O385 C384 1.228 . S
O386 Zn373 1.969 . S
O386 C384 1.267 . S
O387 Zn373 1.965 . S
O387 C391 1.260 1_655 S
O388 Zn372 1.969 . S
O388 C391 1.258 . S
O389 Zn373 2.024 . S
O389 C376 1.058 . S
C390 O379 1.260 1_655 S
C390 O380 1.258 . S
C391 O387 1.260 1_455 S
C391 O388 1.258 . S
H392 C400 0.950 . S
H393 C405 0.950 . S
H394 C402 0.950 . S
H395 C404 0.950 . S
H396 C406 0.950 1_565 S
H397 C408 0.950 . S
H398 C410 0.950 . S
H399 C411 0.950 . S
C400 H392 0.950 . S
C400 C401 1.386 . S
C400 C402 1.391 . S
C401 C400 1.386 . S
C401 C405 1.393 . S
C402 H394 0.950 . S
C402 C400 1.391 . S
C402 C403 1.400 . S
C403 C402 1.400 . S
C403 C404 1.398 . S
C403 C409 1.491 . S
C404 H395 0.950 . S
C404 C403 1.398 . S
C404 C405 1.391 . S
C405 H393 0.950 . S
C405 C401 1.393 . S
C405 C404 1.391 . S
C406 H396 0.950 1_545 S
C406 C407 1.386 . S
C406 C408 1.391 . S
C407 C406 1.386 . S
C407 C411 1.393 . S
C408 H397 0.950 . S
C408 C406 1.391 . S
C408 C409 1.400 . S
C409 C403 1.491 . S
C409 C408 1.400 . S
C409 C410 1.398 . S
C410 H398 0.950 . S
C410 C409 1.398 . S
C410 C411 1.391 . S
C411 H399 0.950 . S
C411 C407 1.393 . S
C411 C410 1.391 . S
H412 C420 0.950 . S
H413 C425 0.950 . S
H414 C422 0.950 . S
H415 C424 0.950 . S
H416 C426 0.950 . S
H417 C428 0.950 . S
H418 C430 0.950 . S
H419 C431 0.950 . S
C420 H412 0.950 . S
C420 C421 1.386 . S
C420 C422 1.391 . S
C421 C420 1.386 . S
C421 C425 1.393 . S
C422 H414 0.950 . S
C422 C420 1.391 . S
C422 C423 1.400 . S
C423 C422 1.400 . S
C423 C424 1.398 . S
C423 C429 1.491 . S
C424 H415 0.950 . S
C424 C423 1.398 . S
C424 C425 1.391 . S
C425 H413 0.950 . S
C425 C421 1.393 . S
C425 C424 1.391 . S
C426 H416 0.950 . S
C426 C427 1.386 . S
C426 C428 1.391 . S
C427 C426 1.386 . S
C427 C431 1.393 . S
C428 H417 0.950 . S
C428 C426 1.391 . S
C428 C429 1.400 . S
C429 C423 1.491 . S
C429 C428 1.400 . S
C429 C430 1.398 . S
C430 H418 0.950 . S
C430 C429 1.398 . S
C430 C431 1.391 . S
C431 H419 0.950 . S
C431 C427 1.393 . S
C431 C430 1.391 . S
H432 C440 0.950 . S
H433 C445 0.950 . S
H434 C442 0.950 . S
H435 C444 0.950 . S
H436 C446 0.950 . S
H437 C448 0.950 . S
H438 C450 0.950 . S
H439 C451 0.950 . S
C440 H432 0.950 . S
C440 C441 1.386 . S
C440 C442 1.391 . S
C441 C440 1.386 . S
C441 C445 1.393 . S
C442 H434 0.950 . S
C442 C440 1.391 . S
C442 C443 1.400 . S
C443 C442 1.400 . S
C443 C444 1.398 . S
C443 C449 1.491 . S
C444 H435 0.950 . S
C444 C443 1.398 . S
C444 C445 1.391 . S
C445 H433 0.950 . S
C445 C441 1.393 . S
C445 C444 1.391 . S
C446 H436 0.950 . S
C446 C447 1.386 . S
C446 C448 1.391 . S
C447 C446 1.386 . S
C447 C451 1.393 . S
C448 H437 0.950 . S
C448 C446 1.391 . S
C448 C449 1.400 . S
C449 C443 1.491 . S
C449 C448 1.400 . S
C449 C450 1.398 . S
C450 H438 0.950 . S
C450 C449 1.398 . S
C450 C451 1.391 . S
C451 H439 0.950 . S
C451 C447 1.393 . S
C451 C450 1.391 . S
H452 C460 0.950 . S
H453 C465 0.950 . S
H454 C462 0.950 . S
H455 C464 0.950 . S
H456 C466 0.950 . S
H457 C468 0.950 . S
H458 C470 0.950 . S
H459 C471 0.950 . S
C460 H452 0.950 . S
C460 C461 1.374 1_455 S
C460 C462 1.391 . S
C461 C460 1.374 1_655 S
C461 C465 1.405 . S
C462 H454 0.950 . S
C462 C460 1.391 . S
C462 C463 1.400 1_455 S
C463 C462 1.400 1_655 S
C463 C464 1.398 . S
C463 C469 1.491 . S
C464 H455 0.950 . S
C464 C463 1.398 . S
C464 C465 1.391 . S
C465 H453 0.950 . S
C465 C461 1.405 . S
C465 C464 1.391 . S
C466 H456 0.950 . S
C466 C467 1.386 . S
C466 C468 1.391 . S
C467 C466 1.386 . S
C467 C471 1.393 1_655 S
C468 H457 0.950 . S
C468 C466 1.391 . S
C468 C469 1.400 . S
C469 C463 1.491 . S
C469 C468 1.400 . S
C469 C470 1.398 1_655 S
C470 H458 0.950 . S
C470 C469 1.398 1_455 S
C470 C471 1.391 . S
C471 H459 0.950 . S
C471 C467 1.393 1_455 S
C471 C470 1.391 . S
H472 C480 0.950 . S
H473 C485 0.950 . S
H474 C482 0.950 . S
H475 C484 0.950 . S
H476 C486 0.950 . S
H477 C488 0.950 . S
H478 C490 0.950 . S
H479 C491 0.950 . S
C480 H472 0.950 . S
C480 C481 1.386 . S
C480 C482 1.391 . S
C481 C480 1.386 . S
C481 C485 1.393 . S
C482 H474 0.950 . S
C482 C480 1.391 . S
C482 C483 1.400 . S
C483 C482 1.400 . S
C483 C484 1.398 . S
C483 C489 1.491 . S
C484 H475 0.950 . S
C484 C483 1.398 . S
C484 C485 1.391 . S
C485 H473 0.950 . S
C485 C481 1.393 . S
C485 C484 1.391 . S
C486 H476 0.950 . S
C486 C487 1.386 . S
C486 C488 1.391 . S
C487 C486 1.386 . S
C487 C491 1.393 . S
C488 H477 0.950 . S
C488 C486 1.391 . S
C488 C489 1.400 . S
C489 C483 1.491 . S
C489 C488 1.400 . S
C489 C490 1.398 . S
C490 H478 0.950 . S
C490 C489 1.398 . S
C490 C491 1.391 . S
C491 H479 0.950 . S
C491 C487 1.393 . S
C491 C490 1.391 . S
H492 C500 0.950 . S
H493 C505 0.950 . S
H494 C502 0.950 . S
H495 C504 0.950 . S
H496 C506 0.950 . S
H497 C508 0.950 . S
H498 C510 0.950 . S
H499 C511 0.950 . S
C500 H492 0.950 . S
C500 C501 1.386 . S
C500 C502 1.391 . S
C501 C500 1.386 . S
C501 C505 1.393 . S
C502 H494 0.950 . S
C502 C500 1.391 . S
C502 C503 1.400 . S
C503 C502 1.400 . S
C503 C504 1.398 . S
C503 C509 1.491 . S
C504 H495 0.950 . S
C504 C503 1.398 . S
C504 C505 1.391 . S
C505 H493 0.950 . S
C505 C501 1.393 . S
C505 C504 1.391 . S
C506 H496 0.950 . S
C506 C507 1.386 . S
C506 C508 1.391 . S
C507 C506 1.386 . S
C507 C511 1.393 . S
C508 H497 0.950 . S
C508 C506 1.391 . S
C508 C509 1.400 . S
C509 C503 1.491 . S
C509 C508 1.400 . S
C509 C510 1.398 . S
C510 H498 0.950 . S
C510 C509 1.398 . S
C510 C511 1.391 . S
C511 H499 0.950 . S
C511 C507 1.393 . S
C511 C510 1.391 . S
H512 C520 0.950 . S
H513 C525 0.950 . S
H514 C522 0.950 . S
H515 C524 0.950 . S
H516 C526 0.950 . S
H517 C528 0.950 . S
H518 C530 0.950 . S
H519 C531 0.950 . S
C520 H512 0.950 . S
C520 C521 1.386 . S
C520 C522 1.391 . S
C521 C520 1.386 . S
C521 C525 1.393 . S
C522 H514 0.950 . S
C522 C520 1.391 . S
C522 C523 1.400 . S
C523 C522 1.400 . S
C523 C524 1.398 . S
C523 C529 1.491 . S
C524 H515 0.950 . S
C524 C523 1.398 . S
C524 C525 1.391 . S
C525 H513 0.950 . S
C525 C521 1.393 . S
C525 C524 1.391 . S
C526 H516 0.950 . S
C526 C527 1.386 . S
C526 C528 1.391 . S
C527 C526 1.386 . S
C527 C531 1.393 . S
C528 H517 0.950 . S
C528 C526 1.391 . S
C528 C529 1.400 . S
C529 C523 1.491 . S
C529 C528 1.400 . S
C529 C530 1.398 . S
C530 H518 0.950 . S
C530 C529 1.398 . S
C530 C531 1.391 . S
C531 H519 0.950 . S
C531 C527 1.393 . S
C531 C530 1.391 . S
H532 C540 0.950 . S
H533 C545 0.950 . S
H534 C542 0.950 . S
H535 C544 0.950 . S
H536 C546 0.950 . S
H537 C548 0.950 . S
H538 C550 0.950 . S
H539 C551 0.950 . S
C540 H532 0.950 . S
C540 C541 1.380 1_455 S
C540 C542 1.391 . S
C541 C540 1.380 1_655 S
C541 C545 1.398 . S
C542 H534 0.950 . S
C542 C540 1.391 . S
C542 C543 1.400 . S
C543 C542 1.400 . S
C543 C544 1.398 1_455 S
C543 C549 1.491 . S
C544 H535 0.950 . S
C544 C543 1.398 1_655 S
C544 C545 1.391 . S
C545 H533 0.950 . S
C545 C541 1.398 . S
C545 C544 1.391 . S
C546 H536 0.950 . S
C546 C547 1.386 1_655 S
C546 C548 1.391 . S
C547 C546 1.386 1_455 S
C547 C551 1.393 . S
C548 H537 0.950 . S
C548 C546 1.391 . S
C548 C549 1.400 1_655 S
C549 C543 1.491 . S
C549 C548 1.400 1_455 S
C549 C550 1.398 . S
C550 H538 0.950 . S
C550 C549 1.398 . S
C550 C551 1.391 . S
C551 H539 0.950 . S
C551 C547 1.393 . S
C551 C550 1.391 . S
H552 C560 0.950 . S
H553 C565 0.950 . S
H554 C562 0.950 . S
H555 C564 0.950 . S
H556 C566 0.950 . S
H557 C568 0.950 . S
H558 C570 0.950 . S
H559 C571 0.950 . S
C560 H552 0.950 . S
C560 C561 1.386 1_455 S
C560 C562 1.391 . S
C561 C560 1.386 1_655 S
C561 C565 1.393 . S
C562 H554 0.950 . S
C562 C560 1.391 . S
C562 C563 1.400 1_455 S
C563 C562 1.400 1_655 S
C563 C564 1.398 . S
C563 C569 1.491 . S
C564 H555 0.950 . S
C564 C563 1.398 . S
C564 C565 1.391 . S
C565 H553 0.950 . S
C565 C561 1.393 . S
C565 C564 1.391 . S
C566 H556 0.950 . S
C566 C567 1.386 . S
C566 C568 1.391 . S
C567 C566 1.386 . S
C567 C571 1.393 1_655 S
C568 H557 0.950 . S
C568 C566 1.391 . S
C568 C569 1.400 . S
C569 C563 1.491 . S
C569 C568 1.400 . S
C569 C570 1.398 1_655 S
C570 H558 0.950 . S
C570 C569 1.398 1_455 S
C570 C571 1.391 . S
C571 H559 0.950 . S
C571 C567 1.393 1_455 S
C571 C570 1.391 . S
H572 C580 0.950 . S
H573 C585 0.950 . S
H574 C582 0.950 . S
H575 C584 0.950 . S
H576 C586 0.950 . S
H577 C588 0.950 . S
H578 C590 0.950 . S
H579 C591 0.950 . S
C580 H572 0.950 . S
C580 C581 1.386 . S
C580 C582 1.391 . S
C581 C580 1.386 . S
C581 C585 1.393 . S
C582 H574 0.950 . S
C582 C580 1.391 . S
C582 C583 1.400 . S
C583 C582 1.400 . S
C583 C584 1.398 . S
C583 C589 1.491 . S
C584 H575 0.950 . S
C584 C583 1.398 . S
C584 C585 1.391 . S
C585 H573 0.950 . S
C585 C581 1.393 . S
C585 C584 1.391 . S
C586 H576 0.950 . S
C586 C587 1.386 . S
C586 C588 1.391 . S
C587 C586 1.386 . S
C587 C591 1.393 . S
C588 H577 0.950 . S
C588 C586 1.391 . S
C588 C589 1.400 . S
C589 C583 1.491 . S
C589 C588 1.400 . S
C589 C590 1.398 . S
C590 H578 0.950 . S
C590 C589 1.398 . S
C590 C591 1.391 . S
C591 H579 0.950 . S
C591 C587 1.393 . S
C591 C590 1.391 . S
H592 C600 0.950 . S
H593 C605 0.950 . S
H594 C602 0.950 . S
H595 C604 0.950 . S
H596 C606 0.950 . S
H597 C608 0.950 . S
H598 C610 0.950 . S
H599 C611 0.950 . S
C600 H592 0.950 . S
C600 C601 1.386 . S
C600 C602 1.391 . S
C601 C600 1.386 . S
C601 C605 1.393 . S
C602 H594 0.950 . S
C602 C600 1.391 . S
C602 C603 1.400 . S
C603 C602 1.400 . S
C603 C604 1.398 . S
C603 C609 1.491 . S
C604 H595 0.950 . S
C604 C603 1.398 . S
C604 C605 1.391 . S
C605 H593 0.950 . S
C605 C601 1.393 . S
C605 C604 1.391 . S
C606 H596 0.950 . S
C606 C607 1.386 . S
C606 C608 1.391 . S
C607 C606 1.386 . S
C607 C611 1.393 . S
C608 H597 0.950 . S
C608 C606 1.391 . S
C608 C609 1.400 . S
C609 C603 1.491 . S
C609 C608 1.400 . S
C609 C610 1.398 . S
C610 H598 0.950 . S
C610 C609 1.398 . S
C610 C611 1.391 . S
C611 H599 0.950 . S
C611 C607 1.393 . S
C611 C610 1.391 . S
H612 C620 0.950 . S
H613 C625 0.950 . S
H614 C622 0.950 . S
H615 C624 0.950 . S
H616 C626 0.950 . S
H617 C628 0.950 . S
H618 C630 0.950 . S
H619 C631 0.950 . S
C620 H612 0.950 . S
C620 C621 1.386 . S
C620 C622 1.391 . S
C621 C620 1.386 . S
C621 C625 1.393 . S
C622 H614 0.950 . S
C622 C620 1.391 . S
C622 C623 1.400 . S
C623 C622 1.400 . S
C623 C624 1.398 . S
C623 C629 1.491 . S
C624 H615 0.950 . S
C624 C623 1.398 . S
C624 C625 1.391 . S
C625 H613 0.950 . S
C625 C621 1.393 . S
C625 C624 1.391 . S
C626 H616 0.950 . S
C626 C627 1.386 . S
C626 C628 1.391 . S
C627 C626 1.386 . S
C627 C631 1.393 . S
C628 H617 0.950 . S
C628 C626 1.391 . S
C628 C629 1.400 . S
C629 C623 1.491 . S
C629 C628 1.400 . S
C629 C630 1.398 . S
C630 H618 0.950 . S
C630 C629 1.398 . S
C630 C631 1.391 . S
C631 H619 0.950 . S
C631 C627 1.393 . S
C631 C630 1.391 . S
H632 C640 0.950 . S
H633 C645 0.950 . S
H634 C642 0.950 . S
H635 C644 0.950 . S
H636 C646 0.950 . S
H637 C648 0.950 . S
H638 C650 0.977 . S
H639 C651 0.950 1_655 S
C640 H632 0.950 . S
C640 C641 1.386 . S
C640 C642 1.391 . S
C641 C640 1.386 . S
C641 C645 1.393 1_655 S
C642 H634 0.950 . S
C642 C640 1.391 . S
C642 C643 1.400 1_655 S
C643 C642 1.400 1_455 S
C643 C644 1.398 . S
C643 C649 1.491 . S
C644 H635 0.950 . S
C644 C643 1.398 . S
C644 C645 1.391 . S
C645 H633 0.950 . S
C645 C641 1.393 1_455 S
C645 C644 1.391 . S
C646 H636 0.950 . S
C646 C647 1.386 . S
C646 C648 1.391 . S
C647 C646 1.386 . S
C647 C651 1.393 . S
C648 H637 0.950 . S
C648 C646 1.391 . S
C648 C649 1.400 . S
C649 C643 1.491 . S
C649 C648 1.400 . S
C649 C650 1.378 1_455 S
C650 H638 0.977 . S
C650 C649 1.378 1_655 S
C650 C651 1.386 1_655 S
C651 H639 0.950 1_455 S
C651 C647 1.393 . S
C651 C650 1.386 1_455 S
H652 C660 0.950 . S
H653 C665 0.950 . S
H654 C662 0.950 . S
H655 C664 0.950 . S
H656 C666 0.950 . S
H657 C668 0.959 . S
H658 C670 0.950 . S
H659 C671 0.950 . S
C660 H652 0.950 . S
C660 C661 1.386 . S
C660 C662 1.391 . S
C661 C660 1.386 . S
C661 C665 1.393 . S
C662 H654 0.950 . S
C662 C660 1.391 . S
C662 C663 1.400 . S
C663 C662 1.400 . S
C663 C664 1.398 . S
C663 C669 1.491 . S
C664 H655 0.950 . S
C664 C663 1.398 . S
C664 C665 1.391 . S
C665 H653 0.950 . S
C665 C661 1.393 . S
C665 C664 1.391 . S
C666 H656 0.950 . S
C666 C667 1.386 1_545 S
C666 C668 1.391 1_545 S
C667 C666 1.386 1_565 S
C667 C671 1.393 . S
C668 H657 0.959 . S
C668 C666 1.391 1_565 S
C668 C669 1.400 . S
C669 C663 1.491 . S
C669 C668 1.400 . S
C669 C670 1.398 . S
C670 H658 0.950 . S
C670 C669 1.398 . S
C670 C671 1.391 . S
C671 H659 0.950 . S
C671 C667 1.393 . S
C671 C670 1.391 . S
H672 C680 0.950 . S
H673 C685 0.950 . S
H674 C682 0.950 . S
H675 C684 0.950 . S
H676 C686 0.950 . S
H677 C688 0.950 . S
H678 C690 0.950 . S
H679 C691 0.950 . S
C680 H672 0.950 . S
C680 C681 1.386 . S
C680 C682 1.391 . S
C681 C680 1.386 . S
C681 C685 1.393 . S
C682 H674 0.950 . S
C682 C680 1.391 . S
C682 C683 1.400 . S
C683 C682 1.400 . S
C683 C684 1.398 . S
C683 C689 1.491 . S
C684 H675 0.950 . S
C684 C683 1.398 . S
C684 C685 1.391 . S
C685 H673 0.950 . S
C685 C681 1.393 . S
C685 C684 1.391 . S
C686 H676 0.950 . S
C686 C687 1.386 . S
C686 C688 1.391 . S
C687 C686 1.386 . S
C687 C691 1.393 . S
C688 H677 0.950 . S
C688 C686 1.391 . S
C688 C689 1.400 . S
C689 C683 1.491 . S
C689 C688 1.400 . S
C689 C690 1.398 . S
C690 H678 0.950 . S
C690 C689 1.398 . S
C690 C691 1.391 . S
C691 H679 0.950 . S
C691 C687 1.393 . S
C691 C690 1.391 . S
H692 C700 0.950 . S
H693 C705 0.950 . S
H694 C702 0.950 . S
H695 C704 0.950 . S
H696 C706 0.950 . S
H697 C708 0.950 . S
H698 C710 0.950 . S
H699 C711 0.950 . S
C700 H692 0.950 . S
C700 C701 1.386 . S
C700 C702 1.391 . S
C701 C700 1.386 . S
C701 C705 1.393 . S
C702 H694 0.950 . S
C702 C700 1.391 . S
C702 C703 1.400 . S
C703 C702 1.400 . S
C703 C704 1.398 . S
C703 C709 1.491 . S
C704 H695 0.950 . S
C704 C703 1.398 . S
C704 C705 1.391 . S
C705 H693 0.950 . S
C705 C701 1.393 . S
C705 C704 1.391 . S
C706 H696 0.950 . S
C706 C707 1.386 . S
C706 C708 1.391 . S
C707 C706 1.386 . S
C707 C711 1.393 . S
C708 H697 0.950 . S
C708 C706 1.391 . S
C708 C709 1.400 . S
C709 C703 1.491 . S
C709 C708 1.400 . S
C709 C710 1.398 . S
C710 H698 0.950 . S
C710 C709 1.398 . S
C710 C711 1.391 . S
C711 H699 0.950 . S
C711 C707 1.393 . S
C711 C710 1.391 . S
H712 C720 0.950 . S
H713 C725 0.950 . S
H714 C722 0.950 . S
H715 C724 0.950 . S
H716 C726 0.950 . S
H717 C728 0.950 . S
H718 C730 0.950 . S
H719 C731 0.950 . S
C720 H712 0.950 . S
C720 C721 1.386 1_655 S
C720 C722 1.391 . S
C721 C720 1.386 1_455 S
C721 C725 1.393 . S
C722 H714 0.950 . S
C722 C720 1.391 . S
C722 C723 1.400 1_655 S
C723 C722 1.400 1_455 S
C723 C724 1.398 . S
C723 C729 1.491 . S
C724 H715 0.950 . S
C724 C723 1.398 . S
C724 C725 1.391 . S
C725 H713 0.950 . S
C725 C721 1.393 . S
C725 C724 1.391 . S
C726 H716 0.950 . S
C726 C727 1.386 . S
C726 C728 1.391 . S
C727 C726 1.386 . S
C727 C731 1.393 1_455 S
C728 H717 0.950 . S
C728 C726 1.391 . S
C728 C729 1.400 . S
C729 C723 1.491 . S
C729 C728 1.400 . S
C729 C730 1.398 1_455 S
C730 H718 0.950 . S
C730 C729 1.398 1_655 S
C730 C731 1.391 . S
C731 H719 0.950 . S
C731 C727 1.393 1_655 S
C731 C730 1.391 . S
H732 C740 0.950 . S
H733 C745 0.950 . S
H734 C742 0.950 . S
H735 C744 0.950 . S
H736 C746 0.950 . S
H737 C748 0.950 . S
H738 C750 0.950 . S
H739 C751 0.950 . S
C740 H732 0.950 . S
C740 C741 1.386 . S
C740 C742 1.391 . S
C741 C740 1.386 . S
C741 C745 1.393 . S
C742 H734 0.950 . S
C742 C740 1.391 . S
C742 C743 1.400 . S
C743 C742 1.400 . S
C743 C744 1.398 . S
C743 C749 1.491 . S
C744 H735 0.950 . S
C744 C743 1.398 . S
C744 C745 1.391 . S
C745 H733 0.950 . S
C745 C741 1.393 . S
C745 C744 1.391 . S
C746 H736 0.950 . S
C746 C747 1.386 . S
C746 C748 1.391 . S
C747 C746 1.386 . S
C747 C751 1.393 . S
C748 H737 0.950 . S
C748 C746 1.391 . S
C748 C749 1.400 . S
C749 C743 1.491 . S
C749 C748 1.400 . S
C749 C750 1.398 . S
C750 H738 0.950 . S
C750 C749 1.398 . S
C750 C751 1.391 . S
C751 H739 0.950 . S
C751 C747 1.393 . S
C751 C750 1.391 . S
H752 C760 0.950 . S
H753 C765 0.950 . S
H754 C762 0.950 . S
H755 C764 0.950 . S
H756 C766 0.950 . S
H757 C768 0.950 . S
H758 C770 0.950 . S
H759 C771 0.950 . S
C760 H752 0.950 . S
C760 C761 1.386 . S
C760 C762 1.391 . S
C761 C760 1.386 . S
C761 C765 1.393 . S
C762 H754 0.950 . S
C762 C760 1.391 . S
C762 C763 1.400 . S
C763 C762 1.400 . S
C763 C764 1.398 . S
C763 C769 1.491 . S
C764 H755 0.950 . S
C764 C763 1.398 . S
C764 C765 1.391 . S
C765 H753 0.950 . S
C765 C761 1.393 . S
C765 C764 1.391 . S
C766 H756 0.950 . S
C766 C767 1.386 . S
C766 C768 1.391 . S
C767 C766 1.386 . S
C767 C771 1.393 . S
C768 H757 0.950 . S
C768 C766 1.391 . S
C768 C769 1.400 . S
C769 C763 1.491 . S
C769 C768 1.400 . S
C769 C770 1.398 . S
C770 H758 0.950 . S
C770 C769 1.398 . S
C770 C771 1.391 . S
C771 H759 0.950 . S
C771 C767 1.393 . S
C771 C770 1.391 . S
H772 C780 0.950 . S
H773 C785 0.950 . S
H774 C782 0.950 . S
H775 C784 0.950 . S
H776 C786 0.950 . S
H777 C788 0.950 . S
H778 C790 0.950 . S
H779 C791 0.950 . S
C780 H772 0.950 . S
C780 C781 1.386 . S
C780 C782 1.391 . S
C781 C780 1.386 . S
C781 C785 1.393 . S
C782 H774 0.950 . S
C782 C780 1.391 . S
C782 C783 1.400 . S
C783 C782 1.400 . S
C783 C784 1.398 . S
C783 C789 1.491 . S
C784 H775 0.950 . S
C784 C783 1.398 . S
C784 C785 1.391 . S
C785 H773 0.950 . S
C785 C781 1.393 . S
C785 C784 1.391 . S
C786 H776 0.950 . S
C786 C787 1.386 . S
C786 C788 1.391 . S
C787 C786 1.386 . S
C787 C791 1.393 . S
C788 H777 0.950 . S
C788 C786 1.391 . S
C788 C789 1.400 . S
C789 C783 1.491 . S
C789 C788 1.400 . S
C789 C790 1.398 . S
C790 H778 0.950 . S
C790 C789 1.398 . S
C790 C791 1.391 . S
C791 H779 0.950 . S
C791 C787 1.393 . S
C791 C790 1.391 . S
H792 C800 0.950 . S
H793 C805 0.950 . S
H794 C802 0.950 . S
H795 C804 0.950 . S
H796 C806 0.950 . S
H797 C808 0.950 . S
H798 C810 0.950 . S
H799 C811 0.950 . S
C800 H792 0.950 . S
C800 C801 1.386 1_455 S
C800 C802 1.391 . S
C801 C800 1.386 1_655 S
C801 C805 1.393 . S
C802 H794 0.950 . S
C802 C800 1.391 . S
C802 C803 1.400 1_455 S
C803 C802 1.400 1_655 S
C803 C804 1.398 . S
C803 C809 1.491 . S
C804 H795 0.950 . S
C804 C803 1.398 . S
C804 C805 1.391 . S
C805 H793 0.950 . S
C805 C801 1.393 . S
C805 C804 1.391 . S
C806 H796 0.950 . S
C806 C807 1.386 . S
C806 C808 1.391 . S
C807 C806 1.386 . S
C807 C811 1.393 1_655 S
C808 H797 0.950 . S
C808 C806 1.391 . S
C808 C809 1.400 . S
C809 C803 1.491 . S
C809 C808 1.400 . S
C809 C810 1.398 1_655 S
C810 H798 0.950 . S
C810 C809 1.398 1_455 S
C810 C811 1.391 . S
C811 H799 0.950 . S
C811 C807 1.393 1_455 S
C811 C810 1.391 . S
H812 C820 0.950 . S
H813 C825 0.950 . S
H814 C822 0.950 . S
H815 C824 0.950 . S
H816 C826 0.950 1_545 S
H817 C828 0.950 . S
H818 C830 0.950 . S
H819 C831 0.950 . S
C820 H812 0.950 . S
C820 C821 1.386 . S
C820 C822 1.391 . S
C821 C820 1.386 . S
C821 C825 1.393 . S
C822 H814 0.950 . S
C822 C820 1.391 . S
C822 C823 1.400 . S
C823 C822 1.400 . S
C823 C824 1.398 . S
C823 C829 1.491 . S
C824 H815 0.950 . S
C824 C823 1.398 . S
C824 C825 1.391 . S
C825 H813 0.950 . S
C825 C821 1.393 . S
C825 C824 1.391 . S
C826 H816 0.950 1_565 S
C826 C827 1.386 . S
C826 C828 1.391 . S
C827 C826 1.386 . S
C827 C831 1.393 . S
C828 H817 0.950 . S
C828 C826 1.391 . S
C828 C829 1.400 . S
C829 C823 1.491 . S
C829 C828 1.400 . S
C829 C830 1.398 . S
C830 H818 0.950 . S
C830 C829 1.398 . S
C830 C831 1.391 . S
C831 H819 0.950 . S
C831 C827 1.393 . S
C831 C830 1.391 . S
H832 C840 0.950 . S
H833 C845 0.950 . S
H834 C842 0.950 . S
H835 C844 0.950 . S
H836 C846 0.950 . S
H837 C848 0.950 . S
H838 C850 0.950 . S
H839 C851 0.950 . S
C840 H832 0.950 . S
C840 C841 1.386 . S
C840 C842 1.391 . S
C841 C840 1.386 . S
C841 C845 1.393 . S
C842 H834 0.950 . S
C842 C840 1.391 . S
C842 C843 1.400 . S
C843 C842 1.400 . S
C843 C844 1.398 . S
C843 C849 1.491 . S
C844 H835 0.950 . S
C844 C843 1.398 . S
C844 C845 1.391 . S
C845 H833 0.950 . S
C845 C841 1.393 . S
C845 C844 1.391 . S
C846 H836 0.950 . S
C846 C847 1.386 . S
C846 C848 1.391 . S
C847 C846 1.386 . S
C847 C851 1.393 . S
C848 H837 0.950 . S
C848 C846 1.391 . S
C848 C849 1.400 . S
C849 C843 1.491 . S
C849 C848 1.400 . S
C849 C850 1.398 . S
C850 H838 0.950 . S
C850 C849 1.398 . S
C850 C851 1.391 . S
C851 H839 0.950 . S
C851 C847 1.393 . S
C851 C850 1.391 . S
H852 C860 0.950 . S
H853 C865 0.950 . S
H854 C862 0.950 . S
H855 C864 0.950 . S
H856 C866 0.950 . S
H857 C868 0.950 . S
H858 C870 0.950 . S
H859 C871 0.950 . S
C860 H852 0.950 . S
C860 C861 1.386 . S
C860 C862 1.391 . S
C861 C860 1.386 . S
C861 C865 1.393 . S
C862 H854 0.950 . S
C862 C860 1.391 . S
C862 C863 1.400 . S
C863 C862 1.400 . S
C863 C864 1.398 . S
C863 C869 1.491 . S
C864 H855 0.950 . S
C864 C863 1.398 . S
C864 C865 1.391 . S
C865 H853 0.950 . S
C865 C861 1.393 . S
C865 C864 1.391 . S
C866 H856 0.950 . S
C866 C867 1.386 . S
C866 C868 1.391 . S
C867 C866 1.386 . S
C867 C871 1.393 . S
C868 H857 0.950 . S
C868 C866 1.391 . S
C868 C869 1.400 . S
C869 C863 1.491 . S
C869 C868 1.400 . S
C869 C870 1.398 . S
C870 H858 0.950 . S
C870 C869 1.398 . S
C870 C871 1.391 . S
C871 H859 0.950 . S
C871 C867 1.393 . S
C871 C870 1.391 . S
C401 C255 1.835 . S
C407 C330 1.871 . S
C427 C350 1.550 . S
C421 C294 1.556 . S
C447 C370 1.817 . S
C441 C177 1.769 . S
C467 C390 1.559 . S
C461 C216 1.576 . S
C487 C331 1.872 1_565 S
C481 C99 1.840 . S
C501 C138 1.581 . S
C507 C351 1.567 . S
C521 C21 1.794 . S
C527 C371 1.832 . S
C541 C60 1.572 . S
C547 C391 1.553 . S
C567 C321 0.620 . S
C561 C196 0.588 . S
C587 C341 0.760 . S
C581 C235 0.776 . S
C607 C361 0.651 . S
C601 C289 0.615 . S
C621 C157 0.767 . S
C627 C381 0.750 . S
C641 C40 0.565 . S
C647 C324 0.620 . S
C667 C344 0.777 . S
C661 C79 0.787 . S
C687 C364 0.685 . S
C681 C133 0.643 . S
C701 C1 0.812 . S
C707 C384 0.817 . S
C721 C211 2.046 . S
C727 C314 2.018 . S
C741 C250 2.078 . S
C747 C334 2.050 . S
C767 C354 1.937 . S
C761 C274 1.976 . S
C787 C374 2.149 . S
C781 C172 2.156 . S
C801 C55 2.020 1_655 S
C807 C316 1.991 . S
C827 C336 2.066 . S
C821 C94 2.082 . S
C847 C356 1.911 . S
C841 C118 1.953 . S
C861 C16 2.152 . S
C867 C376 2.148 . S
