# Generated by pormake.
# Topology rtl, (3,6)-cn, num edge types: 1
# Building blocks:
#     Node 0, Type 0, BuildingBlock: MIDCAF_clean_linker_0, # of connection points: 3
#     Node 1, Type 0, BuildingBlock: MIDCAF_clean_linker_0, # of connection points: 3
#     Node 2, Type 0, BuildingBlock: MIDCAF_clean_linker_0, # of connection points: 3
#     Node 3, Type 0, BuildingBlock: MIDCAF_clean_linker_0, # of connection points: 3
#     Node 4, Type 1, BuildingBlock: KUMBUR_clean_sbu_1, # of connection points: 6
#     Node 5, Type 1, BuildingBlock: KUMBUR_clean_sbu_1, # of connection points: 6
#     Edge 6, Type (0, 1), BuildingBlock: ZUJKAS_clean_linker_0, # of connection points: 2
#     Edge 7, Type (0, 1), BuildingBlock: ZUJKAS_clean_linker_0, # of connection points: 2
#     Edge 8, Type (0, 1), BuildingBlock: ZUJKAS_clean_linker_0, # of connection points: 2
#     Edge 9, Type (0, 1), BuildingBlock: ZUJKAS_clean_linker_0, # of connection points: 2
#     Edge 10, Type (0, 1), BuildingBlock: ZUJKAS_clean_linker_0, # of connection points: 2
#     Edge 11, Type (0, 1), BuildingBlock: ZUJKAS_clean_linker_0, # of connection points: 2
#     Edge 12, Type (0, 1), BuildingBlock: ZUJKAS_clean_linker_0, # of connection points: 2
#     Edge 13, Type (0, 1), BuildingBlock: ZUJKAS_clean_linker_0, # of connection points: 2
#     Edge 14, Type (0, 1), BuildingBlock: ZUJKAS_clean_linker_0, # of connection points: 2
#     Edge 15, Type (0, 1), BuildingBlock: ZUJKAS_clean_linker_0, # of connection points: 2
#     Edge 16, Type (0, 1), BuildingBlock: ZUJKAS_clean_linker_0, # of connection points: 2
#     Edge 17, Type (0, 1), BuildingBlock: ZUJKAS_clean_linker_0, # of connection points: 2
# Relax obj value: 0.017
# Max RMSD: 0.084
# Mean RMSD: 0.052
data_MOF--net-rtl--node1-KUMBUR_clean_sbu_1--node2-MIDCAF_clean_linker_0--edge1-ZUJKAS_clean_linker_0
_symmetry_space_group_name_H-M    P1
_symmetry_Int_Tables_number       1
_symmetry_cell_setting            triclinic
loop_
_symmetry_equiv_pos_as_xyz
'x, y, z'
_cell_length_a     49.134341
_cell_length_b     49.630243
_cell_length_c     42.760895
_cell_angle_alpha  81.782612
_cell_angle_beta   99.502437
_cell_angle_gamma 90.531824
loop_
_atom_site_label
_atom_site_type_symbol
_atom_site_fract_x
_atom_site_fract_y
_atom_site_fract_z
_atom_type_partial_charge
C0 C 0.17281 0.89316 0.10708 0.0
C1 C 0.18284 0.87832 0.13725 0.0
C2 C 0.2018 0.85686 0.13919 0.0
C3 C 0.21035 0.85025 0.11155 0.0
H4 H 0.25767 0.79381 0.07884 0.0
H5 H 0.28951 0.75605 0.07991 0.0
H6 H 0.29141 0.77988 0.97909 0.0
H7 H 0.25933 0.81699 0.97776 0.0
H8 H 0.21535 0.8552 0.93694 0.0
H9 H 0.19237 0.87513 0.88422 0.0
H10 H 0.13795 0.92091 0.92735 0.0
H11 H 0.16131 0.90125 0.98054 0.0
H12 H 0.1728 0.89824 0.05661 0.0
H13 H 0.1579 0.90957 0.1047 0.0
H14 H 0.21011 0.84521 0.16213 0.0
H15 H 0.22489 0.83352 0.11398 0.0
N16 N 0.22765 0.83743 0.05363 0.0
N17 N 0.22303 0.84348 0.99766 0.0
N18 N 0.19643 0.87017 0.02243 0.0
C19 C 0.23515 0.83044 0.0266 0.0
C20 C 0.20367 0.8633 0.99525 0.0
C21 C 0.20837 0.8574 0.05174 0.0
C22 C 0.2557 0.80836 0.02817 0.0
C23 C 0.26497 0.79105 0.05694 0.0
C24 C 0.2833 0.76945 0.05758 0.0
C25 C 0.2928 0.76476 0.0295 0.0
C26 C 0.28404 0.7825 1.001 0.0
C27 C 0.2657 0.80394 1.00031 0.0
C28 C 0.19013 0.87647 0.96315 0.0
C29 C 0.19854 0.86955 0.93538 0.0
C30 C 0.18524 0.88086 0.90504 0.0
C31 C 0.16315 0.89939 0.90156 0.0
C32 C 0.15502 0.9068 0.92924 0.0
C33 C 0.16835 0.89544 0.95973 0.0
C34 C 0.20001 0.86486 0.08128 0.0
C35 C 0.18123 0.88649 0.07944 0.0
C36 C 0.6282 0.63748 0.5091 0.0
C37 C 0.63565 0.647 0.47914 0.0
C38 C 0.65344 0.66927 0.47671 0.0
C39 C 0.66372 0.68158 0.5036 0.0
H40 H 0.71631 0.73907 0.53191 0.0
H41 H 0.75009 0.77452 0.526 0.0
H42 H 0.75814 0.78109 0.62671 0.0
H43 H 0.72375 0.74559 0.63276 0.0
H44 H 0.68405 0.70712 0.6752 0.0
H45 H 0.66991 0.68933 0.72634 0.0
H46 H 0.62419 0.62614 0.68198 0.0
H47 H 0.63841 0.64346 0.6313 0.0
H48 H 0.63226 0.64187 0.55869 0.0
H49 H 0.61428 0.62056 0.51173 0.0
H50 H 0.65988 0.6769 0.45409 0.0
H51 H 0.67754 0.69856 0.50078 0.0
N52 N 0.68604 0.70536 0.56012 0.0
N53 N 0.68918 0.7079 0.61499 0.0
N54 N 0.66037 0.67583 0.5912 0.0
C55 C 0.69687 0.71708 0.58618 0.0
C56 C 0.67087 0.68722 0.61765 0.0
C57 C 0.66779 0.68477 0.56234 0.0
C58 C 0.71725 0.73926 0.5829 0.0
C59 C 0.72515 0.74797 0.55293 0.0
C60 C 0.74473 0.76827 0.54952 0.0
C61 C 0.75704 0.78051 0.57592 0.0
C62 C 0.74893 0.77218 0.60584 0.0
C63 C 0.7293 0.75173 0.60932 0.0
C64 C 0.66246 0.67676 0.64899 0.0
C65 C 0.67103 0.68939 0.67636 0.0
C66 C 0.66282 0.67929 0.70566 0.0
C67 C 0.64604 0.65622 0.70831 0.0
C68 C 0.63749 0.64366 0.68096 0.0
C69 C 0.64553 0.65379 0.65174 0.0
C70 C 0.65643 0.67197 0.53365 0.0
C71 C 0.63843 0.64982 0.53602 0.0
C72 C 0.84122 0.10554 0.94705 0.0
C73 C 0.83249 0.1199 0.91629 0.0
C74 C 0.81387 0.14191 0.9127 0.0
C75 C 0.80445 0.14956 0.93937 0.0
H76 H 0.75321 0.2054 0.96765 0.0
H77 H 0.72251 0.24459 0.9641 0.0
H78 H 0.72992 0.23305 0.0672 0.0
H79 H 0.76068 0.19442 0.07094 0.0
H80 H 0.79764 0.15052 0.11296 0.0
H81 H 0.81923 0.13012 0.1662 0.0
H82 H 0.86886 0.07793 0.12474 0.0
H83 H 0.84692 0.098 0.07121 0.0
H84 H 0.8394 0.10178 0.99698 0.0
H85 H 0.85586 0.08875 0.95074 0.0
H86 H 0.80655 0.15322 0.88926 0.0
H87 H 0.79029 0.16674 0.93576 0.0
N88 N 0.78648 0.16519 0.99592 0.0
N89 N 0.78994 0.16036 0.05178 0.0
N90 N 0.81543 0.13137 0.02864 0.0
C91 C 0.77896 0.17339 0.02235 0.0
C92 C 0.80815 0.13935 0.0552 0.0
C93 C 0.80469 0.14409 0.9989 0.0
C94 C 0.7596 0.19674 0.01958 0.0
C95 C 0.74828 0.2112 0.98956 0.0
C96 C 0.73059 0.2336 0.9875 0.0
C97 C 0.72396 0.24205 0.01539 0.0
C98 C 0.73501 0.22739 0.04529 0.0
C99 C 0.75257 0.20506 0.04737 0.0
C100 C 0.8206 0.12604 0.08766 0.0
C101 C 0.81307 0.13463 0.11504 0.0
C102 C 0.82556 0.12304 0.14565 0.0
C103 C 0.84591 0.10256 0.1497 0.0
C104 C 0.85309 0.09353 0.12241 0.0
C105 C 0.84059 0.10516 0.09171 0.0
C106 C 0.81356 0.13544 0.97024 0.0
C107 C 0.83189 0.1132 0.97366 0.0
C108 C 0.36711 0.375 0.54128 0.0
C109 C 0.35594 0.36379 0.56844 0.0
C110 C 0.33862 0.3412 0.56624 0.0
C111 C 0.33226 0.33036 0.53756 0.0
H112 H 0.29184 0.26783 0.50003 0.0
H113 H 0.25745 0.23233 0.49836 0.0
H114 H 0.24585 0.24506 0.395 0.0
H115 H 0.2804 0.28091 0.39651 0.0
H116 H 0.32845 0.31565 0.36472 0.0
H117 H 0.34815 0.33429 0.3177 0.0
H118 H 0.3968 0.38955 0.3728 0.0
H119 H 0.37678 0.37136 0.41968 0.0
H120 H 0.36945 0.37347 0.49196 0.0
H121 H 0.38035 0.39254 0.54206 0.0
H122 H 0.33005 0.33173 0.58682 0.0
H123 H 0.31874 0.31301 0.53693 0.0
N124 N 0.31709 0.30995 0.47758 0.0
N125 N 0.32024 0.31016 0.42345 0.0
N126 N 0.34625 0.34076 0.45308 0.0
C127 C 0.30932 0.29965 0.44975 0.0
C128 C 0.33883 0.33068 0.42493 0.0
C129 C 0.33544 0.3305 0.47953 0.0
C130 C 0.28892 0.27736 0.44838 0.0
C131 C 0.28208 0.26312 0.47686 0.0
C132 C 0.26246 0.24259 0.47595 0.0
C133 C 0.24896 0.23583 0.44656 0.0
C134 C 0.25578 0.24994 0.41802 0.0
C135 C 0.27569 0.27037 0.41891 0.0
C136 C 0.35092 0.34196 0.39615 0.0
C137 C 0.34333 0.33179 0.3669 0.0
C138 C 0.35477 0.34238 0.3399 0.0
C139 C 0.3741 0.36344 0.34139 0.0
C140 C 0.38171 0.3736 0.37062 0.0
C141 C 0.37029 0.36301 0.39762 0.0
C142 C 0.34307 0.34175 0.5102 0.0
C143 C 0.36074 0.36412 0.51248 0.0
Tb144 Tb 0.03467 0.97239 0.51372 0.0
C145 C 0.99268 0.09671 0.50629 0.0
N146 N 0.00907 0.07999 0.52946 0.0
C147 C 0.04075 0.11631 0.53778 0.0
C148 C 1.00008 0.12379 0.49703 0.0
C149 C 0.03215 0.08969 0.5464 0.0
C150 C 0.02488 0.13331 0.51257 0.0
C151 C 0.94833 0.1044 0.47188 0.0
C152 C 0.96733 0.08719 0.4939 0.0
C153 C 0.95609 0.131 0.46107 0.0
C154 C 0.98197 0.14068 0.4736 0.0
Tb155 Tb 0.99473 0.03627 0.5394 0.0
N156 N 0.96065 0.0615 0.5052 0.0
C157 C 0.92189 0.09459 0.46232 0.0
C158 C 0.93427 0.05251 0.4979 0.0
C159 C 0.91469 0.06868 0.47581 0.0
H160 H 0.04421 0.07665 0.56617 0.0
H161 H 0.89408 0.0612 0.46924 0.0
H162 H 0.01294 0.91721 0.5543 0.0
H163 H 0.13654 0.01728 0.5217 0.0
H164 H 0.92874 0.03248 0.50832 0.0
H165 H 0.90666 0.10713 0.44535 0.0
H166 H 0.09049 0.00721 0.49427 0.0
H167 H 0.05952 0.1237 0.55062 0.0
H168 H 0.94194 0.14449 0.44382 0.0
H169 H 0.98737 0.1615 0.46584 0.0
H170 H 0.02959 0.88573 0.60404 0.0
H171 H 0.03144 0.15397 0.50611 0.0
H172 H 0.15397 0.99363 0.5762 0.0
N173 N 0.04886 0.94155 0.55833 0.0
C174 C 0.07433 0.94508 0.5749 0.0
C175 C 0.04236 0.90238 0.59614 0.0
C176 C 0.08449 0.92797 0.60361 0.0
C177 C 0.03306 0.92011 0.56795 0.0
C178 C 0.06807 0.90649 0.61424 0.0
N179 N 0.07956 0.9815 0.53466 0.0
C180 C 0.0968 0.99815 0.51885 0.0
C181 C 0.11683 0.97023 0.5791 0.0
C182 C 0.09001 0.96613 0.56298 0.0
C183 C 0.13324 0.98982 0.56465 0.0
C184 C 0.12342 0.00331 0.53399 0.0
H185 H 0.07511 0.8929 0.63622 0.0
H186 H 0.11863 0.92024 0.64305 0.0
H187 H 0.14714 0.95712 0.6214 0.0
O188 O 0.05939 0.95791 0.48335 0.0
O189 O 0.02435 0.97536 0.56133 0.0
O190 O 0.03367 0.01933 0.56603 0.0
O191 O 0.025 0.93527 0.49668 0.0
O192 O 0.04228 0.01394 0.49125 0.0
O193 O 0.03787 0.03645 0.53295 0.0
O194 O 0.98042 0.01796 0.58111 0.0
O195 O 0.98103 0.02936 0.48995 0.0
O196 O 0.00603 0.99484 0.47405 0.0
O197 O 0.98087 0.06152 0.56913 0.0
O198 O 0.97036 0.99915 0.53528 0.0
O199 O 0.99157 0.96355 0.51647 0.0
C200 C 0.03476 0.99379 0.57871 0.0
C201 C 0.03318 0.93501 0.44388 0.0
C202 C 0.04235 0.93206 0.38993 0.0
C203 C 0.01375 0.9316 0.37902 0.0
C204 C 0.0047 0.93407 0.43237 0.0
C205 C 0.99514 0.93253 0.40015 0.0
C206 C 0.05195 0.9337 0.42255 0.0
C207 C 0.04529 0.0361 0.50498 0.0
C208 C 0.04328 0.93768 0.47787 0.0
C209 C 0.11059 0.93289 0.62067 0.0
C210 C 0.12675 0.95399 0.60843 0.0
C211 C 0.98707 0.01445 0.46878 0.0
C212 C 0.98888 0.0439 0.6237 0.0
C213 C 0.98281 0.05029 0.67771 0.0
C214 C 0.01171 0.05058 0.68659 0.0
C215 C 0.01755 0.04502 0.63278 0.0
C216 C 0.97159 0.0465 0.64615 0.0
C217 C 0.0289 0.04791 0.66423 0.0
C218 C 0.97075 0.97465 0.52638 0.0
C219 C 0.9767 0.04127 0.59056 0.0
H220 H 0.00575 0.93 0.3542 0.0
H221 H 0.9897 0.93472 0.44818 0.0
H222 H 0.97317 0.932 0.39152 0.0
H223 H 0.07393 0.93432 0.43123 0.0
H224 H 0.02106 0.05372 0.71053 0.0
H225 H 0.03111 0.04405 0.61548 0.0
H226 H 0.94942 0.04584 0.63889 0.0
H227 H 0.05108 0.04861 0.67114 0.0
Tb228 Tb 0.48045 0.48829 0.98827 0.0
C229 C 0.59321 0.53336 0.02655 0.0
N230 N 0.58179 0.51153 0.04223 0.0
C231 C 0.6229 0.48513 0.04402 0.0
C232 C 0.61929 0.53152 0.01729 0.0
C233 C 0.59719 0.48827 0.0532 0.0
C234 C 0.63372 0.50666 0.0253 0.0
C235 C 0.59155 0.58196 0.00839 0.0
C236 C 0.57968 0.55819 0.02218 0.0
C237 C 0.61675 0.58002 0.99734 0.0
C238 C 0.63057 0.55481 1.00171 0.0
Tb239 Tb 0.53823 0.51851 0.05279 0.0
N240 N 0.55508 0.55908 0.03247 0.0
C241 C 0.57794 0.60692 0.00673 0.0
C242 C 0.54246 0.58345 0.03268 0.0
C243 C 0.55351 0.60771 0.01942 0.0
H244 H 0.58987 0.4721 0.06928 0.0
H245 H 0.54314 0.62696 0.01887 0.0
H246 H 0.42287 0.51644 0.9992 0.0
H247 H 0.5092 0.38211 0.99474 0.0
H248 H 0.52355 0.58401 0.0424 0.0
H249 H 0.58638 0.62571 0.99633 0.0
H250 H 0.51097 0.43122 0.97613 0.0
H251 H 0.63454 0.46628 0.05186 0.0
H252 H 0.62603 0.59797 0.98612 0.0
H253 H 0.6504 0.55373 0.99397 0.0
H254 H 0.38138 0.50206 0.02275 0.0
H255 H 0.6538 0.50433 0.0186 0.0
H256 H 0.47347 0.36413 0.02643 0.0
N257 N 0.44105 0.47682 0.00857 0.0
C258 C 0.43797 0.45008 0.01927 0.0
C259 C 0.39723 0.48725 0.0221 0.0
C260 C 0.41488 0.44093 0.03318 0.0
C261 C 0.4207 0.49535 0.00878 0.0
C262 C 0.39448 0.45998 0.03476 0.0
N263 N 0.47917 0.44173 1.00083 0.0
C264 C 0.49638 0.42398 0.99159 0.0
C265 C 0.4554 0.40386 0.02579 0.0
C266 C 0.45804 0.43196 0.01582 0.0
C267 C 0.47473 0.38587 0.01918 0.0
C268 C 0.49497 0.39595 1.0014 0.0
H269 H 0.37637 0.45378 0.04523 0.0
H270 H 0.39536 0.40569 0.0557 0.0
H271 H 0.43081 0.37314 0.04906 0.0
O272 O 0.46558 0.46996 0.9474 0.0
O273 O 0.47446 0.48891 0.03813 0.0
O274 O 0.51759 0.48061 0.06733 0.0
O275 O 0.45849 0.51249 0.94759 0.0
O276 O 0.52352 0.47405 0.99386 0.0
O277 O 0.54153 0.47527 0.04705 0.0
O278 O 0.52663 0.5334 0.09244 0.0
O279 O 0.52739 0.53909 0.00312 0.0
O280 O 0.51871 0.50427 0.9734 0.0
O281 O 0.5684 0.52115 0.09331 0.0
O282 O 0.49667 0.53671 0.0456 0.0
O283 O 0.47361 0.53082 0.99457 0.0
C284 C 0.49073 0.47814 0.06432 0.0
C285 C 0.42619 0.48961 0.91294 0.0
C286 C 0.39759 0.47565 0.86562 0.0
C287 C 0.37405 0.48493 0.87593 0.0
C288 C 0.40248 0.49904 0.92253 0.0
C289 C 0.37655 0.49652 0.90418 0.0
C290 C 0.42361 0.47797 0.88452 0.0
C291 C 0.54066 0.46487 0.02022 0.0
C292 C 0.45398 0.49219 0.93135 0.0
C293 C 0.41279 0.41314 0.04459 0.0
C294 C 0.43303 0.39462 0.04091 0.0
C295 C 0.52894 0.52831 0.97722 0.0
C296 C 0.55162 0.51434 0.14217 0.0
C297 C 0.55683 0.51452 0.19995 0.0
C298 C 0.55217 0.4863 0.20404 0.0
C299 C 0.54761 0.48615 0.14682 0.0
C300 C 0.55628 0.52844 0.16872 0.0
C301 C 0.54765 0.47227 0.1776 0.0
C302 C 0.47726 0.54338 0.02027 0.0
C303 C 0.55091 0.52924 0.10978 0.0
H304 H 0.35367 0.4831 0.86227 0.0
H305 H 0.40395 0.50856 0.94392 0.0
H306 H 0.35831 0.50371 0.91179 0.0
H307 H 0.44205 0.47129 0.87678 0.0
H308 H 0.55269 0.47494 0.22772 0.0
H309 H 0.54463 0.47493 0.12668 0.0
H310 H 0.55934 0.55025 0.16499 0.0
H311 H 0.54444 0.45051 0.18101 0.0
H312 H 0.25122 0.1859 0.48347 0.0
H313 H 0.21467 0.1522 0.4855 0.0
H314 H 0.16155 0.20362 0.41072 0.0
H315 H 0.19802 0.23766 0.40876 0.0
H316 H 0.13755 0.18454 0.46645 0.0
H317 H 0.18465 0.10023 0.42041 0.0
H318 H 0.20698 0.11407 0.45168 0.0
H319 H 0.19606 0.13499 0.41382 0.0
C320 C 0.23181 0.18998 0.46733 0.0
C321 C 0.2275 0.21447 0.44598 0.0
C322 C 0.21104 0.1706 0.46832 0.0
C323 C 0.18551 0.17527 0.44801 0.0
C324 C 0.18119 0.19954 0.42641 0.0
H325 H 0.05194 0.0548 0.44339 0.0
H326 H 0.0845 0.08952 0.42572 0.0
C327 C 0.20208 0.21888 0.42522 0.0
C328 C 0.16287 0.15554 0.45094 0.0
H329 H 0.14631 0.08887 0.44755 0.0
C330 C 0.13927 0.16373 0.46189 0.0
C331 C 0.16507 0.12846 0.44475 0.0
C332 C 0.18943 0.11889 0.43173 0.0
C333 C 0.11842 0.14519 0.46823 0.0
C334 C 0.1213 0.1178 0.46356 0.0
C335 C 0.14425 0.10988 0.45123 0.0
C336 C 0.10172 0.09676 0.47367 0.0
C337 C 0.09365 0.15482 0.48049 0.0
C338 C 0.10112 0.08905 0.50637 0.0
C339 C 0.08288 0.06924 0.5164 0.0
C340 C 0.06458 0.05698 0.49392 0.0
C341 C 0.06559 0.06423 0.46115 0.0
C342 C 0.0841 0.084 0.45108 0.0
H343 H 0.09142 0.17736 0.47604 0.0
H344 H 0.07444 0.14579 0.46905 0.0
H345 H 0.09601 0.14817 0.50672 0.0
H346 H 0.11499 0.09822 0.52419 0.0
H347 H 0.08339 0.06324 0.54185 0.0
H348 H 0.3368 0.74515 0.07529 0.0
H349 H 0.36808 0.70724 0.0741 0.0
H350 H 0.32245 0.69365 0.98272 0.0
H351 H 0.29087 0.73105 0.9839 0.0
H352 H 0.35453 0.65098 0.06761 0.0
H353 H 0.40363 0.70266 0.96748 0.0
H354 H 0.38422 0.72095 0.9903 0.0
H355 H 0.36655 0.70256 0.95992 0.0
C356 C 0.33327 0.73394 0.05508 0.0
C357 C 0.31148 0.74132 0.02955 0.0
C358 C 0.35123 0.71239 0.05438 0.0
C359 C 0.34781 0.698 0.02807 0.0
C360 C 0.32578 0.70491 0.00291 0.0
H361 H 0.435 0.56535 0.97348 0.0
H362 H 0.4032 0.60231 0.97599 0.0
C363 C 0.3078 0.72634 0.00362 0.0
C364 C 0.3671 0.67557 0.02693 0.0
H365 H 0.41479 0.65597 0.98461 0.0
C366 C 0.36783 0.65207 0.0496 0.0
C367 C 0.38427 0.67708 0.00327 0.0
C368 C 0.38491 0.70223 0.97898 0.0
C369 C 0.38497 0.62976 0.04888 0.0
C370 C 0.40222 0.6313 0.02527 0.0
C371 C 0.4015 0.65484 0.00263 0.0
C372 C 0.42146 0.60884 0.02388 0.0
C373 C 0.38395 0.60451 0.07293 0.0
C374 C 0.44252 0.60056 0.04977 0.0
C375 C 0.46065 0.57939 0.04851 0.0
C376 C 0.45825 0.56619 0.02117 0.0
C377 C 0.4374 0.5749 0.99499 0.0
C378 C 0.4192 0.59605 0.99634 0.0
H379 H 0.36461 0.60374 0.0833 0.0
H380 H 0.38558 0.5858 0.06183 0.0
H381 H 0.40156 0.60452 0.09286 0.0
H382 H 0.44504 0.61058 0.07095 0.0
H383 H 0.47652 0.57342 0.06908 0.0
H384 H 0.76318 0.82849 0.60133 0.0
H385 H 0.79726 0.86403 0.5925 0.0
H386 H 0.83318 0.81588 0.53304 0.0
H387 H 0.79939 0.78039 0.54175 0.0
H388 H 0.85472 0.86198 0.60555 0.0
H389 H 0.81826 0.88868 0.47512 0.0
H390 H 0.7982 0.86843 0.5013 0.0
H391 H 0.82598 0.85306 0.4871 0.0
C392 C 0.77846 0.82541 0.58654 0.0
C393 C 0.77835 0.80172 0.57194 0.0
C394 C 0.79782 0.84579 0.5814 0.0
C395 C 0.81736 0.84289 0.56151 0.0
C396 C 0.8178 0.81893 0.54771 0.0
H397 H 0.9593 0.92581 0.50439 0.0
H398 H 0.92085 0.8957 0.51304 0.0
C399 C 0.79847 0.79863 0.55276 0.0
C400 C 0.83765 0.86462 0.55549 0.0
H401 H 0.86214 0.90594 0.49557 0.0
C402 C 0.85616 0.87184 0.58156 0.0
C403 C 0.83946 0.87751 0.52415 0.0
C404 C 0.81925 0.87175 0.49534 0.0
C405 C 0.87707 0.89083 0.57702 0.0
C406 C 0.87927 0.90317 0.54561 0.0
C407 C 0.86044 0.89637 0.51961 0.0
C408 C 0.9017 0.92235 0.53916 0.0
C409 C 0.89726 0.89684 0.60572 0.0
C410 C 0.90332 0.94767 0.55031 0.0
C411 C 0.92526 0.96508 0.54532 0.0
C412 C 0.94607 0.95745 0.52912 0.0
C413 C 0.94383 0.93237 0.51715 0.0
C414 C 0.92183 0.91509 0.52203 0.0
H415 H 0.89604 0.88182 0.62734 0.0
H416 H 0.91871 0.89687 0.60067 0.0
H417 H 0.89263 0.91735 0.61117 0.0
H418 H 0.88773 0.95385 0.56315 0.0
H419 H 0.92621 0.9842 0.55485 0.0
H420 H 0.73068 0.28239 0.05317 0.0
H421 H 0.69929 0.32041 0.05266 0.0
H422 H 0.64493 0.29477 0.97275 0.0
H423 H 0.67593 0.25615 0.97363 0.0
H424 H 0.6805 0.36319 0.00353 0.0
H425 H 0.59435 0.29931 0.03984 0.0
H426 H 0.629 0.28606 0.04349 0.0
H427 H 0.60692 0.29105 0.00516 0.0
C428 C 0.71195 0.28471 0.03562 0.0
C429 C 0.70564 0.26607 0.01366 0.0
C430 C 0.69414 0.30655 0.03523 0.0
C431 C 0.66961 0.31015 0.013 0.0
C432 C 0.66356 0.29207 0.99046 0.0
H433 H 0.56261 0.45369 0.96904 0.0
H434 H 0.59417 0.41626 0.96719 0.0
C435 C 0.68141 0.27019 0.99078 0.0
C436 C 0.65039 0.3328 0.0137 0.0
H437 H 0.58555 0.34674 0.0266 0.0
C438 C 0.65972 0.35963 0.00852 0.0
C439 C 0.62346 0.32802 0.02069 0.0
C440 C 0.61281 0.29957 0.02791 0.0
C441 C 0.6427 0.38187 0.00981 0.0
C442 C 0.61557 0.37709 0.01608 0.0
C443 C 0.60632 0.35028 0.02158 0.0
C444 C 0.59649 0.3997 0.01721 0.0
C445 C 0.654 0.41027 0.00505 0.0
C446 C 0.58698 0.40243 0.04581 0.0
C447 C 0.56889 0.42372 0.04689 0.0
C448 C 0.55989 0.44245 0.01931 0.0
C449 C 0.56924 0.4395 0.99064 0.0
C450 C 0.58738 0.41828 0.9896 0.0
H451 H 0.67689 0.4101 0.00788 0.0
H452 H 0.6457 0.42035 0.98049 0.0
H453 H 0.64761 0.42268 0.02232 0.0
H454 H 0.59369 0.38817 0.06731 0.0
H455 H 0.56177 0.42543 0.06921 0.0
H456 H 0.16743 0.84254 0.18584 0.0
H457 H 0.14787 0.85318 0.23183 0.0
H458 H 0.15546 0.93894 0.20029 0.0
H459 H 0.17533 0.92854 0.15434 0.0
H460 H 0.17328 0.91629 0.2726 0.0
H461 H 0.06744 0.89154 0.21568 0.0
H462 H 0.09482 0.86766 0.21568 0.0
H463 H 0.09465 0.90083 0.19265 0.0
C464 C 0.16537 0.86366 0.18895 0.0
C465 C 0.1728 0.88471 0.16635 0.0
C466 C 0.15409 0.86968 0.21514 0.0
C467 C 0.15016 0.89681 0.21928 0.0
C468 C 0.15836 0.91787 0.19743 0.0
H469 H 0.03941 0.95959 0.32945 0.0
H470 H 0.06789 0.9525 0.28946 0.0
C471 C 0.1695 0.91189 0.17111 0.0
C472 C 0.13598 0.90321 0.24531 0.0
H473 H 0.07253 0.90305 0.26781 0.0
C474 C 0.15127 0.91342 0.27168 0.0
C475 C 0.10726 0.89966 0.24373 0.0
C476 C 0.08989 0.88948 0.21539 0.0
C477 C 0.13849 0.91996 0.2968 0.0
C478 C 0.10978 0.916 0.29543 0.0
C479 C 0.09455 0.906 0.26886 0.0
C480 C 0.0948 0.92232 0.32098 0.0
C481 C 0.15567 0.93147 0.32428 0.0
C482 C 0.10075 0.90799 0.35216 0.0
C483 C 0.08446 0.912 0.37511 0.0
C484 C 0.06178 0.93019 0.36712 0.0
C485 C 0.05652 0.94517 0.33619 0.0
C486 C 0.07282 0.94122 0.31336 0.0
H487 H 0.17561 0.93939 0.31805 0.0
H488 H 0.14434 0.94813 0.33163 0.0
H489 H 0.16026 0.91515 0.34512 0.0
H490 H 0.11729 0.89293 0.35839 0.0
H491 H 0.08883 0.89996 0.39862 0.0
H492 H 0.64407 0.60289 0.73496 0.0
H493 H 0.62627 0.58452 0.78368 0.0
H494 H 0.61063 0.666 0.80092 0.0
H495 H 0.62786 0.6846 0.75171 0.0
H496 H 0.64323 0.59361 0.84855 0.0
H497 H 0.53512 0.62839 0.8005 0.0
H498 H 0.56087 0.62729 0.77507 0.0
H499 H 0.56099 0.65418 0.79907 0.0
C500 C 0.63674 0.61693 0.74903 0.0
C501 C 0.63712 0.64522 0.73923 0.0
C502 C 0.62676 0.60639 0.77698 0.0
C503 C 0.61677 0.62387 0.79567 0.0
C504 C 0.61787 0.65214 0.78658 0.0
H505 H 0.53156 0.58334 0.96057 0.0
H506 H 0.55493 0.608 0.91889 0.0
C507 C 0.62796 0.66274 0.75862 0.0
C508 C 0.60468 0.61228 0.82421 0.0
H509 H 0.54388 0.6053 0.85329 0.0
C510 C 0.62154 0.59625 0.84968 0.0
C511 C 0.57639 0.61583 0.82566 0.0
C512 C 0.55714 0.63217 0.79857 0.0
C513 C 0.61082 0.58354 0.87649 0.0
C514 C 0.58238 0.58649 0.87752 0.0
C515 C 0.56567 0.60304 0.85242 0.0
C516 C 0.56928 0.57164 0.90371 0.0
C517 C 0.63005 0.56721 0.90359 0.0
C518 C 0.56936 0.54305 0.90881 0.0
C519 C 0.55616 0.52899 0.93267 0.0
C520 C 0.54265 0.54327 0.95187 0.0
C521 C 0.54231 0.57186 0.94653 0.0
C522 C 0.5555 0.58594 0.92263 0.0
H523 H 0.65187 0.57327 0.90352 0.0
H524 H 0.62444 0.56971 0.92713 0.0
H525 H 0.62854 0.54532 0.90088 0.0
H526 H 0.57933 0.53159 0.89403 0.0
H527 H 0.55669 0.50693 0.93622 0.0
H528 H 0.85943 0.04919 0.17352 0.0
H529 H 0.8822 0.03081 0.22774 0.0
H530 H 0.88707 0.11183 0.25348 0.0
H531 H 0.86455 0.13032 0.19953 0.0
H532 H 0.93416 0.04324 0.26088 0.0
H533 H 0.84985 0.06896 0.32361 0.0
H534 H 0.84496 0.06897 0.28082 0.0
H535 H 0.86077 0.09747 0.29806 0.0
C536 C 0.86547 0.06308 0.19072 0.0
C537 C 0.85994 0.09118 0.18233 0.0
C538 C 0.87835 0.05254 0.22167 0.0
C539 C 0.8858 0.06991 0.24474 0.0
C540 C 0.88082 0.098 0.23626 0.0
H541 H 0.97016 0.0645 0.43723 0.0
H542 H 0.945 0.07579 0.38268 0.0
C543 C 0.86794 0.10852 0.20542 0.0
C544 C 0.89933 0.05893 0.27759 0.0
H545 H 0.89343 0.05684 0.35631 0.0
C546 C 0.92516 0.04589 0.28178 0.0
C547 C 0.88744 0.06237 0.30474 0.0
C548 C 0.85911 0.07497 0.30166 0.0
C549 C 0.94 0.03722 0.31253 0.0
C550 C 0.92844 0.04142 0.33966 0.0
C551 C 0.90228 0.0538 0.33543 0.0
C552 C 0.94357 0.0342 0.37269 0.0
C553 C 0.96835 0.02462 0.31574 0.0
C554 C 0.95079 0.00705 0.38528 0.0
C555 C 0.96497 1.00059 0.41659 0.0
C556 C 0.97197 0.02111 0.43581 0.0
C557 C 0.96454 0.04822 0.42319 0.0
C558 C 0.95038 0.0547 0.39196 0.0
H559 H 0.97662 0.0282 0.29286 0.0
H560 H 0.98306 0.03289 0.33453 0.0
H561 H 0.96721 0.0023 0.3229 0.0
H562 H 0.9452 0.99085 0.37104 0.0
H563 H 0.96996 0.97954 0.42601 0.0
H564 H 0.40531 0.38271 0.5969 0.0
H565 H 0.415 0.40121 0.64771 0.0
H566 H 0.32998 0.39026 0.65961 0.0
H567 H 0.32007 0.37201 0.60891 0.0
H568 H 0.39182 0.44626 0.66668 0.0
H569 H 0.37226 0.35107 0.74424 0.0
H570 H 0.37695 0.3517 0.70315 0.0
H571 H 0.34421 0.36125 0.71221 0.0
C572 C 0.38864 0.3844 0.61023 0.0
C573 C 0.36196 0.37563 0.59894 0.0
C574 C 0.39424 0.39486 0.63934 0.0
C575 C 0.37333 0.39662 0.65775 0.0
C576 C 0.34659 0.38843 0.64622 0.0
H577 H 0.36422 0.49342 0.80853 0.0
H578 H 0.35985 0.47416 0.75847 0.0
C579 C 0.34097 0.37799 0.6172 0.0
C580 C 0.37923 0.40745 0.68877 0.0
H581 H 0.37573 0.39166 0.76842 0.0
C582 C 0.38849 0.43428 0.68897 0.0
C583 C 0.37529 0.39166 0.71793 0.0
C584 C 0.3669 0.36223 0.71955 0.0
C585 C 0.39307 0.44602 0.71739 0.0
C586 C 0.38783 0.43065 0.74626 0.0
C587 C 0.37943 0.40354 0.74622 0.0
C588 C 0.39061 0.44238 0.77669 0.0
C589 C 0.40366 0.47471 0.71626 0.0
C590 C 0.40879 0.43047 0.8039 0.0
C591 C 0.41107 0.44122 0.83273 0.0
C592 C 0.39507 0.46402 0.83502 0.0
C593 C 0.37669 0.47572 0.80775 0.0
C594 C 0.37442 0.46496 0.77895 0.0
H595 H 0.41396 0.48069 0.69509 0.0
H596 H 0.38605 0.48899 0.71449 0.0
H597 H 0.41849 0.47705 0.73827 0.0
H598 H 0.42129 0.41287 0.80278 0.0
H599 H 0.42514 0.43145 0.85335 0.0
H600 H 0.61736 0.67102 0.41749 0.0
H601 H 0.60213 0.6486 0.37035 0.0
H602 H 0.61489 0.57015 0.42908 0.0
H603 H 0.63087 0.59236 0.47619 0.0
H604 H 0.63811 0.57412 0.37326 0.0
H605 H 0.52893 0.60991 0.34653 0.0
H606 H 0.5537 0.63658 0.35034 0.0
H607 H 0.55068 0.61178 0.38454 0.0
C608 C 0.61698 0.64899 0.42038 0.0
C609 C 0.62531 0.63349 0.45064 0.0
C610 C 0.60797 0.63623 0.39347 0.0
C611 C 0.60701 0.60773 0.3963 0.0
C612 C 0.61528 0.59218 0.42643 0.0
H613 H 0.53209 0.50873 0.25348 0.0
H614 H 0.5442 0.53123 0.30121 0.0
C615 C 0.62424 0.60492 0.45336 0.0
C616 C 0.59852 0.59406 0.36762 0.0
H617 H 0.54499 0.58766 0.30717 0.0
C618 C 0.61773 0.577 0.35887 0.0
C619 C 0.57182 0.59764 0.34908 0.0
C620 C 0.54996 0.61477 0.35818 0.0
C621 C 0.61112 0.56379 0.33174 0.0
C622 C 0.58471 0.56803 0.31263 0.0
C623 C 0.56531 0.58468 0.3217 0.0
C624 C 0.57684 0.55513 0.28328 0.0
C625 C 0.63235 0.54511 0.32397 0.0
C626 C 0.59086 0.5615 0.25718 0.0
C627 C 0.58408 0.54862 0.22997 0.0
C628 C 0.56307 0.52918 0.22827 0.0
C629 C 0.54864 0.52332 0.25421 0.0
C630 C 0.5554 0.53627 0.2814 0.0
H631 H 0.64872 0.53888 0.34496 0.0
H632 H 0.62255 0.52652 0.31578 0.0
H633 H 0.64232 0.55586 0.30437 0.0
H634 H 0.60721 0.5763 0.25796 0.0
H635 H 0.59575 0.55346 0.21055 0.0
H636 H 0.84986 0.1541 0.8676 0.0
H637 H 0.87153 0.14171 0.82397 0.0
H638 H 0.86337 0.05663 0.85903 0.0
H639 H 0.84098 0.06882 0.90217 0.0
H640 H 0.92047 0.11176 0.8323 0.0
H641 H 0.83472 0.06082 0.76275 0.0
H642 H 0.82921 0.08249 0.79172 0.0
H643 H 0.84131 0.04801 0.8048 0.0
C644 C 0.85211 0.13276 0.86562 0.0
C645 C 0.8437 0.11244 0.88838 0.0
C646 C 0.86466 0.12571 0.8408 0.0
C647 C 0.86882 0.09826 0.83809 0.0
C648 C 0.85996 0.07793 0.86036 0.0
H649 H 0.98895 0.03095 0.74193 0.0
H650 H 0.96072 0.0423 0.78049 0.0
C651 C 0.84745 0.08495 0.88521 0.0
C652 C 0.88416 0.09091 0.81338 0.0
H653 H 0.87953 0.05577 0.74962 0.0
C654 C 0.91148 0.09963 0.81413 0.0
C655 C 0.8723 0.07523 0.78959 0.0
C656 C 0.84269 0.06627 0.78687 0.0
C657 C 0.92746 0.09268 0.79207 0.0
C658 C 0.91589 0.07634 0.7689 0.0
C659 C 0.8884 0.06804 0.7677 0.0
C660 C 0.93199 0.06815 0.74536 0.0
C661 C 0.95652 0.10312 0.79346 0.0
C662 C 0.92474 0.07841 0.71277 0.0
C663 C 0.94091 0.07215 0.69072 0.0
C664 C 0.96454 0.05531 0.70083 0.0
C665 C 0.97119 0.04436 0.73342 0.0
C666 C 0.95505 0.05074 0.75547 0.0
H667 H 0.96028 0.11997 0.80812 0.0
H668 H 0.97132 0.0863 0.80436 0.0
H669 H 0.96083 0.11045 0.76901 0.0
H670 H 0.90699 0.0919 0.70455 0.0
H671 H 0.93536 0.08122 0.66591 0.0
H672 H 0.38467 0.41688 0.32086 0.0
H673 H 0.4045 0.43547 0.2736 0.0
H674 H 0.41081 0.35464 0.24935 0.0
H675 H 0.3912 0.33582 0.29669 0.0
H676 H 0.45544 0.42456 0.25702 0.0
H677 H 0.36923 0.39714 0.16631 0.0
H678 H 0.36611 0.39648 0.20789 0.0
H679 H 0.38345 0.36906 0.19555 0.0
C680 C 0.39043 0.403 0.30562 0.0
C681 C 0.3862 0.37482 0.31258 0.0
C682 C 0.40166 0.41369 0.27852 0.0
C683 C 0.40878 0.39651 0.25767 0.0
C684 C 0.40491 0.36836 0.2647 0.0
H685 H 0.51346 0.43825 0.11193 0.0
H686 H 0.49402 0.41831 0.15909 0.0
C687 C 0.39367 0.35764 0.29179 0.0
C688 C 0.42056 0.40805 0.22883 0.0
H689 H 0.40948 0.4144 0.14705 0.0
C690 C 0.44539 0.42237 0.23297 0.0
C691 C 0.40726 0.40544 0.19744 0.0
C692 C 0.37991 0.39142 0.19137 0.0
C693 C 0.45744 0.43387 0.20661 0.0
C694 C 0.44449 0.43064 0.17527 0.0
C695 C 0.41951 0.41661 0.17111 0.0
C696 C 0.45619 0.44226 0.14644 0.0
C697 C 0.48367 0.44979 0.21252 0.0
C698 C 0.44112 0.46183 0.12325 0.0
C699 C 0.45226 0.47334 0.09643 0.0
C700 C 0.47859 0.46532 0.09215 0.0
C701 C 0.49336 0.44523 0.11496 0.0
C702 C 0.48227 0.4338 0.14188 0.0
H703 H 0.48696 0.45634 0.23664 0.0
H704 H 0.5015 0.43672 0.21111 0.0
H705 H 0.48341 0.46811 0.19421 0.0
H706 H 0.42091 0.46858 0.1262 0.0
H707 H 0.44052 0.48896 0.07943 0.0
H708 H 0.14782 0.87204 0.85053 0.0
H709 H 0.12574 0.89056 0.79638 0.0
H710 H 0.1229 0.97029 0.82477 0.0
H711 H 0.14527 0.95193 0.87916 0.0
H712 H 0.07315 0.95513 0.78791 0.0
H713 H 0.16422 0.93911 0.73096 0.0
H714 H 0.15395 0.90911 0.7547 0.0
H715 H 0.16649 0.9379 0.77372 0.0
C716 C 0.14273 0.89357 0.84523 0.0
C717 C 0.1486 0.91058 0.86907 0.0
C718 C 0.13009 0.90411 0.81428 0.0
C719 C 0.12317 0.93187 0.80646 0.0
C720 C 0.12825 0.94882 0.83034 0.0
H721 H 0.0784 0.01683 0.61209 0.0
H722 H 0.09942 0.00337 0.66826 0.0
C723 C 0.14091 0.93828 0.8614 0.0
C724 C 0.1106 0.94307 0.77331 0.0
H725 H 0.12179 0.95047 0.69584 0.0
C726 C 0.08382 0.95429 0.76778 0.0
C727 C 0.12473 0.94224 0.74718 0.0
C728 C 0.15404 0.93169 0.75186 0.0
C729 C 0.07047 0.96399 0.73661 0.0
C730 C 0.08422 0.9621 0.71044 0.0
C731 C 0.11125 0.9516 0.71602 0.0
C732 C 0.07087 0.97077 0.67696 0.0
C733 C 0.04186 0.97629 0.73185 0.0
C734 C 0.04805 0.95672 0.66334 0.0
C735 C 0.0361 0.96433 0.63134 0.0
C736 C 0.04683 0.98609 0.61261 0.0
C737 C 0.06964 1.00016 0.62626 0.0
C738 C 0.08167 0.99245 0.65819 0.0
H739 H 0.0368 0.98203 0.75443 0.0
H740 H 0.03972 0.99463 0.71337 0.0
H741 H 0.02654 0.96123 0.72345 0.0
H742 H 0.03976 0.93962 0.67734 0.0
H743 H 0.01854 0.9532 0.62123 0.0
loop_
_geom_bond_atom_site_label_1
_geom_bond_atom_site_label_2
_geom_bond_distance
_geom_bond_site_symmetry_2
_ccdc_geom_bond_type
C0 C1 1.384 . S
C0 H13 0.947 . S
C0 C35 1.382 . S
C1 C0 1.384 . S
C1 C2 1.378 . S
C2 C1 1.378 . S
C2 C3 1.378 . S
C2 H14 0.952 . S
C3 C2 1.378 . S
C3 H15 0.950 . S
C3 C34 1.383 . S
H4 C23 0.947 . S
H5 C24 0.946 . S
H6 C26 0.953 1_556 S
H7 C27 0.945 . S
H8 C29 0.952 . S
H9 C30 0.949 . S
H10 C32 0.950 . S
H11 C33 0.948 . S
H12 C35 0.951 . S
H13 C0 0.947 . S
H14 C2 0.952 . S
H15 C3 0.950 . S
N16 C19 1.382 . S
N16 C21 1.363 . S
N17 C19 1.371 1_556 S
N17 C20 1.372 . S
N18 C20 1.361 1_554 S
N18 C21 1.377 . S
C19 N16 1.382 . S
C19 N17 1.371 1_554 S
C19 C22 1.480 . S
C20 N17 1.372 . S
C20 N18 1.361 1_556 S
C20 C28 1.457 . S
C21 N16 1.363 . S
C21 N18 1.377 . S
C21 C34 1.479 . S
C22 C19 1.480 . S
C22 C23 1.383 . S
C22 C27 1.385 1_554 S
C23 H4 0.947 . S
C23 C22 1.383 . S
C23 C24 1.388 . S
C24 H5 0.946 . S
C24 C23 1.388 . S
C24 C25 1.384 . S
C25 C24 1.384 . S
C25 C26 1.377 . S
C26 H6 0.953 1_554 S
C26 C25 1.377 . S
C26 C27 1.369 1_554 S
C27 H7 0.945 . S
C27 C22 1.385 1_556 S
C27 C26 1.369 1_556 S
C28 C20 1.457 . S
C28 C29 1.372 . S
C28 C33 1.364 . S
C29 H8 0.952 . S
C29 C28 1.372 . S
C29 C30 1.389 . S
C30 H9 0.949 . S
C30 C29 1.389 . S
C30 C31 1.387 . S
C31 C30 1.387 . S
C31 C32 1.372 . S
C32 H10 0.950 . S
C32 C31 1.372 . S
C32 C33 1.379 . S
C33 H11 0.948 . S
C33 C28 1.364 . S
C33 C32 1.379 . S
C34 C3 1.383 . S
C34 C21 1.479 . S
C34 C35 1.398 . S
C35 C0 1.382 . S
C35 H12 0.951 . S
C35 C34 1.398 . S
C36 C37 1.384 . S
C36 H49 0.947 . S
C36 C71 1.382 . S
C37 C36 1.384 . S
C37 C38 1.378 . S
C38 C37 1.378 . S
C38 C39 1.378 . S
C38 H50 0.952 . S
C39 C38 1.378 . S
C39 H51 0.950 . S
C39 C70 1.383 . S
H40 C59 0.947 . S
H41 C60 0.946 . S
H42 C62 0.953 . S
H43 C63 0.945 . S
H44 C65 0.952 . S
H45 C66 0.949 . S
H46 C68 0.950 . S
H47 C69 0.948 . S
H48 C71 0.951 . S
H49 C36 0.947 . S
H50 C38 0.952 . S
H51 C39 0.950 . S
N52 C55 1.382 . S
N52 C57 1.363 . S
N53 C55 1.371 . S
N53 C56 1.372 . S
N54 C56 1.361 . S
N54 C57 1.377 . S
C55 N52 1.382 . S
C55 N53 1.371 . S
C55 C58 1.480 . S
C56 N53 1.372 . S
C56 N54 1.361 . S
C56 C64 1.457 . S
C57 N52 1.363 . S
C57 N54 1.377 . S
C57 C70 1.479 . S
C58 C55 1.480 . S
C58 C59 1.383 . S
C58 C63 1.385 . S
C59 H40 0.947 . S
C59 C58 1.383 . S
C59 C60 1.388 . S
C60 H41 0.946 . S
C60 C59 1.388 . S
C60 C61 1.384 . S
C61 C60 1.384 . S
C61 C62 1.377 . S
C62 H42 0.953 . S
C62 C61 1.377 . S
C62 C63 1.369 . S
C63 H43 0.945 . S
C63 C58 1.385 . S
C63 C62 1.369 . S
C64 C56 1.457 . S
C64 C65 1.372 . S
C64 C69 1.364 . S
C65 H44 0.952 . S
C65 C64 1.372 . S
C65 C66 1.389 . S
C66 H45 0.949 . S
C66 C65 1.389 . S
C66 C67 1.387 . S
C67 C66 1.387 . S
C67 C68 1.372 . S
C68 H46 0.950 . S
C68 C67 1.372 . S
C68 C69 1.379 . S
C69 H47 0.948 . S
C69 C64 1.364 . S
C69 C68 1.379 . S
C70 C39 1.383 . S
C70 C57 1.479 . S
C70 C71 1.398 . S
C71 C36 1.382 . S
C71 H48 0.951 . S
C71 C70 1.398 . S
C72 C73 1.384 . S
C72 H85 0.947 . S
C72 C107 1.382 . S
C73 C72 1.384 . S
C73 C74 1.378 . S
C74 C73 1.378 . S
C74 C75 1.378 . S
C74 H86 0.952 . S
C75 C74 1.378 . S
C75 H87 0.950 . S
C75 C106 1.383 . S
H76 C95 0.947 . S
H77 C96 0.946 . S
H78 C98 0.953 . S
H79 C99 0.945 . S
H80 C101 0.952 . S
H81 C102 0.949 . S
H82 C104 0.950 . S
H83 C105 0.948 . S
H84 C107 0.951 . S
H85 C72 0.947 . S
H86 C74 0.952 . S
H87 C75 0.950 . S
N88 C91 1.382 1_556 S
N88 C93 1.363 1_556 S
N89 C91 1.371 . S
N89 C92 1.372 . S
N90 C92 1.361 . S
N90 C93 1.376 . S
C91 N88 1.382 1_554 S
C91 N89 1.371 . S
C91 C94 1.480 . S
C92 N89 1.372 . S
C92 N90 1.361 . S
C92 C100 1.457 . S
C93 N88 1.363 1_554 S
C93 N90 1.376 . S
C93 C106 1.480 1_554 S
C94 C91 1.480 . S
C94 C95 1.383 1_554 S
C94 C99 1.385 . S
C95 H76 0.947 . S
C95 C94 1.383 1_556 S
C95 C96 1.388 . S
C96 H77 0.946 . S
C96 C95 1.388 . S
C96 C97 1.384 1_556 S
C97 C96 1.384 1_554 S
C97 C98 1.377 . S
C98 H78 0.953 . S
C98 C97 1.377 . S
C98 C99 1.369 . S
C99 H79 0.945 . S
C99 C94 1.385 . S
C99 C98 1.369 . S
C100 C92 1.457 . S
C100 C101 1.372 . S
C100 C105 1.364 . S
C101 H80 0.952 . S
C101 C100 1.372 . S
C101 C102 1.389 . S
C102 H81 0.949 . S
C102 C101 1.389 . S
C102 C103 1.387 . S
C103 C102 1.387 . S
C103 C104 1.372 . S
C104 H82 0.950 . S
C104 C103 1.372 . S
C104 C105 1.379 . S
C105 H83 0.948 . S
C105 C100 1.364 . S
C105 C104 1.379 . S
C106 C75 1.383 . S
C106 C93 1.480 1_556 S
C106 C107 1.398 . S
C107 C72 1.382 . S
C107 H84 0.951 . S
C107 C106 1.398 . S
C108 C109 1.384 . S
C108 H121 0.947 . S
C108 C143 1.382 . S
C109 C108 1.384 . S
C109 C110 1.378 . S
C110 C109 1.378 . S
C110 C111 1.378 . S
C110 H122 0.952 . S
C111 C110 1.378 . S
C111 H123 0.950 . S
C111 C142 1.383 . S
H112 C131 0.947 . S
H113 C132 0.946 . S
H114 C134 0.953 . S
H115 C135 0.945 . S
H116 C137 0.952 . S
H117 C138 0.949 . S
H118 C140 0.950 . S
H119 C141 0.948 . S
H120 C143 0.951 . S
H121 C108 0.947 . S
H122 C110 0.952 . S
H123 C111 0.950 . S
N124 C127 1.382 . S
N124 C129 1.363 . S
N125 C127 1.371 . S
N125 C128 1.372 . S
N126 C128 1.361 . S
N126 C129 1.377 . S
C127 N124 1.382 . S
C127 N125 1.371 . S
C127 C130 1.480 . S
C128 N125 1.372 . S
C128 N126 1.361 . S
C128 C136 1.457 . S
C129 N124 1.363 . S
C129 N126 1.377 . S
C129 C142 1.479 . S
C130 C127 1.480 . S
C130 C131 1.383 . S
C130 C135 1.385 . S
C131 H112 0.947 . S
C131 C130 1.383 . S
C131 C132 1.388 . S
C132 H113 0.946 . S
C132 C131 1.388 . S
C132 C133 1.384 . S
C133 C132 1.384 . S
C133 C134 1.377 . S
C134 H114 0.953 . S
C134 C133 1.377 . S
C134 C135 1.369 . S
C135 H115 0.945 . S
C135 C130 1.385 . S
C135 C134 1.369 . S
C136 C128 1.457 . S
C136 C137 1.372 . S
C136 C141 1.364 . S
C137 H116 0.952 . S
C137 C136 1.372 . S
C137 C138 1.389 . S
C138 H117 0.949 . S
C138 C137 1.389 . S
C138 C139 1.387 . S
C139 C138 1.387 . S
C139 C140 1.372 . S
C140 H118 0.950 . S
C140 C139 1.372 . S
C140 C141 1.379 . S
C141 H119 0.948 . S
C141 C136 1.364 . S
C141 C140 1.379 . S
C142 C111 1.383 . S
C142 C129 1.479 . S
C142 C143 1.398 . S
C143 C108 1.382 . S
C143 H120 0.951 . S
C143 C142 1.398 . S
Tb144 N173 2.617 . S
Tb144 N179 2.572 . S
Tb144 O188 2.465 . S
Tb144 O189 2.387 . S
Tb144 O191 2.428 . S
Tb144 O192 2.308 1_565 S
Tb144 O196 2.364 1_455 S
Tb144 O199 2.393 1_455 S
Tb144 C208 2.802 . S
C145 N146 1.379 . S
C145 C148 1.416 . S
C145 C152 1.424 . S
N146 C145 1.379 . S
N146 C149 1.334 1_655 S
N146 Tb155 2.617 . S
C147 C149 1.390 . S
C147 C150 1.324 1_455 S
C147 H167 0.946 . S
C148 C145 1.416 . S
C148 C150 1.416 . S
C148 C154 1.448 . S
C149 N146 1.334 1_455 S
C149 C147 1.390 . S
C149 H160 0.930 . S
C150 C147 1.324 1_655 S
C150 C148 1.416 . S
C150 H171 0.930 . S
C151 C152 1.413 . S
C151 C153 1.427 . S
C151 C157 1.416 . S
C152 C145 1.424 . S
C152 C151 1.413 . S
C152 N156 1.361 . S
C153 C151 1.427 . S
C153 C154 1.328 . S
C153 H168 0.929 . S
C154 C148 1.448 . S
C154 C153 1.328 . S
C154 H169 0.930 . S
Tb155 N146 2.617 . S
Tb155 N156 2.572 . S
Tb155 O190 2.349 1_655 S
Tb155 O193 2.393 1_655 S
Tb155 O194 2.465 . S
Tb155 O195 2.387 . S
Tb155 O197 2.428 . S
Tb155 O198 2.308 1_545 S
Tb155 C219 2.802 . S
N156 C152 1.361 . S
N156 Tb155 2.572 . S
N156 C158 1.340 . S
C157 C151 1.416 . S
C157 C159 1.332 . S
C157 H165 0.931 . S
C158 N156 1.340 . S
C158 C159 1.407 . S
C158 H164 0.930 . S
C159 C157 1.332 . S
C159 C158 1.407 . S
C159 H161 0.929 . S
H160 C149 0.930 . S
H161 C159 0.929 . S
H162 C177 0.930 1_655 S
H163 C184 0.929 . S
H164 C158 0.930 . S
H165 C157 0.931 . S
H166 C180 0.930 . S
H167 C147 0.946 . S
H168 C153 0.929 . S
H169 C154 0.930 . S
H170 C175 0.930 1_655 S
H171 C150 0.930 . S
H172 C183 0.931 . S
N173 Tb144 2.617 . S
N173 C174 1.379 . S
N173 C177 1.334 . S
C174 N173 1.379 . S
C174 C176 1.416 . S
C174 C182 1.424 . S
C175 H170 0.930 1_455 S
C175 C177 1.390 . S
C175 C178 1.339 . S
C176 C174 1.416 . S
C176 C178 1.416 . S
C176 C209 1.448 . S
C177 H162 0.930 1_455 S
C177 N173 1.334 . S
C177 C175 1.390 . S
C178 C175 1.339 . S
C178 C176 1.416 . S
C178 H185 0.930 . S
N179 Tb144 2.572 . S
N179 C180 1.340 . S
N179 C182 1.361 . S
C180 H166 0.930 . S
C180 N179 1.340 . S
C180 C184 1.407 . S
C181 C182 1.413 . S
C181 C183 1.416 . S
C181 C210 1.427 . S
C182 C174 1.424 . S
C182 N179 1.361 . S
C182 C181 1.413 . S
C183 H172 0.931 . S
C183 C181 1.416 . S
C183 C184 1.332 . S
C184 H163 0.929 . S
C184 C180 1.407 . S
C184 C183 1.332 . S
H185 C178 0.930 . S
H186 C209 0.930 . S
H187 C210 0.929 . S
O188 Tb144 2.465 . S
O188 C208 1.264 . S
O189 Tb144 2.387 . S
O189 C200 1.264 . S
O190 Tb155 2.349 1_455 S
O190 C200 1.243 1_545 S
O191 Tb144 2.428 . S
O191 C208 1.256 . S
O192 Tb144 2.308 1_545 S
O192 C207 1.266 . S
O193 Tb155 2.393 1_455 S
O193 C207 1.248 . S
O194 Tb155 2.465 . S
O194 C219 1.264 . S
O195 Tb155 2.387 . S
O195 C211 1.264 . S
O196 Tb144 2.364 1_655 S
O196 C211 1.220 1_565 S
O197 Tb155 2.428 . S
O197 C219 1.256 . S
O198 Tb155 2.308 1_565 S
O198 C218 1.266 . S
O199 Tb144 2.393 1_655 S
O199 C218 1.248 . S
C200 O189 1.264 . S
C200 O190 1.243 1_565 S
C201 C204 1.399 . S
C201 C206 1.383 . S
C201 C208 1.496 . S
C202 C203 1.399 . S
C202 C206 1.389 . S
C203 C202 1.399 . S
C203 C205 1.380 . S
C203 H220 0.929 . S
C204 C201 1.399 . S
C204 C205 1.392 . S
C204 H221 0.929 . S
C205 C203 1.380 . S
C205 C204 1.392 . S
C205 H222 0.929 . S
C206 C201 1.383 . S
C206 C202 1.389 . S
C206 H223 0.931 . S
C207 O192 1.266 . S
C207 O193 1.248 . S
C208 Tb144 2.802 . S
C208 O188 1.264 . S
C208 O191 1.256 . S
C208 C201 1.496 . S
C209 C176 1.448 . S
C209 H186 0.930 . S
C209 C210 1.328 . S
C210 C181 1.427 . S
C210 H187 0.929 . S
C210 C209 1.328 . S
C211 O195 1.264 . S
C211 O196 1.220 1_545 S
C212 C215 1.399 . S
C212 C216 1.383 . S
C212 C219 1.496 . S
C213 C214 1.399 . S
C213 C216 1.389 . S
C214 C213 1.399 . S
C214 C217 1.380 . S
C214 H224 0.929 . S
C215 C212 1.399 . S
C215 C217 1.392 . S
C215 H225 0.929 . S
C216 C212 1.383 . S
C216 C213 1.389 . S
C216 H226 0.931 . S
C217 C214 1.380 . S
C217 C215 1.392 . S
C217 H227 0.929 . S
C218 O198 1.266 . S
C218 O199 1.248 . S
C219 Tb155 2.802 . S
C219 O194 1.264 . S
C219 O197 1.256 . S
C219 C212 1.496 . S
H220 C203 0.929 . S
H221 C204 0.929 . S
H222 C205 0.929 . S
H223 C206 0.931 . S
H224 C214 0.929 . S
H225 C215 0.929 . S
H226 C216 0.931 . S
H227 C217 0.929 . S
Tb228 N257 2.617 . S
Tb228 N263 2.572 1_556 S
Tb228 O272 2.465 . S
Tb228 O273 2.387 1_556 S
Tb228 O275 2.428 . S
Tb228 O276 2.308 1_556 S
Tb228 O280 2.349 . S
Tb228 O283 2.393 . S
Tb228 C292 2.802 . S
C229 N230 1.379 . S
C229 C232 1.416 . S
C229 C236 1.424 . S
N230 C229 1.379 . S
N230 C233 1.334 . S
N230 Tb239 2.617 . S
C231 C233 1.390 . S
C231 C234 1.339 . S
C231 H251 0.930 . S
C232 C229 1.416 . S
C232 C234 1.416 . S
C232 C238 1.448 . S
C233 N230 1.334 . S
C233 C231 1.390 . S
C233 H244 0.930 . S
C234 C231 1.339 . S
C234 C232 1.416 . S
C234 H255 0.930 . S
C235 C236 1.413 . S
C235 C237 1.427 . S
C235 C241 1.416 . S
C236 C229 1.424 . S
C236 C235 1.413 . S
C236 N240 1.361 . S
C237 C235 1.427 . S
C237 C238 1.328 . S
C237 H252 0.929 . S
C238 C232 1.448 . S
C238 C237 1.328 . S
C238 H253 0.930 . S
Tb239 N230 2.617 . S
Tb239 N240 2.572 . S
Tb239 O274 2.349 . S
Tb239 O277 2.393 . S
Tb239 O278 2.465 . S
Tb239 O279 2.387 1_554 S
Tb239 O281 2.428 . S
Tb239 O282 2.308 . S
Tb239 C303 2.802 . S
N240 C236 1.361 . S
N240 Tb239 2.572 . S
N240 C242 1.340 . S
C241 C235 1.416 . S
C241 C243 1.332 . S
C241 H249 0.931 . S
C242 N240 1.340 . S
C242 C243 1.407 . S
C242 H248 0.930 . S
C243 C241 1.332 . S
C243 C242 1.407 . S
C243 H245 0.929 . S
H244 C233 0.930 . S
H245 C243 0.929 . S
H246 C261 0.930 . S
H247 C268 0.929 . S
H248 C242 0.930 . S
H249 C241 0.931 . S
H250 C264 0.930 . S
H251 C231 0.930 . S
H252 C237 0.929 . S
H253 C238 0.930 . S
H254 C259 0.930 . S
H255 C234 0.930 . S
H256 C267 0.931 . S
N257 Tb228 2.617 . S
N257 C258 1.379 1_556 S
N257 C261 1.334 . S
C258 N257 1.379 1_554 S
C258 C260 1.416 . S
C258 C266 1.424 . S
C259 H254 0.930 . S
C259 C261 1.390 . S
C259 C262 1.339 1_556 S
C260 C258 1.416 . S
C260 C262 1.416 . S
C260 C293 1.448 . S
C261 H246 0.930 . S
C261 N257 1.334 . S
C261 C259 1.390 . S
C262 C259 1.339 1_554 S
C262 C260 1.416 . S
C262 H269 0.930 . S
N263 Tb228 2.572 1_554 S
N263 C264 1.340 . S
N263 C266 1.361 . S
C264 H250 0.930 . S
C264 N263 1.340 . S
C264 C268 1.407 . S
C265 C266 1.413 . S
C265 C267 1.416 . S
C265 C294 1.427 . S
C266 C258 1.424 . S
C266 N263 1.361 . S
C266 C265 1.413 . S
C267 H256 0.931 . S
C267 C265 1.416 . S
C267 C268 1.332 . S
C268 H247 0.929 . S
C268 C264 1.407 . S
C268 C267 1.332 . S
H269 C262 0.930 . S
H270 C293 0.930 . S
H271 C294 0.929 . S
O272 Tb228 2.465 . S
O272 C292 1.264 . S
O273 Tb228 2.387 1_554 S
O273 C284 1.264 . S
O274 Tb239 2.349 . S
O274 C284 1.243 . S
O275 Tb228 2.428 . S
O275 C292 1.256 . S
O276 Tb228 2.308 1_554 S
O276 C291 1.266 . S
O277 Tb239 2.393 . S
O277 C291 1.248 . S
O278 Tb239 2.465 . S
O278 C303 1.264 . S
O279 Tb239 2.387 1_556 S
O279 C295 1.264 . S
O280 Tb228 2.349 . S
O280 C295 1.243 . S
O281 Tb239 2.428 . S
O281 C303 1.256 . S
O282 Tb239 2.308 . S
O282 C302 1.266 . S
O283 Tb228 2.393 . S
O283 C302 1.248 1_556 S
C284 O273 1.264 . S
C284 O274 1.243 . S
C285 C288 1.399 . S
C285 C290 1.383 . S
C285 C292 1.496 . S
C286 C287 1.399 . S
C286 C290 1.389 . S
C287 C286 1.399 . S
C287 C289 1.380 . S
C287 H304 0.929 . S
C288 C285 1.399 . S
C288 C289 1.392 . S
C288 H305 0.929 . S
C289 C287 1.380 . S
C289 C288 1.392 . S
C289 H306 0.929 . S
C290 C285 1.383 . S
C290 C286 1.389 . S
C290 H307 0.931 . S
C291 O276 1.266 . S
C291 O277 1.248 . S
C292 Tb228 2.802 . S
C292 O272 1.264 . S
C292 O275 1.256 . S
C292 C285 1.496 . S
C293 C260 1.448 . S
C293 H270 0.930 . S
C293 C294 1.328 . S
C294 C265 1.427 . S
C294 H271 0.929 . S
C294 C293 1.328 . S
C295 O279 1.264 . S
C295 O280 1.243 . S
C296 C299 1.399 . S
C296 C300 1.383 . S
C296 C303 1.496 . S
C297 C298 1.399 . S
C297 C300 1.389 . S
C298 C297 1.399 . S
C298 C301 1.380 . S
C298 H308 0.929 . S
C299 C296 1.399 . S
C299 C301 1.392 . S
C299 H309 0.929 . S
C300 C296 1.383 . S
C300 C297 1.389 . S
C300 H310 0.931 . S
C301 C298 1.380 . S
C301 C299 1.392 . S
C301 H311 0.929 . S
C302 O282 1.266 . S
C302 O283 1.248 1_554 S
C303 Tb239 2.802 . S
C303 O278 1.264 . S
C303 O281 1.256 . S
C303 C296 1.496 . S
H304 C287 0.929 . S
H305 C288 0.929 . S
H306 C289 0.929 . S
H307 C290 0.931 . S
H308 C298 0.929 . S
H309 C299 0.929 . S
H310 C300 0.931 . S
H311 C301 0.929 . S
H312 C320 0.929 . S
H313 C322 0.930 . S
H314 C324 0.930 . S
H315 C327 0.929 . S
H316 C330 0.930 . S
H317 C332 0.960 . S
H318 C332 0.960 . S
H319 C332 0.960 . S
C320 H312 0.929 . S
C320 C321 1.377 . S
C320 C322 1.384 . S
C321 C320 1.377 . S
C321 C327 1.390 . S
C322 H313 0.930 . S
C322 C320 1.384 . S
C322 C323 1.372 . S
C323 C322 1.372 . S
C323 C324 1.400 . S
C323 C328 1.490 . S
C324 H314 0.930 . S
C324 C323 1.400 . S
C324 C327 1.386 . S
H325 C341 0.930 . S
H326 C342 0.931 . S
C327 H315 0.929 . S
C327 C321 1.390 . S
C327 C324 1.386 . S
C328 C323 1.490 . S
C328 C330 1.395 . S
C328 C331 1.403 . S
H329 C335 0.930 . S
C330 H316 0.930 . S
C330 C328 1.395 . S
C330 C333 1.403 . S
C331 C328 1.403 . S
C331 C332 1.524 . S
C331 C335 1.400 . S
C332 H317 0.960 . S
C332 H318 0.960 . S
C332 H319 0.960 . S
C332 C331 1.524 . S
C333 C330 1.403 . S
C333 C334 1.392 . S
C333 C337 1.495 . S
C334 C333 1.392 . S
C334 C335 1.385 . S
C334 C336 1.478 . S
C335 H329 0.930 . S
C335 C331 1.400 . S
C335 C334 1.385 . S
C336 C334 1.478 . S
C336 C338 1.381 . S
C336 C342 1.383 . S
C337 C333 1.495 . S
C337 H343 0.959 . S
C337 H344 0.961 . S
C337 H345 0.960 . S
C338 C336 1.381 . S
C338 C339 1.394 . S
C338 H346 0.930 . S
C339 C338 1.394 . S
C339 C340 1.383 . S
C339 H347 0.929 . S
C340 C339 1.383 . S
C340 C341 1.377 . S
C341 H325 0.930 . S
C341 C340 1.377 . S
C341 C342 1.379 . S
C342 H326 0.931 . S
C342 C336 1.383 . S
C342 C341 1.379 . S
H343 C337 0.959 . S
H344 C337 0.961 . S
H345 C337 0.960 . S
H346 C338 0.930 . S
H347 C339 0.929 . S
H348 C356 0.929 . S
H349 C358 0.930 . S
H350 C360 0.930 1_556 S
H351 C363 0.929 1_556 S
H352 C366 0.930 . S
H353 C368 0.960 1_556 S
H354 C368 0.960 . S
H355 C368 0.960 1_556 S
C356 H348 0.929 . S
C356 C357 1.377 . S
C356 C358 1.384 . S
C357 C356 1.377 . S
C357 C363 1.390 . S
C358 H349 0.930 . S
C358 C356 1.384 . S
C358 C359 1.372 . S
C359 C358 1.372 . S
C359 C360 1.400 . S
C359 C364 1.490 . S
C360 H350 0.930 1_554 S
C360 C359 1.400 . S
C360 C363 1.386 . S
H361 C377 0.957 . S
H362 C378 0.931 1_556 S
C363 H351 0.929 1_554 S
C363 C357 1.390 . S
C363 C360 1.386 . S
C364 C359 1.490 . S
C364 C366 1.395 . S
C364 C367 1.403 . S
H365 C371 0.930 . S
C366 H352 0.930 . S
C366 C364 1.395 . S
C366 C369 1.403 . S
C367 C364 1.403 . S
C367 C368 1.524 . S
C367 C371 1.400 . S
C368 H353 0.960 1_554 S
C368 H354 0.960 . S
C368 H355 0.960 1_554 S
C368 C367 1.524 . S
C369 C366 1.403 . S
C369 C370 1.392 . S
C369 C373 1.495 . S
C370 C369 1.392 . S
C370 C371 1.385 . S
C370 C372 1.478 . S
C371 H365 0.930 . S
C371 C367 1.400 . S
C371 C370 1.385 . S
C372 C370 1.478 . S
C372 C374 1.381 . S
C372 C378 1.383 . S
C373 C369 1.495 . S
C373 H379 0.959 . S
C373 H380 0.961 . S
C373 H381 0.960 . S
C374 C372 1.381 . S
C374 C375 1.394 . S
C374 H382 0.930 . S
C375 C374 1.394 . S
C375 C376 1.383 . S
C375 H383 0.929 . S
C376 C375 1.383 . S
C376 C377 1.358 1_554 S
C377 H361 0.957 . S
C377 C376 1.358 1_556 S
C377 C378 1.372 1_556 S
C378 H362 0.931 1_554 S
C378 C372 1.383 . S
C378 C377 1.372 1_554 S
H379 C373 0.959 . S
H380 C373 0.961 . S
H381 C373 0.960 . S
H382 C374 0.930 . S
H383 C375 0.929 . S
H384 C392 0.929 . S
H385 C394 0.930 . S
H386 C396 0.930 . S
H387 C399 0.929 . S
H388 C402 0.930 . S
H389 C404 0.960 . S
H390 C404 0.960 . S
H391 C404 0.960 . S
C392 H384 0.929 . S
C392 C393 1.377 . S
C392 C394 1.384 . S
C393 C392 1.377 . S
C393 C399 1.390 . S
C394 H385 0.930 . S
C394 C392 1.384 . S
C394 C395 1.372 . S
C395 C394 1.372 . S
C395 C396 1.400 . S
C395 C400 1.490 . S
C396 H386 0.930 . S
C396 C395 1.400 . S
C396 C399 1.386 . S
H397 C413 0.930 . S
H398 C414 0.931 . S
C399 H387 0.929 . S
C399 C393 1.390 . S
C399 C396 1.386 . S
C400 C395 1.490 . S
C400 C402 1.395 . S
C400 C403 1.403 . S
H401 C407 0.930 . S
C402 H388 0.930 . S
C402 C400 1.395 . S
C402 C405 1.403 . S
C403 C400 1.403 . S
C403 C404 1.524 . S
C403 C407 1.400 . S
C404 H389 0.960 . S
C404 H390 0.960 . S
C404 H391 0.960 . S
C404 C403 1.524 . S
C405 C402 1.403 . S
C405 C406 1.392 . S
C405 C409 1.495 . S
C406 C405 1.392 . S
C406 C407 1.385 . S
C406 C408 1.478 . S
C407 H401 0.930 . S
C407 C403 1.400 . S
C407 C406 1.385 . S
C408 C406 1.478 . S
C408 C410 1.381 . S
C408 C414 1.383 . S
C409 C405 1.495 . S
C409 H415 0.959 . S
C409 H416 0.961 . S
C409 H417 0.960 . S
C410 C408 1.381 . S
C410 C411 1.394 . S
C410 H418 0.930 . S
C411 C410 1.394 . S
C411 C412 1.383 . S
C411 H419 0.929 . S
C412 C411 1.383 . S
C412 C413 1.377 . S
C413 H397 0.930 . S
C413 C412 1.377 . S
C413 C414 1.379 . S
C414 H398 0.931 . S
C414 C408 1.383 . S
C414 C413 1.379 . S
H415 C409 0.959 . S
H416 C409 0.961 . S
H417 C409 0.960 . S
H418 C410 0.930 . S
H419 C411 0.929 . S
H420 C428 0.929 . S
H421 C430 0.930 . S
H422 C432 0.930 . S
H423 C435 0.929 . S
H424 C438 0.930 . S
H425 C440 0.960 . S
H426 C440 0.960 . S
H427 C440 0.960 . S
C428 H420 0.929 . S
C428 C429 1.377 . S
C428 C430 1.384 . S
C429 C428 1.377 . S
C429 C435 1.390 1_554 S
C430 H421 0.930 . S
C430 C428 1.384 . S
C430 C431 1.372 . S
C431 C430 1.372 . S
C431 C432 1.400 1_554 S
C431 C436 1.490 . S
C432 H422 0.930 . S
C432 C431 1.400 1_556 S
C432 C435 1.386 . S
H433 C449 0.930 . S
H434 C450 0.931 . S
C435 H423 0.929 . S
C435 C429 1.390 1_556 S
C435 C432 1.386 . S
C436 C431 1.490 . S
C436 C438 1.395 . S
C436 C439 1.403 . S
H437 C443 0.930 . S
C438 H424 0.930 . S
C438 C436 1.395 . S
C438 C441 1.403 . S
C439 C436 1.403 . S
C439 C440 1.524 . S
C439 C443 1.400 . S
C440 H425 0.960 . S
C440 H426 0.960 . S
C440 H427 0.960 . S
C440 C439 1.524 . S
C441 C438 1.403 . S
C441 C442 1.392 . S
C441 C445 1.495 . S
C442 C441 1.392 . S
C442 C443 1.385 . S
C442 C444 1.478 . S
C443 H437 0.930 . S
C443 C439 1.400 . S
C443 C442 1.385 . S
C444 C442 1.478 . S
C444 C446 1.381 . S
C444 C450 1.383 1_554 S
C445 C441 1.495 . S
C445 H451 0.959 1_554 S
C445 H452 0.961 1_554 S
C445 H453 0.960 . S
C446 C444 1.381 . S
C446 C447 1.394 . S
C446 H454 0.930 . S
C447 C446 1.394 . S
C447 C448 1.383 . S
C447 H455 0.929 . S
C448 C447 1.383 . S
C448 C449 1.377 1_554 S
C449 H433 0.930 . S
C449 C448 1.377 1_556 S
C449 C450 1.379 . S
C450 H434 0.931 . S
C450 C444 1.383 1_556 S
C450 C449 1.379 . S
H451 C445 0.959 1_556 S
H452 C445 0.961 1_556 S
H453 C445 0.960 . S
H454 C446 0.930 . S
H455 C447 0.929 . S
H456 C464 0.929 . S
H457 C466 0.930 . S
H458 C468 0.930 . S
H459 C471 0.929 . S
H460 C474 0.930 . S
H461 C476 0.960 . S
H462 C476 0.960 . S
H463 C476 0.960 . S
C464 H456 0.929 . S
C464 C465 1.377 . S
C464 C466 1.384 . S
C465 C464 1.377 . S
C465 C471 1.390 . S
C466 H457 0.930 . S
C466 C464 1.384 . S
C466 C467 1.372 . S
C467 C466 1.372 . S
C467 C468 1.400 . S
C467 C472 1.490 . S
C468 H458 0.930 . S
C468 C467 1.400 . S
C468 C471 1.386 . S
H469 C485 0.891 1_545 S
H470 C486 0.931 . S
C471 H459 0.929 . S
C471 C465 1.390 . S
C471 C468 1.386 . S
C472 C467 1.490 . S
C472 C474 1.395 . S
C472 C475 1.403 . S
H473 C479 0.930 . S
C474 H460 0.930 . S
C474 C472 1.395 . S
C474 C477 1.403 . S
C475 C472 1.403 . S
C475 C476 1.524 . S
C475 C479 1.400 . S
C476 H461 0.960 . S
C476 H462 0.960 . S
C476 H463 0.960 . S
C476 C475 1.524 . S
C477 C474 1.403 . S
C477 C478 1.392 . S
C477 C481 1.495 . S
C478 C477 1.392 . S
C478 C479 1.385 . S
C478 C480 1.478 . S
C479 H473 0.930 . S
C479 C475 1.400 . S
C479 C478 1.385 . S
C480 C478 1.478 . S
C480 C482 1.381 . S
C480 C486 1.383 . S
C481 C477 1.495 . S
C481 H487 0.959 . S
C481 H488 0.961 . S
C481 H489 0.960 . S
C482 C480 1.381 . S
C482 C483 1.394 . S
C482 H490 0.930 . S
C483 C482 1.394 . S
C483 C484 1.383 . S
C483 H491 0.929 . S
C484 C483 1.383 . S
C484 C485 1.377 . S
C485 H469 0.891 1_565 S
C485 C484 1.377 . S
C485 C486 1.379 . S
C486 H470 0.931 . S
C486 C480 1.383 . S
C486 C485 1.379 . S
H487 C481 0.959 . S
H488 C481 0.961 . S
H489 C481 0.960 . S
H490 C482 0.930 . S
H491 C483 0.929 . S
H492 C500 0.929 . S
H493 C502 0.930 . S
H494 C504 0.930 . S
H495 C507 0.929 . S
H496 C510 0.930 . S
H497 C512 0.960 . S
H498 C512 0.960 . S
H499 C512 0.960 . S
C500 H492 0.929 . S
C500 C501 1.377 . S
C500 C502 1.384 . S
C501 C500 1.377 . S
C501 C507 1.390 . S
C502 H493 0.930 . S
C502 C500 1.384 . S
C502 C503 1.372 . S
C503 C502 1.372 . S
C503 C504 1.400 . S
C503 C508 1.490 . S
C504 H494 0.930 . S
C504 C503 1.400 . S
C504 C507 1.386 . S
H505 C521 0.930 . S
H506 C522 0.931 . S
C507 H495 0.929 . S
C507 C501 1.390 . S
C507 C504 1.386 . S
C508 C503 1.490 . S
C508 C510 1.395 . S
C508 C511 1.403 . S
H509 C515 0.930 . S
C510 H496 0.930 . S
C510 C508 1.395 . S
C510 C513 1.403 . S
C511 C508 1.403 . S
C511 C512 1.524 . S
C511 C515 1.400 . S
C512 H497 0.960 . S
C512 H498 0.960 . S
C512 H499 0.960 . S
C512 C511 1.524 . S
C513 C510 1.403 . S
C513 C514 1.392 . S
C513 C517 1.495 . S
C514 C513 1.392 . S
C514 C515 1.385 . S
C514 C516 1.478 . S
C515 H509 0.930 . S
C515 C511 1.400 . S
C515 C514 1.385 . S
C516 C514 1.478 . S
C516 C518 1.381 . S
C516 C522 1.383 . S
C517 C513 1.495 . S
C517 H523 0.959 . S
C517 H524 0.961 . S
C517 H525 0.960 . S
C518 C516 1.381 . S
C518 C519 1.394 . S
C518 H526 0.930 . S
C519 C518 1.394 . S
C519 C520 1.383 . S
C519 H527 0.929 . S
C520 C519 1.383 . S
C520 C521 1.377 . S
C521 H505 0.930 . S
C521 C520 1.377 . S
C521 C522 1.379 . S
C522 H506 0.931 . S
C522 C516 1.383 . S
C522 C521 1.379 . S
H523 C517 0.959 . S
H524 C517 0.961 . S
H525 C517 0.960 . S
H526 C518 0.930 . S
H527 C519 0.929 . S
H528 C536 0.929 . S
H529 C538 0.930 . S
H530 C540 0.930 . S
H531 C543 0.929 . S
H532 C546 0.930 . S
H533 C548 0.960 . S
H534 C548 0.960 . S
H535 C548 0.960 . S
C536 H528 0.929 . S
C536 C537 1.377 . S
C536 C538 1.384 . S
C537 C536 1.377 . S
C537 C543 1.390 . S
C538 H529 0.930 . S
C538 C536 1.384 . S
C538 C539 1.372 . S
C539 C538 1.372 . S
C539 C540 1.400 . S
C539 C544 1.490 . S
C540 H530 0.930 . S
C540 C539 1.400 . S
C540 C543 1.386 . S
H541 C557 0.930 . S
H542 C558 0.931 . S
C543 H531 0.929 . S
C543 C537 1.390 . S
C543 C540 1.386 . S
C544 C539 1.490 . S
C544 C546 1.395 . S
C544 C547 1.403 . S
H545 C551 0.930 . S
C546 H532 0.930 . S
C546 C544 1.395 . S
C546 C549 1.403 . S
C547 C544 1.403 . S
C547 C548 1.524 . S
C547 C551 1.400 . S
C548 H533 0.960 . S
C548 H534 0.960 . S
C548 H535 0.960 . S
C548 C547 1.524 . S
C549 C546 1.403 . S
C549 C550 1.392 . S
C549 C553 1.495 . S
C550 C549 1.392 . S
C550 C551 1.385 . S
C550 C552 1.478 . S
C551 H545 0.930 . S
C551 C547 1.400 . S
C551 C550 1.385 . S
C552 C550 1.478 . S
C552 C554 1.381 . S
C552 C558 1.383 . S
C553 C549 1.495 . S
C553 H559 0.959 . S
C553 H560 0.961 . S
C553 H561 0.960 . S
C554 C552 1.381 . S
C554 C555 1.394 . S
C554 H562 0.930 . S
C555 C554 1.394 . S
C555 C556 1.383 . S
C555 H563 0.930 1_545 S
C556 C555 1.383 . S
C556 C557 1.377 . S
C557 H541 0.930 . S
C557 C556 1.377 . S
C557 C558 1.379 . S
C558 H542 0.931 . S
C558 C552 1.383 . S
C558 C557 1.379 . S
H559 C553 0.959 . S
H560 C553 0.961 . S
H561 C553 0.960 . S
H562 C554 0.930 . S
H563 C555 0.930 1_565 S
H564 C572 0.929 . S
H565 C574 0.930 . S
H566 C576 0.930 . S
H567 C579 0.929 . S
H568 C582 0.930 . S
H569 C584 0.960 . S
H570 C584 0.960 . S
H571 C584 0.960 . S
C572 H564 0.929 . S
C572 C573 1.377 . S
C572 C574 1.384 . S
C573 C572 1.377 . S
C573 C579 1.390 . S
C574 H565 0.930 . S
C574 C572 1.384 . S
C574 C575 1.372 . S
C575 C574 1.372 . S
C575 C576 1.400 . S
C575 C580 1.490 . S
C576 H566 0.930 . S
C576 C575 1.400 . S
C576 C579 1.386 . S
H577 C593 0.930 . S
H578 C594 0.931 . S
C579 H567 0.929 . S
C579 C573 1.390 . S
C579 C576 1.386 . S
C580 C575 1.490 . S
C580 C582 1.395 . S
C580 C583 1.403 . S
H581 C587 0.930 . S
C582 H568 0.930 . S
C582 C580 1.395 . S
C582 C585 1.403 . S
C583 C580 1.403 . S
C583 C584 1.524 . S
C583 C587 1.400 . S
C584 H569 0.960 . S
C584 H570 0.960 . S
C584 H571 0.960 . S
C584 C583 1.524 . S
C585 C582 1.403 . S
C585 C586 1.392 . S
C585 C589 1.495 . S
C586 C585 1.392 . S
C586 C587 1.385 . S
C586 C588 1.478 . S
C587 H581 0.930 . S
C587 C583 1.400 . S
C587 C586 1.385 . S
C588 C586 1.478 . S
C588 C590 1.381 . S
C588 C594 1.383 . S
C589 C585 1.495 . S
C589 H595 0.959 . S
C589 H596 0.961 . S
C589 H597 0.960 . S
C590 C588 1.381 . S
C590 C591 1.394 . S
C590 H598 0.930 . S
C591 C590 1.394 . S
C591 C592 1.383 . S
C591 H599 0.929 . S
C592 C591 1.383 . S
C592 C593 1.377 . S
C593 H577 0.930 . S
C593 C592 1.377 . S
C593 C594 1.379 . S
C594 H578 0.931 . S
C594 C588 1.383 . S
C594 C593 1.379 . S
H595 C589 0.959 . S
H596 C589 0.961 . S
H597 C589 0.960 . S
H598 C590 0.930 . S
H599 C591 0.929 . S
H600 C608 0.929 . S
H601 C610 0.930 . S
H602 C612 0.930 . S
H603 C615 0.929 . S
H604 C618 0.930 . S
H605 C620 0.960 . S
H606 C620 0.960 . S
H607 C620 0.960 . S
C608 H600 0.929 . S
C608 C609 1.377 . S
C608 C610 1.384 . S
C609 C608 1.377 . S
C609 C615 1.390 . S
C610 H601 0.930 . S
C610 C608 1.384 . S
C610 C611 1.372 . S
C611 C610 1.372 . S
C611 C612 1.400 . S
C611 C616 1.490 . S
C612 H602 0.930 . S
C612 C611 1.400 . S
C612 C615 1.386 . S
H613 C629 0.930 . S
H614 C630 0.931 . S
C615 H603 0.929 . S
C615 C609 1.390 . S
C615 C612 1.386 . S
C616 C611 1.490 . S
C616 C618 1.395 . S
C616 C619 1.403 . S
H617 C623 0.930 . S
C618 H604 0.930 . S
C618 C616 1.395 . S
C618 C621 1.403 . S
C619 C616 1.403 . S
C619 C620 1.524 . S
C619 C623 1.400 . S
C620 H605 0.960 . S
C620 H606 0.960 . S
C620 H607 0.960 . S
C620 C619 1.524 . S
C621 C618 1.403 . S
C621 C622 1.392 . S
C621 C625 1.495 . S
C622 C621 1.392 . S
C622 C623 1.385 . S
C622 C624 1.478 . S
C623 H617 0.930 . S
C623 C619 1.400 . S
C623 C622 1.385 . S
C624 C622 1.478 . S
C624 C626 1.381 . S
C624 C630 1.383 . S
C625 C621 1.495 . S
C625 H631 0.959 . S
C625 H632 0.961 . S
C625 H633 0.960 . S
C626 C624 1.381 . S
C626 C627 1.394 . S
C626 H634 0.930 . S
C627 C626 1.394 . S
C627 C628 1.383 . S
C627 H635 0.929 . S
C628 C627 1.383 . S
C628 C629 1.377 . S
C629 H613 0.930 . S
C629 C628 1.377 . S
C629 C630 1.379 . S
C630 H614 0.931 . S
C630 C624 1.383 . S
C630 C629 1.379 . S
H631 C625 0.959 . S
H632 C625 0.961 . S
H633 C625 0.960 . S
H634 C626 0.930 . S
H635 C627 0.929 . S
H636 C644 0.929 . S
H637 C646 0.930 . S
H638 C648 0.930 . S
H639 C651 0.929 . S
H640 C654 0.930 . S
H641 C656 0.960 . S
H642 C656 0.960 . S
H643 C656 0.960 . S
C644 H636 0.929 . S
C644 C645 1.377 . S
C644 C646 1.384 . S
C645 C644 1.377 . S
C645 C651 1.390 . S
C646 H637 0.930 . S
C646 C644 1.384 . S
C646 C647 1.372 . S
C647 C646 1.372 . S
C647 C648 1.400 . S
C647 C652 1.490 . S
C648 H638 0.930 . S
C648 C647 1.400 . S
C648 C651 1.386 . S
H649 C665 0.930 . S
H650 C666 0.931 . S
C651 H639 0.929 . S
C651 C645 1.390 . S
C651 C648 1.386 . S
C652 C647 1.490 . S
C652 C654 1.395 . S
C652 C655 1.403 . S
H653 C659 0.930 . S
C654 H640 0.930 . S
C654 C652 1.395 . S
C654 C657 1.403 . S
C655 C652 1.403 . S
C655 C656 1.524 . S
C655 C659 1.400 . S
C656 H641 0.960 . S
C656 H642 0.960 . S
C656 H643 0.960 . S
C656 C655 1.524 . S
C657 C654 1.403 . S
C657 C658 1.392 . S
C657 C661 1.495 . S
C658 C657 1.392 . S
C658 C659 1.385 . S
C658 C660 1.478 . S
C659 H653 0.930 . S
C659 C655 1.400 . S
C659 C658 1.385 . S
C660 C658 1.478 . S
C660 C662 1.381 . S
C660 C666 1.383 . S
C661 C657 1.495 . S
C661 H667 0.959 . S
C661 H668 0.961 . S
C661 H669 0.960 . S
C662 C660 1.381 . S
C662 C663 1.394 . S
C662 H670 0.930 . S
C663 C662 1.394 . S
C663 C664 1.383 . S
C663 H671 0.929 . S
C664 C663 1.383 . S
C664 C665 1.377 . S
C665 H649 0.930 . S
C665 C664 1.377 . S
C665 C666 1.379 . S
C666 H650 0.931 . S
C666 C660 1.383 . S
C666 C665 1.379 . S
H667 C661 0.959 . S
H668 C661 0.961 . S
H669 C661 0.960 . S
H670 C662 0.930 . S
H671 C663 0.929 . S
H672 C680 0.929 . S
H673 C682 0.930 . S
H674 C684 0.930 . S
H675 C687 0.929 . S
H676 C690 0.930 . S
H677 C692 0.960 . S
H678 C692 0.960 . S
H679 C692 0.960 . S
C680 H672 0.929 . S
C680 C681 1.377 . S
C680 C682 1.384 . S
C681 C680 1.377 . S
C681 C687 1.390 . S
C682 H673 0.930 . S
C682 C680 1.384 . S
C682 C683 1.372 . S
C683 C682 1.372 . S
C683 C684 1.400 . S
C683 C688 1.490 . S
C684 H674 0.930 . S
C684 C683 1.400 . S
C684 C687 1.386 . S
H685 C701 0.930 . S
H686 C702 0.931 . S
C687 H675 0.929 . S
C687 C681 1.390 . S
C687 C684 1.386 . S
C688 C683 1.490 . S
C688 C690 1.395 . S
C688 C691 1.403 . S
H689 C695 0.930 . S
C690 H676 0.930 . S
C690 C688 1.395 . S
C690 C693 1.403 . S
C691 C688 1.403 . S
C691 C692 1.524 . S
C691 C695 1.400 . S
C692 H677 0.960 . S
C692 H678 0.960 . S
C692 H679 0.960 . S
C692 C691 1.524 . S
C693 C690 1.403 . S
C693 C694 1.392 . S
C693 C697 1.495 . S
C694 C693 1.392 . S
C694 C695 1.385 . S
C694 C696 1.478 . S
C695 H689 0.930 . S
C695 C691 1.400 . S
C695 C694 1.385 . S
C696 C694 1.478 . S
C696 C698 1.381 . S
C696 C702 1.383 . S
C697 C693 1.495 . S
C697 H703 0.959 . S
C697 H704 0.961 . S
C697 H705 0.960 . S
C698 C696 1.381 . S
C698 C699 1.394 . S
C698 H706 0.930 . S
C699 C698 1.394 . S
C699 C700 1.383 . S
C699 H707 0.929 . S
C700 C699 1.383 . S
C700 C701 1.377 . S
C701 H685 0.930 . S
C701 C700 1.377 . S
C701 C702 1.379 . S
C702 H686 0.931 . S
C702 C696 1.383 . S
C702 C701 1.379 . S
H703 C697 0.959 . S
H704 C697 0.961 . S
H705 C697 0.960 . S
H706 C698 0.930 . S
H707 C699 0.929 . S
H708 C716 0.929 . S
H709 C718 0.930 . S
H710 C720 0.930 . S
H711 C723 0.929 . S
H712 C726 0.930 . S
H713 C728 0.960 . S
H714 C728 0.960 . S
H715 C728 0.960 . S
C716 H708 0.929 . S
C716 C717 1.377 . S
C716 C718 1.384 . S
C717 C716 1.377 . S
C717 C723 1.390 . S
C718 H709 0.930 . S
C718 C716 1.384 . S
C718 C719 1.372 . S
C719 C718 1.372 . S
C719 C720 1.400 . S
C719 C724 1.490 . S
C720 H710 0.930 . S
C720 C719 1.400 . S
C720 C723 1.386 . S
H721 C737 0.930 1_545 S
H722 C738 0.931 1_545 S
C723 H711 0.929 . S
C723 C717 1.390 . S
C723 C720 1.386 . S
C724 C719 1.490 . S
C724 C726 1.395 . S
C724 C727 1.403 . S
H725 C731 0.930 . S
C726 H712 0.930 . S
C726 C724 1.395 . S
C726 C729 1.403 . S
C727 C724 1.403 . S
C727 C728 1.524 . S
C727 C731 1.400 . S
C728 H713 0.960 . S
C728 H714 0.960 . S
C728 H715 0.960 . S
C728 C727 1.524 . S
C729 C726 1.403 . S
C729 C730 1.392 . S
C729 C733 1.495 . S
C730 C729 1.392 . S
C730 C731 1.385 . S
C730 C732 1.478 . S
C731 H725 0.930 . S
C731 C727 1.400 . S
C731 C730 1.385 . S
C732 C730 1.478 . S
C732 C734 1.381 . S
C732 C738 1.383 . S
C733 C729 1.495 . S
C733 H739 0.959 . S
C733 H740 0.961 . S
C733 H741 0.960 . S
C734 C732 1.381 . S
C734 C735 1.394 . S
C734 H742 0.930 . S
C735 C734 1.394 . S
C735 C736 1.383 . S
C735 H743 0.929 . S
C736 C735 1.383 . S
C736 C737 1.377 . S
C737 H721 0.930 1_565 S
C737 C736 1.377 . S
C737 C738 1.379 . S
C738 H722 0.931 1_565 S
C738 C732 1.383 . S
C738 C737 1.379 . S
H739 C733 0.959 . S
H740 C733 0.961 . S
H741 C733 0.960 . S
H742 C734 0.930 . S
H743 C735 0.929 . S
C340 C207 1.601 . S
C321 C133 1.635 . S
C357 C25 1.616 . S
C376 C302 1.608 . S
C393 C61 1.618 . S
C412 C218 1.627 . S
C429 C97 1.584 . S
C448 C291 1.605 . S
C484 C202 1.419 . S
C465 C1 1.562 . S
C520 C295 1.600 . S
C501 C67 1.580 . S
C537 C103 1.573 . S
C556 C211 1.594 . S
C573 C109 1.541 . S
C592 C286 1.413 . S
C628 C297 1.401 . S
C609 C37 1.535 . S
C664 C213 1.372 . S
C645 C73 1.550 . S
C700 C284 1.601 . S
C681 C139 1.601 . S
C717 C31 1.597 . S
C736 C200 1.593 . S
