# Generated by pormake.
# Topology pyr, (3,6)-cn, num edge types: 1
# Building blocks:
#     Node 0, Type 0, BuildingBlock: BELTOD_clean_linker_0, # of connection points: 3
#     Node 1, Type 0, BuildingBlock: BELTOD_clean_linker_0, # of connection points: 3
#     Node 2, Type 0, BuildingBlock: BELTOD_clean_linker_0, # of connection points: 3
#     Node 3, Type 0, BuildingBlock: BELTOD_clean_linker_0, # of connection points: 3
#     Node 4, Type 0, BuildingBlock: BELTOD_clean_linker_0, # of connection points: 3
#     Node 5, Type 0, BuildingBlock: BELTOD_clean_linker_0, # of connection points: 3
#     Node 6, Type 0, BuildingBlock: BELTOD_clean_linker_0, # of connection points: 3
#     Node 7, Type 0, BuildingBlock: BELTOD_clean_linker_0, # of connection points: 3
#     Node 8, Type 1, BuildingBlock: MIDCAF_clean_sbu_0, # of connection points: 6
#     Node 9, Type 1, BuildingBlock: MIDCAF_clean_sbu_0, # of connection points: 6
#     Node 10, Type 1, BuildingBlock: MIDCAF_clean_sbu_0, # of connection points: 6
#     Node 11, Type 1, BuildingBlock: MIDCAF_clean_sbu_0, # of connection points: 6
#     Edge 12, Type (0, 1), BuildingBlock: XUDNAN_clean_linker_2, # of connection points: 2
#     Edge 13, Type (0, 1), BuildingBlock: XUDNAN_clean_linker_2, # of connection points: 2
#     Edge 14, Type (0, 1), BuildingBlock: XUDNAN_clean_linker_2, # of connection points: 2
#     Edge 15, Type (0, 1), BuildingBlock: XUDNAN_clean_linker_2, # of connection points: 2
#     Edge 16, Type (0, 1), BuildingBlock: XUDNAN_clean_linker_2, # of connection points: 2
#     Edge 17, Type (0, 1), BuildingBlock: XUDNAN_clean_linker_2, # of connection points: 2
#     Edge 18, Type (0, 1), BuildingBlock: XUDNAN_clean_linker_2, # of connection points: 2
#     Edge 19, Type (0, 1), BuildingBlock: XUDNAN_clean_linker_2, # of connection points: 2
#     Edge 20, Type (0, 1), BuildingBlock: XUDNAN_clean_linker_2, # of connection points: 2
#     Edge 21, Type (0, 1), BuildingBlock: XUDNAN_clean_linker_2, # of connection points: 2
#     Edge 22, Type (0, 1), BuildingBlock: XUDNAN_clean_linker_2, # of connection points: 2
#     Edge 23, Type (0, 1), BuildingBlock: XUDNAN_clean_linker_2, # of connection points: 2
#     Edge 24, Type (0, 1), BuildingBlock: XUDNAN_clean_linker_2, # of connection points: 2
#     Edge 25, Type (0, 1), BuildingBlock: XUDNAN_clean_linker_2, # of connection points: 2
#     Edge 26, Type (0, 1), BuildingBlock: XUDNAN_clean_linker_2, # of connection points: 2
#     Edge 27, Type (0, 1), BuildingBlock: XUDNAN_clean_linker_2, # of connection points: 2
#     Edge 28, Type (0, 1), BuildingBlock: XUDNAN_clean_linker_2, # of connection points: 2
#     Edge 29, Type (0, 1), BuildingBlock: XUDNAN_clean_linker_2, # of connection points: 2
#     Edge 30, Type (0, 1), BuildingBlock: XUDNAN_clean_linker_2, # of connection points: 2
#     Edge 31, Type (0, 1), BuildingBlock: XUDNAN_clean_linker_2, # of connection points: 2
#     Edge 32, Type (0, 1), BuildingBlock: XUDNAN_clean_linker_2, # of connection points: 2
#     Edge 33, Type (0, 1), BuildingBlock: XUDNAN_clean_linker_2, # of connection points: 2
#     Edge 34, Type (0, 1), BuildingBlock: XUDNAN_clean_linker_2, # of connection points: 2
#     Edge 35, Type (0, 1), BuildingBlock: XUDNAN_clean_linker_2, # of connection points: 2
# Relax obj value: 0.020
# Max RMSD: 0.062
# Mean RMSD: 0.033
data_MOF--net-pyr--node1-MIDCAF_clean_sbu_0--node2-BELTOD_clean_linker_0--edge1-XUDNAN_clean_linker_2
_symmetry_space_group_name_H-M    P1
_symmetry_Int_Tables_number       1
_symmetry_cell_setting            triclinic
loop_
_symmetry_equiv_pos_as_xyz
'x, y, z'
_cell_length_a     40.483893
_cell_length_b     40.829898
_cell_length_c     40.164857
_cell_angle_alpha  89.737423
_cell_angle_beta   90.122593
_cell_angle_gamma 90.385743
loop_
_atom_site_label
_atom_site_type_symbol
_atom_site_fract_x
_atom_site_fract_y
_atom_site_fract_z
_atom_type_partial_charge
P0 P 0.25618 0.25682 0.26238 0.0
H1 H 0.32562 0.26012 0.24305 0.0
H2 H 0.36113 0.22349 0.21103 0.0
H3 H 0.27855 0.15786 0.19578 0.0
H4 H 0.24276 0.1952 0.22665 0.0
H5 H 0.2358 0.32475 0.27135 0.0
H6 H 0.21019 0.36491 0.23409 0.0
H7 H 0.20773 0.29304 0.15556 0.0
H8 H 0.23297 0.25295 0.19294 0.0
H9 H 0.25178 0.18916 0.28837 0.0
H10 H 0.19551 0.27811 0.29494 0.0
O11 O 0.28058 0.27742 0.28861 0.0
H12 H 0.21139 0.16085 0.32242 0.0
H13 H 0.1568 0.25114 0.3323 0.0
C14 C 0.28185 0.22973 0.23837 0.0
C15 C 0.31514 0.23782 0.23291 0.0
C16 C 0.33536 0.21702 0.21451 0.0
C17 C 0.32261 0.18769 0.20149 0.0
C18 C 0.28905 0.18007 0.20615 0.0
C19 C 0.26868 0.20127 0.22391 0.0
C20 C 0.23677 0.28599 0.23483 0.0
C21 C 0.22978 0.31764 0.24611 0.0
C22 C 0.21505 0.34054 0.22484 0.0
C23 C 0.20725 0.33222 0.19181 0.0
C24 C 0.21398 0.30034 0.1807 0.0
C25 C 0.22834 0.27735 0.20213 0.0
C26 C 0.22585 0.23539 0.28745 0.0
C27 C 0.23046 0.2026 0.29674 0.0
C28 C 0.20754 0.18655 0.31719 0.0
C29 C 0.18026 0.20337 0.33038 0.0
C30 C 0.1766 0.23674 0.32198 0.0
C31 C 0.19899 0.25243 0.30062 0.0
P32 P 0.32896 0.84307 0.69835 0.0
H33 H 0.39562 0.85841 0.71941 0.0
H34 H 0.42164 0.86441 0.77397 0.0
H35 H 0.32996 0.837 0.82149 0.0
H36 H 0.30427 0.82932 0.76644 0.0
H37 H 0.38308 0.81748 0.65931 0.0
H38 H 0.39537 0.76335 0.63773 0.0
H39 H 0.30473 0.72577 0.68046 0.0
H40 H 0.29295 0.78039 0.70278 0.0
H41 H 0.2845 0.88046 0.74235 0.0
H42 H 0.27952 0.83155 0.64762 0.0
O43 O 0.34823 0.87048 0.67416 0.0
H44 H 0.22815 0.89933 0.73524 0.0
H45 H 0.22473 0.8531 0.63842 0.0
C46 C 0.34759 0.84501 0.73898 0.0
C47 C 0.38109 0.85346 0.74151 0.0
C48 C 0.39605 0.85656 0.77263 0.0
C49 C 0.37766 0.85139 0.80176 0.0
C50 C 0.34449 0.84135 0.79926 0.0
C51 C 0.32975 0.83738 0.76794 0.0
C52 C 0.33671 0.80305 0.68184 0.0
C53 C 0.36563 0.79772 0.66373 0.0
C54 C 0.37254 0.76673 0.65126 0.0
C55 C 0.35069 0.74033 0.6568 0.0
C56 C 0.32197 0.74561 0.67566 0.0
C57 C 0.31511 0.77679 0.68823 0.0
C58 C 0.28578 0.85324 0.69622 0.0
C59 C 0.27101 0.87298 0.72038 0.0
C60 C 0.23884 0.8845 0.71583 0.0
C61 C 0.22134 0.87791 0.6862 0.0
C62 C 0.23649 0.85802 0.6621 0.0
C63 C 0.26818 0.84573 0.6672 0.0
P64 P 0.76172 0.28955 0.77934 0.0
H65 H 0.82541 0.28032 0.81166 0.0
H66 H 0.86376 0.31773 0.83956 0.0
H67 H 0.79556 0.39731 0.8237 0.0
H68 H 0.75755 0.35977 0.7954 0.0
H69 H 0.71923 0.23309 0.76841 0.0
H70 H 0.68916 0.19633 0.80596 0.0
H71 H 0.71967 0.25548 0.88969 0.0
H72 H 0.7502 0.29175 0.85197 0.0
H73 H 0.77485 0.31373 0.71259 0.0
H74 H 0.69363 0.31478 0.78178 0.0
O75 O 0.78527 0.26381 0.75783 0.0
H76 H 0.74158 0.34326 0.67173 0.0
H77 H 0.65978 0.34406 0.74068 0.0
C78 C 0.78893 0.31737 0.80098 0.0
C79 C 0.81877 0.30585 0.81413 0.0
C80 C 0.84059 0.32724 0.83023 0.0
C81 C 0.83287 0.3606 0.83365 0.0
C82 C 0.80257 0.37192 0.82092 0.0
C83 C 0.78071 0.35043 0.80488 0.0
C84 C 0.73713 0.26496 0.80739 0.0
C85 C 0.71925 0.23822 0.79485 0.0
C86 C 0.70193 0.21731 0.81636 0.0
C87 C 0.70212 0.22279 0.85093 0.0
C88 C 0.71946 0.25019 0.86329 0.0
C89 C 0.73678 0.27111 0.8417 0.0
C90 C 0.73644 0.3114 0.74984 0.0
C91 C 0.74969 0.32008 0.71885 0.0
C92 C 0.73058 0.33688 0.69547 0.0
C93 C 0.69783 0.34562 0.70274 0.0
C94 C 0.68491 0.3377 0.73431 0.0
C95 C 0.70412 0.32075 0.75771 0.0
P96 P 0.76751 0.76537 0.26949 0.0
H97 H 0.78912 0.83246 0.25727 0.0
H98 H 0.81593 0.87364 0.2922 0.0
H99 H 0.81342 0.80635 0.37553 0.0
H100 H 0.78674 0.76507 0.34016 0.0
H101 H 0.77257 0.73646 0.20328 0.0
H102 H 0.81376 0.70114 0.17754 0.0
H103 H 0.87413 0.70817 0.26611 0.0
H104 H 0.83265 0.74305 0.2918 0.0
H105 H 0.70542 0.77607 0.30421 0.0
H106 H 0.76962 0.69455 0.28454 0.0
O107 O 0.74505 0.78432 0.24042 0.0
H108 H 0.66638 0.73906 0.3322 0.0
H109 H 0.73124 0.65774 0.3128 0.0
C110 C 0.78537 0.79599 0.29631 0.0
C111 C 0.79395 0.82671 0.28316 0.0
C112 C 0.8092 0.85027 0.30321 0.0
C113 C 0.81656 0.8434 0.33675 0.0
C114 C 0.80816 0.81238 0.34978 0.0
C115 C 0.7927 0.78886 0.32969 0.0
C116 C 0.7998 0.74282 0.24923 0.0
C117 C 0.79496 0.73088 0.21691 0.0
C118 C 0.81858 0.71076 0.20218 0.0
C119 C 0.84726 0.70189 0.21975 0.0
C120 C 0.8522 0.71437 0.252 0.0
C121 C 0.82862 0.73455 0.26663 0.0
C122 C 0.74031 0.73813 0.2921 0.0
C123 C 0.71121 0.75027 0.30612 0.0
C124 C 0.68899 0.7291 0.32219 0.0
C125 C 0.69552 0.69535 0.32448 0.0
C126 C 0.7251 0.68345 0.31091 0.0
C127 C 0.74727 0.70463 0.2949 0.0
P128 P 0.9345 0.93746 0.94451 0.0
H129 H 0.90614 0.98935 0.98543 0.0
H130 H 0.85103 0.01305 0.98821 0.0
H131 H 0.81835 0.94843 0.90964 0.0
H132 H 0.87381 0.92524 0.90663 0.0
H133 H 0.98476 0.88726 0.9442 0.0
H134 H 0.98628 0.83098 0.96501 0.0
H135 H 0.88534 0.83954 0.9984 0.0
H136 H 0.88394 0.89588 0.97738 0.0
H137 H 0.97609 0.98558 0.91043 0.0
H138 H 0.92577 0.8954 0.88611 0.0
O139 O 0.96001 0.95841 0.96935 0.0
H140 H 0.99472 0.99093 0.8529 0.0
H141 H 0.94333 0.90109 0.82813 0.0
C142 C 0.8941 0.95561 0.94573 0.0
C143 C 0.88723 0.98044 0.9686 0.0
C144 C 0.85563 0.9939 0.97026 0.0
C145 C 0.83026 0.98267 0.94912 0.0
C146 C 0.83743 0.95803 0.92589 0.0
C147 C 0.86908 0.9446 0.92427 0.0
C148 C 0.93416 0.89559 0.95879 0.0
C149 C 0.96291 0.87696 0.95586 0.0
C150 C 0.96381 0.8449 0.96803 0.0
C151 C 0.93595 0.83085 0.98352 0.0
C152 C 0.90708 0.8496 0.98636 0.0
C153 C 0.90628 0.88182 0.9743 0.0
C154 C 0.94989 0.93992 0.90257 0.0
C155 C 0.96925 0.96679 0.89272 0.0
C156 C 0.97967 0.96993 0.85972 0.0
C157 C 0.9705 0.94646 0.8358 0.0
C158 C 0.95132 0.91933 0.84595 0.0
C159 C 0.94106 0.91615 0.87905 0.0
P160 P 0.64323 0.16305 0.38409 0.0
H161 H 0.67942 0.20483 0.42964 0.0
H162 H 0.66147 0.2429 0.47273 0.0
H163 H 0.56107 0.20832 0.46114 0.0
H164 H 0.57914 0.17025 0.41814 0.0
H165 H 0.68437 0.12039 0.34491 0.0
H166 H 0.7232 0.07726 0.36052 0.0
H167 H 0.68919 0.08207 0.46219 0.0
H168 H 0.65036 0.12522 0.44645 0.0
H169 H 0.61894 0.19547 0.32435 0.0
H170 H 0.59225 0.11165 0.38438 0.0
O171 O 0.66976 0.18702 0.36335 0.0
H172 H 0.57727 0.18064 0.2836 0.0
H173 H 0.54878 0.09734 0.34438 0.0
C174 C 0.63046 0.18549 0.42012 0.0
C175 C 0.65364 0.20504 0.43681 0.0
C176 C 0.64342 0.22666 0.46145 0.0
C177 C 0.60987 0.22875 0.46995 0.0
C178 C 0.58711 0.20708 0.45516 0.0
C179 C 0.59737 0.18554 0.43033 0.0
C180 C 0.66516 0.12641 0.39468 0.0
C181 C 0.68473 0.11159 0.3704 0.0
C182 C 0.7068 0.08696 0.37928 0.0
C183 C 0.70934 0.0766 0.41258 0.0
C184 C 0.68756 0.08948 0.43631 0.0
C185 C 0.66559 0.11434 0.42741 0.0
C186 C 0.60922 0.1541 0.35681 0.0
C187 C 0.60364 0.17409 0.32901 0.0
C188 C 0.5793 0.16581 0.3059 0.0
C189 C 0.55961 0.1376 0.31045 0.0
C190 C 0.56388 0.11886 0.33969 0.0
C191 C 0.58865 0.12698 0.36261 0.0
P192 P 0.43866 0.60735 0.10164 0.0
H193 H 0.41405 0.54039 0.1007 0.0
H194 H 0.35865 0.51666 0.09626 0.0
H195 H 0.31714 0.61398 0.09738 0.0
H196 H 0.37244 0.63724 0.10343 0.0
H197 H 0.46921 0.66573 0.13197 0.0
H198 H 0.47439 0.72238 0.11314 0.0
H199 H 0.41673 0.69956 0.02556 0.0
H200 H 0.41164 0.64258 0.04457 0.0
H201 H 0.50604 0.59107 0.12116 0.0
H202 H 0.41349 0.61001 0.17009 0.0
O203 O 0.46024 0.58708 0.0731 0.0
H204 H 0.5317 0.57889 0.1749 0.0
H205 H 0.43889 0.59743 0.22407 0.0
C206 C 0.39739 0.59056 0.10145 0.0
C207 C 0.39293 0.55655 0.10027 0.0
C208 C 0.36123 0.54303 0.09757 0.0
C209 C 0.33333 0.56336 0.09593 0.0
C210 C 0.33792 0.59748 0.09876 0.0
C211 C 0.36967 0.61092 0.10178 0.0
C212 C 0.4397 0.64997 0.08984 0.0
C213 C 0.45734 0.67283 0.10891 0.0
C214 C 0.46049 0.70523 0.09799 0.0
C215 C 0.44608 0.71536 0.06779 0.0
C216 C 0.42785 0.69253 0.04906 0.0
C217 C 0.42496 0.66001 0.05988 0.0
C218 C 0.45767 0.60052 0.14163 0.0
C219 C 0.49123 0.59258 0.14351 0.0
C220 C 0.50588 0.58568 0.17425 0.0
C221 C 0.48726 0.58688 0.20373 0.0
C222 C 0.45397 0.59648 0.20186 0.0
C223 C 0.43932 0.60332 0.17102 0.0
P224 P 0.1659 0.37617 0.68053 0.0
H225 H 0.1893 0.31101 0.66341 0.0
H226 H 0.16935 0.26913 0.62541 0.0
H227 H 0.09015 0.33297 0.59434 0.0
H228 H 0.10974 0.37444 0.63343 0.0
H229 H 0.20695 0.42919 0.70557 0.0
H230 H 0.24272 0.46971 0.67819 0.0
H231 H 0.21066 0.43393 0.58225 0.0
H232 H 0.17496 0.39387 0.60965 0.0
H233 H 0.14804 0.36864 0.75059 0.0
H234 H 0.11275 0.4226 0.6653 0.0
O235 O 0.19255 0.35795 0.70631 0.0
H236 H 0.10893 0.39659 0.78589 0.0
H237 H 0.07113 0.44865 0.69987 0.0
C238 C 0.15061 0.34565 0.65191 0.0
C239 C 0.16751 0.31601 0.64862 0.0
C240 C 0.15629 0.29216 0.62644 0.0
C241 C 0.12811 0.2976 0.60665 0.0
C242 C 0.11163 0.32771 0.60952 0.0
C243 C 0.1228 0.35151 0.63194 0.0
C244 C 0.18853 0.40834 0.6597 0.0
C245 C 0.20735 0.43041 0.67863 0.0
C246 C 0.22784 0.45346 0.66298 0.0
C247 C 0.22963 0.45497 0.62805 0.0
C248 C 0.20958 0.4337 0.60919 0.0
C249 C 0.18924 0.41055 0.62488 0.0
C250 C 0.13343 0.39358 0.70529 0.0
C251 C 0.13125 0.38595 0.73924 0.0
C252 C 0.10835 0.40176 0.75945 0.0
C253 C 0.08657 0.42514 0.746 0.0
C254 C 0.08779 0.43137 0.71144 0.0
C255 C 0.11132 0.4161 0.69142 0.0
Zn256 Zn 0.95751 0.06761 0.56112 0.0
Zn257 Zn 0.03707 0.9865 0.48863 0.0
Zn258 Zn 0.99658 0.02799 0.52532 0.0
C259 C 0.05121 0.05381 0.47304 0.0
C260 C 0.97048 0.97578 0.4699 0.0
O261 O 0.99971 0.01208 0.57802 0.0
O262 O 0.9654 0.04504 0.6043 0.0
C263 C 0.00755 0.10676 0.53369 0.0
O264 O 0.02938 0.0591 0.49564 0.0
O265 O 0.05926 0.02487 0.46549 0.0
O266 O 0.99891 0.96363 0.46654 0.0
O267 O 0.96582 1.0002 0.48958 0.0
O268 O 0.98238 0.1087 0.55209 0.0
O269 O 0.01545 0.07907 0.5207 0.0
O270 O 0.94526 0.0213 0.50811 0.0
O271 O 0.91622 0.05758 0.53649 0.0
C272 C 0.91766 0.03517 0.51503 0.0
O273 O 0.02483 0.99669 0.55971 0.0
O274 O 0.05788 0.96627 0.52877 0.0
C275 C 0.98521 0.02127 0.60492 0.0
C276 C 0.04781 0.97518 0.55706 0.0
Zn277 Zn 0.48508 0.056 0.98197 0.0
Zn278 Zn 0.56184 0.98586 0.06749 0.0
Zn279 Zn 0.52473 0.01917 0.02463 0.0
C280 C 0.60462 0.01524 0.02153 0.0
C281 C 0.5201 0.94058 0.03626 0.0
O282 O 0.49049 0.04939 0.05381 0.0
O283 O 0.45891 0.07694 0.01835 0.0
C284 C 0.55276 0.07292 0.97159 0.0
O285 O 0.57717 0.0269 0.01042 0.0
O286 O 0.6048 0.99668 0.04676 0.0
O287 O 0.54205 0.94236 0.05857 0.0
O288 O 0.51125 0.96651 0.02021 0.0
O289 O 0.5238 0.08001 0.96224 0.0
O290 O 0.55747 0.05023 0.99353 0.0
O291 O 0.49642 0.98459 0.99422 0.0
O292 O 0.46709 0.01564 0.95984 0.0
C293 C 0.4759 0.98761 0.96987 0.0
O294 O 0.5148 0.03702 0.07559 0.0
O295 O 0.54856 0.00913 0.10831 0.0
C296 C 0.46647 0.06919 0.04788 0.0
C297 C 0.52684 0.03089 0.10467 0.0
Zn298 Zn 0.54472 0.55745 0.54779 0.0
Zn299 Zn 0.46872 0.47285 0.47588 0.0
Zn300 Zn 0.50766 0.51376 0.50982 0.0
C301 C 0.51103 0.43508 0.51516 0.0
C302 C 0.50482 0.50956 0.42956 0.0
O303 O 0.47458 0.54302 0.54138 0.0
O304 O 0.50589 0.57929 0.56797 0.0
C305 C 0.56374 0.49258 0.56369 0.0
O306 O 0.52369 0.46348 0.52103 0.0
O307 O 0.48517 0.43224 0.49777 0.0
O308 O 0.48623 0.48468 0.4313 0.0
O309 O 0.51448 0.52436 0.45616 0.0
O310 O 0.5679 0.52178 0.57324 0.0
O311 O 0.54327 0.48578 0.54002 0.0
O312 O 0.53568 0.54501 0.47491 0.0
O313 O 0.56559 0.57777 0.50717 0.0
C314 C 0.5573 0.56807 0.47844 0.0
O315 O 0.45504 0.52012 0.5245 0.0
O316 O 0.4253 0.49046 0.4893 0.0
C317 C 0.4778 0.56729 0.56152 0.0
C318 C 0.42682 0.51025 0.51328 0.0
Zn319 Zn 0.061 0.57874 0.99306 0.0
Zn320 Zn 0.9921 0.48706 0.05687 0.0
Zn321 Zn 0.02472 0.53382 0.02353 0.0
C322 C 0.05806 0.47648 0.06993 0.0
C323 C 0.97493 0.48081 0.98949 0.0
O324 O 0.00385 0.58315 0.03499 0.0
O325 O 0.03697 0.61746 0.00787 0.0
C326 C 0.10496 0.54445 0.03097 0.0
O327 O 0.06023 0.50264 0.05184 0.0
O328 O 0.03034 0.46337 0.07565 0.0
O329 O 0.96809 0.46867 0.01767 0.0
O330 O 0.99608 0.50445 0.98704 0.0
O331 O 0.10458 0.56976 0.01291 0.0
O332 O 0.07816 0.52803 0.03654 0.0
O333 O 0.01833 0.52495 0.96982 0.0
O334 O 0.0511 0.56263 0.9474 0.0
C335 C 0.03138 0.53875 0.94406 0.0
O336 O 0.99194 0.55989 0.05904 0.0
O337 O 0.97068 0.51827 0.08753 0.0
C338 C 0.01179 0.61248 0.02563 0.0
C339 C 0.97426 0.54876 0.08335 0.0
H340 H 0.19091 0.15082 0.37321 0.0
H341 H 0.11368 0.21627 0.33834 0.0
H342 H 0.07396 0.18831 0.37503 0.0
H343 H 0.14033 0.0795 0.37089 0.0
H344 H 0.15926 0.06083 0.40687 0.0
H345 H 0.18276 0.08865 0.38117 0.0
H346 H 0.19584 0.12436 0.43287 0.0
H347 H 0.17225 0.09663 0.45869 0.0
H348 H 0.16235 0.1396 0.45781 0.0
H349 H 0.04204 0.15267 0.41536 0.0
H350 H 0.01928 0.10804 0.45058 0.0
H351 H 0.11535 0.06184 0.45307 0.0
C352 C 0.16568 0.15936 0.37281 0.0
C353 C 0.15596 0.18634 0.35279 0.0
C354 C 0.12247 0.1965 0.35395 0.0
C355 C 0.09947 0.18057 0.37464 0.0
C356 C 0.11001 0.15407 0.39373 0.0
C357 C 0.1422 0.14322 0.3926 0.0
C358 C 0.14661 0.1125 0.41342 0.0
C359 C 0.1579 0.08367 0.39179 0.0
C360 C 0.17069 0.11866 0.44241 0.0
C361 C 0.11169 0.10741 0.42593 0.0
C362 C 0.09113 0.13215 0.41502 0.0
C363 C 0.05787 0.13309 0.42388 0.0
C364 C 0.04519 0.10773 0.4439 0.0
C365 C 0.06557 0.08153 0.45422 0.0
C366 C 0.09925 0.08151 0.44523 0.0
H367 H 0.35586 0.89688 0.84516 0.0
H368 H 0.43422 0.82708 0.82933 0.0
H369 H 0.46451 0.84945 0.8779 0.0
H370 H 0.40605 0.96157 0.85897 0.0
H371 H 0.38128 0.98132 0.89015 0.0
H372 H 0.36198 0.95494 0.86008 0.0
H373 H 0.3367 0.91954 0.90744 0.0
H374 H 0.35561 0.94616 0.9378 0.0
H375 H 0.36326 0.90273 0.9392 0.0
H376 H 0.48988 0.88474 0.92216 0.0
H377 H 0.50903 0.93101 0.95693 0.0
H378 H 0.41514 0.97933 0.94194 0.0
C379 C 0.37867 0.88542 0.85297 0.0
C380 C 0.39249 0.85987 0.83422 0.0
C381 C 0.42312 0.84633 0.84393 0.0
C382 C 0.44038 0.85884 0.87145 0.0
C383 C 0.42669 0.88495 0.88879 0.0
C384 C 0.39642 0.89801 0.87998 0.0
C385 C 0.38936 0.92895 0.89925 0.0
C386 C 0.3844 0.95841 0.8757 0.0
C387 C 0.35946 0.92404 0.9223 0.0
C388 C 0.42101 0.93215 0.91906 0.0
C389 C 0.44187 0.9061 0.91343 0.0
C390 C 0.47348 0.90491 0.92726 0.0
C391 C 0.48416 0.93125 0.94695 0.0
C392 C 0.46337 0.95843 0.95232 0.0
C393 C 0.43134 0.95862 0.93848 0.0
H394 H 0.65542 0.39751 0.71143 0.0
H395 H 0.69416 0.33225 0.63616 0.0
H396 H 0.66283 0.36191 0.59293 0.0
H397 H 0.57285 0.40547 0.67483 0.0
H398 H 0.56937 0.44805 0.68587 0.0
H399 H 0.59382 0.42089 0.71124 0.0
H400 H 0.64445 0.45942 0.70409 0.0
H401 H 0.62022 0.48661 0.67862 0.0
H402 H 0.65825 0.47014 0.66278 0.0
H403 H 0.63065 0.40068 0.55758 0.0
H404 H 0.59693 0.44454 0.5322 0.0
H405 H 0.57703 0.48357 0.63006 0.0
C406 C 0.65693 0.38916 0.68594 0.0
C407 C 0.67743 0.36263 0.67719 0.0
C408 C 0.67905 0.3528 0.64342 0.0
C409 C 0.6612 0.36936 0.6187 0.0
C410 C 0.64167 0.39567 0.62809 0.0
C411 C 0.63923 0.40545 0.66087 0.0
C412 C 0.617 0.43505 0.66404 0.0
C413 C 0.58645 0.42686 0.68525 0.0
C414 C 0.63613 0.46455 0.67822 0.0
C415 C 0.6077 0.44057 0.62787 0.0
C416 C 0.62214 0.41748 0.60761 0.0
C417 C 0.61836 0.41823 0.57316 0.0
C418 C 0.59893 0.44294 0.559 0.0
C419 C 0.5834 0.46639 0.57925 0.0
C420 C 0.58819 0.46545 0.6141 0.0
H421 H 0.87087 0.69899 0.15542 0.0
H422 H 0.87611 0.65018 0.25154 0.0
H423 H 0.91255 0.60834 0.22763 0.0
H424 H 0.86669 0.62823 0.10578 0.0
H425 H 0.89259 0.644 0.07287 0.0
H426 H 0.86906 0.67172 0.09801 0.0
H427 H 0.92252 0.70324 0.11209 0.0
H428 H 0.94717 0.67493 0.0887 0.0
H429 H 0.95642 0.68217 0.1318 0.0
H430 H 0.94417 0.56946 0.19284 0.0
H431 H 0.97047 0.5363 0.14934 0.0
H432 H 0.94485 0.60921 0.07536 0.0
C433 C 0.87985 0.67958 0.17145 0.0
C434 C 0.87078 0.67798 0.20544 0.0
C435 C 0.88317 0.65228 0.22562 0.0
C436 C 0.90376 0.62829 0.21223 0.0
C437 C 0.91197 0.63042 0.17864 0.0
C438 C 0.90061 0.65546 0.15851 0.0
C439 C 0.91261 0.65145 0.123 0.0
C440 C 0.88349 0.64867 0.09848 0.0
C441 C 0.93605 0.67966 0.11335 0.0
C442 C 0.93116 0.61942 0.12603 0.0
C443 C 0.93081 0.60804 0.15849 0.0
C444 C 0.94495 0.57831 0.16741 0.0
C445 C 0.95967 0.55959 0.14247 0.0
C446 C 0.96019 0.57055 0.10894 0.0
C447 C 0.94591 0.60095 0.10077 0.0
H448 H 0.36119 0.20114 0.14722 0.0
H449 H 0.33252 0.12299 0.21481 0.0
H450 H 0.36877 0.08461 0.18459 0.0
H451 H 0.36079 0.15251 0.07412 0.0
H452 H 0.3957 0.17294 0.05528 0.0
H453 H 0.36972 0.19472 0.08384 0.0
H454 H 0.42083 0.20877 0.12029 0.0
H455 H 0.44695 0.18704 0.09175 0.0
H456 H 0.44683 0.17617 0.13529 0.0
H457 H 0.40823 0.05495 0.14695 0.0
H458 H 0.44394 0.03486 0.10151 0.0
H459 H 0.44374 0.13145 0.05629 0.0
C460 C 0.36287 0.176 0.15576 0.0
C461 C 0.34436 0.16491 0.18338 0.0
C462 C 0.34658 0.13179 0.19363 0.0
C463 C 0.36719 0.10995 0.17676 0.0
C464 C 0.38508 0.12159 0.1495 0.0
C465 C 0.38287 0.15376 0.13885 0.0
C466 C 0.40307 0.15956 0.10765 0.0
C467 C 0.38099 0.17057 0.0785 0.0
C468 C 0.43108 0.18436 0.11415 0.0
C469 C 0.41655 0.12554 0.10209 0.0
C470 C 0.40646 0.10415 0.1269 0.0
C471 C 0.41617 0.07145 0.12734 0.0
C472 C 0.43643 0.06027 0.10154 0.0
C473 C 0.44638 0.08165 0.07555 0.0
C474 C 0.43627 0.11464 0.07586 0.0
H475 H 0.17 0.85491 0.64703 0.0
H476 H 0.19948 0.93835 0.70732 0.0
H477 H 0.15014 0.96783 0.68882 0.0
H478 H 0.15233 0.90083 0.57881 0.0
H479 H 0.11815 0.8762 0.56426 0.0
H480 H 0.14997 0.85787 0.5892 0.0
H481 H 0.10602 0.83779 0.63166 0.0
H482 H 0.07395 0.85611 0.60668 0.0
H483 H 0.07816 0.86686 0.64997 0.0
H484 H 0.10279 0.99195 0.65734 0.0
H485 H 0.06524 0.00983 0.61225 0.0
H486 H 0.07062 0.91348 0.56791 0.0
C487 C 0.16606 0.87919 0.65683 0.0
C488 C 0.18897 0.89394 0.67894 0.0
C489 C 0.18221 0.92578 0.69116 0.0
C490 C 0.15413 0.94295 0.68065 0.0
C491 C 0.13301 0.92819 0.65769 0.0
C492 C 0.13874 0.89702 0.64584 0.0
C493 C 0.11573 0.88872 0.61729 0.0
C494 C 0.13522 0.88044 0.58553 0.0
C495 C 0.09206 0.8607 0.627 0.0
C496 C 0.09745 0.92074 0.61371 0.0
C497 C 0.10683 0.94278 0.63806 0.0
C498 C 0.09487 0.97473 0.6385 0.0
C499 C 0.07355 0.98467 0.61285 0.0
C500 C 0.065 0.96289 0.5869 0.0
C501 C 0.07657 0.93041 0.58776 0.0
H502 H 0.86858 0.34913 0.89058 0.0
H503 H 0.84963 0.42363 0.81569 0.0
H504 H 0.88722 0.46173 0.84522 0.0
H505 H 0.86977 0.40113 0.95954 0.0
H506 H 0.9025 0.37997 0.98101 0.0
H507 H 0.87614 0.35804 0.95258 0.0
H508 H 0.92743 0.33933 0.91936 0.0
H509 H 0.95406 0.36132 0.94763 0.0
H510 H 0.95609 0.36956 0.90356 0.0
H511 H 0.92498 0.49265 0.88498 0.0
H512 H 0.95754 0.51399 0.93254 0.0
H513 H 0.95216 0.41864 0.98022 0.0
C514 C 0.87276 0.37324 0.88 0.0
C515 C 0.85618 0.38334 0.85076 0.0
C516 C 0.8618 0.41543 0.83824 0.0
C517 C 0.88333 0.43714 0.85467 0.0
C518 C 0.89914 0.4264 0.88356 0.0
C519 C 0.8941 0.39517 0.89606 0.0
C520 C 0.91268 0.39004 0.92836 0.0
C521 C 0.88884 0.38183 0.95706 0.0
C522 C 0.93914 0.36349 0.92448 0.0
C523 C 0.92825 0.42354 0.93261 0.0
C524 C 0.92059 0.4441 0.90633 0.0
C525 C 0.93139 0.47663 0.9055 0.0
C526 C 0.95006 0.48849 0.93247 0.0
C527 C 0.95777 0.46783 0.95976 0.0
C528 C 0.94684 0.43494 0.95957 0.0
H529 H 0.66044 0.70511 0.38212 0.0
H530 H 0.67693 0.63382 0.30417 0.0
H531 H 0.63989 0.59473 0.33303 0.0
H532 H 0.66071 0.65035 0.44899 0.0
H533 H 0.62851 0.67031 0.47206 0.0
H534 H 0.65394 0.69368 0.44385 0.0
H535 H 0.60168 0.71356 0.41247 0.0
H536 H 0.57605 0.69032 0.44074 0.0
H537 H 0.57261 0.68385 0.39651 0.0
H538 H 0.60518 0.56164 0.373 0.0
H539 H 0.57547 0.53757 0.42101 0.0
H540 H 0.57892 0.63118 0.47118 0.0
C541 C 0.65575 0.68154 0.37073 0.0
C542 C 0.6717 0.67254 0.3409 0.0
C543 C 0.66537 0.64115 0.32723 0.0
C544 C 0.64414 0.61886 0.34328 0.0
C545 C 0.6292 0.62837 0.37288 0.0
C546 C 0.63458 0.65903 0.38639 0.0
C547 C 0.61687 0.66259 0.41934 0.0
C548 C 0.64148 0.66964 0.44772 0.0
C549 C 0.59022 0.68916 0.41711 0.0
C550 C 0.60154 0.62883 0.42276 0.0
C551 C 0.60859 0.60955 0.39552 0.0
C552 C 0.59878 0.57678 0.39403 0.0
C553 C 0.58146 0.5634 0.42116 0.0
C554 C 0.57368 0.58283 0.44909 0.0
C555 C 0.58395 0.61594 0.44981 0.0
H556 H 0.15521 0.37263 0.20507 0.0
H557 H 0.22386 0.34612 0.12713 0.0
H558 H 0.19644 0.38488 0.08861 0.0
H559 H 0.08516 0.37661 0.15427 0.0
H560 H 0.06684 0.4108 0.17545 0.0
H561 H 0.0941 0.38376 0.19764 0.0
H562 H 0.13105 0.43323 0.21416 0.0
H563 H 0.10385 0.46045 0.19191 0.0
H564 H 0.14728 0.45988 0.18214 0.0
H565 H 0.15883 0.42362 0.05746 0.0
H566 H 0.11219 0.45661 0.03579 0.0
H567 H 0.0686 0.45781 0.13399 0.0
C568 C 0.16489 0.37549 0.1801 0.0
C569 C 0.19177 0.35653 0.16911 0.0
C570 C 0.20319 0.36033 0.13599 0.0
C571 C 0.18795 0.38246 0.11404 0.0
C572 C 0.1613 0.40059 0.12559 0.0
C573 C 0.14982 0.39726 0.15784 0.0
C574 C 0.11924 0.41764 0.16339 0.0
C575 C 0.08959 0.3959 0.17325 0.0
C576 C 0.12576 0.44439 0.18945 0.0
C577 C 0.11478 0.43232 0.12901 0.0
C578 C 0.1396 0.42268 0.10766 0.0
C579 C 0.13967 0.43185 0.07414 0.0
C580 C 0.11343 0.45091 0.0621 0.0
C581 C 0.08772 0.46061 0.08352 0.0
C582 C 0.08851 0.45128 0.11736 0.0
H583 H 0.64178 0.19256 0.84207 0.0
H584 H 0.72347 0.20029 0.91184 0.0
H585 H 0.69517 0.1614 0.94966 0.0
H586 H 0.57744 0.18799 0.90221 0.0
H587 H 0.55305 0.15881 0.87906 0.0
H588 H 0.58006 0.18685 0.85742 0.0
H589 H 0.60911 0.13801 0.829 0.0
H590 H 0.58221 0.1098 0.85063 0.0
H591 H 0.62637 0.10581 0.85435 0.0
H592 H 0.65705 0.12227 0.98054 0.0
H593 H 0.61168 0.08743 0.0022 0.0
H594 H 0.55629 0.10375 0.91117 0.0
C595 C 0.65393 0.18587 0.86514 0.0
C596 C 0.68489 0.1996 0.87394 0.0
C597 C 0.69957 0.19052 0.90469 0.0
C598 C 0.68381 0.16822 0.92624 0.0
C599 C 0.65338 0.1551 0.9167 0.0
C600 C 0.6386 0.16363 0.88688 0.0
C601 C 0.60555 0.14654 0.88269 0.0
C602 C 0.57737 0.17154 0.88021 0.0
C603 C 0.60585 0.12368 0.85237 0.0
C604 C 0.60388 0.12727 0.91494 0.0
C605 C 0.63176 0.13236 0.93418 0.0
C606 C 0.63531 0.11782 0.96547 0.0
C607 C 0.60956 0.09779 0.97745 0.0
C608 C 0.58084 0.09218 0.95805 0.0
C609 C 0.57812 0.10722 0.92642 0.0
H610 H 0.86791 0.83383 0.3805 0.0
H611 H 0.80442 0.90932 0.33971 0.0
H612 H 0.83535 0.95125 0.37143 0.0
H613 H 0.8774 0.87009 0.46362 0.0
H614 H 0.91995 0.85782 0.46715 0.0
H615 H 0.89137 0.83362 0.44297 0.0
H616 H 0.9299 0.83893 0.39175 0.0
H617 H 0.95847 0.86328 0.41568 0.0
H618 H 0.94196 0.87909 0.37716 0.0
H619 H 0.8758 0.98533 0.40432 0.0
H620 H 0.92236 0.00872 0.43674 0.0
H621 H 0.95788 0.9111 0.45789 0.0
C622 C 0.86008 0.85909 0.37874 0.0
C623 C 0.83372 0.86829 0.35761 0.0
C624 C 0.82473 0.90174 0.35548 0.0
C625 C 0.84202 0.9257 0.37354 0.0
C626 C 0.86819 0.91585 0.39373 0.0
C627 C 0.8771 0.88332 0.39656 0.0
C628 C 0.90704 0.87936 0.41887 0.0
C629 C 0.89841 0.85902 0.45 0.0
C630 C 0.93605 0.86428 0.39971 0.0
C631 C 0.91395 0.91478 0.42767 0.0
C632 C 0.89113 0.93544 0.41311 0.0
C633 C 0.89332 0.96935 0.41646 0.0
C634 C 0.91946 0.98244 0.43528 0.0
C635 C 0.94268 0.9617 0.45084 0.0
C636 C 0.94002 0.92747 0.44669 0.0
H637 H 0.3764 0.72589 0.59582 0.0
H638 H 0.34438 0.68064 0.68828 0.0
H639 H 0.36542 0.62733 0.66887 0.0
H640 H 0.36327 0.65305 0.54053 0.0
H641 H 0.4001 0.66256 0.51716 0.0
H642 H 0.37624 0.69508 0.53522 0.0
H643 H 0.42848 0.71623 0.56607 0.0
H644 H 0.45235 0.68389 0.5482 0.0
H645 H 0.45101 0.68863 0.59278 0.0
H646 H 0.39858 0.58166 0.64365 0.0
H647 H 0.44062 0.54815 0.61479 0.0
H648 H 0.45187 0.62398 0.54005 0.0
C649 C 0.37321 0.70464 0.61175 0.0
C650 C 0.35876 0.70743 0.64356 0.0
C651 C 0.35496 0.67902 0.66361 0.0
C652 C 0.36688 0.64863 0.6528 0.0
C653 C 0.38219 0.64705 0.62176 0.0
C654 C 0.38509 0.67433 0.60143 0.0
C655 C 0.40591 0.66739 0.57109 0.0
C656 C 0.38513 0.66965 0.53911 0.0
C657 C 0.43622 0.69038 0.56948 0.0
C658 C 0.41575 0.63244 0.57831 0.0
C659 C 0.40126 0.62077 0.60724 0.0
C660 C 0.40927 0.59014 0.62048 0.0
C661 C 0.4331 0.57132 0.60405 0.0
C662 C 0.44865 0.58348 0.57505 0.0
C663 C 0.43947 0.61401 0.56176 0.0
H664 H 0.97018 0.00386 0.80039 0.0
H665 H 0.98974 0.90002 0.79021 0.0
H666 H 1.0004 0.90825 0.73009 0.0
H667 H 0.92743 0.01398 0.72635 0.0
H668 H 0.94396 0.05411 0.71719 0.0
H669 H 0.94097 0.04034 0.75966 0.0
H670 H 0.00364 0.05114 0.76801 0.0
H671 H 0.0068 0.0651 0.7255 0.0
H672 H 0.03287 0.03246 0.74025 0.0
H673 H 0.00438 0.92768 0.66977 0.0
H674 H 1.00032 0.95641 0.61546 0.0
H675 H 0.98048 0.04736 0.66671 0.0
C676 C 0.97756 0.98291 0.78581 0.0
C677 C 0.97928 0.95131 0.80014 0.0
C678 C 0.98802 0.92445 0.77978 0.0
C679 C 0.99438 0.92892 0.74566 0.0
C680 C 0.99212 0.96043 0.73233 0.0
C681 C 0.98408 0.98695 0.75192 0.0
C682 C 0.9813 0.01799 0.73149 0.0
C683 C 0.94634 0.03243 0.73381 0.0
C684 C 0.00773 0.04315 0.74194 0.0
C685 C 0.98812 0.00471 0.69716 0.0
C686 C 0.9947 0.97154 0.69803 0.0
C687 C 0.99985 0.95376 0.66891 0.0
C688 C 0.99775 0.97029 0.63818 0.0
C689 C 0.99077 0.0042 0.63694 0.0
C690 C 0.98624 0.02148 0.6669 0.0
H691 H 0.54954 0.07425 0.29107 0.0
H692 H 0.52267 0.17408 0.26602 0.0
H693 H 0.50067 0.15511 0.21215 0.0
H694 H 0.58013 0.05312 0.21992 0.0
H695 H 0.56476 0.01163 0.21791 0.0
H696 H 0.57008 0.03094 0.25755 0.0
H697 H 0.50869 0.02009 0.27215 0.0
H698 H 0.50318 0.99995 0.23263 0.0
H699 H 0.47673 0.03343 0.24395 0.0
H700 H 0.49684 0.12829 0.15656 0.0
H701 H 0.50612 0.09472 0.10658 0.0
H702 H 0.52915 0.01127 0.16916 0.0
C703 C 0.53741 0.09197 0.2752 0.0
C704 C 0.53822 0.12572 0.28277 0.0
C705 C 0.52295 0.14814 0.26058 0.0
C706 C 0.51005 0.13755 0.23002 0.0
C707 C 0.51165 0.10433 0.22242 0.0
C708 C 0.52405 0.08171 0.24486 0.0
C709 C 0.52688 0.04817 0.22934 0.0
C710 C 0.56257 0.03527 0.23129 0.0
C711 C 0.5024 0.02399 0.24548 0.0
C712 C 0.51691 0.05606 0.19395 0.0
C713 C 0.50756 0.08842 0.19047 0.0
C714 C 0.50253 0.10254 0.15917 0.0
C715 C 0.50761 0.08324 0.13085 0.0
C716 C 0.51697 0.05006 0.13404 0.0
C717 C 0.521 0.03631 0.16604 0.0
H718 H 0.48094 0.61411 0.26619 0.0
H719 H 0.52485 0.53263 0.21371 0.0
H720 H 0.5431 0.50899 0.26704 0.0
H721 H 0.54507 0.61619 0.33648 0.0
H722 H 0.51405 0.62646 0.36669 0.0
H723 H 0.51017 0.64073 0.32429 0.0
H724 H 0.45201 0.61386 0.32045 0.0
H725 H 0.45577 0.59958 0.36265 0.0
H726 H 0.44736 0.57082 0.32973 0.0
H727 H 0.54667 0.48866 0.32468 0.0
H728 H 0.53711 0.4741 0.38364 0.0
H729 H 0.49354 0.56912 0.40057 0.0
C730 C 0.49511 0.59172 0.26597 0.0
C731 C 0.50167 0.57534 0.23574 0.0
C732 C 0.52006 0.54596 0.23643 0.0
C733 C 0.53055 0.53231 0.26665 0.0
C734 C 0.523 0.54858 0.29603 0.0
C735 C 0.50618 0.57793 0.29602 0.0
C736 C 0.49858 0.5887 0.3313 0.0
C737 C 0.51813 0.61988 0.3402 0.0
C738 C 0.46122 0.59349 0.33631 0.0
C739 C 0.51128 0.55952 0.35084 0.0
C740 C 0.52599 0.53704 0.32999 0.0
C741 C 0.53617 0.50645 0.34143 0.0
C742 C 0.53055 0.49832 0.37483 0.0
C743 C 0.51524 0.52079 0.39642 0.0
C744 C 0.50621 0.55204 0.38457 0.0
H745 H 0.05729 0.40686 0.80572 0.0
H746 H 0.06917 0.48971 0.73835 0.0
H747 H 0.04278 0.52525 0.77911 0.0
H748 H 0.9792 0.43726 0.85008 0.0
H749 H 0.99438 0.42244 0.88951 0.0
H750 H 0.00424 0.40094 0.85172 0.0
H751 H 0.06665 0.40605 0.86583 0.0
H752 H 0.05681 0.42749 0.90338 0.0
H753 H 0.08426 0.44604 0.87334 0.0
H754 H 0.02745 0.55426 0.82983 0.0
H755 H 0.02562 0.57454 0.88747 0.0
H756 H 0.02647 0.47472 0.92451 0.0
C757 C 0.05369 0.43231 0.79913 0.0
C758 C 0.06532 0.44515 0.76841 0.0
C759 C 0.05988 0.4787 0.76106 0.0
C760 C 0.04489 0.4993 0.78424 0.0
C761 C 0.03529 0.48619 0.81481 0.0
C762 C 0.03921 0.45338 0.8223 0.0
C763 C 0.03196 0.44663 0.85881 0.0
C764 C 1.00058 0.42557 0.86273 0.0
C765 C 0.0617 0.43064 0.87635 0.0
C766 C 0.02619 0.48116 0.87111 0.0
C767 C 0.02696 0.5034 0.84502 0.0
C768 C 0.02589 0.53705 0.85036 0.0
C769 C 0.02503 0.54836 0.88316 0.0
C770 C 0.02542 0.52613 0.91025 0.0
C771 C 0.0251 0.49211 0.90413 0.0
H772 H 0.79703 0.99465 0.00688 0.0
H773 H 0.78574 0.9979 0.89951 0.0
H774 H 0.72738 0.01425 0.90623 0.0
H775 H 0.72204 0.95889 0.02407 0.0
H776 H 0.71453 0.98132 0.06182 0.0
H777 H 0.75618 0.97448 0.04831 0.0
H778 H 0.76764 0.03705 0.04925 0.0
H779 H 0.72588 0.04409 0.06281 0.0
H780 H 0.74128 0.0642 0.02588 0.0
H781 H 0.66848 0.02452 0.92517 0.0
H782 H 0.61472 0.02493 0.95453 0.0
H783 H 0.66582 0.01608 0.04905 0.0
C784 C 0.78264 0.99977 0.98472 0.0
C785 C 0.79605 0.99523 0.95267 0.0
C786 C 0.77596 0.0011 0.92434 0.0
C787 C 0.74288 0.01068 0.92791 0.0
C788 C 0.73033 0.01449 0.95997 0.0
C789 C 0.74973 0.00929 0.98785 0.0
C790 C 0.72985 0.012 0.01952 0.0
C791 C 0.7307 0.97976 0.03958 0.0
C792 C 0.74188 0.04107 0.0406 0.0
C793 C 0.69594 0.01832 0.00514 0.0
C794 C 0.69667 0.0203 0.97079 0.0
C795 C 0.66775 0.02361 0.95209 0.0
C796 C 0.63733 0.02399 0.96894 0.0
C797 C 0.63621 0.021 0.00404 0.0
C798 C 0.66598 0.01887 0.02221 0.0
H799 H 0.77323 0.08971 0.39885 0.0
H800 H 0.71033 0.02196 0.45306 0.0
H801 H 0.75993 0.99618 0.47802 0.0
H802 H 0.84577 0.03461 0.38678 0.0
H803 H 0.87488 0.06732 0.39453 0.0
H804 H 0.83573 0.07595 0.37497 0.0
H805 H 0.82178 0.11843 0.42001 0.0
H806 H 0.86095 0.1112 0.43956 0.0
H807 H 0.82344 0.10669 0.46331 0.0
H808 H 0.81575 0.98358 0.50306 0.0
H809 H 0.87137 0.98836 0.52888 0.0
H810 H 0.89604 0.06698 0.46065 0.0
C811 C 0.76999 0.06848 0.41481 0.0
C812 C 0.73815 0.05722 0.42348 0.0
C813 C 0.73466 0.03051 0.44578 0.0
C814 C 0.76266 0.01568 0.45988 0.0
C815 C 0.79382 0.02805 0.4515 0.0
C816 C 0.79751 0.05396 0.42946 0.0
C817 C 0.83273 0.06642 0.42855 0.0
C818 C 0.8482 0.06072 0.39417 0.0
C819 C 0.83482 0.10281 0.43847 0.0
C820 C 0.84808 0.04457 0.45466 0.0
C821 C 0.82563 0.02184 0.46691 0.0
C822 C 0.83369 1.00078 0.49314 0.0
C823 C 0.86518 0.00361 0.50766 0.0
C824 C 0.88774 0.02756 0.49607 0.0
C825 C 0.87925 0.04796 0.46916 0.0
H826 H 0.27318 0.58307 0.12086 0.0
H827 H 0.31763 0.5127 0.05406 0.0
H828 H 0.26233 0.49324 0.03768 0.0
H829 H 0.19874 0.53237 0.14376 0.0
H830 H 0.17241 0.56779 0.14366 0.0
H831 H 0.21532 0.57187 0.15515 0.0
H832 H 0.22321 0.61659 0.10974 0.0
H833 H 0.18046 0.61266 0.09824 0.0
H834 H 0.21213 0.6075 0.06725 0.0
H835 H 0.20324 0.48793 0.02119 0.0
H836 H 0.14486 0.49773 0.00603 0.0
H837 H 0.13798 0.57093 0.08316 0.0
C838 C 0.27134 0.56318 0.10321 0.0
C839 C 0.29994 0.54929 0.08902 0.0
C840 C 0.29628 0.52332 0.06594 0.0
C841 C 0.26488 0.5121 0.05637 0.0
C842 C 0.23725 0.52689 0.07021 0.0
C843 C 0.24015 0.55175 0.0933 0.0
C844 C 0.2067 0.56592 0.10168 0.0
C845 C 0.19777 0.55907 0.13824 0.0
C846 C 0.20558 0.60284 0.09373 0.0
C847 C 0.18478 0.54638 0.07837 0.0
C848 C 0.20279 0.52347 0.06094 0.0
C849 C 0.18866 0.50496 0.03545 0.0
C850 C 0.15549 0.51048 0.02713 0.0
C851 C 0.13683 0.5339 0.04453 0.0
C852 C 0.15152 0.55181 0.07062 0.0
H853 H 0.29427 0.46486 0.64542 0.0
H854 H 0.22093 0.49245 0.57183 0.0
H855 H 0.26412 0.5209 0.53919 0.0
H856 H 0.34862 0.54116 0.63616 0.0
H857 H 0.38543 0.51708 0.64164 0.0
H858 H 0.34784 0.50547 0.66273 0.0
H859 H 0.35112 0.44768 0.63654 0.0
H860 H 0.38848 0.45917 0.61544 0.0
H861 H 0.35372 0.44393 0.5919 0.0
H862 H 0.31567 0.53557 0.50936 0.0
H863 H 0.37158 0.53516 0.48479 0.0
H864 H 0.41195 0.5008 0.57833 0.0
C865 C 0.28705 0.4781 0.62318 0.0
C866 C 0.2542 0.47661 0.61127 0.0
C867 C 0.24596 0.4932 0.58138 0.0
C868 C 0.27029 0.50969 0.56284 0.0
C869 C 0.30269 0.50975 0.57471 0.0
C870 C 0.31107 0.49467 0.60441 0.0
C871 C 0.34818 0.49444 0.60946 0.0
C872 C 0.3581 0.51583 0.63927 0.0
C873 C 0.36111 0.45923 0.61354 0.0
C874 C 0.35949 0.50979 0.57698 0.0
C875 C 0.33282 0.51913 0.55759 0.0
C876 C 0.33678 0.52947 0.52469 0.0
C877 C 0.36855 0.52917 0.51092 0.0
C878 C 0.39591 0.51889 0.5301 0.0
C879 C 0.3915 0.51016 0.56378 0.0
H880 H 0.98598 0.80188 0.01857 0.0
H881 H 0.88918 0.78239 0.97639 0.0
H882 H 0.8942 0.72402 0.99222 0.0
H883 H 0.02385 0.7336 0.98871 0.0
H884 H 0.04954 0.7263 0.02466 0.0
H885 H 0.03567 0.76704 0.01548 0.0
H886 H 0.00998 0.77089 0.07442 0.0
H887 H 0.02363 0.7299 0.08375 0.0
H888 H 0.98062 0.74022 0.0879 0.0
H889 H 0.91368 0.66665 0.00447 0.0
H890 H 0.94614 0.61587 0.01147 0.0
H891 H 0.02958 0.67302 0.04636 0.0
C892 C 0.96559 0.78543 0.01316 0.0
C893 C 0.9372 0.79665 0.99624 0.0
C894 C 0.911 0.7744 0.9897 0.0
C895 C 0.91364 0.74121 0.9986 0.0
C896 C 0.94242 0.73077 0.01447 0.0
C897 C 0.96779 0.75236 0.022 0.0
C898 C 0.99735 0.73469 0.03633 0.0
C899 C 0.02841 0.74076 0.01501 0.0
C900 C 0.00323 0.74452 0.07277 0.0
C901 C 0.98545 0.6996 0.03394 0.0
C902 C 0.95345 0.69779 0.02191 0.0
C903 C 0.93838 0.66779 0.01475 0.0
C904 C 0.95684 0.63905 0.01907 0.0
C905 C 0.98981 0.64057 0.0307 0.0
C906 C 0.00394 0.67118 0.03877 0.0
H907 H 0.50381 0.7501 0.06635 0.0
H908 H 0.39978 0.75734 0.04176 0.0
H909 H 0.40831 0.81514 0.02445 0.0
H910 H 0.51234 0.827 0.10225 0.0
H911 H 0.55335 0.8346 0.08649 0.0
H912 H 0.53934 0.79325 0.09327 0.0
H913 H 0.55251 0.77929 0.03179 0.0
H914 H 0.56647 0.82076 0.0248 0.0
H915 H 0.53453 0.80345 0.99882 0.0
H916 H 0.42764 0.87421 0.01596 0.0
H917 H 0.45586 0.92822 0.0173 0.0
H918 H 0.54723 0.88073 0.04547 0.0
C919 C 0.48285 0.76377 0.05711 0.0
C920 C 0.45112 0.74936 0.05552 0.0
C921 C 0.42436 0.76792 0.04296 0.0
C922 C 0.42898 0.80072 0.03309 0.0
C923 C 0.46059 0.81435 0.03548 0.0
C924 C 0.48708 0.79628 0.04696 0.0
C925 C 0.51819 0.81682 0.04896 0.0
C926 C 0.53156 0.81799 0.08487 0.0
C927 C 0.54447 0.80433 0.02464 0.0
C928 C 0.50491 0.84965 0.03799 0.0
C929 C 0.47174 0.84782 0.0299 0.0
C930 C 0.45377 0.87575 0.0215 0.0
C931 C 0.47003 0.9063 0.02204 0.0
C932 C 0.50389 0.90853 0.03066 0.0
C933 C 0.52146 0.87971 0.0382 0.0
H934 H 0.06342 0.28051 0.59511 0.0
H935 H 0.1637 0.25434 0.56872 0.0
H936 H 0.14253 0.20592 0.53877 0.0
H937 H 0.03544 0.20434 0.61278 0.0
H938 H 0.99458 0.20904 0.59556 0.0
H939 H 0.017 0.24434 0.60993 0.0
H940 H 0.01045 0.27187 0.55203 0.0
H941 H 0.98778 0.23656 0.53745 0.0
H942 H 0.02391 0.2506 0.5153 0.0
H943 H 0.11152 0.15549 0.52114 0.0
H944 H 0.07322 0.10867 0.51625 0.0
H945 H 0.99254 0.16994 0.54881 0.0
C946 C 0.0809 0.26536 0.582 0.0
C947 C 0.11526 0.27126 0.58446 0.0
C948 C 0.13729 0.25013 0.56767 0.0
C949 C 0.12548 0.22273 0.55026 0.0
C950 C 0.09151 0.21707 0.54924 0.0
C951 C 0.0695 0.23812 0.56424 0.0
C952 C 0.0345 0.22501 0.56222 0.0
C953 C 0.01954 0.2204 0.59719 0.0
C954 C 0.01289 0.24734 0.54044 0.0
C955 C 0.04048 0.19249 0.54541 0.0
C956 C 0.07344 0.18851 0.53765 0.0
C957 C 0.08546 0.15878 0.5259 0.0
C958 C 0.06337 0.13231 0.52276 0.0
C959 C 0.02955 0.13582 0.53085 0.0
C960 C 0.01804 0.16664 0.54152 0.0
H961 H 0.62519 0.29256 0.4603 0.0
H962 H 0.56598 0.22799 0.52225 0.0
H963 H 0.54065 0.2763 0.54906 0.0
H964 H 0.63764 0.35833 0.51987 0.0
H965 H 0.63181 0.39123 0.49023 0.0
H966 H 0.64962 0.35301 0.47722 0.0
H967 H 0.6061 0.34268 0.43238 0.0
H968 H 0.58884 0.38203 0.44139 0.0
H969 H 0.56289 0.34598 0.44251 0.0
H970 H 0.51555 0.33105 0.56184 0.0
H971 H 0.49192 0.38685 0.55823 0.0
H972 H 0.56752 0.41477 0.48755 0.0
C973 C 0.60788 0.28858 0.48047 0.0
C974 C 0.598 0.25668 0.4898 0.0
C975 C 0.57411 0.25236 0.51514 0.0
C976 C 0.55977 0.27961 0.53054 0.0
C977 C 0.56957 0.31088 0.52016 0.0
C978 C 0.59307 0.31537 0.4956 0.0
C979 C 0.59622 0.35092 0.48546 0.0
C980 C 0.63085 0.36422 0.49372 0.0
C981 C 0.588 0.35565 0.44826 0.0
C982 C 0.57011 0.36581 0.50745 0.0
C983 C 0.55528 0.34246 0.52769 0.0
C984 C 0.52764 0.34973 0.54695 0.0
C985 C 0.51439 0.38137 0.54481 0.0
C986 C 0.52893 0.40515 0.52372 0.0
C987 C 0.55723 0.39737 0.50521 0.0
loop_
_geom_bond_atom_site_label_1
_geom_bond_atom_site_label_2
_geom_bond_distance
_geom_bond_site_symmetry_2
_ccdc_geom_bond_type
P0 O11 1.490 . S
P0 C14 1.812 . S
P0 C20 1.803 . S
P0 C26 1.819 . S
H1 C15 0.941 . S
H2 C16 0.939 . S
H3 C18 0.940 . S
H4 C19 0.940 . S
H5 C21 0.939 . S
H6 C22 0.942 . S
H7 C24 0.940 . S
H8 C25 0.939 . S
H9 C27 0.941 . S
H10 C31 0.939 . S
O11 P0 1.490 . S
H12 C28 0.939 . S
H13 C30 0.940 . S
C14 P0 1.812 . S
C14 C15 1.389 . S
C14 C19 1.391 . S
C15 H1 0.941 . S
C15 C14 1.389 . S
C15 C16 1.397 . S
C16 H2 0.939 . S
C16 C15 1.397 . S
C16 C17 1.378 . S
C17 C16 1.378 . S
C17 C18 1.378 . S
C18 H3 0.940 . S
C18 C17 1.378 . S
C18 C19 1.396 . S
C19 H4 0.940 . S
C19 C14 1.391 . S
C19 C18 1.396 . S
C20 P0 1.803 . S
C20 C21 1.378 . S
C20 C25 1.400 . S
C21 H5 0.939 . S
C21 C20 1.378 . S
C21 C22 1.361 . S
C22 H6 0.942 . S
C22 C21 1.361 . S
C22 C23 1.369 . S
C23 C22 1.369 . S
C23 C24 1.404 . S
C24 H7 0.940 . S
C24 C23 1.404 . S
C24 C25 1.389 . S
C25 H8 0.939 . S
C25 C20 1.400 . S
C25 C24 1.389 . S
C26 P0 1.819 . S
C26 C27 1.391 . S
C26 C31 1.391 . S
C27 H9 0.941 . S
C27 C26 1.391 . S
C27 C28 1.396 . S
C28 H12 0.939 . S
C28 C27 1.396 . S
C28 C29 1.397 . S
C29 C28 1.397 . S
C29 C30 1.385 . S
C30 H13 0.940 . S
C30 C29 1.385 . S
C30 C31 1.388 . S
C31 H10 0.939 . S
C31 C26 1.391 . S
C31 C30 1.388 . S
P32 O43 1.490 . S
P32 C46 1.812 . S
P32 C52 1.803 . S
P32 C58 1.819 . S
H33 C47 0.941 . S
H34 C48 0.939 . S
H35 C50 0.940 . S
H36 C51 0.940 . S
H37 C53 0.939 . S
H38 C54 0.942 . S
H39 C56 0.940 . S
H40 C57 0.939 . S
H41 C59 0.941 . S
H42 C63 0.939 . S
O43 P32 1.490 . S
H44 C60 0.939 . S
H45 C62 0.940 . S
C46 P32 1.812 . S
C46 C47 1.389 . S
C46 C51 1.391 . S
C47 H33 0.941 . S
C47 C46 1.389 . S
C47 C48 1.397 . S
C48 H34 0.939 . S
C48 C47 1.397 . S
C48 C49 1.378 . S
C49 C48 1.378 . S
C49 C50 1.378 . S
C50 H35 0.940 . S
C50 C49 1.378 . S
C50 C51 1.396 . S
C51 H36 0.940 . S
C51 C46 1.391 . S
C51 C50 1.396 . S
C52 P32 1.803 . S
C52 C53 1.378 . S
C52 C57 1.400 . S
C53 H37 0.939 . S
C53 C52 1.378 . S
C53 C54 1.361 . S
C54 H38 0.942 . S
C54 C53 1.361 . S
C54 C55 1.369 . S
C55 C54 1.369 . S
C55 C56 1.404 . S
C56 H39 0.940 . S
C56 C55 1.404 . S
C56 C57 1.389 . S
C57 H40 0.939 . S
C57 C52 1.400 . S
C57 C56 1.389 . S
C58 P32 1.819 . S
C58 C59 1.391 . S
C58 C63 1.391 . S
C59 H41 0.941 . S
C59 C58 1.391 . S
C59 C60 1.396 . S
C60 H44 0.939 . S
C60 C59 1.396 . S
C60 C61 1.397 . S
C61 C60 1.397 . S
C61 C62 1.385 . S
C62 H45 0.940 . S
C62 C61 1.385 . S
C62 C63 1.388 . S
C63 H42 0.939 . S
C63 C58 1.391 . S
C63 C62 1.388 . S
P64 O75 1.490 . S
P64 C78 1.812 . S
P64 C84 1.803 . S
P64 C90 1.819 . S
H65 C79 0.941 . S
H66 C80 0.939 . S
H67 C82 0.940 . S
H68 C83 0.940 . S
H69 C85 0.939 . S
H70 C86 0.942 . S
H71 C88 0.940 . S
H72 C89 0.939 . S
H73 C91 0.941 . S
H74 C95 0.939 . S
O75 P64 1.490 . S
H76 C92 0.939 . S
H77 C94 0.940 . S
C78 P64 1.812 . S
C78 C79 1.389 . S
C78 C83 1.391 . S
C79 H65 0.941 . S
C79 C78 1.389 . S
C79 C80 1.397 . S
C80 H66 0.939 . S
C80 C79 1.397 . S
C80 C81 1.378 . S
C81 C80 1.378 . S
C81 C82 1.378 . S
C82 H67 0.940 . S
C82 C81 1.378 . S
C82 C83 1.396 . S
C83 H68 0.940 . S
C83 C78 1.391 . S
C83 C82 1.396 . S
C84 P64 1.803 . S
C84 C85 1.378 . S
C84 C89 1.400 . S
C85 H69 0.939 . S
C85 C84 1.378 . S
C85 C86 1.361 . S
C86 H70 0.942 . S
C86 C85 1.361 . S
C86 C87 1.369 . S
C87 C86 1.369 . S
C87 C88 1.404 . S
C88 H71 0.940 . S
C88 C87 1.404 . S
C88 C89 1.389 . S
C89 H72 0.939 . S
C89 C84 1.400 . S
C89 C88 1.389 . S
C90 P64 1.819 . S
C90 C91 1.391 . S
C90 C95 1.391 . S
C91 H73 0.941 . S
C91 C90 1.391 . S
C91 C92 1.396 . S
C92 H76 0.939 . S
C92 C91 1.396 . S
C92 C93 1.397 . S
C93 C92 1.397 . S
C93 C94 1.385 . S
C94 H77 0.940 . S
C94 C93 1.385 . S
C94 C95 1.388 . S
C95 H74 0.939 . S
C95 C90 1.391 . S
C95 C94 1.388 . S
P96 O107 1.490 . S
P96 C110 1.812 . S
P96 C116 1.803 . S
P96 C122 1.819 . S
H97 C111 0.941 . S
H98 C112 0.939 . S
H99 C114 0.940 . S
H100 C115 0.940 . S
H101 C117 0.939 . S
H102 C118 0.942 . S
H103 C120 0.940 . S
H104 C121 0.939 . S
H105 C123 0.941 . S
H106 C127 0.939 . S
O107 P96 1.490 . S
H108 C124 0.939 . S
H109 C126 0.940 . S
C110 P96 1.812 . S
C110 C111 1.389 . S
C110 C115 1.391 . S
C111 H97 0.941 . S
C111 C110 1.389 . S
C111 C112 1.397 . S
C112 H98 0.939 . S
C112 C111 1.397 . S
C112 C113 1.378 . S
C113 C112 1.378 . S
C113 C114 1.378 . S
C114 H99 0.940 . S
C114 C113 1.378 . S
C114 C115 1.396 . S
C115 H100 0.940 . S
C115 C110 1.391 . S
C115 C114 1.396 . S
C116 P96 1.803 . S
C116 C117 1.378 . S
C116 C121 1.400 . S
C117 H101 0.939 . S
C117 C116 1.378 . S
C117 C118 1.361 . S
C118 H102 0.942 . S
C118 C117 1.361 . S
C118 C119 1.369 . S
C119 C118 1.369 . S
C119 C120 1.404 . S
C120 H103 0.940 . S
C120 C119 1.404 . S
C120 C121 1.389 . S
C121 H104 0.939 . S
C121 C116 1.400 . S
C121 C120 1.389 . S
C122 P96 1.819 . S
C122 C123 1.391 . S
C122 C127 1.391 . S
C123 H105 0.941 . S
C123 C122 1.391 . S
C123 C124 1.396 . S
C124 H108 0.939 . S
C124 C123 1.396 . S
C124 C125 1.397 . S
C125 C124 1.397 . S
C125 C126 1.385 . S
C126 H109 0.940 . S
C126 C125 1.385 . S
C126 C127 1.388 . S
C127 H106 0.939 . S
C127 C122 1.391 . S
C127 C126 1.388 . S
P128 O139 1.490 . S
P128 C142 1.812 . S
P128 C148 1.803 . S
P128 C154 1.819 . S
H129 C143 0.941 . S
H130 C144 0.939 . S
H131 C146 0.940 . S
H132 C147 0.940 . S
H133 C149 0.939 1_455 S
H134 C150 0.942 . S
H135 C152 0.940 . S
H136 C153 0.939 . S
H137 C155 0.939 . S
H138 C159 0.939 . S
O139 P128 1.490 . S
H140 C156 0.939 . S
H141 C158 0.940 . S
C142 P128 1.812 . S
C142 C143 1.389 1_556 S
C142 C147 1.391 . S
C143 H129 0.941 . S
C143 C142 1.389 1_554 S
C143 C144 1.397 . S
C144 H130 0.939 . S
C144 C143 1.397 . S
C144 C145 1.378 1_554 S
C145 C144 1.378 1_556 S
C145 C146 1.378 . S
C146 H131 0.940 . S
C146 C145 1.378 . S
C146 C147 1.396 . S
C147 H132 0.940 . S
C147 C142 1.391 . S
C147 C146 1.396 . S
C148 P128 1.803 . S
C148 C149 1.378 . S
C148 C153 1.400 . S
C149 H133 0.939 1_655 S
C149 C148 1.378 . S
C149 C150 1.361 1_655 S
C150 H134 0.942 . S
C150 C149 1.361 1_455 S
C150 C151 1.369 1_455 S
C151 C150 1.369 1_655 S
C151 C152 1.404 . S
C152 H135 0.940 . S
C152 C151 1.404 . S
C152 C153 1.389 . S
C153 H136 0.939 . S
C153 C148 1.400 . S
C153 C152 1.389 . S
C154 P128 1.819 . S
C154 C155 1.395 1_565 S
C154 C159 1.391 . S
C155 H137 0.939 . S
C155 C154 1.395 1_545 S
C155 C156 1.396 . S
C156 H140 0.939 . S
C156 C155 1.396 . S
C156 C157 1.397 1_545 S
C157 C156 1.397 1_565 S
C157 C158 1.385 . S
C158 H141 0.940 . S
C158 C157 1.385 . S
C158 C159 1.388 . S
C159 H138 0.939 . S
C159 C154 1.391 . S
C159 C158 1.388 . S
P160 O171 1.490 . S
P160 C174 1.812 . S
P160 C180 1.803 . S
P160 C186 1.819 . S
H161 C175 0.941 . S
H162 C176 0.939 . S
H163 C178 0.940 . S
H164 C179 0.940 . S
H165 C181 0.939 . S
H166 C182 0.942 . S
H167 C184 0.940 . S
H168 C185 0.939 . S
H169 C187 0.941 . S
H170 C191 0.939 . S
O171 P160 1.490 . S
H172 C188 0.939 . S
H173 C190 0.940 . S
C174 P160 1.812 . S
C174 C175 1.389 . S
C174 C179 1.391 . S
C175 H161 0.941 . S
C175 C174 1.389 . S
C175 C176 1.397 . S
C176 H162 0.939 . S
C176 C175 1.397 . S
C176 C177 1.378 . S
C177 C176 1.378 . S
C177 C178 1.378 . S
C178 H163 0.940 . S
C178 C177 1.378 . S
C178 C179 1.396 . S
C179 H164 0.940 . S
C179 C174 1.391 . S
C179 C178 1.396 . S
C180 P160 1.803 . S
C180 C181 1.378 . S
C180 C185 1.400 . S
C181 H165 0.939 . S
C181 C180 1.378 . S
C181 C182 1.361 . S
C182 H166 0.942 . S
C182 C181 1.361 . S
C182 C183 1.369 . S
C183 C182 1.369 . S
C183 C184 1.404 . S
C184 H167 0.940 . S
C184 C183 1.404 . S
C184 C185 1.389 . S
C185 H168 0.939 . S
C185 C180 1.400 . S
C185 C184 1.389 . S
C186 P160 1.819 . S
C186 C187 1.391 . S
C186 C191 1.391 . S
C187 H169 0.941 . S
C187 C186 1.391 . S
C187 C188 1.396 . S
C188 H172 0.939 . S
C188 C187 1.396 . S
C188 C189 1.397 . S
C189 C188 1.397 . S
C189 C190 1.385 . S
C190 H173 0.940 . S
C190 C189 1.385 . S
C190 C191 1.388 . S
C191 H170 0.939 . S
C191 C186 1.391 . S
C191 C190 1.388 . S
P192 O203 1.490 . S
P192 C206 1.812 . S
P192 C212 1.803 . S
P192 C218 1.819 . S
H193 C207 0.941 . S
H194 C208 0.939 . S
H195 C210 0.940 . S
H196 C211 0.940 . S
H197 C213 0.939 . S
H198 C214 0.942 . S
H199 C216 0.940 . S
H200 C217 0.939 . S
H201 C219 0.941 . S
H202 C223 0.939 . S
O203 P192 1.490 . S
H204 C220 0.939 . S
H205 C222 0.940 . S
C206 P192 1.812 . S
C206 C207 1.389 . S
C206 C211 1.391 . S
C207 H193 0.941 . S
C207 C206 1.389 . S
C207 C208 1.397 . S
C208 H194 0.939 . S
C208 C207 1.397 . S
C208 C209 1.378 . S
C209 C208 1.378 . S
C209 C210 1.378 . S
C210 H195 0.940 . S
C210 C209 1.378 . S
C210 C211 1.396 . S
C211 H196 0.940 . S
C211 C206 1.391 . S
C211 C210 1.396 . S
C212 P192 1.803 . S
C212 C213 1.378 . S
C212 C217 1.400 . S
C213 H197 0.939 . S
C213 C212 1.378 . S
C213 C214 1.361 . S
C214 H198 0.942 . S
C214 C213 1.361 . S
C214 C215 1.369 . S
C215 C214 1.369 . S
C215 C216 1.404 . S
C216 H199 0.940 . S
C216 C215 1.404 . S
C216 C217 1.389 . S
C217 H200 0.939 . S
C217 C212 1.400 . S
C217 C216 1.389 . S
C218 P192 1.819 . S
C218 C219 1.391 . S
C218 C223 1.391 . S
C219 H201 0.941 . S
C219 C218 1.391 . S
C219 C220 1.396 . S
C220 H204 0.939 . S
C220 C219 1.396 . S
C220 C221 1.397 . S
C221 C220 1.397 . S
C221 C222 1.385 . S
C222 H205 0.940 . S
C222 C221 1.385 . S
C222 C223 1.388 . S
C223 H202 0.939 . S
C223 C218 1.391 . S
C223 C222 1.388 . S
P224 O235 1.490 . S
P224 C238 1.812 . S
P224 C244 1.803 . S
P224 C250 1.819 . S
H225 C239 0.941 . S
H226 C240 0.939 . S
H227 C242 0.940 . S
H228 C243 0.940 . S
H229 C245 0.939 . S
H230 C246 0.942 . S
H231 C248 0.940 . S
H232 C249 0.939 . S
H233 C251 0.941 . S
H234 C255 0.939 . S
O235 P224 1.490 . S
H236 C252 0.939 . S
H237 C254 0.940 . S
C238 P224 1.812 . S
C238 C239 1.389 . S
C238 C243 1.391 . S
C239 H225 0.941 . S
C239 C238 1.389 . S
C239 C240 1.397 . S
C240 H226 0.939 . S
C240 C239 1.397 . S
C240 C241 1.378 . S
C241 C240 1.378 . S
C241 C242 1.378 . S
C242 H227 0.940 . S
C242 C241 1.378 . S
C242 C243 1.396 . S
C243 H228 0.940 . S
C243 C238 1.391 . S
C243 C242 1.396 . S
C244 P224 1.803 . S
C244 C245 1.378 . S
C244 C249 1.400 . S
C245 H229 0.939 . S
C245 C244 1.378 . S
C245 C246 1.361 . S
C246 H230 0.942 . S
C246 C245 1.361 . S
C246 C247 1.369 . S
C247 C246 1.369 . S
C247 C248 1.404 . S
C248 H231 0.940 . S
C248 C247 1.404 . S
C248 C249 1.389 . S
C249 H232 0.939 . S
C249 C244 1.400 . S
C249 C248 1.389 . S
C250 P224 1.819 . S
C250 C251 1.391 . S
C250 C255 1.391 . S
C251 H233 0.941 . S
C251 C250 1.391 . S
C251 C252 1.396 . S
C252 H236 0.939 . S
C252 C251 1.396 . S
C252 C253 1.397 . S
C253 C252 1.397 . S
C253 C254 1.385 . S
C254 H237 0.940 . S
C254 C253 1.385 . S
C254 C255 1.388 . S
C255 H234 0.939 . S
C255 C250 1.391 . S
C255 C254 1.388 . S
Zn256 O262 1.920 . S
Zn256 O268 1.898 . S
Zn256 O271 1.905 . S
Zn257 O265 1.905 1_565 S
Zn257 O266 1.898 . S
Zn257 O274 1.920 . S
Zn258 O261 2.080 1_455 S
Zn258 O264 2.114 . S
Zn258 O267 2.120 1_445 S
Zn258 O269 2.120 . S
Zn258 O270 2.114 1_455 S
Zn258 O273 2.080 . S
C259 O264 1.166 . S
C259 O265 1.182 . S
C260 O266 1.167 1_655 S
C260 O267 1.299 . S
O261 Zn258 2.080 1_655 S
O261 C275 1.305 . S
O262 Zn256 1.920 . S
O262 C275 1.234 . S
C263 O268 1.167 1_455 S
C263 O269 1.299 . S
O264 Zn258 2.114 . S
O264 C259 1.166 . S
O265 Zn257 1.905 1_545 S
O265 C259 1.182 . S
O266 Zn257 1.898 . S
O266 C260 1.167 1_455 S
O267 Zn258 2.120 1_665 S
O267 C260 1.299 . S
O268 Zn256 1.898 . S
O268 C263 1.167 1_655 S
O269 Zn258 2.120 . S
O269 C263 1.299 . S
O270 Zn258 2.114 1_655 S
O270 C272 1.166 . S
O271 Zn256 1.905 . S
O271 C272 1.182 . S
C272 O270 1.166 . S
C272 O271 1.182 . S
O273 Zn258 2.080 . S
O273 C276 1.305 1_545 S
O274 Zn257 1.920 . S
O274 C276 1.234 . S
C275 O261 1.305 . S
C275 O262 1.234 . S
C276 O273 1.305 1_565 S
C276 O274 1.234 . S
Zn277 O283 1.920 1_556 S
Zn277 O289 1.898 . S
Zn277 O292 1.905 . S
Zn278 O286 1.905 . S
Zn278 O287 1.898 . S
Zn278 O295 1.920 . S
Zn279 O282 2.080 . S
Zn279 O285 2.114 1_545 S
Zn279 O288 2.120 1_545 S
Zn279 O290 2.120 . S
Zn279 O291 2.115 1_554 S
Zn279 O294 2.080 . S
C280 O285 1.166 . S
C280 O286 1.182 . S
C281 O287 1.167 . S
C281 O288 1.299 . S
O282 Zn279 2.080 . S
O282 C296 1.305 . S
O283 Zn277 1.920 1_554 S
O283 C296 1.234 . S
C284 O289 1.167 . S
C284 O290 1.299 1_556 S
O285 Zn279 2.114 1_565 S
O285 C280 1.166 . S
O286 Zn278 1.905 . S
O286 C280 1.182 . S
O287 Zn278 1.898 . S
O287 C281 1.167 . S
O288 Zn279 2.120 1_565 S
O288 C281 1.299 . S
O289 Zn277 1.898 . S
O289 C284 1.167 . S
O290 Zn279 2.120 . S
O290 C284 1.299 1_554 S
O291 Zn279 2.115 1_556 S
O291 C293 1.166 . S
O292 Zn277 1.905 . S
O292 C293 1.199 . S
C293 O291 1.166 . S
C293 O292 1.199 . S
O294 Zn279 2.080 . S
O294 C297 1.305 . S
O295 Zn278 1.920 . S
O295 C297 1.234 1_565 S
C296 O282 1.305 . S
C296 O283 1.234 . S
C297 O294 1.305 . S
C297 O295 1.234 1_545 S
Zn298 O304 1.920 . S
Zn298 O310 1.898 . S
Zn298 O313 1.905 . S
Zn299 O307 1.905 . S
Zn299 O308 1.898 . S
Zn299 O316 1.920 . S
Zn300 O303 2.080 . S
Zn300 O306 2.114 . S
Zn300 O309 2.120 . S
Zn300 O311 2.120 . S
Zn300 O312 2.114 . S
Zn300 O315 2.080 . S
C301 O306 1.166 . S
C301 O307 1.182 . S
C302 O308 1.167 . S
C302 O309 1.299 . S
O303 Zn300 2.080 . S
O303 C317 1.305 . S
O304 Zn298 1.920 . S
O304 C317 1.234 . S
C305 O310 1.167 . S
C305 O311 1.299 . S
O306 Zn300 2.114 . S
O306 C301 1.166 . S
O307 Zn299 1.905 . S
O307 C301 1.182 . S
O308 Zn299 1.898 . S
O308 C302 1.167 . S
O309 Zn300 2.120 . S
O309 C302 1.299 . S
O310 Zn298 1.898 . S
O310 C305 1.167 . S
O311 Zn300 2.120 . S
O311 C305 1.299 . S
O312 Zn300 2.114 . S
O312 C314 1.166 . S
O313 Zn298 1.905 . S
O313 C314 1.182 . S
C314 O312 1.166 . S
C314 O313 1.182 . S
O315 Zn300 2.080 . S
O315 C318 1.305 . S
O316 Zn299 1.920 . S
O316 C318 1.234 . S
C317 O303 1.305 . S
C317 O304 1.234 . S
C318 O315 1.305 . S
C318 O316 1.234 . S
Zn319 O325 1.920 . S
Zn319 O331 1.898 . S
Zn319 O334 1.905 . S
Zn320 O328 1.905 1_655 S
Zn320 O329 1.898 . S
Zn320 O337 1.920 . S
Zn321 O324 2.080 1_554 S
Zn321 O327 2.114 . S
Zn321 O330 2.120 1_454 S
Zn321 O332 2.120 . S
Zn321 O333 2.114 1_554 S
Zn321 O336 2.080 . S
C322 O327 1.166 . S
C322 O328 1.182 . S
C323 O329 1.167 1_556 S
C323 O330 1.299 . S
O324 Zn321 2.080 1_556 S
O324 C338 1.305 . S
O325 Zn319 1.920 . S
O325 C338 1.234 . S
C326 O331 1.167 1_554 S
C326 O332 1.299 . S
O327 Zn321 2.114 . S
O327 C322 1.166 . S
O328 Zn320 1.905 1_455 S
O328 C322 1.182 . S
O329 Zn320 1.898 . S
O329 C323 1.167 1_554 S
O330 Zn321 2.120 1_656 S
O330 C323 1.299 . S
O331 Zn319 1.898 . S
O331 C326 1.167 1_556 S
O332 Zn321 2.120 . S
O332 C326 1.299 . S
O333 Zn321 2.114 1_556 S
O333 C335 1.166 . S
O334 Zn319 1.905 . S
O334 C335 1.182 . S
C335 O333 1.166 . S
C335 O334 1.182 . S
O336 Zn321 2.080 . S
O336 C339 1.305 1_455 S
O337 Zn320 1.920 . S
O337 C339 1.234 . S
C338 O324 1.305 . S
C338 O325 1.234 . S
C339 O336 1.305 1_655 S
C339 O337 1.234 . S
H340 C352 0.930 . S
H341 C354 0.930 . S
H342 C355 0.930 . S
H343 C359 0.959 . S
H344 C359 0.959 . S
H345 C359 0.961 . S
H346 C360 0.960 . S
H347 C360 0.961 . S
H348 C360 0.959 . S
H349 C363 0.929 . S
H350 C364 0.931 . S
H351 C366 0.930 . S
C352 H340 0.930 . S
C352 C353 1.399 . S
C352 C357 1.399 . S
C353 C352 1.399 . S
C353 C354 1.376 . S
C354 H341 0.930 . S
C354 C353 1.376 . S
C354 C355 1.388 . S
C355 H342 0.930 . S
C355 C354 1.388 . S
C355 C356 1.390 . S
C356 C355 1.390 . S
C356 C357 1.394 . S
C356 C362 1.465 . S
C357 C352 1.399 . S
C357 C356 1.394 . S
C357 C358 1.516 . S
C358 C357 1.516 . S
C358 C359 1.502 . S
C358 C360 1.561 . S
C358 C361 1.526 . S
C359 H343 0.959 . S
C359 H344 0.959 . S
C359 H345 0.961 . S
C359 C358 1.502 . S
C360 H346 0.960 . S
C360 H347 0.961 . S
C360 H348 0.959 . S
C360 C358 1.561 . S
C361 C358 1.526 . S
C361 C362 1.396 . S
C361 C366 1.390 . S
C362 C356 1.465 . S
C362 C361 1.396 . S
C362 C363 1.399 . S
C363 H349 0.929 . S
C363 C362 1.399 . S
C363 C364 1.385 . S
C364 H350 0.931 . S
C364 C363 1.385 . S
C364 C365 1.389 . S
C365 C364 1.389 . S
C365 C366 1.387 . S
C366 H351 0.930 . S
C366 C361 1.390 . S
C366 C365 1.387 . S
H367 C379 0.930 . S
H368 C381 0.930 . S
H369 C382 0.930 . S
H370 C386 0.959 . S
H371 C386 0.959 . S
H372 C386 0.961 . S
H373 C387 0.960 . S
H374 C387 0.961 . S
H375 C387 0.959 . S
H376 C390 0.929 1_545 S
H377 C391 0.931 . S
H378 C393 0.930 . S
C379 H367 0.930 . S
C379 C380 1.399 . S
C379 C384 1.399 . S
C380 C379 1.399 . S
C380 C381 1.376 . S
C381 H368 0.930 . S
C381 C380 1.376 . S
C381 C382 1.388 . S
C382 H369 0.930 . S
C382 C381 1.388 . S
C382 C383 1.390 . S
C383 C382 1.390 . S
C383 C384 1.394 . S
C383 C389 1.465 . S
C384 C379 1.399 . S
C384 C383 1.394 . S
C384 C385 1.516 . S
C385 C384 1.516 . S
C385 C386 1.502 . S
C385 C387 1.561 . S
C385 C388 1.526 . S
C386 H370 0.959 . S
C386 H371 0.959 . S
C386 H372 0.961 . S
C386 C385 1.502 . S
C387 H373 0.960 . S
C387 H374 0.961 . S
C387 H375 0.959 . S
C387 C385 1.561 . S
C388 C385 1.526 . S
C388 C389 1.396 . S
C388 C393 1.390 . S
C389 C383 1.465 . S
C389 C388 1.396 . S
C389 C390 1.399 . S
C390 H376 0.929 1_565 S
C390 C389 1.399 . S
C390 C391 1.385 1_565 S
C391 H377 0.931 . S
C391 C390 1.385 1_545 S
C391 C392 1.389 1_545 S
C392 C391 1.389 1_565 S
C392 C393 1.387 . S
C393 H378 0.930 . S
C393 C388 1.390 . S
C393 C392 1.387 . S
H394 C406 0.930 . S
H395 C408 0.930 . S
H396 C409 0.930 . S
H397 C413 0.959 . S
H398 C413 0.959 . S
H399 C413 0.961 . S
H400 C414 0.960 . S
H401 C414 0.961 . S
H402 C414 0.959 . S
H403 C417 0.929 . S
H404 C418 0.931 . S
H405 C420 0.930 . S
C406 H394 0.930 . S
C406 C407 1.399 . S
C406 C411 1.399 . S
C407 C406 1.399 . S
C407 C408 1.376 . S
C408 H395 0.930 . S
C408 C407 1.376 . S
C408 C409 1.388 . S
C409 H396 0.930 . S
C409 C408 1.388 . S
C409 C410 1.390 . S
C410 C409 1.390 . S
C410 C411 1.394 . S
C410 C416 1.465 . S
C411 C406 1.399 . S
C411 C410 1.394 . S
C411 C412 1.516 . S
C412 C411 1.516 . S
C412 C413 1.502 . S
C412 C414 1.561 . S
C412 C415 1.526 . S
C413 H397 0.959 . S
C413 H398 0.959 . S
C413 H399 0.961 . S
C413 C412 1.502 . S
C414 H400 0.960 . S
C414 H401 0.961 . S
C414 H402 0.959 . S
C414 C412 1.561 . S
C415 C412 1.526 . S
C415 C416 1.396 . S
C415 C420 1.390 . S
C416 C410 1.465 . S
C416 C415 1.396 . S
C416 C417 1.399 . S
C417 H403 0.929 . S
C417 C416 1.399 . S
C417 C418 1.385 . S
C418 H404 0.931 . S
C418 C417 1.385 . S
C418 C419 1.389 . S
C419 C418 1.389 . S
C419 C420 1.387 . S
C420 H405 0.930 . S
C420 C415 1.390 . S
C420 C419 1.387 . S
H421 C433 0.930 . S
H422 C435 0.930 . S
H423 C436 0.930 . S
H424 C440 0.959 . S
H425 C440 0.959 . S
H426 C440 0.961 . S
H427 C441 0.960 . S
H428 C441 0.961 . S
H429 C441 0.959 . S
H430 C444 0.929 . S
H431 C445 0.931 . S
H432 C447 0.930 . S
C433 H421 0.930 . S
C433 C434 1.399 . S
C433 C438 1.399 . S
C434 C433 1.399 . S
C434 C435 1.376 . S
C435 H422 0.930 . S
C435 C434 1.376 . S
C435 C436 1.388 . S
C436 H423 0.930 . S
C436 C435 1.388 . S
C436 C437 1.390 . S
C437 C436 1.390 . S
C437 C438 1.394 . S
C437 C443 1.465 . S
C438 C433 1.399 . S
C438 C437 1.394 . S
C438 C439 1.516 . S
C439 C438 1.516 . S
C439 C440 1.502 . S
C439 C441 1.561 . S
C439 C442 1.526 . S
C440 H424 0.959 . S
C440 H425 0.959 . S
C440 H426 0.961 . S
C440 C439 1.502 . S
C441 H427 0.960 . S
C441 H428 0.961 . S
C441 H429 0.959 . S
C441 C439 1.561 . S
C442 C439 1.526 . S
C442 C443 1.396 . S
C442 C447 1.390 . S
C443 C437 1.465 . S
C443 C442 1.396 . S
C443 C444 1.399 . S
C444 H430 0.929 . S
C444 C443 1.399 . S
C444 C445 1.385 . S
C445 H431 0.931 . S
C445 C444 1.385 . S
C445 C446 1.389 . S
C446 C445 1.389 . S
C446 C447 1.387 . S
C447 H432 0.930 . S
C447 C442 1.390 . S
C447 C446 1.387 . S
H448 C460 0.930 . S
H449 C462 0.930 . S
H450 C463 0.930 . S
H451 C467 0.959 . S
H452 C467 0.959 . S
H453 C467 0.961 . S
H454 C468 0.960 . S
H455 C468 0.961 . S
H456 C468 0.959 . S
H457 C471 0.929 . S
H458 C472 0.931 . S
H459 C474 0.930 . S
C460 H448 0.930 . S
C460 C461 1.399 . S
C460 C465 1.399 . S
C461 C460 1.399 . S
C461 C462 1.376 . S
C462 H449 0.930 . S
C462 C461 1.376 . S
C462 C463 1.388 . S
C463 H450 0.930 . S
C463 C462 1.388 . S
C463 C464 1.390 . S
C464 C463 1.390 . S
C464 C465 1.394 . S
C464 C470 1.465 . S
C465 C460 1.399 . S
C465 C464 1.394 . S
C465 C466 1.516 . S
C466 C465 1.516 . S
C466 C467 1.502 . S
C466 C468 1.561 . S
C466 C469 1.526 . S
C467 H451 0.959 . S
C467 H452 0.959 . S
C467 H453 0.961 . S
C467 C466 1.502 . S
C468 H454 0.960 . S
C468 H455 0.961 . S
C468 H456 0.959 . S
C468 C466 1.561 . S
C469 C466 1.526 . S
C469 C470 1.396 . S
C469 C474 1.390 . S
C470 C464 1.465 . S
C470 C469 1.396 . S
C470 C471 1.399 . S
C471 H457 0.929 . S
C471 C470 1.399 . S
C471 C472 1.385 . S
C472 H458 0.931 . S
C472 C471 1.385 . S
C472 C473 1.389 . S
C473 C472 1.389 . S
C473 C474 1.387 . S
C474 H459 0.930 . S
C474 C469 1.390 . S
C474 C473 1.387 . S
H475 C487 0.930 . S
H476 C489 0.930 . S
H477 C490 0.930 . S
H478 C494 0.959 . S
H479 C494 0.959 . S
H480 C494 0.961 . S
H481 C495 0.960 . S
H482 C495 0.961 . S
H483 C495 0.959 . S
H484 C498 0.929 . S
H485 C499 0.931 . S
H486 C501 0.930 . S
C487 H475 0.930 . S
C487 C488 1.399 . S
C487 C492 1.399 . S
C488 C487 1.399 . S
C488 C489 1.376 . S
C489 H476 0.930 . S
C489 C488 1.376 . S
C489 C490 1.388 . S
C490 H477 0.930 . S
C490 C489 1.388 . S
C490 C491 1.390 . S
C491 C490 1.390 . S
C491 C492 1.394 . S
C491 C497 1.465 . S
C492 C487 1.399 . S
C492 C491 1.394 . S
C492 C493 1.516 . S
C493 C492 1.516 . S
C493 C494 1.502 . S
C493 C495 1.561 . S
C493 C496 1.526 . S
C494 H478 0.959 . S
C494 H479 0.959 . S
C494 H480 0.961 . S
C494 C493 1.502 . S
C495 H481 0.960 . S
C495 H482 0.961 . S
C495 H483 0.959 . S
C495 C493 1.561 . S
C496 C493 1.526 . S
C496 C497 1.396 . S
C496 C501 1.390 . S
C497 C491 1.465 . S
C497 C496 1.396 . S
C497 C498 1.399 . S
C498 H484 0.929 . S
C498 C497 1.399 . S
C498 C499 1.385 . S
C499 H485 0.931 . S
C499 C498 1.385 . S
C499 C500 1.389 . S
C500 C499 1.389 . S
C500 C501 1.387 . S
C501 H486 0.930 . S
C501 C496 1.390 . S
C501 C500 1.387 . S
H502 C514 0.930 . S
H503 C516 0.930 . S
H504 C517 0.930 . S
H505 C521 0.959 . S
H506 C521 0.959 1_554 S
H507 C521 0.961 . S
H508 C522 0.960 . S
H509 C522 0.961 . S
H510 C522 0.959 . S
H511 C525 0.929 . S
H512 C526 0.931 . S
H513 C528 0.930 . S
C514 H502 0.930 . S
C514 C515 1.399 . S
C514 C519 1.399 . S
C515 C514 1.399 . S
C515 C516 1.376 . S
C516 H503 0.930 . S
C516 C515 1.376 . S
C516 C517 1.388 . S
C517 H504 0.930 . S
C517 C516 1.388 . S
C517 C518 1.390 . S
C518 C517 1.390 . S
C518 C519 1.394 . S
C518 C524 1.465 . S
C519 C514 1.399 . S
C519 C518 1.394 . S
C519 C520 1.516 . S
C520 C519 1.516 . S
C520 C521 1.502 . S
C520 C522 1.561 . S
C520 C523 1.526 . S
C521 H505 0.959 . S
C521 H506 0.959 1_556 S
C521 H507 0.961 . S
C521 C520 1.502 . S
C522 H508 0.960 . S
C522 H509 0.961 . S
C522 H510 0.959 . S
C522 C520 1.561 . S
C523 C520 1.526 . S
C523 C524 1.396 . S
C523 C528 1.390 . S
C524 C518 1.465 . S
C524 C523 1.396 . S
C524 C525 1.399 . S
C525 H511 0.929 . S
C525 C524 1.399 . S
C525 C526 1.385 . S
C526 H512 0.931 . S
C526 C525 1.385 . S
C526 C527 1.389 . S
C527 C526 1.389 . S
C527 C528 1.387 . S
C528 H513 0.930 . S
C528 C523 1.390 . S
C528 C527 1.387 . S
H529 C541 0.930 . S
H530 C543 0.930 . S
H531 C544 0.930 . S
H532 C548 0.959 . S
H533 C548 0.959 . S
H534 C548 0.961 . S
H535 C549 0.960 . S
H536 C549 0.961 . S
H537 C549 0.959 . S
H538 C552 0.929 . S
H539 C553 0.931 . S
H540 C555 0.930 . S
C541 H529 0.930 . S
C541 C542 1.399 . S
C541 C546 1.399 . S
C542 C541 1.399 . S
C542 C543 1.376 . S
C543 H530 0.930 . S
C543 C542 1.376 . S
C543 C544 1.388 . S
C544 H531 0.930 . S
C544 C543 1.388 . S
C544 C545 1.390 . S
C545 C544 1.390 . S
C545 C546 1.394 . S
C545 C551 1.465 . S
C546 C541 1.399 . S
C546 C545 1.394 . S
C546 C547 1.516 . S
C547 C546 1.516 . S
C547 C548 1.502 . S
C547 C549 1.561 . S
C547 C550 1.526 . S
C548 H532 0.959 . S
C548 H533 0.959 . S
C548 H534 0.961 . S
C548 C547 1.502 . S
C549 H535 0.960 . S
C549 H536 0.961 . S
C549 H537 0.959 . S
C549 C547 1.561 . S
C550 C547 1.526 . S
C550 C551 1.396 . S
C550 C555 1.390 . S
C551 C545 1.465 . S
C551 C550 1.396 . S
C551 C552 1.399 . S
C552 H538 0.929 . S
C552 C551 1.399 . S
C552 C553 1.385 . S
C553 H539 0.931 . S
C553 C552 1.385 . S
C553 C554 1.389 . S
C554 C553 1.389 . S
C554 C555 1.387 . S
C555 H540 0.930 . S
C555 C550 1.390 . S
C555 C554 1.387 . S
H556 C568 0.930 . S
H557 C570 0.930 . S
H558 C571 0.930 . S
H559 C575 0.959 . S
H560 C575 0.959 . S
H561 C575 0.961 . S
H562 C576 0.960 . S
H563 C576 0.961 . S
H564 C576 0.959 . S
H565 C579 0.929 . S
H566 C580 0.931 . S
H567 C582 0.930 . S
C568 H556 0.930 . S
C568 C569 1.399 . S
C568 C573 1.399 . S
C569 C568 1.399 . S
C569 C570 1.376 . S
C570 H557 0.930 . S
C570 C569 1.376 . S
C570 C571 1.388 . S
C571 H558 0.930 . S
C571 C570 1.388 . S
C571 C572 1.390 . S
C572 C571 1.390 . S
C572 C573 1.394 . S
C572 C578 1.465 . S
C573 C568 1.399 . S
C573 C572 1.394 . S
C573 C574 1.516 . S
C574 C573 1.516 . S
C574 C575 1.502 . S
C574 C576 1.561 . S
C574 C577 1.526 . S
C575 H559 0.959 . S
C575 H560 0.959 . S
C575 H561 0.961 . S
C575 C574 1.502 . S
C576 H562 0.960 . S
C576 H563 0.961 . S
C576 H564 0.959 . S
C576 C574 1.561 . S
C577 C574 1.526 . S
C577 C578 1.396 . S
C577 C582 1.390 . S
C578 C572 1.465 . S
C578 C577 1.396 . S
C578 C579 1.399 . S
C579 H565 0.929 . S
C579 C578 1.399 . S
C579 C580 1.385 . S
C580 H566 0.931 . S
C580 C579 1.385 . S
C580 C581 1.389 . S
C581 C580 1.389 . S
C581 C582 1.387 . S
C582 H567 0.930 . S
C582 C577 1.390 . S
C582 C581 1.387 . S
H583 C595 0.930 . S
H584 C597 0.930 . S
H585 C598 0.930 . S
H586 C602 0.959 . S
H587 C602 0.959 . S
H588 C602 0.961 . S
H589 C603 0.960 . S
H590 C603 0.961 . S
H591 C603 0.959 . S
H592 C606 0.929 1_554 S
H593 C607 0.931 . S
H594 C609 0.930 . S
C595 H583 0.930 . S
C595 C596 1.399 . S
C595 C600 1.399 . S
C596 C595 1.399 . S
C596 C597 1.376 . S
C597 H584 0.930 . S
C597 C596 1.376 . S
C597 C598 1.388 . S
C598 H585 0.930 . S
C598 C597 1.388 . S
C598 C599 1.390 . S
C599 C598 1.390 . S
C599 C600 1.394 . S
C599 C605 1.465 . S
C600 C595 1.399 . S
C600 C599 1.394 . S
C600 C601 1.516 . S
C601 C600 1.516 . S
C601 C602 1.502 . S
C601 C603 1.561 . S
C601 C604 1.526 . S
C602 H586 0.959 . S
C602 H587 0.959 . S
C602 H588 0.961 . S
C602 C601 1.502 . S
C603 H589 0.960 . S
C603 H590 0.961 . S
C603 H591 0.959 . S
C603 C601 1.561 . S
C604 C601 1.526 . S
C604 C605 1.396 . S
C604 C609 1.390 . S
C605 C599 1.465 . S
C605 C604 1.396 . S
C605 C606 1.399 . S
C606 H592 0.929 1_556 S
C606 C605 1.399 . S
C606 C607 1.385 1_556 S
C607 H593 0.931 . S
C607 C606 1.385 1_554 S
C607 C608 1.389 1_554 S
C608 C607 1.389 1_556 S
C608 C609 1.387 . S
C609 H594 0.930 . S
C609 C604 1.390 . S
C609 C608 1.387 . S
H610 C622 0.930 . S
H611 C624 0.930 . S
H612 C625 0.930 . S
H613 C629 0.959 . S
H614 C629 0.959 1_455 S
H615 C629 0.961 . S
H616 C630 0.960 . S
H617 C630 0.961 1_455 S
H618 C630 0.959 . S
H619 C633 0.929 . S
H620 C634 0.931 . S
H621 C636 0.930 . S
C622 H610 0.930 . S
C622 C623 1.399 . S
C622 C627 1.399 . S
C623 C622 1.399 . S
C623 C624 1.376 . S
C624 H611 0.930 . S
C624 C623 1.376 . S
C624 C625 1.388 . S
C625 H612 0.930 . S
C625 C624 1.388 . S
C625 C626 1.390 . S
C626 C625 1.390 . S
C626 C627 1.394 . S
C626 C632 1.465 . S
C627 C622 1.399 . S
C627 C626 1.394 . S
C627 C628 1.516 . S
C628 C627 1.516 . S
C628 C629 1.502 . S
C628 C630 1.561 . S
C628 C631 1.526 . S
C629 H613 0.959 . S
C629 H614 0.959 1_655 S
C629 H615 0.961 . S
C629 C628 1.502 . S
C630 H616 0.960 . S
C630 H617 0.961 1_655 S
C630 H618 0.959 . S
C630 C628 1.561 . S
C631 C628 1.526 . S
C631 C632 1.396 . S
C631 C636 1.390 . S
C632 C626 1.465 . S
C632 C631 1.396 . S
C632 C633 1.399 . S
C633 H619 0.929 . S
C633 C632 1.399 . S
C633 C634 1.385 . S
C634 H620 0.931 . S
C634 C633 1.385 . S
C634 C635 1.389 . S
C635 C634 1.389 . S
C635 C636 1.387 . S
C636 H621 0.930 . S
C636 C631 1.390 . S
C636 C635 1.387 . S
H637 C649 0.930 . S
H638 C651 0.930 . S
H639 C652 0.930 . S
H640 C656 0.959 . S
H641 C656 0.959 . S
H642 C656 0.961 . S
H643 C657 0.960 . S
H644 C657 0.961 . S
H645 C657 0.959 . S
H646 C660 0.929 . S
H647 C661 0.931 . S
H648 C663 0.930 . S
C649 H637 0.930 . S
C649 C650 1.399 . S
C649 C654 1.399 . S
C650 C649 1.399 . S
C650 C651 1.376 . S
C651 H638 0.930 . S
C651 C650 1.376 . S
C651 C652 1.388 . S
C652 H639 0.930 . S
C652 C651 1.388 . S
C652 C653 1.390 . S
C653 C652 1.390 . S
C653 C654 1.394 . S
C653 C659 1.465 . S
C654 C649 1.399 . S
C654 C653 1.394 . S
C654 C655 1.516 . S
C655 C654 1.516 . S
C655 C656 1.502 . S
C655 C657 1.561 . S
C655 C658 1.526 . S
C656 H640 0.959 . S
C656 H641 0.959 . S
C656 H642 0.961 . S
C656 C655 1.502 . S
C657 H643 0.960 . S
C657 H644 0.961 . S
C657 H645 0.959 . S
C657 C655 1.561 . S
C658 C655 1.526 . S
C658 C659 1.396 . S
C658 C663 1.390 . S
C659 C653 1.465 . S
C659 C658 1.396 . S
C659 C660 1.399 . S
C660 H646 0.929 . S
C660 C659 1.399 . S
C660 C661 1.385 . S
C661 H647 0.931 . S
C661 C660 1.385 . S
C661 C662 1.389 . S
C662 C661 1.389 . S
C662 C663 1.387 . S
C663 H648 0.930 . S
C663 C658 1.390 . S
C663 C662 1.387 . S
H664 C676 0.930 . S
H665 C678 0.930 . S
H666 C679 0.930 1_455 S
H667 C683 0.959 . S
H668 C683 0.959 . S
H669 C683 0.961 . S
H670 C684 0.960 . S
H671 C684 0.961 . S
H672 C684 0.959 1_455 S
H673 C687 0.929 . S
H674 C688 0.935 . S
H675 C690 0.930 . S
C676 H664 0.930 . S
C676 C677 1.399 1_545 S
C676 C681 1.399 . S
C677 C676 1.399 1_565 S
C677 C678 1.376 . S
C678 H665 0.930 . S
C678 C677 1.376 . S
C678 C679 1.388 . S
C679 H666 0.930 1_655 S
C679 C678 1.388 . S
C679 C680 1.390 . S
C680 C679 1.390 . S
C680 C681 1.394 1_565 S
C680 C686 1.465 . S
C681 C676 1.399 . S
C681 C680 1.394 1_545 S
C681 C682 1.516 . S
C682 C681 1.516 . S
C682 C683 1.502 . S
C682 C684 1.561 . S
C682 C685 1.526 . S
C683 H667 0.959 . S
C683 H668 0.959 . S
C683 H669 0.961 . S
C683 C682 1.502 . S
C684 H670 0.960 . S
C684 H671 0.961 . S
C684 H672 0.959 1_655 S
C684 C682 1.561 . S
C685 C682 1.526 . S
C685 C686 1.396 1_545 S
C685 C690 1.390 . S
C686 C680 1.465 . S
C686 C685 1.396 1_565 S
C686 C687 1.399 1_655 S
C687 H673 0.929 . S
C687 C686 1.399 1_455 S
C687 C688 1.386 . S
C688 H674 0.935 . S
C688 C687 1.386 . S
C688 C689 1.385 1_465 S
C689 C688 1.385 1_645 S
C689 C690 1.387 . S
C690 H675 0.930 . S
C690 C685 1.390 . S
C690 C689 1.387 . S
H691 C703 0.930 . S
H692 C705 0.930 . S
H693 C706 0.930 . S
H694 C710 0.959 . S
H695 C710 0.959 1_565 S
H696 C710 0.961 . S
H697 C711 0.960 . S
H698 C711 0.961 . S
H699 C711 0.959 . S
H700 C714 0.929 . S
H701 C715 0.931 . S
H702 C717 0.930 . S
C703 H691 0.930 . S
C703 C704 1.399 . S
C703 C708 1.399 . S
C704 C703 1.399 . S
C704 C705 1.376 . S
C705 H692 0.930 . S
C705 C704 1.376 . S
C705 C706 1.388 . S
C706 H693 0.930 . S
C706 C705 1.388 . S
C706 C707 1.390 . S
C707 C706 1.390 . S
C707 C708 1.394 . S
C707 C713 1.465 . S
C708 C703 1.399 . S
C708 C707 1.394 . S
C708 C709 1.516 . S
C709 C708 1.516 . S
C709 C710 1.502 . S
C709 C711 1.561 1_545 S
C709 C712 1.526 . S
C710 H694 0.959 . S
C710 H695 0.959 1_545 S
C710 H696 0.961 . S
C710 C709 1.502 . S
C711 H697 0.960 . S
C711 H698 0.961 . S
C711 H699 0.959 . S
C711 C709 1.561 1_565 S
C712 C709 1.526 . S
C712 C713 1.396 . S
C712 C717 1.390 . S
C713 C707 1.465 . S
C713 C712 1.396 . S
C713 C714 1.399 . S
C714 H700 0.929 . S
C714 C713 1.399 . S
C714 C715 1.385 . S
C715 H701 0.931 . S
C715 C714 1.385 . S
C715 C716 1.389 . S
C716 C715 1.389 . S
C716 C717 1.387 . S
C717 H702 0.930 . S
C717 C712 1.390 . S
C717 C716 1.387 . S
H718 C730 0.930 . S
H719 C732 0.930 . S
H720 C733 0.930 . S
H721 C737 0.959 . S
H722 C737 0.959 . S
H723 C737 0.961 . S
H724 C738 0.960 . S
H725 C738 0.961 . S
H726 C738 0.959 . S
H727 C741 0.929 . S
H728 C742 0.931 . S
H729 C744 0.930 . S
C730 H718 0.930 . S
C730 C731 1.399 . S
C730 C735 1.399 . S
C731 C730 1.399 . S
C731 C732 1.376 . S
C732 H719 0.930 . S
C732 C731 1.376 . S
C732 C733 1.388 . S
C733 H720 0.930 . S
C733 C732 1.388 . S
C733 C734 1.390 . S
C734 C733 1.390 . S
C734 C735 1.394 . S
C734 C740 1.465 . S
C735 C730 1.399 . S
C735 C734 1.394 . S
C735 C736 1.516 . S
C736 C735 1.516 . S
C736 C737 1.502 . S
C736 C738 1.561 . S
C736 C739 1.526 . S
C737 H721 0.959 . S
C737 H722 0.959 . S
C737 H723 0.961 . S
C737 C736 1.502 . S
C738 H724 0.960 . S
C738 H725 0.961 . S
C738 H726 0.959 . S
C738 C736 1.561 . S
C739 C736 1.526 . S
C739 C740 1.396 . S
C739 C744 1.390 . S
C740 C734 1.465 . S
C740 C739 1.396 . S
C740 C741 1.399 . S
C741 H727 0.929 . S
C741 C740 1.399 . S
C741 C742 1.385 . S
C742 H728 0.931 . S
C742 C741 1.385 . S
C742 C743 1.389 . S
C743 C742 1.389 . S
C743 C744 1.387 . S
C744 H729 0.930 . S
C744 C739 1.390 . S
C744 C743 1.387 . S
H745 C757 0.930 . S
H746 C759 0.930 . S
H747 C760 0.930 . S
H748 C764 0.959 . S
H749 C764 0.959 . S
H750 C764 0.961 . S
H751 C765 0.960 . S
H752 C765 0.961 . S
H753 C765 0.959 . S
H754 C768 0.929 . S
H755 C769 0.931 . S
H756 C771 0.930 . S
C757 H745 0.930 . S
C757 C758 1.399 . S
C757 C762 1.399 . S
C758 C757 1.399 . S
C758 C759 1.376 . S
C759 H746 0.930 . S
C759 C758 1.376 . S
C759 C760 1.388 . S
C760 H747 0.930 . S
C760 C759 1.388 . S
C760 C761 1.390 . S
C761 C760 1.390 . S
C761 C762 1.394 . S
C761 C767 1.465 . S
C762 C757 1.399 . S
C762 C761 1.394 . S
C762 C763 1.516 . S
C763 C762 1.516 . S
C763 C764 1.502 1_455 S
C763 C765 1.561 . S
C763 C766 1.526 . S
C764 H748 0.959 . S
C764 H749 0.959 . S
C764 H750 0.961 . S
C764 C763 1.502 1_655 S
C765 H751 0.960 . S
C765 H752 0.961 . S
C765 H753 0.959 . S
C765 C763 1.561 . S
C766 C763 1.526 . S
C766 C767 1.396 . S
C766 C771 1.390 . S
C767 C761 1.465 . S
C767 C766 1.396 . S
C767 C768 1.399 . S
C768 H754 0.929 . S
C768 C767 1.399 . S
C768 C769 1.385 . S
C769 H755 0.931 . S
C769 C768 1.385 . S
C769 C770 1.389 . S
C770 C769 1.389 . S
C770 C771 1.387 . S
C771 H756 0.930 . S
C771 C766 1.390 . S
C771 C770 1.387 . S
H772 C784 0.930 . S
H773 C786 0.926 1_545 S
H774 C787 0.930 . S
H775 C791 0.959 . S
H776 C791 0.959 . S
H777 C791 0.961 . S
H778 C792 0.960 . S
H779 C792 0.961 . S
H780 C792 0.959 . S
H781 C795 0.929 . S
H782 C796 0.931 . S
H783 C798 0.930 . S
C784 H772 0.930 . S
C784 C785 1.399 1_554 S
C784 C789 1.399 . S
C785 C784 1.399 1_556 S
C785 C786 1.376 . S
C786 H773 0.926 1_565 S
C786 C785 1.376 . S
C786 C787 1.388 1_565 S
C787 H774 0.930 . S
C787 C786 1.388 1_545 S
C787 C788 1.390 1_545 S
C788 C787 1.390 1_565 S
C788 C789 1.394 1_556 S
C788 C794 1.465 . S
C789 C784 1.399 . S
C789 C788 1.394 1_554 S
C789 C790 1.516 . S
C790 C789 1.516 . S
C790 C791 1.502 . S
C790 C792 1.561 1_565 S
C790 C793 1.526 . S
C791 H775 0.959 . S
C791 H776 0.959 . S
C791 H777 0.961 . S
C791 C790 1.502 . S
C792 H778 0.960 . S
C792 H779 0.961 . S
C792 H780 0.959 . S
C792 C790 1.561 1_545 S
C793 C790 1.526 . S
C793 C794 1.396 1_554 S
C793 C798 1.390 . S
C794 C788 1.465 . S
C794 C793 1.396 1_556 S
C794 C795 1.399 1_565 S
C795 H781 0.929 . S
C795 C794 1.399 1_545 S
C795 C796 1.385 . S
C796 H782 0.931 . S
C796 C795 1.385 . S
C796 C797 1.389 1_546 S
C797 C796 1.389 1_564 S
C797 C798 1.387 . S
C798 H783 0.930 . S
C798 C793 1.390 . S
C798 C797 1.387 . S
H799 C811 0.930 . S
H800 C813 0.930 . S
H801 C814 0.930 . S
H802 C818 0.959 . S
H803 C818 0.959 . S
H804 C818 0.961 . S
H805 C819 0.960 . S
H806 C819 0.961 . S
H807 C819 0.959 . S
H808 C822 0.929 . S
H809 C823 0.931 . S
H810 C825 0.930 . S
C811 H799 0.930 . S
C811 C812 1.399 . S
C811 C816 1.399 . S
C812 C811 1.399 . S
C812 C813 1.376 . S
C813 H800 0.930 . S
C813 C812 1.376 . S
C813 C814 1.388 . S
C814 H801 0.930 . S
C814 C813 1.388 . S
C814 C815 1.390 . S
C815 C814 1.390 . S
C815 C816 1.394 . S
C815 C821 1.465 . S
C816 C811 1.399 . S
C816 C815 1.394 . S
C816 C817 1.516 . S
C817 C816 1.516 . S
C817 C818 1.502 . S
C817 C819 1.561 . S
C817 C820 1.526 . S
C818 H802 0.959 . S
C818 H803 0.959 . S
C818 H804 0.961 . S
C818 C817 1.502 . S
C819 H805 0.960 . S
C819 H806 0.961 . S
C819 H807 0.959 . S
C819 C817 1.561 . S
C820 C817 1.526 . S
C820 C821 1.396 . S
C820 C825 1.390 . S
C821 C815 1.465 . S
C821 C820 1.396 . S
C821 C822 1.399 . S
C822 H808 0.929 . S
C822 C821 1.399 . S
C822 C823 1.385 . S
C823 H809 0.931 . S
C823 C822 1.385 . S
C823 C824 1.389 . S
C824 C823 1.389 . S
C824 C825 1.387 . S
C825 H810 0.930 . S
C825 C820 1.390 . S
C825 C824 1.387 . S
H826 C838 0.930 . S
H827 C840 0.930 . S
H828 C841 0.930 1_556 S
H829 C845 0.959 . S
H830 C845 0.959 . S
H831 C845 0.961 . S
H832 C846 0.960 . S
H833 C846 0.961 . S
H834 C846 0.959 . S
H835 C849 0.929 1_556 S
H836 C850 0.931 1_556 S
H837 C852 0.930 . S
C838 H826 0.930 . S
C838 C839 1.399 . S
C838 C843 1.399 . S
C839 C838 1.399 . S
C839 C840 1.376 . S
C840 H827 0.930 . S
C840 C839 1.376 . S
C840 C841 1.388 . S
C841 H828 0.930 1_554 S
C841 C840 1.388 . S
C841 C842 1.390 . S
C842 C841 1.390 . S
C842 C843 1.394 . S
C842 C848 1.465 . S
C843 C838 1.399 . S
C843 C842 1.394 . S
C843 C844 1.516 . S
C844 C843 1.516 . S
C844 C845 1.502 . S
C844 C846 1.561 . S
C844 C847 1.526 . S
C845 H829 0.959 . S
C845 H830 0.959 . S
C845 H831 0.961 . S
C845 C844 1.502 . S
C846 H832 0.960 . S
C846 H833 0.961 . S
C846 H834 0.959 . S
C846 C844 1.561 . S
C847 C844 1.526 . S
C847 C848 1.396 . S
C847 C852 1.390 . S
C848 C842 1.465 . S
C848 C847 1.396 . S
C848 C849 1.399 . S
C849 H835 0.929 1_554 S
C849 C848 1.399 . S
C849 C850 1.385 . S
C850 H836 0.931 1_554 S
C850 C849 1.385 . S
C850 C851 1.389 . S
C851 C850 1.389 . S
C851 C852 1.387 . S
C852 H837 0.930 . S
C852 C847 1.390 . S
C852 C851 1.387 . S
H853 C865 0.930 . S
H854 C867 0.930 . S
H855 C868 0.930 . S
H856 C872 0.959 . S
H857 C872 0.959 . S
H858 C872 0.961 . S
H859 C873 0.960 . S
H860 C873 0.961 . S
H861 C873 0.959 . S
H862 C876 0.929 . S
H863 C877 0.931 . S
H864 C879 0.930 . S
C865 H853 0.930 . S
C865 C866 1.399 . S
C865 C870 1.399 . S
C866 C865 1.399 . S
C866 C867 1.376 . S
C867 H854 0.930 . S
C867 C866 1.376 . S
C867 C868 1.388 . S
C868 H855 0.930 . S
C868 C867 1.388 . S
C868 C869 1.390 . S
C869 C868 1.390 . S
C869 C870 1.394 . S
C869 C875 1.465 . S
C870 C865 1.399 . S
C870 C869 1.394 . S
C870 C871 1.516 . S
C871 C870 1.516 . S
C871 C872 1.502 . S
C871 C873 1.561 . S
C871 C874 1.526 . S
C872 H856 0.959 . S
C872 H857 0.959 . S
C872 H858 0.961 . S
C872 C871 1.502 . S
C873 H859 0.960 . S
C873 H860 0.961 . S
C873 H861 0.959 . S
C873 C871 1.561 . S
C874 C871 1.526 . S
C874 C875 1.396 . S
C874 C879 1.390 . S
C875 C869 1.465 . S
C875 C874 1.396 . S
C875 C876 1.399 . S
C876 H862 0.929 . S
C876 C875 1.399 . S
C876 C877 1.385 . S
C877 H863 0.931 . S
C877 C876 1.385 . S
C877 C878 1.389 . S
C878 C877 1.389 . S
C878 C879 1.387 . S
C879 H864 0.930 . S
C879 C874 1.390 . S
C879 C878 1.387 . S
H880 C892 0.930 . S
H881 C894 0.930 . S
H882 C895 0.930 . S
H883 C899 0.959 . S
H884 C899 0.959 . S
H885 C899 0.961 . S
H886 C900 0.960 . S
H887 C900 0.961 . S
H888 C900 0.959 1_655 S
H889 C903 0.929 . S
H890 C904 0.931 . S
H891 C906 0.930 . S
C892 H880 0.930 . S
C892 C893 1.399 1_454 S
C892 C897 1.400 1_554 S
C893 C892 1.399 1_656 S
C893 C894 1.376 . S
C894 H881 0.930 . S
C894 C893 1.376 . S
C894 C895 1.388 . S
C895 H882 0.930 . S
C895 C894 1.388 . S
C895 C896 1.390 . S
C896 C895 1.390 . S
C896 C897 1.379 1_655 S
C896 C902 1.465 . S
C897 C892 1.400 1_556 S
C897 C896 1.379 1_455 S
C897 C898 1.529 1_556 S
C898 C897 1.529 1_554 S
C898 C899 1.502 . S
C898 C900 1.561 . S
C898 C901 1.526 . S
C899 H883 0.959 . S
C899 H884 0.959 . S
C899 H885 0.961 . S
C899 C898 1.502 . S
C900 H886 0.960 . S
C900 H887 0.961 . S
C900 H888 0.959 1_455 S
C900 C898 1.561 . S
C901 C898 1.526 . S
C901 C902 1.396 1_454 S
C901 C906 1.390 . S
C902 C896 1.465 . S
C902 C901 1.396 1_656 S
C902 C903 1.399 . S
C903 H889 0.929 . S
C903 C902 1.399 . S
C903 C904 1.385 . S
C904 H890 0.931 . S
C904 C903 1.385 . S
C904 C905 1.389 1_655 S
C905 C904 1.389 1_455 S
C905 C906 1.387 1_556 S
C906 H891 0.930 . S
C906 C901 1.390 . S
C906 C905 1.387 1_554 S
H907 C919 0.930 . S
H908 C921 0.930 . S
H909 C922 0.930 . S
H910 C926 0.959 . S
H911 C926 0.959 1_556 S
H912 C926 0.961 1_556 S
H913 C927 0.960 . S
H914 C927 0.961 . S
H915 C927 0.959 . S
H916 C930 0.929 . S
H917 C931 0.931 . S
H918 C933 0.930 . S
C919 H907 0.930 . S
C919 C920 1.399 . S
C919 C924 1.399 . S
C920 C919 1.399 . S
C920 C921 1.376 . S
C921 H908 0.930 . S
C921 C920 1.376 . S
C921 C922 1.388 . S
C922 H909 0.930 . S
C922 C921 1.388 . S
C922 C923 1.390 . S
C923 C922 1.390 . S
C923 C924 1.394 . S
C923 C929 1.465 . S
C924 C919 1.399 . S
C924 C923 1.394 . S
C924 C925 1.516 . S
C925 C924 1.516 . S
C925 C926 1.502 . S
C925 C927 1.561 1_554 S
C925 C928 1.526 . S
C926 H910 0.959 . S
C926 H911 0.959 1_554 S
C926 H912 0.961 1_554 S
C926 C925 1.502 . S
C927 H913 0.960 . S
C927 H914 0.961 . S
C927 H915 0.959 . S
C927 C925 1.561 1_556 S
C928 C925 1.526 . S
C928 C929 1.396 . S
C928 C933 1.390 . S
C929 C923 1.465 . S
C929 C928 1.396 . S
C929 C930 1.399 . S
C930 H916 0.929 . S
C930 C929 1.399 . S
C930 C931 1.385 . S
C931 H917 0.931 . S
C931 C930 1.385 . S
C931 C932 1.389 . S
C932 C931 1.389 . S
C932 C933 1.387 . S
C933 H918 0.930 . S
C933 C928 1.390 . S
C933 C932 1.387 . S
H934 C946 0.930 . S
H935 C948 0.930 . S
H936 C949 0.930 . S
H937 C953 0.959 . S
H938 C953 0.959 . S
H939 C953 0.961 . S
H940 C954 0.960 . S
H941 C954 0.961 . S
H942 C954 0.959 1_655 S
H943 C957 0.929 . S
H944 C958 0.931 . S
H945 C960 0.930 . S
C946 H934 0.930 . S
C946 C947 1.399 . S
C946 C951 1.399 . S
C947 C946 1.399 . S
C947 C948 1.376 . S
C948 H935 0.930 . S
C948 C947 1.376 . S
C948 C949 1.388 . S
C949 H936 0.930 . S
C949 C948 1.388 . S
C949 C950 1.390 . S
C950 C949 1.390 . S
C950 C951 1.394 . S
C950 C956 1.465 . S
C951 C946 1.399 . S
C951 C950 1.394 . S
C951 C952 1.516 . S
C952 C951 1.516 . S
C952 C953 1.502 . S
C952 C954 1.561 . S
C952 C955 1.526 . S
C953 H937 0.959 . S
C953 H938 0.959 . S
C953 H939 0.961 . S
C953 C952 1.502 . S
C954 H940 0.960 . S
C954 H941 0.961 . S
C954 H942 0.959 1_455 S
C954 C952 1.561 . S
C955 C952 1.526 . S
C955 C956 1.396 . S
C955 C960 1.390 . S
C956 C950 1.465 . S
C956 C955 1.396 . S
C956 C957 1.399 . S
C957 H943 0.929 . S
C957 C956 1.399 . S
C957 C958 1.385 . S
C958 H944 0.931 . S
C958 C957 1.385 . S
C958 C959 1.389 . S
C959 C958 1.389 . S
C959 C960 1.387 . S
C960 H945 0.930 . S
C960 C955 1.390 . S
C960 C959 1.387 . S
H961 C973 0.930 . S
H962 C975 0.930 . S
H963 C976 0.930 . S
H964 C980 0.959 . S
H965 C980 0.959 . S
H966 C980 0.961 . S
H967 C981 0.960 . S
H968 C981 0.961 . S
H969 C981 0.959 . S
H970 C984 0.929 . S
H971 C985 0.931 . S
H972 C987 0.930 . S
C973 H961 0.930 . S
C973 C974 1.399 . S
C973 C978 1.399 . S
C974 C973 1.399 . S
C974 C975 1.376 . S
C975 H962 0.930 . S
C975 C974 1.376 . S
C975 C976 1.388 . S
C976 H963 0.930 . S
C976 C975 1.388 . S
C976 C977 1.390 . S
C977 C976 1.390 . S
C977 C978 1.394 . S
C977 C983 1.465 . S
C978 C973 1.399 . S
C978 C977 1.394 . S
C978 C979 1.516 . S
C979 C978 1.516 . S
C979 C980 1.502 . S
C979 C981 1.561 . S
C979 C982 1.526 . S
C980 H964 0.959 . S
C980 H965 0.959 . S
C980 H966 0.961 . S
C980 C979 1.502 . S
C981 H967 0.960 . S
C981 H968 0.961 . S
C981 H969 0.959 . S
C981 C979 1.561 . S
C982 C979 1.526 . S
C982 C983 1.396 . S
C982 C987 1.390 . S
C983 C977 1.465 . S
C983 C982 1.396 . S
C983 C984 1.399 . S
C984 H970 0.929 . S
C984 C983 1.399 . S
C984 C985 1.385 . S
C985 H971 0.931 . S
C985 C984 1.385 . S
C985 C986 1.389 . S
C986 C985 1.389 . S
C986 C987 1.387 . S
C987 H972 0.930 . S
C987 C982 1.390 . S
C987 C986 1.387 . S
C353 C29 1.570 . S
C365 C259 1.442 . S
C380 C49 1.428 . S
C392 C293 1.313 1_565 S
C419 C305 1.412 . S
C407 C93 1.483 . S
C434 C119 1.462 . S
C446 C339 1.313 . S
C473 C296 1.457 . S
C461 C17 1.462 . S
C500 C276 1.383 . S
C488 C61 1.475 . S
C527 C323 1.414 . S
C515 C81 1.439 . S
C554 C314 1.481 . S
C542 C125 1.484 . S
C569 C23 1.477 . S
C581 C322 1.418 . S
C608 C284 1.409 . S
C596 C87 1.440 . S
C623 C113 1.492 . S
C635 C260 1.475 . S
C650 C55 1.480 . S
C662 C317 1.383 . S
C689 C275 1.590 . S
C677 C157 1.668 . S
C704 C189 1.550 . S
C716 C297 1.602 . S
C731 C221 1.704 . S
C743 C302 1.506 . S
C758 C253 1.537 . S
C770 C335 1.541 . S
C785 C145 1.734 . S
C797 C280 1.648 . S
C824 C272 1.547 . S
C812 C183 1.583 . S
C851 C326 1.532 . S
C839 C209 1.702 . S
C878 C318 1.535 . S
C866 C247 1.571 . S
C893 C151 1.669 . S
C905 C338 1.561 . S
C932 C281 1.561 . S
C920 C215 1.690 . S
C959 C263 1.571 . S
C947 C241 1.618 . S
C974 C177 1.631 . S
C986 C301 1.598 . S
