# Generated by pormake.
# Topology bpr, (3,3)-cn, num edge types: 1
# Building blocks:
#     Node 0, Type 0, BuildingBlock: OLANEW_clean_sbu_2, # of connection points: 3
#     Node 1, Type 0, BuildingBlock: OLANEW_clean_sbu_2, # of connection points: 3
#     Node 2, Type 0, BuildingBlock: OLANEW_clean_sbu_2, # of connection points: 3
#     Node 3, Type 0, BuildingBlock: OLANEW_clean_sbu_2, # of connection points: 3
#     Node 4, Type 0, BuildingBlock: OLANEW_clean_sbu_2, # of connection points: 3
#     Node 5, Type 0, BuildingBlock: OLANEW_clean_sbu_2, # of connection points: 3
#     Node 6, Type 0, BuildingBlock: OLANEW_clean_sbu_2, # of connection points: 3
#     Node 7, Type 0, BuildingBlock: OLANEW_clean_sbu_2, # of connection points: 3
#     Node 8, Type 0, BuildingBlock: OLANEW_clean_sbu_2, # of connection points: 3
#     Node 9, Type 0, BuildingBlock: OLANEW_clean_sbu_2, # of connection points: 3
#     Node 10, Type 0, BuildingBlock: OLANEW_clean_sbu_2, # of connection points: 3
#     Node 11, Type 0, BuildingBlock: OLANEW_clean_sbu_2, # of connection points: 3
#     Node 12, Type 0, BuildingBlock: OLANEW_clean_sbu_2, # of connection points: 3
#     Node 13, Type 0, BuildingBlock: OLANEW_clean_sbu_2, # of connection points: 3
#     Node 14, Type 0, BuildingBlock: OLANEW_clean_sbu_2, # of connection points: 3
#     Node 15, Type 0, BuildingBlock: OLANEW_clean_sbu_2, # of connection points: 3
#     Node 16, Type 0, BuildingBlock: OLANEW_clean_sbu_2, # of connection points: 3
#     Node 17, Type 0, BuildingBlock: OLANEW_clean_sbu_2, # of connection points: 3
#     Node 18, Type 0, BuildingBlock: OLANEW_clean_sbu_2, # of connection points: 3
#     Node 19, Type 0, BuildingBlock: OLANEW_clean_sbu_2, # of connection points: 3
#     Node 20, Type 0, BuildingBlock: OLANEW_clean_sbu_2, # of connection points: 3
#     Node 21, Type 0, BuildingBlock: OLANEW_clean_sbu_2, # of connection points: 3
#     Node 22, Type 0, BuildingBlock: OLANEW_clean_sbu_2, # of connection points: 3
#     Node 23, Type 0, BuildingBlock: OLANEW_clean_sbu_2, # of connection points: 3
#     Node 24, Type 0, BuildingBlock: OLANEW_clean_sbu_2, # of connection points: 3
#     Node 25, Type 0, BuildingBlock: OLANEW_clean_sbu_2, # of connection points: 3
#     Node 26, Type 0, BuildingBlock: OLANEW_clean_sbu_2, # of connection points: 3
#     Node 27, Type 0, BuildingBlock: OLANEW_clean_sbu_2, # of connection points: 3
#     Node 28, Type 0, BuildingBlock: OLANEW_clean_sbu_2, # of connection points: 3
#     Node 29, Type 0, BuildingBlock: OLANEW_clean_sbu_2, # of connection points: 3
#     Node 30, Type 0, BuildingBlock: OLANEW_clean_sbu_2, # of connection points: 3
#     Node 31, Type 0, BuildingBlock: OLANEW_clean_sbu_2, # of connection points: 3
#     Node 32, Type 0, BuildingBlock: OLANEW_clean_sbu_2, # of connection points: 3
#     Node 33, Type 0, BuildingBlock: OLANEW_clean_sbu_2, # of connection points: 3
#     Node 34, Type 0, BuildingBlock: OLANEW_clean_sbu_2, # of connection points: 3
#     Node 35, Type 0, BuildingBlock: OLANEW_clean_sbu_2, # of connection points: 3
#     Node 36, Type 0, BuildingBlock: OLANEW_clean_sbu_2, # of connection points: 3
#     Node 37, Type 0, BuildingBlock: OLANEW_clean_sbu_2, # of connection points: 3
#     Node 38, Type 0, BuildingBlock: OLANEW_clean_sbu_2, # of connection points: 3
#     Node 39, Type 0, BuildingBlock: OLANEW_clean_sbu_2, # of connection points: 3
#     Node 40, Type 0, BuildingBlock: OLANEW_clean_sbu_2, # of connection points: 3
#     Node 41, Type 0, BuildingBlock: OLANEW_clean_sbu_2, # of connection points: 3
#     Node 42, Type 0, BuildingBlock: OLANEW_clean_sbu_2, # of connection points: 3
#     Node 43, Type 0, BuildingBlock: OLANEW_clean_sbu_2, # of connection points: 3
#     Node 44, Type 0, BuildingBlock: OLANEW_clean_sbu_2, # of connection points: 3
#     Node 45, Type 0, BuildingBlock: OLANEW_clean_sbu_2, # of connection points: 3
#     Node 46, Type 0, BuildingBlock: OLANEW_clean_sbu_2, # of connection points: 3
#     Node 47, Type 0, BuildingBlock: OLANEW_clean_sbu_2, # of connection points: 3
#     Node 48, Type 1, BuildingBlock: QEWDON_clean_linker_0, # of connection points: 3
#     Node 49, Type 1, BuildingBlock: QEWDON_clean_linker_0, # of connection points: 3
#     Node 50, Type 1, BuildingBlock: QEWDON_clean_linker_0, # of connection points: 3
#     Node 51, Type 1, BuildingBlock: QEWDON_clean_linker_0, # of connection points: 3
#     Node 52, Type 1, BuildingBlock: QEWDON_clean_linker_0, # of connection points: 3
#     Node 53, Type 1, BuildingBlock: QEWDON_clean_linker_0, # of connection points: 3
#     Node 54, Type 1, BuildingBlock: QEWDON_clean_linker_0, # of connection points: 3
#     Node 55, Type 1, BuildingBlock: QEWDON_clean_linker_0, # of connection points: 3
#     Node 56, Type 1, BuildingBlock: QEWDON_clean_linker_0, # of connection points: 3
#     Node 57, Type 1, BuildingBlock: QEWDON_clean_linker_0, # of connection points: 3
#     Node 58, Type 1, BuildingBlock: QEWDON_clean_linker_0, # of connection points: 3
#     Node 59, Type 1, BuildingBlock: QEWDON_clean_linker_0, # of connection points: 3
#     Node 60, Type 1, BuildingBlock: QEWDON_clean_linker_0, # of connection points: 3
#     Node 61, Type 1, BuildingBlock: QEWDON_clean_linker_0, # of connection points: 3
#     Node 62, Type 1, BuildingBlock: QEWDON_clean_linker_0, # of connection points: 3
#     Node 63, Type 1, BuildingBlock: QEWDON_clean_linker_0, # of connection points: 3
#     Node 64, Type 1, BuildingBlock: QEWDON_clean_linker_0, # of connection points: 3
#     Node 65, Type 1, BuildingBlock: QEWDON_clean_linker_0, # of connection points: 3
#     Node 66, Type 1, BuildingBlock: QEWDON_clean_linker_0, # of connection points: 3
#     Node 67, Type 1, BuildingBlock: QEWDON_clean_linker_0, # of connection points: 3
#     Node 68, Type 1, BuildingBlock: QEWDON_clean_linker_0, # of connection points: 3
#     Node 69, Type 1, BuildingBlock: QEWDON_clean_linker_0, # of connection points: 3
#     Node 70, Type 1, BuildingBlock: QEWDON_clean_linker_0, # of connection points: 3
#     Node 71, Type 1, BuildingBlock: QEWDON_clean_linker_0, # of connection points: 3
#     Node 72, Type 1, BuildingBlock: QEWDON_clean_linker_0, # of connection points: 3
#     Node 73, Type 1, BuildingBlock: QEWDON_clean_linker_0, # of connection points: 3
#     Node 74, Type 1, BuildingBlock: QEWDON_clean_linker_0, # of connection points: 3
#     Node 75, Type 1, BuildingBlock: QEWDON_clean_linker_0, # of connection points: 3
#     Node 76, Type 1, BuildingBlock: QEWDON_clean_linker_0, # of connection points: 3
#     Node 77, Type 1, BuildingBlock: QEWDON_clean_linker_0, # of connection points: 3
#     Node 78, Type 1, BuildingBlock: QEWDON_clean_linker_0, # of connection points: 3
#     Node 79, Type 1, BuildingBlock: QEWDON_clean_linker_0, # of connection points: 3
#     Node 80, Type 1, BuildingBlock: QEWDON_clean_linker_0, # of connection points: 3
#     Node 81, Type 1, BuildingBlock: QEWDON_clean_linker_0, # of connection points: 3
#     Node 82, Type 1, BuildingBlock: QEWDON_clean_linker_0, # of connection points: 3
#     Node 83, Type 1, BuildingBlock: QEWDON_clean_linker_0, # of connection points: 3
#     Node 84, Type 1, BuildingBlock: QEWDON_clean_linker_0, # of connection points: 3
#     Node 85, Type 1, BuildingBlock: QEWDON_clean_linker_0, # of connection points: 3
#     Node 86, Type 1, BuildingBlock: QEWDON_clean_linker_0, # of connection points: 3
#     Node 87, Type 1, BuildingBlock: QEWDON_clean_linker_0, # of connection points: 3
#     Node 88, Type 1, BuildingBlock: QEWDON_clean_linker_0, # of connection points: 3
#     Node 89, Type 1, BuildingBlock: QEWDON_clean_linker_0, # of connection points: 3
#     Node 90, Type 1, BuildingBlock: QEWDON_clean_linker_0, # of connection points: 3
#     Node 91, Type 1, BuildingBlock: QEWDON_clean_linker_0, # of connection points: 3
#     Node 92, Type 1, BuildingBlock: QEWDON_clean_linker_0, # of connection points: 3
#     Node 93, Type 1, BuildingBlock: QEWDON_clean_linker_0, # of connection points: 3
#     Node 94, Type 1, BuildingBlock: QEWDON_clean_linker_0, # of connection points: 3
#     Node 95, Type 1, BuildingBlock: QEWDON_clean_linker_0, # of connection points: 3
#     Edge 96, Type (0, 1), BuildingBlock: XIVTED_clean_linker_0, # of connection points: 2
#     Edge 97, Type (0, 1), BuildingBlock: XIVTED_clean_linker_0, # of connection points: 2
#     Edge 98, Type (0, 1), BuildingBlock: XIVTED_clean_linker_0, # of connection points: 2
#     Edge 99, Type (0, 1), BuildingBlock: XIVTED_clean_linker_0, # of connection points: 2
#     Edge 100, Type (0, 1), BuildingBlock: XIVTED_clean_linker_0, # of connection points: 2
#     Edge 101, Type (0, 1), BuildingBlock: XIVTED_clean_linker_0, # of connection points: 2
#     Edge 102, Type (0, 1), BuildingBlock: XIVTED_clean_linker_0, # of connection points: 2
#     Edge 103, Type (0, 1), BuildingBlock: XIVTED_clean_linker_0, # of connection points: 2
#     Edge 104, Type (0, 1), BuildingBlock: XIVTED_clean_linker_0, # of connection points: 2
#     Edge 105, Type (0, 1), BuildingBlock: XIVTED_clean_linker_0, # of connection points: 2
#     Edge 106, Type (0, 1), BuildingBlock: XIVTED_clean_linker_0, # of connection points: 2
#     Edge 107, Type (0, 1), BuildingBlock: XIVTED_clean_linker_0, # of connection points: 2
#     Edge 108, Type (0, 1), BuildingBlock: XIVTED_clean_linker_0, # of connection points: 2
#     Edge 109, Type (0, 1), BuildingBlock: XIVTED_clean_linker_0, # of connection points: 2
#     Edge 110, Type (0, 1), BuildingBlock: XIVTED_clean_linker_0, # of connection points: 2
#     Edge 111, Type (0, 1), BuildingBlock: XIVTED_clean_linker_0, # of connection points: 2
#     Edge 112, Type (0, 1), BuildingBlock: XIVTED_clean_linker_0, # of connection points: 2
#     Edge 113, Type (0, 1), BuildingBlock: XIVTED_clean_linker_0, # of connection points: 2
#     Edge 114, Type (0, 1), BuildingBlock: XIVTED_clean_linker_0, # of connection points: 2
#     Edge 115, Type (0, 1), BuildingBlock: XIVTED_clean_linker_0, # of connection points: 2
#     Edge 116, Type (0, 1), BuildingBlock: XIVTED_clean_linker_0, # of connection points: 2
#     Edge 117, Type (0, 1), BuildingBlock: XIVTED_clean_linker_0, # of connection points: 2
#     Edge 118, Type (0, 1), BuildingBlock: XIVTED_clean_linker_0, # of connection points: 2
#     Edge 119, Type (0, 1), BuildingBlock: XIVTED_clean_linker_0, # of connection points: 2
#     Edge 120, Type (0, 1), BuildingBlock: XIVTED_clean_linker_0, # of connection points: 2
#     Edge 121, Type (0, 1), BuildingBlock: XIVTED_clean_linker_0, # of connection points: 2
#     Edge 122, Type (0, 1), BuildingBlock: XIVTED_clean_linker_0, # of connection points: 2
#     Edge 123, Type (0, 1), BuildingBlock: XIVTED_clean_linker_0, # of connection points: 2
#     Edge 124, Type (0, 1), BuildingBlock: XIVTED_clean_linker_0, # of connection points: 2
#     Edge 125, Type (0, 1), BuildingBlock: XIVTED_clean_linker_0, # of connection points: 2
#     Edge 126, Type (0, 1), BuildingBlock: XIVTED_clean_linker_0, # of connection points: 2
#     Edge 127, Type (0, 1), BuildingBlock: XIVTED_clean_linker_0, # of connection points: 2
#     Edge 128, Type (0, 1), BuildingBlock: XIVTED_clean_linker_0, # of connection points: 2
#     Edge 129, Type (0, 1), BuildingBlock: XIVTED_clean_linker_0, # of connection points: 2
#     Edge 130, Type (0, 1), BuildingBlock: XIVTED_clean_linker_0, # of connection points: 2
#     Edge 131, Type (0, 1), BuildingBlock: XIVTED_clean_linker_0, # of connection points: 2
#     Edge 132, Type (0, 1), BuildingBlock: XIVTED_clean_linker_0, # of connection points: 2
#     Edge 133, Type (0, 1), BuildingBlock: XIVTED_clean_linker_0, # of connection points: 2
#     Edge 134, Type (0, 1), BuildingBlock: XIVTED_clean_linker_0, # of connection points: 2
#     Edge 135, Type (0, 1), BuildingBlock: XIVTED_clean_linker_0, # of connection points: 2
#     Edge 136, Type (0, 1), BuildingBlock: XIVTED_clean_linker_0, # of connection points: 2
#     Edge 137, Type (0, 1), BuildingBlock: XIVTED_clean_linker_0, # of connection points: 2
#     Edge 138, Type (0, 1), BuildingBlock: XIVTED_clean_linker_0, # of connection points: 2
#     Edge 139, Type (0, 1), BuildingBlock: XIVTED_clean_linker_0, # of connection points: 2
#     Edge 140, Type (0, 1), BuildingBlock: XIVTED_clean_linker_0, # of connection points: 2
#     Edge 141, Type (0, 1), BuildingBlock: XIVTED_clean_linker_0, # of connection points: 2
#     Edge 142, Type (0, 1), BuildingBlock: XIVTED_clean_linker_0, # of connection points: 2
#     Edge 143, Type (0, 1), BuildingBlock: XIVTED_clean_linker_0, # of connection points: 2
#     Edge 144, Type (0, 1), BuildingBlock: XIVTED_clean_linker_0, # of connection points: 2
#     Edge 145, Type (0, 1), BuildingBlock: XIVTED_clean_linker_0, # of connection points: 2
#     Edge 146, Type (0, 1), BuildingBlock: XIVTED_clean_linker_0, # of connection points: 2
#     Edge 147, Type (0, 1), BuildingBlock: XIVTED_clean_linker_0, # of connection points: 2
#     Edge 148, Type (0, 1), BuildingBlock: XIVTED_clean_linker_0, # of connection points: 2
#     Edge 149, Type (0, 1), BuildingBlock: XIVTED_clean_linker_0, # of connection points: 2
#     Edge 150, Type (0, 1), BuildingBlock: XIVTED_clean_linker_0, # of connection points: 2
#     Edge 151, Type (0, 1), BuildingBlock: XIVTED_clean_linker_0, # of connection points: 2
#     Edge 152, Type (0, 1), BuildingBlock: XIVTED_clean_linker_0, # of connection points: 2
#     Edge 153, Type (0, 1), BuildingBlock: XIVTED_clean_linker_0, # of connection points: 2
#     Edge 154, Type (0, 1), BuildingBlock: XIVTED_clean_linker_0, # of connection points: 2
#     Edge 155, Type (0, 1), BuildingBlock: XIVTED_clean_linker_0, # of connection points: 2
#     Edge 156, Type (0, 1), BuildingBlock: XIVTED_clean_linker_0, # of connection points: 2
#     Edge 157, Type (0, 1), BuildingBlock: XIVTED_clean_linker_0, # of connection points: 2
#     Edge 158, Type (0, 1), BuildingBlock: XIVTED_clean_linker_0, # of connection points: 2
#     Edge 159, Type (0, 1), BuildingBlock: XIVTED_clean_linker_0, # of connection points: 2
#     Edge 160, Type (0, 1), BuildingBlock: XIVTED_clean_linker_0, # of connection points: 2
#     Edge 161, Type (0, 1), BuildingBlock: XIVTED_clean_linker_0, # of connection points: 2
#     Edge 162, Type (0, 1), BuildingBlock: XIVTED_clean_linker_0, # of connection points: 2
#     Edge 163, Type (0, 1), BuildingBlock: XIVTED_clean_linker_0, # of connection points: 2
#     Edge 164, Type (0, 1), BuildingBlock: XIVTED_clean_linker_0, # of connection points: 2
#     Edge 165, Type (0, 1), BuildingBlock: XIVTED_clean_linker_0, # of connection points: 2
#     Edge 166, Type (0, 1), BuildingBlock: XIVTED_clean_linker_0, # of connection points: 2
#     Edge 167, Type (0, 1), BuildingBlock: XIVTED_clean_linker_0, # of connection points: 2
#     Edge 168, Type (0, 1), BuildingBlock: XIVTED_clean_linker_0, # of connection points: 2
#     Edge 169, Type (0, 1), BuildingBlock: XIVTED_clean_linker_0, # of connection points: 2
#     Edge 170, Type (0, 1), BuildingBlock: XIVTED_clean_linker_0, # of connection points: 2
#     Edge 171, Type (0, 1), BuildingBlock: XIVTED_clean_linker_0, # of connection points: 2
#     Edge 172, Type (0, 1), BuildingBlock: XIVTED_clean_linker_0, # of connection points: 2
#     Edge 173, Type (0, 1), BuildingBlock: XIVTED_clean_linker_0, # of connection points: 2
#     Edge 174, Type (0, 1), BuildingBlock: XIVTED_clean_linker_0, # of connection points: 2
#     Edge 175, Type (0, 1), BuildingBlock: XIVTED_clean_linker_0, # of connection points: 2
#     Edge 176, Type (0, 1), BuildingBlock: XIVTED_clean_linker_0, # of connection points: 2
#     Edge 177, Type (0, 1), BuildingBlock: XIVTED_clean_linker_0, # of connection points: 2
#     Edge 178, Type (0, 1), BuildingBlock: XIVTED_clean_linker_0, # of connection points: 2
#     Edge 179, Type (0, 1), BuildingBlock: XIVTED_clean_linker_0, # of connection points: 2
#     Edge 180, Type (0, 1), BuildingBlock: XIVTED_clean_linker_0, # of connection points: 2
#     Edge 181, Type (0, 1), BuildingBlock: XIVTED_clean_linker_0, # of connection points: 2
#     Edge 182, Type (0, 1), BuildingBlock: XIVTED_clean_linker_0, # of connection points: 2
#     Edge 183, Type (0, 1), BuildingBlock: XIVTED_clean_linker_0, # of connection points: 2
#     Edge 184, Type (0, 1), BuildingBlock: XIVTED_clean_linker_0, # of connection points: 2
#     Edge 185, Type (0, 1), BuildingBlock: XIVTED_clean_linker_0, # of connection points: 2
#     Edge 186, Type (0, 1), BuildingBlock: XIVTED_clean_linker_0, # of connection points: 2
#     Edge 187, Type (0, 1), BuildingBlock: XIVTED_clean_linker_0, # of connection points: 2
#     Edge 188, Type (0, 1), BuildingBlock: XIVTED_clean_linker_0, # of connection points: 2
#     Edge 189, Type (0, 1), BuildingBlock: XIVTED_clean_linker_0, # of connection points: 2
#     Edge 190, Type (0, 1), BuildingBlock: XIVTED_clean_linker_0, # of connection points: 2
#     Edge 191, Type (0, 1), BuildingBlock: XIVTED_clean_linker_0, # of connection points: 2
#     Edge 192, Type (0, 1), BuildingBlock: XIVTED_clean_linker_0, # of connection points: 2
#     Edge 193, Type (0, 1), BuildingBlock: XIVTED_clean_linker_0, # of connection points: 2
#     Edge 194, Type (0, 1), BuildingBlock: XIVTED_clean_linker_0, # of connection points: 2
#     Edge 195, Type (0, 1), BuildingBlock: XIVTED_clean_linker_0, # of connection points: 2
#     Edge 196, Type (0, 1), BuildingBlock: XIVTED_clean_linker_0, # of connection points: 2
#     Edge 197, Type (0, 1), BuildingBlock: XIVTED_clean_linker_0, # of connection points: 2
#     Edge 198, Type (0, 1), BuildingBlock: XIVTED_clean_linker_0, # of connection points: 2
#     Edge 199, Type (0, 1), BuildingBlock: XIVTED_clean_linker_0, # of connection points: 2
#     Edge 200, Type (0, 1), BuildingBlock: XIVTED_clean_linker_0, # of connection points: 2
#     Edge 201, Type (0, 1), BuildingBlock: XIVTED_clean_linker_0, # of connection points: 2
#     Edge 202, Type (0, 1), BuildingBlock: XIVTED_clean_linker_0, # of connection points: 2
#     Edge 203, Type (0, 1), BuildingBlock: XIVTED_clean_linker_0, # of connection points: 2
#     Edge 204, Type (0, 1), BuildingBlock: XIVTED_clean_linker_0, # of connection points: 2
#     Edge 205, Type (0, 1), BuildingBlock: XIVTED_clean_linker_0, # of connection points: 2
#     Edge 206, Type (0, 1), BuildingBlock: XIVTED_clean_linker_0, # of connection points: 2
#     Edge 207, Type (0, 1), BuildingBlock: XIVTED_clean_linker_0, # of connection points: 2
#     Edge 208, Type (0, 1), BuildingBlock: XIVTED_clean_linker_0, # of connection points: 2
#     Edge 209, Type (0, 1), BuildingBlock: XIVTED_clean_linker_0, # of connection points: 2
#     Edge 210, Type (0, 1), BuildingBlock: XIVTED_clean_linker_0, # of connection points: 2
#     Edge 211, Type (0, 1), BuildingBlock: XIVTED_clean_linker_0, # of connection points: 2
#     Edge 212, Type (0, 1), BuildingBlock: XIVTED_clean_linker_0, # of connection points: 2
#     Edge 213, Type (0, 1), BuildingBlock: XIVTED_clean_linker_0, # of connection points: 2
#     Edge 214, Type (0, 1), BuildingBlock: XIVTED_clean_linker_0, # of connection points: 2
#     Edge 215, Type (0, 1), BuildingBlock: XIVTED_clean_linker_0, # of connection points: 2
#     Edge 216, Type (0, 1), BuildingBlock: XIVTED_clean_linker_0, # of connection points: 2
#     Edge 217, Type (0, 1), BuildingBlock: XIVTED_clean_linker_0, # of connection points: 2
#     Edge 218, Type (0, 1), BuildingBlock: XIVTED_clean_linker_0, # of connection points: 2
#     Edge 219, Type (0, 1), BuildingBlock: XIVTED_clean_linker_0, # of connection points: 2
#     Edge 220, Type (0, 1), BuildingBlock: XIVTED_clean_linker_0, # of connection points: 2
#     Edge 221, Type (0, 1), BuildingBlock: XIVTED_clean_linker_0, # of connection points: 2
#     Edge 222, Type (0, 1), BuildingBlock: XIVTED_clean_linker_0, # of connection points: 2
#     Edge 223, Type (0, 1), BuildingBlock: XIVTED_clean_linker_0, # of connection points: 2
#     Edge 224, Type (0, 1), BuildingBlock: XIVTED_clean_linker_0, # of connection points: 2
#     Edge 225, Type (0, 1), BuildingBlock: XIVTED_clean_linker_0, # of connection points: 2
#     Edge 226, Type (0, 1), BuildingBlock: XIVTED_clean_linker_0, # of connection points: 2
#     Edge 227, Type (0, 1), BuildingBlock: XIVTED_clean_linker_0, # of connection points: 2
#     Edge 228, Type (0, 1), BuildingBlock: XIVTED_clean_linker_0, # of connection points: 2
#     Edge 229, Type (0, 1), BuildingBlock: XIVTED_clean_linker_0, # of connection points: 2
#     Edge 230, Type (0, 1), BuildingBlock: XIVTED_clean_linker_0, # of connection points: 2
#     Edge 231, Type (0, 1), BuildingBlock: XIVTED_clean_linker_0, # of connection points: 2
#     Edge 232, Type (0, 1), BuildingBlock: XIVTED_clean_linker_0, # of connection points: 2
#     Edge 233, Type (0, 1), BuildingBlock: XIVTED_clean_linker_0, # of connection points: 2
#     Edge 234, Type (0, 1), BuildingBlock: XIVTED_clean_linker_0, # of connection points: 2
#     Edge 235, Type (0, 1), BuildingBlock: XIVTED_clean_linker_0, # of connection points: 2
#     Edge 236, Type (0, 1), BuildingBlock: XIVTED_clean_linker_0, # of connection points: 2
#     Edge 237, Type (0, 1), BuildingBlock: XIVTED_clean_linker_0, # of connection points: 2
#     Edge 238, Type (0, 1), BuildingBlock: XIVTED_clean_linker_0, # of connection points: 2
#     Edge 239, Type (0, 1), BuildingBlock: XIVTED_clean_linker_0, # of connection points: 2
# Relax obj value: 0.021
# Max RMSD: 0.198
# Mean RMSD: 0.084
data_MOF--net-bpr--node1-OLANEW_clean_sbu_2--node2-QEWDON_clean_linker_0--edge1-XIVTED_clean_linker_0
_symmetry_space_group_name_H-M    P1
_symmetry_Int_Tables_number       1
_symmetry_cell_setting            triclinic
loop_
_symmetry_equiv_pos_as_xyz
'x, y, z'
_cell_length_a     86.201605
_cell_length_b     94.259434
_cell_length_c     92.854419
_cell_angle_alpha  86.71016
_cell_angle_beta   96.63506
_cell_angle_gamma 110.19304
loop_
_atom_site_label
_atom_site_type_symbol
_atom_site_fract_x
_atom_site_fract_y
_atom_site_fract_z
_atom_type_partial_charge
O0 O 0.0244 0.36465 0.30019 0.0
Cd1 Cd 0.01035 0.37084 0.27762 0.0
O2 O 0.00179 0.35396 0.31115 0.0
Cd3 Cd 0.98622 0.36225 0.29508 0.0
O4 O 0.96935 0.37518 0.29187 0.0
C5 C 0.97389 0.38737 0.2989 0.0
O6 O 0.98853 0.39168 0.30649 0.0
C7 C 0.01738 0.3574 0.31099 0.0
C8 C 0.02594 0.36527 0.25498 0.0
O9 O 0.03062 0.37843 0.26047 0.0
O10 O 0.01356 0.3549 0.25989 0.0
O11 O 0.87532 0.85003 0.53502 0.0
Cd12 Cd 0.88244 0.8341 0.51889 0.0
O13 O 0.85765 0.83097 0.54599 0.0
Cd14 Cd 0.8645 0.81305 0.53755 0.0
O15 O 0.8685 0.79219 0.54562 0.0
C16 C 0.87252 0.79201 0.55923 0.0
O17 O 0.87459 0.80416 0.56657 0.0
C18 C 0.86448 0.84513 0.54398 0.0
C19 C 0.87454 0.84215 0.49032 0.0
O20 O 0.88879 0.84894 0.49713 0.0
O21 O 0.86418 0.83128 0.49689 0.0
O22 O 0.47577 0.64942 0.82627 0.0
Cd23 Cd 0.48954 0.64663 0.80561 0.0
O24 O 0.45875 0.62585 0.8253 0.0
Cd25 Cd 0.46281 0.62358 0.80288 0.0
O26 O 0.45557 0.62527 0.77966 0.0
C27 C 0.45946 0.63834 0.77373 0.0
O28 O 0.46853 0.6501 0.78152 0.0
C29 C 0.46479 0.63838 0.83183 0.0
C30 C 0.51873 0.64148 0.81638 0.0
O31 O 0.51847 0.65492 0.81394 0.0
O32 O 0.50525 0.63039 0.81334 0.0
O33 O 0.58565 0.19708 0.07782 0.0
Cd34 Cd 0.57601 0.21658 0.06553 0.0
O35 O 0.5787 0.1834 0.0583 0.0
Cd36 Cd 0.5761 0.16481 0.04409 0.0
O37 O 0.56982 0.15092 0.02479 0.0
C38 C 0.57935 0.14465 0.02057 0.0
O39 O 0.59356 0.14608 0.02829 0.0
C40 C 0.58469 0.18515 0.07151 0.0
C41 C 0.59101 0.24404 0.07965 0.0
O42 O 0.57724 0.2346 0.08326 0.0
O43 O 0.59755 0.24055 0.06928 0.0
O44 O 0.07408 0.63896 0.23367 0.0
Cd45 Cd 0.04713 0.63173 0.24336 0.0
O46 O 0.06862 0.61661 0.22435 0.0
Cd47 Cd 0.04226 0.60926 0.22716 0.0
O48 O 0.01717 0.60337 0.21615 0.0
C49 C 0.01616 0.6004 0.20282 0.0
O50 O 0.0297 0.60088 0.19729 0.0
C51 C 0.07873 0.62983 0.22717 0.0
C52 C 0.04878 0.6181 0.2707 0.0
O53 O 0.04489 0.6103 0.25914 0.0
O54 O 0.05166 0.63237 0.26935 0.0
O55 O 0.60703 0.76811 0.492 0.0
Cd56 Cd 0.60863 0.75188 0.51323 0.0
O57 O 0.61881 0.78871 0.50479 0.0
Cd58 Cd 0.61966 0.77781 0.52607 0.0
O59 O 0.61772 0.78294 0.54825 0.0
C60 C 0.60774 0.79007 0.54893 0.0
O61 O 0.59928 0.79247 0.53689 0.0
C62 C 0.61265 0.78245 0.49269 0.0
C63 C 0.61553 0.72673 0.50544 0.0
O64 O 0.60054 0.72652 0.50507 0.0
O65 O 0.62731 0.73881 0.50967 0.0
O66 O 0.38268 0.36599 0.72276 0.0
Cd67 Cd 0.39549 0.36202 0.74686 0.0
O68 O 0.40601 0.36858 0.714 0.0
Cd69 Cd 0.42377 0.3713 0.69807 0.0
O70 O 0.44554 0.37787 0.68595 0.0
C71 C 0.45602 0.3911 0.68792 0.0
O72 O 0.45309 0.40002 0.6968 0.0
C73 C 0.39102 0.36822 0.7119 0.0
C74 C 0.37626 0.36173 0.76918 0.0
O75 O 0.38802 0.37379 0.766 0.0
O76 O 0.37352 0.34991 0.76174 0.0
O77 O 0.86789 0.20847 0.94606 0.0
Cd78 Cd 0.85975 0.22006 0.96555 0.0
O79 O 0.88773 0.20348 0.96021 0.0
Cd80 Cd 0.88192 0.21094 0.98006 0.0
O81 O 0.87516 0.20385 0.00192 0.0
C82 C 0.8784 0.19211 0.00648 0.0
O83 O 0.8856 0.18604 -0.00192 0.0
C84 C 0.87969 0.20314 0.94779 0.0
C85 C 0.85381 0.24665 0.95657 0.0
O86 O 0.86816 0.24698 0.96238 0.0
O87 O 0.84227 0.23374 0.955 0.0
O88 O 0.3022 0.03268 0.40528 0.0
Cd89 Cd 0.27742 0.01011 0.40657 0.0
O90 O 0.29012 0.05 0.4021 0.0
Cd91 Cd 0.26355 0.03692 0.40034 0.0
O92 O 0.24197 0.04426 0.39509 0.0
C93 C 0.24546 0.0583 0.39715 0.0
O94 O 0.26061 0.06615 0.40255 0.0
C95 C 0.30318 0.04645 0.40378 0.0
C96 C 0.28722 0.98581 0.41741 0.0
O97 O 0.28419 0.98769 0.40372 0.0
O98 O 0.2853 0.99518 0.4259 0.0
O99 O 0.15544 0.01563 0.66471 0.0
Cd100 Cd 0.16735 0.99653 0.65963 0.0
O101 O 0.17764 0.02928 0.65465 0.0
Cd102 Cd 0.19623 0.05073 0.64913 0.0
O103 O 0.22027 0.06867 0.64896 0.0
C104 C 0.22913 0.07211 0.66102 0.0
O105 O 0.22311 0.06524 0.67291 0.0
C106 C 0.16465 0.02846 0.66036 0.0
C107 C 0.14722 0.9663 0.66087 0.0
O108 O 0.15696 0.97267 0.67193 0.0
O109 O 0.1466 0.97437 0.64937 0.0
O110 O 0.19277 0.9522 0.88763 0.0
Cd111 Cd 0.21837 0.97409 0.88939 0.0
O112 O 0.17422 0.9637 0.88522 0.0
Cd113 Cd 0.19122 0.98675 0.88941 0.0
O114 O 0.19449 0.0088 0.89819 0.0
C115 C 0.18645 0.01668 0.89155 0.0
O116 O 0.17759 0.01183 0.87919 0.0
C117 C 0.17772 0.95163 0.88564 0.0
C118 C 0.2416 0.96653 0.87567 0.0
O119 O 0.24009 0.96358 0.88918 0.0
O120 O 0.23252 0.97348 0.86877 0.0
O121 O 0.30928 0.96882 0.14249 0.0
Cd122 Cd 0.29379 0.98563 0.14558 0.0
O123 O 0.29557 0.96087 0.12134 0.0
Cd124 Cd 0.27922 0.97402 0.12213 0.0
O125 O 0.25603 0.97732 0.1254 0.0
C126 C 0.25039 0.97335 0.13761 0.0
O127 O 0.25925 0.96845 0.14786 0.0
C128 C 0.3067 0.96056 0.13149 0.0
C129 C 0.31193 0.01614 0.14171 0.0
O130 O 0.3123 0.00957 0.15416 0.0
O131 O 0.30309 0.00821 0.13101 0.0
O132 O 0.35147 0.33525 0.06263 0.0
Cd133 Cd 0.34517 0.31305 0.04772 0.0
O134 O 0.37834 0.33936 0.06567 0.0
Cd135 Cd 0.37527 0.31692 0.05811 0.0
O136 O 0.37207 0.2929 0.06093 0.0
C137 C 0.38245 0.28923 0.06987 0.0
O138 O 0.39502 0.29999 0.07638 0.0
C139 C 0.3661 0.34351 0.06728 0.0
C140 C 0.33923 0.32148 0.0189 0.0
O141 O 0.32753 0.317 0.02723 0.0
O142 O 0.35372 0.32161 0.02409 0.0
O143 O 0.88748 0.8579 0.21873 0.0
Cd144 Cd 0.8968 0.85189 0.24351 0.0
O145 O 0.91127 0.85811 0.2124 0.0
Cd146 Cd 0.93033 0.86258 0.19744 0.0
O147 O 0.95234 0.87027 0.18561 0.0
C148 C 0.95182 0.87534 0.17265 0.0
O149 O 0.93759 0.87566 0.16609 0.0
C150 C 0.89713 0.85946 0.20894 0.0
C151 C 0.8779 0.85573 0.26448 0.0
O152 O 0.89077 0.86656 0.26095 0.0
O153 O 0.87387 0.84314 0.25796 0.0
O154 O 0.11058 0.69692 0.56821 0.0
Cd155 Cd 0.11156 0.72119 0.55665 0.0
O156 O 0.1073 0.68553 0.54756 0.0
Cd157 Cd 0.10513 0.66731 0.53296 0.0
O158 O 0.10198 0.65218 0.51499 0.0
C159 C 0.09632 0.63788 0.51657 0.0
O160 O 0.09247 0.632 0.52941 0.0
C161 C 0.10872 0.68504 0.56136 0.0
C162 C 0.10866 0.7409 0.57675 0.0
O163 O 0.09582 0.73234 0.56914 0.0
O164 O 0.12285 0.74021 0.57478 0.0
O165 O 0.98274 0.64412 0.71379 0.0
Cd166 Cd 0.00182 0.63971 0.73368 0.0
O167 O 0.98674 0.66798 0.71763 0.0
Cd168 Cd -0.00047 0.66629 0.73902 0.0
O169 O 0.00043 0.66269 0.76252 0.0
C170 C 0.98883 0.6648 0.76842 0.0
O171 O 0.97772 0.66911 0.7602 0.0
C172 C 0.98013 0.65633 0.70988 0.0
C173 C 0.02169 0.62655 0.72165 0.0
O174 O 0.00779 0.61838 0.72611 0.0
O175 O 0.02645 0.64087 0.72335 0.0
O176 O 0.09886 0.14342 0.47791 0.0
Cd177 Cd 0.08453 0.14265 0.4993 0.0
O178 O 0.10077 0.16707 0.47435 0.0
Cd179 Cd 0.10718 0.18986 0.4646 0.0
O180 O 0.11052 0.21381 0.46075 0.0
C181 C 0.10111 0.21809 0.45125 0.0
O182 O 0.08955 0.20791 0.44318 0.0
C183 C 0.10332 0.15547 0.47024 0.0
C184 C 0.10569 0.15048 0.52482 0.0
O185 O 0.09971 0.13674 0.52063 0.0
O186 O 0.10183 0.16055 0.51682 0.0
O187 O 0.51566 0.34963 0.22 0.0
Cd188 Cd 0.49342 0.34723 0.23507 0.0
O189 O 0.52916 0.37261 0.22797 0.0
Cd190 Cd 0.5069 0.37611 0.23371 0.0
O191 O 0.48757 0.38617 0.22843 0.0
C192 C 0.49199 0.39833 0.2209 0.0
O193 O 0.50744 0.40387 0.2177 0.0
C194 C 0.52888 0.36112 0.22125 0.0
C195 C 0.50728 0.3459 0.26359 0.0
O196 O 0.50046 0.33389 0.25613 0.0
O197 O 0.50686 0.35844 0.25781 0.0
O198 O 0.36216 0.82418 0.93811 0.0
Cd199 Cd 0.36593 0.811 0.96108 0.0
O200 O 0.3599 0.8435 0.94884 0.0
Cd201 Cd 0.36303 0.83498 0.97094 0.0
O202 O 0.36329 0.83153 0.9944 0.0
C203 C 0.36181 0.84196 0.00164 0.0
O204 O 0.3605 0.85412 0.99473 0.0
C205 C 0.36002 0.83691 0.93731 0.0
C206 C 0.37639 0.78641 0.95819 0.0
O207 O 0.3609 0.78472 0.95716 0.0
O208 O 0.38691 0.79974 0.96041 0.0
O209 O 0.85184 0.31414 0.78331 0.0
Cd210 Cd 0.85977 0.30134 0.76469 0.0
O211 O 0.87758 0.31992 0.79272 0.0
Cd212 Cd 0.8998 0.32733 0.80827 0.0
O213 O 0.92519 0.32936 0.81678 0.0
C214 C 0.93046 0.31936 0.81269 0.0
O215 O 0.92037 0.30861 0.80422 0.0
C216 C 0.86312 0.32045 0.79329 0.0
C217 C 0.85161 0.31039 0.73662 0.0
O218 O 0.84148 0.29902 0.74284 0.0
O219 O 0.86558 0.31749 0.74371 0.0
O220 O 0.39725 0.23076 0.56866 0.0
Cd221 Cd 0.39875 0.24772 0.54752 0.0
O222 O 0.41074 0.21775 0.55979 0.0
Cd223 Cd 0.4127 0.2276 0.53794 0.0
O224 O 0.41577 0.22126 0.51643 0.0
C225 C 0.42818 0.21708 0.51566 0.0
O226 O 0.43872 0.21801 0.52728 0.0
C227 C 0.40366 0.22039 0.57008 0.0
C228 C 0.38448 0.26956 0.55148 0.0
O229 O 0.37599 0.25721 0.54501 0.0
O230 O 0.39969 0.27159 0.55604 0.0
O231 O 0.6363 0.66449 0.3318 0.0
Cd232 Cd 0.63937 0.68178 0.3108 0.0
O233 O 0.61027 0.66279 0.33101 0.0
Cd234 Cd 0.58477 0.65599 0.33692 0.0
O235 O 0.55852 0.65199 0.33873 0.0
C236 C 0.55397 0.65944 0.34735 0.0
O237 O 0.56532 0.66947 0.35574 0.0
C238 C 0.62256 0.6595 0.3373 0.0
C239 C 0.62378 0.66906 0.28427 0.0
O240 O 0.63887 0.67019 0.28839 0.0
O241 O 0.61591 0.67355 0.2929 0.0
O242 O 0.16192 0.82338 0.10011 0.0
Cd243 Cd 0.17832 0.8113 0.0888 0.0
O244 O 0.14615 0.81921 0.07957 0.0
Cd245 Cd 0.12606 0.81904 0.06284 0.0
O246 O 0.11219 0.81772 0.0415 0.0
C247 C 0.11804 0.82792 0.03209 0.0
O248 O 0.13171 0.83925 0.0358 0.0
C249 C 0.14948 0.82479 0.09218 0.0
C250 C 0.18049 0.78513 0.10305 0.0
O251 O 0.19165 0.79804 0.10587 0.0
O252 O 0.16821 0.78466 0.09364 0.0
O253 O 0.6586 0.98984 0.59483 0.0
Cd254 Cd 0.66489 0.01106 0.57746 0.0
O255 O 0.68495 0.99228 0.5971 0.0
Cd256 Cd 0.70726 0.987 0.60527 0.0
O257 O 0.73085 0.98349 0.61194 0.0
C258 C 0.73591 0.97554 0.60429 0.0
O259 O 0.72665 0.96932 0.5925 0.0
C260 C 0.67021 0.98509 0.60014 0.0
C261 C 0.67164 0.03961 0.58869 0.0
O262 O 0.65675 0.03137 0.5843 0.0
O263 O 0.68328 0.03416 0.58813 0.0
O264 O 0.80723 0.00338 0.44155 0.0
Cd265 Cd 0.79908 0.02214 0.45301 0.0
O266 O 0.78293 0.99702 0.42883 0.0
Cd267 Cd 0.76264 0.98422 0.41315 0.0
O268 O 0.73949 0.96762 0.40399 0.0
C269 C 0.72692 0.96529 0.41089 0.0
O270 O 0.72856 0.97325 0.42249 0.0
C271 C 0.79668 0.99483 0.43225 0.0
C272 C 0.8173 0.05195 0.44603 0.0
O273 O 0.82195 0.04525 0.45723 0.0
O274 O 0.80412 0.0445 0.43809 0.0
O275 O 0.76083 0.99424 0.08622 0.0
Cd276 Cd 0.74427 0.96853 0.07861 0.0
O277 O 0.73855 -0.00198 0.09169 0.0
Cd278 Cd 0.72306 0.01046 0.09776 0.0
O279 O 0.70364 0.01825 0.10389 0.0
C280 C 0.7068 0.03004 0.11128 0.0
O281 O 0.72235 0.0381 0.11529 0.0
C282 C 0.75416 0.00295 0.09088 0.0
C283 C 0.76346 0.94985 0.08017 0.0
O284 O 0.76226 0.95789 0.06877 0.0
O285 O 0.75555 0.95061 0.09081 0.0
O286 O 0.67921 0.02448 0.92483 0.0
Cd287 Cd 0.69945 0.01161 0.93111 0.0
O288 O 0.6947 0.04007 0.90939 0.0
Cd289 Cd 0.71565 0.03186 0.91246 0.0
O290 O 0.74127 0.03546 0.90871 0.0
C291 C 0.74437 0.03515 0.8957 0.0
O292 O 0.73194 0.03149 0.88541 0.0
C293 C 0.68144 0.03538 0.91567 0.0
C294 C 0.68527 0.98078 0.92549 0.0
O295 O 0.68481 0.98591 0.93786 0.0
O296 O 0.69257 0.99022 0.91583 0.0
O297 O 0.6644 0.68558 0.99365 0.0
Cd298 Cd 0.66821 0.70279 0.01357 0.0
O299 O 0.66293 0.70456 0.97959 0.0
Cd300 Cd 0.65761 0.71639 0.9597 0.0
O301 O 0.64724 0.73179 0.94685 0.0
C302 C 0.65369 0.74592 0.94902 0.0
O303 O 0.66699 0.75089 0.95833 0.0
C304 C 0.66268 0.69098 0.98095 0.0
C305 C 0.65253 0.68879 0.03784 0.0
O306 O 0.6449 0.69441 0.02768 0.0
O307 O 0.66746 0.68968 0.0364 0.0
O308 O 0.11695 0.18376 0.81773 0.0
Cd309 Cd 0.11096 0.19743 0.79591 0.0
O310 O 0.09031 0.1756 0.81988 0.0
Cd311 Cd 0.06656 0.16311 0.82833 0.0
O312 O 0.04019 0.15444 0.83161 0.0
C313 C 0.03051 0.15876 0.82246 0.0
O314 O 0.03683 0.16797 0.81181 0.0
C315 C 0.10488 0.17596 0.82469 0.0
C316 C 0.11997 0.1874 0.77163 0.0
O317 O 0.13019 0.19853 0.77894 0.0
O318 O 0.10544 0.18106 0.77578 0.0
O319 O 0.84137 0.32506 0.4342 0.0
Cd320 Cd 0.83873 0.30622 0.45393 0.0
O321 O 0.86068 0.34271 0.44717 0.0
Cd322 Cd 0.85708 0.32959 0.46743 0.0
O323 O 0.84823 0.32391 0.48885 0.0
C324 C 0.85452 0.33367 0.49871 0.0
O325 O 0.86663 0.34616 0.49581 0.0
C326 C 0.85187 0.33841 0.43521 0.0
C327 C 0.85563 0.28644 0.44991 0.0
O328 O 0.86314 0.29921 0.45599 0.0
O329 O 0.8401 0.28298 0.44572 0.0
O330 O 0.51771 0.90052 0.78572 0.0
Cd331 Cd 0.50372 0.90536 0.76253 0.0
O332 O 0.50436 0.87605 0.78416 0.0
Cd333 Cd 0.48431 0.88035 0.77007 0.0
O334 O 0.46388 0.88871 0.77142 0.0
C335 C 0.44891 0.88191 0.76644 0.0
O336 O 0.44531 0.86955 0.759 0.0
C337 C 0.51595 0.8871 0.79021 0.0
C338 C 0.51826 0.8956 0.74157 0.0
O339 O 0.52396 0.90936 0.74567 0.0
O340 O 0.50525 0.88665 0.7469 0.0
O341 O 0.96399 0.14543 0.30286 0.0
Cd342 Cd 0.97567 0.14011 0.28185 0.0
O343 O 0.93811 0.13209 0.2954 0.0
Cd344 Cd 0.94272 0.12767 0.27378 0.0
O345 O 0.93307 0.12782 0.251 0.0
C346 C 0.93403 0.14064 0.2453 0.0
O347 O 0.94193 0.15283 0.25293 0.0
C348 C 0.94872 0.14016 0.30498 0.0
C349 C 0.00693 0.13827 0.29097 0.0
O350 O 0.00517 0.15095 0.2871 0.0
O351 O 0.99393 0.12637 0.29021 0.0
O352 O 0.59161 0.15207 0.72487 0.0
Cd353 Cd 0.56708 0.14584 0.73816 0.0
O354 O 0.58523 0.12888 0.71725 0.0
Cd355 Cd 0.56094 0.1216 0.7254 0.0
O356 O 0.53448 0.11828 0.72354 0.0
C357 C 0.52979 0.12771 0.71547 0.0
O358 O 0.54104 0.13895 0.70942 0.0
C359 C 0.59512 0.14248 0.71796 0.0
C360 C 0.57204 0.13559 0.76654 0.0
O361 O 0.56748 0.12646 0.75592 0.0
O362 O 0.5744 0.14962 0.76373 0.0
O363 O 0.09509 0.26331 0.97738 0.0
Cd364 Cd 0.10194 0.25147 0.00026 0.0
O365 O 0.0869 0.27933 0.98809 0.0
Cd366 Cd 0.09126 0.2719 0.01039 0.0
O367 O 0.09391 0.27803 0.03307 0.0
C368 C 0.08566 0.28635 0.03549 0.0
O369 O 0.07613 0.28965 0.02469 0.0
C370 C 0.08947 0.27418 0.97658 0.0
C371 C 0.11375 0.22842 0.99483 0.0
O372 O 0.09839 0.22554 0.99649 0.0
O373 O 0.12355 0.24216 0.99597 0.0
O374 O 0.38139 0.7199 0.46422 0.0
Cd375 Cd 0.37437 0.72607 0.48734 0.0
O376 O 0.40179 0.71204 0.47336 0.0
Cd377 Cd 0.39745 0.71359 0.4958 0.0
O378 O 0.3929 0.70519 0.51788 0.0
C379 C 0.39309 0.69189 0.52068 0.0
O380 O 0.39597 0.68441 0.51038 0.0
C381 C 0.39294 0.71487 0.46241 0.0
C382 C 0.36397 0.75115 0.48363 0.0
O383 O 0.37911 0.75267 0.48797 0.0
O384 O 0.35369 0.73775 0.48126 0.0
O385 O 0.81164 0.53502 0.88723 0.0
Cd386 Cd 0.78594 0.51325 0.88388 0.0
O387 O 0.80346 0.54547 0.9042 0.0
Cd388 Cd 0.77673 0.53325 0.90059 0.0
O389 O 0.75359 0.53837 0.89781 0.0
C390 C 0.74448 0.53642 0.8858 0.0
O391 O 0.74836 0.53004 0.87519 0.0
C392 C 0.8148 0.54504 0.89678 0.0
C393 C 0.79342 0.48676 0.89024 0.0
O394 O 0.79356 0.49235 0.87733 0.0
O395 O 0.78943 0.49351 0.90006 0.0
O396 O 0.66059 0.54351 0.13518 0.0
Cd397 Cd 0.68513 0.53781 0.13026 0.0
O398 O 0.66918 0.54915 0.15807 0.0
Cd399 Cd 0.69289 0.54653 0.15592 0.0
O400 O 0.71742 0.55093 0.14897 0.0
C401 C 0.72924 0.54887 0.15731 0.0
O402 O 0.72654 0.54345 0.1705 0.0
C403 C 0.65816 0.54754 0.14734 0.0
C404 C 0.68134 0.50751 0.13578 0.0
O405 O 0.68725 0.5173 0.1458 0.0
O406 O 0.67729 0.51206 0.1231 0.0
O407 O 0.71241 0.46877 0.3902 0.0
Cd408 Cd 0.73655 0.49198 0.39136 0.0
O409 O 0.6928 0.47902 0.38844 0.0
Cd410 Cd 0.70876 0.50215 0.39376 0.0
O411 O 0.71054 0.52238 0.4053 0.0
C412 C 0.70737 0.52005 0.41843 0.0
O413 O 0.70453 0.50638 0.42403 0.0
C414 C 0.69712 0.46741 0.38839 0.0
C415 C 0.76013 0.48622 0.37656 0.0
O416 O 0.74906 0.49109 0.36986 0.0
O417 O 0.76051 0.48462 0.39039 0.0
O418 O 0.83416 0.48488 0.66508 0.0
Cd419 Cd 0.84394 0.51136 0.67161 0.0
O420 O 0.81063 0.48636 0.65457 0.0
Cd421 Cd 0.78493 0.47628 0.64523 0.0
O422 O 0.75791 0.46706 0.64142 0.0
C423 C 0.75019 0.45493 0.64803 0.0
O424 O 0.75876 0.44809 0.65657 0.0
C425 C 0.81995 0.47859 0.6583 0.0
C426 C 0.84087 0.53113 0.64888 0.0
O427 O 0.85364 0.52698 0.65105 0.0
O428 O 0.82931 0.52561 0.65726 0.0
O429 O 0.49115 0.15946 0.22066 0.0
Cd430 Cd 0.50833 0.15395 0.2416 0.0
O431 O 0.47904 0.17144 0.23268 0.0
Cd432 Cd 0.49063 0.16737 0.25395 0.0
O433 O 0.49214 0.16275 0.27729 0.0
C434 C 0.48285 0.16719 0.28426 0.0
O435 O 0.4736 0.17435 0.27714 0.0
C436 C 0.48112 0.16666 0.22078 0.0
C437 C 0.53013 0.14141 0.23187 0.0
O438 O 0.5157 0.13301 0.23509 0.0
O439 O 0.53438 0.1557 0.23357 0.0
O440 O 0.96046 0.80169 0.74185 0.0
Cd441 Cd 0.9452 0.79676 0.76316 0.0
O442 O 0.95559 0.823 0.73858 0.0
Cd443 Cd 0.95536 0.84401 0.72742 0.0
O444 O 0.94565 0.8607 0.71628 0.0
C445 C 0.93006 0.85767 0.71596 0.0
O446 O 0.92123 0.84518 0.72238 0.0
C447 C 0.96248 0.81403 0.7348 0.0
C448 C 0.96847 0.80461 0.78738 0.0
O449 O 0.96313 0.79115 0.78248 0.0
O450 O 0.96245 0.81429 0.78105 0.0
O451 O 0.36675 0.83707 0.31942 0.0
Cd452 Cd 0.37857 0.82696 0.30145 0.0
O453 O 0.39156 0.8421 0.33076 0.0
Cd454 Cd 0.41239 0.84772 0.34776 0.0
O455 O 0.43763 0.8484 0.3552 0.0
C456 C 0.44193 0.8382 0.35017 0.0
O457 O 0.43096 0.82803 0.34166 0.0
C458 C 0.37682 0.84221 0.33054 0.0
C459 C 0.37136 0.83477 0.27274 0.0
O460 O 0.36194 0.8227 0.27861 0.0
O461 O 0.38401 0.84332 0.28056 0.0
O462 O 0.88117 0.70813 0.0522 0.0
Cd463 Cd 0.88065 0.72563 0.03176 0.0
O464 O 0.90213 0.7032 0.04486 0.0
Cd465 Cd 0.90421 0.71653 0.02472 0.0
O466 O 0.90923 0.7155 0.00236 0.0
C467 C 0.92374 0.716 0.00034 0.0
O468 O 0.93517 0.71854 0.01148 0.0
C469 C 0.89158 0.70119 0.05396 0.0
C470 C 0.87976 0.75347 0.03963 0.0
O471 O 0.86635 0.74213 0.03723 0.0
O472 O 0.8936 0.75158 0.03851 0.0
O473 O 0.59468 0.30015 0.56529 0.0
Cd474 Cd 0.59861 0.28429 0.54705 0.0
O475 O 0.57306 0.30383 0.55278 0.0
Cd476 Cd 0.57515 0.29216 0.5339 0.0
O477 O 0.58007 0.28957 0.51188 0.0
C478 C 0.59146 0.30047 0.50662 0.0
O479 O 0.5998 0.31214 0.5148 0.0
C480 C 0.58319 0.30586 0.56419 0.0
C481 C 0.61301 0.26374 0.55996 0.0
O482 O 0.62205 0.27675 0.55545 0.0
O483 O 0.59719 0.26044 0.55824 0.0
O484 O 0.16853 0.4883 0.10159 0.0
Cd485 Cd 0.18346 0.51234 0.08997 0.0
O486 O 0.1925 0.48544 0.10816 0.0
Cd487 Cd 0.20972 0.4737 0.11656 0.0
O488 O 0.23066 0.46681 0.1256 0.0
C489 C 0.23815 0.46125 0.1177 0.0
O490 O 0.23284 0.45918 0.10388 0.0
C491 C 0.17673 0.48035 0.1078 0.0
C492 C 0.18796 0.53807 0.10568 0.0
O493 O 0.17507 0.53261 0.09664 0.0
O494 O 0.19854 0.53117 0.1075 0.0
O495 O 0.29314 0.48399 0.92788 0.0
Cd496 Cd 0.28171 0.50207 0.93653 0.0
O497 O 0.27019 0.47633 0.91332 0.0
Cd498 Cd 0.25116 0.46266 0.89719 0.0
O499 O 0.22791 0.44639 0.88779 0.0
C500 C 0.21497 0.44534 0.8937 0.0
O501 O 0.21637 0.45425 0.90451 0.0
C502 C 0.28391 0.47478 0.91837 0.0
C503 C 0.30235 0.53226 0.9362 0.0
O504 O 0.30286 0.52373 0.94738 0.0
O505 O 0.29228 0.52642 0.92512 0.0
O506 O 0.26666 0.51025 0.61518 0.0
Cd507 Cd 0.24305 0.48754 0.60817 0.0
O508 O 0.25309 0.52025 0.62791 0.0
Cd509 Cd 0.22782 0.50458 0.62287 0.0
O510 O 0.20249 0.50487 0.62247 0.0
C511 C 0.20166 0.51568 0.62957 0.0
O512 O 0.2154 0.52481 0.63636 0.0
C513 C 0.26655 0.52064 0.62327 0.0
C514 C 0.25444 0.46361 0.60483 0.0
O515 O 0.25339 0.47267 0.59423 0.0
O516 O 0.24986 0.46572 0.61695 0.0
O517 O 0.20477 0.54446 0.3556 0.0
Cd518 Cd 0.22767 0.53836 0.34749 0.0
O519 O 0.20457 0.53068 0.37545 0.0
Cd520 Cd 0.19315 0.5174 0.39392 0.0
O521 O 0.18028 0.49706 0.40608 0.0
C522 C 0.16452 0.49237 0.40525 0.0
O523 O 0.15651 0.50046 0.39783 0.0
C524 C 0.19831 0.53898 0.3672 0.0
C525 C 0.25808 0.56184 0.35024 0.0
O526 O 0.24724 0.56149 0.33947 0.0
O527 O 0.25447 0.55119 0.35983 0.0
H528 H 0.12199 0.37326 0.1589 0.0
C529 C 0.11875 0.36587 0.14968 0.0
C530 C 0.12051 0.37209 0.13559 0.0
C531 C 0.11276 0.35011 0.15191 0.0
H532 H 0.11759 0.36707 0.11286 0.0
C533 C 0.11602 0.36237 0.12374 0.0
C534 C 0.11002 0.34661 0.12581 0.0
C535 C 0.10861 0.34056 0.13995 0.0
C536 C 0.11032 0.34353 0.16667 0.0
H537 H 0.10371 0.3284 0.14162 0.0
C538 C 0.10077 0.34803 0.17556 0.0
C539 C 0.09738 0.34101 0.18918 0.0
C540 C 0.11682 0.33217 0.17166 0.0
H541 H 0.12423 0.32854 0.16499 0.0
C542 C 0.11382 0.32541 0.1853 0.0
H543 H 0.09538 0.35651 0.17157 0.0
C544 C 0.1041 0.32972 0.194 0.0
H545 H 0.10186 0.32426 0.20452 0.0
H546 H 0.11892 0.3167 0.1891 0.0
H547 H 0.80615 0.90529 0.37429 0.0
C548 C 0.81345 0.90032 0.38189 0.0
C549 C 0.82024 0.90713 0.3953 0.0
C550 C 0.81619 0.88722 0.3781 0.0
H551 H 0.83445 0.9055 0.4156 0.0
C552 C 0.82973 0.90063 0.405 0.0
C553 C 0.83227 0.88733 0.40153 0.0
C554 C 0.82561 0.88078 0.38797 0.0
C555 C 0.80871 0.88005 0.36401 0.0
H556 H 0.82746 0.87049 0.3852 0.0
C557 C 0.81863 0.87701 0.35443 0.0
C558 C 0.81154 0.87054 0.34086 0.0
C559 C 0.7916 0.87642 0.36002 0.0
H560 H 0.78373 0.87862 0.36726 0.0
C561 C 0.78447 0.86977 0.34671 0.0
H562 H 0.83185 0.87984 0.35748 0.0
C563 C 0.79434 0.86686 0.33716 0.0
H564 H 0.78854 0.86203 0.32675 0.0
H565 H 0.77126 0.86698 0.34372 0.0
H566 H 0.36294 0.62311 0.65652 0.0
C567 C 0.36566 0.62821 0.64593 0.0
C568 C 0.35906 0.61959 0.63337 0.0
C569 C 0.37532 0.64358 0.64485 0.0
H570 H 0.35716 0.62007 0.60997 0.0
C571 C 0.36265 0.62647 0.61972 0.0
C572 C 0.37242 0.6418 0.6185 0.0
C573 C 0.37869 0.65025 0.63115 0.0
C574 C 0.38127 0.65297 0.65793 0.0
H575 H 0.38634 0.66207 0.63037 0.0
C576 C 0.39058 0.64876 0.66979 0.0
C577 C 0.39681 0.65816 0.6819 0.0
C578 C 0.37791 0.66649 0.65841 0.0
H579 H 0.37067 0.66989 0.64943 0.0
C580 C 0.38373 0.67566 0.6705 0.0
H581 H 0.39346 0.63848 0.66932 0.0
C582 C 0.39315 0.67158 0.68216 0.0
H583 H 0.39748 0.6789 0.69143 0.0
H584 H 0.38099 0.68601 0.67081 0.0
H585 H 0.58263 0.07887 0.90785 0.0
C586 C 0.58221 0.08327 0.89683 0.0
C587 C 0.59408 0.08294 0.88778 0.0
C588 C 0.56959 0.08907 0.89165 0.0
H589 H 0.60232 0.08843 0.86639 0.0
C590 C 0.59331 0.08872 0.87351 0.0
C591 C 0.58094 0.09479 0.86827 0.0
C592 C 0.56908 0.09487 0.8774 0.0
C593 C 0.55659 0.08865 0.90094 0.0
H594 H 0.55933 0.09932 0.87339 0.0
C595 C 0.56089 0.09474 0.91491 0.0
C596 C 0.54848 0.09459 0.92361 0.0
C597 C 0.53975 0.08221 0.89575 0.0
H598 H 0.53615 0.07737 0.88506 0.0
C599 C 0.5274 0.08176 0.90441 0.0
H600 H 0.57389 0.10005 0.91876 0.0
C601 C 0.53168 0.08789 0.91823 0.0
H602 H 0.52182 0.08731 0.92474 0.0
H603 H 0.51444 0.07666 0.90038 0.0
H604 H 0.0935 0.55776 0.40207 0.0
C605 C 0.08914 0.56272 0.39231 0.0
C606 C 0.09678 0.5638 0.37951 0.0
C607 C 0.07521 0.56725 0.39233 0.0
H608 H 0.09674 0.57129 0.35709 0.0
C609 C 0.09063 0.56994 0.36691 0.0
C610 C 0.07677 0.57451 0.36679 0.0
C611 C 0.0691 0.57315 0.37957 0.0
C612 C 0.06618 0.56475 0.40532 0.0
H613 H 0.05818 0.57638 0.37954 0.0
C614 C 0.07337 0.57309 0.41794 0.0
C615 C 0.06439 0.57096 0.43012 0.0
C616 C 0.05005 0.55414 0.40495 0.0
H617 H 0.04433 0.54765 0.39529 0.0
C618 C 0.04122 0.55178 0.41705 0.0
H619 H 0.08582 0.58131 0.41818 0.0
C620 C 0.04829 0.56013 0.42955 0.0
H621 H 0.04096 0.55836 0.43864 0.0
H622 H 0.02878 0.54358 0.41669 0.0
H623 H 0.62289 0.88364 0.6634 0.0
C624 C 0.62127 0.87556 0.65502 0.0
C625 C 0.62707 0.88066 0.64146 0.0
C626 C 0.61378 0.86001 0.65792 0.0
H627 H 0.62889 0.87393 0.62008 0.0
C628 C 0.62483 0.87008 0.63069 0.0
C629 C 0.61719 0.85456 0.63337 0.0
C630 C 0.61195 0.84957 0.64708 0.0
C631 C 0.60745 0.85458 0.67212 0.0
H632 H 0.60582 0.8376 0.64911 0.0
C633 C 0.59716 0.86102 0.67803 0.0
C634 C 0.59031 0.85529 0.69109 0.0
C635 C 0.6111 0.84251 0.67952 0.0
H636 H 0.61906 0.83742 0.67521 0.0
C637 C 0.60457 0.83696 0.6926 0.0
H638 H 0.59398 0.87008 0.67217 0.0
C639 C 0.59419 0.84324 0.69834 0.0
H640 H 0.58929 0.83873 0.70851 0.0
H641 H 0.6075 0.8277 0.69827 0.0
H642 H 0.30867 0.37963 0.88173 0.0
C643 C 0.31253 0.37555 0.8922 0.0
C644 C 0.3154 0.38447 0.90453 0.0
C645 C 0.31407 0.36115 0.89347 0.0
H646 H 0.32175 0.38554 0.92771 0.0
C647 C 0.31991 0.37887 0.91812 0.0
C648 C 0.32143 0.3645 0.91955 0.0
C649 C 0.31869 0.35579 0.90716 0.0
C650 C 0.30975 0.35112 0.88081 0.0
H651 H 0.31961 0.34458 0.90823 0.0
C652 C 0.31695 0.35608 0.86775 0.0
C653 C 0.31335 0.34614 0.85604 0.0
C654 C 0.2986 0.33628 0.88198 0.0
H655 H 0.29279 0.33225 0.89187 0.0
C656 C 0.29481 0.32647 0.87041 0.0
H657 H 0.32549 0.36756 0.86682 0.0
C658 C 0.30218 0.33129 0.85758 0.0
H659 H 0.29939 0.32321 0.849 0.0
H660 H 0.28628 0.31502 0.87145 0.0
H661 H 0.82247 0.11209 0.1321 0.0
C662 C 0.8268 0.11857 0.12243 0.0
C663 C 0.82409 0.11132 0.10909 0.0
C664 C 0.83512 0.13422 0.12334 0.0
H665 H 0.82776 0.1145 0.08636 0.0
C666 C 0.83008 0.11993 0.09676 0.0
C667 C 0.83858 0.13558 0.09759 0.0
C668 C 0.84086 0.14268 0.11092 0.0
C669 C 0.838 0.14188 0.13728 0.0
H670 H 0.84752 0.15473 0.11177 0.0
C671 C 0.84967 0.13976 0.14828 0.0
C672 C 0.85337 0.14796 0.16119 0.0
C673 C 0.82977 0.152 0.13928 0.0
H674 H 0.82083 0.1538 0.13084 0.0
C675 C 0.83307 0.15986 0.15219 0.0
H676 H 0.85631 0.13223 0.14652 0.0
C677 C 0.84482 0.15792 0.16307 0.0
H678 H 0.8472 0.1642 0.17297 0.0
H679 H 0.82662 0.1676 0.15373 0.0
H680 H 0.14927 0.13445 0.37442 0.0
C681 C 0.1386 0.13418 0.36687 0.0
C682 C 0.1263 0.1391 0.37137 0.0
C683 C 0.13761 0.12973 0.35246 0.0
H684 H 0.10323 0.14296 0.36478 0.0
C685 C 0.1129 0.13939 0.36137 0.0
C686 C 0.11158 0.1348 0.34707 0.0
C687 C 0.12381 0.12978 0.34272 0.0
C688 C 0.15157 0.12624 0.34723 0.0
H689 H 0.12279 0.1263 0.33162 0.0
C690 C 0.15998 0.11778 0.35583 0.0
C691 C 0.17384 0.1155 0.35105 0.0
C692 C 0.15705 0.13207 0.3337 0.0
H693 H 0.1511 0.13885 0.32694 0.0
C694 C 0.17064 0.12963 0.32889 0.0
H695 H 0.15597 0.11319 0.36628 0.0
C696 C 0.17907 0.12149 0.33753 0.0
H697 H 0.1897 0.11984 0.33365 0.0
H698 H 0.1748 0.13425 0.3185 0.0
H699 H 0.05665 0.81529 0.67806 0.0
C700 C 0.06318 0.82646 0.67383 0.0
C701 C 0.05647 0.83809 0.67405 0.0
C702 C 0.07873 0.8293 0.66879 0.0
H703 H 0.06069 0.86175 0.66933 0.0
C704 C 0.06557 0.85262 0.66904 0.0
C705 C 0.0814 0.85572 0.66448 0.0
C706 C 0.08782 0.84394 0.66416 0.0
C707 C 0.0862 0.8173 0.66981 0.0
H708 H 0.10013 0.84627 0.66084 0.0
C709 C 0.08951 0.8116 0.65728 0.0
C710 C 0.09663 0.80014 0.65842 0.0
C711 C 0.09008 0.81153 0.68348 0.0
H712 H 0.08762 0.8158 0.69325 0.0
C713 C 0.09734 0.80033 0.68468 0.0
H714 H 0.08647 0.81603 0.64671 0.0
C715 C 0.10061 0.79466 0.67225 0.0
H716 H 0.10595 0.78575 0.67345 0.0
H717 H 0.10034 0.79596 0.69526 0.0
H718 H 0.32535 0.89065 0.84226 0.0
C719 C 0.3352 0.89225 0.83541 0.0
C720 C 0.34835 0.88696 0.84019 0.0
C721 C 0.33425 0.89883 0.82148 0.0
H722 H 0.37115 0.88494 0.83476 0.0
C723 C 0.36088 0.88884 0.83111 0.0
C724 C 0.36014 0.89541 0.81724 0.0
C725 C 0.34676 0.90026 0.81242 0.0
C726 C 0.31992 0.90371 0.81612 0.0
H727 H 0.34623 0.90537 0.8017 0.0
C728 C 0.31405 0.91202 0.82495 0.0
C729 C 0.3006 0.9168 0.8197 0.0
C730 C 0.31208 0.90007 0.80202 0.0
H731 H 0.31617 0.89351 0.79506 0.0
C732 C 0.29869 0.90465 0.79682 0.0
H733 H 0.32023 0.91511 0.83573 0.0
C734 C 0.29297 0.91294 0.80556 0.0
H735 H 0.28239 0.91615 0.80129 0.0
H736 H 0.29266 0.90169 0.78598 0.0
H737 H 0.38581 0.1724 0.13703 0.0
C738 C 0.38114 0.16023 0.13586 0.0
C739 C 0.3909 0.15168 0.14187 0.0
C740 C 0.36513 0.15305 0.12885 0.0
H741 H 0.39183 0.12921 0.14575 0.0
C742 C 0.38452 0.13587 0.14081 0.0
C743 C 0.36851 0.12849 0.13411 0.0
C744 C 0.35903 0.13718 0.1279 0.0
C745 C 0.35426 0.1619 0.12339 0.0
H746 H 0.34662 0.13153 0.12275 0.0
C747 C 0.36054 0.17573 0.11577 0.0
C748 C 0.35001 0.18387 0.11047 0.0
C749 C 0.33738 0.15647 0.12586 0.0
H750 H 0.33224 0.14607 0.13196 0.0
C751 C 0.32696 0.16451 0.12068 0.0
H752 H 0.37347 0.17996 0.11367 0.0
C753 C 0.33317 0.17809 0.11302 0.0
H754 H 0.32484 0.18421 0.10932 0.0
H755 H 0.31401 0.16025 0.1227 0.0
H756 H 0.08754 0.9001 0.11968 0.0
C757 C 0.09928 0.9082 0.12398 0.0
C758 C 0.1132 0.90363 0.12717 0.0
C759 C 0.10064 0.9233 0.12594 0.0
H760 H 0.1393 0.91084 0.13454 0.0
C761 C 0.12839 0.91419 0.13256 0.0
C762 C 0.13005 0.92934 0.13423 0.0
C763 C 0.11617 0.93388 0.13086 0.0
C764 C 0.08595 0.92813 0.12258 0.0
H765 H 0.11745 0.9456 0.13216 0.0
C766 C 0.07077 0.91977 0.12798 0.0
C767 C 0.05691 0.92455 0.1252 0.0
C768 C 0.08712 0.94125 0.11416 0.0
H769 H 0.09864 0.94783 0.10979 0.0
C770 C 0.07337 0.94593 0.11117 0.0
H771 H 0.06983 0.90964 0.13447 0.0
C772 C 0.05837 0.93769 0.11667 0.0
H773 H 0.04804 0.9418 0.11448 0.0
H774 H 0.07439 0.95606 0.10468 0.0
H775 H 0.34555 0.88172 0.42678 0.0
C776 C 0.34353 0.87101 0.43254 0.0
C777 C 0.34336 0.85842 0.42504 0.0
C778 C 0.34144 0.86983 0.44746 0.0
H779 H 0.342 0.83517 0.42686 0.0
C780 C 0.34137 0.84467 0.43253 0.0
C781 C 0.33985 0.84337 0.44743 0.0
C782 C 0.33961 0.85588 0.45478 0.0
C783 C 0.34168 0.88315 0.45558 0.0
H784 H 0.338 0.85465 0.46624 0.0
C785 C 0.33456 0.89372 0.44911 0.0
C786 C 0.3345 0.90608 0.45701 0.0
C787 C 0.349 0.8853 0.47 0.0
H788 H 0.35505 0.87775 0.47522 0.0
C789 C 0.34875 0.89731 0.47792 0.0
H790 H 0.32908 0.89232 0.43797 0.0
C791 C 0.34146 0.90753 0.47157 0.0
H792 H 0.34121 0.91653 0.47817 0.0
H793 H 0.35424 0.89869 0.48906 0.0
H794 H 0.39745 0.13529 0.65237 0.0
C795 C 0.38456 0.13249 0.65429 0.0
C796 C 0.37568 0.14194 0.64858 0.0
C797 C 0.37668 0.1191 0.66196 0.0
H798 H 0.35175 0.14489 0.64617 0.0
C799 C 0.35884 0.13793 0.65084 0.0
C800 C 0.35082 0.12466 0.65853 0.0
C801 C 0.35989 0.11543 0.6642 0.0
C802 C 0.38551 0.10835 0.66675 0.0
H803 H 0.35368 0.10503 0.66994 0.0
C804 C 0.40192 0.11347 0.67349 0.0
C805 C 0.41014 0.10314 0.67804 0.0
C806 C 0.37748 0.09277 0.66448 0.0
H807 H 0.36498 0.0885 0.65908 0.0
C808 C 0.38557 0.08253 0.66891 0.0
H809 H 0.40813 0.12542 0.67547 0.0
C810 C 0.40177 0.08763 0.67565 0.0
H811 H 0.40784 0.07944 0.67876 0.0
H812 H 0.3793 0.07058 0.66703 0.0
H813 H 0.13499 0.1171 0.9208 0.0
C814 C 0.13636 0.1258 0.92846 0.0
C815 C 0.13296 0.13891 0.9235 0.0
C816 C 0.14071 0.1236 0.94332 0.0
H817 H 0.13172 0.16014 0.92978 0.0
C818 C 0.13425 0.14996 0.9335 0.0
C819 C 0.13836 0.14792 0.9483 0.0
C820 C 0.1416 0.13477 0.95318 0.0
C821 C 0.14377 0.10946 0.94863 0.0
H822 H 0.14499 0.13339 0.96464 0.0
C823 C 0.15181 0.10247 0.94041 0.0
C824 C 0.15449 0.08901 0.9454 0.0
C825 C 0.13846 0.10274 0.96195 0.0
H826 H 0.13188 0.10753 0.96841 0.0
C827 C 0.14126 0.08953 0.96701 0.0
H828 H 0.15622 0.10759 0.93024 0.0
C829 C 0.1492 0.08269 0.95883 0.0
H830 H 0.15082 0.07223 0.96287 0.0
H831 H 0.13705 0.08445 0.97725 0.0
H832 H 0.84628 0.37666 0.88611 0.0
C833 C 0.84422 0.36654 0.89286 0.0
C834 C 0.84156 0.35261 0.88647 0.0
C835 C 0.8448 0.36746 0.908 0.0
H836 H 0.83791 0.329 0.89044 0.0
C837 C 0.83929 0.33962 0.8953 0.0
C838 C 0.84015 0.34039 0.91041 0.0
C839 C 0.84284 0.35433 0.91669 0.0
C840 C 0.84839 0.38222 0.91494 0.0
H841 H 0.84347 0.35496 0.92838 0.0
C842 C 0.83961 0.392 0.90998 0.0
C843 C 0.84262 0.40564 0.91715 0.0
C844 C 0.8605 0.3864 0.9269 0.0
H845 H 0.86757 0.37918 0.93082 0.0
C846 C 0.86373 0.39999 0.93384 0.0
H847 H 0.83008 0.38876 0.9009 0.0
C848 C 0.85484 0.40952 0.92907 0.0
H849 H 0.85765 0.42004 0.93464 0.0
H850 H 0.87313 0.40313 0.943 0.0
H851 H 0.89074 0.60523 0.11802 0.0
C852 C 0.87808 0.60063 0.12084 0.0
C853 C 0.86746 0.60919 0.11823 0.0
C854 C 0.87232 0.58591 0.12672 0.0
H855 H 0.84275 0.60932 0.12015 0.0
C856 C 0.85112 0.60293 0.12214 0.0
C857 C 0.84537 0.58837 0.12841 0.0
C858 C 0.85602 0.57989 0.13051 0.0
C859 C 0.88306 0.57652 0.12841 0.0
H860 H 0.85158 0.56849 0.135 0.0
C861 C 0.89869 0.58161 0.13653 0.0
C862 C 0.90873 0.57249 0.13834 0.0
C863 C 0.87757 0.56226 0.12199 0.0
H864 H 0.86557 0.55814 0.11566 0.0
C865 C 0.88758 0.55327 0.12357 0.0
H866 H 0.90293 0.5926 0.14152 0.0
C867 C 0.90306 0.55832 0.13169 0.0
H868 H 0.91046 0.55101 0.13301 0.0
H869 H 0.88327 0.54231 0.11857 0.0
H870 H 0.64643 0.61099 0.44145 0.0
C871 C 0.64545 0.62015 0.44736 0.0
C872 C 0.6378 0.62986 0.44001 0.0
C873 C 0.65127 0.62203 0.46225 0.0
H874 H 0.62972 0.64882 0.44213 0.0
C875 C 0.63547 0.64119 0.44772 0.0
C876 C 0.64098 0.64322 0.46247 0.0
C877 C 0.64934 0.63399 0.46953 0.0
C878 C 0.65884 0.61135 0.47035 0.0
H879 H 0.65403 0.63608 0.48081 0.0
C880 C 0.66692 0.6034 0.46325 0.0
C881 C 0.67341 0.59297 0.47092 0.0
C882 C 0.65761 0.60868 0.48536 0.0
H883 H 0.65093 0.61387 0.49126 0.0
C884 C 0.66471 0.59897 0.49309 0.0
H885 H 0.66792 0.60504 0.45174 0.0
C886 C 0.6726 0.59122 0.48598 0.0
H887 H 0.67791 0.58369 0.49231 0.0
H888 H 0.66384 0.59724 0.50463 0.0
H889 H 0.84287 0.41293 0.34571 0.0
C890 C 0.85422 0.41425 0.34098 0.0
C891 C 0.8655 0.40776 0.34813 0.0
C892 C 0.85749 0.42227 0.32773 0.0
H893 H 0.88843 0.40367 0.34709 0.0
C894 C 0.87999 0.40914 0.34188 0.0
C895 C 0.88325 0.41667 0.32853 0.0
C896 C 0.87207 0.42332 0.32158 0.0
C897 C 0.84569 0.42938 0.32018 0.0
H898 H 0.87492 0.42945 0.31144 0.0
C899 C 0.83721 0.43625 0.32807 0.0
C900 C 0.82634 0.44326 0.32088 0.0
C901 C 0.84296 0.42948 0.30495 0.0
H902 H 0.84887 0.424 0.29851 0.0
C903 C 0.83243 0.43657 0.29777 0.0
H904 H 0.83907 0.43612 0.3398 0.0
C905 C 0.82427 0.44348 0.30562 0.0
H906 H 0.81641 0.44909 0.29967 0.0
H907 H 0.83058 0.43669 0.28604 0.0
H908 H 0.66259 0.626 0.88913 0.0
C909 C 0.65064 0.62574 0.88378 0.0
C910 C 0.64043 0.63129 0.8909 0.0
C911 C 0.64567 0.62041 0.86954 0.0
H912 H 0.61759 0.63609 0.88911 0.0
C913 C 0.62527 0.63148 0.88373 0.0
C914 C 0.62028 0.62646 0.86945 0.0
C915 C 0.6304 0.62069 0.86252 0.0
C916 C 0.6569 0.61575 0.86141 0.0
H917 H 0.6267 0.61695 0.85143 0.0
C918 C 0.66415 0.60507 0.86722 0.0
C919 C 0.67412 0.60028 0.85896 0.0
C920 C 0.66013 0.62189 0.84746 0.0
H921 H 0.6549 0.63027 0.84282 0.0
C922 C 0.67024 0.61742 0.83939 0.0
H923 H 0.66156 0.60015 0.8779 0.0
C924 C 0.67715 0.60667 0.84505 0.0
H925 H 0.68503 0.60346 0.83856 0.0
H926 H 0.67271 0.62229 0.8287 0.0
H927 H 0.93657 0.62601 0.89449 0.0
C928 C 0.93596 0.63486 0.90112 0.0
C929 C 0.92148 0.63291 0.90777 0.0
C930 C 0.95001 0.64793 0.90358 0.0
H931 H 0.90994 0.64314 0.92156 0.0
C932 C 0.92108 0.64448 0.91648 0.0
C933 C 0.93499 0.65763 0.91898 0.0
C934 C 0.94947 0.65921 0.91256 0.0
C935 C 0.96548 0.64976 0.89709 0.0
H936 H 0.96029 0.66932 0.91436 0.0
C937 C 0.96544 0.6493 0.88199 0.0
C938 C 0.98037 0.65199 0.87573 0.0
C939 C 0.98048 0.65255 0.906 0.0
H940 H 0.98076 0.65294 0.91767 0.0
C941 C -0.00476 0.65483 0.89992 0.0
H942 H 0.95383 0.64714 0.87514 0.0
C943 C -0.00476 0.65464 0.88491 0.0
H944 H 0.00697 0.65697 0.88048 0.0
H945 H 0.00676 0.657 0.90687 0.0
H946 H 0.16551 0.13728 0.65023 0.0
C947 C 0.16138 0.14063 0.65967 0.0
C948 C 0.15496 0.12989 0.67057 0.0
C949 C 0.16309 0.15586 0.661 0.0
H950 H 0.14509 0.12656 0.69136 0.0
C951 C 0.15018 0.13467 0.68291 0.0
C952 C 0.15205 0.14995 0.68448 0.0
C953 C 0.15853 0.16045 0.67347 0.0
C954 C 0.16938 0.16694 0.64922 0.0
H955 H 0.1596 0.17217 0.67441 0.0
C956 C 0.16263 0.16365 0.63477 0.0
C957 C 0.16813 0.17424 0.62351 0.0
C958 C 0.18182 0.18094 0.65235 0.0
H959 H 0.18726 0.18371 0.66339 0.0
C960 C 0.18748 0.19143 0.64123 0.0
H961 H 0.15268 0.15304 0.6324 0.0
C962 C 0.18069 0.18815 0.6269 0.0
H963 H 0.18534 0.19646 0.61847 0.0
H964 H 0.19716 0.20216 0.64372 0.0
H965 H 0.62198 0.35226 0.38327 0.0
C966 C 0.61238 0.35169 0.37446 0.0
C967 C 0.61172 0.36501 0.36722 0.0
C968 C 0.6008 0.33757 0.37032 0.0
H969 H 0.59889 0.37421 0.34991 0.0
C970 C 0.59913 0.36404 0.35584 0.0
C971 C 0.58729 0.34999 0.35168 0.0
C972 C 0.58827 0.33682 0.35901 0.0
C973 C 0.60173 0.32352 0.37775 0.0
H974 H 0.57908 0.32592 0.35613 0.0
C975 C 0.6026 0.32218 0.39295 0.0
C976 C 0.6028 0.30862 0.40003 0.0
C977 C 0.60133 0.31125 0.36964 0.0
H978 H 0.60074 0.31206 0.35792 0.0
C979 C 0.60183 0.29788 0.37661 0.0
H980 H 0.60245 0.33149 0.39919 0.0
C981 C 0.60251 0.29651 0.3917 0.0
H982 H 0.60286 0.28601 0.39685 0.0
H983 H 0.60161 0.2885 0.37028 0.0
H984 H 0.33961 0.86312 0.12542 0.0
C985 C 0.34288 0.86112 0.13678 0.0
C986 C 0.34515 0.87243 0.14687 0.0
C987 C 0.34434 0.84709 0.14131 0.0
H988 H 0.35009 0.8779 0.16959 0.0
C989 C 0.34905 0.86957 0.16163 0.0
C990 C 0.35062 0.85568 0.16635 0.0
C991 C 0.34842 0.84458 0.15611 0.0
C992 C 0.34086 0.83478 0.13076 0.0
H993 H 0.34992 0.83395 0.1597 0.0
C994 C 0.34608 0.83796 0.11675 0.0
C995 C 0.34239 0.82633 0.10667 0.0
C996 C 0.33196 0.81974 0.13462 0.0
H997 H 0.32745 0.81692 0.14519 0.0
C998 C 0.32842 0.80817 0.12474 0.0
H999 H 0.35324 0.84944 0.11374 0.0
C1000 C 0.33354 0.8114 0.11086 0.0
H1001 H 0.33024 0.80224 0.10331 0.0
H1002 H 0.32147 0.79666 0.12781 0.0
H1003 H 0.78808 0.3693 0.61445 0.0
C1004 C 0.79473 0.36425 0.62259 0.0
C1005 C 0.80206 0.37177 0.63561 0.0
C1006 C 0.796 0.35019 0.61994 0.0
H1007 H 0.81622 0.3705 0.6561 0.0
C1008 C 0.81047 0.36485 0.64602 0.0
C1009 C 0.81143 0.35061 0.64369 0.0
C1010 C 0.80429 0.34338 0.63052 0.0
C1011 C 0.7887 0.34267 0.60603 0.0
H1012 H 0.80508 0.33244 0.62852 0.0
C1013 C 0.79895 0.34016 0.59648 0.0
C1014 C 0.7922 0.33376 0.58283 0.0
C1015 C 0.77155 0.33848 0.60204 0.0
H1016 H 0.76348 0.34038 0.60927 0.0
C1017 C 0.7647 0.33175 0.5887 0.0
H1018 H 0.81221 0.34347 0.59961 0.0
C1019 C 0.77492 0.32945 0.57912 0.0
H1020 H 0.76933 0.32469 0.56864 0.0
H1021 H 0.75145 0.32854 0.58568 0.0
H1022 H 0.42783 0.12241 0.40609 0.0
C1023 C 0.42816 0.13041 0.41415 0.0
C1024 C 0.41354 0.12933 0.42014 0.0
C1025 C 0.44324 0.14178 0.41854 0.0
H1026 H 0.403 0.13893 0.43537 0.0
C1027 C 0.41415 0.13993 0.43045 0.0
C1028 C 0.42913 0.15142 0.43489 0.0
C1029 C 0.44366 0.15218 0.42894 0.0
C1030 C 0.4586 0.143 0.41215 0.0
H1031 H 0.45528 0.16111 0.4321 0.0
C1032 C 0.45913 0.1444 0.39705 0.0
C1033 C 0.47398 0.14641 0.39093 0.0
C1034 C 0.47295 0.1433 0.42115 0.0
H1035 H 0.4728 0.14224 0.43282 0.0
C1036 C 0.48759 0.1449 0.41514 0.0
H1037 H 0.44804 0.14419 0.39013 0.0
C1038 C 0.48816 0.1465 0.40015 0.0
H1039 H 0.49982 0.14819 0.39582 0.0
H1040 H 0.49861 0.14511 0.42215 0.0
H1041 H 0.58053 0.61294 0.15942 0.0
C1042 C 0.58491 0.61918 0.14965 0.0
C1043 C 0.59251 0.6131 0.14025 0.0
C1044 C 0.58291 0.63326 0.14646 0.0
H1045 H 0.60467 0.61687 0.12068 0.0
C1046 C 0.59836 0.62133 0.12775 0.0
C1047 C 0.59691 0.63557 0.12459 0.0
C1048 C 0.58881 0.64134 0.13382 0.0
C1049 C 0.5755 0.63994 0.15671 0.0
H1050 H 0.5879 0.65246 0.13159 0.0
C1051 C 0.58093 0.64036 0.17162 0.0
C1052 C 0.57455 0.6473 0.18138 0.0
C1053 C 0.56334 0.64632 0.15162 0.0
H1054 H 0.55891 0.64608 0.1402 0.0
C1055 C 0.55672 0.65297 0.16125 0.0
H1056 H 0.59033 0.63546 0.17556 0.0
C1057 C 0.56229 0.65352 0.17601 0.0
H1058 H 0.55727 0.65915 0.18314 0.0
H1059 H 0.54736 0.65787 0.15723 0.0
H1060 H 0.09698 0.84182 0.89954 0.0
C1061 C 0.087 0.83926 0.8908 0.0
C1062 C 0.08684 0.85019 0.87986 0.0
C1063 C 0.07443 0.82501 0.89049 0.0
H1064 H 0.07388 0.85493 0.85988 0.0
C1065 C 0.07385 0.84672 0.86855 0.0
C1066 C 0.06122 0.83248 0.86805 0.0
C1067 C 0.06157 0.82178 0.87913 0.0
C1068 C 0.07473 0.81339 0.90191 0.0
H1069 H 0.05162 0.81093 0.87904 0.0
C1070 C 0.07857 0.81731 0.91661 0.0
C1071 C 0.07865 0.80626 0.92746 0.0
C1072 C 0.07103 0.79826 0.89814 0.0
H1073 H 0.06824 0.79494 0.88689 0.0
C1074 C 0.07111 0.78727 0.90883 0.0
H1075 H 0.08109 0.82889 0.91965 0.0
C1076 C 0.07488 0.7912 0.9234 0.0
H1077 H 0.07509 0.78248 0.93146 0.0
H1078 H 0.06833 0.77566 0.90581 0.0
H1079 H 0.85747 0.93161 0.61198 0.0
C1080 C 0.86255 0.92691 0.62154 0.0
C1081 C 0.86393 0.91254 0.621 0.0
C1082 C 0.86782 0.93525 0.63438 0.0
H1083 H 0.87182 0.89554 0.633 0.0
C1084 C 0.87044 0.90651 0.63343 0.0
C1085 C 0.87598 0.91477 0.64621 0.0
C1086 C 0.87481 0.92922 0.64661 0.0
C1087 C 0.86581 0.95016 0.63511 0.0
H1088 H 0.87891 0.93556 0.65655 0.0
C1089 C 0.85035 0.95183 0.63072 0.0
C1090 C 0.84811 0.9658 0.63195 0.0
C1091 C 0.87915 0.96267 0.64062 0.0
H1092 H 0.89118 0.96167 0.64403 0.0
C1093 C 0.8771 0.97662 0.64165 0.0
H1094 H 0.83992 0.94208 0.62685 0.0
C1095 C 0.8617 0.9782 0.63739 0.0
H1096 H 0.86046 0.98916 0.63827 0.0
H1097 H 0.88748 0.98623 0.64581 0.0
H1098 H 0.9267 0.18653 0.39925 0.0
C1099 C 0.91654 0.17728 0.40325 0.0
C1100 C 0.9094 0.16392 0.39531 0.0
C1101 C 0.91043 0.17886 0.41623 0.0
H1102 H 0.89117 0.14149 0.39496 0.0
C1103 C 0.89626 0.15208 0.40067 0.0
C1104 C 0.89021 0.1534 0.41373 0.0
C1105 C 0.89726 0.16691 0.42143 0.0
C1106 C 0.91824 0.19284 0.42462 0.0
H1107 H 0.89273 0.16803 0.43158 0.0
C1108 C 0.90903 0.20203 0.42714 0.0
C1109 C 0.91656 0.21548 0.43502 0.0
C1110 C 0.93503 0.19705 0.43006 0.0
H1111 H 0.9423 0.19009 0.42821 0.0
C1112 C 0.94248 0.21014 0.43812 0.0
H1113 H 0.89619 0.1989 0.42255 0.0
C1114 C 0.93335 0.21928 0.44063 0.0
H1115 H 0.93947 0.22928 0.44706 0.0
H1116 H 0.9554 0.21323 0.44245 0.0
H1117 H 0.60334 0.0907 0.13302 0.0
C1118 C 0.60011 0.09407 0.14291 0.0
C1119 C 0.59876 0.10843 0.14356 0.0
C1120 C 0.5969 0.08393 0.15484 0.0
H1121 H 0.59239 0.12344 0.1565 0.0
C1122 C 0.59416 0.11261 0.15624 0.0
C1123 C 0.59067 0.10262 0.16817 0.0
C1124 C 0.59216 0.08832 0.16742 0.0
C1125 C 0.59783 0.06856 0.15398 0.0
H1126 H 0.58966 0.08061 0.17667 0.0
C1127 C 0.61104 0.06636 0.14787 0.0
C1128 C 0.61179 0.05175 0.14696 0.0
C1129 C 0.58536 0.05593 0.15918 0.0
H1130 H 0.57493 0.05722 0.16375 0.0
C1131 C 0.58606 0.04144 0.15833 0.0
H1132 H 0.62072 0.07602 0.14382 0.0
C1133 C 0.59915 0.03933 0.15227 0.0
H1134 H 0.59948 0.02798 0.15191 0.0
H1135 H 0.57639 0.0318 0.16237 0.0
H1136 H 0.57129 0.84571 0.88153 0.0
C1137 C 0.58272 0.85467 0.88508 0.0
C1138 C 0.58772 0.86828 0.87705 0.0
C1139 C 0.59215 0.85261 0.8979 0.0
H1140 H 0.60629 0.89044 0.87595 0.0
C1141 C 0.6024 0.87984 0.882 0.0
C1142 C 0.61183 0.87811 0.89493 0.0
C1143 C 0.60671 0.86436 0.90279 0.0
C1144 C 0.58626 0.83835 0.90641 0.0
H1145 H 0.61382 0.86293 0.91284 0.0
C1146 C 0.59656 0.82964 0.91008 0.0
C1147 C 0.59047 0.81558 0.91733 0.0
C1148 C 0.56997 0.8331 0.91039 0.0
H1149 H 0.56186 0.83967 0.90772 0.0
C1150 C 0.56402 0.81936 0.91787 0.0
H1151 H 0.60902 0.83352 0.90676 0.0
C1152 C 0.57414 0.81061 0.92128 0.0
H1153 H 0.56921 0.79996 0.92707 0.0
H1154 H 0.55147 0.81543 0.92095 0.0
H1155 H 0.89027 0.1384 0.85973 0.0
C1156 C 0.88061 0.12817 0.86283 0.0
C1157 C 0.87353 0.12772 0.87577 0.0
C1158 C 0.87509 0.11553 0.8538 0.0
H1159 H 0.85497 0.11457 0.8894 0.0
C1160 C 0.8608 0.11462 0.87965 0.0
C1161 C 0.85486 0.102 0.87065 0.0
C1162 C 0.86219 0.10251 0.85778 0.0
C1163 C 0.88252 0.116 0.84006 0.0
H1164 H 0.85791 0.09272 0.8509 0.0
C1165 C 0.89987 0.12181 0.8397 0.0
C1166 C 0.90694 0.1222 0.82668 0.0
C1167 C 0.87228 0.1106 0.82723 0.0
H1168 H 0.85888 0.10621 0.82716 0.0
C1169 C 0.87921 0.11101 0.81429 0.0
H1170 H 0.90785 0.12599 0.84955 0.0
C1171 C 0.89641 0.11676 0.81399 0.0
H1172 H 0.90148 0.11675 0.80385 0.0
H1173 H 0.87121 0.10683 0.80446 0.0
H1174 H 0.68129 0.1655 0.6387 0.0
C1175 C 0.67676 0.1735 0.63226 0.0
C1176 C 0.66572 0.17925 0.63783 0.0
C1177 C 0.68222 0.17822 0.61852 0.0
H1178 H 0.65109 0.1938 0.63351 0.0
C1179 C 0.65989 0.18956 0.62939 0.0
C1180 C 0.66495 0.19418 0.61553 0.0
C1181 C 0.67638 0.18866 0.61027 0.0
C1182 C 0.6936 0.17187 0.61256 0.0
H1183 H 0.68016 0.19198 0.59949 0.0
C1184 C 0.69009 0.15615 0.61263 0.0
C1185 C 0.70052 0.14998 0.60653 0.0
C1186 C 0.7078 0.18147 0.60649 0.0
H1187 H 0.71078 0.19362 0.60636 0.0
C1188 C 0.71835 0.17546 0.60066 0.0
H1189 H 0.6791 0.14872 0.61727 0.0
C1190 C 0.71476 0.15984 0.60063 0.0
H1191 H 0.72293 0.15547 0.59569 0.0
H1192 H 0.72928 0.18293 0.596 0.0
H1193 H 0.58879 0.83521 0.39183 0.0
C1194 C 0.59914 0.84579 0.39241 0.0
C1195 C 0.61018 0.84939 0.40511 0.0
C1196 C 0.6014 0.85585 0.38043 0.0
H1197 H 0.6321 0.86607 0.41538 0.0
C1198 C 0.62333 0.86328 0.40574 0.0
C1199 C 0.62564 0.87348 0.39391 0.0
C1200 C 0.61478 0.86959 0.38117 0.0
C1201 C 0.58959 0.85217 0.36719 0.0
H1202 H 0.6164 0.87746 0.37202 0.0
C1203 C 0.57253 0.84898 0.36799 0.0
C1204 C 0.5613 0.84595 0.35536 0.0
C1205 C 0.59538 0.8522 0.35367 0.0
H1206 H 0.60849 0.85466 0.35284 0.0
C1207 C 0.58427 0.84892 0.34114 0.0
H1208 H 0.56807 0.84905 0.37842 0.0
C1209 C 0.56733 0.84582 0.34194 0.0
H1210 H 0.55902 0.84367 0.33201 0.0
H1211 H 0.58881 0.84892 0.33075 0.0
H1212 H 0.87329 0.86973 0.09587 0.0
C1213 C 0.86367 0.87479 0.09417 0.0
C1214 C 0.85767 0.87893 0.10615 0.0
C1215 C 0.85788 0.87772 0.07994 0.0
H1216 H 0.84088 0.88923 0.11276 0.0
C1217 C 0.84562 0.88601 0.10364 0.0
C1218 C 0.83978 0.88916 0.08948 0.0
C1219 C 0.84597 0.88492 0.07769 0.0
C1220 C 0.86461 0.87364 0.06739 0.0
H1221 H 0.84133 0.88701 0.06671 0.0
C1222 C 0.86609 0.85928 0.06673 0.0
C1223 C 0.87265 0.85548 0.05491 0.0
C1224 C 0.86973 0.88418 0.05605 0.0
H1225 H 0.86885 0.89535 0.05634 0.0
C1226 C 0.87631 0.88049 0.04434 0.0
H1227 H 0.86213 0.85107 0.07542 0.0
C1228 C 0.87781 0.86626 0.04376 0.0
H1229 H 0.88275 0.86361 0.03446 0.0
H1230 H 0.88026 0.8887 0.03568 0.0
H1231 H 0.18811 0.65272 0.1731 0.0
C1232 C 0.18777 0.66297 0.16736 0.0
C1233 C 0.17623 0.66961 0.17039 0.0
C1234 C 0.19926 0.66979 0.15727 0.0
H1235 H 0.16688 0.68793 0.16495 0.0
C1236 C 0.17596 0.6829 0.16288 0.0
C1237 C 0.18721 0.68974 0.15267 0.0
C1238 C 0.199 0.68326 0.15007 0.0
C1239 C 0.21152 0.66286 0.15416 0.0
H1240 H 0.20764 0.68842 0.14209 0.0
C1241 C 0.20637 0.64747 0.15073 0.0
C1242 C 0.21793 0.64097 0.1473 0.0
C1243 C 0.22839 0.67172 0.15433 0.0
H1244 H 0.23266 0.68358 0.157 0.0
C1245 C 0.23994 0.66531 0.15117 0.0
H1246 H 0.19334 0.64062 0.15055 0.0
C1247 C 0.23479 0.65007 0.14764 0.0
H1248 H 0.24397 0.6455 0.14487 0.0
H1249 H 0.25293 0.67222 0.15132 0.0
H1250 H 0.07291 0.31938 0.86958 0.0
C1251 C 0.08348 0.32979 0.87054 0.0
C1252 C 0.09289 0.33373 0.88401 0.0
C1253 C 0.08771 0.33923 0.85829 0.0
H1254 H 0.11394 0.35024 0.89549 0.0
C1255 C 0.10647 0.34729 0.88516 0.0
C1256 C 0.11091 0.35679 0.873 0.0
C1257 C 0.10156 0.35261 0.85955 0.0
C1258 C 0.07756 0.33526 0.84419 0.0
H1259 H 0.10476 0.35998 0.85014 0.0
C1260 C 0.06032 0.33222 0.8431 0.0
C1261 C 0.05067 0.32889 0.82962 0.0
C1262 C 0.08513 0.33485 0.8317 0.0
H1263 H 0.09841 0.33717 0.83231 0.0
C1264 C 0.0756 0.33131 0.81834 0.0
H1265 H 0.05446 0.33261 0.85272 0.0
C1266 C 0.05848 0.32836 0.81728 0.0
H1267 H 0.05143 0.32597 0.80673 0.0
H1268 H 0.08151 0.33099 0.80876 0.0
H1269 H 0.34752 0.37022 0.60102 0.0
C1270 C 0.33838 0.37578 0.6005 0.0
C1271 C 0.33518 0.38093 0.61336 0.0
C1272 C 0.32991 0.37783 0.58707 0.0
H1273 H 0.32192 0.39319 0.62257 0.0
C1274 C 0.32378 0.38861 0.61272 0.0
C1275 C 0.31536 0.39104 0.59946 0.0
C1276 C 0.31827 0.38535 0.58674 0.0
C1277 C 0.33339 0.37242 0.57338 0.0
H1278 H 0.3113 0.38669 0.5766 0.0
C1279 C 0.33744 0.35913 0.57325 0.0
C1280 C 0.34086 0.35416 0.56034 0.0
C1281 C 0.33288 0.38065 0.56028 0.0
H1282 H 0.33031 0.39113 0.55994 0.0
C1283 C 0.33599 0.37562 0.54744 0.0
H1284 H 0.33767 0.35245 0.58311 0.0
C1285 C 0.33993 0.36248 0.54743 0.0
H1286 H 0.34265 0.35901 0.53736 0.0
H1287 H 0.33556 0.38208 0.53746 0.0
H1288 H 0.0924 0.57835 0.61694 0.0
C1289 C 0.08779 0.58106 0.62642 0.0
C1290 C 0.08847 0.59593 0.62836 0.0
C1291 C 0.08108 0.56965 0.63668 0.0
H1292 H 0.08256 0.61071 0.64194 0.0
C1293 C 0.08248 0.59931 0.64068 0.0
C1294 C 0.07573 0.58808 0.65103 0.0
C1295 C 0.07495 0.57321 0.64888 0.0
C1296 C 0.08059 0.554 0.63479 0.0
H1297 H 0.06995 0.56445 0.65687 0.0
C1298 C 0.09517 0.55115 0.63281 0.0
C1299 C 0.09496 0.53623 0.63171 0.0
C1300 C 0.06565 0.54182 0.63539 0.0
H1301 H 0.05427 0.54376 0.6369 0.0
C1302 C 0.06525 0.52704 0.63397 0.0
H1303 H 0.10672 0.56057 0.63237 0.0
C1304 C 0.07979 0.52422 0.63218 0.0
H1305 H 0.07921 0.51261 0.63154 0.0
H1306 H 0.05367 0.51771 0.63444 0.0
H1307 H 0.3703 0.43475 0.13387 0.0
C1308 C 0.37954 0.43303 0.14206 0.0
C1309 C 0.38831 0.42361 0.1391 0.0
C1310 C 0.38322 0.44072 0.15531 0.0
H1311 H 0.40745 0.4145 0.14736 0.0
C1312 C 0.40074 0.42188 0.14947 0.0
C1313 C 0.4043 0.42916 0.16277 0.0
C1314 C 0.39538 0.43838 0.16575 0.0
C1315 C 0.37504 0.45175 0.15805 0.0
H1316 H 0.39819 0.44393 0.17611 0.0
C1317 C 0.35806 0.44895 0.15359 0.0
C1318 C 0.35052 0.45948 0.15634 0.0
C1319 C 0.38439 0.46535 0.16511 0.0
H1320 H 0.39755 0.46807 0.16835 0.0
C1321 C 0.37697 0.47577 0.16785 0.0
H1322 H 0.35062 0.43848 0.14829 0.0
C1323 C 0.36016 0.47288 0.16354 0.0
H1324 H 0.35477 0.4813 0.1656 0.0
H1325 H 0.38431 0.48621 0.17324 0.0
H1326 H 0.62883 0.35378 0.16642 0.0
C1327 C 0.63428 0.36568 0.16368 0.0
C1328 C 0.62837 0.37622 0.16918 0.0
C1329 C 0.64782 0.37061 0.15528 0.0
H1330 H 0.63094 0.39977 0.16969 0.0
C1331 C 0.63575 0.39163 0.16581 0.0
C1332 C 0.64901 0.39667 0.15721 0.0
C1333 C 0.65501 0.3861 0.15198 0.0
C1334 C 0.65511 0.35979 0.15054 0.0
H1335 H 0.66542 0.38995 0.14549 0.0
C1336 C 0.64521 0.3469 0.14268 0.0
C1337 C 0.65245 0.33705 0.13765 0.0
C1338 C 0.67223 0.36259 0.15363 0.0
H1339 H 0.68006 0.37239 0.15975 0.0
C1340 C 0.67938 0.35269 0.14897 0.0
H1341 H 0.63206 0.34489 0.14003 0.0
C1342 C 0.66961 0.34003 0.14101 0.0
H1343 H 0.67548 0.33252 0.13753 0.0
H1344 H 0.69257 0.35487 0.15149 0.0
H1345 H 0.88732 0.67245 0.6327 0.0
C1346 C 0.88203 0.66165 0.62736 0.0
C1347 C 0.88994 0.65082 0.62979 0.0
C1348 C 0.86641 0.65802 0.61919 0.0
H1349 H 0.88864 0.6284 0.62479 0.0
C1350 C 0.88258 0.63678 0.62302 0.0
C1351 C 0.86671 0.63274 0.6154 0.0
C1352 C 0.85871 0.64348 0.61345 0.0
C1353 C 0.85713 0.66864 0.61832 0.0
H1354 H 0.84627 0.64039 0.60787 0.0
C1355 C 0.86343 0.68303 0.61178 0.0
C1356 C 0.85453 0.6931 0.61122 0.0
C1357 C 0.84188 0.66437 0.62427 0.0
H1358 H 0.83687 0.65335 0.62939 0.0
C1359 C 0.83312 0.67439 0.62386 0.0
H1360 H 0.87518 0.68635 0.60713 0.0
C1361 C 0.8394 0.68868 0.61742 0.0
H1362 H 0.83226 0.69619 0.61704 0.0
H1363 H 0.82141 0.67104 0.62852 0.0
H1364 H 0.57773 0.39661 0.62495 0.0
C1365 C 0.591 0.40138 0.62796 0.0
C1366 C 0.60117 0.39277 0.62646 0.0
C1367 C 0.59797 0.41633 0.63283 0.0
H1368 H 0.62641 0.39291 0.62849 0.0
C1369 C 0.61838 0.3992 0.63019 0.0
C1370 C 0.62554 0.41406 0.63516 0.0
C1371 C 0.61524 0.42255 0.63645 0.0
C1372 C 0.58738 0.42573 0.6335 0.0
H1373 H 0.62067 0.43403 0.64033 0.0
C1374 C 0.57232 0.42003 0.63987 0.0
C1375 C 0.56245 0.4291 0.64067 0.0
C1376 C 0.59236 0.44056 0.62775 0.0
H1377 H 0.60378 0.44516 0.62262 0.0
C1378 C 0.58254 0.44952 0.62835 0.0
H1379 H 0.56858 0.40871 0.64459 0.0
C1380 C 0.5677 0.44387 0.63477 0.0
H1381 H 0.56026 0.45104 0.635 0.0
H1382 H 0.58643 0.46089 0.62381 0.0
H1383 H 0.42776 0.66854 0.92757 0.0
C1384 C 0.41598 0.65955 0.92849 0.0
C1385 C 0.41058 0.64749 0.91881 0.0
C1386 C 0.40646 0.65982 0.9397 0.0
H1387 H 0.39114 0.62649 0.91296 0.0
C1388 C 0.39541 0.63584 0.92038 0.0
C1389 C 0.38591 0.63583 0.93167 0.0
C1390 C 0.3915 0.6479 0.94135 0.0
C1391 C 0.4128 0.67208 0.95028 0.0
H1392 H 0.38438 0.64794 0.95023 0.0
C1393 C 0.40678 0.68423 0.94923 0.0
C1394 C 0.41344 0.69626 0.95901 0.0
C1395 C 0.42535 0.67185 0.96122 0.0
H1396 H 0.43014 0.66257 0.96212 0.0
C1397 C 0.43181 0.68358 0.97108 0.0
H1398 H 0.39729 0.68448 0.94058 0.0
C1399 C 0.42595 0.69572 0.97 0.0
H1400 H 0.43113 0.70464 0.97784 0.0
H1401 H 0.44144 0.6833 0.97956 0.0
H1402 H 0.0793 0.33969 0.41493 0.0
C1403 C 0.08615 0.35167 0.41607 0.0
C1404 C 0.0858 0.36153 0.40422 0.0
C1405 C 0.09518 0.35729 0.4294 0.0
H1406 H 0.09374 0.38474 0.39675 0.0
C1407 C 0.09422 0.37708 0.40583 0.0
C1408 C 0.10306 0.38291 0.41904 0.0
C1409 C 0.10374 0.37296 0.43073 0.0
C1410 C 0.09536 0.34692 0.44206 0.0
H1411 H 0.11077 0.37746 0.44089 0.0
C1412 C 0.0971 0.3328 0.44039 0.0
C1413 C 0.09754 0.32313 0.45246 0.0
C1414 C 0.09384 0.35117 0.45596 0.0
H1415 H 0.09218 0.36182 0.45758 0.0
C1416 C 0.0942 0.34161 0.46793 0.0
H1417 H 0.09857 0.3295 0.42978 0.0
C1418 C 0.09606 0.32771 0.46623 0.0
H1419 H 0.09611 0.32043 0.47569 0.0
H1420 H 0.09295 0.34497 0.47857 0.0
H1421 H 0.41374 0.67416 0.36271 0.0
C1422 C 0.4017 0.66527 0.36152 0.0
C1423 C 0.38968 0.6646 0.37083 0.0
C1424 C 0.39782 0.65495 0.35018 0.0
H1425 H 0.36472 0.6525 0.37622 0.0
C1426 C 0.37397 0.65327 0.36893 0.0
C1427 C 0.37022 0.64262 0.35802 0.0
C1428 C 0.38216 0.64351 0.34866 0.0
C1429 C 0.40953 0.65655 0.33925 0.0
H1430 H 0.37915 0.63544 0.34001 0.0
C1431 C 0.42567 0.65627 0.34328 0.0
C1432 C 0.43618 0.65673 0.33257 0.0
C1433 C 0.40418 0.65778 0.32451 0.0
H1434 H 0.39182 0.65809 0.32119 0.0
C1435 C 0.4147 0.65865 0.31392 0.0
H1436 H 0.42975 0.65506 0.35463 0.0
C1437 C 0.43056 0.65807 0.31789 0.0
H1438 H 0.43847 0.6587 0.30944 0.0
H1439 H 0.41049 0.65967 0.30259 0.0
H1440 H 0.18688 0.46478 0.13081 0.0
H1441 H 0.10882 0.38915 0.11535 0.0
H1442 H 0.14599 0.46137 0.09812 0.0
H1443 H 0.14781 0.39273 0.15001 0.0
H1444 H 0.12169 0.41601 0.10975 0.0
H1445 H 0.17241 0.43882 0.13877 0.0
C1446 C 0.17497 0.45851 0.12518 0.0
C1447 C 0.16785 0.46508 0.1135 0.0
C1448 C 0.1274 0.41098 0.11865 0.0
C1449 C 0.15099 0.43553 0.1228 0.0
C1450 C 0.12008 0.39563 0.12182 0.0
C1451 C 0.12734 0.38868 0.13308 0.0
C1452 C 0.1422 0.41948 0.12672 0.0
C1453 C 0.14178 0.39767 0.14127 0.0
C1454 C 0.1666 0.44375 0.12986 0.0
C1455 C 0.15199 0.45669 0.10709 0.0
N1456 N 0.14883 0.41258 0.13784 0.0
N1457 N 0.14417 0.44232 0.11174 0.0
H1458 H 0.82703 0.99394 0.42764 0.0
H1459 H 0.79046 0.91191 0.39242 0.0
H1460 H 0.77491 0.96711 0.42331 0.0
H1461 H 0.84216 0.93295 0.40795 0.0
H1462 H 0.78478 0.93369 0.40057 0.0
H1463 H 0.83308 0.97307 0.41777 0.0
C1464 C 0.81683 0.98373 0.42444 0.0
C1465 C 0.80037 0.98246 0.42586 0.0
C1466 C 0.79738 0.93356 0.40216 0.0
C1467 C 0.8072 0.95856 0.41463 0.0
C1468 C 0.80065 0.92119 0.39741 0.0
C1469 C 0.8168 0.92062 0.39953 0.0
C1470 C 0.81038 0.94553 0.40896 0.0
C1471 C 0.8295 0.93288 0.40623 0.0
C1472 C 0.8203 0.97184 0.41882 0.0
C1473 C 0.78767 0.96893 0.42172 0.0
N1474 N 0.82602 0.94485 0.4107 0.0
N1475 N 0.79134 0.95753 0.41626 0.0
H1476 H 0.29671 0.52787 0.61234 0.0
H1477 H 0.33377 0.60824 0.65074 0.0
H1478 H 0.2713 0.54342 0.64207 0.0
H1479 H 0.35744 0.59502 0.61792 0.0
H1480 H 0.31278 0.58302 0.65023 0.0
H1481 H 0.32085 0.5509 0.61663 0.0
C1482 C 0.29625 0.53603 0.61987 0.0
C1483 C 0.28187 0.53376 0.62673 0.0
C1484 C 0.32264 0.58558 0.64322 0.0
C1485 C 0.30944 0.56015 0.63167 0.0
C1486 C 0.33473 0.59996 0.6436 0.0
C1487 C 0.34735 0.6038 0.63429 0.0
C1488 C 0.32311 0.57492 0.63346 0.0
C1489 C 0.34778 0.59262 0.62512 0.0
C1490 C 0.31003 0.5492 0.62229 0.0
C1491 C 0.28203 0.54473 0.63642 0.0
N1492 N 0.33578 0.57873 0.62485 0.0
N1493 N 0.29553 0.55747 0.63852 0.0
H1494 H 0.68375 0.06044 0.89854 0.0
H1495 H 0.59083 0.05728 0.90458 0.0
H1496 H 0.65023 0.02717 0.92485 0.0
H1497 H 0.62697 0.09334 0.88297 0.0
H1498 H 0.61218 0.04599 0.9122 0.0
H1499 H 0.66281 0.07236 0.89258 0.0
C1500 C 0.67198 0.05562 0.90309 0.0
C1501 C 0.66875 0.04274 0.9122 0.0
C1502 C 0.61544 0.0564 0.90584 0.0
C1503 C 0.64461 0.0564 0.90536 0.0
C1504 C 0.60328 0.06291 0.90155 0.0
C1505 C 0.60707 0.07626 0.89305 0.0
C1506 C 0.63151 0.06326 0.90157 0.0
C1507 C 0.62338 0.08291 0.88929 0.0
C1508 C 0.66002 0.06247 0.89969 0.0
C1509 C 0.65326 0.03707 0.91778 0.0
N1510 N 0.63495 0.07632 0.89352 0.0
N1511 N 0.64173 0.04391 0.91423 0.0
H1512 H 0.1881 0.54193 0.39358 0.0
H1513 H 0.1018 0.54804 0.35776 0.0
H1514 H 0.17366 0.54163 0.34751 0.0
H1515 H 0.12361 0.56636 0.39988 0.0
H1516 H 0.12596 0.54088 0.35558 0.0
H1517 H 0.16248 0.54643 0.39767 0.0
C1518 C 0.17944 0.5426 0.38436 0.0
C1519 C 0.1829 0.5413 0.37019 0.0
C1520 C 0.12547 0.54644 0.36532 0.0
C1521 C 0.15381 0.54646 0.37477 0.0
C1522 C 0.1117 0.55061 0.36656 0.0
C1523 C 0.11082 0.55815 0.37889 0.0
C1524 C 0.13847 0.54965 0.37654 0.0
C1525 C 0.12379 0.56063 0.39016 0.0
C1526 C 0.16494 0.54529 0.3867 0.0
C1527 C 0.17149 0.54261 0.35861 0.0
N1528 N 0.13717 0.55647 0.38868 0.0
N1529 N 0.15744 0.54504 0.36116 0.0
H1530 H 0.68532 0.96375 0.60179 0.0
H1531 H 0.61727 0.90435 0.64734 0.0
H1532 H 0.64523 0.97374 0.6177 0.0
H1533 H 0.65536 0.89411 0.6282 0.0
H1534 H 0.62949 0.93084 0.63961 0.0
H1535 H 0.67681 0.93939 0.61449 0.0
C1536 C 0.67505 0.96105 0.60834 0.0
C1537 C 0.66622 0.97097 0.60896 0.0
C1538 C 0.63524 0.92281 0.63721 0.0
C1539 C 0.65588 0.9427 0.62304 0.0
C1540 C 0.62833 0.90772 0.64169 0.0
C1541 C 0.63521 0.897 0.63826 0.0
C1542 C 0.64916 0.92719 0.6293 0.0
C1543 C 0.64949 0.90196 0.63084 0.0
C1544 C 0.67 0.94699 0.61541 0.0
C1545 C 0.65243 0.96644 0.617 0.0
N1546 N 0.65592 0.91666 0.62654 0.0
N1547 N 0.64763 0.95261 0.62368 0.0
H1548 H 0.26389 0.44672 0.90853 0.0
H1549 H 0.33559 0.41156 0.91589 0.0
H1550 H 0.31531 0.47379 0.91913 0.0
H1551 H 0.28806 0.39034 0.89162 0.0
H1552 H 0.32861 0.4345 0.91731 0.0
H1553 H 0.27244 0.42598 0.90234 0.0
C1554 C 0.277 0.44854 0.90908 0.0
C1555 C 0.2889 0.46226 0.91389 0.0
C1556 C 0.3198 0.42491 0.9115 0.0
C1557 C 0.29879 0.43813 0.90757 0.0
C1558 C 0.32377 0.41183 0.91071 0.0
C1559 C 0.31236 0.39906 0.90366 0.0
C1560 C 0.30418 0.42512 0.90543 0.0
C1561 C 0.29724 0.39998 0.89708 0.0
C1562 C 0.28189 0.43656 0.90574 0.0
C1563 C 0.30571 0.46346 0.91535 0.0
N1564 N 0.29349 0.41272 0.89829 0.0
N1565 N 0.31015 0.45153 0.9123 0.0
H1566 H 0.7494 0.02161 0.11049 0.0
H1567 H 0.83125 0.09066 0.09397 0.0
H1568 H 0.78314 0.01989 0.08029 0.0
H1569 H 0.79562 0.09447 0.1212 0.0
H1570 H 0.81461 0.0641 0.09029 0.0
H1571 H 0.76675 0.04778 0.11576 0.0
C1572 C 0.76025 0.0268 0.10476 0.0
C1573 C 0.76454 0.01868 0.09461 0.0
C1574 C 0.81043 0.07071 0.09712 0.0
C1575 C 0.78482 0.04844 0.101 0.0
C1576 C 0.81991 0.0859 0.09919 0.0
C1577 C 0.81475 0.09485 0.1078 0.0
C1578 C 0.79562 0.06435 0.10369 0.0
C1579 C 0.80012 0.08798 0.11454 0.0
C1580 C 0.7703 0.04169 0.10793 0.0
C1581 C 0.77928 0.02576 0.08811 0.0
N1582 N 0.791 0.07315 0.11227 0.0
N1583 N 0.78883 0.04022 0.09137 0.0
H1584 H 0.12013 0.1374 0.46353 0.0
H1585 H 0.12077 0.16395 0.38023 0.0
H1586 H 0.10233 0.17284 0.44557 0.0
H1587 H 0.13365 0.12532 0.39681 0.0
H1588 H 0.11833 0.16991 0.40492 0.0
H1589 H 0.12924 0.13524 0.44002 0.0
C1590 C 0.11839 0.14491 0.45471 0.0
C1591 C 0.11063 0.15546 0.45659 0.0
C1592 C 0.12184 0.1602 0.4032 0.0
C1593 C 0.12089 0.15295 0.42961 0.0
C1594 C 0.1232 0.15677 0.38911 0.0
C1595 C 0.12715 0.14397 0.38645 0.0
C1596 C 0.1244 0.15075 0.41478 0.0
C1597 C 0.13054 0.13527 0.39838 0.0
C1598 C 0.12359 0.14367 0.44129 0.0
C1599 C 0.10866 0.16487 0.44479 0.0
N1600 N 0.12889 0.13872 0.41202 0.0
N1601 N 0.11363 0.16331 0.43178 0.0
H1602 H 0.96795 0.79488 0.71669 0.0
H1603 H 0.04906 0.85717 0.69122 0.0
H1604 H 0.98266 0.8421 0.72674 0.0
H1605 H 0.02813 0.81282 0.67248 0.0
H1606 H 0.02419 0.85205 0.70346 0.0
H1607 H 0.98918 0.80123 0.69972 0.0
C1608 C 0.97545 0.80662 0.71511 0.0
C1609 C 0.97342 0.818 0.723 0.0
C1610 C 0.02494 0.84349 0.69654 0.0
C1611 C -0.00207 0.82532 0.70386 0.0
C1612 C 0.03914 0.84644 0.68944 0.0
C1613 C 0.04078 0.83541 0.68074 0.0
C1614 C 0.0123 0.82933 0.69517 0.0
C1615 C 0.02757 0.82158 0.67924 0.0
C1616 C 0.98755 0.81024 0.70542 0.0
C1617 C 0.98351 0.83301 0.72062 0.0
N1618 N 0.01397 0.81887 0.68649 0.0
N1619 N -0.00454 0.83622 0.71139 0.0
H1620 H 0.35323 0.86315 0.93171 0.0
H1621 H 0.35521 0.8609 0.84599 0.0
H1622 H 0.36121 0.82714 0.9103 0.0
H1623 H 0.34261 0.89474 0.86665 0.0
H1624 H 0.35751 0.84846 0.86951 0.0
H1625 H 0.34943 0.87497 0.90811 0.0
C1626 C 0.35419 0.85771 0.92205 0.0
C1627 C 0.35759 0.84412 0.92302 0.0
C1628 C 0.3542 0.85858 0.86893 0.0
C1629 C 0.35323 0.85765 0.89591 0.0
C1630 C 0.35296 0.86574 0.85551 0.0
C1631 C 0.34887 0.87897 0.85439 0.0
C1632 C 0.35138 0.8647 0.8814 0.0
C1633 C 0.34575 0.88455 0.86703 0.0
C1634 C 0.35197 0.86446 0.90857 0.0
C1635 C 0.35863 0.8376 0.9101 0.0
N1636 N 0.34718 0.87744 0.88004 0.0
N1637 N 0.35651 0.84445 0.8971 0.0
H1638 H 0.48129 0.15694 0.19354 0.0
H1639 H 0.39813 0.17257 0.16318 0.0
H1640 H 0.45757 0.18042 0.21723 0.0
H1641 H 0.42011 0.14651 0.14091 0.0
H1642 H 0.42277 0.17994 0.18083 0.0
H1643 H 0.46192 0.15718 0.17224 0.0
C1644 C 0.47214 0.1623 0.19423 0.0
C1645 C 0.47091 0.16846 0.20729 0.0
C1646 C 0.42233 0.17281 0.17195 0.0
C1647 C 0.4486 0.16871 0.18291 0.0
C1648 C 0.40833 0.16872 0.16179 0.0
C1649 C 0.407 0.15877 0.15068 0.0
C1650 C 0.43506 0.16689 0.17098 0.0
C1651 C 0.42053 0.154 0.14947 0.0
C1652 C 0.46107 0.16243 0.18204 0.0
C1653 C 0.45888 0.17538 0.20746 0.0
N1654 N 0.43389 0.15794 0.1596 0.0
N1655 N 0.44808 0.17516 0.19552 0.0
H1656 H 0.13171 0.84063 0.07626 0.0
H1657 H 0.12432 0.88385 0.14427 0.0
H1658 H 0.14603 0.82921 0.12024 0.0
H1659 H 0.10186 0.8893 0.10133 0.0
H1660 H 0.12946 0.86178 0.13619 0.0
H1661 H 0.11803 0.85643 0.08543 0.0
C1662 C 0.13152 0.84101 0.08783 0.0
C1663 C 0.13978 0.83332 0.09747 0.0
C1664 C 0.12311 0.8676 0.12858 0.0
C1665 C 0.12472 0.85201 0.10811 0.0
C1666 C 0.12015 0.88016 0.13321 0.0
C1667 C 0.11277 0.88843 0.12342 0.0
C1668 C 0.11893 0.86343 0.11398 0.0
C1669 C 0.10754 0.88319 0.10923 0.0
C1670 C 0.12386 0.85023 0.09309 0.0
C1671 C 0.13982 0.83495 0.11241 0.0
N1672 N 0.11099 0.87118 0.10485 0.0
N1673 N 0.13255 0.84422 0.11727 0.0
H1674 H 0.3451 0.83366 0.3377 0.0
H1675 H 0.3698 0.87824 0.41245 0.0
H1676 H 0.39509 0.86214 0.35185 0.0
H1677 H 0.32449 0.84071 0.4029 0.0
H1678 H 0.37736 0.87659 0.38804 0.0
H1679 H 0.33564 0.84024 0.35936 0.0
C1680 C 0.35409 0.84136 0.34534 0.0
C1681 C 0.371 0.84705 0.34316 0.0
C1682 C 0.36565 0.86888 0.39123 0.0
C1683 C 0.36022 0.8547 0.36794 0.0
C1684 C 0.36127 0.86991 0.40507 0.0
C1685 C 0.34654 0.85956 0.40963 0.0
C1686 C 0.35512 0.85749 0.38192 0.0
C1687 C 0.33599 0.84884 0.39977 0.0
C1688 C 0.34868 0.84508 0.35771 0.0
C1689 C 0.38206 0.85707 0.35335 0.0
N1690 N 0.34053 0.84802 0.3864 0.0
N1691 N 0.37649 0.86053 0.36536 0.0
H1692 H 0.38821 0.22147 0.59412 0.0
H1693 H 0.39636 0.14415 0.62759 0.0
H1694 H 0.41576 0.19724 0.57636 0.0
H1695 H 0.37217 0.16988 0.64772 0.0
H1696 H 0.40579 0.16477 0.61006 0.0
H1697 H 0.38408 0.20389 0.61492 0.0
C1698 C 0.39351 0.21255 0.59464 0.0
C1699 C 0.4022 0.21076 0.58338 0.0
C1700 C 0.39856 0.16599 0.6184 0.0
C1701 C 0.39747 0.19057 0.60714 0.0
C1702 C 0.39328 0.15425 0.62851 0.0
C1703 C 0.38333 0.1552 0.6391 0.0
C1704 C 0.39377 0.17877 0.61878 0.0
C1705 C 0.37954 0.16852 0.63958 0.0
C1706 C 0.39115 0.20252 0.60653 0.0
C1707 C 0.40885 0.19901 0.5847 0.0
N1708 N 0.38462 0.17971 0.62947 0.0
N1709 N 0.40623 0.18932 0.59628 0.0
H1710 H 0.13064 0.1656 0.83195 0.0
H1711 H 0.14578 0.13362 0.89939 0.0
H1712 H 0.08704 0.16844 0.84836 0.0
H1713 H 0.10792 0.14909 0.91231 0.0
H1714 H 0.13842 0.13968 0.87419 0.0
H1715 H 0.13734 0.15411 0.85484 0.0
C1716 C 0.12228 0.1635 0.8403 0.0
C1717 C 0.10808 0.16774 0.83811 0.0
C1718 C 0.13181 0.14195 0.88248 0.0
C1719 C 0.11551 0.15431 0.86448 0.0
C1720 C 0.13588 0.13826 0.89689 0.0
C1721 C 0.12769 0.14115 0.90799 0.0
C1722 C 0.11951 0.14867 0.8792 0.0
C1723 C 0.11488 0.14707 0.90415 0.0
C1724 C 0.12602 0.15677 0.8534 0.0
C1725 C 0.09778 0.16491 0.84934 0.0
N1726 N 0.11128 0.15072 0.89012 0.0
N1727 N 0.10177 0.15848 0.86205 0.0
H1728 H 0.83282 0.31382 0.80315 0.0
H1729 H 0.86679 0.36925 0.87065 0.0
H1730 H 0.8838 0.34318 0.81112 0.0
H1731 H 0.81959 0.33295 0.86708 0.0
H1732 H 0.87138 0.36349 0.84637 0.0
H1733 H 0.82615 0.32421 0.82415 0.0
C1734 C 0.84263 0.32248 0.80931 0.0
C1735 C 0.859 0.32733 0.8056 0.0
C1736 C 0.8599 0.35695 0.85081 0.0
C1737 C 0.85142 0.33938 0.82963 0.0
C1738 C 0.85721 0.36034 0.86458 0.0
C1739 C 0.84283 0.35151 0.87084 0.0
C1740 C 0.84807 0.34471 0.84329 0.0
C1741 C 0.83089 0.33995 0.86263 0.0
C1742 C 0.8388 0.3284 0.82131 0.0
C1743 C 0.87116 0.33869 0.81389 0.0
N1744 N 0.83383 0.33681 0.84933 0.0
N1745 N 0.86714 0.34429 0.82557 0.0
H1746 H 0.91033 0.68291 0.05917 0.0
H1747 H 0.85986 0.63461 0.12292 0.0
H1748 H 0.87037 0.69297 0.0754 0.0
H1749 H 0.88774 0.61822 0.09625 0.0
H1750 H 0.86733 0.65837 0.1089 0.0
H1751 H 0.90626 0.66179 0.07643 0.0
C1752 C 0.90081 0.68081 0.06647 0.0
C1753 C 0.89055 0.68966 0.0657 0.0
C1754 C 0.87188 0.64958 0.10623 0.0
C1755 C 0.88582 0.66538 0.0855 0.0
C1756 C 0.86756 0.63596 0.11416 0.0
C1757 C 0.87305 0.62425 0.11073 0.0
C1758 C 0.88192 0.6516 0.09489 0.0
C1759 C 0.88335 0.6269 0.09948 0.0
C1760 C 0.89847 0.66869 0.07629 0.0
C1761 C 0.87849 0.68639 0.07553 0.0
N1762 N 0.88739 0.64024 0.09196 0.0
N1763 N 0.87638 0.67444 0.08498 0.0
H1764 H 0.60173 0.65712 0.35831 0.0
H1765 H 0.65537 0.62625 0.41851 0.0
H1766 H 0.64202 0.64321 0.34856 0.0
H1767 H 0.609 0.63149 0.42537 0.0
H1768 H 0.64927 0.62971 0.39239 0.0
H1769 H 0.60261 0.64537 0.38222 0.0
C1770 C 0.61036 0.65112 0.36095 0.0
C1771 C 0.62155 0.65088 0.35123 0.0
C1772 C 0.6403 0.62986 0.39959 0.0
C1773 C 0.62327 0.63803 0.37905 0.0
C1774 C 0.64373 0.62779 0.4145 0.0
C1775 C 0.63282 0.62886 0.42414 0.0
C1776 C 0.62591 0.63312 0.39435 0.0
C1777 C 0.61795 0.63095 0.41834 0.0
C1778 C 0.61104 0.64458 0.37476 0.0
C1779 C 0.63312 0.64364 0.35571 0.0
N1780 N 0.61506 0.63323 0.40386 0.0
N1781 N 0.6338 0.63765 0.36934 0.0
H1782 H 0.87558 0.36631 0.43253 0.0
H1783 H 0.83698 0.38493 0.3541 0.0
H1784 H 0.83195 0.33504 0.40942 0.0
H1785 H 0.88633 0.4101 0.37301 0.0
H1786 H 0.83294 0.36834 0.37574 0.0
H1787 H 0.87794 0.38407 0.41203 0.0
C1788 C 0.86649 0.36316 0.42314 0.0
C1789 C 0.85358 0.34911 0.42268 0.0
C1790 C 0.8446 0.37756 0.37518 0.0
C1791 C 0.85615 0.3695 0.39919 0.0
C1792 C 0.84684 0.38709 0.36292 0.0
C1793 C 0.86203 0.39884 0.36179 0.0
C1794 C 0.85759 0.37991 0.38641 0.0
C1795 C 0.87449 0.40108 0.37343 0.0
C1796 C 0.86785 0.37332 0.41144 0.0
C1797 C 0.84216 0.3457 0.41022 0.0
N1798 N 0.87201 0.39168 0.38523 0.0
N1799 N 0.84369 0.35583 0.39897 0.0
H1800 H 0.64665 0.66055 0.97894 0.0
H1801 H 0.66836 0.65521 0.89854 0.0
H1802 H 0.67334 0.69969 0.95414 0.0
H1803 H 0.62467 0.62381 0.91552 0.0
H1804 H 0.67488 0.66945 0.92112 0.0
H1805 H 0.64267 0.64484 0.95771 0.0
C1806 C 0.65166 0.66582 0.96902 0.0
C1807 C 0.66008 0.68147 0.96818 0.0
C1808 C 0.66399 0.65933 0.91995 0.0
C1809 C 0.65592 0.66358 0.94407 0.0
C1810 C 0.66038 0.65114 0.90718 0.0
C1811 C 0.64601 0.63834 0.90527 0.0
C1812 C 0.65326 0.65451 0.93092 0.0
C1813 C 0.63588 0.63364 0.91665 0.0
C1814 C 0.64938 0.65688 0.95694 0.0
C1815 C 0.66642 0.68774 0.95512 0.0
N1816 N 0.63969 0.64172 0.92901 0.0
N1817 N 0.66428 0.67876 0.94357 0.0
H1818 H 0.82785 0.56372 0.9198 0.0
H1819 H 0.90796 0.6159 0.88329 0.0
H1820 H 0.83977 0.55305 0.87878 0.0
H1821 H 0.90184 0.61732 0.92863 0.0
H1822 H 0.88292 0.59329 0.88088 0.0
H1823 H 0.85466 0.58403 0.92271 0.0
C1824 C 0.83615 0.56561 0.91142 0.0
C1825 C 0.83152 0.5567 0.899 0.0
C1826 C 0.88715 0.59854 0.89136 0.0
C1827 C 0.86227 0.58008 0.90221 0.0
C1828 C 0.90146 0.61141 0.89276 0.0
C1829 C 0.9069 0.61869 0.90614 0.0
C1830 C 0.87819 0.59297 0.9034 0.0
C1831 C 0.8979 0.61238 0.918 0.0
C1832 C 0.85149 0.57719 0.91311 0.0
C1833 C 0.84285 0.55963 0.88854 0.0
N1834 N 0.88396 0.59999 0.91633 0.0
N1835 N 0.85765 0.57118 0.89031 0.0
H1836 H 0.15362 0.03699 0.68384 0.0
H1837 H 0.14693 0.113 0.64586 0.0
H1838 H 0.1667 0.05114 0.64058 0.0
H1839 H 0.15994 0.10992 0.69202 0.0
H1840 H 0.14744 0.08754 0.64343 0.0
H1841 H 0.14914 0.06111 0.68663 0.0
C1842 C 0.15538 0.04512 0.67492 0.0
C1843 C 0.16073 0.04225 0.66204 0.0
C1844 C 0.15008 0.09245 0.65409 0.0
C1845 C 0.1554 0.06947 0.66502 0.0
C1846 C 0.14991 0.10703 0.6555 0.0
C1847 C 0.15367 0.11382 0.66915 0.0
C1848 C 0.15374 0.08442 0.66642 0.0
C1849 C 0.15685 0.1052 0.68128 0.0
C1850 C 0.15292 0.05884 0.67652 0.0
C1851 C 0.16285 0.05308 0.65076 0.0
N1852 N 0.15686 0.09096 0.67963 0.0
N1853 N 0.16014 0.0662 0.65249 0.0
H1854 H 0.66329 0.46019 0.38387 0.0
H1855 H 0.64533 0.37191 0.37381 0.0
H1856 H 0.70167 0.44009 0.38741 0.0
H1857 H 0.60702 0.39208 0.36968 0.0
H1858 H 0.66604 0.39663 0.37973 0.0
H1859 H 0.64243 0.43522 0.37942 0.0
C1860 C 0.66735 0.45054 0.38374 0.0
C1861 C 0.68429 0.45228 0.38599 0.0
C1862 C 0.6531 0.39566 0.37756 0.0
C1863 C 0.66042 0.42361 0.38087 0.0
C1864 C 0.64125 0.38151 0.37427 0.0
C1865 C 0.62439 0.3799 0.37123 0.0
C1866 C 0.6481 0.40832 0.37782 0.0
C1867 C 0.61989 0.39282 0.37176 0.0
C1868 C 0.65541 0.43627 0.38119 0.0
C1869 C 0.68877 0.43932 0.38571 0.0
N1870 N 0.63166 0.40647 0.37498 0.0
N1871 N 0.67692 0.42556 0.38317 0.0
H1872 H 0.30058 0.938 0.11205 0.0
H1873 H 0.36252 0.90106 0.15685 0.0
H1874 H 0.33246 0.95774 0.15037 0.0
H1875 H 0.32125 0.87667 0.12652 0.0
H1876 H 0.35557 0.92395 0.15125 0.0
H1877 H 0.31229 0.9177 0.11377 0.0
C1878 C 0.31021 0.93821 0.12071 0.0
C1879 C 0.3154 0.94951 0.13119 0.0
C1880 C 0.34815 0.91361 0.14573 0.0
C1881 C 0.3288 0.92625 0.13322 0.0
C1882 C 0.35205 0.90051 0.14896 0.0
C1883 C 0.34234 0.88682 0.14229 0.0
C1884 C 0.33449 0.91308 0.13568 0.0
C1885 C 0.32918 0.88694 0.13188 0.0
C1886 C 0.31683 0.92657 0.12171 0.0
C1887 C 0.32797 0.94918 0.14213 0.0
N1888 N 0.32558 0.89982 0.12898 0.0
N1889 N 0.33415 0.93767 0.14293 0.0
H1890 H 0.82475 0.45637 0.67615 0.0
H1891 H 0.80377 0.39541 0.61622 0.0
H1892 H 0.803 0.46406 0.63355 0.0
H1893 H 0.79857 0.38281 0.66136 0.0
H1894 H 0.80517 0.42095 0.62168 0.0
H1895 H 0.81751 0.42967 0.67052 0.0
C1896 C 0.81831 0.45237 0.66565 0.0
C1897 C 0.81435 0.46233 0.65532 0.0
C1898 C 0.80355 0.4125 0.63032 0.0
C1899 C 0.80637 0.43198 0.6487 0.0
C1900 C 0.80268 0.3979 0.62722 0.0
C1901 C 0.80131 0.38692 0.63838 0.0
C1902 C 0.80333 0.41623 0.64469 0.0
C1903 C 0.80016 0.39096 0.65247 0.0
C1904 C 0.81413 0.43716 0.66247 0.0
C1905 C 0.80604 0.45664 0.64185 0.0
N1906 N 0.80146 0.40532 0.65525 0.0
N1907 N 0.80253 0.44183 0.63883 0.0
H1908 H 0.30965 0.07694 0.40103 0.0
H1909 H 0.40838 0.09923 0.41688 0.0
H1910 H 0.33427 0.04388 0.40819 0.0
H1911 H 0.38254 0.13134 0.41395 0.0
H1912 H 0.38176 0.0789 0.41142 0.0
H1913 H 0.3366 0.09702 0.40351 0.0
C1914 C 0.32073 0.07387 0.40306 0.0
C1915 C 0.31964 0.05865 0.40449 0.0
C1916 C 0.38193 0.0904 0.41191 0.0
C1917 C 0.35068 0.08172 0.40738 0.0
C1918 C 0.39712 0.10202 0.41494 0.0
C1919 C 0.39766 0.11699 0.41596 0.0
C1920 C 0.36718 0.09379 0.40982 0.0
C1921 C 0.38268 0.11993 0.41349 0.0
C1922 C 0.33615 0.08538 0.40449 0.0
C1923 C 0.33448 0.05544 0.40706 0.0
N1924 N 0.36807 0.10845 0.41057 0.0
N1925 N 0.34939 0.06688 0.40849 0.0
H1926 H 0.63167 0.5448 0.12699 0.0
H1927 H 0.60601 0.6048 0.1661 0.0
H1928 H 0.65134 0.56071 0.17028 0.0
H1929 H 0.58733 0.58936 0.12257 0.0
H1930 H 0.61757 0.58438 0.17001 0.0
H1931 H 0.61059 0.55658 0.12736 0.0
C1932 C 0.6314 0.55056 0.13667 0.0
C1933 C 0.64353 0.55204 0.1485 0.0
C1934 C 0.61065 0.58526 0.1597 0.0
C1935 C 0.61952 0.56573 0.14893 0.0
C1936 C 0.60395 0.59685 0.1575 0.0
C1937 C 0.59598 0.59891 0.14391 0.0
C1938 C 0.60942 0.57575 0.14818 0.0
C1939 C 0.59371 0.58833 0.13312 0.0
C1940 C 0.61935 0.55731 0.13688 0.0
C1941 C 0.6424 0.55947 0.16082 0.0
N1942 N 0.60063 0.57736 0.13541 0.0
N1943 N 0.63081 0.56627 0.16062 0.0
H1944 H 0.1442 0.94599 0.87992 0.0
H1945 H 0.1203 0.85605 0.88598 0.0
H1946 H 0.18033 0.92339 0.88776 0.0
H1947 H 0.08432 0.87827 0.87438 0.0
H1948 H 0.14242 0.88068 0.88694 0.0
H1949 H 0.12207 0.92137 0.87797 0.0
C1950 C 0.1475 0.93587 0.88121 0.0
C1951 C 0.16418 0.93679 0.88404 0.0
C1952 C 0.12969 0.88019 0.88416 0.0
C1953 C 0.13886 0.90853 0.88187 0.0
C1954 C 0.11704 0.86613 0.88369 0.0
C1955 C 0.10042 0.8651 0.88016 0.0
C1956 C 0.12572 0.89338 0.88113 0.0
C1957 C 0.09697 0.87853 0.87704 0.0
C1958 C 0.13484 0.9218 0.88008 0.0
C1959 C 0.16767 0.92326 0.88558 0.0
N1960 N 0.1095 0.89211 0.87766 0.0
N1961 N 0.15513 0.90971 0.88452 0.0
H1962 H 0.84199 0.8384 0.56405 0.0
H1963 H 0.87385 0.92246 0.59416 0.0
H1964 H 0.8782 0.87614 0.54436 0.0
H1965 H 0.84455 0.88301 0.61709 0.0
H1966 H 0.8708 0.90675 0.57312 0.0
H1967 H 0.83821 0.85567 0.58076 0.0
C1968 C 0.84904 0.85035 0.56313 0.0
C1969 C 0.86063 0.85578 0.55291 0.0
C1970 C 0.86482 0.90159 0.58268 0.0
C1971 C 0.85638 0.87565 0.57211 0.0
C1972 C 0.86645 0.91057 0.59462 0.0
C1973 C 0.85957 0.90396 0.60739 0.0
C1974 C 0.8562 0.88595 0.58354 0.0
C1975 C 0.85022 0.88848 0.60749 0.0
C1976 C 0.84687 0.86021 0.5727 0.0
C1977 C 0.86926 0.87142 0.55215 0.0
N1978 N 0.84893 0.87998 0.59581 0.0
N1979 N 0.86709 0.88079 0.56174 0.0
H1980 H 0.91687 0.13207 0.3121 0.0
H1981 H 0.94186 0.17204 0.38924 0.0
H1982 H 0.96763 0.15666 0.32826 0.0
H1983 H 0.89139 0.15121 0.37022 0.0
H1984 H 0.95181 0.16678 0.36714 0.0
H1985 H 0.90757 0.13874 0.33369 0.0
C1986 C 0.9261 0.13884 0.32021 0.0
C1987 C 0.94308 0.1438 0.31834 0.0
C1988 C 0.93856 0.16343 0.3678 0.0
C1989 C 0.93245 0.15156 0.34317 0.0
C1990 C 0.93288 0.16652 0.38036 0.0
C1991 C 0.91576 0.16196 0.38162 0.0
C1992 C 0.92704 0.15572 0.35644 0.0
C1993 C 0.90469 0.15469 0.36984 0.0
C1994 C 0.92075 0.1427 0.33254 0.0
C1995 C 0.95442 0.15259 0.32924 0.0
N1996 N 0.91051 0.15175 0.3578 0.0
N1997 N 0.9489 0.15618 0.3412 0.0
H1998 H 0.60884 0.18977 0.09403 0.0
H1999 H 0.58471 0.10212 0.11561 0.0
H2000 H 0.57277 0.15426 0.06828 0.0
H2001 H 0.61703 0.13848 0.14265 0.0
H2002 H 0.58418 0.12053 0.09594 0.0
H2003 H 0.61573 0.17071 0.10974 0.0
C2004 C 0.60253 0.17794 0.09156 0.0
C2005 C 0.59026 0.1736 0.07979 0.0
C2006 C 0.5916 0.12445 0.1061 0.0
C2007 C 0.59793 0.15165 0.09787 0.0
C2008 C 0.592 0.11394 0.11727 0.0
C2009 C 0.60079 0.11885 0.13079 0.0
C2010 C 0.60008 0.13993 0.1085 0.0
C2011 C 0.60992 0.13428 0.13244 0.0
C2012 C 0.60648 0.16705 0.10053 0.0
C2013 C 0.58253 0.15812 0.07706 0.0
N2014 N 0.60919 0.14427 0.12149 0.0
N2015 N 0.58635 0.14768 0.08614 0.0
H2016 H 0.539 0.90808 0.80796 0.0
H2017 H 0.5706 0.84811 0.85559 0.0
H2018 H 0.51826 0.86002 0.80075 0.0
H2019 H 0.58088 0.89401 0.86851 0.0
H2020 H 0.5533 0.8525 0.83419 0.0
H2021 H 0.55673 0.90343 0.8288 0.0
C2022 C 0.53821 0.89654 0.81072 0.0
C2023 C 0.52708 0.88441 0.80261 0.0
C2024 C 0.55938 0.8616 0.84172 0.0
C2025 C 0.54738 0.87902 0.82648 0.0
C2026 C 0.5692 0.85909 0.85398 0.0
C2027 C 0.57729 0.87072 0.86388 0.0
C2028 C 0.55772 0.87587 0.8393 0.0
C2029 C 0.57518 0.88478 0.86107 0.0
C2030 C 0.5483 0.8939 0.82266 0.0
C2031 C 0.5266 0.86971 0.80673 0.0
N2032 N 0.56564 0.88696 0.84905 0.0
N2033 N 0.53663 0.86742 0.81837 0.0
H2034 H 0.89966 0.1859 0.94939 0.0
H2035 H 0.87231 0.1558 0.86838 0.0
H2036 H 0.86684 0.2016 0.91914 0.0
H2037 H 0.8857 0.12975 0.90422 0.0
H2038 H 0.877 0.17668 0.88496 0.0
H2039 H 0.90152 0.16948 0.93077 0.0
C2040 C 0.89305 0.1861 0.93876 0.0
C2041 C 0.88289 0.19502 0.93589 0.0
C2042 C 0.87914 0.16647 0.88911 0.0
C2043 C 0.88503 0.17621 0.91454 0.0
C2044 C 0.87658 0.15465 0.87968 0.0
C2045 C 0.87861 0.14111 0.88503 0.0
C2046 C 0.884 0.16476 0.90389 0.0
C2047 C 0.88396 0.14002 0.89975 0.0
C2048 C 0.89408 0.17666 0.92817 0.0
C2049 C 0.87468 0.1948 0.92188 0.0
N2050 N 0.88645 0.15168 0.90869 0.0
N2051 N 0.87584 0.18545 0.91174 0.0
H2052 H 0.6064 0.12506 0.70212 0.0
H2053 H 0.66272 0.19641 0.65941 0.0
H2054 H 0.61659 0.1713 0.71389 0.0
H2055 H 0.6544 0.15026 0.6487 0.0
H2056 H 0.64898 0.1874 0.68143 0.0
H2057 H 0.6271 0.13395 0.68477 0.0
C2058 C 0.61316 0.13707 0.70122 0.0
C2059 C 0.60955 0.14746 0.70933 0.0
C2060 C 0.65032 0.17923 0.67437 0.0
C2061 C 0.63317 0.15773 0.68935 0.0
C2062 C 0.65811 0.18437 0.66178 0.0
C2063 C 0.65949 0.17405 0.65213 0.0
C2064 C 0.64371 0.16363 0.67729 0.0
C2065 C 0.65359 0.1586 0.65584 0.0
C2066 C 0.62497 0.14214 0.69128 0.0
C2067 C 0.61882 0.16288 0.70778 0.0
N2068 N 0.64575 0.15384 0.66803 0.0
N2069 N 0.63003 0.16755 0.69783 0.0
H2070 H 0.62081 0.81311 0.49125 0.0
H2071 H 0.60264 0.81854 0.40514 0.0
H2072 H 0.60209 0.77365 0.46438 0.0
H2073 H 0.61358 0.85594 0.43385 0.0
H2074 H 0.60222 0.80169 0.42633 0.0
H2075 H 0.61873 0.82885 0.46997 0.0
C2076 C 0.61628 0.80773 0.48086 0.0
C2077 C 0.61165 0.792 0.47963 0.0
C2078 C 0.60461 0.81357 0.42797 0.0
C2079 C 0.60919 0.81008 0.45508 0.0
C2080 C 0.60475 0.82318 0.41588 0.0
C2081 C 0.60832 0.83871 0.41772 0.0
C2082 C 0.60811 0.81958 0.44195 0.0
C2083 C 0.61112 0.84411 0.4319 0.0
C2084 C 0.61503 0.81675 0.46869 0.0
C2085 C 0.60581 0.78572 0.46584 0.0
N2086 N 0.61105 0.8346 0.44343 0.0
N2087 N 0.60479 0.79479 0.45408 0.0
H2088 H 0.87895 0.87743 0.19956 0.0
H2089 H 0.86683 0.85477 0.11688 0.0
H2090 H 0.90306 0.84893 0.18406 0.0
H2091 H 0.86344 0.89676 0.13005 0.0
H2092 H 0.87727 0.85048 0.14175 0.0
H2093 H 0.86984 0.88254 0.17439 0.0
C2094 C 0.88238 0.87232 0.19084 0.0
C2095 C 0.89198 0.86295 0.19383 0.0
C2096 C 0.87425 0.86064 0.13914 0.0
C2097 C 0.8814 0.8685 0.16515 0.0
C2098 C 0.86835 0.86315 0.12492 0.0
C2099 C 0.86414 0.87614 0.12126 0.0
C2100 C 0.8757 0.87104 0.14987 0.0
C2101 C 0.86612 0.88641 0.13232 0.0
C2102 C 0.87724 0.87527 0.17651 0.0
C2103 C 0.89602 0.85652 0.18218 0.0
N2104 N 0.87164 0.88358 0.14612 0.0
N2105 N 0.89061 0.85932 0.16833 0.0
H2106 H 0.10319 0.65765 0.23 0.0
H2107 H 0.15755 0.63971 0.17402 0.0
H2108 H 0.09206 0.61364 0.21186 0.0
H2109 H 0.16756 0.68387 0.19131 0.0
H2110 H 0.13573 0.62915 0.19027 0.0
H2111 H 0.12895 0.66664 0.2184 0.0
C2112 C 0.10624 0.64982 0.22372 0.0
C2113 C 0.09533 0.63491 0.22177 0.0
C2114 C 0.1428 0.64113 0.1906 0.0
C2115 C 0.12478 0.64517 0.20835 0.0
C2116 C 0.15531 0.64714 0.18138 0.0
C2117 C 0.16422 0.66272 0.18119 0.0
C2118 C 0.1392 0.65077 0.19969 0.0
C2119 C 0.16075 0.67184 0.1909 0.0
C2120 C 0.12095 0.65497 0.21707 0.0
C2121 C 0.10001 0.62526 0.21357 0.0
N2122 N 0.14844 0.66576 0.19966 0.0
N2123 N 0.1143 0.6306 0.20705 0.0
H2124 H 0.08064 0.29936 0.97157 0.0
H2125 H 0.08751 0.30333 0.88611 0.0
H2126 H 0.0924 0.26593 0.94933 0.0
H2127 H 0.08977 0.34123 0.9112 0.0
H2128 H 0.0841 0.28748 0.90826 0.0
H2129 H 0.07873 0.31274 0.94856 0.0
C2130 C 0.08268 0.29474 0.96183 0.0
C2131 C 0.08685 0.28155 0.96243 0.0
C2132 C 0.0852 0.29923 0.90887 0.0
C2133 C 0.08467 0.2969 0.93598 0.0
C2134 C 0.08703 0.30823 0.89625 0.0
C2135 C 0.08902 0.32361 0.89689 0.0
C2136 C 0.08518 0.30564 0.92215 0.0
C2137 C 0.08846 0.32946 0.91029 0.0
C2138 C 0.08163 0.30243 0.94869 0.0
C2139 C 0.08928 0.27611 0.94941 0.0
N2140 N 0.08663 0.32048 0.92239 0.0
N2141 N 0.08823 0.28385 0.93671 0.0
H2142 H 0.35801 0.35746 0.70274 0.0
H2143 H 0.36842 0.38573 0.62033 0.0
H2144 H 0.40543 0.38313 0.68772 0.0
H2145 H 0.32152 0.37057 0.63868 0.0
H2146 H 0.38232 0.38233 0.6442 0.0
H2147 H 0.34449 0.36 0.67863 0.0
C2148 C 0.36562 0.36356 0.69435 0.0
C2149 C 0.38296 0.36978 0.6972 0.0
C2150 C 0.36899 0.37975 0.64298 0.0
C2151 C 0.36752 0.37272 0.66951 0.0
C2152 C 0.36105 0.38159 0.62936 0.0
C2153 C 0.34381 0.37847 0.62756 0.0
C2154 C 0.35959 0.3746 0.65482 0.0
C2155 C 0.33487 0.37326 0.63964 0.0
C2156 C 0.35788 0.36499 0.68057 0.0
C2157 C 0.39215 0.3776 0.68591 0.0
N2158 N 0.34284 0.37147 0.65273 0.0
N2159 N 0.38433 0.37883 0.67254 0.0
H2160 H 0.09172 0.65538 0.5538 0.0
H2161 H 0.11105 0.62413 0.63309 0.0
H2162 H 0.12412 0.68291 0.58817 0.0
H2163 H 0.08009 0.59534 0.59892 0.0
H2164 H 0.11837 0.64523 0.61574 0.0
H2165 H 0.08959 0.6328 0.56897 0.0
C2166 C 0.09873 0.65666 0.56436 0.0
C2167 C 0.10828 0.67105 0.56965 0.0
C2168 C 0.11011 0.63429 0.61194 0.0
C2169 C 0.10551 0.64531 0.58724 0.0
C2170 C 0.10594 0.62225 0.62186 0.0
C2171 C 0.09484 0.60804 0.61744 0.0
C2172 C 0.10298 0.6322 0.59748 0.0
C2173 C 0.08871 0.60614 0.60274 0.0
C2174 C 0.09737 0.64377 0.57309 0.0
C2175 C 0.11658 0.67204 0.58367 0.0
N2176 N 0.09269 0.61815 0.5933 0.0
N2177 N 0.11494 0.65939 0.59197 0.0
H2178 H 0.34262 0.35389 0.07596 0.0
H2179 H 0.41029 0.42131 0.12122 0.0
H2180 H 0.39567 0.36504 0.07667 0.0
H2181 H 0.35788 0.40652 0.126 0.0
H2182 H 0.40454 0.4038 0.10134 0.0
H2183 H 0.34747 0.37585 0.09092 0.0
C2184 C 0.35529 0.36103 0.07913 0.0
C2185 C 0.36877 0.3575 0.07519 0.0
C2186 C 0.39425 0.40447 0.10661 0.0
C2187 C 0.37438 0.38266 0.09227 0.0
C2188 C 0.39753 0.41448 0.11795 0.0
C2189 C 0.38456 0.41517 0.1254 0.0
C2190 C 0.37787 0.395 0.1027 0.0
C2191 C 0.36823 0.40629 0.12055 0.0
C2192 C 0.35803 0.37355 0.08768 0.0
C2193 C 0.3849 0.36721 0.07957 0.0
N2194 N 0.36535 0.3964 0.10961 0.0
N2195 N 0.38724 0.37927 0.08794 0.0
H2196 H 0.53177 0.3411 0.20216 0.0
H2197 H 0.62746 0.38866 0.19465 0.0
H2198 H 0.56019 0.38173 0.22559 0.0
H2199 H 0.59821 0.3532 0.16528 0.0
H2200 H 0.60374 0.38336 0.20856 0.0
H2201 H 0.55667 0.34275 0.19078 0.0
C2202 C 0.54325 0.3503 0.20498 0.0
C2203 C 0.54386 0.36137 0.21476 0.0
C2204 C 0.60247 0.37664 0.19913 0.0
C2205 C 0.57231 0.36325 0.20186 0.0
C2206 C 0.61602 0.37967 0.19118 0.0
C2207 C 0.61469 0.37152 0.17866 0.0
C2208 C 0.58739 0.36538 0.19454 0.0
C2209 C 0.59971 0.35977 0.17485 0.0
C2210 C 0.55743 0.35124 0.19847 0.0
C2211 C 0.55906 0.37301 0.21803 0.0
N2212 N 0.58654 0.35715 0.18268 0.0
N2213 N 0.57263 0.37366 0.21158 0.0
H2214 H 0.96168 0.63254 0.69287 0.0
H2215 H 0.91722 0.67672 0.63629 0.0
H2216 H 0.97228 0.68046 0.697 0.0
H2217 H 0.89532 0.62992 0.6494 0.0
H2218 H 0.94062 0.67915 0.65512 0.0
H2219 H 0.941 0.63222 0.67264 0.0
C2220 C 0.95977 0.64305 0.68947 0.0
C2221 C 0.96862 0.65652 0.69678 0.0
C2222 C 0.93067 0.66838 0.6537 0.0
C2223 C 0.94483 0.65619 0.67352 0.0
C2224 C 0.91733 0.66697 0.64301 0.0
C2225 C 0.90442 0.65299 0.64095 0.0
C2226 C 0.9311 0.65567 0.66219 0.0
C2227 C 0.90521 0.64077 0.65008 0.0
C2228 C 0.94789 0.64283 0.67793 0.0
C2229 C 0.96561 0.6698 0.69175 0.0
N2230 N 0.91832 0.64238 0.66015 0.0
N2231 N 0.95389 0.66931 0.68042 0.0
H2232 H 0.60138 0.31141 0.59079 0.0
H2233 H 0.57759 0.38362 0.60319 0.0
H2234 H 0.56344 0.3233 0.56356 0.0
H2235 H 0.6093 0.36747 0.6342 0.0
H2236 H 0.56994 0.36017 0.58994 0.0
H2237 H 0.60247 0.33041 0.60804 0.0
C2238 C 0.59314 0.31789 0.58851 0.0
C2239 C 0.58246 0.31588 0.57561 0.0
C2240 C 0.57839 0.36165 0.59976 0.0
C2241 C 0.58374 0.33777 0.59527 0.0
C2242 C 0.58268 0.37502 0.6074 0.0
C2243 C 0.59429 0.37763 0.61973 0.0
C2244 C 0.58588 0.35087 0.60439 0.0
C2245 C 0.6006 0.36609 0.62456 0.0
C2246 C 0.59375 0.32874 0.59838 0.0
C2247 C 0.57197 0.32454 0.5733 0.0
N2248 N 0.59649 0.35332 0.61677 0.0
N2249 N 0.57303 0.33524 0.58293 0.0
H2250 H 0.4699 0.66466 0.84593 0.0
H2251 H 0.41659 0.62264 0.91055 0.0
H2252 H 0.44574 0.61629 0.84912 0.0
H2253 H 0.42801 0.67029 0.90089 0.0
H2254 H 0.4312 0.62069 0.89022 0.0
H2255 H 0.45845 0.66739 0.86814 0.0
C2256 C 0.46229 0.65461 0.85134 0.0
C2257 C 0.45869 0.64022 0.84561 0.0
C2258 C 0.43055 0.63159 0.89255 0.0
C2259 C 0.44566 0.64329 0.87102 0.0
C2260 C 0.42215 0.63271 0.90413 0.0
C2261 C 0.42079 0.64661 0.90727 0.0
C2262 C 0.4378 0.64447 0.88406 0.0
C2263 C 0.42872 0.65936 0.89884 0.0
C2264 C 0.45573 0.6562 0.86398 0.0
C2265 C 0.44874 0.62761 0.85308 0.0
N2266 N 0.43682 0.65797 0.88754 0.0
N2267 N 0.44259 0.62944 0.86538 0.0
H2268 H 0.05095 0.36311 0.3144 0.0
H2269 H 0.05319 0.34341 0.3993 0.0
H2270 H 0.00696 0.34383 0.33681 0.0
H2271 H 0.09636 0.36757 0.37728 0.0
H2272 H 0.03631 0.33867 0.37575 0.0
H2273 H 0.06785 0.36015 0.33652 0.0
C2274 C 0.04481 0.35811 0.32392 0.0
C2275 C 0.02751 0.35394 0.32379 0.0
C2276 C 0.04952 0.3448 0.37607 0.0
C2277 C 0.04685 0.35058 0.34924 0.0
C2278 C 0.05916 0.3474 0.38947 0.0
C2279 C 0.07611 0.35603 0.39018 0.0
C2280 C 0.05696 0.35087 0.36334 0.0
C2281 C 0.08326 0.36104 0.37718 0.0
C2282 C 0.05448 0.35643 0.33657 0.0
C2283 C 0.02026 0.34737 0.33645 0.0
N2284 N 0.07363 0.35852 0.36431 0.0
N2285 N 0.02998 0.34605 0.34871 0.0
H2286 H 0.37503 0.7177 0.43672 0.0
H2287 H 0.41651 0.67304 0.39142 0.0
H2288 H 0.41591 0.70339 0.4545 0.0
H2289 H 0.3707 0.68087 0.37709 0.0
H2290 H 0.41983 0.68841 0.4128 0.0
H2291 H 0.37668 0.70855 0.41309 0.0
C2292 C 0.38448 0.71279 0.43564 0.0
C2293 C 0.3952 0.71113 0.44768 0.0
C2294 C 0.40915 0.6869 0.40488 0.0
C2295 C 0.3971 0.70055 0.42061 0.0
C2296 C 0.40732 0.67823 0.39266 0.0
C2297 C 0.39321 0.67556 0.38262 0.0
C2298 C 0.39683 0.69301 0.40695 0.0
C2299 C 0.38163 0.68247 0.38472 0.0
C2300 C 0.3854 0.70754 0.42213 0.0
C2301 C 0.40728 0.70477 0.44556 0.0
N2302 N 0.38363 0.69077 0.3967 0.0
N2303 N 0.4078 0.69958 0.43232 0.0
H2304 H 0.105 0.2829 0.06026 0.0
H2305 H 0.09097 0.34921 0.10092 0.0
H2306 H 0.07124 0.30601 0.04318 0.0
H2307 H 0.1177 0.32125 0.12188 0.0
H2308 H 0.08378 0.33335 0.07962 0.0
H2309 H 0.10982 0.29647 0.083 0.0
C2310 C 0.0985 0.29072 0.06132 0.0
C2311 C 0.08778 0.2934 0.04975 0.0
C2312 C 0.09115 0.3306 0.08888 0.0
C2313 C 0.09333 0.309 0.07565 0.0
C2314 C 0.09534 0.33971 0.10101 0.0
C2315 C 0.10504 0.33659 0.11312 0.0
C2316 C 0.09683 0.31831 0.08877 0.0
C2317 C 0.11014 0.324 0.11276 0.0
C2318 C 0.10126 0.29846 0.0743 0.0
C2319 C 0.07968 0.30363 0.05175 0.0
N2320 N 0.10609 0.31537 0.10072 0.0
N2321 N 0.08272 0.31113 0.06439 0.0
H2322 H 0.84939 0.8353 0.27367 0.0
H2323 H 0.84199 0.88954 0.33394 0.0
H2324 H 0.88417 0.88043 0.28132 0.0
H2325 H 0.80501 0.84601 0.32367 0.0
H2326 H 0.85845 0.88581 0.3157 0.0
H2327 H 0.83363 0.83857 0.2927 0.0
C2328 C 0.85372 0.84591 0.27934 0.0
C2329 C 0.86812 0.85762 0.27587 0.0
C2330 C 0.84676 0.87706 0.31745 0.0
C2331 C 0.85015 0.86141 0.29774 0.0
C2332 C 0.83741 0.87913 0.32795 0.0
C2333 C 0.82207 0.86808 0.33033 0.0
C2334 C 0.84077 0.86381 0.30928 0.0
C2335 C 0.81665 0.85491 0.32208 0.0
C2336 C 0.8447 0.84776 0.29022 0.0
C2337 C 0.87313 0.8711 0.28361 0.0
N2338 N 0.82598 0.85315 0.31193 0.0
N2339 N 0.86416 0.87262 0.29418 0.0
H2340 H 0.38629 0.70381 0.54451 0.0
H2341 H 0.38004 0.63041 0.59479 0.0
H2342 H 0.39303 0.66383 0.52997 0.0
H2343 H 0.372 0.66983 0.60917 0.0
H2344 H 0.38499 0.64258 0.57099 0.0
H2345 H 0.38132 0.69172 0.56836 0.0
C2346 C 0.38673 0.6925 0.54633 0.0
C2347 C 0.39009 0.68483 0.53521 0.0
C2348 C 0.38216 0.64858 0.57935 0.0
C2349 C 0.3844 0.67091 0.56249 0.0
C2350 C 0.37925 0.6416 0.59293 0.0
C2351 C 0.37562 0.64911 0.60401 0.0
C2352 C 0.38142 0.66318 0.57681 0.0
C2353 C 0.37499 0.6637 0.60102 0.0
C2354 C 0.38389 0.68559 0.55995 0.0
C2355 C 0.3905 0.67018 0.5382 0.0
N2356 N 0.37784 0.67024 0.58771 0.0
N2357 N 0.38769 0.66371 0.55154 0.0
H2358 H 0.57713 0.15111 0.7917 0.0
H2359 H 0.58369 0.08203 0.84335 0.0
H2360 H 0.57184 0.10741 0.7757 0.0
H2361 H 0.57662 0.12139 0.85893 0.0
H2362 H 0.58229 0.0922 0.81857 0.0
H2363 H 0.57986 0.14142 0.81653 0.0
C2364 C 0.57661 0.1395 0.7934 0.0
C2365 C 0.57421 0.13004 0.7816 0.0
C2366 C 0.58104 0.09861 0.82741 0.0
C2367 C 0.57736 0.11891 0.80999 0.0
C2368 C 0.58194 0.09286 0.84155 0.0
C2369 C 0.58025 0.10088 0.8532 0.0
C2370 C 0.5786 0.11256 0.8249 0.0
C2371 C 0.57781 0.11477 0.85024 0.0
C2372 C 0.57811 0.13397 0.80758 0.0
C2373 C 0.57361 0.11508 0.78447 0.0
N2374 N 0.57711 0.1202 0.83638 0.0
N2375 N 0.5752 0.10999 0.79836 0.0
H2376 H 0.10271 0.64635 0.48852 0.0
H2377 H 0.06273 0.56203 0.45872 0.0
H2378 H 0.08336 0.60693 0.51583 0.0
H2379 H 0.08168 0.60144 0.43133 0.0
H2380 H 0.07188 0.57813 0.47995 0.0
H2381 H 0.09675 0.62995 0.46767 0.0
C2382 C 0.09727 0.63424 0.49016 0.0
C2383 C 0.09345 0.62802 0.50396 0.0
C2384 C 0.07414 0.58326 0.46931 0.0
C2385 C 0.08657 0.60916 0.48008 0.0
C2386 C 0.06887 0.57407 0.45717 0.0
C2387 C 0.07133 0.5804 0.44319 0.0
C2388 C 0.08189 0.59893 0.4675 0.0
C2389 C 0.07962 0.59605 0.44188 0.0
C2390 C 0.09387 0.62488 0.47823 0.0
C2391 C 0.08646 0.61224 0.5054 0.0
N2392 N 0.08449 0.60478 0.45386 0.0
N2393 N 0.08318 0.60337 0.4936 0.0
H2394 H 0.51071 0.8666 0.73266 0.0
H2395 H 0.59344 0.88511 0.69303 0.0
H2396 H 0.5463 0.91159 0.72858 0.0
H2397 H 0.56111 0.83994 0.70255 0.0
H2398 H 0.57471 0.89527 0.70346 0.0
H2399 H 0.52732 0.85694 0.71892 0.0
C2400 C 0.52193 0.87448 0.72874 0.0
C2401 C 0.52718 0.88992 0.73186 0.0
C2402 C 0.5717 0.88313 0.70323 0.0
C2403 C 0.54634 0.8789 0.71621 0.0
C2404 C 0.58234 0.87733 0.69723 0.0
C2405 C 0.57889 0.86166 0.69703 0.0
C2406 C 0.55745 0.87319 0.709 0.0
C2407 C 0.5644 0.85211 0.70271 0.0
C2408 C 0.53145 0.86894 0.72094 0.0
C2409 C 0.54182 0.89959 0.72648 0.0
N2410 N 0.55424 0.85802 0.70848 0.0
N2411 N 0.55094 0.89391 0.719 0.0
H2412 H 0.31183 0.32762 0.00662 0.0
H2413 H 0.34396 0.35033 0.92839 0.0
H2414 H 0.35979 0.32786 -0.00286 0.0
H2415 H 0.30591 0.36393 0.94366 0.0
H2416 H 0.34827 0.33921 0.95244 0.0
H2417 H 0.30759 0.33789 0.98232 0.0
C2418 C 0.32143 0.32974 -0.00061 0.0
C2419 C 0.33621 0.32692 0.00393 0.0
C2420 C 0.33903 0.34469 0.95052 0.0
C2421 C 0.33141 0.33867 0.97609 0.0
C2422 C 0.33654 0.35098 0.93682 0.0
C2423 C 0.32464 0.35813 0.93409 0.0
C2424 C 0.32934 0.34534 0.96146 0.0
C2425 C 0.31537 0.3587 0.94537 0.0
C2426 C 0.31903 0.33568 0.98555 0.0
C2427 C 0.34823 0.32993 0.99411 0.0
N2428 N 0.31785 0.35232 0.95853 0.0
N2429 N 0.34556 0.33562 0.98062 0.0
H2430 H 0.93309 0.16627 0.23049 0.0
H2431 H 0.85923 0.12215 0.17149 0.0
H2432 H 0.91299 0.11759 0.22816 0.0
H2433 H 0.87745 0.17055 0.17648 0.0
H2434 H 0.88059 0.12022 0.19057 0.0
H2435 H 0.91476 0.16801 0.20893 0.0
C2436 C 0.92494 0.15593 0.22537 0.0
C2437 C 0.92448 0.14176 0.23124 0.0
C2438 C 0.87993 0.13126 0.18745 0.0
C2439 C 0.90329 0.14367 0.20656 0.0
C2440 C 0.86779 0.13237 0.17653 0.0
C2441 C 0.86645 0.14652 0.17248 0.0
C2442 C 0.89087 0.1444 0.19432 0.0
C2443 C 0.87781 0.15938 0.17944 0.0
C2444 C 0.91442 0.15693 0.21306 0.0
C2445 C 0.9137 0.12876 0.22406 0.0
N2446 N 0.88948 0.15801 0.19003 0.0
N2447 N 0.90343 0.13002 0.21216 0.0
H2448 H 0.01564 0.11309 0.2976 0.0
H2449 H 0.10165 0.15912 0.34119 0.0
H2450 H 0.03556 0.16185 0.29807 0.0
H2451 H 0.08961 0.11262 0.32963 0.0
H2452 H 0.07714 0.16014 0.32568 0.0
H2453 H 0.04226 0.11233 0.30945 0.0
C2454 C 0.02565 0.12363 0.30008 0.0
C2455 C 0.02334 0.13756 0.29692 0.0
C2456 C 0.0799 0.14974 0.3264 0.0
C2457 C 0.05372 0.13675 0.31059 0.0
C2458 C 0.09384 0.14915 0.33529 0.0
C2459 C 0.09754 0.13574 0.33672 0.0
C2460 C 0.06941 0.13675 0.31904 0.0
C2461 C 0.08715 0.12317 0.32877 0.0
C2462 C 0.04084 0.12318 0.30681 0.0
C2463 C 0.03675 0.15086 0.30034 0.0
N2464 N 0.0734 0.12391 0.32038 0.0
N2465 N 0.05129 0.15012 0.30712 0.0
H2466 H 0.08087 0.74692 0.5819 0.0
H2467 H 0.12425 0.79398 0.65325 0.0
H2468 H 0.13293 0.75786 0.59669 0.0
H2469 H 0.07525 0.79079 0.63385 0.0
H2470 H 0.12764 0.78075 0.63259 0.0
H2471 H 0.07843 0.76283 0.60082 0.0
C2472 C 0.0918 0.75271 0.58909 0.0
C2473 C 0.10712 0.751 0.58774 0.0
C2474 C 0.11619 0.78304 0.63277 0.0
C2475 C 0.10439 0.76918 0.60947 0.0
C2476 C 0.11423 0.79055 0.64459 0.0
C2477 C 0.09942 0.79342 0.64529 0.0
C2478 C 0.10316 0.77819 0.62163 0.0
C2479 C 0.08691 0.78888 0.63369 0.0
C2480 C 0.09041 0.76182 0.59987 0.0
C2481 C 0.12087 0.75882 0.59734 0.0
N2482 N 0.089 0.78136 0.6224 0.0
N2483 N 0.11916 0.76748 0.60784 0.0
H2484 H 0.41528 0.86986 0.75862 0.0
H2485 H 0.39361 0.90831 0.82344 0.0
H2486 H 0.45202 0.90462 0.7848 0.0
H2487 H 0.35629 0.88494 0.78972 0.0
H2488 H 0.41521 0.90752 0.80893 0.0
H2489 H 0.39336 0.87563 0.76908 0.0
C2490 C 0.41875 0.87883 0.76641 0.0
C2491 C 0.43553 0.88663 0.77097 0.0
C2492 C 0.40232 0.90274 0.80458 0.0
C2493 C 0.41054 0.89315 0.78308 0.0
C2494 C 0.39001 0.90316 0.81288 0.0
C2495 C 0.37321 0.89662 0.80776 0.0
C2496 C 0.39777 0.89545 0.79117 0.0
C2497 C 0.36915 0.89014 0.79399 0.0
C2498 C 0.40623 0.88212 0.77237 0.0
C2499 C 0.43928 0.8982 0.78105 0.0
N2500 N 0.38135 0.88951 0.78624 0.0
N2501 N 0.4269 0.90095 0.7869 0.0
H2502 H 0.40152 0.27771 0.08945 0.0
H2503 H 0.33545 0.19372 0.08602 0.0
H2504 H 0.35675 0.26414 0.05983 0.0
H2505 H 0.37914 0.20743 0.11684 0.0
H2506 H 0.34467 0.2188 0.07459 0.0
H2507 H 0.39518 0.25147 0.09783 0.0
C2508 C 0.39042 0.2692 0.08461 0.0
C2509 C 0.37957 0.27318 0.074 0.0
C2510 C 0.35232 0.21631 0.08379 0.0
C2511 C 0.3722 0.24308 0.08361 0.0
C2512 C 0.34703 0.202 0.09036 0.0
C2513 C 0.35644 0.19852 0.10253 0.0
C2514 C 0.36712 0.22731 0.08944 0.0
C2515 C 0.37151 0.2096 0.10747 0.0
C2516 C 0.38681 0.25421 0.08942 0.0
C2517 C 0.36543 0.26163 0.06809 0.0
N2518 N 0.37631 0.22354 0.101 0.0
N2519 N 0.3621 0.24714 0.07305 0.0
H2520 H 0.98341 0.8774 0.18355 0.0
H2521 H 0.02489 0.91828 0.11251 0.0
H2522 H 0.95538 0.88723 0.14506 0.0
H2523 H 0.0529 0.91181 0.15244 0.0
H2524 H -0.00083 0.90554 0.12364 0.0
H2525 H 0.00882 0.88841 0.17166 0.0
C2526 C 0.98257 0.88182 0.17257 0.0
C2527 C 0.96722 0.88143 0.16531 0.0
C2528 C 0.01095 0.90687 0.12995 0.0
C2529 C -0.00365 0.89411 0.15162 0.0
C2530 C 0.02565 0.9142 0.12362 0.0
C2531 C 0.04112 0.91617 0.13155 0.0
C2532 C 0.01168 0.90145 0.14433 0.0
C2533 C 0.04129 0.9104 0.14584 0.0
C2534 C -0.00288 0.88813 0.16579 0.0
C2535 C 0.96693 0.88732 0.15109 0.0
N2536 N 0.02682 0.90336 0.15177 0.0
N2537 N 0.98128 0.89345 0.14472 0.0
H2538 H 0.38122 0.78046 0.49133 0.0
H2539 H 0.32133 0.81409 0.44058 0.0
H2540 H 0.33476 0.75229 0.4694 0.0
H2541 H 0.35955 0.84082 0.47197 0.0
H2542 H 0.32544 0.7912 0.45144 0.0
H2543 H 0.37321 0.80266 0.48478 0.0
C2544 C 0.36928 0.77893 0.48523 0.0
C2545 C 0.3587 0.76451 0.48081 0.0
C2546 C 0.33275 0.80204 0.45611 0.0
C2547 C 0.34951 0.78989 0.47318 0.0
C2548 C 0.33041 0.81509 0.4499 0.0
C2549 C 0.34016 0.82934 0.45536 0.0
C2550 C 0.34514 0.80328 0.46769 0.0
C2551 C 0.35171 0.83003 0.46749 0.0
C2552 C 0.36469 0.7916 0.48154 0.0
C2553 C 0.34333 0.7632 0.473 0.0
N2554 N 0.35406 0.8172 0.47311 0.0
N2555 N 0.33928 0.77574 0.46928 0.0
H2556 H 0.50312 0.10543 0.72563 0.0
H2557 H 0.43632 0.12799 0.67086 0.0
H2558 H 0.51571 0.14458 0.69698 0.0
H2559 H 0.42355 0.09028 0.70117 0.0
H2560 H 0.46522 0.1353 0.68144 0.0
H2561 H 0.47372 0.10066 0.71792 0.0
C2562 C 0.49971 0.11309 0.7178 0.0
C2563 C 0.51191 0.12536 0.71186 0.0
C2564 C 0.45608 0.12548 0.68584 0.0
C2565 C 0.47826 0.11991 0.70292 0.0
C2566 C 0.43955 0.12135 0.67985 0.0
C2567 C 0.4275 0.10842 0.68504 0.0
C2568 C 0.46062 0.11661 0.69709 0.0
C2569 C 0.43247 0.10016 0.69663 0.0
C2570 C 0.4829 0.11036 0.71339 0.0
C2571 C 0.50674 0.13493 0.70179 0.0
N2572 N 0.44864 0.10434 0.70219 0.0
N2573 N 0.49032 0.13194 0.69756 0.0
H2574 H 0.14351 0.23163 0.98498 0.0
H2575 H 0.12062 0.14326 0.9717 0.0
H2576 H 0.09771 0.19777 0.9958 0.0
H2577 H 0.1551 0.17832 0.9478 0.0
H2578 H 0.11656 0.16274 0.9858 0.0
H2579 H 0.1521 0.21169 0.97638 0.0
C2580 C 0.13535 0.21999 0.98572 0.0
C2581 C 0.11978 0.21637 0.99097 0.0
C2582 C 0.1252 0.16614 0.97762 0.0
C2583 C 0.1296 0.19354 0.98123 0.0
C2584 C 0.12762 0.15505 0.96968 0.0
C2585 C 0.13813 0.15926 0.95857 0.0
C2586 C 0.13351 0.18148 0.97449 0.0
C2587 C 0.1468 0.17467 0.95624 0.0
C2588 C 0.14025 0.20864 0.98078 0.0
C2589 C 0.10974 0.20108 0.99169 0.0
N2590 N 0.14423 0.18524 0.96408 0.0
N2591 N 0.11479 0.19022 0.98682 0.0
H2592 H 0.3124 0.03387 0.11715 0.0
H2593 H 0.37064 0.1097 0.15719 0.0
H2594 H 0.33238 0.03567 0.16211 0.0
H2595 H 0.34944 0.10909 0.11269 0.0
H2596 H 0.35792 0.08232 0.15859 0.0
H2597 H 0.32693 0.06111 0.11476 0.0
C2598 C 0.31989 0.03997 0.1265 0.0
C2599 C 0.32113 0.03248 0.13987 0.0
C2600 C 0.35608 0.08813 0.14848 0.0
C2601 C 0.33775 0.06364 0.1372 0.0
C2602 C 0.36347 0.10378 0.14763 0.0
C2603 C 0.3612 0.11172 0.13476 0.0
C2604 C 0.34626 0.08025 0.13638 0.0
C2605 C 0.35142 0.10344 0.12285 0.0
C2606 C 0.32816 0.05553 0.12513 0.0
C2607 C 0.33101 0.04096 0.15161 0.0
N2608 N 0.3443 0.08815 0.12395 0.0
N2609 N 0.3389 0.05607 0.15 0.0
H2610 H 0.79487 0.47259 0.91668 0.0
H2611 H 0.83441 0.4146 0.88945 0.0
H2612 H 0.80342 0.47029 0.87211 0.0
H2613 H 0.82904 0.41994 0.93424 0.0
H2614 H 0.82051 0.43306 0.88239 0.0
H2615 H 0.80486 0.4515 0.92281 0.0
C2616 C 0.79875 0.46759 0.90815 0.0
C2617 C 0.79839 0.4733 0.89387 0.0
C2618 C 0.82231 0.43013 0.89375 0.0
C2619 C 0.80995 0.44912 0.90084 0.0
C2620 C 0.83015 0.41953 0.89777 0.0
C2621 C 0.83306 0.41585 0.91247 0.0
C2622 C 0.81725 0.43702 0.9045 0.0
C2623 C 0.82735 0.42265 0.92281 0.0
C2624 C 0.80449 0.45555 0.91167 0.0
C2625 C 0.80355 0.46631 0.88328 0.0
N2626 N 0.81981 0.43293 0.91864 0.0
N2627 N 0.80919 0.45464 0.88699 0.0
H2628 H 0.73907 0.56128 0.13108 0.0
H2629 H 0.83506 0.57259 0.15325 0.0
H2630 H 0.75779 0.54716 0.17252 0.0
H2631 H 0.81656 0.58929 0.11308 0.0
H2632 H 0.80667 0.56193 0.15997 0.0
H2633 H 0.76717 0.57025 0.12376 0.0
C2634 C 0.74908 0.56 0.13863 0.0
C2635 C 0.74607 0.55352 0.15248 0.0
C2636 C 0.80881 0.56792 0.14968 0.0
C2637 C 0.77834 0.56384 0.14415 0.0
C2638 C 0.825 0.57395 0.14581 0.0
C2639 C 0.82818 0.58188 0.1326 0.0
C2640 C 0.79566 0.56978 0.14026 0.0
C2641 C 0.8147 0.58345 0.12345 0.0
C2642 C 0.76514 0.56516 0.13444 0.0
C2643 C 0.75954 0.55212 0.16177 0.0
N2644 N 0.79904 0.57745 0.12746 0.0
N2645 N 0.7751 0.55729 0.15745 0.0
H2646 H 0.69929 0.51786 0.4462 0.0
H2647 H 0.69221 0.60022 0.44752 0.0
H2648 H 0.7099 0.54922 0.40989 0.0
H2649 H 0.66975 0.56326 0.47663 0.0
H2650 H 0.70225 0.58334 0.435 0.0
H2651 H 0.69264 0.53633 0.45924 0.0
C2652 C 0.70035 0.52868 0.44098 0.0
C2653 C 0.70501 0.53191 0.42685 0.0
C2654 C 0.69519 0.57902 0.44419 0.0
C2655 C 0.6973 0.55319 0.44179 0.0
C2656 C 0.68937 0.58861 0.4513 0.0
C2657 C 0.68016 0.58324 0.46325 0.0
C2658 C 0.69186 0.56399 0.44912 0.0
C2659 C 0.67709 0.5681 0.46772 0.0
C2660 C 0.69648 0.53923 0.44844 0.0
C2661 C 0.70626 0.54621 0.42074 0.0
N2662 N 0.68293 0.55907 0.46069 0.0
N2663 N 0.70233 0.55632 0.42822 0.0
H2664 H 0.22811 0.98165 0.1185 0.0
H2665 H 0.15192 0.92827 0.15757 0.0
H2666 H 0.23308 0.96144 0.16092 0.0
H2667 H 0.14634 0.95503 0.11941 0.0
H2668 H 0.18153 0.94316 0.1608 0.0
H2669 H 0.19834 0.975 0.12017 0.0
C2670 C 0.223 0.97602 0.12826 0.0
C2671 C 0.23306 0.97183 0.13946 0.0
C2672 C 0.17381 0.94603 0.15188 0.0
C2673 C 0.19897 0.96407 0.1414 0.0
C2674 C 0.15692 0.93754 0.15007 0.0
C2675 C 0.14679 0.94039 0.13816 0.0
C2676 C 0.18068 0.95723 0.14152 0.0
C2677 C 0.15379 0.95252 0.12874 0.0
C2678 C 0.20599 0.97224 0.12922 0.0
C2679 C 0.22578 0.96471 0.15192 0.0
N2680 N 0.1704 0.96032 0.13045 0.0
N2681 N 0.20914 0.96083 0.15244 0.0
H2682 H 0.15082 0.94504 0.68099 0.0
H2683 H 0.07325 0.87726 0.6473 0.0
H2684 H 0.12169 0.95031 0.64132 0.0
H2685 H 0.11304 0.87039 0.67621 0.0
H2686 H 0.08953 0.90431 0.64585 0.0
H2687 H 0.13548 0.91785 0.68074 0.0
C2688 C 0.14113 0.94049 0.67226 0.0
C2689 C 0.13751 0.94995 0.66116 0.0
C2690 C 0.09476 0.89684 0.65237 0.0
C2691 C 0.11994 0.91886 0.66081 0.0
C2692 C 0.0855 0.88144 0.65318 0.0
C2693 C 0.09186 0.87161 0.66184 0.0
C2694 C 0.11034 0.90245 0.66049 0.0
C2695 C 0.10777 0.87757 0.66929 0.0
C2696 C 0.13247 0.92496 0.67207 0.0
C2697 C 0.1249 0.94342 0.65008 0.0
N2698 N 0.11639 0.89263 0.66857 0.0
N2699 N 0.11649 0.92827 0.65022 0.0
H2700 H 0.78805 0.47973 0.38726 0.0
H2701 H 0.79465 0.44371 0.31403 0.0
H2702 H 0.75762 0.4819 0.34744 0.0
H2703 H 0.8365 0.45856 0.34676 0.0
H2704 H 0.77969 0.45549 0.32727 0.0
H2705 H 0.80495 0.47 0.37371 0.0
C2706 C 0.785 0.47827 0.37566 0.0
C2707 C 0.77138 0.48161 0.36847 0.0
C2708 C 0.79218 0.45623 0.33151 0.0
C2709 C 0.79045 0.47028 0.35302 0.0
C2710 C 0.80081 0.44956 0.32392 0.0
C2711 C 0.817 0.4502 0.32915 0.0
C2712 C 0.79959 0.46342 0.34462 0.0
C2713 C 0.824 0.45757 0.34233 0.0
C2714 C 0.79465 0.47274 0.36796 0.0
C2715 C 0.76801 0.47951 0.35344 0.0
N2716 N 0.81523 0.46383 0.34965 0.0
N2717 N 0.77736 0.47383 0.34625 0.0
H2718 H 0.7223 0.53394 0.86167 0.0
H2719 H 0.6896 0.59774 0.88614 0.0
H2720 H 0.7363 0.55427 0.90385 0.0
H2721 H 0.67537 0.5763 0.84452 0.0
H2722 H 0.7043 0.58006 0.89399 0.0
H2723 H 0.70267 0.54745 0.85633 0.0
C2724 C 0.72113 0.54113 0.86988 0.0
C2725 C 0.73111 0.54307 0.88317 0.0
C2726 C 0.69783 0.57914 0.88318 0.0
C2727 C 0.7087 0.55875 0.87706 0.0
C2728 C 0.68938 0.58919 0.87873 0.0
C2729 C 0.68146 0.58865 0.86458 0.0
C2730 C 0.69834 0.56848 0.87341 0.0
C2731 C 0.68162 0.57735 0.85542 0.0
C2732 C 0.70992 0.54887 0.86681 0.0
C2733 C 0.72894 0.55248 0.89341 0.0
N2734 N 0.69003 0.56783 0.85994 0.0
N2735 N 0.71811 0.56009 0.89009 0.0
H2736 H 0.95286 0.71424 0.993 0.0
H2737 H 0.90975 0.66878 0.92063 0.0
H2738 H 0.90196 0.70672 0.97594 0.0
H2739 H 0.95912 0.67302 0.93994 0.0
H2740 H 0.90809 0.68588 0.93874 0.0
H2741 H 0.95683 0.70274 0.97147 0.0
C2742 C 0.94257 0.71036 0.98464 0.0
C2743 C 0.92698 0.71126 0.98639 0.0
C2744 C 0.91935 0.68319 0.93893 0.0
C2745 C 0.93142 0.69794 0.96173 0.0
C2746 C 0.92028 0.67336 0.92864 0.0
C2747 C 0.93452 0.6693 0.92887 0.0
C2748 C 0.93274 0.68899 0.94958 0.0
C2749 C 0.94792 0.67586 0.9393 0.0
C2750 C 0.94484 0.70374 0.97235 0.0
C2751 C 0.91415 0.70613 0.97513 0.0
N2752 N 0.94664 0.68526 0.94932 0.0
N2753 N 0.9166 0.69954 0.96335 0.0
H2754 H 0.14922 0.19931 0.75932 0.0
H2755 H 0.12398 0.13636 0.69828 0.0
H2756 H 0.1019 0.16305 0.75484 0.0
H2757 H 0.16915 0.17509 0.70048 0.0
H2758 H 0.11615 0.14527 0.71964 0.0
H2759 H 0.15713 0.19003 0.73829 0.0
C2760 C 0.14048 0.1894 0.75391 0.0
C2761 C 0.12486 0.18195 0.75884 0.0
C2762 C 0.12777 0.15182 0.71545 0.0
C2763 C 0.13387 0.17124 0.73476 0.0
C2764 C 0.13229 0.14668 0.70332 0.0
C2765 C 0.14723 0.15501 0.69759 0.0
C2766 C 0.1383 0.16534 0.72194 0.0
C2767 C 0.15743 0.16842 0.70443 0.0
C2768 C 0.14501 0.18411 0.74189 0.0
C2769 C 0.11406 0.16916 0.7514 0.0
N2770 N 0.15279 0.17315 0.71625 0.0
N2771 N 0.11877 0.16419 0.73974 0.0
H2772 H 0.57614 0.27853 0.48642 0.0
H2773 H 0.62066 0.32918 0.42079 0.0
H2774 H 0.61353 0.32283 0.49172 0.0
H2775 H 0.58456 0.28427 0.41567 0.0
H2776 H 0.61908 0.32664 0.44697 0.0
H2777 H 0.58005 0.27988 0.46066 0.0
C2778 C 0.58525 0.2885 0.4822 0.0
C2779 C 0.59445 0.30062 0.49123 0.0
C2780 C 0.61157 0.3173 0.44013 0.0
C2781 C 0.59893 0.30228 0.46174 0.0
C2782 C 0.61241 0.31878 0.42518 0.0
C2783 C 0.60268 0.30694 0.41602 0.0
C2784 C 0.60086 0.30391 0.44599 0.0
C2785 C 0.5924 0.29363 0.42233 0.0
C2786 C 0.58747 0.28927 0.46748 0.0
C2787 C 0.60611 0.31324 0.48516 0.0
N2788 N 0.59169 0.29251 0.43691 0.0
N2789 N 0.60794 0.31377 0.47078 0.0
H2790 H 0.38817 0.86001 0.25735 0.0
H2791 H 0.33546 0.82988 0.18168 0.0
H2792 H 0.3471 0.81784 0.2528 0.0
H2793 H 0.37269 0.87425 0.18678 0.0
H2794 H 0.34029 0.82496 0.20761 0.0
H2795 H 0.38318 0.86527 0.23147 0.0
C2796 C 0.37806 0.85188 0.25092 0.0
C2797 C 0.36804 0.83845 0.25725 0.0
C2798 C 0.34742 0.83578 0.20308 0.0
C2799 C 0.36234 0.84437 0.22761 0.0
C2800 C 0.34475 0.83855 0.18825 0.0
C2801 C 0.35374 0.85248 0.18205 0.0
C2802 C 0.3592 0.84699 0.21181 0.0
C2803 C 0.36541 0.8634 0.19113 0.0
C2804 C 0.37523 0.85489 0.23615 0.0
C2805 C 0.35513 0.82834 0.24839 0.0
N2806 N 0.36783 0.86041 0.20555 0.0
N2807 N 0.35269 0.83148 0.23402 0.0
H2808 H 0.828 0.31021 0.50763 0.0
H2809 H 0.82252 0.35397 0.57703 0.0
H2810 H 0.864 0.35313 0.52141 0.0
H2811 H 0.78687 0.3106 0.56407 0.0
H2812 H 0.8393 0.3526 0.5581 0.0
H2813 H 0.8142 0.30893 0.52948 0.0
C2814 C 0.83311 0.31929 0.51531 0.0
C2815 C 0.84709 0.33187 0.5126 0.0
C2816 C 0.82787 0.34331 0.55945 0.0
C2817 C 0.83128 0.33052 0.5376 0.0
C2818 C 0.81832 0.34404 0.57035 0.0
C2819 C 0.80318 0.33242 0.57213 0.0
C2820 C 0.82225 0.33091 0.55017 0.0
C2821 C 0.79829 0.31995 0.56295 0.0
C2822 C 0.8252 0.31857 0.52778 0.0
C2823 C 0.85319 0.34327 0.52298 0.0
N2824 N 0.80774 0.31958 0.55231 0.0
N2825 N 0.84517 0.34238 0.53494 0.0
H2826 H 0.49868 0.15111 0.30225 0.0
H2827 H 0.4599 0.16362 0.37281 0.0
H2828 H 0.465 0.17603 0.30215 0.0
H2829 H 0.49029 0.13555 0.37286 0.0
H2830 H 0.46202 0.16848 0.34693 0.0
H2831 H 0.49644 0.14573 0.32819 0.0
C2832 C 0.49085 0.15548 0.30768 0.0
C2833 C 0.48201 0.16404 0.3 0.0
C2834 C 0.4682 0.16122 0.35258 0.0
C2835 C 0.47938 0.1579 0.32966 0.0
C2836 C 0.46689 0.15834 0.36736 0.0
C2837 C 0.47487 0.1491 0.37506 0.0
C2838 C 0.47761 0.15487 0.34536 0.0
C2839 C 0.48407 0.14287 0.36742 0.0
C2840 C 0.48955 0.15237 0.32248 0.0
C2841 C 0.47204 0.16938 0.3076 0.0
N2842 N 0.4852 0.14587 0.353 0.0
N2843 N 0.471 0.16623 0.32198 0.0
H2844 H 0.66552 0.67576 0.06093 0.0
H2845 H 0.58428 0.65169 0.10364 0.0
H2846 H 0.6212 0.68541 0.04454 0.0
H2847 H 0.6281 0.64027 0.11753 0.0
H2848 H 0.59785 0.66546 0.08263 0.0
H2849 H 0.65218 0.66383 0.08237 0.0
C2850 C 0.65297 0.67537 0.06184 0.0
C2851 C 0.64446 0.68155 0.05089 0.0
C2852 C 0.60448 0.65994 0.0903 0.0
C2853 C 0.62904 0.66788 0.07551 0.0
C2854 C 0.59677 0.65216 0.1023 0.0
C2855 C 0.605 0.64467 0.11222 0.0
C2856 C 0.62054 0.6603 0.08832 0.0
C2857 C 0.62116 0.64562 0.11 0.0
C2858 C 0.64534 0.66855 0.07411 0.0
C2859 C 0.62821 0.68074 0.0527 0.0
N2860 N 0.62836 0.65322 0.0983 0.0
N2861 N 0.62101 0.67401 0.06478 0.0
H2862 H 0.98254 0.83217 0.80041 0.0
H2863 H 0.04796 0.80587 0.8535 0.0
H2864 H 0.9846 0.78697 0.80216 0.0
H2865 H 0.04386 0.85013 0.85483 0.0
H2866 H 0.02516 0.7991 0.83421 0.0
H2867 H 0.00524 0.83927 0.81997 0.0
C2868 C 0.98771 0.82372 0.80494 0.0
C2869 C 0.98165 0.80895 0.79964 0.0
C2870 C 0.02921 0.8103 0.8387 0.0
C2871 C 0.00769 0.81703 0.82194 0.0
C2872 C 0.0422 0.81415 0.84978 0.0
C2873 C 0.04776 0.82856 0.85589 0.0
C2874 C 0.02167 0.82092 0.83361 0.0
C2875 C 0.04005 0.83893 0.85038 0.0
C2876 C 0.00068 0.82779 0.81609 0.0
C2877 C 0.98885 0.79849 0.80591 0.0
N2878 N 0.02737 0.8349 0.83957 0.0
N2879 N 0.00149 0.80274 0.81669 0.0
H2880 H 0.89674 0.85224 0.71036 0.0
H2881 H 0.90624 0.92719 0.66186 0.0
H2882 H 0.94438 0.88536 0.7029 0.0
H2883 H 0.86238 0.88727 0.65911 0.0
H2884 H 0.9194 0.91449 0.6808 0.0
H2885 H 0.88307 0.86751 0.69542 0.0
C2886 C 0.90435 0.86278 0.70567 0.0
C2887 C 0.92175 0.86744 0.70776 0.0
C2888 C 0.90683 0.9086 0.67614 0.0
C2889 C 0.90612 0.88501 0.69066 0.0
C2890 C 0.89931 0.91586 0.66545 0.0
C2891 C 0.88328 0.90819 0.65892 0.0
C2892 C 0.89814 0.89367 0.68041 0.0
C2893 C 0.87482 0.89349 0.66382 0.0
C2894 C 0.89652 0.87148 0.69712 0.0
C2895 C 0.93093 0.88126 0.70146 0.0
N2896 N 0.88237 0.88669 0.67424 0.0
N2897 N 0.923 0.88955 0.69313 0.0
H2898 H 0.88922 0.29247 0.45283 0.0
H2899 H 0.88351 0.20783 0.43946 0.0
H2900 H 0.84258 0.25667 0.44217 0.0
H2901 H 0.92797 0.24654 0.43541 0.0
H2902 H 0.86848 0.22497 0.44286 0.0
H2903 H 0.90391 0.27513 0.44918 0.0
C2904 C 0.88206 0.28095 0.44975 0.0
C2905 C 0.86464 0.27602 0.44778 0.0
C2906 C 0.88153 0.22967 0.44121 0.0
C2907 C 0.88139 0.25609 0.44367 0.0
C2908 C 0.89013 0.2199 0.43919 0.0
C2909 C 0.90711 0.22568 0.43717 0.0
C2910 C 0.88999 0.24534 0.44137 0.0
C2911 C 0.91501 0.24147 0.43722 0.0
C2912 C 0.89046 0.27108 0.44762 0.0
C2913 C 0.85602 0.26097 0.44375 0.0
N2914 N 0.90642 0.25071 0.43934 0.0
N2915 N 0.86448 0.25151 0.44189 0.0
H2916 H 0.56154 0.15617 0.22425 0.0
H2917 H 0.56456 0.0853 0.18291 0.0
H2918 H 0.52381 0.11191 0.22495 0.0
H2919 H 0.60186 0.12975 0.18202 0.0
H2920 H 0.55153 0.09383 0.20112 0.0
H2921 H 0.57831 0.1458 0.21148 0.0
C2922 C 0.55684 0.14423 0.22184 0.0
C2923 C 0.54116 0.13493 0.22554 0.0
C2924 C 0.56268 0.10167 0.19707 0.0
C2925 C 0.56028 0.12298 0.21081 0.0
C2926 C 0.5702 0.09677 0.18675 0.0
C2927 C 0.58421 0.10688 0.18081 0.0
C2928 C 0.5692 0.1168 0.20146 0.0
C2929 C 0.59089 0.12165 0.18611 0.0
C2930 C 0.56644 0.13831 0.21454 0.0
C2931 C 0.53578 0.11953 0.22222 0.0
N2932 N 0.58323 0.1262 0.19601 0.0
N2933 N 0.54525 0.11407 0.21492 0.0
H2934 H 0.62433 0.73909 0.93149 0.0
H2935 H 0.62334 0.82395 0.92813 0.0
H2936 H 0.6641 0.77672 0.95139 0.0
H2937 H 0.58129 0.7851 0.91372 0.0
H2938 H 0.63976 0.80737 0.93425 0.0
H2939 H 0.60973 0.75637 0.92237 0.0
C2940 C 0.63007 0.75101 0.93385 0.0
C2941 C 0.64542 0.75644 0.94232 0.0
C2942 C 0.62696 0.80249 0.92971 0.0
C2943 C 0.62872 0.7763 0.93194 0.0
C2944 C 0.61761 0.81196 0.92615 0.0
C2945 C 0.60088 0.80587 0.92054 0.0
C2946 C 0.61955 0.78685 0.92753 0.0
C2947 C 0.59406 0.79023 0.91827 0.0
C2948 C 0.6217 0.76087 0.92866 0.0
C2949 C 0.65226 0.77201 0.94498 0.0
N2950 N 0.60339 0.78128 0.9218 0.0
N2951 N 0.64382 0.78138 0.93987 0.0
H2952 H 0.01313 0.14021 0.84338 0.0
H2953 H 0.92472 0.14074 0.8061 0.0
H2954 H 0.0066 0.16535 0.80418 0.0
H2955 H 0.93088 0.11719 0.84642 0.0
H2956 H 0.95477 0.14979 0.80528 0.0
H2957 H 0.9831 0.13162 0.8448 0.0
C2958 C 0.0054 0.14393 0.83508 0.0
C2959 C 0.01241 0.1535 0.82363 0.0
C2960 C 0.94958 0.14267 0.81433 0.0
C2961 C 0.97805 0.14371 0.82518 0.0
C2962 C 0.9324 0.13743 0.81477 0.0
C2963 C 0.92526 0.12815 0.82633 0.0
C2964 C 0.95975 0.13857 0.82551 0.0
C2965 C 0.93586 0.12444 0.83738 0.0
C2966 C 0.98826 0.13903 0.8359 0.0
C2967 C 0.00178 0.15798 0.81319 0.0
N2968 N 0.95257 0.12961 0.83667 0.0
N2969 N 0.98515 0.15302 0.81421 0.0
H2970 H 0.5972 0.23607 0.57201 0.0
H2971 H 0.68085 0.21899 0.59902 0.0
H2972 H 0.64603 0.26681 0.56445 0.0
H2973 H 0.63236 0.19203 0.61113 0.0
H2974 H 0.66831 0.23562 0.58457 0.0
H2975 H 0.60987 0.21878 0.58469 0.0
C2976 C 0.61059 0.23917 0.57297 0.0
C2977 C 0.62057 0.25295 0.56721 0.0
C2978 C 0.66043 0.22606 0.59039 0.0
C2979 C 0.6352 0.23317 0.58176 0.0
C2980 C 0.66757 0.21654 0.59858 0.0
C2981 C 0.65765 0.2042 0.60639 0.0
C2982 C 0.64325 0.22312 0.58993 0.0
C2983 C 0.64052 0.20157 0.60549 0.0
C2984 C 0.61783 0.22929 0.58024 0.0
C2985 C 0.63787 0.25633 0.56877 0.0
N2986 N 0.63388 0.21095 0.59743 0.0
N2987 N 0.64464 0.24652 0.57592 0.0
H2988 H 0.46831 0.85805 0.36649 0.0
H2989 H 0.53434 0.82467 0.34132 0.0
H2990 H 0.45512 0.8188 0.33976 0.0
H2991 H 0.54756 0.86166 0.37087 0.0
H2992 H 0.50509 0.82184 0.34136 0.0
H2993 H 0.49724 0.85902 0.36911 0.0
C2994 C 0.47146 0.84958 0.36125 0.0
C2995 C 0.45927 0.83839 0.35281 0.0
C2996 C 0.51436 0.83052 0.34791 0.0
C2997 C 0.49236 0.83946 0.35571 0.0
C2998 C 0.53107 0.83218 0.34784 0.0
C2999 C 0.54342 0.84346 0.35605 0.0
C3000 C 0.50992 0.84029 0.35618 0.0
C3001 C 0.53845 0.85274 0.36447 0.0
C3002 C 0.48798 0.85014 0.36276 0.0
C3003 C 0.46408 0.82768 0.34632 0.0
N3004 N 0.5221 0.85102 0.36423 0.0
N3005 N 0.48024 0.82854 0.34783 0.0
H3006 H 0.90551 0.78046 0.04189 0.0
H3007 H 0.84934 0.82794 0.06034 0.0
H3008 H 0.85284 0.76054 0.0454 0.0
H3009 H 0.89885 0.84836 0.0474 0.0
H3010 H 0.85131 0.80292 0.05777 0.0
H3011 H 0.90415 0.80521 0.04668 0.0
C3012 C 0.89367 0.78127 0.04374 0.0
C3013 C 0.87925 0.7684 0.04318 0.0
C3014 C 0.86175 0.81288 0.05553 0.0
C3015 C 0.87762 0.79672 0.04869 0.0
C3016 C 0.86068 0.82715 0.05709 0.0
C3017 C 0.87393 0.84025 0.05403 0.0
C3018 C 0.87625 0.81168 0.051 0.0
C3019 C 0.88826 0.83856 0.04969 0.0
C3020 C 0.8929 0.79542 0.04644 0.0
C3021 C 0.86425 0.77016 0.04567 0.0
N3022 N 0.88904 0.82456 0.04832 0.0
N3023 N 0.86382 0.78405 0.04831 0.0
H3024 H 0.66779 0.95806 0.94324 0.0
H3025 H 0.63682 0.8973 0.88021 0.0
H3026 H 0.68406 0.96646 0.90033 0.0
H3027 H 0.61901 0.88906 0.9225 0.0
H3028 H 0.65713 0.92139 0.88858 0.0
H3029 H 0.6526 0.93168 0.93697 0.0
C3030 C 0.66828 0.95434 0.93254 0.0
C3031 C 0.67709 0.96453 0.92225 0.0
C3032 C 0.64893 0.91425 0.8961 0.0
C3033 C 0.65971 0.93434 0.91499 0.0
C3034 C 0.63735 0.90049 0.89133 0.0
C3035 C 0.6261 0.89126 0.90063 0.0
C3036 C 0.64922 0.91888 0.91027 0.0
C3037 C 0.62747 0.89583 0.91498 0.0
C3038 C 0.65961 0.93926 0.92897 0.0
C3039 C 0.67734 0.95905 0.90857 0.0
N3040 N 0.63867 0.90942 0.91931 0.0
N3041 N 0.66868 0.94437 0.90532 0.0
H3042 H 0.16881 0.55619 0.10306 0.0
H3043 H 0.23322 0.62004 0.15474 0.0
H3044 H 0.21397 0.55244 0.12556 0.0
H3045 H 0.19014 0.62535 0.1296 0.0
H3046 H 0.22504 0.59434 0.14584 0.0
H3047 H 0.17501 0.58055 0.11446 0.0
C3048 C 0.17997 0.56043 0.11048 0.0
C3049 C 0.19094 0.55229 0.11329 0.0
C3050 C 0.21732 0.60109 0.14232 0.0
C3051 C 0.19815 0.58021 0.12635 0.0
C3052 C 0.22203 0.6158 0.14735 0.0
C3053 C 0.21243 0.62494 0.14284 0.0
C3054 C 0.2029 0.59542 0.13268 0.0
C3055 C 0.19786 0.6187 0.13348 0.0
C3056 C 0.18352 0.57436 0.11696 0.0
C3057 C 0.2052 0.55834 0.12302 0.0
N3058 N 0.1936 0.60438 0.12864 0.0
N3059 N 0.20843 0.57195 0.12914 0.0
H3060 H 0.18564 0.43912 0.90542 0.0
H3061 H 0.13607 0.36786 0.8554 0.0
H3062 H 0.20746 0.42478 0.8719 0.0
H3063 H 0.11872 0.37796 0.89401 0.0
H3064 H 0.16084 0.39057 0.85911 0.0
H3065 H 0.15958 0.41866 0.89917 0.0
C3066 C 0.18494 0.43173 0.89668 0.0
C3067 C 0.19882 0.4336 0.88925 0.0
C3068 C 0.15156 0.38784 0.86672 0.0
C3069 C 0.16894 0.41008 0.88205 0.0
C3070 C 0.13741 0.37495 0.86456 0.0
C3071 C 0.12541 0.37098 0.87448 0.0
C3072 C 0.15364 0.39686 0.87881 0.0
C3073 C 0.12779 0.38049 0.88623 0.0
C3074 C 0.17004 0.42001 0.89313 0.0
C3075 C 0.1971 0.42369 0.87797 0.0
N3076 N 0.14163 0.39296 0.88808 0.0
N3077 N 0.18245 0.41231 0.87475 0.0
H3078 H 0.25621 0.44134 0.62457 0.0
H3079 H 0.31197 0.41221 0.5789 0.0
H3080 H 0.26846 0.45821 0.58163 0.0
H3081 H 0.29334 0.3908 0.61878 0.0
H3082 H 0.29536 0.42855 0.57927 0.0
H3083 H 0.26919 0.42235 0.62239 0.0
C3084 C 0.26155 0.441 0.61465 0.0
C3085 C 0.26132 0.45144 0.6033 0.0
C3086 C 0.29481 0.4202 0.58789 0.0
C3087 C 0.2763 0.42976 0.60075 0.0
C3088 C 0.30422 0.41078 0.58764 0.0
C3089 C 0.30418 0.40014 0.59888 0.0
C3090 C 0.28534 0.41908 0.59951 0.0
C3091 C 0.29404 0.39901 0.61003 0.0
C3092 C 0.26894 0.43013 0.6134 0.0
C3093 C 0.26838 0.45042 0.59067 0.0
N3094 N 0.28515 0.40843 0.61011 0.0
N3095 N 0.27569 0.43985 0.58979 0.0
H3096 H 0.75519 0.03844 0.86872 0.0
H3097 H 0.8481 0.08843 0.89728 0.0
H3098 H 0.77309 0.04571 0.91401 0.0
H3099 H 0.8282 0.08564 0.85228 0.0
H3100 H 0.82223 0.06916 0.90341 0.0
H3101 H 0.78336 0.05183 0.86241 0.0
C3102 C 0.76508 0.04267 0.87736 0.0
C3103 C 0.76171 0.04114 0.89192 0.0
C3104 C 0.8236 0.07264 0.89217 0.0
C3105 C 0.794 0.05658 0.88474 0.0
C3106 C 0.83834 0.08368 0.88867 0.0
C3107 C 0.84026 0.08882 0.87426 0.0
C3108 C 0.81063 0.06669 0.88119 0.0
C3109 C 0.82733 0.08201 0.86352 0.0
C3110 C 0.78116 0.05035 0.87374 0.0
C3111 C 0.77506 0.04676 0.90264 0.0
N3112 N 0.81301 0.07142 0.86722 0.0
N3113 N 0.79058 0.05438 0.89883 0.0
H3114 H 0.84456 0.07142 0.46156 0.0
H3115 H 0.86117 0.13543 0.39944 0.0
H3116 H 0.81196 0.0686 0.42206 0.0
H3117 H 0.89013 0.14105 0.44115 0.0
H3118 H 0.84214 0.11149 0.40809 0.0
H3119 H 0.86078 0.09731 0.45478 0.0
C3120 C 0.84078 0.07626 0.45148 0.0
C3121 C 0.82694 0.06779 0.44232 0.0
C3122 C 0.85254 0.11801 0.41543 0.0
C3123 C 0.84545 0.09742 0.43449 0.0
C3124 C 0.86339 0.13168 0.41049 0.0
C3125 C 0.87728 0.14016 0.41958 0.0
C3126 C 0.85569 0.11268 0.42951 0.0
C3127 C 0.87952 0.13487 0.43383 0.0
C3128 C 0.85002 0.09106 0.44764 0.0
C3129 C 0.82257 0.07467 0.42943 0.0
N3130 N 0.86895 0.12137 0.43831 0.0
N3131 N 0.83186 0.08904 0.42586 0.0
H3132 H 0.19626 0.5373 0.64455 0.0
H3133 H 0.09999 0.51517 0.61518 0.0
H3134 H 0.17092 0.50042 0.61543 0.0
H3135 H 0.12563 0.55012 0.64622 0.0
H3136 H 0.12573 0.50976 0.61462 0.0
H3137 H 0.17043 0.5423 0.64478 0.0
C3138 C 0.18524 0.53021 0.63821 0.0
C3139 C 0.18579 0.51841 0.62995 0.0
C3140 C 0.12571 0.51864 0.62152 0.0
C3141 C 0.15602 0.52414 0.63014 0.0
C3142 C 0.11101 0.5217 0.62189 0.0
C3143 C 0.11061 0.53315 0.63074 0.0
C3144 C 0.14015 0.52707 0.63007 0.0
C3145 C 0.12535 0.54136 0.63905 0.0
C3146 C 0.17046 0.53309 0.63834 0.0
C3147 C 0.17107 0.50962 0.62196 0.0
N3148 N 0.13947 0.53815 0.63852 0.0
N3149 N 0.15678 0.51268 0.62224 0.0
H3150 H 0.25834 0.4509 0.10362 0.0
H3151 H 0.32735 0.46386 0.17164 0.0
H3152 H 0.25287 0.46494 0.14563 0.0
H3153 H 0.33324 0.4492 0.13008 0.0
H3154 H 0.299 0.46213 0.16277 0.0
H3155 H 0.28469 0.44806 0.11352 0.0
C3156 C 0.2626 0.45328 0.11495 0.0
C3157 C 0.25343 0.4583 0.12377 0.0
C3158 C 0.30641 0.45918 0.15559 0.0
C3159 C 0.28361 0.4551 0.13516 0.0
C3160 C 0.32262 0.46021 0.16065 0.0
C3161 C 0.33273 0.45683 0.15153 0.0
C3162 C 0.30022 0.45482 0.14126 0.0
C3163 C 0.32586 0.45188 0.13748 0.0
C3164 C 0.27766 0.45165 0.12059 0.0
C3165 C 0.25955 0.46114 0.13839 0.0
N3166 N 0.31008 0.45117 0.13272 0.0
N3167 N 0.27429 0.4596 0.14358 0.0
H3168 H 0.6241 0.78839 0.57591 0.0
H3169 H 0.60283 0.85614 0.60595 0.0
H3170 H 0.59002 0.8083 0.5528 0.0
H3171 H 0.62452 0.8284 0.63403 0.0
H3172 H 0.5988 0.83888 0.58615 0.0
H3173 H 0.62494 0.8028 0.59733 0.0
C3174 C 0.61667 0.79565 0.57538 0.0
C3175 C 0.60709 0.79724 0.56249 0.0
C3176 C 0.60435 0.83648 0.59665 0.0
C3177 C 0.60814 0.81382 0.58685 0.0
C3178 C 0.60674 0.84638 0.60792 0.0
C3179 C 0.61412 0.84372 0.62157 0.0
C3180 C 0.60957 0.82389 0.59898 0.0
C3181 C 0.61876 0.83081 0.62363 0.0
C3182 C 0.61715 0.80386 0.5876 0.0
C3183 C 0.59767 0.80678 0.56244 0.0
N3184 N 0.61657 0.82142 0.61239 0.0
N3185 N 0.59857 0.81481 0.57436 0.0
H3186 H 0.38401 0.38127 0.79178 0.0
H3187 H 0.30017 0.33844 0.82802 0.0
H3188 H 0.34606 0.3411 0.7742 0.0
H3189 H 0.34561 0.36446 0.853 0.0
H3190 H 0.31492 0.34354 0.80635 0.0
H3191 H 0.36805 0.37928 0.81252 0.0
C3192 C 0.37226 0.37212 0.79221 0.0
C3193 C 0.36638 0.36127 0.78131 0.0
C3194 C 0.32161 0.3482 0.81658 0.0
C3195 C 0.34808 0.35906 0.80484 0.0
C3196 C 0.31323 0.34525 0.82899 0.0
C3197 C 0.32169 0.3508 0.84248 0.0
C3198 C 0.33855 0.35693 0.81756 0.0
C3199 C 0.33852 0.35998 0.84288 0.0
C3200 C 0.36322 0.37097 0.80406 0.0
C3201 C 0.35111 0.34963 0.78243 0.0
N3202 N 0.34642 0.3627 0.83061 0.0
N3203 N 0.34247 0.34885 0.79397 0.0
H3204 H 0.86246 0.20088 0.02648 0.0
H3205 H 0.85501 0.12791 0.07756 0.0
H3206 H 0.88302 0.16661 0.01853 0.0
H3207 H 0.83734 0.16333 0.08798 0.0
H3208 H 0.86539 0.14219 0.05586 0.0
H3209 H 0.85338 0.18767 0.04916 0.0
C3210 C 0.86513 0.19063 0.02952 0.0
C3211 C 0.87346 0.18481 0.02056 0.0
C3212 C 0.85928 0.14689 0.06289 0.0
C3213 C 0.86306 0.16964 0.04642 0.0
C3214 C 0.85326 0.13868 0.07523 0.0
C3215 C 0.84521 0.1444 0.08454 0.0
C3216 C 0.85721 0.16092 0.05973 0.0
C3217 C 0.84357 0.15855 0.08113 0.0
C3218 C 0.85994 0.1831 0.04246 0.0
C3219 C 0.8766 0.1715 0.02506 0.0
N3220 N 0.84944 0.16631 0.06896 0.0
N3221 N 0.87135 0.16436 0.03762 0.0
H3222 H 0.04649 0.58877 0.27678 0.0
H3223 H 0.06808 0.59997 0.36257 0.0
H3224 H 0.05509 0.63108 0.29743 0.0
H3225 H 0.07058 0.56222 0.33996 0.0
H3226 H 0.0592 0.61015 0.33938 0.0
H3227 H 0.05119 0.5775 0.30048 0.0
C3228 C 0.04926 0.59567 0.28631 0.0
C3229 C 0.05052 0.61093 0.2851 0.0
C3230 C 0.06162 0.5996 0.33952 0.0
C3231 C 0.05593 0.59808 0.3123 0.0
C3232 C 0.06659 0.59376 0.35274 0.0
C3233 C 0.07021 0.58032 0.35313 0.0
C3234 C 0.0601 0.59184 0.32667 0.0
C3235 C 0.06815 0.57274 0.34009 0.0
C3236 C 0.05198 0.58924 0.29984 0.0
C3237 C 0.0541 0.6193 0.29785 0.0
N3238 N 0.06327 0.57861 0.32741 0.0
N3239 N 0.05673 0.61278 0.31093 0.0
H3240 H 0.59633 0.1294 0.00822 0.0
H3241 H 0.53335 0.11148 0.93583 0.0
H3242 H 0.55197 0.14139 0.0012 0.0
H3243 H 0.57386 0.09414 0.9444 0.0
H3244 H 0.54056 0.12298 0.9596 0.0
H3245 H 0.58887 0.11687 0.98476 0.0
C3246 C 0.58501 0.12936 0.00178 0.0
C3247 C 0.57478 0.13649 0.00669 0.0
C3248 C 0.54786 0.11663 0.95633 0.0
C3249 C 0.56623 0.12224 0.97983 0.0
C3250 C 0.54369 0.10997 0.94275 0.0
C3251 C 0.55293 0.10173 0.9381 0.0
C3252 C 0.56145 0.11514 0.96537 0.0
C3253 C 0.56646 0.10051 0.94746 0.0
C3254 C 0.58076 0.12221 0.9884 0.0
C3255 C 0.56025 0.13606 -0.00212 0.0
N3256 N 0.57032 0.10714 0.96065 0.0
N3257 N 0.55646 0.12912 0.98489 0.0
H3258 H 0.02099 0.33789 0.24326 0.0
H3259 H 0.09743 0.36927 0.19492 0.0
H3260 H 0.05195 0.38491 0.24155 0.0
H3261 H 0.07217 0.3219 0.20367 0.0
H3262 H 0.07908 0.37551 0.20983 0.0
H3263 H 0.03771 0.33216 0.22645 0.0
C3264 C 0.03123 0.34704 0.23926 0.0
C3265 C 0.03513 0.36189 0.24388 0.0
C3266 C 0.07756 0.36375 0.20848 0.0
C3267 C 0.05438 0.35538 0.22466 0.0
C3268 C 0.08798 0.36019 0.19993 0.0
C3269 C 0.08638 0.34505 0.19813 0.0
C3270 C 0.06537 0.35209 0.21516 0.0
C3271 C 0.074 0.33373 0.20495 0.0
C3272 C 0.04081 0.34374 0.2297 0.0
C3273 C 0.04854 0.37328 0.23833 0.0
N3274 N 0.06397 0.33748 0.21314 0.0
N3275 N 0.05772 0.36978 0.22904 0.0
H3276 H 0.84666 0.82857 0.47194 0.0
H3277 H 0.8614 0.90011 0.41865 0.0
H3278 H 0.89164 0.86752 0.4753 0.0
H3279 H 0.82218 0.85749 0.40984 0.0
H3280 H 0.87323 0.88809 0.43896 0.0
H3281 H 0.83792 0.83855 0.44873 0.0
C3282 C 0.85477 0.83916 0.46774 0.0
C3283 C 0.86985 0.84728 0.47563 0.0
C3284 C 0.86216 0.88131 0.43248 0.0
C3285 C 0.85985 0.85884 0.44913 0.0
C3286 C 0.85539 0.88817 0.42092 0.0
C3287 C 0.84076 0.87979 0.41261 0.0
C3288 C 0.8541 0.86599 0.4359 0.0
C3289 C 0.83354 0.86434 0.41592 0.0
C3290 C 0.84979 0.84484 0.45447 0.0
C3291 C 0.87989 0.8609 0.46961 0.0
N3292 N 0.84016 0.85798 0.42743 0.0
N3293 N 0.87462 0.86633 0.45681 0.0
H3294 H 0.46669 0.66448 0.75752 0.0
H3295 H 0.39272 0.63041 0.69514 0.0
H3296 H 0.4359 0.61736 0.75607 0.0
H3297 H 0.42504 0.67704 0.6966 0.0
H3298 H 0.40955 0.62479 0.71632 0.0
H3299 H 0.45284 0.66869 0.73411 0.0
C3300 C 0.4571 0.65498 0.75222 0.0
C3301 C 0.45236 0.64057 0.75884 0.0
C3302 C 0.413 0.63623 0.71195 0.0
C3303 C 0.43629 0.64535 0.73201 0.0
C3304 C 0.40344 0.63943 0.69982 0.0
C3305 C 0.40736 0.65426 0.69419 0.0
C3306 C 0.42659 0.64794 0.71846 0.0
C3307 C 0.42133 0.66552 0.70076 0.0
C3308 C 0.44917 0.65739 0.73883 0.0
C3309 C 0.43991 0.62867 0.75139 0.0
N3310 N 0.43036 0.66214 0.71256 0.0
N3311 N 0.43219 0.63135 0.73843 0.0
H3312 H 0.52445 0.61457 0.82075 0.0
H3313 H 0.61134 0.65158 0.86814 0.0
H3314 H 0.54768 0.66254 0.82754 0.0
H3315 H 0.59529 0.60611 0.85228 0.0
H3316 H 0.58689 0.65514 0.85466 0.0
H3317 H 0.54932 0.61064 0.83328 0.0
C3318 C 0.5348 0.62428 0.8248 0.0
C3319 C 0.53398 0.63891 0.82311 0.0
C3320 C 0.58869 0.64438 0.8541 0.0
C3321 C 0.56233 0.63446 0.83757 0.0
C3322 C 0.60257 0.64229 0.8619 0.0
C3323 C 0.60527 0.62849 0.86141 0.0
C3324 C 0.5773 0.63254 0.8458 0.0
C3325 C 0.59367 0.61694 0.85291 0.0
C3326 C 0.54898 0.62202 0.83194 0.0
C3327 C 0.54776 0.65106 0.82858 0.0
N3328 N 0.58012 0.61919 0.84549 0.0
N3329 N 0.5613 0.64855 0.83563 0.0
H3330 H 0.62013 0.26631 0.0744 0.0
H3331 H 0.62124 0.31688 0.14127 0.0
H3332 H 0.58096 0.25447 0.10265 0.0
H3333 H 0.66061 0.32731 0.11338 0.0
H3334 H 0.60543 0.29475 0.12656 0.0
H3335 H 0.63434 0.28944 0.08791 0.0
C3336 C 0.61448 0.26859 0.08342 0.0
C3337 C 0.59936 0.25839 0.08743 0.0
C3338 C 0.61752 0.3019 0.12366 0.0
C3339 C 0.61562 0.28491 0.10302 0.0
C3340 C 0.62651 0.31457 0.132 0.0
C3341 C 0.64234 0.32388 0.12862 0.0
C3342 C 0.62439 0.29857 0.11182 0.0
C3343 C 0.6486 0.32029 0.11655 0.0
C3344 C 0.62261 0.28182 0.09115 0.0
C3345 C 0.59262 0.26199 0.0992 0.0
N3346 N 0.63964 0.30793 0.10863 0.0
N3347 N 0.60082 0.27493 0.10662 0.0
H3348 H 0.9783 0.41118 0.31628 0.0
H3349 H 0.88388 0.40786 0.30115 0.0
H3350 H 0.94246 0.38164 0.285 0.0
H3351 H 0.91554 0.42482 0.34031 0.0
H3352 H 0.90724 0.40371 0.2914 0.0
H3353 H 0.95734 0.42172 0.3213 0.0
C3354 C 0.9661 0.40704 0.3103 0.0
C3355 C 0.96206 0.39532 0.30036 0.0
C3356 C 0.90912 0.40856 0.30203 0.0
C3357 C 0.93801 0.40738 0.30609 0.0
C3358 C 0.89586 0.41102 0.30754 0.0
C3359 C 0.89782 0.41657 0.32158 0.0
C3360 C 0.92443 0.41183 0.31059 0.0
C3361 C 0.91352 0.42037 0.3295 0.0
C3362 C 0.95413 0.41305 0.31321 0.0
C3363 C 0.94606 0.39053 0.29288 0.0
N3364 N 0.9262 0.41785 0.32393 0.0
N3365 N 0.93456 0.39648 0.29599 0.0
H3366 H 0.87747 0.78755 0.58844 0.0
H3367 H 0.86488 0.69968 0.58406 0.0
H3368 H 0.86907 0.76462 0.54782 0.0
H3369 H 0.85773 0.72051 0.62173 0.0
H3370 H 0.87203 0.72432 0.57131 0.0
H3371 H 0.87595 0.76395 0.60138 0.0
C3372 C 0.87545 0.77759 0.58221 0.0
C3373 C 0.87321 0.77805 0.567 0.0
C3374 C 0.86903 0.72349 0.5824 0.0
C3375 C 0.87146 0.75093 0.58182 0.0
C3376 C 0.86507 0.70949 0.5897 0.0
C3377 C 0.86062 0.70809 0.60391 0.0
C3378 C 0.86873 0.73616 0.58948 0.0
C3379 C 0.86092 0.7211 0.61072 0.0
C3380 C 0.87454 0.7641 0.58963 0.0
C3381 C 0.87073 0.76476 0.55955 0.0
N3382 N 0.86487 0.73458 0.60343 0.0
N3383 N 0.86984 0.7517 0.56705 0.0
H3384 H 0.46669 0.37544 0.66944 0.0
H3385 H 0.5511 0.44415 0.659 0.0
H3386 H 0.48068 0.4187 0.68987 0.0
H3387 H 0.53826 0.40094 0.63875 0.0
H3388 H 0.52517 0.43487 0.67026 0.0
H3389 H 0.49263 0.38442 0.65795 0.0
C3390 C 0.47519 0.38683 0.6715 0.0
C3391 C 0.47149 0.39633 0.68065 0.0
C3392 C 0.52799 0.42739 0.66336 0.0
C3393 C 0.5012 0.40665 0.66755 0.0
C3394 C 0.54278 0.43272 0.65686 0.0
C3395 C 0.54684 0.42334 0.64784 0.0
C3396 C 0.5171 0.41255 0.66086 0.0
C3397 C 0.5357 0.40853 0.64571 0.0
C3398 C 0.49001 0.39193 0.66495 0.0
C3399 C 0.48298 0.41096 0.68292 0.0
N3400 N 0.52131 0.4036 0.65214 0.0
N3401 N 0.49728 0.41566 0.67643 0.0
H3402 H 0.87447 0.27587 0.961 0.0
H3403 H 0.81824 0.31148 0.90716 0.0
H3404 H 0.82615 0.24952 0.94077 0.0
H3405 H 0.86153 0.33839 0.93397 0.0
H3406 H 0.82036 0.28869 0.91994 0.0
H3407 H 0.86965 0.29893 0.95169 0.0
C3408 C 0.86282 0.27493 0.95465 0.0
C3409 C 0.85074 0.26073 0.95158 0.0
C3410 C 0.82928 0.29959 0.92317 0.0
C3411 C 0.84516 0.28711 0.94084 0.0
C3412 C 0.82808 0.31258 0.91587 0.0
C3413 C 0.83978 0.32682 0.91948 0.0
C3414 C 0.84242 0.3008 0.93404 0.0
C3415 C 0.8522 0.32764 0.93091 0.0
C3416 C 0.86005 0.28812 0.94938 0.0
C3417 C 0.83583 0.26022 0.94336 0.0
N3418 N 0.85332 0.31479 0.93766 0.0
N3419 N 0.83352 0.27321 0.93818 0.0
H3420 H 0.98614 0.60069 0.20981 0.0
H3421 H 0.93833 0.57068 0.1324 0.0
H3422 H 0.00985 0.59167 0.17461 0.0
H3423 H 0.91586 0.58556 0.16503 0.0
H3424 H 0.9645 0.57777 0.14807 0.0
H3425 H 0.96004 0.59458 0.19395 0.0
C3426 C 0.98586 0.59741 0.19876 0.0
C3427 C 0.0002 0.59667 0.19354 0.0
C3428 C 0.95388 0.57955 0.1518 0.0
C3429 C 0.97042 0.58968 0.17536 0.0
C3430 C 0.93892 0.57544 0.14287 0.0
C3431 C 0.9249 0.5775 0.14744 0.0
C3432 C 0.95482 0.58566 0.16545 0.0
C3433 C 0.92642 0.58391 0.16104 0.0
C3434 C 0.97098 0.59397 0.1897 0.0
C3435 C -0.00088 0.5924 0.17912 0.0
N3436 N 0.94109 0.58768 0.16961 0.0
N3437 N 0.9845 0.58903 0.17056 0.0
H3438 H 0.59337 0.70045 0.49407 0.0
H3439 H 0.66244 0.66475 0.48099 0.0
H3440 H 0.6458 0.723 0.50591 0.0
H3441 H 0.61153 0.64795 0.462 0.0
H3442 H 0.65626 0.68451 0.49292 0.0
H3443 H 0.59952 0.67941 0.485 0.0
C3444 C 0.60618 0.70095 0.49484 0.0
C3445 C 0.6191 0.71356 0.50068 0.0
C3446 C 0.64645 0.67646 0.48617 0.0
C3447 C 0.62624 0.68947 0.49027 0.0
C3448 C 0.64995 0.66516 0.47944 0.0
C3449 C 0.6375 0.65481 0.47042 0.0
C3450 C 0.63037 0.67727 0.48396 0.0
C3451 C 0.62155 0.65586 0.46871 0.0
C3452 C 0.60969 0.68893 0.48962 0.0
C3453 C 0.63546 0.71354 0.50142 0.0
N3454 N 0.61845 0.66688 0.47539 0.0
N3455 N 0.63858 0.70169 0.49623 0.0
H3456 H 0.8623 0.54377 0.62837 0.0
H3457 H 0.83536 0.61569 0.62154 0.0
H3458 H 0.81823 0.54583 0.64465 0.0
H3459 H 0.87772 0.61271 0.60297 0.0
H3460 H 0.82477 0.58823 0.62425 0.0
H3461 H 0.86426 0.56662 0.61386 0.0
C3462 C 0.85287 0.54889 0.62871 0.0
C3463 C 0.84031 0.54309 0.638 0.0
C3464 C 0.83616 0.59352 0.61923 0.0
C3465 C 0.84258 0.56938 0.62152 0.0
C3466 C 0.84214 0.60923 0.61752 0.0
C3467 C 0.85765 0.61652 0.61233 0.0
C3468 C 0.84588 0.5851 0.61587 0.0
C3469 C 0.8659 0.60754 0.60736 0.0
C3470 C 0.85398 0.56194 0.62039 0.0
C3471 C 0.82828 0.55005 0.63782 0.0
N3472 N 0.86013 0.59232 0.60958 0.0
N3473 N 0.82991 0.56301 0.62995 0.0
H3474 H 0.30349 0.984 0.44406 0.0
H3475 H 0.30741 0.90194 0.4364 0.0
H3476 H 0.28513 0.95985 0.40403 0.0
H3477 H 0.34515 0.93659 0.46204 0.0
H3478 H 0.2956 0.92104 0.4263 0.0
H3479 H 0.31484 0.96438 0.45324 0.0
C3480 C 0.30174 0.97451 0.43724 0.0
C3481 C 0.2934 0.97358 0.42324 0.0
C3482 C 0.30648 0.92437 0.43414 0.0
C3483 C 0.30625 0.95104 0.43375 0.0
C3484 C 0.31332 0.91351 0.43987 0.0
C3485 C 0.32729 0.91752 0.45025 0.0
C3486 C 0.31344 0.93928 0.43902 0.0
C3487 C 0.33414 0.93274 0.45442 0.0
C3488 C 0.3083 0.96337 0.44246 0.0
C3489 C 0.29156 0.96104 0.41486 0.0
N3490 N 0.32707 0.94298 0.44891 0.0
N3491 N 0.29786 0.95018 0.42027 0.0
H3492 H 0.25237 0.07967 0.6846 0.0
H3493 H 0.32636 0.12517 0.63714 0.0
H3494 H 0.24563 0.0881 0.6385 0.0
H3495 H 0.33391 0.11259 0.68214 0.0
H3496 H 0.29639 0.11482 0.63834 0.0
H3497 H 0.28181 0.09475 0.6847 0.0
C3498 C 0.25703 0.0848 0.67452 0.0
C3499 C 0.24654 0.08247 0.66149 0.0
C3500 C 0.30459 0.11443 0.64799 0.0
C3501 C 0.28025 0.09972 0.66154 0.0
C3502 C 0.32171 0.12045 0.64735 0.0
C3503 C 0.33266 0.11969 0.65956 0.0
C3504 C 0.29832 0.10758 0.66093 0.0
C3505 C 0.32591 0.11322 0.67243 0.0
C3506 C 0.27386 0.09339 0.67459 0.0
C3507 C 0.25328 0.08948 0.64878 0.0
N3508 N 0.30917 0.10733 0.67275 0.0
N3509 N 0.26972 0.09769 0.64911 0.0
H3510 H 0.20047 0.02821 0.91835 0.0
H3511 H 0.1488 0.08453 0.91604 0.0
H3512 H 0.16943 0.03535 0.88072 0.0
H3513 H 0.17756 0.07543 0.95437 0.0
H3514 H 0.15934 0.06928 0.90201 0.0
H3515 H 0.19529 0.04809 0.93073 0.0
C3516 C 0.19272 0.03407 0.91262 0.0
C3517 C 0.18522 0.02996 0.89852 0.0
C3518 C 0.16346 0.07073 0.91346 0.0
C3519 C 0.17914 0.05269 0.91268 0.0
C3520 C 0.15752 0.07952 0.92147 0.0
C3521 C 0.16216 0.08114 0.93645 0.0
C3522 C 0.17411 0.06349 0.92047 0.0
C3523 C 0.17339 0.07425 0.94291 0.0
C3524 C 0.18973 0.0454 0.91971 0.0
C3525 C 0.17536 0.03802 0.89163 0.0
N3526 N 0.17887 0.06565 0.93491 0.0
N3527 N 0.17249 0.04889 0.89881 0.0
H3528 H 0.72985 0.42871 0.65969 0.0
H3529 H 0.64574 0.44222 0.62716 0.0
H3530 H 0.72862 0.46747 0.63306 0.0
H3531 H 0.64706 0.4013 0.64979 0.0
H3532 H 0.67609 0.45251 0.63077 0.0
H3533 H 0.69951 0.41916 0.6574 0.0
C3534 C 0.72321 0.43521 0.65335 0.0
C3535 C 0.73181 0.4489 0.64653 0.0
C3536 C 0.66974 0.4413 0.63499 0.0
C3537 C 0.69704 0.43805 0.64393 0.0
C3538 C 0.65241 0.43547 0.63304 0.0
C3539 C 0.64386 0.42086 0.63816 0.0
C3540 C 0.6786 0.43248 0.64216 0.0
C3541 C 0.65316 0.41254 0.64552 0.0
C3542 C 0.70587 0.42975 0.65205 0.0
C3543 C 0.72252 0.45684 0.63846 0.0
N3544 N 0.67002 0.41845 0.64728 0.0
N3545 N 0.70565 0.45131 0.6374 0.0
H3546 H 0.6857 0.49402 0.16205 0.0
H3547 H 0.656 0.41037 0.13076 0.0
H3548 H 0.67136 0.48421 0.11661 0.0
H3549 H 0.65879 0.42006 0.17601 0.0
H3550 H 0.66595 0.43763 0.12527 0.0
H3551 H 0.68009 0.46712 0.1672 0.0
C3552 C 0.68146 0.48622 0.15314 0.0
C3553 C 0.67886 0.49136 0.13889 0.0
C3554 C 0.66447 0.43377 0.13641 0.0
C3555 C 0.67245 0.46054 0.14472 0.0
C3556 C 0.65891 0.41825 0.13954 0.0
C3557 C 0.65646 0.41301 0.15383 0.0
C3558 C 0.66774 0.44406 0.14768 0.0
C3559 C 0.66031 0.42366 0.16482 0.0
C3560 C 0.67823 0.47086 0.1561 0.0
C3561 C 0.67341 0.48073 0.12777 0.0
N3562 N 0.66572 0.43867 0.16151 0.0
N3563 N 0.67034 0.4658 0.13093 0.0
H3564 H 0.24901 0.97253 0.84759 0.0
H3565 H 0.29657 0.91306 0.84882 0.0
H3566 H 0.2594 0.94837 0.8863 0.0
H3567 H 0.29035 0.94082 0.81152 0.0
H3568 H 0.28439 0.92674 0.86314 0.0
H3569 H 0.26536 0.9619 0.83457 0.0
C3570 C 0.25484 0.96508 0.85339 0.0
C3571 C 0.25274 0.96127 0.86804 0.0
C3572 C 0.28579 0.9299 0.85184 0.0
C3573 C 0.2714 0.94892 0.85315 0.0
C3574 C 0.29282 0.92214 0.84367 0.0
C3575 C 0.29434 0.92567 0.82888 0.0
C3576 C 0.28018 0.94126 0.84518 0.0
C3577 C 0.28911 0.93747 0.82279 0.0
C3578 C 0.26419 0.959 0.84594 0.0
C3579 C 0.26065 0.9516 0.875 0.0
N3580 N 0.28218 0.94475 0.83092 0.0
N3581 N 0.26951 0.94565 0.86746 0.0
H3582 H 0.21266 0.04605 0.38587 0.0
H3583 H 0.2066 0.12611 0.36069 0.0
H3584 H 0.2509 0.08851 0.39765 0.0
H3585 H 0.16283 0.08637 0.36175 0.0
H3586 H 0.22312 0.11204 0.37368 0.0
H3587 H 0.19408 0.05997 0.37646 0.0
C3588 C 0.21711 0.05826 0.38659 0.0
C3589 C 0.23342 0.06613 0.39246 0.0
C3590 C 0.20988 0.10639 0.37123 0.0
C3591 C 0.21234 0.08205 0.38164 0.0
C3592 C 0.20048 0.11442 0.3638 0.0
C3593 C 0.18339 0.10735 0.36018 0.0
C3594 C 0.20221 0.09106 0.37484 0.0
C3595 C 0.176 0.09219 0.36444 0.0
C3596 C 0.20649 0.06617 0.38125 0.0
C3597 C 0.23849 0.08194 0.39316 0.0
N3598 N 0.1855 0.08445 0.37141 0.0
N3599 N 0.22807 0.08936 0.38769 0.0
H3600 H 0.45332 0.20715 0.51068 0.0
H3601 H 0.40651 0.16555 0.43714 0.0
H3602 H 0.40646 0.20968 0.49093 0.0
H3603 H 0.45285 0.16253 0.45768 0.0
H3604 H 0.40707 0.18301 0.45583 0.0
H3605 H 0.45435 0.19244 0.49028 0.0
C3606 C 0.4433 0.20473 0.50199 0.0
C3607 C 0.42972 0.20958 0.50258 0.0
C3608 C 0.41715 0.17858 0.45621 0.0
C3609 C 0.43077 0.19259 0.47918 0.0
C3610 C 0.41679 0.16853 0.4456 0.0
C3611 C 0.42961 0.16249 0.44587 0.0
C3612 C 0.4304 0.18261 0.46724 0.0
C3613 C 0.44277 0.167 0.45694 0.0
C3614 C 0.44389 0.19629 0.49034 0.0
C3615 C 0.41715 0.20614 0.49095 0.0
N3616 N 0.44278 0.17672 0.4672 0.0
N3617 N 0.41792 0.19776 0.47978 0.0
H3618 H 0.63832 0.66195 0.26235 0.0
H3619 H 0.55738 0.64477 0.20517 0.0
H3620 H 0.59156 0.66378 0.27283 0.0
H3621 H 0.60674 0.6529 0.19327 0.0
H3622 H 0.5688 0.64841 0.23058 0.0
H3623 H 0.62591 0.65499 0.23762 0.0
C3624 C 0.6254 0.66076 0.25949 0.0
C3625 C 0.616 0.66355 0.26966 0.0
C3626 C 0.5771 0.64932 0.2224 0.0
C3627 C 0.60172 0.65563 0.24133 0.0
C3628 C 0.57061 0.64732 0.20787 0.0
C3629 C 0.5811 0.64859 0.19699 0.0
C3630 C 0.59421 0.65256 0.22613 0.0
C3631 C 0.5981 0.65161 0.20123 0.0
C3632 C 0.61833 0.65684 0.24535 0.0
C3633 C 0.5993 0.66182 0.26533 0.0
N3634 N 0.60411 0.65353 0.21544 0.0
N3635 N 0.59271 0.65802 0.25148 0.0
H3636 H 0.12851 0.8468 0.00894 0.0
H3637 H 0.06375 0.79078 0.95093 0.0
H3638 H 0.09069 0.80519 0.02042 0.0
H3639 H 0.1031 0.83121 0.93934 0.0
H3640 H 0.0719 0.79705 0.97648 0.0
H3641 H 0.11765 0.84258 0.98348 0.0
C3642 C 0.11783 0.83684 0.00614 0.0
C3643 C 0.1106 0.82626 0.01683 0.0
C3644 C 0.0787 0.8046 0.96835 0.0
C3645 C 0.09814 0.82133 0.98767 0.0
C3646 C 0.07412 0.80098 0.95376 0.0
C3647 C 0.08285 0.81041 0.94297 0.0
C3648 C 0.09216 0.81774 0.97223 0.0
C3649 C 0.09595 0.82365 0.94727 0.0
C3650 C 0.11165 0.83443 0.99158 0.0
C3651 C 0.09674 0.8136 0.01254 0.0
N3652 N 0.10027 0.82686 0.96157 0.0
N3653 N 0.09104 0.81144 -0.00171 0.0
H3654 H 0.86938 0.33517 0.72123 0.0
H3655 H 0.79924 0.32147 0.65389 0.0
H3656 H 0.82377 0.29685 0.71818 0.0
H3657 H 0.84103 0.36283 0.66035 0.0
H3658 H 0.81028 0.31048 0.67547 0.0
H3659 H 0.86117 0.3438 0.69719 0.0
C3660 C 0.85767 0.32852 0.71548 0.0
C3661 C 0.84717 0.31533 0.72179 0.0
C3662 C 0.81712 0.32191 0.67209 0.0
C3663 C 0.83772 0.32513 0.69424 0.0
C3664 C 0.81089 0.32814 0.65971 0.0
C3665 C 0.81916 0.34313 0.65543 0.0
C3666 C 0.83174 0.33073 0.68019 0.0
C3667 C 0.83414 0.35131 0.66343 0.0
C3668 C 0.85299 0.33346 0.70175 0.0
C3669 C 0.83219 0.30714 0.71379 0.0
N3670 N 0.83988 0.34505 0.67548 0.0
N3671 N 0.82788 0.31221 0.70045 0.0
H3672 H 0.36465 0.8186 0.01955 0.0
H3673 H 0.34151 0.85048 0.08903 0.0
H3674 H 0.35662 0.86132 0.01984 0.0
H3675 H 0.35422 0.80993 0.09001 0.0
H3676 H 0.34795 0.85507 0.0639 0.0
H3677 H 0.3616 0.8155 0.04551 0.0
C3678 C 0.36231 0.82736 0.02508 0.0
C3679 C 0.3608 0.8402 0.01748 0.0
C3680 C 0.34942 0.84521 0.06963 0.0
C3681 C 0.35724 0.83671 0.04719 0.0
C3682 C 0.34585 0.84263 0.08403 0.0
C3683 C 0.34724 0.82975 0.09166 0.0
C3684 C 0.35437 0.83482 0.06275 0.0
C3685 C 0.35267 0.81986 0.08449 0.0
C3686 C 0.36059 0.82559 0.03991 0.0
C3687 C 0.35782 0.85121 0.02523 0.0
N3688 N 0.35595 0.82256 0.07044 0.0
N3689 N 0.35606 0.84917 0.03963 0.0
H3690 H 0.00803 0.65376 0.78851 0.0
H3691 H 0.96271 0.66441 0.85553 0.0
H3692 H 0.96677 0.67024 0.78429 0.0
H3693 H -0.00116 0.64174 0.85933 0.0
H3694 H 0.96433 0.66687 0.82943 0.0
H3695 H 0.00547 0.64982 0.81456 0.0
C3696 C -0.00156 0.65656 0.79305 0.0
C3697 C 0.98761 0.66236 0.7842 0.0
C3698 C 0.97186 0.66129 0.83595 0.0
C3699 C 0.98462 0.65788 0.81397 0.0
C3700 C 0.97084 0.65977 0.85088 0.0
C3701 C 0.98064 0.65283 0.8597 0.0
C3702 C 0.98283 0.65593 0.82974 0.0
C3703 C 0.99122 0.64735 0.85302 0.0
C3704 C -0.00304 0.65427 0.80791 0.0
C3705 C 0.9754 0.66575 0.79067 0.0
N3706 N 0.99208 0.64906 0.83846 0.0
N3707 N 0.97427 0.6635 0.80515 0.0
H3708 H 0.11937 0.17834 0.53719 0.0
H3709 H 0.15904 0.14748 0.60915 0.0
H3710 H 0.11618 0.13178 0.54412 0.0
H3711 H 0.15946 0.19338 0.60338 0.0
H3712 H 0.14491 0.1419 0.58472 0.0
H3713 H 0.13578 0.18448 0.56071 0.0
C3714 C 0.12219 0.16942 0.54362 0.0
C3715 C 0.11633 0.15451 0.5387 0.0
C3716 C 0.14815 0.15321 0.58877 0.0
C3717 C 0.13508 0.16145 0.56566 0.0
C3718 C 0.15615 0.15639 0.60275 0.0
C3719 C 0.16038 0.17091 0.60838 0.0
C3720 C 0.1443 0.16462 0.58031 0.0
C3721 C 0.15659 0.18207 0.59947 0.0
C3722 C 0.13154 0.17293 0.55706 0.0
C3723 C 0.12039 0.14342 0.5475 0.0
N3724 N 0.14871 0.17868 0.58591 0.0
N3725 N 0.12946 0.14711 0.56056 0.0
H3726 H 0.51491 0.3221 0.27677 0.0
H3727 H 0.56989 0.36948 0.34478 0.0
H3728 H 0.5211 0.36886 0.28296 0.0
H3729 H 0.57451 0.32831 0.33081 0.0
H3730 H 0.54881 0.36796 0.32433 0.0
H3731 H 0.5331 0.32254 0.2991 0.0
C3732 C 0.51992 0.33241 0.28292 0.0
C3733 C 0.51657 0.3455 0.27794 0.0
C3734 C 0.55442 0.35924 0.3258 0.0
C3735 C 0.53746 0.34609 0.30346 0.0
C3736 C 0.56654 0.36015 0.33742 0.0
C3737 C 0.57409 0.34904 0.33954 0.0
C3738 C 0.5497 0.34709 0.31629 0.0
C3739 C 0.56892 0.33703 0.32978 0.0
C3740 C 0.53038 0.33267 0.29562 0.0
C3741 C 0.52343 0.35854 0.28635 0.0
N3742 N 0.55707 0.33639 0.3186 0.0
N3743 N 0.53361 0.35852 0.29868 0.0
H3744 H 0.49694 0.42194 0.20151 0.0
H3745 H 0.40223 0.41834 0.19075 0.0
H3746 H 0.45911 0.39057 0.22558 0.0
H3747 H 0.43657 0.43537 0.15842 0.0
H3748 H 0.4242 0.41265 0.20689 0.0
H3749 H 0.4761 0.43166 0.18903 0.0
C3750 C 0.48428 0.41718 0.20429 0.0
C3751 C 0.47973 0.40528 0.21449 0.0
C3752 C 0.42693 0.41777 0.19632 0.0
C3753 C 0.4558 0.41641 0.20021 0.0
C3754 C 0.41448 0.42108 0.18719 0.0
C3755 C 0.41768 0.42723 0.17328 0.0
C3756 C 0.44266 0.42089 0.19151 0.0
C3757 C 0.43365 0.43052 0.16905 0.0
C3758 C 0.47238 0.42272 0.19712 0.0
C3759 C 0.46313 0.39965 0.21769 0.0
N3760 N 0.44555 0.42729 0.17812 0.0
N3761 N 0.45171 0.40521 0.21051 0.0
H3762 H 0.40829 0.78628 0.96047 0.0
H3763 H 0.38149 0.69643 0.95319 0.0
H3764 H 0.35724 0.75668 0.95371 0.0
H3765 H 0.43221 0.72623 0.96185 0.0
H3766 H 0.37234 0.7184 0.95195 0.0
H3767 H 0.41726 0.76446 0.95973 0.0
C3768 C 0.39896 0.7752 0.95878 0.0
C3769 C 0.38198 0.77332 0.9572 0.0
C3770 C 0.38547 0.72012 0.9541 0.0
C3771 C 0.39218 0.74821 0.95636 0.0
C3772 C 0.39071 0.70759 0.95473 0.0
C3773 C 0.40764 0.70947 0.95773 0.0
C3774 C 0.39725 0.73465 0.95643 0.0
C3775 C 0.41902 0.7242 0.95976 0.0
C3776 C 0.40409 0.76272 0.95837 0.0
C3777 C 0.37046 0.75867 0.95501 0.0
N3778 N 0.41362 0.73619 0.9591 0.0
N3779 N 0.37577 0.74668 0.9547 0.0
H3780 H 0.0527 0.64038 0.71286 0.0
H3781 H 0.04701 0.57204 0.66323 0.0
H3782 H 0.01274 0.59741 0.71248 0.0
H3783 H 0.08944 0.61316 0.66787 0.0
H3784 H 0.03516 0.58019 0.68259 0.0
H3785 H 0.0672 0.62984 0.69769 0.0
C3786 C 0.04704 0.62867 0.7097 0.0
C3787 C 0.03142 0.6198 0.71385 0.0
C3788 C 0.04713 0.58737 0.67946 0.0
C3789 C 0.04789 0.60767 0.69634 0.0
C3790 C 0.05395 0.58268 0.66845 0.0
C3791 C 0.06915 0.59202 0.66378 0.0
C3792 C 0.05555 0.60152 0.6858 0.0
C3793 C 0.07751 0.60575 0.67089 0.0
C3794 C 0.05534 0.62265 0.70103 0.0
C3795 C 0.02473 0.60468 0.70949 0.0
N3796 N 0.07054 0.61013 0.68143 0.0
N3797 N 0.03293 0.59914 0.70084 0.0
H3798 H 0.12223 0.24171 0.46752 0.0
H3799 H 0.08207 0.30202 0.43149 0.0
H3800 H 0.0827 0.23116 0.43251 0.0
H3801 H 0.11735 0.31036 0.46968 0.0
H3802 H 0.08425 0.27693 0.42993 0.0
H3803 H 0.12268 0.26777 0.4667 0.0
C3804 C 0.11371 0.24488 0.45958 0.0
C3805 C 0.10233 0.23418 0.45013 0.0
C3806 C 0.09156 0.28428 0.43861 0.0
C3807 C 0.10275 0.26406 0.44917 0.0
C3808 C 0.0904 0.29863 0.43946 0.0
C3809 C 0.09945 0.30825 0.4508 0.0
C3810 C 0.10193 0.27955 0.44914 0.0
C3811 C 0.10994 0.30322 0.46089 0.0
C3812 C 0.11396 0.25978 0.45914 0.0
C3813 C 0.09163 0.239 0.44006 0.0
N3814 N 0.11085 0.28922 0.45984 0.0
N3815 N 0.09205 0.25357 0.43988 0.0
H3816 H 0.53983 0.67453 0.36328 0.0
H3817 H 0.44983 0.639 0.32004 0.0
H3818 H 0.52751 0.64028 0.33082 0.0
H3819 H 0.46037 0.67145 0.35393 0.0
H3820 H 0.47796 0.63834 0.32504 0.0
H3821 H 0.5106 0.6726 0.36126 0.0
C3822 C 0.53098 0.66653 0.3558 0.0
C3823 C 0.53617 0.65764 0.34712 0.0
C3824 C 0.47415 0.64557 0.33146 0.0
C3825 C 0.50272 0.65541 0.34473 0.0
C3826 C 0.4581 0.64599 0.32856 0.0
C3827 C 0.45283 0.65544 0.33646 0.0
C3828 C 0.48515 0.65474 0.3423 0.0
C3829 C 0.46395 0.66401 0.34759 0.0
C3830 C 0.51429 0.66543 0.35466 0.0
C3831 C 0.52413 0.64743 0.33767 0.0
N3832 N 0.47966 0.66357 0.35009 0.0
N3833 N 0.50802 0.64668 0.33667 0.0
H3834 H 0.20699 0.78163 0.12029 0.0
H3835 H 0.15967 0.6947 0.13913 0.0
H3836 H 0.15708 0.75678 0.10221 0.0
H3837 H 0.21271 0.71609 0.14799 0.0
H3838 H 0.15813 0.71787 0.12684 0.0
H3839 H 0.20898 0.75826 0.13191 0.0
C3840 C 0.19644 0.77127 0.11879 0.0
C3841 C 0.18183 0.77116 0.11028 0.0
C3842 C 0.17012 0.7175 0.13141 0.0
C3843 C 0.18403 0.74442 0.12355 0.0
C3844 C 0.17099 0.70431 0.13848 0.0
C3845 C 0.18633 0.70353 0.14463 0.0
C3846 C 0.18467 0.73009 0.1306 0.0
C3847 C 0.20066 0.71622 0.14333 0.0
C3848 C 0.19761 0.75793 0.12537 0.0
C3849 C 0.16858 0.7574 0.10866 0.0
N3850 N 0.19947 0.72904 0.13654 0.0
N3851 N 0.16998 0.7446 0.11528 0.0
H3852 H 0.95504 0.34017 0.82975 0.0
H3853 H 0.02547 0.30727 0.81411 0.0
H3854 H 0.94562 0.30039 0.80459 0.0
H3855 H 0.03474 0.34498 0.84205 0.0
H3856 H -0.00401 0.3043 0.81099 0.0
H3857 H 0.98411 0.34182 0.83499 0.0
C3858 C 0.95905 0.33174 0.82539 0.0
C3859 C 0.94788 0.32016 0.81666 0.0
C3860 C 0.00444 0.31318 0.81787 0.0
C3861 C 0.98112 0.32202 0.82256 0.0
C3862 C 0.02129 0.31492 0.8196 0.0
C3863 C 0.03259 0.32643 0.82831 0.0
C3864 C -0.00118 0.32308 0.82482 0.0
C3865 C 0.02644 0.33588 0.83533 0.0
C3866 C 0.97565 0.33269 0.82838 0.0
C3867 C 0.95377 0.30954 0.81133 0.0
N3868 N 0.00999 0.33406 0.83336 0.0
N3869 N 0.96998 0.31077 0.8143 0.0
H3870 H 0.35462 0.27108 0.53912 0.0
H3871 H 0.36377 0.34687 0.57938 0.0
H3872 H 0.39732 0.29459 0.56847 0.0
H3873 H 0.32979 0.33086 0.54117 0.0
H3874 H 0.37363 0.32556 0.57807 0.0
H3875 H 0.34294 0.29087 0.54215 0.0
C3876 C 0.36151 0.28036 0.54625 0.0
C3877 C 0.37702 0.28122 0.5535 0.0
C3878 C 0.36397 0.32668 0.57001 0.0
C3879 C 0.36366 0.30383 0.55708 0.0
C3880 C 0.35825 0.33876 0.57082 0.0
C3881 C 0.34599 0.34066 0.56034 0.0
C3882 C 0.35726 0.31632 0.55872 0.0
C3883 C 0.33939 0.3299 0.54938 0.0
C3884 C 0.35485 0.29167 0.54794 0.0
C3885 C 0.38538 0.29351 0.5626 0.0
N3886 N 0.3451 0.3182 0.54886 0.0
N3887 N 0.37859 0.30432 0.56415 0.0
H3888 H 0.17716 0.47187 0.41967 0.0
H3889 H 0.08978 0.40492 0.41122 0.0
H3890 H 0.13085 0.47799 0.40345 0.0
H3891 H 0.13513 0.39851 0.42987 0.0
H3892 H 0.10427 0.43219 0.41075 0.0
H3893 H 0.16177 0.4456 0.42597 0.0
C3894 C 0.16374 0.46775 0.41759 0.0
C3895 C 0.1553 0.47711 0.41085 0.0
C3896 C 0.11107 0.42487 0.41508 0.0
C3897 C 0.13763 0.44702 0.41796 0.0
C3898 C 0.1028 0.40931 0.41531 0.0
C3899 C 0.11135 0.39947 0.42042 0.0
C3900 C 0.12808 0.4307 0.41986 0.0
C3901 C 0.12812 0.40573 0.42583 0.0
C3902 C 0.15497 0.45274 0.42119 0.0
C3903 C 0.13791 0.47117 0.4085 0.0
N3904 N 0.13602 0.42096 0.42523 0.0
N3905 N 0.12968 0.45648 0.41191 0.0
H3906 H 0.64991 0.05477 0.59012 0.0
H3907 H 0.72146 0.13347 0.61108 0.0
H3908 H 0.70196 0.06018 0.59801 0.0
H3909 H 0.66981 0.1285 0.60022 0.0
H3910 H 0.7143 0.10624 0.60837 0.0
H3911 H 0.65667 0.08128 0.59607 0.0
C3912 C 0.66275 0.0615 0.59322 0.0
C3913 C 0.6754 0.05526 0.59348 0.0
C3914 C 0.70452 0.1111 0.60666 0.0
C3915 C 0.68325 0.08568 0.60022 0.0
C3916 C 0.70862 0.12666 0.60813 0.0
C3917 C 0.69624 0.13333 0.60581 0.0
C3918 C 0.68793 0.10209 0.6028 0.0
C3919 C 0.67975 0.12387 0.60227 0.0
C3920 C 0.66661 0.07665 0.59658 0.0
C3921 C 0.69182 0.06452 0.5976 0.0
N3922 N 0.6761 0.10877 0.6008 0.0
N3923 N 0.69528 0.07928 0.60073 0.0
H3924 H 0.71904 0.94635 0.38768 0.0
H3925 H 0.6336 0.8934 0.41593 0.0
H3926 H 0.69865 0.95631 0.42463 0.0
H3927 H 0.64868 0.88706 0.37477 0.0
H3928 H 0.65731 0.91681 0.41891 0.0
H3929 H 0.69333 0.92497 0.38226 0.0
C3930 C 0.70913 0.94412 0.39459 0.0
C3931 C 0.71106 0.95307 0.4067 0.0
C3932 C 0.65542 0.91039 0.40917 0.0
C3933 C 0.68169 0.92861 0.4006 0.0
C3934 C 0.64193 0.897 0.4075 0.0
C3935 C 0.6393 0.88825 0.39515 0.0
C3936 C 0.66652 0.91504 0.39848 0.0
C3937 C 0.65029 0.89352 0.38444 0.0
C3938 C 0.69445 0.93193 0.39147 0.0
C3939 C 0.69778 0.94968 0.41523 0.0
N3940 N 0.66355 0.90652 0.38642 0.0
N3941 N 0.68374 0.93767 0.41208 0.0
H3942 H 0.76581 0.92914 0.10146 0.0
H3943 H 0.83896 0.91136 0.06919 0.0
H3944 H 0.78475 0.94835 0.06103 0.0
H3945 H 0.8128 0.88553 0.10431 0.0
H3946 H 0.81962 0.92535 0.06622 0.0
H3947 H 0.78353 0.9136 0.10308 0.0
C3948 C 0.77368 0.93008 0.09291 0.0
C3949 C 0.77383 0.9401 0.08111 0.0
C3950 C 0.81807 0.91657 0.07453 0.0
C3951 C 0.79421 0.92236 0.08293 0.0
C3952 C 0.82906 0.9085 0.07619 0.0
C3953 C 0.82759 0.89726 0.08707 0.0
C3954 C 0.80557 0.91348 0.08389 0.0
C3955 C 0.81464 0.89427 0.09596 0.0
C3956 C 0.78376 0.92116 0.09383 0.0
C3957 C 0.78424 0.94079 0.07032 0.0
N3958 N 0.8042 0.90239 0.09422 0.0
N3959 N 0.79408 0.9321 0.07154 0.0
H3960 H 0.26628 0.59012 0.33782 0.0
H3961 H 0.36346 0.61215 0.35862 0.0
H3962 H 0.28706 0.56115 0.36513 0.0
H3963 H 0.33981 0.6459 0.35389 0.0
H3964 H 0.33591 0.5923 0.35679 0.0
H3965 H 0.29373 0.60998 0.33953 0.0
C3966 C 0.27662 0.58794 0.34416 0.0
C3967 C 0.27443 0.57401 0.35139 0.0
C3968 C 0.33679 0.60406 0.35615 0.0
C3969 C 0.30575 0.59649 0.35314 0.0
C3970 C 0.35243 0.61532 0.3571 0.0
C3971 C 0.35377 0.63059 0.35642 0.0
C3972 C 0.32248 0.60814 0.35419 0.0
C3973 C 0.33919 0.63421 0.35452 0.0
C3974 C 0.29222 0.59927 0.34515 0.0
C3975 C 0.28822 0.57178 0.35947 0.0
N3976 N 0.3241 0.62305 0.35336 0.0
N3977 N 0.30336 0.58286 0.36003 0.0
H3978 H 0.30436 0.55307 0.91406 0.0
H3979 H 0.37753 0.61921 0.95653 0.0
H3980 H 0.32449 0.54826 0.95812 0.0
H3981 H 0.36048 0.62191 0.91127 0.0
H3982 H 0.35542 0.59464 0.95847 0.0
H3983 H 0.32246 0.57949 0.91387 0.0
C3984 C 0.31256 0.55757 0.92372 0.0
C3985 C 0.31301 0.54839 0.93609 0.0
C3986 C 0.35639 0.6007 0.94816 0.0
C3987 C 0.33376 0.5787 0.93595 0.0
C3988 C 0.36889 0.61478 0.9471 0.0
C3989 C 0.37088 0.62251 0.9337 0.0
C3990 C 0.34582 0.59437 0.93574 0.0
C3991 C 0.35948 0.6162 0.92176 0.0
C3992 C 0.32288 0.57268 0.92361 0.0
C3993 C 0.32382 0.55489 0.94831 0.0
N3994 N 0.34753 0.60245 0.92303 0.0
N3995 N 0.33382 0.56963 0.94791 0.0
H3996 H 0.70884 0.05408 0.12768 0.0
H3997 H 0.61021 0.02963 0.12841 0.0
H3998 H 0.67336 0.01562 0.10506 0.0
H3999 H 0.64511 0.06838 0.15099 0.0
H4000 H 0.63329 0.02498 0.11906 0.0
H4001 H 0.6858 0.06019 0.13558 0.0
C4002 C 0.69622 0.04695 0.12433 0.0
C4003 C 0.69304 0.03427 0.11573 0.0
C4004 C 0.63593 0.03453 0.12602 0.0
C4005 C 0.66662 0.0412 0.12476 0.0
C4006 C 0.62275 0.03715 0.13142 0.0
C4007 C 0.62572 0.04935 0.14059 0.0
C4008 C 0.65229 0.04414 0.12981 0.0
C4009 C 0.64222 0.0589 0.14389 0.0
C4010 C 0.68307 0.05045 0.12885 0.0
C4011 C 0.67643 0.02547 0.11171 0.0
N4012 N 0.65489 0.05604 0.13857 0.0
N4013 N 0.66387 0.02907 0.11629 0.0
H4014 H 0.75066 0.95962 0.59018 0.0
H4015 H 0.83285 0.98114 0.64625 0.0
H4016 H 0.7584 0.98724 0.62767 0.0
H4017 H 0.82552 0.95387 0.60859 0.0
H4018 H 0.80558 0.98343 0.6396 0.0
H4019 H 0.77788 0.95712 0.59686 0.0
C4020 C 0.75806 0.96514 0.59983 0.0
C4021 C 0.75223 0.97367 0.60837 0.0
C4022 C 0.80993 0.97695 0.63278 0.0
C4023 C 0.78344 0.97087 0.61606 0.0
C4024 C 0.82556 0.97572 0.63652 0.0
C4025 C 0.83154 0.96733 0.62794 0.0
C4026 C 0.80013 0.96976 0.62036 0.0
C4027 C 0.82137 0.96031 0.61561 0.0
C4028 C 0.77361 0.96372 0.60363 0.0
C4029 C 0.76238 0.98056 0.62076 0.0
N4030 N 0.80618 0.9617 0.61218 0.0
N4031 N 0.77748 0.97902 0.62421 0.0
loop_
_geom_bond_atom_site_label_1
_geom_bond_atom_site_label_2
_geom_bond_distance
_geom_bond_site_symmetry_2
_ccdc_geom_bond_type
O0 Cd1 2.309 . S
O0 C7 1.275 . S
Cd1 O0 2.309 . S
Cd1 O9 2.392 . S
Cd1 O10 2.378 1_455 S
O2 Cd3 2.385 . S
O2 C7 1.255 1_655 S
Cd3 O2 2.385 . S
Cd3 O4 2.317 . S
O4 Cd3 2.317 . S
O4 C5 1.232 . S
C5 O4 1.232 . S
C5 O6 1.218 . S
O6 C5 1.218 . S
C7 O0 1.275 . S
C7 O2 1.255 1_455 S
C8 O9 1.258 . S
C8 O10 1.256 1_455 S
O9 Cd1 2.392 . S
O9 C8 1.258 . S
O10 Cd1 2.378 1_655 S
O10 C8 1.256 1_655 S
O11 Cd12 2.300 . S
O11 C18 1.275 . S
Cd12 O11 2.300 . S
Cd12 O20 2.381 . S
Cd12 O21 2.378 . S
O13 Cd14 2.385 . S
O13 C18 1.255 . S
Cd14 O13 2.385 . S
Cd14 O15 2.317 . S
O15 Cd14 2.317 . S
O15 C16 1.232 . S
C16 O15 1.232 . S
C16 O17 1.218 . S
O17 C16 1.218 . S
C18 O11 1.275 . S
C18 O13 1.255 . S
C19 O20 1.258 . S
C19 O21 1.256 . S
O20 Cd12 2.381 . S
O20 C19 1.258 . S
O21 Cd12 2.378 . S
O21 C19 1.256 . S
O22 Cd23 2.300 . S
O22 C29 1.275 . S
Cd23 O22 2.300 . S
Cd23 O31 2.381 . S
Cd23 O32 2.378 . S
O24 Cd25 2.385 . S
O24 C29 1.255 . S
Cd25 O24 2.385 . S
Cd25 O26 2.317 . S
O26 Cd25 2.317 . S
O26 C27 1.232 . S
C27 O26 1.232 . S
C27 O28 1.218 . S
O28 C27 1.218 . S
C29 O22 1.275 . S
C29 O24 1.255 . S
C30 O31 1.258 . S
C30 O32 1.256 . S
O31 Cd23 2.381 . S
O31 C30 1.258 . S
O32 Cd23 2.378 . S
O32 C30 1.256 . S
O33 Cd34 2.300 . S
O33 C40 1.275 . S
Cd34 O33 2.300 . S
Cd34 O42 2.381 . S
Cd34 O43 2.378 . S
O35 Cd36 2.385 . S
O35 C40 1.255 . S
Cd36 O35 2.385 . S
Cd36 O37 2.317 . S
O37 Cd36 2.317 . S
O37 C38 1.232 . S
C38 O37 1.232 . S
C38 O39 1.218 . S
O39 C38 1.218 . S
C40 O33 1.275 . S
C40 O35 1.255 . S
C41 O42 1.258 . S
C41 O43 1.256 . S
O42 Cd34 2.381 . S
O42 C41 1.258 . S
O43 Cd34 2.378 . S
O43 C41 1.256 . S
O44 Cd45 2.300 . S
O44 C51 1.275 . S
Cd45 O44 2.300 . S
Cd45 O53 2.381 . S
Cd45 O54 2.378 . S
O46 Cd47 2.385 . S
O46 C51 1.255 . S
Cd47 O46 2.385 . S
Cd47 O48 2.317 . S
O48 Cd47 2.317 . S
O48 C49 1.232 . S
C49 O48 1.232 . S
C49 O50 1.218 . S
O50 C49 1.218 . S
C51 O44 1.275 . S
C51 O46 1.255 . S
C52 O53 1.258 . S
C52 O54 1.256 . S
O53 Cd45 2.381 . S
O53 C52 1.258 . S
O54 Cd45 2.378 . S
O54 C52 1.256 . S
O55 Cd56 2.300 . S
O55 C62 1.275 . S
Cd56 O55 2.300 . S
Cd56 O64 2.381 . S
Cd56 O65 2.378 . S
O57 Cd58 2.385 . S
O57 C62 1.255 . S
Cd58 O57 2.385 . S
Cd58 O59 2.317 . S
O59 Cd58 2.317 . S
O59 C60 1.232 . S
C60 O59 1.232 . S
C60 O61 1.218 . S
O61 C60 1.218 . S
C62 O55 1.275 . S
C62 O57 1.255 . S
C63 O64 1.258 . S
C63 O65 1.256 . S
O64 Cd56 2.381 . S
O64 C63 1.258 . S
O65 Cd56 2.378 . S
O65 C63 1.256 . S
O66 Cd67 2.300 . S
O66 C73 1.275 . S
Cd67 O66 2.300 . S
Cd67 O75 2.381 . S
Cd67 O76 2.378 . S
O68 Cd69 2.385 . S
O68 C73 1.255 . S
Cd69 O68 2.385 . S
Cd69 O70 2.317 . S
O70 Cd69 2.317 . S
O70 C71 1.232 . S
C71 O70 1.232 . S
C71 O72 1.218 . S
O72 C71 1.218 . S
C73 O66 1.275 . S
C73 O68 1.255 . S
C74 O75 1.258 . S
C74 O76 1.256 . S
O75 Cd67 2.381 . S
O75 C74 1.258 . S
O76 Cd67 2.378 . S
O76 C74 1.256 . S
O77 Cd78 2.300 . S
O77 C84 1.275 . S
Cd78 O77 2.300 . S
Cd78 O86 2.381 . S
Cd78 O87 2.378 . S
O79 Cd80 2.385 . S
O79 C84 1.255 . S
Cd80 O79 2.385 . S
Cd80 O81 2.317 1_556 S
O81 Cd80 2.317 1_554 S
O81 C82 1.232 . S
C82 O81 1.232 . S
C82 O83 1.218 . S
O83 C82 1.218 . S
C84 O77 1.275 . S
C84 O79 1.255 . S
C85 O86 1.258 . S
C85 O87 1.256 . S
O86 Cd78 2.381 . S
O86 C85 1.258 . S
O87 Cd78 2.378 . S
O87 C85 1.256 . S
O88 Cd89 2.300 . S
O88 C95 1.275 . S
Cd89 O88 2.300 . S
Cd89 O97 2.381 1_545 S
Cd89 O98 2.378 1_545 S
O90 Cd91 2.385 . S
O90 C95 1.255 . S
Cd91 O90 2.385 . S
Cd91 O92 2.317 . S
O92 Cd91 2.317 . S
O92 C93 1.232 . S
C93 O92 1.232 . S
C93 O94 1.218 . S
O94 C93 1.218 . S
C95 O88 1.275 . S
C95 O90 1.255 . S
C96 O97 1.258 . S
C96 O98 1.256 . S
O97 Cd89 2.381 1_565 S
O97 C96 1.258 . S
O98 Cd89 2.378 1_565 S
O98 C96 1.256 . S
O99 Cd100 2.300 . S
O99 C106 1.275 . S
Cd100 O99 2.300 . S
Cd100 O108 2.381 1_545 S
Cd100 O109 2.378 1_545 S
O101 Cd102 2.385 . S
O101 C106 1.255 . S
Cd102 O101 2.385 . S
Cd102 O103 2.317 . S
O103 Cd102 2.317 . S
O103 C104 1.232 . S
C104 O103 1.232 . S
C104 O105 1.218 . S
O105 C104 1.218 . S
C106 O99 1.275 . S
C106 O101 1.255 . S
C107 O108 1.258 . S
C107 O109 1.256 . S
O108 Cd100 2.381 1_565 S
O108 C107 1.258 . S
O109 Cd100 2.378 1_565 S
O109 C107 1.256 . S
O110 Cd111 2.300 . S
O110 C117 1.275 . S
Cd111 O110 2.300 . S
Cd111 O119 2.381 . S
Cd111 O120 2.378 . S
O112 Cd113 2.385 1_565 S
O112 C117 1.255 . S
Cd113 O112 2.385 1_545 S
Cd113 O114 2.317 . S
O114 Cd113 2.317 . S
O114 C115 1.232 . S
C115 O114 1.232 . S
C115 O116 1.218 . S
O116 C115 1.218 . S
C117 O110 1.275 . S
C117 O112 1.255 . S
C118 O119 1.258 . S
C118 O120 1.256 . S
O119 Cd111 2.381 . S
O119 C118 1.258 . S
O120 Cd111 2.378 . S
O120 C118 1.256 . S
O121 Cd122 2.293 . S
O121 C128 1.275 . S
Cd122 O121 2.293 . S
Cd122 O130 2.386 1_565 S
Cd122 O131 2.387 1_565 S
O123 Cd124 2.385 . S
O123 C128 1.255 . S
Cd124 O123 2.385 . S
Cd124 O125 2.317 . S
O125 Cd124 2.317 . S
O125 C126 1.232 . S
C126 O125 1.232 . S
C126 O127 1.218 . S
O127 C126 1.218 . S
C128 O121 1.275 . S
C128 O123 1.255 . S
C129 O130 1.258 . S
C129 O131 1.256 . S
O130 Cd122 2.386 1_545 S
O130 C129 1.258 . S
O131 Cd122 2.387 1_545 S
O131 C129 1.256 . S
O132 Cd133 2.300 . S
O132 C139 1.275 . S
Cd133 O132 2.300 . S
Cd133 O141 2.381 . S
Cd133 O142 2.378 . S
O134 Cd135 2.385 . S
O134 C139 1.255 . S
Cd135 O134 2.385 . S
Cd135 O136 2.317 . S
O136 Cd135 2.317 . S
O136 C137 1.232 . S
C137 O136 1.232 . S
C137 O138 1.218 . S
O138 C137 1.218 . S
C139 O132 1.275 . S
C139 O134 1.255 . S
C140 O141 1.258 . S
C140 O142 1.256 . S
O141 Cd133 2.381 . S
O141 C140 1.258 . S
O142 Cd133 2.378 . S
O142 C140 1.256 . S
O143 Cd144 2.300 . S
O143 C150 1.275 . S
Cd144 O143 2.300 . S
Cd144 O152 2.381 . S
Cd144 O153 2.378 . S
O145 Cd146 2.385 . S
O145 C150 1.255 . S
Cd146 O145 2.385 . S
Cd146 O147 2.317 . S
O147 Cd146 2.317 . S
O147 C148 1.232 . S
C148 O147 1.232 . S
C148 O149 1.218 . S
O149 C148 1.218 . S
C150 O143 1.275 . S
C150 O145 1.255 . S
C151 O152 1.258 . S
C151 O153 1.256 . S
O152 Cd144 2.381 . S
O152 C151 1.258 . S
O153 Cd144 2.378 . S
O153 C151 1.256 . S
O154 Cd155 2.300 . S
O154 C161 1.275 . S
Cd155 O154 2.300 . S
Cd155 O163 2.381 . S
Cd155 O164 2.378 . S
O156 Cd157 2.385 . S
O156 C161 1.255 . S
Cd157 O156 2.385 . S
Cd157 O158 2.317 . S
O158 Cd157 2.317 . S
O158 C159 1.232 . S
C159 O158 1.232 . S
C159 O160 1.218 . S
O160 C159 1.218 . S
C161 O154 1.275 . S
C161 O156 1.255 . S
C162 O163 1.258 . S
C162 O164 1.256 . S
O163 Cd155 2.381 . S
O163 C162 1.258 . S
O164 Cd155 2.378 . S
O164 C162 1.256 . S
O165 Cd166 2.300 1_655 S
O165 C172 1.275 . S
Cd166 O165 2.300 1_455 S
Cd166 O174 2.381 . S
Cd166 O175 2.378 . S
O167 Cd168 2.385 1_655 S
O167 C172 1.255 . S
Cd168 O167 2.385 1_455 S
Cd168 O169 2.317 . S
O169 Cd168 2.317 . S
O169 C170 1.232 1_455 S
C170 O169 1.232 1_655 S
C170 O171 1.218 . S
O171 C170 1.218 . S
C172 O165 1.275 . S
C172 O167 1.255 . S
C173 O174 1.258 . S
C173 O175 1.256 . S
O174 Cd166 2.381 . S
O174 C173 1.258 . S
O175 Cd166 2.378 . S
O175 C173 1.256 . S
O176 Cd177 2.300 . S
O176 C183 1.275 . S
Cd177 O176 2.300 . S
Cd177 O185 2.381 . S
Cd177 O186 2.378 . S
O178 Cd179 2.385 . S
O178 C183 1.255 . S
Cd179 O178 2.385 . S
Cd179 O180 2.317 . S
O180 Cd179 2.317 . S
O180 C181 1.232 . S
C181 O180 1.232 . S
C181 O182 1.218 . S
O182 C181 1.218 . S
C183 O176 1.275 . S
C183 O178 1.255 . S
C184 O185 1.258 . S
C184 O186 1.256 . S
O185 Cd177 2.381 . S
O185 C184 1.258 . S
O186 Cd177 2.378 . S
O186 C184 1.256 . S
O187 Cd188 2.300 . S
O187 C194 1.275 . S
Cd188 O187 2.300 . S
Cd188 O196 2.381 . S
Cd188 O197 2.378 . S
O189 Cd190 2.385 . S
O189 C194 1.255 . S
Cd190 O189 2.385 . S
Cd190 O191 2.317 . S
O191 Cd190 2.317 . S
O191 C192 1.232 . S
C192 O191 1.232 . S
C192 O193 1.218 . S
O193 C192 1.218 . S
C194 O187 1.275 . S
C194 O189 1.255 . S
C195 O196 1.258 . S
C195 O197 1.256 . S
O196 Cd188 2.381 . S
O196 C195 1.258 . S
O197 Cd188 2.378 . S
O197 C195 1.256 . S
O198 Cd199 2.300 . S
O198 C205 1.275 . S
Cd199 O198 2.300 . S
Cd199 O207 2.381 . S
Cd199 O208 2.378 . S
O200 Cd201 2.385 . S
O200 C205 1.255 . S
Cd201 O200 2.385 . S
Cd201 O202 2.317 1_556 S
O202 Cd201 2.317 1_554 S
O202 C203 1.232 . S
C203 O202 1.232 . S
C203 O204 1.218 . S
O204 C203 1.218 . S
C205 O198 1.275 . S
C205 O200 1.255 . S
C206 O207 1.258 . S
C206 O208 1.256 . S
O207 Cd199 2.381 . S
O207 C206 1.258 . S
O208 Cd199 2.378 . S
O208 C206 1.256 . S
O209 Cd210 2.300 . S
O209 C216 1.275 . S
Cd210 O209 2.300 . S
Cd210 O218 2.381 . S
Cd210 O219 2.378 . S
O211 Cd212 2.385 . S
O211 C216 1.255 . S
Cd212 O211 2.385 . S
Cd212 O213 2.317 . S
O213 Cd212 2.317 . S
O213 C214 1.232 . S
C214 O213 1.232 . S
C214 O215 1.218 . S
O215 C214 1.218 . S
C216 O209 1.275 . S
C216 O211 1.255 . S
C217 O218 1.258 . S
C217 O219 1.256 . S
O218 Cd210 2.381 . S
O218 C217 1.258 . S
O219 Cd210 2.378 . S
O219 C217 1.256 . S
O220 Cd221 2.300 . S
O220 C227 1.275 . S
Cd221 O220 2.300 . S
Cd221 O229 2.381 . S
Cd221 O230 2.378 . S
O222 Cd223 2.385 . S
O222 C227 1.255 . S
Cd223 O222 2.385 . S
Cd223 O224 2.317 . S
O224 Cd223 2.317 . S
O224 C225 1.232 . S
C225 O224 1.232 . S
C225 O226 1.218 . S
O226 C225 1.218 . S
C227 O220 1.275 . S
C227 O222 1.255 . S
C228 O229 1.258 . S
C228 O230 1.256 . S
O229 Cd221 2.381 . S
O229 C228 1.258 . S
O230 Cd221 2.378 . S
O230 C228 1.256 . S
O231 Cd232 2.300 . S
O231 C238 1.275 . S
Cd232 O231 2.300 . S
Cd232 O240 2.381 . S
Cd232 O241 2.378 . S
O233 Cd234 2.385 . S
O233 C238 1.255 . S
Cd234 O233 2.385 . S
Cd234 O235 2.317 . S
O235 Cd234 2.317 . S
O235 C236 1.232 . S
C236 O235 1.232 . S
C236 O237 1.218 . S
O237 C236 1.218 . S
C238 O231 1.275 . S
C238 O233 1.255 . S
C239 O240 1.258 . S
C239 O241 1.256 . S
O240 Cd232 2.381 . S
O240 C239 1.258 . S
O241 Cd232 2.378 . S
O241 C239 1.256 . S
O242 Cd243 2.300 . S
O242 C249 1.275 . S
Cd243 O242 2.300 . S
Cd243 O251 2.381 . S
Cd243 O252 2.378 . S
O244 Cd245 2.385 . S
O244 C249 1.255 . S
Cd245 O244 2.385 . S
Cd245 O246 2.317 . S
O246 Cd245 2.317 . S
O246 C247 1.232 . S
C247 O246 1.232 . S
C247 O248 1.218 . S
O248 C247 1.218 . S
C249 O242 1.275 . S
C249 O244 1.255 . S
C250 O251 1.258 . S
C250 O252 1.256 . S
O251 Cd243 2.381 . S
O251 C250 1.258 . S
O252 Cd243 2.378 . S
O252 C250 1.256 . S
O253 Cd254 2.300 . S
O253 C260 1.275 . S
Cd254 O253 2.300 . S
Cd254 O262 2.381 1_565 S
Cd254 O263 2.378 1_565 S
O255 Cd256 2.385 . S
O255 C260 1.255 . S
Cd256 O255 2.385 . S
Cd256 O257 2.317 . S
O257 Cd256 2.317 . S
O257 C258 1.232 . S
C258 O257 1.232 . S
C258 O259 1.218 . S
O259 C258 1.218 . S
C260 O253 1.275 . S
C260 O255 1.255 . S
C261 O262 1.258 . S
C261 O263 1.256 . S
O262 Cd254 2.381 1_545 S
O262 C261 1.258 . S
O263 Cd254 2.378 1_545 S
O263 C261 1.256 . S
O264 Cd265 2.300 . S
O264 C271 1.275 . S
Cd265 O264 2.300 . S
Cd265 O273 2.381 1_565 S
Cd265 O274 2.378 1_565 S
O266 Cd267 2.385 . S
O266 C271 1.255 . S
Cd267 O266 2.385 . S
Cd267 O268 2.317 . S
O268 Cd267 2.317 . S
O268 C269 1.232 . S
C269 O268 1.232 . S
C269 O270 1.218 . S
O270 C269 1.218 . S
C271 O264 1.275 . S
C271 O266 1.255 . S
C272 O273 1.258 . S
C272 O274 1.256 . S
O273 Cd265 2.381 1_545 S
O273 C272 1.258 . S
O274 Cd265 2.378 1_545 S
O274 C272 1.256 . S
O275 Cd276 2.300 1_545 S
O275 C282 1.275 . S
Cd276 O275 2.300 1_565 S
Cd276 O284 2.381 . S
Cd276 O285 2.378 . S
O277 Cd278 2.385 . S
O277 C282 1.255 . S
Cd278 O277 2.385 . S
Cd278 O279 2.317 . S
O279 Cd278 2.317 . S
O279 C280 1.232 . S
C280 O279 1.232 . S
C280 O281 1.218 . S
O281 C280 1.218 . S
C282 O275 1.275 . S
C282 O277 1.255 . S
C283 O284 1.258 . S
C283 O285 1.256 . S
O284 Cd276 2.381 . S
O284 C283 1.258 . S
O285 Cd276 2.378 . S
O285 C283 1.256 . S
O286 Cd287 2.300 . S
O286 C293 1.275 . S
Cd287 O286 2.300 . S
Cd287 O295 2.381 1_545 S
Cd287 O296 2.378 1_545 S
O288 Cd289 2.385 . S
O288 C293 1.255 . S
Cd289 O288 2.385 . S
Cd289 O290 2.317 . S
O290 Cd289 2.317 . S
O290 C291 1.232 . S
C291 O290 1.232 . S
C291 O292 1.218 . S
O292 C291 1.218 . S
C293 O286 1.275 . S
C293 O288 1.255 . S
C294 O295 1.258 . S
C294 O296 1.256 . S
O295 Cd287 2.381 1_565 S
O295 C294 1.258 . S
O296 Cd287 2.378 1_565 S
O296 C294 1.256 . S
O297 Cd298 2.300 1_556 S
O297 C304 1.275 . S
Cd298 O297 2.300 1_554 S
Cd298 O306 2.381 . S
Cd298 O307 2.378 . S
O299 Cd300 2.385 . S
O299 C304 1.255 . S
Cd300 O299 2.385 . S
Cd300 O301 2.317 . S
O301 Cd300 2.317 . S
O301 C302 1.232 . S
C302 O301 1.232 . S
C302 O303 1.218 . S
O303 C302 1.218 . S
C304 O297 1.275 . S
C304 O299 1.255 . S
C305 O306 1.258 . S
C305 O307 1.256 . S
O306 Cd298 2.381 . S
O306 C305 1.258 . S
O307 Cd298 2.378 . S
O307 C305 1.256 . S
O308 Cd309 2.300 . S
O308 C315 1.275 . S
Cd309 O308 2.300 . S
Cd309 O317 2.381 . S
Cd309 O318 2.378 . S
O310 Cd311 2.385 . S
O310 C315 1.255 . S
Cd311 O310 2.385 . S
Cd311 O312 2.317 . S
O312 Cd311 2.317 . S
O312 C313 1.232 . S
C313 O312 1.232 . S
C313 O314 1.218 . S
O314 C313 1.218 . S
C315 O308 1.275 . S
C315 O310 1.255 . S
C316 O317 1.258 . S
C316 O318 1.256 . S
O317 Cd309 2.381 . S
O317 C316 1.258 . S
O318 Cd309 2.378 . S
O318 C316 1.256 . S
O319 Cd320 2.300 . S
O319 C326 1.275 . S
Cd320 O319 2.300 . S
Cd320 O328 2.381 . S
Cd320 O329 2.378 . S
O321 Cd322 2.385 . S
O321 C326 1.255 . S
Cd322 O321 2.385 . S
Cd322 O323 2.317 . S
O323 Cd322 2.317 . S
O323 C324 1.232 . S
C324 O323 1.232 . S
C324 O325 1.218 . S
O325 C324 1.218 . S
C326 O319 1.275 . S
C326 O321 1.255 . S
C327 O328 1.258 . S
C327 O329 1.256 . S
O328 Cd320 2.381 . S
O328 C327 1.258 . S
O329 Cd320 2.378 . S
O329 C327 1.256 . S
O330 Cd331 2.300 . S
O330 C337 1.275 . S
Cd331 O330 2.300 . S
Cd331 O339 2.381 . S
Cd331 O340 2.378 . S
O332 Cd333 2.385 . S
O332 C337 1.255 . S
Cd333 O332 2.385 . S
Cd333 O334 2.317 . S
O334 Cd333 2.317 . S
O334 C335 1.232 . S
C335 O334 1.232 . S
C335 O336 1.218 . S
O336 C335 1.218 . S
C337 O330 1.275 . S
C337 O332 1.255 . S
C338 O339 1.258 . S
C338 O340 1.256 . S
O339 Cd331 2.381 . S
O339 C338 1.258 . S
O340 Cd331 2.378 . S
O340 C338 1.256 . S
O341 Cd342 2.300 . S
O341 C348 1.275 . S
Cd342 O341 2.300 . S
Cd342 O350 2.381 1_655 S
Cd342 O351 2.378 1_655 S
O343 Cd344 2.385 . S
O343 C348 1.255 . S
Cd344 O343 2.385 . S
Cd344 O345 2.317 . S
O345 Cd344 2.317 . S
O345 C346 1.232 . S
C346 O345 1.232 . S
C346 O347 1.218 . S
O347 C346 1.218 . S
C348 O341 1.275 . S
C348 O343 1.255 . S
C349 O350 1.258 . S
C349 O351 1.256 . S
O350 Cd342 2.381 1_455 S
O350 C349 1.258 . S
O351 Cd342 2.378 1_455 S
O351 C349 1.256 . S
O352 Cd353 2.300 . S
O352 C359 1.275 . S
Cd353 O352 2.300 . S
Cd353 O361 2.381 . S
Cd353 O362 2.378 . S
O354 Cd355 2.385 . S
O354 C359 1.255 . S
Cd355 O354 2.385 . S
Cd355 O356 2.317 . S
O356 Cd355 2.317 . S
O356 C357 1.232 . S
C357 O356 1.232 . S
C357 O358 1.218 . S
O358 C357 1.218 . S
C359 O352 1.275 . S
C359 O354 1.255 . S
C360 O361 1.258 . S
C360 O362 1.256 . S
O361 Cd353 2.381 . S
O361 C360 1.258 . S
O362 Cd353 2.378 . S
O362 C360 1.256 . S
O363 Cd364 2.300 . S
O363 C370 1.275 . S
Cd364 O363 2.300 . S
Cd364 O372 2.381 . S
Cd364 O373 2.378 . S
O365 Cd366 2.385 1_556 S
O365 C370 1.255 . S
Cd366 O365 2.385 1_554 S
Cd366 O367 2.317 . S
O367 Cd366 2.317 . S
O367 C368 1.232 . S
C368 O367 1.232 . S
C368 O369 1.218 . S
O369 C368 1.218 . S
C370 O363 1.275 . S
C370 O365 1.255 . S
C371 O372 1.258 . S
C371 O373 1.256 . S
O372 Cd364 2.381 . S
O372 C371 1.258 . S
O373 Cd364 2.378 . S
O373 C371 1.256 . S
O374 Cd375 2.300 . S
O374 C381 1.275 . S
Cd375 O374 2.300 . S
Cd375 O383 2.381 . S
Cd375 O384 2.378 . S
O376 Cd377 2.385 . S
O376 C381 1.255 . S
Cd377 O376 2.385 . S
Cd377 O378 2.317 . S
O378 Cd377 2.317 . S
O378 C379 1.232 . S
C379 O378 1.232 . S
C379 O380 1.218 . S
O380 C379 1.218 . S
C381 O374 1.275 . S
C381 O376 1.255 . S
C382 O383 1.258 . S
C382 O384 1.256 . S
O383 Cd375 2.381 . S
O383 C382 1.258 . S
O384 Cd375 2.378 . S
O384 C382 1.256 . S
O385 Cd386 2.300 . S
O385 C392 1.275 . S
Cd386 O385 2.300 . S
Cd386 O394 2.381 . S
Cd386 O395 2.378 . S
O387 Cd388 2.385 . S
O387 C392 1.255 . S
Cd388 O387 2.385 . S
Cd388 O389 2.317 . S
O389 Cd388 2.317 . S
O389 C390 1.232 . S
C390 O389 1.232 . S
C390 O391 1.218 . S
O391 C390 1.218 . S
C392 O385 1.275 . S
C392 O387 1.255 . S
C393 O394 1.258 . S
C393 O395 1.256 . S
O394 Cd386 2.381 . S
O394 C393 1.258 . S
O395 Cd386 2.378 . S
O395 C393 1.256 . S
O396 Cd397 2.300 . S
O396 C403 1.275 . S
Cd397 O396 2.300 . S
Cd397 O405 2.381 . S
Cd397 O406 2.378 . S
O398 Cd399 2.385 . S
O398 C403 1.255 . S
Cd399 O398 2.385 . S
Cd399 O400 2.317 . S
O400 Cd399 2.317 . S
O400 C401 1.232 . S
C401 O400 1.232 . S
C401 O402 1.218 . S
O402 C401 1.218 . S
C403 O396 1.275 . S
C403 O398 1.255 . S
C404 O405 1.258 . S
C404 O406 1.256 . S
O405 Cd397 2.381 . S
O405 C404 1.258 . S
O406 Cd397 2.378 . S
O406 C404 1.256 . S
O407 Cd408 2.300 . S
O407 C414 1.275 . S
Cd408 O407 2.300 . S
Cd408 O416 2.381 . S
Cd408 O417 2.378 . S
O409 Cd410 2.385 . S
O409 C414 1.255 . S
Cd410 O409 2.385 . S
Cd410 O411 2.317 . S
O411 Cd410 2.317 . S
O411 C412 1.232 . S
C412 O411 1.232 . S
C412 O413 1.218 . S
O413 C412 1.218 . S
C414 O407 1.275 . S
C414 O409 1.255 . S
C415 O416 1.258 . S
C415 O417 1.256 . S
O416 Cd408 2.381 . S
O416 C415 1.258 . S
O417 Cd408 2.378 . S
O417 C415 1.256 . S
O418 Cd419 2.300 . S
O418 C425 1.275 . S
Cd419 O418 2.300 . S
Cd419 O427 2.381 . S
Cd419 O428 2.378 . S
O420 Cd421 2.385 . S
O420 C425 1.255 . S
Cd421 O420 2.385 . S
Cd421 O422 2.317 . S
O422 Cd421 2.317 . S
O422 C423 1.232 . S
C423 O422 1.232 . S
C423 O424 1.218 . S
O424 C423 1.218 . S
C425 O418 1.275 . S
C425 O420 1.255 . S
C426 O427 1.258 . S
C426 O428 1.256 . S
O427 Cd419 2.381 . S
O427 C426 1.258 . S
O428 Cd419 2.378 . S
O428 C426 1.256 . S
O429 Cd430 2.300 . S
O429 C436 1.275 . S
Cd430 O429 2.300 . S
Cd430 O438 2.381 . S
Cd430 O439 2.378 . S
O431 Cd432 2.385 . S
O431 C436 1.255 . S
Cd432 O431 2.385 . S
Cd432 O433 2.317 . S
O433 Cd432 2.317 . S
O433 C434 1.232 . S
C434 O433 1.232 . S
C434 O435 1.218 . S
O435 C434 1.218 . S
C436 O429 1.275 . S
C436 O431 1.255 . S
C437 O438 1.258 . S
C437 O439 1.256 . S
O438 Cd430 2.381 . S
O438 C437 1.258 . S
O439 Cd430 2.378 . S
O439 C437 1.256 . S
O440 Cd441 2.300 . S
O440 C447 1.275 . S
Cd441 O440 2.300 . S
Cd441 O449 2.381 . S
Cd441 O450 2.378 . S
O442 Cd443 2.385 . S
O442 C447 1.255 . S
Cd443 O442 2.385 . S
Cd443 O444 2.317 1_455 S
O444 Cd443 2.317 1_655 S
O444 C445 1.232 . S
C445 O444 1.232 . S
C445 O446 1.218 . S
O446 C445 1.218 . S
C447 O440 1.275 . S
C447 O442 1.255 . S
C448 O449 1.258 . S
C448 O450 1.256 . S
O449 Cd441 2.381 . S
O449 C448 1.258 . S
O450 Cd441 2.378 . S
O450 C448 1.256 . S
O451 Cd452 2.300 . S
O451 C458 1.275 . S
Cd452 O451 2.300 . S
Cd452 O460 2.381 . S
Cd452 O461 2.378 . S
O453 Cd454 2.385 . S
O453 C458 1.255 . S
Cd454 O453 2.385 . S
Cd454 O455 2.317 . S
O455 Cd454 2.317 . S
O455 C456 1.232 . S
C456 O455 1.232 . S
C456 O457 1.218 . S
O457 C456 1.218 . S
C458 O451 1.275 . S
C458 O453 1.255 . S
C459 O460 1.258 . S
C459 O461 1.256 . S
O460 Cd452 2.381 . S
O460 C459 1.258 . S
O461 Cd452 2.378 . S
O461 C459 1.256 . S
O462 Cd463 2.300 . S
O462 C469 1.275 . S
Cd463 O462 2.300 . S
Cd463 O471 2.381 . S
Cd463 O472 2.378 . S
O464 Cd465 2.385 1_554 S
O464 C469 1.255 . S
Cd465 O464 2.385 1_556 S
Cd465 O466 2.317 . S
O466 Cd465 2.317 . S
O466 C467 1.232 . S
C467 O466 1.232 . S
C467 O468 1.218 . S
O468 C467 1.218 . S
C469 O462 1.275 . S
C469 O464 1.255 . S
C470 O471 1.258 . S
C470 O472 1.256 . S
O471 Cd463 2.381 . S
O471 C470 1.258 . S
O472 Cd463 2.378 . S
O472 C470 1.256 . S
O473 Cd474 2.300 . S
O473 C480 1.275 . S
Cd474 O473 2.300 . S
Cd474 O482 2.381 . S
Cd474 O483 2.378 . S
O475 Cd476 2.385 . S
O475 C480 1.255 . S
Cd476 O475 2.385 . S
Cd476 O477 2.317 . S
O477 Cd476 2.317 . S
O477 C478 1.232 . S
C478 O477 1.232 . S
C478 O479 1.218 . S
O479 C478 1.218 . S
C480 O473 1.275 . S
C480 O475 1.255 . S
C481 O482 1.258 . S
C481 O483 1.256 . S
O482 Cd474 2.381 . S
O482 C481 1.258 . S
O483 Cd474 2.378 . S
O483 C481 1.256 . S
O484 Cd485 2.300 . S
O484 C491 1.275 . S
Cd485 O484 2.300 . S
Cd485 O493 2.381 . S
Cd485 O494 2.378 . S
O486 Cd487 2.385 . S
O486 C491 1.255 . S
Cd487 O486 2.385 . S
Cd487 O488 2.317 . S
O488 Cd487 2.317 . S
O488 C489 1.232 . S
C489 O488 1.232 . S
C489 O490 1.218 . S
O490 C489 1.218 . S
C491 O484 1.275 . S
C491 O486 1.255 . S
C492 O493 1.258 . S
C492 O494 1.256 . S
O493 Cd485 2.381 . S
O493 C492 1.258 . S
O494 Cd485 2.378 . S
O494 C492 1.256 . S
O495 Cd496 2.300 . S
O495 C502 1.275 . S
Cd496 O495 2.300 . S
Cd496 O504 2.381 . S
Cd496 O505 2.378 . S
O497 Cd498 2.385 . S
O497 C502 1.255 . S
Cd498 O497 2.385 . S
Cd498 O499 2.317 . S
O499 Cd498 2.317 . S
O499 C500 1.232 . S
C500 O499 1.232 . S
C500 O501 1.218 . S
O501 C500 1.218 . S
C502 O495 1.275 . S
C502 O497 1.255 . S
C503 O504 1.258 . S
C503 O505 1.256 . S
O504 Cd496 2.381 . S
O504 C503 1.258 . S
O505 Cd496 2.378 . S
O505 C503 1.256 . S
O506 Cd507 2.300 . S
O506 C513 1.275 . S
Cd507 O506 2.300 . S
Cd507 O515 2.381 . S
Cd507 O516 2.378 . S
O508 Cd509 2.385 . S
O508 C513 1.255 . S
Cd509 O508 2.385 . S
Cd509 O510 2.317 . S
O510 Cd509 2.317 . S
O510 C511 1.232 . S
C511 O510 1.232 . S
C511 O512 1.218 . S
O512 C511 1.218 . S
C513 O506 1.275 . S
C513 O508 1.255 . S
C514 O515 1.258 . S
C514 O516 1.256 . S
O515 Cd507 2.381 . S
O515 C514 1.258 . S
O516 Cd507 2.378 . S
O516 C514 1.256 . S
O517 Cd518 2.300 . S
O517 C524 1.275 . S
Cd518 O517 2.300 . S
Cd518 O526 2.381 . S
Cd518 O527 2.378 . S
O519 Cd520 2.385 . S
O519 C524 1.255 . S
Cd520 O519 2.385 . S
Cd520 O521 2.317 . S
O521 Cd520 2.317 . S
O521 C522 1.232 . S
C522 O521 1.232 . S
C522 O523 1.218 . S
O523 C522 1.218 . S
C524 O517 1.275 . S
C524 O519 1.255 . S
C525 O526 1.258 . S
C525 O527 1.256 . S
O526 Cd518 2.381 . S
O526 C525 1.258 . S
O527 Cd518 2.378 . S
O527 C525 1.256 . S
H528 C529 0.949 . S
C529 H528 0.949 . S
C529 C530 1.395 . S
C529 C531 1.391 . S
C530 C529 1.395 . S
C530 C533 1.390 . S
C531 C529 1.391 . S
C531 C535 1.387 . S
C531 C536 1.491 . S
H532 C533 0.950 . S
C533 C530 1.390 . S
C533 H532 0.950 . S
C533 C534 1.378 . S
C534 C533 1.378 . S
C534 C535 1.409 . S
C535 C531 1.387 . S
C535 C534 1.409 . S
C535 H537 0.951 . S
C536 C531 1.491 . S
C536 C538 1.382 . S
C536 C540 1.404 . S
H537 C535 0.951 . S
C538 C536 1.382 . S
C538 C539 1.390 . S
C538 H543 0.949 . S
C539 C538 1.390 . S
C539 C544 1.399 . S
C540 C536 1.404 . S
C540 H541 0.950 . S
C540 C542 1.375 . S
H541 C540 0.950 . S
C542 C540 1.375 . S
C542 C544 1.382 . S
C542 H546 0.950 . S
H543 C538 0.949 . S
C544 C539 1.399 . S
C544 C542 1.382 . S
C544 H545 0.952 . S
H545 C544 0.952 . S
H546 C542 0.950 . S
H547 C548 0.949 . S
C548 H547 0.949 . S
C548 C549 1.395 . S
C548 C550 1.391 . S
C549 C548 1.395 . S
C549 C552 1.390 . S
C550 C548 1.391 . S
C550 C554 1.387 . S
C550 C555 1.491 . S
H551 C552 0.950 . S
C552 C549 1.390 . S
C552 H551 0.950 . S
C552 C553 1.378 . S
C553 C552 1.378 . S
C553 C554 1.409 . S
C554 C550 1.387 . S
C554 C553 1.409 . S
C554 H556 0.951 . S
C555 C550 1.491 . S
C555 C557 1.382 . S
C555 C559 1.404 . S
H556 C554 0.951 . S
C557 C555 1.382 . S
C557 C558 1.390 . S
C557 H562 0.949 . S
C558 C557 1.390 . S
C558 C563 1.399 . S
C559 C555 1.404 . S
C559 H560 0.950 . S
C559 C561 1.375 . S
H560 C559 0.950 . S
C561 C559 1.375 . S
C561 C563 1.382 . S
C561 H565 0.950 . S
H562 C557 0.949 . S
C563 C558 1.399 . S
C563 C561 1.382 . S
C563 H564 0.952 . S
H564 C563 0.952 . S
H565 C561 0.950 . S
H566 C567 0.949 . S
C567 H566 0.949 . S
C567 C568 1.395 . S
C567 C569 1.391 . S
C568 C567 1.395 . S
C568 C571 1.390 . S
C569 C567 1.391 . S
C569 C573 1.387 . S
C569 C574 1.491 . S
H570 C571 0.950 . S
C571 C568 1.390 . S
C571 H570 0.950 . S
C571 C572 1.378 . S
C572 C571 1.378 . S
C572 C573 1.409 . S
C573 C569 1.387 . S
C573 C572 1.409 . S
C573 H575 0.951 . S
C574 C569 1.491 . S
C574 C576 1.382 . S
C574 C578 1.404 . S
H575 C573 0.951 . S
C576 C574 1.382 . S
C576 C577 1.390 . S
C576 H581 0.949 . S
C577 C576 1.390 . S
C577 C582 1.399 . S
C578 C574 1.404 . S
C578 H579 0.950 . S
C578 C580 1.375 . S
H579 C578 0.950 . S
C580 C578 1.375 . S
C580 C582 1.382 . S
C580 H584 0.950 . S
H581 C576 0.949 . S
C582 C577 1.399 . S
C582 C580 1.382 . S
C582 H583 0.952 . S
H583 C582 0.952 . S
H584 C580 0.950 . S
H585 C586 0.949 . S
C586 H585 0.949 . S
C586 C587 1.395 . S
C586 C588 1.391 . S
C587 C586 1.395 . S
C587 C590 1.390 . S
C588 C586 1.391 . S
C588 C592 1.387 . S
C588 C593 1.491 . S
H589 C590 0.950 . S
C590 C587 1.390 . S
C590 H589 0.950 . S
C590 C591 1.378 . S
C591 C590 1.378 . S
C591 C592 1.409 . S
C592 C588 1.387 . S
C592 C591 1.409 . S
C592 H594 0.951 . S
C593 C588 1.491 . S
C593 C595 1.382 . S
C593 C597 1.404 . S
H594 C592 0.951 . S
C595 C593 1.382 . S
C595 C596 1.390 . S
C595 H600 0.949 . S
C596 C595 1.390 . S
C596 C601 1.399 . S
C597 C593 1.404 . S
C597 H598 0.950 . S
C597 C599 1.375 . S
H598 C597 0.950 . S
C599 C597 1.375 . S
C599 C601 1.382 . S
C599 H603 0.950 . S
H600 C595 0.949 . S
C601 C596 1.399 . S
C601 C599 1.382 . S
C601 H602 0.952 . S
H602 C601 0.952 . S
H603 C599 0.950 . S
H604 C605 0.949 . S
C605 H604 0.949 . S
C605 C606 1.395 . S
C605 C607 1.391 . S
C606 C605 1.395 . S
C606 C609 1.390 . S
C607 C605 1.391 . S
C607 C611 1.387 . S
C607 C612 1.491 . S
H608 C609 0.950 . S
C609 C606 1.390 . S
C609 H608 0.950 . S
C609 C610 1.378 . S
C610 C609 1.378 . S
C610 C611 1.409 . S
C611 C607 1.387 . S
C611 C610 1.409 . S
C611 H613 0.951 . S
C612 C607 1.491 . S
C612 C614 1.382 . S
C612 C616 1.404 . S
H613 C611 0.951 . S
C614 C612 1.382 . S
C614 C615 1.390 . S
C614 H619 0.949 . S
C615 C614 1.390 . S
C615 C620 1.399 . S
C616 C612 1.404 . S
C616 H617 0.950 . S
C616 C618 1.375 . S
H617 C616 0.950 . S
C618 C616 1.375 . S
C618 C620 1.382 . S
C618 H622 0.950 . S
H619 C614 0.949 . S
C620 C615 1.399 . S
C620 C618 1.382 . S
C620 H621 0.952 . S
H621 C620 0.952 . S
H622 C618 0.950 . S
H623 C624 0.949 . S
C624 H623 0.949 . S
C624 C625 1.395 . S
C624 C626 1.391 . S
C625 C624 1.395 . S
C625 C628 1.390 . S
C626 C624 1.391 . S
C626 C630 1.387 . S
C626 C631 1.491 . S
H627 C628 0.950 . S
C628 C625 1.390 . S
C628 H627 0.950 . S
C628 C629 1.378 . S
C629 C628 1.378 . S
C629 C630 1.409 . S
C630 C626 1.387 . S
C630 C629 1.409 . S
C630 H632 0.951 . S
C631 C626 1.491 . S
C631 C633 1.382 . S
C631 C635 1.404 . S
H632 C630 0.951 . S
C633 C631 1.382 . S
C633 C634 1.390 . S
C633 H638 0.949 . S
C634 C633 1.390 . S
C634 C639 1.399 . S
C635 C631 1.404 . S
C635 H636 0.950 . S
C635 C637 1.375 . S
H636 C635 0.950 . S
C637 C635 1.375 . S
C637 C639 1.382 . S
C637 H641 0.950 . S
H638 C633 0.949 . S
C639 C634 1.399 . S
C639 C637 1.382 . S
C639 H640 0.952 . S
H640 C639 0.952 . S
H641 C637 0.950 . S
H642 C643 0.949 . S
C643 H642 0.949 . S
C643 C644 1.395 . S
C643 C645 1.391 . S
C644 C643 1.395 . S
C644 C647 1.390 . S
C645 C643 1.391 . S
C645 C649 1.387 . S
C645 C650 1.491 . S
H646 C647 0.950 . S
C647 C644 1.390 . S
C647 H646 0.950 . S
C647 C648 1.378 . S
C648 C647 1.378 . S
C648 C649 1.409 . S
C649 C645 1.387 . S
C649 C648 1.409 . S
C649 H651 0.951 . S
C650 C645 1.491 . S
C650 C652 1.382 . S
C650 C654 1.404 . S
H651 C649 0.951 . S
C652 C650 1.382 . S
C652 C653 1.390 . S
C652 H657 0.949 . S
C653 C652 1.390 . S
C653 C658 1.399 . S
C654 C650 1.404 . S
C654 H655 0.950 . S
C654 C656 1.375 . S
H655 C654 0.950 . S
C656 C654 1.375 . S
C656 C658 1.382 . S
C656 H660 0.950 . S
H657 C652 0.949 . S
C658 C653 1.399 . S
C658 C656 1.382 . S
C658 H659 0.952 . S
H659 C658 0.952 . S
H660 C656 0.950 . S
H661 C662 0.949 . S
C662 H661 0.949 . S
C662 C663 1.395 . S
C662 C664 1.391 . S
C663 C662 1.395 . S
C663 C666 1.390 . S
C664 C662 1.391 . S
C664 C668 1.387 . S
C664 C669 1.491 . S
H665 C666 0.950 . S
C666 C663 1.390 . S
C666 H665 0.950 . S
C666 C667 1.378 . S
C667 C666 1.378 . S
C667 C668 1.409 . S
C668 C664 1.387 . S
C668 C667 1.409 . S
C668 H670 0.951 . S
C669 C664 1.491 . S
C669 C671 1.382 . S
C669 C673 1.404 . S
H670 C668 0.951 . S
C671 C669 1.382 . S
C671 C672 1.390 . S
C671 H676 0.949 . S
C672 C671 1.390 . S
C672 C677 1.399 . S
C673 C669 1.404 . S
C673 H674 0.950 . S
C673 C675 1.375 . S
H674 C673 0.950 . S
C675 C673 1.375 . S
C675 C677 1.382 . S
C675 H679 0.950 . S
H676 C671 0.949 . S
C677 C672 1.399 . S
C677 C675 1.382 . S
C677 H678 0.952 . S
H678 C677 0.952 . S
H679 C675 0.950 . S
H680 C681 0.949 . S
C681 H680 0.949 . S
C681 C682 1.395 . S
C681 C683 1.391 . S
C682 C681 1.395 . S
C682 C685 1.390 . S
C683 C681 1.391 . S
C683 C687 1.387 . S
C683 C688 1.491 . S
H684 C685 0.950 . S
C685 C682 1.390 . S
C685 H684 0.950 . S
C685 C686 1.378 . S
C686 C685 1.378 . S
C686 C687 1.409 . S
C687 C683 1.387 . S
C687 C686 1.409 . S
C687 H689 0.951 . S
C688 C683 1.491 . S
C688 C690 1.382 . S
C688 C692 1.404 . S
H689 C687 0.951 . S
C690 C688 1.382 . S
C690 C691 1.390 . S
C690 H695 0.949 . S
C691 C690 1.390 . S
C691 C696 1.399 . S
C692 C688 1.404 . S
C692 H693 0.950 . S
C692 C694 1.375 . S
H693 C692 0.950 . S
C694 C692 1.375 . S
C694 C696 1.382 . S
C694 H698 0.950 . S
H695 C690 0.949 . S
C696 C691 1.399 . S
C696 C694 1.382 . S
C696 H697 0.952 . S
H697 C696 0.952 . S
H698 C694 0.950 . S
H699 C700 0.949 . S
C700 H699 0.949 . S
C700 C701 1.395 . S
C700 C702 1.391 . S
C701 C700 1.395 . S
C701 C704 1.390 . S
C702 C700 1.391 . S
C702 C706 1.387 . S
C702 C707 1.491 . S
H703 C704 0.950 . S
C704 C701 1.390 . S
C704 H703 0.950 . S
C704 C705 1.378 . S
C705 C704 1.378 . S
C705 C706 1.409 . S
C706 C702 1.387 . S
C706 C705 1.409 . S
C706 H708 0.951 . S
C707 C702 1.491 . S
C707 C709 1.382 . S
C707 C711 1.404 . S
H708 C706 0.951 . S
C709 C707 1.382 . S
C709 C710 1.390 . S
C709 H714 0.949 . S
C710 C709 1.390 . S
C710 C715 1.399 . S
C711 C707 1.404 . S
C711 H712 0.950 . S
C711 C713 1.375 . S
H712 C711 0.950 . S
C713 C711 1.375 . S
C713 C715 1.382 . S
C713 H717 0.950 . S
H714 C709 0.949 . S
C715 C710 1.399 . S
C715 C713 1.382 . S
C715 H716 0.952 . S
H716 C715 0.952 . S
H717 C713 0.950 . S
H718 C719 0.949 . S
C719 H718 0.949 . S
C719 C720 1.395 . S
C719 C721 1.391 . S
C720 C719 1.395 . S
C720 C723 1.390 . S
C721 C719 1.391 . S
C721 C725 1.387 . S
C721 C726 1.491 . S
H722 C723 0.950 . S
C723 C720 1.390 . S
C723 H722 0.950 . S
C723 C724 1.378 . S
C724 C723 1.378 . S
C724 C725 1.409 . S
C725 C721 1.387 . S
C725 C724 1.409 . S
C725 H727 0.951 . S
C726 C721 1.491 . S
C726 C728 1.382 . S
C726 C730 1.404 . S
H727 C725 0.951 . S
C728 C726 1.382 . S
C728 C729 1.390 . S
C728 H733 0.949 . S
C729 C728 1.390 . S
C729 C734 1.399 . S
C730 C726 1.404 . S
C730 H731 0.950 . S
C730 C732 1.375 . S
H731 C730 0.950 . S
C732 C730 1.375 . S
C732 C734 1.382 . S
C732 H736 0.950 . S
H733 C728 0.949 . S
C734 C729 1.399 . S
C734 C732 1.382 . S
C734 H735 0.952 . S
H735 C734 0.952 . S
H736 C732 0.950 . S
H737 C738 0.949 . S
C738 H737 0.949 . S
C738 C739 1.395 . S
C738 C740 1.391 . S
C739 C738 1.395 . S
C739 C742 1.390 . S
C740 C738 1.391 . S
C740 C744 1.387 . S
C740 C745 1.491 . S
H741 C742 0.950 . S
C742 C739 1.390 . S
C742 H741 0.950 . S
C742 C743 1.378 . S
C743 C742 1.378 . S
C743 C744 1.409 . S
C744 C740 1.387 . S
C744 C743 1.409 . S
C744 H746 0.951 . S
C745 C740 1.491 . S
C745 C747 1.382 . S
C745 C749 1.404 . S
H746 C744 0.951 . S
C747 C745 1.382 . S
C747 C748 1.390 . S
C747 H752 0.949 . S
C748 C747 1.390 . S
C748 C753 1.399 . S
C749 C745 1.404 . S
C749 H750 0.950 . S
C749 C751 1.375 . S
H750 C749 0.950 . S
C751 C749 1.375 . S
C751 C753 1.382 . S
C751 H755 0.950 . S
H752 C747 0.949 . S
C753 C748 1.399 . S
C753 C751 1.382 . S
C753 H754 0.952 . S
H754 C753 0.952 . S
H755 C751 0.950 . S
H756 C757 0.949 . S
C757 H756 0.949 . S
C757 C758 1.395 . S
C757 C759 1.391 . S
C758 C757 1.395 . S
C758 C761 1.390 . S
C759 C757 1.391 . S
C759 C763 1.387 . S
C759 C764 1.491 . S
H760 C761 0.950 . S
C761 C758 1.390 . S
C761 H760 0.950 . S
C761 C762 1.378 . S
C762 C761 1.378 . S
C762 C763 1.409 . S
C763 C759 1.387 . S
C763 C762 1.409 . S
C763 H765 0.951 . S
C764 C759 1.491 . S
C764 C766 1.382 . S
C764 C768 1.404 . S
H765 C763 0.951 . S
C766 C764 1.382 . S
C766 C767 1.390 . S
C766 H771 0.949 . S
C767 C766 1.390 . S
C767 C772 1.399 . S
C768 C764 1.404 . S
C768 H769 0.950 . S
C768 C770 1.375 . S
H769 C768 0.950 . S
C770 C768 1.375 . S
C770 C772 1.382 . S
C770 H774 0.950 . S
H771 C766 0.949 . S
C772 C767 1.399 . S
C772 C770 1.382 . S
C772 H773 0.952 . S
H773 C772 0.952 . S
H774 C770 0.950 . S
H775 C776 0.949 . S
C776 H775 0.949 . S
C776 C777 1.395 . S
C776 C778 1.391 . S
C777 C776 1.395 . S
C777 C780 1.390 . S
C778 C776 1.391 . S
C778 C782 1.387 . S
C778 C783 1.491 . S
H779 C780 0.950 . S
C780 C777 1.390 . S
C780 H779 0.950 . S
C780 C781 1.378 . S
C781 C780 1.378 . S
C781 C782 1.409 . S
C782 C778 1.387 . S
C782 C781 1.409 . S
C782 H784 0.951 . S
C783 C778 1.491 . S
C783 C785 1.382 . S
C783 C787 1.404 . S
H784 C782 0.951 . S
C785 C783 1.382 . S
C785 C786 1.390 . S
C785 H790 0.949 . S
C786 C785 1.390 . S
C786 C791 1.399 . S
C787 C783 1.404 . S
C787 H788 0.950 . S
C787 C789 1.375 . S
H788 C787 0.950 . S
C789 C787 1.375 . S
C789 C791 1.382 . S
C789 H793 0.950 . S
H790 C785 0.949 . S
C791 C786 1.399 . S
C791 C789 1.382 . S
C791 H792 0.952 . S
H792 C791 0.952 . S
H793 C789 0.950 . S
H794 C795 0.949 . S
C795 H794 0.949 . S
C795 C796 1.395 . S
C795 C797 1.391 . S
C796 C795 1.395 . S
C796 C799 1.390 . S
C797 C795 1.391 . S
C797 C801 1.387 . S
C797 C802 1.491 . S
H798 C799 0.950 . S
C799 C796 1.390 . S
C799 H798 0.950 . S
C799 C800 1.378 . S
C800 C799 1.378 . S
C800 C801 1.409 . S
C801 C797 1.387 . S
C801 C800 1.409 . S
C801 H803 0.951 . S
C802 C797 1.491 . S
C802 C804 1.382 . S
C802 C806 1.404 . S
H803 C801 0.951 . S
C804 C802 1.382 . S
C804 C805 1.390 . S
C804 H809 0.949 . S
C805 C804 1.390 . S
C805 C810 1.399 . S
C806 C802 1.404 . S
C806 H807 0.950 . S
C806 C808 1.375 . S
H807 C806 0.950 . S
C808 C806 1.375 . S
C808 C810 1.382 . S
C808 H812 0.950 . S
H809 C804 0.949 . S
C810 C805 1.399 . S
C810 C808 1.382 . S
C810 H811 0.952 . S
H811 C810 0.952 . S
H812 C808 0.950 . S
H813 C814 0.949 . S
C814 H813 0.949 . S
C814 C815 1.395 . S
C814 C816 1.391 . S
C815 C814 1.395 . S
C815 C818 1.390 . S
C816 C814 1.391 . S
C816 C820 1.387 . S
C816 C821 1.491 . S
H817 C818 0.950 . S
C818 C815 1.390 . S
C818 H817 0.950 . S
C818 C819 1.378 . S
C819 C818 1.378 . S
C819 C820 1.409 . S
C820 C816 1.387 . S
C820 C819 1.409 . S
C820 H822 0.951 . S
C821 C816 1.491 . S
C821 C823 1.382 . S
C821 C825 1.404 . S
H822 C820 0.951 . S
C823 C821 1.382 . S
C823 C824 1.390 . S
C823 H828 0.949 . S
C824 C823 1.390 . S
C824 C829 1.399 . S
C825 C821 1.404 . S
C825 H826 0.950 . S
C825 C827 1.375 . S
H826 C825 0.950 . S
C827 C825 1.375 . S
C827 C829 1.382 . S
C827 H831 0.950 . S
H828 C823 0.949 . S
C829 C824 1.399 . S
C829 C827 1.382 . S
C829 H830 0.952 . S
H830 C829 0.952 . S
H831 C827 0.950 . S
H832 C833 0.949 . S
C833 H832 0.949 . S
C833 C834 1.395 . S
C833 C835 1.391 . S
C834 C833 1.395 . S
C834 C837 1.390 . S
C835 C833 1.391 . S
C835 C839 1.387 . S
C835 C840 1.491 . S
H836 C837 0.950 . S
C837 C834 1.390 . S
C837 H836 0.950 . S
C837 C838 1.378 . S
C838 C837 1.378 . S
C838 C839 1.409 . S
C839 C835 1.387 . S
C839 C838 1.409 . S
C839 H841 0.951 . S
C840 C835 1.491 . S
C840 C842 1.382 . S
C840 C844 1.404 . S
H841 C839 0.951 . S
C842 C840 1.382 . S
C842 C843 1.390 . S
C842 H847 0.949 . S
C843 C842 1.390 . S
C843 C848 1.399 . S
C844 C840 1.404 . S
C844 H845 0.950 . S
C844 C846 1.375 . S
H845 C844 0.950 . S
C846 C844 1.375 . S
C846 C848 1.382 . S
C846 H850 0.950 . S
H847 C842 0.949 . S
C848 C843 1.399 . S
C848 C846 1.382 . S
C848 H849 0.952 . S
H849 C848 0.952 . S
H850 C846 0.950 . S
H851 C852 0.949 . S
C852 H851 0.949 . S
C852 C853 1.395 . S
C852 C854 1.391 . S
C853 C852 1.395 . S
C853 C856 1.390 . S
C854 C852 1.391 . S
C854 C858 1.387 . S
C854 C859 1.491 . S
H855 C856 0.950 . S
C856 C853 1.390 . S
C856 H855 0.950 . S
C856 C857 1.378 . S
C857 C856 1.378 . S
C857 C858 1.409 . S
C858 C854 1.387 . S
C858 C857 1.409 . S
C858 H860 0.951 . S
C859 C854 1.491 . S
C859 C861 1.382 . S
C859 C863 1.404 . S
H860 C858 0.951 . S
C861 C859 1.382 . S
C861 C862 1.390 . S
C861 H866 0.949 . S
C862 C861 1.390 . S
C862 C867 1.399 . S
C863 C859 1.404 . S
C863 H864 0.950 . S
C863 C865 1.375 . S
H864 C863 0.950 . S
C865 C863 1.375 . S
C865 C867 1.382 . S
C865 H869 0.950 . S
H866 C861 0.949 . S
C867 C862 1.399 . S
C867 C865 1.382 . S
C867 H868 0.952 . S
H868 C867 0.952 . S
H869 C865 0.950 . S
H870 C871 0.949 . S
C871 H870 0.949 . S
C871 C872 1.395 . S
C871 C873 1.391 . S
C872 C871 1.395 . S
C872 C875 1.390 . S
C873 C871 1.391 . S
C873 C877 1.387 . S
C873 C878 1.491 . S
H874 C875 0.950 . S
C875 C872 1.390 . S
C875 H874 0.950 . S
C875 C876 1.378 . S
C876 C875 1.378 . S
C876 C877 1.409 . S
C877 C873 1.387 . S
C877 C876 1.409 . S
C877 H879 0.951 . S
C878 C873 1.491 . S
C878 C880 1.382 . S
C878 C882 1.404 . S
H879 C877 0.951 . S
C880 C878 1.382 . S
C880 C881 1.390 . S
C880 H885 0.949 . S
C881 C880 1.390 . S
C881 C886 1.399 . S
C882 C878 1.404 . S
C882 H883 0.950 . S
C882 C884 1.375 . S
H883 C882 0.950 . S
C884 C882 1.375 . S
C884 C886 1.382 . S
C884 H888 0.950 . S
H885 C880 0.949 . S
C886 C881 1.399 . S
C886 C884 1.382 . S
C886 H887 0.952 . S
H887 C886 0.952 . S
H888 C884 0.950 . S
H889 C890 0.949 . S
C890 H889 0.949 . S
C890 C891 1.395 . S
C890 C892 1.391 . S
C891 C890 1.395 . S
C891 C894 1.390 . S
C892 C890 1.391 . S
C892 C896 1.387 . S
C892 C897 1.491 . S
H893 C894 0.950 . S
C894 C891 1.390 . S
C894 H893 0.950 . S
C894 C895 1.378 . S
C895 C894 1.378 . S
C895 C896 1.409 . S
C896 C892 1.387 . S
C896 C895 1.409 . S
C896 H898 0.951 . S
C897 C892 1.491 . S
C897 C899 1.382 . S
C897 C901 1.404 . S
H898 C896 0.951 . S
C899 C897 1.382 . S
C899 C900 1.390 . S
C899 H904 0.949 . S
C900 C899 1.390 . S
C900 C905 1.399 . S
C901 C897 1.404 . S
C901 H902 0.950 . S
C901 C903 1.375 . S
H902 C901 0.950 . S
C903 C901 1.375 . S
C903 C905 1.382 . S
C903 H907 0.950 . S
H904 C899 0.949 . S
C905 C900 1.399 . S
C905 C903 1.382 . S
C905 H906 0.952 . S
H906 C905 0.952 . S
H907 C903 0.950 . S
H908 C909 0.949 . S
C909 H908 0.949 . S
C909 C910 1.395 . S
C909 C911 1.391 . S
C910 C909 1.395 . S
C910 C913 1.390 . S
C911 C909 1.391 . S
C911 C915 1.387 . S
C911 C916 1.491 . S
H912 C913 0.950 . S
C913 C910 1.390 . S
C913 H912 0.950 . S
C913 C914 1.378 . S
C914 C913 1.378 . S
C914 C915 1.409 . S
C915 C911 1.387 . S
C915 C914 1.409 . S
C915 H917 0.951 . S
C916 C911 1.491 . S
C916 C918 1.382 . S
C916 C920 1.404 . S
H917 C915 0.951 . S
C918 C916 1.382 . S
C918 C919 1.390 . S
C918 H923 0.949 . S
C919 C918 1.390 . S
C919 C924 1.399 . S
C920 C916 1.404 . S
C920 H921 0.950 . S
C920 C922 1.375 . S
H921 C920 0.950 . S
C922 C920 1.375 . S
C922 C924 1.382 . S
C922 H926 0.950 . S
H923 C918 0.949 . S
C924 C919 1.399 . S
C924 C922 1.382 . S
C924 H925 0.952 . S
H925 C924 0.952 . S
H926 C922 0.950 . S
H927 C928 0.949 . S
C928 H927 0.949 . S
C928 C929 1.395 . S
C928 C930 1.391 . S
C929 C928 1.395 . S
C929 C932 1.390 . S
C930 C928 1.391 . S
C930 C934 1.387 . S
C930 C935 1.491 . S
H931 C932 0.950 . S
C932 C929 1.390 . S
C932 H931 0.950 . S
C932 C933 1.378 . S
C933 C932 1.378 . S
C933 C934 1.409 . S
C934 C930 1.387 . S
C934 C933 1.409 . S
C934 H936 0.951 . S
C935 C930 1.491 . S
C935 C937 1.382 . S
C935 C939 1.404 . S
H936 C934 0.951 . S
C937 C935 1.382 . S
C937 C938 1.390 . S
C937 H942 0.949 . S
C938 C937 1.390 . S
C938 C943 1.399 . S
C939 C935 1.404 . S
C939 H940 0.950 . S
C939 C941 1.375 . S
H940 C939 0.950 . S
C941 C939 1.375 . S
C941 C943 1.382 . S
C941 H945 0.950 . S
H942 C937 0.949 . S
C943 C938 1.399 . S
C943 C941 1.382 . S
C943 H944 0.952 . S
H944 C943 0.952 . S
H945 C941 0.950 . S
H946 C947 0.949 . S
C947 H946 0.949 . S
C947 C948 1.395 . S
C947 C949 1.391 . S
C948 C947 1.395 . S
C948 C951 1.390 . S
C949 C947 1.391 . S
C949 C953 1.387 . S
C949 C954 1.491 . S
H950 C951 0.950 . S
C951 C948 1.390 . S
C951 H950 0.950 . S
C951 C952 1.378 . S
C952 C951 1.378 . S
C952 C953 1.409 . S
C953 C949 1.387 . S
C953 C952 1.409 . S
C953 H955 0.951 . S
C954 C949 1.491 . S
C954 C956 1.382 . S
C954 C958 1.404 . S
H955 C953 0.951 . S
C956 C954 1.382 . S
C956 C957 1.390 . S
C956 H961 0.949 . S
C957 C956 1.390 . S
C957 C962 1.399 . S
C958 C954 1.404 . S
C958 H959 0.950 . S
C958 C960 1.375 . S
H959 C958 0.950 . S
C960 C958 1.375 . S
C960 C962 1.382 . S
C960 H964 0.950 . S
H961 C956 0.949 . S
C962 C957 1.399 . S
C962 C960 1.382 . S
C962 H963 0.952 . S
H963 C962 0.952 . S
H964 C960 0.950 . S
H965 C966 0.949 . S
C966 H965 0.949 . S
C966 C967 1.395 . S
C966 C968 1.391 . S
C967 C966 1.395 . S
C967 C970 1.390 . S
C968 C966 1.391 . S
C968 C972 1.387 . S
C968 C973 1.491 . S
H969 C970 0.950 . S
C970 C967 1.390 . S
C970 H969 0.950 . S
C970 C971 1.378 . S
C971 C970 1.378 . S
C971 C972 1.409 . S
C972 C968 1.387 . S
C972 C971 1.409 . S
C972 H974 0.951 . S
C973 C968 1.491 . S
C973 C975 1.382 . S
C973 C977 1.404 . S
H974 C972 0.951 . S
C975 C973 1.382 . S
C975 C976 1.390 . S
C975 H980 0.949 . S
C976 C975 1.390 . S
C976 C981 1.399 . S
C977 C973 1.404 . S
C977 H978 0.950 . S
C977 C979 1.375 . S
H978 C977 0.950 . S
C979 C977 1.375 . S
C979 C981 1.382 . S
C979 H983 0.950 . S
H980 C975 0.949 . S
C981 C976 1.399 . S
C981 C979 1.382 . S
C981 H982 0.952 . S
H982 C981 0.952 . S
H983 C979 0.950 . S
H984 C985 0.949 . S
C985 H984 0.949 . S
C985 C986 1.395 . S
C985 C987 1.391 . S
C986 C985 1.395 . S
C986 C989 1.390 . S
C987 C985 1.391 . S
C987 C991 1.387 . S
C987 C992 1.491 . S
H988 C989 0.950 . S
C989 C986 1.390 . S
C989 H988 0.950 . S
C989 C990 1.378 . S
C990 C989 1.378 . S
C990 C991 1.409 . S
C991 C987 1.387 . S
C991 C990 1.409 . S
C991 H993 0.951 . S
C992 C987 1.491 . S
C992 C994 1.382 . S
C992 C996 1.404 . S
H993 C991 0.951 . S
C994 C992 1.382 . S
C994 C995 1.390 . S
C994 H999 0.949 . S
C995 C994 1.390 . S
C995 C1000 1.399 . S
C996 C992 1.404 . S
C996 H997 0.950 . S
C996 C998 1.375 . S
H997 C996 0.950 . S
C998 C996 1.375 . S
C998 C1000 1.382 . S
C998 H1002 0.950 . S
H999 C994 0.949 . S
C1000 C995 1.399 . S
C1000 C998 1.382 . S
C1000 H1001 0.952 . S
H1001 C1000 0.952 . S
H1002 C998 0.950 . S
H1003 C1004 0.949 . S
C1004 H1003 0.949 . S
C1004 C1005 1.395 . S
C1004 C1006 1.391 . S
C1005 C1004 1.395 . S
C1005 C1008 1.390 . S
C1006 C1004 1.391 . S
C1006 C1010 1.387 . S
C1006 C1011 1.491 . S
H1007 C1008 0.950 . S
C1008 C1005 1.390 . S
C1008 H1007 0.950 . S
C1008 C1009 1.378 . S
C1009 C1008 1.378 . S
C1009 C1010 1.409 . S
C1010 C1006 1.387 . S
C1010 C1009 1.409 . S
C1010 H1012 0.951 . S
C1011 C1006 1.491 . S
C1011 C1013 1.382 . S
C1011 C1015 1.404 . S
H1012 C1010 0.951 . S
C1013 C1011 1.382 . S
C1013 C1014 1.390 . S
C1013 H1018 0.949 . S
C1014 C1013 1.390 . S
C1014 C1019 1.399 . S
C1015 C1011 1.404 . S
C1015 H1016 0.950 . S
C1015 C1017 1.375 . S
H1016 C1015 0.950 . S
C1017 C1015 1.375 . S
C1017 C1019 1.382 . S
C1017 H1021 0.950 . S
H1018 C1013 0.949 . S
C1019 C1014 1.399 . S
C1019 C1017 1.382 . S
C1019 H1020 0.952 . S
H1020 C1019 0.952 . S
H1021 C1017 0.950 . S
H1022 C1023 0.949 . S
C1023 H1022 0.949 . S
C1023 C1024 1.395 . S
C1023 C1025 1.391 . S
C1024 C1023 1.395 . S
C1024 C1027 1.390 . S
C1025 C1023 1.391 . S
C1025 C1029 1.387 . S
C1025 C1030 1.491 . S
H1026 C1027 0.950 . S
C1027 C1024 1.390 . S
C1027 H1026 0.950 . S
C1027 C1028 1.378 . S
C1028 C1027 1.378 . S
C1028 C1029 1.409 . S
C1029 C1025 1.387 . S
C1029 C1028 1.409 . S
C1029 H1031 0.951 . S
C1030 C1025 1.491 . S
C1030 C1032 1.382 . S
C1030 C1034 1.404 . S
H1031 C1029 0.951 . S
C1032 C1030 1.382 . S
C1032 C1033 1.390 . S
C1032 H1037 0.949 . S
C1033 C1032 1.390 . S
C1033 C1038 1.399 . S
C1034 C1030 1.404 . S
C1034 H1035 0.950 . S
C1034 C1036 1.375 . S
H1035 C1034 0.950 . S
C1036 C1034 1.375 . S
C1036 C1038 1.382 . S
C1036 H1040 0.950 . S
H1037 C1032 0.949 . S
C1038 C1033 1.399 . S
C1038 C1036 1.382 . S
C1038 H1039 0.952 . S
H1039 C1038 0.952 . S
H1040 C1036 0.950 . S
H1041 C1042 0.949 . S
C1042 H1041 0.949 . S
C1042 C1043 1.395 . S
C1042 C1044 1.391 . S
C1043 C1042 1.395 . S
C1043 C1046 1.390 . S
C1044 C1042 1.391 . S
C1044 C1048 1.387 . S
C1044 C1049 1.491 . S
H1045 C1046 0.950 . S
C1046 C1043 1.390 . S
C1046 H1045 0.950 . S
C1046 C1047 1.378 . S
C1047 C1046 1.378 . S
C1047 C1048 1.409 . S
C1048 C1044 1.387 . S
C1048 C1047 1.409 . S
C1048 H1050 0.951 . S
C1049 C1044 1.491 . S
C1049 C1051 1.382 . S
C1049 C1053 1.404 . S
H1050 C1048 0.951 . S
C1051 C1049 1.382 . S
C1051 C1052 1.390 . S
C1051 H1056 0.949 . S
C1052 C1051 1.390 . S
C1052 C1057 1.399 . S
C1053 C1049 1.404 . S
C1053 H1054 0.950 . S
C1053 C1055 1.375 . S
H1054 C1053 0.950 . S
C1055 C1053 1.375 . S
C1055 C1057 1.382 . S
C1055 H1059 0.950 . S
H1056 C1051 0.949 . S
C1057 C1052 1.399 . S
C1057 C1055 1.382 . S
C1057 H1058 0.952 . S
H1058 C1057 0.952 . S
H1059 C1055 0.950 . S
H1060 C1061 0.949 . S
C1061 H1060 0.949 . S
C1061 C1062 1.395 . S
C1061 C1063 1.391 . S
C1062 C1061 1.395 . S
C1062 C1065 1.390 . S
C1063 C1061 1.391 . S
C1063 C1067 1.387 . S
C1063 C1068 1.491 . S
H1064 C1065 0.950 . S
C1065 C1062 1.390 . S
C1065 H1064 0.950 . S
C1065 C1066 1.378 . S
C1066 C1065 1.378 . S
C1066 C1067 1.409 . S
C1067 C1063 1.387 . S
C1067 C1066 1.409 . S
C1067 H1069 0.951 . S
C1068 C1063 1.491 . S
C1068 C1070 1.382 . S
C1068 C1072 1.404 . S
H1069 C1067 0.951 . S
C1070 C1068 1.382 . S
C1070 C1071 1.390 . S
C1070 H1075 0.949 . S
C1071 C1070 1.390 . S
C1071 C1076 1.399 . S
C1072 C1068 1.404 . S
C1072 H1073 0.950 . S
C1072 C1074 1.375 . S
H1073 C1072 0.950 . S
C1074 C1072 1.375 . S
C1074 C1076 1.382 . S
C1074 H1078 0.950 . S
H1075 C1070 0.949 . S
C1076 C1071 1.399 . S
C1076 C1074 1.382 . S
C1076 H1077 0.952 . S
H1077 C1076 0.952 . S
H1078 C1074 0.950 . S
H1079 C1080 0.949 . S
C1080 H1079 0.949 . S
C1080 C1081 1.395 . S
C1080 C1082 1.391 . S
C1081 C1080 1.395 . S
C1081 C1084 1.390 . S
C1082 C1080 1.391 . S
C1082 C1086 1.387 . S
C1082 C1087 1.491 . S
H1083 C1084 0.950 . S
C1084 C1081 1.390 . S
C1084 H1083 0.950 . S
C1084 C1085 1.378 . S
C1085 C1084 1.378 . S
C1085 C1086 1.409 . S
C1086 C1082 1.387 . S
C1086 C1085 1.409 . S
C1086 H1088 0.951 . S
C1087 C1082 1.491 . S
C1087 C1089 1.382 . S
C1087 C1091 1.404 . S
H1088 C1086 0.951 . S
C1089 C1087 1.382 . S
C1089 C1090 1.390 . S
C1089 H1094 0.949 . S
C1090 C1089 1.390 . S
C1090 C1095 1.399 . S
C1091 C1087 1.404 . S
C1091 H1092 0.950 . S
C1091 C1093 1.375 . S
H1092 C1091 0.950 . S
C1093 C1091 1.375 . S
C1093 C1095 1.382 . S
C1093 H1097 0.950 . S
H1094 C1089 0.949 . S
C1095 C1090 1.399 . S
C1095 C1093 1.382 . S
C1095 H1096 0.952 . S
H1096 C1095 0.952 . S
H1097 C1093 0.950 . S
H1098 C1099 0.949 . S
C1099 H1098 0.949 . S
C1099 C1100 1.395 . S
C1099 C1101 1.391 . S
C1100 C1099 1.395 . S
C1100 C1103 1.390 . S
C1101 C1099 1.391 . S
C1101 C1105 1.387 . S
C1101 C1106 1.491 . S
H1102 C1103 0.950 . S
C1103 C1100 1.390 . S
C1103 H1102 0.950 . S
C1103 C1104 1.378 . S
C1104 C1103 1.378 . S
C1104 C1105 1.409 . S
C1105 C1101 1.387 . S
C1105 C1104 1.409 . S
C1105 H1107 0.951 . S
C1106 C1101 1.491 . S
C1106 C1108 1.382 . S
C1106 C1110 1.404 . S
H1107 C1105 0.951 . S
C1108 C1106 1.382 . S
C1108 C1109 1.390 . S
C1108 H1113 0.949 . S
C1109 C1108 1.390 . S
C1109 C1114 1.399 . S
C1110 C1106 1.404 . S
C1110 H1111 0.950 . S
C1110 C1112 1.375 . S
H1111 C1110 0.950 . S
C1112 C1110 1.375 . S
C1112 C1114 1.382 . S
C1112 H1116 0.950 . S
H1113 C1108 0.949 . S
C1114 C1109 1.399 . S
C1114 C1112 1.382 . S
C1114 H1115 0.952 . S
H1115 C1114 0.952 . S
H1116 C1112 0.950 . S
H1117 C1118 0.949 . S
C1118 H1117 0.949 . S
C1118 C1119 1.395 . S
C1118 C1120 1.391 . S
C1119 C1118 1.395 . S
C1119 C1122 1.390 . S
C1120 C1118 1.391 . S
C1120 C1124 1.387 . S
C1120 C1125 1.491 . S
H1121 C1122 0.950 . S
C1122 C1119 1.390 . S
C1122 H1121 0.950 . S
C1122 C1123 1.378 . S
C1123 C1122 1.378 . S
C1123 C1124 1.409 . S
C1124 C1120 1.387 . S
C1124 C1123 1.409 . S
C1124 H1126 0.951 . S
C1125 C1120 1.491 . S
C1125 C1127 1.382 . S
C1125 C1129 1.404 . S
H1126 C1124 0.951 . S
C1127 C1125 1.382 . S
C1127 C1128 1.390 . S
C1127 H1132 0.949 . S
C1128 C1127 1.390 . S
C1128 C1133 1.399 . S
C1129 C1125 1.404 . S
C1129 H1130 0.950 . S
C1129 C1131 1.375 . S
H1130 C1129 0.950 . S
C1131 C1129 1.375 . S
C1131 C1133 1.382 . S
C1131 H1135 0.950 . S
H1132 C1127 0.949 . S
C1133 C1128 1.399 . S
C1133 C1131 1.382 . S
C1133 H1134 0.952 . S
H1134 C1133 0.952 . S
H1135 C1131 0.950 . S
H1136 C1137 0.949 . S
C1137 H1136 0.949 . S
C1137 C1138 1.395 . S
C1137 C1139 1.391 . S
C1138 C1137 1.395 . S
C1138 C1141 1.390 . S
C1139 C1137 1.391 . S
C1139 C1143 1.387 . S
C1139 C1144 1.491 . S
H1140 C1141 0.950 . S
C1141 C1138 1.390 . S
C1141 H1140 0.950 . S
C1141 C1142 1.378 . S
C1142 C1141 1.378 . S
C1142 C1143 1.409 . S
C1143 C1139 1.387 . S
C1143 C1142 1.409 . S
C1143 H1145 0.951 . S
C1144 C1139 1.491 . S
C1144 C1146 1.382 . S
C1144 C1148 1.404 . S
H1145 C1143 0.951 . S
C1146 C1144 1.382 . S
C1146 C1147 1.390 . S
C1146 H1151 0.949 . S
C1147 C1146 1.390 . S
C1147 C1152 1.399 . S
C1148 C1144 1.404 . S
C1148 H1149 0.950 . S
C1148 C1150 1.375 . S
H1149 C1148 0.950 . S
C1150 C1148 1.375 . S
C1150 C1152 1.382 . S
C1150 H1154 0.950 . S
H1151 C1146 0.949 . S
C1152 C1147 1.399 . S
C1152 C1150 1.382 . S
C1152 H1153 0.952 . S
H1153 C1152 0.952 . S
H1154 C1150 0.950 . S
H1155 C1156 0.949 . S
C1156 H1155 0.949 . S
C1156 C1157 1.395 . S
C1156 C1158 1.391 . S
C1157 C1156 1.395 . S
C1157 C1160 1.390 . S
C1158 C1156 1.391 . S
C1158 C1162 1.387 . S
C1158 C1163 1.491 . S
H1159 C1160 0.950 . S
C1160 C1157 1.390 . S
C1160 H1159 0.950 . S
C1160 C1161 1.378 . S
C1161 C1160 1.378 . S
C1161 C1162 1.409 . S
C1162 C1158 1.387 . S
C1162 C1161 1.409 . S
C1162 H1164 0.951 . S
C1163 C1158 1.491 . S
C1163 C1165 1.382 . S
C1163 C1167 1.404 . S
H1164 C1162 0.951 . S
C1165 C1163 1.382 . S
C1165 C1166 1.390 . S
C1165 H1170 0.949 . S
C1166 C1165 1.390 . S
C1166 C1171 1.399 . S
C1167 C1163 1.404 . S
C1167 H1168 0.950 . S
C1167 C1169 1.375 . S
H1168 C1167 0.950 . S
C1169 C1167 1.375 . S
C1169 C1171 1.382 . S
C1169 H1173 0.950 . S
H1170 C1165 0.949 . S
C1171 C1166 1.399 . S
C1171 C1169 1.382 . S
C1171 H1172 0.952 . S
H1172 C1171 0.952 . S
H1173 C1169 0.950 . S
H1174 C1175 0.949 . S
C1175 H1174 0.949 . S
C1175 C1176 1.395 . S
C1175 C1177 1.391 . S
C1176 C1175 1.395 . S
C1176 C1179 1.390 . S
C1177 C1175 1.391 . S
C1177 C1181 1.387 . S
C1177 C1182 1.491 . S
H1178 C1179 0.950 . S
C1179 C1176 1.390 . S
C1179 H1178 0.950 . S
C1179 C1180 1.378 . S
C1180 C1179 1.378 . S
C1180 C1181 1.409 . S
C1181 C1177 1.387 . S
C1181 C1180 1.409 . S
C1181 H1183 0.951 . S
C1182 C1177 1.491 . S
C1182 C1184 1.382 . S
C1182 C1186 1.404 . S
H1183 C1181 0.951 . S
C1184 C1182 1.382 . S
C1184 C1185 1.390 . S
C1184 H1189 0.949 . S
C1185 C1184 1.390 . S
C1185 C1190 1.399 . S
C1186 C1182 1.404 . S
C1186 H1187 0.950 . S
C1186 C1188 1.375 . S
H1187 C1186 0.950 . S
C1188 C1186 1.375 . S
C1188 C1190 1.382 . S
C1188 H1192 0.950 . S
H1189 C1184 0.949 . S
C1190 C1185 1.399 . S
C1190 C1188 1.382 . S
C1190 H1191 0.952 . S
H1191 C1190 0.952 . S
H1192 C1188 0.950 . S
H1193 C1194 0.949 . S
C1194 H1193 0.949 . S
C1194 C1195 1.395 . S
C1194 C1196 1.391 . S
C1195 C1194 1.395 . S
C1195 C1198 1.390 . S
C1196 C1194 1.391 . S
C1196 C1200 1.387 . S
C1196 C1201 1.491 . S
H1197 C1198 0.950 . S
C1198 C1195 1.390 . S
C1198 H1197 0.950 . S
C1198 C1199 1.378 . S
C1199 C1198 1.378 . S
C1199 C1200 1.409 . S
C1200 C1196 1.387 . S
C1200 C1199 1.409 . S
C1200 H1202 0.951 . S
C1201 C1196 1.491 . S
C1201 C1203 1.382 . S
C1201 C1205 1.404 . S
H1202 C1200 0.951 . S
C1203 C1201 1.382 . S
C1203 C1204 1.390 . S
C1203 H1208 0.949 . S
C1204 C1203 1.390 . S
C1204 C1209 1.399 . S
C1205 C1201 1.404 . S
C1205 H1206 0.950 . S
C1205 C1207 1.375 . S
H1206 C1205 0.950 . S
C1207 C1205 1.375 . S
C1207 C1209 1.382 . S
C1207 H1211 0.950 . S
H1208 C1203 0.949 . S
C1209 C1204 1.399 . S
C1209 C1207 1.382 . S
C1209 H1210 0.952 . S
H1210 C1209 0.952 . S
H1211 C1207 0.950 . S
H1212 C1213 0.949 . S
C1213 H1212 0.949 . S
C1213 C1214 1.395 . S
C1213 C1215 1.391 . S
C1214 C1213 1.395 . S
C1214 C1217 1.390 . S
C1215 C1213 1.391 . S
C1215 C1219 1.387 . S
C1215 C1220 1.491 . S
H1216 C1217 0.950 . S
C1217 C1214 1.390 . S
C1217 H1216 0.950 . S
C1217 C1218 1.378 . S
C1218 C1217 1.378 . S
C1218 C1219 1.409 . S
C1219 C1215 1.387 . S
C1219 C1218 1.409 . S
C1219 H1221 0.951 . S
C1220 C1215 1.491 . S
C1220 C1222 1.382 . S
C1220 C1224 1.404 . S
H1221 C1219 0.951 . S
C1222 C1220 1.382 . S
C1222 C1223 1.390 . S
C1222 H1227 0.949 . S
C1223 C1222 1.390 . S
C1223 C1228 1.399 . S
C1224 C1220 1.404 . S
C1224 H1225 0.950 . S
C1224 C1226 1.375 . S
H1225 C1224 0.950 . S
C1226 C1224 1.375 . S
C1226 C1228 1.382 . S
C1226 H1230 0.950 . S
H1227 C1222 0.949 . S
C1228 C1223 1.399 . S
C1228 C1226 1.382 . S
C1228 H1229 0.952 . S
H1229 C1228 0.952 . S
H1230 C1226 0.950 . S
H1231 C1232 0.949 . S
C1232 H1231 0.949 . S
C1232 C1233 1.395 . S
C1232 C1234 1.391 . S
C1233 C1232 1.395 . S
C1233 C1236 1.390 . S
C1234 C1232 1.391 . S
C1234 C1238 1.387 . S
C1234 C1239 1.491 . S
H1235 C1236 0.950 . S
C1236 C1233 1.390 . S
C1236 H1235 0.950 . S
C1236 C1237 1.378 . S
C1237 C1236 1.378 . S
C1237 C1238 1.409 . S
C1238 C1234 1.387 . S
C1238 C1237 1.409 . S
C1238 H1240 0.951 . S
C1239 C1234 1.491 . S
C1239 C1241 1.382 . S
C1239 C1243 1.404 . S
H1240 C1238 0.951 . S
C1241 C1239 1.382 . S
C1241 C1242 1.390 . S
C1241 H1246 0.949 . S
C1242 C1241 1.390 . S
C1242 C1247 1.399 . S
C1243 C1239 1.404 . S
C1243 H1244 0.950 . S
C1243 C1245 1.375 . S
H1244 C1243 0.950 . S
C1245 C1243 1.375 . S
C1245 C1247 1.382 . S
C1245 H1249 0.950 . S
H1246 C1241 0.949 . S
C1247 C1242 1.399 . S
C1247 C1245 1.382 . S
C1247 H1248 0.952 . S
H1248 C1247 0.952 . S
H1249 C1245 0.950 . S
H1250 C1251 0.949 . S
C1251 H1250 0.949 . S
C1251 C1252 1.395 . S
C1251 C1253 1.391 . S
C1252 C1251 1.395 . S
C1252 C1255 1.390 . S
C1253 C1251 1.391 . S
C1253 C1257 1.387 . S
C1253 C1258 1.491 . S
H1254 C1255 0.950 . S
C1255 C1252 1.390 . S
C1255 H1254 0.950 . S
C1255 C1256 1.378 . S
C1256 C1255 1.378 . S
C1256 C1257 1.409 . S
C1257 C1253 1.387 . S
C1257 C1256 1.409 . S
C1257 H1259 0.951 . S
C1258 C1253 1.491 . S
C1258 C1260 1.382 . S
C1258 C1262 1.404 . S
H1259 C1257 0.951 . S
C1260 C1258 1.382 . S
C1260 C1261 1.390 . S
C1260 H1265 0.949 . S
C1261 C1260 1.390 . S
C1261 C1266 1.399 . S
C1262 C1258 1.404 . S
C1262 H1263 0.950 . S
C1262 C1264 1.375 . S
H1263 C1262 0.950 . S
C1264 C1262 1.375 . S
C1264 C1266 1.382 . S
C1264 H1268 0.950 . S
H1265 C1260 0.949 . S
C1266 C1261 1.399 . S
C1266 C1264 1.382 . S
C1266 H1267 0.952 . S
H1267 C1266 0.952 . S
H1268 C1264 0.950 . S
H1269 C1270 0.949 . S
C1270 H1269 0.949 . S
C1270 C1271 1.395 . S
C1270 C1272 1.391 . S
C1271 C1270 1.395 . S
C1271 C1274 1.390 . S
C1272 C1270 1.391 . S
C1272 C1276 1.387 . S
C1272 C1277 1.491 . S
H1273 C1274 0.950 . S
C1274 C1271 1.390 . S
C1274 H1273 0.950 . S
C1274 C1275 1.378 . S
C1275 C1274 1.378 . S
C1275 C1276 1.409 . S
C1276 C1272 1.387 . S
C1276 C1275 1.409 . S
C1276 H1278 0.951 . S
C1277 C1272 1.491 . S
C1277 C1279 1.382 . S
C1277 C1281 1.404 . S
H1278 C1276 0.951 . S
C1279 C1277 1.382 . S
C1279 C1280 1.390 . S
C1279 H1284 0.949 . S
C1280 C1279 1.390 . S
C1280 C1285 1.399 . S
C1281 C1277 1.404 . S
C1281 H1282 0.950 . S
C1281 C1283 1.375 . S
H1282 C1281 0.950 . S
C1283 C1281 1.375 . S
C1283 C1285 1.382 . S
C1283 H1287 0.950 . S
H1284 C1279 0.949 . S
C1285 C1280 1.399 . S
C1285 C1283 1.382 . S
C1285 H1286 0.952 . S
H1286 C1285 0.952 . S
H1287 C1283 0.950 . S
H1288 C1289 0.949 . S
C1289 H1288 0.949 . S
C1289 C1290 1.395 . S
C1289 C1291 1.391 . S
C1290 C1289 1.395 . S
C1290 C1293 1.390 . S
C1291 C1289 1.391 . S
C1291 C1295 1.387 . S
C1291 C1296 1.491 . S
H1292 C1293 0.950 . S
C1293 C1290 1.390 . S
C1293 H1292 0.950 . S
C1293 C1294 1.378 . S
C1294 C1293 1.378 . S
C1294 C1295 1.409 . S
C1295 C1291 1.387 . S
C1295 C1294 1.409 . S
C1295 H1297 0.951 . S
C1296 C1291 1.491 . S
C1296 C1298 1.382 . S
C1296 C1300 1.404 . S
H1297 C1295 0.951 . S
C1298 C1296 1.382 . S
C1298 C1299 1.390 . S
C1298 H1303 0.949 . S
C1299 C1298 1.390 . S
C1299 C1304 1.399 . S
C1300 C1296 1.404 . S
C1300 H1301 0.950 . S
C1300 C1302 1.375 . S
H1301 C1300 0.950 . S
C1302 C1300 1.375 . S
C1302 C1304 1.382 . S
C1302 H1306 0.950 . S
H1303 C1298 0.949 . S
C1304 C1299 1.399 . S
C1304 C1302 1.382 . S
C1304 H1305 0.952 . S
H1305 C1304 0.952 . S
H1306 C1302 0.950 . S
H1307 C1308 0.949 . S
C1308 H1307 0.949 . S
C1308 C1309 1.395 . S
C1308 C1310 1.391 . S
C1309 C1308 1.395 . S
C1309 C1312 1.390 . S
C1310 C1308 1.391 . S
C1310 C1314 1.387 . S
C1310 C1315 1.491 . S
H1311 C1312 0.950 . S
C1312 C1309 1.390 . S
C1312 H1311 0.950 . S
C1312 C1313 1.378 . S
C1313 C1312 1.378 . S
C1313 C1314 1.409 . S
C1314 C1310 1.387 . S
C1314 C1313 1.409 . S
C1314 H1316 0.951 . S
C1315 C1310 1.491 . S
C1315 C1317 1.382 . S
C1315 C1319 1.404 . S
H1316 C1314 0.951 . S
C1317 C1315 1.382 . S
C1317 C1318 1.390 . S
C1317 H1322 0.949 . S
C1318 C1317 1.390 . S
C1318 C1323 1.399 . S
C1319 C1315 1.404 . S
C1319 H1320 0.950 . S
C1319 C1321 1.375 . S
H1320 C1319 0.950 . S
C1321 C1319 1.375 . S
C1321 C1323 1.382 . S
C1321 H1325 0.950 . S
H1322 C1317 0.949 . S
C1323 C1318 1.399 . S
C1323 C1321 1.382 . S
C1323 H1324 0.952 . S
H1324 C1323 0.952 . S
H1325 C1321 0.950 . S
H1326 C1327 0.949 . S
C1327 H1326 0.949 . S
C1327 C1328 1.395 . S
C1327 C1329 1.391 . S
C1328 C1327 1.395 . S
C1328 C1331 1.390 . S
C1329 C1327 1.391 . S
C1329 C1333 1.387 . S
C1329 C1334 1.491 . S
H1330 C1331 0.950 . S
C1331 C1328 1.390 . S
C1331 H1330 0.950 . S
C1331 C1332 1.378 . S
C1332 C1331 1.378 . S
C1332 C1333 1.409 . S
C1333 C1329 1.387 . S
C1333 C1332 1.409 . S
C1333 H1335 0.951 . S
C1334 C1329 1.491 . S
C1334 C1336 1.382 . S
C1334 C1338 1.404 . S
H1335 C1333 0.951 . S
C1336 C1334 1.382 . S
C1336 C1337 1.390 . S
C1336 H1341 0.949 . S
C1337 C1336 1.390 . S
C1337 C1342 1.399 . S
C1338 C1334 1.404 . S
C1338 H1339 0.950 . S
C1338 C1340 1.375 . S
H1339 C1338 0.950 . S
C1340 C1338 1.375 . S
C1340 C1342 1.382 . S
C1340 H1344 0.950 . S
H1341 C1336 0.949 . S
C1342 C1337 1.399 . S
C1342 C1340 1.382 . S
C1342 H1343 0.952 . S
H1343 C1342 0.952 . S
H1344 C1340 0.950 . S
H1345 C1346 0.949 . S
C1346 H1345 0.949 . S
C1346 C1347 1.395 . S
C1346 C1348 1.391 . S
C1347 C1346 1.395 . S
C1347 C1350 1.390 . S
C1348 C1346 1.391 . S
C1348 C1352 1.387 . S
C1348 C1353 1.491 . S
H1349 C1350 0.950 . S
C1350 C1347 1.390 . S
C1350 H1349 0.950 . S
C1350 C1351 1.378 . S
C1351 C1350 1.378 . S
C1351 C1352 1.409 . S
C1352 C1348 1.387 . S
C1352 C1351 1.409 . S
C1352 H1354 0.951 . S
C1353 C1348 1.491 . S
C1353 C1355 1.382 . S
C1353 C1357 1.404 . S
H1354 C1352 0.951 . S
C1355 C1353 1.382 . S
C1355 C1356 1.390 . S
C1355 H1360 0.949 . S
C1356 C1355 1.390 . S
C1356 C1361 1.399 . S
C1357 C1353 1.404 . S
C1357 H1358 0.950 . S
C1357 C1359 1.375 . S
H1358 C1357 0.950 . S
C1359 C1357 1.375 . S
C1359 C1361 1.382 . S
C1359 H1363 0.950 . S
H1360 C1355 0.949 . S
C1361 C1356 1.399 . S
C1361 C1359 1.382 . S
C1361 H1362 0.952 . S
H1362 C1361 0.952 . S
H1363 C1359 0.950 . S
H1364 C1365 0.949 . S
C1365 H1364 0.949 . S
C1365 C1366 1.395 . S
C1365 C1367 1.391 . S
C1366 C1365 1.395 . S
C1366 C1369 1.390 . S
C1367 C1365 1.391 . S
C1367 C1371 1.387 . S
C1367 C1372 1.491 . S
H1368 C1369 0.950 . S
C1369 C1366 1.390 . S
C1369 H1368 0.950 . S
C1369 C1370 1.378 . S
C1370 C1369 1.378 . S
C1370 C1371 1.409 . S
C1371 C1367 1.387 . S
C1371 C1370 1.409 . S
C1371 H1373 0.951 . S
C1372 C1367 1.491 . S
C1372 C1374 1.382 . S
C1372 C1376 1.404 . S
H1373 C1371 0.951 . S
C1374 C1372 1.382 . S
C1374 C1375 1.390 . S
C1374 H1379 0.949 . S
C1375 C1374 1.390 . S
C1375 C1380 1.399 . S
C1376 C1372 1.404 . S
C1376 H1377 0.950 . S
C1376 C1378 1.375 . S
H1377 C1376 0.950 . S
C1378 C1376 1.375 . S
C1378 C1380 1.382 . S
C1378 H1382 0.950 . S
H1379 C1374 0.949 . S
C1380 C1375 1.399 . S
C1380 C1378 1.382 . S
C1380 H1381 0.952 . S
H1381 C1380 0.952 . S
H1382 C1378 0.950 . S
H1383 C1384 0.949 . S
C1384 H1383 0.949 . S
C1384 C1385 1.395 . S
C1384 C1386 1.391 . S
C1385 C1384 1.395 . S
C1385 C1388 1.390 . S
C1386 C1384 1.391 . S
C1386 C1390 1.387 . S
C1386 C1391 1.491 . S
H1387 C1388 0.950 . S
C1388 C1385 1.390 . S
C1388 H1387 0.950 . S
C1388 C1389 1.378 . S
C1389 C1388 1.378 . S
C1389 C1390 1.409 . S
C1390 C1386 1.387 . S
C1390 C1389 1.409 . S
C1390 H1392 0.951 . S
C1391 C1386 1.491 . S
C1391 C1393 1.382 . S
C1391 C1395 1.404 . S
H1392 C1390 0.951 . S
C1393 C1391 1.382 . S
C1393 C1394 1.390 . S
C1393 H1398 0.949 . S
C1394 C1393 1.390 . S
C1394 C1399 1.399 . S
C1395 C1391 1.404 . S
C1395 H1396 0.950 . S
C1395 C1397 1.375 . S
H1396 C1395 0.950 . S
C1397 C1395 1.375 . S
C1397 C1399 1.382 . S
C1397 H1401 0.950 . S
H1398 C1393 0.949 . S
C1399 C1394 1.399 . S
C1399 C1397 1.382 . S
C1399 H1400 0.952 . S
H1400 C1399 0.952 . S
H1401 C1397 0.950 . S
H1402 C1403 0.949 . S
C1403 H1402 0.949 . S
C1403 C1404 1.395 . S
C1403 C1405 1.391 . S
C1404 C1403 1.395 . S
C1404 C1407 1.390 . S
C1405 C1403 1.391 . S
C1405 C1409 1.387 . S
C1405 C1410 1.491 . S
H1406 C1407 0.950 . S
C1407 C1404 1.390 . S
C1407 H1406 0.950 . S
C1407 C1408 1.378 . S
C1408 C1407 1.378 . S
C1408 C1409 1.409 . S
C1409 C1405 1.387 . S
C1409 C1408 1.409 . S
C1409 H1411 0.951 . S
C1410 C1405 1.491 . S
C1410 C1412 1.382 . S
C1410 C1414 1.404 . S
H1411 C1409 0.951 . S
C1412 C1410 1.382 . S
C1412 C1413 1.390 . S
C1412 H1417 0.949 . S
C1413 C1412 1.390 . S
C1413 C1418 1.399 . S
C1414 C1410 1.404 . S
C1414 H1415 0.950 . S
C1414 C1416 1.375 . S
H1415 C1414 0.950 . S
C1416 C1414 1.375 . S
C1416 C1418 1.382 . S
C1416 H1420 0.950 . S
H1417 C1412 0.949 . S
C1418 C1413 1.399 . S
C1418 C1416 1.382 . S
C1418 H1419 0.952 . S
H1419 C1418 0.952 . S
H1420 C1416 0.950 . S
H1421 C1422 0.949 . S
C1422 H1421 0.949 . S
C1422 C1423 1.395 . S
C1422 C1424 1.391 . S
C1423 C1422 1.395 . S
C1423 C1426 1.390 . S
C1424 C1422 1.391 . S
C1424 C1428 1.387 . S
C1424 C1429 1.491 . S
H1425 C1426 0.950 . S
C1426 C1423 1.390 . S
C1426 H1425 0.950 . S
C1426 C1427 1.378 . S
C1427 C1426 1.378 . S
C1427 C1428 1.409 . S
C1428 C1424 1.387 . S
C1428 C1427 1.409 . S
C1428 H1430 0.951 . S
C1429 C1424 1.491 . S
C1429 C1431 1.382 . S
C1429 C1433 1.404 . S
H1430 C1428 0.951 . S
C1431 C1429 1.382 . S
C1431 C1432 1.390 . S
C1431 H1436 0.949 . S
C1432 C1431 1.390 . S
C1432 C1437 1.399 . S
C1433 C1429 1.404 . S
C1433 H1434 0.950 . S
C1433 C1435 1.375 . S
H1434 C1433 0.950 . S
C1435 C1433 1.375 . S
C1435 C1437 1.382 . S
C1435 H1439 0.950 . S
H1436 C1431 0.949 . S
C1437 C1432 1.399 . S
C1437 C1435 1.382 . S
C1437 H1438 0.952 . S
H1438 C1437 0.952 . S
H1439 C1435 0.950 . S
H1440 C1446 0.930 . S
H1441 C1450 0.930 . S
H1442 C1455 0.929 . S
H1443 C1453 0.929 . S
H1444 C1448 0.929 . S
H1445 C1454 0.929 . S
C1446 H1440 0.930 . S
C1446 C1447 1.367 . S
C1446 C1454 1.378 . S
C1447 C1446 1.367 . S
C1447 C1455 1.433 . S
C1448 H1444 0.929 . S
C1448 C1450 1.378 . S
C1448 C1452 1.350 . S
C1449 C1452 1.463 . S
C1449 C1454 1.350 . S
C1449 N1457 1.427 . S
C1450 H1441 0.930 . S
C1450 C1448 1.378 . S
C1450 C1451 1.367 . S
C1451 C1450 1.367 . S
C1451 C1453 1.433 . S
C1452 C1448 1.350 . S
C1452 C1449 1.463 . S
C1452 N1456 1.427 . S
C1453 H1443 0.929 . S
C1453 C1451 1.433 . S
C1453 N1456 1.384 . S
C1454 H1445 0.929 . S
C1454 C1446 1.378 . S
C1454 C1449 1.350 . S
C1455 H1442 0.929 . S
C1455 C1447 1.433 . S
C1455 N1457 1.384 . S
N1456 C1452 1.427 . S
N1456 C1453 1.384 . S
N1457 C1449 1.427 . S
N1457 C1455 1.384 . S
H1458 C1464 0.930 . S
H1459 C1468 0.930 . S
H1460 C1473 0.929 . S
H1461 C1471 0.929 . S
H1462 C1466 0.929 . S
H1463 C1472 0.929 . S
C1464 H1458 0.930 . S
C1464 C1465 1.367 . S
C1464 C1472 1.378 . S
C1465 C1464 1.367 . S
C1465 C1473 1.433 . S
C1466 H1462 0.929 . S
C1466 C1468 1.378 . S
C1466 C1470 1.350 . S
C1467 C1470 1.463 . S
C1467 C1472 1.350 . S
C1467 N1475 1.427 . S
C1468 H1459 0.930 . S
C1468 C1466 1.378 . S
C1468 C1469 1.367 . S
C1469 C1468 1.367 . S
C1469 C1471 1.433 . S
C1470 C1466 1.350 . S
C1470 C1467 1.463 . S
C1470 N1474 1.427 . S
C1471 H1461 0.929 . S
C1471 C1469 1.433 . S
C1471 N1474 1.384 . S
C1472 H1463 0.929 . S
C1472 C1464 1.378 . S
C1472 C1467 1.350 . S
C1473 H1460 0.929 . S
C1473 C1465 1.433 . S
C1473 N1475 1.384 . S
N1474 C1470 1.427 . S
N1474 C1471 1.384 . S
N1475 C1467 1.427 . S
N1475 C1473 1.384 . S
H1476 C1482 0.930 . S
H1477 C1486 0.930 . S
H1478 C1491 0.929 . S
H1479 C1489 0.929 . S
H1480 C1484 0.929 . S
H1481 C1490 0.929 . S
C1482 H1476 0.930 . S
C1482 C1483 1.367 . S
C1482 C1490 1.378 . S
C1483 C1482 1.367 . S
C1483 C1491 1.433 . S
C1484 H1480 0.929 . S
C1484 C1486 1.378 . S
C1484 C1488 1.350 . S
C1485 C1488 1.463 . S
C1485 C1490 1.350 . S
C1485 N1493 1.427 . S
C1486 H1477 0.930 . S
C1486 C1484 1.378 . S
C1486 C1487 1.367 . S
C1487 C1486 1.367 . S
C1487 C1489 1.433 . S
C1488 C1484 1.350 . S
C1488 C1485 1.463 . S
C1488 N1492 1.427 . S
C1489 H1479 0.929 . S
C1489 C1487 1.433 . S
C1489 N1492 1.384 . S
C1490 H1481 0.929 . S
C1490 C1482 1.378 . S
C1490 C1485 1.350 . S
C1491 H1478 0.929 . S
C1491 C1483 1.433 . S
C1491 N1493 1.384 . S
N1492 C1488 1.427 . S
N1492 C1489 1.384 . S
N1493 C1485 1.427 . S
N1493 C1491 1.384 . S
H1494 C1500 0.930 . S
H1495 C1504 0.930 . S
H1496 C1509 0.929 . S
H1497 C1507 0.929 . S
H1498 C1502 0.929 . S
H1499 C1508 0.929 . S
C1500 H1494 0.930 . S
C1500 C1501 1.367 . S
C1500 C1508 1.378 . S
C1501 C1500 1.367 . S
C1501 C1509 1.433 . S
C1502 H1498 0.929 . S
C1502 C1504 1.378 . S
C1502 C1506 1.350 . S
C1503 C1506 1.463 . S
C1503 C1508 1.350 . S
C1503 N1511 1.427 . S
C1504 H1495 0.930 . S
C1504 C1502 1.378 . S
C1504 C1505 1.367 . S
C1505 C1504 1.367 . S
C1505 C1507 1.433 . S
C1506 C1502 1.350 . S
C1506 C1503 1.463 . S
C1506 N1510 1.427 . S
C1507 H1497 0.929 . S
C1507 C1505 1.433 . S
C1507 N1510 1.384 . S
C1508 H1499 0.929 . S
C1508 C1500 1.378 . S
C1508 C1503 1.350 . S
C1509 H1496 0.929 . S
C1509 C1501 1.433 . S
C1509 N1511 1.384 . S
N1510 C1506 1.427 . S
N1510 C1507 1.384 . S
N1511 C1503 1.427 . S
N1511 C1509 1.384 . S
H1512 C1518 0.930 . S
H1513 C1522 0.930 . S
H1514 C1527 0.929 . S
H1515 C1525 0.929 . S
H1516 C1520 0.929 . S
H1517 C1526 0.929 . S
C1518 H1512 0.930 . S
C1518 C1519 1.367 . S
C1518 C1526 1.378 . S
C1519 C1518 1.367 . S
C1519 C1527 1.433 . S
C1520 H1516 0.929 . S
C1520 C1522 1.378 . S
C1520 C1524 1.350 . S
C1521 C1524 1.463 . S
C1521 C1526 1.350 . S
C1521 N1529 1.427 . S
C1522 H1513 0.930 . S
C1522 C1520 1.378 . S
C1522 C1523 1.367 . S
C1523 C1522 1.367 . S
C1523 C1525 1.433 . S
C1524 C1520 1.350 . S
C1524 C1521 1.463 . S
C1524 N1528 1.427 . S
C1525 H1515 0.929 . S
C1525 C1523 1.433 . S
C1525 N1528 1.384 . S
C1526 H1517 0.929 . S
C1526 C1518 1.378 . S
C1526 C1521 1.350 . S
C1527 H1514 0.929 . S
C1527 C1519 1.433 . S
C1527 N1529 1.384 . S
N1528 C1524 1.427 . S
N1528 C1525 1.384 . S
N1529 C1521 1.427 . S
N1529 C1527 1.384 . S
H1530 C1536 0.930 . S
H1531 C1540 0.930 . S
H1532 C1545 0.929 . S
H1533 C1543 0.929 . S
H1534 C1538 0.929 . S
H1535 C1544 0.929 . S
C1536 H1530 0.930 . S
C1536 C1537 1.367 . S
C1536 C1544 1.378 . S
C1537 C1536 1.367 . S
C1537 C1545 1.433 . S
C1538 H1534 0.929 . S
C1538 C1540 1.378 . S
C1538 C1542 1.350 . S
C1539 C1542 1.463 . S
C1539 C1544 1.350 . S
C1539 N1547 1.427 . S
C1540 H1531 0.930 . S
C1540 C1538 1.378 . S
C1540 C1541 1.367 . S
C1541 C1540 1.367 . S
C1541 C1543 1.433 . S
C1542 C1538 1.350 . S
C1542 C1539 1.463 . S
C1542 N1546 1.427 . S
C1543 H1533 0.929 . S
C1543 C1541 1.433 . S
C1543 N1546 1.384 . S
C1544 H1535 0.929 . S
C1544 C1536 1.378 . S
C1544 C1539 1.350 . S
C1545 H1532 0.929 . S
C1545 C1537 1.433 . S
C1545 N1547 1.384 . S
N1546 C1542 1.427 . S
N1546 C1543 1.384 . S
N1547 C1539 1.427 . S
N1547 C1545 1.384 . S
H1548 C1554 0.930 . S
H1549 C1558 0.930 . S
H1550 C1563 0.929 . S
H1551 C1561 0.929 . S
H1552 C1556 0.929 . S
H1553 C1562 0.929 . S
C1554 H1548 0.930 . S
C1554 C1555 1.367 . S
C1554 C1562 1.378 . S
C1555 C1554 1.367 . S
C1555 C1563 1.433 . S
C1556 H1552 0.929 . S
C1556 C1558 1.378 . S
C1556 C1560 1.350 . S
C1557 C1560 1.463 . S
C1557 C1562 1.350 . S
C1557 N1565 1.427 . S
C1558 H1549 0.930 . S
C1558 C1556 1.378 . S
C1558 C1559 1.367 . S
C1559 C1558 1.367 . S
C1559 C1561 1.433 . S
C1560 C1556 1.350 . S
C1560 C1557 1.463 . S
C1560 N1564 1.427 . S
C1561 H1551 0.929 . S
C1561 C1559 1.433 . S
C1561 N1564 1.384 . S
C1562 H1553 0.929 . S
C1562 C1554 1.378 . S
C1562 C1557 1.350 . S
C1563 H1550 0.929 . S
C1563 C1555 1.433 . S
C1563 N1565 1.384 . S
N1564 C1560 1.427 . S
N1564 C1561 1.384 . S
N1565 C1557 1.427 . S
N1565 C1563 1.384 . S
H1566 C1572 0.930 . S
H1567 C1576 0.930 . S
H1568 C1581 0.929 . S
H1569 C1579 0.929 . S
H1570 C1574 0.929 . S
H1571 C1580 0.929 . S
C1572 H1566 0.930 . S
C1572 C1573 1.367 . S
C1572 C1580 1.378 . S
C1573 C1572 1.367 . S
C1573 C1581 1.433 . S
C1574 H1570 0.929 . S
C1574 C1576 1.378 . S
C1574 C1578 1.350 . S
C1575 C1578 1.463 . S
C1575 C1580 1.350 . S
C1575 N1583 1.427 . S
C1576 H1567 0.930 . S
C1576 C1574 1.378 . S
C1576 C1577 1.367 . S
C1577 C1576 1.367 . S
C1577 C1579 1.433 . S
C1578 C1574 1.350 . S
C1578 C1575 1.463 . S
C1578 N1582 1.427 . S
C1579 H1569 0.929 . S
C1579 C1577 1.433 . S
C1579 N1582 1.384 . S
C1580 H1571 0.929 . S
C1580 C1572 1.378 . S
C1580 C1575 1.350 . S
C1581 H1568 0.929 . S
C1581 C1573 1.433 . S
C1581 N1583 1.384 . S
N1582 C1578 1.427 . S
N1582 C1579 1.384 . S
N1583 C1575 1.427 . S
N1583 C1581 1.384 . S
H1584 C1590 0.930 . S
H1585 C1594 0.930 . S
H1586 C1599 0.929 . S
H1587 C1597 0.929 . S
H1588 C1592 0.929 . S
H1589 C1598 0.929 . S
C1590 H1584 0.930 . S
C1590 C1591 1.367 . S
C1590 C1598 1.378 . S
C1591 C1590 1.367 . S
C1591 C1599 1.433 . S
C1592 H1588 0.929 . S
C1592 C1594 1.378 . S
C1592 C1596 1.350 . S
C1593 C1596 1.463 . S
C1593 C1598 1.350 . S
C1593 N1601 1.427 . S
C1594 H1585 0.930 . S
C1594 C1592 1.378 . S
C1594 C1595 1.367 . S
C1595 C1594 1.367 . S
C1595 C1597 1.433 . S
C1596 C1592 1.350 . S
C1596 C1593 1.463 . S
C1596 N1600 1.427 . S
C1597 H1587 0.929 . S
C1597 C1595 1.433 . S
C1597 N1600 1.384 . S
C1598 H1589 0.929 . S
C1598 C1590 1.378 . S
C1598 C1593 1.350 . S
C1599 H1586 0.929 . S
C1599 C1591 1.433 . S
C1599 N1601 1.384 . S
N1600 C1596 1.427 . S
N1600 C1597 1.384 . S
N1601 C1593 1.427 . S
N1601 C1599 1.384 . S
H1602 C1608 0.930 . S
H1603 C1612 0.930 . S
H1604 C1617 0.929 . S
H1605 C1615 0.929 . S
H1606 C1610 0.929 . S
H1607 C1616 0.929 . S
C1608 H1602 0.930 . S
C1608 C1609 1.367 . S
C1608 C1616 1.378 . S
C1609 C1608 1.367 . S
C1609 C1617 1.433 . S
C1610 H1606 0.929 . S
C1610 C1612 1.378 . S
C1610 C1614 1.350 . S
C1611 C1614 1.463 . S
C1611 C1616 1.350 . S
C1611 N1619 1.427 . S
C1612 H1603 0.930 . S
C1612 C1610 1.378 . S
C1612 C1613 1.367 . S
C1613 C1612 1.367 . S
C1613 C1615 1.433 . S
C1614 C1610 1.350 . S
C1614 C1611 1.463 . S
C1614 N1618 1.427 . S
C1615 H1605 0.929 . S
C1615 C1613 1.433 . S
C1615 N1618 1.384 . S
C1616 H1607 0.929 . S
C1616 C1608 1.378 . S
C1616 C1611 1.350 . S
C1617 H1604 0.929 . S
C1617 C1609 1.433 . S
C1617 N1619 1.384 . S
N1618 C1614 1.427 . S
N1618 C1615 1.384 . S
N1619 C1611 1.427 . S
N1619 C1617 1.384 . S
H1620 C1626 0.930 . S
H1621 C1630 0.930 . S
H1622 C1635 0.929 . S
H1623 C1633 0.929 . S
H1624 C1628 0.929 . S
H1625 C1634 0.929 . S
C1626 H1620 0.930 . S
C1626 C1627 1.367 . S
C1626 C1634 1.378 . S
C1627 C1626 1.367 . S
C1627 C1635 1.433 . S
C1628 H1624 0.929 . S
C1628 C1630 1.378 . S
C1628 C1632 1.350 . S
C1629 C1632 1.463 . S
C1629 C1634 1.350 . S
C1629 N1637 1.427 . S
C1630 H1621 0.930 . S
C1630 C1628 1.378 . S
C1630 C1631 1.367 . S
C1631 C1630 1.367 . S
C1631 C1633 1.433 . S
C1632 C1628 1.350 . S
C1632 C1629 1.463 . S
C1632 N1636 1.427 . S
C1633 H1623 0.929 . S
C1633 C1631 1.433 . S
C1633 N1636 1.384 . S
C1634 H1625 0.929 . S
C1634 C1626 1.378 . S
C1634 C1629 1.350 . S
C1635 H1622 0.929 . S
C1635 C1627 1.433 . S
C1635 N1637 1.384 . S
N1636 C1632 1.427 . S
N1636 C1633 1.384 . S
N1637 C1629 1.427 . S
N1637 C1635 1.384 . S
H1638 C1644 0.930 . S
H1639 C1648 0.930 . S
H1640 C1653 0.929 . S
H1641 C1651 0.929 . S
H1642 C1646 0.929 . S
H1643 C1652 0.929 . S
C1644 H1638 0.930 . S
C1644 C1645 1.367 . S
C1644 C1652 1.378 . S
C1645 C1644 1.367 . S
C1645 C1653 1.433 . S
C1646 H1642 0.929 . S
C1646 C1648 1.378 . S
C1646 C1650 1.350 . S
C1647 C1650 1.463 . S
C1647 C1652 1.350 . S
C1647 N1655 1.427 . S
C1648 H1639 0.930 . S
C1648 C1646 1.378 . S
C1648 C1649 1.367 . S
C1649 C1648 1.367 . S
C1649 C1651 1.433 . S
C1650 C1646 1.350 . S
C1650 C1647 1.463 . S
C1650 N1654 1.427 . S
C1651 H1641 0.929 . S
C1651 C1649 1.433 . S
C1651 N1654 1.384 . S
C1652 H1643 0.929 . S
C1652 C1644 1.378 . S
C1652 C1647 1.350 . S
C1653 H1640 0.929 . S
C1653 C1645 1.433 . S
C1653 N1655 1.384 . S
N1654 C1650 1.427 . S
N1654 C1651 1.384 . S
N1655 C1647 1.427 . S
N1655 C1653 1.384 . S
H1656 C1662 0.930 . S
H1657 C1666 0.930 . S
H1658 C1671 0.929 . S
H1659 C1669 0.929 . S
H1660 C1664 0.929 . S
H1661 C1670 0.929 . S
C1662 H1656 0.930 . S
C1662 C1663 1.367 . S
C1662 C1670 1.378 . S
C1663 C1662 1.367 . S
C1663 C1671 1.433 . S
C1664 H1660 0.929 . S
C1664 C1666 1.378 . S
C1664 C1668 1.350 . S
C1665 C1668 1.463 . S
C1665 C1670 1.350 . S
C1665 N1673 1.427 . S
C1666 H1657 0.930 . S
C1666 C1664 1.378 . S
C1666 C1667 1.367 . S
C1667 C1666 1.367 . S
C1667 C1669 1.433 . S
C1668 C1664 1.350 . S
C1668 C1665 1.463 . S
C1668 N1672 1.427 . S
C1669 H1659 0.929 . S
C1669 C1667 1.433 . S
C1669 N1672 1.384 . S
C1670 H1661 0.929 . S
C1670 C1662 1.378 . S
C1670 C1665 1.350 . S
C1671 H1658 0.929 . S
C1671 C1663 1.433 . S
C1671 N1673 1.384 . S
N1672 C1668 1.427 . S
N1672 C1669 1.384 . S
N1673 C1665 1.427 . S
N1673 C1671 1.384 . S
H1674 C1680 0.930 . S
H1675 C1684 0.930 . S
H1676 C1689 0.929 . S
H1677 C1687 0.929 . S
H1678 C1682 0.929 . S
H1679 C1688 0.929 . S
C1680 H1674 0.930 . S
C1680 C1681 1.367 . S
C1680 C1688 1.378 . S
C1681 C1680 1.367 . S
C1681 C1689 1.433 . S
C1682 H1678 0.929 . S
C1682 C1684 1.378 . S
C1682 C1686 1.350 . S
C1683 C1686 1.463 . S
C1683 C1688 1.350 . S
C1683 N1691 1.427 . S
C1684 H1675 0.930 . S
C1684 C1682 1.378 . S
C1684 C1685 1.367 . S
C1685 C1684 1.367 . S
C1685 C1687 1.433 . S
C1686 C1682 1.350 . S
C1686 C1683 1.463 . S
C1686 N1690 1.427 . S
C1687 H1677 0.929 . S
C1687 C1685 1.433 . S
C1687 N1690 1.384 . S
C1688 H1679 0.929 . S
C1688 C1680 1.378 . S
C1688 C1683 1.350 . S
C1689 H1676 0.929 . S
C1689 C1681 1.433 . S
C1689 N1691 1.384 . S
N1690 C1686 1.427 . S
N1690 C1687 1.384 . S
N1691 C1683 1.427 . S
N1691 C1689 1.384 . S
H1692 C1698 0.930 . S
H1693 C1702 0.930 . S
H1694 C1707 0.929 . S
H1695 C1705 0.929 . S
H1696 C1700 0.929 . S
H1697 C1706 0.929 . S
C1698 H1692 0.930 . S
C1698 C1699 1.367 . S
C1698 C1706 1.378 . S
C1699 C1698 1.367 . S
C1699 C1707 1.433 . S
C1700 H1696 0.929 . S
C1700 C1702 1.378 . S
C1700 C1704 1.350 . S
C1701 C1704 1.463 . S
C1701 C1706 1.350 . S
C1701 N1709 1.427 . S
C1702 H1693 0.930 . S
C1702 C1700 1.378 . S
C1702 C1703 1.367 . S
C1703 C1702 1.367 . S
C1703 C1705 1.433 . S
C1704 C1700 1.350 . S
C1704 C1701 1.463 . S
C1704 N1708 1.427 . S
C1705 H1695 0.929 . S
C1705 C1703 1.433 . S
C1705 N1708 1.384 . S
C1706 H1697 0.929 . S
C1706 C1698 1.378 . S
C1706 C1701 1.350 . S
C1707 H1694 0.929 . S
C1707 C1699 1.433 . S
C1707 N1709 1.384 . S
N1708 C1704 1.427 . S
N1708 C1705 1.384 . S
N1709 C1701 1.427 . S
N1709 C1707 1.384 . S
H1710 C1716 0.930 . S
H1711 C1720 0.930 . S
H1712 C1725 0.929 . S
H1713 C1723 0.929 . S
H1714 C1718 0.929 . S
H1715 C1724 0.929 . S
C1716 H1710 0.930 . S
C1716 C1717 1.367 . S
C1716 C1724 1.378 . S
C1717 C1716 1.367 . S
C1717 C1725 1.433 . S
C1718 H1714 0.929 . S
C1718 C1720 1.378 . S
C1718 C1722 1.350 . S
C1719 C1722 1.463 . S
C1719 C1724 1.350 . S
C1719 N1727 1.427 . S
C1720 H1711 0.930 . S
C1720 C1718 1.378 . S
C1720 C1721 1.367 . S
C1721 C1720 1.367 . S
C1721 C1723 1.433 . S
C1722 C1718 1.350 . S
C1722 C1719 1.463 . S
C1722 N1726 1.427 . S
C1723 H1713 0.929 . S
C1723 C1721 1.433 . S
C1723 N1726 1.384 . S
C1724 H1715 0.929 . S
C1724 C1716 1.378 . S
C1724 C1719 1.350 . S
C1725 H1712 0.929 . S
C1725 C1717 1.433 . S
C1725 N1727 1.384 . S
N1726 C1722 1.427 . S
N1726 C1723 1.384 . S
N1727 C1719 1.427 . S
N1727 C1725 1.384 . S
H1728 C1734 0.930 . S
H1729 C1738 0.930 . S
H1730 C1743 0.929 . S
H1731 C1741 0.929 . S
H1732 C1736 0.929 . S
H1733 C1742 0.929 . S
C1734 H1728 0.930 . S
C1734 C1735 1.367 . S
C1734 C1742 1.378 . S
C1735 C1734 1.367 . S
C1735 C1743 1.433 . S
C1736 H1732 0.929 . S
C1736 C1738 1.378 . S
C1736 C1740 1.350 . S
C1737 C1740 1.463 . S
C1737 C1742 1.350 . S
C1737 N1745 1.427 . S
C1738 H1729 0.930 . S
C1738 C1736 1.378 . S
C1738 C1739 1.367 . S
C1739 C1738 1.367 . S
C1739 C1741 1.433 . S
C1740 C1736 1.350 . S
C1740 C1737 1.463 . S
C1740 N1744 1.427 . S
C1741 H1731 0.929 . S
C1741 C1739 1.433 . S
C1741 N1744 1.384 . S
C1742 H1733 0.929 . S
C1742 C1734 1.378 . S
C1742 C1737 1.350 . S
C1743 H1730 0.929 . S
C1743 C1735 1.433 . S
C1743 N1745 1.384 . S
N1744 C1740 1.427 . S
N1744 C1741 1.384 . S
N1745 C1737 1.427 . S
N1745 C1743 1.384 . S
H1746 C1752 0.930 . S
H1747 C1756 0.930 . S
H1748 C1761 0.929 . S
H1749 C1759 0.929 . S
H1750 C1754 0.929 . S
H1751 C1760 0.929 . S
C1752 H1746 0.930 . S
C1752 C1753 1.367 . S
C1752 C1760 1.378 . S
C1753 C1752 1.367 . S
C1753 C1761 1.433 . S
C1754 H1750 0.929 . S
C1754 C1756 1.378 . S
C1754 C1758 1.350 . S
C1755 C1758 1.463 . S
C1755 C1760 1.350 . S
C1755 N1763 1.427 . S
C1756 H1747 0.930 . S
C1756 C1754 1.378 . S
C1756 C1757 1.367 . S
C1757 C1756 1.367 . S
C1757 C1759 1.433 . S
C1758 C1754 1.350 . S
C1758 C1755 1.463 . S
C1758 N1762 1.427 . S
C1759 H1749 0.929 . S
C1759 C1757 1.433 . S
C1759 N1762 1.384 . S
C1760 H1751 0.929 . S
C1760 C1752 1.378 . S
C1760 C1755 1.350 . S
C1761 H1748 0.929 . S
C1761 C1753 1.433 . S
C1761 N1763 1.384 . S
N1762 C1758 1.427 . S
N1762 C1759 1.384 . S
N1763 C1755 1.427 . S
N1763 C1761 1.384 . S
H1764 C1770 0.930 . S
H1765 C1774 0.930 . S
H1766 C1779 0.929 . S
H1767 C1777 0.929 . S
H1768 C1772 0.929 . S
H1769 C1778 0.929 . S
C1770 H1764 0.930 . S
C1770 C1771 1.367 . S
C1770 C1778 1.378 . S
C1771 C1770 1.367 . S
C1771 C1779 1.433 . S
C1772 H1768 0.929 . S
C1772 C1774 1.378 . S
C1772 C1776 1.350 . S
C1773 C1776 1.463 . S
C1773 C1778 1.350 . S
C1773 N1781 1.427 . S
C1774 H1765 0.930 . S
C1774 C1772 1.378 . S
C1774 C1775 1.367 . S
C1775 C1774 1.367 . S
C1775 C1777 1.433 . S
C1776 C1772 1.350 . S
C1776 C1773 1.463 . S
C1776 N1780 1.427 . S
C1777 H1767 0.929 . S
C1777 C1775 1.433 . S
C1777 N1780 1.384 . S
C1778 H1769 0.929 . S
C1778 C1770 1.378 . S
C1778 C1773 1.350 . S
C1779 H1766 0.929 . S
C1779 C1771 1.433 . S
C1779 N1781 1.384 . S
N1780 C1776 1.427 . S
N1780 C1777 1.384 . S
N1781 C1773 1.427 . S
N1781 C1779 1.384 . S
H1782 C1788 0.930 . S
H1783 C1792 0.930 . S
H1784 C1797 0.929 . S
H1785 C1795 0.929 . S
H1786 C1790 0.929 . S
H1787 C1796 0.929 . S
C1788 H1782 0.930 . S
C1788 C1789 1.367 . S
C1788 C1796 1.378 . S
C1789 C1788 1.367 . S
C1789 C1797 1.433 . S
C1790 H1786 0.929 . S
C1790 C1792 1.378 . S
C1790 C1794 1.350 . S
C1791 C1794 1.463 . S
C1791 C1796 1.350 . S
C1791 N1799 1.427 . S
C1792 H1783 0.930 . S
C1792 C1790 1.378 . S
C1792 C1793 1.367 . S
C1793 C1792 1.367 . S
C1793 C1795 1.433 . S
C1794 C1790 1.350 . S
C1794 C1791 1.463 . S
C1794 N1798 1.427 . S
C1795 H1785 0.929 . S
C1795 C1793 1.433 . S
C1795 N1798 1.384 . S
C1796 H1787 0.929 . S
C1796 C1788 1.378 . S
C1796 C1791 1.350 . S
C1797 H1784 0.929 . S
C1797 C1789 1.433 . S
C1797 N1799 1.384 . S
N1798 C1794 1.427 . S
N1798 C1795 1.384 . S
N1799 C1791 1.427 . S
N1799 C1797 1.384 . S
H1800 C1806 0.930 . S
H1801 C1810 0.930 . S
H1802 C1815 0.929 . S
H1803 C1813 0.929 . S
H1804 C1808 0.929 . S
H1805 C1814 0.929 . S
C1806 H1800 0.930 . S
C1806 C1807 1.367 . S
C1806 C1814 1.378 . S
C1807 C1806 1.367 . S
C1807 C1815 1.433 . S
C1808 H1804 0.929 . S
C1808 C1810 1.378 . S
C1808 C1812 1.350 . S
C1809 C1812 1.463 . S
C1809 C1814 1.350 . S
C1809 N1817 1.427 . S
C1810 H1801 0.930 . S
C1810 C1808 1.378 . S
C1810 C1811 1.367 . S
C1811 C1810 1.367 . S
C1811 C1813 1.433 . S
C1812 C1808 1.350 . S
C1812 C1809 1.463 . S
C1812 N1816 1.427 . S
C1813 H1803 0.929 . S
C1813 C1811 1.433 . S
C1813 N1816 1.384 . S
C1814 H1805 0.929 . S
C1814 C1806 1.378 . S
C1814 C1809 1.350 . S
C1815 H1802 0.929 . S
C1815 C1807 1.433 . S
C1815 N1817 1.384 . S
N1816 C1812 1.427 . S
N1816 C1813 1.384 . S
N1817 C1809 1.427 . S
N1817 C1815 1.384 . S
H1818 C1824 0.930 . S
H1819 C1828 0.930 . S
H1820 C1833 0.929 . S
H1821 C1831 0.929 . S
H1822 C1826 0.929 . S
H1823 C1832 0.929 . S
C1824 H1818 0.930 . S
C1824 C1825 1.367 . S
C1824 C1832 1.378 . S
C1825 C1824 1.367 . S
C1825 C1833 1.433 . S
C1826 H1822 0.929 . S
C1826 C1828 1.378 . S
C1826 C1830 1.350 . S
C1827 C1830 1.463 . S
C1827 C1832 1.350 . S
C1827 N1835 1.427 . S
C1828 H1819 0.930 . S
C1828 C1826 1.378 . S
C1828 C1829 1.367 . S
C1829 C1828 1.367 . S
C1829 C1831 1.433 . S
C1830 C1826 1.350 . S
C1830 C1827 1.463 . S
C1830 N1834 1.427 . S
C1831 H1821 0.929 . S
C1831 C1829 1.433 . S
C1831 N1834 1.384 . S
C1832 H1823 0.929 . S
C1832 C1824 1.378 . S
C1832 C1827 1.350 . S
C1833 H1820 0.929 . S
C1833 C1825 1.433 . S
C1833 N1835 1.384 . S
N1834 C1830 1.427 . S
N1834 C1831 1.384 . S
N1835 C1827 1.427 . S
N1835 C1833 1.384 . S
H1836 C1842 0.930 . S
H1837 C1846 0.930 . S
H1838 C1851 0.929 . S
H1839 C1849 0.929 . S
H1840 C1844 0.929 . S
H1841 C1850 0.929 . S
C1842 H1836 0.930 . S
C1842 C1843 1.367 . S
C1842 C1850 1.378 . S
C1843 C1842 1.367 . S
C1843 C1851 1.433 . S
C1844 H1840 0.929 . S
C1844 C1846 1.378 . S
C1844 C1848 1.350 . S
C1845 C1848 1.463 . S
C1845 C1850 1.350 . S
C1845 N1853 1.427 . S
C1846 H1837 0.930 . S
C1846 C1844 1.378 . S
C1846 C1847 1.367 . S
C1847 C1846 1.367 . S
C1847 C1849 1.433 . S
C1848 C1844 1.350 . S
C1848 C1845 1.463 . S
C1848 N1852 1.427 . S
C1849 H1839 0.929 . S
C1849 C1847 1.433 . S
C1849 N1852 1.384 . S
C1850 H1841 0.929 . S
C1850 C1842 1.378 . S
C1850 C1845 1.350 . S
C1851 H1838 0.929 . S
C1851 C1843 1.433 . S
C1851 N1853 1.384 . S
N1852 C1848 1.427 . S
N1852 C1849 1.384 . S
N1853 C1845 1.427 . S
N1853 C1851 1.384 . S
H1854 C1860 0.930 . S
H1855 C1864 0.930 . S
H1856 C1869 0.929 . S
H1857 C1867 0.929 . S
H1858 C1862 0.929 . S
H1859 C1868 0.929 . S
C1860 H1854 0.930 . S
C1860 C1861 1.367 . S
C1860 C1868 1.378 . S
C1861 C1860 1.367 . S
C1861 C1869 1.433 . S
C1862 H1858 0.929 . S
C1862 C1864 1.378 . S
C1862 C1866 1.350 . S
C1863 C1866 1.463 . S
C1863 C1868 1.350 . S
C1863 N1871 1.427 . S
C1864 H1855 0.930 . S
C1864 C1862 1.378 . S
C1864 C1865 1.367 . S
C1865 C1864 1.367 . S
C1865 C1867 1.433 . S
C1866 C1862 1.350 . S
C1866 C1863 1.463 . S
C1866 N1870 1.427 . S
C1867 H1857 0.929 . S
C1867 C1865 1.433 . S
C1867 N1870 1.384 . S
C1868 H1859 0.929 . S
C1868 C1860 1.378 . S
C1868 C1863 1.350 . S
C1869 H1856 0.929 . S
C1869 C1861 1.433 . S
C1869 N1871 1.384 . S
N1870 C1866 1.427 . S
N1870 C1867 1.384 . S
N1871 C1863 1.427 . S
N1871 C1869 1.384 . S
H1872 C1878 0.930 . S
H1873 C1882 0.930 . S
H1874 C1887 0.929 . S
H1875 C1885 0.929 . S
H1876 C1880 0.929 . S
H1877 C1886 0.929 . S
C1878 H1872 0.930 . S
C1878 C1879 1.367 . S
C1878 C1886 1.378 . S
C1879 C1878 1.367 . S
C1879 C1887 1.433 . S
C1880 H1876 0.929 . S
C1880 C1882 1.378 . S
C1880 C1884 1.350 . S
C1881 C1884 1.463 . S
C1881 C1886 1.350 . S
C1881 N1889 1.427 . S
C1882 H1873 0.930 . S
C1882 C1880 1.378 . S
C1882 C1883 1.367 . S
C1883 C1882 1.367 . S
C1883 C1885 1.433 . S
C1884 C1880 1.350 . S
C1884 C1881 1.463 . S
C1884 N1888 1.427 . S
C1885 H1875 0.929 . S
C1885 C1883 1.433 . S
C1885 N1888 1.384 . S
C1886 H1877 0.929 . S
C1886 C1878 1.378 . S
C1886 C1881 1.350 . S
C1887 H1874 0.929 . S
C1887 C1879 1.433 . S
C1887 N1889 1.384 . S
N1888 C1884 1.427 . S
N1888 C1885 1.384 . S
N1889 C1881 1.427 . S
N1889 C1887 1.384 . S
H1890 C1896 0.930 . S
H1891 C1900 0.930 . S
H1892 C1905 0.929 . S
H1893 C1903 0.929 . S
H1894 C1898 0.929 . S
H1895 C1904 0.929 . S
C1896 H1890 0.930 . S
C1896 C1897 1.367 . S
C1896 C1904 1.378 . S
C1897 C1896 1.367 . S
C1897 C1905 1.433 . S
C1898 H1894 0.929 . S
C1898 C1900 1.378 . S
C1898 C1902 1.350 . S
C1899 C1902 1.463 . S
C1899 C1904 1.350 . S
C1899 N1907 1.427 . S
C1900 H1891 0.930 . S
C1900 C1898 1.378 . S
C1900 C1901 1.367 . S
C1901 C1900 1.367 . S
C1901 C1903 1.433 . S
C1902 C1898 1.350 . S
C1902 C1899 1.463 . S
C1902 N1906 1.427 . S
C1903 H1893 0.929 . S
C1903 C1901 1.433 . S
C1903 N1906 1.384 . S
C1904 H1895 0.929 . S
C1904 C1896 1.378 . S
C1904 C1899 1.350 . S
C1905 H1892 0.929 . S
C1905 C1897 1.433 . S
C1905 N1907 1.384 . S
N1906 C1902 1.427 . S
N1906 C1903 1.384 . S
N1907 C1899 1.427 . S
N1907 C1905 1.384 . S
H1908 C1914 0.930 . S
H1909 C1918 0.930 . S
H1910 C1923 0.929 . S
H1911 C1921 0.929 . S
H1912 C1916 0.929 . S
H1913 C1922 0.929 . S
C1914 H1908 0.930 . S
C1914 C1915 1.367 . S
C1914 C1922 1.378 . S
C1915 C1914 1.367 . S
C1915 C1923 1.433 . S
C1916 H1912 0.929 . S
C1916 C1918 1.378 . S
C1916 C1920 1.350 . S
C1917 C1920 1.463 . S
C1917 C1922 1.350 . S
C1917 N1925 1.427 . S
C1918 H1909 0.930 . S
C1918 C1916 1.378 . S
C1918 C1919 1.367 . S
C1919 C1918 1.367 . S
C1919 C1921 1.433 . S
C1920 C1916 1.350 . S
C1920 C1917 1.463 . S
C1920 N1924 1.427 . S
C1921 H1911 0.929 . S
C1921 C1919 1.433 . S
C1921 N1924 1.384 . S
C1922 H1913 0.929 . S
C1922 C1914 1.378 . S
C1922 C1917 1.350 . S
C1923 H1910 0.929 . S
C1923 C1915 1.433 . S
C1923 N1925 1.384 . S
N1924 C1920 1.427 . S
N1924 C1921 1.384 . S
N1925 C1917 1.427 . S
N1925 C1923 1.384 . S
H1926 C1932 0.930 . S
H1927 C1936 0.930 . S
H1928 C1941 0.929 . S
H1929 C1939 0.929 . S
H1930 C1934 0.929 . S
H1931 C1940 0.929 . S
C1932 H1926 0.930 . S
C1932 C1933 1.367 . S
C1932 C1940 1.378 . S
C1933 C1932 1.367 . S
C1933 C1941 1.433 . S
C1934 H1930 0.929 . S
C1934 C1936 1.378 . S
C1934 C1938 1.350 . S
C1935 C1938 1.463 . S
C1935 C1940 1.350 . S
C1935 N1943 1.427 . S
C1936 H1927 0.930 . S
C1936 C1934 1.378 . S
C1936 C1937 1.367 . S
C1937 C1936 1.367 . S
C1937 C1939 1.433 . S
C1938 C1934 1.350 . S
C1938 C1935 1.463 . S
C1938 N1942 1.427 . S
C1939 H1929 0.929 . S
C1939 C1937 1.433 . S
C1939 N1942 1.384 . S
C1940 H1931 0.929 . S
C1940 C1932 1.378 . S
C1940 C1935 1.350 . S
C1941 H1928 0.929 . S
C1941 C1933 1.433 . S
C1941 N1943 1.384 . S
N1942 C1938 1.427 . S
N1942 C1939 1.384 . S
N1943 C1935 1.427 . S
N1943 C1941 1.384 . S
H1944 C1950 0.930 . S
H1945 C1954 0.930 . S
H1946 C1959 0.929 . S
H1947 C1957 0.929 . S
H1948 C1952 0.929 . S
H1949 C1958 0.929 . S
C1950 H1944 0.930 . S
C1950 C1951 1.367 . S
C1950 C1958 1.378 . S
C1951 C1950 1.367 . S
C1951 C1959 1.433 . S
C1952 H1948 0.929 . S
C1952 C1954 1.378 . S
C1952 C1956 1.350 . S
C1953 C1956 1.463 . S
C1953 C1958 1.350 . S
C1953 N1961 1.427 . S
C1954 H1945 0.930 . S
C1954 C1952 1.378 . S
C1954 C1955 1.367 . S
C1955 C1954 1.367 . S
C1955 C1957 1.433 . S
C1956 C1952 1.350 . S
C1956 C1953 1.463 . S
C1956 N1960 1.427 . S
C1957 H1947 0.929 . S
C1957 C1955 1.433 . S
C1957 N1960 1.384 . S
C1958 H1949 0.929 . S
C1958 C1950 1.378 . S
C1958 C1953 1.350 . S
C1959 H1946 0.929 . S
C1959 C1951 1.433 . S
C1959 N1961 1.384 . S
N1960 C1956 1.427 . S
N1960 C1957 1.384 . S
N1961 C1953 1.427 . S
N1961 C1959 1.384 . S
H1962 C1968 0.930 . S
H1963 C1972 0.930 . S
H1964 C1977 0.929 . S
H1965 C1975 0.929 . S
H1966 C1970 0.929 . S
H1967 C1976 0.929 . S
C1968 H1962 0.930 . S
C1968 C1969 1.367 . S
C1968 C1976 1.378 . S
C1969 C1968 1.367 . S
C1969 C1977 1.433 . S
C1970 H1966 0.929 . S
C1970 C1972 1.378 . S
C1970 C1974 1.350 . S
C1971 C1974 1.463 . S
C1971 C1976 1.350 . S
C1971 N1979 1.427 . S
C1972 H1963 0.930 . S
C1972 C1970 1.378 . S
C1972 C1973 1.367 . S
C1973 C1972 1.367 . S
C1973 C1975 1.433 . S
C1974 C1970 1.350 . S
C1974 C1971 1.463 . S
C1974 N1978 1.427 . S
C1975 H1965 0.929 . S
C1975 C1973 1.433 . S
C1975 N1978 1.384 . S
C1976 H1967 0.929 . S
C1976 C1968 1.378 . S
C1976 C1971 1.350 . S
C1977 H1964 0.929 . S
C1977 C1969 1.433 . S
C1977 N1979 1.384 . S
N1978 C1974 1.427 . S
N1978 C1975 1.384 . S
N1979 C1971 1.427 . S
N1979 C1977 1.384 . S
H1980 C1986 0.930 . S
H1981 C1990 0.930 . S
H1982 C1995 0.929 . S
H1983 C1993 0.929 . S
H1984 C1988 0.929 . S
H1985 C1994 0.929 . S
C1986 H1980 0.930 . S
C1986 C1987 1.367 . S
C1986 C1994 1.378 . S
C1987 C1986 1.367 . S
C1987 C1995 1.433 . S
C1988 H1984 0.929 . S
C1988 C1990 1.378 . S
C1988 C1992 1.350 . S
C1989 C1992 1.463 . S
C1989 C1994 1.350 . S
C1989 N1997 1.427 . S
C1990 H1981 0.930 . S
C1990 C1988 1.378 . S
C1990 C1991 1.367 . S
C1991 C1990 1.367 . S
C1991 C1993 1.433 . S
C1992 C1988 1.350 . S
C1992 C1989 1.463 . S
C1992 N1996 1.427 . S
C1993 H1983 0.929 . S
C1993 C1991 1.433 . S
C1993 N1996 1.384 . S
C1994 H1985 0.929 . S
C1994 C1986 1.378 . S
C1994 C1989 1.350 . S
C1995 H1982 0.929 . S
C1995 C1987 1.433 . S
C1995 N1997 1.384 . S
N1996 C1992 1.427 . S
N1996 C1993 1.384 . S
N1997 C1989 1.427 . S
N1997 C1995 1.384 . S
H1998 C2004 0.930 . S
H1999 C2008 0.930 . S
H2000 C2013 0.929 . S
H2001 C2011 0.929 . S
H2002 C2006 0.929 . S
H2003 C2012 0.929 . S
C2004 H1998 0.930 . S
C2004 C2005 1.367 . S
C2004 C2012 1.378 . S
C2005 C2004 1.367 . S
C2005 C2013 1.433 . S
C2006 H2002 0.929 . S
C2006 C2008 1.378 . S
C2006 C2010 1.350 . S
C2007 C2010 1.463 . S
C2007 C2012 1.350 . S
C2007 N2015 1.427 . S
C2008 H1999 0.930 . S
C2008 C2006 1.378 . S
C2008 C2009 1.367 . S
C2009 C2008 1.367 . S
C2009 C2011 1.433 . S
C2010 C2006 1.350 . S
C2010 C2007 1.463 . S
C2010 N2014 1.427 . S
C2011 H2001 0.929 . S
C2011 C2009 1.433 . S
C2011 N2014 1.384 . S
C2012 H2003 0.929 . S
C2012 C2004 1.378 . S
C2012 C2007 1.350 . S
C2013 H2000 0.929 . S
C2013 C2005 1.433 . S
C2013 N2015 1.384 . S
N2014 C2010 1.427 . S
N2014 C2011 1.384 . S
N2015 C2007 1.427 . S
N2015 C2013 1.384 . S
H2016 C2022 0.930 . S
H2017 C2026 0.930 . S
H2018 C2031 0.929 . S
H2019 C2029 0.929 . S
H2020 C2024 0.929 . S
H2021 C2030 0.929 . S
C2022 H2016 0.930 . S
C2022 C2023 1.367 . S
C2022 C2030 1.378 . S
C2023 C2022 1.367 . S
C2023 C2031 1.433 . S
C2024 H2020 0.929 . S
C2024 C2026 1.378 . S
C2024 C2028 1.350 . S
C2025 C2028 1.463 . S
C2025 C2030 1.350 . S
C2025 N2033 1.427 . S
C2026 H2017 0.930 . S
C2026 C2024 1.378 . S
C2026 C2027 1.367 . S
C2027 C2026 1.367 . S
C2027 C2029 1.433 . S
C2028 C2024 1.350 . S
C2028 C2025 1.463 . S
C2028 N2032 1.427 . S
C2029 H2019 0.929 . S
C2029 C2027 1.433 . S
C2029 N2032 1.384 . S
C2030 H2021 0.929 . S
C2030 C2022 1.378 . S
C2030 C2025 1.350 . S
C2031 H2018 0.929 . S
C2031 C2023 1.433 . S
C2031 N2033 1.384 . S
N2032 C2028 1.427 . S
N2032 C2029 1.384 . S
N2033 C2025 1.427 . S
N2033 C2031 1.384 . S
H2034 C2040 0.930 . S
H2035 C2044 0.930 . S
H2036 C2049 0.929 . S
H2037 C2047 0.929 . S
H2038 C2042 0.929 . S
H2039 C2048 0.929 . S
C2040 H2034 0.930 . S
C2040 C2041 1.367 . S
C2040 C2048 1.378 . S
C2041 C2040 1.367 . S
C2041 C2049 1.433 . S
C2042 H2038 0.929 . S
C2042 C2044 1.378 . S
C2042 C2046 1.350 . S
C2043 C2046 1.463 . S
C2043 C2048 1.350 . S
C2043 N2051 1.427 . S
C2044 H2035 0.930 . S
C2044 C2042 1.378 . S
C2044 C2045 1.367 . S
C2045 C2044 1.367 . S
C2045 C2047 1.433 . S
C2046 C2042 1.350 . S
C2046 C2043 1.463 . S
C2046 N2050 1.427 . S
C2047 H2037 0.929 . S
C2047 C2045 1.433 . S
C2047 N2050 1.384 . S
C2048 H2039 0.929 . S
C2048 C2040 1.378 . S
C2048 C2043 1.350 . S
C2049 H2036 0.929 . S
C2049 C2041 1.433 . S
C2049 N2051 1.384 . S
N2050 C2046 1.427 . S
N2050 C2047 1.384 . S
N2051 C2043 1.427 . S
N2051 C2049 1.384 . S
H2052 C2058 0.930 . S
H2053 C2062 0.930 . S
H2054 C2067 0.929 . S
H2055 C2065 0.929 . S
H2056 C2060 0.929 . S
H2057 C2066 0.929 . S
C2058 H2052 0.930 . S
C2058 C2059 1.367 . S
C2058 C2066 1.378 . S
C2059 C2058 1.367 . S
C2059 C2067 1.433 . S
C2060 H2056 0.929 . S
C2060 C2062 1.378 . S
C2060 C2064 1.350 . S
C2061 C2064 1.463 . S
C2061 C2066 1.350 . S
C2061 N2069 1.427 . S
C2062 H2053 0.930 . S
C2062 C2060 1.378 . S
C2062 C2063 1.367 . S
C2063 C2062 1.367 . S
C2063 C2065 1.433 . S
C2064 C2060 1.350 . S
C2064 C2061 1.463 . S
C2064 N2068 1.427 . S
C2065 H2055 0.929 . S
C2065 C2063 1.433 . S
C2065 N2068 1.384 . S
C2066 H2057 0.929 . S
C2066 C2058 1.378 . S
C2066 C2061 1.350 . S
C2067 H2054 0.929 . S
C2067 C2059 1.433 . S
C2067 N2069 1.384 . S
N2068 C2064 1.427 . S
N2068 C2065 1.384 . S
N2069 C2061 1.427 . S
N2069 C2067 1.384 . S
H2070 C2076 0.930 . S
H2071 C2080 0.930 . S
H2072 C2085 0.929 . S
H2073 C2083 0.929 . S
H2074 C2078 0.929 . S
H2075 C2084 0.929 . S
C2076 H2070 0.930 . S
C2076 C2077 1.367 . S
C2076 C2084 1.378 . S
C2077 C2076 1.367 . S
C2077 C2085 1.433 . S
C2078 H2074 0.929 . S
C2078 C2080 1.378 . S
C2078 C2082 1.350 . S
C2079 C2082 1.463 . S
C2079 C2084 1.350 . S
C2079 N2087 1.427 . S
C2080 H2071 0.930 . S
C2080 C2078 1.378 . S
C2080 C2081 1.367 . S
C2081 C2080 1.367 . S
C2081 C2083 1.433 . S
C2082 C2078 1.350 . S
C2082 C2079 1.463 . S
C2082 N2086 1.427 . S
C2083 H2073 0.929 . S
C2083 C2081 1.433 . S
C2083 N2086 1.384 . S
C2084 H2075 0.929 . S
C2084 C2076 1.378 . S
C2084 C2079 1.350 . S
C2085 H2072 0.929 . S
C2085 C2077 1.433 . S
C2085 N2087 1.384 . S
N2086 C2082 1.427 . S
N2086 C2083 1.384 . S
N2087 C2079 1.427 . S
N2087 C2085 1.384 . S
H2088 C2094 0.930 . S
H2089 C2098 0.930 . S
H2090 C2103 0.929 . S
H2091 C2101 0.929 . S
H2092 C2096 0.929 . S
H2093 C2102 0.929 . S
C2094 H2088 0.930 . S
C2094 C2095 1.367 . S
C2094 C2102 1.378 . S
C2095 C2094 1.367 . S
C2095 C2103 1.433 . S
C2096 H2092 0.929 . S
C2096 C2098 1.378 . S
C2096 C2100 1.350 . S
C2097 C2100 1.463 . S
C2097 C2102 1.350 . S
C2097 N2105 1.427 . S
C2098 H2089 0.930 . S
C2098 C2096 1.378 . S
C2098 C2099 1.367 . S
C2099 C2098 1.367 . S
C2099 C2101 1.433 . S
C2100 C2096 1.350 . S
C2100 C2097 1.463 . S
C2100 N2104 1.427 . S
C2101 H2091 0.929 . S
C2101 C2099 1.433 . S
C2101 N2104 1.384 . S
C2102 H2093 0.929 . S
C2102 C2094 1.378 . S
C2102 C2097 1.350 . S
C2103 H2090 0.929 . S
C2103 C2095 1.433 . S
C2103 N2105 1.384 . S
N2104 C2100 1.427 . S
N2104 C2101 1.384 . S
N2105 C2097 1.427 . S
N2105 C2103 1.384 . S
H2106 C2112 0.930 . S
H2107 C2116 0.930 . S
H2108 C2121 0.929 . S
H2109 C2119 0.929 . S
H2110 C2114 0.929 . S
H2111 C2120 0.929 . S
C2112 H2106 0.930 . S
C2112 C2113 1.367 . S
C2112 C2120 1.378 . S
C2113 C2112 1.367 . S
C2113 C2121 1.433 . S
C2114 H2110 0.929 . S
C2114 C2116 1.378 . S
C2114 C2118 1.350 . S
C2115 C2118 1.463 . S
C2115 C2120 1.350 . S
C2115 N2123 1.427 . S
C2116 H2107 0.930 . S
C2116 C2114 1.378 . S
C2116 C2117 1.367 . S
C2117 C2116 1.367 . S
C2117 C2119 1.433 . S
C2118 C2114 1.350 . S
C2118 C2115 1.463 . S
C2118 N2122 1.427 . S
C2119 H2109 0.929 . S
C2119 C2117 1.433 . S
C2119 N2122 1.384 . S
C2120 H2111 0.929 . S
C2120 C2112 1.378 . S
C2120 C2115 1.350 . S
C2121 H2108 0.929 . S
C2121 C2113 1.433 . S
C2121 N2123 1.384 . S
N2122 C2118 1.427 . S
N2122 C2119 1.384 . S
N2123 C2115 1.427 . S
N2123 C2121 1.384 . S
H2124 C2130 0.930 . S
H2125 C2134 0.930 . S
H2126 C2139 0.929 . S
H2127 C2137 0.929 . S
H2128 C2132 0.929 . S
H2129 C2138 0.929 . S
C2130 H2124 0.930 . S
C2130 C2131 1.367 . S
C2130 C2138 1.378 . S
C2131 C2130 1.367 . S
C2131 C2139 1.433 . S
C2132 H2128 0.929 . S
C2132 C2134 1.378 . S
C2132 C2136 1.350 . S
C2133 C2136 1.463 . S
C2133 C2138 1.350 . S
C2133 N2141 1.427 . S
C2134 H2125 0.930 . S
C2134 C2132 1.378 . S
C2134 C2135 1.367 . S
C2135 C2134 1.367 . S
C2135 C2137 1.433 . S
C2136 C2132 1.350 . S
C2136 C2133 1.463 . S
C2136 N2140 1.427 . S
C2137 H2127 0.929 . S
C2137 C2135 1.433 . S
C2137 N2140 1.384 . S
C2138 H2129 0.929 . S
C2138 C2130 1.378 . S
C2138 C2133 1.350 . S
C2139 H2126 0.929 . S
C2139 C2131 1.433 . S
C2139 N2141 1.384 . S
N2140 C2136 1.427 . S
N2140 C2137 1.384 . S
N2141 C2133 1.427 . S
N2141 C2139 1.384 . S
H2142 C2148 0.930 . S
H2143 C2152 0.930 . S
H2144 C2157 0.929 . S
H2145 C2155 0.929 . S
H2146 C2150 0.929 . S
H2147 C2156 0.929 . S
C2148 H2142 0.930 . S
C2148 C2149 1.367 . S
C2148 C2156 1.378 . S
C2149 C2148 1.367 . S
C2149 C2157 1.433 . S
C2150 H2146 0.929 . S
C2150 C2152 1.378 . S
C2150 C2154 1.350 . S
C2151 C2154 1.463 . S
C2151 C2156 1.350 . S
C2151 N2159 1.427 . S
C2152 H2143 0.930 . S
C2152 C2150 1.378 . S
C2152 C2153 1.367 . S
C2153 C2152 1.367 . S
C2153 C2155 1.433 . S
C2154 C2150 1.350 . S
C2154 C2151 1.463 . S
C2154 N2158 1.427 . S
C2155 H2145 0.929 . S
C2155 C2153 1.433 . S
C2155 N2158 1.384 . S
C2156 H2147 0.929 . S
C2156 C2148 1.378 . S
C2156 C2151 1.350 . S
C2157 H2144 0.929 . S
C2157 C2149 1.433 . S
C2157 N2159 1.384 . S
N2158 C2154 1.427 . S
N2158 C2155 1.384 . S
N2159 C2151 1.427 . S
N2159 C2157 1.384 . S
H2160 C2166 0.930 . S
H2161 C2170 0.930 . S
H2162 C2175 0.929 . S
H2163 C2173 0.929 . S
H2164 C2168 0.929 . S
H2165 C2174 0.929 . S
C2166 H2160 0.930 . S
C2166 C2167 1.367 . S
C2166 C2174 1.378 . S
C2167 C2166 1.367 . S
C2167 C2175 1.433 . S
C2168 H2164 0.929 . S
C2168 C2170 1.378 . S
C2168 C2172 1.350 . S
C2169 C2172 1.463 . S
C2169 C2174 1.350 . S
C2169 N2177 1.427 . S
C2170 H2161 0.930 . S
C2170 C2168 1.378 . S
C2170 C2171 1.367 . S
C2171 C2170 1.367 . S
C2171 C2173 1.433 . S
C2172 C2168 1.350 . S
C2172 C2169 1.463 . S
C2172 N2176 1.427 . S
C2173 H2163 0.929 . S
C2173 C2171 1.433 . S
C2173 N2176 1.384 . S
C2174 H2165 0.929 . S
C2174 C2166 1.378 . S
C2174 C2169 1.350 . S
C2175 H2162 0.929 . S
C2175 C2167 1.433 . S
C2175 N2177 1.384 . S
N2176 C2172 1.427 . S
N2176 C2173 1.384 . S
N2177 C2169 1.427 . S
N2177 C2175 1.384 . S
H2178 C2184 0.930 . S
H2179 C2188 0.930 . S
H2180 C2193 0.929 . S
H2181 C2191 0.929 . S
H2182 C2186 0.929 . S
H2183 C2192 0.929 . S
C2184 H2178 0.930 . S
C2184 C2185 1.367 . S
C2184 C2192 1.378 . S
C2185 C2184 1.367 . S
C2185 C2193 1.433 . S
C2186 H2182 0.929 . S
C2186 C2188 1.378 . S
C2186 C2190 1.350 . S
C2187 C2190 1.463 . S
C2187 C2192 1.350 . S
C2187 N2195 1.427 . S
C2188 H2179 0.930 . S
C2188 C2186 1.378 . S
C2188 C2189 1.367 . S
C2189 C2188 1.367 . S
C2189 C2191 1.433 . S
C2190 C2186 1.350 . S
C2190 C2187 1.463 . S
C2190 N2194 1.427 . S
C2191 H2181 0.929 . S
C2191 C2189 1.433 . S
C2191 N2194 1.384 . S
C2192 H2183 0.929 . S
C2192 C2184 1.378 . S
C2192 C2187 1.350 . S
C2193 H2180 0.929 . S
C2193 C2185 1.433 . S
C2193 N2195 1.384 . S
N2194 C2190 1.427 . S
N2194 C2191 1.384 . S
N2195 C2187 1.427 . S
N2195 C2193 1.384 . S
H2196 C2202 0.930 . S
H2197 C2206 0.930 . S
H2198 C2211 0.929 . S
H2199 C2209 0.929 . S
H2200 C2204 0.929 . S
H2201 C2210 0.929 . S
C2202 H2196 0.930 . S
C2202 C2203 1.367 . S
C2202 C2210 1.378 . S
C2203 C2202 1.367 . S
C2203 C2211 1.433 . S
C2204 H2200 0.929 . S
C2204 C2206 1.378 . S
C2204 C2208 1.350 . S
C2205 C2208 1.463 . S
C2205 C2210 1.350 . S
C2205 N2213 1.427 . S
C2206 H2197 0.930 . S
C2206 C2204 1.378 . S
C2206 C2207 1.367 . S
C2207 C2206 1.367 . S
C2207 C2209 1.433 . S
C2208 C2204 1.350 . S
C2208 C2205 1.463 . S
C2208 N2212 1.427 . S
C2209 H2199 0.929 . S
C2209 C2207 1.433 . S
C2209 N2212 1.384 . S
C2210 H2201 0.929 . S
C2210 C2202 1.378 . S
C2210 C2205 1.350 . S
C2211 H2198 0.929 . S
C2211 C2203 1.433 . S
C2211 N2213 1.384 . S
N2212 C2208 1.427 . S
N2212 C2209 1.384 . S
N2213 C2205 1.427 . S
N2213 C2211 1.384 . S
H2214 C2220 0.930 . S
H2215 C2224 0.930 . S
H2216 C2229 0.929 . S
H2217 C2227 0.929 . S
H2218 C2222 0.929 . S
H2219 C2228 0.929 . S
C2220 H2214 0.930 . S
C2220 C2221 1.367 . S
C2220 C2228 1.378 . S
C2221 C2220 1.367 . S
C2221 C2229 1.433 . S
C2222 H2218 0.929 . S
C2222 C2224 1.378 . S
C2222 C2226 1.350 . S
C2223 C2226 1.463 . S
C2223 C2228 1.350 . S
C2223 N2231 1.427 . S
C2224 H2215 0.930 . S
C2224 C2222 1.378 . S
C2224 C2225 1.367 . S
C2225 C2224 1.367 . S
C2225 C2227 1.433 . S
C2226 C2222 1.350 . S
C2226 C2223 1.463 . S
C2226 N2230 1.427 . S
C2227 H2217 0.929 . S
C2227 C2225 1.433 . S
C2227 N2230 1.384 . S
C2228 H2219 0.929 . S
C2228 C2220 1.378 . S
C2228 C2223 1.350 . S
C2229 H2216 0.929 . S
C2229 C2221 1.433 . S
C2229 N2231 1.384 . S
N2230 C2226 1.427 . S
N2230 C2227 1.384 . S
N2231 C2223 1.427 . S
N2231 C2229 1.384 . S
H2232 C2238 0.930 . S
H2233 C2242 0.930 . S
H2234 C2247 0.929 . S
H2235 C2245 0.929 . S
H2236 C2240 0.929 . S
H2237 C2246 0.929 . S
C2238 H2232 0.930 . S
C2238 C2239 1.367 . S
C2238 C2246 1.378 . S
C2239 C2238 1.367 . S
C2239 C2247 1.433 . S
C2240 H2236 0.929 . S
C2240 C2242 1.378 . S
C2240 C2244 1.350 . S
C2241 C2244 1.463 . S
C2241 C2246 1.350 . S
C2241 N2249 1.427 . S
C2242 H2233 0.930 . S
C2242 C2240 1.378 . S
C2242 C2243 1.367 . S
C2243 C2242 1.367 . S
C2243 C2245 1.433 . S
C2244 C2240 1.350 . S
C2244 C2241 1.463 . S
C2244 N2248 1.427 . S
C2245 H2235 0.929 . S
C2245 C2243 1.433 . S
C2245 N2248 1.384 . S
C2246 H2237 0.929 . S
C2246 C2238 1.378 . S
C2246 C2241 1.350 . S
C2247 H2234 0.929 . S
C2247 C2239 1.433 . S
C2247 N2249 1.384 . S
N2248 C2244 1.427 . S
N2248 C2245 1.384 . S
N2249 C2241 1.427 . S
N2249 C2247 1.384 . S
H2250 C2256 0.930 . S
H2251 C2260 0.930 . S
H2252 C2265 0.929 . S
H2253 C2263 0.929 . S
H2254 C2258 0.929 . S
H2255 C2264 0.929 . S
C2256 H2250 0.930 . S
C2256 C2257 1.367 . S
C2256 C2264 1.378 . S
C2257 C2256 1.367 . S
C2257 C2265 1.433 . S
C2258 H2254 0.929 . S
C2258 C2260 1.378 . S
C2258 C2262 1.350 . S
C2259 C2262 1.463 . S
C2259 C2264 1.350 . S
C2259 N2267 1.427 . S
C2260 H2251 0.930 . S
C2260 C2258 1.378 . S
C2260 C2261 1.367 . S
C2261 C2260 1.367 . S
C2261 C2263 1.433 . S
C2262 C2258 1.350 . S
C2262 C2259 1.463 . S
C2262 N2266 1.427 . S
C2263 H2253 0.929 . S
C2263 C2261 1.433 . S
C2263 N2266 1.384 . S
C2264 H2255 0.929 . S
C2264 C2256 1.378 . S
C2264 C2259 1.350 . S
C2265 H2252 0.929 . S
C2265 C2257 1.433 . S
C2265 N2267 1.384 . S
N2266 C2262 1.427 . S
N2266 C2263 1.384 . S
N2267 C2259 1.427 . S
N2267 C2265 1.384 . S
H2268 C2274 0.930 . S
H2269 C2278 0.930 . S
H2270 C2283 0.929 . S
H2271 C2281 0.929 . S
H2272 C2276 0.929 . S
H2273 C2282 0.929 . S
C2274 H2268 0.930 . S
C2274 C2275 1.367 . S
C2274 C2282 1.378 . S
C2275 C2274 1.367 . S
C2275 C2283 1.433 . S
C2276 H2272 0.929 . S
C2276 C2278 1.378 . S
C2276 C2280 1.350 . S
C2277 C2280 1.463 . S
C2277 C2282 1.350 . S
C2277 N2285 1.427 . S
C2278 H2269 0.930 . S
C2278 C2276 1.378 . S
C2278 C2279 1.367 . S
C2279 C2278 1.367 . S
C2279 C2281 1.433 . S
C2280 C2276 1.350 . S
C2280 C2277 1.463 . S
C2280 N2284 1.427 . S
C2281 H2271 0.929 . S
C2281 C2279 1.433 . S
C2281 N2284 1.384 . S
C2282 H2273 0.929 . S
C2282 C2274 1.378 . S
C2282 C2277 1.350 . S
C2283 H2270 0.929 . S
C2283 C2275 1.433 . S
C2283 N2285 1.384 . S
N2284 C2280 1.427 . S
N2284 C2281 1.384 . S
N2285 C2277 1.427 . S
N2285 C2283 1.384 . S
H2286 C2292 0.930 . S
H2287 C2296 0.930 . S
H2288 C2301 0.929 . S
H2289 C2299 0.929 . S
H2290 C2294 0.929 . S
H2291 C2300 0.929 . S
C2292 H2286 0.930 . S
C2292 C2293 1.367 . S
C2292 C2300 1.378 . S
C2293 C2292 1.367 . S
C2293 C2301 1.433 . S
C2294 H2290 0.929 . S
C2294 C2296 1.378 . S
C2294 C2298 1.350 . S
C2295 C2298 1.463 . S
C2295 C2300 1.350 . S
C2295 N2303 1.427 . S
C2296 H2287 0.930 . S
C2296 C2294 1.378 . S
C2296 C2297 1.367 . S
C2297 C2296 1.367 . S
C2297 C2299 1.433 . S
C2298 C2294 1.350 . S
C2298 C2295 1.463 . S
C2298 N2302 1.427 . S
C2299 H2289 0.929 . S
C2299 C2297 1.433 . S
C2299 N2302 1.384 . S
C2300 H2291 0.929 . S
C2300 C2292 1.378 . S
C2300 C2295 1.350 . S
C2301 H2288 0.929 . S
C2301 C2293 1.433 . S
C2301 N2303 1.384 . S
N2302 C2298 1.427 . S
N2302 C2299 1.384 . S
N2303 C2295 1.427 . S
N2303 C2301 1.384 . S
H2304 C2310 0.930 . S
H2305 C2314 0.930 . S
H2306 C2319 0.929 . S
H2307 C2317 0.929 . S
H2308 C2312 0.929 . S
H2309 C2318 0.929 . S
C2310 H2304 0.930 . S
C2310 C2311 1.367 . S
C2310 C2318 1.378 . S
C2311 C2310 1.367 . S
C2311 C2319 1.433 . S
C2312 H2308 0.929 . S
C2312 C2314 1.378 . S
C2312 C2316 1.350 . S
C2313 C2316 1.463 . S
C2313 C2318 1.350 . S
C2313 N2321 1.427 . S
C2314 H2305 0.930 . S
C2314 C2312 1.378 . S
C2314 C2315 1.367 . S
C2315 C2314 1.367 . S
C2315 C2317 1.433 . S
C2316 C2312 1.350 . S
C2316 C2313 1.463 . S
C2316 N2320 1.427 . S
C2317 H2307 0.929 . S
C2317 C2315 1.433 . S
C2317 N2320 1.384 . S
C2318 H2309 0.929 . S
C2318 C2310 1.378 . S
C2318 C2313 1.350 . S
C2319 H2306 0.929 . S
C2319 C2311 1.433 . S
C2319 N2321 1.384 . S
N2320 C2316 1.427 . S
N2320 C2317 1.384 . S
N2321 C2313 1.427 . S
N2321 C2319 1.384 . S
H2322 C2328 0.930 . S
H2323 C2332 0.930 . S
H2324 C2337 0.929 . S
H2325 C2335 0.929 . S
H2326 C2330 0.929 . S
H2327 C2336 0.929 . S
C2328 H2322 0.930 . S
C2328 C2329 1.367 . S
C2328 C2336 1.378 . S
C2329 C2328 1.367 . S
C2329 C2337 1.433 . S
C2330 H2326 0.929 . S
C2330 C2332 1.378 . S
C2330 C2334 1.350 . S
C2331 C2334 1.463 . S
C2331 C2336 1.350 . S
C2331 N2339 1.427 . S
C2332 H2323 0.930 . S
C2332 C2330 1.378 . S
C2332 C2333 1.367 . S
C2333 C2332 1.367 . S
C2333 C2335 1.433 . S
C2334 C2330 1.350 . S
C2334 C2331 1.463 . S
C2334 N2338 1.427 . S
C2335 H2325 0.929 . S
C2335 C2333 1.433 . S
C2335 N2338 1.384 . S
C2336 H2327 0.929 . S
C2336 C2328 1.378 . S
C2336 C2331 1.350 . S
C2337 H2324 0.929 . S
C2337 C2329 1.433 . S
C2337 N2339 1.384 . S
N2338 C2334 1.427 . S
N2338 C2335 1.384 . S
N2339 C2331 1.427 . S
N2339 C2337 1.384 . S
H2340 C2346 0.930 . S
H2341 C2350 0.930 . S
H2342 C2355 0.929 . S
H2343 C2353 0.929 . S
H2344 C2348 0.929 . S
H2345 C2354 0.929 . S
C2346 H2340 0.930 . S
C2346 C2347 1.367 . S
C2346 C2354 1.378 . S
C2347 C2346 1.367 . S
C2347 C2355 1.433 . S
C2348 H2344 0.929 . S
C2348 C2350 1.378 . S
C2348 C2352 1.350 . S
C2349 C2352 1.463 . S
C2349 C2354 1.350 . S
C2349 N2357 1.427 . S
C2350 H2341 0.930 . S
C2350 C2348 1.378 . S
C2350 C2351 1.367 . S
C2351 C2350 1.367 . S
C2351 C2353 1.433 . S
C2352 C2348 1.350 . S
C2352 C2349 1.463 . S
C2352 N2356 1.427 . S
C2353 H2343 0.929 . S
C2353 C2351 1.433 . S
C2353 N2356 1.384 . S
C2354 H2345 0.929 . S
C2354 C2346 1.378 . S
C2354 C2349 1.350 . S
C2355 H2342 0.929 . S
C2355 C2347 1.433 . S
C2355 N2357 1.384 . S
N2356 C2352 1.427 . S
N2356 C2353 1.384 . S
N2357 C2349 1.427 . S
N2357 C2355 1.384 . S
H2358 C2364 0.930 . S
H2359 C2368 0.930 . S
H2360 C2373 0.929 . S
H2361 C2371 0.929 . S
H2362 C2366 0.929 . S
H2363 C2372 0.929 . S
C2364 H2358 0.930 . S
C2364 C2365 1.367 . S
C2364 C2372 1.378 . S
C2365 C2364 1.367 . S
C2365 C2373 1.433 . S
C2366 H2362 0.929 . S
C2366 C2368 1.378 . S
C2366 C2370 1.350 . S
C2367 C2370 1.463 . S
C2367 C2372 1.350 . S
C2367 N2375 1.427 . S
C2368 H2359 0.930 . S
C2368 C2366 1.378 . S
C2368 C2369 1.367 . S
C2369 C2368 1.367 . S
C2369 C2371 1.433 . S
C2370 C2366 1.350 . S
C2370 C2367 1.463 . S
C2370 N2374 1.427 . S
C2371 H2361 0.929 . S
C2371 C2369 1.433 . S
C2371 N2374 1.384 . S
C2372 H2363 0.929 . S
C2372 C2364 1.378 . S
C2372 C2367 1.350 . S
C2373 H2360 0.929 . S
C2373 C2365 1.433 . S
C2373 N2375 1.384 . S
N2374 C2370 1.427 . S
N2374 C2371 1.384 . S
N2375 C2367 1.427 . S
N2375 C2373 1.384 . S
H2376 C2382 0.930 . S
H2377 C2386 0.930 . S
H2378 C2391 0.929 . S
H2379 C2389 0.929 . S
H2380 C2384 0.929 . S
H2381 C2390 0.929 . S
C2382 H2376 0.930 . S
C2382 C2383 1.367 . S
C2382 C2390 1.378 . S
C2383 C2382 1.367 . S
C2383 C2391 1.433 . S
C2384 H2380 0.929 . S
C2384 C2386 1.378 . S
C2384 C2388 1.350 . S
C2385 C2388 1.463 . S
C2385 C2390 1.350 . S
C2385 N2393 1.427 . S
C2386 H2377 0.930 . S
C2386 C2384 1.378 . S
C2386 C2387 1.367 . S
C2387 C2386 1.367 . S
C2387 C2389 1.433 . S
C2388 C2384 1.350 . S
C2388 C2385 1.463 . S
C2388 N2392 1.427 . S
C2389 H2379 0.929 . S
C2389 C2387 1.433 . S
C2389 N2392 1.384 . S
C2390 H2381 0.929 . S
C2390 C2382 1.378 . S
C2390 C2385 1.350 . S
C2391 H2378 0.929 . S
C2391 C2383 1.433 . S
C2391 N2393 1.384 . S
N2392 C2388 1.427 . S
N2392 C2389 1.384 . S
N2393 C2385 1.427 . S
N2393 C2391 1.384 . S
H2394 C2400 0.930 . S
H2395 C2404 0.930 . S
H2396 C2409 0.929 . S
H2397 C2407 0.929 . S
H2398 C2402 0.929 . S
H2399 C2408 0.929 . S
C2400 H2394 0.930 . S
C2400 C2401 1.367 . S
C2400 C2408 1.378 . S
C2401 C2400 1.367 . S
C2401 C2409 1.433 . S
C2402 H2398 0.929 . S
C2402 C2404 1.378 . S
C2402 C2406 1.350 . S
C2403 C2406 1.463 . S
C2403 C2408 1.350 . S
C2403 N2411 1.427 . S
C2404 H2395 0.930 . S
C2404 C2402 1.378 . S
C2404 C2405 1.367 . S
C2405 C2404 1.367 . S
C2405 C2407 1.433 . S
C2406 C2402 1.350 . S
C2406 C2403 1.463 . S
C2406 N2410 1.427 . S
C2407 H2397 0.929 . S
C2407 C2405 1.433 . S
C2407 N2410 1.384 . S
C2408 H2399 0.929 . S
C2408 C2400 1.378 . S
C2408 C2403 1.350 . S
C2409 H2396 0.929 . S
C2409 C2401 1.433 . S
C2409 N2411 1.384 . S
N2410 C2406 1.427 . S
N2410 C2407 1.384 . S
N2411 C2403 1.427 . S
N2411 C2409 1.384 . S
H2412 C2418 0.930 . S
H2413 C2422 0.930 . S
H2414 C2427 0.929 . S
H2415 C2425 0.929 . S
H2416 C2420 0.929 . S
H2417 C2426 0.929 . S
C2418 H2412 0.930 . S
C2418 C2419 1.367 . S
C2418 C2426 1.378 . S
C2419 C2418 1.367 . S
C2419 C2427 1.433 . S
C2420 H2416 0.929 . S
C2420 C2422 1.378 . S
C2420 C2424 1.350 . S
C2421 C2424 1.463 . S
C2421 C2426 1.350 . S
C2421 N2429 1.427 . S
C2422 H2413 0.930 . S
C2422 C2420 1.378 . S
C2422 C2423 1.367 . S
C2423 C2422 1.367 . S
C2423 C2425 1.433 . S
C2424 C2420 1.350 . S
C2424 C2421 1.463 . S
C2424 N2428 1.427 . S
C2425 H2415 0.929 . S
C2425 C2423 1.433 . S
C2425 N2428 1.384 . S
C2426 H2417 0.929 . S
C2426 C2418 1.378 . S
C2426 C2421 1.350 . S
C2427 H2414 0.929 . S
C2427 C2419 1.433 . S
C2427 N2429 1.384 . S
N2428 C2424 1.427 . S
N2428 C2425 1.384 . S
N2429 C2421 1.427 . S
N2429 C2427 1.384 . S
H2430 C2436 0.930 . S
H2431 C2440 0.930 . S
H2432 C2445 0.929 . S
H2433 C2443 0.929 . S
H2434 C2438 0.929 . S
H2435 C2444 0.929 . S
C2436 H2430 0.930 . S
C2436 C2437 1.367 . S
C2436 C2444 1.378 . S
C2437 C2436 1.367 . S
C2437 C2445 1.433 . S
C2438 H2434 0.929 . S
C2438 C2440 1.378 . S
C2438 C2442 1.350 . S
C2439 C2442 1.463 . S
C2439 C2444 1.350 . S
C2439 N2447 1.427 . S
C2440 H2431 0.930 . S
C2440 C2438 1.378 . S
C2440 C2441 1.367 . S
C2441 C2440 1.367 . S
C2441 C2443 1.433 . S
C2442 C2438 1.350 . S
C2442 C2439 1.463 . S
C2442 N2446 1.427 . S
C2443 H2433 0.929 . S
C2443 C2441 1.433 . S
C2443 N2446 1.384 . S
C2444 H2435 0.929 . S
C2444 C2436 1.378 . S
C2444 C2439 1.350 . S
C2445 H2432 0.929 . S
C2445 C2437 1.433 . S
C2445 N2447 1.384 . S
N2446 C2442 1.427 . S
N2446 C2443 1.384 . S
N2447 C2439 1.427 . S
N2447 C2445 1.384 . S
H2448 C2454 0.930 . S
H2449 C2458 0.930 . S
H2450 C2463 0.929 . S
H2451 C2461 0.929 . S
H2452 C2456 0.929 . S
H2453 C2462 0.929 . S
C2454 H2448 0.930 . S
C2454 C2455 1.367 . S
C2454 C2462 1.378 . S
C2455 C2454 1.367 . S
C2455 C2463 1.433 . S
C2456 H2452 0.929 . S
C2456 C2458 1.378 . S
C2456 C2460 1.350 . S
C2457 C2460 1.463 . S
C2457 C2462 1.350 . S
C2457 N2465 1.427 . S
C2458 H2449 0.930 . S
C2458 C2456 1.378 . S
C2458 C2459 1.367 . S
C2459 C2458 1.367 . S
C2459 C2461 1.433 . S
C2460 C2456 1.350 . S
C2460 C2457 1.463 . S
C2460 N2464 1.427 . S
C2461 H2451 0.929 . S
C2461 C2459 1.433 . S
C2461 N2464 1.384 . S
C2462 H2453 0.929 . S
C2462 C2454 1.378 . S
C2462 C2457 1.350 . S
C2463 H2450 0.929 . S
C2463 C2455 1.433 . S
C2463 N2465 1.384 . S
N2464 C2460 1.427 . S
N2464 C2461 1.384 . S
N2465 C2457 1.427 . S
N2465 C2463 1.384 . S
H2466 C2472 0.930 . S
H2467 C2476 0.930 . S
H2468 C2481 0.929 . S
H2469 C2479 0.929 . S
H2470 C2474 0.929 . S
H2471 C2480 0.929 . S
C2472 H2466 0.930 . S
C2472 C2473 1.367 . S
C2472 C2480 1.378 . S
C2473 C2472 1.367 . S
C2473 C2481 1.433 . S
C2474 H2470 0.929 . S
C2474 C2476 1.378 . S
C2474 C2478 1.350 . S
C2475 C2478 1.463 . S
C2475 C2480 1.350 . S
C2475 N2483 1.427 . S
C2476 H2467 0.930 . S
C2476 C2474 1.378 . S
C2476 C2477 1.367 . S
C2477 C2476 1.367 . S
C2477 C2479 1.433 . S
C2478 C2474 1.350 . S
C2478 C2475 1.463 . S
C2478 N2482 1.427 . S
C2479 H2469 0.929 . S
C2479 C2477 1.433 . S
C2479 N2482 1.384 . S
C2480 H2471 0.929 . S
C2480 C2472 1.378 . S
C2480 C2475 1.350 . S
C2481 H2468 0.929 . S
C2481 C2473 1.433 . S
C2481 N2483 1.384 . S
N2482 C2478 1.427 . S
N2482 C2479 1.384 . S
N2483 C2475 1.427 . S
N2483 C2481 1.384 . S
H2484 C2490 0.930 . S
H2485 C2494 0.930 . S
H2486 C2499 0.929 . S
H2487 C2497 0.929 . S
H2488 C2492 0.929 . S
H2489 C2498 0.929 . S
C2490 H2484 0.930 . S
C2490 C2491 1.367 . S
C2490 C2498 1.378 . S
C2491 C2490 1.367 . S
C2491 C2499 1.433 . S
C2492 H2488 0.929 . S
C2492 C2494 1.378 . S
C2492 C2496 1.350 . S
C2493 C2496 1.463 . S
C2493 C2498 1.350 . S
C2493 N2501 1.427 . S
C2494 H2485 0.930 . S
C2494 C2492 1.378 . S
C2494 C2495 1.367 . S
C2495 C2494 1.367 . S
C2495 C2497 1.433 . S
C2496 C2492 1.350 . S
C2496 C2493 1.463 . S
C2496 N2500 1.427 . S
C2497 H2487 0.929 . S
C2497 C2495 1.433 . S
C2497 N2500 1.384 . S
C2498 H2489 0.929 . S
C2498 C2490 1.378 . S
C2498 C2493 1.350 . S
C2499 H2486 0.929 . S
C2499 C2491 1.433 . S
C2499 N2501 1.384 . S
N2500 C2496 1.427 . S
N2500 C2497 1.384 . S
N2501 C2493 1.427 . S
N2501 C2499 1.384 . S
H2502 C2508 0.930 . S
H2503 C2512 0.930 . S
H2504 C2517 0.929 . S
H2505 C2515 0.929 . S
H2506 C2510 0.929 . S
H2507 C2516 0.929 . S
C2508 H2502 0.930 . S
C2508 C2509 1.367 . S
C2508 C2516 1.378 . S
C2509 C2508 1.367 . S
C2509 C2517 1.433 . S
C2510 H2506 0.929 . S
C2510 C2512 1.378 . S
C2510 C2514 1.350 . S
C2511 C2514 1.463 . S
C2511 C2516 1.350 . S
C2511 N2519 1.427 . S
C2512 H2503 0.930 . S
C2512 C2510 1.378 . S
C2512 C2513 1.367 . S
C2513 C2512 1.367 . S
C2513 C2515 1.433 . S
C2514 C2510 1.350 . S
C2514 C2511 1.463 . S
C2514 N2518 1.427 . S
C2515 H2505 0.929 . S
C2515 C2513 1.433 . S
C2515 N2518 1.384 . S
C2516 H2507 0.929 . S
C2516 C2508 1.378 . S
C2516 C2511 1.350 . S
C2517 H2504 0.929 . S
C2517 C2509 1.433 . S
C2517 N2519 1.384 . S
N2518 C2514 1.427 . S
N2518 C2515 1.384 . S
N2519 C2511 1.427 . S
N2519 C2517 1.384 . S
H2520 C2526 0.930 . S
H2521 C2530 0.930 . S
H2522 C2535 0.929 . S
H2523 C2533 0.929 . S
H2524 C2528 0.929 . S
H2525 C2534 0.929 . S
C2526 H2520 0.930 . S
C2526 C2527 1.367 . S
C2526 C2534 1.378 . S
C2527 C2526 1.367 . S
C2527 C2535 1.433 . S
C2528 H2524 0.929 . S
C2528 C2530 1.378 . S
C2528 C2532 1.350 . S
C2529 C2532 1.463 . S
C2529 C2534 1.350 1_455 S
C2529 N2537 1.427 1_455 S
C2530 H2521 0.930 . S
C2530 C2528 1.378 . S
C2530 C2531 1.367 . S
C2531 C2530 1.367 . S
C2531 C2533 1.433 . S
C2532 C2528 1.350 . S
C2532 C2529 1.463 . S
C2532 N2536 1.427 . S
C2533 H2523 0.929 . S
C2533 C2531 1.433 . S
C2533 N2536 1.384 . S
C2534 H2525 0.929 . S
C2534 C2526 1.378 . S
C2534 C2529 1.350 1_655 S
C2535 H2522 0.929 . S
C2535 C2527 1.433 . S
C2535 N2537 1.384 . S
N2536 C2532 1.427 . S
N2536 C2533 1.384 . S
N2537 C2529 1.427 1_655 S
N2537 C2535 1.384 . S
H2538 C2544 0.930 . S
H2539 C2548 0.930 . S
H2540 C2553 0.929 . S
H2541 C2551 0.929 . S
H2542 C2546 0.929 . S
H2543 C2552 0.929 . S
C2544 H2538 0.930 . S
C2544 C2545 1.367 . S
C2544 C2552 1.378 . S
C2545 C2544 1.367 . S
C2545 C2553 1.433 . S
C2546 H2542 0.929 . S
C2546 C2548 1.378 . S
C2546 C2550 1.350 . S
C2547 C2550 1.463 . S
C2547 C2552 1.350 . S
C2547 N2555 1.427 . S
C2548 H2539 0.930 . S
C2548 C2546 1.378 . S
C2548 C2549 1.367 . S
C2549 C2548 1.367 . S
C2549 C2551 1.433 . S
C2550 C2546 1.350 . S
C2550 C2547 1.463 . S
C2550 N2554 1.427 . S
C2551 H2541 0.929 . S
C2551 C2549 1.433 . S
C2551 N2554 1.384 . S
C2552 H2543 0.929 . S
C2552 C2544 1.378 . S
C2552 C2547 1.350 . S
C2553 H2540 0.929 . S
C2553 C2545 1.433 . S
C2553 N2555 1.384 . S
N2554 C2550 1.427 . S
N2554 C2551 1.384 . S
N2555 C2547 1.427 . S
N2555 C2553 1.384 . S
H2556 C2562 0.930 . S
H2557 C2566 0.930 . S
H2558 C2571 0.929 . S
H2559 C2569 0.929 . S
H2560 C2564 0.929 . S
H2561 C2570 0.929 . S
C2562 H2556 0.930 . S
C2562 C2563 1.367 . S
C2562 C2570 1.378 . S
C2563 C2562 1.367 . S
C2563 C2571 1.433 . S
C2564 H2560 0.929 . S
C2564 C2566 1.378 . S
C2564 C2568 1.350 . S
C2565 C2568 1.463 . S
C2565 C2570 1.350 . S
C2565 N2573 1.427 . S
C2566 H2557 0.930 . S
C2566 C2564 1.378 . S
C2566 C2567 1.367 . S
C2567 C2566 1.367 . S
C2567 C2569 1.433 . S
C2568 C2564 1.350 . S
C2568 C2565 1.463 . S
C2568 N2572 1.427 . S
C2569 H2559 0.929 . S
C2569 C2567 1.433 . S
C2569 N2572 1.384 . S
C2570 H2561 0.929 . S
C2570 C2562 1.378 . S
C2570 C2565 1.350 . S
C2571 H2558 0.929 . S
C2571 C2563 1.433 . S
C2571 N2573 1.384 . S
N2572 C2568 1.427 . S
N2572 C2569 1.384 . S
N2573 C2565 1.427 . S
N2573 C2571 1.384 . S
H2574 C2580 0.930 . S
H2575 C2584 0.930 . S
H2576 C2589 0.924 1_554 S
H2577 C2587 0.929 . S
H2578 C2582 0.929 . S
H2579 C2588 0.929 . S
C2580 H2574 0.930 . S
C2580 C2581 1.367 . S
C2580 C2588 1.378 . S
C2581 C2580 1.367 . S
C2581 C2589 1.433 . S
C2582 H2578 0.929 . S
C2582 C2584 1.378 . S
C2582 C2586 1.350 . S
C2583 C2586 1.463 . S
C2583 C2588 1.350 . S
C2583 N2591 1.427 . S
C2584 H2575 0.930 . S
C2584 C2582 1.378 . S
C2584 C2585 1.367 . S
C2585 C2584 1.367 . S
C2585 C2587 1.433 . S
C2586 C2582 1.350 . S
C2586 C2583 1.463 . S
C2586 N2590 1.427 . S
C2587 H2577 0.929 . S
C2587 C2585 1.433 . S
C2587 N2590 1.384 . S
C2588 H2579 0.929 . S
C2588 C2580 1.378 . S
C2588 C2583 1.350 . S
C2589 H2576 0.924 1_556 S
C2589 C2581 1.433 . S
C2589 N2591 1.384 . S
N2590 C2586 1.427 . S
N2590 C2587 1.384 . S
N2591 C2583 1.427 . S
N2591 C2589 1.384 . S
H2592 C2598 0.930 . S
H2593 C2602 0.930 . S
H2594 C2607 0.929 . S
H2595 C2605 0.929 . S
H2596 C2600 0.929 . S
H2597 C2606 0.929 . S
C2598 H2592 0.930 . S
C2598 C2599 1.367 . S
C2598 C2606 1.378 . S
C2599 C2598 1.367 . S
C2599 C2607 1.433 . S
C2600 H2596 0.929 . S
C2600 C2602 1.378 . S
C2600 C2604 1.350 . S
C2601 C2604 1.463 . S
C2601 C2606 1.350 . S
C2601 N2609 1.427 . S
C2602 H2593 0.930 . S
C2602 C2600 1.378 . S
C2602 C2603 1.367 . S
C2603 C2602 1.367 . S
C2603 C2605 1.433 . S
C2604 C2600 1.350 . S
C2604 C2601 1.463 . S
C2604 N2608 1.427 . S
C2605 H2595 0.929 . S
C2605 C2603 1.433 . S
C2605 N2608 1.384 . S
C2606 H2597 0.929 . S
C2606 C2598 1.378 . S
C2606 C2601 1.350 . S
C2607 H2594 0.929 . S
C2607 C2599 1.433 . S
C2607 N2609 1.384 . S
N2608 C2604 1.427 . S
N2608 C2605 1.384 . S
N2609 C2601 1.427 . S
N2609 C2607 1.384 . S
H2610 C2616 0.930 . S
H2611 C2620 0.930 . S
H2612 C2625 0.929 . S
H2613 C2623 0.929 . S
H2614 C2618 0.929 . S
H2615 C2624 0.929 . S
C2616 H2610 0.930 . S
C2616 C2617 1.367 . S
C2616 C2624 1.378 . S
C2617 C2616 1.367 . S
C2617 C2625 1.433 . S
C2618 H2614 0.929 . S
C2618 C2620 1.378 . S
C2618 C2622 1.350 . S
C2619 C2622 1.463 . S
C2619 C2624 1.350 . S
C2619 N2627 1.427 . S
C2620 H2611 0.930 . S
C2620 C2618 1.378 . S
C2620 C2621 1.367 . S
C2621 C2620 1.367 . S
C2621 C2623 1.433 . S
C2622 C2618 1.350 . S
C2622 C2619 1.463 . S
C2622 N2626 1.427 . S
C2623 H2613 0.929 . S
C2623 C2621 1.433 . S
C2623 N2626 1.384 . S
C2624 H2615 0.929 . S
C2624 C2616 1.378 . S
C2624 C2619 1.350 . S
C2625 H2612 0.929 . S
C2625 C2617 1.433 . S
C2625 N2627 1.384 . S
N2626 C2622 1.427 . S
N2626 C2623 1.384 . S
N2627 C2619 1.427 . S
N2627 C2625 1.384 . S
H2628 C2634 0.930 . S
H2629 C2638 0.930 . S
H2630 C2643 0.929 . S
H2631 C2641 0.929 . S
H2632 C2636 0.929 . S
H2633 C2642 0.929 . S
C2634 H2628 0.930 . S
C2634 C2635 1.367 . S
C2634 C2642 1.378 . S
C2635 C2634 1.367 . S
C2635 C2643 1.433 . S
C2636 H2632 0.929 . S
C2636 C2638 1.378 . S
C2636 C2640 1.350 . S
C2637 C2640 1.463 . S
C2637 C2642 1.350 . S
C2637 N2645 1.427 . S
C2638 H2629 0.930 . S
C2638 C2636 1.378 . S
C2638 C2639 1.367 . S
C2639 C2638 1.367 . S
C2639 C2641 1.433 . S
C2640 C2636 1.350 . S
C2640 C2637 1.463 . S
C2640 N2644 1.427 . S
C2641 H2631 0.929 . S
C2641 C2639 1.433 . S
C2641 N2644 1.384 . S
C2642 H2633 0.929 . S
C2642 C2634 1.378 . S
C2642 C2637 1.350 . S
C2643 H2630 0.929 . S
C2643 C2635 1.433 . S
C2643 N2645 1.384 . S
N2644 C2640 1.427 . S
N2644 C2641 1.384 . S
N2645 C2637 1.427 . S
N2645 C2643 1.384 . S
H2646 C2652 0.930 . S
H2647 C2656 0.930 . S
H2648 C2661 0.929 . S
H2649 C2659 0.929 . S
H2650 C2654 0.929 . S
H2651 C2660 0.929 . S
C2652 H2646 0.930 . S
C2652 C2653 1.367 . S
C2652 C2660 1.378 . S
C2653 C2652 1.367 . S
C2653 C2661 1.433 . S
C2654 H2650 0.929 . S
C2654 C2656 1.378 . S
C2654 C2658 1.350 . S
C2655 C2658 1.463 . S
C2655 C2660 1.350 . S
C2655 N2663 1.427 . S
C2656 H2647 0.930 . S
C2656 C2654 1.378 . S
C2656 C2657 1.367 . S
C2657 C2656 1.367 . S
C2657 C2659 1.433 . S
C2658 C2654 1.350 . S
C2658 C2655 1.463 . S
C2658 N2662 1.427 . S
C2659 H2649 0.929 . S
C2659 C2657 1.433 . S
C2659 N2662 1.384 . S
C2660 H2651 0.929 . S
C2660 C2652 1.378 . S
C2660 C2655 1.350 . S
C2661 H2648 0.929 . S
C2661 C2653 1.433 . S
C2661 N2663 1.384 . S
N2662 C2658 1.427 . S
N2662 C2659 1.384 . S
N2663 C2655 1.427 . S
N2663 C2661 1.384 . S
H2664 C2670 0.930 . S
H2665 C2674 0.930 . S
H2666 C2679 0.929 . S
H2667 C2677 0.929 . S
H2668 C2672 0.929 . S
H2669 C2678 0.929 . S
C2670 H2664 0.930 . S
C2670 C2671 1.367 . S
C2670 C2678 1.378 . S
C2671 C2670 1.367 . S
C2671 C2679 1.433 . S
C2672 H2668 0.929 . S
C2672 C2674 1.378 . S
C2672 C2676 1.350 . S
C2673 C2676 1.463 . S
C2673 C2678 1.350 . S
C2673 N2681 1.427 . S
C2674 H2665 0.930 . S
C2674 C2672 1.378 . S
C2674 C2675 1.367 . S
C2675 C2674 1.367 . S
C2675 C2677 1.433 . S
C2676 C2672 1.350 . S
C2676 C2673 1.463 . S
C2676 N2680 1.427 . S
C2677 H2667 0.929 . S
C2677 C2675 1.433 . S
C2677 N2680 1.384 . S
C2678 H2669 0.929 . S
C2678 C2670 1.378 . S
C2678 C2673 1.350 . S
C2679 H2666 0.929 . S
C2679 C2671 1.433 . S
C2679 N2681 1.384 . S
N2680 C2676 1.427 . S
N2680 C2677 1.384 . S
N2681 C2673 1.427 . S
N2681 C2679 1.384 . S
H2682 C2688 0.930 . S
H2683 C2692 0.930 . S
H2684 C2697 0.929 . S
H2685 C2695 0.929 . S
H2686 C2690 0.929 . S
H2687 C2696 0.929 . S
C2688 H2682 0.930 . S
C2688 C2689 1.367 . S
C2688 C2696 1.378 . S
C2689 C2688 1.367 . S
C2689 C2697 1.433 . S
C2690 H2686 0.929 . S
C2690 C2692 1.378 . S
C2690 C2694 1.350 . S
C2691 C2694 1.463 . S
C2691 C2696 1.350 . S
C2691 N2699 1.427 . S
C2692 H2683 0.930 . S
C2692 C2690 1.378 . S
C2692 C2693 1.367 . S
C2693 C2692 1.367 . S
C2693 C2695 1.433 . S
C2694 C2690 1.350 . S
C2694 C2691 1.463 . S
C2694 N2698 1.427 . S
C2695 H2685 0.929 . S
C2695 C2693 1.433 . S
C2695 N2698 1.384 . S
C2696 H2687 0.929 . S
C2696 C2688 1.378 . S
C2696 C2691 1.350 . S
C2697 H2684 0.929 . S
C2697 C2689 1.433 . S
C2697 N2699 1.384 . S
N2698 C2694 1.427 . S
N2698 C2695 1.384 . S
N2699 C2691 1.427 . S
N2699 C2697 1.384 . S
H2700 C2706 0.930 . S
H2701 C2710 0.930 . S
H2702 C2715 0.929 . S
H2703 C2713 0.929 . S
H2704 C2708 0.929 . S
H2705 C2714 0.929 . S
C2706 H2700 0.930 . S
C2706 C2707 1.367 . S
C2706 C2714 1.378 . S
C2707 C2706 1.367 . S
C2707 C2715 1.433 . S
C2708 H2704 0.929 . S
C2708 C2710 1.378 . S
C2708 C2712 1.350 . S
C2709 C2712 1.463 . S
C2709 C2714 1.350 . S
C2709 N2717 1.427 . S
C2710 H2701 0.930 . S
C2710 C2708 1.378 . S
C2710 C2711 1.367 . S
C2711 C2710 1.367 . S
C2711 C2713 1.433 . S
C2712 C2708 1.350 . S
C2712 C2709 1.463 . S
C2712 N2716 1.427 . S
C2713 H2703 0.929 . S
C2713 C2711 1.433 . S
C2713 N2716 1.384 . S
C2714 H2705 0.929 . S
C2714 C2706 1.378 . S
C2714 C2709 1.350 . S
C2715 H2702 0.929 . S
C2715 C2707 1.433 . S
C2715 N2717 1.384 . S
N2716 C2712 1.427 . S
N2716 C2713 1.384 . S
N2717 C2709 1.427 . S
N2717 C2715 1.384 . S
H2718 C2724 0.930 . S
H2719 C2728 0.930 . S
H2720 C2733 0.929 . S
H2721 C2731 0.929 . S
H2722 C2726 0.929 . S
H2723 C2732 0.929 . S
C2724 H2718 0.930 . S
C2724 C2725 1.367 . S
C2724 C2732 1.378 . S
C2725 C2724 1.367 . S
C2725 C2733 1.433 . S
C2726 H2722 0.929 . S
C2726 C2728 1.378 . S
C2726 C2730 1.350 . S
C2727 C2730 1.463 . S
C2727 C2732 1.350 . S
C2727 N2735 1.427 . S
C2728 H2719 0.930 . S
C2728 C2726 1.378 . S
C2728 C2729 1.367 . S
C2729 C2728 1.367 . S
C2729 C2731 1.433 . S
C2730 C2726 1.350 . S
C2730 C2727 1.463 . S
C2730 N2734 1.427 . S
C2731 H2721 0.929 . S
C2731 C2729 1.433 . S
C2731 N2734 1.384 . S
C2732 H2723 0.929 . S
C2732 C2724 1.378 . S
C2732 C2727 1.350 . S
C2733 H2720 0.929 . S
C2733 C2725 1.433 . S
C2733 N2735 1.384 . S
N2734 C2730 1.427 . S
N2734 C2731 1.384 . S
N2735 C2727 1.427 . S
N2735 C2733 1.384 . S
H2736 C2742 0.930 . S
H2737 C2746 0.930 . S
H2738 C2751 0.929 . S
H2739 C2749 0.929 . S
H2740 C2744 0.929 . S
H2741 C2750 0.929 . S
C2742 H2736 0.930 . S
C2742 C2743 1.367 . S
C2742 C2750 1.378 . S
C2743 C2742 1.367 . S
C2743 C2751 1.433 . S
C2744 H2740 0.929 . S
C2744 C2746 1.378 . S
C2744 C2748 1.350 . S
C2745 C2748 1.463 . S
C2745 C2750 1.350 . S
C2745 N2753 1.427 . S
C2746 H2737 0.930 . S
C2746 C2744 1.378 . S
C2746 C2747 1.367 . S
C2747 C2746 1.367 . S
C2747 C2749 1.433 . S
C2748 C2744 1.350 . S
C2748 C2745 1.463 . S
C2748 N2752 1.427 . S
C2749 H2739 0.929 . S
C2749 C2747 1.433 . S
C2749 N2752 1.384 . S
C2750 H2741 0.929 . S
C2750 C2742 1.378 . S
C2750 C2745 1.350 . S
C2751 H2738 0.929 . S
C2751 C2743 1.433 . S
C2751 N2753 1.384 . S
N2752 C2748 1.427 . S
N2752 C2749 1.384 . S
N2753 C2745 1.427 . S
N2753 C2751 1.384 . S
H2754 C2760 0.930 . S
H2755 C2764 0.930 . S
H2756 C2769 0.929 . S
H2757 C2767 0.929 . S
H2758 C2762 0.929 . S
H2759 C2768 0.929 . S
C2760 H2754 0.930 . S
C2760 C2761 1.367 . S
C2760 C2768 1.378 . S
C2761 C2760 1.367 . S
C2761 C2769 1.433 . S
C2762 H2758 0.929 . S
C2762 C2764 1.378 . S
C2762 C2766 1.350 . S
C2763 C2766 1.463 . S
C2763 C2768 1.350 . S
C2763 N2771 1.427 . S
C2764 H2755 0.930 . S
C2764 C2762 1.378 . S
C2764 C2765 1.367 . S
C2765 C2764 1.367 . S
C2765 C2767 1.433 . S
C2766 C2762 1.350 . S
C2766 C2763 1.463 . S
C2766 N2770 1.427 . S
C2767 H2757 0.929 . S
C2767 C2765 1.433 . S
C2767 N2770 1.384 . S
C2768 H2759 0.929 . S
C2768 C2760 1.378 . S
C2768 C2763 1.350 . S
C2769 H2756 0.929 . S
C2769 C2761 1.433 . S
C2769 N2771 1.384 . S
N2770 C2766 1.427 . S
N2770 C2767 1.384 . S
N2771 C2763 1.427 . S
N2771 C2769 1.384 . S
H2772 C2778 0.930 . S
H2773 C2782 0.930 . S
H2774 C2787 0.929 . S
H2775 C2785 0.929 . S
H2776 C2780 0.929 . S
H2777 C2786 0.929 . S
C2778 H2772 0.930 . S
C2778 C2779 1.367 . S
C2778 C2786 1.378 . S
C2779 C2778 1.367 . S
C2779 C2787 1.433 . S
C2780 H2776 0.929 . S
C2780 C2782 1.378 . S
C2780 C2784 1.350 . S
C2781 C2784 1.463 . S
C2781 C2786 1.350 . S
C2781 N2789 1.427 . S
C2782 H2773 0.930 . S
C2782 C2780 1.378 . S
C2782 C2783 1.367 . S
C2783 C2782 1.367 . S
C2783 C2785 1.433 . S
C2784 C2780 1.350 . S
C2784 C2781 1.463 . S
C2784 N2788 1.427 . S
C2785 H2775 0.929 . S
C2785 C2783 1.433 . S
C2785 N2788 1.384 . S
C2786 H2777 0.929 . S
C2786 C2778 1.378 . S
C2786 C2781 1.350 . S
C2787 H2774 0.929 . S
C2787 C2779 1.433 . S
C2787 N2789 1.384 . S
N2788 C2784 1.427 . S
N2788 C2785 1.384 . S
N2789 C2781 1.427 . S
N2789 C2787 1.384 . S
H2790 C2796 0.930 . S
H2791 C2800 0.930 . S
H2792 C2805 0.929 . S
H2793 C2803 0.929 . S
H2794 C2798 0.929 . S
H2795 C2804 0.929 . S
C2796 H2790 0.930 . S
C2796 C2797 1.367 . S
C2796 C2804 1.378 . S
C2797 C2796 1.367 . S
C2797 C2805 1.433 . S
C2798 H2794 0.929 . S
C2798 C2800 1.378 . S
C2798 C2802 1.350 . S
C2799 C2802 1.463 . S
C2799 C2804 1.350 . S
C2799 N2807 1.427 . S
C2800 H2791 0.930 . S
C2800 C2798 1.378 . S
C2800 C2801 1.367 . S
C2801 C2800 1.367 . S
C2801 C2803 1.433 . S
C2802 C2798 1.350 . S
C2802 C2799 1.463 . S
C2802 N2806 1.427 . S
C2803 H2793 0.929 . S
C2803 C2801 1.433 . S
C2803 N2806 1.384 . S
C2804 H2795 0.929 . S
C2804 C2796 1.378 . S
C2804 C2799 1.350 . S
C2805 H2792 0.929 . S
C2805 C2797 1.433 . S
C2805 N2807 1.384 . S
N2806 C2802 1.427 . S
N2806 C2803 1.384 . S
N2807 C2799 1.427 . S
N2807 C2805 1.384 . S
H2808 C2814 0.930 . S
H2809 C2818 0.930 . S
H2810 C2823 0.929 . S
H2811 C2821 0.929 . S
H2812 C2816 0.929 . S
H2813 C2822 0.929 . S
C2814 H2808 0.930 . S
C2814 C2815 1.367 . S
C2814 C2822 1.378 . S
C2815 C2814 1.367 . S
C2815 C2823 1.433 . S
C2816 H2812 0.929 . S
C2816 C2818 1.378 . S
C2816 C2820 1.350 . S
C2817 C2820 1.463 . S
C2817 C2822 1.350 . S
C2817 N2825 1.427 . S
C2818 H2809 0.930 . S
C2818 C2816 1.378 . S
C2818 C2819 1.367 . S
C2819 C2818 1.367 . S
C2819 C2821 1.433 . S
C2820 C2816 1.350 . S
C2820 C2817 1.463 . S
C2820 N2824 1.427 . S
C2821 H2811 0.929 . S
C2821 C2819 1.433 . S
C2821 N2824 1.384 . S
C2822 H2813 0.929 . S
C2822 C2814 1.378 . S
C2822 C2817 1.350 . S
C2823 H2810 0.929 . S
C2823 C2815 1.433 . S
C2823 N2825 1.384 . S
N2824 C2820 1.427 . S
N2824 C2821 1.384 . S
N2825 C2817 1.427 . S
N2825 C2823 1.384 . S
H2826 C2832 0.930 . S
H2827 C2836 0.930 . S
H2828 C2841 0.929 . S
H2829 C2839 0.929 . S
H2830 C2834 0.929 . S
H2831 C2840 0.929 . S
C2832 H2826 0.930 . S
C2832 C2833 1.367 . S
C2832 C2840 1.378 . S
C2833 C2832 1.367 . S
C2833 C2841 1.433 . S
C2834 H2830 0.929 . S
C2834 C2836 1.378 . S
C2834 C2838 1.350 . S
C2835 C2838 1.463 . S
C2835 C2840 1.350 . S
C2835 N2843 1.427 . S
C2836 H2827 0.930 . S
C2836 C2834 1.378 . S
C2836 C2837 1.367 . S
C2837 C2836 1.367 . S
C2837 C2839 1.433 . S
C2838 C2834 1.350 . S
C2838 C2835 1.463 . S
C2838 N2842 1.427 . S
C2839 H2829 0.929 . S
C2839 C2837 1.433 . S
C2839 N2842 1.384 . S
C2840 H2831 0.929 . S
C2840 C2832 1.378 . S
C2840 C2835 1.350 . S
C2841 H2828 0.929 . S
C2841 C2833 1.433 . S
C2841 N2843 1.384 . S
N2842 C2838 1.427 . S
N2842 C2839 1.384 . S
N2843 C2835 1.427 . S
N2843 C2841 1.384 . S
H2844 C2850 0.930 . S
H2845 C2854 0.930 . S
H2846 C2859 0.929 . S
H2847 C2857 0.929 . S
H2848 C2852 0.929 . S
H2849 C2858 0.929 . S
C2850 H2844 0.930 . S
C2850 C2851 1.367 . S
C2850 C2858 1.378 . S
C2851 C2850 1.367 . S
C2851 C2859 1.433 . S
C2852 H2848 0.929 . S
C2852 C2854 1.378 . S
C2852 C2856 1.350 . S
C2853 C2856 1.463 . S
C2853 C2858 1.350 . S
C2853 N2861 1.427 . S
C2854 H2845 0.930 . S
C2854 C2852 1.378 . S
C2854 C2855 1.367 . S
C2855 C2854 1.367 . S
C2855 C2857 1.433 . S
C2856 C2852 1.350 . S
C2856 C2853 1.463 . S
C2856 N2860 1.427 . S
C2857 H2847 0.929 . S
C2857 C2855 1.433 . S
C2857 N2860 1.384 . S
C2858 H2849 0.929 . S
C2858 C2850 1.378 . S
C2858 C2853 1.350 . S
C2859 H2846 0.929 . S
C2859 C2851 1.433 . S
C2859 N2861 1.384 . S
N2860 C2856 1.427 . S
N2860 C2857 1.384 . S
N2861 C2853 1.427 . S
N2861 C2859 1.384 . S
H2862 C2868 0.930 . S
H2863 C2872 0.930 . S
H2864 C2877 0.929 . S
H2865 C2875 0.929 . S
H2866 C2870 0.929 . S
H2867 C2876 0.929 . S
C2868 H2862 0.930 . S
C2868 C2869 1.367 . S
C2868 C2876 1.378 . S
C2869 C2868 1.367 . S
C2869 C2877 1.433 . S
C2870 H2866 0.929 . S
C2870 C2872 1.378 . S
C2870 C2874 1.350 . S
C2871 C2874 1.463 . S
C2871 C2876 1.350 . S
C2871 N2879 1.427 . S
C2872 H2863 0.930 . S
C2872 C2870 1.378 . S
C2872 C2873 1.367 . S
C2873 C2872 1.367 . S
C2873 C2875 1.433 . S
C2874 C2870 1.350 . S
C2874 C2871 1.463 . S
C2874 N2878 1.427 . S
C2875 H2865 0.929 . S
C2875 C2873 1.433 . S
C2875 N2878 1.384 . S
C2876 H2867 0.929 . S
C2876 C2868 1.378 . S
C2876 C2871 1.350 . S
C2877 H2864 0.929 . S
C2877 C2869 1.433 . S
C2877 N2879 1.384 . S
N2878 C2874 1.427 . S
N2878 C2875 1.384 . S
N2879 C2871 1.427 . S
N2879 C2877 1.384 . S
H2880 C2886 0.930 . S
H2881 C2890 0.930 . S
H2882 C2895 0.929 . S
H2883 C2893 0.929 . S
H2884 C2888 0.929 . S
H2885 C2894 0.929 . S
C2886 H2880 0.930 . S
C2886 C2887 1.367 . S
C2886 C2894 1.378 . S
C2887 C2886 1.367 . S
C2887 C2895 1.433 . S
C2888 H2884 0.929 . S
C2888 C2890 1.378 . S
C2888 C2892 1.350 . S
C2889 C2892 1.463 . S
C2889 C2894 1.350 . S
C2889 N2897 1.427 . S
C2890 H2881 0.930 . S
C2890 C2888 1.378 . S
C2890 C2891 1.367 . S
C2891 C2890 1.367 . S
C2891 C2893 1.433 . S
C2892 C2888 1.350 . S
C2892 C2889 1.463 . S
C2892 N2896 1.427 . S
C2893 H2883 0.929 . S
C2893 C2891 1.433 . S
C2893 N2896 1.384 . S
C2894 H2885 0.929 . S
C2894 C2886 1.378 . S
C2894 C2889 1.350 . S
C2895 H2882 0.929 . S
C2895 C2887 1.433 . S
C2895 N2897 1.384 . S
N2896 C2892 1.427 . S
N2896 C2893 1.384 . S
N2897 C2889 1.427 . S
N2897 C2895 1.384 . S
H2898 C2904 0.930 . S
H2899 C2908 0.930 . S
H2900 C2913 0.929 . S
H2901 C2911 0.929 . S
H2902 C2906 0.929 . S
H2903 C2912 0.929 . S
C2904 H2898 0.930 . S
C2904 C2905 1.367 . S
C2904 C2912 1.378 . S
C2905 C2904 1.367 . S
C2905 C2913 1.433 . S
C2906 H2902 0.929 . S
C2906 C2908 1.378 . S
C2906 C2910 1.350 . S
C2907 C2910 1.463 . S
C2907 C2912 1.350 . S
C2907 N2915 1.427 . S
C2908 H2899 0.930 . S
C2908 C2906 1.378 . S
C2908 C2909 1.367 . S
C2909 C2908 1.367 . S
C2909 C2911 1.433 . S
C2910 C2906 1.350 . S
C2910 C2907 1.463 . S
C2910 N2914 1.427 . S
C2911 H2901 0.929 . S
C2911 C2909 1.433 . S
C2911 N2914 1.384 . S
C2912 H2903 0.929 . S
C2912 C2904 1.378 . S
C2912 C2907 1.350 . S
C2913 H2900 0.929 . S
C2913 C2905 1.433 . S
C2913 N2915 1.384 . S
N2914 C2910 1.427 . S
N2914 C2911 1.384 . S
N2915 C2907 1.427 . S
N2915 C2913 1.384 . S
H2916 C2922 0.930 . S
H2917 C2926 0.930 . S
H2918 C2931 0.929 . S
H2919 C2929 0.929 . S
H2920 C2924 0.929 . S
H2921 C2930 0.929 . S
C2922 H2916 0.930 . S
C2922 C2923 1.367 . S
C2922 C2930 1.378 . S
C2923 C2922 1.367 . S
C2923 C2931 1.433 . S
C2924 H2920 0.929 . S
C2924 C2926 1.378 . S
C2924 C2928 1.350 . S
C2925 C2928 1.463 . S
C2925 C2930 1.350 . S
C2925 N2933 1.427 . S
C2926 H2917 0.930 . S
C2926 C2924 1.378 . S
C2926 C2927 1.367 . S
C2927 C2926 1.367 . S
C2927 C2929 1.433 . S
C2928 C2924 1.350 . S
C2928 C2925 1.463 . S
C2928 N2932 1.427 . S
C2929 H2919 0.929 . S
C2929 C2927 1.433 . S
C2929 N2932 1.384 . S
C2930 H2921 0.929 . S
C2930 C2922 1.378 . S
C2930 C2925 1.350 . S
C2931 H2918 0.929 . S
C2931 C2923 1.433 . S
C2931 N2933 1.384 . S
N2932 C2928 1.427 . S
N2932 C2929 1.384 . S
N2933 C2925 1.427 . S
N2933 C2931 1.384 . S
H2934 C2940 0.930 . S
H2935 C2944 0.930 . S
H2936 C2949 0.929 . S
H2937 C2947 0.929 . S
H2938 C2942 0.929 . S
H2939 C2948 0.929 . S
C2940 H2934 0.930 . S
C2940 C2941 1.367 . S
C2940 C2948 1.378 . S
C2941 C2940 1.367 . S
C2941 C2949 1.433 . S
C2942 H2938 0.929 . S
C2942 C2944 1.378 . S
C2942 C2946 1.350 . S
C2943 C2946 1.463 . S
C2943 C2948 1.350 . S
C2943 N2951 1.427 . S
C2944 H2935 0.930 . S
C2944 C2942 1.378 . S
C2944 C2945 1.367 . S
C2945 C2944 1.367 . S
C2945 C2947 1.433 . S
C2946 C2942 1.350 . S
C2946 C2943 1.463 . S
C2946 N2950 1.427 . S
C2947 H2937 0.929 . S
C2947 C2945 1.433 . S
C2947 N2950 1.384 . S
C2948 H2939 0.929 . S
C2948 C2940 1.378 . S
C2948 C2943 1.350 . S
C2949 H2936 0.929 . S
C2949 C2941 1.433 . S
C2949 N2951 1.384 . S
N2950 C2946 1.427 . S
N2950 C2947 1.384 . S
N2951 C2943 1.427 . S
N2951 C2949 1.384 . S
H2952 C2958 0.930 . S
H2953 C2962 0.930 . S
H2954 C2967 0.929 . S
H2955 C2965 0.929 . S
H2956 C2960 0.929 . S
H2957 C2966 0.929 . S
C2958 H2952 0.930 . S
C2958 C2959 1.367 . S
C2958 C2966 1.378 . S
C2959 C2958 1.367 . S
C2959 C2967 1.433 . S
C2960 H2956 0.929 . S
C2960 C2962 1.378 . S
C2960 C2964 1.350 . S
C2961 C2964 1.463 . S
C2961 C2966 1.350 1_655 S
C2961 N2969 1.427 . S
C2962 H2953 0.930 . S
C2962 C2960 1.378 . S
C2962 C2963 1.367 . S
C2963 C2962 1.367 . S
C2963 C2965 1.433 . S
C2964 C2960 1.350 . S
C2964 C2961 1.463 . S
C2964 N2968 1.427 . S
C2965 H2955 0.929 . S
C2965 C2963 1.433 . S
C2965 N2968 1.384 . S
C2966 H2957 0.929 . S
C2966 C2958 1.378 . S
C2966 C2961 1.350 1_455 S
C2967 H2954 0.929 . S
C2967 C2959 1.433 . S
C2967 N2969 1.384 1_455 S
N2968 C2964 1.427 . S
N2968 C2965 1.384 . S
N2969 C2961 1.427 . S
N2969 C2967 1.384 1_655 S
H2970 C2976 0.930 . S
H2971 C2980 0.930 . S
H2972 C2985 0.929 . S
H2973 C2983 0.929 . S
H2974 C2978 0.929 . S
H2975 C2984 0.929 . S
C2976 H2970 0.930 . S
C2976 C2977 1.367 . S
C2976 C2984 1.378 . S
C2977 C2976 1.367 . S
C2977 C2985 1.433 . S
C2978 H2974 0.929 . S
C2978 C2980 1.378 . S
C2978 C2982 1.350 . S
C2979 C2982 1.463 . S
C2979 C2984 1.350 . S
C2979 N2987 1.427 . S
C2980 H2971 0.930 . S
C2980 C2978 1.378 . S
C2980 C2981 1.367 . S
C2981 C2980 1.367 . S
C2981 C2983 1.433 . S
C2982 C2978 1.350 . S
C2982 C2979 1.463 . S
C2982 N2986 1.427 . S
C2983 H2973 0.929 . S
C2983 C2981 1.433 . S
C2983 N2986 1.384 . S
C2984 H2975 0.929 . S
C2984 C2976 1.378 . S
C2984 C2979 1.350 . S
C2985 H2972 0.929 . S
C2985 C2977 1.433 . S
C2985 N2987 1.384 . S
N2986 C2982 1.427 . S
N2986 C2983 1.384 . S
N2987 C2979 1.427 . S
N2987 C2985 1.384 . S
H2988 C2994 0.930 . S
H2989 C2998 0.930 . S
H2990 C3003 0.929 . S
H2991 C3001 0.929 . S
H2992 C2996 0.929 . S
H2993 C3002 0.929 . S
C2994 H2988 0.930 . S
C2994 C2995 1.367 . S
C2994 C3002 1.378 . S
C2995 C2994 1.367 . S
C2995 C3003 1.433 . S
C2996 H2992 0.929 . S
C2996 C2998 1.378 . S
C2996 C3000 1.350 . S
C2997 C3000 1.463 . S
C2997 C3002 1.350 . S
C2997 N3005 1.427 . S
C2998 H2989 0.930 . S
C2998 C2996 1.378 . S
C2998 C2999 1.367 . S
C2999 C2998 1.367 . S
C2999 C3001 1.433 . S
C3000 C2996 1.350 . S
C3000 C2997 1.463 . S
C3000 N3004 1.427 . S
C3001 H2991 0.929 . S
C3001 C2999 1.433 . S
C3001 N3004 1.384 . S
C3002 H2993 0.929 . S
C3002 C2994 1.378 . S
C3002 C2997 1.350 . S
C3003 H2990 0.929 . S
C3003 C2995 1.433 . S
C3003 N3005 1.384 . S
N3004 C3000 1.427 . S
N3004 C3001 1.384 . S
N3005 C2997 1.427 . S
N3005 C3003 1.384 . S
H3006 C3012 0.930 . S
H3007 C3016 0.930 . S
H3008 C3021 0.929 . S
H3009 C3019 0.929 . S
H3010 C3014 0.929 . S
H3011 C3020 0.929 . S
C3012 H3006 0.930 . S
C3012 C3013 1.367 . S
C3012 C3020 1.378 . S
C3013 C3012 1.367 . S
C3013 C3021 1.433 . S
C3014 H3010 0.929 . S
C3014 C3016 1.378 . S
C3014 C3018 1.350 . S
C3015 C3018 1.463 . S
C3015 C3020 1.350 . S
C3015 N3023 1.427 . S
C3016 H3007 0.930 . S
C3016 C3014 1.378 . S
C3016 C3017 1.367 . S
C3017 C3016 1.367 . S
C3017 C3019 1.433 . S
C3018 C3014 1.350 . S
C3018 C3015 1.463 . S
C3018 N3022 1.427 . S
C3019 H3009 0.929 . S
C3019 C3017 1.433 . S
C3019 N3022 1.384 . S
C3020 H3011 0.929 . S
C3020 C3012 1.378 . S
C3020 C3015 1.350 . S
C3021 H3008 0.929 . S
C3021 C3013 1.433 . S
C3021 N3023 1.384 . S
N3022 C3018 1.427 . S
N3022 C3019 1.384 . S
N3023 C3015 1.427 . S
N3023 C3021 1.384 . S
H3024 C3030 0.930 . S
H3025 C3034 0.930 . S
H3026 C3039 0.929 . S
H3027 C3037 0.929 . S
H3028 C3032 0.929 . S
H3029 C3038 0.929 . S
C3030 H3024 0.930 . S
C3030 C3031 1.367 . S
C3030 C3038 1.378 . S
C3031 C3030 1.367 . S
C3031 C3039 1.433 . S
C3032 H3028 0.929 . S
C3032 C3034 1.378 . S
C3032 C3036 1.350 . S
C3033 C3036 1.463 . S
C3033 C3038 1.350 . S
C3033 N3041 1.427 . S
C3034 H3025 0.930 . S
C3034 C3032 1.378 . S
C3034 C3035 1.367 . S
C3035 C3034 1.367 . S
C3035 C3037 1.433 . S
C3036 C3032 1.350 . S
C3036 C3033 1.463 . S
C3036 N3040 1.427 . S
C3037 H3027 0.929 . S
C3037 C3035 1.433 . S
C3037 N3040 1.384 . S
C3038 H3029 0.929 . S
C3038 C3030 1.378 . S
C3038 C3033 1.350 . S
C3039 H3026 0.929 . S
C3039 C3031 1.433 . S
C3039 N3041 1.384 . S
N3040 C3036 1.427 . S
N3040 C3037 1.384 . S
N3041 C3033 1.427 . S
N3041 C3039 1.384 . S
H3042 C3048 0.930 . S
H3043 C3052 0.930 . S
H3044 C3057 0.929 . S
H3045 C3055 0.929 . S
H3046 C3050 0.929 . S
H3047 C3056 0.929 . S
C3048 H3042 0.930 . S
C3048 C3049 1.367 . S
C3048 C3056 1.378 . S
C3049 C3048 1.367 . S
C3049 C3057 1.433 . S
C3050 H3046 0.929 . S
C3050 C3052 1.378 . S
C3050 C3054 1.350 . S
C3051 C3054 1.463 . S
C3051 C3056 1.350 . S
C3051 N3059 1.427 . S
C3052 H3043 0.930 . S
C3052 C3050 1.378 . S
C3052 C3053 1.367 . S
C3053 C3052 1.367 . S
C3053 C3055 1.433 . S
C3054 C3050 1.350 . S
C3054 C3051 1.463 . S
C3054 N3058 1.427 . S
C3055 H3045 0.929 . S
C3055 C3053 1.433 . S
C3055 N3058 1.384 . S
C3056 H3047 0.929 . S
C3056 C3048 1.378 . S
C3056 C3051 1.350 . S
C3057 H3044 0.929 . S
C3057 C3049 1.433 . S
C3057 N3059 1.384 . S
N3058 C3054 1.427 . S
N3058 C3055 1.384 . S
N3059 C3051 1.427 . S
N3059 C3057 1.384 . S
H3060 C3066 0.930 . S
H3061 C3070 0.930 . S
H3062 C3075 0.929 . S
H3063 C3073 0.929 . S
H3064 C3068 0.929 . S
H3065 C3074 0.929 . S
C3066 H3060 0.930 . S
C3066 C3067 1.367 . S
C3066 C3074 1.378 . S
C3067 C3066 1.367 . S
C3067 C3075 1.433 . S
C3068 H3064 0.929 . S
C3068 C3070 1.378 . S
C3068 C3072 1.350 . S
C3069 C3072 1.463 . S
C3069 C3074 1.350 . S
C3069 N3077 1.427 . S
C3070 H3061 0.930 . S
C3070 C3068 1.378 . S
C3070 C3071 1.367 . S
C3071 C3070 1.367 . S
C3071 C3073 1.433 . S
C3072 C3068 1.350 . S
C3072 C3069 1.463 . S
C3072 N3076 1.427 . S
C3073 H3063 0.929 . S
C3073 C3071 1.433 . S
C3073 N3076 1.384 . S
C3074 H3065 0.929 . S
C3074 C3066 1.378 . S
C3074 C3069 1.350 . S
C3075 H3062 0.929 . S
C3075 C3067 1.433 . S
C3075 N3077 1.384 . S
N3076 C3072 1.427 . S
N3076 C3073 1.384 . S
N3077 C3069 1.427 . S
N3077 C3075 1.384 . S
H3078 C3084 0.930 . S
H3079 C3088 0.930 . S
H3080 C3093 0.929 . S
H3081 C3091 0.929 . S
H3082 C3086 0.929 . S
H3083 C3092 0.929 . S
C3084 H3078 0.930 . S
C3084 C3085 1.367 . S
C3084 C3092 1.378 . S
C3085 C3084 1.367 . S
C3085 C3093 1.433 . S
C3086 H3082 0.929 . S
C3086 C3088 1.378 . S
C3086 C3090 1.350 . S
C3087 C3090 1.463 . S
C3087 C3092 1.350 . S
C3087 N3095 1.427 . S
C3088 H3079 0.930 . S
C3088 C3086 1.378 . S
C3088 C3089 1.367 . S
C3089 C3088 1.367 . S
C3089 C3091 1.433 . S
C3090 C3086 1.350 . S
C3090 C3087 1.463 . S
C3090 N3094 1.427 . S
C3091 H3081 0.929 . S
C3091 C3089 1.433 . S
C3091 N3094 1.384 . S
C3092 H3083 0.929 . S
C3092 C3084 1.378 . S
C3092 C3087 1.350 . S
C3093 H3080 0.929 . S
C3093 C3085 1.433 . S
C3093 N3095 1.384 . S
N3094 C3090 1.427 . S
N3094 C3091 1.384 . S
N3095 C3087 1.427 . S
N3095 C3093 1.384 . S
H3096 C3102 0.930 . S
H3097 C3106 0.930 . S
H3098 C3111 0.929 . S
H3099 C3109 0.929 . S
H3100 C3104 0.929 . S
H3101 C3110 0.929 . S
C3102 H3096 0.930 . S
C3102 C3103 1.367 . S
C3102 C3110 1.378 . S
C3103 C3102 1.367 . S
C3103 C3111 1.433 . S
C3104 H3100 0.929 . S
C3104 C3106 1.378 . S
C3104 C3108 1.350 . S
C3105 C3108 1.463 . S
C3105 C3110 1.350 . S
C3105 N3113 1.427 . S
C3106 H3097 0.930 . S
C3106 C3104 1.378 . S
C3106 C3107 1.367 . S
C3107 C3106 1.367 . S
C3107 C3109 1.433 . S
C3108 C3104 1.350 . S
C3108 C3105 1.463 . S
C3108 N3112 1.427 . S
C3109 H3099 0.929 . S
C3109 C3107 1.433 . S
C3109 N3112 1.384 . S
C3110 H3101 0.929 . S
C3110 C3102 1.378 . S
C3110 C3105 1.350 . S
C3111 H3098 0.929 . S
C3111 C3103 1.433 . S
C3111 N3113 1.384 . S
N3112 C3108 1.427 . S
N3112 C3109 1.384 . S
N3113 C3105 1.427 . S
N3113 C3111 1.384 . S
H3114 C3120 0.930 . S
H3115 C3124 0.930 . S
H3116 C3129 0.929 . S
H3117 C3127 0.929 . S
H3118 C3122 0.929 . S
H3119 C3128 0.929 . S
C3120 H3114 0.930 . S
C3120 C3121 1.367 . S
C3120 C3128 1.378 . S
C3121 C3120 1.367 . S
C3121 C3129 1.433 . S
C3122 H3118 0.929 . S
C3122 C3124 1.378 . S
C3122 C3126 1.350 . S
C3123 C3126 1.463 . S
C3123 C3128 1.350 . S
C3123 N3131 1.427 . S
C3124 H3115 0.930 . S
C3124 C3122 1.378 . S
C3124 C3125 1.367 . S
C3125 C3124 1.367 . S
C3125 C3127 1.433 . S
C3126 C3122 1.350 . S
C3126 C3123 1.463 . S
C3126 N3130 1.427 . S
C3127 H3117 0.929 . S
C3127 C3125 1.433 . S
C3127 N3130 1.384 . S
C3128 H3119 0.929 . S
C3128 C3120 1.378 . S
C3128 C3123 1.350 . S
C3129 H3116 0.929 . S
C3129 C3121 1.433 . S
C3129 N3131 1.384 . S
N3130 C3126 1.427 . S
N3130 C3127 1.384 . S
N3131 C3123 1.427 . S
N3131 C3129 1.384 . S
H3132 C3138 0.930 . S
H3133 C3142 0.930 . S
H3134 C3147 0.929 . S
H3135 C3145 0.929 . S
H3136 C3140 0.929 . S
H3137 C3146 0.929 . S
C3138 H3132 0.930 . S
C3138 C3139 1.367 . S
C3138 C3146 1.378 . S
C3139 C3138 1.367 . S
C3139 C3147 1.433 . S
C3140 H3136 0.929 . S
C3140 C3142 1.378 . S
C3140 C3144 1.350 . S
C3141 C3144 1.463 . S
C3141 C3146 1.350 . S
C3141 N3149 1.427 . S
C3142 H3133 0.930 . S
C3142 C3140 1.378 . S
C3142 C3143 1.367 . S
C3143 C3142 1.367 . S
C3143 C3145 1.433 . S
C3144 C3140 1.350 . S
C3144 C3141 1.463 . S
C3144 N3148 1.427 . S
C3145 H3135 0.929 . S
C3145 C3143 1.433 . S
C3145 N3148 1.384 . S
C3146 H3137 0.929 . S
C3146 C3138 1.378 . S
C3146 C3141 1.350 . S
C3147 H3134 0.929 . S
C3147 C3139 1.433 . S
C3147 N3149 1.384 . S
N3148 C3144 1.427 . S
N3148 C3145 1.384 . S
N3149 C3141 1.427 . S
N3149 C3147 1.384 . S
H3150 C3156 0.930 . S
H3151 C3160 0.930 . S
H3152 C3165 0.929 . S
H3153 C3163 0.929 . S
H3154 C3158 0.929 . S
H3155 C3164 0.929 . S
C3156 H3150 0.930 . S
C3156 C3157 1.367 . S
C3156 C3164 1.378 . S
C3157 C3156 1.367 . S
C3157 C3165 1.433 . S
C3158 H3154 0.929 . S
C3158 C3160 1.378 . S
C3158 C3162 1.350 . S
C3159 C3162 1.463 . S
C3159 C3164 1.350 . S
C3159 N3167 1.427 . S
C3160 H3151 0.930 . S
C3160 C3158 1.378 . S
C3160 C3161 1.367 . S
C3161 C3160 1.367 . S
C3161 C3163 1.433 . S
C3162 C3158 1.350 . S
C3162 C3159 1.463 . S
C3162 N3166 1.427 . S
C3163 H3153 0.929 . S
C3163 C3161 1.433 . S
C3163 N3166 1.384 . S
C3164 H3155 0.929 . S
C3164 C3156 1.378 . S
C3164 C3159 1.350 . S
C3165 H3152 0.929 . S
C3165 C3157 1.433 . S
C3165 N3167 1.384 . S
N3166 C3162 1.427 . S
N3166 C3163 1.384 . S
N3167 C3159 1.427 . S
N3167 C3165 1.384 . S
H3168 C3174 0.930 . S
H3169 C3178 0.930 . S
H3170 C3183 0.929 . S
H3171 C3181 0.929 . S
H3172 C3176 0.929 . S
H3173 C3182 0.929 . S
C3174 H3168 0.930 . S
C3174 C3175 1.367 . S
C3174 C3182 1.378 . S
C3175 C3174 1.367 . S
C3175 C3183 1.433 . S
C3176 H3172 0.929 . S
C3176 C3178 1.378 . S
C3176 C3180 1.350 . S
C3177 C3180 1.463 . S
C3177 C3182 1.350 . S
C3177 N3185 1.427 . S
C3178 H3169 0.930 . S
C3178 C3176 1.378 . S
C3178 C3179 1.367 . S
C3179 C3178 1.367 . S
C3179 C3181 1.433 . S
C3180 C3176 1.350 . S
C3180 C3177 1.463 . S
C3180 N3184 1.427 . S
C3181 H3171 0.929 . S
C3181 C3179 1.433 . S
C3181 N3184 1.384 . S
C3182 H3173 0.929 . S
C3182 C3174 1.378 . S
C3182 C3177 1.350 . S
C3183 H3170 0.929 . S
C3183 C3175 1.433 . S
C3183 N3185 1.384 . S
N3184 C3180 1.427 . S
N3184 C3181 1.384 . S
N3185 C3177 1.427 . S
N3185 C3183 1.384 . S
H3186 C3192 0.930 . S
H3187 C3196 0.930 . S
H3188 C3201 0.929 . S
H3189 C3199 0.929 . S
H3190 C3194 0.929 . S
H3191 C3200 0.929 . S
C3192 H3186 0.930 . S
C3192 C3193 1.367 . S
C3192 C3200 1.378 . S
C3193 C3192 1.367 . S
C3193 C3201 1.433 . S
C3194 H3190 0.929 . S
C3194 C3196 1.378 . S
C3194 C3198 1.350 . S
C3195 C3198 1.463 . S
C3195 C3200 1.350 . S
C3195 N3203 1.427 . S
C3196 H3187 0.930 . S
C3196 C3194 1.378 . S
C3196 C3197 1.367 . S
C3197 C3196 1.367 . S
C3197 C3199 1.433 . S
C3198 C3194 1.350 . S
C3198 C3195 1.463 . S
C3198 N3202 1.427 . S
C3199 H3189 0.929 . S
C3199 C3197 1.433 . S
C3199 N3202 1.384 . S
C3200 H3191 0.929 . S
C3200 C3192 1.378 . S
C3200 C3195 1.350 . S
C3201 H3188 0.929 . S
C3201 C3193 1.433 . S
C3201 N3203 1.384 . S
N3202 C3198 1.427 . S
N3202 C3199 1.384 . S
N3203 C3195 1.427 . S
N3203 C3201 1.384 . S
H3204 C3210 0.930 . S
H3205 C3214 0.930 . S
H3206 C3219 0.929 . S
H3207 C3217 0.929 . S
H3208 C3212 0.929 . S
H3209 C3218 0.929 . S
C3210 H3204 0.930 . S
C3210 C3211 1.367 . S
C3210 C3218 1.378 . S
C3211 C3210 1.367 . S
C3211 C3219 1.433 . S
C3212 H3208 0.929 . S
C3212 C3214 1.378 . S
C3212 C3216 1.350 . S
C3213 C3216 1.463 . S
C3213 C3218 1.350 . S
C3213 N3221 1.427 . S
C3214 H3205 0.930 . S
C3214 C3212 1.378 . S
C3214 C3215 1.367 . S
C3215 C3214 1.367 . S
C3215 C3217 1.433 . S
C3216 C3212 1.350 . S
C3216 C3213 1.463 . S
C3216 N3220 1.427 . S
C3217 H3207 0.929 . S
C3217 C3215 1.433 . S
C3217 N3220 1.384 . S
C3218 H3209 0.929 . S
C3218 C3210 1.378 . S
C3218 C3213 1.350 . S
C3219 H3206 0.929 . S
C3219 C3211 1.433 . S
C3219 N3221 1.384 . S
N3220 C3216 1.427 . S
N3220 C3217 1.384 . S
N3221 C3213 1.427 . S
N3221 C3219 1.384 . S
H3222 C3228 0.930 . S
H3223 C3232 0.930 . S
H3224 C3237 0.929 . S
H3225 C3235 0.929 . S
H3226 C3230 0.929 . S
H3227 C3236 0.929 . S
C3228 H3222 0.930 . S
C3228 C3229 1.367 . S
C3228 C3236 1.378 . S
C3229 C3228 1.367 . S
C3229 C3237 1.433 . S
C3230 H3226 0.929 . S
C3230 C3232 1.378 . S
C3230 C3234 1.350 . S
C3231 C3234 1.463 . S
C3231 C3236 1.350 . S
C3231 N3239 1.427 . S
C3232 H3223 0.930 . S
C3232 C3230 1.378 . S
C3232 C3233 1.367 . S
C3233 C3232 1.367 . S
C3233 C3235 1.433 . S
C3234 C3230 1.350 . S
C3234 C3231 1.463 . S
C3234 N3238 1.427 . S
C3235 H3225 0.929 . S
C3235 C3233 1.433 . S
C3235 N3238 1.384 . S
C3236 H3227 0.929 . S
C3236 C3228 1.378 . S
C3236 C3231 1.350 . S
C3237 H3224 0.929 . S
C3237 C3229 1.433 . S
C3237 N3239 1.384 . S
N3238 C3234 1.427 . S
N3238 C3235 1.384 . S
N3239 C3231 1.427 . S
N3239 C3237 1.384 . S
H3240 C3246 0.930 . S
H3241 C3250 0.930 . S
H3242 C3255 0.929 . S
H3243 C3253 0.929 . S
H3244 C3248 0.929 . S
H3245 C3254 0.929 . S
C3246 H3240 0.930 . S
C3246 C3247 1.367 . S
C3246 C3254 1.378 . S
C3247 C3246 1.367 . S
C3247 C3255 1.433 . S
C3248 H3244 0.929 . S
C3248 C3250 1.378 . S
C3248 C3252 1.350 . S
C3249 C3252 1.472 . S
C3249 C3254 1.341 1_556 S
C3249 N3257 1.427 . S
C3250 H3241 0.930 . S
C3250 C3248 1.378 . S
C3250 C3251 1.367 . S
C3251 C3250 1.367 . S
C3251 C3253 1.433 . S
C3252 C3248 1.350 . S
C3252 C3249 1.472 . S
C3252 N3256 1.427 . S
C3253 H3243 0.929 . S
C3253 C3251 1.433 . S
C3253 N3256 1.384 . S
C3254 H3245 0.929 . S
C3254 C3246 1.378 . S
C3254 C3249 1.341 1_554 S
C3255 H3242 0.929 . S
C3255 C3247 1.433 . S
C3255 N3257 1.384 1_554 S
N3256 C3252 1.427 . S
N3256 C3253 1.384 . S
N3257 C3249 1.427 . S
N3257 C3255 1.384 1_556 S
H3258 C3264 0.930 1_655 S
H3259 C3268 0.930 . S
H3260 C3273 0.929 . S
H3261 C3271 0.929 . S
H3262 C3266 0.929 . S
H3263 C3272 0.929 . S
C3264 H3258 0.930 1_455 S
C3264 C3265 1.367 . S
C3264 C3272 1.378 . S
C3265 C3264 1.367 . S
C3265 C3273 1.433 . S
C3266 H3262 0.929 . S
C3266 C3268 1.378 . S
C3266 C3270 1.350 . S
C3267 C3270 1.463 . S
C3267 C3272 1.350 . S
C3267 N3275 1.427 . S
C3268 H3259 0.930 . S
C3268 C3266 1.378 . S
C3268 C3269 1.367 . S
C3269 C3268 1.367 . S
C3269 C3271 1.433 . S
C3270 C3266 1.350 . S
C3270 C3267 1.463 . S
C3270 N3274 1.427 . S
C3271 H3261 0.929 . S
C3271 C3269 1.433 . S
C3271 N3274 1.384 . S
C3272 H3263 0.929 . S
C3272 C3264 1.378 . S
C3272 C3267 1.350 . S
C3273 H3260 0.929 . S
C3273 C3265 1.433 . S
C3273 N3275 1.384 . S
N3274 C3270 1.427 . S
N3274 C3271 1.384 . S
N3275 C3267 1.427 . S
N3275 C3273 1.384 . S
H3276 C3282 0.930 . S
H3277 C3286 0.930 . S
H3278 C3291 0.929 . S
H3279 C3289 0.929 . S
H3280 C3284 0.929 . S
H3281 C3290 0.929 . S
C3282 H3276 0.930 . S
C3282 C3283 1.367 . S
C3282 C3290 1.378 . S
C3283 C3282 1.367 . S
C3283 C3291 1.433 . S
C3284 H3280 0.929 . S
C3284 C3286 1.378 . S
C3284 C3288 1.350 . S
C3285 C3288 1.463 . S
C3285 C3290 1.350 . S
C3285 N3293 1.427 . S
C3286 H3277 0.930 . S
C3286 C3284 1.378 . S
C3286 C3287 1.367 . S
C3287 C3286 1.367 . S
C3287 C3289 1.433 . S
C3288 C3284 1.350 . S
C3288 C3285 1.463 . S
C3288 N3292 1.427 . S
C3289 H3279 0.929 . S
C3289 C3287 1.433 . S
C3289 N3292 1.384 . S
C3290 H3281 0.929 . S
C3290 C3282 1.378 . S
C3290 C3285 1.350 . S
C3291 H3278 0.929 . S
C3291 C3283 1.433 . S
C3291 N3293 1.384 . S
N3292 C3288 1.427 . S
N3292 C3289 1.384 . S
N3293 C3285 1.427 . S
N3293 C3291 1.384 . S
H3294 C3300 0.930 . S
H3295 C3304 0.930 . S
H3296 C3309 0.929 . S
H3297 C3307 0.929 . S
H3298 C3302 0.929 . S
H3299 C3308 0.929 . S
C3300 H3294 0.930 . S
C3300 C3301 1.367 . S
C3300 C3308 1.378 . S
C3301 C3300 1.367 . S
C3301 C3309 1.433 . S
C3302 H3298 0.929 . S
C3302 C3304 1.378 . S
C3302 C3306 1.350 . S
C3303 C3306 1.463 . S
C3303 C3308 1.350 . S
C3303 N3311 1.427 . S
C3304 H3295 0.930 . S
C3304 C3302 1.378 . S
C3304 C3305 1.367 . S
C3305 C3304 1.367 . S
C3305 C3307 1.433 . S
C3306 C3302 1.350 . S
C3306 C3303 1.463 . S
C3306 N3310 1.427 . S
C3307 H3297 0.929 . S
C3307 C3305 1.433 . S
C3307 N3310 1.384 . S
C3308 H3299 0.929 . S
C3308 C3300 1.378 . S
C3308 C3303 1.350 . S
C3309 H3296 0.929 . S
C3309 C3301 1.433 . S
C3309 N3311 1.384 . S
N3310 C3306 1.427 . S
N3310 C3307 1.384 . S
N3311 C3303 1.427 . S
N3311 C3309 1.384 . S
H3312 C3318 0.930 . S
H3313 C3322 0.930 . S
H3314 C3327 0.929 . S
H3315 C3325 0.929 . S
H3316 C3320 0.929 . S
H3317 C3326 0.929 . S
C3318 H3312 0.930 . S
C3318 C3319 1.367 . S
C3318 C3326 1.378 . S
C3319 C3318 1.367 . S
C3319 C3327 1.433 . S
C3320 H3316 0.929 . S
C3320 C3322 1.378 . S
C3320 C3324 1.350 . S
C3321 C3324 1.463 . S
C3321 C3326 1.350 . S
C3321 N3329 1.427 . S
C3322 H3313 0.930 . S
C3322 C3320 1.378 . S
C3322 C3323 1.367 . S
C3323 C3322 1.367 . S
C3323 C3325 1.433 . S
C3324 C3320 1.350 . S
C3324 C3321 1.463 . S
C3324 N3328 1.427 . S
C3325 H3315 0.929 . S
C3325 C3323 1.433 . S
C3325 N3328 1.384 . S
C3326 H3317 0.929 . S
C3326 C3318 1.378 . S
C3326 C3321 1.350 . S
C3327 H3314 0.929 . S
C3327 C3319 1.433 . S
C3327 N3329 1.384 . S
N3328 C3324 1.427 . S
N3328 C3325 1.384 . S
N3329 C3321 1.427 . S
N3329 C3327 1.384 . S
H3330 C3336 0.930 . S
H3331 C3340 0.930 . S
H3332 C3345 0.929 . S
H3333 C3343 0.929 . S
H3334 C3338 0.929 . S
H3335 C3344 0.929 . S
C3336 H3330 0.930 . S
C3336 C3337 1.367 . S
C3336 C3344 1.378 . S
C3337 C3336 1.367 . S
C3337 C3345 1.433 . S
C3338 H3334 0.929 . S
C3338 C3340 1.378 . S
C3338 C3342 1.350 . S
C3339 C3342 1.463 . S
C3339 C3344 1.350 . S
C3339 N3347 1.427 . S
C3340 H3331 0.930 . S
C3340 C3338 1.378 . S
C3340 C3341 1.367 . S
C3341 C3340 1.367 . S
C3341 C3343 1.433 . S
C3342 C3338 1.350 . S
C3342 C3339 1.463 . S
C3342 N3346 1.427 . S
C3343 H3333 0.929 . S
C3343 C3341 1.433 . S
C3343 N3346 1.384 . S
C3344 H3335 0.929 . S
C3344 C3336 1.378 . S
C3344 C3339 1.350 . S
C3345 H3332 0.929 . S
C3345 C3337 1.433 . S
C3345 N3347 1.384 . S
N3346 C3342 1.427 . S
N3346 C3343 1.384 . S
N3347 C3339 1.427 . S
N3347 C3345 1.384 . S
H3348 C3354 0.930 . S
H3349 C3358 0.930 . S
H3350 C3363 0.929 . S
H3351 C3361 0.929 . S
H3352 C3356 0.929 . S
H3353 C3362 0.929 . S
C3354 H3348 0.930 . S
C3354 C3355 1.367 . S
C3354 C3362 1.378 . S
C3355 C3354 1.367 . S
C3355 C3363 1.433 . S
C3356 H3352 0.929 . S
C3356 C3358 1.378 . S
C3356 C3360 1.350 . S
C3357 C3360 1.463 . S
C3357 C3362 1.350 . S
C3357 N3365 1.427 . S
C3358 H3349 0.930 . S
C3358 C3356 1.378 . S
C3358 C3359 1.367 . S
C3359 C3358 1.367 . S
C3359 C3361 1.433 . S
C3360 C3356 1.350 . S
C3360 C3357 1.463 . S
C3360 N3364 1.427 . S
C3361 H3351 0.929 . S
C3361 C3359 1.433 . S
C3361 N3364 1.384 . S
C3362 H3353 0.929 . S
C3362 C3354 1.378 . S
C3362 C3357 1.350 . S
C3363 H3350 0.929 . S
C3363 C3355 1.433 . S
C3363 N3365 1.384 . S
N3364 C3360 1.427 . S
N3364 C3361 1.384 . S
N3365 C3357 1.427 . S
N3365 C3363 1.384 . S
H3366 C3372 0.930 . S
H3367 C3376 0.930 . S
H3368 C3381 0.929 . S
H3369 C3379 0.929 . S
H3370 C3374 0.929 . S
H3371 C3380 0.929 . S
C3372 H3366 0.930 . S
C3372 C3373 1.367 . S
C3372 C3380 1.378 . S
C3373 C3372 1.367 . S
C3373 C3381 1.433 . S
C3374 H3370 0.929 . S
C3374 C3376 1.378 . S
C3374 C3378 1.350 . S
C3375 C3378 1.463 . S
C3375 C3380 1.350 . S
C3375 N3383 1.427 . S
C3376 H3367 0.930 . S
C3376 C3374 1.378 . S
C3376 C3377 1.367 . S
C3377 C3376 1.367 . S
C3377 C3379 1.433 . S
C3378 C3374 1.350 . S
C3378 C3375 1.463 . S
C3378 N3382 1.427 . S
C3379 H3369 0.929 . S
C3379 C3377 1.433 . S
C3379 N3382 1.384 . S
C3380 H3371 0.929 . S
C3380 C3372 1.378 . S
C3380 C3375 1.350 . S
C3381 H3368 0.929 . S
C3381 C3373 1.433 . S
C3381 N3383 1.384 . S
N3382 C3378 1.427 . S
N3382 C3379 1.384 . S
N3383 C3375 1.427 . S
N3383 C3381 1.384 . S
H3384 C3390 0.930 . S
H3385 C3394 0.930 . S
H3386 C3399 0.929 . S
H3387 C3397 0.929 . S
H3388 C3392 0.929 . S
H3389 C3398 0.929 . S
C3390 H3384 0.930 . S
C3390 C3391 1.367 . S
C3390 C3398 1.378 . S
C3391 C3390 1.367 . S
C3391 C3399 1.433 . S
C3392 H3388 0.929 . S
C3392 C3394 1.378 . S
C3392 C3396 1.350 . S
C3393 C3396 1.463 . S
C3393 C3398 1.350 . S
C3393 N3401 1.427 . S
C3394 H3385 0.930 . S
C3394 C3392 1.378 . S
C3394 C3395 1.367 . S
C3395 C3394 1.367 . S
C3395 C3397 1.433 . S
C3396 C3392 1.350 . S
C3396 C3393 1.463 . S
C3396 N3400 1.427 . S
C3397 H3387 0.929 . S
C3397 C3395 1.433 . S
C3397 N3400 1.384 . S
C3398 H3389 0.929 . S
C3398 C3390 1.378 . S
C3398 C3393 1.350 . S
C3399 H3386 0.929 . S
C3399 C3391 1.433 . S
C3399 N3401 1.384 . S
N3400 C3396 1.427 . S
N3400 C3397 1.384 . S
N3401 C3393 1.427 . S
N3401 C3399 1.384 . S
H3402 C3408 0.930 . S
H3403 C3412 0.930 . S
H3404 C3417 0.929 . S
H3405 C3415 0.929 . S
H3406 C3410 0.929 . S
H3407 C3416 0.929 . S
C3408 H3402 0.930 . S
C3408 C3409 1.367 . S
C3408 C3416 1.378 . S
C3409 C3408 1.367 . S
C3409 C3417 1.433 . S
C3410 H3406 0.929 . S
C3410 C3412 1.378 . S
C3410 C3414 1.350 . S
C3411 C3414 1.463 . S
C3411 C3416 1.350 . S
C3411 N3419 1.427 . S
C3412 H3403 0.930 . S
C3412 C3410 1.378 . S
C3412 C3413 1.367 . S
C3413 C3412 1.367 . S
C3413 C3415 1.433 . S
C3414 C3410 1.350 . S
C3414 C3411 1.463 . S
C3414 N3418 1.427 . S
C3415 H3405 0.929 . S
C3415 C3413 1.433 . S
C3415 N3418 1.384 . S
C3416 H3407 0.929 . S
C3416 C3408 1.378 . S
C3416 C3411 1.350 . S
C3417 H3404 0.929 . S
C3417 C3409 1.433 . S
C3417 N3419 1.384 . S
N3418 C3414 1.427 . S
N3418 C3415 1.384 . S
N3419 C3411 1.427 . S
N3419 C3417 1.384 . S
H3420 C3426 0.946 . S
H3421 C3430 0.930 . S
H3422 C3435 0.929 . S
H3423 C3433 0.929 . S
H3424 C3428 0.929 . S
H3425 C3434 0.929 . S
C3426 H3420 0.946 . S
C3426 C3427 1.367 . S
C3426 C3434 1.378 1_455 S
C3427 C3426 1.367 . S
C3427 C3435 1.433 . S
C3428 H3424 0.929 . S
C3428 C3430 1.378 . S
C3428 C3432 1.350 . S
C3429 C3432 1.463 . S
C3429 C3434 1.350 . S
C3429 N3437 1.427 1_655 S
C3430 H3421 0.930 . S
C3430 C3428 1.378 . S
C3430 C3431 1.367 . S
C3431 C3430 1.367 . S
C3431 C3433 1.433 . S
C3432 C3428 1.350 . S
C3432 C3429 1.463 . S
C3432 N3436 1.427 . S
C3433 H3423 0.929 . S
C3433 C3431 1.433 . S
C3433 N3436 1.384 . S
C3434 H3425 0.929 . S
C3434 C3426 1.378 1_655 S
C3434 C3429 1.350 . S
C3435 H3422 0.929 . S
C3435 C3427 1.433 . S
C3435 N3437 1.384 . S
N3436 C3432 1.427 . S
N3436 C3433 1.384 . S
N3437 C3429 1.427 1_455 S
N3437 C3435 1.384 . S
H3438 C3444 0.930 . S
H3439 C3448 0.930 . S
H3440 C3453 0.929 . S
H3441 C3451 0.929 . S
H3442 C3446 0.929 . S
H3443 C3452 0.929 . S
C3444 H3438 0.930 . S
C3444 C3445 1.367 . S
C3444 C3452 1.378 . S
C3445 C3444 1.367 . S
C3445 C3453 1.433 . S
C3446 H3442 0.929 . S
C3446 C3448 1.378 . S
C3446 C3450 1.350 . S
C3447 C3450 1.463 . S
C3447 C3452 1.350 . S
C3447 N3455 1.427 . S
C3448 H3439 0.930 . S
C3448 C3446 1.378 . S
C3448 C3449 1.367 . S
C3449 C3448 1.367 . S
C3449 C3451 1.433 . S
C3450 C3446 1.350 . S
C3450 C3447 1.463 . S
C3450 N3454 1.427 . S
C3451 H3441 0.929 . S
C3451 C3449 1.433 . S
C3451 N3454 1.384 . S
C3452 H3443 0.929 . S
C3452 C3444 1.378 . S
C3452 C3447 1.350 . S
C3453 H3440 0.929 . S
C3453 C3445 1.433 . S
C3453 N3455 1.384 . S
N3454 C3450 1.427 . S
N3454 C3451 1.384 . S
N3455 C3447 1.427 . S
N3455 C3453 1.384 . S
H3456 C3462 0.930 . S
H3457 C3466 0.930 . S
H3458 C3471 0.929 . S
H3459 C3469 0.929 . S
H3460 C3464 0.929 . S
H3461 C3470 0.929 . S
C3462 H3456 0.930 . S
C3462 C3463 1.367 . S
C3462 C3470 1.378 . S
C3463 C3462 1.367 . S
C3463 C3471 1.433 . S
C3464 H3460 0.929 . S
C3464 C3466 1.378 . S
C3464 C3468 1.350 . S
C3465 C3468 1.463 . S
C3465 C3470 1.350 . S
C3465 N3473 1.427 . S
C3466 H3457 0.930 . S
C3466 C3464 1.378 . S
C3466 C3467 1.367 . S
C3467 C3466 1.367 . S
C3467 C3469 1.433 . S
C3468 C3464 1.350 . S
C3468 C3465 1.463 . S
C3468 N3472 1.427 . S
C3469 H3459 0.929 . S
C3469 C3467 1.433 . S
C3469 N3472 1.384 . S
C3470 H3461 0.929 . S
C3470 C3462 1.378 . S
C3470 C3465 1.350 . S
C3471 H3458 0.929 . S
C3471 C3463 1.433 . S
C3471 N3473 1.384 . S
N3472 C3468 1.427 . S
N3472 C3469 1.384 . S
N3473 C3465 1.427 . S
N3473 C3471 1.384 . S
H3474 C3480 0.930 . S
H3475 C3484 0.930 . S
H3476 C3489 0.929 . S
H3477 C3487 0.929 . S
H3478 C3482 0.929 . S
H3479 C3488 0.929 . S
C3480 H3474 0.930 . S
C3480 C3481 1.367 . S
C3480 C3488 1.378 . S
C3481 C3480 1.367 . S
C3481 C3489 1.433 . S
C3482 H3478 0.929 . S
C3482 C3484 1.378 . S
C3482 C3486 1.350 . S
C3483 C3486 1.463 . S
C3483 C3488 1.350 . S
C3483 N3491 1.427 . S
C3484 H3475 0.930 . S
C3484 C3482 1.378 . S
C3484 C3485 1.367 . S
C3485 C3484 1.367 . S
C3485 C3487 1.433 . S
C3486 C3482 1.350 . S
C3486 C3483 1.463 . S
C3486 N3490 1.427 . S
C3487 H3477 0.929 . S
C3487 C3485 1.433 . S
C3487 N3490 1.384 . S
C3488 H3479 0.929 . S
C3488 C3480 1.378 . S
C3488 C3483 1.350 . S
C3489 H3476 0.929 . S
C3489 C3481 1.433 . S
C3489 N3491 1.384 . S
N3490 C3486 1.427 . S
N3490 C3487 1.384 . S
N3491 C3483 1.427 . S
N3491 C3489 1.384 . S
H3492 C3498 0.930 . S
H3493 C3502 0.930 . S
H3494 C3507 0.929 . S
H3495 C3505 0.929 . S
H3496 C3500 0.929 . S
H3497 C3506 0.929 . S
C3498 H3492 0.930 . S
C3498 C3499 1.367 . S
C3498 C3506 1.378 . S
C3499 C3498 1.367 . S
C3499 C3507 1.433 . S
C3500 H3496 0.929 . S
C3500 C3502 1.378 . S
C3500 C3504 1.350 . S
C3501 C3504 1.463 . S
C3501 C3506 1.350 . S
C3501 N3509 1.427 . S
C3502 H3493 0.930 . S
C3502 C3500 1.378 . S
C3502 C3503 1.367 . S
C3503 C3502 1.367 . S
C3503 C3505 1.433 . S
C3504 C3500 1.350 . S
C3504 C3501 1.463 . S
C3504 N3508 1.427 . S
C3505 H3495 0.929 . S
C3505 C3503 1.433 . S
C3505 N3508 1.384 . S
C3506 H3497 0.929 . S
C3506 C3498 1.378 . S
C3506 C3501 1.350 . S
C3507 H3494 0.929 . S
C3507 C3499 1.433 . S
C3507 N3509 1.384 . S
N3508 C3504 1.427 . S
N3508 C3505 1.384 . S
N3509 C3501 1.427 . S
N3509 C3507 1.384 . S
H3510 C3516 0.930 . S
H3511 C3520 0.930 . S
H3512 C3525 0.929 . S
H3513 C3523 0.929 . S
H3514 C3518 0.929 . S
H3515 C3524 0.929 . S
C3516 H3510 0.930 . S
C3516 C3517 1.367 . S
C3516 C3524 1.378 . S
C3517 C3516 1.367 . S
C3517 C3525 1.433 . S
C3518 H3514 0.929 . S
C3518 C3520 1.378 . S
C3518 C3522 1.350 . S
C3519 C3522 1.463 . S
C3519 C3524 1.350 . S
C3519 N3527 1.427 . S
C3520 H3511 0.930 . S
C3520 C3518 1.378 . S
C3520 C3521 1.367 . S
C3521 C3520 1.367 . S
C3521 C3523 1.433 . S
C3522 C3518 1.350 . S
C3522 C3519 1.463 . S
C3522 N3526 1.427 . S
C3523 H3513 0.929 . S
C3523 C3521 1.433 . S
C3523 N3526 1.384 . S
C3524 H3515 0.929 . S
C3524 C3516 1.378 . S
C3524 C3519 1.350 . S
C3525 H3512 0.929 . S
C3525 C3517 1.433 . S
C3525 N3527 1.384 . S
N3526 C3522 1.427 . S
N3526 C3523 1.384 . S
N3527 C3519 1.427 . S
N3527 C3525 1.384 . S
H3528 C3534 0.930 . S
H3529 C3538 0.930 . S
H3530 C3543 0.929 . S
H3531 C3541 0.929 . S
H3532 C3536 0.929 . S
H3533 C3542 0.929 . S
C3534 H3528 0.930 . S
C3534 C3535 1.367 . S
C3534 C3542 1.378 . S
C3535 C3534 1.367 . S
C3535 C3543 1.433 . S
C3536 H3532 0.929 . S
C3536 C3538 1.378 . S
C3536 C3540 1.350 . S
C3537 C3540 1.463 . S
C3537 C3542 1.350 . S
C3537 N3545 1.427 . S
C3538 H3529 0.930 . S
C3538 C3536 1.378 . S
C3538 C3539 1.367 . S
C3539 C3538 1.367 . S
C3539 C3541 1.433 . S
C3540 C3536 1.350 . S
C3540 C3537 1.463 . S
C3540 N3544 1.427 . S
C3541 H3531 0.929 . S
C3541 C3539 1.433 . S
C3541 N3544 1.384 . S
C3542 H3533 0.929 . S
C3542 C3534 1.378 . S
C3542 C3537 1.350 . S
C3543 H3530 0.929 . S
C3543 C3535 1.433 . S
C3543 N3545 1.384 . S
N3544 C3540 1.427 . S
N3544 C3541 1.384 . S
N3545 C3537 1.427 . S
N3545 C3543 1.384 . S
H3546 C3552 0.930 . S
H3547 C3556 0.930 . S
H3548 C3561 0.929 . S
H3549 C3559 0.929 . S
H3550 C3554 0.929 . S
H3551 C3560 0.929 . S
C3552 H3546 0.930 . S
C3552 C3553 1.367 . S
C3552 C3560 1.378 . S
C3553 C3552 1.367 . S
C3553 C3561 1.433 . S
C3554 H3550 0.929 . S
C3554 C3556 1.378 . S
C3554 C3558 1.350 . S
C3555 C3558 1.463 . S
C3555 C3560 1.350 . S
C3555 N3563 1.427 . S
C3556 H3547 0.930 . S
C3556 C3554 1.378 . S
C3556 C3557 1.367 . S
C3557 C3556 1.367 . S
C3557 C3559 1.433 . S
C3558 C3554 1.350 . S
C3558 C3555 1.463 . S
C3558 N3562 1.427 . S
C3559 H3549 0.929 . S
C3559 C3557 1.433 . S
C3559 N3562 1.384 . S
C3560 H3551 0.929 . S
C3560 C3552 1.378 . S
C3560 C3555 1.350 . S
C3561 H3548 0.929 . S
C3561 C3553 1.433 . S
C3561 N3563 1.384 . S
N3562 C3558 1.427 . S
N3562 C3559 1.384 . S
N3563 C3555 1.427 . S
N3563 C3561 1.384 . S
H3564 C3570 0.930 . S
H3565 C3574 0.930 . S
H3566 C3579 0.929 . S
H3567 C3577 0.929 . S
H3568 C3572 0.929 . S
H3569 C3578 0.929 . S
C3570 H3564 0.930 . S
C3570 C3571 1.367 . S
C3570 C3578 1.378 . S
C3571 C3570 1.367 . S
C3571 C3579 1.433 . S
C3572 H3568 0.929 . S
C3572 C3574 1.378 . S
C3572 C3576 1.350 . S
C3573 C3576 1.463 . S
C3573 C3578 1.350 . S
C3573 N3581 1.427 . S
C3574 H3565 0.930 . S
C3574 C3572 1.378 . S
C3574 C3575 1.367 . S
C3575 C3574 1.367 . S
C3575 C3577 1.433 . S
C3576 C3572 1.350 . S
C3576 C3573 1.463 . S
C3576 N3580 1.427 . S
C3577 H3567 0.929 . S
C3577 C3575 1.433 . S
C3577 N3580 1.384 . S
C3578 H3569 0.929 . S
C3578 C3570 1.378 . S
C3578 C3573 1.350 . S
C3579 H3566 0.929 . S
C3579 C3571 1.433 . S
C3579 N3581 1.384 . S
N3580 C3576 1.427 . S
N3580 C3577 1.384 . S
N3581 C3573 1.427 . S
N3581 C3579 1.384 . S
H3582 C3588 0.930 . S
H3583 C3592 0.930 . S
H3584 C3597 0.929 . S
H3585 C3595 0.929 . S
H3586 C3590 0.929 . S
H3587 C3596 0.929 . S
C3588 H3582 0.930 . S
C3588 C3589 1.367 . S
C3588 C3596 1.378 . S
C3589 C3588 1.367 . S
C3589 C3597 1.433 . S
C3590 H3586 0.929 . S
C3590 C3592 1.378 . S
C3590 C3594 1.350 . S
C3591 C3594 1.463 . S
C3591 C3596 1.350 . S
C3591 N3599 1.427 . S
C3592 H3583 0.930 . S
C3592 C3590 1.378 . S
C3592 C3593 1.367 . S
C3593 C3592 1.367 . S
C3593 C3595 1.433 . S
C3594 C3590 1.350 . S
C3594 C3591 1.463 . S
C3594 N3598 1.427 . S
C3595 H3585 0.929 . S
C3595 C3593 1.433 . S
C3595 N3598 1.384 . S
C3596 H3587 0.929 . S
C3596 C3588 1.378 . S
C3596 C3591 1.350 . S
C3597 H3584 0.929 . S
C3597 C3589 1.433 . S
C3597 N3599 1.384 . S
N3598 C3594 1.427 . S
N3598 C3595 1.384 . S
N3599 C3591 1.427 . S
N3599 C3597 1.384 . S
H3600 C3606 0.930 . S
H3601 C3610 0.930 . S
H3602 C3615 0.929 . S
H3603 C3613 0.929 . S
H3604 C3608 0.929 . S
H3605 C3614 0.929 . S
C3606 H3600 0.930 . S
C3606 C3607 1.367 . S
C3606 C3614 1.378 . S
C3607 C3606 1.367 . S
C3607 C3615 1.433 . S
C3608 H3604 0.929 . S
C3608 C3610 1.378 . S
C3608 C3612 1.350 . S
C3609 C3612 1.463 . S
C3609 C3614 1.350 . S
C3609 N3617 1.427 . S
C3610 H3601 0.930 . S
C3610 C3608 1.378 . S
C3610 C3611 1.367 . S
C3611 C3610 1.367 . S
C3611 C3613 1.433 . S
C3612 C3608 1.350 . S
C3612 C3609 1.463 . S
C3612 N3616 1.427 . S
C3613 H3603 0.929 . S
C3613 C3611 1.433 . S
C3613 N3616 1.384 . S
C3614 H3605 0.929 . S
C3614 C3606 1.378 . S
C3614 C3609 1.350 . S
C3615 H3602 0.929 . S
C3615 C3607 1.433 . S
C3615 N3617 1.384 . S
N3616 C3612 1.427 . S
N3616 C3613 1.384 . S
N3617 C3609 1.427 . S
N3617 C3615 1.384 . S
H3618 C3624 0.930 . S
H3619 C3628 0.930 . S
H3620 C3633 0.929 . S
H3621 C3631 0.929 . S
H3622 C3626 0.929 . S
H3623 C3632 0.929 . S
C3624 H3618 0.930 . S
C3624 C3625 1.367 . S
C3624 C3632 1.378 . S
C3625 C3624 1.367 . S
C3625 C3633 1.433 . S
C3626 H3622 0.929 . S
C3626 C3628 1.378 . S
C3626 C3630 1.350 . S
C3627 C3630 1.463 . S
C3627 C3632 1.350 . S
C3627 N3635 1.427 . S
C3628 H3619 0.930 . S
C3628 C3626 1.378 . S
C3628 C3629 1.367 . S
C3629 C3628 1.367 . S
C3629 C3631 1.433 . S
C3630 C3626 1.350 . S
C3630 C3627 1.463 . S
C3630 N3634 1.427 . S
C3631 H3621 0.929 . S
C3631 C3629 1.433 . S
C3631 N3634 1.384 . S
C3632 H3623 0.929 . S
C3632 C3624 1.378 . S
C3632 C3627 1.350 . S
C3633 H3620 0.929 . S
C3633 C3625 1.433 . S
C3633 N3635 1.384 . S
N3634 C3630 1.427 . S
N3634 C3631 1.384 . S
N3635 C3627 1.427 . S
N3635 C3633 1.384 . S
H3636 C3642 0.930 . S
H3637 C3646 0.930 . S
H3638 C3651 0.929 . S
H3639 C3649 0.929 . S
H3640 C3644 0.929 . S
H3641 C3650 0.929 . S
C3642 H3636 0.930 . S
C3642 C3643 1.367 . S
C3642 C3650 1.378 . S
C3643 C3642 1.367 . S
C3643 C3651 1.433 . S
C3644 H3640 0.929 . S
C3644 C3646 1.378 . S
C3644 C3648 1.350 . S
C3645 C3648 1.463 1_554 S
C3645 C3650 1.350 . S
C3645 N3653 1.427 . S
C3646 H3637 0.930 . S
C3646 C3644 1.378 . S
C3646 C3647 1.367 . S
C3647 C3646 1.367 . S
C3647 C3649 1.433 . S
C3648 C3644 1.350 . S
C3648 C3645 1.463 1_556 S
C3648 N3652 1.427 . S
C3649 H3639 0.929 . S
C3649 C3647 1.433 . S
C3649 N3652 1.384 . S
C3650 H3641 0.929 . S
C3650 C3642 1.378 . S
C3650 C3645 1.350 . S
C3651 H3638 0.929 . S
C3651 C3643 1.433 . S
C3651 N3653 1.384 . S
N3652 C3648 1.427 . S
N3652 C3649 1.384 . S
N3653 C3645 1.427 . S
N3653 C3651 1.384 . S
H3654 C3660 0.930 . S
H3655 C3664 0.930 . S
H3656 C3669 0.929 . S
H3657 C3667 0.929 . S
H3658 C3662 0.929 . S
H3659 C3668 0.929 . S
C3660 H3654 0.930 . S
C3660 C3661 1.367 . S
C3660 C3668 1.378 . S
C3661 C3660 1.367 . S
C3661 C3669 1.433 . S
C3662 H3658 0.929 . S
C3662 C3664 1.378 . S
C3662 C3666 1.350 . S
C3663 C3666 1.463 . S
C3663 C3668 1.350 . S
C3663 N3671 1.427 . S
C3664 H3655 0.930 . S
C3664 C3662 1.378 . S
C3664 C3665 1.367 . S
C3665 C3664 1.367 . S
C3665 C3667 1.433 . S
C3666 C3662 1.350 . S
C3666 C3663 1.463 . S
C3666 N3670 1.427 . S
C3667 H3657 0.929 . S
C3667 C3665 1.433 . S
C3667 N3670 1.384 . S
C3668 H3659 0.929 . S
C3668 C3660 1.378 . S
C3668 C3663 1.350 . S
C3669 H3656 0.929 . S
C3669 C3661 1.433 . S
C3669 N3671 1.384 . S
N3670 C3666 1.427 . S
N3670 C3667 1.384 . S
N3671 C3663 1.427 . S
N3671 C3669 1.384 . S
H3672 C3678 0.930 . S
H3673 C3682 0.930 . S
H3674 C3687 0.929 . S
H3675 C3685 0.929 . S
H3676 C3680 0.929 . S
H3677 C3686 0.929 . S
C3678 H3672 0.930 . S
C3678 C3679 1.367 . S
C3678 C3686 1.378 . S
C3679 C3678 1.367 . S
C3679 C3687 1.433 . S
C3680 H3676 0.929 . S
C3680 C3682 1.378 . S
C3680 C3684 1.350 . S
C3681 C3684 1.463 . S
C3681 C3686 1.350 . S
C3681 N3689 1.427 . S
C3682 H3673 0.930 . S
C3682 C3680 1.378 . S
C3682 C3683 1.367 . S
C3683 C3682 1.367 . S
C3683 C3685 1.433 . S
C3684 C3680 1.350 . S
C3684 C3681 1.463 . S
C3684 N3688 1.427 . S
C3685 H3675 0.929 . S
C3685 C3683 1.433 . S
C3685 N3688 1.384 . S
C3686 H3677 0.929 . S
C3686 C3678 1.378 . S
C3686 C3681 1.350 . S
C3687 H3674 0.929 . S
C3687 C3679 1.433 . S
C3687 N3689 1.384 . S
N3688 C3684 1.427 . S
N3688 C3685 1.384 . S
N3689 C3681 1.427 . S
N3689 C3687 1.384 . S
H3690 C3696 0.930 . S
H3691 C3700 0.930 . S
H3692 C3705 0.929 . S
H3693 C3703 0.929 . S
H3694 C3698 0.929 . S
H3695 C3704 0.929 . S
C3696 H3690 0.930 . S
C3696 C3697 1.367 . S
C3696 C3704 1.378 . S
C3697 C3696 1.367 . S
C3697 C3705 1.433 . S
C3698 H3694 0.929 . S
C3698 C3700 1.378 . S
C3698 C3702 1.350 . S
C3699 C3702 1.463 . S
C3699 C3704 1.350 . S
C3699 N3707 1.427 . S
C3700 H3691 0.930 . S
C3700 C3698 1.378 . S
C3700 C3701 1.367 . S
C3701 C3700 1.367 . S
C3701 C3703 1.433 . S
C3702 C3698 1.350 . S
C3702 C3699 1.463 . S
C3702 N3706 1.427 . S
C3703 H3693 0.929 . S
C3703 C3701 1.433 . S
C3703 N3706 1.384 . S
C3704 H3695 0.929 . S
C3704 C3696 1.378 . S
C3704 C3699 1.350 . S
C3705 H3692 0.929 . S
C3705 C3697 1.433 . S
C3705 N3707 1.384 . S
N3706 C3702 1.427 . S
N3706 C3703 1.384 . S
N3707 C3699 1.427 . S
N3707 C3705 1.384 . S
H3708 C3714 0.930 . S
H3709 C3718 0.930 . S
H3710 C3723 0.929 . S
H3711 C3721 0.929 . S
H3712 C3716 0.929 . S
H3713 C3722 0.929 . S
C3714 H3708 0.930 . S
C3714 C3715 1.367 . S
C3714 C3722 1.378 . S
C3715 C3714 1.367 . S
C3715 C3723 1.433 . S
C3716 H3712 0.929 . S
C3716 C3718 1.378 . S
C3716 C3720 1.350 . S
C3717 C3720 1.463 . S
C3717 C3722 1.350 . S
C3717 N3725 1.427 . S
C3718 H3709 0.930 . S
C3718 C3716 1.378 . S
C3718 C3719 1.367 . S
C3719 C3718 1.367 . S
C3719 C3721 1.433 . S
C3720 C3716 1.350 . S
C3720 C3717 1.463 . S
C3720 N3724 1.427 . S
C3721 H3711 0.929 . S
C3721 C3719 1.433 . S
C3721 N3724 1.384 . S
C3722 H3713 0.929 . S
C3722 C3714 1.378 . S
C3722 C3717 1.350 . S
C3723 H3710 0.929 . S
C3723 C3715 1.433 . S
C3723 N3725 1.384 . S
N3724 C3720 1.427 . S
N3724 C3721 1.384 . S
N3725 C3717 1.427 . S
N3725 C3723 1.384 . S
H3726 C3732 0.930 . S
H3727 C3736 0.930 . S
H3728 C3741 0.929 . S
H3729 C3739 0.929 . S
H3730 C3734 0.929 . S
H3731 C3740 0.929 . S
C3732 H3726 0.930 . S
C3732 C3733 1.367 . S
C3732 C3740 1.378 . S
C3733 C3732 1.367 . S
C3733 C3741 1.433 . S
C3734 H3730 0.929 . S
C3734 C3736 1.378 . S
C3734 C3738 1.350 . S
C3735 C3738 1.463 . S
C3735 C3740 1.350 . S
C3735 N3743 1.427 . S
C3736 H3727 0.930 . S
C3736 C3734 1.378 . S
C3736 C3737 1.367 . S
C3737 C3736 1.367 . S
C3737 C3739 1.433 . S
C3738 C3734 1.350 . S
C3738 C3735 1.463 . S
C3738 N3742 1.427 . S
C3739 H3729 0.929 . S
C3739 C3737 1.433 . S
C3739 N3742 1.384 . S
C3740 H3731 0.929 . S
C3740 C3732 1.378 . S
C3740 C3735 1.350 . S
C3741 H3728 0.929 . S
C3741 C3733 1.433 . S
C3741 N3743 1.384 . S
N3742 C3738 1.427 . S
N3742 C3739 1.384 . S
N3743 C3735 1.427 . S
N3743 C3741 1.384 . S
H3744 C3750 0.930 . S
H3745 C3754 0.930 . S
H3746 C3759 0.929 . S
H3747 C3757 0.929 . S
H3748 C3752 0.929 . S
H3749 C3758 0.929 . S
C3750 H3744 0.930 . S
C3750 C3751 1.367 . S
C3750 C3758 1.378 . S
C3751 C3750 1.367 . S
C3751 C3759 1.433 . S
C3752 H3748 0.929 . S
C3752 C3754 1.378 . S
C3752 C3756 1.350 . S
C3753 C3756 1.463 . S
C3753 C3758 1.350 . S
C3753 N3761 1.427 . S
C3754 H3745 0.930 . S
C3754 C3752 1.378 . S
C3754 C3755 1.367 . S
C3755 C3754 1.367 . S
C3755 C3757 1.433 . S
C3756 C3752 1.350 . S
C3756 C3753 1.463 . S
C3756 N3760 1.427 . S
C3757 H3747 0.929 . S
C3757 C3755 1.433 . S
C3757 N3760 1.384 . S
C3758 H3749 0.929 . S
C3758 C3750 1.378 . S
C3758 C3753 1.350 . S
C3759 H3746 0.929 . S
C3759 C3751 1.433 . S
C3759 N3761 1.384 . S
N3760 C3756 1.427 . S
N3760 C3757 1.384 . S
N3761 C3753 1.427 . S
N3761 C3759 1.384 . S
H3762 C3768 0.930 . S
H3763 C3772 0.930 . S
H3764 C3777 0.929 . S
H3765 C3775 0.929 . S
H3766 C3770 0.929 . S
H3767 C3776 0.929 . S
C3768 H3762 0.930 . S
C3768 C3769 1.367 . S
C3768 C3776 1.378 . S
C3769 C3768 1.367 . S
C3769 C3777 1.433 . S
C3770 H3766 0.929 . S
C3770 C3772 1.378 . S
C3770 C3774 1.350 . S
C3771 C3774 1.463 . S
C3771 C3776 1.350 . S
C3771 N3779 1.427 . S
C3772 H3763 0.930 . S
C3772 C3770 1.378 . S
C3772 C3773 1.367 . S
C3773 C3772 1.367 . S
C3773 C3775 1.433 . S
C3774 C3770 1.350 . S
C3774 C3771 1.463 . S
C3774 N3778 1.427 . S
C3775 H3765 0.929 . S
C3775 C3773 1.433 . S
C3775 N3778 1.384 . S
C3776 H3767 0.929 . S
C3776 C3768 1.378 . S
C3776 C3771 1.350 . S
C3777 H3764 0.929 . S
C3777 C3769 1.433 . S
C3777 N3779 1.384 . S
N3778 C3774 1.427 . S
N3778 C3775 1.384 . S
N3779 C3771 1.427 . S
N3779 C3777 1.384 . S
H3780 C3786 0.930 . S
H3781 C3790 0.930 . S
H3782 C3795 0.929 . S
H3783 C3793 0.929 . S
H3784 C3788 0.929 . S
H3785 C3794 0.929 . S
C3786 H3780 0.930 . S
C3786 C3787 1.367 . S
C3786 C3794 1.378 . S
C3787 C3786 1.367 . S
C3787 C3795 1.433 . S
C3788 H3784 0.929 . S
C3788 C3790 1.378 . S
C3788 C3792 1.350 . S
C3789 C3792 1.463 . S
C3789 C3794 1.350 . S
C3789 N3797 1.427 . S
C3790 H3781 0.930 . S
C3790 C3788 1.378 . S
C3790 C3791 1.367 . S
C3791 C3790 1.367 . S
C3791 C3793 1.433 . S
C3792 C3788 1.350 . S
C3792 C3789 1.463 . S
C3792 N3796 1.427 . S
C3793 H3783 0.929 . S
C3793 C3791 1.433 . S
C3793 N3796 1.384 . S
C3794 H3785 0.929 . S
C3794 C3786 1.378 . S
C3794 C3789 1.350 . S
C3795 H3782 0.929 . S
C3795 C3787 1.433 . S
C3795 N3797 1.384 . S
N3796 C3792 1.427 . S
N3796 C3793 1.384 . S
N3797 C3789 1.427 . S
N3797 C3795 1.384 . S
H3798 C3804 0.930 . S
H3799 C3808 0.930 . S
H3800 C3813 0.929 . S
H3801 C3811 0.929 . S
H3802 C3806 0.929 . S
H3803 C3812 0.929 . S
C3804 H3798 0.930 . S
C3804 C3805 1.367 . S
C3804 C3812 1.378 . S
C3805 C3804 1.367 . S
C3805 C3813 1.433 . S
C3806 H3802 0.929 . S
C3806 C3808 1.378 . S
C3806 C3810 1.350 . S
C3807 C3810 1.463 . S
C3807 C3812 1.350 . S
C3807 N3815 1.427 . S
C3808 H3799 0.930 . S
C3808 C3806 1.378 . S
C3808 C3809 1.367 . S
C3809 C3808 1.367 . S
C3809 C3811 1.433 . S
C3810 C3806 1.350 . S
C3810 C3807 1.463 . S
C3810 N3814 1.427 . S
C3811 H3801 0.929 . S
C3811 C3809 1.433 . S
C3811 N3814 1.384 . S
C3812 H3803 0.929 . S
C3812 C3804 1.378 . S
C3812 C3807 1.350 . S
C3813 H3800 0.929 . S
C3813 C3805 1.433 . S
C3813 N3815 1.384 . S
N3814 C3810 1.427 . S
N3814 C3811 1.384 . S
N3815 C3807 1.427 . S
N3815 C3813 1.384 . S
H3816 C3822 0.930 . S
H3817 C3826 0.930 . S
H3818 C3831 0.929 . S
H3819 C3829 0.929 . S
H3820 C3824 0.929 . S
H3821 C3830 0.929 . S
C3822 H3816 0.930 . S
C3822 C3823 1.367 . S
C3822 C3830 1.378 . S
C3823 C3822 1.367 . S
C3823 C3831 1.433 . S
C3824 H3820 0.929 . S
C3824 C3826 1.378 . S
C3824 C3828 1.350 . S
C3825 C3828 1.463 . S
C3825 C3830 1.350 . S
C3825 N3833 1.427 . S
C3826 H3817 0.930 . S
C3826 C3824 1.378 . S
C3826 C3827 1.367 . S
C3827 C3826 1.367 . S
C3827 C3829 1.433 . S
C3828 C3824 1.350 . S
C3828 C3825 1.463 . S
C3828 N3832 1.427 . S
C3829 H3819 0.929 . S
C3829 C3827 1.433 . S
C3829 N3832 1.384 . S
C3830 H3821 0.929 . S
C3830 C3822 1.378 . S
C3830 C3825 1.350 . S
C3831 H3818 0.929 . S
C3831 C3823 1.433 . S
C3831 N3833 1.384 . S
N3832 C3828 1.427 . S
N3832 C3829 1.384 . S
N3833 C3825 1.427 . S
N3833 C3831 1.384 . S
H3834 C3840 0.930 . S
H3835 C3844 0.930 . S
H3836 C3849 0.929 . S
H3837 C3847 0.929 . S
H3838 C3842 0.929 . S
H3839 C3848 0.929 . S
C3840 H3834 0.930 . S
C3840 C3841 1.367 . S
C3840 C3848 1.378 . S
C3841 C3840 1.367 . S
C3841 C3849 1.433 . S
C3842 H3838 0.929 . S
C3842 C3844 1.378 . S
C3842 C3846 1.350 . S
C3843 C3846 1.463 . S
C3843 C3848 1.350 . S
C3843 N3851 1.427 . S
C3844 H3835 0.930 . S
C3844 C3842 1.378 . S
C3844 C3845 1.367 . S
C3845 C3844 1.367 . S
C3845 C3847 1.433 . S
C3846 C3842 1.350 . S
C3846 C3843 1.463 . S
C3846 N3850 1.427 . S
C3847 H3837 0.929 . S
C3847 C3845 1.433 . S
C3847 N3850 1.384 . S
C3848 H3839 0.929 . S
C3848 C3840 1.378 . S
C3848 C3843 1.350 . S
C3849 H3836 0.929 . S
C3849 C3841 1.433 . S
C3849 N3851 1.384 . S
N3850 C3846 1.427 . S
N3850 C3847 1.384 . S
N3851 C3843 1.427 . S
N3851 C3849 1.384 . S
H3852 C3858 0.930 . S
H3853 C3862 0.930 . S
H3854 C3867 0.929 . S
H3855 C3865 0.929 . S
H3856 C3860 0.929 . S
H3857 C3866 0.929 . S
C3858 H3852 0.930 . S
C3858 C3859 1.367 . S
C3858 C3866 1.378 . S
C3859 C3858 1.367 . S
C3859 C3867 1.433 . S
C3860 H3856 0.929 . S
C3860 C3862 1.378 . S
C3860 C3864 1.350 1_455 S
C3861 C3864 1.463 . S
C3861 C3866 1.350 . S
C3861 N3869 1.427 . S
C3862 H3853 0.930 . S
C3862 C3860 1.378 . S
C3862 C3863 1.367 . S
C3863 C3862 1.367 . S
C3863 C3865 1.433 . S
C3864 C3860 1.350 1_655 S
C3864 C3861 1.463 . S
C3864 N3868 1.433 1_655 S
C3865 H3855 0.929 . S
C3865 C3863 1.433 . S
C3865 N3868 1.428 . S
C3866 H3857 0.929 . S
C3866 C3858 1.378 . S
C3866 C3861 1.350 . S
C3867 H3854 0.929 . S
C3867 C3859 1.433 . S
C3867 N3869 1.384 . S
N3868 C3864 1.433 1_455 S
N3868 C3865 1.428 . S
N3869 C3861 1.427 . S
N3869 C3867 1.384 . S
H3870 C3876 0.930 . S
H3871 C3880 0.930 . S
H3872 C3885 0.929 . S
H3873 C3883 0.929 . S
H3874 C3878 0.929 . S
H3875 C3884 0.929 . S
C3876 H3870 0.930 . S
C3876 C3877 1.367 . S
C3876 C3884 1.378 . S
C3877 C3876 1.367 . S
C3877 C3885 1.433 . S
C3878 H3874 0.929 . S
C3878 C3880 1.378 . S
C3878 C3882 1.350 . S
C3879 C3882 1.463 . S
C3879 C3884 1.350 . S
C3879 N3887 1.427 . S
C3880 H3871 0.930 . S
C3880 C3878 1.378 . S
C3880 C3881 1.367 . S
C3881 C3880 1.367 . S
C3881 C3883 1.433 . S
C3882 C3878 1.350 . S
C3882 C3879 1.463 . S
C3882 N3886 1.427 . S
C3883 H3873 0.929 . S
C3883 C3881 1.433 . S
C3883 N3886 1.384 . S
C3884 H3875 0.929 . S
C3884 C3876 1.378 . S
C3884 C3879 1.350 . S
C3885 H3872 0.929 . S
C3885 C3877 1.433 . S
C3885 N3887 1.384 . S
N3886 C3882 1.427 . S
N3886 C3883 1.384 . S
N3887 C3879 1.427 . S
N3887 C3885 1.384 . S
H3888 C3894 0.930 . S
H3889 C3898 0.930 . S
H3890 C3903 0.929 . S
H3891 C3901 0.929 . S
H3892 C3896 0.929 . S
H3893 C3902 0.929 . S
C3894 H3888 0.930 . S
C3894 C3895 1.367 . S
C3894 C3902 1.378 . S
C3895 C3894 1.367 . S
C3895 C3903 1.433 . S
C3896 H3892 0.929 . S
C3896 C3898 1.378 . S
C3896 C3900 1.350 . S
C3897 C3900 1.463 . S
C3897 C3902 1.350 . S
C3897 N3905 1.427 . S
C3898 H3889 0.930 . S
C3898 C3896 1.378 . S
C3898 C3899 1.367 . S
C3899 C3898 1.367 . S
C3899 C3901 1.433 . S
C3900 C3896 1.350 . S
C3900 C3897 1.463 . S
C3900 N3904 1.427 . S
C3901 H3891 0.929 . S
C3901 C3899 1.433 . S
C3901 N3904 1.384 . S
C3902 H3893 0.929 . S
C3902 C3894 1.378 . S
C3902 C3897 1.350 . S
C3903 H3890 0.929 . S
C3903 C3895 1.433 . S
C3903 N3905 1.384 . S
N3904 C3900 1.427 . S
N3904 C3901 1.384 . S
N3905 C3897 1.427 . S
N3905 C3903 1.384 . S
H3906 C3912 0.930 . S
H3907 C3916 0.930 . S
H3908 C3921 0.929 . S
H3909 C3919 0.929 . S
H3910 C3914 0.929 . S
H3911 C3920 0.929 . S
C3912 H3906 0.930 . S
C3912 C3913 1.367 . S
C3912 C3920 1.378 . S
C3913 C3912 1.367 . S
C3913 C3921 1.433 . S
C3914 H3910 0.929 . S
C3914 C3916 1.378 . S
C3914 C3918 1.350 . S
C3915 C3918 1.463 . S
C3915 C3920 1.350 . S
C3915 N3923 1.427 . S
C3916 H3907 0.930 . S
C3916 C3914 1.378 . S
C3916 C3917 1.367 . S
C3917 C3916 1.367 . S
C3917 C3919 1.433 . S
C3918 C3914 1.350 . S
C3918 C3915 1.463 . S
C3918 N3922 1.427 . S
C3919 H3909 0.929 . S
C3919 C3917 1.433 . S
C3919 N3922 1.384 . S
C3920 H3911 0.929 . S
C3920 C3912 1.378 . S
C3920 C3915 1.350 . S
C3921 H3908 0.929 . S
C3921 C3913 1.433 . S
C3921 N3923 1.384 . S
N3922 C3918 1.427 . S
N3922 C3919 1.384 . S
N3923 C3915 1.427 . S
N3923 C3921 1.384 . S
H3924 C3930 0.930 . S
H3925 C3934 0.930 . S
H3926 C3939 0.929 . S
H3927 C3937 0.929 . S
H3928 C3932 0.929 . S
H3929 C3938 0.929 . S
C3930 H3924 0.930 . S
C3930 C3931 1.367 . S
C3930 C3938 1.378 . S
C3931 C3930 1.367 . S
C3931 C3939 1.433 . S
C3932 H3928 0.929 . S
C3932 C3934 1.378 . S
C3932 C3936 1.350 . S
C3933 C3936 1.463 . S
C3933 C3938 1.350 . S
C3933 N3941 1.427 . S
C3934 H3925 0.930 . S
C3934 C3932 1.378 . S
C3934 C3935 1.367 . S
C3935 C3934 1.367 . S
C3935 C3937 1.433 . S
C3936 C3932 1.350 . S
C3936 C3933 1.463 . S
C3936 N3940 1.427 . S
C3937 H3927 0.929 . S
C3937 C3935 1.433 . S
C3937 N3940 1.384 . S
C3938 H3929 0.929 . S
C3938 C3930 1.378 . S
C3938 C3933 1.350 . S
C3939 H3926 0.929 . S
C3939 C3931 1.433 . S
C3939 N3941 1.384 . S
N3940 C3936 1.427 . S
N3940 C3937 1.384 . S
N3941 C3933 1.427 . S
N3941 C3939 1.384 . S
H3942 C3948 0.930 . S
H3943 C3952 0.930 . S
H3944 C3957 0.929 . S
H3945 C3955 0.929 . S
H3946 C3950 0.929 . S
H3947 C3956 0.929 . S
C3948 H3942 0.930 . S
C3948 C3949 1.367 . S
C3948 C3956 1.378 . S
C3949 C3948 1.367 . S
C3949 C3957 1.433 . S
C3950 H3946 0.929 . S
C3950 C3952 1.378 . S
C3950 C3954 1.350 . S
C3951 C3954 1.463 . S
C3951 C3956 1.350 . S
C3951 N3959 1.427 . S
C3952 H3943 0.930 . S
C3952 C3950 1.378 . S
C3952 C3953 1.367 . S
C3953 C3952 1.367 . S
C3953 C3955 1.433 . S
C3954 C3950 1.350 . S
C3954 C3951 1.463 . S
C3954 N3958 1.427 . S
C3955 H3945 0.929 . S
C3955 C3953 1.433 . S
C3955 N3958 1.384 . S
C3956 H3947 0.929 . S
C3956 C3948 1.378 . S
C3956 C3951 1.350 . S
C3957 H3944 0.929 . S
C3957 C3949 1.433 . S
C3957 N3959 1.384 . S
N3958 C3954 1.427 . S
N3958 C3955 1.384 . S
N3959 C3951 1.427 . S
N3959 C3957 1.384 . S
H3960 C3966 0.930 . S
H3961 C3970 0.930 . S
H3962 C3975 0.929 . S
H3963 C3973 0.929 . S
H3964 C3968 0.929 . S
H3965 C3974 0.929 . S
C3966 H3960 0.930 . S
C3966 C3967 1.367 . S
C3966 C3974 1.378 . S
C3967 C3966 1.367 . S
C3967 C3975 1.433 . S
C3968 H3964 0.929 . S
C3968 C3970 1.378 . S
C3968 C3972 1.350 . S
C3969 C3972 1.463 . S
C3969 C3974 1.350 . S
C3969 N3977 1.427 . S
C3970 H3961 0.930 . S
C3970 C3968 1.378 . S
C3970 C3971 1.367 . S
C3971 C3970 1.367 . S
C3971 C3973 1.433 . S
C3972 C3968 1.350 . S
C3972 C3969 1.463 . S
C3972 N3976 1.427 . S
C3973 H3963 0.929 . S
C3973 C3971 1.433 . S
C3973 N3976 1.384 . S
C3974 H3965 0.929 . S
C3974 C3966 1.378 . S
C3974 C3969 1.350 . S
C3975 H3962 0.929 . S
C3975 C3967 1.433 . S
C3975 N3977 1.384 . S
N3976 C3972 1.427 . S
N3976 C3973 1.384 . S
N3977 C3969 1.427 . S
N3977 C3975 1.384 . S
H3978 C3984 0.930 . S
H3979 C3988 0.930 . S
H3980 C3993 0.929 . S
H3981 C3991 0.929 . S
H3982 C3986 0.929 . S
H3983 C3992 0.929 . S
C3984 H3978 0.930 . S
C3984 C3985 1.367 . S
C3984 C3992 1.378 . S
C3985 C3984 1.367 . S
C3985 C3993 1.433 . S
C3986 H3982 0.929 . S
C3986 C3988 1.378 . S
C3986 C3990 1.350 . S
C3987 C3990 1.463 . S
C3987 C3992 1.350 . S
C3987 N3995 1.427 . S
C3988 H3979 0.930 . S
C3988 C3986 1.378 . S
C3988 C3989 1.367 . S
C3989 C3988 1.367 . S
C3989 C3991 1.433 . S
C3990 C3986 1.350 . S
C3990 C3987 1.463 . S
C3990 N3994 1.427 . S
C3991 H3981 0.929 . S
C3991 C3989 1.433 . S
C3991 N3994 1.384 . S
C3992 H3983 0.929 . S
C3992 C3984 1.378 . S
C3992 C3987 1.350 . S
C3993 H3980 0.929 . S
C3993 C3985 1.433 . S
C3993 N3995 1.384 . S
N3994 C3990 1.427 . S
N3994 C3991 1.384 . S
N3995 C3987 1.427 . S
N3995 C3993 1.384 . S
H3996 C4002 0.930 . S
H3997 C4006 0.930 . S
H3998 C4011 0.929 1_565 S
H3999 C4009 0.929 . S
H4000 C4004 0.929 . S
H4001 C4010 0.929 . S
C4002 H3996 0.930 . S
C4002 C4003 1.367 . S
C4002 C4010 1.378 . S
C4003 C4002 1.367 . S
C4003 C4011 1.433 . S
C4004 H4000 0.929 . S
C4004 C4006 1.378 . S
C4004 C4008 1.350 . S
C4005 C4008 1.463 . S
C4005 C4010 1.350 . S
C4005 N4013 1.427 . S
C4006 H3997 0.930 . S
C4006 C4004 1.378 . S
C4006 C4007 1.367 . S
C4007 C4006 1.367 . S
C4007 C4009 1.433 . S
C4008 C4004 1.350 . S
C4008 C4005 1.463 . S
C4008 N4012 1.427 . S
C4009 H3999 0.929 . S
C4009 C4007 1.433 . S
C4009 N4012 1.384 . S
C4010 H4001 0.929 . S
C4010 C4002 1.378 . S
C4010 C4005 1.350 . S
C4011 H3998 0.929 1_545 S
C4011 C4003 1.433 . S
C4011 N4013 1.384 . S
N4012 C4008 1.427 . S
N4012 C4009 1.384 . S
N4013 C4005 1.427 . S
N4013 C4011 1.384 . S
H4014 C4020 0.930 . S
H4015 C4024 0.930 . S
H4016 C4029 0.929 . S
H4017 C4027 0.929 . S
H4018 C4022 0.929 . S
H4019 C4028 0.929 . S
C4020 H4014 0.930 . S
C4020 C4021 1.367 . S
C4020 C4028 1.378 . S
C4021 C4020 1.367 . S
C4021 C4029 1.433 . S
C4022 H4018 0.929 . S
C4022 C4024 1.378 . S
C4022 C4026 1.350 . S
C4023 C4026 1.463 . S
C4023 C4028 1.350 . S
C4023 N4031 1.427 . S
C4024 H4015 0.930 . S
C4024 C4022 1.378 . S
C4024 C4025 1.367 . S
C4025 C4024 1.367 . S
C4025 C4027 1.433 . S
C4026 C4022 1.350 . S
C4026 C4023 1.463 . S
C4026 N4030 1.427 . S
C4027 H4017 0.929 . S
C4027 C4025 1.433 . S
C4027 N4030 1.384 . S
C4028 H4019 0.929 . S
C4028 C4020 1.378 . S
C4028 C4023 1.350 . S
C4029 H4016 0.929 . S
C4029 C4021 1.433 . S
C4029 N4031 1.384 . S
N4030 C4026 1.427 . S
N4030 C4027 1.384 . S
N4031 C4023 1.427 . S
N4031 C4029 1.384 . S
C1447 C491 1.545 . S
C1451 C530 1.660 . S
C1465 C271 1.568 . S
C1469 C549 1.624 . S
C1487 C568 1.507 . S
C1483 C513 1.456 . S
C1501 C293 1.741 . S
C1505 C587 1.697 . S
C1519 C524 1.636 . S
C1523 C606 1.695 . S
C1537 C260 1.536 . S
C1541 C625 1.609 . S
C1555 C502 1.609 . S
C1559 C644 1.660 . S
C1573 C282 1.362 . S
C1577 C663 1.409 . S
C1591 C183 1.576 . S
C1595 C682 1.605 . S
C1609 C447 1.321 . S
C1613 C701 1.285 . S
C1627 C205 1.620 . S
C1631 C720 1.585 . S
C1645 C436 1.519 . S
C1649 C739 1.516 . S
C1663 C249 1.441 . S
C1667 C758 1.440 . S
C1685 C777 1.754 . S
C1681 C458 1.710 . S
C1703 C796 1.811 . S
C1699 C227 1.723 . S
C1717 C315 1.332 . S
C1721 C815 1.386 . S
C1739 C834 1.699 . S
C1735 C216 1.661 . S
C1757 C853 1.513 . S
C1753 C469 1.482 . S
C1771 C238 1.336 . S
C1775 C872 1.433 . S
C1789 C326 1.659 . S
C1793 C891 1.631 . S
C1811 C910 1.477 . S
C1807 C304 1.434 . S
C1825 C392 1.472 . S
C1829 C929 1.449 . S
C1847 C948 1.821 . S
C1843 C106 1.736 . S
C1865 C967 1.582 . S
C1861 C414 1.611 . S
C1883 C986 1.621 . S
C1879 C128 1.597 . S
C1901 C1005 1.619 . S
C1897 C425 1.590 . S
C1915 C95 1.384 . S
C1919 C1024 1.349 . S
C1937 C1043 1.661 . S
C1933 C403 1.702 . S
C1951 C117 1.599 . S
C1955 C1062 1.564 . S
C1973 C1081 1.568 . S
C1969 C18 1.577 . S
C1991 C1100 1.577 . S
C1987 C348 1.603 . S
C2005 C40 1.468 . S
C2009 C1119 1.521 . S
C2027 C1138 1.385 . S
C2023 C337 1.389 . S
C2045 C1157 1.482 . S
C2041 C84 1.493 . S
C2059 C359 1.532 . S
C2063 C1176 1.510 . S
C2081 C1195 1.393 . S
C2077 C62 1.430 . S
C2099 C1214 1.693 . S
C2095 C150 1.616 . S
C2113 C51 1.573 . S
C2117 C1233 1.546 . S
C2135 C1252 1.306 . S
C2131 C370 1.331 . S
C2149 C73 1.580 . S
C2153 C1271 1.674 . S
C2171 C1290 1.443 . S
C2167 C161 1.440 . S
C2185 C139 1.548 . S
C2189 C1309 1.526 . S
C2203 C194 1.391 . S
C2207 C1328 1.341 . S
C2225 C1347 1.374 . S
C2221 C172 1.378 . S
C2239 C480 1.452 . S
C2243 C1366 1.454 . S
C2257 C29 1.573 . S
C2261 C1385 1.548 . S
C2279 C1404 1.264 . S
C2275 C7 1.256 . S
C2297 C1423 1.413 . S
C2293 C381 1.447 . S
C2311 C368 1.510 . S
C2315 C534 1.667 . S
C2329 C151 1.617 . S
C2333 C558 1.679 . S
C2347 C379 1.511 . S
C2351 C572 1.662 . S
C2369 C591 1.695 . S
C2365 C360 1.699 . S
C2383 C159 1.273 . S
C2387 C615 1.427 . S
C2401 C338 1.550 . S
C2405 C634 1.452 . S
C2423 C648 1.893 . S
C2419 C140 1.904 1_556 S
C2437 C346 1.473 . S
C2441 C672 1.527 . S
C2455 C349 1.589 . S
C2459 C686 1.556 . S
C2477 C710 1.462 . S
C2473 C162 1.575 . S
C2491 C335 1.619 . S
C2495 C724 1.712 . S
C2513 C748 1.608 . S
C2509 C137 1.540 . S
C2527 C148 1.300 . S
C2531 C767 1.482 . S
C2545 C382 1.689 . S
C2549 C781 1.688 . S
C2567 C805 1.610 . S
C2563 C357 1.560 . S
C2585 C819 1.663 . S
C2581 C371 1.668 . S
C2599 C129 1.708 . S
C2603 C743 1.723 . S
C2617 C393 1.567 . S
C2621 C843 1.406 . S
C2635 C401 1.594 . S
C2639 C857 1.735 . S
C2657 C881 1.705 . S
C2653 C412 1.623 . S
C2675 C762 1.762 . S
C2671 C126 1.465 . S
C2689 C107 1.735 . S
C2693 C705 1.772 . S
C2707 C415 1.594 . S
C2711 C900 1.422 . S
C2729 C919 1.629 . S
C2725 C390 1.553 . S
C2747 C933 1.551 . S
C2743 C467 1.217 . S
C2761 C316 1.787 . S
C2765 C952 1.849 . S
C2783 C976 1.414 . S
C2779 C478 1.304 . S
C2801 C990 1.871 . S
C2797 C459 1.813 . S
C2815 C324 1.633 . S
C2819 C1014 1.629 . S
C2833 C434 1.506 . S
C2837 C1033 1.657 . S
C2851 C305 1.526 . S
C2855 C1047 1.572 . S
C2873 C1066 1.607 . S
C2869 C448 1.611 . S
C2891 C1085 1.595 . S
C2887 C445 1.418 . S
C2905 C327 1.605 . S
C2909 C1109 1.438 . S
C2927 C1123 1.529 . S
C2923 C437 1.567 . S
C2941 C302 1.266 . S
C2945 C1147 1.477 . S
C2963 C1166 1.482 . S
C2959 C313 1.261 . S
C2977 C481 1.533 . S
C2981 C1180 1.520 . S
C2999 C1204 1.539 . S
C2995 C456 1.320 . S
C3013 C470 1.466 . S
C3017 C1223 1.422 . S
C3031 C294 1.773 . S
C3035 C1142 1.755 . S
C3049 C492 1.637 . S
C3053 C1242 1.625 . S
C3067 C500 1.358 . S
C3071 C1256 1.701 . S
C3089 C1275 1.630 . S
C3085 C514 1.581 . S
C3103 C291 1.663 . S
C3107 C1161 1.760 . S
C3121 C272 1.853 . S
C3125 C1104 1.917 . S
C3143 C1299 1.594 . S
C3139 C511 1.272 . S
C3157 C489 1.232 . S
C3161 C1318 1.558 . S
C3179 C629 1.578 . S
C3175 C60 1.464 . S
C3197 C653 1.686 . S
C3193 C74 1.637 . S
C3215 C667 1.650 . S
C3211 C82 1.517 . S
C3233 C610 1.641 . S
C3229 C52 1.649 . S
C3251 C596 1.461 . S
C3247 C38 1.316 . S
C3265 C8 1.519 . S
C3269 C539 1.463 . S
C3283 C19 1.929 . S
C3287 C553 1.910 . S
C3301 C27 1.501 . S
C3305 C577 1.560 . S
C3319 C30 1.582 . S
C3323 C914 1.561 . S
C3337 C41 1.560 . S
C3341 C1337 1.492 . S
C3355 C5 1.517 . S
C3359 C895 1.640 . S
C3373 C16 1.508 . S
C3377 C1356 1.567 . S
C3391 C71 1.281 . S
C3395 C1375 1.476 . S
C3413 C838 1.680 . S
C3409 C85 1.682 . S
C3427 C49 1.506 . S
C3431 C862 1.568 . S
C3445 C63 1.606 . S
C3449 C876 1.573 . S
C3467 C1351 1.643 . S
C3463 C426 1.633 . S
C3481 C96 1.551 . S
C3485 C786 1.412 . S
C3499 C104 1.659 . S
C3503 C800 2.067 . S
C3517 C115 1.537 . S
C3521 C824 1.610 . S
C3539 C1370 1.732 . S
C3535 C423 1.455 . S
C3557 C1332 1.691 . S
C3553 C404 1.693 . S
C3575 C729 1.428 . S
C3571 C118 1.603 . S
C3589 C93 1.675 . S
C3593 C691 1.766 . S
C3607 C225 1.355 . S
C3611 C1028 1.725 . S
C3625 C239 1.648 . S
C3629 C1052 1.523 . S
C3643 C247 1.270 . S
C3647 C1071 1.367 . S
C3661 C217 1.808 . S
C3665 C1009 1.862 . S
C3683 C995 1.600 . S
C3679 C203 1.600 . S
C3701 C938 1.528 . S
C3697 C170 1.354 . S
C3719 C957 1.288 . S
C3715 C184 1.314 . S
C3733 C195 1.664 . S
C3737 C971 1.643 . S
C3755 C1313 1.647 . S
C3751 C192 1.508 . S
C3769 C206 1.568 . S
C3773 C1394 1.433 . S
C3787 C173 1.448 . S
C3791 C1294 1.424 . S
C3809 C1413 1.405 . S
C3805 C181 1.192 . S
C3823 C236 1.244 . S
C3827 C1432 1.506 . S
C3845 C1237 1.468 . S
C3841 C250 1.485 . S
C3859 C214 1.288 . S
C3863 C1261 1.505 . S
C3877 C228 1.543 . S
C3881 C1280 1.518 . S
C3895 C522 1.421 . S
C3899 C1408 1.769 . S
C3917 C1185 1.515 . S
C3913 C261 1.536 . S
C3931 C269 1.366 . S
C3935 C1199 1.731 . S
C3949 C283 1.577 . S
C3953 C1218 1.643 . S
C3967 C525 1.700 . S
C3971 C1427 1.749 . S
C3985 C503 1.778 . S
C3989 C1389 1.851 . S
C4007 C1128 1.636 . S
C4003 C280 1.293 . S
C4025 C1090 1.495 . S
C4021 C258 1.199 . S
