# Generated by pormake.
# Topology ctn, (3,4)-cn, num edge types: 1
# Building blocks:
#     Node 0, Type 0, BuildingBlock: PAMTOO_clean_linker_0, # of connection points: 3
#     Node 1, Type 0, BuildingBlock: PAMTOO_clean_linker_0, # of connection points: 3
#     Node 2, Type 0, BuildingBlock: PAMTOO_clean_linker_0, # of connection points: 3
#     Node 3, Type 0, BuildingBlock: PAMTOO_clean_linker_0, # of connection points: 3
#     Node 4, Type 0, BuildingBlock: PAMTOO_clean_linker_0, # of connection points: 3
#     Node 5, Type 0, BuildingBlock: PAMTOO_clean_linker_0, # of connection points: 3
#     Node 6, Type 0, BuildingBlock: PAMTOO_clean_linker_0, # of connection points: 3
#     Node 7, Type 0, BuildingBlock: PAMTOO_clean_linker_0, # of connection points: 3
#     Node 8, Type 0, BuildingBlock: PAMTOO_clean_linker_0, # of connection points: 3
#     Node 9, Type 0, BuildingBlock: PAMTOO_clean_linker_0, # of connection points: 3
#     Node 10, Type 0, BuildingBlock: PAMTOO_clean_linker_0, # of connection points: 3
#     Node 11, Type 0, BuildingBlock: PAMTOO_clean_linker_0, # of connection points: 3
#     Node 12, Type 0, BuildingBlock: PAMTOO_clean_linker_0, # of connection points: 3
#     Node 13, Type 0, BuildingBlock: PAMTOO_clean_linker_0, # of connection points: 3
#     Node 14, Type 0, BuildingBlock: PAMTOO_clean_linker_0, # of connection points: 3
#     Node 15, Type 0, BuildingBlock: PAMTOO_clean_linker_0, # of connection points: 3
#     Node 16, Type 1, BuildingBlock: TATPOV_clean_sbu_0, # of connection points: 4
#     Node 17, Type 1, BuildingBlock: TATPOV_clean_sbu_0, # of connection points: 4
#     Node 18, Type 1, BuildingBlock: TATPOV_clean_sbu_0, # of connection points: 4
#     Node 19, Type 1, BuildingBlock: TATPOV_clean_sbu_0, # of connection points: 4
#     Node 20, Type 1, BuildingBlock: TATPOV_clean_sbu_0, # of connection points: 4
#     Node 21, Type 1, BuildingBlock: TATPOV_clean_sbu_0, # of connection points: 4
#     Node 22, Type 1, BuildingBlock: TATPOV_clean_sbu_0, # of connection points: 4
#     Node 23, Type 1, BuildingBlock: TATPOV_clean_sbu_0, # of connection points: 4
#     Node 24, Type 1, BuildingBlock: TATPOV_clean_sbu_0, # of connection points: 4
#     Node 25, Type 1, BuildingBlock: TATPOV_clean_sbu_0, # of connection points: 4
#     Node 26, Type 1, BuildingBlock: TATPOV_clean_sbu_0, # of connection points: 4
#     Node 27, Type 1, BuildingBlock: TATPOV_clean_sbu_0, # of connection points: 4
#     Edge 28, Type (0, 1), BuildingBlock: CIFDUS_clean_linker_0, # of connection points: 2
#     Edge 29, Type (0, 1), BuildingBlock: CIFDUS_clean_linker_0, # of connection points: 2
#     Edge 30, Type (0, 1), BuildingBlock: CIFDUS_clean_linker_0, # of connection points: 2
#     Edge 31, Type (0, 1), BuildingBlock: CIFDUS_clean_linker_0, # of connection points: 2
#     Edge 32, Type (0, 1), BuildingBlock: CIFDUS_clean_linker_0, # of connection points: 2
#     Edge 33, Type (0, 1), BuildingBlock: CIFDUS_clean_linker_0, # of connection points: 2
#     Edge 34, Type (0, 1), BuildingBlock: CIFDUS_clean_linker_0, # of connection points: 2
#     Edge 35, Type (0, 1), BuildingBlock: CIFDUS_clean_linker_0, # of connection points: 2
#     Edge 36, Type (0, 1), BuildingBlock: CIFDUS_clean_linker_0, # of connection points: 2
#     Edge 37, Type (0, 1), BuildingBlock: CIFDUS_clean_linker_0, # of connection points: 2
#     Edge 38, Type (0, 1), BuildingBlock: CIFDUS_clean_linker_0, # of connection points: 2
#     Edge 39, Type (0, 1), BuildingBlock: CIFDUS_clean_linker_0, # of connection points: 2
#     Edge 40, Type (0, 1), BuildingBlock: CIFDUS_clean_linker_0, # of connection points: 2
#     Edge 41, Type (0, 1), BuildingBlock: CIFDUS_clean_linker_0, # of connection points: 2
#     Edge 42, Type (0, 1), BuildingBlock: CIFDUS_clean_linker_0, # of connection points: 2
#     Edge 43, Type (0, 1), BuildingBlock: CIFDUS_clean_linker_0, # of connection points: 2
#     Edge 44, Type (0, 1), BuildingBlock: CIFDUS_clean_linker_0, # of connection points: 2
#     Edge 45, Type (0, 1), BuildingBlock: CIFDUS_clean_linker_0, # of connection points: 2
#     Edge 46, Type (0, 1), BuildingBlock: CIFDUS_clean_linker_0, # of connection points: 2
#     Edge 47, Type (0, 1), BuildingBlock: CIFDUS_clean_linker_0, # of connection points: 2
#     Edge 48, Type (0, 1), BuildingBlock: CIFDUS_clean_linker_0, # of connection points: 2
#     Edge 49, Type (0, 1), BuildingBlock: CIFDUS_clean_linker_0, # of connection points: 2
#     Edge 50, Type (0, 1), BuildingBlock: CIFDUS_clean_linker_0, # of connection points: 2
#     Edge 51, Type (0, 1), BuildingBlock: CIFDUS_clean_linker_0, # of connection points: 2
#     Edge 52, Type (0, 1), BuildingBlock: CIFDUS_clean_linker_0, # of connection points: 2
#     Edge 53, Type (0, 1), BuildingBlock: CIFDUS_clean_linker_0, # of connection points: 2
#     Edge 54, Type (0, 1), BuildingBlock: CIFDUS_clean_linker_0, # of connection points: 2
#     Edge 55, Type (0, 1), BuildingBlock: CIFDUS_clean_linker_0, # of connection points: 2
#     Edge 56, Type (0, 1), BuildingBlock: CIFDUS_clean_linker_0, # of connection points: 2
#     Edge 57, Type (0, 1), BuildingBlock: CIFDUS_clean_linker_0, # of connection points: 2
#     Edge 58, Type (0, 1), BuildingBlock: CIFDUS_clean_linker_0, # of connection points: 2
#     Edge 59, Type (0, 1), BuildingBlock: CIFDUS_clean_linker_0, # of connection points: 2
#     Edge 60, Type (0, 1), BuildingBlock: CIFDUS_clean_linker_0, # of connection points: 2
#     Edge 61, Type (0, 1), BuildingBlock: CIFDUS_clean_linker_0, # of connection points: 2
#     Edge 62, Type (0, 1), BuildingBlock: CIFDUS_clean_linker_0, # of connection points: 2
#     Edge 63, Type (0, 1), BuildingBlock: CIFDUS_clean_linker_0, # of connection points: 2
#     Edge 64, Type (0, 1), BuildingBlock: CIFDUS_clean_linker_0, # of connection points: 2
#     Edge 65, Type (0, 1), BuildingBlock: CIFDUS_clean_linker_0, # of connection points: 2
#     Edge 66, Type (0, 1), BuildingBlock: CIFDUS_clean_linker_0, # of connection points: 2
#     Edge 67, Type (0, 1), BuildingBlock: CIFDUS_clean_linker_0, # of connection points: 2
#     Edge 68, Type (0, 1), BuildingBlock: CIFDUS_clean_linker_0, # of connection points: 2
#     Edge 69, Type (0, 1), BuildingBlock: CIFDUS_clean_linker_0, # of connection points: 2
#     Edge 70, Type (0, 1), BuildingBlock: CIFDUS_clean_linker_0, # of connection points: 2
#     Edge 71, Type (0, 1), BuildingBlock: CIFDUS_clean_linker_0, # of connection points: 2
#     Edge 72, Type (0, 1), BuildingBlock: CIFDUS_clean_linker_0, # of connection points: 2
#     Edge 73, Type (0, 1), BuildingBlock: CIFDUS_clean_linker_0, # of connection points: 2
#     Edge 74, Type (0, 1), BuildingBlock: CIFDUS_clean_linker_0, # of connection points: 2
#     Edge 75, Type (0, 1), BuildingBlock: CIFDUS_clean_linker_0, # of connection points: 2
# Relax obj value: 0.070
# Max RMSD: 0.182
# Mean RMSD: 0.116
data_MOF--net-ctn--node1-TATPOV_clean_sbu_0--node2-PAMTOO_clean_linker_0--edge1-CIFDUS_clean_linker_0
_symmetry_space_group_name_H-M    P1
_symmetry_Int_Tables_number       1
_symmetry_cell_setting            triclinic
loop_
_symmetry_equiv_pos_as_xyz
'x, y, z'
_cell_length_a     46.548727
_cell_length_b     46.770234
_cell_length_c     47.522597
_cell_angle_alpha  86.134871
_cell_angle_beta   93.75326
_cell_angle_gamma 98.759284
loop_
_atom_site_label
_atom_site_type_symbol
_atom_site_fract_x
_atom_site_fract_y
_atom_site_fract_z
_atom_type_partial_charge
H0 H 0.02019 0.10084 0.05186 0.0
H1 H 0.05402 0.02533 0.08921 0.0
H2 H 0.08569 0.06519 0.01115 0.0
H3 H 0.07487 1.00063 0.01549 0.0
C4 C 0.08307 0.99709 0.0378 0.0
O5 O 0.0903 0.02349 0.04982 0.0
H6 H 0.06554 0.98347 0.04955 0.0
C7 C 0.03431 0.08451 0.0512 0.0
C8 C 0.0527 0.08569 0.02866 0.0
C9 C 0.03449 0.06283 0.07322 0.0
C10 C 0.05309 0.0419 0.07224 0.0
C11 C 0.07141 0.0428 0.04985 0.0
C12 C 0.07125 0.06465 0.02822 0.0
H13 H 0.3076 0.65883 0.29748 0.0
H14 H 0.25106 0.6739 0.22421 0.0
H15 H 0.3307 0.73136 0.23826 0.0
H16 H 0.27874 0.75849 0.22101 0.0
C17 C 0.26992 0.74407 0.2038 0.0
O18 O 0.28414 0.72012 0.2049 0.0
H19 H 0.24635 0.73673 0.20657 0.0
C20 C 0.30293 0.67135 0.27816 0.0
C21 C 0.32249 0.69606 0.27008 0.0
C22 C 0.27703 0.66307 0.26184 0.0
C23 C 0.2706 0.6801 0.23739 0.0
C24 C 0.28982 0.70477 0.2292 0.0
C25 C 0.31573 0.7126 0.24536 0.0
H26 H 1.00233 0.49939 0.12729 0.0
H27 H 0.9859 0.45338 0.05072 0.0
H28 H 0.03478 0.41874 0.12074 0.0
H29 H 0.05482 0.39929 0.06844 0.0
C30 C 0.03987 0.41135 0.05476 0.0
O31 O 0.01473 0.41158 0.06863 0.0
H32 H 0.05157 0.43376 0.0508 0.0
C33 C 0.00446 0.48105 0.11523 0.0
C34 C 0.01986 0.45925 0.12752 0.0
C35 C 0.99187 0.47928 0.08751 0.0
C36 C 0.99546 0.45552 0.07202 0.0
C37 C 0.01094 0.43391 0.08399 0.0
C38 C 0.02268 0.43554 0.11179 0.0
H39 H 0.7208 0.81282 0.27604 0.0
H40 H 0.69042 0.74398 0.22105 0.0
H41 H 0.77738 0.78973 0.2157 0.0
H42 H 0.74997 0.7775 0.16212 0.0
C43 C 0.73475 0.75731 0.16713 0.0
O44 O 0.73922 0.74834 0.19513 0.0
H45 H 0.71212 0.76225 0.16328 0.0
C46 C 0.72509 0.79901 0.25984 0.0
C47 C 0.75201 0.80405 0.2472 0.0
C48 C 0.70285 0.77744 0.25062 0.0
C49 C 0.7076 0.76045 0.22862 0.0
C50 C 0.73461 0.76477 0.21628 0.0
C51 C 0.75673 0.78645 0.2256 0.0
H52 H 0.13234 0.98179 0.52314 0.0
H53 H 0.06155 0.96696 0.45992 0.0
H54 H 0.13708 0.02799 0.4417 0.0
H55 H 0.08821 0.04605 0.40513 0.0
C56 C 0.07296 0.02958 0.41687 0.0
O57 O 0.08575 0.00488 0.42252 0.0
H58 H 0.06882 0.03935 0.43672 0.0
C59 C 0.12275 0.98614 0.50219 0.0
C60 C 0.13823 0.00645 0.48345 0.0
C61 C 0.09508 0.97141 0.49402 0.0
C62 C 0.08274 0.97794 0.46692 0.0
C63 C 0.09796 0.99828 0.44827 0.0
C64 C 0.12574 0.01208 0.45634 0.0
H65 H 0.15905 0.77762 0.7978 0.0
H66 H 0.1779 0.71219 0.74503 0.0
H67 H 0.23588 0.73651 0.81561 0.0
H68 H 0.26291 0.72679 0.76507 0.0
C69 C 0.24903 0.70618 0.7595 0.0
O70 O 0.22444 0.70142 0.77493 0.0
H71 H 0.24232 0.70779 0.73662 0.0
C72 C 0.17338 0.76284 0.79247 0.0
C73 C 0.19857 0.7596 0.80989 0.0
C74 C 0.16566 0.7458 0.76901 0.0
C75 C 0.18359 0.7257 0.7628 0.0
C76 C 0.20869 0.72245 0.77971 0.0
C77 C 0.21621 0.7394 0.80296 0.0
H78 H 0.89955 0.58564 0.52739 0.0
H79 H 0.94975 0.53566 0.48198 0.0
H80 H 0.98754 0.61989 0.50671 0.0
H81 H 0.01521 0.60401 0.45257 0.0
C82 C 1.00115 0.58255 0.45351 0.0
O83 O 0.99614 0.57427 0.48143 0.0
H84 H 0.98047 0.58507 0.44103 0.0
C85 C 0.91938 0.58347 0.51752 0.0
C86 C 0.94318 0.60605 0.51865 0.0
C87 C 0.92154 0.55769 0.50464 0.0
C88 C 0.94766 0.55503 0.49244 0.0
C89 C 0.97125 0.57735 0.49326 0.0
C90 C 0.9691 0.60268 0.50645 0.0
H91 H 0.78759 0.81411 0.90249 0.0
H92 H 0.86224 0.79114 0.86476 0.0
H93 H 0.81851 0.85841 0.82529 0.0
H94 H 0.82691 0.81058 0.79063 0.0
C95 C 0.84923 0.80732 0.79882 0.0
O96 O 0.8584 0.82577 0.82019 0.0
H97 H 0.84809 0.78442 0.80728 0.0
C98 C 0.80336 0.81763 0.88635 0.0
C99 C 0.80116 0.8394 0.86464 0.0
C100 C 0.82526 0.7998 0.88665 0.0
C101 C 0.84518 0.80447 0.86517 0.0
C102 C 0.8423 0.82509 0.84295 0.0
C103 C 0.82077 0.84286 0.84297 0.0
H104 H 0.3022 0.33569 0.40082 0.0
H105 H 0.35625 0.29891 0.3465 0.0
H106 H 0.30455 0.36204 0.31225 0.0
H107 H 0.30564 0.31348 0.27643 0.0
C108 C 0.32759 0.30801 0.2832 0.0
O109 O 0.34152 0.32831 0.30121 0.0
H110 H 0.32475 0.28609 0.29426 0.0
C111 C 0.31053 0.33407 0.38032 0.0
C112 C 0.30096 0.35118 0.35704 0.0
C113 C 0.3311 0.31536 0.37713 0.0
C114 C 0.34142 0.31385 0.35012 0.0
C115 C 0.33191 0.33068 0.32703 0.0
C116 C 0.31202 0.34945 0.33052 0.0
H117 H 0.50158 0.00282 0.62712 0.0
H118 H 0.48994 0.97626 0.54129 0.0
H119 H 0.52632 0.92214 0.6059 0.0
H120 H 0.55421 0.92046 0.5555 0.0
C121 C 0.5385 0.92933 0.53988 0.0
O122 O 0.51223 0.92855 0.55204 0.0
H123 H 0.54789 0.95212 0.53388 0.0
C124 C 0.50327 0.98732 0.61158 0.0
C125 C 0.51486 0.96176 0.61999 0.0
C126 C 0.49394 0.99287 0.58319 0.0
C127 C 0.49698 0.97267 0.56325 0.0
C128 C 0.50871 0.94738 0.57148 0.0
C129 C 0.51712 0.94174 0.59982 0.0
H130 H 0.2068 0.33897 0.75621 0.0
H131 H 0.17649 0.25603 0.7225 0.0
H132 H 0.26045 0.30207 0.70223 0.0
H133 H 0.22278 0.27901 0.65511 0.0
C134 C 0.21346 0.25765 0.665 0.0
O135 O 0.2225 0.25578 0.69324 0.0
H136 H 0.1893 0.25596 0.66319 0.0
C137 C 0.21045 0.32139 0.74377 0.0
C138 C 0.2366 0.32337 0.73007 0.0
C139 C 0.18869 0.29726 0.74133 0.0
C140 C 0.19324 0.27463 0.72496 0.0
C141 C 0.21897 0.27663 0.71057 0.0
C142 C 0.24063 0.30086 0.71328 0.0
H143 H 0.78593 0.17634 0.80099 0.0
H144 H 0.7306 0.18938 0.72635 0.0
H145 H 0.81386 0.24183 0.73612 0.0
H146 H 0.7654 0.27218 0.71426 0.0
C147 C 0.75488 0.25607 0.69914 0.0
O148 O 0.7669 0.23077 0.70327 0.0
H149 H 0.73122 0.25119 0.70275 0.0
C150 C 0.78207 0.18769 0.78078 0.0
C151 C 0.80324 0.21022 0.77083 0.0
C152 C 0.75567 0.18002 0.76501 0.0
C153 C 0.75046 0.19534 0.73918 0.0
C154 C 0.77134 0.21765 0.72904 0.0
C155 C 0.79763 0.22499 0.74472 0.0
H156 H 0.48055 0.56681 0.55549 0.0
H157 H 0.53568 0.50314 0.5839 0.0
H158 H 0.55357 0.55582 0.50814 0.0
H159 H 0.56097 0.49515 0.50451 0.0
C160 C 0.56747 0.48964 0.52694 0.0
O161 O 0.56994 0.51424 0.54201 0.0
H162 H 0.55033 0.47275 0.53562 0.0
C163 C 0.49906 0.55597 0.55281 0.0
C164 C 0.5163 0.56443 0.5295 0.0
C165 C 0.50559 0.53379 0.5727 0.0
C166 C 0.52975 0.51992 0.56878 0.0
C167 C 0.5468 0.5278 0.54548 0.0
C168 C 0.54019 0.55005 0.52606 0.0
H169 H 0.61253 0.46352 0.01804 0.0
H170 H 0.53579 0.45952 0.96103 0.0
H171 H 0.61689 0.50588 0.93498 0.0
H172 H 0.57216 0.53363 0.90388 0.0
C173 C 0.55478 0.52026 0.916 0.0
O174 O 0.56172 0.49262 0.92106 0.0
H175 H 0.55386 0.53098 0.93612 0.0
C176 C 0.60183 0.46881 0.99785 0.0
C177 C 0.61821 0.4855 0.97715 0.0
C178 C 0.572 0.4586 0.9923 0.0
C179 C 0.5586 0.46692 0.96615 0.0
C180 C 0.57479 0.48413 0.94579 0.0
C181 C 0.60458 0.49272 0.95103 0.0
H182 H 0.69725 0.27981 0.28512 0.0
H183 H 0.70856 0.20837 0.23616 0.0
H184 H 0.75942 0.22276 0.31337 0.0
H185 H 0.7904 0.21122 0.26439 0.0
C186 C 0.77464 0.19259 0.25685 0.0
O187 O 0.74896 0.19035 0.27044 0.0
H188 H 0.76991 0.19631 0.23375 0.0
C189 C 0.70769 0.26107 0.2824 0.0
C190 C 0.72955 0.25371 0.30234 0.0
C191 C 0.7 0.24495 0.25831 0.0
C192 C 0.71435 0.22127 0.25435 0.0
C193 C 0.73581 0.21359 0.2741 0.0
C194 C 0.74311 0.2295 0.29807 0.0
H195 H 0.42137 0.06159 0.03382 0.0
H196 H 0.47568 0.02314 0.98147 0.0
H197 H 0.50483 0.10757 0.0108 0.0
H198 H 0.53062 0.10131 0.95441 0.0
C199 C 0.52042 0.07825 0.95385 0.0
O200 O 0.51763 0.06674 0.98123 0.0
H201 H 0.49875 0.07772 0.94226 0.0
C202 C 0.44108 0.06276 0.0226 0.0
C203 C 0.46243 0.08754 0.02416 0.0
C204 C 0.4458 0.03903 0.00762 0.0
C205 C 0.47174 0.04083 0.99356 0.0
C206 C 0.49281 0.06545 0.99478 0.0
C207 C 0.48829 0.08858 0.01018 0.0
Zn208 Zn 0.30017 0.84458 1.00166 0.0
Zn209 Zn 0.25383 0.87108 1.00152 0.0
O210 O 0.25262 0.84663 0.03993 0.0
O211 O 0.29292 0.82724 0.04068 0.0
O212 O 0.2187 0.89207 1.0009 0.0
O213 O 0.32637 0.88272 0.99745 0.0
O214 O 0.28833 0.90498 0.99991 0.0
C215 C 0.27035 0.83103 0.05255 0.0
C216 C 0.25915 0.82804 0.9561 0.0
O217 O 0.24572 0.8468 0.96578 0.0
O218 O 0.28294 0.82258 0.96813 0.0
C219 C 0.21331 0.90563 0.02183 0.0
O220 O 0.23078 0.90567 0.0447 0.0
C221 C 0.31573 0.90598 0.99825 0.0
Zn222 Zn 0.09543 0.43088 0.34662 0.0
Zn223 Zn 0.13302 0.47709 0.32639 0.0
O224 O 0.11243 0.49412 0.35639 0.0
O225 O 0.08024 0.45819 0.37217 0.0
O226 O 0.16047 0.51156 0.31211 0.0
O227 O 0.13074 0.41085 0.35918 0.0
O228 O 0.15994 0.4479 0.34085 0.0
C229 C 0.09178 0.48456 0.37235 0.0
C230 C 0.08607 0.44537 0.28658 0.0
O231 O 0.10688 0.46577 0.29146 0.0
O232 O 0.07748 0.42703 0.3063 0.0
C233 C 0.15032 0.53415 0.30223 0.0
O234 O 0.12204 0.53413 0.30118 0.0
C235 C 0.15619 0.42285 0.35353 0.0
Zn236 Zn 0.83327 0.58925 0.98966 0.0
Zn237 Zn 0.82371 0.61741 0.03397 0.0
O238 O 0.85938 0.59692 0.0479 0.0
O239 O 0.86837 0.576 0.00991 0.0
O240 O 0.81609 0.64047 0.06668 0.0
O241 O 0.83718 0.62576 0.9649 0.0
O242 O 0.82959 0.64952 1.00143 0.0
C243 C 0.87463 0.58159 0.03546 0.0
C244 C 0.77718 0.56935 0.01111 0.0
O245 O 0.78561 0.58885 0.02857 0.0
O246 O 0.79387 0.56488 0.99239 0.0
C247 C 0.79162 0.64949 0.06662 0.0
O248 O 0.77223 0.64301 0.0458 0.0
C249 C 0.8344 0.64931 0.97531 0.0
Zn250 Zn 0.87132 0.00307 0.30093 0.0
Zn251 Zn 0.89732 0.01071 0.25129 0.0
O252 O 0.87406 0.04522 0.24928 0.0
O253 O 0.85319 0.03926 0.28999 0.0
O254 O 0.91809 0.01413 0.21476 0.0
O255 O 0.91042 0.00621 0.32218 0.0
O256 O 0.93143 0.0132 0.2816 0.0
C257 C 0.85767 0.05353 0.26666 0.0
C258 C 0.85504 0.95482 0.26624 0.0
O259 O 0.87177 0.97061 0.24931 0.0
O260 O 0.85112 0.96373 0.29007 0.0
C261 C 0.93364 0.03725 0.20568 0.0
O262 O 0.93579 0.06062 0.22002 0.0
C263 C 0.93331 0.01082 0.30854 0.0
Zn264 Zn 0.35568 0.12748 0.49188 0.0
Zn265 Zn 0.33429 0.13974 0.5398 0.0
O266 O 0.3707 0.12036 0.55368 0.0
O267 O 0.38855 0.11153 0.51389 0.0
O268 O 0.31944 0.15428 0.57465 0.0
O269 O 0.36023 0.16893 0.47633 0.0
O270 O 0.33826 0.17741 0.51383 0.0
C271 C 0.38973 0.1102 0.54062 0.0
C272 C 0.29757 0.09674 0.50209 0.0
O273 O 0.30108 0.1098 0.52502 0.0
O274 O 0.31732 0.10095 0.48445 0.0
C275 C 0.29337 0.15971 0.57321 0.0
O276 O 0.27693 0.15385 0.55017 0.0
C277 C 0.34895 0.18609 0.49019 0.0
Zn278 Zn 0.35212 0.52215 0.80557 0.0
Zn279 Zn 0.37499 0.52571 0.75555 0.0
O280 O 0.35172 0.56058 0.75445 0.0
O281 O 0.33439 0.55843 0.79665 0.0
O282 O 0.39501 0.5323 0.71843 0.0
O283 O 0.39103 0.52373 0.82623 0.0
O284 O 0.41026 0.52658 0.78488 0.0
C285 C 0.33724 0.57085 0.77229 0.0
C286 C 0.3329 0.4717 0.77319 0.0
O287 O 0.3492 0.48528 0.75451 0.0
O288 O 0.33044 0.48324 0.7961 0.0
C289 C 0.40746 0.51364 0.70753 0.0
O290 O 0.40656 0.48762 0.72004 0.0
C291 C 0.41318 0.5254 0.81181 0.0
Zn292 Zn 0.79288 0.34708 0.49463 0.0
Zn293 Zn 0.74974 0.37734 0.49386 0.0
O294 O 0.74532 0.35163 0.53133 0.0
O295 O 0.78101 0.32576 0.53093 0.0
O296 O 0.71556 0.39998 0.49233 0.0
O297 O 0.82185 0.38299 0.49672 0.0
O298 O 0.7864 0.40933 0.49557 0.0
C299 C 0.75973 0.33243 0.543 0.0
C300 C 0.75666 0.33797 0.44502 0.0
O301 O 0.74252 0.35499 0.45657 0.0
O302 O 0.77982 0.33111 0.45722 0.0
C303 C 0.70749 0.4109 0.5138 0.0
O304 O 0.72193 0.40782 0.53824 0.0
C305 C 0.81358 0.4075 0.49704 0.0
Zn306 Zn 0.59631 0.92227 0.82995 0.0
Zn307 Zn 0.63682 0.97052 0.82337 0.0
O308 O 0.61217 0.98138 0.85379 0.0
O309 O 0.57889 0.94298 0.85973 0.0
O310 O 0.66695 0.00581 0.81796 0.0
O311 O 0.62933 0.89875 0.84087 0.0
O312 O 0.66124 0.9382 0.83491 0.0
C313 C 0.58976 0.96849 0.86587 0.0
C314 C 0.59396 0.9508 0.77395 0.0
O315 O 0.61489 0.96821 0.78469 0.0
O316 O 0.58251 0.92883 0.78858 0.0
C317 C 0.65893 0.03025 0.81113 0.0
O318 O 0.63096 0.03194 0.80812 0.0
C319 C 0.65555 0.91111 0.84126 0.0
Zn320 Zn 0.00868 0.31638 0.85742 0.0
Zn321 Zn 0.00833 0.26314 0.8825 0.0
O322 O 0.04264 0.26602 0.85629 0.0
O323 O 0.04296 0.30969 0.83577 0.0
O324 O 0.00774 0.22428 0.90423 0.0
O325 O 0.0147 0.33486 0.89502 0.0
O326 O 0.01446 0.29108 0.91512 0.0
C327 C 0.05345 0.28612 0.83886 0.0
C328 C 0.9551 0.27834 0.84562 0.0
O329 O 0.96792 0.26001 0.86084 0.0
O330 O 0.96782 0.30405 0.8413 0.0
C331 C 0.031 0.21697 0.9162 0.0
O332 O 0.05568 0.23441 0.91311 0.0
C333 C 0.01636 0.31838 0.91713 0.0
Zn334 Zn 0.52222 0.80898 0.35791 0.0
Zn335 Zn 0.52256 0.75907 0.38948 0.0
O336 O 0.55823 0.76185 0.36514 0.0
O337 O 0.55622 0.80083 0.33679 0.0
O338 O 0.5262 0.72246 0.4142 0.0
O339 O 0.52789 0.83159 0.39315 0.0
O340 O 0.52539 0.79038 0.41877 0.0
C341 C 0.56822 0.77891 0.34484 0.0
C342 C 0.46937 0.76856 0.34999 0.0
O343 O 0.48257 0.75174 0.36682 0.0
O344 O 0.4815 0.79409 0.34369 0.0
C345 C 0.50558 0.70417 0.42388 0.0
O346 O 0.47851 0.7081 0.41754 0.0
C347 C 0.52764 0.81798 0.41711 0.0
Zn348 Zn 0.93926 0.81108 0.59624 0.0
Zn349 Zn 0.9874 0.80612 0.63037 0.0
O350 O 1.00046 0.84105 0.60287 0.0
O351 O 0.96124 0.84585 0.57545 0.0
O352 O 0.02346 0.80346 0.65627 0.0
O353 O 0.9175 0.81685 0.63014 0.0
O354 O 0.95644 0.81203 0.65789 0.0
C355 C 0.98775 0.85425 0.58246 0.0
C356 C 0.95993 0.75624 0.59345 0.0
O357 O 0.97958 0.76718 0.61124 0.0
O358 O 0.94003 0.77056 0.5839 0.0
C359 C 0.02782 0.77993 0.66975 0.0
O360 O 0.00846 0.75662 0.66677 0.0
C361 C 0.92993 0.81615 0.65464 0.0
Zn362 Zn 0.45105 0.28762 0.10878 0.0
Zn363 Zn 0.49839 0.28113 0.14427 0.0
O364 O 0.51348 0.31592 0.11779 0.0
O365 O 0.47518 0.32273 0.08977 0.0
O366 O 0.53249 0.27682 0.172 0.0
O367 O 0.42801 0.29273 0.1423 0.0
O368 O 0.46655 0.28725 0.17036 0.0
C369 C 0.50174 0.33002 0.09744 0.0
C370 C 0.47189 0.23241 0.10603 0.0
O371 O 0.49095 0.24283 0.12458 0.0
O372 O 0.45237 0.24704 0.09605 0.0
C373 C 0.55758 0.27458 0.16409 0.0
O374 O 0.56159 0.275 0.13694 0.0
C375 C 0.44011 0.29151 0.16692 0.0
H376 H 0.22227 0.7409 0.8605 0.0
H377 H 0.19142 0.81593 0.81809 0.0
H378 H 0.20498 0.84312 0.86033 0.0
H379 H 0.22826 0.84639 0.90887 0.0
H380 H 0.26301 0.77221 0.94837 0.0
H381 H 0.24579 0.74419 0.9076 0.0
C382 C 0.21886 0.76334 0.86015 0.0
C383 C 0.20606 0.77628 0.83582 0.0
C384 C 0.22755 0.77913 0.88412 0.0
C385 C 0.20099 0.80517 0.83646 0.0
C386 C 0.20894 0.82086 0.8606 0.0
C387 C 0.23179 0.82403 0.90853 0.0
C388 C 0.24689 0.81138 0.93159 0.0
C389 C 0.22253 0.80816 0.88451 0.0
C390 C 0.25161 0.78248 0.93081 0.0
C391 C 0.24174 0.76642 0.90752 0.0
H392 H 0.05607 0.58787 0.43461 0.0
H393 H 0.97737 0.52698 0.44325 0.0
H394 H 0.99913 0.49038 0.42098 0.0
H395 H 0.03973 0.47659 0.39698 0.0
H396 H 0.11758 0.53854 0.38614 0.0
H397 H 0.09707 0.57375 0.41138 0.0
C398 C 0.0438 0.56653 0.4317 0.0
C399 C 0.01521 0.56001 0.44057 0.0
C400 C 0.05629 0.54583 0.41843 0.0
C401 C 0.99947 0.53234 0.43669 0.0
C402 C 0.01188 0.51149 0.4239 0.0
C403 C 0.05235 0.49767 0.40042 0.0
C404 C 0.08015 0.50488 0.38969 0.0
C405 C 0.04018 0.51808 0.41444 0.0
C406 C 0.09609 0.53242 0.39411 0.0
C407 C 0.08437 0.55262 0.40851 0.0
H408 H 0.83596 0.74616 0.87682 0.0
H409 H 0.81581 0.7967 0.9436 0.0
H410 H 0.81727 0.75483 0.97736 0.0
H411 H 0.82434 0.70349 0.98765 0.0
H412 H 0.84629 0.65493 0.9199 0.0
H413 H 0.84493 0.69678 0.88709 0.0
C414 C 0.83245 0.74837 0.89886 0.0
C415 C 0.82612 0.77474 0.90764 0.0
C416 C 0.83379 0.72453 0.91809 0.0
C417 C 0.82059 0.77665 0.93617 0.0
C418 C 0.82161 0.75276 0.95552 0.0
C419 C 0.82904 0.70217 0.96576 0.0
C420 C 0.83534 0.67595 0.95636 0.0
C421 C 0.82822 0.72653 0.9467 0.0
C422 C 0.8413 0.67468 0.92786 0.0
C423 C 0.84049 0.69863 0.90896 0.0
H424 H 0.06299 0.03573 0.35966 0.0
H425 H 0.02007 0.00699 0.43638 0.0
H426 H 0.97317 0.99774 0.40954 0.0
H427 H 0.94435 0.99994 0.36471 0.0
H428 H 0.98705 0.02852 0.28761 0.0
H429 H 0.03416 0.03573 0.31413 0.0
C430 C 0.0433 0.0274 0.37038 0.0
C431 C 0.04466 0.02256 0.39992 0.0
C432 C 0.0165 0.02225 0.3548 0.0
C433 C 0.01927 0.01126 0.41366 0.0
C434 C 0.99255 0.00599 0.39835 0.0
C435 C 0.96393 0.0077 0.35363 0.0
C436 C 0.9621 0.0139 0.32422 0.0
C437 C 0.99087 0.0118 0.36898 0.0
C438 C 0.98779 0.02364 0.31023 0.0
C439 C 0.01474 0.02781 0.32539 0.0
H440 H 0.26792 0.24203 0.6659 0.0
H441 H 0.18124 0.22221 0.62756 0.0
H442 H 0.19793 0.18871 0.5972 0.0
H443 H 0.23767 0.16769 0.57924 0.0
H444 H 0.32468 0.1872 0.61713 0.0
H445 H 0.30732 0.21772 0.65026 0.0
C446 C 0.25266 0.22989 0.65126 0.0
C447 C 0.22333 0.23427 0.64921 0.0
C448 C 0.26249 0.21073 0.6337 0.0
C449 C 0.20383 0.21891 0.62978 0.0
C450 C 0.21339 0.19985 0.61233 0.0
C451 C 0.25284 0.17838 0.59491 0.0
C452 C 0.28249 0.17534 0.59551 0.0
C453 C 0.24275 0.19598 0.61377 0.0
C454 C 0.30174 0.18916 0.61616 0.0
C455 C 0.29185 0.20673 0.63504 0.0
H456 H 0.48017 0.56885 0.60435 0.0
H457 H 0.48958 0.47924 0.59708 0.0
H458 H 0.46043 0.4652 0.63795 0.0
H459 H 0.43209 0.47823 0.67588 0.0
H460 H 0.42086 0.56755 0.68159 0.0
H461 H 0.45022 0.58158 0.64083 0.0
C462 C 0.47555 0.54616 0.61135 0.0
C463 C 0.4873 0.52522 0.5975 0.0
C464 C 0.45826 0.5381 0.63461 0.0
C465 C 0.48139 0.496 0.60748 0.0
C466 C 0.46447 0.48787 0.63078 0.0
C467 C 0.43598 0.50076 0.66818 0.0
C468 C 0.42428 0.52177 0.68191 0.0
C469 C 0.45283 0.50873 0.64456 0.0
C470 C 0.4295 0.55086 0.67148 0.0
C471 C 0.44638 0.55895 0.64817 0.0
H472 H 0.71748 0.28293 0.66323 0.0
H473 H 0.80383 0.25937 0.66958 0.0
H474 H 0.8122 0.2799 0.62172 0.0
H475 H 0.79527 0.30442 0.57837 0.0
H476 H 0.71018 0.33102 0.57197 0.0
H477 H 0.70092 0.30933 0.61959 0.0
C478 C 0.73801 0.28216 0.65397 0.0
C479 C 0.75967 0.26885 0.66953 0.0
C480 C 0.74286 0.2945 0.62653 0.0
C481 C 0.78655 0.26878 0.65771 0.0
C482 C 0.79138 0.2806 0.63041 0.0
C483 C 0.77456 0.30534 0.58723 0.0
C484 C 0.75331 0.31906 0.5715 0.0
C485 C 0.76967 0.29337 0.61462 0.0
C486 C 0.72685 0.32048 0.58359 0.0
C487 C 0.72157 0.30811 0.6108 0.0
H488 H 0.55373 0.99712 0.65175 0.0
H489 H 0.50037 0.91327 0.65404 0.0
H490 H 0.52012 0.90234 0.70189 0.0
H491 H 0.55317 0.91633 0.7427 0.0
H492 H 0.60793 0.99964 0.73973 0.0
H493 H 0.5872 0.01097 0.69254 0.0
C494 C 0.54626 0.97662 0.66293 0.0
C495 C 0.52553 0.95609 0.64959 0.0
C496 C 0.55815 0.97027 0.69018 0.0
C497 C 0.51633 0.92937 0.66399 0.0
C498 C 0.52763 0.92312 0.69128 0.0
C499 C 0.56063 0.93695 0.73174 0.0
C500 C 0.58212 0.95705 0.74481 0.0
C501 C 0.54872 0.94332 0.70451 0.0
C502 C 0.59153 0.98366 0.73019 0.0
C503 C 0.5796 0.99024 0.70321 0.0
H504 H 0.83231 0.26423 0.77926 0.0
H505 H 0.83734 0.17376 0.79967 0.0
H506 H 0.88395 0.18671 0.82587 0.0
H507 H 0.92435 0.22382 0.84152 0.0
H508 H 0.91941 0.3141 0.81937 0.0
H509 H 0.872 0.30105 0.79517 0.0
C510 C 0.84368 0.2473 0.78925 0.0
C511 C 0.83131 0.21807 0.78738 0.0
C512 C 0.87063 0.25485 0.80396 0.0
C513 C 0.84615 0.19647 0.80098 0.0
C514 C 0.87293 0.20384 0.81584 0.0
C515 C 0.91281 0.24063 0.83155 0.0
C516 C 0.92558 0.26989 0.83224 0.0
C517 C 0.88549 0.23298 0.81733 0.0
C518 C 0.91029 0.29138 0.8191 0.0
C519 C 0.8831 0.28397 0.80522 0.0
H520 H 0.53987 0.87143 0.53713 0.0
H521 H 0.52711 0.9481 0.48522 0.0
H522 H 0.5225 0.92047 0.44278 0.0
H523 H 0.52353 0.87497 0.42046 0.0
H524 H 0.53557 0.79774 0.47216 0.0
H525 H 0.53914 0.82509 0.51467 0.0
C526 C 0.53606 0.88195 0.51647 0.0
C527 C 0.53438 0.9118 0.5141 0.0
C528 C 0.53346 0.86589 0.4922 0.0
C529 C 0.5289 0.92523 0.48739 0.0
C530 C 0.52629 0.90945 0.46319 0.0
C531 C 0.52699 0.86406 0.441 0.0
C532 C 0.5295 0.83435 0.44304 0.0
C533 C 0.52885 0.87985 0.46532 0.0
C534 C 0.53364 0.82058 0.46992 0.0
C535 C 0.53568 0.83622 0.49425 0.0
H536 H 0.16191 0.25592 0.77842 0.0
H537 H 0.15363 0.33857 0.73517 0.0
H538 H 0.11079 0.34195 0.76099 0.0
H539 H 0.0773 0.32289 0.79729 0.0
H540 H 0.08507 0.24069 0.84188 0.0
H541 H 0.12641 0.23563 0.81417 0.0
C542 C 0.15038 0.2744 0.77446 0.0
C543 C 0.1609 0.29702 0.75503 0.0
C544 C 0.12591 0.27643 0.7898 0.0
C545 C 0.14601 0.32101 0.75018 0.0
C546 C 0.12156 0.32297 0.76495 0.0
C547 C 0.08793 0.30379 0.80102 0.0
C548 C 0.07814 0.28231 0.82183 0.0
C549 C 0.11162 0.30108 0.78513 0.0
C550 C 0.09217 0.25764 0.82609 0.0
C551 C 0.11582 0.25472 0.81022 0.0
H552 H 0.55439 0.6078 0.50517 0.0
H553 H 0.4627 0.5751 0.50769 0.0
H554 H 0.45129 0.61523 0.47546 0.0
H555 H 0.46727 0.65995 0.44677 0.0
H556 H 0.55911 0.69195 0.44361 0.0
H557 H 0.57043 0.65159 0.47545 0.0
C558 C 0.53192 0.60921 0.49841 0.0
C559 C 0.50947 0.58842 0.50901 0.0
C560 C 0.52549 0.63228 0.4797 0.0
C561 C 0.48044 0.59097 0.50028 0.0
C562 C 0.47388 0.61386 0.4817 0.0
C563 C 0.48977 0.65809 0.45298 0.0
C564 C 0.51225 0.67909 0.44277 0.0
C565 C 0.49621 0.63473 0.47136 0.0
C566 C 0.5413 0.6762 0.45107 0.0
C567 C 0.54784 0.65309 0.46934 0.0
H568 H 0.83803 0.82509 0.74405 0.0
H569 H 0.90642 0.79958 0.80132 0.0
H570 H 0.93855 0.80181 0.76202 0.0
H571 H 0.94561 0.8076 0.71076 0.0
H572 H 0.87587 0.83169 0.6539 0.0
H573 H 0.84593 0.83349 0.69361 0.0
C574 C 0.86011 0.8204 0.74794 0.0
C575 C 0.86997 0.8122 0.7754 0.0
C576 C 0.8781 0.82122 0.72527 0.0
C577 C 0.89854 0.80605 0.78025 0.0
C578 C 0.91679 0.80719 0.7578 0.0
C579 C 0.92397 0.81351 0.7071 0.0
C580 C 0.91298 0.81925 0.67931 0.0
C581 C 0.90659 0.81422 0.73011 0.0
C582 C 0.88486 0.8269 0.67499 0.0
C583 C 0.86766 0.82798 0.69771 0.0
H584 H 0.03681 0.96087 0.50211 0.0
H585 H 0.11801 0.93123 0.5299 0.0
H586 H 0.09232 0.89388 0.56122 0.0
H587 H 0.04649 0.86806 0.5792 0.0
H588 H 0.96513 0.89574 0.54881 0.0
H589 H 0.99116 0.93506 0.5198 0.0
C590 C 0.04892 0.9461 0.51479 0.0
C591 C 0.07936 0.94899 0.51355 0.0
C592 C 0.03395 0.92417 0.53228 0.0
C593 C 0.09465 0.92992 0.53066 0.0
C594 C 0.07994 0.90835 0.54846 0.0
C595 C 0.0345 0.88286 0.56641 0.0
C596 C 0.00393 0.87895 0.56618 0.0
C597 C 0.04957 0.90513 0.5493 0.0
C598 C 0.98867 0.89816 0.54929 0.0
C599 C 0.00353 0.92068 0.53268 0.0
H600 H 0.1455 0.79446 0.74591 0.0
H601 H 0.12424 0.70134 0.75333 0.0
H602 H 0.07967 0.70371 0.72373 0.0
H603 H 0.04708 0.73203 0.69516 0.0
H604 H 0.06859 0.82515 0.68639 0.0
H605 H 0.11256 0.823 0.71707 0.0
C606 C 0.13095 0.77476 0.74116 0.0
C607 C 0.13819 0.74777 0.75171 0.0
C608 C 0.10544 0.77626 0.72383 0.0
C609 C 0.11931 0.72236 0.74521 0.0
C610 C 0.09377 0.72369 0.72836 0.0
C611 C 0.06131 0.75189 0.7 0.0
C612 C 0.05447 0.7787 0.68847 0.0
C613 C 0.0867 0.75049 0.71742 0.0
C614 C 0.07332 0.80419 0.69489 0.0
C615 C 0.09848 0.803 0.71249 0.0
H616 H 0.98304 0.63539 0.55486 0.0
H617 H 0.89842 0.63787 0.51272 0.0
H618 H 0.89578 0.68404 0.5329 0.0
H619 H 0.91829 0.72453 0.56089 0.0
H620 H 0.00295 0.72223 0.60319 0.0
H621 H 0.00483 0.67519 0.58444 0.0
C622 C 0.96406 0.6461 0.55006 0.0
C623 C 0.94102 0.6333 0.53219 0.0
C624 C 0.96274 0.67269 0.56166 0.0
C625 C 0.91634 0.64716 0.52656 0.0
C626 C 0.9149 0.67363 0.53796 0.0
C627 C 0.93716 0.71375 0.5661 0.0
C628 C 0.96054 0.72705 0.58328 0.0
C629 C 0.93808 0.68671 0.55531 0.0
C630 C 0.98467 0.71257 0.58998 0.0
C631 C 0.98578 0.68568 0.57923 0.0
H632 H 0.78489 0.84319 0.21276 0.0
H633 H 0.76851 0.8209 0.30048 0.0
H634 H 0.79972 0.86515 0.31405 0.0
H635 H 0.82902 0.91149 0.30085 0.0
H636 H 0.84642 0.93385 0.21338 0.0
H637 H 0.8178 0.88799 0.19992 0.0
C638 C 0.78864 0.84771 0.23489 0.0
C639 C 0.77413 0.82888 0.25554 0.0
C640 C 0.8066 0.87329 0.24257 0.0
C641 C 0.77901 0.83526 0.28411 0.0
C642 C 0.7969 0.86053 0.29191 0.0
C643 C 0.82667 0.90632 0.27883 0.0
C644 C 0.83956 0.92624 0.25812 0.0
C645 C 0.81028 0.87997 0.27127 0.0
C646 C 0.83665 0.91897 0.22974 0.0
C647 C 0.82024 0.89276 0.22202 0.0
H648 H 0.80308 0.16501 0.22077 0.0
H649 H 0.77848 0.16053 0.30704 0.0
H650 H 0.80167 0.11723 0.31742 0.0
H651 H 0.82881 0.08076 0.3021 0.0
H652 H 0.85528 0.08577 0.2163 0.0
H653 H 0.83153 0.12878 0.20561 0.0
C654 C 0.80261 0.15433 0.24174 0.0
C655 C 0.78831 0.16539 0.26288 0.0
C656 C 0.81639 0.12966 0.24766 0.0
C657 C 0.78864 0.15195 0.29023 0.0
C658 C 0.80202 0.12729 0.2962 0.0
C659 C 0.82938 0.09116 0.281 0.0
C660 C 0.84372 0.07989 0.26 0.0
C661 C 0.81588 0.11592 0.27507 0.0
C662 C 0.84441 0.09392 0.23288 0.0
C663 C 0.83079 0.1185 0.22674 0.0
H664 H 0.38616 0.03315 1.00105 0.0
H665 H 0.45758 0.98371 0.01365 0.0
H666 H 0.42379 0.93879 0.01076 0.0
H667 H 0.37446 0.91337 0.00467 0.0
H668 H 0.30198 0.96142 0.99379 0.0
H669 H 0.33569 0.00702 0.99616 0.0
C670 C 0.39426 0.01252 0.00342 0.0
C671 C 0.42445 0.01189 0.00723 0.0
C672 C 0.37457 0.98652 1.00196 0.0
C673 C 0.43457 0.98493 0.01011 0.0
C674 C 0.41524 0.95917 0.00861 0.0
C675 C 0.3659 0.93377 1.00266 0.0
C676 C 0.3357 0.93392 0.99886 0.0
C677 C 0.38528 0.95972 0.00437 0.0
C678 C 0.32513 0.96064 0.99663 0.0
C679 C 0.3444 0.98672 0.99803 0.0
H680 H 0.24797 0.3364 0.37923 0.0
H681 H 0.3034 0.40799 0.33952 0.0
H682 H 0.26399 0.4373 0.33682 0.0
H683 H 0.21277 0.44113 0.342 0.0
H684 H 0.15644 0.36899 0.3801 0.0
H685 H 0.19718 0.3415 0.38737 0.0
C686 C 0.25151 0.35862 0.37055 0.0
C687 C 0.27847 0.37004 0.35953 0.0
C688 C 0.22851 0.37514 0.36847 0.0
C689 C 0.28274 0.39873 0.34798 0.0
C690 C 0.26022 0.41545 0.34638 0.0
C691 C 0.20939 0.4195 0.35214 0.0
C692 C 0.18145 0.40712 0.36025 0.0
C693 C 0.23281 0.40365 0.35592 0.0
C694 C 0.17762 0.37906 0.37347 0.0
C695 C 0.20094 0.36328 0.37764 0.0
H696 H 0.18667 0.01651 0.45338 0.0
H697 H 0.15455 0.032 0.53323 0.0
H698 H 0.20144 0.06038 0.54662 0.0
H699 H 0.25081 0.08256 0.53468 0.0
H700 H 0.28246 0.0673 0.45438 0.0
H701 H 0.23643 0.03726 0.44211 0.0
C702 C 0.18994 0.02617 0.47368 0.0
C703 C 0.16716 0.02229 0.49222 0.0
C704 C 0.21681 0.04261 0.48112 0.0
C705 C 0.17184 0.03449 0.51867 0.0
C706 C 0.19857 0.05086 0.52626 0.0
C707 C 0.24771 0.07256 0.51454 0.0
C708 C 0.27007 0.07734 0.49545 0.0
C709 C 0.22112 0.0553 0.50753 0.0
C710 C 0.26566 0.0641 0.46949 0.0
C711 C 0.23931 0.04691 0.4624 0.0
H712 H 0.766 0.12703 0.78666 0.0
H713 H 0.69665 0.1775 0.76493 0.0
H714 H 0.66065 0.13583 0.77802 0.0
H715 H 0.64883 0.08469 0.79412 0.0
H716 H 0.71823 0.03409 0.81551 0.0
H717 H 0.75424 0.07631 0.8044 0.0
C718 C 0.74303 0.12902 0.78519 0.0
C719 C 0.73401 0.1553 0.77479 0.0
C720 C 0.72245 0.10495 0.7926 0.0
C721 C 0.70413 0.15741 0.77259 0.0
C722 C 0.68355 0.13363 0.78015 0.0
C723 C 0.67183 0.08289 0.79649 0.0
C724 C 0.68077 0.0562 0.80554 0.0
C725 C 0.69244 0.10721 0.78989 0.0
C726 C 0.7107 0.05433 0.80851 0.0
C727 C 0.73134 0.07847 0.80216 0.0
H728 H 0.45458 0.0175 0.61045 0.0
H729 H 0.50364 0.02798 0.53548 0.0
H730 H 0.47788 0.06756 0.51731 0.0
H731 H 0.43839 0.0959 0.52045 0.0
H732 H 0.38871 0.0859 0.59492 0.0
H733 H 0.41841 0.05016 0.61594 0.0
C734 C 0.46005 0.02882 0.5904 0.0
C735 C 0.48069 0.01934 0.57413 0.0
C736 C 0.44504 0.05168 0.57997 0.0
C737 C 0.48738 0.03427 0.54814 0.0
C738 C 0.47276 0.05705 0.53778 0.0
C739 C 0.4343 0.08627 0.54149 0.0
C740 C 0.41111 0.09336 0.55593 0.0
C741 C 0.45105 0.0654 0.55316 0.0
C742 C 0.4064 0.08089 0.58331 0.0
C743 C 0.42324 0.06024 0.59524 0.0
H744 H 0.59501 0.47053 0.48438 0.0
H745 H 0.60242 0.47991 0.57425 0.0
H746 H 0.64669 0.45716 0.57812 0.0
H747 H 0.68253 0.43346 0.55603 0.0
H748 H 0.67423 0.42305 0.46614 0.0
H749 H 0.6312 0.44737 0.4622 0.0
C750 C 0.60655 0.46788 0.50474 0.0
C751 C 0.59585 0.47743 0.52893 0.0
C752 C 0.63174 0.45446 0.50681 0.0
C753 C 0.6106 0.47325 0.55529 0.0
C754 C 0.6358 0.46012 0.5575 0.0
C755 C 0.67141 0.43659 0.53554 0.0
C756 C 0.68169 0.42635 0.51143 0.0
C757 C 0.6465 0.4505 0.53342 0.0
C758 C 0.66686 0.43061 0.48508 0.0
C759 C 0.64221 0.44455 0.48278 0.0
H760 H 0.69572 0.27922 0.33583 0.0
H761 H 0.7848 0.26852 0.32479 0.0
H762 H 0.80064 0.29399 0.36729 0.0
H763 H 0.78944 0.3176 0.40848 0.0
H764 H 0.70132 0.33089 0.4196 0.0
H765 H 0.685 0.30672 0.37582 0.0
C766 C 0.71864 0.28279 0.3425 0.0
C767 C 0.73891 0.27133 0.32729 0.0
C768 C 0.72782 0.29795 0.36696 0.0
C769 C 0.76853 0.27623 0.3364 0.0
C770 C 0.77771 0.29104 0.36064 0.0
C771 C 0.76663 0.31532 0.40134 0.0
C772 C 0.74657 0.32574 0.41746 0.0
C773 C 0.75753 0.30159 0.37627 0.0
C774 C 0.71721 0.32302 0.4076 0.0
C775 C 0.70787 0.30911 0.38263 0.0
H776 H 0.50774 0.02155 0.94234 0.0
H777 H 0.5731 0.09651 0.9307 0.0
H778 H 0.60114 0.06872 0.90375 0.0
H779 H 0.60592 0.0237 0.88194 0.0
H780 H 0.54038 0.94857 0.8937 0.0
H781 H 0.51379 0.9757 0.92252 0.0
C782 C 0.52826 0.03162 0.93407 0.0
C783 C 0.53839 0.06093 0.93839 0.0
C784 C 0.5442 0.01551 0.91867 0.0
C785 C 0.56491 0.07394 0.92756 0.0
C786 C 0.58091 0.05807 0.91218 0.0
C787 C 0.58596 0.01314 0.891 0.0
C788 C 0.57514 0.98415 0.88551 0.0
C789 C 0.57062 0.02891 0.90739 0.0
C790 C 0.54923 0.97086 0.8975 0.0
C791 C 0.53393 0.98637 0.91393 0.0
H792 H 0.29997 0.28872 0.42139 0.0
H793 H 0.38519 0.2992 0.38766 0.0
H794 H 0.39906 0.26141 0.42114 0.0
H795 H 0.38522 0.22163 0.4564 0.0
H796 H 0.30195 0.21372 0.49314 0.0
H797 H 0.28954 0.25495 0.46276 0.0
C798 C 0.32185 0.2834 0.42175 0.0
C799 C 0.34105 0.29626 0.40116 0.0
C800 C 0.3301 0.26202 0.44164 0.0
C801 C 0.36939 0.28891 0.40232 0.0
C802 C 0.37752 0.26742 0.42167 0.0
C803 C 0.36463 0.22938 0.45814 0.0
C804 C 0.34441 0.21455 0.47669 0.0
C805 C 0.35774 0.25318 0.44079 0.0
C806 C 0.31791 0.22489 0.47904 0.0
C807 C 0.3107 0.2483 0.4615 0.0
H808 H 0.54398 0.5293 0.85911 0.0
H809 H 0.50111 0.50782 0.93706 0.0
H810 H 0.45356 0.50748 0.91168 0.0
H811 H 0.42456 0.51443 0.86777 0.0
H812 H 0.46687 0.53533 0.78925 0.0
H813 H 0.51443 0.5349 0.81443 0.0
C814 C 0.52415 0.52458 0.87041 0.0
C815 C 0.52582 0.51911 0.89989 0.0
C816 C 0.49697 0.52446 0.85565 0.0
C817 C 0.50014 0.51248 0.9144 0.0
C818 C 0.47306 0.5123 0.89991 0.0
C819 C 0.44414 0.51899 0.85608 0.0
C820 C 0.44214 0.52513 0.82666 0.0
C821 C 0.47126 0.51853 0.87061 0.0
C822 C 0.46779 0.53063 0.8119 0.0
C823 C 0.49498 0.53037 0.82628 0.0
H824 H 0.78547 0.73609 0.16221 0.0
H825 H 0.69621 0.72756 0.12948 0.0
H826 H 0.70575 0.69286 0.09628 0.0
H827 H 0.73985 0.66655 0.07525 0.0
H828 H 0.82927 0.67453 0.10787 0.0
H829 H 0.8193 0.70762 0.14251 0.0
C830 C 0.76815 0.72635 0.14793 0.0
C831 C 0.74023 0.73433 0.1482 0.0
C832 C 0.77383 0.70644 0.12884 0.0
C833 C 0.71787 0.72172 0.12963 0.0
C834 C 0.72333 0.70194 0.11062 0.0
C835 C 0.75718 0.67541 0.08999 0.0
C836 C 0.78533 0.66818 0.0888 0.0
C837 C 0.7513 0.6944 0.10982 0.0
C838 C 0.80742 0.67973 0.10826 0.0
C839 C 0.80174 0.69871 0.12805 0.0
H840 H 1.00083 0.01681 0.0989 0.0
H841 H 0.02724 0.10902 0.10278 0.0
H842 H 0.998 0.1094 0.14354 0.0
H843 H 0.96567 0.08346 0.17873 0.0
H844 H 0.93891 0.99123 0.17478 0.0
H845 H 0.96755 0.99097 0.13358 0.0
C846 C 1.00025 0.03695 0.10876 0.0
C847 C 0.01619 0.06284 0.09777 0.0
C848 C 0.98333 0.03703 0.13223 0.0
C849 C 0.01493 0.08884 0.11058 0.0
C850 C 0.99832 0.08906 0.134 0.0
C851 C 0.96603 0.06329 0.16885 0.0
C852 C 0.95019 0.03741 0.17997 0.0
C853 C 0.9825 0.06328 0.14507 0.0
C854 C 0.95085 0.01151 0.16673 0.0
C855 C 0.96729 0.01131 0.14316 0.0
H856 H 0.22974 0.76815 0.16865 0.0
H857 H 0.32076 0.75908 0.17736 0.0
H858 H 0.32881 0.78553 0.13177 0.0
H859 H 0.30989 0.80986 0.0891 0.0
H860 H 0.21935 0.82099 0.08022 0.0
H861 H 0.21116 0.79526 0.12637 0.0
C862 C 0.25127 0.77194 0.16043 0.0
C863 C 0.27449 0.76097 0.17588 0.0
C864 C 0.25579 0.78751 0.1343 0.0
C865 C 0.30246 0.7667 0.16547 0.0
C866 C 0.30707 0.78189 0.1395 0.0
C867 C 0.28831 0.8067 0.09719 0.0
C868 C 0.26518 0.81706 0.08108 0.0
C869 C 0.28386 0.79211 0.12364 0.0
C870 C 0.2375 0.81317 0.09216 0.0
C871 C 0.23281 0.7984 0.1185 0.0
H872 H 0.01698 0.41744 0.17026 0.0
H873 H 0.05365 0.50614 0.14965 0.0
H874 H 0.07764 0.5096 0.19691 0.0
H875 H 0.08864 0.48723 0.24386 0.0
H876 H 0.05079 0.3989 0.26498 0.0
H877 H 0.02699 0.39542 0.2177 0.0
C878 C 0.03031 0.43748 0.17614 0.0
C879 C 0.0336 0.46148 0.15651 0.0
C880 C 0.04389 0.43935 0.20338 0.0
C881 C 0.05059 0.48745 0.16449 0.0
C882 C 0.06443 0.48939 0.19143 0.0
C883 C 0.07526 0.46718 0.2381 0.0
C884 C 0.07165 0.44331 0.2579 0.0
C885 C 0.06131 0.46545 0.21101 0.0
C886 C 0.05394 0.41761 0.25017 0.0
C887 C 0.04034 0.41559 0.22313 0.0
H888 H 0.34703 0.75027 0.28352 0.0
H889 H 0.35966 0.66069 0.29569 0.0
H890 H 0.40512 0.67475 0.32342 0.0
H891 H 0.44266 0.71298 0.34243 0.0
H892 H 0.43025 0.80252 0.32795 0.0
H893 H 0.38361 0.78798 0.3029 0.0
C894 C 0.35982 0.73381 0.29203 0.0
C895 C 0.34995 0.7045 0.28738 0.0
C896 C 0.3861 0.74205 0.3076 0.0
C897 C 0.36656 0.68342 0.29913 0.0
C898 C 0.39267 0.69145 0.31489 0.0
C899 C 0.42958 0.72923 0.33402 0.0
C900 C 0.44004 0.75878 0.33697 0.0
C901 C 0.4028 0.72075 0.3191 0.0
C902 C 0.42288 0.77962 0.32581 0.0
C903 C 0.39615 0.77135 0.31145 0.0
H904 H 0.0401 0.35483 0.04349 0.0
H905 H 0.02304 0.43677 0.00427 0.0
H906 H 0.01392 0.41527 0.95832 0.0
H907 H 0.01254 0.37368 0.92919 0.0
H908 H 0.02903 0.29133 0.96839 0.0
H909 H 0.03671 0.31245 0.01444 0.0
C910 C 0.03433 0.36786 0.02483 0.0
C911 C 0.03275 0.39742 0.02699 0.0
C912 C 0.02919 0.35534 0.99853 0.0
C913 C 0.02476 0.41407 1.00288 0.0
C914 C 0.01958 0.40179 0.97668 0.0
C915 C 0.01783 0.3603 0.94778 0.0
C916 C 0.02041 0.33098 0.94523 0.0
C917 C 0.02209 0.37255 0.9742 0.0
C918 C 0.02697 0.31396 0.96966 0.0
C919 C 0.03138 0.32603 0.99604 0.0
H920 H 0.68974 0.75916 0.30416 0.0
H921 H 0.65243 0.79031 0.22476 0.0
H922 H 0.60686 0.79304 0.24684 0.0
H923 H 0.57908 0.7898 0.28959 0.0
H924 H 0.61511 0.75577 0.36847 0.0
H925 H 0.65974 0.7507 0.34586 0.0
C926 C 0.67136 0.76602 0.29171 0.0
C927 C 0.67418 0.77451 0.26298 0.0
C928 C 0.64523 0.76726 0.30452 0.0
C929 C 0.65046 0.78346 0.24688 0.0
C930 C 0.62457 0.78521 0.25954 0.0
C931 C 0.59667 0.78112 0.30174 0.0
C932 C 0.59407 0.77354 0.3307 0.0
C933 C 0.62193 0.77771 0.28846 0.0
C934 C 0.61672 0.76181 0.34616 0.0
C935 C 0.64223 0.75898 0.33326 0.0
H936 H 0.00663 0.1064 1.00029 0.0
H937 H 0.10051 0.11884 0.00707 0.0
H938 H 0.10209 0.15972 0.9721 0.0
H939 H 0.07688 0.19319 0.94104 0.0
H940 H 0.98293 0.18075 0.93398 0.0
H941 H 0.98134 0.13872 0.96757 0.0
C942 C 0.02741 0.11811 0.99411 0.0
C943 C 0.05341 0.10963 0.00634 0.0
C944 C 0.02817 0.14164 0.97398 0.0
C945 C 0.08019 0.12474 0.99781 0.0
C946 C 0.08111 0.14823 0.97792 0.0
C947 C 0.05603 0.18122 0.94672 0.0
C948 C 0.03007 0.19028 0.93508 0.0
C949 C 0.05525 0.15704 0.96605 0.0
C950 C 0.00327 0.17433 0.94259 0.0
C951 C 1.00232 0.1503 0.96187 0.0
H952 H 0.38298 0.29628 0.2834 0.0
H953 H 0.31197 0.31765 0.22711 0.0
H954 H 0.3406 0.31475 0.1863 0.0
H955 H 0.38544 0.30539 0.1667 0.0
H956 H 0.45692 0.28442 0.22293 0.0
H957 H 0.42859 0.28807 0.26368 0.0
C958 C 0.37397 0.30044 0.26215 0.0
C959 C 0.34556 0.30725 0.25815 0.0
C960 C 0.39058 0.29878 0.23884 0.0
C961 C 0.33386 0.31247 0.23062 0.0
C962 C 0.3502 0.31078 0.20733 0.0
C963 C 0.3949 0.30165 0.18785 0.0
C964 C 0.42326 0.29455 0.19169 0.0
C965 C 0.37853 0.30384 0.21119 0.0
C966 C 0.43515 0.28993 0.21931 0.0
C967 C 0.41895 0.29197 0.24265 0.0
H968 H 0.59163 0.41624 0.02772 0.0
H969 H 0.51436 0.45501 0.00393 0.0
H970 H 0.48602 0.41887 0.03439 0.0
H971 H 0.48267 0.37508 0.06642 0.0
H972 H 0.56057 0.33872 0.09291 0.0
H973 H 0.58931 0.37577 0.06337 0.0
C974 C 0.56876 0.41737 0.02958 0.0
C975 C 0.55525 0.43831 0.01308 0.0
C976 C 0.55264 0.39692 0.04769 0.0
C977 C 0.52536 0.4388 0.01567 0.0
C978 C 0.5091 0.41824 0.0333 0.0
C979 C 0.50597 0.37539 0.06585 0.0
C980 C 0.51942 0.35403 0.08161 0.0
C981 C 0.52242 0.39695 0.04908 0.0
C982 C 0.54969 0.35493 0.08098 0.0
C983 C 0.56611 0.37604 0.06401 0.0
H984 H 0.6464 0.25736 0.26826 0.0
H985 H 0.70185 0.24911 0.20092 0.0
H986 H 0.66298 0.25813 0.16589 0.0
H987 H 0.61278 0.2668 0.15435 0.0
H988 H 0.55692 0.27442 0.22163 0.0
H989 H 0.59641 0.26741 0.25662 0.0
C990 C 0.65005 0.25791 0.24591 0.0
C991 C 0.67692 0.25247 0.23721 0.0
C992 C 0.62749 0.26285 0.22585 0.0
C993 C 0.68124 0.25291 0.20817 0.0
C994 C 0.65906 0.25813 0.18812 0.0
C995 C 0.60923 0.26703 0.17665 0.0
C996 C 0.58185 0.27104 0.18528 0.0
C997 C 0.63198 0.26281 0.19671 0.0
C998 C 0.57772 0.27129 0.21433 0.0
C999 C 0.60031 0.2673 0.2344 0.0
H1000 H 0.50054 0.11616 0.06197 0.0
H1001 H 0.41455 0.11505 0.02199 0.0
H1002 H 0.40929 0.15925 0.0448 0.0
H1003 H 0.43047 0.19978 0.07374 0.0
H1004 H 0.51648 0.20042 0.11393 0.0
H1005 H 0.5204 0.15486 0.09335 0.0
C1006 C 0.48062 0.12559 0.05834 0.0
C1007 C 0.45806 0.11257 0.04014 0.0
C1008 C 0.47784 0.15098 0.07141 0.0
C1009 C 0.43216 0.12465 0.036 0.0
C1010 C 0.42924 0.14999 0.04889 0.0
C1011 C 0.45003 0.18989 0.07812 0.0
C1012 C 0.47325 0.20369 0.09516 0.0
C1013 C 0.45213 0.1636 0.06627 0.0
C1014 C 0.49829 0.19036 0.10086 0.0
C1015 C 0.5006 0.16431 0.08905 0.0
H1016 H 0.2555 0.34905 0.77839 0.0
H1017 H 0.26794 0.35608 0.68898 0.0
H1018 H 0.30056 0.40207 0.69431 0.0
H1019 H 0.32254 0.44225 0.7243 0.0
H1020 H 0.30732 0.43447 0.81343 0.0
H1021 H 0.27862 0.38718 0.80814 0.0
C1022 C 0.26534 0.36064 0.76003 0.0
C1023 C 0.25903 0.34937 0.73331 0.0
C1024 C 0.28339 0.38718 0.76316 0.0
C1025 C 0.27252 0.36427 0.70983 0.0
C1026 C 0.29098 0.39068 0.71285 0.0
C1027 C 0.31308 0.43009 0.74254 0.0
C1028 C 0.31687 0.44219 0.76914 0.0
C1029 C 0.29612 0.40267 0.73937 0.0
C1030 C 0.30452 0.42602 0.7926 0.0
C1031 C 0.28811 0.39883 0.78968 0.0
H1032 H 0.2732 0.67504 0.7227 0.0
H1033 H 0.26493 0.68342 0.81149 0.0
H1034 H 0.29193 0.64287 0.8232 0.0
H1035 H 0.31642 0.60424 0.80826 0.0
H1036 H 0.32641 0.59622 0.71962 0.0
H1037 H 0.30038 0.63757 0.70775 0.0
C1038 C 0.27732 0.6679 0.74457 0.0
C1039 C 0.26648 0.68166 0.76622 0.0
C1040 C 0.29314 0.64472 0.75114 0.0
C1041 C 0.27256 0.67271 0.79451 0.0
C1042 C 0.28803 0.64961 0.80119 0.0
C1043 C 0.31297 0.61151 0.7863 0.0
C1044 C 0.32314 0.59696 0.76484 0.0
C1045 C 0.29815 0.63528 0.77969 0.0
C1046 C 0.3188 0.60699 0.73656 0.0
C1047 C 0.30384 0.63058 0.72976 0.0
H1048 H 0.92515 0.50061 0.51365 0.0
H1049 H 0.86281 0.5596 0.49485 0.0
H1050 H 0.82337 0.51853 0.49168 0.0
H1051 H 0.80701 0.46531 0.49233 0.0
H1052 H 0.87128 0.40773 0.50916 0.0
H1053 H 0.90939 0.44877 0.51436 0.0
C1054 C 0.90298 0.50459 0.50856 0.0
C1055 C 0.89705 0.53316 0.50419 0.0
C1056 C 0.88067 0.48102 0.50619 0.0
C1057 C 0.86802 0.53782 0.49847 0.0
C1058 C 0.84547 0.51433 0.49645 0.0
C1059 C 0.82934 0.46181 0.49715 0.0
C1060 C 0.83612 0.43336 0.50015 0.0
C1061 C 0.85158 0.48575 0.49997 0.0
C1062 C 0.86526 0.42927 0.50647 0.0
C1063 C 0.8872 0.45276 0.50956 0.0
H1064 H 0.74331 0.821 0.8701 0.0
H1065 H 0.80552 0.89788 0.85482 0.0
H1066 H 0.76606 0.92704 0.84718 0.0
H1067 H 0.71388 0.93029 0.84252 0.0
H1068 H 0.6514 0.85322 0.85675 0.0
H1069 H 0.69092 0.82464 0.86727 0.0
C1070 C 0.7482 0.84422 0.86558 0.0
C1071 C 0.77727 0.85729 0.86304 0.0
C1072 C 0.72535 0.86078 0.86078 0.0
C1073 C 0.78329 0.88732 0.85672 0.0
C1074 C 0.76075 0.90399 0.85234 0.0
C1075 C 0.70884 0.90727 0.84804 0.0
C1076 C 0.67963 0.89397 0.84868 0.0
C1077 C 0.73168 0.89088 0.85388 0.0
C1078 C 0.67363 0.86408 0.85596 0.0
C1079 C 0.69624 0.84768 0.86201 0.0
H1080 H 0.64438 0.51703 0.02024 0.0
H1081 H 0.662 0.47705 0.94534 0.0
H1082 H 0.71338 0.49775 0.95065 0.0
H1083 H 0.75224 0.52976 0.97443 0.0
H1084 H 0.73489 0.57222 0.04809 0.0
H1085 H 0.68448 0.54781 0.0456 0.0
C1086 C 0.65967 0.51257 0.00541 0.0
C1087 C 0.64962 0.49566 0.98242 0.0
C1088 C 0.68906 0.52512 0.00825 0.0
C1089 C 0.66938 0.49018 0.96309 0.0
C1090 C 0.69867 0.502 0.96611 0.0
C1091 C 0.73758 0.53356 0.99015 0.0
C1092 C 0.74734 0.55293 0.01133 0.0
C1093 C 0.70862 0.51994 0.98827 0.0
C1094 C 0.72795 0.55749 0.03149 0.0
C1095 C 0.6991 0.54357 0.03006 0.0
H1096 H 0.21778 0.65563 0.26089 0.0
H1097 H 0.29139 0.61051 0.28136 0.0
H1098 H 0.25876 0.56674 0.29555 0.0
H1099 H 0.20942 0.54128 0.30224 0.0
H1100 H 0.13566 0.58611 0.28115 0.0
H1101 H 0.16828 0.62981 0.26669 0.0
C1102 C 0.22666 0.63613 0.26819 0.0
C1103 C 0.25699 0.63641 0.27015 0.0
C1104 C 0.20777 0.61095 0.27615 0.0
C1105 C 0.26816 0.61105 0.28005 0.0
C1106 C 0.24951 0.58594 0.288 0.0
C1107 C 0.20044 0.56058 0.29443 0.0
C1108 C 0.17013 0.56039 0.29283 0.0
C1109 C 0.21929 0.58567 0.28621 0.0
C1110 C 0.1589 0.58561 0.28263 0.0
C1111 C 0.17754 0.61065 0.27437 0.0
H1112 H 0.95397 0.50742 0.1131 0.0
H1113 H 0.99134 0.50228 0.03307 0.0
H1114 H 0.95992 0.53533 0.01064 0.0
H1115 H 0.91954 0.56274 0.01281 0.0
H1116 H 0.88248 0.56933 0.09253 0.0
H1117 H 0.91685 0.53945 0.11622 0.0
C1118 C 0.95568 0.51393 0.09087 0.0
C1119 C 0.97471 0.50184 0.07474 0.0
C1120 C 0.93766 0.53327 0.07805 0.0
C1121 C 0.97639 0.51052 0.0459 0.0
C1122 C 0.95857 0.52963 0.03305 0.0
C1123 C 0.91918 0.55795 0.03545 0.0
C1124 C 0.89827 0.56797 0.05084 0.0
C1125 C 0.93872 0.54062 0.04878 0.0
C1126 C 0.89837 0.56191 0.08021 0.0
C1127 C 0.91787 0.54464 0.0937 0.0
H1128 H 0.10323 0.96964 0.99575 0.0
H1129 H 0.12054 0.98832 0.08333 0.0
H1130 H 0.16229 0.96189 0.0862 0.0
H1131 H 0.19379 0.93343 0.06376 0.0
H1132 H 0.1757 0.9138 0.97633 0.0
H1133 H 0.13439 0.94058 0.97346 0.0
C1134 C 0.11631 0.96807 0.01538 0.0
C1135 C 0.10925 0.98142 0.03914 0.0
C1136 C 0.14007 0.95259 0.01692 0.0
C1137 C 0.12594 0.97868 0.06464 0.0
C1138 C 0.14972 0.96349 0.06629 0.0
C1139 C 0.18084 0.935 0.04406 0.0
C1140 C 0.18795 0.92161 0.02029 0.0
C1141 C 0.15701 0.95038 0.04256 0.0
C1142 C 0.17078 0.92383 0.99498 0.0
C1143 C 0.14714 0.93919 0.99329 0.0
loop_
_geom_bond_atom_site_label_1
_geom_bond_atom_site_label_2
_geom_bond_distance
_geom_bond_site_symmetry_2
_ccdc_geom_bond_type
H0 C7 0.929 1_655 S
H1 C10 0.930 . S
H2 C12 0.918 1_556 S
H3 C4 0.969 . S
C4 H3 0.969 . S
C4 O5 1.550 1_565 S
C4 H6 0.973 . S
O5 C4 1.550 1_545 S
O5 C11 1.412 . S
H6 C4 0.973 . S
C7 H0 0.929 1_455 S
C7 C8 1.400 . S
C7 C9 1.364 . S
C8 C7 1.400 . S
C8 C12 1.377 . S
C9 C7 1.364 . S
C9 C10 1.374 . S
C10 H1 0.930 . S
C10 C9 1.374 . S
C10 C11 1.383 . S
C11 O5 1.412 . S
C11 C10 1.383 . S
C11 C12 1.394 . S
C12 H2 0.918 1_554 S
C12 C8 1.377 . S
C12 C11 1.394 . S
H13 C20 0.929 . S
H14 C23 0.930 . S
H15 C25 0.929 . S
H16 C17 0.969 . S
C17 H16 0.969 . S
C17 O18 1.550 . S
C17 H19 0.973 . S
O18 C17 1.550 . S
O18 C24 1.412 . S
H19 C17 0.973 . S
C20 H13 0.929 . S
C20 C21 1.400 . S
C20 C22 1.364 . S
C21 C20 1.400 . S
C21 C25 1.377 . S
C22 C20 1.364 . S
C22 C23 1.374 . S
C23 H14 0.930 . S
C23 C22 1.374 . S
C23 C24 1.383 . S
C24 O18 1.412 . S
C24 C23 1.383 . S
C24 C25 1.394 . S
C25 H15 0.929 . S
C25 C21 1.377 . S
C25 C24 1.394 . S
H26 C33 0.929 . S
H27 C36 0.930 . S
H28 C38 0.929 1_455 S
H29 C30 0.969 . S
C30 H29 0.969 . S
C30 O31 1.550 . S
C30 H32 0.973 . S
O31 C30 1.550 . S
O31 C37 1.412 . S
H32 C30 0.973 . S
C33 H26 0.929 . S
C33 C34 1.400 . S
C33 C35 1.364 . S
C34 C33 1.400 . S
C34 C38 1.377 . S
C35 C33 1.364 . S
C35 C36 1.374 . S
C36 H27 0.930 . S
C36 C35 1.374 . S
C36 C37 1.383 . S
C37 O31 1.412 . S
C37 C36 1.383 . S
C37 C38 1.394 . S
C38 H28 0.929 1_655 S
C38 C34 1.377 . S
C38 C37 1.394 . S
H39 C46 0.929 . S
H40 C49 0.930 . S
H41 C51 0.929 . S
H42 C43 0.969 . S
C43 H42 0.969 . S
C43 O44 1.550 . S
C43 H45 0.973 . S
O44 C43 1.550 . S
O44 C50 1.412 . S
H45 C43 0.973 . S
C46 H39 0.929 . S
C46 C47 1.400 . S
C46 C48 1.364 . S
C47 C46 1.400 . S
C47 C51 1.377 . S
C48 C46 1.364 . S
C48 C49 1.374 . S
C49 H40 0.930 . S
C49 C48 1.374 . S
C49 C50 1.383 . S
C50 O44 1.412 . S
C50 C49 1.383 . S
C50 C51 1.394 . S
C51 H41 0.929 . S
C51 C47 1.377 . S
C51 C50 1.394 . S
H52 C59 0.929 . S
H53 C62 0.930 . S
H54 C64 0.929 . S
H55 C56 0.969 . S
C56 H55 0.969 . S
C56 O57 1.550 . S
C56 H58 0.973 . S
O57 C56 1.550 . S
O57 C63 1.412 . S
H58 C56 0.973 . S
C59 H52 0.929 . S
C59 C60 1.400 . S
C59 C61 1.364 . S
C60 C59 1.400 . S
C60 C64 1.377 . S
C61 C59 1.364 . S
C61 C62 1.374 . S
C62 H53 0.930 . S
C62 C61 1.374 . S
C62 C63 1.383 . S
C63 O57 1.412 . S
C63 C62 1.383 . S
C63 C64 1.394 . S
C64 H54 0.929 . S
C64 C60 1.377 . S
C64 C63 1.394 . S
H65 C72 0.929 . S
H66 C75 0.930 . S
H67 C77 0.929 . S
H68 C69 0.969 . S
C69 H68 0.969 . S
C69 O70 1.550 . S
C69 H71 0.973 . S
O70 C69 1.550 . S
O70 C76 1.412 . S
H71 C69 0.973 . S
C72 H65 0.929 . S
C72 C73 1.400 . S
C72 C74 1.364 . S
C73 C72 1.400 . S
C73 C77 1.377 . S
C74 C72 1.364 . S
C74 C75 1.374 . S
C75 H66 0.930 . S
C75 C74 1.374 . S
C75 C76 1.383 . S
C76 O70 1.412 . S
C76 C75 1.383 . S
C76 C77 1.394 . S
C77 H67 0.929 . S
C77 C73 1.377 . S
C77 C76 1.394 . S
H78 C85 0.929 . S
H79 C88 0.930 . S
H80 C90 0.929 1_455 S
H81 C82 0.969 1_655 S
C82 H81 0.969 1_455 S
C82 O83 1.550 . S
C82 H84 0.961 1_455 S
O83 C82 1.550 . S
O83 C89 1.412 1_455 S
H84 C82 0.961 1_655 S
C85 H78 0.929 . S
C85 C86 1.400 . S
C85 C87 1.364 . S
C86 C85 1.400 . S
C86 C90 1.377 . S
C87 C85 1.364 . S
C87 C88 1.374 . S
C88 H79 0.930 . S
C88 C87 1.374 . S
C88 C89 1.383 . S
C89 O83 1.412 1_655 S
C89 C88 1.383 . S
C89 C90 1.394 . S
C90 H80 0.929 1_655 S
C90 C86 1.377 . S
C90 C89 1.394 . S
H91 C98 0.929 . S
H92 C101 0.930 . S
H93 C103 0.929 . S
H94 C95 0.969 . S
C95 H94 0.969 . S
C95 O96 1.550 . S
C95 H97 0.973 . S
O96 C95 1.550 . S
O96 C102 1.412 . S
H97 C95 0.973 . S
C98 H91 0.929 . S
C98 C99 1.400 . S
C98 C100 1.364 . S
C99 C98 1.400 . S
C99 C103 1.377 . S
C100 C98 1.364 . S
C100 C101 1.374 . S
C101 H92 0.930 . S
C101 C100 1.374 . S
C101 C102 1.383 . S
C102 O96 1.412 . S
C102 C101 1.383 . S
C102 C103 1.394 . S
C103 H93 0.929 . S
C103 C99 1.377 . S
C103 C102 1.394 . S
H104 C111 0.929 . S
H105 C114 0.930 . S
H106 C116 0.929 . S
H107 C108 0.969 . S
C108 H107 0.969 . S
C108 O109 1.550 . S
C108 H110 0.973 . S
O109 C108 1.550 . S
O109 C115 1.412 . S
H110 C108 0.973 . S
C111 H104 0.929 . S
C111 C112 1.400 . S
C111 C113 1.364 . S
C112 C111 1.400 . S
C112 C116 1.377 . S
C113 C111 1.364 . S
C113 C114 1.374 . S
C114 H105 0.930 . S
C114 C113 1.374 . S
C114 C115 1.383 . S
C115 O109 1.412 . S
C115 C114 1.383 . S
C115 C116 1.394 . S
C116 H106 0.929 . S
C116 C112 1.377 . S
C116 C115 1.394 . S
H117 C124 0.929 . S
H118 C127 0.930 . S
H119 C129 0.929 . S
H120 C121 0.969 . S
C121 H120 0.969 . S
C121 O122 1.550 . S
C121 H123 0.973 . S
O122 C121 1.550 . S
O122 C128 1.412 . S
H123 C121 0.973 . S
C124 H117 0.929 . S
C124 C125 1.400 . S
C124 C126 1.364 . S
C125 C124 1.400 . S
C125 C129 1.377 . S
C126 C124 1.364 . S
C126 C127 1.374 . S
C127 H118 0.930 . S
C127 C126 1.374 . S
C127 C128 1.383 . S
C128 O122 1.412 . S
C128 C127 1.383 . S
C128 C129 1.394 . S
C129 H119 0.929 . S
C129 C125 1.377 . S
C129 C128 1.394 . S
H130 C137 0.929 . S
H131 C140 0.930 . S
H132 C142 0.929 . S
H133 C134 0.969 . S
C134 H133 0.969 . S
C134 O135 1.550 . S
C134 H136 0.973 . S
O135 C134 1.550 . S
O135 C141 1.412 . S
H136 C134 0.973 . S
C137 H130 0.929 . S
C137 C138 1.400 . S
C137 C139 1.364 . S
C138 C137 1.400 . S
C138 C142 1.377 . S
C139 C137 1.364 . S
C139 C140 1.374 . S
C140 H131 0.930 . S
C140 C139 1.374 . S
C140 C141 1.383 . S
C141 O135 1.412 . S
C141 C140 1.383 . S
C141 C142 1.394 . S
C142 H132 0.929 . S
C142 C138 1.377 . S
C142 C141 1.394 . S
H143 C150 0.929 . S
H144 C153 0.930 . S
H145 C155 0.929 . S
H146 C147 0.969 . S
C147 H146 0.969 . S
C147 O148 1.550 . S
C147 H149 0.973 . S
O148 C147 1.550 . S
O148 C154 1.412 . S
H149 C147 0.973 . S
C150 H143 0.929 . S
C150 C151 1.400 . S
C150 C152 1.364 . S
C151 C150 1.400 . S
C151 C155 1.377 . S
C152 C150 1.364 . S
C152 C153 1.374 . S
C153 H144 0.930 . S
C153 C152 1.374 . S
C153 C154 1.383 . S
C154 O148 1.412 . S
C154 C153 1.383 . S
C154 C155 1.394 . S
C155 H145 0.929 . S
C155 C151 1.377 . S
C155 C154 1.394 . S
H156 C163 0.929 . S
H157 C166 0.930 . S
H158 C168 0.929 . S
H159 C160 0.969 . S
C160 H159 0.969 . S
C160 O161 1.550 . S
C160 H162 0.973 . S
O161 C160 1.550 . S
O161 C167 1.412 . S
H162 C160 0.973 . S
C163 H156 0.929 . S
C163 C164 1.400 . S
C163 C165 1.364 . S
C164 C163 1.400 . S
C164 C168 1.377 . S
C165 C163 1.364 . S
C165 C166 1.374 . S
C166 H157 0.930 . S
C166 C165 1.374 . S
C166 C167 1.383 . S
C167 O161 1.412 . S
C167 C166 1.383 . S
C167 C168 1.394 . S
C168 H158 0.929 . S
C168 C164 1.377 . S
C168 C167 1.394 . S
H169 C176 0.929 1_554 S
H170 C179 0.930 . S
H171 C181 0.929 . S
H172 C173 0.969 . S
C173 H172 0.969 . S
C173 O174 1.550 . S
C173 H175 0.973 . S
O174 C173 1.550 . S
O174 C180 1.412 . S
H175 C173 0.973 . S
C176 H169 0.929 1_556 S
C176 C177 1.400 . S
C176 C178 1.364 . S
C177 C176 1.400 . S
C177 C181 1.377 . S
C178 C176 1.364 . S
C178 C179 1.374 . S
C179 H170 0.930 . S
C179 C178 1.374 . S
C179 C180 1.383 . S
C180 O174 1.412 . S
C180 C179 1.383 . S
C180 C181 1.394 . S
C181 H171 0.929 . S
C181 C177 1.377 . S
C181 C180 1.394 . S
H182 C189 0.929 . S
H183 C192 0.930 . S
H184 C194 0.929 . S
H185 C186 0.969 . S
C186 H185 0.969 . S
C186 O187 1.550 . S
C186 H188 0.973 . S
O187 C186 1.550 . S
O187 C193 1.412 . S
H188 C186 0.973 . S
C189 H182 0.929 . S
C189 C190 1.400 . S
C189 C191 1.364 . S
C190 C189 1.400 . S
C190 C194 1.377 . S
C191 C189 1.364 . S
C191 C192 1.374 . S
C192 H183 0.930 . S
C192 C191 1.374 . S
C192 C193 1.383 . S
C193 O187 1.412 . S
C193 C192 1.383 . S
C193 C194 1.394 . S
C194 H184 0.929 . S
C194 C190 1.377 . S
C194 C193 1.394 . S
H195 C202 0.929 1_554 S
H196 C205 0.930 . S
H197 C207 0.929 . S
H198 C199 0.969 . S
C199 H198 0.969 . S
C199 O200 1.550 . S
C199 H201 0.973 . S
O200 C199 1.550 . S
O200 C206 1.412 . S
H201 C199 0.973 . S
C202 H195 0.929 1_556 S
C202 C203 1.400 . S
C202 C204 1.364 . S
C203 C202 1.400 . S
C203 C207 1.377 . S
C204 C202 1.364 . S
C204 C205 1.374 . S
C205 H196 0.930 . S
C205 C204 1.374 . S
C205 C206 1.383 . S
C206 O200 1.412 . S
C206 C205 1.383 . S
C206 C207 1.394 . S
C207 H197 0.929 . S
C207 C203 1.377 . S
C207 C206 1.394 . S
Zn208 O211 2.038 . S
Zn208 O213 2.045 1_554 S
Zn208 O218 2.056 1_554 S
Zn209 O210 1.962 . S
Zn209 O212 1.986 . S
Zn209 O214 1.996 . S
Zn209 O217 1.943 1_554 S
O210 Zn209 1.962 . S
O210 C215 1.254 . S
O211 Zn208 2.038 . S
O211 C215 1.269 . S
O212 Zn209 1.986 . S
O212 C219 1.262 . S
O213 Zn208 2.045 1_556 S
O213 C221 1.260 . S
O214 Zn209 1.996 . S
O214 C221 1.257 1_554 S
C215 O210 1.254 . S
C215 O211 1.269 . S
C216 O217 1.249 . S
C216 O218 1.270 . S
O217 Zn209 1.943 1_556 S
O217 C216 1.249 . S
O218 Zn208 2.056 1_556 S
O218 C216 1.270 . S
C219 O212 1.262 . S
C219 O220 1.232 . S
O220 C219 1.232 . S
C221 O213 1.260 . S
C221 O214 1.257 1_556 S
Zn222 O225 2.031 . S
Zn222 O227 2.049 . S
Zn222 O232 2.067 . S
Zn223 O224 1.962 . S
Zn223 O226 1.986 . S
Zn223 O228 1.996 . S
Zn223 O231 1.943 . S
O224 Zn223 1.962 . S
O224 C229 1.254 . S
O225 Zn222 2.031 . S
O225 C229 1.269 . S
O226 Zn223 1.986 . S
O226 C233 1.262 . S
O227 Zn222 2.049 . S
O227 C235 1.260 . S
O228 Zn223 1.996 . S
O228 C235 1.257 . S
C229 O224 1.254 . S
C229 O225 1.269 . S
C230 O231 1.249 . S
C230 O232 1.270 . S
O231 Zn223 1.943 . S
O231 C230 1.249 . S
O232 Zn222 2.067 . S
O232 C230 1.270 . S
C233 O226 1.262 . S
C233 O234 1.232 . S
O234 C233 1.232 . S
C235 O227 1.260 . S
C235 O228 1.257 . S
Zn236 O239 2.031 1_556 S
Zn236 O241 2.049 . S
Zn236 O246 2.059 1_556 S
Zn237 O238 1.962 . S
Zn237 O240 1.986 . S
Zn237 O242 1.996 . S
Zn237 O245 1.943 . S
O238 Zn237 1.962 . S
O238 C243 1.254 . S
O239 Zn236 2.031 1_554 S
O239 C243 1.269 . S
O240 Zn237 1.986 . S
O240 C247 1.262 . S
O241 Zn236 2.049 . S
O241 C249 1.260 . S
O242 Zn237 1.996 . S
O242 C249 1.257 1_554 S
C243 O238 1.254 . S
C243 O239 1.269 . S
C244 O245 1.249 . S
C244 O246 1.308 . S
O245 Zn237 1.943 . S
O245 C244 1.249 . S
O246 Zn236 2.059 1_554 S
O246 C244 1.308 . S
C247 O240 1.262 . S
C247 O248 1.232 . S
O248 C247 1.232 . S
C249 O241 1.260 . S
C249 O242 1.257 1_556 S
Zn250 O253 2.031 . S
Zn250 O255 2.049 1_545 S
Zn250 O260 2.067 1_545 S
Zn251 O252 1.962 . S
Zn251 O254 1.986 . S
Zn251 O256 1.996 . S
Zn251 O259 1.943 1_545 S
O252 Zn251 1.962 . S
O252 C257 1.254 . S
O253 Zn250 2.031 . S
O253 C257 1.269 . S
O254 Zn251 1.986 . S
O254 C261 1.262 . S
O255 Zn250 2.049 1_565 S
O255 C263 1.260 1_565 S
O256 Zn251 1.996 . S
O256 C263 1.257 . S
C257 O252 1.254 . S
C257 O253 1.269 . S
C258 O259 1.249 . S
C258 O260 1.270 . S
O259 Zn251 1.943 1_565 S
O259 C258 1.249 . S
O260 Zn250 2.067 1_565 S
O260 C258 1.270 . S
C261 O254 1.262 . S
C261 O262 1.232 . S
O262 C261 1.232 . S
C263 O255 1.260 1_545 S
C263 O256 1.257 . S
Zn264 O267 2.031 . S
Zn264 O269 2.049 . S
Zn264 O274 2.067 . S
Zn265 O266 1.962 . S
Zn265 O268 1.986 . S
Zn265 O270 1.996 . S
Zn265 O273 1.943 . S
O266 Zn265 1.962 . S
O266 C271 1.254 . S
O267 Zn264 2.031 . S
O267 C271 1.269 . S
O268 Zn265 1.986 . S
O268 C275 1.262 . S
O269 Zn264 2.049 . S
O269 C277 1.260 . S
O270 Zn265 1.996 . S
O270 C277 1.257 . S
C271 O266 1.254 . S
C271 O267 1.269 . S
C272 O273 1.249 . S
C272 O274 1.270 . S
O273 Zn265 1.943 . S
O273 C272 1.249 . S
O274 Zn264 2.067 . S
O274 C272 1.270 . S
C275 O268 1.262 . S
C275 O276 1.232 . S
O276 C275 1.232 . S
C277 O269 1.260 . S
C277 O270 1.257 . S
Zn278 O281 2.031 . S
Zn278 O283 2.049 . S
Zn278 O288 2.067 . S
Zn279 O280 1.962 . S
Zn279 O282 1.986 . S
Zn279 O284 1.996 . S
Zn279 O287 1.943 . S
O280 Zn279 1.962 . S
O280 C285 1.254 . S
O281 Zn278 2.031 . S
O281 C285 1.269 . S
O282 Zn279 1.986 . S
O282 C289 1.262 . S
O283 Zn278 2.049 . S
O283 C291 1.260 . S
O284 Zn279 1.996 . S
O284 C291 1.257 . S
C285 O280 1.254 . S
C285 O281 1.269 . S
C286 O287 1.249 . S
C286 O288 1.270 . S
O287 Zn279 1.943 . S
O287 C286 1.249 . S
O288 Zn278 2.067 . S
O288 C286 1.270 . S
C289 O282 1.262 . S
C289 O290 1.232 . S
O290 C289 1.232 . S
C291 O283 1.260 . S
C291 O284 1.257 . S
Zn292 O295 2.031 . S
Zn292 O297 2.049 . S
Zn292 O302 2.067 . S
Zn293 O294 1.962 . S
Zn293 O296 1.986 . S
Zn293 O298 1.996 . S
Zn293 O301 1.943 . S
O294 Zn293 1.962 . S
O294 C299 1.254 . S
O295 Zn292 2.031 . S
O295 C299 1.269 . S
O296 Zn293 1.986 . S
O296 C303 1.262 . S
O297 Zn292 2.049 . S
O297 C305 1.260 . S
O298 Zn293 1.996 . S
O298 C305 1.257 . S
C299 O294 1.254 . S
C299 O295 1.269 . S
C300 O301 1.249 . S
C300 O302 1.270 . S
O301 Zn293 1.943 . S
O301 C300 1.249 . S
O302 Zn292 2.067 . S
O302 C300 1.270 . S
C303 O296 1.262 . S
C303 O304 1.232 . S
O304 C303 1.232 . S
C305 O297 1.260 . S
C305 O298 1.257 . S
Zn306 O309 2.031 . S
Zn306 O311 2.049 . S
Zn306 O316 2.067 . S
Zn307 O308 1.962 . S
Zn307 O310 1.986 . S
Zn307 O312 1.996 1_545 S
Zn307 O315 1.943 . S
O308 Zn307 1.962 . S
O308 C313 1.254 . S
O309 Zn306 2.031 . S
O309 C313 1.269 1_565 S
O310 Zn307 1.986 . S
O310 C317 1.262 . S
O311 Zn306 2.049 . S
O311 C319 1.260 . S
O312 Zn307 1.996 1_565 S
O312 C319 1.257 . S
C313 O308 1.254 . S
C313 O309 1.269 1_545 S
C314 O315 1.249 1_565 S
C314 O316 1.270 . S
O315 Zn307 1.943 . S
O315 C314 1.249 1_545 S
O316 Zn306 2.067 . S
O316 C314 1.270 . S
C317 O310 1.262 . S
C317 O318 1.232 . S
O318 C317 1.232 . S
C319 O311 1.260 . S
C319 O312 1.257 . S
Zn320 O323 2.031 . S
Zn320 O325 2.049 1_455 S
Zn320 O330 2.067 1_455 S
Zn321 O322 1.962 . S
Zn321 O324 1.986 . S
Zn321 O326 1.996 . S
Zn321 O329 1.943 1_455 S
O322 Zn321 1.962 . S
O322 C327 1.254 . S
O323 Zn320 2.031 . S
O323 C327 1.269 . S
O324 Zn321 1.986 . S
O324 C331 1.262 . S
O325 Zn320 2.049 1_655 S
O325 C333 1.260 . S
O326 Zn321 1.996 . S
O326 C333 1.257 1_455 S
C327 O322 1.254 . S
C327 O323 1.269 . S
C328 O329 1.249 . S
C328 O330 1.270 . S
O329 Zn321 1.943 1_655 S
O329 C328 1.249 . S
O330 Zn320 2.067 1_655 S
O330 C328 1.270 . S
C331 O324 1.262 . S
C331 O332 1.232 . S
O332 C331 1.232 . S
C333 O325 1.260 . S
C333 O326 1.257 1_655 S
Zn334 O337 2.031 . S
Zn334 O339 2.049 . S
Zn334 O344 2.067 . S
Zn335 O336 1.962 . S
Zn335 O338 1.986 . S
Zn335 O340 1.996 . S
Zn335 O343 1.943 . S
O336 Zn335 1.962 . S
O336 C341 1.254 . S
O337 Zn334 2.031 . S
O337 C341 1.269 . S
O338 Zn335 1.986 . S
O338 C345 1.262 . S
O339 Zn334 2.049 . S
O339 C347 1.260 . S
O340 Zn335 1.996 . S
O340 C347 1.257 . S
C341 O336 1.254 . S
C341 O337 1.269 . S
C342 O343 1.249 . S
C342 O344 1.270 . S
O343 Zn335 1.943 . S
O343 C342 1.249 . S
O344 Zn334 2.067 . S
O344 C342 1.270 . S
C345 O338 1.262 . S
C345 O346 1.232 . S
O346 C345 1.232 . S
C347 O339 1.260 . S
C347 O340 1.257 . S
Zn348 O351 2.031 1_655 S
Zn348 O353 2.049 . S
Zn348 O358 2.067 . S
Zn349 O350 1.962 . S
Zn349 O352 1.986 . S
Zn349 O354 1.996 1_455 S
Zn349 O357 1.943 . S
O350 Zn349 1.962 . S
O350 C355 1.254 . S
O351 Zn348 2.031 1_455 S
O351 C355 1.269 . S
O352 Zn349 1.986 . S
O352 C359 1.262 . S
O353 Zn348 2.049 . S
O353 C361 1.260 . S
O354 Zn349 1.996 1_655 S
O354 C361 1.257 . S
C355 O350 1.254 . S
C355 O351 1.269 . S
C356 O357 1.249 . S
C356 O358 1.270 1_455 S
O357 Zn349 1.943 . S
O357 C356 1.249 . S
O358 Zn348 2.067 . S
O358 C356 1.270 1_655 S
C359 O352 1.262 . S
C359 O360 1.232 . S
O360 C359 1.232 . S
C361 O353 1.260 . S
C361 O354 1.257 . S
Zn362 O365 2.031 . S
Zn362 O367 2.049 . S
Zn362 O372 2.067 . S
Zn363 O364 1.962 . S
Zn363 O366 1.986 . S
Zn363 O368 1.996 . S
Zn363 O371 1.943 . S
O364 Zn363 1.962 . S
O364 C369 1.254 . S
O365 Zn362 2.031 . S
O365 C369 1.269 . S
O366 Zn363 1.986 . S
O366 C373 1.262 . S
O367 Zn362 2.049 . S
O367 C375 1.260 . S
O368 Zn363 1.996 . S
O368 C375 1.257 . S
C369 O364 1.254 . S
C369 O365 1.269 . S
C370 O371 1.249 . S
C370 O372 1.270 . S
O371 Zn363 1.943 . S
O371 C370 1.249 . S
O372 Zn362 2.067 . S
O372 C370 1.270 . S
C373 O366 1.262 . S
C373 O374 1.232 . S
O374 C373 1.232 . S
C375 O367 1.260 . S
C375 O368 1.257 . S
H376 C382 0.930 . S
H377 C385 0.930 . S
H378 C386 0.930 . S
H379 C387 0.930 . S
H380 C390 0.930 . S
H381 C391 0.930 . S
C382 H376 0.930 . S
C382 C383 1.355 . S
C382 C384 1.415 . S
C383 C382 1.355 . S
C383 C385 1.419 . S
C384 C382 1.415 . S
C384 C389 1.425 . S
C384 C391 1.409 . S
C385 H377 0.930 . S
C385 C383 1.419 . S
C385 C386 1.362 . S
C386 H378 0.930 . S
C386 C385 1.362 . S
C386 C389 1.409 . S
C387 H379 0.930 . S
C387 C388 1.355 . S
C387 C389 1.415 . S
C388 C387 1.355 . S
C388 C390 1.419 . S
C389 C384 1.425 . S
C389 C386 1.409 . S
C389 C387 1.415 . S
C390 H380 0.930 . S
C390 C388 1.419 . S
C390 C391 1.362 . S
C391 H381 0.930 . S
C391 C384 1.409 . S
C391 C390 1.362 . S
H392 C398 0.930 . S
H393 C401 0.930 1_655 S
H394 C402 0.930 . S
H395 C403 0.930 . S
H396 C406 0.930 . S
H397 C407 0.930 . S
C398 H392 0.930 . S
C398 C399 1.355 . S
C398 C400 1.415 . S
C399 C398 1.355 . S
C399 C401 1.419 . S
C400 C398 1.415 . S
C400 C405 1.425 . S
C400 C407 1.409 . S
C401 H393 0.930 1_455 S
C401 C399 1.419 . S
C401 C402 1.362 . S
C402 H394 0.930 . S
C402 C401 1.362 . S
C402 C405 1.409 . S
C403 H395 0.930 . S
C403 C404 1.355 . S
C403 C405 1.415 . S
C404 C403 1.355 . S
C404 C406 1.419 . S
C405 C400 1.425 . S
C405 C402 1.409 . S
C405 C403 1.415 . S
C406 H396 0.930 . S
C406 C404 1.419 . S
C406 C407 1.362 . S
C407 H397 0.930 . S
C407 C400 1.409 . S
C407 C406 1.362 . S
H408 C414 0.930 . S
H409 C417 0.930 . S
H410 C418 0.930 . S
H411 C419 0.930 . S
H412 C422 0.930 . S
H413 C423 0.930 . S
C414 H408 0.930 . S
C414 C415 1.355 . S
C414 C416 1.415 . S
C415 C414 1.355 . S
C415 C417 1.419 . S
C416 C414 1.415 . S
C416 C421 1.425 . S
C416 C423 1.409 . S
C417 H409 0.930 . S
C417 C415 1.419 . S
C417 C418 1.362 . S
C418 H410 0.930 . S
C418 C417 1.362 . S
C418 C421 1.409 . S
C419 H411 0.930 . S
C419 C420 1.355 . S
C419 C421 1.415 . S
C420 C419 1.355 . S
C420 C422 1.419 . S
C421 C416 1.425 . S
C421 C418 1.409 . S
C421 C419 1.415 . S
C422 H412 0.930 . S
C422 C420 1.419 . S
C422 C423 1.362 . S
C423 H413 0.930 . S
C423 C416 1.409 . S
C423 C422 1.362 . S
H424 C430 0.930 . S
H425 C433 0.930 . S
H426 C434 0.930 . S
H427 C435 0.930 . S
H428 C438 0.930 . S
H429 C439 0.930 1_455 S
C430 H424 0.930 . S
C430 C431 1.355 . S
C430 C432 1.415 1_455 S
C431 C430 1.355 . S
C431 C433 1.419 1_455 S
C432 C430 1.415 1_655 S
C432 C437 1.425 . S
C432 C439 1.409 1_565 S
C433 H425 0.930 . S
C433 C431 1.419 1_655 S
C433 C434 1.362 . S
C434 H426 0.930 . S
C434 C433 1.362 . S
C434 C437 1.409 . S
C435 H427 0.930 . S
C435 C436 1.362 . S
C435 C437 1.415 . S
C436 C435 1.362 . S
C436 C438 1.416 1_565 S
C437 C432 1.425 . S
C437 C434 1.409 . S
C437 C435 1.415 . S
C438 H428 0.930 . S
C438 C436 1.416 1_545 S
C438 C439 1.362 . S
C439 H429 0.930 1_655 S
C439 C432 1.409 1_545 S
C439 C438 1.362 . S
H440 C446 0.930 . S
H441 C449 0.930 . S
H442 C450 0.930 . S
H443 C451 0.930 . S
H444 C454 0.930 . S
H445 C455 0.930 . S
C446 H440 0.930 . S
C446 C447 1.355 . S
C446 C448 1.415 . S
C447 C446 1.355 . S
C447 C449 1.419 . S
C448 C446 1.415 . S
C448 C453 1.425 . S
C448 C455 1.409 . S
C449 H441 0.930 . S
C449 C447 1.419 . S
C449 C450 1.362 . S
C450 H442 0.930 . S
C450 C449 1.362 . S
C450 C453 1.409 . S
C451 H443 0.930 . S
C451 C452 1.355 . S
C451 C453 1.415 . S
C452 C451 1.355 . S
C452 C454 1.419 . S
C453 C448 1.425 . S
C453 C450 1.409 . S
C453 C451 1.415 . S
C454 H444 0.930 . S
C454 C452 1.419 . S
C454 C455 1.362 . S
C455 H445 0.930 . S
C455 C448 1.409 . S
C455 C454 1.362 . S
H456 C462 0.930 . S
H457 C465 0.930 . S
H458 C466 0.930 . S
H459 C467 0.930 . S
H460 C470 0.930 . S
H461 C471 0.930 . S
C462 H456 0.930 . S
C462 C463 1.355 . S
C462 C464 1.415 . S
C463 C462 1.355 . S
C463 C465 1.419 . S
C464 C462 1.415 . S
C464 C469 1.425 . S
C464 C471 1.409 . S
C465 H457 0.930 . S
C465 C463 1.419 . S
C465 C466 1.362 . S
C466 H458 0.930 . S
C466 C465 1.362 . S
C466 C469 1.409 . S
C467 H459 0.930 . S
C467 C468 1.355 . S
C467 C469 1.415 . S
C468 C467 1.355 . S
C468 C470 1.419 . S
C469 C464 1.425 . S
C469 C466 1.409 . S
C469 C467 1.415 . S
C470 H460 0.930 . S
C470 C468 1.419 . S
C470 C471 1.362 . S
C471 H461 0.930 . S
C471 C464 1.409 . S
C471 C470 1.362 . S
H472 C478 0.930 . S
H473 C481 0.930 . S
H474 C482 0.930 . S
H475 C483 0.930 . S
H476 C486 0.930 . S
H477 C487 0.930 . S
C478 H472 0.930 . S
C478 C479 1.355 . S
C478 C480 1.415 . S
C479 C478 1.355 . S
C479 C481 1.419 . S
C480 C478 1.415 . S
C480 C485 1.425 . S
C480 C487 1.409 . S
C481 H473 0.930 . S
C481 C479 1.419 . S
C481 C482 1.362 . S
C482 H474 0.930 . S
C482 C481 1.362 . S
C482 C485 1.409 . S
C483 H475 0.930 . S
C483 C484 1.355 . S
C483 C485 1.415 . S
C484 C483 1.355 . S
C484 C486 1.419 . S
C485 C480 1.425 . S
C485 C482 1.409 . S
C485 C483 1.415 . S
C486 H476 0.930 . S
C486 C484 1.419 . S
C486 C487 1.362 . S
C487 H477 0.930 . S
C487 C480 1.409 . S
C487 C486 1.362 . S
H488 C494 0.930 . S
H489 C497 0.930 . S
H490 C498 0.930 . S
H491 C499 0.930 . S
H492 C502 0.930 . S
H493 C503 0.930 . S
C494 H488 0.930 . S
C494 C495 1.355 . S
C494 C496 1.415 . S
C495 C494 1.355 . S
C495 C497 1.419 . S
C496 C494 1.415 . S
C496 C501 1.425 . S
C496 C503 1.409 . S
C497 H489 0.930 . S
C497 C495 1.419 . S
C497 C498 1.362 . S
C498 H490 0.930 . S
C498 C497 1.362 . S
C498 C501 1.409 . S
C499 H491 0.930 . S
C499 C500 1.355 . S
C499 C501 1.415 . S
C500 C499 1.355 . S
C500 C502 1.419 . S
C501 C496 1.425 . S
C501 C498 1.409 . S
C501 C499 1.415 . S
C502 H492 0.930 . S
C502 C500 1.419 . S
C502 C503 1.362 . S
C503 H493 0.930 . S
C503 C496 1.409 . S
C503 C502 1.362 . S
H504 C510 0.930 . S
H505 C513 0.930 . S
H506 C514 0.930 . S
H507 C515 0.930 . S
H508 C518 0.930 . S
H509 C519 0.930 . S
C510 H504 0.930 . S
C510 C511 1.355 . S
C510 C512 1.415 . S
C511 C510 1.355 . S
C511 C513 1.419 . S
C512 C510 1.415 . S
C512 C517 1.425 . S
C512 C519 1.409 . S
C513 H505 0.930 . S
C513 C511 1.419 . S
C513 C514 1.362 . S
C514 H506 0.930 . S
C514 C513 1.362 . S
C514 C517 1.409 . S
C515 H507 0.930 . S
C515 C516 1.355 . S
C515 C517 1.415 . S
C516 C515 1.355 . S
C516 C518 1.419 . S
C517 C512 1.425 . S
C517 C514 1.409 . S
C517 C515 1.415 . S
C518 H508 0.930 . S
C518 C516 1.419 . S
C518 C519 1.362 . S
C519 H509 0.930 . S
C519 C512 1.409 . S
C519 C518 1.362 . S
H520 C526 0.930 . S
H521 C529 0.930 . S
H522 C530 0.930 . S
H523 C531 0.930 . S
H524 C534 0.930 . S
H525 C535 0.930 . S
C526 H520 0.930 . S
C526 C527 1.355 . S
C526 C528 1.415 . S
C527 C526 1.355 . S
C527 C529 1.419 . S
C528 C526 1.415 . S
C528 C533 1.425 . S
C528 C535 1.409 . S
C529 H521 0.930 . S
C529 C527 1.419 . S
C529 C530 1.362 . S
C530 H522 0.930 . S
C530 C529 1.362 . S
C530 C533 1.409 . S
C531 H523 0.930 . S
C531 C532 1.355 . S
C531 C533 1.415 . S
C532 C531 1.355 . S
C532 C534 1.419 . S
C533 C528 1.425 . S
C533 C530 1.409 . S
C533 C531 1.415 . S
C534 H524 0.930 . S
C534 C532 1.419 . S
C534 C535 1.362 . S
C535 H525 0.930 . S
C535 C528 1.409 . S
C535 C534 1.362 . S
H536 C542 0.930 . S
H537 C545 0.930 . S
H538 C546 0.930 . S
H539 C547 0.930 . S
H540 C550 0.930 . S
H541 C551 0.930 . S
C542 H536 0.930 . S
C542 C543 1.355 . S
C542 C544 1.415 . S
C543 C542 1.355 . S
C543 C545 1.419 . S
C544 C542 1.415 . S
C544 C549 1.425 . S
C544 C551 1.409 . S
C545 H537 0.930 . S
C545 C543 1.419 . S
C545 C546 1.362 . S
C546 H538 0.930 . S
C546 C545 1.362 . S
C546 C549 1.409 . S
C547 H539 0.930 . S
C547 C548 1.355 . S
C547 C549 1.415 . S
C548 C547 1.355 . S
C548 C550 1.419 . S
C549 C544 1.425 . S
C549 C546 1.409 . S
C549 C547 1.415 . S
C550 H540 0.930 . S
C550 C548 1.419 . S
C550 C551 1.362 . S
C551 H541 0.930 . S
C551 C544 1.409 . S
C551 C550 1.362 . S
H552 C558 0.930 . S
H553 C561 0.930 . S
H554 C562 0.930 . S
H555 C563 0.930 . S
H556 C566 0.930 . S
H557 C567 0.930 . S
C558 H552 0.930 . S
C558 C559 1.355 . S
C558 C560 1.415 . S
C559 C558 1.355 . S
C559 C561 1.419 . S
C560 C558 1.415 . S
C560 C565 1.425 . S
C560 C567 1.409 . S
C561 H553 0.930 . S
C561 C559 1.419 . S
C561 C562 1.362 . S
C562 H554 0.930 . S
C562 C561 1.362 . S
C562 C565 1.409 . S
C563 H555 0.930 . S
C563 C564 1.355 . S
C563 C565 1.415 . S
C564 C563 1.355 . S
C564 C566 1.419 . S
C565 C560 1.425 . S
C565 C562 1.409 . S
C565 C563 1.415 . S
C566 H556 0.930 . S
C566 C564 1.419 . S
C566 C567 1.362 . S
C567 H557 0.930 . S
C567 C560 1.409 . S
C567 C566 1.362 . S
H568 C574 0.930 . S
H569 C577 0.930 . S
H570 C578 0.930 . S
H571 C579 0.930 . S
H572 C582 0.930 . S
H573 C583 0.930 . S
C574 H568 0.930 . S
C574 C575 1.355 . S
C574 C576 1.415 . S
C575 C574 1.355 . S
C575 C577 1.419 . S
C576 C574 1.415 . S
C576 C581 1.425 . S
C576 C583 1.409 . S
C577 H569 0.930 . S
C577 C575 1.419 . S
C577 C578 1.362 . S
C578 H570 0.930 . S
C578 C577 1.362 . S
C578 C581 1.409 . S
C579 H571 0.930 . S
C579 C580 1.355 . S
C579 C581 1.415 . S
C580 C579 1.355 . S
C580 C582 1.419 . S
C581 C576 1.425 . S
C581 C578 1.409 . S
C581 C579 1.415 . S
C582 H572 0.930 . S
C582 C580 1.419 . S
C582 C583 1.362 . S
C583 H573 0.930 . S
C583 C576 1.409 . S
C583 C582 1.362 . S
H584 C590 0.930 . S
H585 C593 0.930 . S
H586 C594 0.930 . S
H587 C595 0.930 . S
H588 C598 0.930 1_655 S
H589 C599 0.930 1_655 S
C590 H584 0.930 . S
C590 C591 1.355 . S
C590 C592 1.415 . S
C591 C590 1.355 . S
C591 C593 1.419 . S
C592 C590 1.415 . S
C592 C597 1.425 . S
C592 C599 1.409 . S
C593 H585 0.930 . S
C593 C591 1.419 . S
C593 C594 1.362 . S
C594 H586 0.930 . S
C594 C593 1.362 . S
C594 C597 1.409 . S
C595 H587 0.930 . S
C595 C596 1.355 . S
C595 C597 1.415 . S
C596 C595 1.355 . S
C596 C598 1.419 . S
C597 C592 1.425 . S
C597 C594 1.409 . S
C597 C595 1.415 . S
C598 H588 0.930 1_455 S
C598 C596 1.419 . S
C598 C599 1.362 . S
C599 H589 0.930 1_455 S
C599 C592 1.409 . S
C599 C598 1.362 . S
H600 C606 0.930 . S
H601 C609 0.930 . S
H602 C610 0.930 . S
H603 C611 0.930 . S
H604 C614 0.930 . S
H605 C615 0.930 . S
C606 H600 0.930 . S
C606 C607 1.355 . S
C606 C608 1.415 . S
C607 C606 1.355 . S
C607 C609 1.419 . S
C608 C606 1.415 . S
C608 C613 1.425 . S
C608 C615 1.409 . S
C609 H601 0.930 . S
C609 C607 1.419 . S
C609 C610 1.362 . S
C610 H602 0.930 . S
C610 C609 1.362 . S
C610 C613 1.409 . S
C611 H603 0.930 . S
C611 C612 1.355 . S
C611 C613 1.415 . S
C612 C611 1.355 . S
C612 C614 1.419 . S
C613 C608 1.425 . S
C613 C610 1.409 . S
C613 C611 1.415 . S
C614 H604 0.930 . S
C614 C612 1.419 . S
C614 C615 1.362 . S
C615 H605 0.930 . S
C615 C608 1.409 . S
C615 C614 1.362 . S
H616 C622 0.930 1_455 S
H617 C625 0.930 . S
H618 C626 0.930 . S
H619 C627 0.930 . S
H620 C630 0.930 . S
H621 C631 0.930 . S
C622 H616 0.930 1_655 S
C622 C623 1.355 . S
C622 C624 1.415 . S
C623 C622 1.355 . S
C623 C625 1.419 . S
C624 C622 1.415 . S
C624 C629 1.425 . S
C624 C631 1.409 1_655 S
C625 H617 0.930 . S
C625 C623 1.419 . S
C625 C626 1.362 . S
C626 H618 0.930 . S
C626 C625 1.362 . S
C626 C629 1.409 . S
C627 H619 0.930 . S
C627 C628 1.355 1_655 S
C627 C629 1.415 . S
C628 C627 1.355 1_455 S
C628 C630 1.419 . S
C629 C624 1.425 . S
C629 C626 1.409 . S
C629 C627 1.415 . S
C630 H620 0.930 . S
C630 C628 1.419 . S
C630 C631 1.362 . S
C631 H621 0.930 . S
C631 C624 1.409 1_455 S
C631 C630 1.362 . S
H632 C638 0.930 . S
H633 C641 0.930 . S
H634 C642 0.930 . S
H635 C643 0.930 . S
H636 C646 0.930 . S
H637 C647 0.930 . S
C638 H632 0.930 . S
C638 C639 1.355 . S
C638 C640 1.415 . S
C639 C638 1.355 . S
C639 C641 1.419 . S
C640 C638 1.415 . S
C640 C645 1.425 . S
C640 C647 1.409 . S
C641 H633 0.930 . S
C641 C639 1.419 . S
C641 C642 1.362 . S
C642 H634 0.930 . S
C642 C641 1.362 . S
C642 C645 1.409 . S
C643 H635 0.930 . S
C643 C644 1.355 . S
C643 C645 1.415 . S
C644 C643 1.355 . S
C644 C646 1.419 . S
C645 C640 1.425 . S
C645 C642 1.409 . S
C645 C643 1.415 . S
C646 H636 0.930 . S
C646 C644 1.419 . S
C646 C647 1.362 . S
C647 H637 0.930 . S
C647 C640 1.409 . S
C647 C646 1.362 . S
H648 C654 0.930 . S
H649 C657 0.930 . S
H650 C658 0.930 . S
H651 C659 0.930 . S
H652 C662 0.930 . S
H653 C663 0.930 . S
C654 H648 0.930 . S
C654 C655 1.355 . S
C654 C656 1.415 . S
C655 C654 1.355 . S
C655 C657 1.419 . S
C656 C654 1.415 . S
C656 C661 1.425 . S
C656 C663 1.409 . S
C657 H649 0.930 . S
C657 C655 1.419 . S
C657 C658 1.362 . S
C658 H650 0.930 . S
C658 C657 1.362 . S
C658 C661 1.409 . S
C659 H651 0.930 . S
C659 C660 1.355 . S
C659 C661 1.415 . S
C660 C659 1.355 . S
C660 C662 1.419 . S
C661 C656 1.425 . S
C661 C658 1.409 . S
C661 C659 1.415 . S
C662 H652 0.930 . S
C662 C660 1.419 . S
C662 C663 1.362 . S
C663 H653 0.930 . S
C663 C656 1.409 . S
C663 C662 1.362 . S
H664 C670 0.930 . S
H665 C673 0.930 . S
H666 C674 0.930 . S
H667 C675 0.930 . S
H668 C678 0.924 1_554 S
H669 C679 0.921 1_554 S
C670 H664 0.930 . S
C670 C671 1.355 . S
C670 C672 1.415 . S
C671 C670 1.355 . S
C671 C673 1.419 . S
C672 C670 1.415 . S
C672 C677 1.425 1_545 S
C672 C679 1.409 . S
C673 H665 0.930 . S
C673 C671 1.419 . S
C673 C674 1.362 1_545 S
C674 H666 0.930 . S
C674 C673 1.362 1_565 S
C674 C677 1.409 . S
C675 H667 0.930 . S
C675 C676 1.355 . S
C675 C677 1.415 . S
C676 C675 1.355 . S
C676 C678 1.419 . S
C677 C672 1.425 1_565 S
C677 C674 1.409 . S
C677 C675 1.415 . S
C678 H668 0.924 1_556 S
C678 C676 1.419 . S
C678 C679 1.362 1_565 S
C679 H669 0.921 1_556 S
C679 C672 1.409 . S
C679 C678 1.362 1_545 S
H680 C686 0.930 . S
H681 C689 0.930 . S
H682 C690 0.930 . S
H683 C691 0.930 . S
H684 C694 0.930 . S
H685 C695 0.930 . S
C686 H680 0.930 . S
C686 C687 1.355 . S
C686 C688 1.415 . S
C687 C686 1.355 . S
C687 C689 1.419 . S
C688 C686 1.415 . S
C688 C693 1.425 . S
C688 C695 1.409 . S
C689 H681 0.930 . S
C689 C687 1.419 . S
C689 C690 1.362 . S
C690 H682 0.930 . S
C690 C689 1.362 . S
C690 C693 1.409 . S
C691 H683 0.930 . S
C691 C692 1.355 . S
C691 C693 1.415 . S
C692 C691 1.355 . S
C692 C694 1.419 . S
C693 C688 1.425 . S
C693 C690 1.409 . S
C693 C691 1.415 . S
C694 H684 0.930 . S
C694 C692 1.419 . S
C694 C695 1.362 . S
C695 H685 0.930 . S
C695 C688 1.409 . S
C695 C694 1.362 . S
H696 C702 0.930 . S
H697 C705 0.930 . S
H698 C706 0.930 . S
H699 C707 0.930 . S
H700 C710 0.930 . S
H701 C711 0.930 . S
C702 H696 0.930 . S
C702 C703 1.355 . S
C702 C704 1.415 1_565 S
C703 C702 1.355 . S
C703 C705 1.419 1_565 S
C704 C702 1.415 1_545 S
C704 C709 1.425 . S
C704 C711 1.409 . S
C705 H697 0.930 . S
C705 C703 1.419 1_545 S
C705 C706 1.362 . S
C706 H698 0.930 . S
C706 C705 1.362 . S
C706 C709 1.409 . S
C707 H699 0.930 . S
C707 C708 1.355 . S
C707 C709 1.415 . S
C708 C707 1.355 . S
C708 C710 1.419 . S
C709 C704 1.425 . S
C709 C706 1.409 . S
C709 C707 1.415 . S
C710 H700 0.930 . S
C710 C708 1.419 . S
C710 C711 1.362 . S
C711 H701 0.930 . S
C711 C704 1.409 . S
C711 C710 1.362 . S
H712 C718 0.930 . S
H713 C721 0.930 . S
H714 C722 0.930 . S
H715 C723 0.930 . S
H716 C726 0.930 . S
H717 C727 0.930 . S
C718 H712 0.930 . S
C718 C719 1.355 . S
C718 C720 1.415 . S
C719 C718 1.355 . S
C719 C721 1.419 . S
C720 C718 1.415 . S
C720 C725 1.425 . S
C720 C727 1.409 . S
C721 H713 0.930 . S
C721 C719 1.419 . S
C721 C722 1.362 . S
C722 H714 0.930 . S
C722 C721 1.362 . S
C722 C725 1.409 . S
C723 H715 0.930 . S
C723 C724 1.355 . S
C723 C725 1.415 . S
C724 C723 1.355 . S
C724 C726 1.419 . S
C725 C720 1.425 . S
C725 C722 1.409 . S
C725 C723 1.415 . S
C726 H716 0.930 . S
C726 C724 1.419 . S
C726 C727 1.362 . S
C727 H717 0.930 . S
C727 C720 1.409 . S
C727 C726 1.362 . S
H728 C734 0.930 . S
H729 C737 0.930 . S
H730 C738 0.930 . S
H731 C739 0.930 . S
H732 C742 0.930 . S
H733 C743 0.930 1_565 S
C734 H728 0.930 . S
C734 C735 1.355 . S
C734 C736 1.415 1_565 S
C735 C734 1.355 . S
C735 C737 1.419 1_565 S
C736 C734 1.415 1_545 S
C736 C741 1.425 . S
C736 C743 1.409 . S
C737 H729 0.930 . S
C737 C735 1.419 1_545 S
C737 C738 1.362 . S
C738 H730 0.930 . S
C738 C737 1.362 . S
C738 C741 1.409 . S
C739 H731 0.930 . S
C739 C740 1.355 . S
C739 C741 1.415 . S
C740 C739 1.355 . S
C740 C742 1.419 . S
C741 C736 1.425 . S
C741 C738 1.409 . S
C741 C739 1.415 . S
C742 H732 0.930 . S
C742 C740 1.419 . S
C742 C743 1.362 . S
C743 H733 0.930 1_545 S
C743 C736 1.409 . S
C743 C742 1.362 . S
H744 C750 0.930 . S
H745 C753 0.930 . S
H746 C754 0.930 . S
H747 C755 0.930 . S
H748 C758 0.930 . S
H749 C759 0.930 . S
C750 H744 0.930 . S
C750 C751 1.355 . S
C750 C752 1.415 . S
C751 C750 1.355 . S
C751 C753 1.419 . S
C752 C750 1.415 . S
C752 C757 1.425 . S
C752 C759 1.409 . S
C753 H745 0.930 . S
C753 C751 1.419 . S
C753 C754 1.362 . S
C754 H746 0.930 . S
C754 C753 1.362 . S
C754 C757 1.409 . S
C755 H747 0.930 . S
C755 C756 1.355 . S
C755 C757 1.415 . S
C756 C755 1.355 . S
C756 C758 1.419 . S
C757 C752 1.425 . S
C757 C754 1.409 . S
C757 C755 1.415 . S
C758 H748 0.930 . S
C758 C756 1.419 . S
C758 C759 1.362 . S
C759 H749 0.930 . S
C759 C752 1.409 . S
C759 C758 1.362 . S
H760 C766 0.930 . S
H761 C769 0.930 . S
H762 C770 0.930 . S
H763 C771 0.930 . S
H764 C774 0.930 . S
H765 C775 0.930 . S
C766 H760 0.930 . S
C766 C767 1.355 . S
C766 C768 1.415 . S
C767 C766 1.355 . S
C767 C769 1.419 . S
C768 C766 1.415 . S
C768 C773 1.425 . S
C768 C775 1.409 . S
C769 H761 0.930 . S
C769 C767 1.419 . S
C769 C770 1.362 . S
C770 H762 0.930 . S
C770 C769 1.362 . S
C770 C773 1.409 . S
C771 H763 0.930 . S
C771 C772 1.355 . S
C771 C773 1.415 . S
C772 C771 1.355 . S
C772 C774 1.419 . S
C773 C768 1.425 . S
C773 C770 1.409 . S
C773 C771 1.415 . S
C774 H764 0.930 . S
C774 C772 1.419 . S
C774 C775 1.362 . S
C775 H765 0.930 . S
C775 C768 1.409 . S
C775 C774 1.362 . S
H776 C782 0.930 . S
H777 C785 0.930 . S
H778 C786 0.930 . S
H779 C787 0.930 . S
H780 C790 0.930 1_565 S
H781 C791 0.930 1_565 S
C782 H776 0.930 . S
C782 C783 1.355 . S
C782 C784 1.415 . S
C783 C782 1.355 . S
C783 C785 1.419 . S
C784 C782 1.415 . S
C784 C789 1.425 . S
C784 C791 1.409 . S
C785 H777 0.930 . S
C785 C783 1.419 . S
C785 C786 1.362 . S
C786 H778 0.930 . S
C786 C785 1.362 . S
C786 C789 1.409 . S
C787 H779 0.930 . S
C787 C788 1.355 . S
C787 C789 1.415 . S
C788 C787 1.355 . S
C788 C790 1.419 . S
C789 C784 1.425 . S
C789 C786 1.409 . S
C789 C787 1.415 . S
C790 H780 0.930 1_545 S
C790 C788 1.419 . S
C790 C791 1.362 . S
C791 H781 0.930 1_545 S
C791 C784 1.409 . S
C791 C790 1.362 . S
H792 C798 0.930 . S
H793 C801 0.930 . S
H794 C802 0.930 . S
H795 C803 0.930 . S
H796 C806 0.930 . S
H797 C807 0.930 . S
C798 H792 0.930 . S
C798 C799 1.355 . S
C798 C800 1.415 . S
C799 C798 1.355 . S
C799 C801 1.419 . S
C800 C798 1.415 . S
C800 C805 1.425 . S
C800 C807 1.409 . S
C801 H793 0.930 . S
C801 C799 1.419 . S
C801 C802 1.362 . S
C802 H794 0.930 . S
C802 C801 1.362 . S
C802 C805 1.409 . S
C803 H795 0.930 . S
C803 C804 1.355 . S
C803 C805 1.415 . S
C804 C803 1.355 . S
C804 C806 1.419 . S
C805 C800 1.425 . S
C805 C802 1.409 . S
C805 C803 1.415 . S
C806 H796 0.930 . S
C806 C804 1.419 . S
C806 C807 1.362 . S
C807 H797 0.930 . S
C807 C800 1.409 . S
C807 C806 1.362 . S
H808 C814 0.930 . S
H809 C817 0.930 . S
H810 C818 0.930 . S
H811 C819 0.930 . S
H812 C822 0.930 . S
H813 C823 0.930 . S
C814 H808 0.930 . S
C814 C815 1.355 . S
C814 C816 1.415 . S
C815 C814 1.355 . S
C815 C817 1.419 . S
C816 C814 1.415 . S
C816 C821 1.425 . S
C816 C823 1.409 . S
C817 H809 0.930 . S
C817 C815 1.419 . S
C817 C818 1.362 . S
C818 H810 0.930 . S
C818 C817 1.362 . S
C818 C821 1.409 . S
C819 H811 0.930 . S
C819 C820 1.355 . S
C819 C821 1.415 . S
C820 C819 1.355 . S
C820 C822 1.419 . S
C821 C816 1.425 . S
C821 C818 1.409 . S
C821 C819 1.415 . S
C822 H812 0.930 . S
C822 C820 1.419 . S
C822 C823 1.362 . S
C823 H813 0.930 . S
C823 C816 1.409 . S
C823 C822 1.362 . S
H824 C830 0.930 . S
H825 C833 0.930 . S
H826 C834 0.930 . S
H827 C835 0.930 . S
H828 C838 0.930 . S
H829 C839 0.930 . S
C830 H824 0.930 . S
C830 C831 1.355 . S
C830 C832 1.415 . S
C831 C830 1.355 . S
C831 C833 1.419 . S
C832 C830 1.415 . S
C832 C837 1.425 . S
C832 C839 1.409 . S
C833 H825 0.930 . S
C833 C831 1.419 . S
C833 C834 1.362 . S
C834 H826 0.930 . S
C834 C833 1.362 . S
C834 C837 1.409 . S
C835 H827 0.930 . S
C835 C836 1.355 . S
C835 C837 1.415 . S
C836 C835 1.355 . S
C836 C838 1.419 . S
C837 C832 1.425 . S
C837 C834 1.409 . S
C837 C835 1.415 . S
C838 H828 0.930 . S
C838 C836 1.419 . S
C838 C839 1.362 . S
C839 H829 0.930 . S
C839 C832 1.409 . S
C839 C838 1.362 . S
H840 C846 0.930 1_565 S
H841 C849 0.930 1_455 S
H842 C850 0.930 . S
H843 C851 0.930 . S
H844 C854 0.917 1_565 S
H845 C855 0.930 . S
C846 H840 0.930 1_545 S
C846 C847 1.355 . S
C846 C848 1.415 . S
C847 C846 1.355 . S
C847 C849 1.419 . S
C848 C846 1.415 . S
C848 C853 1.425 . S
C848 C855 1.409 1_545 S
C849 H841 0.930 1_655 S
C849 C847 1.419 . S
C849 C850 1.362 . S
C850 H842 0.930 . S
C850 C849 1.362 . S
C850 C853 1.409 . S
C851 H843 0.930 . S
C851 C852 1.355 . S
C851 C853 1.415 . S
C852 C851 1.355 . S
C852 C854 1.439 . S
C853 C848 1.425 . S
C853 C850 1.409 . S
C853 C851 1.415 . S
C854 H844 0.917 1_545 S
C854 C852 1.439 . S
C854 C855 1.356 1_545 S
C855 H845 0.930 . S
C855 C848 1.409 1_565 S
C855 C854 1.356 1_565 S
H856 C862 0.930 . S
H857 C865 0.930 . S
H858 C866 0.930 . S
H859 C867 0.930 . S
H860 C870 0.930 . S
H861 C871 0.930 . S
C862 H856 0.930 . S
C862 C863 1.355 . S
C862 C864 1.415 . S
C863 C862 1.355 . S
C863 C865 1.419 . S
C864 C862 1.415 . S
C864 C869 1.425 . S
C864 C871 1.409 . S
C865 H857 0.930 . S
C865 C863 1.419 . S
C865 C866 1.362 . S
C866 H858 0.930 . S
C866 C865 1.362 . S
C866 C869 1.409 . S
C867 H859 0.930 . S
C867 C868 1.355 . S
C867 C869 1.415 . S
C868 C867 1.355 . S
C868 C870 1.419 . S
C869 C864 1.425 . S
C869 C866 1.409 . S
C869 C867 1.415 . S
C870 H860 0.930 . S
C870 C868 1.419 . S
C870 C871 1.362 . S
C871 H861 0.930 . S
C871 C864 1.409 . S
C871 C870 1.362 . S
H872 C878 0.930 1_655 S
H873 C881 0.930 . S
H874 C882 0.930 . S
H875 C883 0.930 . S
H876 C886 0.930 . S
H877 C887 0.930 . S
C878 H872 0.930 1_455 S
C878 C879 1.355 . S
C878 C880 1.415 . S
C879 C878 1.355 . S
C879 C881 1.419 . S
C880 C878 1.415 . S
C880 C885 1.425 . S
C880 C887 1.409 . S
C881 H873 0.930 . S
C881 C879 1.419 . S
C881 C882 1.362 . S
C882 H874 0.930 . S
C882 C881 1.362 . S
C882 C885 1.409 . S
C883 H875 0.930 . S
C883 C884 1.355 . S
C883 C885 1.415 . S
C884 C883 1.355 . S
C884 C886 1.419 . S
C885 C880 1.425 . S
C885 C882 1.409 . S
C885 C883 1.415 . S
C886 H876 0.930 . S
C886 C884 1.419 . S
C886 C887 1.362 . S
C887 H877 0.930 . S
C887 C880 1.409 . S
C887 C886 1.362 . S
H888 C894 0.930 . S
H889 C897 0.930 . S
H890 C898 0.930 . S
H891 C899 0.930 . S
H892 C902 0.930 . S
H893 C903 0.930 . S
C894 H888 0.930 . S
C894 C895 1.355 . S
C894 C896 1.415 . S
C895 C894 1.355 . S
C895 C897 1.419 . S
C896 C894 1.415 . S
C896 C901 1.425 . S
C896 C903 1.409 . S
C897 H889 0.930 . S
C897 C895 1.419 . S
C897 C898 1.362 . S
C898 H890 0.930 . S
C898 C897 1.362 . S
C898 C901 1.409 . S
C899 H891 0.930 . S
C899 C900 1.355 . S
C899 C901 1.415 . S
C900 C899 1.355 . S
C900 C902 1.419 . S
C901 C896 1.425 . S
C901 C898 1.409 . S
C901 C899 1.415 . S
C902 H892 0.930 . S
C902 C900 1.419 . S
C902 C903 1.362 . S
C903 H893 0.930 . S
C903 C896 1.409 . S
C903 C902 1.362 . S
H904 C910 0.930 1_455 S
H905 C913 0.929 . S
H906 C914 0.930 . S
H907 C915 0.930 . S
H908 C918 0.930 . S
H909 C919 0.930 1_554 S
C910 H904 0.930 1_655 S
C910 C911 1.355 . S
C910 C912 1.390 1_554 S
C911 C910 1.355 . S
C911 C913 1.389 1_554 S
C912 C910 1.390 1_556 S
C912 C917 1.448 . S
C912 C919 1.413 1_655 S
C913 H905 0.929 . S
C913 C911 1.389 1_556 S
C913 C914 1.397 . S
C914 H906 0.930 . S
C914 C913 1.397 . S
C914 C917 1.409 . S
C915 H907 0.930 . S
C915 C916 1.355 . S
C915 C917 1.415 . S
C916 C915 1.355 . S
C916 C918 1.419 1_655 S
C917 C912 1.448 . S
C917 C914 1.409 . S
C917 C915 1.415 . S
C918 H908 0.930 . S
C918 C916 1.419 1_455 S
C918 C919 1.362 . S
C919 H909 0.930 1_556 S
C919 C912 1.413 1_455 S
C919 C918 1.362 . S
H920 C926 0.930 . S
H921 C929 0.930 . S
H922 C930 0.930 . S
H923 C931 0.930 . S
H924 C934 0.930 . S
H925 C935 0.930 . S
C926 H920 0.930 . S
C926 C927 1.355 . S
C926 C928 1.415 . S
C927 C926 1.355 . S
C927 C929 1.419 . S
C928 C926 1.415 . S
C928 C933 1.425 . S
C928 C935 1.409 . S
C929 H921 0.930 . S
C929 C927 1.419 . S
C929 C930 1.362 . S
C930 H922 0.930 . S
C930 C929 1.362 . S
C930 C933 1.409 . S
C931 H923 0.930 . S
C931 C932 1.355 . S
C931 C933 1.415 . S
C932 C931 1.355 . S
C932 C934 1.419 . S
C933 C928 1.425 . S
C933 C930 1.409 . S
C933 C931 1.415 . S
C934 H924 0.930 . S
C934 C932 1.419 . S
C934 C935 1.362 . S
C935 H925 0.930 . S
C935 C928 1.409 . S
C935 C934 1.362 . S
H936 C942 0.930 . S
H937 C945 0.930 . S
H938 C946 0.930 . S
H939 C947 0.930 . S
H940 C950 0.930 . S
H941 C951 0.930 . S
C942 H936 0.930 . S
C942 C943 1.355 1_655 S
C942 C944 1.415 1_654 S
C943 C942 1.355 1_455 S
C943 C945 1.419 1_554 S
C944 C942 1.415 1_456 S
C944 C949 1.428 . S
C944 C951 1.407 1_455 S
C945 H937 0.930 . S
C945 C943 1.419 1_556 S
C945 C946 1.362 . S
C946 H938 0.930 . S
C946 C945 1.362 . S
C946 C949 1.409 . S
C947 H939 0.930 . S
C947 C948 1.355 . S
C947 C949 1.415 . S
C948 C947 1.355 . S
C948 C950 1.419 1_455 S
C949 C944 1.428 . S
C949 C946 1.409 . S
C949 C947 1.415 . S
C950 H940 0.930 . S
C950 C948 1.419 1_655 S
C950 C951 1.362 . S
C951 H941 0.930 . S
C951 C944 1.407 1_655 S
C951 C950 1.362 . S
H952 C958 0.930 . S
H953 C961 0.930 . S
H954 C962 0.930 . S
H955 C963 0.930 . S
H956 C966 0.930 . S
H957 C967 0.930 . S
C958 H952 0.930 . S
C958 C959 1.355 . S
C958 C960 1.415 . S
C959 C958 1.355 . S
C959 C961 1.419 . S
C960 C958 1.415 . S
C960 C965 1.425 . S
C960 C967 1.409 . S
C961 H953 0.930 . S
C961 C959 1.419 . S
C961 C962 1.362 . S
C962 H954 0.930 . S
C962 C961 1.362 . S
C962 C965 1.409 . S
C963 H955 0.930 . S
C963 C964 1.355 . S
C963 C965 1.415 . S
C964 C963 1.355 . S
C964 C966 1.419 . S
C965 C960 1.425 . S
C965 C962 1.409 . S
C965 C963 1.415 . S
C966 H956 0.930 . S
C966 C964 1.419 . S
C966 C967 1.362 . S
C967 H957 0.930 . S
C967 C960 1.409 . S
C967 C966 1.362 . S
H968 C974 0.930 . S
H969 C977 0.941 . S
H970 C978 0.930 . S
H971 C979 0.930 . S
H972 C982 0.930 . S
H973 C983 0.930 . S
C974 H968 0.930 . S
C974 C975 1.355 . S
C974 C976 1.415 . S
C975 C974 1.355 . S
C975 C977 1.419 . S
C976 C974 1.415 . S
C976 C981 1.425 . S
C976 C983 1.409 . S
C977 H969 0.941 . S
C977 C975 1.419 . S
C977 C978 1.362 . S
C978 H970 0.930 . S
C978 C977 1.362 . S
C978 C981 1.409 . S
C979 H971 0.930 . S
C979 C980 1.355 . S
C979 C981 1.415 . S
C980 C979 1.355 . S
C980 C982 1.419 . S
C981 C976 1.425 . S
C981 C978 1.409 . S
C981 C979 1.415 . S
C982 H972 0.930 . S
C982 C980 1.419 . S
C982 C983 1.362 . S
C983 H973 0.930 . S
C983 C976 1.409 . S
C983 C982 1.362 . S
H984 C990 0.930 . S
H985 C993 0.930 . S
H986 C994 0.930 . S
H987 C995 0.930 . S
H988 C998 0.930 . S
H989 C999 0.930 . S
C990 H984 0.930 . S
C990 C991 1.355 . S
C990 C992 1.415 . S
C991 C990 1.355 . S
C991 C993 1.419 . S
C992 C990 1.415 . S
C992 C997 1.425 . S
C992 C999 1.409 . S
C993 H985 0.930 . S
C993 C991 1.419 . S
C993 C994 1.362 . S
C994 H986 0.930 . S
C994 C993 1.362 . S
C994 C997 1.409 . S
C995 H987 0.930 . S
C995 C996 1.355 . S
C995 C997 1.415 . S
C996 C995 1.355 . S
C996 C998 1.419 . S
C997 C992 1.425 . S
C997 C994 1.409 . S
C997 C995 1.415 . S
C998 H988 0.930 . S
C998 C996 1.419 . S
C998 C999 1.362 . S
C999 H989 0.930 . S
C999 C992 1.409 . S
C999 C998 1.362 . S
H1000 C1006 0.930 . S
H1001 C1009 0.930 1_556 S
H1002 C1010 0.930 . S
H1003 C1011 0.930 . S
H1004 C1014 0.930 . S
H1005 C1015 0.930 . S
C1006 H1000 0.930 . S
C1006 C1007 1.355 . S
C1006 C1008 1.415 . S
C1007 C1006 1.355 . S
C1007 C1009 1.419 . S
C1008 C1006 1.415 . S
C1008 C1013 1.425 . S
C1008 C1015 1.409 . S
C1009 H1001 0.930 1_554 S
C1009 C1007 1.419 . S
C1009 C1010 1.362 . S
C1010 H1002 0.930 . S
C1010 C1009 1.362 . S
C1010 C1013 1.409 . S
C1011 H1003 0.930 . S
C1011 C1012 1.355 . S
C1011 C1013 1.415 . S
C1012 C1011 1.355 . S
C1012 C1014 1.419 . S
C1013 C1008 1.425 . S
C1013 C1010 1.409 . S
C1013 C1011 1.415 . S
C1014 H1004 0.930 . S
C1014 C1012 1.419 . S
C1014 C1015 1.362 . S
C1015 H1005 0.930 . S
C1015 C1008 1.409 . S
C1015 C1014 1.362 . S
H1016 C1022 0.930 . S
H1017 C1025 0.930 . S
H1018 C1026 0.930 . S
H1019 C1027 0.930 . S
H1020 C1030 0.930 . S
H1021 C1031 0.930 . S
C1022 H1016 0.930 . S
C1022 C1023 1.355 . S
C1022 C1024 1.415 . S
C1023 C1022 1.355 . S
C1023 C1025 1.419 . S
C1024 C1022 1.415 . S
C1024 C1029 1.425 . S
C1024 C1031 1.409 . S
C1025 H1017 0.930 . S
C1025 C1023 1.419 . S
C1025 C1026 1.362 . S
C1026 H1018 0.930 . S
C1026 C1025 1.362 . S
C1026 C1029 1.409 . S
C1027 H1019 0.930 . S
C1027 C1028 1.355 . S
C1027 C1029 1.415 . S
C1028 C1027 1.355 . S
C1028 C1030 1.419 . S
C1029 C1024 1.425 . S
C1029 C1026 1.409 . S
C1029 C1027 1.415 . S
C1030 H1020 0.930 . S
C1030 C1028 1.419 . S
C1030 C1031 1.362 . S
C1031 H1021 0.930 . S
C1031 C1024 1.409 . S
C1031 C1030 1.362 . S
H1032 C1038 0.930 . S
H1033 C1041 0.930 . S
H1034 C1042 0.930 . S
H1035 C1043 0.930 . S
H1036 C1046 0.930 . S
H1037 C1047 0.930 . S
C1038 H1032 0.930 . S
C1038 C1039 1.355 . S
C1038 C1040 1.415 . S
C1039 C1038 1.355 . S
C1039 C1041 1.419 . S
C1040 C1038 1.415 . S
C1040 C1045 1.425 . S
C1040 C1047 1.409 . S
C1041 H1033 0.930 . S
C1041 C1039 1.419 . S
C1041 C1042 1.362 . S
C1042 H1034 0.930 . S
C1042 C1041 1.362 . S
C1042 C1045 1.409 . S
C1043 H1035 0.930 . S
C1043 C1044 1.355 . S
C1043 C1045 1.415 . S
C1044 C1043 1.355 . S
C1044 C1046 1.419 . S
C1045 C1040 1.425 . S
C1045 C1042 1.409 . S
C1045 C1043 1.415 . S
C1046 H1036 0.930 . S
C1046 C1044 1.419 . S
C1046 C1047 1.362 . S
C1047 H1037 0.930 . S
C1047 C1040 1.409 . S
C1047 C1046 1.362 . S
H1048 C1054 0.930 . S
H1049 C1057 0.930 . S
H1050 C1058 0.930 . S
H1051 C1059 0.930 . S
H1052 C1062 0.930 . S
H1053 C1063 0.930 . S
C1054 H1048 0.930 . S
C1054 C1055 1.355 . S
C1054 C1056 1.415 . S
C1055 C1054 1.355 . S
C1055 C1057 1.419 . S
C1056 C1054 1.415 . S
C1056 C1061 1.425 . S
C1056 C1063 1.409 . S
C1057 H1049 0.930 . S
C1057 C1055 1.419 . S
C1057 C1058 1.362 . S
C1058 H1050 0.930 . S
C1058 C1057 1.362 . S
C1058 C1061 1.409 . S
C1059 H1051 0.930 . S
C1059 C1060 1.355 . S
C1059 C1061 1.415 . S
C1060 C1059 1.355 . S
C1060 C1062 1.419 . S
C1061 C1056 1.425 . S
C1061 C1058 1.409 . S
C1061 C1059 1.415 . S
C1062 H1052 0.930 . S
C1062 C1060 1.419 . S
C1062 C1063 1.362 . S
C1063 H1053 0.930 . S
C1063 C1056 1.409 . S
C1063 C1062 1.362 . S
H1064 C1070 0.930 . S
H1065 C1073 0.930 . S
H1066 C1074 0.930 . S
H1067 C1075 0.930 . S
H1068 C1078 0.930 . S
H1069 C1079 0.930 . S
C1070 H1064 0.930 . S
C1070 C1071 1.355 . S
C1070 C1072 1.415 . S
C1071 C1070 1.355 . S
C1071 C1073 1.419 . S
C1072 C1070 1.415 . S
C1072 C1077 1.425 . S
C1072 C1079 1.409 . S
C1073 H1065 0.930 . S
C1073 C1071 1.419 . S
C1073 C1074 1.362 . S
C1074 H1066 0.930 . S
C1074 C1073 1.362 . S
C1074 C1077 1.409 . S
C1075 H1067 0.930 . S
C1075 C1076 1.355 . S
C1075 C1077 1.415 . S
C1076 C1075 1.355 . S
C1076 C1078 1.419 . S
C1077 C1072 1.425 . S
C1077 C1074 1.409 . S
C1077 C1075 1.415 . S
C1078 H1068 0.930 . S
C1078 C1076 1.419 . S
C1078 C1079 1.362 . S
C1079 H1069 0.930 . S
C1079 C1072 1.409 . S
C1079 C1078 1.362 . S
H1080 C1086 0.930 . S
H1081 C1089 0.930 . S
H1082 C1090 0.930 . S
H1083 C1091 0.930 . S
H1084 C1094 0.930 . S
H1085 C1095 0.930 . S
C1086 H1080 0.930 . S
C1086 C1087 1.355 1_554 S
C1086 C1088 1.415 . S
C1087 C1086 1.355 1_556 S
C1087 C1089 1.419 . S
C1088 C1086 1.415 . S
C1088 C1093 1.425 . S
C1088 C1095 1.409 . S
C1089 H1081 0.930 . S
C1089 C1087 1.419 . S
C1089 C1090 1.362 . S
C1090 H1082 0.930 . S
C1090 C1089 1.362 . S
C1090 C1093 1.409 1_556 S
C1091 H1083 0.930 . S
C1091 C1092 1.355 . S
C1091 C1093 1.415 . S
C1092 C1091 1.355 . S
C1092 C1094 1.419 . S
C1093 C1088 1.425 . S
C1093 C1090 1.409 1_554 S
C1093 C1091 1.415 . S
C1094 H1084 0.930 . S
C1094 C1092 1.419 . S
C1094 C1095 1.362 . S
C1095 H1085 0.930 . S
C1095 C1088 1.409 . S
C1095 C1094 1.362 . S
H1096 C1102 0.930 . S
H1097 C1105 0.930 . S
H1098 C1106 0.930 . S
H1099 C1107 0.930 . S
H1100 C1110 0.930 . S
H1101 C1111 0.930 . S
C1102 H1096 0.930 . S
C1102 C1103 1.355 . S
C1102 C1104 1.415 . S
C1103 C1102 1.355 . S
C1103 C1105 1.419 . S
C1104 C1102 1.415 . S
C1104 C1109 1.425 . S
C1104 C1111 1.409 . S
C1105 H1097 0.930 . S
C1105 C1103 1.419 . S
C1105 C1106 1.362 . S
C1106 H1098 0.930 . S
C1106 C1105 1.362 . S
C1106 C1109 1.409 . S
C1107 H1099 0.930 . S
C1107 C1108 1.355 . S
C1107 C1109 1.415 . S
C1108 C1107 1.355 . S
C1108 C1110 1.419 . S
C1109 C1104 1.425 . S
C1109 C1106 1.409 . S
C1109 C1107 1.415 . S
C1110 H1100 0.930 . S
C1110 C1108 1.419 . S
C1110 C1111 1.362 . S
C1111 H1101 0.930 . S
C1111 C1104 1.409 . S
C1111 C1110 1.362 . S
H1112 C1118 0.930 . S
H1113 C1121 0.930 . S
H1114 C1122 0.930 . S
H1115 C1123 0.930 . S
H1116 C1126 0.930 . S
H1117 C1127 0.930 . S
C1118 H1112 0.930 . S
C1118 C1119 1.355 . S
C1118 C1120 1.415 . S
C1119 C1118 1.355 . S
C1119 C1121 1.419 . S
C1120 C1118 1.415 . S
C1120 C1125 1.425 . S
C1120 C1127 1.409 . S
C1121 H1113 0.930 . S
C1121 C1119 1.419 . S
C1121 C1122 1.362 . S
C1122 H1114 0.930 . S
C1122 C1121 1.362 . S
C1122 C1125 1.409 . S
C1123 H1115 0.930 . S
C1123 C1124 1.355 . S
C1123 C1125 1.415 . S
C1124 C1123 1.355 . S
C1124 C1126 1.419 . S
C1125 C1120 1.425 . S
C1125 C1122 1.409 . S
C1125 C1123 1.415 . S
C1126 H1116 0.930 . S
C1126 C1124 1.419 . S
C1126 C1127 1.362 . S
C1127 H1117 0.930 . S
C1127 C1120 1.409 . S
C1127 C1126 1.362 . S
H1128 C1134 0.930 1_545 S
H1129 C1137 0.930 . S
H1130 C1138 0.930 1_556 S
H1131 C1139 0.930 1_556 S
H1132 C1142 0.930 . S
H1133 C1143 0.930 1_545 S
C1134 H1128 0.930 1_565 S
C1134 C1135 1.355 . S
C1134 C1136 1.415 . S
C1135 C1134 1.355 . S
C1135 C1137 1.419 . S
C1136 C1134 1.415 . S
C1136 C1141 1.425 . S
C1136 C1143 1.409 . S
C1137 H1129 0.930 . S
C1137 C1135 1.419 . S
C1137 C1138 1.362 . S
C1138 H1130 0.930 1_554 S
C1138 C1137 1.362 . S
C1138 C1141 1.409 . S
C1139 H1131 0.930 1_554 S
C1139 C1140 1.355 . S
C1139 C1141 1.415 . S
C1140 C1139 1.355 . S
C1140 C1142 1.419 . S
C1141 C1136 1.425 . S
C1141 C1138 1.409 . S
C1141 C1139 1.415 . S
C1142 H1132 0.930 . S
C1142 C1140 1.419 . S
C1142 C1143 1.362 . S
C1143 H1133 0.930 1_565 S
C1143 C1136 1.409 . S
C1143 C1142 1.362 . S
C388 C216 1.640 . S
C383 C73 1.708 . S
C404 C229 1.320 . S
C399 C82 1.225 . S
C415 C100 1.881 . S
C420 C249 1.744 . S
C436 C263 1.315 1_565 S
C431 C56 1.245 . S
C452 C275 1.442 . S
C447 C134 1.396 . S
C468 C289 1.658 . S
C463 C165 1.645 . S
C479 C147 1.233 . S
C484 C299 1.252 . S
C500 C314 1.819 . S
C495 C125 1.836 . S
C511 C151 1.401 . S
C516 C328 1.367 . S
C532 C347 1.371 . S
C527 C121 1.411 . S
C543 C139 1.729 . S
C548 C327 1.732 . S
C564 C345 1.288 . S
C559 C164 1.307 . S
C575 C95 1.415 . S
C580 C361 1.334 . S
C591 C61 1.459 . S
C596 C355 1.457 . S
C607 C74 1.474 . S
C612 C359 1.459 . S
C623 C86 1.760 . S
C628 C356 1.748 . S
C639 C47 1.455 . S
C644 C258 1.434 . S
C655 C186 1.308 . S
C660 C257 1.341 . S
C676 C221 1.385 . S
C671 C204 1.444 . S
C692 C235 1.748 . S
C687 C112 1.881 . S
C703 C60 1.402 . S
C708 C272 1.345 . S
C724 C317 1.463 . S
C719 C152 1.470 . S
C740 C271 1.834 . S
C735 C126 1.835 . S
C756 C303 1.285 . S
C751 C160 1.245 . S
C772 C300 1.691 . S
C767 C190 1.712 . S
C783 C199 1.305 . S
C788 C313 1.305 . S
C799 C113 1.884 . S
C804 C277 1.775 . S
C820 C291 1.294 . S
C815 C173 1.277 . S
C831 C43 1.398 . S
C836 C247 1.439 . S
C852 C261 1.650 . S
C847 C9 1.619 1_655 S
C868 C215 1.253 . S
C863 C17 1.236 . S
C884 C230 1.819 . S
C879 C34 1.817 1_455 S
C895 C21 1.405 . S
C900 C342 1.364 . S
C911 C30 1.353 . S
C916 C333 1.417 . S
C927 C48 1.734 . S
C932 C341 1.729 . S
C943 C8 1.291 . S
C948 C331 1.308 . S
C964 C375 1.427 . S
C959 C108 1.453 . S
C980 C369 1.488 . S
C975 C178 1.480 1_554 S
C996 C373 1.473 . S
C991 C191 1.475 . S
C1007 C203 1.760 1_554 S
C1012 C370 1.746 . S
C1023 C138 1.432 . S
C1028 C286 1.374 . S
C1044 C285 1.324 . S
C1039 C69 1.275 . S
C1060 C305 1.280 . S
C1055 C87 1.446 . S
C1076 C319 1.746 . S
C1071 C99 1.880 . S
C1087 C177 1.423 . S
C1092 C244 1.396 . S
C1108 C233 1.445 . S
C1103 C22 1.446 . S
C1119 C35 1.831 . S
C1124 C243 1.816 . S
C1140 C219 1.268 . S
C1135 C4 1.259 . S
