# Generated by pormake.
# Topology csq, (4,8)-cn, num edge types: 1
# Building blocks:
#     Node 0, Type 0, BuildingBlock: GIZVER_clean_linker_0, # of connection points: 4
#     Node 1, Type 0, BuildingBlock: GIZVER_clean_linker_0, # of connection points: 4
#     Node 2, Type 0, BuildingBlock: GIZVER_clean_linker_0, # of connection points: 4
#     Node 3, Type 0, BuildingBlock: GIZVER_clean_linker_0, # of connection points: 4
#     Node 4, Type 0, BuildingBlock: GIZVER_clean_linker_0, # of connection points: 4
#     Node 5, Type 0, BuildingBlock: GIZVER_clean_linker_0, # of connection points: 4
#     Node 6, Type 1, BuildingBlock: TAGTUT_clean_sbu_3, # of connection points: 8
#     Node 7, Type 1, BuildingBlock: TAGTUT_clean_sbu_3, # of connection points: 8
#     Node 8, Type 1, BuildingBlock: TAGTUT_clean_sbu_3, # of connection points: 8
#     Edge 9, Type (0, 1), BuildingBlock: AJUNOK_clean_linker_0, # of connection points: 2
#     Edge 10, Type (0, 1), BuildingBlock: AJUNOK_clean_linker_0, # of connection points: 2
#     Edge 11, Type (0, 1), BuildingBlock: AJUNOK_clean_linker_0, # of connection points: 2
#     Edge 12, Type (0, 1), BuildingBlock: AJUNOK_clean_linker_0, # of connection points: 2
#     Edge 13, Type (0, 1), BuildingBlock: AJUNOK_clean_linker_0, # of connection points: 2
#     Edge 14, Type (0, 1), BuildingBlock: AJUNOK_clean_linker_0, # of connection points: 2
#     Edge 15, Type (0, 1), BuildingBlock: AJUNOK_clean_linker_0, # of connection points: 2
#     Edge 16, Type (0, 1), BuildingBlock: AJUNOK_clean_linker_0, # of connection points: 2
#     Edge 17, Type (0, 1), BuildingBlock: AJUNOK_clean_linker_0, # of connection points: 2
#     Edge 18, Type (0, 1), BuildingBlock: AJUNOK_clean_linker_0, # of connection points: 2
#     Edge 19, Type (0, 1), BuildingBlock: AJUNOK_clean_linker_0, # of connection points: 2
#     Edge 20, Type (0, 1), BuildingBlock: AJUNOK_clean_linker_0, # of connection points: 2
#     Edge 21, Type (0, 1), BuildingBlock: AJUNOK_clean_linker_0, # of connection points: 2
#     Edge 22, Type (0, 1), BuildingBlock: AJUNOK_clean_linker_0, # of connection points: 2
#     Edge 23, Type (0, 1), BuildingBlock: AJUNOK_clean_linker_0, # of connection points: 2
#     Edge 24, Type (0, 1), BuildingBlock: AJUNOK_clean_linker_0, # of connection points: 2
#     Edge 25, Type (0, 1), BuildingBlock: AJUNOK_clean_linker_0, # of connection points: 2
#     Edge 26, Type (0, 1), BuildingBlock: AJUNOK_clean_linker_0, # of connection points: 2
#     Edge 27, Type (0, 1), BuildingBlock: AJUNOK_clean_linker_0, # of connection points: 2
#     Edge 28, Type (0, 1), BuildingBlock: AJUNOK_clean_linker_0, # of connection points: 2
#     Edge 29, Type (0, 1), BuildingBlock: AJUNOK_clean_linker_0, # of connection points: 2
#     Edge 30, Type (0, 1), BuildingBlock: AJUNOK_clean_linker_0, # of connection points: 2
#     Edge 31, Type (0, 1), BuildingBlock: AJUNOK_clean_linker_0, # of connection points: 2
#     Edge 32, Type (0, 1), BuildingBlock: AJUNOK_clean_linker_0, # of connection points: 2
# Relax obj value: 0.040
# Max RMSD: 0.110
# Mean RMSD: 0.081
data_MOF--net-csq--node1-TAGTUT_clean_sbu_3--node2-GIZVER_clean_linker_0--edge1-AJUNOK_clean_linker_0
_symmetry_space_group_name_H-M    P1
_symmetry_Int_Tables_number       1
_symmetry_cell_setting            triclinic
loop_
_symmetry_equiv_pos_as_xyz
'x, y, z'
_cell_length_a     41.063255
_cell_length_b     40.838712
_cell_length_c     14.389079
_cell_angle_alpha  92.783495
_cell_angle_beta   93.691803
_cell_angle_gamma 119.69238
loop_
_atom_site_label
_atom_site_type_symbol
_atom_site_fract_x
_atom_site_fract_y
_atom_site_fract_z
_atom_type_partial_charge
H0 H 0.21407 0.48324 0.06119 0.0
H1 H 0.2413 0.50723 0.35935 0.0
H2 H 0.12835 0.42704 0.24316 0.0
H3 H 0.27474 0.53643 0.13109 0.0
H4 H 0.28818 0.54275 0.25424 0.0
H5 H 0.30681 0.51371 0.03753 0.0
H6 H 0.35566 0.45167 0.15629 0.0
H7 H 0.29509 0.48788 0.32532 0.0
C8 C 0.20598 0.47644 0.13099 0.0
C9 C 0.16787 0.45338 0.14429 0.0
C10 C 0.23324 0.49411 0.20876 0.0
C11 C 0.22132 0.49047 0.29973 0.0
C12 C 0.18308 0.46679 0.3125 0.0
C13 C 0.15798 0.44506 0.23464 0.0
C14 C 0.27384 0.52105 0.1935 0.0
C15 C 0.29539 0.50028 0.18058 0.0
C16 C 0.3107 0.49962 0.09552 0.0
C17 C 0.33239 0.48188 0.08746 0.0
C18 C 0.33764 0.46402 0.16204 0.0
C19 C 0.32497 0.46663 0.24789 0.0
C20 C 0.30364 0.48455 0.25741 0.0
H21 H 0.8394 0.2845 0.96251 0.0
H22 H 0.84391 0.26363 0.25054 0.0
H23 H 0.86789 0.37335 0.18001 0.0
H24 H 0.83025 0.22467 0.0025 0.0
H25 H 0.83743 0.21746 0.12206 0.0
H26 H 0.7673 0.19251 0.92783 0.0
H27 H 0.67372 0.1391 0.08942 0.0
H28 H 0.78532 0.20356 0.2291 0.0
C29 C 0.84195 0.29432 0.03519 0.0
C30 C 0.8547 0.33275 0.06186 0.0
C31 C 0.83562 0.26869 0.10313 0.0
C32 C 0.84452 0.28212 0.19832 0.0
C33 C 0.85667 0.32006 0.22585 0.0
C34 C 0.85838 0.34407 0.15768 0.0
C35 C 0.82287 0.22783 0.07416 0.0
C36 C 0.78097 0.20391 0.07823 0.0
C37 C 0.75626 0.18839 -0.00466 0.0
C38 C 0.71744 0.16508 0.00014 0.0
C39 C 0.7034 0.15904 0.08674 0.0
C40 C 0.72762 0.17172 0.16915 0.0
C41 C 0.76645 0.19467 0.16527 0.0
H42 H 0.58771 0.81703 0.87471 0.0
H43 H 0.58399 0.80682 0.17144 0.0
H44 H 0.54388 0.87408 0.03925 0.0
H45 H 0.62604 0.79381 0.96482 0.0
H46 H 0.62324 0.78952 0.08753 0.0
H47 H 0.57244 0.74873 0.8509 0.0
H48 H 0.50497 0.6373 0.93568 0.0
H49 H 0.58049 0.72858 0.14003 0.0
C50 C 0.58047 0.82351 0.94155 0.0
C51 C 0.56369 0.84625 0.94712 0.0
C52 C 0.58767 0.80903 0.02287 0.0
C53 C 0.57843 0.81787 0.10908 0.0
C54 C 0.56308 0.84166 0.11574 0.0
C55 C 0.55528 0.85517 0.03437 0.0
C56 C 0.60625 0.78515 0.01987 0.0
C57 C 0.57698 0.74387 -0.00083 0.0
C58 C 0.56213 0.73004 0.90616 0.0
C59 C 0.53709 0.69154 0.88276 0.0
C60 C 0.52458 0.66716 0.95414 0.0
C61 C 0.54155 0.67938 0.04633 0.0
C62 C 0.56692 0.71839 0.06938 0.0
H63 H 0.77099 0.57984 0.87283 0.0
H64 H 0.79858 0.59882 0.17251 0.0
H65 H 0.68299 0.54185 0.05438 0.0
H66 H 0.83503 0.62783 0.94561 0.0
H67 H 0.84784 0.63013 0.0677 0.0
H68 H 0.84623 0.58848 0.83628 0.0
H69 H 0.8906 0.52068 0.9436 0.0
H70 H 0.85576 0.57872 0.13226 0.0
C71 C 0.76231 0.5755 0.9429 0.0
C72 C 0.72396 0.5582 0.95555 0.0
C73 C 0.78958 0.58927 0.02077 0.0
C74 C 0.7779 0.58652 0.11189 0.0
C75 C 0.73928 0.56889 0.12375 0.0
C76 C 0.71273 0.55389 0.04538 0.0
C77 C 0.83083 0.61028 0.00533 0.0
C78 C 0.8452 0.58323 -0.01434 0.0
C79 C 0.85158 0.57517 0.89406 0.0
C80 C 0.86755 0.55202 0.87869 0.0
C81 C 0.87572 0.53616 0.95415 0.0
C82 C 0.87324 0.54706 0.04519 0.0
C83 C 0.85674 0.56946 0.0611 0.0
H84 H 0.28271 0.80114 0.92356 0.0
H85 H 0.33337 0.81016 0.20261 0.0
H86 H 0.35564 0.91017 0.07271 0.0
H87 H 0.29592 0.75012 -0.01447 0.0
H88 H 0.30569 0.75109 0.10859 0.0
H89 H 0.23339 0.73443 0.9162 0.0
H90 H 0.14223 0.67257 0.08209 0.0
H91 H 0.25562 0.73326 0.21249 0.0
C92 C 0.29928 0.81827 -0.01295 0.0
C93 C 0.31632 0.85786 -0.00923 0.0
C94 C 0.30555 0.80088 0.06305 0.0
C95 C 0.32833 0.82331 0.14395 0.0
C96 C 0.34531 0.86276 0.14824 0.0
C97 C 0.33961 0.87959 0.0714 0.0
C98 C 0.29064 0.75888 0.05481 0.0
C99 C 0.24901 0.73763 0.06395 0.0
C100 C 0.22316 0.72673 -0.01615 0.0
C101 C 0.1844 0.70371 -0.01042 0.0
C102 C 0.17172 0.69266 0.07727 0.0
C103 C 0.19714 0.70342 0.15769 0.0
C104 C 0.2358 0.72626 0.15117 0.0
H105 H 0.55976 0.30827 0.04332 0.0
H106 H 0.5248 0.28548 0.31991 0.0
H107 H 0.4816 0.33923 0.13983 0.0
H108 H 0.59605 0.29467 0.15902 0.0
H109 H 0.58916 0.29926 0.27896 0.0
H110 H 0.56289 0.23283 0.06775 0.0
H111 H 0.52231 0.13489 0.22102 0.0
H112 H 0.5526 0.24252 0.3636 0.0
C113 C 0.54152 0.30725 0.09563 0.0
C114 C 0.51743 0.32208 0.07884 0.0
C115 C 0.5439 0.29359 0.18279 0.0
C116 C 0.52173 0.2945 0.25188 0.0
C117 C 0.49951 0.31144 0.23829 0.0
C118 C 0.49665 0.32393 0.15025 0.0
C119 C 0.57436 0.28424 0.20946 0.0
C120 C 0.5584 0.2423 0.21431 0.0
C121 C 0.55483 0.21998 0.13279 0.0
C122 C 0.54289 0.18161 0.13621 0.0
C123 C 0.532 0.16487 0.21939 0.0
C124 C 0.53518 0.18631 0.30161 0.0
C125 C 0.54882 0.22539 0.29959 0.0
C126 C 0.07603 0.47464 0.53301 0.0
C127 C 0.05568 0.4514 0.87773 0.0
C128 C 0.94649 0.43925 0.81112 0.0
Mg129 Mg 0.03848 0.51163 0.39153 0.0
Mg130 Mg 0.02789 0.5803 0.48913 0.0
O131 O 1.0142 0.52885 0.48207 0.0
Mg132 Mg 0.02544 0.51136 0.59741 0.0
O133 O 0.03651 0.49109 0.70933 0.0
Mg134 Mg 1.00788 0.43522 0.66954 0.0
Mg135 Mg 0.02545 0.50536 0.82218 0.0
C136 C 0.97643 0.55243 0.65258 0.0
O137 O 0.0697 0.57144 0.66382 0.0
O138 O 1.0021 0.52473 0.28301 0.0
O139 O 0.05455 0.56582 0.81266 0.0
O140 O 0.08796 0.57147 0.3855 0.0
O141 O 0.99878 0.57296 0.35735 0.0
O142 O 0.0868 0.61732 0.47169 0.0
O143 O 0.98036 0.45005 0.54596 0.0
O144 O 0.98941 0.4519 0.39528 0.0
C145 C 0.97238 0.43396 0.46304 0.0
C146 C 0.99042 0.54883 0.28717 0.0
O147 O 0.98169 0.52396 0.65798 0.0
O148 O 0.04116 0.43054 0.79987 0.0
O149 O 0.99585 0.58009 0.60416 0.0
O150 O 0.95809 0.4222 0.75746 0.0
O151 O 0.05207 0.48021 0.89936 0.0
O152 O 0.96659 0.47455 0.8359 0.0
O153 O 0.06884 0.5016 0.52338 0.0
O154 O 0.057 0.44787 0.58342 0.0
C155 C 0.10316 0.60624 0.41612 0.0
C156 C 0.07219 0.58577 0.74741 0.0
C157 C 0.52045 0.068 0.49126 0.0
C158 C 0.62884 0.05533 0.37572 0.0
C159 C 0.55924 0.93467 0.41445 0.0
Mg160 Mg 0.46312 0.02181 0.64017 0.0
Mg161 Mg 0.48684 0.98243 0.8056 0.0
O162 O 0.48178 0.98653 0.67858 0.0
Mg163 Mg 0.52549 1.00301 0.60429 0.0
O164 O 0.56609 0.02013 0.5218 0.0
Mg165 Mg 0.53593 1.00348 0.3973 0.0
Mg166 Mg 0.60336 0.00676 0.54127 0.0
C167 C 0.52672 0.93766 0.73355 0.0
O168 O 0.57283 0.0395 0.72263 0.0
O169 O 0.409 0.98375 0.71195 0.0
O170 O 0.61897 0.02778 0.68589 0.0
O171 O 0.4916 0.06246 0.77278 0.0
O172 O 0.42809 0.95639 0.81844 0.0
O173 O 0.51642 0.03853 0.8719 0.0
O174 O 0.48281 0.96898 0.47553 0.0
O175 O 0.43802 0.98224 0.50878 0.0
C176 C 0.45043 0.96587 0.45554 0.0
C177 C 0.40241 0.96052 0.77468 0.0
O178 O 0.53199 0.9519 0.65394 0.0
O179 O 0.59413 0.04266 0.34517 0.0
O180 O 0.51264 0.94759 0.79879 0.0
O181 O 0.54339 0.95158 0.37677 0.0
O182 O 0.63894 0.0442 0.44786 0.0
O183 O 0.58217 0.94923 0.48822 0.0
O184 O 0.51792 0.05369 0.56933 0.0
O185 O 0.52804 0.05456 0.41926 0.0
C186 C 0.51158 0.06557 0.84798 0.0
C187 C 0.60589 0.04351 0.73955 0.0
C188 C 0.53566 0.57932 0.68091 0.0
C189 C 0.43593 0.47187 0.8544 0.0
C190 C 0.50161 0.41507 0.80836 0.0
Mg191 Mg 0.584 0.57661 0.51252 0.0
Mg192 Mg 0.54285 0.50332 0.35546 0.0
O193 O 0.55693 0.52024 0.48143 0.0
Mg194 Mg 0.521 0.50078 0.57935 0.0
O195 O 0.4879 0.48472 0.68226 0.0
Mg196 Mg 0.52499 0.50742 0.79469 0.0
Mg197 Mg 0.45086 0.43358 0.68269 0.0
C198 C 0.50064 0.42518 0.44993 0.0
O199 O 0.46682 0.48338 0.48719 0.0
O200 O 0.63002 0.57902 0.41856 0.0
O201 O 0.42466 0.42851 0.54216 0.0
O202 O 0.55476 0.58846 0.38652 0.0
O203 O 0.6001 0.52377 0.32689 0.0
O204 O 0.52325 0.53719 0.28554 0.0
O205 O 0.57001 0.51506 0.69061 0.0
O206 O 0.6142 0.56706 0.63554 0.0
C207 C 0.60391 0.54245 0.69477 0.0
C208 C 0.63014 0.55457 0.35856 0.0
O209 O 0.50918 0.44092 0.53426 0.0
O210 O 0.47157 0.49564 0.87254 0.0
O211 O 0.50734 0.44374 0.37705 0.0
O212 O 0.51926 0.45063 0.83239 0.0
O213 O 0.42301 0.4457 0.78707 0.0
O214 O 0.47474 0.40077 0.74218 0.0
O215 O 0.53413 0.56198 0.60364 0.0
O216 O 0.5314 0.56378 0.75748 0.0
C217 C 0.5342 0.57188 0.30989 0.0
C218 C 0.43358 0.45428 0.48513 0.0
C219 C 0.13511 0.43796 0.42549 0.0
C220 C 0.16558 0.4707 0.39691 0.0
C221 C 0.10672 0.43977 0.47041 0.0
C222 C 0.10799 0.47447 0.49064 0.0
H223 H 0.13126 0.41031 0.4046 0.0
H224 H 0.08267 0.41345 0.48521 0.0
S225 S 0.18888 0.56936 0.46434 0.0
N226 N 0.19995 0.53958 0.41337 0.0
N227 N 0.14718 0.54299 0.50174 0.0
C228 C 0.14078 0.50782 0.47442 0.0
C229 C 0.16965 0.50594 0.42765 0.0
C230 C 0.67852 0.14993 0.27798 0.0
C231 C 0.71161 0.15162 0.25127 0.0
C232 C 0.65193 0.11854 0.31881 0.0
C233 C 0.65806 0.08837 0.33611 0.0
H234 H 0.67138 0.17107 0.25819 0.0
H235 H 0.62589 0.11735 0.33427 0.0
S236 S 0.74319 0.08252 0.2955 0.0
N237 N 0.75118 0.12284 0.25563 0.0
N238 N 0.70169 0.06447 0.33684 0.0
C239 C 0.69279 0.09168 0.31969 0.0
C240 C 0.71966 0.12338 0.27672 0.0
C241 C 0.53189 0.65524 0.20726 0.0
C242 C 0.53685 0.65041 0.11262 0.0
C243 C 0.52893 0.62866 0.27013 0.0
C244 C 0.53014 0.59586 0.24054 0.0
H245 H 0.53074 0.67995 0.23321 0.0
H246 H 0.52645 0.63422 0.34296 0.0
S247 S 0.54604 0.57129 0.0025 0.0
N248 N 0.54586 0.61136 -0.0051 0.0
N249 N 0.53805 0.5609 0.11103 0.0
C250 C 0.53456 0.59044 0.14599 0.0
C251 C 0.53857 0.61783 0.08274 0.0
C252 C 0.93326 0.58027 0.14484 0.0
C253 C 0.89978 0.54619 0.11689 0.0
C254 C 0.96372 0.58041 0.19387 0.0
C255 C 0.96183 0.54647 0.21665 0.0
H256 H 0.93641 0.60696 0.12563 0.0
H257 H 0.98881 0.6074 0.21572 0.0
S258 S 0.87942 0.44999 0.16384 0.0
N259 N 0.86587 0.47781 0.11604 0.0
N260 N 0.92308 0.47799 0.21186 0.0
C261 C 0.92841 0.51213 0.18961 0.0
C262 C 0.89733 0.51204 0.13908 0.0
C263 C 0.40229 0.88472 0.26333 0.0
C264 C 0.37088 0.88754 0.23006 0.0
C265 C 0.42889 0.91094 0.33432 0.0
C266 C 0.42474 0.94067 0.37424 0.0
H267 H 0.40672 0.86259 0.23303 0.0
H268 H 0.45244 0.90754 0.35894 0.0
S269 S 0.34727 0.96029 0.30951 0.0
N270 N 0.33685 0.92185 0.24221 0.0
N271 N 0.38703 0.97175 0.37265 0.0
C272 C 0.39345 0.94377 0.34053 0.0
C273 C 0.36642 0.917 0.26941 0.0
C274 C 0.51619 0.34561 0.39745 0.0
C275 C 0.48877 0.32621 0.32037 0.0
C276 C 0.51612 0.37458 0.45323 0.0
C277 C 0.48898 0.38513 0.43262 0.0
H278 H 0.54072 0.34229 0.40746 0.0
H279 H 0.54037 0.3922 0.50326 0.0
S280 S 0.4041 0.33455 0.26257 0.0
N281 N 0.42768 0.31202 0.24622 0.0
N282 N 0.42915 0.36844 0.34748 0.0
C283 C 0.45808 0.36186 0.36729 0.0
C284 C 0.45753 0.33169 0.3121 0.0
C285 C 0.51724 0.85197 0.83989 0.0
C286 C 0.55497 0.86216 0.86466 0.0
C287 C 0.5081 0.87458 0.78624 0.0
C288 C 0.5363 0.90818 0.75493 0.0
H289 H 0.49478 0.82814 0.86907 0.0
H290 H 0.47886 0.86747 0.7761 0.0
S291 S 0.63911 0.94494 0.79119 0.0
N292 N 0.62058 0.90602 0.84618 0.0
N293 N 0.60326 0.94849 0.74449 0.0
C294 C 0.57392 0.91679 0.77157 0.0
C295 C 0.5833 0.89376 0.82676 0.0
C296 C 0.69426 0.58469 0.8537 0.0
C297 C 0.69576 0.55276 0.87945 0.0
C298 C 0.66368 0.5808 0.79606 0.0
C299 C 0.63345 0.54484 0.7627 0.0
H300 H 0.71629 0.61284 0.88104 0.0
H301 H 0.66357 0.60621 0.77802 0.0
S302 S 0.62627 0.45258 0.80277 0.0
N303 N 0.66599 0.48427 0.86437 0.0
N304 N 0.60838 0.47673 0.75353 0.0
C305 C 0.635 0.51261 0.7864 0.0
C306 C 0.66627 0.51666 0.84542 0.0
C307 C 0.16704 0.66541 0.83521 0.0
C308 C 0.15784 0.68445 0.9039 0.0
C309 C 0.13889 0.63629 0.77239 0.0
C310 C 0.10083 0.62522 0.77728 0.0
H311 H 0.19542 0.67003 0.83633 0.0
H312 H 0.14653 0.61948 0.72795 0.0
S313 S 0.06328 0.67278 0.92574 0.0
N314 N 0.10909 0.69585 0.95791 0.0
N315 N 0.05606 0.64001 0.8422 0.0
C316 C 0.09193 0.64732 0.8365 0.0
C317 C 0.12054 0.67728 0.89938 0.0
C318 C 0.5196 0.15329 -0.02795 0.0
C319 C 0.54227 0.15821 0.05445 0.0
C320 C 0.51179 0.12465 0.90212 0.0
C321 C 0.5263 0.10001 0.913 0.0
H322 H 0.50585 0.16996 0.96434 0.0
H323 H 0.4924 0.12042 0.84199 0.0
S324 S 0.59287 0.10639 0.10953 0.0
N325 N 0.58361 0.14036 0.13794 0.0
N326 N 0.56872 0.08616 0.00707 0.0
C327 C 0.55173 0.10701 -0.00827 0.0
C328 C 0.55978 0.13625 0.06241 0.0
C329 C 0.3926 0.51323 0.0161 0.0
C330 C 0.35445 0.48464 0.00841 0.0
C331 C 0.41884 0.50912 0.96605 0.0
C332 C 0.40788 0.47606 0.90697 0.0
H333 H 0.4027 0.53773 0.06627 0.0
H334 H 0.44802 0.53157 -0.02426 0.0
S335 S 0.31035 0.39369 0.86074 0.0
N336 N 0.30661 0.42324 0.93567 0.0
N337 N 0.35511 0.41491 0.84094 0.0
C338 C 0.36922 0.44802 0.89584 0.0
C339 C 0.34273 0.45249 0.94651 0.0
C340 C 0.90568 0.39659 0.0278 0.0
C341 C 0.87244 0.36246 -0.0049 0.0
C342 C 0.92678 0.42314 0.9675 0.0
C343 C 0.91705 0.41612 0.87061 0.0
H344 H 0.91736 0.4023 0.10017 0.0
H345 H 0.95295 0.44784 -0.00327 0.0
S346 S 0.83134 0.33418 0.74687 0.0
N347 N 0.82831 0.32604 0.85828 0.0
N348 N 0.87108 0.37446 0.74342 0.0
C349 C 0.8835 0.38316 0.8359 0.0
C350 C 0.86061 0.35668 0.89831 0.0
C351 C 0.91829 0.58634 0.77749 0.0
C352 C 0.88642 0.55222 0.79434 0.0
C353 C 0.94694 0.58629 0.72936 0.0
C354 C 0.94485 0.5521 0.69753 0.0
H355 H 0.92281 0.61308 0.80911 0.0
H356 H 0.97183 0.61313 0.72184 0.0
S357 S 0.86385 0.45551 0.70859 0.0
N358 N 0.85188 0.4838 0.76366 0.0
N359 N 0.90567 0.48348 0.67379 0.0
C360 C 0.91159 0.51797 0.7067 0.0
C361 C 0.88227 0.51812 0.75427 0.0
C362 C 0.3298 0.8673 0.82602 0.0
C363 C 0.31782 0.8777 0.90589 0.0
C364 C 0.35244 0.89475 0.76883 0.0
C365 C 0.36373 0.93306 0.7906 0.0
H366 H 0.32696 0.83952 0.81574 0.0
H367 H 0.36591 0.88692 0.71671 0.0
S368 S 0.32686 0.97122 0.9674 0.0
N369 N 0.30775 0.92581 -0.01656 0.0
N370 N 0.35266 0.978 0.87904 0.0
C371 C 0.34563 0.94219 0.85756 0.0
C372 C 0.32166 0.91403 0.91427 0.0
C373 C 0.4897 0.32781 0.92374 0.0
C374 C 0.51917 0.3434 -0.00336 0.0
C375 C 0.48564 0.35067 0.85886 0.0
C376 C 0.51033 0.39021 0.86605 0.0
H377 H 0.46854 0.29809 0.91977 0.0
H378 H 0.46165 0.33754 0.80622 0.0
S379 S 0.59285 0.44429 0.04486 0.0
N380 N 0.57429 0.39998 0.07037 0.0
N381 N 0.56645 0.44329 0.95205 0.0
C382 C 0.54084 0.40569 0.93718 0.0
C383 C 0.54525 0.38225 0.00158 0.0
C384 C 0.11203 0.45957 0.10091 0.0
C385 C 0.13745 0.44809 0.07328 0.0
C386 C 0.08391 0.45753 0.03803 0.0
C387 C 0.08032 0.44484 0.94372 0.0
H388 H 0.11454 0.47156 0.17167 0.0
H389 H 0.06579 0.4676 0.06304 0.0
S390 S 0.13903 0.41087 0.83479 0.0
N391 N 0.15652 0.42231 0.94581 0.0
N392 N 0.10381 0.41966 0.82489 0.0
C393 C 0.10478 0.43233 0.91463 0.0
C394 C 0.13356 0.43406 -0.02018 0.0
C395 C 0.65805 0.13609 0.89323 0.0
C396 C 0.69228 0.13779 0.92197 0.0
C397 C 0.62918 0.10449 0.83803 0.0
C398 C 0.63338 0.07326 0.81118 0.0
H399 H 0.65322 0.15888 0.91598 0.0
H400 H 0.60371 0.10485 0.8152 0.0
S401 S 0.71623 0.06244 0.87822 0.0
N402 N 0.72792 0.10495 0.92541 0.0
N403 N 0.6737 0.04526 0.82319 0.0
C404 C 0.66726 0.07443 0.8417 0.0
C405 C 0.69673 0.10679 0.89639 0.0
C406 C 0.56822 0.67851 0.75794 0.0
C407 C 0.53444 0.67431 0.788 0.0
C408 C 0.56833 0.64855 0.70686 0.0
C409 C 0.53462 0.61448 0.68255 0.0
H410 H 0.59516 0.70223 0.78674 0.0
H411 H 0.5951 0.65024 0.69777 0.0
S412 S 0.43824 0.59464 0.71675 0.0
N413 N 0.46612 0.63765 0.76904 0.0
N414 N 0.46631 0.58142 0.67116 0.0
C415 C 0.50038 0.6129 0.6961 0.0
C416 C 0.50026 0.64316 0.74885 0.0
C417 C 0.49287 0.13452 0.39306 0.0
C418 C 0.52855 0.16663 0.38826 0.0
C419 C 0.48914 0.10351 0.43942 0.0
C420 C 0.52085 0.10404 0.48399 0.0
H421 H 0.46856 0.13126 0.35025 0.0
H422 H 0.46211 0.07756 0.43142 0.0
S423 S 0.61917 0.18366 0.5057 0.0
N424 N 0.5951 0.19891 0.44298 0.0
N425 N 0.58796 0.141 0.53164 0.0
C426 C 0.55569 0.13778 0.49016 0.0
C427 C 0.55955 0.16919 0.44239 0.0
C428 C 0.37503 0.49266 0.37694 0.0
C429 C 0.34417 0.46043 0.32873 0.0
C430 C 0.40398 0.49014 0.4261 0.0
C431 C 0.40268 0.45518 0.43025 0.0
H432 H 0.37842 0.52047 0.36999 0.0
H433 H 0.42782 0.51595 0.46016 0.0
S434 S 0.32551 0.36186 0.3251 0.0
N435 N 0.31242 0.39227 0.29285 0.0
N436 N 0.36613 0.38712 0.39054 0.0
C437 C 0.37053 0.42229 0.38862 0.0
C438 C 0.34137 0.42501 0.33664 0.0
C439 C 0.9129 0.33855 0.33576 0.0
C440 C 0.87856 0.33809 0.31765 0.0
C441 C 0.94273 0.36781 0.3945 0.0
C442 C 0.93868 0.39673 0.43898 0.0
H443 H 0.91847 0.3191 0.29524 0.0
H444 H 0.97014 0.36988 0.39767 0.0
S445 S 0.85217 0.40388 0.4304 0.0
N446 N 0.84043 0.36567 0.36001 0.0
N447 N 0.8963 0.42006 0.47326 0.0
C448 C 0.90304 0.3937 0.43172 0.0
C449 C 0.87288 0.36436 0.37038 0.0
C450 C 0.52557 0.85759 0.2195 0.0
C451 C 0.55842 0.85587 0.20773 0.0
C452 C 0.52442 0.88009 0.29414 0.0
C453 C 0.55603 0.9015 0.3598 0.0
H454 H 0.50156 0.84363 0.16692 0.0
H455 H 0.49966 0.88306 0.29622 0.0
S456 S 0.64654 0.90156 0.36903 0.0
N457 N 0.62158 0.87358 0.27425 0.0
N458 N 0.61909 0.91526 0.41595 0.0
C459 C 0.58742 0.89653 0.35497 0.0
C460 C 0.58874 0.87387 0.27831 0.0
C461 C 0.72094 0.60082 0.24307 0.0
C462 C 0.72444 0.56933 0.21427 0.0
C463 C 0.69215 0.59685 0.29761 0.0
C464 C 0.66585 0.56115 0.3236 0.0
H465 H 0.73788 0.62769 0.21498 0.0
H466 H 0.68843 0.62102 0.31195 0.0
S467 S 0.6677 0.47175 0.28092 0.0
N468 N 0.70302 0.50296 0.22745 0.0
N469 N 0.64908 0.49524 0.3297 0.0
C470 C 0.67179 0.53051 0.30385 0.0
C471 C 0.70117 0.5347 0.24945 0.0
C472 C 0.16734 0.69628 0.3075 0.0
C473 C 0.18303 0.68326 0.2414 0.0
C474 C 0.14449 0.67226 0.37162 0.0
C475 C 0.13583 0.63417 0.36967 0.0
H476 H 0.17073 0.72428 0.30561 0.0
H477 H 0.13111 0.68273 0.4175 0.0
S478 S 0.17303 0.5881 0.21242 0.0
N479 N 0.19153 0.63178 0.1823 0.0
N480 N 0.14757 0.58598 0.2985 0.0
C481 C 0.15367 0.62194 0.3072 0.0
C482 C 0.17743 0.64663 0.24391 0.0
loop_
_geom_bond_atom_site_label_1
_geom_bond_atom_site_label_2
_geom_bond_distance
_geom_bond_site_symmetry_2
_ccdc_geom_bond_type
H0 C8 0.930 . S
H1 C11 0.930 . S
H2 C13 0.930 . S
H3 C14 0.970 . S
H4 C14 0.970 . S
H5 C16 0.930 . S
H6 C18 0.930 . S
H7 C20 0.930 . S
C8 H0 0.930 . S
C8 C9 1.382 . S
C8 C10 1.426 . S
C9 C8 1.382 . S
C9 C13 1.389 . S
C10 C8 1.426 . S
C10 C11 1.375 . S
C10 C14 1.532 . S
C11 H1 0.930 . S
C11 C10 1.375 . S
C11 C12 1.416 . S
C12 C11 1.416 . S
C12 C13 1.371 . S
C13 H2 0.930 . S
C13 C9 1.389 . S
C13 C12 1.371 . S
C14 H3 0.970 . S
C14 H4 0.970 . S
C14 C10 1.532 . S
C14 C15 1.499 . S
C15 C14 1.499 . S
C15 C16 1.370 . S
C15 C20 1.415 . S
C16 H5 0.930 . S
C16 C15 1.370 . S
C16 C17 1.407 . S
C17 C16 1.407 . S
C17 C18 1.365 . S
C18 H6 0.930 . S
C18 C17 1.365 . S
C18 C19 1.393 . S
C19 C18 1.393 . S
C19 C20 1.387 . S
C20 H7 0.930 . S
C20 C15 1.415 . S
C20 C19 1.387 . S
H21 C29 0.930 1_556 S
H22 C32 0.930 . S
H23 C34 0.930 . S
H24 C35 0.970 . S
H25 C35 0.970 . S
H26 C37 0.930 1_556 S
H27 C39 0.930 . S
H28 C41 0.930 . S
C29 H21 0.930 1_554 S
C29 C30 1.382 . S
C29 C31 1.426 . S
C30 C29 1.382 . S
C30 C34 1.389 . S
C31 C29 1.426 . S
C31 C32 1.375 . S
C31 C35 1.532 . S
C32 H22 0.930 . S
C32 C31 1.375 . S
C32 C33 1.416 . S
C33 C32 1.416 . S
C33 C34 1.371 . S
C34 H23 0.930 . S
C34 C30 1.389 . S
C34 C33 1.371 . S
C35 H24 0.970 . S
C35 H25 0.970 . S
C35 C31 1.532 . S
C35 C36 1.499 . S
C36 C35 1.499 . S
C36 C37 1.370 . S
C36 C41 1.415 . S
C37 H26 0.930 1_554 S
C37 C36 1.370 . S
C37 C38 1.407 . S
C38 C37 1.407 . S
C38 C39 1.365 . S
C39 H27 0.930 . S
C39 C38 1.365 . S
C39 C40 1.393 . S
C40 C39 1.393 . S
C40 C41 1.387 . S
C41 H28 0.930 . S
C41 C36 1.415 . S
C41 C40 1.387 . S
H42 C50 0.930 . S
H43 C53 0.930 . S
H44 C55 0.930 . S
H45 C56 0.970 . S
H46 C56 0.970 . S
H47 C58 0.930 . S
H48 C60 0.930 . S
H49 C62 0.930 . S
C50 H42 0.930 . S
C50 C51 1.382 . S
C50 C52 1.426 1_556 S
C51 C50 1.382 . S
C51 C55 1.389 1_556 S
C52 C50 1.426 1_554 S
C52 C53 1.375 . S
C52 C56 1.532 . S
C53 H43 0.930 . S
C53 C52 1.375 . S
C53 C54 1.416 . S
C54 C53 1.416 . S
C54 C55 1.371 . S
C55 H44 0.930 . S
C55 C51 1.389 1_554 S
C55 C54 1.371 . S
C56 H45 0.970 . S
C56 H46 0.970 . S
C56 C52 1.532 . S
C56 C57 1.499 . S
C57 C56 1.499 . S
C57 C58 1.370 1_554 S
C57 C62 1.415 . S
C58 H47 0.930 . S
C58 C57 1.370 1_556 S
C58 C59 1.407 . S
C59 C58 1.407 . S
C59 C60 1.365 1_556 S
C60 H48 0.930 . S
C60 C59 1.365 1_554 S
C60 C61 1.393 . S
C61 C60 1.393 . S
C61 C62 1.387 . S
C62 H49 0.930 . S
C62 C57 1.415 . S
C62 C61 1.387 . S
H63 C71 0.930 . S
H64 C74 0.930 . S
H65 C76 0.930 . S
H66 C77 0.970 1_556 S
H67 C77 0.970 . S
H68 C79 0.930 . S
H69 C81 0.930 . S
H70 C83 0.930 . S
C71 H63 0.930 . S
C71 C72 1.382 . S
C71 C73 1.426 1_556 S
C72 C71 1.382 . S
C72 C76 1.389 1_556 S
C73 C71 1.426 1_554 S
C73 C74 1.375 . S
C73 C77 1.532 . S
C74 H64 0.930 . S
C74 C73 1.375 . S
C74 C75 1.416 . S
C75 C74 1.416 . S
C75 C76 1.371 . S
C76 H65 0.930 . S
C76 C72 1.389 1_554 S
C76 C75 1.371 . S
C77 H66 0.970 1_554 S
C77 H67 0.970 . S
C77 C73 1.532 . S
C77 C78 1.499 . S
C78 C77 1.499 . S
C78 C79 1.370 1_554 S
C78 C83 1.415 . S
C79 H68 0.930 . S
C79 C78 1.370 1_556 S
C79 C80 1.407 . S
C80 C79 1.407 . S
C80 C81 1.365 1_556 S
C81 H69 0.930 . S
C81 C80 1.365 1_554 S
C81 C82 1.393 . S
C82 C81 1.393 . S
C82 C83 1.387 . S
C83 H70 0.930 . S
C83 C78 1.415 . S
C83 C82 1.387 . S
H84 C92 0.930 1_556 S
H85 C95 0.930 . S
H86 C97 0.930 . S
H87 C98 0.970 . S
H88 C98 0.970 . S
H89 C100 0.930 1_556 S
H90 C102 0.930 . S
H91 C104 0.930 . S
C92 H84 0.930 1_554 S
C92 C93 1.382 . S
C92 C94 1.426 . S
C93 C92 1.382 . S
C93 C97 1.389 . S
C94 C92 1.426 . S
C94 C95 1.375 . S
C94 C98 1.532 . S
C95 H85 0.930 . S
C95 C94 1.375 . S
C95 C96 1.416 . S
C96 C95 1.416 . S
C96 C97 1.371 . S
C97 H86 0.930 . S
C97 C93 1.389 . S
C97 C96 1.371 . S
C98 H87 0.970 . S
C98 H88 0.970 . S
C98 C94 1.532 . S
C98 C99 1.499 . S
C99 C98 1.499 . S
C99 C100 1.370 . S
C99 C104 1.415 . S
C100 H89 0.930 1_554 S
C100 C99 1.370 . S
C100 C101 1.407 . S
C101 C100 1.407 . S
C101 C102 1.365 . S
C102 H90 0.930 . S
C102 C101 1.365 . S
C102 C103 1.393 . S
C103 C102 1.393 . S
C103 C104 1.387 . S
C104 H91 0.930 . S
C104 C99 1.415 . S
C104 C103 1.387 . S
H105 C113 0.930 . S
H106 C116 0.930 . S
H107 C118 0.930 . S
H108 C119 0.970 . S
H109 C119 0.970 . S
H110 C121 0.930 . S
H111 C123 0.930 . S
H112 C125 0.930 . S
C113 H105 0.930 . S
C113 C114 1.382 . S
C113 C115 1.426 . S
C114 C113 1.382 . S
C114 C118 1.389 . S
C115 C113 1.426 . S
C115 C116 1.375 . S
C115 C119 1.532 . S
C116 H106 0.930 . S
C116 C115 1.375 . S
C116 C117 1.416 . S
C117 C116 1.416 . S
C117 C118 1.371 . S
C118 H107 0.930 . S
C118 C114 1.389 . S
C118 C117 1.371 . S
C119 H108 0.970 . S
C119 H109 0.970 . S
C119 C115 1.532 . S
C119 C120 1.499 . S
C120 C119 1.499 . S
C120 C121 1.370 . S
C120 C125 1.415 . S
C121 H110 0.930 . S
C121 C120 1.370 . S
C121 C122 1.407 . S
C122 C121 1.407 . S
C122 C123 1.365 . S
C123 H111 0.930 . S
C123 C122 1.365 . S
C123 C124 1.393 . S
C124 C123 1.393 . S
C124 C125 1.387 . S
C125 H112 0.930 . S
C125 C120 1.415 . S
C125 C124 1.387 . S
C126 O153 1.312 . S
C126 O154 1.208 . S
C127 O148 1.331 . S
C127 O151 1.244 . S
C128 O150 1.264 . S
C128 O152 1.273 . S
Mg129 O131 1.936 1_455 S
Mg129 O138 2.081 1_455 S
Mg129 O140 2.023 . S
Mg129 O144 2.031 1_455 S
Mg129 O153 2.291 . S
Mg130 O131 1.963 . S
Mg130 O141 1.942 . S
Mg130 O142 1.955 1_655 S
Mg130 O149 1.986 . S
O131 Mg129 1.936 1_655 S
O131 Mg130 1.963 . S
O131 Mg132 1.915 1_655 S
Mg132 O131 1.915 1_455 S
Mg132 O133 1.915 . S
Mg132 O137 2.013 . S
Mg132 O143 2.114 1_455 S
Mg132 O147 2.013 1_455 S
Mg132 O153 2.114 . S
O133 Mg132 1.915 . S
O133 Mg134 1.936 . S
O133 Mg135 1.963 . S
Mg134 O133 1.936 . S
Mg134 O143 2.291 1_455 S
Mg134 O148 2.081 . S
Mg134 O150 2.023 1_455 S
Mg134 O154 2.031 . S
Mg135 O133 1.963 . S
Mg135 O139 1.986 . S
Mg135 O151 1.942 . S
Mg135 O152 1.955 1_455 S
C136 O147 1.191 . S
C136 O149 1.307 . S
O137 Mg132 2.013 . S
O137 C156 1.191 . S
O138 Mg129 2.081 1_655 S
O138 C146 1.331 . S
O139 Mg135 1.986 . S
O139 C156 1.307 . S
O140 Mg129 2.023 . S
O140 C155 1.264 . S
O141 Mg130 1.942 . S
O141 C146 1.244 . S
O142 Mg130 1.955 1_455 S
O142 C155 1.273 . S
O143 Mg132 2.114 1_655 S
O143 Mg134 2.291 1_655 S
O143 C145 1.312 . S
O144 Mg129 2.031 1_655 S
O144 C145 1.208 . S
C145 O143 1.312 . S
C145 O144 1.208 . S
C146 O138 1.331 . S
C146 O141 1.244 . S
O147 Mg132 2.013 1_655 S
O147 C136 1.191 . S
O148 C127 1.331 . S
O148 Mg134 2.081 . S
O149 Mg130 1.986 . S
O149 C136 1.307 . S
O150 C128 1.264 . S
O150 Mg134 2.023 1_655 S
O151 C127 1.244 . S
O151 Mg135 1.942 . S
O152 C128 1.273 . S
O152 Mg135 1.955 1_655 S
O153 C126 1.312 . S
O153 Mg129 2.291 . S
O153 Mg132 2.114 . S
O154 C126 1.208 . S
O154 Mg134 2.031 . S
C155 O140 1.264 . S
C155 O142 1.273 . S
C156 O137 1.191 . S
C156 O139 1.307 . S
C157 O184 1.312 . S
C157 O185 1.208 . S
C158 O179 1.331 . S
C158 O182 1.244 . S
C159 O181 1.264 . S
C159 O183 1.273 . S
Mg160 O162 1.936 1_545 S
Mg160 O169 2.081 1_545 S
Mg160 O171 2.023 . S
Mg160 O175 2.031 1_545 S
Mg160 O184 2.291 . S
Mg161 O162 1.963 . S
Mg161 O172 1.942 . S
Mg161 O173 1.955 1_565 S
Mg161 O180 1.986 . S
O162 Mg160 1.936 1_565 S
O162 Mg161 1.963 . S
O162 Mg163 1.915 1_565 S
Mg163 O162 1.915 1_545 S
Mg163 O164 1.915 . S
Mg163 O168 2.013 . S
Mg163 O174 2.114 1_545 S
Mg163 O178 2.013 1_545 S
Mg163 O184 2.114 . S
O164 Mg163 1.915 . S
O164 Mg165 1.934 . S
O164 Mg166 1.963 . S
Mg165 O164 1.934 . S
Mg165 O174 2.285 1_545 S
Mg165 O179 2.088 . S
Mg165 O181 2.003 1_545 S
Mg165 O185 2.050 . S
Mg166 O164 1.963 . S
Mg166 O170 1.986 . S
Mg166 O182 1.942 . S
Mg166 O183 1.955 1_545 S
C167 O178 1.191 . S
C167 O180 1.307 . S
O168 Mg163 2.013 . S
O168 C187 1.191 . S
O169 Mg160 2.081 1_565 S
O169 C177 1.331 . S
O170 Mg166 1.986 . S
O170 C187 1.307 . S
O171 Mg160 2.023 . S
O171 C186 1.264 . S
O172 Mg161 1.942 . S
O172 C177 1.244 . S
O173 Mg161 1.955 1_545 S
O173 C186 1.273 . S
O174 Mg163 2.114 1_565 S
O174 Mg165 2.285 1_565 S
O174 C176 1.312 . S
O175 Mg160 2.031 1_565 S
O175 C176 1.208 . S
C176 O174 1.312 . S
C176 O175 1.208 . S
C177 O169 1.331 . S
C177 O172 1.244 . S
O178 Mg163 2.013 1_565 S
O178 C167 1.191 . S
O179 C158 1.331 . S
O179 Mg165 2.088 . S
O180 Mg161 1.986 . S
O180 C167 1.307 . S
O181 C159 1.264 . S
O181 Mg165 2.003 1_565 S
O182 C158 1.244 . S
O182 Mg166 1.942 . S
O183 C159 1.273 . S
O183 Mg166 1.955 1_565 S
O184 C157 1.312 . S
O184 Mg160 2.291 . S
O184 Mg163 2.114 . S
O185 C157 1.208 . S
O185 Mg165 2.050 . S
C186 O171 1.264 . S
C186 O173 1.273 . S
C187 O168 1.191 . S
C187 O170 1.307 . S
C188 O215 1.312 . S
C188 O216 1.208 . S
C189 O210 1.331 . S
C189 O213 1.244 . S
C190 O212 1.264 . S
C190 O214 1.273 . S
Mg191 O193 1.936 . S
Mg191 O200 2.081 . S
Mg191 O202 2.023 . S
Mg191 O206 2.031 . S
Mg191 O215 2.291 . S
Mg192 O193 1.963 . S
Mg192 O203 1.942 . S
Mg192 O204 1.955 . S
Mg192 O211 1.986 . S
O193 Mg191 1.936 . S
O193 Mg192 1.963 . S
O193 Mg194 1.915 . S
Mg194 O193 1.915 . S
Mg194 O195 1.915 . S
Mg194 O199 2.013 . S
Mg194 O205 2.114 . S
Mg194 O209 2.013 . S
Mg194 O215 2.114 . S
O195 Mg194 1.915 . S
O195 Mg196 1.936 . S
O195 Mg197 1.963 . S
Mg196 O195 1.936 . S
Mg196 O205 2.291 . S
Mg196 O210 2.081 . S
Mg196 O212 2.023 . S
Mg196 O216 2.031 . S
Mg197 O195 1.963 . S
Mg197 O201 1.986 . S
Mg197 O213 1.942 . S
Mg197 O214 1.955 . S
C198 O209 1.191 . S
C198 O211 1.307 . S
O199 Mg194 2.013 . S
O199 C218 1.191 . S
O200 Mg191 2.081 . S
O200 C208 1.331 . S
O201 Mg197 1.986 . S
O201 C218 1.307 . S
O202 Mg191 2.023 . S
O202 C217 1.264 . S
O203 Mg192 1.942 . S
O203 C208 1.244 . S
O204 Mg192 1.955 . S
O204 C217 1.273 . S
O205 Mg194 2.114 . S
O205 Mg196 2.291 . S
O205 C207 1.312 . S
O206 Mg191 2.031 . S
O206 C207 1.208 . S
C207 O205 1.312 . S
C207 O206 1.208 . S
C208 O200 1.331 . S
C208 O203 1.244 . S
O209 Mg194 2.013 . S
O209 C198 1.191 . S
O210 C189 1.331 . S
O210 Mg196 2.081 . S
O211 Mg192 1.986 . S
O211 C198 1.307 . S
O212 C190 1.264 . S
O212 Mg196 2.023 . S
O213 C189 1.244 . S
O213 Mg197 1.942 . S
O214 C190 1.273 . S
O214 Mg197 1.955 . S
O215 C188 1.312 . S
O215 Mg191 2.291 . S
O215 Mg194 2.114 . S
O216 C188 1.208 . S
O216 Mg196 2.031 . S
C217 O202 1.264 . S
C217 O204 1.273 . S
C218 O199 1.191 . S
C218 O201 1.307 . S
C219 C220 1.369 . S
C219 C221 1.419 . S
C219 H223 0.930 . S
C220 C219 1.369 . S
C220 C229 1.429 . S
C221 C219 1.419 . S
C221 C222 1.363 . S
C221 H224 0.929 . S
C222 C221 1.363 . S
C222 C228 1.428 . S
H223 C219 0.930 . S
H224 C221 0.929 . S
S225 N226 1.613 . S
S225 N227 1.610 . S
N226 S225 1.613 . S
N226 C229 1.350 . S
N227 S225 1.610 . S
N227 C228 1.351 . S
C228 C222 1.428 . S
C228 N227 1.351 . S
C228 C229 1.434 . S
C229 C220 1.429 . S
C229 N226 1.350 . S
C229 C228 1.434 . S
C230 C231 1.369 . S
C230 C232 1.419 . S
C230 H234 0.930 . S
C231 C230 1.369 . S
C231 C240 1.429 . S
C232 C230 1.419 . S
C232 C233 1.363 . S
C232 H235 0.929 . S
C233 C232 1.363 . S
C233 C239 1.428 . S
H234 C230 0.930 . S
H235 C232 0.929 . S
S236 N237 1.613 . S
S236 N238 1.610 . S
N237 S236 1.613 . S
N237 C240 1.350 . S
N238 S236 1.610 . S
N238 C239 1.351 . S
C239 C233 1.428 . S
C239 N238 1.351 . S
C239 C240 1.434 . S
C240 C231 1.429 . S
C240 N237 1.350 . S
C240 C239 1.434 . S
C241 C242 1.369 . S
C241 C243 1.419 . S
C241 H245 0.930 . S
C242 C241 1.369 . S
C242 C251 1.429 . S
C243 C241 1.419 . S
C243 C244 1.363 . S
C243 H246 0.929 . S
C244 C243 1.363 . S
C244 C250 1.428 . S
H245 C241 0.930 . S
H246 C243 0.929 . S
S247 N248 1.613 . S
S247 N249 1.610 . S
N248 S247 1.613 . S
N248 C251 1.350 . S
N249 S247 1.610 . S
N249 C250 1.351 . S
C250 C244 1.428 . S
C250 N249 1.351 . S
C250 C251 1.434 . S
C251 C242 1.429 . S
C251 N248 1.350 . S
C251 C250 1.434 . S
C252 C253 1.369 . S
C252 C254 1.419 . S
C252 H256 0.930 . S
C253 C252 1.369 . S
C253 C262 1.429 . S
C254 C252 1.419 . S
C254 C255 1.363 . S
C254 H257 0.929 . S
C255 C254 1.363 . S
C255 C261 1.428 . S
H256 C252 0.930 . S
H257 C254 0.929 . S
S258 N259 1.613 . S
S258 N260 1.610 . S
N259 S258 1.613 . S
N259 C262 1.350 . S
N260 S258 1.610 . S
N260 C261 1.351 . S
C261 C255 1.428 . S
C261 N260 1.351 . S
C261 C262 1.434 . S
C262 C253 1.429 . S
C262 N259 1.350 . S
C262 C261 1.434 . S
C263 C264 1.369 . S
C263 C265 1.419 . S
C263 H267 0.930 . S
C264 C263 1.369 . S
C264 C273 1.429 . S
C265 C263 1.419 . S
C265 C266 1.363 . S
C265 H268 0.929 . S
C266 C265 1.363 . S
C266 C272 1.428 . S
H267 C263 0.930 . S
H268 C265 0.929 . S
S269 N270 1.613 . S
S269 N271 1.610 . S
N270 S269 1.613 . S
N270 C273 1.350 . S
N271 S269 1.610 . S
N271 C272 1.351 . S
C272 C266 1.428 . S
C272 N271 1.351 . S
C272 C273 1.434 . S
C273 C264 1.429 . S
C273 N270 1.350 . S
C273 C272 1.434 . S
C274 C275 1.369 . S
C274 C276 1.419 . S
C274 H278 0.930 . S
C275 C274 1.369 . S
C275 C284 1.429 . S
C276 C274 1.419 . S
C276 C277 1.363 . S
C276 H279 0.929 . S
C277 C276 1.363 . S
C277 C283 1.428 . S
H278 C274 0.930 . S
H279 C276 0.929 . S
S280 N281 1.613 . S
S280 N282 1.610 . S
N281 S280 1.613 . S
N281 C284 1.350 . S
N282 S280 1.610 . S
N282 C283 1.351 . S
C283 C277 1.428 . S
C283 N282 1.351 . S
C283 C284 1.434 . S
C284 C275 1.429 . S
C284 N281 1.350 . S
C284 C283 1.434 . S
C285 C286 1.369 . S
C285 C287 1.419 . S
C285 H289 0.930 . S
C286 C285 1.369 . S
C286 C295 1.429 . S
C287 C285 1.419 . S
C287 C288 1.363 . S
C287 H290 0.929 . S
C288 C287 1.363 . S
C288 C294 1.428 . S
H289 C285 0.930 . S
H290 C287 0.929 . S
S291 N292 1.613 . S
S291 N293 1.610 . S
N292 S291 1.613 . S
N292 C295 1.350 . S
N293 S291 1.610 . S
N293 C294 1.351 . S
C294 C288 1.428 . S
C294 N293 1.351 . S
C294 C295 1.434 . S
C295 C286 1.429 . S
C295 N292 1.350 . S
C295 C294 1.434 . S
C296 C297 1.369 . S
C296 C298 1.419 . S
C296 H300 0.930 . S
C297 C296 1.369 . S
C297 C306 1.429 . S
C298 C296 1.419 . S
C298 C299 1.363 . S
C298 H301 0.929 . S
C299 C298 1.363 . S
C299 C305 1.428 . S
H300 C296 0.930 . S
H301 C298 0.929 . S
S302 N303 1.613 . S
S302 N304 1.610 . S
N303 S302 1.613 . S
N303 C306 1.350 . S
N304 S302 1.610 . S
N304 C305 1.351 . S
C305 C299 1.428 . S
C305 N304 1.351 . S
C305 C306 1.434 . S
C306 C297 1.429 . S
C306 N303 1.350 . S
C306 C305 1.434 . S
C307 C308 1.369 . S
C307 C309 1.419 . S
C307 H311 0.930 1_556 S
C308 C307 1.369 . S
C308 C317 1.429 . S
C309 C307 1.419 . S
C309 C310 1.363 . S
C309 H312 0.929 . S
C310 C309 1.363 . S
C310 C316 1.428 . S
H311 C307 0.930 1_554 S
H312 C309 0.929 . S
S313 N314 1.613 . S
S313 N315 1.610 . S
N314 S313 1.613 . S
N314 C317 1.350 . S
N315 S313 1.610 . S
N315 C316 1.351 . S
C316 C310 1.428 . S
C316 N315 1.351 . S
C316 C317 1.434 . S
C317 C308 1.429 . S
C317 N314 1.350 . S
C317 C316 1.434 . S
C318 C319 1.369 . S
C318 C320 1.419 1_554 S
C318 H322 0.930 . S
C319 C318 1.369 . S
C319 C328 1.429 . S
C320 C318 1.419 1_556 S
C320 C321 1.363 . S
C320 H323 0.929 . S
C321 C320 1.363 . S
C321 C327 1.428 . S
H322 C318 0.930 . S
H323 C320 0.929 . S
S324 N325 1.613 1_556 S
S324 N326 1.610 . S
N325 S324 1.613 1_554 S
N325 C328 1.350 . S
N326 S324 1.610 . S
N326 C327 1.351 . S
C327 C321 1.428 . S
C327 N326 1.351 . S
C327 C328 1.434 1_556 S
C328 C319 1.429 . S
C328 N325 1.350 . S
C328 C327 1.434 1_554 S
C329 C330 1.369 . S
C329 C331 1.419 . S
C329 H333 0.930 . S
C330 C329 1.369 . S
C330 C339 1.429 1_554 S
C331 C329 1.419 . S
C331 C332 1.363 1_554 S
C331 H334 0.929 . S
C332 C331 1.363 1_556 S
C332 C338 1.428 . S
H333 C329 0.930 . S
H334 C331 0.929 . S
S335 N336 1.613 . S
S335 N337 1.610 . S
N336 S335 1.613 . S
N336 C339 1.350 . S
N337 S335 1.610 . S
N337 C338 1.351 . S
C338 C332 1.428 . S
C338 N337 1.351 . S
C338 C339 1.434 . S
C339 C330 1.429 1_556 S
C339 N336 1.350 . S
C339 C338 1.434 . S
C340 C341 1.370 . S
C340 C342 1.419 . S
C340 H344 0.929 1_556 S
C341 C340 1.370 . S
C341 C350 1.429 . S
C342 C340 1.419 . S
C342 C343 1.363 . S
C342 H345 0.929 . S
C343 C342 1.363 . S
C343 C349 1.428 . S
H344 C340 0.929 1_554 S
H345 C342 0.929 . S
S346 N347 1.613 . S
S346 N348 1.610 . S
N347 S346 1.613 . S
N347 C350 1.350 . S
N348 S346 1.610 . S
N348 C349 1.351 . S
C349 C343 1.428 . S
C349 N348 1.351 . S
C349 C350 1.434 . S
C350 C341 1.429 . S
C350 N347 1.350 . S
C350 C349 1.434 . S
C351 C352 1.369 . S
C351 C353 1.419 . S
C351 H355 0.930 . S
C352 C351 1.369 . S
C352 C361 1.429 . S
C353 C351 1.419 . S
C353 C354 1.363 . S
C353 H356 0.929 . S
C354 C353 1.363 . S
C354 C360 1.428 . S
H355 C351 0.930 . S
H356 C353 0.929 . S
S357 N358 1.613 . S
S357 N359 1.610 . S
N358 S357 1.613 . S
N358 C361 1.350 . S
N359 S357 1.610 . S
N359 C360 1.351 . S
C360 C354 1.428 . S
C360 N359 1.351 . S
C360 C361 1.434 . S
C361 C352 1.429 . S
C361 N358 1.350 . S
C361 C360 1.434 . S
C362 C363 1.369 . S
C362 C364 1.419 . S
C362 H366 0.930 1_556 S
C363 C362 1.369 . S
C363 C372 1.429 . S
C364 C362 1.419 . S
C364 C365 1.363 . S
C364 H367 0.929 . S
C365 C364 1.363 . S
C365 C371 1.428 . S
H366 C362 0.930 1_554 S
H367 C364 0.929 . S
S368 N369 1.613 . S
S368 N370 1.610 . S
N369 S368 1.613 . S
N369 C372 1.350 . S
N370 S368 1.610 . S
N370 C371 1.351 . S
C371 C365 1.428 . S
C371 N370 1.351 . S
C371 C372 1.434 . S
C372 C363 1.429 . S
C372 N369 1.350 . S
C372 C371 1.434 . S
C373 C374 1.369 1_556 S
C373 C375 1.419 . S
C373 H377 0.930 . S
C374 C373 1.369 1_554 S
C374 C383 1.429 . S
C375 C373 1.419 . S
C375 C376 1.363 . S
C375 H378 0.929 . S
C376 C375 1.363 . S
C376 C382 1.428 . S
H377 C373 0.930 . S
H378 C375 0.929 . S
S379 N380 1.613 . S
S379 N381 1.610 . S
N380 S379 1.613 . S
N380 C383 1.350 . S
N381 S379 1.610 . S
N381 C382 1.351 1_554 S
C382 C376 1.428 . S
C382 N381 1.351 1_556 S
C382 C383 1.434 1_556 S
C383 C374 1.429 . S
C383 N380 1.350 . S
C383 C382 1.434 1_554 S
C384 C385 1.369 . S
C384 C386 1.419 . S
C384 H388 0.930 . S
C385 C384 1.369 . S
C385 C394 1.429 1_554 S
C386 C384 1.419 . S
C386 C387 1.363 1_554 S
C386 H389 0.929 . S
C387 C386 1.363 1_556 S
C387 C393 1.428 . S
H388 C384 0.930 . S
H389 C386 0.929 . S
S390 N391 1.613 . S
S390 N392 1.610 . S
N391 S390 1.613 . S
N391 C394 1.350 . S
N392 S390 1.610 . S
N392 C393 1.351 . S
C393 C387 1.428 . S
C393 N392 1.351 . S
C393 C394 1.434 . S
C394 C385 1.429 1_556 S
C394 N391 1.350 . S
C394 C393 1.434 . S
C395 C396 1.369 . S
C395 C397 1.419 . S
C395 H399 0.930 . S
C396 C395 1.369 . S
C396 C405 1.429 . S
C397 C395 1.419 . S
C397 C398 1.363 . S
C397 H400 0.929 . S
C398 C397 1.363 . S
C398 C404 1.428 . S
H399 C395 0.930 . S
H400 C397 0.929 . S
S401 N402 1.613 . S
S401 N403 1.610 1_554 S
N402 S401 1.613 . S
N402 C405 1.350 1_554 S
N403 S401 1.610 1_556 S
N403 C404 1.351 . S
C404 C398 1.428 . S
C404 N403 1.351 . S
C404 C405 1.434 . S
C405 C396 1.429 . S
C405 N402 1.350 1_556 S
C405 C404 1.434 . S
C406 C407 1.369 . S
C406 C408 1.419 . S
C406 H410 0.930 . S
C407 C406 1.369 . S
C407 C416 1.429 . S
C408 C406 1.419 . S
C408 C409 1.363 . S
C408 H411 0.929 . S
C409 C408 1.363 . S
C409 C415 1.428 . S
H410 C406 0.930 . S
H411 C408 0.929 . S
S412 N413 1.613 . S
S412 N414 1.610 . S
N413 S412 1.613 . S
N413 C416 1.350 . S
N414 S412 1.610 . S
N414 C415 1.351 . S
C415 C409 1.428 . S
C415 N414 1.351 . S
C415 C416 1.434 . S
C416 C407 1.429 . S
C416 N413 1.350 . S
C416 C415 1.434 . S
C417 C418 1.369 . S
C417 C419 1.419 . S
C417 H421 0.930 . S
C418 C417 1.369 . S
C418 C427 1.429 . S
C419 C417 1.419 . S
C419 C420 1.363 . S
C419 H422 0.929 . S
C420 C419 1.363 . S
C420 C426 1.428 . S
H421 C417 0.930 . S
H422 C419 0.929 . S
S423 N424 1.613 . S
S423 N425 1.610 . S
N424 S423 1.613 . S
N424 C427 1.350 . S
N425 S423 1.610 . S
N425 C426 1.351 . S
C426 C420 1.428 . S
C426 N425 1.351 . S
C426 C427 1.434 . S
C427 C418 1.429 . S
C427 N424 1.350 . S
C427 C426 1.434 . S
C428 C429 1.369 . S
C428 C430 1.419 . S
C428 H432 0.930 . S
C429 C428 1.369 . S
C429 C438 1.429 . S
C430 C428 1.419 . S
C430 C431 1.363 . S
C430 H433 0.929 . S
C431 C430 1.363 . S
C431 C437 1.428 . S
H432 C428 0.930 . S
H433 C430 0.929 . S
S434 N435 1.613 . S
S434 N436 1.610 . S
N435 S434 1.613 . S
N435 C438 1.350 . S
N436 S434 1.610 . S
N436 C437 1.351 . S
C437 C431 1.428 . S
C437 N436 1.351 . S
C437 C438 1.434 . S
C438 C429 1.429 . S
C438 N435 1.350 . S
C438 C437 1.434 . S
C439 C440 1.369 . S
C439 C441 1.419 . S
C439 H443 0.930 . S
C440 C439 1.369 . S
C440 C449 1.429 . S
C441 C439 1.419 . S
C441 C442 1.363 . S
C441 H444 0.929 . S
C442 C441 1.363 . S
C442 C448 1.428 . S
H443 C439 0.930 . S
H444 C441 0.929 . S
S445 N446 1.613 . S
S445 N447 1.610 . S
N446 S445 1.613 . S
N446 C449 1.350 . S
N447 S445 1.610 . S
N447 C448 1.351 . S
C448 C442 1.428 . S
C448 N447 1.351 . S
C448 C449 1.434 . S
C449 C440 1.429 . S
C449 N446 1.350 . S
C449 C448 1.434 . S
C450 C451 1.369 . S
C450 C452 1.419 . S
C450 H454 0.930 . S
C451 C450 1.369 . S
C451 C460 1.429 . S
C452 C450 1.419 . S
C452 C453 1.363 . S
C452 H455 0.929 . S
C453 C452 1.363 . S
C453 C459 1.428 . S
H454 C450 0.930 . S
H455 C452 0.929 . S
S456 N457 1.613 . S
S456 N458 1.610 . S
N457 S456 1.613 . S
N457 C460 1.350 . S
N458 S456 1.610 . S
N458 C459 1.351 . S
C459 C453 1.428 . S
C459 N458 1.351 . S
C459 C460 1.434 . S
C460 C451 1.429 . S
C460 N457 1.350 . S
C460 C459 1.434 . S
C461 C462 1.369 . S
C461 C463 1.419 . S
C461 H465 0.930 . S
C462 C461 1.369 . S
C462 C471 1.429 . S
C463 C461 1.419 . S
C463 C464 1.363 . S
C463 H466 0.929 . S
C464 C463 1.363 . S
C464 C470 1.428 . S
H465 C461 0.930 . S
H466 C463 0.929 . S
S467 N468 1.613 . S
S467 N469 1.610 . S
N468 S467 1.613 . S
N468 C471 1.350 . S
N469 S467 1.610 . S
N469 C470 1.351 . S
C470 C464 1.428 . S
C470 N469 1.351 . S
C470 C471 1.434 . S
C471 C462 1.429 . S
C471 N468 1.350 . S
C471 C470 1.434 . S
C472 C473 1.369 . S
C472 C474 1.419 . S
C472 H476 0.930 . S
C473 C472 1.369 . S
C473 C482 1.429 . S
C474 C472 1.419 . S
C474 C475 1.363 . S
C474 H477 0.929 . S
C475 C474 1.363 . S
C475 C481 1.428 . S
H476 C472 0.930 . S
H477 C474 0.929 . S
S478 N479 1.613 . S
S478 N480 1.610 . S
N479 S478 1.613 . S
N479 C482 1.350 . S
N480 S478 1.610 . S
N480 C481 1.351 . S
C481 C475 1.428 . S
C481 N480 1.351 . S
C481 C482 1.434 . S
C482 C473 1.429 . S
C482 N479 1.350 . S
C482 C481 1.434 . S
C220 C12 1.646 . S
C222 C126 1.775 . S
C231 C40 1.466 . S
C233 C158 1.499 . S
C244 C217 1.791 . S
C242 C61 1.824 . S
C255 C146 1.387 . S
C253 C82 1.406 . S
C264 C96 1.594 . S
C266 C176 1.654 . S
C277 C198 1.386 . S
C275 C117 1.223 . S
C288 C167 1.783 . S
C286 C51 1.748 . S
C297 C72 1.415 . S
C299 C207 1.391 . S
C310 C156 1.682 . S
C308 C101 1.573 1_556 S
C319 C122 1.404 . S
C321 C186 1.472 . S
C330 C17 1.672 . S
C332 C189 1.737 . S
C343 C128 1.576 . S
C341 C30 1.549 1_556 S
C354 C136 1.723 . S
C352 C80 1.699 . S
C365 C177 1.464 . S
C363 C93 1.401 1_556 S
C376 C190 1.796 . S
C374 C114 1.772 . S
C387 C127 1.389 . S
C385 C9 1.368 . S
C398 C187 1.614 . S
C396 C38 1.637 1_556 S
C407 C59 1.324 . S
C409 C188 1.354 . S
C420 C157 1.692 . S
C418 C124 1.632 . S
C431 C218 1.342 . S
C429 C19 1.267 . S
C442 C145 1.608 . S
C440 C33 1.665 . S
C453 C159 1.474 . S
C451 C54 1.473 . S
C462 C75 1.724 . S
C464 C208 1.713 . S
C473 C103 1.482 . S
C475 C155 1.545 . S
