# Generated by pormake.
# Topology anh, (6,3)-cn, num edge types: 1
# Building blocks:
#     Node 0, Type 0, BuildingBlock: NUHQIS_clean_sbu_0, # of connection points: 6
#     Node 1, Type 0, BuildingBlock: NUHQIS_clean_sbu_0, # of connection points: 6
#     Node 2, Type 0, BuildingBlock: NUHQIS_clean_sbu_0, # of connection points: 6
#     Node 3, Type 1, BuildingBlock: CUQRIR_clean_linker_1, # of connection points: 3
#     Node 4, Type 1, BuildingBlock: CUQRIR_clean_linker_1, # of connection points: 3
#     Node 5, Type 1, BuildingBlock: CUQRIR_clean_linker_1, # of connection points: 3
#     Node 6, Type 1, BuildingBlock: CUQRIR_clean_linker_1, # of connection points: 3
#     Node 7, Type 1, BuildingBlock: CUQRIR_clean_linker_1, # of connection points: 3
#     Node 8, Type 1, BuildingBlock: CUQRIR_clean_linker_1, # of connection points: 3
#     Edge 9, Type (0, 1), BuildingBlock: CIFDUS_clean_linker_0, # of connection points: 2
#     Edge 10, Type (0, 1), BuildingBlock: CIFDUS_clean_linker_0, # of connection points: 2
#     Edge 11, Type (0, 1), BuildingBlock: CIFDUS_clean_linker_0, # of connection points: 2
#     Edge 12, Type (0, 1), BuildingBlock: CIFDUS_clean_linker_0, # of connection points: 2
#     Edge 13, Type (0, 1), BuildingBlock: CIFDUS_clean_linker_0, # of connection points: 2
#     Edge 14, Type (0, 1), BuildingBlock: CIFDUS_clean_linker_0, # of connection points: 2
#     Edge 15, Type (0, 1), BuildingBlock: CIFDUS_clean_linker_0, # of connection points: 2
#     Edge 16, Type (0, 1), BuildingBlock: CIFDUS_clean_linker_0, # of connection points: 2
#     Edge 17, Type (0, 1), BuildingBlock: CIFDUS_clean_linker_0, # of connection points: 2
#     Edge 18, Type (0, 1), BuildingBlock: CIFDUS_clean_linker_0, # of connection points: 2
#     Edge 19, Type (0, 1), BuildingBlock: CIFDUS_clean_linker_0, # of connection points: 2
#     Edge 20, Type (0, 1), BuildingBlock: CIFDUS_clean_linker_0, # of connection points: 2
#     Edge 21, Type (0, 1), BuildingBlock: CIFDUS_clean_linker_0, # of connection points: 2
#     Edge 22, Type (0, 1), BuildingBlock: CIFDUS_clean_linker_0, # of connection points: 2
#     Edge 23, Type (0, 1), BuildingBlock: CIFDUS_clean_linker_0, # of connection points: 2
#     Edge 24, Type (0, 1), BuildingBlock: CIFDUS_clean_linker_0, # of connection points: 2
#     Edge 25, Type (0, 1), BuildingBlock: CIFDUS_clean_linker_0, # of connection points: 2
#     Edge 26, Type (0, 1), BuildingBlock: CIFDUS_clean_linker_0, # of connection points: 2
# Relax obj value: 0.355
# Max RMSD: 0.228
# Mean RMSD: 0.163
data_MOF--net-anh--node1-NUHQIS_clean_sbu_0--node2-CUQRIR_clean_linker_1--edge1-CIFDUS_clean_linker_0
_symmetry_space_group_name_H-M    P1
_symmetry_Int_Tables_number       1
_symmetry_cell_setting            triclinic
loop_
_symmetry_equiv_pos_as_xyz
'x, y, z'
_cell_length_a     24.246656
_cell_length_b     24.219676
_cell_length_c     40.914934
_cell_angle_alpha  86.317531
_cell_angle_beta   91.455267
_cell_angle_gamma 119.94952
loop_
_atom_site_label
_atom_site_type_symbol
_atom_site_fract_x
_atom_site_fract_y
_atom_site_fract_z
_atom_type_partial_charge
Tb0 Tb 0.31907 0.67638 0.19385 0.0
Eu1 Eu 0.24408 0.74017 0.16152 0.0
C2 C 0.25828 0.7342 0.23919 0.0
C3 C 0.16693 0.58687 0.18787 0.0
C4 C 0.37472 0.55991 0.20656 0.0
C5 C 0.31519 0.4528 0.18699 0.0
C6 C 0.31687 0.50776 0.19718 0.0
C7 C 0.43013 0.55584 0.20667 0.0
C8 C 0.42872 0.5016 0.1962 0.0
C9 C 0.37147 0.44958 0.18567 0.0
C10 C 0.37973 0.62108 0.21312 0.0
O11 O 0.29245 0.64505 0.14322 0.0
O12 O 0.3106 0.7408 0.12434 0.0
O13 O 0.3345 0.82657 0.18061 0.0
O14 O 0.39564 0.77889 0.18637 0.0
C15 C 0.30612 0.68688 0.11833 0.0
O16 O 0.23346 0.78871 0.1171 0.0
O17 O 0.16945 0.76578 0.15788 0.0
O18 O 0.226 0.7393 0.21428 0.0
O19 O 0.30311 0.71922 0.23582 0.0
O20 O 0.21991 0.59939 0.20353 0.0
O21 O 0.16802 0.63087 0.1662 0.0
C22 C 0.39102 0.83132 0.18544 0.0
O23 O 0.39684 0.66236 0.18807 0.0
O24 O 0.33308 0.61842 0.22956 0.0
C25 C 1.12501 0.74498 0.1058 0.0
C26 C 1.00938 0.65747 0.07792 0.0
C27 C 1.01732 0.7144 0.08963 0.0
C28 C 1.07481 0.75783 0.1036 0.0
C29 C 1.11865 0.69039 0.09202 0.0
C30 C 1.06134 0.6471 0.07803 0.0
C31 C 0.17959 0.78197 0.12672 0.0
H32 H 0.27029 0.4138 0.17924 0.0
H33 H 0.2735 0.51032 0.1967 0.0
H34 H 0.47525 0.59593 0.21346 0.0
H35 H 0.47361 0.50239 0.19468 0.0
H36 H 0.97801 0.72373 0.08945 0.0
H37 H 1.07886 0.7995 0.11428 0.0
H38 H 1.15669 0.67915 0.09383 0.0
H39 H 1.05637 0.60344 0.06947 0.0
Tb40 Tb 0.84556 0.19996 0.51772 0.0
Eu41 Eu 0.69677 0.12708 0.50627 0.0
C42 C 0.74734 0.14057 0.57449 0.0
C43 C 0.76957 1.04242 0.51794 0.0
C44 C 1.01188 0.29709 0.49935 0.0
C45 C 1.09028 0.40713 0.48531 0.0
C46 C 1.05974 0.35671 0.50882 0.0
C47 C 1.00078 0.28638 0.46576 0.0
C48 C 1.03078 0.33683 0.44234 0.0
C49 C 1.0726 0.39838 0.4522 0.0
C50 C 0.96442 0.2523 0.5236 0.0
O51 O 0.83933 0.20746 0.46341 0.0
O52 O 0.73234 0.16933 0.45578 0.0
O53 O 0.72466 0.23077 0.51905 0.0
O54 O 0.83142 0.2832 0.50874 0.0
C55 C 0.79072 0.19731 0.44431 0.0
O56 O 0.60198 1.06122 0.48781 0.0
O57 O 0.61411 0.12468 0.52629 0.0
O58 O 0.72235 1.09744 0.55352 0.0
O59 O 0.79726 0.19436 0.56432 0.0
O60 O 0.81904 1.09741 0.52616 0.0
O61 O 0.7175 1.04221 0.5064 0.0
C62 C 0.77933 0.2853 0.51526 0.0
O63 O 0.93044 0.27319 0.53675 0.0
O64 O 0.9289 0.19442 0.51453 0.0
C65 C 0.51426 1.03055 0.52493 0.0
C66 C 0.38634 0.95169 0.54432 0.0
C67 C 0.41544 0.93025 0.52293 0.0
C68 C 0.47873 0.96944 0.51322 0.0
C69 C 0.48727 1.04937 0.54887 0.0
C70 C 0.42387 1.01017 0.55857 0.0
C71 C 0.57402 1.07867 0.50856 0.0
H72 H 1.12218 0.45438 0.49356 0.0
H73 H 1.06895 0.36593 0.53453 0.0
H74 H 0.96447 0.24061 0.45763 0.0
H75 H 1.01668 0.32902 0.41695 0.0
H76 H 0.38788 0.88578 0.5111 0.0
H77 H 0.49814 0.95366 0.49475 0.0
H78 H 0.51371 1.0963 0.55846 0.0
H79 H 0.40303 1.02762 0.57535 0.0
Tb80 Tb 0.78098 0.77268 0.84467 0.0
Eu81 Eu 0.69663 0.6219 0.85737 0.0
C82 C 0.75219 0.70982 0.91372 0.0
C83 C 0.85697 0.6941 0.85556 0.0
C84 C 0.80764 0.91985 0.80956 0.0
C85 C 0.73733 0.96406 0.80454 0.0
C86 C 0.7835 0.95629 0.82193 0.0
C87 C 0.78978 0.89715 0.77794 0.0
C88 C 0.74328 0.90437 0.76077 0.0
C89 C 0.71479 0.93542 0.77459 0.0
C90 C 0.83479 0.89033 0.83237 0.0
O91 O 0.75549 0.74002 0.79451 0.0
O92 O 0.70592 0.63062 0.80225 0.0
O93 O 0.61883 0.64944 0.85484 0.0
O94 O 0.68236 0.75811 0.85236 0.0
C95 C 0.72889 0.68287 0.78278 0.0
O96 O 0.60936 0.53186 0.85463 0.0
O97 O 0.68223 0.53928 0.88909 0.0
O98 O 0.69813 0.67683 0.89956 0.0
O99 O 0.80013 0.74716 0.89443 0.0
O100 O 0.858 0.74899 0.84934 0.0
O101 O 0.80136 0.6399 0.85907 0.0
C102 C 0.62463 0.70648 0.85498 0.0
O103 O 0.80092 0.86261 0.85896 0.0
O104 O 0.85278 0.85412 0.81922 0.0
C105 C 0.60611 0.43709 0.87147 0.0
C106 C 0.55263 0.31507 0.84828 0.0
C107 C 0.61562 0.36146 0.83983 0.0
C108 C 0.64216 0.4226 0.85118 0.0
C109 C 0.54492 0.38968 0.88165 0.0
C110 C 0.51806 0.32895 0.86995 0.0
C111 C 0.62545 0.50273 0.8775 0.0
H112 H 0.7161 0.98859 0.81558 0.0
H113 H 0.79603 0.9738 0.84627 0.0
H114 H 0.80757 0.86905 0.76746 0.0
H115 H 0.72757 0.88321 0.73736 0.0
H116 H 0.64279 0.35158 0.82288 0.0
H117 H 0.6891 0.45925 0.84275 0.0
H118 H 0.51645 0.40075 0.89707 0.0
H119 H 0.46957 0.29362 0.87679 0.0
C120 C 0.78032 0.2093 0.20132 0.0
N121 N 0.82538 0.2503 0.22265 0.0
N122 N 0.73172 0.15568 0.21725 0.0
C123 C 0.78382 0.22099 0.1648 0.0
C124 C 0.74966 0.16509 0.24897 0.0
N125 N 0.80508 0.22126 0.25248 0.0
C126 C 0.71294 0.11805 0.27696 0.0
H127 H 0.75949 0.24836 0.15763 0.0
H128 H 0.75934 0.17523 0.15257 0.0
H129 H 0.83408 0.24908 0.15632 0.0
H130 H 0.74534 0.11837 0.29668 0.0
H131 H 0.68443 1.06885 0.26868 0.0
H132 H 0.67993 0.13173 0.28736 0.0
C133 C 0.75201 0.6531 0.53849 0.0
N134 N 0.75441 0.69609 0.55992 0.0
N135 N 0.76156 0.60618 0.55379 0.0
C136 C 0.73906 0.65616 0.50263 0.0
C137 C 0.76846 0.62186 0.58551 0.0
N138 N 0.76314 0.67473 0.58956 0.0
C139 C 0.77858 0.58353 0.61303 0.0
H140 H 0.68708 0.63569 0.49911 0.0
H141 H 0.75509 0.62839 0.48906 0.0
H142 H 0.76319 0.70654 0.49269 0.0
H143 H 0.80272 0.61318 0.63404 0.0
H144 H 0.80757 0.56332 0.60464 0.0
H145 H 0.73171 0.54315 0.62136 0.0
C146 C 0.23798 0.68322 0.87558 0.0
N147 N 0.28319 0.68497 0.89739 0.0
N148 N 0.18728 0.682 0.89102 0.0
C149 C 0.24284 0.68128 0.83931 0.0
C150 C 0.2033 0.68173 0.92307 0.0
N151 N 0.25978 0.68253 0.92704 0.0
C152 C 1.16355 0.68203 0.95075 0.0
H153 H 0.29011 0.72006 0.83041 0.0
H154 H 0.20478 0.68629 0.82624 0.0
H155 H 0.23908 0.63524 0.83383 0.0
H156 H 0.17258 0.66285 0.97429 0.0
H157 H 1.11211 0.65365 0.94512 0.0
H158 H 0.17528 0.73192 0.95378 0.0
C159 C 1.04364 0.70701 0.44451 0.0
N160 N 1.04989 0.69665 0.41305 0.0
N161 N 1.08751 0.76704 0.45213 0.0
C162 C 1.00163 0.6549 0.46943 0.0
C163 C 1.1168 0.79476 0.42292 0.0
N164 N 1.09391 0.75223 0.39942 0.0
C165 C 0.17471 0.86015 0.41865 0.0
H166 H 0.99961 0.67494 0.49273 0.0
H167 H 1.0197 0.62115 0.47429 0.0
H168 H 0.95284 0.62736 0.45951 0.0
H169 H 0.21611 0.85942 0.43042 0.0
H170 H 0.16684 0.89535 0.43072 0.0
H171 H 0.18589 0.87584 0.39241 0.0
C172 C 0.39879 0.9945 0.72981 0.0
N173 N 0.43826 0.99369 0.70746 0.0
N174 N 0.39069 1.0459 0.72423 0.0
C175 C 0.37957 0.95305 0.76121 0.0
C176 C 0.41739 1.06913 0.69407 0.0
N177 N 0.44547 1.03707 0.68387 0.0
C178 C 0.42527 0.12974 0.67735 0.0
H179 H 0.34369 0.95837 0.77488 0.0
H180 H 0.42173 0.96563 0.7769 0.0
H181 H 0.35964 0.90245 0.75541 0.0
H182 H 0.38125 0.13227 0.68029 0.0
H183 H 0.43603 0.13262 0.65089 0.0
H184 H 0.46488 0.17124 0.68895 0.0
C185 C 0.60234 0.35413 0.07821 0.0
N186 N 0.6461 0.40553 0.06012 0.0
N187 N 0.54401 0.34948 0.07697 0.0
C188 C 0.61794 0.30948 0.09829 0.0
C189 C 0.55346 0.39697 0.05412 0.0
N190 N 0.61536 0.43202 0.04483 0.0
C191 C 0.50198 0.40958 0.04076 0.0
H192 H 0.57427 0.26751 0.10881 0.0
H193 H 0.6513 0.33508 0.11818 0.0
H194 H 0.64283 0.29308 0.0825 0.0
H195 H 0.48642 0.42962 0.0598 0.0
H196 H 0.46061 0.36446 0.03329 0.0
H197 H 0.51819 0.44299 0.01873 0.0
H198 H 0.44528 0.39678 0.20186 0.0
H199 H 0.30227 0.38355 0.1328 0.0
H200 H 0.33168 0.32599 0.09674 0.0
H201 H 0.41587 0.30564 0.07867 0.0
H202 H 0.57883 0.3585 0.14128 0.0
H203 H 0.52299 0.36864 0.18583 0.0
C204 C 0.42008 0.38094 0.17902 0.0
C205 C 0.37361 0.39715 0.16956 0.0
C206 C 0.44161 0.35417 0.15681 0.0
C207 C 0.339 0.37284 0.14074 0.0
C208 C 0.35638 0.34046 0.11979 0.0
C209 C 0.43951 0.31992 0.10188 0.0
C210 C 0.50295 0.33341 0.10546 0.0
C211 C 0.41077 0.33533 0.12647 0.0
C212 C 0.53028 0.34691 0.13692 0.0
C213 C 0.4987 0.35443 0.16265 0.0
H214 H 0.98395 0.41575 0.41996 0.0
H215 H 0.18563 0.50714 0.43861 0.0
H216 H 0.19735 0.61063 0.42045 0.0
H217 H 1.14579 0.67465 0.41364 0.0
H218 H 0.94393 0.58629 0.39881 0.0
H219 H 0.93559 0.48056 0.40166 0.0
C220 C 1.03089 0.45796 0.41862 0.0
C221 C 1.08396 0.4544 0.4308 0.0
C222 C 1.0365 0.51738 0.40979 0.0
C223 C 1.14435 0.50924 0.42945 0.0
C224 C 1.15083 0.56824 0.41938 0.0
C225 C 1.10074 0.63256 0.40892 0.0
C226 C 1.04572 0.63767 0.40532 0.0
C227 C 1.09667 0.57301 0.41148 0.0
C228 C 0.98669 0.58284 0.40121 0.0
C229 C 0.98213 0.52279 0.40306 0.0
H230 H 0.6978 1.03588 0.76208 0.0
H231 H 0.60737 0.833 0.75257 0.0
H232 H 0.51203 0.83168 0.72999 0.0
H233 H 0.45289 0.88942 0.71471 0.0
H234 H 0.54687 1.0921 0.72555 0.0
H235 H 0.64191 1.09262 0.74593 0.0
C236 C 0.65719 0.99148 0.75499 0.0
C237 C 0.65919 0.93485 0.7589 0.0
C238 C 0.60301 0.99108 0.74238 0.0
C239 C 0.60677 0.87744 0.74938 0.0
C240 C 0.55221 0.87658 0.73671 0.0
C241 C 0.49445 0.9332 0.72153 0.0
C242 C 0.49338 0.99057 0.71877 0.0
C243 C 0.5495 0.93316 0.73335 0.0
C244 C 0.54718 1.04748 0.72759 0.0
C245 C 0.60144 1.04789 0.73919 0.0
H246 H 0.90253 0.61544 0.11318 0.0
H247 H 0.97368 0.58113 0.02574 0.0
H248 H 0.86733 0.49198 0.01475 0.0
H249 H 0.75253 0.42694 0.02922 0.0
H250 H 0.68257 0.46929 0.11415 0.0
H251 H 0.79057 0.55067 0.12794 0.0
C252 C 0.89461 0.58903 0.09146 0.0
C253 C 0.9453 0.60541 0.06995 0.0
C254 C 0.83392 0.53849 0.08537 0.0
C255 C 0.93499 0.56948 0.04249 0.0
C256 C 0.8744 0.51852 0.03629 0.0
C257 C 0.76163 0.45392 0.05078 0.0
C258 C 0.7106 0.44317 0.07066 0.0
C259 C 0.82339 0.50284 0.05749 0.0
C260 C 0.72197 0.47719 0.09885 0.0
C261 C 0.78326 0.52401 0.10642 0.0
H262 H 0.30165 0.82467 0.54963 0.0
H263 H 0.31284 1.00829 0.53984 0.0
H264 H 0.20602 0.95979 0.51729 0.0
H265 H 1.12525 0.87221 0.48552 0.0
H266 H 1.12851 0.6959 0.48624 0.0
H267 H 0.211 0.73276 0.52726 0.0
C268 C 0.27975 0.8536 0.54351 0.0
C269 C 0.31591 0.92004 0.54523 0.0
C270 C 0.22053 0.82637 0.52809 0.0
C271 C 0.28644 0.95694 0.53837 0.0
C272 C 0.22552 0.92937 0.52492 0.0
C273 C 1.14299 0.84155 0.49552 0.0
C274 C 1.12097 0.78174 0.48278 0.0
C275 C 0.1945 0.8652 0.51725 0.0
C276 C 1.14363 0.74173 0.49602 0.0
C277 C 0.19177 0.76323 0.51917 0.0
H278 H 0.44276 0.26628 0.81415 0.0
H279 H 0.59425 0.23078 0.8453 0.0
H280 H 0.5514 0.13853 0.81176 0.0
H281 H 0.4799 1.07775 0.76989 0.0
H282 H 0.32958 0.11172 0.73539 0.0
H283 H 0.36305 0.19628 0.77433 0.0
C284 C 0.46529 0.23725 0.81404 0.0
C285 C 0.52147 0.25472 0.83194 0.0
C286 C 0.4412 0.18529 0.79408 0.0
C287 C 0.55117 0.21791 0.83149 0.0
C288 C 0.52678 0.16549 0.81238 0.0
C289 C 0.45303 1.10208 0.77134 0.0
C290 C 0.40196 1.08816 0.74998 0.0
C291 C 0.47303 0.15008 0.79304 0.0
C292 C 0.36885 0.12159 0.75173 0.0
C293 C 0.38813 0.16977 0.77386 0.0
H294 H 0.67537 0.90872 0.51669 0.0
H295 H 0.87382 1.03367 0.53762 0.0
H296 H 0.88643 0.94205 0.55284 0.0
H297 H 0.84351 0.82436 0.56058 0.0
H298 H 0.64663 0.69703 0.53967 0.0
H299 H 0.63201 0.78893 0.52438 0.0
C300 C 0.7216 0.91632 0.52439 0.0
C301 C 0.77348 0.98058 0.52561 0.0
C302 C 0.72921 0.86161 0.53353 0.0
C303 C 0.83236 0.98671 0.53608 0.0
C304 C 0.83993 0.9335 0.545 0.0
C305 C 0.797 0.81643 0.55325 0.0
C306 C 0.74589 0.75234 0.55221 0.0
C307 C 0.78896 0.87045 0.54405 0.0
C308 C 0.68685 0.74473 0.54132 0.0
C309 C 0.67854 0.79791 0.5324 0.0
H310 H 0.9028 0.6071 0.84513 0.0
H311 H 0.96113 0.79066 0.88267 0.0
H312 H 1.0657 0.8046 0.89531 0.0
H313 H 1.14356 0.76588 0.8973 0.0
H314 H 1.09117 0.586 0.85789 0.0
H315 H 0.9849 0.57057 0.84435 0.0
C316 C 0.93818 0.65021 0.85608 0.0
C317 C 0.92179 0.69767 0.86279 0.0
C318 C 1.00107 0.65925 0.86288 0.0
C319 C 0.97037 0.75303 0.8768 0.0
C320 C 1.03113 0.76126 0.8842 0.0
C321 C 1.10938 0.72361 0.88527 0.0
C322 C 1.12719 0.67764 0.87838 0.0
C323 C 1.04756 0.71505 0.87741 0.0
C324 C 1.08062 0.62305 0.86307 0.0
C325 C 1.01899 0.61392 0.85558 0.0
H326 H 0.52225 0.87722 0.17425 0.0
H327 H 0.39533 0.93647 0.20998 0.0
H328 H 0.48633 1.0403 0.22169 0.0
H329 H 0.60427 0.11591 0.22395 0.0
H330 H 0.73143 1.06065 0.18502 0.0
H331 H 0.64022 0.95653 0.17243 0.0
C332 C 0.51415 0.91273 0.1845 0.0
C333 C 0.45012 0.89699 0.19123 0.0
C334 C 0.56786 0.97456 0.19055 0.0
C335 C 0.44259 0.94548 0.20428 0.0
C336 C 0.49528 1.00561 0.21111 0.0
C337 C 0.61208 1.08172 0.21201 0.0
C338 C 0.67595 1.09797 0.2049 0.0
C339 C 0.55842 1.02111 0.20451 0.0
C340 C 0.68382 1.05127 0.19014 0.0
C341 C 0.63114 0.99094 0.18321 0.0
H342 H 0.68344 0.31978 0.52124 0.0
H343 H 0.88748 0.4021 0.52088 0.0
H344 H 0.90058 0.5062 0.53086 0.0
H345 H 0.85537 0.57657 0.54222 0.0
H346 H 0.6524 0.49722 0.54052 0.0
H347 H 0.63831 0.39247 0.52891 0.0
C348 C 0.73096 0.36032 0.52317 0.0
C349 C 0.78434 0.35075 0.52022 0.0
C350 C 0.73868 0.42223 0.52862 0.0
C351 C 0.84499 0.40578 0.52284 0.0
C352 C 0.85273 0.46629 0.52868 0.0
C353 C 0.80801 0.53675 0.53867 0.0
C354 C 0.75497 0.54643 0.54185 0.0
C355 C 0.80017 0.47557 0.53185 0.0
C356 C 0.69425 0.49274 0.5377 0.0
C357 C 0.68621 0.43213 0.5313 0.0
H358 H 0.50658 0.61814 0.88378 0.0
H359 H 0.6047 0.80825 0.83792 0.0
H360 H 0.50998 0.8183 0.84541 0.0
H361 H 0.39668 0.77357 0.86577 0.0
H362 H 0.30277 0.58665 0.91504 0.0
H363 H 0.39624 0.57546 0.90572 0.0
C364 C 0.50763 0.66194 0.87524 0.0
C365 C 0.56449 0.71219 0.85988 0.0
C366 C 0.45246 0.66816 0.88043 0.0
C367 C 0.56314 0.76842 0.84972 0.0
C368 C 0.50824 0.77422 0.85404 0.0
C369 C 0.39642 0.73019 0.87434 0.0
C370 C 0.34088 0.68043 0.89094 0.0
C371 C 0.4522 0.72454 0.86943 0.0
C372 C 0.34345 0.6255 0.90215 0.0
C373 C 0.39747 0.61914 0.89676 0.0
H374 H 1.03535 0.53575 0.16982 0.0
H375 H 1.15908 0.48507 0.22523 0.0
H376 H 1.06875 0.38139 0.24126 0.0
H377 H 0.95265 0.30069 0.24013 0.0
H378 H 0.82697 0.3494 0.18592 0.0
H379 H 0.91742 0.45432 0.16936 0.0
C380 C 1.04302 0.50225 0.18531 0.0
C381 C 1.10645 0.52085 0.19591 0.0
C382 C 0.98911 0.44042 0.19504 0.0
C383 C 1.11267 0.47463 0.21625 0.0
C384 C 1.06019 0.41418 0.22567 0.0
C385 C 0.9444 0.33423 0.22512 0.0
C386 C 0.88107 0.3151 0.21461 0.0
C387 C 0.9978 0.39599 0.21545 0.0
C388 C 0.8739 0.36079 0.19443 0.0
C389 C 0.92631 0.4217 0.18491 0.0
H390 H 0.36465 0.77 0.06597 0.0
H391 H 0.24202 0.56967 0.09146 0.0
H392 H 0.22397 0.54852 0.03313 0.0
H393 H 0.23205 0.58985 0.97486 0.0
H394 H 0.35427 0.78994 0.9502 0.0
H395 H 0.38488 0.80839 0.0078 0.0
C396 C 0.33492 0.72144 0.0588 0.0
C397 C 0.30441 0.67154 0.08327 0.0
C398 C 0.32478 0.70973 0.02516 0.0
C399 C 0.26635 0.60896 0.07335 0.0
C400 C 0.25572 0.59694 0.0399 0.0
C401 C 0.26727 0.63692 0.98208 0.0
C402 C 0.29149 0.68856 0.95825 0.0
C403 C 0.28331 0.6472 0.01556 0.0
C404 C 0.33596 0.74956 0.96795 0.0
C405 C 0.35264 0.76011 0.00098 0.0
H406 H 0.87696 0.20278 0.3983 0.0
H407 H 0.72482 0.24368 0.40993 0.0
H408 H 0.72695 0.27021 0.35147 0.0
H409 H 0.7603 0.26696 0.29585 0.0
H410 H 0.90276 0.2147 0.28212 0.0
H411 H 0.91806 0.20997 0.34157 0.0
C412 C 0.84509 0.21851 0.38807 0.0
C413 C 0.80015 0.22027 0.40878 0.0
C414 C 0.84524 0.23234 0.35367 0.0
C415 C 0.75919 0.24072 0.3948 0.0
C416 C 0.76049 0.25626 0.36121 0.0
C417 C 0.79697 0.25778 0.3059 0.0
C418 C 0.832 0.24365 0.28431 0.0
C419 C 0.80193 0.25056 0.34023 0.0
C420 C 0.8772 0.22866 0.29788 0.0
C421 C 0.88465 0.22426 0.33207 0.0
H422 H 0.80148 0.77106 0.73265 0.0
H423 H 0.64299 0.58017 0.75009 0.0
H424 H 0.63335 0.56571 0.69139 0.0
H425 H 0.67388 0.60333 0.63509 0.0
H426 H 0.83978 0.78783 0.61714 0.0
H427 H 0.84118 0.8098 0.67509 0.0
C428 C 0.76452 0.72646 0.7236 0.0
C429 C 0.72314 0.67665 0.74624 0.0
C430 C 0.76011 0.71762 0.68936 0.0
C431 C 0.67593 0.61919 0.73369 0.0
C432 C 0.67014 0.61091 0.69993 0.0
C433 C 0.70956 0.64893 0.64378 0.0
C434 C 0.75594 0.69433 0.62143 0.0
C435 C 0.71239 0.6593 0.67755 0.0
C436 C 0.80239 0.75279 0.63329 0.0
C437 C 0.80383 0.76475 0.66671 0.0
H438 H 0.64133 1.03402 0.59334 0.0
H439 H 0.75089 0.23366 0.61283 0.0
H440 H 0.66233 0.22157 0.64675 0.0
H441 H 0.55207 0.15216 0.66983 0.0
H442 H 0.44224 0.9582 0.64145 0.0
H443 H 0.53189 0.97147 0.60948 0.0
C444 C 0.64649 1.07552 0.60482 0.0
C445 C 0.70299 0.13477 0.60053 0.0
C446 C 0.59429 1.0696 0.62141 0.0
C447 C 0.70842 0.18729 0.61609 0.0
C448 C 0.6573 0.18058 0.63489 0.0
C449 C 0.54705 0.114 0.65539 0.0
C450 C 0.4903 1.05423 0.65746 0.0
C451 C 0.59941 0.12208 0.63715 0.0
C452 C 0.48513 1.0045 0.63961 0.0
C453 C 0.53669 1.01174 0.62202 0.0
H454 H 0.69684 0.69684 0.97219 0.0
H455 H 0.82095 0.64978 0.92241 0.0
H456 H 0.78705 0.55497 0.9592 0.0
H457 H 0.70444 0.47489 -0.00259 0.0
H458 H 0.59704 0.5314 0.05522 0.0
H459 H 0.63978 0.63251 0.02241 0.0
C460 C 0.71906 0.66775 0.9706 0.0
C461 C 0.76027 0.6794 0.94427 0.0
C462 C 0.69978 0.61361 0.99212 0.0
C463 C 0.78874 0.64148 0.94232 0.0
C464 C 0.76853 0.58659 0.96304 0.0
C465 C 0.69257 0.51036 0.00383 0.0
C466 C 0.64599 0.49467 0.02793 0.0
C467 C 0.72127 0.57037 0.98674 0.0
C468 C 0.63038 0.54104 0.03563 0.0
C469 C 0.65564 0.59927 0.01729 0.0
H470 H 1.14957 0.73059 0.25495 0.0
H471 H 0.327 0.76018 0.29662 0.0
H472 H 0.29449 0.77647 0.34993 0.0
H473 H 0.21265 0.77753 0.38492 0.0
H474 H 1.03288 0.73778 0.343 0.0
H475 H 1.06995 0.73207 0.28885 0.0
C476 C 0.18173 0.74121 0.27552 0.0
C477 C 0.24088 0.74452 0.27176 0.0
C478 C 1.16238 0.74937 0.30584 0.0
C479 C 0.28119 0.75724 0.2989 0.0
C480 C 0.2627 0.76679 0.3293 0.0
C481 C 0.18245 0.7689 0.36367 0.0
C482 C 1.12055 0.75908 0.36741 0.0
C483 C 0.20317 0.76261 0.33305 0.0
C484 C 1.08088 0.74635 0.34018 0.0
C485 C 1.10189 0.74256 0.30949 0.0
loop_
_geom_bond_atom_site_label_1
_geom_bond_atom_site_label_2
_geom_bond_distance
_geom_bond_site_symmetry_2
_ccdc_geom_bond_type
Tb0 C10 2.825 . S
Tb0 O11 2.347 . S
Tb0 O14 2.366 . S
Tb0 O19 2.418 . S
Tb0 O20 2.384 1_455 S
Tb0 O23 2.479 . S
Tb0 O24 2.471 . S
Eu1 O12 2.418 . S
Eu1 O13 2.384 1_655 S
Eu1 O16 2.479 . S
Eu1 O17 2.471 . S
Eu1 O18 2.347 . S
Eu1 O21 2.366 . S
Eu1 C31 2.825 . S
C2 O18 1.259 1_455 S
C2 O19 1.265 . S
C3 O20 1.255 . S
C3 O21 1.265 . S
C4 C6 1.380 . S
C4 C7 1.374 . S
C4 C10 1.507 . S
C5 C6 1.384 . S
C5 C9 1.387 . S
C5 H32 0.930 . S
C6 C4 1.380 . S
C6 C5 1.384 . S
C6 H33 0.931 . S
C7 C4 1.374 . S
C7 C8 1.390 . S
C7 H34 0.930 . S
C8 C7 1.390 . S
C8 C9 1.391 . S
C8 H35 0.930 . S
C9 C5 1.387 . S
C9 C8 1.391 . S
C10 Tb0 2.825 . S
C10 C4 1.507 . S
C10 O23 1.238 . S
C10 O24 1.247 . S
O11 Tb0 2.347 . S
O11 C15 1.259 . S
O12 Eu1 2.418 . S
O12 C15 1.265 1_655 S
O13 Eu1 2.384 1_455 S
O13 C22 1.255 . S
O14 Tb0 2.366 . S
O14 C22 1.265 . S
C15 O11 1.259 . S
C15 O12 1.265 1_455 S
O16 Eu1 2.479 . S
O16 C31 1.238 . S
O17 Eu1 2.471 . S
O17 C31 1.247 . S
O18 Eu1 2.347 . S
O18 C2 1.259 1_655 S
O19 Tb0 2.418 . S
O19 C2 1.265 . S
O20 Tb0 2.384 1_655 S
O20 C3 1.255 . S
O21 Eu1 2.366 . S
O21 C3 1.265 . S
C22 O13 1.255 . S
C22 O14 1.265 . S
O23 Tb0 2.479 . S
O23 C10 1.238 . S
O24 Tb0 2.471 . S
O24 C10 1.247 . S
C25 C28 1.380 . S
C25 C29 1.374 . S
C25 C31 1.507 . S
C26 C27 1.387 . S
C26 C30 1.391 . S
C27 C26 1.387 . S
C27 C28 1.384 . S
C27 H36 0.930 . S
C28 C25 1.380 . S
C28 C27 1.384 . S
C28 H37 0.931 . S
C29 C25 1.374 . S
C29 C30 1.390 . S
C29 H38 0.930 . S
C30 C26 1.391 . S
C30 C29 1.390 . S
C30 H39 0.930 . S
C31 Eu1 2.825 . S
C31 O16 1.238 . S
C31 O17 1.247 . S
C31 C25 1.507 . S
H32 C5 0.930 . S
H33 C6 0.931 . S
H34 C7 0.930 . S
H35 C8 0.930 . S
H36 C27 0.930 . S
H37 C28 0.931 . S
H38 C29 0.930 . S
H39 C30 0.930 . S
Tb40 C50 2.825 . S
Tb40 O51 2.347 . S
Tb40 O54 2.366 . S
Tb40 O59 2.418 . S
Tb40 O60 2.384 1_545 S
Tb40 O63 2.479 . S
Tb40 O64 2.471 . S
Eu41 O52 2.418 . S
Eu41 O53 2.384 . S
Eu41 O56 2.479 1_545 S
Eu41 O57 2.471 1_545 S
Eu41 O58 2.347 . S
Eu41 O61 2.366 1_545 S
Eu41 C71 2.825 1_545 S
C42 O58 1.259 . S
C42 O59 1.265 . S
C43 O60 1.255 . S
C43 O61 1.265 . S
C44 C46 1.380 . S
C44 C47 1.374 . S
C44 C50 1.507 . S
C45 C46 1.384 . S
C45 C49 1.387 . S
C45 H72 0.930 . S
C46 C44 1.380 . S
C46 C45 1.384 . S
C46 H73 0.931 . S
C47 C44 1.374 . S
C47 C48 1.390 . S
C47 H74 0.930 . S
C48 C47 1.390 . S
C48 C49 1.391 . S
C48 H75 0.930 . S
C49 C45 1.387 . S
C49 C48 1.391 . S
C50 Tb40 2.825 . S
C50 C44 1.507 . S
C50 O63 1.238 . S
C50 O64 1.247 . S
O51 Tb40 2.347 . S
O51 C55 1.259 . S
O52 Eu41 2.418 . S
O52 C55 1.265 . S
O53 Eu41 2.384 . S
O53 C62 1.255 . S
O54 Tb40 2.366 . S
O54 C62 1.265 . S
C55 O51 1.259 . S
C55 O52 1.265 . S
O56 Eu41 2.479 1_565 S
O56 C71 1.238 . S
O57 Eu41 2.471 1_565 S
O57 C71 1.247 . S
O58 Eu41 2.347 . S
O58 C42 1.259 . S
O59 Tb40 2.418 . S
O59 C42 1.265 . S
O60 Tb40 2.384 1_565 S
O60 C43 1.255 . S
O61 Eu41 2.366 1_565 S
O61 C43 1.265 . S
C62 O53 1.255 . S
C62 O54 1.265 . S
O63 Tb40 2.479 . S
O63 C50 1.238 . S
O64 Tb40 2.471 . S
O64 C50 1.247 . S
C65 C68 1.380 . S
C65 C69 1.374 . S
C65 C71 1.507 . S
C66 C67 1.387 . S
C66 C70 1.391 . S
C67 C66 1.387 . S
C67 C68 1.384 . S
C67 H76 0.930 . S
C68 C65 1.380 . S
C68 C67 1.384 . S
C68 H77 0.931 . S
C69 C65 1.374 . S
C69 C70 1.390 . S
C69 H78 0.930 . S
C70 C66 1.391 . S
C70 C69 1.390 . S
C70 H79 0.930 . S
C71 Eu41 2.825 1_565 S
C71 O56 1.238 . S
C71 O57 1.247 . S
C71 C65 1.507 . S
H72 C45 0.930 . S
H73 C46 0.931 . S
H74 C47 0.930 . S
H75 C48 0.930 . S
H76 C67 0.930 . S
H77 C68 0.931 . S
H78 C69 0.930 . S
H79 C70 0.930 . S
Tb80 C90 2.825 . S
Tb80 O91 2.347 . S
Tb80 O94 2.366 . S
Tb80 O99 2.418 . S
Tb80 O100 2.384 . S
Tb80 O103 2.479 . S
Tb80 O104 2.471 . S
Eu81 O92 2.418 . S
Eu81 O93 2.384 . S
Eu81 O96 2.479 . S
Eu81 O97 2.471 . S
Eu81 O98 2.347 . S
Eu81 O101 2.366 . S
Eu81 C111 2.825 . S
C82 O98 1.259 . S
C82 O99 1.265 . S
C83 O100 1.255 . S
C83 O101 1.265 . S
C84 C86 1.380 . S
C84 C87 1.374 . S
C84 C90 1.507 . S
C85 C86 1.384 . S
C85 C89 1.387 . S
C85 H112 0.930 . S
C86 C84 1.380 . S
C86 C85 1.384 . S
C86 H113 0.931 . S
C87 C84 1.374 . S
C87 C88 1.390 . S
C87 H114 0.930 . S
C88 C87 1.390 . S
C88 C89 1.391 . S
C88 H115 0.930 . S
C89 C85 1.387 . S
C89 C88 1.391 . S
C90 Tb80 2.825 . S
C90 C84 1.507 . S
C90 O103 1.238 . S
C90 O104 1.247 . S
O91 Tb80 2.347 . S
O91 C95 1.259 . S
O92 Eu81 2.418 . S
O92 C95 1.265 . S
O93 Eu81 2.384 . S
O93 C102 1.255 . S
O94 Tb80 2.366 . S
O94 C102 1.265 . S
C95 O91 1.259 . S
C95 O92 1.265 . S
O96 Eu81 2.479 . S
O96 C111 1.238 . S
O97 Eu81 2.471 . S
O97 C111 1.247 . S
O98 Eu81 2.347 . S
O98 C82 1.259 . S
O99 Tb80 2.418 . S
O99 C82 1.265 . S
O100 Tb80 2.384 . S
O100 C83 1.255 . S
O101 Eu81 2.366 . S
O101 C83 1.265 . S
C102 O93 1.255 . S
C102 O94 1.265 . S
O103 Tb80 2.479 . S
O103 C90 1.238 . S
O104 Tb80 2.471 . S
O104 C90 1.247 . S
C105 C108 1.380 . S
C105 C109 1.374 . S
C105 C111 1.507 . S
C106 C107 1.387 . S
C106 C110 1.391 . S
C107 C106 1.387 . S
C107 C108 1.384 . S
C107 H116 0.930 . S
C108 C105 1.380 . S
C108 C107 1.384 . S
C108 H117 0.931 . S
C109 C105 1.374 . S
C109 C110 1.390 . S
C109 H118 0.930 . S
C110 C106 1.391 . S
C110 C109 1.390 . S
C110 H119 0.930 . S
C111 Eu81 2.825 . S
C111 O96 1.238 . S
C111 O97 1.247 . S
C111 C105 1.507 . S
H112 C85 0.930 . S
H113 C86 0.931 . S
H114 C87 0.930 . S
H115 C88 0.930 . S
H116 C107 0.930 . S
H117 C108 0.931 . S
H118 C109 0.930 . S
H119 C110 0.930 . S
C120 N121 1.317 . S
C120 N122 1.348 1_545 S
C120 C123 1.485 . S
N121 C120 1.317 . S
N121 N125 1.370 . S
N122 C120 1.348 1_565 S
N122 C124 1.346 . S
C123 C120 1.485 . S
C123 H127 0.960 . S
C123 H128 0.961 1_545 S
C123 H129 0.960 . S
C124 N122 1.346 . S
C124 N125 1.307 1_565 S
C124 C126 1.486 . S
N125 N121 1.370 . S
N125 C124 1.307 1_545 S
C126 C124 1.486 . S
C126 H130 0.960 . S
C126 H131 0.960 . S
C126 H132 0.959 . S
H127 C123 0.960 . S
H128 C123 0.961 1_565 S
H129 C123 0.960 . S
H130 C126 0.960 . S
H131 C126 0.960 . S
H132 C126 0.959 . S
C133 N134 1.317 . S
C133 N135 1.348 . S
C133 C136 1.485 . S
N134 C133 1.317 . S
N134 N138 1.370 . S
N135 C133 1.348 . S
N135 C137 1.346 . S
C136 C133 1.485 . S
C136 H140 0.960 . S
C136 H141 0.961 . S
C136 H142 0.960 . S
C137 N135 1.346 . S
C137 N138 1.307 . S
C137 C139 1.486 . S
N138 N134 1.370 . S
N138 C137 1.307 . S
C139 C137 1.486 . S
C139 H143 0.960 . S
C139 H144 0.960 . S
C139 H145 0.959 . S
H140 C136 0.960 . S
H141 C136 0.961 . S
H142 C136 0.960 . S
H143 C139 0.960 . S
H144 C139 0.960 . S
H145 C139 0.959 . S
C146 N147 1.317 . S
C146 N148 1.348 1_455 S
C146 C149 1.485 . S
N147 C146 1.317 . S
N147 N151 1.370 . S
N148 C146 1.348 1_655 S
N148 C150 1.346 . S
C149 C146 1.485 . S
C149 H153 0.960 . S
C149 H154 0.961 . S
C149 H155 0.960 . S
C150 N148 1.346 . S
C150 N151 1.307 1_655 S
C150 C152 1.486 . S
N151 N147 1.370 . S
N151 C150 1.307 1_455 S
C152 C150 1.486 . S
C152 H156 0.960 . S
C152 H157 0.960 . S
C152 H158 0.959 . S
H153 C149 0.960 . S
H154 C149 0.961 . S
H155 C149 0.960 . S
H156 C152 0.960 . S
H157 C152 0.960 . S
H158 C152 0.959 . S
C159 N160 1.315 1_455 S
C159 N161 1.348 . S
C159 C162 1.485 . S
N160 C159 1.315 1_655 S
N160 N164 1.368 1_655 S
N161 C159 1.348 . S
N161 C163 1.346 . S
C162 C159 1.485 . S
C162 H166 0.960 . S
C162 H167 0.961 . S
C162 H168 0.960 . S
C163 N161 1.346 . S
C163 N164 1.307 . S
C163 C165 1.486 . S
N164 N160 1.368 1_455 S
N164 C163 1.307 . S
C165 C163 1.486 . S
C165 H169 0.960 . S
C165 H170 0.960 . S
C165 H171 0.959 . S
H166 C162 0.960 . S
H167 C162 0.961 . S
H168 C162 0.960 . S
H169 C165 0.960 . S
H170 C165 0.960 . S
H171 C165 0.959 . S
C172 N173 1.317 . S
C172 N174 1.348 . S
C172 C175 1.485 . S
N173 C172 1.317 . S
N173 N177 1.370 . S
N174 C172 1.348 . S
N174 C176 1.346 . S
C175 C172 1.485 . S
C175 H179 0.960 . S
C175 H180 0.961 . S
C175 H181 0.960 . S
C176 N174 1.346 . S
C176 N177 1.307 . S
C176 C178 1.486 . S
N177 N173 1.370 . S
N177 C176 1.307 . S
C178 C176 1.486 . S
C178 H182 0.960 . S
C178 H183 0.960 . S
C178 H184 0.959 . S
H179 C175 0.960 . S
H180 C175 0.961 . S
H181 C175 0.960 . S
H182 C178 0.960 . S
H183 C178 0.960 . S
H184 C178 0.959 . S
C185 N186 1.317 . S
C185 N187 1.348 . S
C185 C188 1.485 . S
N186 C185 1.317 . S
N186 N190 1.370 . S
N187 C185 1.348 . S
N187 C189 1.346 . S
C188 C185 1.485 . S
C188 H192 0.960 . S
C188 H193 0.961 . S
C188 H194 0.960 . S
C189 N187 1.346 . S
C189 N190 1.307 . S
C189 C191 1.486 . S
N190 N186 1.370 . S
N190 C189 1.307 . S
C191 C189 1.486 . S
C191 H195 0.960 . S
C191 H196 0.960 . S
C191 H197 0.959 . S
H192 C188 0.960 . S
H193 C188 0.961 . S
H194 C188 0.960 . S
H195 C191 0.960 . S
H196 C191 0.960 . S
H197 C191 0.959 . S
H198 C204 0.930 . S
H199 C207 0.930 . S
H200 C208 0.930 . S
H201 C209 0.930 . S
H202 C212 0.930 . S
H203 C213 0.930 . S
C204 H198 0.930 . S
C204 C205 1.355 . S
C204 C206 1.415 . S
C205 C204 1.355 . S
C205 C207 1.419 . S
C206 C204 1.415 . S
C206 C211 1.425 . S
C206 C213 1.409 . S
C207 H199 0.930 . S
C207 C205 1.419 . S
C207 C208 1.362 . S
C208 H200 0.930 . S
C208 C207 1.362 . S
C208 C211 1.409 . S
C209 H201 0.930 . S
C209 C210 1.355 . S
C209 C211 1.415 . S
C210 C209 1.355 . S
C210 C212 1.419 . S
C211 C206 1.425 . S
C211 C208 1.409 . S
C211 C209 1.415 . S
C212 H202 0.930 . S
C212 C210 1.419 . S
C212 C213 1.362 . S
C213 H203 0.930 . S
C213 C206 1.409 . S
C213 C212 1.362 . S
H214 C220 0.930 . S
H215 C223 0.930 . S
H216 C224 0.930 . S
H217 C225 0.930 1_455 S
H218 C228 0.930 . S
H219 C229 0.930 . S
C220 H214 0.930 . S
C220 C221 1.355 . S
C220 C222 1.415 . S
C221 C220 1.355 . S
C221 C223 1.419 . S
C222 C220 1.415 . S
C222 C227 1.425 . S
C222 C229 1.409 . S
C223 H215 0.930 . S
C223 C221 1.419 . S
C223 C224 1.362 . S
C224 H216 0.930 . S
C224 C223 1.362 . S
C224 C227 1.409 . S
C225 H217 0.930 1_655 S
C225 C226 1.355 . S
C225 C227 1.415 . S
C226 C225 1.355 . S
C226 C228 1.419 . S
C227 C222 1.425 . S
C227 C224 1.409 . S
C227 C225 1.415 . S
C228 H218 0.930 . S
C228 C226 1.419 . S
C228 C229 1.362 . S
C229 H219 0.930 . S
C229 C222 1.409 . S
C229 C228 1.362 . S
H230 C236 0.930 . S
H231 C239 0.930 . S
H232 C240 0.930 . S
H233 C241 0.930 . S
H234 C244 0.930 . S
H235 C245 0.932 . S
C236 H230 0.930 . S
C236 C237 1.355 . S
C236 C238 1.415 . S
C237 C236 1.355 . S
C237 C239 1.419 . S
C238 C236 1.415 . S
C238 C243 1.425 . S
C238 C245 1.400 1_565 S
C239 H231 0.930 . S
C239 C237 1.419 . S
C239 C240 1.362 . S
C240 H232 0.930 . S
C240 C239 1.362 . S
C240 C243 1.409 . S
C241 H233 0.930 . S
C241 C242 1.355 . S
C241 C243 1.415 . S
C242 C241 1.355 . S
C242 C244 1.419 1_565 S
C243 C238 1.425 . S
C243 C240 1.409 . S
C243 C241 1.415 . S
C244 H234 0.930 . S
C244 C242 1.419 1_545 S
C244 C245 1.371 . S
C245 H235 0.932 . S
C245 C238 1.400 1_545 S
C245 C244 1.371 . S
H246 C252 0.930 . S
H247 C255 0.930 . S
H248 C256 0.930 . S
H249 C257 0.930 . S
H250 C260 0.930 . S
H251 C261 0.930 . S
C252 H246 0.930 . S
C252 C253 1.355 . S
C252 C254 1.415 . S
C253 C252 1.355 . S
C253 C255 1.419 . S
C254 C252 1.415 . S
C254 C259 1.425 . S
C254 C261 1.409 . S
C255 H247 0.930 . S
C255 C253 1.419 . S
C255 C256 1.362 . S
C256 H248 0.930 . S
C256 C255 1.362 . S
C256 C259 1.409 . S
C257 H249 0.930 . S
C257 C258 1.355 . S
C257 C259 1.415 . S
C258 C257 1.355 . S
C258 C260 1.419 . S
C259 C254 1.425 . S
C259 C256 1.409 . S
C259 C257 1.415 . S
C260 H250 0.930 . S
C260 C258 1.419 . S
C260 C261 1.362 . S
C261 H251 0.930 . S
C261 C254 1.409 . S
C261 C260 1.362 . S
H262 C268 0.930 . S
H263 C271 0.930 . S
H264 C272 0.930 . S
H265 C273 0.930 . S
H266 C276 0.930 . S
H267 C277 0.930 . S
C268 H262 0.930 . S
C268 C269 1.355 . S
C268 C270 1.415 . S
C269 C268 1.355 . S
C269 C271 1.419 . S
C270 C268 1.415 . S
C270 C275 1.425 . S
C270 C277 1.409 . S
C271 H263 0.930 . S
C271 C269 1.419 . S
C271 C272 1.362 . S
C272 H264 0.930 . S
C272 C271 1.362 . S
C272 C275 1.409 . S
C273 H265 0.930 . S
C273 C274 1.355 . S
C273 C275 1.415 . S
C274 C273 1.355 . S
C274 C276 1.419 . S
C275 C270 1.425 . S
C275 C272 1.409 . S
C275 C273 1.415 . S
C276 H266 0.930 . S
C276 C274 1.419 . S
C276 C277 1.362 . S
C277 H267 0.930 . S
C277 C270 1.409 . S
C277 C276 1.362 . S
H278 C284 0.930 . S
H279 C287 0.930 . S
H280 C288 0.930 . S
H281 C289 0.930 . S
H282 C292 0.930 . S
H283 C293 0.930 . S
C284 H278 0.930 . S
C284 C285 1.355 . S
C284 C286 1.415 . S
C285 C284 1.355 . S
C285 C287 1.419 . S
C286 C284 1.415 . S
C286 C291 1.425 . S
C286 C293 1.409 . S
C287 H279 0.930 . S
C287 C285 1.419 . S
C287 C288 1.362 . S
C288 H280 0.930 . S
C288 C287 1.362 . S
C288 C291 1.409 . S
C289 H281 0.930 . S
C289 C290 1.355 . S
C289 C291 1.415 . S
C290 C289 1.355 . S
C290 C292 1.419 . S
C291 C286 1.425 . S
C291 C288 1.409 . S
C291 C289 1.415 . S
C292 H282 0.930 . S
C292 C290 1.419 . S
C292 C293 1.362 . S
C293 H283 0.930 . S
C293 C286 1.409 . S
C293 C292 1.362 . S
H294 C300 0.930 . S
H295 C303 0.930 . S
H296 C304 0.930 . S
H297 C305 0.930 . S
H298 C308 0.930 . S
H299 C309 0.930 . S
C300 H294 0.930 . S
C300 C301 1.355 . S
C300 C302 1.415 . S
C301 C300 1.355 . S
C301 C303 1.419 . S
C302 C300 1.415 . S
C302 C307 1.425 . S
C302 C309 1.409 . S
C303 H295 0.930 . S
C303 C301 1.419 . S
C303 C304 1.362 . S
C304 H296 0.930 . S
C304 C303 1.362 . S
C304 C307 1.409 . S
C305 H297 0.930 . S
C305 C306 1.355 . S
C305 C307 1.415 . S
C306 C305 1.355 . S
C306 C308 1.419 . S
C307 C302 1.425 . S
C307 C304 1.409 . S
C307 C305 1.415 . S
C308 H298 0.930 . S
C308 C306 1.419 . S
C308 C309 1.362 . S
C309 H299 0.930 . S
C309 C302 1.409 . S
C309 C308 1.362 . S
H310 C316 0.930 . S
H311 C319 0.930 . S
H312 C320 0.930 . S
H313 C321 0.930 . S
H314 C324 0.930 . S
H315 C325 0.930 . S
C316 H310 0.930 . S
C316 C317 1.355 . S
C316 C318 1.415 . S
C317 C316 1.355 . S
C317 C319 1.419 . S
C318 C316 1.415 . S
C318 C323 1.425 . S
C318 C325 1.409 . S
C319 H311 0.930 . S
C319 C317 1.419 . S
C319 C320 1.362 . S
C320 H312 0.930 . S
C320 C319 1.362 . S
C320 C323 1.409 . S
C321 H313 0.930 . S
C321 C322 1.355 . S
C321 C323 1.415 . S
C322 C321 1.355 . S
C322 C324 1.419 . S
C323 C318 1.425 . S
C323 C320 1.409 . S
C323 C321 1.415 . S
C324 H314 0.930 . S
C324 C322 1.419 . S
C324 C325 1.362 . S
C325 H315 0.930 . S
C325 C318 1.409 . S
C325 C324 1.362 . S
H326 C332 0.930 . S
H327 C335 0.930 . S
H328 C336 0.930 . S
H329 C337 0.930 . S
H330 C340 0.930 . S
H331 C341 0.930 . S
C332 H326 0.930 . S
C332 C333 1.355 . S
C332 C334 1.415 . S
C333 C332 1.355 . S
C333 C335 1.419 . S
C334 C332 1.415 . S
C334 C339 1.425 . S
C334 C341 1.409 . S
C335 H327 0.930 . S
C335 C333 1.419 . S
C335 C336 1.362 . S
C336 H328 0.930 . S
C336 C335 1.362 . S
C336 C339 1.409 . S
C337 H329 0.930 . S
C337 C338 1.355 . S
C337 C339 1.415 . S
C338 C337 1.355 . S
C338 C340 1.419 . S
C339 C334 1.425 . S
C339 C336 1.409 . S
C339 C337 1.415 . S
C340 H330 0.930 . S
C340 C338 1.419 . S
C340 C341 1.362 . S
C341 H331 0.930 . S
C341 C334 1.409 . S
C341 C340 1.362 . S
H342 C348 0.930 . S
H343 C351 0.930 . S
H344 C352 0.930 . S
H345 C353 0.930 . S
H346 C356 0.930 . S
H347 C357 0.930 . S
C348 H342 0.930 . S
C348 C349 1.355 . S
C348 C350 1.415 . S
C349 C348 1.355 . S
C349 C351 1.419 . S
C350 C348 1.415 . S
C350 C355 1.425 . S
C350 C357 1.409 . S
C351 H343 0.930 . S
C351 C349 1.419 . S
C351 C352 1.362 . S
C352 H344 0.930 . S
C352 C351 1.362 . S
C352 C355 1.409 . S
C353 H345 0.930 . S
C353 C354 1.355 . S
C353 C355 1.415 . S
C354 C353 1.355 . S
C354 C356 1.419 . S
C355 C350 1.425 . S
C355 C352 1.409 . S
C355 C353 1.415 . S
C356 H346 0.930 . S
C356 C354 1.419 . S
C356 C357 1.362 . S
C357 H347 0.930 . S
C357 C350 1.409 . S
C357 C356 1.362 . S
H358 C364 0.930 . S
H359 C367 0.930 . S
H360 C368 0.930 . S
H361 C369 0.930 . S
H362 C372 0.930 . S
H363 C373 0.930 . S
C364 H358 0.930 . S
C364 C365 1.355 . S
C364 C366 1.415 . S
C365 C364 1.355 . S
C365 C367 1.419 . S
C366 C364 1.415 . S
C366 C371 1.425 . S
C366 C373 1.409 . S
C367 H359 0.930 . S
C367 C365 1.419 . S
C367 C368 1.362 . S
C368 H360 0.930 . S
C368 C367 1.362 . S
C368 C371 1.409 . S
C369 H361 0.930 . S
C369 C370 1.355 . S
C369 C371 1.415 . S
C370 C369 1.355 . S
C370 C372 1.419 . S
C371 C366 1.425 . S
C371 C368 1.409 . S
C371 C369 1.415 . S
C372 H362 0.930 . S
C372 C370 1.419 . S
C372 C373 1.362 . S
C373 H363 0.930 . S
C373 C366 1.409 . S
C373 C372 1.362 . S
H374 C380 0.930 . S
H375 C383 0.930 . S
H376 C384 0.930 . S
H377 C385 0.930 . S
H378 C388 0.930 . S
H379 C389 0.930 . S
C380 H374 0.930 . S
C380 C381 1.355 . S
C380 C382 1.415 . S
C381 C380 1.355 . S
C381 C383 1.419 . S
C382 C380 1.415 . S
C382 C387 1.425 . S
C382 C389 1.409 . S
C383 H375 0.930 . S
C383 C381 1.419 . S
C383 C384 1.362 . S
C384 H376 0.930 . S
C384 C383 1.362 . S
C384 C387 1.409 . S
C385 H377 0.930 . S
C385 C386 1.355 . S
C385 C387 1.415 . S
C386 C385 1.355 . S
C386 C388 1.419 . S
C387 C382 1.425 . S
C387 C384 1.409 . S
C387 C385 1.415 . S
C388 H378 0.930 . S
C388 C386 1.419 . S
C388 C389 1.362 . S
C389 H379 0.930 . S
C389 C382 1.409 . S
C389 C388 1.362 . S
H390 C396 0.930 . S
H391 C399 0.930 . S
H392 C400 0.930 . S
H393 C401 0.930 . S
H394 C404 0.930 . S
H395 C405 0.931 . S
C396 H390 0.930 . S
C396 C397 1.355 . S
C396 C398 1.415 . S
C397 C396 1.355 . S
C397 C399 1.419 . S
C398 C396 1.415 . S
C398 C403 1.425 1_554 S
C398 C405 1.409 1_554 S
C399 H391 0.930 . S
C399 C397 1.419 . S
C399 C400 1.362 . S
C400 H392 0.930 . S
C400 C399 1.362 . S
C400 C403 1.409 1_554 S
C401 H393 0.930 . S
C401 C402 1.355 . S
C401 C403 1.415 . S
C402 C401 1.355 . S
C402 C404 1.419 . S
C403 C398 1.425 1_556 S
C403 C400 1.409 1_556 S
C403 C401 1.415 . S
C404 H394 0.930 . S
C404 C402 1.419 . S
C404 C405 1.362 . S
C405 H395 0.931 . S
C405 C398 1.409 1_556 S
C405 C404 1.362 . S
H406 C412 0.930 1_565 S
H407 C415 0.930 . S
H408 C416 0.930 . S
H409 C417 0.930 . S
H410 C420 0.930 . S
H411 C421 0.930 . S
C412 H406 0.930 1_545 S
C412 C413 1.355 . S
C412 C414 1.415 . S
C413 C412 1.355 . S
C413 C415 1.419 . S
C414 C412 1.415 . S
C414 C419 1.425 . S
C414 C421 1.409 1_545 S
C415 H407 0.930 . S
C415 C413 1.419 . S
C415 C416 1.362 . S
C416 H408 0.930 . S
C416 C415 1.362 . S
C416 C419 1.409 . S
C417 H409 0.930 . S
C417 C418 1.355 . S
C417 C419 1.415 . S
C418 C417 1.355 . S
C418 C420 1.419 1_545 S
C419 C414 1.425 . S
C419 C416 1.409 . S
C419 C417 1.415 . S
C420 H410 0.930 . S
C420 C418 1.419 1_565 S
C420 C421 1.362 . S
C421 H411 0.930 . S
C421 C414 1.409 1_565 S
C421 C420 1.362 . S
H422 C428 0.930 . S
H423 C431 0.930 . S
H424 C432 0.930 . S
H425 C433 0.930 . S
H426 C436 0.930 . S
H427 C437 0.930 . S
C428 H422 0.930 . S
C428 C429 1.355 . S
C428 C430 1.415 . S
C429 C428 1.355 . S
C429 C431 1.419 . S
C430 C428 1.415 . S
C430 C435 1.425 . S
C430 C437 1.409 . S
C431 H423 0.930 . S
C431 C429 1.419 . S
C431 C432 1.362 . S
C432 H424 0.930 . S
C432 C431 1.362 . S
C432 C435 1.409 . S
C433 H425 0.930 . S
C433 C434 1.355 . S
C433 C435 1.415 . S
C434 C433 1.355 . S
C434 C436 1.419 . S
C435 C430 1.425 . S
C435 C432 1.409 . S
C435 C433 1.415 . S
C436 H426 0.930 . S
C436 C434 1.419 . S
C436 C437 1.362 . S
C437 H427 0.930 . S
C437 C430 1.409 . S
C437 C436 1.362 . S
H438 C444 0.930 . S
H439 C447 0.930 . S
H440 C448 0.930 1_565 S
H441 C449 0.930 1_565 S
H442 C452 0.930 . S
H443 C453 0.930 . S
C444 H438 0.930 . S
C444 C445 1.355 . S
C444 C446 1.415 . S
C445 C444 1.355 . S
C445 C447 1.419 . S
C446 C444 1.415 . S
C446 C451 1.425 . S
C446 C453 1.409 . S
C447 H439 0.930 . S
C447 C445 1.419 . S
C447 C448 1.362 . S
C448 H440 0.930 1_545 S
C448 C447 1.362 . S
C448 C451 1.409 . S
C449 H441 0.930 1_545 S
C449 C450 1.355 . S
C449 C451 1.415 . S
C450 C449 1.355 . S
C450 C452 1.419 . S
C451 C446 1.425 . S
C451 C448 1.409 . S
C451 C449 1.415 . S
C452 H442 0.930 . S
C452 C450 1.419 . S
C452 C453 1.362 . S
C453 H443 0.930 . S
C453 C446 1.409 . S
C453 C452 1.362 . S
H454 C460 0.930 . S
H455 C463 0.930 . S
H456 C464 0.930 . S
H457 C465 0.930 . S
H458 C468 0.930 . S
H459 C469 0.930 . S
C460 H454 0.930 . S
C460 C461 1.355 . S
C460 C462 1.415 . S
C461 C460 1.355 . S
C461 C463 1.419 . S
C462 C460 1.415 . S
C462 C467 1.425 . S
C462 C469 1.409 1_556 S
C463 H455 0.930 . S
C463 C461 1.419 . S
C463 C464 1.362 . S
C464 H456 0.930 . S
C464 C463 1.362 . S
C464 C467 1.409 . S
C465 H457 0.930 . S
C465 C466 1.355 . S
C465 C467 1.415 1_554 S
C466 C465 1.355 . S
C466 C468 1.419 . S
C467 C462 1.425 . S
C467 C464 1.409 . S
C467 C465 1.415 1_556 S
C468 H458 0.930 . S
C468 C466 1.419 . S
C468 C469 1.362 . S
C469 H459 0.930 . S
C469 C462 1.409 1_554 S
C469 C468 1.362 . S
H470 C476 0.930 . S
H471 C479 0.930 . S
H472 C480 0.930 . S
H473 C481 0.930 . S
H474 C484 0.930 . S
H475 C485 0.930 . S
C476 H470 0.930 . S
C476 C477 1.355 1_655 S
C476 C478 1.415 . S
C477 C476 1.355 1_455 S
C477 C479 1.419 . S
C478 C476 1.415 . S
C478 C483 1.425 1_655 S
C478 C485 1.409 . S
C479 H471 0.930 . S
C479 C477 1.419 . S
C479 C480 1.362 . S
C480 H472 0.930 . S
C480 C479 1.362 . S
C480 C483 1.409 . S
C481 H473 0.930 . S
C481 C482 1.355 . S
C481 C483 1.415 . S
C482 C481 1.355 . S
C482 C484 1.419 1_455 S
C483 C478 1.425 1_455 S
C483 C480 1.409 . S
C483 C481 1.415 . S
C484 H474 0.930 . S
C484 C482 1.419 1_655 S
C484 C485 1.362 . S
C485 H475 0.930 . S
C485 C478 1.409 . S
C485 C484 1.362 . S
C205 C9 0.386 . S
C210 N187 0.206 . S
C221 C49 0.486 . S
C226 N160 0.568 . S
C237 C89 0.376 . S
C242 N173 0.341 1_565 S
C253 C26 0.641 . S
C258 N186 0.628 . S
C274 N161 0.709 . S
C269 C66 0.687 . S
C290 N174 0.806 . S
C285 C106 0.863 . S
C301 C43 2.894 . S
C306 N134 2.901 . S
C317 C83 2.841 . S
C322 N148 2.785 . S
C333 C22 3.141 . S
C338 N122 3.101 . S
C354 N135 3.129 . S
C349 C62 3.155 . S
C370 N147 3.274 . S
C365 C102 3.262 . S
C381 C3 2.897 . S
C386 N121 2.910 . S
C402 N151 1.777 . S
C397 C15 1.789 . S
C413 C55 1.745 . S
C418 N125 1.775 . S
C429 C95 1.720 . S
C434 N138 1.768 . S
C450 N177 1.203 . S
C445 C42 1.203 . S
C466 N190 1.120 . S
C461 C82 1.182 . S
C477 C2 1.171 . S
C482 N164 1.212 . S
