# Generated by pormake.
# Topology tsx, (6,3)-cn, num edge types: 1
# Building blocks:
#     Node 0, Type 0, BuildingBlock: JUFBIX_clean_sbu_0, # of connection points: 6
#     Node 1, Type 0, BuildingBlock: JUFBIX_clean_sbu_0, # of connection points: 6
#     Node 2, Type 1, BuildingBlock: INOVEN_clean_linker_0, # of connection points: 3
#     Node 3, Type 1, BuildingBlock: INOVEN_clean_linker_0, # of connection points: 3
#     Node 4, Type 1, BuildingBlock: INOVEN_clean_linker_0, # of connection points: 3
#     Node 5, Type 1, BuildingBlock: INOVEN_clean_linker_0, # of connection points: 3
#     Edge 6, Type (0, 1), BuildingBlock: EZIPEK_clean_linker_0, # of connection points: 2
#     Edge 7, Type (0, 1), BuildingBlock: EZIPEK_clean_linker_0, # of connection points: 2
#     Edge 8, Type (0, 1), BuildingBlock: EZIPEK_clean_linker_0, # of connection points: 2
#     Edge 9, Type (0, 1), BuildingBlock: EZIPEK_clean_linker_0, # of connection points: 2
#     Edge 10, Type (0, 1), BuildingBlock: EZIPEK_clean_linker_0, # of connection points: 2
#     Edge 11, Type (0, 1), BuildingBlock: EZIPEK_clean_linker_0, # of connection points: 2
#     Edge 12, Type (0, 1), BuildingBlock: EZIPEK_clean_linker_0, # of connection points: 2
#     Edge 13, Type (0, 1), BuildingBlock: EZIPEK_clean_linker_0, # of connection points: 2
#     Edge 14, Type (0, 1), BuildingBlock: EZIPEK_clean_linker_0, # of connection points: 2
#     Edge 15, Type (0, 1), BuildingBlock: EZIPEK_clean_linker_0, # of connection points: 2
#     Edge 16, Type (0, 1), BuildingBlock: EZIPEK_clean_linker_0, # of connection points: 2
#     Edge 17, Type (0, 1), BuildingBlock: EZIPEK_clean_linker_0, # of connection points: 2
# Relax obj value: 0.097
# Max RMSD: 0.126
# Mean RMSD: 0.111
data_MOF--net-tsx--node1-JUFBIX_clean_sbu_0--node2-INOVEN_clean_linker_0--edge1-EZIPEK_clean_linker_0
_symmetry_space_group_name_H-M    P1
_symmetry_Int_Tables_number       1
_symmetry_cell_setting            triclinic
loop_
_symmetry_equiv_pos_as_xyz
'x, y, z'
_cell_length_a     14.999334
_cell_length_b     17.306056
_cell_length_c     24.65728
_cell_angle_alpha  90.794161
_cell_angle_beta   99.31359
_cell_angle_gamma 102.04335
loop_
_atom_site_label
_atom_site_type_symbol
_atom_site_fract_x
_atom_site_fract_y
_atom_site_fract_z
_atom_type_partial_charge
Co0 Co 0.11026 0.02768 -0.02131 0.0
C1 C 1.00978 0.04432 0.87636 0.0
Co2 Co 0.99035 0.08233 -0.01861 0.0
C3 C 0.22277 0.92194 0.9455 0.0
C4 C 0.2977 1.01257 0.00574 0.0
N5 N 0.21318 0.98489 -0.02462 0.0
N6 N 0.30984 0.90972 0.95644 0.0
C7 C 0.3572 0.9665 -0.00585 0.0
H8 H 0.16736 0.88582 0.91648 0.0
H9 H 0.31489 0.06304 0.03476 0.0
C10 C 0.0906 0.06053 0.08343 0.0
N11 N 0.8917 0.12855 -0.01178 0.0
C12 C 0.86651 0.18928 0.96028 0.0
C13 C 0.84729 0.12342 0.03189 0.0
N14 N 0.81136 0.22419 -0.01387 0.0
C15 C 0.79936 0.1829 0.03123 0.0
C16 C 0.94845 0.91926 -0.01379 0.0
O17 O 0.13751 0.02903 0.05508 0.0
O18 O 0.02593 0.09132 0.05968 0.0
O19 O 0.91769 0.98215 -0.01278 0.0
O20 O 0.03195 0.92354 -0.0206 0.0
O21 O 0.95646 0.07126 0.90346 0.0
H22 H 0.85493 0.08307 0.06453 0.0
H23 H 0.89409 0.21157 0.92422 0.0
O24 O 0.0821 0.02487 0.90154 0.0
O25 O 0.18573 0.13313 -0.02054 0.0
O26 O 0.06229 0.18288 -0.02405 0.0
C27 C 0.14876 0.19316 -0.0215 0.0
H28 H 0.42962 0.97398 0.01177 0.0
H29 H 0.76151 0.19685 0.06259 0.0
Co30 Co 0.57575 0.45355 0.47366 0.0
C31 C 0.49838 0.48374 0.36861 0.0
Co32 Co 0.45795 0.51135 0.47141 0.0
C33 C 0.68675 0.34482 0.44727 0.0
C34 C 0.75825 0.43078 0.51151 0.0
N35 N 0.67715 0.40802 0.47666 0.0
N36 N 0.77054 0.3277 0.46263 0.0
C37 C 0.81611 0.38159 0.50271 0.0
H38 H 0.63409 0.31266 0.41486 0.0
H39 H 0.77427 0.48011 0.54143 0.0
C40 C 0.53841 0.48263 0.57595 0.0
N41 N 0.35724 0.55759 0.47198 0.0
C42 C 0.3414 0.62499 0.44923 0.0
C43 C 0.28909 0.53541 0.50194 0.0
N44 N 0.26679 0.64571 0.4643 0.0
C45 C 0.23337 0.58968 0.49734 0.0
C46 C 0.41061 0.34699 0.46975 0.0
O47 O 0.58681 0.44843 0.55024 0.0
O48 O 0.47868 0.51645 0.54962 0.0
O49 O 0.38098 0.41036 0.47156 0.0
O50 O 0.49479 0.35126 0.46545 0.0
O51 O 0.43892 0.50623 0.39311 0.0
H52 H 0.28247 0.48464 0.52726 0.0
H53 H 0.38543 0.65983 0.42378 0.0
O54 O 0.56511 0.45919 0.39643 0.0
O55 O 0.65532 0.55656 0.48318 0.0
O56 O 0.53588 0.61224 0.47223 0.0
C57 C 0.6228 0.61893 0.4811 0.0
H58 H 0.88641 0.38547 0.52341 0.0
H59 H 0.17437 0.5893 0.51755 0.0
H60 H 0.072 0.953 0.45632 0.0
H61 H 0.20648 0.90639 0.32197 0.0
H62 H 0.0528 0.08917 0.31144 0.0
N63 N 0.99523 0.06919 0.4083 0.0
N64 N 0.95414 0.11212 0.3776 0.0
C65 C 0.09057 0.96839 0.41679 0.0
C66 C 0.14567 0.92493 0.39345 0.0
C67 C 0.05608 0.02794 0.38734 0.0
C68 C 0.07993 0.04469 0.33549 0.0
C69 C 0.1333 1.0011 0.31205 0.0
C70 C 0.16818 0.94237 0.34135 0.0
H71 H 0.93339 0.95394 0.48302 0.0
H72 H 0.84357 0.88701 0.63577 0.0
H73 H 0.06912 0.08489 0.63416 0.0
N74 N 0.07298 0.07166 0.52537 0.0
N75 N 0.14664 0.11401 0.54978 0.0
C76 C 0.93981 0.96384 0.52697 0.0
C77 C 0.88151 0.91221 0.55601 0.0
C78 C 1.00922 0.02505 0.55489 0.0
C79 C 1.01632 0.03752 0.61199 0.0
C80 C 0.95534 0.98894 0.6409 0.0
C81 C 0.88883 0.92601 0.61294 0.0
H82 H 0.63969 0.55987 0.96776 0.0
H83 H 0.67419 0.41705 0.83219 0.0
H84 H 0.51997 0.59852 0.80208 0.0
N85 N 0.52907 0.64379 0.90786 0.0
N86 N 0.48392 0.68193 0.87531 0.0
C87 C 0.626 0.54471 0.92439 0.0
C88 C 0.66068 0.48193 0.9049 0.0
C89 C 0.57249 0.58598 0.88782 0.0
C90 C 0.55934 0.56688 0.83127 0.0
C91 C 0.59721 0.50734 0.81154 0.0
C92 C 0.64651 0.4642 0.84808 0.0
H93 H 0.45168 0.5586 -0.0199 0.0
H94 H 0.37704 0.41544 0.11367 0.0
H95 H 0.60901 0.6115 0.14236 0.0
N96 N 0.60357 0.64802 0.03546 0.0
N97 N 0.68044 0.68038 0.06246 0.0
C98 C 0.46445 0.54308 0.02213 0.0
C99 C 0.40711 0.47743 0.04084 0.0
C100 C 0.54024 0.58911 0.05768 0.0
C101 C 0.55332 0.57437 0.11398 0.0
C102 C 0.49182 0.51374 0.13426 0.0
C103 C 0.42221 0.4637 0.09747 0.0
C104 C 0.19031 0.33045 0.02302 0.0
C105 C 0.20537 0.27502 -0.0159 0.0
C106 C 0.336 0.37344 0.96169 0.0
C107 C 0.32578 0.42464 0.00499 0.0
N108 N 0.21742 0.46851 0.053 0.0
N109 N 0.27103 0.25308 0.90381 0.0
C110 C 0.24262 0.40886 0.02646 0.0
C111 C 0.27182 0.29936 0.94939 0.0
N112 N 0.13293 0.30726 0.06031 0.0
N113 N 0.40535 0.39543 0.93197 0.0
H114 H 0.22272 0.20019 0.89293 0.0
H115 H 0.3123 0.26968 0.87408 0.0
H116 H 0.44325 0.45295 0.93322 0.0
H117 H 0.42503 0.35712 0.90557 0.0
H118 H 0.12703 0.34467 0.09242 0.0
H119 H 0.09904 0.24897 0.06343 0.0
H120 H 0.15384 0.46205 0.06629 0.0
H121 H 0.25674 0.52635 0.05602 0.0
C122 C 0.40722 0.8717 0.89361 0.0
C123 C 0.34726 0.85007 0.9323 0.0
C124 C 0.36577 0.71337 0.92553 0.0
C125 C 0.43611 0.73748 0.89361 0.0
N126 N 0.52209 0.83664 0.84411 0.0
N127 N 0.27517 0.75316 -0.01041 0.0
C128 C 0.45562 0.81585 0.87625 0.0
C129 C 0.32785 0.77151 0.94945 0.0
N130 N 0.41589 0.94526 0.873 0.0
N131 N 0.33063 0.63471 0.92935 0.0
H132 H 0.24591 0.79464 0.0075 0.0
H133 H 0.26646 0.69872 0.00781 0.0
H134 H 0.35181 0.59139 0.90776 0.0
H135 H 0.27417 0.61298 0.94858 0.0
H136 H 0.45291 0.96377 0.84161 0.0
H137 H 0.38008 0.98647 0.88492 0.0
H138 H 0.54689 0.89435 0.83386 0.0
H139 H 0.5563 0.79575 0.82986 0.0
C140 C 0.7918 0.83215 -0.02789 0.0
C141 C 0.88592 0.8443 -0.00271 0.0
C142 C 0.84237 0.73792 0.05909 0.0
C143 C 0.74761 0.73592 0.03982 0.0
N144 N 0.63456 0.80036 -0.01149 0.0
N145 N 0.99998 0.81306 0.07034 0.0
C146 C 0.72234 0.78751 -0.00132 0.0
C147 C 0.91161 0.79756 0.04185 0.0
N148 N 0.76869 0.86451 0.92301 0.0
N149 N 0.86608 0.68215 0.09399 0.0
H150 H 0.05363 0.85536 0.05968 0.0
H151 H 1.01876 0.78779 0.10741 0.0
H152 H 0.81684 0.63912 0.10845 0.0
H153 H 0.93373 0.67478 0.10498 0.0
H154 H 0.70159 0.85237 0.90091 0.0
H155 H 0.81844 0.89608 0.90187 0.0
H156 H 0.58384 0.7766 0.0115 0.0
H157 H 0.61632 0.8437 0.96267 0.0
C158 C 0.84051 0.36502 0.96034 0.0
C159 C 0.77879 0.29539 -0.02785 0.0
C160 C 0.65801 0.3706 -0.03162 0.0
C161 C 0.71047 0.43172 0.94215 0.0
N162 N 0.85589 0.48951 0.91486 0.0
N163 N 0.62153 0.22988 -0.0229 0.0
C164 C 0.8035 0.42983 0.93882 0.0
C165 C 0.68543 0.29761 -0.02643 0.0
N166 N 0.93381 0.3708 -0.02791 0.0
N167 N 0.58463 0.38293 -0.00945 0.0
H168 H 0.63695 0.17391 -0.02391 0.0
H169 H 0.5512 0.22919 -0.0257 0.0
H170 H 0.57077 0.439 -0.00648 0.0
H171 H 0.5477 0.34081 0.01308 0.0
H172 H 0.98176 0.42251 0.968 0.0
H173 H 0.96308 0.32711 -0.00795 0.0
H174 H 0.92071 0.48702 0.90572 0.0
H175 H 0.83212 0.54004 0.90222 0.0
C176 C 0.66094 0.75668 0.52634 0.0
C177 C 0.68543 0.69821 0.4938 0.0
C178 C 0.8408 0.78148 0.50012 0.0
C179 C 0.81276 0.84253 0.52798 0.0
N180 N 0.68618 0.89638 0.54986 0.0
N181 N 0.79023 0.66819 0.43563 0.0
C182 C 0.71923 0.83294 0.53478 0.0
C183 C 0.77273 0.71474 0.47611 0.0
N184 N 0.58708 0.73867 0.55337 0.0
N185 N 0.93221 0.7843 0.49903 0.0
H186 H 0.74021 0.6218 0.41457 0.0
H187 H 0.8505 0.68175 0.41859 0.0
H188 H 0.98529 0.82979 0.51826 0.0
H189 H 0.95575 0.73719 0.48371 0.0
H190 H 0.57239 0.77875 0.58083 0.0
H191 H 0.54802 0.6817 0.5547 0.0
H192 H 0.61626 0.89306 0.55098 0.0
H193 H 0.7268 0.95367 0.55515 0.0
C194 C 0.80058 0.19325 0.45885 0.0
C195 C 0.80835 0.26947 0.4376 0.0
C196 C 0.90492 0.23692 0.37361 0.0
C197 C 0.89822 0.16105 0.39536 0.0
N198 N 0.81435 0.0579 0.4434 0.0
N199 N 0.85335 0.36112 0.36977 0.0
C200 C 0.83909 0.13631 0.43397 0.0
C201 C 0.85576 0.29025 0.39309 0.0
N202 N 0.75739 0.1761 0.50321 0.0
N203 N 0.96209 0.2587 0.336 0.0
H204 H 0.81988 0.40208 0.38456 0.0
H205 H 0.87912 0.37755 0.33395 0.0
H206 H 0.99704 0.21984 0.32001 0.0
H207 H 0.97886 0.31583 0.32261 0.0
H208 H 0.75787 0.12444 0.52434 0.0
H209 H 0.72604 0.2163 0.52089 0.0
H210 H 0.76615 0.03526 0.46827 0.0
H211 H 0.8337 1.01462 0.4208 0.0
C212 C 0.25276 0.26164 0.45579 0.0
C213 C 0.34761 0.27141 0.47899 0.0
C214 C 0.30576 0.15909 0.53634 0.0
C215 C 0.21161 0.16169 0.52142 0.0
N216 N 0.09742 0.22908 0.47547 0.0
N217 N 0.46379 0.23156 0.54735 0.0
C218 C 0.18491 0.2157 0.48275 0.0
C219 C 0.3747 0.21974 0.52017 0.0
N220 N 0.22756 0.29748 0.40848 0.0
N221 N 0.32905 0.09865 0.56664 0.0
H222 H 0.51814 0.27454 0.53835 0.0
H223 H 0.48293 0.20169 0.58228 0.0
H224 H 0.27941 0.05427 0.57956 0.0
H225 H 0.39596 0.08856 0.57419 0.0
H226 H 0.15944 0.28748 0.3879 0.0
H227 H 0.27629 0.32983 0.38701 0.0
H228 H 0.04723 0.20112 0.49757 0.0
H229 H 0.07838 0.2746 0.45213 0.0
C230 C 0.28366 0.7904 0.47422 0.0
C231 C 0.23275 0.71591 0.45062 0.0
C232 C 0.11358 0.7786 0.40157 0.0
C233 C 0.17033 0.85384 0.41939 0.0
N234 N 0.30988 0.93359 0.47121 0.0
N235 N 0.10476 0.63781 0.38854 0.0
C236 C 0.25539 0.86046 0.45573 0.0
C237 C 0.14861 0.70957 0.41376 0.0
N238 N 0.35764 0.79337 0.51518 0.0
N239 N 0.02608 0.77345 0.37331 0.0
H240 H 0.12968 0.58642 0.39635 0.0
H241 H 0.04816 0.63 0.35688 0.0
H242 H 0.99802 0.823 0.36425 0.0
H243 H 0.97839 0.72029 0.36304 0.0
H244 H 0.39361 0.84491 0.53767 0.0
H245 H 0.37876 0.74259 0.52967 0.0
H246 H 0.37715 0.94268 0.49276 0.0
H247 H 0.28907 0.98592 0.46015 0.0
C248 C 0.03722 0.98913 0.1626 0.0
C249 C 0.10231 0.04899 0.14278 0.0
C250 C 0.19736 0.07166 0.2344 0.0
C251 C 0.13489 1.00836 0.25284 0.0
N252 N 1.00763 0.89535 0.23249 0.0
N253 N 0.2494 0.14157 0.15668 0.0
C254 C 0.05903 0.9632 0.21613 0.0
C255 C 0.1844 0.08836 0.17772 0.0
N256 N 0.95318 0.95839 0.13105 0.0
N257 N 0.26694 0.11694 0.27145 0.0
H258 H 0.23929 0.15858 0.11608 0.0
H259 H 0.31489 0.16605 0.17855 0.0
H260 H 0.2804 0.10344 0.31271 0.0
H261 H 0.30845 0.16947 0.26208 0.0
H262 H 0.89923 0.92137 0.14587 0.0
H263 H 0.93356 0.97509 0.0914 0.0
H264 H 0.95848 0.85513 0.2055 0.0
H265 H 0.02002 0.87494 0.27194 0.0
C266 C 0.96851 0.09039 0.78079 0.0
C267 C 0.98588 0.02925 0.81609 0.0
C268 C 0.98886 0.94398 0.73683 0.0
C269 C 0.96359 1.00223 0.7012 0.0
N270 N 0.90828 0.12331 0.68884 0.0
N271 N 0.98499 0.89038 0.82642 0.0
C272 C 0.94683 0.07324 0.72304 0.0
C273 C 0.98762 0.95368 0.79371 0.0
N274 N 0.97725 0.16557 0.80187 0.0
N275 N 1.01792 0.88106 0.71692 0.0
H276 H 0.97936 0.89408 0.86792 0.0
H277 H 0.97757 0.83262 0.81096 0.0
H278 H 0.02298 0.87285 0.67564 0.0
H279 H 0.04597 0.84147 0.74234 0.0
H280 H 0.9749 0.21387 0.77734 0.0
H281 H 0.99524 0.18119 0.84381 0.0
H282 H 0.88637 0.17194 0.70315 0.0
H283 H 0.88992 0.11197 0.64638 0.0
C284 C 0.49071 0.43813 0.66469 0.0
C285 C 0.55521 0.48599 0.63631 0.0
C286 C 0.65169 0.54211 0.72323 0.0
C287 C 0.58782 0.49366 0.75162 0.0
N288 N 0.45456 0.38853 0.75212 0.0
N289 N 0.70184 0.57608 0.6364 0.0
C290 C 0.50966 0.43929 0.72309 0.0
C291 C 0.63742 0.53553 0.66497 0.0
N292 N 0.41113 0.39257 0.63566 0.0
N293 N 0.72401 0.59649 0.75214 0.0
H294 H 0.69136 0.57728 0.59366 0.0
H295 H 0.76798 0.60545 0.65453 0.0
H296 H 0.73959 0.60021 0.79501 0.0
H297 H 0.76628 0.64073 0.73417 0.0
H298 H 0.35667 0.36216 0.65351 0.0
H299 H 0.39702 0.38779 0.59277 0.0
H300 H 0.40101 0.34257 0.73425 0.0
H301 H 0.46616 0.38895 0.79502 0.0
C302 C 0.48665 0.5635 0.28436 0.0
C303 C 0.49393 0.4905 0.30841 0.0
C304 C 0.51297 0.43641 0.21955 0.0
C305 C 0.49485 0.50609 0.19449 0.0
N306 N 0.44126 0.62779 0.20124 0.0
N307 N 0.49447 0.35186 0.29616 0.0
C308 C 0.47484 0.56731 0.22634 0.0
C309 C 0.5017 0.42523 0.27524 0.0
N310 N 0.49578 0.63041 0.31673 0.0
N311 N 0.54329 0.38195 0.19067 0.0
H312 H 0.48251 0.34059 0.33611 0.0
H313 H 0.49059 0.30083 0.2722 0.0
H314 H 0.55383 0.38887 0.15006 0.0
H315 H 0.56622 0.33389 0.20858 0.0
H316 H 0.50023 0.68641 0.30098 0.0
H317 H 0.50923 0.63179 0.35956 0.0
H318 H 0.41679 0.66928 0.22247 0.0
H319 H 0.42873 0.63195 0.15864 0.0
loop_
_geom_bond_atom_site_label_1
_geom_bond_atom_site_label_2
_geom_bond_distance
_geom_bond_site_symmetry_2
_ccdc_geom_bond_type
Co0 N5 2.057 1_554 S
Co0 O17 2.021 . S
Co0 O20 2.062 1_455 S
Co0 O24 2.117 1_554 S
Co0 O25 2.020 1_565 S
C1 O21 1.269 . S
C1 O24 1.251 1_645 S
Co2 N11 2.057 1_556 S
Co2 O18 2.117 1_556 S
Co2 O19 2.020 1_545 S
Co2 O21 2.021 . S
Co2 O26 2.062 1_656 S
C3 N5 1.316 1_554 S
C3 N6 1.347 . S
C3 H8 0.931 . S
C4 N5 1.375 . S
C4 C7 1.350 . S
C4 H9 0.930 . S
N5 Co0 2.057 1_556 S
N5 C3 1.316 1_556 S
N5 C4 1.375 . S
N6 C3 1.347 . S
N6 C7 1.373 1_554 S
C7 C4 1.350 . S
C7 N6 1.373 1_556 S
C7 H28 0.931 . S
H8 C3 0.931 . S
H9 C4 0.930 . S
C10 O17 1.259 1_545 S
C10 O18 1.258 1_455 S
N11 Co2 2.057 1_554 S
N11 C12 1.316 1_554 S
N11 C13 1.375 . S
C12 N11 1.316 1_556 S
C12 N14 1.347 1_556 S
C12 H23 0.931 . S
C13 N11 1.375 . S
C13 C15 1.350 . S
C13 H22 0.930 . S
N14 C12 1.347 1_554 S
N14 C15 1.373 . S
C15 C13 1.350 . S
C15 N14 1.373 . S
C15 H29 0.931 . S
C16 O19 1.256 1_554 S
C16 O20 1.255 . S
O17 Co0 2.021 . S
O17 C10 1.259 1_565 S
O18 Co2 2.117 1_554 S
O18 C10 1.258 1_655 S
O19 Co2 2.020 1_565 S
O19 C16 1.256 1_556 S
O20 Co0 2.062 1_655 S
O20 C16 1.255 . S
O21 C1 1.269 . S
O21 Co2 2.021 . S
H22 C13 0.930 . S
H23 C12 0.931 . S
O24 Co0 2.117 1_556 S
O24 C1 1.251 1_465 S
O25 Co0 2.020 1_545 S
O25 C27 1.256 . S
O26 Co2 2.062 1_454 S
O26 C27 1.255 . S
C27 O25 1.256 . S
C27 O26 1.255 . S
H28 C7 0.931 . S
H29 C15 0.931 . S
Co30 N35 2.057 . S
Co30 O47 2.021 . S
Co30 O50 2.062 . S
Co30 O54 2.117 . S
Co30 O55 2.020 . S
C31 O51 1.259 . S
C31 O54 1.258 . S
Co32 N41 2.057 . S
Co32 O48 2.117 . S
Co32 O49 2.020 . S
Co32 O51 2.021 . S
Co32 O56 2.062 . S
C33 N35 1.316 . S
C33 N36 1.347 . S
C33 H38 0.931 . S
C34 N35 1.375 . S
C34 C37 1.350 . S
C34 H39 0.930 . S
N35 Co30 2.057 . S
N35 C33 1.316 . S
N35 C34 1.375 . S
N36 C33 1.347 . S
N36 C37 1.373 . S
C37 C34 1.350 . S
C37 N36 1.373 . S
C37 H58 0.931 . S
H38 C33 0.931 . S
H39 C34 0.930 . S
C40 O47 1.259 . S
C40 O48 1.258 . S
N41 Co32 2.057 . S
N41 C42 1.316 . S
N41 C43 1.375 . S
C42 N41 1.316 . S
C42 N44 1.347 . S
C42 H53 0.931 . S
C43 N41 1.375 . S
C43 C45 1.350 . S
C43 H52 0.930 . S
N44 C42 1.347 . S
N44 C45 1.373 . S
C45 C43 1.350 . S
C45 N44 1.373 . S
C45 H59 0.931 . S
C46 O49 1.256 . S
C46 O50 1.255 . S
O47 Co30 2.021 . S
O47 C40 1.259 . S
O48 Co32 2.117 . S
O48 C40 1.258 . S
O49 Co32 2.020 . S
O49 C46 1.256 . S
O50 Co30 2.062 . S
O50 C46 1.255 . S
O51 C31 1.259 . S
O51 Co32 2.021 . S
H52 C43 0.930 . S
H53 C42 0.931 . S
O54 Co30 2.117 . S
O54 C31 1.258 . S
O55 Co30 2.020 . S
O55 C57 1.256 . S
O56 Co32 2.062 . S
O56 C57 1.255 . S
C57 O55 1.256 . S
C57 O56 1.255 . S
H58 C37 0.931 . S
H59 C45 0.931 . S
H60 C65 0.929 . S
H61 C70 0.931 . S
H62 C68 0.930 1_655 S
N63 N64 1.234 . S
N63 C67 1.453 1_655 S
N64 N63 1.234 . S
C65 H60 0.929 . S
C65 C66 1.373 . S
C65 C67 1.368 1_565 S
C66 C65 1.373 . S
C66 C70 1.397 . S
C67 N63 1.453 1_455 S
C67 C65 1.368 1_545 S
C67 C68 1.373 . S
C68 H62 0.930 1_455 S
C68 C67 1.373 . S
C68 C69 1.371 1_545 S
C69 C68 1.371 1_565 S
C69 C70 1.383 . S
C70 H61 0.931 . S
C70 C66 1.397 . S
C70 C69 1.383 . S
H71 C76 0.929 . S
H72 C81 0.931 . S
H73 C79 0.930 . S
N74 N75 1.234 . S
N74 C78 1.453 . S
N75 N74 1.234 . S
C76 H71 0.929 . S
C76 C77 1.373 . S
C76 C78 1.368 1_665 S
C77 C76 1.373 . S
C77 C81 1.397 . S
C78 N74 1.453 . S
C78 C76 1.368 1_445 S
C78 C79 1.373 . S
C79 H73 0.930 . S
C79 C78 1.373 . S
C79 C80 1.371 1_445 S
C80 C79 1.371 1_665 S
C80 C81 1.383 . S
C81 H72 0.931 . S
C81 C77 1.397 . S
C81 C80 1.383 . S
H82 C87 0.929 1_554 S
H83 C92 0.931 . S
H84 C90 0.930 . S
N85 N86 1.240 . S
N85 C89 1.465 . S
N86 N85 1.240 . S
C87 H82 0.929 1_556 S
C87 C88 1.373 . S
C87 C89 1.368 . S
C88 C87 1.373 . S
C88 C92 1.397 . S
C89 N85 1.465 . S
C89 C87 1.368 . S
C89 C90 1.373 . S
C90 H84 0.930 . S
C90 C89 1.373 . S
C90 C91 1.371 . S
C91 C90 1.371 . S
C91 C92 1.383 . S
C92 H83 0.931 . S
C92 C88 1.397 . S
C92 C91 1.383 . S
H93 C98 0.929 1_556 S
H94 C103 0.931 . S
H95 C101 0.930 . S
N96 N97 1.234 . S
N96 C100 1.453 . S
N97 N96 1.234 . S
C98 H93 0.929 1_554 S
C98 C99 1.373 . S
C98 C100 1.368 . S
C99 C98 1.373 . S
C99 C103 1.397 . S
C100 N96 1.453 . S
C100 C98 1.368 . S
C100 C101 1.373 . S
C101 H95 0.930 . S
C101 C100 1.373 . S
C101 C102 1.371 . S
C102 C101 1.371 . S
C102 C103 1.383 . S
C103 H94 0.931 . S
C103 C99 1.397 . S
C103 C102 1.383 . S
C104 C105 1.363 . S
C104 C110 1.379 . S
C104 N112 1.356 . S
C105 C104 1.363 . S
C105 C111 1.363 1_554 S
C106 C107 1.363 1_556 S
C106 C111 1.379 . S
C106 N113 1.356 . S
C107 C106 1.363 1_554 S
C107 C110 1.363 . S
N108 C110 1.356 . S
N108 H120 0.984 . S
N108 H121 0.985 . S
N109 C111 1.356 . S
N109 H114 0.984 . S
N109 H115 0.985 . S
C110 C104 1.379 . S
C110 C107 1.363 . S
C110 N108 1.356 . S
C111 C105 1.363 1_556 S
C111 C106 1.379 . S
C111 N109 1.356 . S
N112 C104 1.356 . S
N112 H118 0.984 . S
N112 H119 0.984 . S
N113 C106 1.356 . S
N113 H116 0.984 . S
N113 H117 0.985 . S
H114 N109 0.984 . S
H115 N109 0.985 . S
H116 N113 0.984 . S
H117 N113 0.985 . S
H118 N112 0.984 . S
H119 N112 0.984 . S
H120 N108 0.984 . S
H121 N108 0.985 . S
C122 C123 1.363 1_556 S
C122 C128 1.379 . S
C122 N130 1.356 . S
C123 C122 1.363 1_554 S
C123 C129 1.363 . S
C124 C125 1.363 . S
C124 C129 1.379 . S
C124 N131 1.356 . S
C125 C124 1.363 . S
C125 C128 1.363 1_554 S
N126 C128 1.356 . S
N126 H138 0.984 . S
N126 H139 0.985 . S
N127 C129 1.356 . S
N127 H132 0.984 . S
N127 H133 0.985 . S
C128 C122 1.379 . S
C128 C125 1.363 1_556 S
C128 N126 1.356 . S
C129 C123 1.363 . S
C129 C124 1.379 . S
C129 N127 1.356 . S
N130 C122 1.356 . S
N130 H136 0.984 . S
N130 H137 0.984 . S
N131 C124 1.356 . S
N131 H134 0.984 . S
N131 H135 0.985 . S
H132 N127 0.984 . S
H133 N127 0.985 . S
H134 N131 0.984 . S
H135 N131 0.985 . S
H136 N130 0.984 . S
H137 N130 0.984 . S
H138 N126 0.984 . S
H139 N126 0.985 . S
C140 C141 1.363 1_556 S
C140 C146 1.379 . S
C140 N148 1.356 . S
C141 C140 1.363 1_554 S
C141 C147 1.363 . S
C142 C143 1.363 . S
C142 C147 1.379 . S
C142 N149 1.356 . S
C143 C142 1.363 . S
C143 C146 1.363 1_554 S
N144 C146 1.356 . S
N144 H156 0.984 . S
N144 H157 0.985 . S
N145 C147 1.356 . S
N145 H150 0.984 . S
N145 H151 0.985 . S
C146 C140 1.379 . S
C146 C143 1.363 1_556 S
C146 N144 1.356 . S
C147 C141 1.363 . S
C147 C142 1.379 . S
C147 N145 1.356 . S
N148 C140 1.356 . S
N148 H154 0.984 . S
N148 H155 0.984 . S
N149 C142 1.356 . S
N149 H152 0.984 . S
N149 H153 0.985 . S
H150 N145 0.984 . S
H151 N145 0.985 . S
H152 N149 0.984 . S
H153 N149 0.985 . S
H154 N148 0.984 . S
H155 N148 0.984 . S
H156 N144 0.984 . S
H157 N144 0.985 . S
C158 C159 1.363 . S
C158 C164 1.379 . S
C158 N166 1.356 . S
C159 C158 1.363 . S
C159 C165 1.363 1_556 S
C160 C161 1.363 1_554 S
C160 C165 1.379 . S
C160 N167 1.356 . S
C161 C160 1.363 1_556 S
C161 C164 1.363 . S
N162 C164 1.356 . S
N162 H174 0.984 . S
N162 H175 0.985 . S
N163 C165 1.356 . S
N163 H168 0.984 . S
N163 H169 0.985 . S
C164 C158 1.379 . S
C164 C161 1.363 . S
C164 N162 1.356 . S
C165 C159 1.363 1_554 S
C165 C160 1.379 . S
C165 N163 1.356 . S
N166 C158 1.356 . S
N166 H172 0.984 . S
N166 H173 0.984 . S
N167 C160 1.356 . S
N167 H170 0.984 . S
N167 H171 0.985 . S
H168 N163 0.984 . S
H169 N163 0.985 . S
H170 N167 0.984 . S
H171 N167 0.985 . S
H172 N166 0.984 . S
H173 N166 0.984 . S
H174 N162 0.984 . S
H175 N162 0.985 . S
C176 C177 1.363 . S
C176 C182 1.379 . S
C176 N184 1.356 . S
C177 C176 1.363 . S
C177 C183 1.363 . S
C178 C179 1.363 . S
C178 C183 1.379 . S
C178 N185 1.356 . S
C179 C178 1.363 . S
C179 C182 1.363 . S
N180 C182 1.356 . S
N180 H192 0.984 . S
N180 H193 0.985 . S
N181 C183 1.356 . S
N181 H186 0.984 . S
N181 H187 0.985 . S
C182 C176 1.379 . S
C182 C179 1.363 . S
C182 N180 1.356 . S
C183 C177 1.363 . S
C183 C178 1.379 . S
C183 N181 1.356 . S
N184 C176 1.356 . S
N184 H190 0.984 . S
N184 H191 0.984 . S
N185 C178 1.356 . S
N185 H188 0.984 . S
N185 H189 0.985 . S
H186 N181 0.984 . S
H187 N181 0.985 . S
H188 N185 0.984 . S
H189 N185 0.985 . S
H190 N184 0.984 . S
H191 N184 0.984 . S
H192 N180 0.984 . S
H193 N180 0.985 . S
C194 C195 1.363 . S
C194 C200 1.379 . S
C194 N202 1.356 . S
C195 C194 1.363 . S
C195 C201 1.363 . S
C196 C197 1.363 . S
C196 C201 1.379 . S
C196 N203 1.356 . S
C197 C196 1.363 . S
C197 C200 1.363 . S
N198 C200 1.356 . S
N198 H210 0.984 1_655 S
N198 H211 0.985 1_655 S
N199 C201 1.356 . S
N199 H204 0.984 . S
N199 H205 0.985 . S
C200 C194 1.379 . S
C200 C197 1.363 . S
C200 N198 1.356 . S
C201 C195 1.363 . S
C201 C196 1.379 . S
C201 N199 1.356 . S
N202 C194 1.356 . S
N202 H208 0.984 . S
N202 H209 0.984 . S
N203 C196 1.356 . S
N203 H206 0.984 . S
N203 H207 0.985 . S
H204 N199 0.984 . S
H205 N199 0.985 . S
H206 N203 0.984 . S
H207 N203 0.985 . S
H208 N202 0.984 . S
H209 N202 0.984 . S
H210 N198 0.984 1_455 S
H211 N198 0.985 1_455 S
C212 C213 1.363 . S
C212 C218 1.379 . S
C212 N220 1.356 . S
C213 C212 1.363 . S
C213 C219 1.363 . S
C214 C215 1.363 . S
C214 C219 1.379 . S
C214 N221 1.356 . S
C215 C214 1.363 . S
C215 C218 1.363 . S
N216 C218 1.356 . S
N216 H228 0.984 . S
N216 H229 0.985 . S
N217 C219 1.356 . S
N217 H222 0.984 . S
N217 H223 0.985 . S
C218 C212 1.379 . S
C218 C215 1.363 . S
C218 N216 1.356 . S
C219 C213 1.363 . S
C219 C214 1.379 . S
C219 N217 1.356 . S
N220 C212 1.356 . S
N220 H226 0.984 . S
N220 H227 0.984 . S
N221 C214 1.356 . S
N221 H224 0.984 . S
N221 H225 0.985 . S
H222 N217 0.984 . S
H223 N217 0.985 . S
H224 N221 0.984 . S
H225 N221 0.985 . S
H226 N220 0.984 . S
H227 N220 0.984 . S
H228 N216 0.984 . S
H229 N216 0.985 . S
C230 C231 1.363 . S
C230 C236 1.379 . S
C230 N238 1.356 . S
C231 C230 1.363 . S
C231 C237 1.363 . S
C232 C233 1.363 . S
C232 C237 1.379 . S
C232 N239 1.356 . S
C233 C232 1.363 . S
C233 C236 1.363 . S
N234 C236 1.356 . S
N234 H246 0.984 . S
N234 H247 0.985 . S
N235 C237 1.356 . S
N235 H240 0.984 . S
N235 H241 0.985 . S
C236 C230 1.379 . S
C236 C233 1.363 . S
C236 N234 1.356 . S
C237 C231 1.363 . S
C237 C232 1.379 . S
C237 N235 1.356 . S
N238 C230 1.356 . S
N238 H244 0.984 . S
N238 H245 0.984 . S
N239 C232 1.356 . S
N239 H242 0.984 . S
N239 H243 0.985 . S
H240 N235 0.984 . S
H241 N235 0.985 . S
H242 N239 0.984 . S
H243 N239 0.985 . S
H244 N238 0.984 . S
H245 N238 0.984 . S
H246 N234 0.984 . S
H247 N234 0.985 . S
C248 C249 1.359 1_665 S
C248 C254 1.379 . S
C248 N256 1.356 . S
C249 C248 1.359 1_445 S
C249 C255 1.366 . S
C250 C251 1.363 1_545 S
C250 C255 1.379 . S
C250 N257 1.356 . S
C251 C250 1.363 1_565 S
C251 C254 1.363 1_455 S
N252 C254 1.356 . S
N252 H264 0.984 . S
N252 H265 0.985 . S
N253 C255 1.356 . S
N253 H258 0.984 . S
N253 H259 0.985 . S
C254 C248 1.379 . S
C254 C251 1.363 1_655 S
C254 N252 1.356 . S
C255 C249 1.366 . S
C255 C250 1.379 . S
C255 N253 1.356 . S
N256 C248 1.356 . S
N256 H262 0.984 . S
N256 H263 0.984 . S
N257 C250 1.356 . S
N257 H260 0.984 . S
N257 H261 0.985 . S
H258 N253 0.984 . S
H259 N253 0.985 . S
H260 N257 0.984 . S
H261 N257 0.985 . S
H262 N256 0.984 . S
H263 N256 0.984 . S
H264 N252 0.984 . S
H265 N252 0.985 . S
C266 C267 1.363 . S
C266 C272 1.379 . S
C266 N274 1.356 . S
C267 C266 1.363 . S
C267 C273 1.363 1_645 S
C268 C269 1.363 1_455 S
C268 C273 1.379 . S
C268 N275 1.356 . S
C269 C268 1.363 1_655 S
C269 C272 1.363 1_565 S
N270 C272 1.356 . S
N270 H282 0.984 . S
N270 H283 0.985 . S
N271 C273 1.356 . S
N271 H276 0.984 . S
N271 H277 0.985 . S
C272 C266 1.379 . S
C272 C269 1.363 1_545 S
C272 N270 1.356 . S
C273 C267 1.363 1_465 S
C273 C268 1.379 . S
C273 N271 1.356 . S
N274 C266 1.356 . S
N274 H280 0.984 . S
N274 H281 0.984 . S
N275 C268 1.356 . S
N275 H278 0.984 . S
N275 H279 0.985 . S
H276 N271 0.984 . S
H277 N271 0.985 . S
H278 N275 0.984 . S
H279 N275 0.985 . S
H280 N274 0.984 . S
H281 N274 0.984 . S
H282 N270 0.984 . S
H283 N270 0.985 . S
C284 C285 1.363 . S
C284 C290 1.379 . S
C284 N292 1.356 . S
C285 C284 1.363 . S
C285 C291 1.363 . S
C286 C287 1.363 . S
C286 C291 1.379 . S
C286 N293 1.356 . S
C287 C286 1.363 . S
C287 C290 1.363 . S
N288 C290 1.356 . S
N288 H300 0.984 . S
N288 H301 0.985 . S
N289 C291 1.356 . S
N289 H294 0.984 . S
N289 H295 0.985 . S
C290 C284 1.379 . S
C290 C287 1.363 . S
C290 N288 1.356 . S
C291 C285 1.363 . S
C291 C286 1.379 . S
C291 N289 1.356 . S
N292 C284 1.356 . S
N292 H298 0.984 . S
N292 H299 0.984 . S
N293 C286 1.356 . S
N293 H296 0.984 . S
N293 H297 0.985 . S
H294 N289 0.984 . S
H295 N289 0.985 . S
H296 N293 0.984 . S
H297 N293 0.985 . S
H298 N292 0.984 . S
H299 N292 0.984 . S
H300 N288 0.984 . S
H301 N288 0.985 . S
C302 C303 1.363 . S
C302 C308 1.379 . S
C302 N310 1.356 . S
C303 C302 1.363 . S
C303 C309 1.363 . S
C304 C305 1.363 . S
C304 C309 1.379 . S
C304 N311 1.356 . S
C305 C304 1.363 . S
C305 C308 1.363 . S
N306 C308 1.356 . S
N306 H318 0.984 . S
N306 H319 0.985 . S
N307 C309 1.356 . S
N307 H312 0.984 . S
N307 H313 0.985 . S
C308 C302 1.379 . S
C308 C305 1.363 . S
C308 N306 1.356 . S
C309 C303 1.363 . S
C309 C304 1.379 . S
C309 N307 1.356 . S
N310 C302 1.356 . S
N310 H316 0.984 . S
N310 H317 0.984 . S
N311 C304 1.356 . S
N311 H314 0.984 . S
N311 H315 0.985 . S
H312 N307 0.984 . S
H313 N307 0.985 . S
H314 N311 0.984 . S
H315 N311 0.985 . S
H316 N310 0.984 . S
H317 N310 0.984 . S
H318 N306 0.984 . S
H319 N306 0.985 . S
C107 C99 1.472 . S
C105 C27 1.501 . S
C123 N6 1.399 . S
C125 N86 1.421 1_554 S
C141 C16 1.476 . S
C143 N97 1.424 . S
C159 N14 1.450 1_556 S
C161 C88 1.451 . S
C177 C57 1.501 . S
C179 C77 1.472 . S
C195 N36 1.399 . S
C197 N64 1.421 . S
C215 N75 1.424 . S
C213 C46 1.476 . S
C233 C66 1.451 . S
C231 N44 1.450 . S
C249 C10 1.472 . S
C251 C69 1.471 . S
C267 C1 1.544 . S
C269 C80 1.542 . S
C287 C91 1.471 . S
C285 C40 1.472 . S
C303 C31 1.545 . S
C305 C102 1.542 . S
