# Generated by pormake.
# Topology pto, (3,4)-cn, num edge types: 1
# Building blocks:
#     Node 0, Type 0, BuildingBlock: BELTOD_clean_linker_0, # of connection points: 3
#     Node 1, Type 0, BuildingBlock: BELTOD_clean_linker_0, # of connection points: 3
#     Node 2, Type 0, BuildingBlock: BELTOD_clean_linker_0, # of connection points: 3
#     Node 3, Type 0, BuildingBlock: BELTOD_clean_linker_0, # of connection points: 3
#     Node 4, Type 0, BuildingBlock: BELTOD_clean_linker_0, # of connection points: 3
#     Node 5, Type 0, BuildingBlock: BELTOD_clean_linker_0, # of connection points: 3
#     Node 6, Type 0, BuildingBlock: BELTOD_clean_linker_0, # of connection points: 3
#     Node 7, Type 0, BuildingBlock: BELTOD_clean_linker_0, # of connection points: 3
#     Node 8, Type 1, BuildingBlock: NAWXER_clean_sbu_0, # of connection points: 4
#     Node 9, Type 1, BuildingBlock: NAWXER_clean_sbu_0, # of connection points: 4
#     Node 10, Type 1, BuildingBlock: NAWXER_clean_sbu_0, # of connection points: 4
#     Node 11, Type 1, BuildingBlock: NAWXER_clean_sbu_0, # of connection points: 4
#     Node 12, Type 1, BuildingBlock: NAWXER_clean_sbu_0, # of connection points: 4
#     Node 13, Type 1, BuildingBlock: NAWXER_clean_sbu_0, # of connection points: 4
#     Edge 14, Type (0, 1), None
#     Edge 15, Type (0, 1), None
#     Edge 16, Type (0, 1), None
#     Edge 17, Type (0, 1), None
#     Edge 18, Type (0, 1), None
#     Edge 19, Type (0, 1), None
#     Edge 20, Type (0, 1), None
#     Edge 21, Type (0, 1), None
#     Edge 22, Type (0, 1), None
#     Edge 23, Type (0, 1), None
#     Edge 24, Type (0, 1), None
#     Edge 25, Type (0, 1), None
#     Edge 26, Type (0, 1), None
#     Edge 27, Type (0, 1), None
#     Edge 28, Type (0, 1), None
#     Edge 29, Type (0, 1), None
#     Edge 30, Type (0, 1), None
#     Edge 31, Type (0, 1), None
#     Edge 32, Type (0, 1), None
#     Edge 33, Type (0, 1), None
#     Edge 34, Type (0, 1), None
#     Edge 35, Type (0, 1), None
#     Edge 36, Type (0, 1), None
#     Edge 37, Type (0, 1), None
# Relax obj value: 0.000
# Max RMSD: 0.005
# Mean RMSD: 0.004
data_MOF--net-pto--node1-NAWXER_clean_sbu_0--node2-BELTOD_clean_linker_0--edge1-none
_symmetry_space_group_name_H-M    P1
_symmetry_Int_Tables_number       1
_symmetry_cell_setting            triclinic
loop_
_symmetry_equiv_pos_as_xyz
'x, y, z'
_cell_length_a     24.610131
_cell_length_b     23.271232
_cell_length_c     21.913187
_cell_angle_alpha  89.232726
_cell_angle_beta   91.375634
_cell_angle_gamma 92.188826
loop_
_atom_site_label
_atom_site_type_symbol
_atom_site_fract_x
_atom_site_fract_y
_atom_site_fract_z
_atom_type_partial_charge
P0 P 0.2691 0.32451 0.34399 0.0
H1 H 0.35964 0.40624 0.31472 0.0
H2 H 0.4228 0.41276 0.22909 0.0
H3 H 0.33611 0.26895 0.14423 0.0
H4 H 0.27272 0.26388 0.22805 0.0
H5 H 0.21222 0.40316 0.42225 0.0
H6 H 0.13573 0.4659 0.40205 0.0
H7 H 0.11944 0.39937 0.21896 0.0
H8 H 0.19509 0.33709 0.23959 0.0
H9 H 0.32725 0.21976 0.3268 0.0
H10 H 0.17178 0.26445 0.39536 0.0
O11 O 0.30358 0.34835 0.40569 0.0
H12 H 0.30976 0.12049 0.35697 0.0
H13 H 0.15488 0.16406 0.42878 0.0
C14 C 0.31262 0.33321 0.27879 0.0
C15 C 0.3541 0.37646 0.27735 0.0
C16 C 0.38996 0.38042 0.22836 0.0
C17 C 0.38493 0.34074 0.18062 0.0
C18 C 0.34161 0.2995 0.18097 0.0
C19 C 0.30538 0.2964 0.229 0.0
C20 C 0.21007 0.36664 0.33178 0.0
C21 C 0.19188 0.402 0.3779 0.0
C22 C 0.14803 0.4376 0.36649 0.0
C23 C 0.12208 0.43821 0.3087 0.0
C24 C 0.13906 0.4006 0.26373 0.0
C25 C 0.18243 0.36494 0.27534 0.0
C26 C 0.25046 0.24959 0.3575 0.0
C27 C 0.28849 0.20798 0.34669 0.0
C28 C 0.2784 0.15095 0.36429 0.0
C29 C 0.23079 0.1342 0.39526 0.0
C30 C 0.19142 0.17533 0.40404 0.0
C31 C 0.20135 0.23282 0.38543 0.0
P32 P 0.26376 0.68703 0.7103 0.0
H33 H 0.14815 0.71096 0.71982 0.0
H34 H 0.07518 0.65707 0.76921 0.0
H35 H 0.19156 0.55141 0.86272 0.0
H36 H 0.2655 0.60755 0.81561 0.0
H37 H 0.27614 0.71691 0.58181 0.0
H38 H 0.25925 0.80363 0.52156 0.0
H39 H 0.19649 0.88435 0.6797 0.0
H40 H 0.21434 0.79712 0.74096 0.0
H41 H 0.34722 0.60714 0.74914 0.0
H42 H 0.32229 0.78922 0.7586 0.0
O43 O 0.26909 0.63283 0.66194 0.0
H44 H 0.4301 0.61902 0.81285 0.0
H45 H 0.40522 0.80177 0.81974 0.0
C46 C 0.21276 0.66392 0.76397 0.0
C47 C 0.15875 0.67905 0.75392 0.0
C48 C 0.11678 0.64819 0.78256 0.0
C49 C 0.12792 0.60027 0.81983 0.0
C50 C 0.18202 0.58893 0.83528 0.0
C51 C 0.2243 0.6207 0.8074 0.0
C52 C 0.24575 0.74999 0.66577 0.0
C53 C 0.25758 0.75251 0.60354 0.0
C54 C 0.24744 0.8019 0.56891 0.0
C55 C 0.22492 0.84974 0.59561 0.0
C56 C 0.21203 0.84717 0.65767 0.0
C57 C 0.22277 0.79766 0.69268 0.0
C58 C 0.32857 0.69735 0.74915 0.0
C59 C 0.36012 0.64983 0.76394 0.0
C60 C 0.4075 0.65658 0.80021 0.0
C61 C 0.42442 0.71124 0.82123 0.0
C62 C 0.39373 0.75899 0.80397 0.0
C63 C 0.34598 0.75197 0.76893 0.0
P64 P 0.76331 0.79683 0.22844 0.0
H65 H 0.84369 0.86434 0.2948 0.0
H66 H 0.83959 0.93452 0.37481 0.0
H67 H 0.66678 0.89779 0.38995 0.0
H68 H 0.67178 0.8254 0.30965 0.0
H69 H 0.82929 0.74029 0.14202 0.0
H70 H 0.90067 0.67132 0.15236 0.0
H71 H 0.88007 0.66545 0.34785 0.0
H72 H 0.8076 0.73495 0.3367 0.0
H73 H 0.6607 0.84925 0.20193 0.0
H74 H 0.72931 0.68363 0.17634 0.0
O75 O 0.78779 0.84235 0.17544 0.0
H76 H 0.58829 0.82474 0.12908 0.0
H77 H 0.65769 0.65995 0.10018 0.0
C78 C 0.75814 0.84007 0.29562 0.0
C79 C 0.80498 0.87059 0.31583 0.0
C80 C 0.80234 0.91119 0.36154 0.0
C81 C 0.75252 0.92273 0.38829 0.0
C82 C 0.70558 0.89058 0.36964 0.0
C83 C 0.70846 0.84916 0.32374 0.0
C84 C 0.81354 0.74305 0.23855 0.0
C85 C 0.84001 0.72414 0.18714 0.0
C86 C 0.88094 0.68463 0.19323 0.0
C87 C 0.89651 0.66314 0.25107 0.0
C88 C 0.86934 0.68154 0.30273 0.0
C89 C 0.82785 0.72109 0.29643 0.0
C90 C 0.70032 0.76828 0.19549 0.0
C91 C 0.65887 0.80647 0.18298 0.0
C92 C 0.61777 0.79261 0.14041 0.0
C93 C 0.61802 0.74083 0.10806 0.0
C94 C 0.65647 0.70007 0.12452 0.0
C95 C 0.69758 0.71385 0.16801 0.0
P96 P 0.73358 0.25316 0.83057 0.0
H97 H 0.61681 0.23474 0.80734 0.0
H98 H 0.53969 0.27362 0.85743 0.0
H99 H 0.64587 0.39952 0.94706 0.0
H100 H 0.72309 0.36262 0.8938 0.0
H101 H 0.79918 0.16074 0.79418 0.0
H102 H 0.80384 0.10426 0.70181 0.0
H103 H 0.66797 0.19323 0.62277 0.0
H104 H 0.66531 0.25258 0.71499 0.0
H105 H 0.81503 0.28814 0.9245 0.0
H106 H 0.78519 0.31776 0.73212 0.0
O107 O 0.73948 0.20775 0.88973 0.0
H108 H 0.89826 0.34956 0.92038 0.0
H109 H 0.86781 0.37793 0.72721 0.0
C110 C 0.67593 0.29605 0.84568 0.0
C111 C 0.62336 0.27324 0.83409 0.0
C112 C 0.57911 0.29557 0.86311 0.0
C113 C 0.58685 0.33952 0.90637 0.0
C114 C 0.6385 0.36645 0.9132 0.0
C115 C 0.68284 0.3447 0.88307 0.0
C116 C 0.73097 0.2098 0.76248 0.0
C117 C 0.76995 0.16795 0.75738 0.0
C118 C 0.77272 0.13581 0.70441 0.0
C119 C 0.73595 0.14403 0.65536 0.0
C120 C 0.69621 0.18546 0.66038 0.0
C121 C 0.69448 0.21909 0.71323 0.0
C122 C 0.79462 0.29781 0.82829 0.0
C123 C 0.82669 0.30747 0.8813 0.0
C124 C 0.87416 0.34253 0.87896 0.0
C125 C 0.89006 0.36811 0.82343 0.0
C126 C 0.85727 0.35841 0.7707 0.0
C127 C 0.80984 0.324 0.77328 0.0
P128 P 0.848 0.78859 0.78086 0.0
H129 H 0.79235 0.87971 0.84056 0.0
H130 H 0.70048 0.88651 0.88035 0.0
H131 H 0.66216 0.71263 0.82247 0.0
H132 H 0.753 0.70685 0.78126 0.0
H133 H 0.89783 0.74106 0.67137 0.0
H134 H 0.93772 0.64783 0.6536 0.0
H135 H 0.88062 0.5869 0.82863 0.0
H136 H 0.84189 0.67971 0.84636 0.0
H137 H 0.77712 0.80266 0.67509 0.0
H138 H 0.92529 0.883 0.74777 0.0
O139 O 0.89175 0.81138 0.83547 0.0
H140 H 0.77109 0.87856 0.59787 0.0
H141 H 0.91988 0.95932 0.66948 0.0
C142 C 0.78018 0.79207 0.80993 0.0
C143 C 0.76404 0.8431 0.83648 0.0
C144 C 0.71139 0.84721 0.85856 0.0
C145 C 0.6742 0.80003 0.85487 0.0
C146 C 0.69008 0.74959 0.82648 0.0
C147 C 0.74233 0.74594 0.80348 0.0
C148 C 0.86641 0.7172 0.76014 0.0
C149 C 0.89255 0.70706 0.70512 0.0
C150 C 0.91513 0.65362 0.69474 0.0
C151 C 0.91241 0.61004 0.73968 0.0
C152 C 0.88351 0.61959 0.79306 0.0
C153 C 0.86118 0.67267 0.80331 0.0
C154 C 0.85098 0.83799 0.71755 0.0
C155 C 0.80881 0.83624 0.67373 0.0
C156 C 0.80537 0.87976 0.62986 0.0
C157 C 0.84456 0.92531 0.6286 0.0
C158 C 0.88909 0.9248 0.6698 0.0
C159 C 0.8921 0.88135 0.71444 0.0
P160 P 0.80863 0.24227 0.18358 0.0
H161 H 0.87251 0.30129 0.08794 0.0
H162 H 0.92954 0.39024 0.08798 0.0
H163 H 0.87949 0.42394 0.27145 0.0
H164 H 0.82298 0.33576 0.27082 0.0
H165 H 0.8982 0.19133 0.25287 0.0
H166 H 0.90366 0.14561 0.35439 0.0
H167 H 0.73696 0.18752 0.38459 0.0
H168 H 0.73206 0.23338 0.2844 0.0
H169 H 0.73109 0.33491 0.18389 0.0
H170 H 0.72901 0.15502 0.13933 0.0
O171 O 0.83815 0.19733 0.13701 0.0
H172 H 0.6348 0.33831 0.15647 0.0
H173 H 0.63201 0.15799 0.11098 0.0
C174 C 0.84451 0.3113 0.17993 0.0
C175 C 0.87353 0.32824 0.12788 0.0
C176 C 0.90601 0.37916 0.12788 0.0
C177 C 0.9098 0.41382 0.18003 0.0
C178 C 0.87821 0.39797 0.23075 0.0
C179 C 0.84578 0.34741 0.23056 0.0
C180 C 0.8142 0.21391 0.26027 0.0
C181 C 0.86309 0.19105 0.28176 0.0
C182 C 0.86634 0.16553 0.33994 0.0
C183 C 0.82055 0.1625 0.37715 0.0
C184 C 0.77277 0.18866 0.35671 0.0
C185 C 0.76977 0.21452 0.29903 0.0
C186 C 0.73766 0.24529 0.16153 0.0
C187 C 0.70997 0.29617 0.16779 0.0
C188 C 0.65457 0.29775 0.15269 0.0
C189 C 0.62551 0.24834 0.13129 0.0
C190 C 0.65297 0.19669 0.12752 0.0
C191 C 0.70858 0.1952 0.1428 0.0
P192 P 0.29338 0.28118 0.72423 0.0
H193 H 0.38094 0.2316 0.65691 0.0
H194 H 0.38763 0.14045 0.60315 0.0
H195 H 0.22376 0.09206 0.65559 0.0
H196 H 0.21738 0.18314 0.70831 0.0
H197 H 0.2358 0.34717 0.6295 0.0
H198 H 0.15032 0.39842 0.62953 0.0
H199 H 0.11753 0.32859 0.80914 0.0
H200 H 0.20215 0.27742 0.80844 0.0
H201 H 0.33461 0.18046 0.79324 0.0
H202 H 0.30383 0.35849 0.82692 0.0
O203 O 0.33603 0.32972 0.6925 0.0
H204 H 0.38071 0.17272 0.89246 0.0
H205 H 0.34915 0.35074 0.92666 0.0
C206 C 0.2977 0.21492 0.68401 0.0
C207 C 0.34642 0.20131 0.65641 0.0
C208 C 0.35067 0.1488 0.62684 0.0
C209 C 0.30624 0.10918 0.62498 0.0
C210 C 0.25866 0.12188 0.65588 0.0
C211 C 0.25453 0.17423 0.68529 0.0
C212 C 0.22604 0.30974 0.71968 0.0
C213 C 0.20962 0.34217 0.66838 0.0
C214 C 0.16061 0.37121 0.66826 0.0
C215 C 0.12745 0.36828 0.71965 0.0
C216 C 0.14243 0.3324 0.76907 0.0
C217 C 0.19101 0.30314 0.76888 0.0
C218 C 0.31633 0.27053 0.80218 0.0
C219 C 0.33652 0.21764 0.82236 0.0
C220 C 0.36263 0.21296 0.87956 0.0
C221 C 0.36914 0.26118 0.9172 0.0
C222 C 0.34521 0.31279 0.89856 0.0
C223 C 0.31929 0.31742 0.84148 0.0
P224 P 0.30451 0.76073 0.20033 0.0
H225 H 0.39482 0.84507 0.19451 0.0
H226 H 0.45689 0.87112 0.11302 0.0
H227 H 0.35239 0.77852 0.98467 0.0
H228 H 0.28844 0.75498 0.06535 0.0
H229 H 0.37211 0.77319 0.3121 0.0
H230 H 0.37537 0.84435 0.39372 0.0
H231 H 0.24466 0.93317 0.30334 0.0
H232 H 0.24309 0.86338 0.22051 0.0
H233 H 0.26322 0.67199 0.11481 0.0
H234 H 0.19927 0.76872 0.2617 0.0
O235 O 0.34456 0.70729 0.22122 0.0
H236 H 0.17742 0.61574 0.10687 0.0
H237 H 0.11501 0.71135 0.25543 0.0
C238 C 0.33699 0.79702 0.13668 0.0
C239 C 0.38334 0.83283 0.14837 0.0
C240 C 0.41885 0.84834 0.10161 0.0
C241 C 0.40908 0.82718 0.04274 0.0
C242 C 0.36026 0.79599 0.02977 0.0
C243 C 0.32413 0.78151 0.07632 0.0
C244 C 0.30579 0.81184 0.2615 0.0
C245 C 0.34411 0.80794 0.3098 0.0
C246 C 0.34658 0.849 0.35596 0.0
C247 C 0.3102 0.89394 0.35469 0.0
C248 C 0.27298 0.89863 0.30538 0.0
C249 C 0.27161 0.85856 0.25849 0.0
C250 C 0.23743 0.72722 0.1866 0.0
C251 C 0.23009 0.6833 0.14334 0.0
C252 C 0.18107 0.65054 0.13923 0.0
C253 C 0.13918 0.65949 0.18008 0.0
C254 C 0.14628 0.70382 0.22281 0.0
C255 C 0.19472 0.73722 0.22603 0.0
C256 C 0.94888 0.46395 0.1843 0.0
C257 C 0.09173 0.61842 0.18433 0.0
O258 O 0.95926 0.48612 0.23674 0.0
Zn259 Zn 0.01097 0.55197 0.27731 0.0
O260 O 0.97421 0.48351 0.13796 0.0
Zn261 Zn 0.01893 0.54222 0.18058 0.0
O262 O 0.0692 0.48975 0.23629 0.0
O263 O 0.05581 0.50725 0.33341 0.0
O264 O 0.07387 0.58991 0.13841 0.0
O265 O 0.071 0.60849 0.2367 0.0
O266 O 0.95855 0.60415 0.30773 0.0
O267 O 0.96001 0.60178 0.2071 0.0
C268 C 0.08002 0.47992 0.2928 0.0
C269 C 0.94039 0.62132 0.25607 0.0
C270 C 0.93922 0.40639 0.81929 0.0
C271 C 0.08668 0.5532 0.81998 0.0
O272 O 0.96575 0.42364 0.86667 0.0
Zn273 Zn 0.01676 0.47608 0.82542 0.0
O274 O 0.95336 0.42473 0.76645 0.0
Zn275 Zn 0.01092 0.48162 0.72542 0.0
O276 O 0.05903 0.43209 0.68059 0.0
O277 O 0.06818 0.42045 0.78024 0.0
O278 O 0.06753 0.53829 0.7677 0.0
O279 O 0.07054 0.52721 0.86822 0.0
O280 O 0.96331 0.53812 0.78861 0.0
O281 O 0.96393 0.53951 0.68772 0.0
C282 C 0.08173 0.40749 0.72627 0.0
C283 C 0.94671 0.55918 0.73753 0.0
C284 C 0.22715 0.90477 0.56166 0.0
C285 C 0.22948 0.07806 0.42809 0.0
O286 O 0.18465 0.9293 0.5419 0.0
Zn287 Zn 0.22158 0.99109 0.49389 0.0
O288 O 0.27417 0.92518 0.54771 0.0
Zn289 Zn 0.31082 0.99307 0.49762 0.0
O290 O 0.34751 0.04139 0.55964 0.0
O291 O 0.25796 0.04288 0.56225 0.0
O292 O 0.27544 0.05803 0.44382 0.0
O293 O 0.18575 0.05285 0.44654 0.0
O294 O 0.25891 0.94495 0.42412 0.0
O295 O 0.34851 0.95039 0.43708 0.0
C296 C 0.30467 0.0603 0.58264 0.0
C297 C 0.30637 0.93214 0.40724 0.0
C298 C 0.58533 0.73646 0.05079 0.0
C299 C 0.47025 0.71913 0.86562 0.0
O300 O 0.56905 0.68865 0.02774 0.0
Zn301 Zn 0.53256 0.722 0.95504 0.0
O302 O 0.57574 0.78345 0.02243 0.0
Zn303 Zn 0.53713 0.81521 0.94302 0.0
O304 O 0.48345 0.86219 0.98135 0.0
O305 O 0.47037 0.7683 0.99627 0.0
O306 O 0.48665 0.77054 0.87837 0.0
O307 O 0.48855 0.67701 0.89659 0.0
O308 O 0.59954 0.75281 0.9037 0.0
O309 O 0.59868 0.84742 0.89733 0.0
C310 C 0.45548 0.81982 0.00324 0.0
C311 C 0.62115 0.80064 0.88534 0.0
C312 C 0.83556 0.97442 0.58713 0.0
C313 C 0.81935 0.1257 0.43261 0.0
O314 O 0.78644 0.98502 0.57132 0.0
Zn315 Zn 0.7425 0.0421 0.5131 0.0
O316 O 0.87491 1.00539 0.56639 0.0
Zn317 Zn 0.83016 0.05398 0.51502 0.0
O318 O 0.79056 0.10132 0.58201 0.0
O319 O 0.70176 0.08717 0.57074 0.0
O320 O 0.86291 0.11034 0.45949 0.0
O321 O 0.77345 0.10394 0.44948 0.0
O322 O 0.70771 0.98482 0.45782 0.0
O323 O 0.79722 0.99143 0.45288 0.0
C324 C 0.74233 0.11066 0.59909 0.0
C325 C 0.75165 0.96822 0.43513 0.0
C326 C 0.56947 0.25378 0.10574 0.0
C327 C 0.40802 0.26159 0.96975 0.0
O328 O 0.54045 0.21035 0.08802 0.0
Zn329 Zn 0.48321 0.252 0.0441 0.0
O330 O 0.5532 0.30435 0.09404 0.0
Zn331 Zn 0.49025 0.34604 0.04626 0.0
O332 O 0.44988 0.38317 0.11062 0.0
O333 O 0.43588 0.28892 0.11109 0.0
O334 O 0.42735 0.31046 0.98802 0.0
O335 O 0.42792 0.21542 0.99111 0.0
O336 O 0.53026 0.29176 0.97576 0.0
O337 O 0.53588 0.38635 0.98411 0.0
C338 C 0.42588 0.33822 0.13239 0.0
C339 C 0.54778 0.34076 0.95626 0.0
loop_
_geom_bond_atom_site_label_1
_geom_bond_atom_site_label_2
_geom_bond_distance
_geom_bond_site_symmetry_2
_ccdc_geom_bond_type
P0 O11 1.490 . S
P0 C14 1.812 . S
P0 C20 1.803 . S
P0 C26 1.819 . S
H1 C15 0.941 . S
H2 C16 0.939 . S
H3 C18 0.940 . S
H4 C19 0.940 . S
H5 C21 0.939 . S
H6 C22 0.942 . S
H7 C24 0.940 . S
H8 C25 0.939 . S
H9 C27 0.941 . S
H10 C31 0.939 . S
O11 P0 1.490 . S
H12 C28 0.939 . S
H13 C30 0.940 . S
C14 P0 1.812 . S
C14 C15 1.389 . S
C14 C19 1.391 . S
C15 H1 0.941 . S
C15 C14 1.389 . S
C15 C16 1.397 . S
C16 H2 0.939 . S
C16 C15 1.397 . S
C16 C17 1.378 . S
C17 C16 1.378 . S
C17 C18 1.378 . S
C18 H3 0.940 . S
C18 C17 1.378 . S
C18 C19 1.396 . S
C19 H4 0.940 . S
C19 C14 1.391 . S
C19 C18 1.396 . S
C20 P0 1.803 . S
C20 C21 1.378 . S
C20 C25 1.400 . S
C21 H5 0.939 . S
C21 C20 1.378 . S
C21 C22 1.361 . S
C22 H6 0.942 . S
C22 C21 1.361 . S
C22 C23 1.369 . S
C23 C22 1.369 . S
C23 C24 1.404 . S
C24 H7 0.940 . S
C24 C23 1.404 . S
C24 C25 1.389 . S
C25 H8 0.939 . S
C25 C20 1.400 . S
C25 C24 1.389 . S
C26 P0 1.819 . S
C26 C27 1.391 . S
C26 C31 1.391 . S
C27 H9 0.941 . S
C27 C26 1.391 . S
C27 C28 1.396 . S
C28 H12 0.939 . S
C28 C27 1.396 . S
C28 C29 1.397 . S
C29 C28 1.397 . S
C29 C30 1.385 . S
C30 H13 0.940 . S
C30 C29 1.385 . S
C30 C31 1.388 . S
C31 H10 0.939 . S
C31 C26 1.391 . S
C31 C30 1.388 . S
P32 O43 1.490 . S
P32 C46 1.812 . S
P32 C52 1.803 . S
P32 C58 1.819 . S
H33 C47 0.941 . S
H34 C48 0.939 . S
H35 C50 0.940 . S
H36 C51 0.940 . S
H37 C53 0.939 . S
H38 C54 0.942 . S
H39 C56 0.940 . S
H40 C57 0.939 . S
H41 C59 0.941 . S
H42 C63 0.939 . S
O43 P32 1.490 . S
H44 C60 0.939 . S
H45 C62 0.940 . S
C46 P32 1.812 . S
C46 C47 1.389 . S
C46 C51 1.391 . S
C47 H33 0.941 . S
C47 C46 1.389 . S
C47 C48 1.397 . S
C48 H34 0.939 . S
C48 C47 1.397 . S
C48 C49 1.378 . S
C49 C48 1.378 . S
C49 C50 1.378 . S
C50 H35 0.940 . S
C50 C49 1.378 . S
C50 C51 1.396 . S
C51 H36 0.940 . S
C51 C46 1.391 . S
C51 C50 1.396 . S
C52 P32 1.803 . S
C52 C53 1.378 . S
C52 C57 1.400 . S
C53 H37 0.939 . S
C53 C52 1.378 . S
C53 C54 1.361 . S
C54 H38 0.942 . S
C54 C53 1.361 . S
C54 C55 1.369 . S
C55 C54 1.369 . S
C55 C56 1.404 . S
C56 H39 0.940 . S
C56 C55 1.404 . S
C56 C57 1.389 . S
C57 H40 0.939 . S
C57 C52 1.400 . S
C57 C56 1.389 . S
C58 P32 1.819 . S
C58 C59 1.391 . S
C58 C63 1.391 . S
C59 H41 0.941 . S
C59 C58 1.391 . S
C59 C60 1.396 . S
C60 H44 0.939 . S
C60 C59 1.396 . S
C60 C61 1.397 . S
C61 C60 1.397 . S
C61 C62 1.385 . S
C62 H45 0.940 . S
C62 C61 1.385 . S
C62 C63 1.388 . S
C63 H42 0.939 . S
C63 C58 1.391 . S
C63 C62 1.388 . S
P64 O75 1.490 . S
P64 C78 1.812 . S
P64 C84 1.803 . S
P64 C90 1.819 . S
H65 C79 0.941 . S
H66 C80 0.939 . S
H67 C82 0.940 . S
H68 C83 0.940 . S
H69 C85 0.939 . S
H70 C86 0.942 . S
H71 C88 0.940 . S
H72 C89 0.939 . S
H73 C91 0.941 . S
H74 C95 0.939 . S
O75 P64 1.490 . S
H76 C92 0.939 . S
H77 C94 0.940 . S
C78 P64 1.812 . S
C78 C79 1.389 . S
C78 C83 1.391 . S
C79 H65 0.941 . S
C79 C78 1.389 . S
C79 C80 1.397 . S
C80 H66 0.939 . S
C80 C79 1.397 . S
C80 C81 1.378 . S
C81 C80 1.378 . S
C81 C82 1.378 . S
C82 H67 0.940 . S
C82 C81 1.378 . S
C82 C83 1.396 . S
C83 H68 0.940 . S
C83 C78 1.391 . S
C83 C82 1.396 . S
C84 P64 1.803 . S
C84 C85 1.378 . S
C84 C89 1.400 . S
C85 H69 0.939 . S
C85 C84 1.378 . S
C85 C86 1.361 . S
C86 H70 0.942 . S
C86 C85 1.361 . S
C86 C87 1.369 . S
C87 C86 1.369 . S
C87 C88 1.404 . S
C88 H71 0.940 . S
C88 C87 1.404 . S
C88 C89 1.389 . S
C89 H72 0.939 . S
C89 C84 1.400 . S
C89 C88 1.389 . S
C90 P64 1.819 . S
C90 C91 1.391 . S
C90 C95 1.391 . S
C91 H73 0.941 . S
C91 C90 1.391 . S
C91 C92 1.396 . S
C92 H76 0.939 . S
C92 C91 1.396 . S
C92 C93 1.397 . S
C93 C92 1.397 . S
C93 C94 1.385 . S
C94 H77 0.940 . S
C94 C93 1.385 . S
C94 C95 1.388 . S
C95 H74 0.939 . S
C95 C90 1.391 . S
C95 C94 1.388 . S
P96 O107 1.490 . S
P96 C110 1.812 . S
P96 C116 1.803 . S
P96 C122 1.819 . S
H97 C111 0.941 . S
H98 C112 0.939 . S
H99 C114 0.940 . S
H100 C115 0.940 . S
H101 C117 0.939 . S
H102 C118 0.942 . S
H103 C120 0.940 . S
H104 C121 0.939 . S
H105 C123 0.941 . S
H106 C127 0.939 . S
O107 P96 1.490 . S
H108 C124 0.939 . S
H109 C126 0.940 . S
C110 P96 1.812 . S
C110 C111 1.389 . S
C110 C115 1.391 . S
C111 H97 0.941 . S
C111 C110 1.389 . S
C111 C112 1.397 . S
C112 H98 0.939 . S
C112 C111 1.397 . S
C112 C113 1.378 . S
C113 C112 1.378 . S
C113 C114 1.378 . S
C114 H99 0.940 . S
C114 C113 1.378 . S
C114 C115 1.396 . S
C115 H100 0.940 . S
C115 C110 1.391 . S
C115 C114 1.396 . S
C116 P96 1.803 . S
C116 C117 1.378 . S
C116 C121 1.400 . S
C117 H101 0.939 . S
C117 C116 1.378 . S
C117 C118 1.361 . S
C118 H102 0.942 . S
C118 C117 1.361 . S
C118 C119 1.369 . S
C119 C118 1.369 . S
C119 C120 1.404 . S
C120 H103 0.940 . S
C120 C119 1.404 . S
C120 C121 1.389 . S
C121 H104 0.939 . S
C121 C116 1.400 . S
C121 C120 1.389 . S
C122 P96 1.819 . S
C122 C123 1.391 . S
C122 C127 1.391 . S
C123 H105 0.941 . S
C123 C122 1.391 . S
C123 C124 1.396 . S
C124 H108 0.939 . S
C124 C123 1.396 . S
C124 C125 1.397 . S
C125 C124 1.397 . S
C125 C126 1.385 . S
C126 H109 0.940 . S
C126 C125 1.385 . S
C126 C127 1.388 . S
C127 H106 0.939 . S
C127 C122 1.391 . S
C127 C126 1.388 . S
P128 O139 1.490 . S
P128 C142 1.812 . S
P128 C148 1.803 . S
P128 C154 1.819 . S
H129 C143 0.941 . S
H130 C144 0.939 . S
H131 C146 0.940 . S
H132 C147 0.940 . S
H133 C149 0.939 . S
H134 C150 0.942 . S
H135 C152 0.940 . S
H136 C153 0.939 . S
H137 C155 0.941 . S
H138 C159 0.939 . S
O139 P128 1.490 . S
H140 C156 0.939 . S
H141 C158 0.940 . S
C142 P128 1.812 . S
C142 C143 1.389 . S
C142 C147 1.391 . S
C143 H129 0.941 . S
C143 C142 1.389 . S
C143 C144 1.397 . S
C144 H130 0.939 . S
C144 C143 1.397 . S
C144 C145 1.378 . S
C145 C144 1.378 . S
C145 C146 1.378 . S
C146 H131 0.940 . S
C146 C145 1.378 . S
C146 C147 1.396 . S
C147 H132 0.940 . S
C147 C142 1.391 . S
C147 C146 1.396 . S
C148 P128 1.803 . S
C148 C149 1.378 . S
C148 C153 1.400 . S
C149 H133 0.939 . S
C149 C148 1.378 . S
C149 C150 1.361 . S
C150 H134 0.942 . S
C150 C149 1.361 . S
C150 C151 1.369 . S
C151 C150 1.369 . S
C151 C152 1.404 . S
C152 H135 0.940 . S
C152 C151 1.404 . S
C152 C153 1.389 . S
C153 H136 0.939 . S
C153 C148 1.400 . S
C153 C152 1.389 . S
C154 P128 1.819 . S
C154 C155 1.391 . S
C154 C159 1.391 . S
C155 H137 0.941 . S
C155 C154 1.391 . S
C155 C156 1.396 . S
C156 H140 0.939 . S
C156 C155 1.396 . S
C156 C157 1.397 . S
C157 C156 1.397 . S
C157 C158 1.385 . S
C158 H141 0.940 . S
C158 C157 1.385 . S
C158 C159 1.388 . S
C159 H138 0.939 . S
C159 C154 1.391 . S
C159 C158 1.388 . S
P160 O171 1.490 . S
P160 C174 1.812 . S
P160 C180 1.803 . S
P160 C186 1.819 . S
H161 C175 0.941 . S
H162 C176 0.939 . S
H163 C178 0.940 . S
H164 C179 0.940 . S
H165 C181 0.939 . S
H166 C182 0.942 . S
H167 C184 0.940 . S
H168 C185 0.939 . S
H169 C187 0.941 . S
H170 C191 0.939 . S
O171 P160 1.490 . S
H172 C188 0.939 . S
H173 C190 0.940 . S
C174 P160 1.812 . S
C174 C175 1.389 . S
C174 C179 1.391 . S
C175 H161 0.941 . S
C175 C174 1.389 . S
C175 C176 1.397 . S
C176 H162 0.939 . S
C176 C175 1.397 . S
C176 C177 1.378 . S
C177 C176 1.378 . S
C177 C178 1.378 . S
C178 H163 0.940 . S
C178 C177 1.378 . S
C178 C179 1.396 . S
C179 H164 0.940 . S
C179 C174 1.391 . S
C179 C178 1.396 . S
C180 P160 1.803 . S
C180 C181 1.378 . S
C180 C185 1.400 . S
C181 H165 0.939 . S
C181 C180 1.378 . S
C181 C182 1.361 . S
C182 H166 0.942 . S
C182 C181 1.361 . S
C182 C183 1.369 . S
C183 C182 1.369 . S
C183 C184 1.404 . S
C184 H167 0.940 . S
C184 C183 1.404 . S
C184 C185 1.389 . S
C185 H168 0.939 . S
C185 C180 1.400 . S
C185 C184 1.389 . S
C186 P160 1.819 . S
C186 C187 1.391 . S
C186 C191 1.391 . S
C187 H169 0.941 . S
C187 C186 1.391 . S
C187 C188 1.396 . S
C188 H172 0.939 . S
C188 C187 1.396 . S
C188 C189 1.397 . S
C189 C188 1.397 . S
C189 C190 1.385 . S
C190 H173 0.940 . S
C190 C189 1.385 . S
C190 C191 1.388 . S
C191 H170 0.939 . S
C191 C186 1.391 . S
C191 C190 1.388 . S
P192 O203 1.490 . S
P192 C206 1.812 . S
P192 C212 1.803 . S
P192 C218 1.819 . S
H193 C207 0.941 . S
H194 C208 0.939 . S
H195 C210 0.940 . S
H196 C211 0.940 . S
H197 C213 0.939 . S
H198 C214 0.942 . S
H199 C216 0.940 . S
H200 C217 0.939 . S
H201 C219 0.941 . S
H202 C223 0.939 . S
O203 P192 1.490 . S
H204 C220 0.939 . S
H205 C222 0.940 . S
C206 P192 1.812 . S
C206 C207 1.389 . S
C206 C211 1.391 . S
C207 H193 0.941 . S
C207 C206 1.389 . S
C207 C208 1.397 . S
C208 H194 0.939 . S
C208 C207 1.397 . S
C208 C209 1.378 . S
C209 C208 1.378 . S
C209 C210 1.378 . S
C210 H195 0.940 . S
C210 C209 1.378 . S
C210 C211 1.396 . S
C211 H196 0.940 . S
C211 C206 1.391 . S
C211 C210 1.396 . S
C212 P192 1.803 . S
C212 C213 1.378 . S
C212 C217 1.400 . S
C213 H197 0.939 . S
C213 C212 1.378 . S
C213 C214 1.361 . S
C214 H198 0.942 . S
C214 C213 1.361 . S
C214 C215 1.369 . S
C215 C214 1.369 . S
C215 C216 1.404 . S
C216 H199 0.940 . S
C216 C215 1.404 . S
C216 C217 1.389 . S
C217 H200 0.939 . S
C217 C212 1.400 . S
C217 C216 1.389 . S
C218 P192 1.819 . S
C218 C219 1.391 . S
C218 C223 1.391 . S
C219 H201 0.941 . S
C219 C218 1.391 . S
C219 C220 1.396 . S
C220 H204 0.939 . S
C220 C219 1.396 . S
C220 C221 1.397 . S
C221 C220 1.397 . S
C221 C222 1.385 . S
C222 H205 0.940 . S
C222 C221 1.385 . S
C222 C223 1.388 . S
C223 H202 0.939 . S
C223 C218 1.391 . S
C223 C222 1.388 . S
P224 O235 1.490 . S
P224 C238 1.812 . S
P224 C244 1.803 . S
P224 C250 1.819 . S
H225 C239 0.941 . S
H226 C240 0.939 . S
H227 C242 0.940 . S
H228 C243 0.940 . S
H229 C245 0.939 . S
H230 C246 0.942 . S
H231 C248 0.940 . S
H232 C249 0.939 . S
H233 C251 0.941 . S
H234 C255 0.939 . S
O235 P224 1.490 . S
H236 C252 0.939 . S
H237 C254 0.940 . S
C238 P224 1.812 . S
C238 C239 1.389 . S
C238 C243 1.391 . S
C239 H225 0.941 . S
C239 C238 1.389 . S
C239 C240 1.397 . S
C240 H226 0.939 . S
C240 C239 1.397 . S
C240 C241 1.378 . S
C241 C240 1.378 . S
C241 C242 1.378 . S
C242 H227 0.940 . S
C242 C241 1.378 . S
C242 C243 1.396 . S
C243 H228 0.940 . S
C243 C238 1.391 . S
C243 C242 1.396 . S
C244 P224 1.803 . S
C244 C245 1.378 . S
C244 C249 1.400 . S
C245 H229 0.939 . S
C245 C244 1.378 . S
C245 C246 1.361 . S
C246 H230 0.942 . S
C246 C245 1.361 . S
C246 C247 1.369 . S
C247 C246 1.369 . S
C247 C248 1.404 . S
C248 H231 0.940 . S
C248 C247 1.404 . S
C248 C249 1.389 . S
C249 H232 0.939 . S
C249 C244 1.400 . S
C249 C248 1.389 . S
C250 P224 1.819 . S
C250 C251 1.391 . S
C250 C255 1.391 . S
C251 H233 0.941 . S
C251 C250 1.391 . S
C251 C252 1.396 . S
C252 H236 0.939 . S
C252 C251 1.396 . S
C252 C253 1.397 . S
C253 C252 1.397 . S
C253 C254 1.385 . S
C254 H237 0.940 . S
C254 C253 1.385 . S
C254 C255 1.388 . S
C255 H234 0.939 . S
C255 C250 1.391 . S
C255 C254 1.388 . S
C256 O258 1.247 . S
C256 O260 1.258 . S
C257 O264 1.247 . S
C257 O265 1.258 . S
O258 C256 1.247 . S
O258 Zn259 2.028 1_655 S
Zn259 O258 2.028 1_455 S
Zn259 O263 2.035 . S
Zn259 O265 2.035 . S
Zn259 O266 2.028 1_455 S
O260 C256 1.258 . S
O260 Zn261 2.035 1_655 S
Zn261 O260 2.035 1_455 S
Zn261 O262 2.028 . S
Zn261 O264 2.028 . S
Zn261 O267 2.035 1_455 S
O262 Zn261 2.028 . S
O262 C268 1.247 . S
O263 Zn259 2.035 . S
O263 C268 1.258 . S
O264 C257 1.247 . S
O264 Zn261 2.028 . S
O265 C257 1.258 . S
O265 Zn259 2.035 . S
O266 Zn259 2.028 1_655 S
O266 C269 1.247 . S
O267 Zn261 2.035 1_655 S
O267 C269 1.258 . S
C268 O262 1.247 . S
C268 O263 1.258 . S
C269 O266 1.247 . S
C269 O267 1.258 . S
C270 O272 1.247 . S
C270 O274 1.258 . S
C271 O278 1.247 . S
C271 O279 1.258 . S
O272 C270 1.247 . S
O272 Zn273 2.028 1_655 S
Zn273 O272 2.028 1_455 S
Zn273 O277 2.035 . S
Zn273 O279 2.035 . S
Zn273 O280 2.028 1_455 S
O274 C270 1.258 . S
O274 Zn275 2.035 . S
Zn275 O274 2.035 . S
Zn275 O276 2.028 1_655 S
Zn275 O278 2.028 1_655 S
Zn275 O281 2.035 . S
O276 Zn275 2.028 1_455 S
O276 C282 1.247 . S
O277 Zn273 2.035 . S
O277 C282 1.258 . S
O278 C271 1.247 . S
O278 Zn275 2.028 1_455 S
O279 C271 1.258 . S
O279 Zn273 2.035 . S
O280 Zn273 2.028 1_655 S
O280 C283 1.247 . S
O281 Zn275 2.035 . S
O281 C283 1.258 . S
C282 O276 1.247 . S
C282 O277 1.258 . S
C283 O280 1.247 . S
C283 O281 1.258 . S
C284 O286 1.247 . S
C284 O288 1.258 . S
C285 O292 1.247 . S
C285 O293 1.258 . S
O286 C284 1.247 . S
O286 Zn287 2.028 1_565 S
Zn287 O286 2.028 1_545 S
Zn287 O291 2.035 . S
Zn287 O293 2.035 . S
Zn287 O294 2.028 1_545 S
O288 C284 1.258 . S
O288 Zn289 2.035 1_565 S
Zn289 O288 2.035 1_545 S
Zn289 O290 2.028 . S
Zn289 O292 2.028 . S
Zn289 O295 2.035 1_545 S
O290 Zn289 2.028 . S
O290 C296 1.247 . S
O291 Zn287 2.035 . S
O291 C296 1.258 . S
O292 C285 1.247 . S
O292 Zn289 2.028 . S
O293 C285 1.258 . S
O293 Zn287 2.035 . S
O294 Zn287 2.028 1_565 S
O294 C297 1.247 . S
O295 Zn289 2.035 1_565 S
O295 C297 1.258 . S
C296 O290 1.247 . S
C296 O291 1.258 . S
C297 O294 1.247 . S
C297 O295 1.258 . S
C298 O300 1.247 . S
C298 O302 1.258 . S
C299 O306 1.247 . S
C299 O307 1.258 . S
O300 C298 1.247 . S
O300 Zn301 2.028 . S
Zn301 O300 2.028 . S
Zn301 O305 2.035 . S
Zn301 O307 2.035 1_554 S
Zn301 O308 2.028 1_554 S
O302 C298 1.258 . S
O302 Zn303 2.048 . S
Zn303 O302 2.048 . S
Zn303 O304 2.041 . S
Zn303 O306 2.015 1_554 S
Zn303 O309 2.022 1_554 S
O304 Zn303 2.041 . S
O304 C310 1.247 . S
O305 Zn301 2.035 . S
O305 C310 1.258 . S
O306 C299 1.247 . S
O306 Zn303 2.015 1_556 S
O307 C299 1.258 . S
O307 Zn301 2.035 1_556 S
O308 Zn301 2.028 1_556 S
O308 C311 1.247 . S
O309 Zn303 2.022 1_556 S
O309 C311 1.258 . S
C310 O304 1.247 . S
C310 O305 1.258 . S
C311 O308 1.247 . S
C311 O309 1.258 . S
C312 O314 1.247 . S
C312 O316 1.258 . S
C313 O320 1.247 . S
C313 O321 1.258 . S
O314 C312 1.247 . S
O314 Zn315 2.021 1_565 S
Zn315 O314 2.021 1_545 S
Zn315 O319 2.043 . S
Zn315 O321 2.043 . S
Zn315 O322 2.020 1_545 S
O316 C312 1.258 . S
O316 Zn317 2.035 1_565 S
Zn317 O316 2.035 1_545 S
Zn317 O318 2.028 . S
Zn317 O320 2.028 . S
Zn317 O323 2.035 1_545 S
O318 Zn317 2.028 . S
O318 C324 1.247 . S
O319 Zn315 2.043 . S
O319 C324 1.258 . S
O320 C313 1.247 . S
O320 Zn317 2.028 . S
O321 C313 1.258 . S
O321 Zn315 2.043 . S
O322 Zn315 2.020 1_565 S
O322 C325 1.247 . S
O323 Zn317 2.035 1_565 S
O323 C325 1.258 . S
C324 O318 1.247 . S
C324 O319 1.258 . S
C325 O322 1.247 . S
C325 O323 1.258 . S
C326 O328 1.247 . S
C326 O330 1.258 . S
C327 O334 1.247 . S
C327 O335 1.258 . S
O328 C326 1.247 . S
O328 Zn329 2.028 . S
Zn329 O328 2.028 . S
Zn329 O333 2.035 . S
Zn329 O335 2.035 1_554 S
Zn329 O336 2.028 1_554 S
O330 C326 1.258 . S
O330 Zn331 2.032 1_554 S
Zn331 O330 2.032 1_556 S
Zn331 O332 2.025 1_556 S
Zn331 O334 2.031 . S
Zn331 O337 2.038 . S
O332 Zn331 2.025 1_554 S
O332 C338 1.247 . S
O333 Zn329 2.035 . S
O333 C338 1.258 . S
O334 C327 1.247 . S
O334 Zn331 2.031 . S
O335 C327 1.258 . S
O335 Zn329 2.035 1_556 S
O336 Zn329 2.028 1_556 S
O336 C339 1.247 . S
O337 Zn331 2.038 . S
O337 C339 1.258 . S
C338 O332 1.247 . S
C338 O333 1.258 . S
C339 O336 1.247 . S
C339 O337 1.258 . S
C268 C23 1.575 . S
C271 C49 1.528 . S
C269 C87 1.450 . S
C270 C125 1.461 . S
C285 C29 1.555 . S
C299 C61 1.461 . S
C81 C325 1.450 . S
C339 C113 1.507 . S
C284 C55 1.501 . S
C93 C298 1.486 . S
C324 C119 1.450 . S
C338 C17 1.501 . S
C151 C283 1.452 . S
C256 C177 1.447 . S
C215 C282 1.565 . S
C253 C257 1.532 . S
C312 C157 1.445 . S
C326 C189 1.478 . S
C296 C209 1.525 . S
C241 C310 1.468 . S
C313 C183 1.432 . S
C327 C221 1.492 . S
C297 C247 1.499 . S
C145 C311 1.477 . S
