# Generated by pormake.
# Topology rtl, (3,6)-cn, num edge types: 1
# Building blocks:
#     Node 0, Type 0, BuildingBlock: BETDIP_clean_linker_0, # of connection points: 3
#     Node 1, Type 0, BuildingBlock: BETDIP_clean_linker_0, # of connection points: 3
#     Node 2, Type 0, BuildingBlock: BETDIP_clean_linker_0, # of connection points: 3
#     Node 3, Type 0, BuildingBlock: BETDIP_clean_linker_0, # of connection points: 3
#     Node 4, Type 1, BuildingBlock: KUMJIN_clean_sbu_1, # of connection points: 6
#     Node 5, Type 1, BuildingBlock: KUMJIN_clean_sbu_1, # of connection points: 6
#     Edge 6, Type (0, 1), BuildingBlock: EZIPEK_clean_linker_0, # of connection points: 2
#     Edge 7, Type (0, 1), BuildingBlock: EZIPEK_clean_linker_0, # of connection points: 2
#     Edge 8, Type (0, 1), BuildingBlock: EZIPEK_clean_linker_0, # of connection points: 2
#     Edge 9, Type (0, 1), BuildingBlock: EZIPEK_clean_linker_0, # of connection points: 2
#     Edge 10, Type (0, 1), BuildingBlock: EZIPEK_clean_linker_0, # of connection points: 2
#     Edge 11, Type (0, 1), BuildingBlock: EZIPEK_clean_linker_0, # of connection points: 2
#     Edge 12, Type (0, 1), BuildingBlock: EZIPEK_clean_linker_0, # of connection points: 2
#     Edge 13, Type (0, 1), BuildingBlock: EZIPEK_clean_linker_0, # of connection points: 2
#     Edge 14, Type (0, 1), BuildingBlock: EZIPEK_clean_linker_0, # of connection points: 2
#     Edge 15, Type (0, 1), BuildingBlock: EZIPEK_clean_linker_0, # of connection points: 2
#     Edge 16, Type (0, 1), BuildingBlock: EZIPEK_clean_linker_0, # of connection points: 2
#     Edge 17, Type (0, 1), BuildingBlock: EZIPEK_clean_linker_0, # of connection points: 2
# Relax obj value: 0.054
# Max RMSD: 0.240
# Mean RMSD: 0.172
data_MOF--net-rtl--node1-KUMJIN_clean_sbu_1--node2-BETDIP_clean_linker_0--edge1-EZIPEK_clean_linker_0
_symmetry_space_group_name_H-M    P1
_symmetry_Int_Tables_number       1
_symmetry_cell_setting            triclinic
loop_
_symmetry_equiv_pos_as_xyz
'x, y, z'
_cell_length_a     26.333696
_cell_length_b     26.711822
_cell_length_c     20.613903
_cell_angle_alpha  73.971251
_cell_angle_beta   100.06556
_cell_angle_gamma 91.445034
loop_
_atom_site_label
_atom_site_type_symbol
_atom_site_fract_x
_atom_site_fract_y
_atom_site_fract_z
_atom_type_partial_charge
H0 H 0.21443 0.81409 0.91617 0.0
H1 H 0.2293 0.78985 0.13459 0.0
H2 H 0.11644 0.89978 0.99522 0.0
H3 H 0.29777 0.78631 0.94521 0.0
C4 C 0.29993 0.75618 0.99335 0.0
C5 C 0.20333 0.82323 0.95982 0.0
C6 C 0.16333 0.85996 0.94849 0.0
C7 C 0.22748 0.79773 0.0271 0.0
C8 C 0.21088 0.80928 0.08267 0.0
C9 C 0.17095 0.84627 0.07131 0.0
C10 C 0.14732 0.87124 1.00419 0.0
N11 N 0.26745 0.7595 0.04054 0.0
H12 H 0.69626 0.73498 0.80436 0.0
H13 H 0.72397 0.73531 0.60428 0.0
H14 H 0.62107 0.62518 0.70221 0.0
H15 H 0.7388 0.82131 0.59517 0.0
C16 C 0.76233 0.81817 0.64501 0.0
C17 C 0.68846 0.72 0.75991 0.0
C18 C 0.65464 0.67812 0.75973 0.0
C19 C 0.71254 0.74228 0.70302 0.0
C20 C 0.70399 0.72079 0.64706 0.0
C21 C 0.67154 0.67851 0.64684 0.0
C22 C 0.64603 0.65808 0.7024 0.0
N23 N 0.74801 0.78344 0.7049 0.0
H24 H 0.77558 0.2171 1.00305 0.0
H25 H 0.78883 0.17493 0.22311 0.0
H26 H 0.88393 0.09702 0.13063 0.0
H27 H 0.76856 0.25871 0.20279 0.0
C28 C 0.74147 0.26955 0.15479 0.0
C29 C 0.7922 0.19274 0.05339 0.0
C30 C 0.83017 0.15474 0.05983 0.0
C31 C 0.77747 0.20109 0.11194 0.0
C32 C 0.79978 0.16967 0.17718 0.0
C33 C 0.83824 0.1324 0.18395 0.0
C34 C 0.85307 0.12478 0.12527 0.0
N35 N 0.74222 0.24281 0.10398 0.0
H36 H 0.30781 0.30656 0.35604 0.0
H37 H 0.30146 0.31432 0.56102 0.0
H38 H 0.39891 0.41686 0.44072 0.0
H39 H 0.22471 0.2779 0.54428 0.0
C40 C 0.22821 0.25266 0.51205 0.0
C41 C 0.31926 0.32419 0.39766 0.0
C42 C 0.35521 0.36443 0.391 0.0
C43 C 0.2982 0.30656 0.45811 0.0
C44 C 0.31491 0.32866 0.51271 0.0
C45 C 0.35105 0.36845 0.50617 0.0
C46 C 0.37052 0.3865 0.44522 0.0
N47 N 0.26243 0.26518 0.46357 0.0
Eu48 Eu 0.05078 0.95955 0.52776 0.0
C49 C 0.90815 0.14692 0.4649 0.0
N50 N 0.9566 0.14077 0.50242 0.0
C51 C 0.981 0.2216 0.43086 0.0
C52 C 0.89489 0.19002 0.4069 0.0
C53 C 0.99241 0.1782 0.48781 0.0
C54 C 0.93223 0.22726 0.38977 0.0
C55 C 0.82118 0.11524 0.44652 0.0
C56 C 0.87187 0.10972 0.48433 0.0
C57 C 0.80827 0.15728 0.3876 0.0
C58 C 0.84504 0.19457 0.36785 0.0
Eu59 Eu 0.9739 0.0638 0.59406 0.0
N60 N 0.88573 0.06882 0.54084 0.0
C61 C 0.78472 0.07872 0.46958 0.0
C62 C 0.84929 0.03534 0.56602 0.0
C63 C 0.79864 0.03915 0.53029 0.0
H64 H 0.02997 0.1748 0.51964 0.0
H65 H 0.77025 0.01182 0.55001 0.0
H66 H 0.97576 0.88689 0.44734 0.0
H67 H 0.23634 0.90655 0.70137 0.0
H68 H 0.8586 0.00631 0.61441 0.0
H69 H 0.74543 0.08157 0.44199 0.0
H70 H 0.1705 0.96641 0.61789 0.0
H71 H 0.00985 0.25065 0.41873 0.0
H72 H 0.76975 0.16171 0.35745 0.0
H73 H 0.83439 0.22703 0.32262 0.0
H74 H 0.96554 0.79361 0.4504 0.0
H75 H 0.92359 0.26079 0.34546 0.0
H76 H 0.22423 0.81129 0.72896 0.0
N77 N 0.03824 0.87176 0.53088 0.0
C78 C 0.07217 0.83613 0.5761 0.0
C79 C 0.99542 0.805 0.4864 0.0
C80 C 0.0674 0.78264 0.58079 0.0
C81 C 1.00116 0.85753 0.48477 0.0
C82 C 0.02807 0.76724 0.53556 0.0
N83 N 0.11939 0.90585 0.60324 0.0
C84 C 0.16421 0.92492 0.63086 0.0
C85 C 0.15111 0.81798 0.65974 0.0
C86 C 0.11373 0.85368 0.61422 0.0
C87 C 0.19478 0.83741 0.69324 0.0
C88 C 0.20178 0.89114 0.67775 0.0
H89 H 0.02334 0.72654 0.5371 0.0
H90 H 0.09969 0.7053 0.63362 0.0
H91 H 0.17273 0.73624 0.70347 0.0
O92 O 0.05523 0.00655 0.42422 0.0
O93 O 0.07962 0.97981 0.6273 0.0
O94 O 0.01042 0.9921 0.67455 0.0
O95 O 0.09525 0.93198 0.46333 0.0
O96 O 0.09297 0.03541 0.52757 0.0
O97 O 0.05714 0.08684 0.58478 0.0
O98 O 0.92318 0.09381 0.64914 0.0
O99 O 0.98449 0.06862 0.48653 0.0
O100 O 0.97051 0.9881 0.47399 0.0
O101 O 1.00461 0.10732 0.6674 0.0
O102 O 0.94602 0.98018 0.62279 0.0
O103 O 0.97537 0.92653 0.56372 0.0
C104 C 0.05529 0.97003 0.67933 0.0
C105 C 0.05808 0.95666 0.34625 0.0
C106 C 0.06967 0.92119 0.25268 0.0
C107 C 0.01656 0.928 0.22705 0.0
C108 C 1.00491 0.96298 0.32001 0.0
C109 C 0.9844 0.94877 0.26068 0.0
C110 C 0.09032 0.93537 0.31257 0.0
C111 C 0.0918 0.07733 0.54977 0.0
C112 C 0.08 0.97068 0.40955 0.0
C113 C 0.10309 0.74667 0.62848 0.0
C114 C 0.1447 0.7643 0.66822 0.0
C115 C 0.95947 0.03805 0.45275 0.0
C116 C 0.96112 0.09085 0.76235 0.0
C117 C 0.93089 0.09672 0.8656 0.0
C118 C 0.96093 0.05226 0.90369 0.0
C119 C 0.98994 0.04574 0.80146 0.0
C120 C 0.93102 0.11612 0.79465 0.0
C121 C 0.99017 0.02688 0.87165 0.0
C122 C 0.94639 0.93554 0.6064 0.0
C123 C 0.96079 0.10982 0.68772 0.0
H124 H 1.00009 0.91725 0.18094 0.0
H125 H 0.97912 0.97858 0.34546 0.0
H126 H 0.94344 0.95382 0.24078 0.0
H127 H 0.13131 0.92997 0.33262 0.0
H128 H 0.96118 0.03687 0.9582 0.0
H129 H 0.01203 0.02472 0.77781 0.0
H130 H 0.90769 0.15032 0.76498 0.0
H131 H 0.01279 0.99222 0.90118 0.0
Eu132 Eu 0.47587 0.47074 0.02188 0.0
C133 C 0.65183 0.61713 0.08717 0.0
N134 N 0.64495 0.56628 0.11883 0.0
C135 C 0.73109 0.54481 0.11111 0.0
C136 C 0.69815 0.63343 0.06318 0.0
C137 C 0.6844 0.53056 0.13384 0.0
C138 C 0.73772 0.59632 0.07462 0.0
C139 C 0.6193 0.70634 0.04952 0.0
C140 C 0.61269 0.65293 0.08005 0.0
C141 C 0.66452 0.72257 0.02307 0.0
C142 C 0.70384 0.68618 0.02981 0.0
Eu143 Eu 0.56375 0.54413 0.15095 0.0
N144 N 0.5692 0.6359 0.10562 0.0
C145 C 0.5807 0.74199 0.04768 0.0
C146 C 0.53321 0.67102 0.10815 0.0
C147 C 0.53787 0.72429 0.07814 0.0
H148 H 0.6797 0.49092 0.16287 0.0
H149 H 0.50867 0.75171 0.07924 0.0
H150 H 0.36207 0.53994 0.95871 0.0
H151 H 0.50422 0.26412 0.15632 0.0
H152 H 0.5012 0.65842 0.1344 0.0
H153 H 0.5843 0.78332 0.02468 0.0
H154 H 0.52767 0.35042 0.08772 0.0
H155 H 0.7619 0.51608 0.12178 0.0
H156 H 0.66991 0.76334 0.9986 0.0
H157 H 0.73893 0.69938 0.01034 0.0
H158 H 0.2726 0.53293 0.97897 0.0
H159 H 0.77391 0.60727 0.05701 0.0
H160 H 0.41747 0.25176 0.18828 0.0
N161 N 0.38686 0.46676 0.03018 0.0
C162 C 0.37145 0.42107 0.06941 0.0
C163 C 0.30018 0.50147 1.00556 0.0
C164 C 0.32013 0.41493 0.08105 0.0
C165 C 0.35138 0.50565 0.99523 0.0
C166 C 0.28469 0.45631 0.04967 0.0
N167 N 0.45551 0.38628 0.08305 0.0
C168 C 0.48976 0.34514 0.10147 0.0
C169 C 0.39157 0.33115 0.13514 0.0
C170 C 0.40657 0.37951 0.09597 0.0
C171 C 0.42752 0.28953 0.15801 0.0
C172 C 0.47655 0.29634 0.14012 0.0
H173 H 0.24496 0.45316 0.05744 0.0
H174 H 0.26652 0.3624 0.1328 0.0
H175 H 0.32912 0.28907 0.18026 0.0
O176 O 0.50776 0.44057 0.94878 0.0
O177 O 0.4887 0.4375 0.13671 0.0
O178 O 0.48867 0.50699 0.18 0.0
O179 O 0.4262 0.45671 0.93227 0.0
O180 O 0.5612 0.44583 0.05697 0.0
O181 O 0.58692 0.46016 0.16392 0.0
O182 O 0.57237 0.58342 0.23195 0.0
O183 O 0.58384 0.54589 0.04664 0.0
O184 O 0.50672 0.55009 0.97397 0.0
O185 O 0.60605 0.5066 0.25392 0.0
O186 O 0.48249 0.57647 0.11161 0.0
O187 O 0.44652 0.55248 0.01364 0.0
C188 C 0.4732 0.46007 0.17868 0.0
C189 C 0.46392 0.46818 0.83442 0.0
C190 C 0.4396 0.46632 0.7158 0.0
C191 C 0.46045 0.51579 0.6942 0.0
C192 C 0.48434 0.51783 0.81235 0.0
C193 C 0.48282 0.54135 0.74247 0.0
C194 C 0.44155 0.44257 0.78597 0.0
C195 C 0.59126 0.43529 0.11799 0.0
C196 C 0.46399 0.44322 0.90736 0.0
C197 C 0.30556 0.3675 0.12248 0.0
C198 C 0.34119 0.32571 0.14945 0.0
C199 C 0.55453 0.5648 0.98645 0.0
C200 C 0.64496 0.5627 0.31944 0.0
C201 C 0.67897 0.59746 0.41565 0.0
C202 C 0.72828 0.59844 0.39829 0.0
C203 C 0.69445 0.56402 0.30265 0.0
C204 C 0.63743 0.57928 0.37621 0.0
C205 C 0.7359 0.58172 0.3421 0.0
C206 C 0.44791 0.5824 0.05549 0.0
C207 C 0.60017 0.54626 0.27739 0.0
H208 H 0.4593 0.53447 0.64015 0.0
H209 H 0.5011 0.53844 0.84895 0.0
H210 H 0.49877 0.57957 0.72572 0.0
H211 H 0.42533 0.40439 0.80267 0.0
H212 H 0.76077 0.61225 0.4282 0.0
H213 H 0.70106 0.55164 0.25912 0.0
H214 H 0.59925 0.57858 0.38936 0.0
H215 H 0.774 0.58269 0.32891 0.0
C216 C 0.16608 0.19319 0.46353 0.0
C217 C 0.1974 0.20425 0.52104 0.0
C218 C 0.1678 0.12434 0.59641 0.0
C219 C 0.13476 0.11512 0.53908 0.0
N220 N 0.12163 0.12749 0.41688 0.0
N221 N 0.22878 0.18089 0.643 0.0
C222 C 0.13957 0.14549 0.47219 0.0
C223 C 0.19856 0.16981 0.58784 0.0
N224 N 0.15845 0.22974 0.40124 0.0
N225 N 0.17292 0.08683 0.6576 0.0
H226 H 0.25453 0.21146 0.63836 0.0
H227 H 0.22744 0.16113 0.69374 0.0
H228 H 0.15559 0.05083 0.66157 0.0
H229 H 0.19799 0.08839 0.70189 0.0
H230 H 0.13124 0.22596 0.35972 0.0
H231 H 0.17481 0.2664 0.39291 0.0
H232 H 0.12781 0.14611 0.36746 0.0
H233 H 0.10777 0.09016 0.42184 0.0
C234 C 0.34559 0.68966 0.95653 0.0
C235 C 0.33753 0.71189 0.00898 0.0
C236 C 0.39361 0.64403 0.09261 0.0
C237 C 0.40845 0.62616 0.03897 0.0
N238 N 0.40729 0.64655 0.91582 0.0
N239 N 0.36925 0.71992 0.12277 0.0
C240 C 0.38684 0.65285 0.96964 0.0
C241 C 0.36597 0.69201 0.07581 0.0
N242 N 0.31362 0.70284 0.89429 0.0
N243 N 0.40392 0.61536 0.15968 0.0
H244 H 0.35341 0.75739 0.11107 0.0
H245 H 0.39359 0.70866 0.17028 0.0
H246 H 0.42156 0.57872 0.17676 0.0
H247 H 0.38914 0.62573 0.19806 0.0
H248 H 0.31505 0.68359 0.85695 0.0
H249 H 0.28241 0.72896 0.88262 0.0
H250 H 0.39514 0.66898 0.86553 0.0
H251 H 0.44057 0.62475 0.92121 0.0
C252 C 0.82786 0.88008 0.68254 0.0
C253 C 0.81416 0.842 0.64668 0.0
C254 C 0.89914 0.84981 0.61221 0.0
C255 C 0.90798 0.89534 0.63436 0.0
N256 N 0.89709 0.92872 0.72865 0.0
N257 N 0.83752 0.79015 0.57649 0.0
C258 C 0.87715 0.9034 0.68104 0.0
C259 C 0.85001 0.82672 0.61129 0.0
N260 N 0.79296 0.89611 0.71491 0.0
N261 N 0.93978 0.82359 0.60344 0.0
H262 H 0.80328 0.76979 0.57739 0.0
H263 H 0.86022 0.78243 0.5435 0.0
H264 H 0.97739 0.83403 0.61823 0.0
H265 H 0.93673 0.78691 0.59476 0.0
H266 H 0.7985 0.92819 0.73459 0.0
H267 H 0.75667 0.87986 0.71737 0.0
H268 H 0.87801 0.93254 0.76728 0.0
H269 H 0.93575 0.93884 0.73585 0.0
C270 C 0.67254 0.30913 0.19566 0.0
C271 C 0.70366 0.31252 0.14511 0.0
C272 C 0.66793 0.40027 0.08433 0.0
C273 C 0.63448 0.39577 0.13281 0.0
N274 N 0.62233 0.3548 0.24945 0.0
N275 N 0.7318 0.36077 0.04075 0.0
C276 C 0.64162 0.35282 0.19287 0.0
C277 C 0.70151 0.3579 0.08916 0.0
N278 N 0.67071 0.26309 0.24502 0.0
N279 N 0.67165 0.44742 0.03836 0.0
H280 H 0.76115 0.33372 0.04621 0.0
H281 H 0.72671 0.38885 0.99358 0.0
H282 H 0.65132 0.48026 0.03829 0.0
H283 H 0.69873 0.45599 1.00593 0.0
H284 H 0.64375 0.25595 0.27775 0.0
H285 H 0.69269 0.23005 0.24911 0.0
H286 H 0.63057 0.32661 0.29644 0.0
H287 H 0.6043 0.38758 0.2535 0.0
C288 C 0.16452 0.91153 0.13626 0.0
C289 C 0.15374 0.86096 0.12866 0.0
C290 C 0.09938 0.84595 0.21703 0.0
C291 C 0.10323 0.89927 0.21579 0.0
N292 N 0.13625 0.98454 0.17039 0.0
N293 N 0.10829 0.78054 0.15809 0.0
C294 C 0.13549 0.93247 0.17504 0.0
C295 C 0.12099 0.82793 0.16873 0.0
N296 N 0.20273 0.93934 0.10642 0.0
N297 N 0.07541 0.81257 0.26484 0.0
H298 H 0.12377 0.7657 0.12379 0.0
H299 H 0.07983 0.75744 0.17978 0.0
H300 H 0.05939 0.82465 0.30105 0.0
H301 H 0.07561 0.77234 0.27276 0.0
H302 H 0.21582 0.97439 0.11525 0.0
H303 H 0.2248 0.92481 0.07794 0.0
H304 H 0.15421 0.01166 0.13531 0.0
H305 H 0.11566 1.00148 0.19805 0.0
C306 C 0.59223 0.67706 0.84185 0.0
C307 C 0.63094 0.65171 0.82114 0.0
C308 C 0.61194 0.56912 0.89938 0.0
C309 C 0.57871 0.595 0.92739 0.0
N310 N 0.53884 0.67509 0.92763 0.0
N311 N 0.6863 0.57595 0.84423 0.0
C312 C 0.56939 0.64957 0.89936 0.0
C313 C 0.64346 0.5985 0.85437 0.0
N314 N 0.57568 0.72641 0.8049 0.0
N315 N 0.61075 0.51641 0.91143 0.0
H316 H 0.71193 0.5969 0.81421 0.0
H317 H 0.69923 0.53825 0.87191 0.0
H318 H 0.58603 0.49384 0.94117 0.0
H319 H 0.63018 0.49622 0.88613 0.0
H320 H 0.54396 0.74501 0.81278 0.0
H321 H 0.59119 0.74743 0.76254 0.0
H322 H 0.53453 0.71548 0.91427 0.0
H323 H 0.5205 0.65588 0.96815 0.0
C324 C 0.85248 0.06049 0.29473 0.0
C325 C 0.86871 0.10734 0.25257 0.0
C326 C 0.94725 0.10454 0.33652 0.0
C327 C 0.92881 0.06068 0.38272 0.0
N328 N 0.85908 1.0021 0.40923 0.0
N329 N 0.92635 0.17966 0.23853 0.0
C330 C 0.8802 0.03976 0.36261 0.0
C331 C 0.91446 0.13108 0.27514 0.0
N332 N 0.81087 0.03558 0.26962 0.0
N333 N 0.99706 0.11955 0.34905 0.0
H334 H 0.90419 0.2002 0.19213 0.0
H335 H 0.95569 0.20158 0.25722 0.0
H336 H 0.02334 0.10034 0.39162 0.0
H337 H 0.014 0.14742 0.31355 0.0
H338 H 0.80048 0.99836 0.29485 0.0
H339 H 0.78897 0.05058 0.22089 0.0
H340 H 0.82145 0.98957 0.39969 0.0
H341 H 0.87707 0.98678 0.45994 0.0
C342 C 0.34326 0.43047 0.57614 0.0
C343 C 0.37121 0.3901 0.56434 0.0
C344 C 0.44441 0.40042 0.65074 0.0
C345 C 0.41559 0.43919 0.66473 0.0
N346 N 0.33497 0.48511 0.65041 0.0
N347 N 0.44383 0.3298 0.59769 0.0
C348 C 0.36414 0.45241 0.63029 0.0
C349 C 0.42046 0.37295 0.60401 0.0
N350 N 0.29768 0.44906 0.53397 0.0
N351 N 0.4952 0.39119 0.68037 0.0
H352 H 0.42748 0.30894 0.56358 0.0
H353 H 0.47719 0.312 0.63003 0.0
H354 H 0.51389 0.41002 0.71565 0.0
H355 H 0.51997 0.36781 0.66643 0.0
H356 H 0.27841 0.48242 0.53462 0.0
H357 H 0.2806 0.43307 0.49487 0.0
H358 H 0.29559 0.49194 0.63251 0.0
H359 H 0.34927 0.50246 0.68926 0.0
C360 C 0.64034 0.68107 0.52356 0.0
C361 C 0.66734 0.65409 0.58933 0.0
C362 C 0.69185 0.58481 0.54274 0.0
C363 C 0.67132 0.61541 0.47562 0.0
N364 N 0.6304 0.69536 0.40057 0.0
N365 N 0.72476 0.58352 0.66041 0.0
C366 C 0.6463 0.66415 0.46554 0.0
C367 C 0.69438 0.60655 0.59883 0.0
N368 N 0.60852 0.72252 0.51684 0.0
N369 N 0.70821 0.53463 0.55296 0.0
H370 H 0.72826 0.59841 0.70261 0.0
H371 H 0.74992 0.55216 0.66799 0.0
H372 H 0.70672 0.5174 0.513 0.0
H373 H 0.7186 0.50862 0.60138 0.0
H374 H 0.58382 0.74069 0.47153 0.0
H375 H 0.60335 0.73576 0.55842 0.0
H376 H 0.61726 0.7337 0.38998 0.0
H377 H 0.63402 0.68442 0.35676 0.0
C378 C 0.82497 0.11471 0.96198 0.0
C379 C 0.84987 0.14874 0.99886 0.0
C380 C 0.91963 0.16082 0.93117 0.0
C381 C 0.8986 0.12113 0.90165 0.0
N382 N 0.83122 0.06082 0.88582 0.0
N383 N 0.91959 0.2058 0.01883 0.0
C384 C 0.85074 0.09882 0.91537 0.0
C385 C 0.89651 0.17289 0.98275 0.0
N386 N 0.77682 0.09755 0.97196 0.0
N387 N 0.96181 0.18669 0.9098 0.0
H388 H 0.90239 0.2176 0.05428 0.0
H389 H 0.95655 0.21993 0.01606 0.0
H390 H 0.97991 0.17804 0.87292 0.0
H391 H 0.97671 0.21917 0.92436 0.0
H392 H 0.75422 0.07651 0.94259 0.0
H393 H 0.7576 0.10758 0.00691 0.0
H394 H 0.79998 0.03822 0.89939 0.0
H395 H 0.84774 0.05036 0.84881 0.0
C396 C 0.42945 0.36102 0.33094 0.0
C397 C 0.38041 0.38223 0.32954 0.0
C398 C 0.38931 0.45096 0.22507 0.0
C399 C 0.43952 0.43095 0.22774 0.0
N400 N 0.4996 0.35731 0.27113 0.0
N401 N 0.30848 0.43974 0.26917 0.0
C402 C 0.45711 0.38292 0.27676 0.0
C403 C 0.35869 0.42486 0.27444 0.0
N404 N 0.45059 0.32099 0.38573 0.0
N405 N 0.37068 0.49457 0.17461 0.0
H406 H 0.28555 0.42147 0.30494 0.0
H407 H 0.28807 0.46731 0.22737 0.0
H408 H 0.38953 0.51116 0.13377 0.0
H409 H 0.33736 0.51516 0.17335 0.0
H410 H 0.48905 0.30869 0.39507 0.0
H411 H 0.43047 0.3019 0.42448 0.0
H412 H 0.51055 0.31945 0.30016 0.0
H413 H 0.52116 0.37138 0.23276 0.0
C414 C 0.1455 0.94114 0.85127 0.0
C415 C 0.13757 0.88721 0.87802 0.0
C416 C 0.07852 0.88681 0.77232 0.0
C417 C 0.08299 0.94161 0.74815 0.0
N418 N 0.11213 0.02246 0.77073 0.0
N419 N 0.09054 0.80993 0.8696 0.0
C420 C 0.11408 0.96926 0.78934 0.0
C421 C 0.10253 0.86024 0.84 0.0
N422 N 0.18399 0.96521 0.88421 0.0
N423 N 0.05167 0.86008 0.73033 0.0
H424 H 0.10733 0.7891 0.9191 0.0
H425 H 0.06101 0.79009 0.84743 0.0
H426 H 0.03284 0.87862 0.68115 0.0
H427 H 0.05172 0.8196 0.74172 0.0
H428 H 0.19511 1.00312 0.86335 0.0
H429 H 0.2081 0.94573 0.92958 0.0
H430 H 0.12943 0.04465 0.80251 0.0
H431 H 0.08924 0.04443 0.72588 0.0
loop_
_geom_bond_atom_site_label_1
_geom_bond_atom_site_label_2
_geom_bond_distance
_geom_bond_site_symmetry_2
_ccdc_geom_bond_type
H0 C5 0.930 . S
H1 C8 0.930 . S
H2 C10 0.930 . S
H3 C4 1.016 . S
C4 H3 1.016 . S
C4 N11 1.286 . S
C5 H0 0.930 . S
C5 C6 1.397 . S
C5 C7 1.361 1_556 S
C6 C5 1.397 . S
C6 C10 1.390 1_556 S
C7 C5 1.361 1_554 S
C7 C8 1.393 . S
C7 N11 1.413 . S
C8 H1 0.930 . S
C8 C7 1.393 . S
C8 C9 1.399 . S
C9 C8 1.399 . S
C9 C10 1.381 . S
C10 H2 0.930 . S
C10 C6 1.390 1_554 S
C10 C9 1.381 . S
N11 C4 1.286 . S
N11 C7 1.413 . S
H12 C17 0.930 . S
H13 C20 0.930 . S
H14 C22 0.930 . S
H15 C16 1.016 . S
C16 H15 1.016 . S
C16 N23 1.286 . S
C17 H12 0.930 . S
C17 C18 1.397 . S
C17 C19 1.361 . S
C18 C17 1.397 . S
C18 C22 1.390 . S
C19 C17 1.361 . S
C19 C20 1.393 . S
C19 N23 1.413 . S
C20 H13 0.930 . S
C20 C19 1.393 . S
C20 C21 1.399 . S
C21 C20 1.399 . S
C21 C22 1.381 . S
C22 H14 0.930 . S
C22 C18 1.390 . S
C22 C21 1.381 . S
N23 C16 1.286 . S
N23 C19 1.413 . S
H24 C29 0.930 1_556 S
H25 C32 0.930 . S
H26 C34 0.930 . S
H27 C28 1.016 . S
C28 H27 1.016 . S
C28 N35 1.286 . S
C29 H24 0.930 1_554 S
C29 C30 1.397 . S
C29 C31 1.361 . S
C30 C29 1.397 . S
C30 C34 1.390 . S
C31 C29 1.361 . S
C31 C32 1.393 . S
C31 N35 1.413 . S
C32 H25 0.930 . S
C32 C31 1.393 . S
C32 C33 1.399 . S
C33 C32 1.399 . S
C33 C34 1.381 . S
C34 H26 0.930 . S
C34 C30 1.390 . S
C34 C33 1.381 . S
N35 C28 1.286 . S
N35 C31 1.413 . S
H36 C41 0.930 . S
H37 C44 0.930 . S
H38 C46 0.930 . S
H39 C40 1.016 . S
C40 H39 1.016 . S
C40 N47 1.286 . S
C41 H36 0.930 . S
C41 C42 1.397 . S
C41 C43 1.361 . S
C42 C41 1.397 . S
C42 C46 1.390 . S
C43 C41 1.361 . S
C43 C44 1.393 . S
C43 N47 1.413 . S
C44 H37 0.930 . S
C44 C43 1.393 . S
C44 C45 1.399 . S
C45 C44 1.399 . S
C45 C46 1.381 . S
C46 H38 0.930 . S
C46 C42 1.390 . S
C46 C45 1.381 . S
N47 C40 1.286 . S
N47 C43 1.413 . S
Eu48 N77 2.600 . S
Eu48 N83 2.562 . S
Eu48 O92 2.462 . S
Eu48 O93 2.373 . S
Eu48 O95 2.432 . S
Eu48 O96 2.291 1_565 S
Eu48 O100 2.335 1_465 S
Eu48 O103 2.372 1_455 S
Eu48 C112 2.787 . S
C49 N50 1.365 . S
C49 C52 1.405 . S
C49 C56 1.448 . S
N50 C49 1.365 . S
N50 C53 1.319 1_655 S
N50 Eu59 2.600 . S
C51 C53 1.397 . S
C51 C54 1.367 1_455 S
C51 H71 0.931 . S
C52 C49 1.405 . S
C52 C54 1.403 . S
C52 C58 1.439 . S
C53 N50 1.319 1_455 S
C53 C51 1.397 . S
C53 H64 0.930 . S
C54 C51 1.367 1_655 S
C54 C52 1.403 . S
C54 H75 0.929 . S
C55 C56 1.430 . S
C55 C57 1.387 . S
C55 C61 1.404 . S
C56 C49 1.448 . S
C56 C55 1.430 . S
C56 N60 1.351 . S
C57 C55 1.387 . S
C57 C58 1.374 . S
C57 H72 0.931 . S
C58 C52 1.439 . S
C58 C57 1.374 . S
C58 H73 0.931 . S
Eu59 N50 2.600 . S
Eu59 N60 2.562 . S
Eu59 O94 2.335 1_655 S
Eu59 O97 2.372 1_655 S
Eu59 O98 2.462 . S
Eu59 O99 2.373 . S
Eu59 O101 2.432 . S
Eu59 O102 2.291 1_545 S
Eu59 C123 2.787 . S
N60 C56 1.351 . S
N60 Eu59 2.562 . S
N60 C62 1.325 . S
C61 C55 1.404 . S
C61 C63 1.366 . S
C61 H69 0.930 . S
C62 N60 1.325 . S
C62 C63 1.416 . S
C62 H68 0.929 . S
C63 C61 1.366 . S
C63 C62 1.416 . S
C63 H65 0.930 . S
H64 C53 0.930 . S
H65 C63 0.930 . S
H66 C81 0.930 1_655 S
H67 C88 0.930 . S
H68 C62 0.929 . S
H69 C61 0.930 . S
H70 C84 0.929 . S
H71 C51 0.931 . S
H72 C57 0.931 . S
H73 C58 0.931 . S
H74 C79 0.931 1_655 S
H75 C54 0.929 . S
H76 C87 0.930 . S
N77 Eu48 2.600 . S
N77 C78 1.365 . S
N77 C81 1.319 . S
C78 N77 1.365 . S
C78 C80 1.405 . S
C78 C86 1.448 . S
C79 H74 0.931 1_455 S
C79 C81 1.397 . S
C79 C82 1.367 . S
C80 C78 1.405 . S
C80 C82 1.403 . S
C80 C113 1.439 . S
C81 H66 0.930 1_455 S
C81 N77 1.319 . S
C81 C79 1.397 . S
C82 C79 1.367 . S
C82 C80 1.403 . S
C82 H89 0.929 . S
N83 Eu48 2.562 . S
N83 C84 1.325 . S
N83 C86 1.351 . S
C84 H70 0.929 . S
C84 N83 1.325 . S
C84 C88 1.416 . S
C85 C86 1.430 . S
C85 C87 1.404 . S
C85 C114 1.387 . S
C86 C78 1.448 . S
C86 N83 1.351 . S
C86 C85 1.430 . S
C87 H76 0.930 . S
C87 C85 1.404 . S
C87 C88 1.366 . S
C88 H67 0.930 . S
C88 C84 1.416 . S
C88 C87 1.366 . S
H89 C82 0.929 . S
H90 C113 0.931 . S
H91 C114 0.931 . S
O92 Eu48 2.462 . S
O92 C112 1.252 . S
O93 Eu48 2.373 . S
O93 C104 1.249 . S
O94 Eu59 2.335 1_455 S
O94 C104 1.264 1_545 S
O95 Eu48 2.432 . S
O95 C112 1.268 . S
O96 Eu48 2.291 1_545 S
O96 C111 1.255 . S
O97 Eu59 2.372 1_455 S
O97 C111 1.257 . S
O98 Eu59 2.462 . S
O98 C123 1.252 . S
O99 Eu59 2.373 . S
O99 C115 1.249 . S
O100 Eu48 2.335 1_645 S
O100 C115 1.264 . S
O101 Eu59 2.432 . S
O101 C123 1.268 . S
O102 Eu59 2.291 1_565 S
O102 C122 1.255 . S
O103 Eu48 2.372 1_655 S
O103 C122 1.257 . S
C104 O93 1.249 . S
C104 O94 1.264 1_565 S
C105 C108 1.382 . S
C105 C110 1.390 . S
C105 C112 1.506 . S
C106 C107 1.398 . S
C106 C110 1.392 . S
C107 C106 1.398 . S
C107 C109 1.372 . S
C107 H124 0.931 . S
C108 C105 1.382 . S
C108 C109 1.390 . S
C108 H125 0.931 . S
C109 C107 1.372 . S
C109 C108 1.390 . S
C109 H126 0.929 . S
C110 C105 1.390 . S
C110 C106 1.392 . S
C110 H127 0.930 . S
C111 O96 1.255 . S
C111 O97 1.257 . S
C112 Eu48 2.787 . S
C112 O92 1.252 . S
C112 O95 1.268 . S
C112 C105 1.506 . S
C113 C80 1.439 . S
C113 H90 0.931 . S
C113 C114 1.374 . S
C114 C85 1.387 . S
C114 H91 0.931 . S
C114 C113 1.374 . S
C115 O99 1.249 . S
C115 O100 1.264 . S
C116 C119 1.382 . S
C116 C120 1.390 . S
C116 C123 1.506 . S
C117 C118 1.398 . S
C117 C120 1.392 . S
C118 C117 1.398 . S
C118 C121 1.372 . S
C118 H128 0.931 . S
C119 C116 1.382 . S
C119 C121 1.390 . S
C119 H129 0.931 . S
C120 C116 1.390 . S
C120 C117 1.392 . S
C120 H130 0.930 . S
C121 C118 1.372 . S
C121 C119 1.390 . S
C121 H131 0.929 . S
C122 O102 1.255 . S
C122 O103 1.257 . S
C123 Eu59 2.787 . S
C123 O98 1.252 . S
C123 O101 1.268 . S
C123 C116 1.506 . S
H124 C107 0.931 . S
H125 C108 0.931 . S
H126 C109 0.929 . S
H127 C110 0.930 . S
H128 C118 0.931 . S
H129 C119 0.931 . S
H130 C120 0.930 . S
H131 C121 0.929 . S
Eu132 N161 2.600 . S
Eu132 N167 2.562 . S
Eu132 O176 2.462 1_554 S
Eu132 O177 2.373 . S
Eu132 O179 2.432 1_554 S
Eu132 O180 2.291 . S
Eu132 O184 2.335 1_554 S
Eu132 O187 2.372 . S
Eu132 C196 2.787 1_554 S
C133 N134 1.365 . S
C133 C136 1.405 . S
C133 C140 1.448 . S
N134 C133 1.365 . S
N134 C137 1.319 . S
N134 Eu143 2.600 . S
C135 C137 1.397 . S
C135 C138 1.367 . S
C135 H155 0.931 . S
C136 C133 1.405 . S
C136 C138 1.403 . S
C136 C142 1.439 . S
C137 N134 1.319 . S
C137 C135 1.397 . S
C137 H148 0.930 . S
C138 C135 1.367 . S
C138 C136 1.403 . S
C138 H159 0.929 . S
C139 C140 1.430 . S
C139 C141 1.387 . S
C139 C145 1.404 . S
C140 C133 1.448 . S
C140 C139 1.430 . S
C140 N144 1.351 . S
C141 C139 1.387 . S
C141 C142 1.374 . S
C141 H156 0.931 . S
C142 C136 1.439 . S
C142 C141 1.374 . S
C142 H157 0.931 . S
Eu143 N134 2.600 . S
Eu143 N144 2.562 . S
Eu143 O178 2.335 . S
Eu143 O181 2.372 . S
Eu143 O182 2.462 . S
Eu143 O183 2.373 . S
Eu143 O185 2.432 . S
Eu143 O186 2.291 . S
Eu143 C207 2.787 . S
N144 C140 1.351 . S
N144 Eu143 2.562 . S
N144 C146 1.325 . S
C145 C139 1.404 . S
C145 C147 1.366 . S
C145 H153 0.930 . S
C146 N144 1.325 . S
C146 C147 1.416 . S
C146 H152 0.929 . S
C147 C145 1.366 . S
C147 C146 1.416 . S
C147 H149 0.930 . S
H148 C137 0.930 . S
H149 C147 0.930 . S
H150 C165 0.930 . S
H151 C172 0.930 . S
H152 C146 0.929 . S
H153 C145 0.930 . S
H154 C168 0.929 . S
H155 C135 0.931 . S
H156 C141 0.931 . S
H157 C142 0.931 . S
H158 C163 0.931 . S
H159 C138 0.929 . S
H160 C171 0.930 . S
N161 Eu132 2.600 . S
N161 C162 1.365 . S
N161 C165 1.319 1_554 S
C162 N161 1.365 . S
C162 C164 1.405 . S
C162 C170 1.448 . S
C163 H158 0.931 . S
C163 C165 1.397 . S
C163 C166 1.367 1_556 S
C164 C162 1.405 . S
C164 C166 1.403 . S
C164 C197 1.439 . S
C165 H150 0.930 . S
C165 N161 1.319 1_556 S
C165 C163 1.397 . S
C166 C163 1.367 1_554 S
C166 C164 1.403 . S
C166 H173 0.929 . S
N167 Eu132 2.562 . S
N167 C168 1.325 . S
N167 C170 1.351 . S
C168 H154 0.929 . S
C168 N167 1.325 . S
C168 C172 1.416 . S
C169 C170 1.430 . S
C169 C171 1.404 . S
C169 C198 1.387 . S
C170 C162 1.448 . S
C170 N167 1.351 . S
C170 C169 1.430 . S
C171 H160 0.930 . S
C171 C169 1.404 . S
C171 C172 1.366 . S
C172 H151 0.930 . S
C172 C168 1.416 . S
C172 C171 1.366 . S
H173 C166 0.929 . S
H174 C197 0.931 . S
H175 C198 0.931 . S
O176 Eu132 2.462 1_556 S
O176 C196 1.252 . S
O177 Eu132 2.373 . S
O177 C188 1.249 . S
O178 Eu143 2.335 . S
O178 C188 1.264 . S
O179 Eu132 2.432 1_556 S
O179 C196 1.268 . S
O180 Eu132 2.291 . S
O180 C195 1.255 . S
O181 Eu143 2.372 . S
O181 C195 1.257 . S
O182 Eu143 2.462 . S
O182 C207 1.252 . S
O183 Eu143 2.373 . S
O183 C199 1.249 1_554 S
O184 Eu132 2.335 1_556 S
O184 C199 1.264 . S
O185 Eu143 2.432 . S
O185 C207 1.268 . S
O186 Eu143 2.291 . S
O186 C206 1.255 . S
O187 Eu132 2.372 . S
O187 C206 1.257 . S
C188 O177 1.249 . S
C188 O178 1.264 . S
C189 C192 1.382 . S
C189 C194 1.390 . S
C189 C196 1.506 . S
C190 C191 1.398 . S
C190 C194 1.392 . S
C191 C190 1.398 . S
C191 C193 1.372 . S
C191 H208 0.931 . S
C192 C189 1.382 . S
C192 C193 1.390 . S
C192 H209 0.931 . S
C193 C191 1.372 . S
C193 C192 1.390 . S
C193 H210 0.929 . S
C194 C189 1.390 . S
C194 C190 1.392 . S
C194 H211 0.930 . S
C195 O180 1.255 . S
C195 O181 1.257 . S
C196 Eu132 2.787 1_556 S
C196 O176 1.252 . S
C196 O179 1.268 . S
C196 C189 1.506 . S
C197 C164 1.439 . S
C197 H174 0.931 . S
C197 C198 1.374 . S
C198 C169 1.387 . S
C198 H175 0.931 . S
C198 C197 1.374 . S
C199 O183 1.249 1_556 S
C199 O184 1.264 . S
C200 C203 1.382 . S
C200 C204 1.390 . S
C200 C207 1.506 . S
C201 C202 1.398 . S
C201 C204 1.392 . S
C202 C201 1.398 . S
C202 C205 1.372 . S
C202 H212 0.931 . S
C203 C200 1.382 . S
C203 C205 1.390 . S
C203 H213 0.931 . S
C204 C200 1.390 . S
C204 C201 1.392 . S
C204 H214 0.930 . S
C205 C202 1.372 . S
C205 C203 1.390 . S
C205 H215 0.929 . S
C206 O186 1.255 . S
C206 O187 1.257 . S
C207 Eu143 2.787 . S
C207 O182 1.252 . S
C207 O185 1.268 . S
C207 C200 1.506 . S
H208 C191 0.931 . S
H209 C192 0.931 . S
H210 C193 0.929 . S
H211 C194 0.930 . S
H212 C202 0.931 . S
H213 C203 0.931 . S
H214 C204 0.930 . S
H215 C205 0.929 . S
C216 C217 1.363 . S
C216 C222 1.379 . S
C216 N224 1.356 . S
C217 C216 1.363 . S
C217 C223 1.363 . S
C218 C219 1.363 . S
C218 C223 1.379 . S
C218 N225 1.356 . S
C219 C218 1.363 . S
C219 C222 1.363 . S
N220 C222 1.356 . S
N220 H232 0.984 . S
N220 H233 0.985 . S
N221 C223 1.356 . S
N221 H226 0.984 . S
N221 H227 0.985 . S
C222 C216 1.379 . S
C222 C219 1.363 . S
C222 N220 1.356 . S
C223 C217 1.363 . S
C223 C218 1.379 . S
C223 N221 1.356 . S
N224 C216 1.356 . S
N224 H230 0.984 . S
N224 H231 0.984 . S
N225 C218 1.356 . S
N225 H228 0.984 . S
N225 H229 0.985 . S
H226 N221 0.984 . S
H227 N221 0.985 . S
H228 N225 0.984 . S
H229 N225 0.985 . S
H230 N224 0.984 . S
H231 N224 0.984 . S
H232 N220 0.984 . S
H233 N220 0.985 . S
C234 C235 1.363 . S
C234 C240 1.379 . S
C234 N242 1.356 1_554 S
C235 C234 1.363 . S
C235 C241 1.363 . S
C236 C237 1.363 . S
C236 C241 1.379 . S
C236 N243 1.356 . S
C237 C236 1.363 . S
C237 C240 1.363 . S
N238 C240 1.356 1_556 S
N238 H250 0.984 . S
N238 H251 0.985 . S
N239 C241 1.356 . S
N239 H244 0.984 . S
N239 H245 0.985 . S
C240 C234 1.379 . S
C240 C237 1.363 . S
C240 N238 1.356 1_554 S
C241 C235 1.363 . S
C241 C236 1.379 . S
C241 N239 1.356 . S
N242 C234 1.356 1_556 S
N242 H248 0.984 . S
N242 H249 0.984 . S
N243 C236 1.356 . S
N243 H246 0.984 . S
N243 H247 0.985 . S
H244 N239 0.984 . S
H245 N239 0.985 . S
H246 N243 0.984 . S
H247 N243 0.985 . S
H248 N242 0.984 . S
H249 N242 0.984 . S
H250 N238 0.984 . S
H251 N238 0.985 . S
C252 C253 1.363 . S
C252 C258 1.379 . S
C252 N260 1.356 . S
C253 C252 1.363 . S
C253 C259 1.363 . S
C254 C255 1.363 . S
C254 C259 1.379 . S
C254 N261 1.356 . S
C255 C254 1.363 . S
C255 C258 1.363 . S
N256 C258 1.356 . S
N256 H268 0.984 1_565 S
N256 H269 0.985 . S
N257 C259 1.356 . S
N257 H262 0.984 . S
N257 H263 0.985 . S
C258 C252 1.379 . S
C258 C255 1.363 . S
C258 N256 1.356 . S
C259 C253 1.363 . S
C259 C254 1.379 . S
C259 N257 1.356 . S
N260 C252 1.356 . S
N260 H266 0.984 . S
N260 H267 0.984 . S
N261 C254 1.356 . S
N261 H264 0.984 . S
N261 H265 0.985 . S
H262 N257 0.984 . S
H263 N257 0.985 . S
H264 N261 0.984 . S
H265 N261 0.985 . S
H266 N260 0.984 . S
H267 N260 0.984 . S
H268 N256 0.984 1_545 S
H269 N256 0.985 . S
C270 C271 1.363 . S
C270 C276 1.379 . S
C270 N278 1.356 . S
C271 C270 1.363 . S
C271 C277 1.363 . S
C272 C273 1.363 . S
C272 C277 1.379 . S
C272 N279 1.356 1_554 S
C273 C272 1.363 . S
C273 C276 1.363 . S
N274 C276 1.356 . S
N274 H286 0.984 . S
N274 H287 0.985 . S
N275 C277 1.356 1_556 S
N275 H280 0.984 1_556 S
N275 H281 0.985 . S
C276 C270 1.379 . S
C276 C273 1.363 . S
C276 N274 1.356 . S
C277 C271 1.363 . S
C277 C272 1.379 . S
C277 N275 1.356 1_554 S
N278 C270 1.356 . S
N278 H284 0.984 . S
N278 H285 0.984 . S
N279 C272 1.356 1_556 S
N279 H282 0.984 1_556 S
N279 H283 0.985 . S
H280 N275 0.984 1_554 S
H281 N275 0.985 . S
H282 N279 0.984 1_554 S
H283 N279 0.985 . S
H284 N278 0.984 . S
H285 N278 0.984 . S
H286 N274 0.984 . S
H287 N274 0.985 . S
C288 C289 1.363 . S
C288 C294 1.379 . S
C288 N296 1.356 . S
C289 C288 1.363 . S
C289 C295 1.363 . S
C290 C291 1.363 . S
C290 C295 1.379 . S
C290 N297 1.356 . S
C291 C290 1.363 . S
C291 C294 1.363 . S
N292 C294 1.356 1_545 S
N292 H304 0.984 . S
N292 H305 0.985 . S
N293 C295 1.356 . S
N293 H298 0.984 . S
N293 H299 0.985 . S
C294 C288 1.379 . S
C294 C291 1.363 . S
C294 N292 1.356 1_565 S
C295 C289 1.363 . S
C295 C290 1.379 . S
C295 N293 1.356 . S
N296 C288 1.356 . S
N296 H302 0.984 . S
N296 H303 0.984 . S
N297 C290 1.356 . S
N297 H300 0.984 . S
N297 H301 0.985 . S
H298 N293 0.984 . S
H299 N293 0.985 . S
H300 N297 0.984 . S
H301 N297 0.985 . S
H302 N296 0.984 . S
H303 N296 0.984 . S
H304 N292 0.984 . S
H305 N292 0.985 . S
C306 C307 1.363 . S
C306 C312 1.379 . S
C306 N314 1.356 . S
C307 C306 1.363 . S
C307 C313 1.363 . S
C308 C309 1.363 . S
C308 C313 1.379 . S
C308 N315 1.356 . S
C309 C308 1.363 . S
C309 C312 1.363 . S
N310 C312 1.356 . S
N310 H322 0.984 . S
N310 H323 0.985 . S
N311 C313 1.356 . S
N311 H316 0.984 . S
N311 H317 0.985 . S
C312 C306 1.379 . S
C312 C309 1.363 . S
C312 N310 1.356 . S
C313 C307 1.363 . S
C313 C308 1.379 . S
C313 N311 1.356 . S
N314 C306 1.356 . S
N314 H320 0.984 . S
N314 H321 0.984 . S
N315 C308 1.356 . S
N315 H318 0.984 . S
N315 H319 0.985 . S
H316 N311 0.984 . S
H317 N311 0.985 . S
H318 N315 0.984 . S
H319 N315 0.985 . S
H320 N314 0.984 . S
H321 N314 0.984 . S
H322 N310 0.984 . S
H323 N310 0.985 . S
C324 C325 1.363 . S
C324 C330 1.379 . S
C324 N332 1.356 . S
C325 C324 1.363 . S
C325 C331 1.363 . S
C326 C327 1.363 . S
C326 C331 1.379 . S
C326 N333 1.356 . S
C327 C326 1.363 . S
C327 C330 1.363 . S
N328 C330 1.356 1_565 S
N328 H340 0.984 . S
N328 H341 0.985 . S
N329 C331 1.356 . S
N329 H334 0.984 . S
N329 H335 0.985 . S
C330 C324 1.379 . S
C330 C327 1.363 . S
C330 N328 1.356 1_545 S
C331 C325 1.363 . S
C331 C326 1.379 . S
C331 N329 1.356 . S
N332 C324 1.356 . S
N332 H338 0.984 1_545 S
N332 H339 0.984 . S
N333 C326 1.356 . S
N333 H336 0.984 . S
N333 H337 0.985 . S
H334 N329 0.984 . S
H335 N329 0.985 . S
H336 N333 0.984 . S
H337 N333 0.985 . S
H338 N332 0.984 1_565 S
H339 N332 0.984 . S
H340 N328 0.984 . S
H341 N328 0.985 . S
C342 C343 1.363 . S
C342 C348 1.379 . S
C342 N350 1.356 . S
C343 C342 1.363 . S
C343 C349 1.363 . S
C344 C345 1.363 . S
C344 C349 1.379 . S
C344 N351 1.356 . S
C345 C344 1.363 . S
C345 C348 1.363 . S
N346 C348 1.356 . S
N346 H358 0.984 . S
N346 H359 0.985 . S
N347 C349 1.356 . S
N347 H352 0.984 . S
N347 H353 0.985 . S
C348 C342 1.379 . S
C348 C345 1.363 . S
C348 N346 1.356 . S
C349 C343 1.363 . S
C349 C344 1.379 . S
C349 N347 1.356 . S
N350 C342 1.356 . S
N350 H356 0.984 . S
N350 H357 0.984 . S
N351 C344 1.356 . S
N351 H354 0.984 . S
N351 H355 0.985 . S
H352 N347 0.984 . S
H353 N347 0.985 . S
H354 N351 0.984 . S
H355 N351 0.985 . S
H356 N350 0.984 . S
H357 N350 0.984 . S
H358 N346 0.984 . S
H359 N346 0.985 . S
C360 C361 1.363 . S
C360 C366 1.379 . S
C360 N368 1.356 . S
C361 C360 1.363 . S
C361 C367 1.363 . S
C362 C363 1.363 . S
C362 C367 1.379 . S
C362 N369 1.356 . S
C363 C362 1.363 . S
C363 C366 1.363 . S
N364 C366 1.356 . S
N364 H376 0.984 . S
N364 H377 0.985 . S
N365 C367 1.356 . S
N365 H370 0.984 . S
N365 H371 0.985 . S
C366 C360 1.379 . S
C366 C363 1.363 . S
C366 N364 1.356 . S
C367 C361 1.363 . S
C367 C362 1.379 . S
C367 N365 1.356 . S
N368 C360 1.356 . S
N368 H374 0.984 . S
N368 H375 0.984 . S
N369 C362 1.356 . S
N369 H372 0.984 . S
N369 H373 0.985 . S
H370 N365 0.984 . S
H371 N365 0.985 . S
H372 N369 0.984 . S
H373 N369 0.985 . S
H374 N368 0.984 . S
H375 N368 0.984 . S
H376 N364 0.984 . S
H377 N364 0.985 . S
C378 C379 1.363 1_554 S
C378 C384 1.379 1_554 S
C378 N386 1.356 . S
C379 C378 1.363 1_556 S
C379 C385 1.363 . S
C380 C381 1.363 . S
C380 C385 1.379 . S
C380 N387 1.356 . S
C381 C380 1.363 . S
C381 C384 1.363 . S
N382 C384 1.356 . S
N382 H394 0.984 1_546 S
N382 H395 0.985 . S
N383 C385 1.356 . S
N383 H388 0.984 . S
N383 H389 0.985 . S
C384 C378 1.379 1_556 S
C384 C381 1.363 . S
C384 N382 1.356 . S
C385 C379 1.363 . S
C385 C380 1.379 . S
C385 N383 1.356 . S
N386 C378 1.356 . S
N386 H392 0.984 . S
N386 H393 0.984 . S
N387 C380 1.356 . S
N387 H390 0.984 . S
N387 H391 0.985 . S
H388 N383 0.984 . S
H389 N383 0.985 . S
H390 N387 0.984 . S
H391 N387 0.985 . S
H392 N386 0.984 . S
H393 N386 0.984 . S
H394 N382 0.984 1_564 S
H395 N382 0.985 . S
C396 C397 1.363 . S
C396 C402 1.379 . S
C396 N404 1.356 . S
C397 C396 1.363 . S
C397 C403 1.363 . S
C398 C399 1.363 . S
C398 C403 1.379 . S
C398 N405 1.356 . S
C399 C398 1.363 . S
C399 C402 1.363 . S
N400 C402 1.356 . S
N400 H412 0.984 . S
N400 H413 0.985 . S
N401 C403 1.356 . S
N401 H406 0.984 . S
N401 H407 0.985 . S
C402 C396 1.379 . S
C402 C399 1.363 . S
C402 N400 1.356 . S
C403 C397 1.363 . S
C403 C398 1.379 . S
C403 N401 1.356 . S
N404 C396 1.356 . S
N404 H410 0.984 . S
N404 H411 0.984 . S
N405 C398 1.356 . S
N405 H408 0.984 . S
N405 H409 0.985 . S
H406 N401 0.984 . S
H407 N401 0.985 . S
H408 N405 0.984 . S
H409 N405 0.985 . S
H410 N404 0.984 . S
H411 N404 0.984 . S
H412 N400 0.984 . S
H413 N400 0.985 . S
C414 C415 1.363 . S
C414 C420 1.379 . S
C414 N422 1.356 . S
C415 C414 1.363 . S
C415 C421 1.363 . S
C416 C417 1.363 . S
C416 C421 1.379 . S
C416 N423 1.356 . S
C417 C416 1.363 . S
C417 C420 1.363 . S
N418 C420 1.356 1_545 S
N418 H430 0.984 . S
N418 H431 0.985 . S
N419 C421 1.356 . S
N419 H424 0.984 . S
N419 H425 0.985 . S
C420 C414 1.379 . S
C420 C417 1.363 . S
C420 N418 1.356 1_565 S
C421 C415 1.363 . S
C421 C416 1.379 . S
C421 N419 1.356 . S
N422 C414 1.356 . S
N422 H428 0.984 1_565 S
N422 H429 0.984 . S
N423 C416 1.356 . S
N423 H426 0.984 . S
N423 H427 0.985 . S
H424 N419 0.984 . S
H425 N419 0.985 . S
H426 N423 0.984 . S
H427 N423 0.985 . S
H428 N422 0.984 1_545 S
H429 N422 0.984 . S
H430 N418 0.984 . S
H431 N418 0.985 . S
C219 C111 1.636 . S
C217 C40 1.637 . S
C235 C4 1.644 . S
C237 C206 1.637 . S
C253 C16 1.631 . S
C255 C122 1.654 . S
C271 C28 1.601 . S
C273 C195 1.611 . S
C291 C106 1.409 . S
C289 C9 1.589 . S
C309 C199 1.687 . S
C307 C18 1.684 . S
C325 C33 1.624 . S
C327 C115 1.650 . S
C343 C45 1.591 . S
C345 C190 1.427 . S
C363 C201 1.397 . S
C361 C21 1.562 . S
C381 C117 1.363 . S
C379 C30 1.550 1_556 S
C399 C188 1.626 . S
C397 C42 1.612 . S
C415 C6 1.572 . S
C417 C104 1.600 . S
