# Generated by pormake.
# Topology pth, (4,4)-cn, num edge types: 1
# Building blocks:
#     Node 0, Type 0, BuildingBlock: KUFVIS_clean_sbu_0, # of connection points: 4
#     Node 1, Type 0, BuildingBlock: KUFVIS_clean_sbu_0, # of connection points: 4
#     Node 2, Type 0, BuildingBlock: KUFVIS_clean_sbu_0, # of connection points: 4
#     Node 3, Type 1, BuildingBlock: AZAVOO_clean_linker_0, # of connection points: 4
#     Node 4, Type 1, BuildingBlock: AZAVOO_clean_linker_0, # of connection points: 4
#     Node 5, Type 1, BuildingBlock: AZAVOO_clean_linker_0, # of connection points: 4
#     Edge 6, Type (0, 1), BuildingBlock: EZIPEK_clean_linker_0, # of connection points: 2
#     Edge 7, Type (0, 1), BuildingBlock: EZIPEK_clean_linker_0, # of connection points: 2
#     Edge 8, Type (0, 1), BuildingBlock: EZIPEK_clean_linker_0, # of connection points: 2
#     Edge 9, Type (0, 1), BuildingBlock: EZIPEK_clean_linker_0, # of connection points: 2
#     Edge 10, Type (0, 1), BuildingBlock: EZIPEK_clean_linker_0, # of connection points: 2
#     Edge 11, Type (0, 1), BuildingBlock: EZIPEK_clean_linker_0, # of connection points: 2
#     Edge 12, Type (0, 1), BuildingBlock: EZIPEK_clean_linker_0, # of connection points: 2
#     Edge 13, Type (0, 1), BuildingBlock: EZIPEK_clean_linker_0, # of connection points: 2
#     Edge 14, Type (0, 1), BuildingBlock: EZIPEK_clean_linker_0, # of connection points: 2
#     Edge 15, Type (0, 1), BuildingBlock: EZIPEK_clean_linker_0, # of connection points: 2
#     Edge 16, Type (0, 1), BuildingBlock: EZIPEK_clean_linker_0, # of connection points: 2
#     Edge 17, Type (0, 1), BuildingBlock: EZIPEK_clean_linker_0, # of connection points: 2
# Relax obj value: 0.128
# Max RMSD: 0.225
# Mean RMSD: 0.161
data_MOF--net-pth--node1-KUFVIS_clean_sbu_0--node2-AZAVOO_clean_linker_0--edge1-EZIPEK_clean_linker_0
_symmetry_space_group_name_H-M    P1
_symmetry_Int_Tables_number       1
_symmetry_cell_setting            triclinic
loop_
_symmetry_equiv_pos_as_xyz
'x, y, z'
_cell_length_a     20.077282
_cell_length_b     20.367637
_cell_length_c     55.24279
_cell_angle_alpha  92.826016
_cell_angle_beta   90.970541
_cell_angle_gamma 120.20413
loop_
_atom_site_label
_atom_site_type_symbol
_atom_site_fract_x
_atom_site_fract_y
_atom_site_fract_z
_atom_type_partial_charge
Mn0 Mn 0.12868 0.08617 0.08972 0.0
Mn1 Mn 0.07012 0.20185 0.0681 0.0
C2 C 0.06738 0.05794 0.05161 0.0
C3 C 0.1043 0.98687 0.11345 0.0
C4 C 0.23664 0.23783 0.06924 0.0
O5 O 0.13413 0.15136 0.11958 0.0
O6 O 0.07897 0.21414 0.1042 0.0
C7 C 0.9132 0.12731 0.08692 0.0
N8 N 0.96004 0.15183 0.06786 0.0
C9 C 0.851 0.10492 0.0395 0.0
C10 C 0.80163 0.07964 0.05884 0.0
C11 C 0.83288 0.09071 0.08264 0.0
C12 C 0.93054 0.14084 0.04486 0.0
H13 H 0.9369 0.13515 0.10523 0.0
C14 C 0.10607 0.19505 0.12196 0.0
O15 O 0.17446 0.03739 0.1089 0.0
O16 O 0.04845 0.99369 0.10426 0.0
N17 N 0.05764 0.19494 0.03344 0.0
C18 C 0.11306 0.22209 0.01676 0.0
C19 C 0.09132 0.21489 0.99205 0.0
C20 C 0.01296 0.18083 0.98475 0.0
C21 C 0.95707 0.15503 0.00228 0.0
C22 C 0.98225 0.16433 0.02666 0.0
H23 H 0.17343 0.24866 0.0222 0.0
O24 O 0.10742 0.02684 0.0577 0.0
O25 O 0.06327 0.1029 0.06825 0.0
O26 O 0.2252 0.17564 0.07733 0.0
O27 O 0.18406 0.25539 0.0668 0.0
C28 C 0.87735 0.12004 0.99649 0.0
C29 C 0.82433 0.09474 0.01508 0.0
H30 H 0.73963 0.05111 0.05561 0.0
H31 H 0.79512 0.07088 0.09765 0.0
H32 H 0.13488 0.23526 0.97867 0.0
H33 H 0.99637 0.17474 0.96565 0.0
H34 H 0.85615 0.11176 0.97778 0.0
H35 H 0.76311 0.067 0.01037 0.0
Mn36 Mn 0.02053 0.04404 0.41712 0.0
Mn37 Mn 0.12807 0.22349 0.44268 0.0
C38 C 0.11372 0.07002 0.44686 0.0
C39 C 0.99782 0.94703 0.38825 0.0
C40 C 0.96641 0.11365 0.45752 0.0
O41 O 0.00014 0.10596 0.39337 0.0
O42 O 0.07424 0.22287 0.41196 0.0
C43 C 0.24296 0.28882 0.40502 0.0
N44 N 0.22638 0.27473 0.42866 0.0
C45 C 0.36044 0.35103 0.44161 0.0
C46 C 0.37902 0.36651 0.4174 0.0
C47 C 0.32005 0.33478 0.39901 0.0
C48 C 0.28276 0.30384 0.44643 0.0
H49 H 0.19766 0.26561 0.39091 0.0
C50 C 0.02826 0.17789 0.39465 0.0
O51 O 0.94195 0.94556 0.40014 0.0
O52 O 0.06559 0.00732 0.3917 0.0
N53 N 0.18463 0.23542 0.47239 0.0
C54 C 0.15757 0.2104 0.49454 0.0
C55 C 0.20951 0.23411 0.51478 0.0
C56 C 0.28841 0.28485 0.51217 0.0
C57 C 0.31482 0.31038 0.48924 0.0
C58 C 0.26056 0.28348 0.46964 0.0
H59 H 0.09698 0.17187 0.49666 0.0
O60 O 0.05728 0.00153 0.44154 0.0
O61 O 0.11639 0.12321 0.43386 0.0
O62 O 0.95417 0.05841 0.44255 0.0
O63 O 0.02992 0.17652 0.4588 0.0
C64 C 0.39303 0.36057 0.48497 0.0
C65 C 0.4159 0.38042 0.46114 0.0
H66 H 0.43834 0.40247 0.41271 0.0
H67 H 0.33393 0.34641 0.38029 0.0
H68 H 0.18869 0.21383 0.53239 0.0
H69 H 0.32826 0.30333 0.52785 0.0
H70 H 0.43629 0.38266 0.49978 0.0
H71 H 0.47638 0.41769 0.45801 0.0
Mn72 Mn 0.11622 0.12026 0.76163 0.0
Mn73 Mn 0.03281 0.21127 0.78875 0.0
C74 C 0.18038 0.20937 0.79375 0.0
C75 C 0.1985 0.1151 0.73341 0.0
C76 C 0.98143 0.04527 0.79485 0.0
O77 O 0.03244 0.10399 0.73653 0.0
O78 O 0.99088 0.17916 0.75419 0.0
C79 C 0.09206 0.3514 0.76209 0.0
N80 N 0.08782 0.31746 0.78303 0.0
C81 C 0.16619 0.43934 0.8049 0.0
C82 C 0.17352 0.47521 0.7833 0.0
C83 C 0.13582 0.43101 0.76182 0.0
C84 C 0.12217 0.35968 0.80397 0.0
H85 H 0.0612 0.31799 0.7459 0.0
C86 C 0.99053 0.13501 0.73653 0.0
O87 O 0.14562 0.0537 0.7425 0.0
O88 O 0.19936 0.17794 0.73916 0.0
N89 N 0.07034 0.24409 0.82186 0.0
C90 C 0.05688 0.20101 0.8413 0.0
C91 C 0.08882 0.23679 0.86434 0.0
C92 C 0.13377 0.31647 0.86722 0.0
C93 C 0.14589 0.35966 0.84706 0.0
C94 C 0.11239 0.32087 0.82455 0.0
H95 H 0.02247 0.13974 0.83929 0.0
O96 O 0.1977 0.15721 0.78839 0.0
O97 O 0.12405 0.20558 0.78069 0.0
O98 O 0.03409 0.04286 0.7829 0.0
O99 O 0.97357 0.10367 0.79686 0.0
C100 C 0.19032 0.4397 0.84841 0.0
C101 C 0.20071 0.47953 0.82733 0.0
H102 H 0.20712 0.53664 0.78306 0.0
H103 H 0.13988 0.45826 0.74514 0.0
H104 H 0.07913 0.20298 0.87981 0.0
H105 H 0.15885 0.34389 0.88497 0.0
H106 H 0.21692 0.47115 0.86558 0.0
H107 H 0.23528 0.5411 0.82858 0.0
H108 H 0.9917 0.37667 0.0938 0.0
H109 H 0.0623 0.00523 0.26326 0.0
H110 H 0.8981 0.33657 0.21742 0.0
H111 H 0.94005 0.26108 0.19341 0.0
H112 H 0.15889 0.37371 0.23389 0.0
H113 H 0.12019 0.45606 0.25592 0.0
H114 H 0.89103 0.42759 0.18817 0.0
H115 H 0.90992 0.39478 0.14659 0.0
H116 H 0.15691 0.53349 0.15997 0.0
H117 H 0.13715 0.5624 0.20189 0.0
H118 H 0.89337 0.58314 0.19646 0.0
H119 H 0.91703 0.67894 0.16704 0.0
H120 H 0.16061 0.79388 0.18654 0.0
H121 H 0.13685 0.69871 0.21598 0.0
H122 H 0.86909 0.6265 0.24464 0.0
H123 H 0.87035 0.74748 0.24572 0.0
H124 H 0.11326 0.86706 0.2673 0.0
H125 H 0.11155 0.74597 0.26542 0.0
H126 H 0.85616 0.53118 0.29412 0.0
H127 H 0.84861 0.61528 0.32613 0.0
H128 H 0.09714 0.74674 0.33275 0.0
H129 H 0.10442 0.66091 0.30171 0.0
H130 H 0.87348 0.35176 0.27589 0.0
H131 H 0.87429 0.26913 0.30684 0.0
H132 H 0.10063 0.4466 0.33332 0.0
H133 H 0.09981 0.52925 0.30246 0.0
O134 O 0.98537 0.39145 0.11014 0.0
O135 O 0.11184 0.46533 0.11776 0.0
O136 O 0.93504 0.89241 0.2518 0.0
O137 O 0.05992 0.95654 0.26295 0.0
C138 C 0.9965 0.47044 0.24277 0.0
C139 C 0.00114 0.51542 0.22334 0.0
C140 C 0.99933 0.58281 0.22787 0.0
C141 C 0.99104 0.60532 0.25153 0.0
C142 C 0.9863 0.56109 0.27109 0.0
C143 C 0.98925 0.49337 0.2668 0.0
C144 C 0.00735 0.4042 0.23755 0.0
C145 C 0.95448 0.34392 0.22154 0.0
C146 C 0.97842 0.3008 0.20787 0.0
C147 C 0.05413 0.31493 0.21103 0.0
C148 C 0.10122 0.36412 0.23062 0.0
C149 C 0.07884 0.41051 0.24337 0.0
C150 C 0.01278 0.49535 0.19818 0.0
C151 C 0.94915 0.44976 0.18216 0.0
C152 C 0.96013 0.43152 0.1584 0.0
C153 C 0.03502 0.46052 0.15007 0.0
C154 C 0.09851 0.50919 0.16592 0.0
C155 C 0.08746 0.52572 0.18986 0.0
C156 C 0.01351 0.63438 0.20819 0.0
C157 C 0.95183 0.62835 0.19404 0.0
C158 C 0.96525 0.68271 0.17741 0.0
C159 C 0.04047 0.74303 0.17478 0.0
C160 C 0.10234 0.74744 0.18838 0.0
C161 C 0.08888 0.69339 0.20503 0.0
C162 C 0.9898 0.67744 0.25546 0.0
C163 C 0.92217 0.67883 0.24993 0.0
C164 C 0.92325 0.74803 0.25037 0.0
C165 C 0.99196 0.817 0.25663 0.0
C166 C 0.05935 0.81507 0.2625 0.0
C167 C 0.05838 0.74593 0.26172 0.0
C168 C 0.98086 0.58963 0.29572 0.0
C169 C 0.90881 0.57556 0.30343 0.0
C170 C 0.90454 0.62417 0.32137 0.0
C171 C 0.97235 0.68848 0.33122 0.0
C172 C 0.04418 0.69805 0.32513 0.0
C173 C 0.04836 0.64847 0.30768 0.0
C174 C 0.98621 0.44689 0.2871 0.0
C175 C 0.9227 0.37326 0.28862 0.0
C176 C 0.92322 0.32616 0.30616 0.0
C177 C 0.98756 0.35192 0.32227 0.0
C178 C 0.05046 0.42597 0.32105 0.0
C179 C 0.04975 0.47319 0.30361 0.0
C180 C 0.0467 0.43959 0.12503 0.0
C181 C 0.9936 0.89071 0.25696 0.0
H182 H 0.41126 0.75864 0.45508 0.0
H183 H 0.31409 0.34256 0.59669 0.0
H184 H 0.63041 0.9316 0.57492 0.0
H185 H 0.7261 0.93397 0.54679 0.0
H186 H 0.80491 0.17017 0.53624 0.0
H187 H 0.71431 0.16878 0.56498 0.0
H188 H 0.42928 0.88751 0.55368 0.0
H189 H 0.40431 0.81376 0.51488 0.0
H190 H 0.59235 0.00988 0.48467 0.0
H191 H 0.61772 0.08214 0.5235 0.0
H192 H 0.33072 0.00543 0.57256 0.0
H193 H 0.25063 0.02985 0.54553 0.0
H194 H 0.42817 0.10322 0.49312 0.0
H195 H 0.5189 0.11592 0.52509 0.0
H196 H 0.35175 0.04235 0.61661 0.0
H197 H 0.27728 0.10668 0.61997 0.0
H198 H 0.45808 0.29987 0.58632 0.0
H199 H 0.53165 0.2342 0.58268 0.0
H200 H 0.42897 0.97626 0.6378 0.0
H201 H 0.35955 0.9939 0.67096 0.0
H202 H 0.53143 0.23255 0.67927 0.0
H203 H 0.5979 0.21579 0.6444 0.0
H204 H 0.57078 0.99144 0.64782 0.0
H205 H 0.667 0.0077 0.67908 0.0
H206 H 0.8477 0.17331 0.63727 0.0
H207 H 0.75114 0.1671 0.60857 0.0
O208 O 0.42263 0.78846 0.47036 0.0
O209 O 0.52004 0.891 0.45577 0.0
O210 O 0.25272 0.21642 0.61378 0.0
O211 O 0.34317 0.31644 0.59602 0.0
C212 C 0.59661 0.04701 0.58215 0.0
C213 C 0.53729 0.0345 0.56509 0.0
C214 C 0.48675 0.06169 0.57073 0.0
C215 C 0.48949 0.09179 0.5946 0.0
C216 C 0.53664 0.08736 0.61305 0.0
C217 C 0.59452 0.06989 0.60674 0.0
C218 C 0.66624 0.05038 0.57224 0.0
C219 C 0.67109 0.98456 0.56739 0.0
C220 C 0.72459 0.98564 0.55108 0.0
C221 C 0.77086 0.05158 0.53879 0.0
C222 C 0.76935 0.11834 0.5452 0.0
C223 C 0.71825 0.11789 0.56188 0.0
C224 C 0.52601 0.98993 0.54164 0.0
C225 C 0.46568 0.9141 0.53875 0.0
C226 C 0.45135 0.87221 0.51653 0.0
C227 C 0.49663 0.90578 0.49669 0.0
C228 C 0.55686 0.98195 0.49963 0.0
C229 C 0.5721 0.02319 0.52197 0.0
C230 C 0.43254 0.06082 0.55158 0.0
C231 C 0.35474 0.03329 0.55616 0.0
C232 C 0.30753 0.0439 0.54001 0.0
C233 C 0.33184 0.06825 0.51668 0.0
C234 C 0.40734 0.08723 0.51105 0.0
C235 C 0.45873 0.09024 0.52899 0.0
C236 C 0.44786 0.13395 0.59971 0.0
C237 C 0.37641 0.0994 0.61061 0.0
C238 C 0.33317 0.13573 0.61208 0.0
C239 C 0.36169 0.20847 0.60339 0.0
C240 C 0.4344 0.24393 0.5932 0.0
C241 C 0.47685 0.20681 0.59128 0.0
C242 C 0.51806 0.09481 0.63853 0.0
C243 C 0.45348 0.03194 0.6473 0.0
C244 C 0.41334 0.04215 0.66605 0.0
C245 C 0.43866 0.11506 0.67693 0.0
C246 C 0.50985 0.17618 0.67062 0.0
C247 C 0.54843 0.16652 0.65102 0.0
C248 C 0.65314 0.07728 0.62543 0.0
C249 C 0.63085 0.03275 0.64565 0.0
C250 C 0.68599 0.0412 0.66336 0.0
C251 C 0.76509 0.09136 0.66056 0.0
C252 C 0.7873 0.13414 0.63997 0.0
C253 C 0.73194 0.12934 0.62319 0.0
C254 C 0.48074 0.86158 0.47302 0.0
C255 C 0.31573 0.2471 0.60477 0.0
H256 H 0.71544 0.81572 0.08856 0.0
H257 H 0.19097 0.17726 0.93874 0.0
H258 H 0.68954 0.85993 0.94034 0.0
H259 H 0.80048 0.96816 0.96263 0.0
H260 H 0.91248 0.83536 0.96699 0.0
H261 H 0.80575 0.73079 0.94253 0.0
H262 H 0.57903 0.74318 0.98955 0.0
H263 H 0.62058 0.78045 0.03239 0.0
H264 H 0.78958 0.70992 0.02369 0.0
H265 H 0.74531 0.67009 0.98119 0.0
H266 H 0.43005 0.57896 0.97668 0.0
H267 H 0.36751 0.4921 0.00902 0.0
H268 H 0.55305 0.44326 0.01153 0.0
H269 H 0.61421 0.52809 0.97867 0.0
H270 H 0.37943 0.55078 0.92457 0.0
H271 H 0.25752 0.43057 0.92603 0.0
H272 H 0.38405 0.31259 0.93518 0.0
H273 H 0.5055 0.43301 0.93312 0.0
H274 H 0.44839 0.62728 0.88649 0.0
H275 H 0.35664 0.53532 0.85507 0.0
H276 H 0.49473 0.42829 0.849 0.0
H277 H 0.58508 0.51875 0.88102 0.0
H278 H 0.63668 0.81012 0.89578 0.0
H279 H 0.71965 0.88933 0.86443 0.0
H280 H 0.79996 0.73088 0.85109 0.0
H281 H 0.71801 0.65243 0.88283 0.0
O282 O 0.69974 0.80041 0.0716 0.0
O283 O 0.78493 0.7623 0.06624 0.0
O284 O 0.17571 0.2872 0.9305 0.0
O285 O 0.23825 0.22512 0.93731 0.0
C286 C 0.66451 0.71503 0.93649 0.0
C287 C 0.6284 0.6749 0.95702 0.0
C288 C 0.55967 0.60435 0.95402 0.0
C289 C 0.5248 0.5746 0.93072 0.0
C290 C 0.56041 0.61457 0.91011 0.0
C291 C 0.63094 0.68463 0.91292 0.0
C292 C 0.73914 0.78707 0.94037 0.0
C293 C 0.74019 0.85607 0.94473 0.0
C294 C 0.80311 0.91747 0.95761 0.0
C295 C 0.86231 0.9078 0.96751 0.0
C296 C 0.86608 0.84292 0.9601 0.0
C297 C 0.80535 0.78337 0.94611 0.0
C298 C 0.66082 0.70621 0.98208 0.0
C299 C 0.62574 0.73686 0.99687 0.0
C300 C 0.64912 0.75743 0.02138 0.0
C301 C 0.70859 0.74838 0.03145 0.0
C302 C 0.74395 0.71808 0.01648 0.0
C303 C 0.71961 0.69638 0.99209 0.0
C304 C 0.52616 0.55913 0.97532 0.0
C305 C 0.45745 0.55005 0.98439 0.0
C306 C 0.42223 0.50112 0.00283 0.0
C307 C 0.45593 0.46161 0.01248 0.0
C308 C 0.52666 0.47367 0.00426 0.0
C309 C 0.5613 0.5218 0.98561 0.0
C310 C 0.4512 0.50037 0.92831 0.0
C311 C 0.38061 0.49863 0.92629 0.0
C312 C 0.3111 0.43003 0.92744 0.0
C313 C 0.31105 0.36203 0.93095 0.0
C314 C 0.382 0.36392 0.9326 0.0
C315 C 0.45143 0.43246 0.9312 0.0
C316 C 0.5234 0.57973 0.88592 0.0
C317 C 0.46058 0.58606 0.87765 0.0
C318 C 0.40791 0.53323 0.85992 0.0
C319 C 0.41858 0.47463 0.84995 0.0
C320 C 0.4858 0.47332 0.85646 0.0
C321 C 0.53761 0.52521 0.87453 0.0
C322 C 0.67133 0.72558 0.89153 0.0
C323 C 0.67123 0.79188 0.88583 0.0
C324 C 0.71841 0.83691 0.868 0.0
C325 C 0.76606 0.81602 0.85557 0.0
C326 C 0.76352 0.74781 0.8605 0.0
C327 C 0.71668 0.70305 0.87848 0.0
C328 C 0.73349 0.77053 0.05746 0.0
C329 C 0.23747 0.28938 0.93287 0.0
C330 C 0.05702 0.17488 0.16422 0.0
C331 C 0.10355 0.22519 0.14669 0.0
C332 C 0.13457 0.33498 0.17453 0.0
C333 C 0.08475 0.28529 0.19164 0.0
N334 N 0.01598 0.15946 0.2058 0.0
N335 N 0.19077 0.35335 0.13567 0.0
C336 C 0.05172 0.20551 0.18741 0.0
C337 C 0.14402 0.30492 0.15216 0.0
N338 N 0.01339 0.09846 0.1581 0.0
N339 N 0.17333 0.41208 0.17858 0.0
H340 H 0.1993 0.33467 0.11876 0.0
H341 H 0.2211 0.41246 0.13895 0.0
H342 H 0.17183 0.44136 0.19436 0.0
H343 H 0.17183 0.44136 0.19436 0.0
H344 H 0.9721 0.05968 0.16905 0.0
H345 H 0.01404 0.0739 0.14117 0.0
H346 H 0.99668 0.10141 0.20492 0.0
H347 H 0.01233 0.18114 0.22293 0.0
C348 C 0.83219 0.03835 0.47445 0.0
C349 C 0.90944 0.10101 0.47677 0.0
C350 C 0.89811 0.11132 0.52056 0.0
C351 C 0.81976 0.0538 0.51844 0.0
N352 N 0.70861 0.96549 0.49273 0.0
N353 N 0.99242 0.21919 0.50092 0.0
C354 C 0.7858 0.01721 0.49522 0.0
C355 C 0.93633 0.1441 0.49948 0.0
N356 N 0.80163 0.00192 0.45219 0.0
N357 N 0.93504 0.13744 0.54289 0.0
H358 H 0.01038 0.25138 0.48579 0.0
H359 H 0.01044 0.25256 0.51725 0.0
H360 H 0.908 0.11397 0.55879 0.0
H361 H 0.9941 0.17633 0.54512 0.0
H362 H 0.75162 0.9489 0.44965 0.0
H363 H 0.82597 0.0259 0.43608 0.0
H364 H 0.67819 0.94358 0.47611 0.0
H365 H 0.6734 0.94615 0.50738 0.0
C366 C 0.84749 0.93829 0.8017 0.0
C367 C 0.92773 0.97849 0.80827 0.0
C368 C 0.90194 0.91144 0.84578 0.0
C369 C 0.82231 0.86854 0.83859 0.0
N370 N 0.72113 0.82953 0.80769 0.0
N371 N 0.03304 0.99253 0.83411 0.0
C372 C 0.79566 0.87843 0.81588 0.0
C373 C 0.9555 0.96112 0.82943 0.0
N374 N 0.82056 0.95844 0.7822 0.0
N375 N 0.92598 0.90814 0.86878 0.0
H376 H 0.07438 0.03071 0.82304 0.0
H377 H 0.05641 0.97569 0.84779 0.0
H378 H 0.88876 0.87317 0.88146 0.0
H379 H 0.9816 0.94486 0.87609 0.0
H380 H 0.76222 0.93765 0.77815 0.0
H381 H 0.85681 -0.00015 0.77083 0.0
H382 H 0.70009 0.82865 0.79025 0.0
H383 H 0.68184 0.78509 0.81764 0.0
C384 C 0.09212 0.93775 0.15457 0.0
C385 C 0.08822 0.92443 0.12902 0.0
C386 C 0.05558 0.7926 0.13338 0.0
C387 C 0.05448 0.80452 0.15884 0.0
N388 N 0.05795 0.88296 0.19358 0.0
N389 N 0.05599 0.83811 0.09358 0.0
C390 C 0.06891 0.87565 0.16944 0.0
C391 C 0.06672 0.8514 0.11825 0.0
N392 N 0.1191 0.00995 0.1646 0.0
N393 N 0.04867 0.72612 0.12379 0.0
H394 H 0.06632 0.88058 0.08188 0.0
H395 H 0.0319 0.78413 0.08478 0.0
H396 H 0.03965 0.68148 0.13433 0.0
H397 H 0.05745 0.71713 0.10571 0.0
H398 H 0.13112 0.02482 0.18312 0.0
H399 H 0.13506 0.05664 0.15425 0.0
H400 H 0.05938 0.93068 0.20188 0.0
H401 H 0.04085 0.83857 0.20504 0.0
C402 C 0.25239 0.12168 0.46199 0.0
C403 C 0.17215 0.08034 0.46567 0.0
C404 C 0.19743 0.01841 0.49809 0.0
C405 C 0.2777 0.07225 0.49845 0.0
N406 N 0.37645 0.19133 0.48337 0.0
N407 N 0.07191 0.00458 0.4927 0.0
C408 C 0.30417 0.12899 0.48115 0.0
C409 C 0.14593 0.03434 0.48569 0.0
N410 N 0.27952 0.15113 0.44029 0.0
N411 N 0.17013 0.9492 0.5075 0.0
H412 H 0.0333 0.01846 0.48486 0.0
H413 H 0.05279 0.97353 0.50809 0.0
H414 H 0.20647 0.9299 0.51345 0.0
H415 H 0.11176 0.90756 0.50609 0.0
H416 H 0.2434 0.14374 0.42537 0.0
H417 H 0.3378 0.17652 0.43659 0.0
H418 H 0.39755 0.23225 0.4706 0.0
H419 H 0.41095 0.20704 0.49931 0.0
C420 C 0.27843 0.3496 0.79754 0.0
C421 C 0.23656 0.27899 0.80863 0.0
C422 C 0.31216 0.33828 0.84683 0.0
C423 C 0.35461 0.40826 0.83569 0.0
N424 N 0.37127 0.4852 0.80211 0.0
N425 N 0.22084 0.20279 0.84245 0.0
C426 C 0.33552 0.41529 0.81154 0.0
C427 C 0.25561 0.2725 0.83289 0.0
N428 N 0.268 0.35272 0.77316 0.0
N429 N 0.3229 0.33595 0.87121 0.0
H430 H 0.17508 0.15431 0.83357 0.0
H431 H 0.23941 0.19173 0.85864 0.0
H432 H 0.36307 0.38309 0.88212 0.0
H433 H 0.28779 0.2896 0.88111 0.0
H434 H 0.30286 0.39959 0.76343 0.0
H435 H 0.22803 0.3066 0.7619 0.0
H436 H 0.35256 0.49696 0.78608 0.0
H437 H 0.41704 0.53346 0.81114 0.0
C438 C 0.8788 0.04599 0.70691 0.0
C439 C 0.93868 0.12052 0.71478 0.0
C440 C 0.88152 0.17453 0.68884 0.0
C441 C 0.82482 0.1006 0.67927 0.0
N442 N 0.78583 0.96709 0.67442 0.0
N443 N 0.01358 0.25017 0.70413 0.0
C444 C 0.82805 0.03637 0.6869 0.0
C445 C 0.94509 0.1833 0.70302 0.0
N446 N 0.86896 0.98453 0.71867 0.0
N447 N 0.87371 0.23628 0.6854 0.0
H448 H 0.06349 0.25482 0.71206 0.0
H449 H 0.02247 0.29639 0.69444 0.0
H450 H 0.82488 0.23205 0.67685 0.0
H451 H 0.91178 0.29008 0.69364 0.0
H452 H 0.82085 0.93033 0.71537 0.0
H453 H 0.90593 0.98857 0.73286 0.0
H454 H 0.7915 0.9203 0.67795 0.0
H455 H 0.75178 0.95863 0.65882 0.0
C456 C 0.04551 0.03533 0.00623 0.0
C457 C 0.01495 0.02765 0.02962 0.0
C458 C 0.88326 0.95342 0.01159 0.0
C459 C 0.91381 0.95802 0.98828 0.0
N460 N 0.02089 0.01518 0.96243 0.0
N461 N 0.90621 0.96788 0.05515 0.0
C462 C 0.99428 0.0023 0.98534 0.0
C463 C 0.93419 0.98449 0.03245 0.0
N464 N 0.12365 0.07283 0.00416 0.0
N465 N 0.80539 0.91967 0.01394 0.0
H466 H 0.94082 0.98707 0.07109 0.0
H467 H 0.84889 0.92992 0.05842 0.0
H468 H 0.76464 0.88961 -0.00014 0.0
H469 H 0.78059 0.92593 0.02963 0.0
H470 H 0.15076 0.07406 0.98818 0.0
H471 H 0.16218 0.10135 0.01894 0.0
H472 H 0.07794 0.05225 0.95859 0.0
H473 H 0.98415 0.99312 0.9469 0.0
C474 C 0.0157 0.83371 0.38366 0.0
C475 C 0.98696 0.87855 0.37393 0.0
C476 C 0.94439 0.79633 0.33634 0.0
C477 C 0.9697 0.7493 0.34658 0.0
N478 N 0.01199 0.7127 0.38181 0.0
N479 N 0.9123 0.8958 0.34296 0.0
C480 C 0.00013 0.76493 0.37082 0.0
C481 C 0.9471 0.85734 0.35093 0.0
N482 N 0.05919 0.85733 0.40497 0.0
N483 N 0.92172 0.78543 0.31232 0.0
H484 H 0.91638 0.94308 0.35264 0.0
H485 H 0.8749 0.87773 0.32765 0.0
H486 H 0.91918 0.74192 0.30094 0.0
H487 H 0.9109 0.8228 0.30316 0.0
H488 H 0.08941 0.83204 0.41139 0.0
H489 H 0.07014 0.90585 0.41544 0.0
H490 H 0.02647 0.71689 0.40024 0.0
H491 H -0.00021 0.66105 0.37302 0.0
C492 C 0.27645 0.14739 0.69637 0.0
C493 C 0.26124 0.11607 0.71931 0.0
C494 C 0.36902 0.09177 0.71586 0.0
C495 C 0.38609 0.12596 0.6933 0.0
N496 N 0.36815 0.20425 0.66535 0.0
N497 N 0.3043 0.07535 0.7536 0.0
C498 C 0.34382 0.15964 0.68462 0.0
C499 C 0.31052 0.09273 0.72984 0.0
N500 N 0.22442 0.16195 0.68515 0.0
N501 N 0.40868 0.05811 0.7239 0.0
H502 H 0.2637 0.07699 0.76472 0.0
H503 H 0.34385 0.06606 0.76302 0.0
H504 H 0.4563 0.06211 0.71526 0.0
H505 H 0.39223 0.02332 0.73842 0.0
H506 H 0.22787 0.1765 0.66721 0.0
H507 H 0.17347 0.15218 0.69292 0.0
H508 H 0.34502 0.23755 0.66029 0.0
H509 H 0.41585 0.21387 0.65568 0.0
C510 C 0.33185 0.26819 0.03726 0.0
C511 C 0.31237 0.29026 0.05949 0.0
C512 C 0.40739 0.42369 0.05394 0.0
C513 C 0.41323 0.40237 0.02959 0.0
N514 N 0.37647 0.30457 0.99714 0.0
N515 N 0.33961 0.38564 0.09137 0.0
C516 C 0.37528 0.32458 0.02106 0.0
C517 C 0.35337 0.36729 0.06865 0.0
N518 N 0.30936 0.19368 0.03164 0.0
N519 N 0.4537 0.49744 0.06283 0.0
H520 H 0.30713 0.34361 0.10314 0.0
H521 H 0.35986 0.44104 0.09849 0.0
H522 H 0.49393 0.53949 0.05236 0.0
H523 H 0.45628 0.51618 0.08087 0.0
H524 H 0.32757 0.17558 0.01649 0.0
H525 H 0.28013 0.15109 0.0435 0.0
H526 H 0.34158 0.24943 0.9894 0.0
H527 H 0.40726 0.34393 0.98447 0.0
C528 C 0.96666 0.25072 0.38046 0.0
C529 C 0.00844 0.21312 0.37496 0.0
C530 C 0.02382 0.2555 0.33351 0.0
C531 C 0.99051 0.30064 0.34001 0.0
N532 N 0.93432 0.34598 0.36985 0.0
N533 N 0.08297 0.18431 0.34713 0.0
C534 C 0.96262 0.29924 0.36352 0.0
C535 C 0.03795 0.21594 0.35161 0.0
N536 N 0.92922 0.23831 0.40168 0.0
N537 N 0.04144 0.25011 0.30995 0.0
H538 H 0.09393 0.15406 0.35974 0.0
H539 H 0.11398 0.19235 0.33156 0.0
H540 H 0.03388 0.27991 0.29636 0.0
H541 H 0.05786 0.21179 0.30342 0.0
H542 H 0.89155 0.25786 0.40584 0.0
H543 H 0.93039 0.20242 0.41432 0.0
H544 H 0.92148 0.35449 0.3875 0.0
H545 H 0.92814 0.38035 0.35768 0.0
loop_
_geom_bond_atom_site_label_1
_geom_bond_atom_site_label_2
_geom_bond_distance
_geom_bond_site_symmetry_2
_ccdc_geom_bond_type
Mn0 O5 2.095 . S
Mn0 O15 2.162 . S
Mn0 O16 2.297 1_545 S
Mn0 O24 2.385 1_545 S
Mn0 O25 2.209 . S
Mn0 O26 2.094 . S
Mn1 O6 2.121 . S
Mn1 N8 2.257 1_455 S
Mn1 N17 2.282 1_455 S
Mn1 O25 2.215 . S
Mn1 O27 2.117 . S
C2 O24 1.234 1_545 S
C2 O25 1.283 . S
C3 O15 1.281 1_565 S
C3 O16 1.236 . S
C4 O26 1.240 . S
C4 O27 1.264 . S
O5 Mn0 2.095 . S
O5 C14 1.250 . S
O6 Mn1 2.121 . S
O6 C14 1.258 . S
C7 N8 1.326 . S
C7 C11 1.460 . S
C7 H13 0.929 . S
N8 Mn1 2.257 1_655 S
N8 C7 1.326 . S
N8 C12 1.362 . S
C9 C10 1.258 . S
C9 C12 1.431 . S
C9 C29 1.449 . S
C10 C9 1.258 . S
C10 C11 1.477 . S
C10 H30 0.931 . S
C11 C7 1.460 . S
C11 C10 1.477 . S
C11 H31 0.930 . S
C12 N8 1.362 . S
C12 C9 1.431 . S
C12 C22 1.476 . S
H13 C7 0.929 . S
C14 O5 1.250 . S
C14 O6 1.258 . S
O15 Mn0 2.162 . S
O15 C3 1.281 1_545 S
O16 Mn0 2.297 1_565 S
O16 C3 1.236 . S
N17 Mn1 2.282 1_655 S
N17 C18 1.328 1_655 S
N17 C22 1.318 . S
C18 N17 1.328 1_455 S
C18 C19 1.457 1_554 S
C18 H23 0.929 . S
C19 C18 1.457 1_556 S
C19 C20 1.291 1_455 S
C19 H32 0.931 . S
C20 C19 1.291 1_655 S
C20 C21 1.373 . S
C20 H33 0.929 . S
C21 C20 1.373 . S
C21 C22 1.396 1_556 S
C21 C28 1.403 . S
C22 C12 1.476 . S
C22 N17 1.318 . S
C22 C21 1.396 1_554 S
H23 C18 0.929 . S
O24 Mn0 2.385 1_565 S
O24 C2 1.234 1_565 S
O25 Mn0 2.209 . S
O25 Mn1 2.215 . S
O25 C2 1.283 . S
O26 Mn0 2.094 . S
O26 C4 1.240 . S
O27 Mn1 2.117 . S
O27 C4 1.264 . S
C28 C21 1.403 . S
C28 C29 1.399 1_556 S
C28 H34 0.929 . S
C29 C9 1.449 . S
C29 C28 1.399 1_554 S
C29 H35 0.930 . S
H30 C10 0.931 . S
H31 C11 0.930 . S
H32 C19 0.931 . S
H33 C20 0.929 . S
H34 C28 0.929 . S
H35 C29 0.930 . S
Mn36 O41 2.100 . S
Mn36 O51 2.161 1_545 S
Mn36 O52 2.291 1_645 S
Mn36 O60 2.379 1_645 S
Mn36 O61 2.203 1_655 S
Mn36 O62 2.101 1_545 S
Mn37 O42 2.121 . S
Mn37 N44 2.257 . S
Mn37 N53 2.282 . S
Mn37 O61 2.215 . S
Mn37 O63 2.117 1_455 S
C38 O60 1.234 1_545 S
C38 O61 1.283 . S
C39 O51 1.281 1_455 S
C39 O52 1.236 . S
C40 O62 1.240 1_545 S
C40 O63 1.264 . S
O41 Mn36 2.100 . S
O41 C50 1.250 1_655 S
O42 Mn37 2.121 . S
O42 C50 1.258 . S
C43 N44 1.326 . S
C43 C47 1.460 . S
C43 H49 0.929 . S
N44 Mn37 2.257 . S
N44 C43 1.326 . S
N44 C48 1.362 . S
C45 C46 1.258 . S
C45 C48 1.431 . S
C45 C65 1.449 . S
C46 C45 1.258 . S
C46 C47 1.477 . S
C46 H66 0.931 . S
C47 C43 1.460 . S
C47 C46 1.477 . S
C47 H67 0.930 . S
C48 N44 1.362 . S
C48 C45 1.431 . S
C48 C58 1.476 . S
H49 C43 0.929 . S
C50 O41 1.250 1_455 S
C50 O42 1.258 . S
O51 Mn36 2.161 1_565 S
O51 C39 1.281 1_655 S
O52 Mn36 2.291 1_465 S
O52 C39 1.236 . S
N53 Mn37 2.282 . S
N53 C54 1.328 . S
N53 C58 1.318 . S
C54 N53 1.328 . S
C54 C55 1.457 . S
C54 H59 0.929 . S
C55 C54 1.457 . S
C55 C56 1.291 . S
C55 H68 0.931 . S
C56 C55 1.291 . S
C56 C57 1.373 . S
C56 H69 0.929 . S
C57 C56 1.373 . S
C57 C58 1.396 . S
C57 C64 1.403 . S
C58 C48 1.476 . S
C58 N53 1.318 . S
C58 C57 1.396 . S
H59 C54 0.929 . S
O60 Mn36 2.379 1_465 S
O60 C38 1.234 1_565 S
O61 Mn36 2.203 1_455 S
O61 Mn37 2.215 . S
O61 C38 1.283 . S
O62 Mn36 2.101 1_565 S
O62 C40 1.240 1_565 S
O63 Mn37 2.117 1_655 S
O63 C40 1.264 . S
C64 C57 1.403 . S
C64 C65 1.399 . S
C64 H70 0.929 . S
C65 C45 1.449 . S
C65 C64 1.399 . S
C65 H71 0.930 . S
H66 C46 0.931 . S
H67 C47 0.930 . S
H68 C55 0.931 . S
H69 C56 0.929 . S
H70 C64 0.929 . S
H71 C65 0.930 . S
Mn72 O77 2.095 . S
Mn72 O87 2.162 . S
Mn72 O88 2.297 . S
Mn72 O96 2.385 . S
Mn72 O97 2.209 . S
Mn72 O98 2.094 . S
Mn73 O78 2.121 . S
Mn73 N80 2.257 . S
Mn73 N89 2.282 . S
Mn73 O97 2.215 . S
Mn73 O99 2.117 . S
C74 O96 1.234 . S
C74 O97 1.283 . S
C75 O87 1.281 . S
C75 O88 1.236 . S
C76 O98 1.240 . S
C76 O99 1.264 . S
O77 Mn72 2.095 . S
O77 C86 1.250 . S
O78 Mn73 2.121 . S
O78 C86 1.258 . S
C79 N80 1.326 . S
C79 C83 1.460 . S
C79 H85 0.929 . S
N80 Mn73 2.257 . S
N80 C79 1.326 . S
N80 C84 1.362 . S
C81 C82 1.258 . S
C81 C84 1.431 . S
C81 C101 1.449 . S
C82 C81 1.258 . S
C82 C83 1.477 . S
C82 H102 0.931 . S
C83 C79 1.460 . S
C83 C82 1.477 . S
C83 H103 0.930 . S
C84 N80 1.362 . S
C84 C81 1.431 . S
C84 C94 1.476 . S
H85 C79 0.929 . S
C86 O77 1.250 . S
C86 O78 1.258 . S
O87 Mn72 2.162 . S
O87 C75 1.281 . S
O88 Mn72 2.297 . S
O88 C75 1.236 . S
N89 Mn73 2.282 . S
N89 C90 1.328 . S
N89 C94 1.318 . S
C90 N89 1.328 . S
C90 C91 1.457 . S
C90 H95 0.929 . S
C91 C90 1.457 . S
C91 C92 1.291 . S
C91 H104 0.931 . S
C92 C91 1.291 . S
C92 C93 1.373 . S
C92 H105 0.929 . S
C93 C92 1.373 . S
C93 C94 1.396 . S
C93 C100 1.403 . S
C94 C84 1.476 . S
C94 N89 1.318 . S
C94 C93 1.396 . S
H95 C90 0.929 . S
O96 Mn72 2.385 . S
O96 C74 1.234 . S
O97 Mn72 2.209 . S
O97 Mn73 2.215 . S
O97 C74 1.283 . S
O98 Mn72 2.094 . S
O98 C76 1.240 . S
O99 Mn73 2.117 . S
O99 C76 1.264 . S
C100 C93 1.403 . S
C100 C101 1.399 . S
C100 H106 0.929 . S
C101 C81 1.449 . S
C101 C100 1.399 . S
C101 H107 0.930 . S
H102 C82 0.931 . S
H103 C83 0.930 . S
H104 C91 0.931 . S
H105 C92 0.929 . S
H106 C100 0.929 . S
H107 C101 0.930 . S
H108 O134 0.856 . S
H109 O137 0.854 1_545 S
H110 C145 0.930 . S
H111 C146 0.930 . S
H112 C148 0.930 . S
H113 C149 0.930 . S
H114 C151 0.931 1_655 S
H115 C152 0.930 1_655 S
H116 C154 0.930 . S
H117 C155 0.929 . S
H118 C157 0.930 1_655 S
H119 C158 0.931 1_655 S
H120 C160 0.930 . S
H121 C161 0.929 . S
H122 C163 0.931 . S
H123 C164 0.930 . S
H124 C166 0.930 . S
H125 C167 0.932 . S
H126 C169 0.930 . S
H127 C170 0.929 . S
H128 C172 0.931 . S
H129 C173 0.930 . S
H130 C175 0.929 . S
H131 C176 0.931 . S
H132 C178 0.930 . S
H133 C179 0.929 . S
O134 H108 0.856 . S
O134 C180 1.300 . S
O135 C180 1.209 . S
O136 C181 1.199 1_655 S
O137 H109 0.854 1_565 S
O137 C181 1.297 . S
C138 C139 1.404 . S
C138 C143 1.397 . S
C138 C144 1.492 . S
C139 C138 1.404 . S
C139 C140 1.396 . S
C139 C150 1.492 . S
C140 C139 1.396 . S
C140 C141 1.397 . S
C140 C156 1.509 . S
C141 C140 1.397 . S
C141 C142 1.412 . S
C141 C162 1.485 . S
C142 C141 1.412 . S
C142 C143 1.388 . S
C142 C168 1.490 . S
C143 C138 1.397 . S
C143 C142 1.388 . S
C143 C174 1.519 . S
C144 C138 1.492 . S
C144 C145 1.363 1_455 S
C144 C149 1.390 . S
C145 H110 0.930 . S
C145 C144 1.363 1_655 S
C145 C146 1.372 . S
C146 H111 0.930 . S
C146 C145 1.372 . S
C146 C147 1.383 1_655 S
C147 C146 1.383 1_455 S
C147 C148 1.395 . S
C148 H112 0.930 . S
C148 C147 1.395 . S
C148 C149 1.362 . S
C149 H113 0.930 . S
C149 C144 1.390 . S
C149 C148 1.362 . S
C150 C139 1.492 . S
C150 C151 1.377 . S
C150 C155 1.397 . S
C151 H114 0.931 1_455 S
C151 C150 1.377 . S
C151 C152 1.376 . S
C152 H115 0.930 1_455 S
C152 C151 1.376 . S
C152 C153 1.376 . S
C153 C152 1.376 . S
C153 C154 1.378 . S
C153 C180 1.486 . S
C154 H116 0.930 . S
C154 C153 1.378 . S
C154 C155 1.376 . S
C155 H117 0.929 . S
C155 C150 1.397 . S
C155 C154 1.376 . S
C156 C140 1.509 . S
C156 C157 1.391 . S
C156 C161 1.386 . S
C157 H118 0.930 1_455 S
C157 C156 1.391 . S
C157 C158 1.375 . S
C158 H119 0.931 1_455 S
C158 C157 1.375 . S
C158 C159 1.375 . S
C159 C158 1.375 . S
C159 C160 1.361 . S
C160 H120 0.930 . S
C160 C159 1.361 . S
C160 C161 1.399 . S
C161 H121 0.929 . S
C161 C156 1.386 . S
C161 C160 1.399 . S
C162 C141 1.485 . S
C162 C163 1.394 1_455 S
C162 C167 1.360 . S
C163 H122 0.931 . S
C163 C162 1.394 1_655 S
C163 C164 1.372 . S
C164 H123 0.930 . S
C164 C163 1.372 . S
C164 C165 1.397 1_655 S
C165 C164 1.397 1_455 S
C165 C166 1.390 . S
C165 C181 1.476 . S
C166 H124 0.930 . S
C166 C165 1.390 . S
C166 C167 1.366 . S
C167 H125 0.932 . S
C167 C162 1.360 . S
C167 C166 1.366 . S
C168 C142 1.490 . S
C168 C169 1.380 1_455 S
C168 C173 1.386 . S
C169 H126 0.930 . S
C169 C168 1.380 1_655 S
C169 C170 1.381 . S
C170 H127 0.929 . S
C170 C169 1.381 . S
C170 C171 1.371 . S
C171 C170 1.371 . S
C171 C172 1.380 1_655 S
C172 H128 0.931 . S
C172 C171 1.380 1_455 S
C172 C173 1.387 . S
C173 H129 0.930 . S
C173 C168 1.386 . S
C173 C172 1.387 . S
C174 C143 1.519 . S
C174 C175 1.377 1_455 S
C174 C179 1.361 . S
C175 H130 0.929 . S
C175 C174 1.377 1_655 S
C175 C176 1.386 . S
C176 H131 0.931 . S
C176 C175 1.386 . S
C176 C177 1.363 1_655 S
C177 C176 1.363 1_455 S
C177 C178 1.385 . S
C178 H132 0.930 . S
C178 C177 1.385 . S
C178 C179 1.396 . S
C179 H133 0.929 . S
C179 C174 1.361 . S
C179 C178 1.396 . S
C180 O134 1.300 . S
C180 O135 1.209 . S
C180 C153 1.486 . S
C181 O136 1.199 1_455 S
C181 O137 1.297 . S
C181 C165 1.476 . S
H182 O208 0.856 . S
H183 O211 0.854 . S
H184 C219 0.930 . S
H185 C220 0.930 1_565 S
H186 C222 0.930 . S
H187 C223 0.930 . S
H188 C225 0.931 . S
H189 C226 0.930 . S
H190 C228 0.930 . S
H191 C229 0.929 . S
H192 C231 0.930 . S
H193 C232 0.931 . S
H194 C234 0.930 . S
H195 C235 0.929 . S
H196 C237 0.931 . S
H197 C238 0.930 . S
H198 C240 0.930 . S
H199 C241 0.932 . S
H200 C243 0.930 . S
H201 C244 0.929 . S
H202 C246 0.931 . S
H203 C247 0.930 . S
H204 C249 0.929 . S
H205 C250 0.931 . S
H206 C252 0.930 . S
H207 C253 0.929 . S
O208 H182 0.856 . S
O208 C254 1.300 . S
O209 C254 1.209 . S
O210 C255 1.199 . S
O211 H183 0.854 . S
O211 C255 1.297 . S
C212 C213 1.404 . S
C212 C217 1.397 . S
C212 C218 1.492 . S
C213 C212 1.404 . S
C213 C214 1.396 . S
C213 C224 1.492 . S
C214 C213 1.396 . S
C214 C215 1.397 . S
C214 C230 1.509 . S
C215 C214 1.397 . S
C215 C216 1.412 . S
C215 C236 1.485 . S
C216 C215 1.412 . S
C216 C217 1.388 . S
C216 C242 1.490 . S
C217 C212 1.397 . S
C217 C216 1.388 . S
C217 C248 1.519 . S
C218 C212 1.492 . S
C218 C219 1.363 . S
C218 C223 1.390 . S
C219 H184 0.930 . S
C219 C218 1.363 . S
C219 C220 1.372 . S
C220 H185 0.930 1_545 S
C220 C219 1.372 . S
C220 C221 1.383 . S
C221 C220 1.383 . S
C221 C222 1.395 . S
C222 H186 0.930 . S
C222 C221 1.395 . S
C222 C223 1.362 . S
C223 H187 0.930 . S
C223 C218 1.390 . S
C223 C222 1.362 . S
C224 C213 1.492 . S
C224 C225 1.377 . S
C224 C229 1.397 . S
C225 H188 0.931 . S
C225 C224 1.377 . S
C225 C226 1.376 . S
C226 H189 0.930 . S
C226 C225 1.376 . S
C226 C227 1.376 . S
C227 C226 1.376 . S
C227 C228 1.378 . S
C227 C254 1.486 . S
C228 H190 0.930 . S
C228 C227 1.378 . S
C228 C229 1.376 . S
C229 H191 0.929 . S
C229 C224 1.397 . S
C229 C228 1.376 . S
C230 C214 1.509 . S
C230 C231 1.391 . S
C230 C235 1.386 . S
C231 H192 0.930 . S
C231 C230 1.391 . S
C231 C232 1.375 . S
C232 H193 0.931 . S
C232 C231 1.375 . S
C232 C233 1.375 . S
C233 C232 1.375 . S
C233 C234 1.361 . S
C234 H194 0.930 . S
C234 C233 1.361 . S
C234 C235 1.399 . S
C235 H195 0.929 . S
C235 C230 1.386 . S
C235 C234 1.399 . S
C236 C215 1.485 . S
C236 C237 1.394 . S
C236 C241 1.360 . S
C237 H196 0.931 . S
C237 C236 1.394 . S
C237 C238 1.372 . S
C238 H197 0.930 . S
C238 C237 1.372 . S
C238 C239 1.397 . S
C239 C238 1.397 . S
C239 C240 1.390 . S
C239 C255 1.476 . S
C240 H198 0.930 . S
C240 C239 1.390 . S
C240 C241 1.366 . S
C241 H199 0.932 . S
C241 C236 1.360 . S
C241 C240 1.366 . S
C242 C216 1.490 . S
C242 C243 1.380 . S
C242 C247 1.386 . S
C243 H200 0.930 . S
C243 C242 1.380 . S
C243 C244 1.381 . S
C244 H201 0.929 . S
C244 C243 1.381 . S
C244 C245 1.371 . S
C245 C244 1.371 . S
C245 C246 1.380 . S
C246 H202 0.931 . S
C246 C245 1.380 . S
C246 C247 1.387 . S
C247 H203 0.930 . S
C247 C242 1.386 . S
C247 C246 1.387 . S
C248 C217 1.519 . S
C248 C249 1.377 . S
C248 C253 1.361 . S
C249 H204 0.929 . S
C249 C248 1.377 . S
C249 C250 1.386 . S
C250 H205 0.931 . S
C250 C249 1.386 . S
C250 C251 1.363 . S
C251 C250 1.363 . S
C251 C252 1.385 . S
C252 H206 0.930 . S
C252 C251 1.385 . S
C252 C253 1.396 . S
C253 H207 0.929 . S
C253 C248 1.361 . S
C253 C252 1.396 . S
C254 O208 1.300 . S
C254 O209 1.209 . S
C254 C227 1.486 . S
C255 O210 1.199 . S
C255 O211 1.297 . S
C255 C239 1.476 . S
H256 O282 0.856 . S
H257 O285 0.854 . S
H258 C293 0.930 . S
H259 C294 0.930 . S
H260 C296 0.930 . S
H261 C297 0.930 . S
H262 C299 0.931 . S
H263 C300 0.930 . S
H264 C302 0.930 . S
H265 C303 0.929 . S
H266 C305 0.930 . S
H267 C306 0.931 1_554 S
H268 C308 0.930 . S
H269 C309 0.929 . S
H270 C311 0.931 . S
H271 C312 0.930 . S
H272 C314 0.930 . S
H273 C315 0.932 . S
H274 C317 0.930 . S
H275 C318 0.929 . S
H276 C320 0.931 . S
H277 C321 0.930 . S
H278 C323 0.929 . S
H279 C324 0.931 . S
H280 C326 0.930 . S
H281 C327 0.929 . S
O282 H256 0.856 . S
O282 C328 1.300 . S
O283 C328 1.209 . S
O284 C329 1.199 . S
O285 H257 0.854 . S
O285 C329 1.297 . S
C286 C287 1.404 . S
C286 C291 1.397 . S
C286 C292 1.492 . S
C287 C286 1.404 . S
C287 C288 1.396 . S
C287 C298 1.492 . S
C288 C287 1.396 . S
C288 C289 1.397 . S
C288 C304 1.509 . S
C289 C288 1.397 . S
C289 C290 1.412 . S
C289 C310 1.485 . S
C290 C289 1.412 . S
C290 C291 1.388 . S
C290 C316 1.490 . S
C291 C286 1.397 . S
C291 C290 1.388 . S
C291 C322 1.519 . S
C292 C286 1.492 . S
C292 C293 1.363 . S
C292 C297 1.390 . S
C293 H258 0.930 . S
C293 C292 1.363 . S
C293 C294 1.372 . S
C294 H259 0.930 . S
C294 C293 1.372 . S
C294 C295 1.383 . S
C295 C294 1.383 . S
C295 C296 1.395 . S
C296 H260 0.930 . S
C296 C295 1.395 . S
C296 C297 1.362 . S
C297 H261 0.930 . S
C297 C292 1.390 . S
C297 C296 1.362 . S
C298 C287 1.492 . S
C298 C299 1.377 1_556 S
C298 C303 1.397 . S
C299 H262 0.931 . S
C299 C298 1.377 1_554 S
C299 C300 1.376 . S
C300 H263 0.930 . S
C300 C299 1.376 . S
C300 C301 1.376 . S
C301 C300 1.376 . S
C301 C302 1.378 . S
C301 C328 1.486 . S
C302 H264 0.930 . S
C302 C301 1.378 . S
C302 C303 1.376 1_554 S
C303 H265 0.929 . S
C303 C298 1.397 . S
C303 C302 1.376 1_556 S
C304 C288 1.509 . S
C304 C305 1.391 . S
C304 C309 1.386 . S
C305 H266 0.930 . S
C305 C304 1.391 . S
C305 C306 1.375 . S
C306 H267 0.931 1_556 S
C306 C305 1.375 . S
C306 C307 1.375 1_556 S
C307 C306 1.375 1_554 S
C307 C308 1.361 . S
C308 H268 0.930 . S
C308 C307 1.361 . S
C308 C309 1.399 1_554 S
C309 H269 0.929 . S
C309 C304 1.386 . S
C309 C308 1.399 1_556 S
C310 C289 1.485 . S
C310 C311 1.394 . S
C310 C315 1.360 . S
C311 H270 0.931 . S
C311 C310 1.394 . S
C311 C312 1.372 . S
C312 H271 0.930 . S
C312 C311 1.372 . S
C312 C313 1.397 . S
C313 C312 1.397 . S
C313 C314 1.390 . S
C313 C329 1.476 . S
C314 H272 0.930 . S
C314 C313 1.390 . S
C314 C315 1.366 . S
C315 H273 0.932 . S
C315 C310 1.360 . S
C315 C314 1.366 . S
C316 C290 1.490 . S
C316 C317 1.380 . S
C316 C321 1.386 . S
C317 H274 0.930 . S
C317 C316 1.380 . S
C317 C318 1.381 . S
C318 H275 0.929 . S
C318 C317 1.381 . S
C318 C319 1.371 . S
C319 C318 1.371 . S
C319 C320 1.380 . S
C320 H276 0.931 . S
C320 C319 1.380 . S
C320 C321 1.387 . S
C321 H277 0.930 . S
C321 C316 1.386 . S
C321 C320 1.387 . S
C322 C291 1.519 . S
C322 C323 1.377 . S
C322 C327 1.361 . S
C323 H278 0.929 . S
C323 C322 1.377 . S
C323 C324 1.386 . S
C324 H279 0.931 . S
C324 C323 1.386 . S
C324 C325 1.363 . S
C325 C324 1.363 . S
C325 C326 1.385 . S
C326 H280 0.930 . S
C326 C325 1.385 . S
C326 C327 1.396 . S
C327 H281 0.929 . S
C327 C322 1.361 . S
C327 C326 1.396 . S
C328 O282 1.300 . S
C328 O283 1.209 . S
C328 C301 1.486 . S
C329 O284 1.199 . S
C329 O285 1.297 . S
C329 C313 1.476 . S
C330 C331 1.363 1_655 S
C330 C336 1.379 . S
C330 N338 1.356 . S
C331 C330 1.363 1_455 S
C331 C337 1.363 . S
C332 C333 1.363 . S
C332 C337 1.379 . S
C332 N339 1.356 . S
C333 C332 1.363 . S
C333 C336 1.363 1_455 S
N334 C336 1.356 . S
N334 H346 0.984 . S
N334 H347 0.985 . S
N335 C337 1.356 . S
N335 H340 0.984 . S
N335 H341 0.985 . S
C336 C330 1.379 . S
C336 C333 1.363 1_655 S
C336 N334 1.356 . S
C337 C331 1.363 . S
C337 C332 1.379 . S
C337 N335 1.356 . S
N338 C330 1.356 . S
N338 H344 0.984 . S
N338 H345 0.984 . S
N339 C332 1.356 . S
N339 H342 0.984 . S
N339 H343 0.985 . S
H340 N335 0.984 . S
H341 N335 0.985 . S
H342 N339 0.984 . S
H343 N339 0.985 . S
H344 N338 0.984 . S
H345 N338 0.984 . S
H346 N334 0.984 . S
H347 N334 0.985 . S
C348 C349 1.363 . S
C348 C354 1.379 . S
C348 N356 1.356 1_545 S
C349 C348 1.363 . S
C349 C355 1.363 . S
C350 C351 1.363 . S
C350 C355 1.379 . S
C350 N357 1.356 . S
C351 C350 1.363 . S
C351 C354 1.363 . S
N352 C354 1.356 1_565 S
N352 H364 0.984 . S
N352 H365 0.985 1_565 S
N353 C355 1.356 . S
N353 H358 0.984 . S
N353 H359 0.985 1_655 S
C354 C348 1.379 . S
C354 C351 1.363 . S
C354 N352 1.356 1_545 S
C355 C349 1.363 . S
C355 C350 1.379 . S
C355 N353 1.356 . S
N356 C348 1.356 1_565 S
N356 H362 0.984 . S
N356 H363 0.984 . S
N357 C350 1.356 . S
N357 H360 0.984 . S
N357 H361 0.985 1_655 S
H358 N353 0.984 . S
H359 N353 0.985 1_455 S
H360 N357 0.984 . S
H361 N357 0.985 1_455 S
H362 N356 0.984 . S
H363 N356 0.984 . S
H364 N352 0.984 . S
H365 N352 0.985 1_545 S
C366 C367 1.363 . S
C366 C372 1.379 . S
C366 N374 1.356 . S
C367 C366 1.363 . S
C367 C373 1.363 . S
C368 C369 1.363 . S
C368 C373 1.379 . S
C368 N375 1.356 . S
C369 C368 1.363 . S
C369 C372 1.363 . S
N370 C372 1.356 . S
N370 H382 0.984 . S
N370 H383 0.985 . S
N371 C373 1.356 1_445 S
N371 H376 0.984 . S
N371 H377 0.985 . S
C372 C366 1.379 . S
C372 C369 1.363 . S
C372 N370 1.356 . S
C373 C367 1.363 . S
C373 C368 1.379 . S
C373 N371 1.356 1_665 S
N374 C366 1.356 . S
N374 H380 0.984 . S
N374 H381 0.984 . S
N375 C368 1.356 . S
N375 H378 0.984 . S
N375 H379 0.985 . S
H376 N371 0.984 . S
H377 N371 0.985 . S
H378 N375 0.984 . S
H379 N375 0.985 . S
H380 N374 0.984 . S
H381 N374 0.984 . S
H382 N370 0.984 . S
H383 N370 0.985 . S
C384 C385 1.363 . S
C384 C390 1.379 . S
C384 N392 1.356 1_565 S
C385 C384 1.363 . S
C385 C391 1.363 . S
C386 C387 1.363 . S
C386 C391 1.379 . S
C386 N393 1.356 . S
C387 C386 1.363 . S
C387 C390 1.363 . S
N388 C390 1.356 . S
N388 H400 0.984 . S
N388 H401 0.985 . S
N389 C391 1.356 . S
N389 H394 0.984 . S
N389 H395 0.985 1_455 S
C390 C384 1.379 . S
C390 C387 1.363 . S
C390 N388 1.356 . S
C391 C385 1.363 . S
C391 C386 1.379 . S
C391 N389 1.356 . S
N392 C384 1.356 1_545 S
N392 H398 0.984 . S
N392 H399 0.984 . S
N393 C386 1.356 . S
N393 H396 0.984 . S
N393 H397 0.985 1_455 S
H394 N389 0.984 . S
H395 N389 0.985 1_655 S
H396 N393 0.984 . S
H397 N393 0.985 1_655 S
H398 N392 0.984 . S
H399 N392 0.984 . S
H400 N388 0.984 . S
H401 N388 0.985 . S
C402 C403 1.363 . S
C402 C408 1.379 . S
C402 N410 1.356 . S
C403 C402 1.363 . S
C403 C409 1.363 . S
C404 C405 1.363 . S
C404 C409 1.379 . S
C404 N411 1.356 . S
C405 C404 1.363 . S
C405 C408 1.363 . S
N406 C408 1.356 . S
N406 H418 0.984 . S
N406 H419 0.985 . S
N407 C409 1.356 1_565 S
N407 H412 0.984 . S
N407 H413 0.985 . S
C408 C402 1.379 . S
C408 C405 1.363 . S
C408 N406 1.356 . S
C409 C403 1.363 . S
C409 C404 1.379 . S
C409 N407 1.356 1_545 S
N410 C402 1.356 . S
N410 H416 0.984 . S
N410 H417 0.984 . S
N411 C404 1.356 . S
N411 H414 0.984 . S
N411 H415 0.985 . S
H412 N407 0.984 . S
H413 N407 0.985 . S
H414 N411 0.984 . S
H415 N411 0.985 . S
H416 N410 0.984 . S
H417 N410 0.984 . S
H418 N406 0.984 . S
H419 N406 0.985 . S
C420 C421 1.363 . S
C420 C426 1.379 . S
C420 N428 1.356 . S
C421 C420 1.363 . S
C421 C427 1.363 . S
C422 C423 1.363 . S
C422 C427 1.379 . S
C422 N429 1.356 . S
C423 C422 1.363 . S
C423 C426 1.363 . S
N424 C426 1.356 . S
N424 H436 0.984 . S
N424 H437 0.985 . S
N425 C427 1.356 . S
N425 H430 0.984 . S
N425 H431 0.985 . S
C426 C420 1.379 . S
C426 C423 1.363 . S
C426 N424 1.356 . S
C427 C421 1.363 . S
C427 C422 1.379 . S
C427 N425 1.356 . S
N428 C420 1.356 . S
N428 H434 0.984 . S
N428 H435 0.984 . S
N429 C422 1.356 . S
N429 H432 0.984 . S
N429 H433 0.985 . S
H430 N425 0.984 . S
H431 N425 0.985 . S
H432 N429 0.984 . S
H433 N429 0.985 . S
H434 N428 0.984 . S
H435 N428 0.984 . S
H436 N424 0.984 . S
H437 N424 0.985 . S
C438 C439 1.363 . S
C438 C444 1.379 . S
C438 N446 1.356 . S
C439 C438 1.363 . S
C439 C445 1.363 . S
C440 C441 1.363 . S
C440 C445 1.379 . S
C440 N447 1.356 . S
C441 C440 1.363 . S
C441 C444 1.363 . S
N442 C444 1.356 . S
N442 H454 0.984 . S
N442 H455 0.985 . S
N443 C445 1.356 . S
N443 H448 0.984 1_655 S
N443 H449 0.985 . S
C444 C438 1.379 . S
C444 C441 1.363 . S
C444 N442 1.356 . S
C445 C439 1.363 . S
C445 C440 1.379 . S
C445 N443 1.356 . S
N446 C438 1.356 . S
N446 H452 0.984 . S
N446 H453 0.984 . S
N447 C440 1.356 . S
N447 H450 0.984 . S
N447 H451 0.985 . S
H448 N443 0.984 1_455 S
H449 N443 0.985 . S
H450 N447 0.984 . S
H451 N447 0.985 . S
H452 N446 0.984 . S
H453 N446 0.984 . S
H454 N442 0.984 . S
H455 N442 0.985 . S
C456 C457 1.363 . S
C456 C462 1.379 1_554 S
C456 N464 1.356 . S
C457 C456 1.363 . S
C457 C463 1.363 . S
C458 C459 1.363 1_554 S
C458 C463 1.379 . S
C458 N465 1.356 1_554 S
C459 C458 1.363 1_556 S
C459 C462 1.363 . S
N460 C462 1.356 . S
N460 H472 0.984 . S
N460 H473 0.985 . S
N461 C463 1.356 1_545 S
N461 H466 0.984 . S
N461 H467 0.985 . S
C462 C456 1.379 1_556 S
C462 C459 1.363 . S
C462 N460 1.356 . S
C463 C457 1.363 . S
C463 C458 1.379 . S
C463 N461 1.356 1_565 S
N464 C456 1.356 . S
N464 H470 0.984 1_655 S
N464 H471 0.984 1_655 S
N465 C458 1.356 1_556 S
N465 H468 0.984 . S
N465 H469 0.985 1_565 S
H466 N461 0.984 . S
H467 N461 0.985 . S
H468 N465 0.984 . S
H469 N465 0.985 1_545 S
H470 N464 0.984 1_455 S
H471 N464 0.984 1_455 S
H472 N460 0.984 . S
H473 N460 0.985 . S
C474 C475 1.363 1_455 S
C474 C480 1.379 . S
C474 N482 1.356 . S
C475 C474 1.363 1_655 S
C475 C481 1.363 . S
C476 C477 1.363 . S
C476 C481 1.379 . S
C476 N483 1.356 . S
C477 C476 1.363 . S
C477 C480 1.363 1_655 S
N478 C480 1.356 . S
N478 H490 0.984 . S
N478 H491 0.985 . S
N479 C481 1.356 . S
N479 H484 0.984 . S
N479 H485 0.985 . S
C480 C474 1.379 . S
C480 C477 1.363 1_455 S
C480 N478 1.356 . S
C481 C475 1.363 . S
C481 C476 1.379 . S
C481 N479 1.356 . S
N482 C474 1.356 . S
N482 H488 0.984 . S
N482 H489 0.984 . S
N483 C476 1.356 . S
N483 H486 0.984 . S
N483 H487 0.985 . S
H484 N479 0.984 . S
H485 N479 0.985 . S
H486 N483 0.984 . S
H487 N483 0.985 . S
H488 N482 0.984 . S
H489 N482 0.984 . S
H490 N478 0.984 . S
H491 N478 0.985 . S
C492 C493 1.363 . S
C492 C498 1.379 . S
C492 N500 1.356 . S
C493 C492 1.363 . S
C493 C499 1.363 . S
C494 C495 1.363 . S
C494 C499 1.379 . S
C494 N501 1.356 . S
C495 C494 1.363 . S
C495 C498 1.363 . S
N496 C498 1.356 . S
N496 H508 0.984 . S
N496 H509 0.985 . S
N497 C499 1.356 . S
N497 H502 0.984 . S
N497 H503 0.985 1_545 S
C498 C492 1.379 . S
C498 C495 1.363 . S
C498 N496 1.356 . S
C499 C493 1.363 . S
C499 C494 1.379 . S
C499 N497 1.356 . S
N500 C492 1.356 . S
N500 H506 0.984 . S
N500 H507 0.984 . S
N501 C494 1.356 . S
N501 H504 0.984 . S
N501 H505 0.985 1_545 S
H502 N497 0.984 . S
H503 N497 0.985 1_565 S
H504 N501 0.984 . S
H505 N501 0.985 1_565 S
H506 N500 0.984 . S
H507 N500 0.984 . S
H508 N496 0.984 . S
H509 N496 0.985 . S
C510 C511 1.363 . S
C510 C516 1.379 . S
C510 N518 1.356 . S
C511 C510 1.363 . S
C511 C517 1.363 . S
C512 C513 1.363 . S
C512 C517 1.379 . S
C512 N519 1.356 . S
C513 C512 1.363 . S
C513 C516 1.363 . S
N514 C516 1.356 1_556 S
N514 H526 0.984 . S
N514 H527 0.985 . S
N515 C517 1.356 . S
N515 H520 0.984 . S
N515 H521 0.985 . S
C516 C510 1.379 . S
C516 C513 1.363 . S
C516 N514 1.356 1_554 S
C517 C511 1.363 . S
C517 C512 1.379 . S
C517 N515 1.356 . S
N518 C510 1.356 . S
N518 H524 0.984 . S
N518 H525 0.984 . S
N519 C512 1.356 . S
N519 H522 0.984 . S
N519 H523 0.985 . S
H520 N515 0.984 . S
H521 N515 0.985 . S
H522 N519 0.984 . S
H523 N519 0.985 . S
H524 N518 0.984 . S
H525 N518 0.984 . S
H526 N514 0.984 . S
H527 N514 0.985 . S
C528 C529 1.363 1_655 S
C528 C534 1.379 . S
C528 N536 1.356 . S
C529 C528 1.363 1_455 S
C529 C535 1.363 . S
C530 C531 1.363 . S
C530 C535 1.379 . S
C530 N537 1.356 . S
C531 C530 1.363 . S
C531 C534 1.363 1_455 S
N532 C534 1.356 . S
N532 H544 0.984 . S
N532 H545 0.985 . S
N533 C535 1.356 . S
N533 H538 0.984 . S
N533 H539 0.985 . S
C534 C528 1.379 . S
C534 C531 1.363 1_655 S
C534 N532 1.356 . S
C535 C529 1.363 . S
C535 C530 1.379 . S
C535 N533 1.356 . S
N536 C528 1.356 . S
N536 H542 0.984 . S
N536 H543 0.984 . S
N537 C530 1.356 . S
N537 H540 0.984 . S
N537 H541 0.985 . S
H538 N533 0.984 . S
H539 N533 0.985 . S
H540 N537 0.984 . S
H541 N537 0.985 . S
H542 N536 0.984 . S
H543 N536 0.984 . S
H544 N532 0.984 . S
H545 N532 0.985 . S
C333 C147 1.508 . S
C331 C14 1.695 . S
C349 C40 1.540 . S
C351 C221 1.465 . S
C367 C76 2.013 1_665 S
C369 C325 2.029 . S
C385 C3 0.927 . S
C387 C159 0.925 . S
C405 C233 1.008 . S
C403 C38 1.031 . S
C421 C74 1.763 . S
C423 C319 1.557 . S
C441 C251 2.026 . S
C439 C86 1.996 1_655 S
C457 C2 1.627 1_665 S
C459 C295 1.497 . S
C477 C171 1.542 . S
C475 C39 1.731 1_655 S
C495 C245 1.488 . S
C493 C75 1.654 . S
C513 C307 0.936 . S
C511 C4 0.931 . S
C529 C50 2.042 . S
C531 C177 2.092 . S
