# Generated by pormake.
# Topology dag, (6,3)-cn, num edge types: 1
# Building blocks:
#     Node 0, Type 0, BuildingBlock: OJICUG_clean_sbu_0, # of connection points: 6
#     Node 1, Type 0, BuildingBlock: OJICUG_clean_sbu_0, # of connection points: 6
#     Node 2, Type 0, BuildingBlock: OJICUG_clean_sbu_0, # of connection points: 6
#     Node 3, Type 0, BuildingBlock: OJICUG_clean_sbu_0, # of connection points: 6
#     Node 4, Type 1, BuildingBlock: CUQRIR_clean_linker_1, # of connection points: 3
#     Node 5, Type 1, BuildingBlock: CUQRIR_clean_linker_1, # of connection points: 3
#     Node 6, Type 1, BuildingBlock: CUQRIR_clean_linker_1, # of connection points: 3
#     Node 7, Type 1, BuildingBlock: CUQRIR_clean_linker_1, # of connection points: 3
#     Node 8, Type 1, BuildingBlock: CUQRIR_clean_linker_1, # of connection points: 3
#     Node 9, Type 1, BuildingBlock: CUQRIR_clean_linker_1, # of connection points: 3
#     Node 10, Type 1, BuildingBlock: CUQRIR_clean_linker_1, # of connection points: 3
#     Node 11, Type 1, BuildingBlock: CUQRIR_clean_linker_1, # of connection points: 3
#     Edge 12, Type (0, 1), BuildingBlock: CIFDUS_clean_linker_0, # of connection points: 2
#     Edge 13, Type (0, 1), BuildingBlock: CIFDUS_clean_linker_0, # of connection points: 2
#     Edge 14, Type (0, 1), BuildingBlock: CIFDUS_clean_linker_0, # of connection points: 2
#     Edge 15, Type (0, 1), BuildingBlock: CIFDUS_clean_linker_0, # of connection points: 2
#     Edge 16, Type (0, 1), BuildingBlock: CIFDUS_clean_linker_0, # of connection points: 2
#     Edge 17, Type (0, 1), BuildingBlock: CIFDUS_clean_linker_0, # of connection points: 2
#     Edge 18, Type (0, 1), BuildingBlock: CIFDUS_clean_linker_0, # of connection points: 2
#     Edge 19, Type (0, 1), BuildingBlock: CIFDUS_clean_linker_0, # of connection points: 2
#     Edge 20, Type (0, 1), BuildingBlock: CIFDUS_clean_linker_0, # of connection points: 2
#     Edge 21, Type (0, 1), BuildingBlock: CIFDUS_clean_linker_0, # of connection points: 2
#     Edge 22, Type (0, 1), BuildingBlock: CIFDUS_clean_linker_0, # of connection points: 2
#     Edge 23, Type (0, 1), BuildingBlock: CIFDUS_clean_linker_0, # of connection points: 2
#     Edge 24, Type (0, 1), BuildingBlock: CIFDUS_clean_linker_0, # of connection points: 2
#     Edge 25, Type (0, 1), BuildingBlock: CIFDUS_clean_linker_0, # of connection points: 2
#     Edge 26, Type (0, 1), BuildingBlock: CIFDUS_clean_linker_0, # of connection points: 2
#     Edge 27, Type (0, 1), BuildingBlock: CIFDUS_clean_linker_0, # of connection points: 2
#     Edge 28, Type (0, 1), BuildingBlock: CIFDUS_clean_linker_0, # of connection points: 2
#     Edge 29, Type (0, 1), BuildingBlock: CIFDUS_clean_linker_0, # of connection points: 2
#     Edge 30, Type (0, 1), BuildingBlock: CIFDUS_clean_linker_0, # of connection points: 2
#     Edge 31, Type (0, 1), BuildingBlock: CIFDUS_clean_linker_0, # of connection points: 2
#     Edge 32, Type (0, 1), BuildingBlock: CIFDUS_clean_linker_0, # of connection points: 2
#     Edge 33, Type (0, 1), BuildingBlock: CIFDUS_clean_linker_0, # of connection points: 2
#     Edge 34, Type (0, 1), BuildingBlock: CIFDUS_clean_linker_0, # of connection points: 2
#     Edge 35, Type (0, 1), BuildingBlock: CIFDUS_clean_linker_0, # of connection points: 2
# Relax obj value: 0.083
# Max RMSD: 0.088
# Mean RMSD: 0.078
data_MOF--net-dag--node1-OJICUG_clean_sbu_0--node2-CUQRIR_clean_linker_1--edge1-CIFDUS_clean_linker_0
_symmetry_space_group_name_H-M    P1
_symmetry_Int_Tables_number       1
_symmetry_cell_setting            triclinic
loop_
_symmetry_equiv_pos_as_xyz
'x, y, z'
_cell_length_a     30.636453
_cell_length_b     31.041368
_cell_length_c     32.074723
_cell_angle_alpha  92.692294
_cell_angle_beta   90.069246
_cell_angle_gamma 89.783025
loop_
_atom_site_label
_atom_site_type_symbol
_atom_site_fract_x
_atom_site_fract_y
_atom_site_fract_z
_atom_type_partial_charge
Sc0 Sc 0.06819 0.92781 0.02414 0.0
Sc1 Sc 0.0919 0.81738 0.01098 0.0
Sc2 Sc 0.17617 0.89185 0.03613 0.0
O3 O 0.11225 0.87893 0.02358 0.0
C4 C 0.14832 0.96693 0.97599 0.0
C5 C 0.03362 0.86695 0.94809 0.0
C6 C 0.18518 0.81659 0.96595 0.0
C7 C 0.01546 0.85699 0.06966 0.0
C8 C 0.13016 0.95836 0.09978 0.0
C9 C 0.15836 0.80657 0.08588 0.0
O10 O 0.10765 0.96361 0.98298 0.0
O11 O 0.05636 0.83413 0.95621 0.0
O12 O 0.19892 0.84998 0.98605 0.0
O13 O 0.02595 0.89593 0.06507 0.0
O14 O 0.16246 0.93496 0.08877 0.0
O15 O 0.12513 0.79495 0.06455 0.0
O16 O 0.09511 0.95993 0.0789 0.0
O17 O 0.03414 0.82543 0.04999 0.0
O18 O 0.1807 0.84003 0.07883 0.0
O19 O 0.03318 0.90155 0.9708 0.0
O20 O 0.17718 0.9446 0.99401 0.0
O21 O 0.14735 0.80098 0.97132 0.0
Sc22 Sc 0.68385 0.60907 0.48569 0.0
Sc23 Sc 0.60037 0.68677 0.50041 0.0
Sc24 Sc 0.57458 0.57665 0.49569 0.0
O25 O 0.61957 0.62416 0.49416 0.0
C26 C 0.63775 0.53828 0.42492 0.0
C27 C 0.67224 0.68811 0.42813 0.0
C28 C 0.52494 0.64702 0.44388 0.0
C29 C 0.68808 0.69008 0.55165 0.0
C30 C 0.65414 0.53999 0.54896 0.0
C31 C 0.53693 0.64257 0.56471 0.0
O32 O 0.67146 0.55717 0.43979 0.0
O33 O 0.64283 0.70591 0.45106 0.0
O34 O 0.52905 0.60927 0.45708 0.0
O35 O 0.70584 0.6593 0.53009 0.0
O36 O 0.61481 0.53969 0.53612 0.0
O37 O 0.55466 0.67551 0.54997 0.0
O38 O 0.68337 0.56458 0.53515 0.0
O39 O 0.64868 0.70153 0.54689 0.0
O40 O 0.54291 0.60441 0.5499 0.0
O41 O 0.68886 0.65156 0.4351 0.0
O42 O 0.59991 0.54407 0.44027 0.0
O43 O 0.54991 0.67816 0.45449 0.0
Sc44 Sc 0.91452 0.19592 0.00692 0.0
Sc45 Sc 0.8327 0.12108 0.97957 0.0
Sc46 Sc 0.93632 0.08606 0.00748 0.0
O47 O 0.89428 0.13452 -0.00211 0.0
C48 C -0.0001 0.15664 0.97102 0.0
C49 C 0.85301 0.20159 0.9265 0.0
C50 C 0.89228 0.05516 0.92334 0.0
C51 C 0.82027 0.19999 0.04692 0.0
C52 C 0.95725 0.14758 0.08356 0.0
C53 C 0.84704 0.04503 0.03786 0.0
O54 O 0.97065 0.18533 0.96745 0.0
O55 O 0.83632 0.16454 0.92978 0.0
O56 O 0.92728 0.06174 0.94419 0.0
O57 O 0.86031 0.21069 0.04734 0.0
O58 O 0.94626 0.10965 0.07089 0.0
O59 O 0.82298 0.07621 0.02783 0.0
O60 O 0.95262 0.18049 0.06154 0.0
O61 O 0.80478 0.17074 0.02186 0.0
O62 O 0.88716 0.0423 0.02824 0.0
O63 O 0.87894 0.2186 0.95356 0.0
O64 O 0.993 0.12158 0.98877 0.0
O65 O 0.85518 0.07033 0.93519 0.0
Sc66 Sc 0.41933 0.40516 0.50534 0.0
Sc67 Sc 0.31245 0.36978 0.52314 0.0
Sc68 Sc 0.39841 0.29413 0.51361 0.0
O69 O 0.37677 0.35626 0.51396 0.0
C70 C 0.45235 0.33332 0.4389 0.0
C71 C 0.33529 0.43545 0.45389 0.0
C72 C 0.30747 0.28274 0.46639 0.0
C73 C 0.35865 0.44618 0.57701 0.0
C74 C 0.47601 0.34263 0.5612 0.0
C75 C 0.32895 0.29732 0.5879 0.0
O76 O 0.44582 0.37259 0.45035 0.0
O77 O 0.30871 0.41044 0.47097 0.0
O78 O 0.34672 0.27095 0.47241 0.0
O79 O 0.3961 0.44191 0.56008 0.0
O80 O 0.45177 0.30992 0.55497 0.0
O81 O 0.30894 0.33043 0.57594 0.0
O82 O 0.46966 0.37828 0.54411 0.0
O83 O 0.32581 0.42395 0.56513 0.0
O84 O 0.36106 0.27996 0.56836 0.0
O85 O 0.37527 0.43829 0.46451 0.0
O86 O 0.43922 0.30172 0.45941 0.0
O87 O 0.29109 0.31692 0.48314 0.0
C88 C 0.08337 0.16348 0.33138 0.0
N89 N 0.0686 0.13219 0.30421 0.0
N90 N 0.1182 0.14915 0.35295 0.0
C91 C 0.06697 0.20929 0.33378 0.0
C92 C 0.12412 0.10816 0.33761 0.0
N93 N 0.09415 0.09789 0.30794 0.0
C94 C 0.15995 0.07838 0.35058 0.0
H95 H 0.04194 0.21518 0.30971 0.0
H96 H 0.09469 0.23174 0.33027 0.0
H97 H 0.05225 0.21644 0.36491 0.0
H98 H 0.17046 0.0865 0.38312 0.0
H99 H 0.18838 0.08153 0.32957 0.0
H100 H 0.14879 0.04438 0.34787 0.0
C101 C 0.32661 0.63107 0.79092 0.0
N102 N 0.35834 0.62392 0.76214 0.0
N103 N 0.32535 0.67328 0.80382 0.0
C104 C 0.29797 0.59653 0.80741 0.0
C105 C 0.35767 0.69153 0.78186 0.0
N106 N 0.37769 0.66151 0.75666 0.0
C107 C 0.36627 0.73922 0.78133 0.0
H108 H 0.26794 0.59368 0.78815 0.0
H109 H 0.28839 0.60471 0.8402 0.0
H110 H 0.31503 0.56489 0.80566 0.0
H111 H 0.38995 0.74825 0.8064 0.0
H112 H 0.33581 0.758 0.78704 0.0
H113 H 0.38043 0.74805 0.7511 0.0
C114 C 0.74075 0.87361 0.23141 0.0
N115 N 0.77351 0.88637 0.20659 0.0
N116 N 0.75515 0.84274 0.25671 0.0
C117 C 0.69432 0.88905 0.22902 0.0
C118 C 0.79782 0.83751 0.24664 0.0
N119 N 0.80882 0.86384 0.2162 0.0
C120 C 0.82963 0.80924 0.26864 0.0
H121 H 0.68991 0.91728 0.25115 0.0
H122 H 0.67138 0.86344 0.23781 0.0
H123 H 0.68643 0.89916 0.19715 0.0
H124 H 0.82003 0.8059 0.30167 0.0
H125 H 0.86315 0.82256 0.26764 0.0
H126 H 0.83003 0.77676 0.25266 0.0
C127 C 0.76358 0.33377 0.70611 0.0
N128 N 0.73343 0.34566 0.67805 0.0
N129 N 0.75278 0.29532 0.72165 0.0
C130 C 0.80264 0.36029 0.71941 0.0
C131 C 0.7149 0.28439 0.70187 0.0
N132 N 0.70317 0.31509 0.67539 0.0
C133 C 0.68969 0.24375 0.70851 0.0
H134 H 0.82924 0.33954 0.73083 0.0
H135 H 0.79281 0.3836 0.745 0.0
H136 H 0.81521 0.37898 0.69346 0.0
H137 H 0.6903 0.23613 0.74197 0.0
H138 H 0.70534 0.21663 0.69034 0.0
H139 H 0.65541 0.24599 0.69791 0.0
C140 C 0.60184 0.30979 0.20308 0.0
N141 N 0.58795 0.34061 0.23125 0.0
N142 N 0.63834 0.32289 0.1835 0.0
C143 C 0.58164 0.26589 0.19662 0.0
C144 C 0.64635 0.36257 0.20136 0.0
N145 N 0.61572 0.37331 0.23031 0.0
C146 C 0.68365 0.39116 0.19025 0.0
H147 H 0.60744 0.24086 0.1926 0.0
H148 H 0.56168 0.26526 0.16773 0.0
H149 H 0.56014 0.25803 0.22297 0.0
H150 H 0.69398 0.38445 0.15743 0.0
H151 H 0.71171 0.38501 0.21107 0.0
H152 H 0.67428 0.42563 0.19482 0.0
C153 C 0.23989 0.22063 0.82735 0.0
N154 N 0.22188 0.19209 0.85276 0.0
N155 N 0.27429 0.20285 0.80628 0.0
C156 C 0.22504 0.26665 0.82414 0.0
C157 C 0.27731 0.16257 0.82053 0.0
N158 N 0.24562 0.1561 0.84889 0.0
C159 C 0.30777 0.12815 0.80306 0.0
H160 H 0.20042 0.26871 0.79896 0.0
H161 H 0.25301 0.28744 0.81642 0.0
H162 H 0.20996 0.27884 0.85388 0.0
H163 H 0.34087 0.13401 0.81615 0.0
H164 H 0.31001 0.12959 0.76862 0.0
H165 H 0.2971 0.09542 0.81094 0.0
C166 C 0.26624 0.63208 0.26927 0.0
N167 N 0.28902 0.62215 0.30368 0.0
N168 N 0.26663 0.67529 0.26475 0.0
C169 C 0.24732 0.59975 0.23806 0.0
C170 C 0.29014 0.69109 0.2977 0.0
N171 N 0.30388 0.65886 0.32123 0.0
C172 C 0.2995 0.73811 0.30699 0.0
H173 H 0.25637 0.60818 0.20596 0.0
H174 H 0.2112 0.60096 0.2403 0.0
H175 H 0.25853 0.56651 0.24371 0.0
H176 H 0.2724 0.7584 0.29577 0.0
H177 H 0.3298 0.74709 0.29067 0.0
H178 H 0.3043 0.7447 0.341 0.0
C179 C 0.8452 0.87349 0.70031 0.0
N180 N 0.87104 0.88478 0.73327 0.0
N181 N 0.85564 0.83348 0.68459 0.0
C182 C 0.81045 0.90173 0.68267 0.0
C183 C 0.88871 0.82068 0.70918 0.0
N184 N 0.8982 0.85186 0.7386 0.0
C185 C 0.9079 0.77587 0.70764 0.0
H186 H 0.77881 0.89525 0.69788 0.0
H187 H 0.80672 0.89459 0.64863 0.0
H188 H 0.81849 0.93632 0.68851 0.0
H189 H 0.93551 0.77456 0.68526 0.0
H190 H 0.88339 0.75162 0.69682 0.0
H191 H 0.9203 0.76715 0.73863 0.0
H192 H 0.07005 0.96185 0.16076 0.0
H193 H 0.19595 0.01094 0.12707 0.0
H194 H 0.19744 0.05707 0.19129 0.0
H195 H 0.15985 0.08706 0.25419 0.0
H196 H 0.03725 0.03358 0.29083 0.0
H197 H 0.03711 0.98505 0.22818 0.0
C198 C 0.09783 0.98257 0.16775 0.0
C199 C 0.13254 0.98384 0.13935 0.0
C200 C 0.09887 0.00795 0.20501 0.0
C201 C 0.16887 0.00989 0.14869 0.0
C202 C 0.16967 0.03615 0.18524 0.0
C203 C 0.13387 0.06382 0.24882 0.0
C204 C 0.09831 0.06386 0.2763 0.0
C205 C 0.13459 0.03582 0.21331 0.0
C206 C 0.06444 0.03422 0.26937 0.0
C207 C 0.06444 0.00665 0.23372 0.0
H208 H 0.54312 0.67754 0.64404 0.0
H209 H 0.45313 0.62156 0.55357 0.0
H210 H 0.39359 0.6286 0.60401 0.0
H211 H 0.36813 0.64676 0.67474 0.0
H212 H 0.45873 0.69306 0.76876 0.0
H213 H 0.5169 0.69576 0.7161 0.0
C214 C 0.51033 0.66732 0.6356 0.0
C215 C 0.5021 0.64903 0.59556 0.0
C216 C 0.47654 0.67017 0.66525 0.0
C217 C 0.45985 0.63547 0.58454 0.0
C218 C 0.42589 0.63963 0.6132 0.0
C219 C 0.40069 0.6574 0.68344 0.0
C220 C 0.40979 0.669 0.72521 0.0
C221 C 0.43401 0.65633 0.65373 0.0
C222 C 0.45151 0.68387 0.73651 0.0
C223 C 0.48463 0.68501 0.70657 0.0
H224 H 0.79434 0.05215 0.10587 0.0
H225 H 0.85859 0.95958 0.02214 0.0
H226 H 0.8334 0.90058 0.06374 0.0
H227 H 0.79911 0.87608 0.1272 0.0
H228 H 0.74604 0.96889 0.21733 0.0
H229 H 0.75843 0.02693 0.16936 0.0
C230 C 0.80207 0.01895 0.09654 0.0
C231 C 0.82811 0.00995 0.06115 0.0
C232 C 0.78905 0.98536 0.12163 0.0
C233 C 0.83868 0.96703 0.04946 0.0
C234 C 0.82421 0.93338 0.07311 0.0
C235 C 0.79003 0.90904 0.13602 0.0
C236 C 0.77219 0.91852 0.17565 0.0
C237 C 0.80028 0.94226 0.10972 0.0
C238 C 0.75958 0.96101 0.18675 0.0
C239 C 0.76724 0.99416 0.15959 0.0
H240 H 0.5606 0.3412 0.53834 0.0
H241 H 0.47588 0.33241 0.6446 0.0
H242 H 0.53921 0.32191 0.69002 0.0
H243 H 0.61917 0.31622 0.69928 0.0
H244 H 0.70314 0.31927 0.59212 0.0
H245 H 0.64 0.33112 0.54695 0.0
C246 C 0.55629 0.33724 0.57152 0.0
C247 C 0.51411 0.33819 0.58852 0.0
C248 C 0.59264 0.32981 0.59699 0.0
C249 C 0.50835 0.33218 0.63122 0.0
C250 C 0.54444 0.32603 0.65704 0.0
C251 C 0.62323 0.31829 0.66586 0.0
C252 C 0.66535 0.31609 0.64867 0.0
C253 C 0.58673 0.32459 0.64023 0.0
C254 C 0.67075 0.32032 0.60563 0.0
C255 C 0.63479 0.32733 0.57999 0.0
H256 H 0.58094 0.52535 0.36101 0.0
H257 H 0.70544 0.48315 0.40721 0.0
H258 H 0.71072 0.42889 0.34941 0.0
H259 H 0.67737 0.39059 0.28787 0.0
H260 H 0.55631 0.43709 0.23872 0.0
H261 H 0.55177 0.49252 0.29553 0.0
C262 C 0.60928 0.50434 0.35826 0.0
C263 C 0.64251 0.50777 0.38847 0.0
C264 C 0.61245 0.47393 0.32461 0.0
C265 C 0.67946 0.48099 0.38426 0.0
C266 C 0.68242 0.44994 0.35134 0.0
C267 C 0.65052 0.41346 0.28946 0.0
C268 C 0.61657 0.40942 0.26013 0.0
C269 C 0.64886 0.44578 0.32161 0.0
C270 C 0.58193 0.43904 0.26195 0.0
C271 C 0.57955 0.47078 0.29418 0.0
H272 H 0.02357 0.19392 0.89977 0.0
H273 H 0.07569 0.13719 0.00948 0.0
H274 H 0.15013 0.14906 0.98518 0.0
H275 H 0.20039 0.17272 0.93103 0.0
H276 H 0.14741 0.21705 0.81618 0.0
H277 H 0.07377 0.21515 0.84468 0.0
C278 C 0.05133 0.18457 0.91839 0.0
C279 C 0.04442 0.16487 0.95625 0.0
C280 C 0.09394 0.19005 0.90355 0.0
C281 C 0.08044 0.15222 0.98002 0.0
C282 C 0.12293 0.15918 0.96628 0.0
C283 C 0.17263 0.18218 0.91253 0.0
C284 C 0.17934 0.19569 0.8719 0.0
C285 C 0.13008 0.17768 0.92789 0.0
C286 C 0.14321 0.20788 0.84804 0.0
C287 C 0.101 0.20602 0.86403 0.0
H288 H 0.38112 0.47468 0.39355 0.0
H289 H 0.25086 0.46021 0.442 0.0
H290 H 0.22324 0.51259 0.39405 0.0
H291 H 0.23775 0.56909 0.34422 0.0
H292 H 0.3673 0.58375 0.29595 0.0
H293 H 0.39361 0.52424 0.33706 0.0
C294 C 0.34663 0.48271 0.39335 0.0
C295 C 0.31827 0.46401 0.42179 0.0
C296 C 0.33083 0.51276 0.36549 0.0
C297 C 0.27351 0.47423 0.42061 0.0
C298 C 0.25762 0.50425 0.3932 0.0
C299 C 0.27125 0.55788 0.34169 0.0
C300 C 0.30068 0.58018 0.31729 0.0
C301 C 0.28612 0.52443 0.36617 0.0
C302 C 0.34427 0.56638 0.31441 0.0
C303 C 0.35931 0.53287 0.33829 0.0
H304 H 0.05172 0.84353 0.86749 0.0
H305 H 0.94746 0.88333 0.95099 0.0
H306 H 0.89486 0.87721 0.89364 0.0
H307 H 0.87891 0.86126 0.8198 0.0
H308 H 0.984 0.83346 0.73377 0.0
H309 H 0.03606 0.83206 0.79202 0.0
C310 C 0.01743 0.85067 0.87285 0.0
C311 C 0.00308 0.86361 0.91301 0.0
C312 C 0.98774 0.84863 0.83947 0.0
C313 C 0.95889 0.87343 0.92003 0.0
C314 C 0.9289 0.86975 0.88742 0.0
C315 C 0.91332 0.85545 0.81395 0.0
C316 C 0.92804 0.84815 0.7729 0.0
C317 C 0.94302 0.85755 0.84706 0.0
C318 C 0.97233 0.83925 0.76539 0.0
C319 C 0.00194 0.83879 0.79854 0.0
H320 H 0.82538 0.01536 0.881 0.0
H321 H 0.96487 0.03406 0.87709 0.0
H322 H 0.9695 0.98761 0.81369 0.0
H323 H 0.93452 0.93807 0.76156 0.0
H324 H 0.79691 0.91285 0.77092 0.0
H325 H 0.79045 0.96691 0.82843 0.0
C326 C 0.85676 0.00966 0.86609 0.0
C327 C 0.89469 0.02818 0.88395 0.0
C328 C 0.85937 0.98221 0.83006 0.0
C329 C 0.93513 0.02004 0.86428 0.0
C330 C 0.93783 0.99361 0.82787 0.0
C331 C 0.90311 0.94506 0.77592 0.0
C332 C 0.86618 0.92191 0.7618 0.0
C333 C 0.90024 0.97413 0.81076 0.0
C334 C 0.82556 0.93099 0.78056 0.0
C335 C 0.82204 0.96134 0.81396 0.0
H336 H 0.44015 0.36664 0.36356 0.0
H337 H 0.52265 0.28038 0.42996 0.0
H338 H 0.57158 0.27259 0.36963 0.0
H339 H 0.59393 0.2958 0.29999 0.0
H340 H 0.50822 0.3766 0.23153 0.0
H341 H 0.45697 0.38119 0.29037 0.0
C342 C 0.46857 0.34574 0.36443 0.0
C343 C 0.47828 0.3244 0.40094 0.0
C344 C 0.49587 0.34076 0.32944 0.0
C345 C 0.51474 0.29698 0.40194 0.0
C346 C 0.54273 0.2927 0.36761 0.0
C347 C 0.5635 0.31352 0.29798 0.0
C348 C 0.55476 0.33658 0.26236 0.0
C349 C 0.53404 0.31509 0.3315 0.0
C350 C 0.51545 0.35937 0.2593 0.0
C351 C 0.48636 0.36193 0.2928 0.0
H352 H 0.22821 0.0044 0.96909 0.0
H353 H 0.09913 0.0009 0.9148 0.0
H354 H 0.11975 0.05607 0.86705 0.0
H355 H 0.17317 0.1082 0.84305 0.0
H356 H 0.29954 0.11698 0.90116 0.0
H357 H 0.28219 0.05579 0.94399 0.0
C358 C 0.20478 0.01538 0.9465 0.0
C359 C 0.16219 0.99863 0.94566 0.0
C360 C 0.21655 0.04782 0.9196 0.0
C361 C 0.13206 0.01348 0.91639 0.0
C362 C 0.14382 0.04493 0.88892 0.0
C363 C 0.19678 0.09634 0.86501 0.0
C364 C 0.23724 0.11693 0.86965 0.0
C365 C 0.18574 0.0627 0.89062 0.0
C366 C 0.26816 0.10131 0.89749 0.0
C367 C 0.25809 0.06671 0.92206 0.0
H368 H 0.44221 0.62411 0.45769 0.0
H369 H 0.5238 0.69096 0.37264 0.0
H370 H 0.46041 0.70428 0.32822 0.0
H371 H 0.38306 0.69181 0.3116 0.0
H372 H 0.30056 0.62951 0.39879 0.0
H373 H 0.36316 0.61934 0.4451 0.0
C374 C 0.4459 0.64153 0.42935 0.0
C375 C 0.48726 0.65585 0.41762 0.0
C376 C 0.40936 0.64998 0.40487 0.0
C377 C 0.49202 0.67939 0.38169 0.0
C378 C 0.45593 0.68703 0.35651 0.0
C379 C 0.37868 0.67751 0.34149 0.0
C380 C 0.33771 0.66146 0.35218 0.0
C381 C 0.41459 0.67209 0.36765 0.0
C382 C 0.33214 0.64194 0.39032 0.0
C383 C 0.36783 0.63596 0.41648 0.0
H384 H 0.41956 0.47989 0.63183 0.0
H385 H 0.28238 0.48428 0.60104 0.0
H386 H 0.26957 0.53663 0.65857 0.0
H387 H 0.29763 0.58423 0.71521 0.0
H388 H 0.43363 0.58018 0.74797 0.0
H389 H 0.44682 0.52445 0.6924 0.0
C390 C 0.38694 0.4924 0.63774 0.0
C391 C 0.35207 0.47835 0.61198 0.0
C392 C 0.37955 0.52226 0.67142 0.0
C393 C 0.30984 0.49446 0.62036 0.0
C394 C 0.30239 0.5244 0.6533 0.0
C395 C 0.32976 0.56997 0.711 0.0
C396 C 0.36453 0.58562 0.73566 0.0
C397 C 0.33695 0.53861 0.6789 0.0
C398 C 0.40644 0.56807 0.72934 0.0
C399 C 0.41396 0.53663 0.69742 0.0
H400 H 0.97908 0.91435 0.12553 0.0
H401 H 0.97061 0.78161 0.07943 0.0
H402 H 0.90733 0.77102 0.12427 0.0
H403 H 0.85112 0.80145 0.1727 0.0
H404 H 0.85933 0.9342 0.21667 0.0
H405 H 0.92642 0.94315 0.1764 0.0
C406 C 0.96358 0.88297 0.12523 0.0
C407 C 0.97927 0.84894 0.09873 0.0
C408 C 0.92724 0.87728 0.15066 0.0
C409 C 0.9591 0.80839 0.09938 0.0
C410 C 0.92289 0.80234 0.12494 0.0
C411 C 0.86839 0.8319 0.17388 0.0
C412 C 0.85094 0.86723 0.19719 0.0
C413 C 0.90632 0.83676 0.15019 0.0
C414 C 0.87268 0.90687 0.19866 0.0
C415 C 0.9107 0.9119 0.17561 0.0
H416 H 0.73014 0.49572 0.55513 0.0
H417 H 0.6044 0.51553 0.61345 0.0
H418 H 0.62124 0.4606 0.66322 0.0
H419 H 0.66925 0.4031 0.68645 0.0
H420 H 0.79 0.3759 0.62221 0.0
H421 H 0.77876 0.43841 0.57926 0.0
C422 C 0.70683 0.48838 0.5792 0.0
C423 C 0.66619 0.5095 0.58083 0.0
C424 C 0.7161 0.4557 0.60671 0.0
C425 C 0.63582 0.49941 0.61161 0.0
C426 C 0.64544 0.46814 0.64007 0.0
C427 C 0.69323 0.41152 0.6634 0.0
C428 C 0.73061 0.38581 0.65767 0.0
C429 C 0.6851 0.44558 0.63739 0.0
C430 C 0.76158 0.39621 0.62764 0.0
C431 C 0.75479 0.43145 0.60281 0.0
H432 H 0.937 0.11057 0.15601 0.0
H433 H 0.02774 0.19746 0.10136 0.0
H434 H 0.06933 0.20288 0.16652 0.0
H435 H 0.08276 0.17846 0.23757 0.0
H436 H 0.9894 0.09651 0.29425 0.0
H437 H 0.9455 0.09351 0.23007 0.0
C438 C 0.96569 0.1309 0.15865 0.0
C439 C 0.97966 0.15328 0.12407 0.0
C440 C 0.98883 0.13464 0.19648 0.0
C441 C 0.01646 0.18003 0.12776 0.0
C442 C 0.04028 0.18304 0.1649 0.0
C443 C 0.0522 0.16095 0.23589 0.0
C444 C 0.03913 0.1374 0.2699 0.0
C445 C 0.02709 0.16005 0.19926 0.0
C446 C -0.00018 0.11448 0.26794 0.0
C447 C 0.97497 0.11272 0.23136 0.0
H448 H 0.23979 0.79666 0.11697 0.0
H449 H 0.10674 0.75455 0.13072 0.0
H450 H 0.12877 0.70833 0.18671 0.0
H451 H 0.18606 0.68113 0.23314 0.0
H452 H 0.31904 0.72098 0.21692 0.0
H453 H 0.29715 0.76677 0.16044 0.0
C454 C 0.21563 0.77753 0.13239 0.0
C455 C 0.17175 0.77924 0.12004 0.0
C456 C 0.22858 0.75054 0.16399 0.0
C457 C 0.14081 0.75373 0.13975 0.0
C458 C 0.15333 0.7273 0.17173 0.0
C459 C 0.21 0.69953 0.21669 0.0
C460 C 0.25379 0.69848 0.22911 0.0
C461 C 0.19713 0.72549 0.18415 0.0
C462 C 0.28498 0.72222 0.208 0.0
C463 C 0.27251 0.74823 0.1758 0.0
H464 H 0.77527 0.7056 0.54854 0.0
H465 H 0.65987 0.7329 0.62235 0.0
H466 H 0.70179 0.78052 0.66986 0.0
H467 H 0.771 0.81515 0.68997 0.0
H468 H 0.88586 0.79079 0.61552 0.0
H469 H 0.84465 0.74111 0.56847 0.0
C470 C 0.75951 0.7216 0.57532 0.0
C471 C 0.71465 0.71564 0.58209 0.0
C472 C 0.78359 0.74974 0.60199 0.0
C473 C 0.6944 0.73705 0.61651 0.0
C474 C 0.71827 0.76435 0.64361 0.0
C475 C 0.78658 0.79948 0.66295 0.0
C476 C 0.83093 0.80678 0.65551 0.0
C477 C 0.76271 0.77129 0.63638 0.0
C478 C 0.85152 0.78557 0.6213 0.0
C479 C 0.82804 0.75721 0.59467 0.0
H480 H 0.73199 0.21156 0.04119 0.0
H481 H 0.84286 0.23994 0.12093 0.0
H482 H 0.79598 0.27961 0.1707 0.0
H483 H 0.72367 0.30692 0.19157 0.0
H484 H 0.61329 0.28297 0.11089 0.0
H485 H 0.65937 0.24026 0.06178 0.0
C486 C 0.74578 0.22623 0.06957 0.0
C487 C 0.79087 0.2228 0.07726 0.0
C488 C 0.7187 0.24974 0.09788 0.0
C489 C 0.80832 0.24232 0.11405 0.0
C490 C 0.78155 0.26497 0.14262 0.0
C491 C 0.70999 0.29275 0.16294 0.0
C492 C 0.66542 0.29811 0.15455 0.0
C493 C 0.73681 0.26915 0.13473 0.0
C494 C 0.64757 0.27886 0.11794 0.0
C495 C 0.67392 0.25469 0.08988 0.0
H496 H 0.37689 0.265 0.65079 0.0
H497 H 0.24489 0.28666 0.60942 0.0
H498 H 0.21645 0.25718 0.67307 0.0
H499 H 0.22896 0.22652 0.74056 0.0
H500 H 0.35968 0.21031 0.7864 0.0
H501 H 0.38932 0.23555 0.72054 0.0
C502 C 0.34197 0.26287 0.6558 0.0
C503 C 0.31288 0.27776 0.6257 0.0
C504 C 0.32584 0.24705 0.69309 0.0
C505 C 0.26772 0.2755 0.63242 0.0
C506 C 0.25149 0.25865 0.66868 0.0
C507 C 0.2639 0.22939 0.73634 0.0
C508 C 0.29225 0.21763 0.76819 0.0
C509 C 0.28022 0.24482 0.69931 0.0
C510 C 0.3375 0.21963 0.76208 0.0
C511 C 0.35426 0.23405 0.72462 0.0
H512 H 0.6635 0.77333 0.41375 0.0
H513 H 0.7146 0.65341 0.35976 0.0
H514 H 0.74054 0.6906 0.29931 0.0
H515 H 0.75157 0.75759 0.26327 0.0
H516 H 0.7065 0.87822 0.31944 0.0
H517 H 0.67371 0.84031 0.377 0.0
C518 C 0.68011 0.7553 0.38866 0.0
C519 C 0.68736 0.71073 0.39138 0.0
C520 C 0.69555 0.77696 0.35428 0.0
C521 C 0.70905 0.68783 0.35867 0.0
C522 C 0.7237 0.70899 0.32399 0.0
C523 C 0.73447 0.77535 0.2882 0.0
C524 C 0.73147 0.82038 0.28759 0.0
C525 C 0.71757 0.75356 0.32175 0.0
C526 C 0.70871 0.8434 0.31937 0.0
C527 C 0.69046 0.8218 0.35235 0.0
H528 H 0.83507 0.17038 0.84825 0.0
H529 H 0.84041 0.28844 0.9245 0.0
H530 H 0.80978 0.32837 0.86719 0.0
H531 H 0.77677 0.32842 0.79704 0.0
H532 H 0.77778 0.21185 0.7188 0.0
H533 H 0.80976 0.17211 0.77556 0.0
C534 C 0.82984 0.20493 0.85213 0.0
C535 C 0.83957 0.22646 0.89053 0.0
C536 C 0.81282 0.22765 0.81897 0.0
C537 C 0.83327 0.27126 0.89512 0.0
C538 C 0.81552 0.29401 0.86249 0.0
C539 C 0.78488 0.29454 0.79225 0.0
C540 C 0.7745 0.27286 0.7541 0.0
C541 C 0.80457 0.2724 0.82452 0.0
C542 C 0.78455 0.22884 0.74831 0.0
C543 C 0.80314 0.20628 0.78058 0.0
H544 H 0.22106 0.27265 0.47709 0.0
H545 H 0.32862 0.2293 0.399 0.0
H546 H 0.2788 0.18393 0.35633 0.0
H547 H 0.20415 0.15837 0.34057 0.0
H548 H 0.09828 0.19734 0.42221 0.0
H549 H 0.14782 0.24373 0.46403 0.0
C550 C 0.23358 0.25339 0.4506 0.0
C551 C 0.27827 0.25461 0.44078 0.0
C552 C 0.20505 0.22694 0.42695 0.0
C553 C 0.29428 0.22887 0.40701 0.0
C554 C 0.26584 0.20307 0.38264 0.0
C555 C 0.19228 0.17641 0.36801 0.0
C556 C 0.14781 0.17463 0.37855 0.0
C557 C 0.22117 0.20195 0.39232 0.0
C558 C 0.13233 0.19883 0.41346 0.0
C559 C 0.16064 0.22505 0.43737 0.0
H560 H 0.16733 0.7571 0.90263 0.0
H561 H 0.27354 0.82366 0.9663 0.0
H562 H 0.32619 0.78362 0.923 0.0
H563 H 0.34263 0.72902 0.86758 0.0
H564 H 0.23754 0.66651 0.79964 0.0
H565 H 0.18398 0.70452 0.84463 0.0
C566 C 0.20197 0.76287 0.90691 0.0
C567 C 0.21633 0.79338 0.93765 0.0
C568 C 0.23235 0.74001 0.8815 0.0
C569 C 0.26141 0.80065 0.94266 0.0
C570 C 0.2917 0.77759 0.91807 0.0
C571 C 0.30797 0.72407 0.86262 0.0
C572 C 0.29392 0.69482 0.83087 0.0
C573 C 0.27757 0.74717 0.8875 0.0
C574 C 0.249 0.68819 0.82466 0.0
C575 C 0.21844 0.71026 0.85003 0.0
loop_
_geom_bond_atom_site_label_1
_geom_bond_atom_site_label_2
_geom_bond_distance
_geom_bond_site_symmetry_2
_ccdc_geom_bond_type
Sc0 O3 2.025 . S
Sc0 O10 2.105 1_554 S
Sc0 O13 2.105 . S
Sc0 O16 2.105 . S
Sc0 O19 2.105 1_554 S
Sc1 O3 2.025 . S
Sc1 O11 2.105 1_554 S
Sc1 O15 2.105 . S
Sc1 O17 2.105 . S
Sc1 O21 2.105 1_554 S
Sc2 O3 2.025 . S
Sc2 O12 2.105 1_554 S
Sc2 O14 2.105 . S
Sc2 O18 2.105 . S
Sc2 O20 2.105 1_554 S
O3 Sc0 2.025 . S
O3 Sc1 2.025 . S
O3 Sc2 2.025 . S
C4 O10 1.268 . S
C4 O20 1.268 . S
C5 O11 1.268 . S
C5 O19 1.268 . S
C6 O12 1.268 . S
C6 O21 1.268 . S
C7 O13 1.268 . S
C7 O17 1.268 . S
C8 O14 1.268 . S
C8 O16 1.268 . S
C9 O15 1.268 . S
C9 O18 1.268 . S
O10 Sc0 2.105 1_556 S
O10 C4 1.268 . S
O11 Sc1 2.105 1_556 S
O11 C5 1.268 . S
O12 Sc2 2.105 1_556 S
O12 C6 1.268 . S
O13 Sc0 2.105 . S
O13 C7 1.268 . S
O14 Sc2 2.105 . S
O14 C8 1.268 . S
O15 Sc1 2.105 . S
O15 C9 1.268 . S
O16 Sc0 2.105 . S
O16 C8 1.268 . S
O17 Sc1 2.105 . S
O17 C7 1.268 . S
O18 Sc2 2.105 . S
O18 C9 1.268 . S
O19 Sc0 2.105 1_556 S
O19 C5 1.268 . S
O20 Sc2 2.105 1_556 S
O20 C4 1.268 . S
O21 Sc1 2.105 1_556 S
O21 C6 1.268 . S
Sc22 O25 2.025 . S
Sc22 O32 2.105 . S
Sc22 O35 2.105 . S
Sc22 O38 2.105 . S
Sc22 O41 2.105 . S
Sc23 O25 2.025 . S
Sc23 O33 2.105 . S
Sc23 O37 2.105 . S
Sc23 O39 2.105 . S
Sc23 O43 2.105 . S
Sc24 O25 2.025 . S
Sc24 O34 2.105 . S
Sc24 O36 2.105 . S
Sc24 O40 2.105 . S
Sc24 O42 2.105 . S
O25 Sc22 2.025 . S
O25 Sc23 2.025 . S
O25 Sc24 2.025 . S
C26 O32 1.268 . S
C26 O42 1.268 . S
C27 O33 1.268 . S
C27 O41 1.268 . S
C28 O34 1.268 . S
C28 O43 1.268 . S
C29 O35 1.268 . S
C29 O39 1.268 . S
C30 O36 1.268 . S
C30 O38 1.268 . S
C31 O37 1.268 . S
C31 O40 1.268 . S
O32 Sc22 2.105 . S
O32 C26 1.268 . S
O33 Sc23 2.105 . S
O33 C27 1.268 . S
O34 Sc24 2.105 . S
O34 C28 1.268 . S
O35 Sc22 2.105 . S
O35 C29 1.268 . S
O36 Sc24 2.105 . S
O36 C30 1.268 . S
O37 Sc23 2.105 . S
O37 C31 1.268 . S
O38 Sc22 2.105 . S
O38 C30 1.268 . S
O39 Sc23 2.105 . S
O39 C29 1.268 . S
O40 Sc24 2.105 . S
O40 C31 1.268 . S
O41 Sc22 2.105 . S
O41 C27 1.268 . S
O42 Sc24 2.105 . S
O42 C26 1.268 . S
O43 Sc23 2.105 . S
O43 C28 1.268 . S
Sc44 O47 2.026 . S
Sc44 O54 2.105 1_554 S
Sc44 O57 2.105 . S
Sc44 O60 2.105 . S
Sc44 O63 2.105 1_554 S
Sc45 O47 2.023 1_556 S
Sc45 O55 2.105 . S
Sc45 O59 2.105 1_556 S
Sc45 O61 2.105 1_556 S
Sc45 O65 2.105 . S
Sc46 O47 2.027 . S
Sc46 O56 2.105 1_554 S
Sc46 O58 2.105 . S
Sc46 O62 2.105 . S
Sc46 O64 2.105 1_554 S
O47 Sc44 2.026 . S
O47 Sc45 2.023 1_554 S
O47 Sc46 2.027 . S
C48 O54 1.268 . S
C48 O64 1.268 . S
C49 O55 1.268 . S
C49 O63 1.268 . S
C50 O56 1.268 . S
C50 O65 1.268 . S
C51 O57 1.268 . S
C51 O61 1.268 . S
C52 O58 1.268 . S
C52 O60 1.268 . S
C53 O59 1.268 . S
C53 O62 1.268 . S
O54 Sc44 2.105 1_556 S
O54 C48 1.268 . S
O55 Sc45 2.105 . S
O55 C49 1.268 . S
O56 Sc46 2.105 1_556 S
O56 C50 1.268 . S
O57 Sc44 2.105 . S
O57 C51 1.268 . S
O58 Sc46 2.105 . S
O58 C52 1.268 . S
O59 Sc45 2.105 1_554 S
O59 C53 1.268 . S
O60 Sc44 2.105 . S
O60 C52 1.268 . S
O61 Sc45 2.105 1_554 S
O61 C51 1.268 . S
O62 Sc46 2.105 . S
O62 C53 1.268 . S
O63 Sc44 2.105 1_556 S
O63 C49 1.268 . S
O64 Sc46 2.105 1_556 S
O64 C48 1.268 . S
O65 Sc45 2.105 . S
O65 C50 1.268 . S
Sc66 O69 2.025 . S
Sc66 O76 2.105 . S
Sc66 O79 2.105 . S
Sc66 O82 2.105 . S
Sc66 O85 2.105 . S
Sc67 O69 2.025 . S
Sc67 O77 2.105 . S
Sc67 O81 2.105 . S
Sc67 O83 2.105 . S
Sc67 O87 2.105 . S
Sc68 O69 2.025 . S
Sc68 O78 2.105 . S
Sc68 O80 2.105 . S
Sc68 O84 2.105 . S
Sc68 O86 2.105 . S
O69 Sc66 2.025 . S
O69 Sc67 2.025 . S
O69 Sc68 2.025 . S
C70 O76 1.268 . S
C70 O86 1.268 . S
C71 O77 1.268 . S
C71 O85 1.268 . S
C72 O78 1.268 . S
C72 O87 1.268 . S
C73 O79 1.268 . S
C73 O83 1.268 . S
C74 O80 1.268 . S
C74 O82 1.268 . S
C75 O81 1.268 . S
C75 O84 1.268 . S
O76 Sc66 2.105 . S
O76 C70 1.268 . S
O77 Sc67 2.105 . S
O77 C71 1.268 . S
O78 Sc68 2.105 . S
O78 C72 1.268 . S
O79 Sc66 2.105 . S
O79 C73 1.268 . S
O80 Sc68 2.105 . S
O80 C74 1.268 . S
O81 Sc67 2.105 . S
O81 C75 1.268 . S
O82 Sc66 2.105 . S
O82 C74 1.268 . S
O83 Sc67 2.105 . S
O83 C73 1.268 . S
O84 Sc68 2.105 . S
O84 C75 1.268 . S
O85 Sc66 2.105 . S
O85 C71 1.268 . S
O86 Sc68 2.105 . S
O86 C70 1.268 . S
O87 Sc67 2.105 . S
O87 C72 1.268 . S
C88 N89 1.317 . S
C88 N90 1.348 . S
C88 C91 1.485 . S
N89 C88 1.317 . S
N89 N93 1.370 . S
N90 C88 1.348 . S
N90 C92 1.346 . S
C91 C88 1.485 . S
C91 H95 0.960 . S
C91 H96 0.961 . S
C91 H97 0.960 . S
C92 N90 1.346 . S
C92 N93 1.307 . S
C92 C94 1.486 . S
N93 N89 1.370 . S
N93 C92 1.307 . S
C94 C92 1.486 . S
C94 H98 0.960 . S
C94 H99 0.960 . S
C94 H100 0.959 . S
H95 C91 0.960 . S
H96 C91 0.961 . S
H97 C91 0.960 . S
H98 C94 0.960 . S
H99 C94 0.960 . S
H100 C94 0.959 . S
C101 N102 1.317 . S
C101 N103 1.348 . S
C101 C104 1.485 . S
N102 C101 1.317 . S
N102 N106 1.370 . S
N103 C101 1.348 . S
N103 C105 1.346 . S
C104 C101 1.485 . S
C104 H108 0.960 . S
C104 H109 0.961 . S
C104 H110 0.960 . S
C105 N103 1.346 . S
C105 N106 1.307 . S
C105 C107 1.486 . S
N106 N102 1.370 . S
N106 C105 1.307 . S
C107 C105 1.486 . S
C107 H111 0.960 . S
C107 H112 0.960 . S
C107 H113 0.959 . S
H108 C104 0.960 . S
H109 C104 0.961 . S
H110 C104 0.960 . S
H111 C107 0.960 . S
H112 C107 0.960 . S
H113 C107 0.959 . S
C114 N115 1.317 . S
C114 N116 1.348 . S
C114 C117 1.485 . S
N115 C114 1.317 . S
N115 N119 1.370 . S
N116 C114 1.348 . S
N116 C118 1.346 . S
C117 C114 1.485 . S
C117 H121 0.960 . S
C117 H122 0.961 . S
C117 H123 0.960 . S
C118 N116 1.346 . S
C118 N119 1.307 . S
C118 C120 1.486 . S
N119 N115 1.370 . S
N119 C118 1.307 . S
C120 C118 1.486 . S
C120 H124 0.960 . S
C120 H125 0.960 . S
C120 H126 0.959 . S
H121 C117 0.960 . S
H122 C117 0.961 . S
H123 C117 0.960 . S
H124 C120 0.960 . S
H125 C120 0.960 . S
H126 C120 0.959 . S
C127 N128 1.317 . S
C127 N129 1.348 . S
C127 C130 1.485 . S
N128 C127 1.317 . S
N128 N132 1.370 . S
N129 C127 1.348 . S
N129 C131 1.346 . S
C130 C127 1.485 . S
C130 H134 0.960 . S
C130 H135 0.961 . S
C130 H136 0.960 . S
C131 N129 1.346 . S
C131 N132 1.307 . S
C131 C133 1.486 . S
N132 N128 1.370 . S
N132 C131 1.307 . S
C133 C131 1.486 . S
C133 H137 0.960 . S
C133 H138 0.960 . S
C133 H139 0.959 . S
H134 C130 0.960 . S
H135 C130 0.961 . S
H136 C130 0.960 . S
H137 C133 0.960 . S
H138 C133 0.960 . S
H139 C133 0.959 . S
C140 N141 1.317 . S
C140 N142 1.348 . S
C140 C143 1.485 . S
N141 C140 1.317 . S
N141 N145 1.370 . S
N142 C140 1.348 . S
N142 C144 1.346 . S
C143 C140 1.485 . S
C143 H147 0.960 . S
C143 H148 0.961 . S
C143 H149 0.960 . S
C144 N142 1.346 . S
C144 N145 1.307 . S
C144 C146 1.486 . S
N145 N141 1.370 . S
N145 C144 1.307 . S
C146 C144 1.486 . S
C146 H150 0.960 . S
C146 H151 0.960 . S
C146 H152 0.959 . S
H147 C143 0.960 . S
H148 C143 0.961 . S
H149 C143 0.960 . S
H150 C146 0.960 . S
H151 C146 0.960 . S
H152 C146 0.959 . S
C153 N154 1.317 . S
C153 N155 1.348 . S
C153 C156 1.485 . S
N154 C153 1.317 . S
N154 N158 1.370 . S
N155 C153 1.348 . S
N155 C157 1.346 . S
C156 C153 1.485 . S
C156 H160 0.960 . S
C156 H161 0.961 . S
C156 H162 0.960 . S
C157 N155 1.346 . S
C157 N158 1.307 . S
C157 C159 1.486 . S
N158 N154 1.370 . S
N158 C157 1.307 . S
C159 C157 1.486 . S
C159 H163 0.960 . S
C159 H164 0.960 . S
C159 H165 0.959 . S
H160 C156 0.960 . S
H161 C156 0.961 . S
H162 C156 0.960 . S
H163 C159 0.960 . S
H164 C159 0.960 . S
H165 C159 0.959 . S
C166 N167 1.317 . S
C166 N168 1.348 . S
C166 C169 1.485 . S
N167 C166 1.317 . S
N167 N171 1.370 . S
N168 C166 1.348 . S
N168 C170 1.346 . S
C169 C166 1.485 . S
C169 H173 0.960 . S
C169 H174 0.961 . S
C169 H175 0.960 . S
C170 N168 1.346 . S
C170 N171 1.307 . S
C170 C172 1.486 . S
N171 N167 1.370 . S
N171 C170 1.307 . S
C172 C170 1.486 . S
C172 H176 0.960 . S
C172 H177 0.960 . S
C172 H178 0.959 . S
H173 C169 0.960 . S
H174 C169 0.961 . S
H175 C169 0.960 . S
H176 C172 0.960 . S
H177 C172 0.960 . S
H178 C172 0.959 . S
C179 N180 1.317 . S
C179 N181 1.348 . S
C179 C182 1.485 . S
N180 C179 1.317 . S
N180 N184 1.370 . S
N181 C179 1.348 . S
N181 C183 1.346 . S
C182 C179 1.485 . S
C182 H186 0.960 . S
C182 H187 0.961 . S
C182 H188 0.960 . S
C183 N181 1.346 . S
C183 N184 1.307 . S
C183 C185 1.486 . S
N184 N180 1.370 . S
N184 C183 1.307 . S
C185 C183 1.486 . S
C185 H189 0.960 . S
C185 H190 0.960 . S
C185 H191 0.959 . S
H186 C182 0.960 . S
H187 C182 0.961 . S
H188 C182 0.960 . S
H189 C185 0.960 . S
H190 C185 0.960 . S
H191 C185 0.959 . S
H192 C198 0.930 . S
H193 C201 0.930 . S
H194 C202 0.930 . S
H195 C203 0.930 . S
H196 C206 0.930 . S
H197 C207 0.930 . S
C198 H192 0.930 . S
C198 C199 1.355 . S
C198 C200 1.415 1_565 S
C199 C198 1.355 . S
C199 C201 1.419 . S
C200 C198 1.415 1_545 S
C200 C205 1.425 . S
C200 C207 1.409 . S
C201 H193 0.930 . S
C201 C199 1.419 . S
C201 C202 1.362 1_565 S
C202 H194 0.930 . S
C202 C201 1.362 1_545 S
C202 C205 1.409 . S
C203 H195 0.930 . S
C203 C204 1.355 . S
C203 C205 1.415 . S
C204 C203 1.355 . S
C204 C206 1.419 . S
C205 C200 1.425 . S
C205 C202 1.409 . S
C205 C203 1.415 . S
C206 H196 0.930 . S
C206 C204 1.419 . S
C206 C207 1.362 . S
C207 H197 0.930 . S
C207 C200 1.409 . S
C207 C206 1.362 . S
H208 C214 0.930 . S
H209 C217 0.930 . S
H210 C218 0.930 . S
H211 C219 0.930 . S
H212 C222 0.930 . S
H213 C223 0.930 . S
C214 H208 0.930 . S
C214 C215 1.355 . S
C214 C216 1.415 . S
C215 C214 1.355 . S
C215 C217 1.419 . S
C216 C214 1.415 . S
C216 C221 1.425 . S
C216 C223 1.409 . S
C217 H209 0.930 . S
C217 C215 1.419 . S
C217 C218 1.362 . S
C218 H210 0.930 . S
C218 C217 1.362 . S
C218 C221 1.409 . S
C219 H211 0.930 . S
C219 C220 1.355 . S
C219 C221 1.415 . S
C220 C219 1.355 . S
C220 C222 1.419 . S
C221 C216 1.425 . S
C221 C218 1.409 . S
C221 C219 1.415 . S
C222 H212 0.930 . S
C222 C220 1.419 . S
C222 C223 1.362 . S
C223 H213 0.930 . S
C223 C216 1.409 . S
C223 C222 1.362 . S
H224 C230 0.930 . S
H225 C233 0.930 . S
H226 C234 0.930 . S
H227 C235 0.930 . S
H228 C238 0.930 . S
H229 C239 0.930 . S
C230 H224 0.930 . S
C230 C231 1.355 . S
C230 C232 1.415 1_545 S
C231 C230 1.355 . S
C231 C233 1.419 1_545 S
C232 C230 1.415 1_565 S
C232 C237 1.425 . S
C232 C239 1.409 . S
C233 H225 0.930 . S
C233 C231 1.419 1_565 S
C233 C234 1.362 . S
C234 H226 0.930 . S
C234 C233 1.362 . S
C234 C237 1.409 . S
C235 H227 0.930 . S
C235 C236 1.355 . S
C235 C237 1.415 . S
C236 C235 1.355 . S
C236 C238 1.419 . S
C237 C232 1.425 . S
C237 C234 1.409 . S
C237 C235 1.415 . S
C238 H228 0.930 . S
C238 C236 1.419 . S
C238 C239 1.362 . S
C239 H229 0.930 . S
C239 C232 1.409 . S
C239 C238 1.362 . S
H240 C246 0.930 . S
H241 C249 0.930 . S
H242 C250 0.930 . S
H243 C251 0.930 . S
H244 C254 0.930 . S
H245 C255 0.930 . S
C246 H240 0.930 . S
C246 C247 1.355 . S
C246 C248 1.415 . S
C247 C246 1.355 . S
C247 C249 1.419 . S
C248 C246 1.415 . S
C248 C253 1.425 . S
C248 C255 1.409 . S
C249 H241 0.930 . S
C249 C247 1.419 . S
C249 C250 1.362 . S
C250 H242 0.930 . S
C250 C249 1.362 . S
C250 C253 1.409 . S
C251 H243 0.930 . S
C251 C252 1.355 . S
C251 C253 1.415 . S
C252 C251 1.355 . S
C252 C254 1.419 . S
C253 C248 1.425 . S
C253 C250 1.409 . S
C253 C251 1.415 . S
C254 H244 0.930 . S
C254 C252 1.419 . S
C254 C255 1.362 . S
C255 H245 0.930 . S
C255 C248 1.409 . S
C255 C254 1.362 . S
H256 C262 0.930 . S
H257 C265 0.930 . S
H258 C266 0.930 . S
H259 C267 0.930 . S
H260 C270 0.930 . S
H261 C271 0.930 . S
C262 H256 0.930 . S
C262 C263 1.355 . S
C262 C264 1.415 . S
C263 C262 1.355 . S
C263 C265 1.419 . S
C264 C262 1.415 . S
C264 C269 1.425 . S
C264 C271 1.409 . S
C265 H257 0.930 . S
C265 C263 1.419 . S
C265 C266 1.362 . S
C266 H258 0.930 . S
C266 C265 1.362 . S
C266 C269 1.409 . S
C267 H259 0.930 . S
C267 C268 1.355 . S
C267 C269 1.415 . S
C268 C267 1.355 . S
C268 C270 1.419 . S
C269 C264 1.425 . S
C269 C266 1.409 . S
C269 C267 1.415 . S
C270 H260 0.930 . S
C270 C268 1.419 . S
C270 C271 1.362 . S
C271 H261 0.930 . S
C271 C264 1.409 . S
C271 C270 1.362 . S
H272 C278 0.930 1_655 S
H273 C281 0.930 . S
H274 C282 0.930 . S
H275 C283 0.930 . S
H276 C286 0.930 . S
H277 C287 0.930 . S
C278 H272 0.930 1_455 S
C278 C279 1.355 1_455 S
C278 C280 1.415 . S
C279 C278 1.355 1_655 S
C279 C281 1.419 1_655 S
C280 C278 1.415 . S
C280 C285 1.425 . S
C280 C287 1.409 . S
C281 H273 0.930 . S
C281 C279 1.419 1_455 S
C281 C282 1.362 . S
C282 H274 0.930 . S
C282 C281 1.362 . S
C282 C285 1.409 . S
C283 H275 0.930 . S
C283 C284 1.355 . S
C283 C285 1.415 . S
C284 C283 1.355 . S
C284 C286 1.419 . S
C285 C280 1.425 . S
C285 C282 1.409 . S
C285 C283 1.415 . S
C286 H276 0.930 . S
C286 C284 1.419 . S
C286 C287 1.362 . S
C287 H277 0.930 . S
C287 C280 1.409 . S
C287 C286 1.362 . S
H288 C294 0.930 . S
H289 C297 0.930 . S
H290 C298 0.930 . S
H291 C299 0.930 . S
H292 C302 0.930 . S
H293 C303 0.930 . S
C294 H288 0.930 . S
C294 C295 1.355 . S
C294 C296 1.415 . S
C295 C294 1.355 . S
C295 C297 1.419 . S
C296 C294 1.415 . S
C296 C301 1.425 . S
C296 C303 1.409 . S
C297 H289 0.930 . S
C297 C295 1.419 . S
C297 C298 1.362 . S
C298 H290 0.930 . S
C298 C297 1.362 . S
C298 C301 1.409 . S
C299 H291 0.930 . S
C299 C300 1.355 . S
C299 C301 1.415 . S
C300 C299 1.355 . S
C300 C302 1.419 . S
C301 C296 1.425 . S
C301 C298 1.409 . S
C301 C299 1.415 . S
C302 H292 0.930 . S
C302 C300 1.419 . S
C302 C303 1.362 . S
C303 H293 0.930 . S
C303 C296 1.409 . S
C303 C302 1.362 . S
H304 C310 0.930 . S
H305 C313 0.930 . S
H306 C314 0.930 . S
H307 C315 0.930 . S
H308 C318 0.930 . S
H309 C319 0.930 . S
C310 H304 0.930 . S
C310 C311 1.355 . S
C310 C312 1.415 . S
C311 C310 1.355 . S
C311 C313 1.419 1_455 S
C312 C310 1.415 . S
C312 C317 1.425 1_455 S
C312 C319 1.409 . S
C313 H305 0.930 . S
C313 C311 1.419 1_655 S
C313 C314 1.362 . S
C314 H306 0.930 . S
C314 C313 1.362 . S
C314 C317 1.409 . S
C315 H307 0.930 . S
C315 C316 1.355 . S
C315 C317 1.415 . S
C316 C315 1.355 . S
C316 C318 1.419 . S
C317 C312 1.425 1_655 S
C317 C314 1.409 . S
C317 C315 1.415 . S
C318 H308 0.930 . S
C318 C316 1.419 . S
C318 C319 1.362 1_655 S
C319 H309 0.930 . S
C319 C312 1.409 . S
C319 C318 1.362 1_455 S
H320 C326 0.930 . S
H321 C329 0.930 . S
H322 C330 0.930 . S
H323 C331 0.930 . S
H324 C334 0.930 . S
H325 C335 0.930 . S
C326 H320 0.930 . S
C326 C327 1.355 . S
C326 C328 1.415 1_545 S
C327 C326 1.355 . S
C327 C329 1.419 . S
C328 C326 1.415 1_565 S
C328 C333 1.425 . S
C328 C335 1.409 . S
C329 H321 0.930 . S
C329 C327 1.419 . S
C329 C330 1.362 1_545 S
C330 H322 0.930 . S
C330 C329 1.362 1_565 S
C330 C333 1.409 . S
C331 H323 0.930 . S
C331 C332 1.355 . S
C331 C333 1.415 . S
C332 C331 1.355 . S
C332 C334 1.419 . S
C333 C328 1.425 . S
C333 C330 1.409 . S
C333 C331 1.415 . S
C334 H324 0.930 . S
C334 C332 1.419 . S
C334 C335 1.362 . S
C335 H325 0.930 . S
C335 C328 1.409 . S
C335 C334 1.362 . S
H336 C342 0.930 . S
H337 C345 0.930 . S
H338 C346 0.930 . S
H339 C347 0.930 . S
H340 C350 0.930 . S
H341 C351 0.930 . S
C342 H336 0.930 . S
C342 C343 1.355 . S
C342 C344 1.415 . S
C343 C342 1.355 . S
C343 C345 1.419 . S
C344 C342 1.415 . S
C344 C349 1.425 . S
C344 C351 1.409 . S
C345 H337 0.930 . S
C345 C343 1.419 . S
C345 C346 1.362 . S
C346 H338 0.930 . S
C346 C345 1.362 . S
C346 C349 1.409 . S
C347 H339 0.930 . S
C347 C348 1.355 . S
C347 C349 1.415 . S
C348 C347 1.355 . S
C348 C350 1.419 . S
C349 C344 1.425 . S
C349 C346 1.409 . S
C349 C347 1.415 . S
C350 H340 0.930 . S
C350 C348 1.419 . S
C350 C351 1.362 . S
C351 H341 0.930 . S
C351 C344 1.409 . S
C351 C350 1.362 . S
H352 C358 0.930 . S
H353 C361 0.930 . S
H354 C362 0.930 . S
H355 C363 0.930 . S
H356 C366 0.930 . S
H357 C367 0.930 . S
C358 H352 0.930 . S
C358 C359 1.355 1_545 S
C358 C360 1.415 . S
C359 C358 1.355 1_565 S
C359 C361 1.419 . S
C360 C358 1.415 . S
C360 C365 1.425 . S
C360 C367 1.409 . S
C361 H353 0.930 . S
C361 C359 1.419 . S
C361 C362 1.362 . S
C362 H354 0.930 . S
C362 C361 1.362 . S
C362 C365 1.409 1_565 S
C363 H355 0.930 . S
C363 C364 1.355 . S
C363 C365 1.415 . S
C364 C363 1.355 . S
C364 C366 1.419 . S
C365 C360 1.425 . S
C365 C362 1.409 1_545 S
C365 C363 1.415 . S
C366 H356 0.930 . S
C366 C364 1.419 . S
C366 C367 1.362 . S
C367 H357 0.930 . S
C367 C360 1.409 . S
C367 C366 1.362 . S
H368 C374 0.930 . S
H369 C377 0.930 . S
H370 C378 0.930 . S
H371 C379 0.930 . S
H372 C382 0.930 . S
H373 C383 0.930 . S
C374 H368 0.930 . S
C374 C375 1.355 . S
C374 C376 1.415 . S
C375 C374 1.355 . S
C375 C377 1.419 . S
C376 C374 1.415 . S
C376 C381 1.425 . S
C376 C383 1.409 . S
C377 H369 0.930 . S
C377 C375 1.419 . S
C377 C378 1.362 . S
C378 H370 0.930 . S
C378 C377 1.362 . S
C378 C381 1.409 . S
C379 H371 0.930 . S
C379 C380 1.355 . S
C379 C381 1.415 . S
C380 C379 1.355 . S
C380 C382 1.419 . S
C381 C376 1.425 . S
C381 C378 1.409 . S
C381 C379 1.415 . S
C382 H372 0.930 . S
C382 C380 1.419 . S
C382 C383 1.362 . S
C383 H373 0.930 . S
C383 C376 1.409 . S
C383 C382 1.362 . S
H384 C390 0.930 . S
H385 C393 0.930 . S
H386 C394 0.930 . S
H387 C395 0.930 . S
H388 C398 0.930 . S
H389 C399 0.930 . S
C390 H384 0.930 . S
C390 C391 1.355 . S
C390 C392 1.415 . S
C391 C390 1.355 . S
C391 C393 1.419 . S
C392 C390 1.415 . S
C392 C397 1.425 . S
C392 C399 1.409 . S
C393 H385 0.930 . S
C393 C391 1.419 . S
C393 C394 1.362 . S
C394 H386 0.930 . S
C394 C393 1.362 . S
C394 C397 1.409 . S
C395 H387 0.930 . S
C395 C396 1.355 . S
C395 C397 1.415 . S
C396 C395 1.355 . S
C396 C398 1.419 . S
C397 C392 1.425 . S
C397 C394 1.409 . S
C397 C395 1.415 . S
C398 H388 0.930 . S
C398 C396 1.419 . S
C398 C399 1.362 . S
C399 H389 0.930 . S
C399 C392 1.409 . S
C399 C398 1.362 . S
H400 C406 0.930 1_455 S
H401 C409 0.930 . S
H402 C410 0.930 . S
H403 C411 0.930 . S
H404 C414 0.930 . S
H405 C415 0.930 . S
C406 H400 0.930 1_655 S
C406 C407 1.355 1_655 S
C406 C408 1.415 . S
C407 C406 1.355 1_455 S
C407 C409 1.419 1_455 S
C408 C406 1.415 . S
C408 C413 1.425 . S
C408 C415 1.409 . S
C409 H401 0.930 . S
C409 C407 1.419 1_655 S
C409 C410 1.362 . S
C410 H402 0.930 . S
C410 C409 1.362 . S
C410 C413 1.409 . S
C411 H403 0.930 . S
C411 C412 1.355 . S
C411 C413 1.415 . S
C412 C411 1.355 . S
C412 C414 1.419 . S
C413 C408 1.425 . S
C413 C410 1.409 . S
C413 C411 1.415 . S
C414 H404 0.930 . S
C414 C412 1.419 . S
C414 C415 1.362 . S
C415 H405 0.930 . S
C415 C408 1.409 . S
C415 C414 1.362 . S
H416 C422 0.930 . S
H417 C425 0.930 . S
H418 C426 0.930 . S
H419 C427 0.930 . S
H420 C430 0.930 . S
H421 C431 0.930 . S
C422 H416 0.930 . S
C422 C423 1.355 . S
C422 C424 1.415 . S
C423 C422 1.355 . S
C423 C425 1.419 . S
C424 C422 1.415 . S
C424 C429 1.425 . S
C424 C431 1.409 . S
C425 H417 0.930 . S
C425 C423 1.419 . S
C425 C426 1.362 . S
C426 H418 0.930 . S
C426 C425 1.362 . S
C426 C429 1.409 . S
C427 H419 0.930 . S
C427 C428 1.355 . S
C427 C429 1.415 . S
C428 C427 1.355 . S
C428 C430 1.419 . S
C429 C424 1.425 . S
C429 C426 1.409 . S
C429 C427 1.415 . S
C430 H420 0.930 . S
C430 C428 1.419 . S
C430 C431 1.362 . S
C431 H421 0.930 . S
C431 C424 1.409 . S
C431 C430 1.362 . S
H432 C438 0.930 . S
H433 C441 0.930 . S
H434 C442 0.930 . S
H435 C443 0.930 . S
H436 C446 0.930 . S
H437 C447 0.930 . S
C438 H432 0.930 . S
C438 C439 1.355 . S
C438 C440 1.415 . S
C439 C438 1.355 . S
C439 C441 1.419 . S
C440 C438 1.415 . S
C440 C445 1.425 1_655 S
C440 C447 1.409 . S
C441 H433 0.930 . S
C441 C439 1.419 . S
C441 C442 1.362 1_655 S
C442 H434 0.930 . S
C442 C441 1.362 1_455 S
C442 C445 1.409 . S
C443 H435 0.930 . S
C443 C444 1.355 . S
C443 C445 1.415 . S
C444 C443 1.355 . S
C444 C446 1.419 . S
C445 C440 1.425 1_455 S
C445 C442 1.409 . S
C445 C443 1.415 . S
C446 H436 0.930 . S
C446 C444 1.419 . S
C446 C447 1.362 1_455 S
C447 H437 0.930 . S
C447 C440 1.409 . S
C447 C446 1.362 1_655 S
H448 C454 0.930 . S
H449 C457 0.930 . S
H450 C458 0.930 . S
H451 C459 0.930 . S
H452 C462 0.930 . S
H453 C463 0.930 . S
C454 H448 0.930 . S
C454 C455 1.355 . S
C454 C456 1.415 . S
C455 C454 1.355 . S
C455 C457 1.419 . S
C456 C454 1.415 . S
C456 C461 1.425 . S
C456 C463 1.409 . S
C457 H449 0.930 . S
C457 C455 1.419 . S
C457 C458 1.362 . S
C458 H450 0.930 . S
C458 C457 1.362 . S
C458 C461 1.409 . S
C459 H451 0.930 . S
C459 C460 1.355 . S
C459 C461 1.415 . S
C460 C459 1.355 . S
C460 C462 1.419 . S
C461 C456 1.425 . S
C461 C458 1.409 . S
C461 C459 1.415 . S
C462 H452 0.930 . S
C462 C460 1.419 . S
C462 C463 1.362 . S
C463 H453 0.930 . S
C463 C456 1.409 . S
C463 C462 1.362 . S
H464 C470 0.930 . S
H465 C473 0.930 . S
H466 C474 0.930 . S
H467 C475 0.930 . S
H468 C478 0.930 . S
H469 C479 0.930 . S
C470 H464 0.930 . S
C470 C471 1.355 . S
C470 C472 1.415 . S
C471 C470 1.355 . S
C471 C473 1.419 . S
C472 C470 1.415 . S
C472 C477 1.425 . S
C472 C479 1.409 . S
C473 H465 0.930 . S
C473 C471 1.419 . S
C473 C474 1.362 . S
C474 H466 0.930 . S
C474 C473 1.362 . S
C474 C477 1.409 . S
C475 H467 0.930 . S
C475 C476 1.355 . S
C475 C477 1.415 . S
C476 C475 1.355 . S
C476 C478 1.419 . S
C477 C472 1.425 . S
C477 C474 1.409 . S
C477 C475 1.415 . S
C478 H468 0.930 . S
C478 C476 1.419 . S
C478 C479 1.362 . S
C479 H469 0.930 . S
C479 C472 1.409 . S
C479 C478 1.362 . S
H480 C486 0.930 . S
H481 C489 0.930 . S
H482 C490 0.930 . S
H483 C491 0.930 . S
H484 C494 0.930 . S
H485 C495 0.930 . S
C486 H480 0.930 . S
C486 C487 1.355 . S
C486 C488 1.415 . S
C487 C486 1.355 . S
C487 C489 1.419 . S
C488 C486 1.415 . S
C488 C493 1.425 . S
C488 C495 1.409 . S
C489 H481 0.930 . S
C489 C487 1.419 . S
C489 C490 1.362 . S
C490 H482 0.930 . S
C490 C489 1.362 . S
C490 C493 1.409 . S
C491 H483 0.930 . S
C491 C492 1.355 . S
C491 C493 1.415 . S
C492 C491 1.355 . S
C492 C494 1.419 . S
C493 C488 1.425 . S
C493 C490 1.409 . S
C493 C491 1.415 . S
C494 H484 0.930 . S
C494 C492 1.419 . S
C494 C495 1.362 . S
C495 H485 0.930 . S
C495 C488 1.409 . S
C495 C494 1.362 . S
H496 C502 0.930 . S
H497 C505 0.930 . S
H498 C506 0.930 . S
H499 C507 0.930 . S
H500 C510 0.930 . S
H501 C511 0.930 . S
C502 H496 0.930 . S
C502 C503 1.355 . S
C502 C504 1.415 . S
C503 C502 1.355 . S
C503 C505 1.419 . S
C504 C502 1.415 . S
C504 C509 1.425 . S
C504 C511 1.409 . S
C505 H497 0.930 . S
C505 C503 1.419 . S
C505 C506 1.362 . S
C506 H498 0.930 . S
C506 C505 1.362 . S
C506 C509 1.409 . S
C507 H499 0.930 . S
C507 C508 1.355 . S
C507 C509 1.415 . S
C508 C507 1.355 . S
C508 C510 1.419 . S
C509 C504 1.425 . S
C509 C506 1.409 . S
C509 C507 1.415 . S
C510 H500 0.930 . S
C510 C508 1.419 . S
C510 C511 1.362 . S
C511 H501 0.930 . S
C511 C504 1.409 . S
C511 C510 1.362 . S
H512 C518 0.930 . S
H513 C521 0.930 . S
H514 C522 0.930 . S
H515 C523 0.930 . S
H516 C526 0.930 . S
H517 C527 0.930 . S
C518 H512 0.930 . S
C518 C519 1.355 . S
C518 C520 1.415 . S
C519 C518 1.355 . S
C519 C521 1.419 . S
C520 C518 1.415 . S
C520 C525 1.425 . S
C520 C527 1.409 . S
C521 H513 0.930 . S
C521 C519 1.419 . S
C521 C522 1.362 . S
C522 H514 0.930 . S
C522 C521 1.362 . S
C522 C525 1.409 . S
C523 H515 0.930 . S
C523 C524 1.355 . S
C523 C525 1.415 . S
C524 C523 1.355 . S
C524 C526 1.419 . S
C525 C520 1.425 . S
C525 C522 1.409 . S
C525 C523 1.415 . S
C526 H516 0.930 . S
C526 C524 1.419 . S
C526 C527 1.362 . S
C527 H517 0.930 . S
C527 C520 1.409 . S
C527 C526 1.362 . S
H528 C534 0.930 . S
H529 C537 0.930 . S
H530 C538 0.930 . S
H531 C539 0.930 . S
H532 C542 0.930 . S
H533 C543 0.930 . S
C534 H528 0.930 . S
C534 C535 1.355 . S
C534 C536 1.415 . S
C535 C534 1.355 . S
C535 C537 1.419 . S
C536 C534 1.415 . S
C536 C541 1.425 . S
C536 C543 1.409 . S
C537 H529 0.930 . S
C537 C535 1.419 . S
C537 C538 1.362 . S
C538 H530 0.930 . S
C538 C537 1.362 . S
C538 C541 1.409 . S
C539 H531 0.930 . S
C539 C540 1.355 . S
C539 C541 1.415 . S
C540 C539 1.355 . S
C540 C542 1.419 . S
C541 C536 1.425 . S
C541 C538 1.409 . S
C541 C539 1.415 . S
C542 H532 0.930 . S
C542 C540 1.419 . S
C542 C543 1.362 . S
C543 H533 0.930 . S
C543 C536 1.409 . S
C543 C542 1.362 . S
H544 C550 0.930 . S
H545 C553 0.930 . S
H546 C554 0.930 . S
H547 C555 0.930 . S
H548 C558 0.930 . S
H549 C559 0.930 . S
C550 H544 0.930 . S
C550 C551 1.355 . S
C550 C552 1.415 . S
C551 C550 1.355 . S
C551 C553 1.419 . S
C552 C550 1.415 . S
C552 C557 1.425 . S
C552 C559 1.409 . S
C553 H545 0.930 . S
C553 C551 1.419 . S
C553 C554 1.362 . S
C554 H546 0.930 . S
C554 C553 1.362 . S
C554 C557 1.409 . S
C555 H547 0.930 . S
C555 C556 1.355 . S
C555 C557 1.415 . S
C556 C555 1.355 . S
C556 C558 1.419 . S
C557 C552 1.425 . S
C557 C554 1.409 . S
C557 C555 1.415 . S
C558 H548 0.930 . S
C558 C556 1.419 . S
C558 C559 1.362 . S
C559 H549 0.930 . S
C559 C552 1.409 . S
C559 C558 1.362 . S
H560 C566 0.930 . S
H561 C569 0.930 . S
H562 C570 0.930 . S
H563 C571 0.930 . S
H564 C574 0.930 . S
H565 C575 0.930 . S
C566 H560 0.930 . S
C566 C567 1.355 . S
C566 C568 1.415 . S
C567 C566 1.355 . S
C567 C569 1.419 . S
C568 C566 1.415 . S
C568 C573 1.425 . S
C568 C575 1.409 . S
C569 H561 0.930 . S
C569 C567 1.419 . S
C569 C570 1.362 . S
C570 H562 0.930 . S
C570 C569 1.362 . S
C570 C573 1.409 . S
C571 H563 0.930 . S
C571 C572 1.355 . S
C571 C573 1.415 . S
C572 C571 1.355 . S
C572 C574 1.419 . S
C573 C568 1.425 . S
C573 C570 1.409 . S
C573 C571 1.415 . S
C574 H564 0.930 . S
C574 C572 1.419 . S
C574 C575 1.362 . S
C575 H565 0.930 . S
C575 C568 1.409 . S
C575 C574 1.362 . S
C199 C8 1.367 . S
C204 N93 1.393 . S
C215 C31 1.280 . S
C220 N106 1.341 . S
C231 C53 1.306 . S
C236 N115 1.368 . S
C252 N132 1.393 . S
C247 C74 1.388 . S
C268 N145 1.393 . S
C263 C26 1.338 . S
C279 C48 1.330 . S
C284 N154 1.387 . S
C295 C71 1.305 . S
C300 N167 1.353 . S
C311 C5 1.283 . S
C316 N184 1.343 . S
C327 C50 1.343 . S
C332 N180 1.386 . S
C348 N141 1.335 . S
C343 C70 1.279 . S
C364 N158 1.358 . S
C359 C4 1.363 . S
C375 C28 1.383 . S
C380 N171 1.395 . S
C396 N102 1.383 . S
C391 C73 1.388 . S
C407 C7 1.337 . S
C412 N119 1.382 . S
C428 N128 1.366 . S
C423 C30 1.333 . S
C444 N89 1.340 . S
C439 C52 1.279 . S
C460 N168 1.384 . S
C455 C9 1.397 . S
C476 N181 1.395 . S
C471 C29 1.374 . S
C487 C51 1.371 . S
C492 N142 1.390 . S
C508 N155 1.404 . S
C503 C75 1.382 . S
C524 N116 1.386 . S
C519 C27 1.399 . S
C535 C49 1.391 . S
C540 N129 1.379 . S
C556 N90 1.396 . S
C551 C72 1.388 . S
C572 N103 1.375 . S
C567 C6 1.353 . S
