# Generated by pormake.
# Topology pyr, (3,6)-cn, num edge types: 1
# Building blocks:
#     Node 0, Type 0, BuildingBlock: BETDIP_clean_linker_0, # of connection points: 3
#     Node 1, Type 0, BuildingBlock: BETDIP_clean_linker_0, # of connection points: 3
#     Node 2, Type 0, BuildingBlock: BETDIP_clean_linker_0, # of connection points: 3
#     Node 3, Type 0, BuildingBlock: BETDIP_clean_linker_0, # of connection points: 3
#     Node 4, Type 0, BuildingBlock: BETDIP_clean_linker_0, # of connection points: 3
#     Node 5, Type 0, BuildingBlock: BETDIP_clean_linker_0, # of connection points: 3
#     Node 6, Type 0, BuildingBlock: BETDIP_clean_linker_0, # of connection points: 3
#     Node 7, Type 0, BuildingBlock: BETDIP_clean_linker_0, # of connection points: 3
#     Node 8, Type 1, BuildingBlock: LEVNOQ01_clean_sbu_1, # of connection points: 6
#     Node 9, Type 1, BuildingBlock: LEVNOQ01_clean_sbu_1, # of connection points: 6
#     Node 10, Type 1, BuildingBlock: LEVNOQ01_clean_sbu_1, # of connection points: 6
#     Node 11, Type 1, BuildingBlock: LEVNOQ01_clean_sbu_1, # of connection points: 6
#     Edge 12, Type (0, 1), BuildingBlock: XIVTED_clean_linker_0, # of connection points: 2
#     Edge 13, Type (0, 1), BuildingBlock: XIVTED_clean_linker_0, # of connection points: 2
#     Edge 14, Type (0, 1), BuildingBlock: XIVTED_clean_linker_0, # of connection points: 2
#     Edge 15, Type (0, 1), BuildingBlock: XIVTED_clean_linker_0, # of connection points: 2
#     Edge 16, Type (0, 1), BuildingBlock: XIVTED_clean_linker_0, # of connection points: 2
#     Edge 17, Type (0, 1), BuildingBlock: XIVTED_clean_linker_0, # of connection points: 2
#     Edge 18, Type (0, 1), BuildingBlock: XIVTED_clean_linker_0, # of connection points: 2
#     Edge 19, Type (0, 1), BuildingBlock: XIVTED_clean_linker_0, # of connection points: 2
#     Edge 20, Type (0, 1), BuildingBlock: XIVTED_clean_linker_0, # of connection points: 2
#     Edge 21, Type (0, 1), BuildingBlock: XIVTED_clean_linker_0, # of connection points: 2
#     Edge 22, Type (0, 1), BuildingBlock: XIVTED_clean_linker_0, # of connection points: 2
#     Edge 23, Type (0, 1), BuildingBlock: XIVTED_clean_linker_0, # of connection points: 2
#     Edge 24, Type (0, 1), BuildingBlock: XIVTED_clean_linker_0, # of connection points: 2
#     Edge 25, Type (0, 1), BuildingBlock: XIVTED_clean_linker_0, # of connection points: 2
#     Edge 26, Type (0, 1), BuildingBlock: XIVTED_clean_linker_0, # of connection points: 2
#     Edge 27, Type (0, 1), BuildingBlock: XIVTED_clean_linker_0, # of connection points: 2
#     Edge 28, Type (0, 1), BuildingBlock: XIVTED_clean_linker_0, # of connection points: 2
#     Edge 29, Type (0, 1), BuildingBlock: XIVTED_clean_linker_0, # of connection points: 2
#     Edge 30, Type (0, 1), BuildingBlock: XIVTED_clean_linker_0, # of connection points: 2
#     Edge 31, Type (0, 1), BuildingBlock: XIVTED_clean_linker_0, # of connection points: 2
#     Edge 32, Type (0, 1), BuildingBlock: XIVTED_clean_linker_0, # of connection points: 2
#     Edge 33, Type (0, 1), BuildingBlock: XIVTED_clean_linker_0, # of connection points: 2
#     Edge 34, Type (0, 1), BuildingBlock: XIVTED_clean_linker_0, # of connection points: 2
#     Edge 35, Type (0, 1), BuildingBlock: XIVTED_clean_linker_0, # of connection points: 2
# Relax obj value: 0.082
# Max RMSD: 0.172
# Mean RMSD: 0.136
data_MOF--net-pry--node1-LEVNOQ01_clean_sbu_1--node2-BETDIP_clean_linker_0--edge1-XIVTED_clean_linker_0
_symmetry_space_group_name_H-M    P1
_symmetry_Int_Tables_number       1
_symmetry_cell_setting            triclinic
loop_
_symmetry_equiv_pos_as_xyz
'x, y, z'
_cell_length_a     36.882338
_cell_length_b     35.046714
_cell_length_c     36.715985
_cell_angle_alpha  96.091824
_cell_angle_beta   86.946865
_cell_angle_gamma 100.37749
loop_
_atom_site_label
_atom_site_type_symbol
_atom_site_fract_x
_atom_site_fract_y
_atom_site_fract_z
_atom_type_partial_charge
H0 H 0.10669 0.16469 0.1927 0.0
H1 H 0.17683 0.15061 0.09716 0.0
H2 H 0.18615 0.08841 0.19031 0.0
H3 H 0.14995 0.19326 0.07423 0.0
C4 C 0.12961 0.20351 0.09341 0.0
C5 C 0.1283 0.15109 0.1785 0.0
C6 C 0.14431 0.12444 0.19563 0.0
C7 C 0.13988 0.16106 0.14328 0.0
C8 C 0.16825 0.14395 0.12466 0.0
C9 C 0.18558 0.11781 0.14147 0.0
C10 C 0.17325 0.10836 0.17701 0.0
N11 N 0.12222 0.18861 0.12822 0.0
H12 H 0.368 0.94696 0.66697 0.0
H13 H 0.36896 0.85092 0.5842 0.0
H14 H 0.44218 0.86683 0.67426 0.0
H15 H 0.32926 0.87841 0.55476 0.0
C16 C 0.31713 0.89708 0.57562 0.0
C17 C 0.37963 0.92174 0.65573 0.0
C18 C 0.40677 0.90946 0.67466 0.0
C19 C 0.36622 0.90131 0.62299 0.0
C20 C 0.38032 0.86794 0.60856 0.0
C21 C 0.40786 0.85519 0.62687 0.0
C22 C 0.42131 0.87658 0.65966 0.0
N23 N 0.33635 0.91375 0.60764 0.0
H24 H 0.65469 0.45638 0.89724 0.0
H25 H 0.57599 0.35058 0.87691 0.0
H26 H 0.66838 0.35327 0.94384 0.0
H27 H 0.54966 0.3814 0.84091 0.0
C28 C 0.57074 0.40511 0.8329 0.0
C29 C 0.64399 0.42654 0.90264 0.0
C30 C 0.66333 0.40763 0.92486 0.0
C31 C 0.61266 0.40615 0.88482 0.0
C32 C 0.60027 0.36667 0.89012 0.0
C33 C 0.62019 0.34702 0.9112 0.0
C34 C 0.65131 0.36814 0.92911 0.0
N35 N 0.59772 0.4245 0.85789 0.0
H36 H 0.84681 0.53656 0.40935 0.0
H37 H 0.94985 0.61506 0.42078 0.0
H38 H 0.85589 0.63649 0.48895 0.0
H39 H 0.96646 0.58819 0.36705 0.0
C40 C 0.94092 0.57343 0.35479 0.0
C41 C 0.86351 0.56166 0.4238 0.0
C42 C 0.84764 0.58396 0.45222 0.0
C43 C 0.89975 0.57361 0.41129 0.0
C44 C 0.92141 0.60649 0.42948 0.0
C45 C 0.906 0.62977 0.45759 0.0
C46 C 0.86908 0.61779 0.4691 0.0
N47 N 0.91127 0.55582 0.37709 0.0
H48 H 0.82859 0.88213 0.94064 0.0
H49 H 0.90898 0.87797 0.85118 0.0
H50 H 0.82447 0.94587 0.84737 0.0
H51 H 0.92767 0.83473 0.87612 0.0
C52 C 0.91477 0.82912 0.90261 0.0
C53 C 0.8399 0.89114 0.91444 0.0
C54 C 0.82293 0.91637 0.8962 0.0
C55 C 0.8706 0.8761 0.89839 0.0
C56 C 0.88481 0.88761 0.8639 0.0
C57 C 0.8681 0.91234 0.84508 0.0
C58 C 0.83751 0.9268 0.86171 0.0
N59 N 0.88563 0.84882 0.91702 0.0
H60 H 0.63965 0.08289 0.36687 0.0
H61 H 0.63664 0.17275 0.45615 0.0
H62 H 0.57696 0.17357 0.35896 0.0
H63 H 0.69231 0.15859 0.46755 0.0
C64 C 0.69268 0.12849 0.45716 0.0
C65 C 0.62906 0.1084 0.3791 0.0
C66 C 0.6066 0.12598 0.35885 0.0
C67 C 0.64071 0.12542 0.41383 0.0
C68 C 0.62795 0.15929 0.42941 0.0
C69 C 0.60484 0.17675 0.40966 0.0
C70 C 0.59424 0.15979 0.37457 0.0
N71 N 0.66688 0.1087 0.431 0.0
H72 H 0.34774 0.59373 0.15493 0.0
H73 H 0.42197 0.69936 0.18639 0.0
H74 H 0.33659 0.70001 0.11109 0.0
H75 H 0.40941 0.67394 0.24175 0.0
C76 C 0.40807 0.6427 0.23572 0.0
C77 C 0.35738 0.62441 0.15207 0.0
C78 C 0.33831 0.64448 0.13053 0.0
C79 C 0.38656 0.64428 0.17305 0.0
C80 C 0.39921 0.68404 0.17015 0.0
C81 C 0.38164 0.70441 0.14752 0.0
C82 C 0.35115 0.68433 0.12767 0.0
N83 N 0.39948 0.62459 0.20007 0.0
H84 H 0.03921 0.38726 0.62082 0.0
H85 H 0.14472 0.45844 0.64121 0.0
H86 H 0.136 0.36233 0.55792 0.0
H87 H 0.10801 0.50006 0.67736 0.0
C88 C 0.0941 0.47393 0.68917 0.0
C89 C 0.0684 0.39406 0.61385 0.0
C90 C 0.08443 0.37119 0.58575 0.0
C91 C 0.09003 0.42492 0.63438 0.0
C92 C 0.12786 0.43435 0.62571 0.0
C93 C 0.14457 0.41211 0.59796 0.0
C94 C 0.12269 0.3807 0.57798 0.0
N95 N 0.074 0.44324 0.66602 0.0
O96 O 0.99544 0.02729 0.61652 0.0
Mg97 Mg 0.03851 0.05448 0.58408 0.0
O98 O 0.97313 0.98375 0.57106 0.0
Mg99 Mg 0.00152 0.00505 0.51464 0.0
O100 O 0.01818 0.06899 0.53811 0.0
O101 O 0.04422 0.11311 0.58186 0.0
O102 O 0.03029 0.02819 0.45926 0.0
O103 O 0.94425 0.02336 0.50331 0.0
Mg104 Mg 0.96717 0.95988 0.44633 0.0
O105 O 0.98549 0.93999 0.49109 0.0
O106 O 0.00722 0.98883 0.4118 0.0
O107 O 0.9194 0.98335 0.45712 0.0
O108 O 0.96105 0.90126 0.4425 0.0
C109 C 0.08435 -0.00232 0.54873 0.0
C110 C 0.97333 -0.00303 0.60505 0.0
C111 C 0.02753 0.10506 0.55126 0.0
C112 C 0.0296 0.01816 0.42469 0.0
C113 C 0.91753 0.01108 0.48177 0.0
C114 C 0.97515 0.90535 0.47441 0.0
O115 O 0.08354 0.026 0.57305 0.0
O116 O 0.05809 0.98655 0.52651 0.0
O117 O 0.44275 0.09147 0.05399 0.0
Mg118 Mg 0.49994 0.11065 0.05202 0.0
O119 O 0.44296 0.0287 0.0359 0.0
Mg120 Mg 0.50439 0.02129 0.01668 0.0
O121 O 0.51922 0.08396 0.00553 0.0
O122 O 0.52406 0.14809 0.01418 0.0
O123 O 0.56539 0.01321 0.99676 0.0
O124 O 0.48411 0.01041 0.95555 0.0
Mg125 Mg 0.50532 0.9335 0.97823 0.0
O126 O 0.48851 0.95815 0.02724 0.0
O127 O 0.56285 0.95144 0.97319 0.0
O128 O 0.47467 0.94717 0.9364 0.0
O129 O 0.48233 0.89405 0.01459 0.0
C130 C 0.53582 0.06426 0.10022 0.0
C131 C 0.42588 0.05675 0.04741 0.0
C132 C 0.52996 0.1175 0.99362 0.0
C133 C 0.58103 0.98518 0.98203 0.0
C134 C 0.47292 0.98203 0.93158 0.0
C135 C 0.4781 0.92366 0.03738 0.0
O136 O 0.5304 0.0977 0.0941 0.0
O137 O 0.52604 0.03395 0.07771 0.0
O138 O 0.51973 0.59513 0.57673 0.0
Mg139 Mg 0.49221 0.53889 0.58424 0.0
O140 O 0.48123 0.57455 0.53373 0.0
Mg141 Mg 0.49595 0.50931 0.52129 0.0
O142 O 0.52214 0.4959 0.57609 0.0
O143 O 0.51192 0.52841 0.63095 0.0
O144 O 0.50761 0.44553 0.50516 0.0
O145 O 0.55868 0.53856 0.51073 0.0
Mg146 Mg 0.52229 0.51172 0.45847 0.0
O147 O 0.4676 0.51492 0.4654 0.0
O148 O 0.54657 0.4624 0.46052 0.0
O149 O 0.55904 0.56446 0.4593 0.0
O150 O 0.49604 0.50013 0.41133 0.0
C151 C 0.41775 0.49585 0.56451 0.0
C152 C 0.49812 0.60292 0.55453 0.0
C153 C 0.52723 0.50277 0.61112 0.0
C154 C 0.53213 0.43717 0.48143 0.0
C155 C 0.57561 0.56064 0.48748 0.0
C156 C 0.4672 0.50787 0.42986 0.0
O157 O 0.43346 0.5229 0.58708 0.0
O158 O 0.43642 0.48226 0.53765 0.0
O159 O 0.97963 0.431 0.06317 0.0
Mg160 Mg 0.0036 0.49015 0.07268 0.0
O161 O 0.02135 0.44943 0.02198 0.0
Mg162 Mg 0.00642 0.51342 0.0148 0.0
O163 O 0.97497 0.53424 0.0711 0.0
O164 O 0.98148 0.50504 0.12151 0.0
O165 O 0.9957 0.57678 0.00335 0.0
O166 O 0.94642 0.48248 0.99937 0.0
Mg167 Mg 0.99419 0.51678 0.94172 0.0
O168 O 0.03852 0.49682 0.95922 0.0
O169 O 0.99616 0.57643 0.94339 0.0
O170 O 0.94337 0.48033 0.93965 0.0
O171 O 0.02586 0.49973 0.90019 0.0
C172 C 0.07986 0.53135 0.05935 0.0
C173 C 0.0042 0.42237 0.04038 0.0
C174 C 0.96814 0.53023 0.10576 0.0
C175 C 0.99444 0.59448 0.97481 0.0
C176 C 0.92862 0.47193 0.97016 0.0
C177 C 0.04659 0.49136 0.92428 0.0
O178 O 0.06168 0.50575 0.07829 0.0
O179 O 0.06416 0.54327 0.03382 0.0
H180 H 0.18316 0.10988 0.25381 0.0
H181 H -0.00012 0.05785 0.37921 0.0
H182 H 0.07264 0.11224 0.22193 0.0
H183 H 0.10451 0.03359 0.40804 0.0
H184 H 0.02951 0.08813 0.32598 0.0
H185 H 0.15793 0.08968 0.31343 0.0
C186 C 0.15365 0.10615 0.2592 0.0
C187 C 0.13007 0.11293 0.23255 0.0
C188 C 0.0463 0.07673 0.34405 0.0
C189 C 0.10118 0.09052 0.3011 0.0
C190 C 0.02941 0.05978 0.37465 0.0
C191 C 0.04988 0.04357 0.39807 0.0
C192 C 0.08405 0.07707 0.33627 0.0
C193 C 0.08794 0.04626 0.39076 0.0
C194 C 0.13934 0.09488 0.29338 0.0
C195 C 0.09213 0.10816 0.24156 0.0
N196 N 0.10385 0.06237 0.36019 0.0
N197 N 0.07901 0.09729 0.27486 0.0
H198 H 0.47631 0.93207 0.70192 0.0
H199 H 0.40336 0.97133 0.90685 0.0
H200 H 0.36139 0.93111 0.7314 0.0
H201 H 0.51756 0.00349 0.87368 0.0
H202 H 0.38698 0.96163 0.8423 0.0
H203 H 0.49229 0.96118 0.76404 0.0
C204 C 0.45449 0.93817 0.7214 0.0
C205 C 0.41748 0.9291 0.71146 0.0
C206 C 0.41554 0.97181 0.84905 0.0
C207 C 0.43546 0.96231 0.78256 0.0
C208 C 0.42477 0.97775 0.88589 0.0
C209 C 0.4617 0.98881 0.89536 0.0
C210 C 0.44366 0.97575 0.82155 0.0
C211 C 0.48867 -0.00439 0.8673 0.0
C212 C 0.46361 0.95506 0.75675 0.0
C213 C 0.39031 0.93793 0.73773 0.0
N214 N 0.47922 0.9883 0.83158 0.0
N215 N 0.3998 0.95361 0.7721 0.0
H216 H 0.53372 0.36308 0.77591 0.0
H217 H 0.58735 0.5328 0.64992 0.0
H218 H 0.61539 0.46568 0.80228 0.0
H219 H 0.5161 0.42471 0.61635 0.0
H220 H 0.60973 0.50195 0.69865 0.0
H221 H 0.53637 0.37866 0.71232 0.0
C222 C 0.55226 0.38883 0.76819 0.0
C223 C 0.57367 0.41364 0.79437 0.0
C224 C 0.59001 0.48447 0.68008 0.0
C225 C 0.57704 0.4316 0.72197 0.0
C226 C 0.57752 0.50203 0.65212 0.0
C227 C 0.54974 0.48114 0.62968 0.0
C228 C 0.57355 0.44622 0.68622 0.0
C229 C 0.53756 0.44158 0.63339 0.0
C230 C 0.55406 0.39751 0.73189 0.0
C231 C 0.59792 0.44613 0.78302 0.0
N232 N 0.54883 0.42554 0.66197 0.0
N233 N 0.59852 0.4545 0.74774 0.0
H234 H 0.8814 0.5408 0.3128 0.0
H235 H 0.99216 0.60469 0.13278 0.0
H236 H 0.98741 0.61636 0.30892 0.0
H237 H 0.89946 0.51074 0.13511 0.0
H238 H 0.97558 0.62827 0.19544 0.0
H239 H 0.87523 0.54615 0.24759 0.0
C240 C 0.90328 0.55873 0.29828 0.0
C241 C 0.93545 0.57744 0.31593 0.0
C242 C 0.95792 0.60341 0.18177 0.0
C243 C 0.92826 0.58415 0.24164 0.0
C244 C 0.96697 0.59045 0.14573 0.0
C245 C 0.94737 0.55552 0.12927 0.0
C246 C 0.92935 0.58087 0.20109 0.0
C247 C 0.91532 0.53771 0.14724 0.0
C248 C 0.89959 0.56203 0.26115 0.0
C249 C 0.96257 0.60082 0.29602 0.0
N250 N 0.90787 0.54987 0.18272 0.0
N251 N 0.95858 0.60317 0.25981 0.0
H252 H 0.20511 0.04531 0.14498 0.0
H253 H 0.3815 0.09031 0.01039 0.0
H254 H 0.23914 0.15255 0.09435 0.0
H255 H 0.37921 0.01362 0.09503 0.0
H256 H 0.31866 0.09894 0.02865 0.0
H257 H 0.25981 0.0218 0.11689 0.0
C258 C 0.22385 0.06402 0.12806 0.0
C259 C 0.21723 0.10135 0.12246 0.0
C260 C 0.3315 0.07954 0.04279 0.0
C261 C 0.2792 0.07362 0.08913 0.0
C262 C 0.36716 0.07424 0.03209 0.0
C263 C 0.38534 0.05108 0.05112 0.0
C264 C 0.31384 0.06187 0.07306 0.0
C265 C 0.36584 0.03133 0.07942 0.0
C266 C 0.25491 0.05029 0.1118 0.0
C267 C 0.24227 0.12344 0.09924 0.0
N268 N 0.33114 0.03758 0.08995 0.0
N269 N 0.27194 0.10926 0.08355 0.0
H270 H 0.27365 0.9307 0.62694 0.0
H271 H 0.12028 0.95931 0.49132 0.0
H272 H 0.27736 0.88629 0.51283 0.0
H273 H 0.11774 0.98614 0.60876 0.0
H274 H 0.17579 0.92987 0.49627 0.0
H275 H 0.21508 0.94949 0.61873 0.0
C276 C 0.26215 0.92494 0.59997 0.0
C277 C 0.28067 0.90729 0.57037 0.0
C278 C 0.16271 0.94194 0.52085 0.0
C279 C 0.21272 0.92888 0.56062 0.0
C280 C 0.13112 0.95859 0.51803 0.0
C281 C 0.11495 0.97585 0.54962 0.0
C282 C 0.17761 0.94247 0.55548 0.0
C283 C 0.12981 0.97404 0.58359 0.0
C284 C 0.22838 0.93556 0.59528 0.0
C285 C 0.26392 0.90008 0.53625 0.0
N286 N 0.1602 0.95795 0.58552 0.0
N287 N 0.23088 0.91123 0.53213 0.0
H288 H 0.68838 0.42559 0.99467 0.0
H289 H 0.89216 0.42053 0.91889 0.0
H290 H 0.72283 0.42595 0.88068 0.0
H291 H 0.87567 0.48623 0.02277 0.0
H292 H 0.8257 0.40698 0.91139 0.0
H293 H 0.75381 0.4388 0.01126 0.0
C294 C 0.7098 0.42951 0.97335 0.0
C295 C 0.70065 0.42526 0.93636 0.0
C296 C 0.83658 0.42405 0.93602 0.0
C297 C 0.77429 0.43788 0.95473 0.0
C298 C 0.87438 0.43138 0.9405 0.0
C299 C 0.88924 0.4549 0.97122 0.0
C300 C 0.81348 0.44047 0.96237 0.0
C301 C 0.86507 0.46795 0.99867 0.0
C302 C 0.74684 0.4366 0.98274 0.0
C303 C 0.72897 0.42972 0.9095 0.0
N304 N 0.82809 0.461 0.99339 0.0
N305 N 0.76456 0.43516 0.91919 0.0
H306 H 0.79378 0.56673 0.40214 0.0
H307 H 0.62191 0.55469 0.54202 0.0
H308 H 0.80966 0.58534 0.51876 0.0
H309 H 0.62172 0.59036 0.43296 0.0
H310 H 0.68908 0.55883 0.53538 0.0
H311 H 0.72778 0.56361 0.41366 0.0
C312 C 0.78331 0.56944 0.43025 0.0
C313 C 0.80725 0.57639 0.45958 0.0
C314 C 0.67421 0.56621 0.51322 0.0
C315 C 0.73176 0.57393 0.47284 0.0
C316 C 0.63601 0.56414 0.51703 0.0
C317 C 0.61612 0.57187 0.48787 0.0
C318 C 0.69226 0.57541 0.47985 0.0
C319 C 0.63579 0.58395 0.45612 0.0
C320 C 0.74568 0.56826 0.43676 0.0
C321 C 0.79209 0.58029 0.49542 0.0
N322 N 0.67266 0.58472 0.45275 0.0
N323 N 0.75516 0.57907 0.50112 0.0
H324 H 0.13724 0.23829 0.02956 0.0
H325 H 0.98107 0.36718 0.08766 0.0
H326 H 0.07667 0.23788 0.13334 0.0
H327 H 0.06061 0.39403 0.99939 0.0
H328 H 0.01034 0.31281 0.09863 0.0
H329 H 0.10476 0.28905 0.01278 0.0
C330 C 0.11711 0.24885 0.04877 0.0
C331 C 0.10972 0.23383 0.0829 0.0
C332 C 0.02126 0.33028 0.0766 0.0
C333 C 0.07238 0.2916 0.06384 0.0
C334 C 0.00433 0.36129 0.07005 0.0
C335 C 0.01837 0.38549 0.04252 0.0
C336 C 0.05239 0.3228 0.05531 0.0
C337 C 0.04881 0.37623 0.02089 0.0
C338 C 0.09865 0.2778 0.03919 0.0
C339 C 0.08331 0.24846 0.10672 0.0
N340 N 0.06489 0.34568 0.02781 0.0
N341 N 0.06565 0.27641 0.09672 0.0
H342 H 0.59022 0.29157 0.85642 0.0
H343 H 0.60274 0.12303 0.97887 0.0
H344 H 0.62937 0.3034 0.96683 0.0
H345 H 0.50033 0.12858 0.93053 0.0
H346 H 0.63382 0.17486 0.94282 0.0
H347 H 0.57509 0.22089 0.85886 0.0
C348 C 0.59575 0.27964 0.88114 0.0
C349 C 0.61088 0.30396 0.91171 0.0
C350 C 0.60494 0.16314 0.93854 0.0
C351 C 0.59636 0.22312 0.91298 0.0
C352 C 0.58732 0.13319 0.95865 0.0
C353 C 0.54893 0.12274 0.95826 0.0
C354 C 0.58372 0.18192 0.91804 0.0
C355 C 0.53003 0.13673 0.93186 0.0
C356 C 0.58782 0.23926 0.88199 0.0
C357 C 0.61845 0.28625 0.94232 0.0
N358 N 0.54738 0.16696 0.91361 0.0
N359 N 0.61115 0.24697 0.9421 0.0
H360 H 0.90159 0.6719 0.52563 0.0
H361 H 0.02607 0.86088 0.45337 0.0
H362 H 0.95625 0.67932 0.41872 0.0
H363 H 0.93209 0.86793 0.52691 0.0
H364 H 0.01813 0.79096 0.45909 0.0
H365 H 0.92794 0.74069 0.54172 0.0
C366 C 0.91943 0.68751 0.5057 0.0
C367 C 0.92632 0.66932 0.47056 0.0
C368 C 4e-05 0.80802 0.47504 0.0
C369 C 0.9576 0.74742 0.48958 0.0
C370 C 0.00486 0.84791 0.47215 0.0
C371 C 0.97986 0.86989 0.48993 0.0
C372 C 0.96966 0.79007 0.49544 0.0
C373 C 0.95216 0.85178 0.51319 0.0
C374 C 0.93466 0.72664 0.51513 0.0
C375 C 0.95045 0.69115 0.44638 0.0
N376 N 0.94727 0.81253 0.51477 0.0
N377 N 0.96498 0.72891 0.45632 0.0
H378 H 0.42264 0.82608 0.55565 0.0
H379 H 0.49393 0.64349 0.62047 0.0
H380 H 0.42069 0.79851 0.66765 0.0
H381 H 0.4703 0.64684 0.5071 0.0
H382 H 0.47094 0.70356 0.6362 0.0
H383 H 0.44301 0.76387 0.53539 0.0
C384 C 0.4264 0.807 0.57596 0.0
C385 C 0.42042 0.8179 0.61353 0.0
C386 C 0.47081 0.69155 0.60777 0.0
C387 C 0.4438 0.74705 0.59051 0.0
C388 C 0.4843 0.65722 0.59864 0.0
C389 C 0.48461 0.64034 0.56224 0.0
C390 C 0.45774 0.70997 0.58038 0.0
C391 C 0.47074 0.65908 0.53544 0.0
C392 C 0.43803 0.77158 0.56434 0.0
C393 C 0.42585 0.79206 0.63855 0.0
N394 N 0.4581 0.69328 0.545 0.0
N395 N 0.4373 0.75811 0.6266 0.0
H396 H 0.89419 0.86494 0.78851 0.0
H397 H 0.92519 0.03025 0.64963 0.0
H398 H 0.87303 0.98208 0.81536 0.0
H399 H 0.96664 0.92271 0.62567 0.0
H400 H 0.89654 0.00741 0.70659 0.0
H401 H 0.91451 0.88135 0.72659 0.0
C402 C 0.89398 0.89417 0.78159 0.0
C403 C 0.88172 0.92212 0.80747 0.0
C404 C 0.91135 0.98838 0.68874 0.0
C405 C 0.90407 0.94067 0.73608 0.0
C406 C 0.92728 0.00124 0.65597 0.0
C407 C 0.94787 0.97813 0.63281 0.0
C408 C 0.91648 0.95227 0.69892 0.0
C409 C 0.95038 0.94107 0.64256 0.0
C410 C 0.90527 0.90335 0.74605 0.0
C411 C 0.88154 0.95926 0.79642 0.0
N412 N 0.93523 0.9294 0.67519 0.0
N413 N 0.89244 0.96734 0.7617 0.0
H414 H 0.61872 0.1693 0.30115 0.0
H415 H 0.51733 0.01183 0.15237 0.0
H416 H 0.57939 0.0517 0.3277 0.0
H417 H 0.59449 0.1142 0.12709 0.0
H418 H 0.53842 0.02255 0.21603 0.0
H419 H 0.60698 0.14822 0.23696 0.0
C420 C 0.60747 0.13895 0.29337 0.0
C421 C 0.5997 0.11227 0.31976 0.0
C422 C 0.55125 0.04204 0.19621 0.0
C423 C 0.58627 0.08763 0.24591 0.0
C424 C 0.53947 0.03572 0.15991 0.0
C425 C 0.55403 0.0624 0.13469 0.0
C426 C 0.57741 0.07532 0.20693 0.0
C427 C 0.58229 0.0932 0.14585 0.0
C428 C 0.60106 0.12679 0.25663 0.0
C429 C 0.58567 0.07313 0.30807 0.0
N430 N 0.59263 0.0991 0.18113 0.0
N431 N 0.57895 0.06197 0.27194 0.0
H432 H 0.40725 0.66798 0.3079 0.0
H433 H 0.43912 0.46809 0.36736 0.0
H434 H 0.4042 0.56349 0.2337 0.0
H435 H 0.42985 0.56828 0.44384 0.0
H436 H 0.41172 0.49742 0.32074 0.0
H437 H 0.40458 0.62895 0.35965 0.0
C438 C 0.40594 0.63676 0.30261 0.0
C439 C 0.40642 0.61895 0.26667 0.0
C440 C 0.4146 0.5126 0.34798 0.0
C441 C 0.40308 0.57406 0.32546 0.0
C442 C 0.42985 0.49563 0.37469 0.0
C443 C 0.43729 0.51628 0.40906 0.0
C444 C 0.40762 0.55076 0.35567 0.0
C445 C 0.42475 0.55167 0.41746 0.0
C446 C 0.40403 0.61444 0.33208 0.0
C447 C 0.40422 0.57842 0.26107 0.0
N448 N 0.4115 0.56846 0.39049 0.0
N449 N 0.40305 0.55737 0.29021 0.0
H450 H 0.07341 0.40813 0.72539 0.0
H451 H 0.11496 0.53187 0.9118 0.0
H452 H 0.13375 0.52589 0.73848 0.0
H453 H 0.05042 0.4165 0.90023 0.0
H454 H 0.14432 0.519 0.8518 0.0
H455 H 0.08328 0.40162 0.78951 0.0
C456 C 0.08893 0.43258 0.74173 0.0
C457 C 0.10186 0.46808 0.72704 0.0
C458 C 0.12485 0.49577 0.86289 0.0
C459 C 0.11348 0.46073 0.80037 0.0
C460 C 0.10873 0.50283 0.89765 0.0
C461 C 0.07921 0.47573 0.91002 0.0
C462 C 0.11094 0.46147 0.84089 0.0
C463 C 0.07243 0.43854 0.89091 0.0
C464 C 0.0949 0.42871 0.77827 0.0
C465 C 0.1226 0.49837 0.74913 0.0
N466 N 0.08685 0.43298 0.85637 0.0
N467 N 0.12722 0.49427 0.78488 0.0
H468 H 0.80591 0.94278 0.96792 0.0
H469 H 0.61167 0.98996 0.91427 0.0
H470 H 0.76186 0.92238 0.85962 0.0
H471 H 0.63922 0.98875 0.02655 0.0
H472 H 0.67312 0.97779 0.89445 0.0
H473 H 0.75014 0.96851 0.9908 0.0
C474 C 0.7846 0.94359 0.94898 0.0
C475 C 0.78892 0.9307 0.91164 0.0
C476 C 0.66621 0.98097 0.92352 0.0
C477 C 0.72551 0.96074 0.93749 0.0
C478 C 0.6313 0.98855 0.93482 0.0
C479 C 0.62072 0.99102 0.97205 0.0
C480 C 0.69071 0.97513 0.94962 0.0
C481 C 0.64673 0.98776 0.9976 0.0
C482 C 0.75294 0.95857 0.96201 0.0
C483 C 0.7604 0.93275 0.8884 0.0
N484 N 0.68051 0.97954 0.98591 0.0
N485 N 0.7302 0.94749 0.90165 0.0
H486 H 0.70482 0.05488 0.43425 0.0
H487 H 0.90403 0.08004 0.5207 0.0
H488 H 0.75221 0.16052 0.49877 0.0
H489 H 0.8538 0.98259 0.44728 0.0
H490 H 0.84797 0.10904 0.51862 0.0
H491 H 0.75835 0.02679 0.44441 0.0
C492 C 0.72646 0.07219 0.45079 0.0
C493 C 0.72412 0.11024 0.46553 0.0
C494 C 0.84941 0.08123 0.50318 0.0
C495 C 0.78618 0.07805 0.4773 0.0
C496 C 0.88127 0.06464 0.50446 0.0
C497 C 0.8838 0.02889 0.484 0.0
C498 C 0.82007 0.06171 0.48147 0.0
C499 C 0.85348 0.01027 0.46336 0.0
C500 C 0.75722 0.05609 0.45659 0.0
C501 C 0.7531 0.13107 0.48687 0.0
N502 N 0.82321 0.02689 0.4626 0.0
N503 N 0.78313 0.11479 0.49201 0.0
H504 H 0.30895 0.64987 0.06385 0.0
H505 H 0.11586 0.52105 0.11912 0.0
H506 H 0.28432 0.5965 0.16511 0.0
H507 H 0.1322 0.57773 0.01919 0.0
H508 H 0.1794 0.54653 0.1338 0.0
H509 H 0.24624 0.6216 0.04423 0.0
C510 C 0.29052 0.63204 0.08179 0.0
C511 C 0.30204 0.62529 0.11605 0.0
C512 C 0.16933 0.55343 0.10855 0.0
C513 C 0.23065 0.59316 0.09395 0.0
C514 C 0.13291 0.53879 0.10011 0.0
C515 C 0.11867 0.54723 0.06784 0.0
C516 C 0.19203 0.57672 0.08458 0.0
C517 C 0.1421 0.57066 0.04444 0.0
C518 C 0.25483 0.61593 0.07058 0.0
C519 C 0.27712 0.60186 0.13814 0.0
N520 N 0.17778 0.58464 0.05326 0.0
N521 N 0.24274 0.58683 0.12675 0.0
H522 H 0.1847 0.41147 0.53254 0.0
H523 H 0.37432 0.50558 0.62599 0.0
H524 H 0.19728 0.43139 0.64964 0.0
H525 H 0.37051 0.45182 0.51456 0.0
H526 H 0.30828 0.48237 0.63376 0.0
H527 H 0.25187 0.42895 0.52386 0.0
C528 C 0.20155 0.41923 0.55639 0.0
C529 C 0.18526 0.42052 0.59184 0.0
C530 C 0.32187 0.47545 0.60764 0.0
C531 C 0.26179 0.44093 0.5821 0.0
C532 C 0.35958 0.48883 0.60313 0.0
C533 C 0.37794 0.48068 0.56955 0.0
C534 C 0.30214 0.45415 0.57821 0.0
C535 C 0.35742 0.45866 0.54095 0.0
C536 C 0.23981 0.4293 0.55141 0.0
C537 C 0.20844 0.43099 0.62176 0.0
N538 N 0.32049 0.44638 0.54583 0.0
N539 N 0.24541 0.44106 0.61619 0.0
H540 H 0.88792 0.79477 0.96632 0.0
H541 H 0.03496 0.65034 0.93757 0.0
H542 H 0.97341 0.79579 0.88143 0.0
H543 H 0.94222 0.63112 0.01388 0.0
H544 H 0.01873 0.71234 0.92676 0.0
H545 H 0.91176 0.74234 0.99243 0.0
C546 C 0.91181 0.78426 0.95341 0.0
C547 C 0.92865 0.79947 0.92152 0.0
C548 C 0.00208 0.69507 0.94636 0.0
C549 C 0.95602 0.74009 0.95119 0.0
C550 C 0.01163 0.6598 0.95279 0.0
C551 C 0.98997 0.63571 0.9767 0.0
C552 C 0.97002 0.70626 0.9633 0.0
C553 C 0.95981 0.64915 0.99549 0.0
C554 C 0.92537 0.75439 0.96828 0.0
C555 C 0.95949 0.78484 0.90593 0.0
N556 N 0.95027 0.68334 0.98793 0.0
N557 N 0.972 0.75608 0.92077 0.0
H558 H 0.33931 0.76122 0.14608 0.0
H559 H 0.51537 0.9135 0.09562 0.0
H560 H 0.45257 0.74476 0.14642 0.0
H561 H 0.40623 0.91335 0.05952 0.0
H562 H 0.48913 0.86806 0.14018 0.0
H563 H 0.361 0.82992 0.13732 0.0
C564 C 0.36871 0.77202 0.14448 0.0
C565 C 0.39417 0.74689 0.14595 0.0
C566 C 0.47072 0.87921 0.12361 0.0
C567 C 0.41898 0.82561 0.13721 0.0
C568 C 0.48565 0.90557 0.09863 0.0
C569 C 0.46278 0.91655 0.07391 0.0
C570 C 0.43288 0.86364 0.12315 0.0
C571 C 0.42459 0.90522 0.07825 0.0
C572 C 0.381 0.81133 0.14005 0.0
C573 C 0.4319 0.7629 0.14521 0.0
N574 N 0.41077 0.87837 0.10175 0.0
N575 N 0.44315 0.80112 0.14039 0.0
H576 H 0.09168 0.33748 0.51479 0.0
H577 H 0.96883 0.13996 0.56794 0.0
H578 H 0.02689 0.32097 0.61534 0.0
H579 H 0.06766 0.14581 0.49942 0.0
H580 H 0.97042 0.20953 0.5642 0.0
H581 H 0.06459 0.27116 0.4909 0.0
C582 C 0.07143 0.32035 0.53169 0.0
C583 C 0.06251 0.33477 0.56767 0.0
C584 C 0.99085 0.19527 0.54864 0.0
C585 C 0.03049 0.25949 0.53976 0.0
C586 C 0.98966 0.15552 0.55036 0.0
C587 C 0.01819 0.13751 0.53398 0.0
C588 C 0.02098 0.21688 0.53065 0.0
C589 C 0.0451 0.15888 0.51223 0.0
C590 C 0.05573 0.28267 0.5178 0.0
C591 C 0.03492 0.31155 0.58756 0.0
N592 N 0.04639 0.19785 0.51184 0.0
N593 N 0.02034 0.27495 0.57353 0.0
H594 H 0.6135 0.24102 0.37318 0.0
H595 H 0.50756 0.37123 0.51827 0.0
H596 H 0.57398 0.19945 0.477 0.0
H597 H 0.5831 0.41471 0.43201 0.0
H598 H 0.52607 0.30673 0.5039 0.0
H599 H 0.59595 0.30351 0.39363 0.0
C600 C 0.60097 0.24512 0.40036 0.0
C601 C 0.59494 0.215 0.42333 0.0
C602 C 0.53858 0.33068 0.48846 0.0
C603 C 0.57487 0.28696 0.44729 0.0
C604 C 0.52802 0.36736 0.49656 0.0
C605 C 0.54344 0.39839 0.47608 0.0
C606 C 0.56434 0.3253 0.45953 0.0
C607 C 0.57003 0.39181 0.44842 0.0
C608 C 0.59114 0.28092 0.41218 0.0
C609 C 0.5791 0.2221 0.45854 0.0
N610 N 0.57931 0.35615 0.44089 0.0
N611 N 0.56929 0.25741 0.46947 0.0
loop_
_geom_bond_atom_site_label_1
_geom_bond_atom_site_label_2
_geom_bond_distance
_geom_bond_site_symmetry_2
_ccdc_geom_bond_type
H0 C5 0.930 . S
H1 C8 0.930 . S
H2 C10 0.930 . S
H3 C4 1.016 . S
C4 H3 1.016 . S
C4 N11 1.286 . S
C5 H0 0.930 . S
C5 C6 1.397 . S
C5 C7 1.361 . S
C6 C5 1.397 . S
C6 C10 1.390 . S
C7 C5 1.361 . S
C7 C8 1.393 . S
C7 N11 1.413 . S
C8 H1 0.930 . S
C8 C7 1.393 . S
C8 C9 1.399 . S
C9 C8 1.399 . S
C9 C10 1.381 . S
C10 H2 0.930 . S
C10 C6 1.390 . S
C10 C9 1.381 . S
N11 C4 1.286 . S
N11 C7 1.413 . S
H12 C17 0.930 . S
H13 C20 0.930 . S
H14 C22 0.930 . S
H15 C16 1.016 . S
C16 H15 1.016 . S
C16 N23 1.286 . S
C17 H12 0.930 . S
C17 C18 1.397 . S
C17 C19 1.361 . S
C18 C17 1.397 . S
C18 C22 1.390 . S
C19 C17 1.361 . S
C19 C20 1.393 . S
C19 N23 1.413 . S
C20 H13 0.930 . S
C20 C19 1.393 . S
C20 C21 1.399 . S
C21 C20 1.399 . S
C21 C22 1.381 . S
C22 H14 0.930 . S
C22 C18 1.390 . S
C22 C21 1.381 . S
N23 C16 1.286 . S
N23 C19 1.413 . S
H24 C29 0.930 . S
H25 C32 0.930 . S
H26 C34 0.930 . S
H27 C28 1.016 . S
C28 H27 1.016 . S
C28 N35 1.286 . S
C29 H24 0.930 . S
C29 C30 1.397 . S
C29 C31 1.361 . S
C30 C29 1.397 . S
C30 C34 1.390 . S
C31 C29 1.361 . S
C31 C32 1.393 . S
C31 N35 1.413 . S
C32 H25 0.930 . S
C32 C31 1.393 . S
C32 C33 1.399 . S
C33 C32 1.399 . S
C33 C34 1.381 . S
C34 H26 0.930 . S
C34 C30 1.390 . S
C34 C33 1.381 . S
N35 C28 1.286 . S
N35 C31 1.413 . S
H36 C41 0.930 . S
H37 C44 0.930 . S
H38 C46 0.930 . S
H39 C40 1.016 . S
C40 H39 1.016 . S
C40 N47 1.286 . S
C41 H36 0.930 . S
C41 C42 1.397 . S
C41 C43 1.361 . S
C42 C41 1.397 . S
C42 C46 1.390 . S
C43 C41 1.361 . S
C43 C44 1.393 . S
C43 N47 1.413 . S
C44 H37 0.930 . S
C44 C43 1.393 . S
C44 C45 1.399 . S
C45 C44 1.399 . S
C45 C46 1.381 . S
C46 H38 0.930 . S
C46 C42 1.390 . S
C46 C45 1.381 . S
N47 C40 1.286 . S
N47 C43 1.413 . S
H48 C53 0.930 . S
H49 C56 0.930 . S
H50 C58 0.930 . S
H51 C52 1.016 . S
C52 H51 1.016 . S
C52 N59 1.286 . S
C53 H48 0.930 . S
C53 C54 1.397 . S
C53 C55 1.361 . S
C54 C53 1.397 . S
C54 C58 1.390 . S
C55 C53 1.361 . S
C55 C56 1.393 . S
C55 N59 1.413 . S
C56 H49 0.930 . S
C56 C55 1.393 . S
C56 C57 1.399 . S
C57 C56 1.399 . S
C57 C58 1.381 . S
C58 H50 0.930 . S
C58 C54 1.390 . S
C58 C57 1.381 . S
N59 C52 1.286 . S
N59 C55 1.413 . S
H60 C65 0.930 . S
H61 C68 0.930 . S
H62 C70 0.930 . S
H63 C64 1.016 . S
C64 H63 1.016 . S
C64 N71 1.286 . S
C65 H60 0.930 . S
C65 C66 1.397 . S
C65 C67 1.361 . S
C66 C65 1.397 . S
C66 C70 1.390 . S
C67 C65 1.361 . S
C67 C68 1.393 . S
C67 N71 1.413 . S
C68 H61 0.930 . S
C68 C67 1.393 . S
C68 C69 1.399 . S
C69 C68 1.399 . S
C69 C70 1.381 . S
C70 H62 0.930 . S
C70 C66 1.390 . S
C70 C69 1.381 . S
N71 C64 1.286 . S
N71 C67 1.413 . S
H72 C77 0.930 . S
H73 C80 0.930 . S
H74 C82 0.930 . S
H75 C76 1.016 . S
C76 H75 1.016 . S
C76 N83 1.286 . S
C77 H72 0.930 . S
C77 C78 1.397 . S
C77 C79 1.361 . S
C78 C77 1.397 . S
C78 C82 1.390 . S
C79 C77 1.361 . S
C79 C80 1.393 . S
C79 N83 1.413 . S
C80 H73 0.930 . S
C80 C79 1.393 . S
C80 C81 1.399 . S
C81 C80 1.399 . S
C81 C82 1.381 . S
C82 H74 0.930 . S
C82 C78 1.390 . S
C82 C81 1.381 . S
N83 C76 1.286 . S
N83 C79 1.413 . S
H84 C89 0.930 . S
H85 C92 0.930 . S
H86 C94 0.930 . S
H87 C88 1.016 . S
C88 H87 1.016 . S
C88 N95 1.286 . S
C89 H84 0.930 . S
C89 C90 1.397 . S
C89 C91 1.361 . S
C90 C89 1.397 . S
C90 C94 1.390 . S
C91 C89 1.361 . S
C91 C92 1.393 . S
C91 N95 1.413 . S
C92 H85 0.930 . S
C92 C91 1.393 . S
C92 C93 1.399 . S
C93 C92 1.399 . S
C93 C94 1.381 . S
C94 H86 0.930 . S
C94 C90 1.390 . S
C94 C93 1.381 . S
N95 C88 1.286 . S
N95 C91 1.413 . S
O96 Mg97 1.990 . S
O96 C110 1.253 1_445 S
Mg97 O96 1.990 . S
Mg97 O100 2.180 . S
Mg97 O101 2.117 . S
Mg97 O115 2.030 . S
O98 Mg99 2.072 1_665 S
O98 C110 1.260 . S
Mg99 O98 2.072 1_445 S
Mg99 O100 2.099 . S
Mg99 O102 2.079 . S
Mg99 O103 2.072 1_455 S
Mg99 O105 2.099 1_445 S
Mg99 O116 2.079 1_545 S
O100 Mg97 2.180 . S
O100 Mg99 2.099 . S
O100 C111 1.279 . S
O101 Mg97 2.117 . S
O101 C111 1.250 . S
O102 Mg99 2.079 . S
O102 C112 1.264 . S
O103 Mg99 2.072 1_655 S
O103 C113 1.260 . S
Mg104 O105 2.180 . S
Mg104 O106 2.030 1_565 S
Mg104 O107 1.996 . S
Mg104 O108 2.117 . S
O105 Mg99 2.099 1_665 S
O105 Mg104 2.180 . S
O105 C114 1.279 . S
O106 Mg104 2.030 1_545 S
O106 C112 1.248 1_655 S
O107 Mg104 1.996 . S
O107 C113 1.247 1_565 S
O108 Mg104 2.117 . S
O108 C114 1.250 . S
C109 O115 1.248 1_565 S
C109 O116 1.264 . S
C110 O96 1.253 1_665 S
C110 O98 1.260 . S
C111 O100 1.279 . S
C111 O101 1.250 . S
C112 O102 1.264 . S
C112 O106 1.248 1_455 S
C113 O103 1.260 . S
C113 O107 1.247 1_545 S
C114 O105 1.279 . S
C114 O108 1.250 . S
O115 Mg97 2.030 . S
O115 C109 1.248 1_545 S
O116 Mg99 2.079 1_565 S
O116 C109 1.264 . S
O117 Mg118 1.990 . S
O117 C131 1.253 . S
Mg118 O117 1.990 . S
Mg118 O121 2.180 . S
Mg118 O122 2.117 . S
Mg118 O136 2.030 . S
O119 Mg120 2.072 . S
O119 C131 1.260 . S
Mg120 O119 2.072 . S
Mg120 O121 2.099 . S
Mg120 O123 2.079 . S
Mg120 O124 2.072 1_554 S
Mg120 O126 2.099 1_545 S
Mg120 O137 2.079 . S
O121 Mg118 2.180 . S
O121 Mg120 2.099 . S
O121 C132 1.279 1_554 S
O122 Mg118 2.117 . S
O122 C132 1.250 1_554 S
O123 Mg120 2.079 . S
O123 C133 1.264 1_544 S
O124 Mg120 2.072 1_556 S
O124 C134 1.260 1_545 S
Mg125 O126 2.180 1_556 S
Mg125 O127 2.030 . S
Mg125 O128 1.990 . S
Mg125 O129 2.117 1_556 S
O126 Mg120 2.099 1_565 S
O126 Mg125 2.180 1_554 S
O126 C135 1.279 . S
O127 Mg125 2.030 . S
O127 C133 1.248 . S
O128 Mg125 1.990 . S
O128 C134 1.253 . S
O129 Mg125 2.117 1_554 S
O129 C135 1.250 . S
C130 O136 1.248 . S
C130 O137 1.264 . S
C131 O117 1.253 . S
C131 O119 1.260 . S
C132 O121 1.279 1_556 S
C132 O122 1.250 1_556 S
C133 O123 1.264 1_566 S
C133 O127 1.248 . S
C134 O124 1.260 1_565 S
C134 O128 1.253 . S
C135 O126 1.279 . S
C135 O129 1.250 . S
O136 Mg118 2.030 . S
O136 C130 1.248 . S
O137 Mg120 2.079 . S
O137 C130 1.264 . S
O138 Mg139 1.990 . S
O138 C152 1.253 . S
Mg139 O138 1.990 . S
Mg139 O142 2.180 . S
Mg139 O143 2.117 . S
Mg139 O157 2.030 . S
O140 Mg141 2.072 . S
O140 C152 1.260 . S
Mg141 O140 2.072 . S
Mg141 O142 2.099 . S
Mg141 O144 2.079 . S
Mg141 O145 2.072 . S
Mg141 O147 2.099 . S
Mg141 O158 2.079 . S
O142 Mg139 2.180 . S
O142 Mg141 2.099 . S
O142 C153 1.279 . S
O143 Mg139 2.117 . S
O143 C153 1.250 . S
O144 Mg141 2.079 . S
O144 C154 1.264 . S
O145 Mg141 2.072 . S
O145 C155 1.260 . S
Mg146 O147 2.180 . S
Mg146 O148 2.030 . S
Mg146 O149 1.990 . S
Mg146 O150 2.117 . S
O147 Mg141 2.099 . S
O147 Mg146 2.180 . S
O147 C156 1.279 . S
O148 Mg146 2.030 . S
O148 C154 1.248 . S
O149 Mg146 1.990 . S
O149 C155 1.253 . S
O150 Mg146 2.117 . S
O150 C156 1.250 . S
C151 O157 1.248 . S
C151 O158 1.264 . S
C152 O138 1.253 . S
C152 O140 1.260 . S
C153 O142 1.279 . S
C153 O143 1.250 . S
C154 O144 1.264 . S
C154 O148 1.248 . S
C155 O145 1.260 . S
C155 O149 1.253 . S
C156 O147 1.279 . S
C156 O150 1.250 . S
O157 Mg139 2.030 . S
O157 C151 1.248 . S
O158 Mg141 2.079 . S
O158 C151 1.264 . S
O159 Mg160 1.990 . S
O159 C173 1.253 . S
Mg160 O159 1.990 . S
Mg160 O163 2.180 . S
Mg160 O164 2.117 1_455 S
Mg160 O178 2.030 . S
O161 Mg162 2.072 . S
O161 C173 1.260 . S
Mg162 O161 2.072 . S
Mg162 O163 2.099 . S
Mg162 O165 2.079 . S
Mg162 O166 2.072 1_455 S
Mg162 O168 2.099 1_554 S
Mg162 O179 2.079 . S
O163 Mg160 2.180 . S
O163 Mg162 2.099 . S
O163 C174 1.279 1_455 S
O164 Mg160 2.117 1_655 S
O164 C174 1.250 . S
O165 Mg162 2.079 . S
O165 C175 1.264 1_454 S
O166 Mg162 2.072 1_655 S
O166 C176 1.260 1_554 S
Mg167 O168 2.180 1_655 S
Mg167 O169 2.030 . S
Mg167 O170 1.990 . S
Mg167 O171 2.117 1_655 S
O168 Mg162 2.099 1_556 S
O168 Mg167 2.180 1_455 S
O168 C177 1.279 . S
O169 Mg167 2.030 . S
O169 C175 1.248 . S
O170 Mg167 1.990 . S
O170 C176 1.253 . S
O171 Mg167 2.117 1_455 S
O171 C177 1.250 . S
C172 O178 1.248 . S
C172 O179 1.264 . S
C173 O159 1.253 . S
C173 O161 1.260 . S
C174 O163 1.279 1_655 S
C174 O164 1.250 . S
C175 O165 1.264 1_656 S
C175 O169 1.248 . S
C176 O166 1.260 1_556 S
C176 O170 1.253 . S
C177 O168 1.279 . S
C177 O171 1.250 . S
O178 Mg160 2.030 . S
O178 C172 1.248 . S
O179 Mg162 2.079 . S
O179 C172 1.264 . S
H180 C186 0.930 . S
H181 C190 0.930 1_655 S
H182 C195 0.929 . S
H183 C193 0.929 . S
H184 C188 0.929 . S
H185 C194 0.929 . S
C186 H180 0.930 . S
C186 C187 1.367 . S
C186 C194 1.378 . S
C187 C186 1.367 . S
C187 C195 1.433 . S
C188 H184 0.929 . S
C188 C190 1.378 . S
C188 C192 1.350 . S
C189 C192 1.463 . S
C189 C194 1.350 . S
C189 N197 1.427 . S
C190 H181 0.930 1_455 S
C190 C188 1.378 . S
C190 C191 1.367 . S
C191 C190 1.367 . S
C191 C193 1.433 . S
C192 C188 1.350 . S
C192 C189 1.463 . S
C192 N196 1.427 . S
C193 H183 0.929 . S
C193 C191 1.433 . S
C193 N196 1.384 . S
C194 H185 0.929 . S
C194 C186 1.378 . S
C194 C189 1.350 . S
C195 H182 0.929 . S
C195 C187 1.433 . S
C195 N197 1.384 . S
N196 C192 1.427 . S
N196 C193 1.384 . S
N197 C189 1.427 . S
N197 C195 1.384 . S
H198 C204 0.930 . S
H199 C208 0.930 . S
H200 C213 0.929 . S
H201 C211 0.929 . S
H202 C206 0.929 . S
H203 C212 0.929 . S
C204 H198 0.930 . S
C204 C205 1.367 . S
C204 C212 1.378 . S
C205 C204 1.367 . S
C205 C213 1.433 . S
C206 H202 0.929 . S
C206 C208 1.378 . S
C206 C210 1.350 . S
C207 C210 1.463 . S
C207 C212 1.350 . S
C207 N215 1.427 . S
C208 H199 0.930 . S
C208 C206 1.378 . S
C208 C209 1.367 . S
C209 C208 1.367 . S
C209 C211 1.433 1_565 S
C210 C206 1.350 . S
C210 C207 1.463 . S
C210 N214 1.427 . S
C211 H201 0.929 . S
C211 C209 1.433 1_545 S
C211 N214 1.384 1_545 S
C212 H203 0.929 . S
C212 C204 1.378 . S
C212 C207 1.350 . S
C213 H200 0.929 . S
C213 C205 1.433 . S
C213 N215 1.384 . S
N214 C210 1.427 . S
N214 C211 1.384 1_565 S
N215 C207 1.427 . S
N215 C213 1.384 . S
H216 C222 0.930 . S
H217 C226 0.930 . S
H218 C231 0.929 . S
H219 C229 0.929 . S
H220 C224 0.929 . S
H221 C230 0.929 . S
C222 H216 0.930 . S
C222 C223 1.367 . S
C222 C230 1.378 . S
C223 C222 1.367 . S
C223 C231 1.433 . S
C224 H220 0.929 . S
C224 C226 1.378 . S
C224 C228 1.350 . S
C225 C228 1.463 . S
C225 C230 1.350 . S
C225 N233 1.427 . S
C226 H217 0.930 . S
C226 C224 1.378 . S
C226 C227 1.367 . S
C227 C226 1.367 . S
C227 C229 1.433 . S
C228 C224 1.350 . S
C228 C225 1.463 . S
C228 N232 1.427 . S
C229 H219 0.929 . S
C229 C227 1.433 . S
C229 N232 1.384 . S
C230 H221 0.929 . S
C230 C222 1.378 . S
C230 C225 1.350 . S
C231 H218 0.929 . S
C231 C223 1.433 . S
C231 N233 1.384 . S
N232 C228 1.427 . S
N232 C229 1.384 . S
N233 C225 1.427 . S
N233 C231 1.384 . S
H234 C240 0.930 . S
H235 C244 0.930 1_455 S
H236 C249 0.929 . S
H237 C247 0.929 . S
H238 C242 0.929 . S
H239 C248 0.929 . S
C240 H234 0.930 . S
C240 C241 1.367 . S
C240 C248 1.378 . S
C241 C240 1.367 . S
C241 C249 1.433 . S
C242 H238 0.929 . S
C242 C244 1.378 . S
C242 C246 1.350 . S
C243 C246 1.463 . S
C243 C248 1.350 . S
C243 N251 1.427 . S
C244 H235 0.930 1_655 S
C244 C242 1.378 . S
C244 C245 1.367 . S
C245 C244 1.367 . S
C245 C247 1.433 . S
C246 C242 1.350 . S
C246 C243 1.463 . S
C246 N250 1.427 . S
C247 H237 0.929 . S
C247 C245 1.433 . S
C247 N250 1.384 . S
C248 H239 0.929 . S
C248 C240 1.378 . S
C248 C243 1.350 . S
C249 H236 0.929 . S
C249 C241 1.433 . S
C249 N251 1.384 . S
N250 C246 1.427 . S
N250 C247 1.384 . S
N251 C243 1.427 . S
N251 C249 1.384 . S
H252 C258 0.930 . S
H253 C262 0.930 . S
H254 C267 0.929 . S
H255 C265 0.929 . S
H256 C260 0.929 . S
H257 C266 0.929 . S
C258 H252 0.930 . S
C258 C259 1.367 . S
C258 C266 1.378 . S
C259 C258 1.367 . S
C259 C267 1.433 . S
C260 H256 0.929 . S
C260 C262 1.378 . S
C260 C264 1.350 . S
C261 C264 1.463 . S
C261 C266 1.350 . S
C261 N269 1.427 . S
C262 H253 0.930 . S
C262 C260 1.378 . S
C262 C263 1.367 . S
C263 C262 1.367 . S
C263 C265 1.433 . S
C264 C260 1.350 . S
C264 C261 1.463 . S
C264 N268 1.427 . S
C265 H255 0.929 . S
C265 C263 1.433 . S
C265 N268 1.384 . S
C266 H257 0.929 . S
C266 C258 1.378 . S
C266 C261 1.350 . S
C267 H254 0.929 . S
C267 C259 1.433 . S
C267 N269 1.384 . S
N268 C264 1.427 . S
N268 C265 1.384 . S
N269 C261 1.427 . S
N269 C267 1.384 . S
H270 C276 0.930 . S
H271 C280 0.930 . S
H272 C285 0.929 . S
H273 C283 0.926 1_545 S
H274 C278 0.929 . S
H275 C284 0.929 . S
C276 H270 0.930 . S
C276 C277 1.367 . S
C276 C284 1.378 . S
C277 C276 1.367 . S
C277 C285 1.433 . S
C278 H274 0.929 . S
C278 C280 1.378 . S
C278 C282 1.350 . S
C279 C282 1.463 . S
C279 C284 1.350 . S
C279 N287 1.427 . S
C280 H271 0.930 . S
C280 C278 1.378 . S
C280 C281 1.367 . S
C281 C280 1.367 . S
C281 C283 1.433 . S
C282 C278 1.350 . S
C282 C279 1.463 . S
C282 N286 1.427 . S
C283 H273 0.926 1_565 S
C283 C281 1.433 . S
C283 N286 1.384 . S
C284 H275 0.929 . S
C284 C276 1.378 . S
C284 C279 1.350 . S
C285 H272 0.929 . S
C285 C277 1.433 . S
C285 N287 1.384 . S
N286 C282 1.427 . S
N286 C283 1.384 . S
N287 C279 1.427 . S
N287 C285 1.384 . S
H288 C294 0.930 . S
H289 C298 0.930 . S
H290 C303 0.929 . S
H291 C301 0.929 . S
H292 C296 0.929 . S
H293 C302 0.929 . S
C294 H288 0.930 . S
C294 C295 1.367 . S
C294 C302 1.378 . S
C295 C294 1.367 . S
C295 C303 1.433 . S
C296 H292 0.929 . S
C296 C298 1.378 . S
C296 C300 1.350 . S
C297 C300 1.463 . S
C297 C302 1.350 . S
C297 N305 1.427 . S
C298 H289 0.930 . S
C298 C296 1.378 . S
C298 C299 1.367 . S
C299 C298 1.367 . S
C299 C301 1.433 1_556 S
C300 C296 1.350 . S
C300 C297 1.463 . S
C300 N304 1.427 . S
C301 H291 0.929 . S
C301 C299 1.433 1_554 S
C301 N304 1.384 1_554 S
C302 H293 0.929 . S
C302 C294 1.378 . S
C302 C297 1.350 . S
C303 H290 0.929 . S
C303 C295 1.433 . S
C303 N305 1.384 . S
N304 C300 1.427 . S
N304 C301 1.384 1_556 S
N305 C297 1.427 . S
N305 C303 1.384 . S
H306 C312 0.930 . S
H307 C316 0.930 . S
H308 C321 0.929 . S
H309 C319 0.929 . S
H310 C314 0.929 . S
H311 C320 0.929 . S
C312 H306 0.930 . S
C312 C313 1.367 . S
C312 C320 1.378 . S
C313 C312 1.367 . S
C313 C321 1.433 . S
C314 H310 0.929 . S
C314 C316 1.378 . S
C314 C318 1.350 . S
C315 C318 1.463 . S
C315 C320 1.350 . S
C315 N323 1.427 . S
C316 H307 0.930 . S
C316 C314 1.378 . S
C316 C317 1.367 . S
C317 C316 1.367 . S
C317 C319 1.433 . S
C318 C314 1.350 . S
C318 C315 1.463 . S
C318 N322 1.427 . S
C319 H309 0.929 . S
C319 C317 1.433 . S
C319 N322 1.384 . S
C320 H311 0.929 . S
C320 C312 1.378 . S
C320 C315 1.350 . S
C321 H308 0.929 . S
C321 C313 1.433 . S
C321 N323 1.384 . S
N322 C318 1.427 . S
N322 C319 1.384 . S
N323 C315 1.427 . S
N323 C321 1.384 . S
H324 C330 0.930 . S
H325 C334 0.930 . S
H326 C339 0.929 . S
H327 C337 0.929 1_556 S
H328 C332 0.929 . S
H329 C338 0.929 . S
C330 H324 0.930 . S
C330 C331 1.367 . S
C330 C338 1.378 . S
C331 C330 1.367 . S
C331 C339 1.433 . S
C332 H328 0.929 . S
C332 C334 1.378 . S
C332 C336 1.350 . S
C333 C336 1.463 . S
C333 C338 1.350 . S
C333 N341 1.427 . S
C334 H325 0.930 . S
C334 C332 1.378 . S
C334 C335 1.367 . S
C335 C334 1.367 . S
C335 C337 1.433 . S
C336 C332 1.350 . S
C336 C333 1.463 . S
C336 N340 1.427 . S
C337 H327 0.929 1_554 S
C337 C335 1.433 . S
C337 N340 1.384 . S
C338 H329 0.929 . S
C338 C330 1.378 . S
C338 C333 1.350 . S
C339 H326 0.929 . S
C339 C331 1.433 . S
C339 N341 1.384 . S
N340 C336 1.427 . S
N340 C337 1.384 . S
N341 C333 1.427 . S
N341 C339 1.384 . S
H342 C348 0.930 . S
H343 C352 0.930 1_554 S
H344 C357 0.929 . S
H345 C355 0.929 . S
H346 C350 0.929 . S
H347 C356 0.929 . S
C348 H342 0.930 . S
C348 C349 1.367 . S
C348 C356 1.378 . S
C349 C348 1.367 . S
C349 C357 1.433 . S
C350 H346 0.929 . S
C350 C352 1.378 . S
C350 C354 1.350 . S
C351 C354 1.463 . S
C351 C356 1.350 . S
C351 N359 1.427 . S
C352 H343 0.930 1_556 S
C352 C350 1.378 . S
C352 C353 1.367 . S
C353 C352 1.367 . S
C353 C355 1.433 . S
C354 C350 1.350 . S
C354 C351 1.463 . S
C354 N358 1.427 . S
C355 H345 0.929 . S
C355 C353 1.433 . S
C355 N358 1.384 . S
C356 H347 0.929 . S
C356 C348 1.378 . S
C356 C351 1.350 . S
C357 H344 0.929 . S
C357 C349 1.433 . S
C357 N359 1.384 . S
N358 C354 1.427 . S
N358 C355 1.384 . S
N359 C351 1.427 . S
N359 C357 1.384 . S
H360 C366 0.930 . S
H361 C370 0.930 . S
H362 C375 0.929 . S
H363 C373 0.929 . S
H364 C368 0.929 . S
H365 C374 0.929 . S
C366 H360 0.930 . S
C366 C367 1.367 . S
C366 C374 1.378 . S
C367 C366 1.367 . S
C367 C375 1.433 . S
C368 H364 0.929 . S
C368 C370 1.378 . S
C368 C372 1.350 . S
C369 C372 1.463 . S
C369 C374 1.350 . S
C369 N377 1.427 . S
C370 H361 0.930 . S
C370 C368 1.378 . S
C370 C371 1.367 . S
C371 C370 1.367 . S
C371 C373 1.433 . S
C372 C368 1.350 . S
C372 C369 1.463 . S
C372 N376 1.427 . S
C373 H363 0.929 . S
C373 C371 1.433 . S
C373 N376 1.384 . S
C374 H365 0.929 . S
C374 C366 1.378 . S
C374 C369 1.350 . S
C375 H362 0.929 . S
C375 C367 1.433 . S
C375 N377 1.384 . S
N376 C372 1.427 . S
N376 C373 1.384 . S
N377 C369 1.427 . S
N377 C375 1.384 . S
H378 C384 0.930 . S
H379 C388 0.930 . S
H380 C393 0.929 . S
H381 C391 0.929 . S
H382 C386 0.929 . S
H383 C392 0.929 . S
C384 H378 0.930 . S
C384 C385 1.367 . S
C384 C392 1.378 . S
C385 C384 1.367 . S
C385 C393 1.433 . S
C386 H382 0.929 . S
C386 C388 1.378 . S
C386 C390 1.350 . S
C387 C390 1.463 . S
C387 C392 1.350 . S
C387 N395 1.427 . S
C388 H379 0.930 . S
C388 C386 1.378 . S
C388 C389 1.367 . S
C389 C388 1.367 . S
C389 C391 1.433 . S
C390 C386 1.350 . S
C390 C387 1.463 . S
C390 N394 1.427 . S
C391 H381 0.929 . S
C391 C389 1.433 . S
C391 N394 1.384 . S
C392 H383 0.929 . S
C392 C384 1.378 . S
C392 C387 1.350 . S
C393 H380 0.929 . S
C393 C385 1.433 . S
C393 N395 1.384 . S
N394 C390 1.427 . S
N394 C391 1.384 . S
N395 C387 1.427 . S
N395 C393 1.384 . S
H396 C402 0.930 . S
H397 C406 0.930 1_545 S
H398 C411 0.929 . S
H399 C409 0.929 . S
H400 C404 0.929 1_545 S
H401 C410 0.929 . S
C402 H396 0.930 . S
C402 C403 1.367 . S
C402 C410 1.378 . S
C403 C402 1.367 . S
C403 C411 1.433 . S
C404 H400 0.929 1_565 S
C404 C406 1.378 . S
C404 C408 1.350 . S
C405 C408 1.463 . S
C405 C410 1.350 . S
C405 N413 1.427 . S
C406 H397 0.930 1_565 S
C406 C404 1.378 . S
C406 C407 1.367 . S
C407 C406 1.367 . S
C407 C409 1.433 . S
C408 C404 1.350 . S
C408 C405 1.463 . S
C408 N412 1.427 . S
C409 H399 0.929 . S
C409 C407 1.433 . S
C409 N412 1.384 . S
C410 H401 0.929 . S
C410 C402 1.378 . S
C410 C405 1.350 . S
C411 H398 0.929 . S
C411 C403 1.433 . S
C411 N413 1.384 . S
N412 C408 1.427 . S
N412 C409 1.384 . S
N413 C405 1.427 . S
N413 C411 1.384 . S
H414 C420 0.930 . S
H415 C424 0.930 . S
H416 C429 0.929 . S
H417 C427 0.929 . S
H418 C422 0.929 . S
H419 C428 0.929 . S
C420 H414 0.930 . S
C420 C421 1.367 . S
C420 C428 1.378 . S
C421 C420 1.367 . S
C421 C429 1.433 . S
C422 H418 0.929 . S
C422 C424 1.378 . S
C422 C426 1.350 . S
C423 C426 1.463 . S
C423 C428 1.350 . S
C423 N431 1.427 . S
C424 H415 0.930 . S
C424 C422 1.378 . S
C424 C425 1.367 . S
C425 C424 1.367 . S
C425 C427 1.433 . S
C426 C422 1.350 . S
C426 C423 1.463 . S
C426 N430 1.427 . S
C427 H417 0.929 . S
C427 C425 1.433 . S
C427 N430 1.384 . S
C428 H419 0.929 . S
C428 C420 1.378 . S
C428 C423 1.350 . S
C429 H416 0.929 . S
C429 C421 1.433 . S
C429 N431 1.384 . S
N430 C426 1.427 . S
N430 C427 1.384 . S
N431 C423 1.427 . S
N431 C429 1.384 . S
H432 C438 0.930 . S
H433 C442 0.930 . S
H434 C447 0.929 . S
H435 C445 0.929 . S
H436 C440 0.929 . S
H437 C446 0.929 . S
C438 H432 0.930 . S
C438 C439 1.367 . S
C438 C446 1.378 . S
C439 C438 1.367 . S
C439 C447 1.433 . S
C440 H436 0.929 . S
C440 C442 1.378 . S
C440 C444 1.350 . S
C441 C444 1.463 . S
C441 C446 1.350 . S
C441 N449 1.427 . S
C442 H433 0.930 . S
C442 C440 1.378 . S
C442 C443 1.367 . S
C443 C442 1.367 . S
C443 C445 1.433 . S
C444 C440 1.350 . S
C444 C441 1.463 . S
C444 N448 1.427 . S
C445 H435 0.929 . S
C445 C443 1.433 . S
C445 N448 1.384 . S
C446 H437 0.929 . S
C446 C438 1.378 . S
C446 C441 1.350 . S
C447 H434 0.929 . S
C447 C439 1.433 . S
C447 N449 1.384 . S
N448 C444 1.427 . S
N448 C445 1.384 . S
N449 C441 1.427 . S
N449 C447 1.384 . S
H450 C456 0.930 . S
H451 C460 0.930 . S
H452 C465 0.929 . S
H453 C463 0.929 . S
H454 C458 0.929 . S
H455 C464 0.929 . S
C456 H450 0.930 . S
C456 C457 1.367 . S
C456 C464 1.378 . S
C457 C456 1.367 . S
C457 C465 1.433 . S
C458 H454 0.929 . S
C458 C460 1.378 . S
C458 C462 1.350 . S
C459 C462 1.463 . S
C459 C464 1.350 . S
C459 N467 1.427 . S
C460 H451 0.930 . S
C460 C458 1.378 . S
C460 C461 1.367 . S
C461 C460 1.367 . S
C461 C463 1.433 . S
C462 C458 1.350 . S
C462 C459 1.463 . S
C462 N466 1.427 . S
C463 H453 0.929 . S
C463 C461 1.433 . S
C463 N466 1.384 . S
C464 H455 0.929 . S
C464 C456 1.378 . S
C464 C459 1.350 . S
C465 H452 0.929 . S
C465 C457 1.433 . S
C465 N467 1.384 . S
N466 C462 1.427 . S
N466 C463 1.384 . S
N467 C459 1.427 . S
N467 C465 1.384 . S
H468 C474 0.930 . S
H469 C478 0.930 . S
H470 C483 0.929 . S
H471 C481 0.929 1_554 S
H472 C476 0.929 . S
H473 C482 0.929 . S
C474 H468 0.930 . S
C474 C475 1.367 . S
C474 C482 1.378 . S
C475 C474 1.367 . S
C475 C483 1.433 . S
C476 H472 0.929 . S
C476 C478 1.378 . S
C476 C480 1.350 . S
C477 C480 1.463 . S
C477 C482 1.350 . S
C477 N485 1.427 . S
C478 H469 0.930 . S
C478 C476 1.378 . S
C478 C479 1.367 . S
C479 C478 1.367 . S
C479 C481 1.433 1_565 S
C480 C476 1.350 . S
C480 C477 1.463 . S
C480 N484 1.445 . S
C481 H471 0.929 1_556 S
C481 C479 1.433 1_545 S
C481 N484 1.372 1_545 S
C482 H473 0.929 . S
C482 C474 1.378 . S
C482 C477 1.350 . S
C483 H470 0.929 . S
C483 C475 1.433 . S
C483 N485 1.384 . S
N484 C480 1.445 . S
N484 C481 1.372 1_565 S
N485 C477 1.427 . S
N485 C483 1.384 . S
H486 C492 0.930 . S
H487 C496 0.930 . S
H488 C501 0.929 . S
H489 C499 0.929 . S
H490 C494 0.929 . S
H491 C500 0.929 . S
C492 H486 0.930 . S
C492 C493 1.367 . S
C492 C500 1.378 . S
C493 C492 1.367 . S
C493 C501 1.433 . S
C494 H490 0.929 . S
C494 C496 1.378 . S
C494 C498 1.350 . S
C495 C498 1.463 . S
C495 C500 1.350 . S
C495 N503 1.427 . S
C496 H487 0.930 . S
C496 C494 1.378 . S
C496 C497 1.367 . S
C497 C496 1.367 . S
C497 C499 1.433 . S
C498 C494 1.350 . S
C498 C495 1.463 . S
C498 N502 1.427 . S
C499 H489 0.929 . S
C499 C497 1.433 . S
C499 N502 1.384 . S
C500 H491 0.929 . S
C500 C492 1.378 . S
C500 C495 1.350 . S
C501 H488 0.929 . S
C501 C493 1.433 . S
C501 N503 1.384 . S
N502 C498 1.427 . S
N502 C499 1.384 . S
N503 C495 1.427 . S
N503 C501 1.384 . S
H504 C510 0.930 . S
H505 C514 0.930 . S
H506 C519 0.929 . S
H507 C517 0.929 . S
H508 C512 0.929 . S
H509 C518 0.929 . S
C510 H504 0.930 . S
C510 C511 1.367 . S
C510 C518 1.378 . S
C511 C510 1.367 . S
C511 C519 1.433 . S
C512 H508 0.929 . S
C512 C514 1.378 . S
C512 C516 1.350 . S
C513 C516 1.463 . S
C513 C518 1.350 . S
C513 N521 1.427 . S
C514 H505 0.930 . S
C514 C512 1.378 . S
C514 C515 1.367 . S
C515 C514 1.367 . S
C515 C517 1.433 . S
C516 C512 1.350 . S
C516 C513 1.463 . S
C516 N520 1.427 . S
C517 H507 0.929 . S
C517 C515 1.433 . S
C517 N520 1.384 . S
C518 H509 0.929 . S
C518 C510 1.378 . S
C518 C513 1.350 . S
C519 H506 0.929 . S
C519 C511 1.433 . S
C519 N521 1.384 . S
N520 C516 1.427 . S
N520 C517 1.384 . S
N521 C513 1.427 . S
N521 C519 1.384 . S
H522 C528 0.930 . S
H523 C532 0.930 . S
H524 C537 0.929 . S
H525 C535 0.929 . S
H526 C530 0.929 . S
H527 C536 0.929 . S
C528 H522 0.930 . S
C528 C529 1.367 . S
C528 C536 1.378 . S
C529 C528 1.367 . S
C529 C537 1.433 . S
C530 H526 0.929 . S
C530 C532 1.378 . S
C530 C534 1.350 . S
C531 C534 1.463 . S
C531 C536 1.350 . S
C531 N539 1.427 . S
C532 H523 0.930 . S
C532 C530 1.378 . S
C532 C533 1.367 . S
C533 C532 1.367 . S
C533 C535 1.433 . S
C534 C530 1.350 . S
C534 C531 1.463 . S
C534 N538 1.427 . S
C535 H525 0.929 . S
C535 C533 1.433 . S
C535 N538 1.384 . S
C536 H527 0.929 . S
C536 C528 1.378 . S
C536 C531 1.350 . S
C537 H524 0.929 . S
C537 C529 1.433 . S
C537 N539 1.384 . S
N538 C534 1.427 . S
N538 C535 1.384 . S
N539 C531 1.427 . S
N539 C537 1.384 . S
H540 C546 0.930 . S
H541 C550 0.930 1_455 S
H542 C555 0.929 . S
H543 C553 0.929 . S
H544 C548 0.929 . S
H545 C554 0.927 1_554 S
C546 H540 0.930 . S
C546 C547 1.367 . S
C546 C554 1.378 . S
C547 C546 1.367 . S
C547 C555 1.433 . S
C548 H544 0.929 . S
C548 C550 1.378 . S
C548 C552 1.350 . S
C549 C552 1.463 . S
C549 C554 1.350 . S
C549 N557 1.427 . S
C550 H541 0.930 1_655 S
C550 C548 1.378 . S
C550 C551 1.367 . S
C551 C550 1.367 . S
C551 C553 1.433 1_556 S
C552 C548 1.350 . S
C552 C549 1.463 . S
C552 N556 1.427 . S
C553 H543 0.929 . S
C553 C551 1.433 1_554 S
C553 N556 1.384 1_554 S
C554 H545 0.927 1_556 S
C554 C546 1.378 . S
C554 C549 1.350 . S
C555 H542 0.929 . S
C555 C547 1.433 . S
C555 N557 1.384 . S
N556 C552 1.427 . S
N556 C553 1.384 1_556 S
N557 C549 1.427 . S
N557 C555 1.384 . S
H558 C564 0.930 . S
H559 C568 0.930 . S
H560 C573 0.929 . S
H561 C571 0.929 . S
H562 C566 0.929 . S
H563 C572 0.929 . S
C564 H558 0.930 . S
C564 C565 1.367 . S
C564 C572 1.378 . S
C565 C564 1.367 . S
C565 C573 1.433 . S
C566 H562 0.929 . S
C566 C568 1.378 . S
C566 C570 1.350 . S
C567 C570 1.463 . S
C567 C572 1.350 . S
C567 N575 1.427 . S
C568 H559 0.930 . S
C568 C566 1.378 . S
C568 C569 1.367 . S
C569 C568 1.367 . S
C569 C571 1.433 . S
C570 C566 1.350 . S
C570 C567 1.463 . S
C570 N574 1.427 . S
C571 H561 0.929 . S
C571 C569 1.433 . S
C571 N574 1.384 . S
C572 H563 0.929 . S
C572 C564 1.378 . S
C572 C567 1.350 . S
C573 H560 0.929 . S
C573 C565 1.433 . S
C573 N575 1.384 . S
N574 C570 1.427 . S
N574 C571 1.384 . S
N575 C567 1.427 . S
N575 C573 1.384 . S
H576 C582 0.930 . S
H577 C586 0.930 . S
H578 C591 0.929 . S
H579 C589 0.929 . S
H580 C584 0.929 . S
H581 C590 0.929 . S
C582 H576 0.930 . S
C582 C583 1.367 . S
C582 C590 1.378 . S
C583 C582 1.367 . S
C583 C591 1.433 . S
C584 H580 0.929 . S
C584 C586 1.378 . S
C584 C588 1.350 . S
C585 C588 1.463 . S
C585 C590 1.350 . S
C585 N593 1.427 . S
C586 H577 0.930 . S
C586 C584 1.378 . S
C586 C587 1.367 . S
C587 C586 1.367 . S
C587 C589 1.433 . S
C588 C584 1.350 . S
C588 C585 1.463 . S
C588 N592 1.427 . S
C589 H579 0.929 . S
C589 C587 1.433 . S
C589 N592 1.384 . S
C590 H581 0.929 . S
C590 C582 1.378 . S
C590 C585 1.350 . S
C591 H578 0.929 . S
C591 C583 1.433 . S
C591 N593 1.384 . S
N592 C588 1.427 . S
N592 C589 1.384 . S
N593 C585 1.427 . S
N593 C591 1.384 . S
H594 C600 0.930 . S
H595 C604 0.930 . S
H596 C609 0.929 . S
H597 C607 0.929 . S
H598 C602 0.929 . S
H599 C608 0.929 . S
C600 H594 0.930 . S
C600 C601 1.367 . S
C600 C608 1.378 . S
C601 C600 1.367 . S
C601 C609 1.433 . S
C602 H598 0.929 . S
C602 C604 1.378 . S
C602 C606 1.350 . S
C603 C606 1.463 . S
C603 C608 1.350 . S
C603 N611 1.427 . S
C604 H595 0.930 . S
C604 C602 1.378 . S
C604 C605 1.367 . S
C605 C604 1.367 . S
C605 C607 1.433 . S
C606 C602 1.350 . S
C606 C603 1.463 . S
C606 N610 1.427 . S
C607 H597 0.929 . S
C607 C605 1.433 . S
C607 N610 1.384 . S
C608 H599 0.929 . S
C608 C600 1.378 . S
C608 C603 1.350 . S
C609 H596 0.929 . S
C609 C601 1.433 . S
C609 N611 1.384 . S
N610 C606 1.427 . S
N610 C607 1.384 . S
N611 C603 1.427 . S
N611 C609 1.384 . S
C187 C6 1.746 . S
C191 C112 1.684 . S
C205 C18 1.746 . S
C209 C134 1.685 . S
C227 C153 1.262 . S
C223 C28 1.480 . S
C241 C40 1.286 . S
C245 C174 1.039 . S
C263 C131 1.948 . S
C259 C9 2.019 . S
C281 C109 1.619 . S
C277 C16 1.665 . S
C299 C176 1.297 . S
C295 C30 1.377 . S
C317 C155 1.124 . S
C313 C42 1.152 . S
C331 C4 1.665 . S
C335 C173 1.601 . S
C353 C132 1.368 . S
C349 C33 1.652 . S
C367 C45 1.426 . S
C371 C114 1.236 . S
C385 C21 1.715 . S
C389 C152 1.680 . S
C407 C110 1.717 . S
C403 C57 1.815 . S
C421 C66 1.600 . S
C425 C130 1.563 . S
C439 C76 1.564 . S
C443 C156 1.319 . S
C457 C88 1.143 . S
C461 C177 0.932 . S
C475 C54 1.930 . S
C479 C133 1.871 . S
C497 C113 1.726 . S
C493 C64 1.771 . S
C515 C172 1.126 . S
C511 C78 1.193 . S
C533 C151 1.222 . S
C529 C93 1.267 . S
C547 C52 1.469 . S
C551 C175 1.413 . S
C569 C135 1.326 . S
C565 C81 1.572 . S
C587 C111 1.097 . S
C583 C90 1.261 . S
C601 C69 1.681 . S
C605 C154 1.654 . S
