# Generated by pormake.
# Topology pyr, (3,6)-cn, num edge types: 1
# Building blocks:
#     Node 0, Type 0, BuildingBlock: VETTIZ_charged_linker_0, # of connection points: 3
#     Node 1, Type 0, BuildingBlock: VETTIZ_charged_linker_0, # of connection points: 3
#     Node 2, Type 0, BuildingBlock: VETTIZ_charged_linker_0, # of connection points: 3
#     Node 3, Type 0, BuildingBlock: VETTIZ_charged_linker_0, # of connection points: 3
#     Node 4, Type 0, BuildingBlock: VETTIZ_charged_linker_0, # of connection points: 3
#     Node 5, Type 0, BuildingBlock: VETTIZ_charged_linker_0, # of connection points: 3
#     Node 6, Type 0, BuildingBlock: VETTIZ_charged_linker_0, # of connection points: 3
#     Node 7, Type 0, BuildingBlock: VETTIZ_charged_linker_0, # of connection points: 3
#     Node 8, Type 1, BuildingBlock: JUFBIX_clean_sbu_0, # of connection points: 6
#     Node 9, Type 1, BuildingBlock: JUFBIX_clean_sbu_0, # of connection points: 6
#     Node 10, Type 1, BuildingBlock: JUFBIX_clean_sbu_0, # of connection points: 6
#     Node 11, Type 1, BuildingBlock: JUFBIX_clean_sbu_0, # of connection points: 6
#     Edge 12, Type (0, 1), BuildingBlock: XUDNAN_clean_linker_2, # of connection points: 2
#     Edge 13, Type (0, 1), BuildingBlock: XUDNAN_clean_linker_2, # of connection points: 2
#     Edge 14, Type (0, 1), BuildingBlock: XUDNAN_clean_linker_2, # of connection points: 2
#     Edge 15, Type (0, 1), BuildingBlock: XUDNAN_clean_linker_2, # of connection points: 2
#     Edge 16, Type (0, 1), BuildingBlock: XUDNAN_clean_linker_2, # of connection points: 2
#     Edge 17, Type (0, 1), BuildingBlock: XUDNAN_clean_linker_2, # of connection points: 2
#     Edge 18, Type (0, 1), BuildingBlock: XUDNAN_clean_linker_2, # of connection points: 2
#     Edge 19, Type (0, 1), BuildingBlock: XUDNAN_clean_linker_2, # of connection points: 2
#     Edge 20, Type (0, 1), BuildingBlock: XUDNAN_clean_linker_2, # of connection points: 2
#     Edge 21, Type (0, 1), BuildingBlock: XUDNAN_clean_linker_2, # of connection points: 2
#     Edge 22, Type (0, 1), BuildingBlock: XUDNAN_clean_linker_2, # of connection points: 2
#     Edge 23, Type (0, 1), BuildingBlock: XUDNAN_clean_linker_2, # of connection points: 2
#     Edge 24, Type (0, 1), BuildingBlock: XUDNAN_clean_linker_2, # of connection points: 2
#     Edge 25, Type (0, 1), BuildingBlock: XUDNAN_clean_linker_2, # of connection points: 2
#     Edge 26, Type (0, 1), BuildingBlock: XUDNAN_clean_linker_2, # of connection points: 2
#     Edge 27, Type (0, 1), BuildingBlock: XUDNAN_clean_linker_2, # of connection points: 2
#     Edge 28, Type (0, 1), BuildingBlock: XUDNAN_clean_linker_2, # of connection points: 2
#     Edge 29, Type (0, 1), BuildingBlock: XUDNAN_clean_linker_2, # of connection points: 2
#     Edge 30, Type (0, 1), BuildingBlock: XUDNAN_clean_linker_2, # of connection points: 2
#     Edge 31, Type (0, 1), BuildingBlock: XUDNAN_clean_linker_2, # of connection points: 2
#     Edge 32, Type (0, 1), BuildingBlock: XUDNAN_clean_linker_2, # of connection points: 2
#     Edge 33, Type (0, 1), BuildingBlock: XUDNAN_clean_linker_2, # of connection points: 2
#     Edge 34, Type (0, 1), BuildingBlock: XUDNAN_clean_linker_2, # of connection points: 2
#     Edge 35, Type (0, 1), BuildingBlock: XUDNAN_clean_linker_2, # of connection points: 2
# Relax obj value: 0.046
# Max RMSD: 0.093
# Mean RMSD: 0.031
data_MOF--net-pyr--node1-JUFBIX_clean_sbu_0--node2-VETTIZ_charged_linker_0--edge1-XUDNAN_clean_linker_2
_symmetry_space_group_name_H-M    P1
_symmetry_Int_Tables_number       1
_symmetry_cell_setting            triclinic
loop_
_symmetry_equiv_pos_as_xyz
'x, y, z'
_cell_length_a     45.669717
_cell_length_b     43.545027
_cell_length_c     45.688504
_cell_angle_alpha  85.634658
_cell_angle_beta   90.415113
_cell_angle_gamma 91.729127
loop_
_atom_site_label
_atom_site_type_symbol
_atom_site_fract_x
_atom_site_fract_y
_atom_site_fract_z
_atom_type_partial_charge
C0 C 0.16093 0.1104 0.26526 0.0
C1 C 0.13576 0.11954 0.27997 0.0
C2 C 0.11964 0.14384 0.26607 0.0
C3 C 0.15389 0.14972 0.22486 0.0
C4 C 0.16947 0.1256 0.23804 0.0
C5 C 0.19579 0.1187 0.21999 0.0
H6 H 0.28219 0.1502 0.09907 0.0
C7 C 0.16904 0.16101 0.19686 0.0
C8 C 0.19367 0.14263 0.19393 0.0
H9 H 0.29424 0.08117 0.17073 0.0
H10 H 0.24985 0.09617 0.19352 0.0
H11 H 0.26508 0.20282 0.13945 0.0
H12 H 0.20913 0.14073 0.09375 0.0
H13 H 0.19554 0.17813 0.08807 0.0
H14 H 0.23159 0.17053 0.07512 0.0
H15 H 0.25972 0.20756 0.10043 0.0
H16 H 0.23516 0.22378 0.12551 0.0
C17 C 0.2237 0.12404 0.2386 0.0
C18 C 0.19177 0.08549 0.21044 0.0
C19 C 0.12897 0.25226 0.13154 0.0
C20 C 0.13822 0.26736 0.10445 0.0
C21 C 0.16429 0.25742 0.09206 0.0
C22 C 0.18013 0.23287 0.10538 0.0
C23 C 0.17029 0.21755 0.13183 0.0
C24 C 0.14524 0.22748 0.1447 0.0
C25 C 0.13836 0.20831 0.17303 0.0
C26 C 0.16319 0.18539 0.17489 0.0
C27 C 0.1819 0.19089 0.15049 0.0
C28 C 0.13994 0.22986 0.19842 0.0
C29 C 0.10813 0.19197 0.16957 0.0
C30 C 0.27493 0.13798 0.11938 0.0
C31 C 0.29187 0.1141 0.13285 0.0
C32 C 0.28177 0.09946 0.15972 0.0
C33 C 0.25591 0.10832 0.17304 0.0
C34 C 0.23958 0.13258 0.15977 0.0
C35 C 0.24915 0.14695 0.13331 0.0
C36 C 0.22954 0.1731 0.12307 0.0
C37 C 0.20664 0.17189 0.14745 0.0
C38 C 0.21255 0.14795 0.16899 0.0
C39 C 0.24818 0.2035 0.12176 0.0
C40 C 0.21575 0.16556 0.09333 0.0
H41 H 0.1153 0.17728 0.2299 0.0
H42 H 0.17383 0.09162 0.27465 0.0
H43 H 0.16853 0.08063 0.20442 0.0
H44 H 0.20446 0.08153 0.19069 0.0
H45 H 0.19787 0.06827 0.22847 0.0
H46 H 0.22129 0.14416 0.25193 0.0
H47 H 0.22799 0.10363 0.25396 0.0
H48 H 0.24336 0.12966 0.22511 0.0
H49 H 0.10914 0.25898 0.14187 0.0
H50 H 0.17263 0.26873 0.07175 0.0
H51 H 0.1995 0.22665 0.09438 0.0
H52 H 0.15896 0.24637 0.19552 0.0
H53 H 0.11981 0.24347 0.19914 0.0
H54 H 0.14329 0.21738 0.22005 0.0
H55 H 0.10556 0.18389 0.14715 0.0
H56 H 0.10519 0.17108 0.18463 0.0
H57 H 0.09007 0.20782 0.17301 0.0
H58 H 0.10044 0.15188 0.27657 0.0
C59 C 0.1285 0.15885 0.23889 0.0
C60 C 0.32596 0.90497 0.57662 0.0
C61 C 0.31764 0.93315 0.58664 0.0
C62 C 0.33378 0.94581 0.60943 0.0
C63 C 0.36361 0.90073 0.6143 0.0
C64 C 0.34892 0.88915 0.59081 0.0
C65 C 0.35898 0.85768 0.58474 0.0
H66 H 0.44118 0.73461 0.62487 0.0
C67 C 0.38406 0.8773 0.62619 0.0
C68 C 0.38176 0.85215 0.60881 0.0
H69 H 0.38001 0.74547 0.55249 0.0
H70 H 0.37057 0.79725 0.56468 0.0
H71 H 0.47176 0.80327 0.6169 0.0
H72 H 0.40027 0.76496 0.67037 0.0
H73 H 0.42178 0.78859 0.69197 0.0
H74 H 0.43767 0.75539 0.67789 0.0
H75 H 0.47731 0.77665 0.64828 0.0
H76 H 0.47547 0.81755 0.65177 0.0
C77 C 0.3729 0.85998 0.55382 0.0
C78 C 0.33242 0.83467 0.58854 0.0
C79 C 0.43515 0.89196 0.72291 0.0
C80 C 0.45365 0.87351 0.74106 0.0
C81 C 0.46369 0.84597 0.73076 0.0
C82 C 0.45445 0.83646 0.70341 0.0
C83 C 0.43483 0.85457 0.68624 0.0
C84 C 0.4262 0.88221 0.69578 0.0
C85 C 0.40543 0.89867 0.67485 0.0
C86 C 0.40231 0.87593 0.65145 0.0
C87 C 0.41929 0.84999 0.65833 0.0
C88 C 0.42043 0.92949 0.66289 0.0
C89 C 0.37623 0.90223 0.69126 0.0
C90 C 0.42597 0.74834 0.61155 0.0
C91 C 0.41128 0.73615 0.58773 0.0
C92 C 0.39133 0.75442 0.5711 0.0
C93 C 0.38601 0.78447 0.57815 0.0
C94 C 0.40048 0.79623 0.60234 0.0
C95 C 0.4201 0.77825 0.61858 0.0
C96 C 0.43247 0.79406 0.64428 0.0
C97 C 0.4174 0.8247 0.6405 0.0
C98 C 0.39869 0.82579 0.61591 0.0
C99 C 0.46605 0.79801 0.64042 0.0
C100 C 0.42285 0.77485 0.67274 0.0
H101 H 0.36773 0.94032 0.64091 0.0
H102 H 0.31376 0.89458 0.55931 0.0
H103 H 0.31742 0.84132 0.60592 0.0
H104 H 0.33874 0.81105 0.5959 0.0
H105 H 0.31953 0.83404 0.56788 0.0
H106 H 0.38542 0.88218 0.54962 0.0
H107 H 0.35583 0.8588 0.53646 0.0
H108 H 0.38901 0.84201 0.55113 0.0
H109 H 0.42657 0.91302 0.73012 0.0
H110 H 0.4784 0.83157 0.74401 0.0
H111 H 0.46247 0.81508 0.69696 0.0
H112 H 0.44471 0.9279 0.66287 0.0
H113 H 0.41498 0.94861 0.67646 0.0
H114 H 0.41462 0.93586 0.63971 0.0
H115 H 0.37084 0.88118 0.70579 0.0
H116 H 0.35715 0.90511 0.67651 0.0
H117 H 0.37769 0.92203 0.70521 0.0
H118 H 0.32793 0.9677 0.61721 0.0
C119 C 0.35683 0.92985 0.62318 0.0
C120 C 0.6456 0.26406 0.90096 0.0
C121 C 0.61871 0.25171 0.89092 0.0
C122 C 0.60268 0.26935 0.86956 0.0
C123 C 0.64157 0.30836 0.86539 0.0
C124 C 0.65654 0.29254 0.88788 0.0
C125 C 0.68471 0.30956 0.8952 0.0
H126 H 0.77892 0.43279 0.86916 0.0
C127 C 0.65969 0.33551 0.85446 0.0
C128 C 0.68487 0.3368 0.87195 0.0
H129 H 0.77836 0.36236 0.94116 0.0
H130 H 0.73719 0.33651 0.91978 0.0
H131 H 0.70665 0.44114 0.86257 0.0
H132 H 0.76099 0.38026 0.81676 0.0
H133 H 0.73689 0.40098 0.7928 0.0
H134 H 0.76554 0.42145 0.81125 0.0
H135 H 0.73679 0.45579 0.83992 0.0
H136 H 0.70235 0.44541 0.82377 0.0
C137 C 0.68213 0.32 0.92681 0.0
C138 C 0.71052 0.28815 0.89098 0.0
C139 C 0.62652 0.39365 0.76104 0.0
C140 C 0.63982 0.41492 0.74024 0.0
C141 C 0.66712 0.42861 0.74771 0.0
C142 C 0.68131 0.41978 0.77471 0.0
C143 C 0.66823 0.39683 0.79436 0.0
C144 C 0.64117 0.38441 0.78702 0.0
C145 C 0.63101 0.35846 0.80815 0.0
C146 C 0.65629 0.35683 0.82968 0.0
C147 C 0.67805 0.37972 0.82231 0.0
C148 C 0.60252 0.36824 0.82277 0.0
C149 C 0.6277 0.32895 0.79104 0.0
C150 C 0.76996 0.41165 0.88004 0.0
C151 C 0.78177 0.39984 0.9072 0.0
C152 C 0.76951 0.37221 0.92059 0.0
C153 C 0.74545 0.35724 0.9082 0.0
C154 C 0.73301 0.36986 0.882 0.0
C155 C 0.74538 0.39636 0.86791 0.0
C156 C 0.72871 0.40578 0.83992 0.0
C157 C 0.70324 0.38209 0.84104 0.0
C158 C 0.70639 0.36078 0.86569 0.0
C159 C 0.71806 0.43889 0.84145 0.0
C160 C 0.74903 0.40216 0.81364 0.0
H161 H 0.6007 0.30893 0.84019 0.0
H162 H 0.65822 0.25145 0.91777 0.0
H163 H 0.70799 0.27695 0.86998 0.0
H164 H 0.73194 0.30061 0.8897 0.0
H165 H 0.71141 0.26967 0.90909 0.0
H166 H 0.65892 0.3204 0.93399 0.0
H167 H 0.69376 0.30432 0.94298 0.0
H168 H 0.69065 0.34388 0.92853 0.0
H169 H 0.60531 0.38306 0.75671 0.0
H170 H 0.67797 0.44525 0.7323 0.0
H171 H 0.70218 0.43057 0.77902 0.0
H172 H 0.60292 0.39348 0.82526 0.0
H173 H 0.5829 0.36274 0.80942 0.0
H174 H 0.59963 0.35757 0.84536 0.0
H175 H 0.64283 0.32991 0.77198 0.0
H176 H 0.63362 0.30772 0.80423 0.0
H177 H 0.60508 0.32601 0.7824 0.0
H178 H 0.58146 0.26113 0.86216 0.0
C179 C 0.61388 0.29734 0.85682 0.0
C180 C 0.97116 0.74386 0.41835 0.0
C181 C 0.97131 0.7502 0.44803 0.0
C182 C 0.95438 0.73139 0.46828 0.0
C183 C 0.93595 0.70174 0.42898 0.0
C184 C 0.9536 0.71939 0.40938 0.0
C185 C 0.95118 0.70911 0.37875 0.0
H186 H 0.88741 0.61449 0.28449 0.0
C187 C 0.91949 0.67902 0.41248 0.0
C188 C 0.92863 0.68287 0.38311 0.0
H189 H 0.95756 0.6819 0.26667 0.0
H190 H 0.95611 0.69586 0.31693 0.0
H191 H 0.91239 0.58613 0.34004 0.0
H192 H 0.84863 0.65671 0.3286 0.0
H193 H 0.83603 0.62893 0.35598 0.0
H194 H 0.84234 0.61762 0.31959 0.0
H195 H 0.87431 0.57672 0.33485 0.0
H196 H 0.88972 0.58083 0.37095 0.0
C197 C 0.98147 0.69773 0.36984 0.0
C198 C 0.93956 0.73619 0.35843 0.0
C199 C 0.8369 0.61398 0.46181 0.0
C200 C 0.81771 0.59134 0.45158 0.0
C201 C 0.82157 0.5814 0.42331 0.0
C202 C 0.84337 0.59492 0.40483 0.0
C203 C 0.86158 0.61855 0.41476 0.0
C204 C 0.85892 0.62699 0.44316 0.0
C205 C 0.88141 0.65131 0.45028 0.0
C206 C 0.89696 0.65706 0.42098 0.0
C207 C 0.88484 0.63817 0.40022 0.0
C208 C 0.90196 0.6374 0.47469 0.0
C209 C 0.86508 0.68 0.45866 0.0
C210 C 0.90192 0.63281 0.29128 0.0
C211 C 0.92229 0.64751 0.27169 0.0
C212 C 0.94156 0.67048 0.28149 0.0
C213 C 0.94077 0.67838 0.31065 0.0
C214 C 0.92076 0.66284 0.33026 0.0
C215 C 0.90175 0.64054 0.32039 0.0
C216 C 0.8831 0.62519 0.34451 0.0
C217 C 0.89411 0.64187 0.37058 0.0
C218 C 0.91591 0.6641 0.36207 0.0
C219 C 0.88993 0.59038 0.34779 0.0
C220 C 0.85074 0.63219 0.33692 0.0
H221 H 0.92375 0.69407 0.47518 0.0
H222 H 0.98429 0.75783 0.40245 0.0
H223 H 0.92157 0.74763 0.3693 0.0
H224 H 0.93009 0.72885 0.33772 0.0
H225 H 0.9572 0.75383 0.35313 0.0
H226 H 0.99408 0.68856 0.38935 0.0
H227 H 0.99491 0.71672 0.35858 0.0
H228 H 0.97966 0.67829 0.35564 0.0
H229 H 0.83448 0.62168 0.48364 0.0
H230 H 0.80684 0.56407 0.41502 0.0
H231 H 0.84473 0.5869 0.38329 0.0
H232 H 0.90207 0.61182 0.47515 0.0
H233 H 0.89506 0.64346 0.49674 0.0
H234 H 0.92515 0.64485 0.47112 0.0
H235 H 0.84705 0.6854 0.44276 0.0
H236 H 0.87922 0.70099 0.4583 0.0
H237 H 0.85529 0.67597 0.48086 0.0
H238 H 0.95412 0.73608 0.49122 0.0
C239 C 0.93664 0.70721 0.45889 0.0
C240 C 0.87193 0.76663 0.91558 0.0
C241 C 0.89767 0.75216 0.90721 0.0
C242 C 0.91169 0.76438 0.88115 0.0
C243 C 0.87494 0.80387 0.87278 0.0
C244 C 0.86111 0.79219 0.89827 0.0
C245 C 0.83441 0.81031 0.90456 0.0
H246 H 0.73836 0.92272 0.86223 0.0
C247 C 0.85782 0.83036 0.8596 0.0
C248 C 0.83383 0.83407 0.87825 0.0
H249 H 0.73736 0.86411 0.94288 0.0
H250 H 0.7816 0.84012 0.92818 0.0
H251 H 0.75486 0.87268 0.82013 0.0
H252 H 0.81094 0.93711 0.86282 0.0
H253 H 0.82019 0.9381 0.82535 0.0
H254 H 0.78406 0.94844 0.83551 0.0
H255 H 0.75848 0.91236 0.80653 0.0
H256 H 0.78338 0.88386 0.79568 0.0
C257 C 0.80725 0.78821 0.90505 0.0
C258 C 0.83982 0.82567 0.93366 0.0
C259 C 0.89169 0.89104 0.76364 0.0
C260 C 0.87886 0.91471 0.74505 0.0
C261 C 0.85038 0.92354 0.75265 0.0
C262 C 0.83624 0.9114 0.77838 0.0
C263 C 0.84985 0.88913 0.79718 0.0
C264 C 0.87667 0.87844 0.78922 0.0
C265 C 0.88609 0.85217 0.8106 0.0
C266 C 0.86137 0.85018 0.83324 0.0
C267 C 0.84029 0.87234 0.82541 0.0
C268 C 0.88703 0.82271 0.79372 0.0
C269 C 0.91576 0.86144 0.82436 0.0
C270 C 0.7476 0.90474 0.87683 0.0
C271 C 0.73386 0.89544 0.90391 0.0
C272 C 0.74727 0.87213 0.92212 0.0
C273 C 0.77301 0.85804 0.91342 0.0
C274 C 0.78617 0.86737 0.88618 0.0
C275 C 0.7736 0.89076 0.86863 0.0
C276 C 0.79091 0.89845 0.84078 0.0
C277 C 0.81597 0.87598 0.84441 0.0
C278 C 0.81295 0.85741 0.87093 0.0
C279 C 0.77099 0.89178 0.81426 0.0
C280 C 0.80209 0.93234 0.84081 0.0
H281 H 0.91265 0.79805 0.84482 0.0
H282 H 0.86014 0.75815 0.93515 0.0
H283 H 0.86333 0.83253 0.93612 0.0
H284 H 0.82792 0.84726 0.93465 0.0
H285 H 0.83374 0.80967 0.95291 0.0
H286 H 0.80781 0.77339 0.88629 0.0
H287 H 0.80658 0.77288 0.92563 0.0
H288 H 0.78645 0.80041 0.9028 0.0
H289 H 0.91303 0.88267 0.75873 0.0
H290 H 0.83842 0.93991 0.73858 0.0
H291 H 0.81496 0.91981 0.78259 0.0
H292 H 0.86937 0.82248 0.77681 0.0
H293 H 0.90829 0.82129 0.78232 0.0
H294 H 0.88303 0.8014 0.80798 0.0
H295 H 0.9154 0.88558 0.83075 0.0
H296 H 0.9209 0.84718 0.84464 0.0
H297 H 0.93393 0.85996 0.80854 0.0
H298 H 0.93173 0.7546 0.87411 0.0
C299 C 0.9006 0.78991 0.8641 0.0
C300 C 0.70335 0.0934 0.45127 0.0
C301 C 0.70913 0.06329 0.4446 0.0
C302 C 0.69071 0.0485 0.42487 0.0
C303 C 0.66225 0.09454 0.41736 0.0
C304 C 0.68007 0.10866 0.43723 0.0
C305 C 0.67294 0.14182 0.43954 0.0
H306 H 0.58162 0.25812 0.40815 0.0
C307 C 0.64144 0.11751 0.40515 0.0
C308 C 0.64749 0.14517 0.41811 0.0
H309 H 0.6632 0.25869 0.45774 0.0
H310 H 0.67067 0.20699 0.44745 0.0
H311 H 0.55779 0.1857 0.42132 0.0
H312 H 0.6127 0.23368 0.35586 0.0
H313 H 0.59892 0.20089 0.33962 0.0
H314 H 0.57399 0.22943 0.35031 0.0
H315 H 0.5466 0.21607 0.39511 0.0
H316 H 0.54665 0.17686 0.38549 0.0
C317 C 0.66347 0.14548 0.47152 0.0
C318 C 0.69997 0.16227 0.42926 0.0
C319 C 0.57266 0.09035 0.3233 0.0
C320 C 0.55439 0.10819 0.30454 0.0
C321 C 0.54869 0.13862 0.31074 0.0
C322 C 0.56181 0.15138 0.33512 0.0
C323 C 0.58142 0.13377 0.35277 0.0
C324 C 0.58632 0.10368 0.34685 0.0
C325 C 0.60995 0.08934 0.36587 0.0
C326 C 0.61886 0.11593 0.38383 0.0
C327 C 0.60187 0.14177 0.37639 0.0
C328 C 0.59596 0.06206 0.38513 0.0
C329 C 0.6351 0.08039 0.34575 0.0
C330 C 0.60124 0.24758 0.41689 0.0
C331 C 0.62081 0.26294 0.43546 0.0
C332 C 0.64638 0.24756 0.4452 0.0
C333 C 0.65116 0.21732 0.43875 0.0
C334 C 0.63092 0.20221 0.4213 0.0
C335 C 0.60716 0.21769 0.40955 0.0
C336 C 0.59072 0.19937 0.38763 0.0
C337 C 0.6073 0.16949 0.39026 0.0
C338 C 0.63045 0.17127 0.41044 0.0
C339 C 0.55862 0.19423 0.39775 0.0
C340 C 0.59401 0.21664 0.35676 0.0
H341 H 0.654 0.05158 0.39631 0.0
H342 H 0.71772 0.10551 0.46578 0.0
H343 H 0.71491 0.14991 0.41536 0.0
H344 H 0.69376 0.18289 0.41512 0.0
H345 H 0.713 0.1697 0.44823 0.0
H346 H 0.64756 0.12674 0.47907 0.0
H347 H 0.68267 0.14427 0.48659 0.0
H348 H 0.65236 0.16721 0.47419 0.0
H349 H 0.57797 0.0672 0.31842 0.0
H350 H 0.53477 0.1527 0.29626 0.0
H351 H 0.55694 0.17471 0.3388 0.0
H352 H 0.57369 0.06772 0.39241 0.0
H353 H 0.59373 0.04112 0.37275 0.0
H354 H 0.60832 0.05647 0.40561 0.0
H355 H 0.63679 0.09643 0.32564 0.0
H356 H 0.65694 0.08203 0.35614 0.0
H357 H 0.63143 0.05674 0.33863 0.0
H358 H 0.69507 0.0253 0.41939 0.0
C359 C 0.66705 0.06386 0.41145 0.0
C360 C 0.40043 0.61875 0.25736 0.0
C361 C 0.39235 0.59019 0.27178 0.0
C362 C 0.36647 0.57507 0.26238 0.0
C363 C 0.35908 0.61614 0.22352 0.0
C364 C 0.38397 0.63094 0.23358 0.0
C365 C 0.39156 0.66032 0.21586 0.0
H366 H 0.36352 0.76891 0.10737 0.0
C367 C 0.34788 0.63548 0.19746 0.0
C368 C 0.36717 0.6613 0.1933 0.0
H369 H 0.43559 0.76437 0.16941 0.0
H370 H 0.41736 0.71585 0.19036 0.0
H371 H 0.31293 0.74198 0.15267 0.0
H372 H 0.36686 0.69719 0.093 0.0
H373 H 0.33224 0.67868 0.09258 0.0
H374 H 0.3359 0.71909 0.08058 0.0
H375 H 0.30859 0.74679 0.11351 0.0
H376 H 0.29053 0.71541 0.135 0.0
C377 C 0.38993 0.68702 0.23643 0.0
C378 C 0.422 0.6568 0.20162 0.0
C379 C 0.25778 0.60296 0.13736 0.0
C380 C 0.24462 0.61648 0.11157 0.0
C381 C 0.25548 0.64547 0.09991 0.0
C382 C 0.27925 0.66043 0.11288 0.0
C383 C 0.29285 0.64638 0.13788 0.0
C384 C 0.28203 0.61825 0.15005 0.0
C385 C 0.30007 0.60691 0.1765 0.0
C386 C 0.32356 0.63255 0.17773 0.0
C387 C 0.31902 0.65569 0.15487 0.0
C388 C 0.28023 0.60479 0.2038 0.0
C389 C 0.31336 0.5759 0.17025 0.0
C390 C 0.37538 0.75721 0.12533 0.0
C391 C 0.40075 0.77109 0.13718 0.0
C392 C 0.41561 0.75485 0.16035 0.0
C393 C 0.40501 0.72635 0.17248 0.0
C394 C 0.37921 0.71323 0.16135 0.0
C395 C 0.36502 0.72824 0.13784 0.0
C396 C 0.3383 0.7098 0.12875 0.0
C397 C 0.33867 0.68182 0.15112 0.0
C398 C 0.36265 0.68427 0.17012 0.0
C399 C 0.31103 0.72941 0.13239 0.0
C400 C 0.34325 0.70079 0.09702 0.0
H401 H 0.33062 0.57515 0.23189 0.0
H402 H 0.41971 0.6315 0.26422 0.0
H403 H 0.42622 0.63228 0.19821 0.0
H404 H 0.42377 0.66869 0.1794 0.0
H405 H 0.43999 0.66531 0.21565 0.0
H406 H 0.37231 0.68234 0.25301 0.0
H407 H 0.41087 0.69013 0.24851 0.0
H408 H 0.38422 0.7092 0.22476 0.0
H409 H 0.25009 0.58061 0.14674 0.0
H410 H 0.24569 0.65648 0.0803 0.0
H411 H 0.2864 0.68229 0.10259 0.0
H412 H 0.26712 0.62586 0.20427 0.0
H413 H 0.26475 0.58462 0.20364 0.0
H414 H 0.29281 0.6031 0.22452 0.0
H415 H 0.32274 0.57725 0.14777 0.0
H416 H 0.33148 0.56948 0.18534 0.0
H417 H 0.29639 0.55704 0.17178 0.0
H418 H 0.35956 0.55303 0.27309 0.0
C419 C 0.34982 0.58787 0.23833 0.0
C420 C 0.05298 0.2854 0.60836 0.0
C421 C 0.05134 0.27409 0.58039 0.0
C422 C 0.06781 0.2888 0.55721 0.0
C423 C 0.08896 0.32429 0.59023 0.0
C424 C 0.07161 0.31089 0.61267 0.0
C425 C 0.0755 0.32703 0.64054 0.0
H426 H 0.15187 0.43223 0.71477 0.0
C427 C 0.10706 0.3491 0.60198 0.0
C428 C 0.09898 0.3513 0.63134 0.0
H429 H 0.07491 0.37844 0.74427 0.0
H430 H 0.073 0.35449 0.69828 0.0
H431 H 0.12545 0.45467 0.65777 0.0
H432 H 0.18297 0.37955 0.67752 0.0
H433 H 0.19633 0.40148 0.64621 0.0
H434 H 0.19304 0.41946 0.68009 0.0
H435 H 0.16441 0.46086 0.65892 0.0
H436 H 0.14553 0.45193 0.62555 0.0
C437 C 0.04611 0.34164 0.64769 0.0
C438 C 0.08652 0.3035 0.6649 0.0
C439 C 0.19218 0.39738 0.54195 0.0
C440 C 0.21352 0.41988 0.54801 0.0
C441 C 0.21146 0.43564 0.57359 0.0
C442 C 0.18919 0.42792 0.59387 0.0
C443 C 0.1688 0.4042 0.58844 0.0
C444 C 0.16976 0.39019 0.56233 0.0
C445 C 0.14535 0.3665 0.55991 0.0
C446 C 0.13056 0.36765 0.58953 0.0
C447 C 0.14481 0.38932 0.60624 0.0
C448 C 0.12504 0.37746 0.53405 0.0
C449 C 0.15924 0.33495 0.55657 0.0
C450 C 0.1344 0.41545 0.71152 0.0
C451 C 0.1135 0.40749 0.73344 0.0
C452 C 0.09164 0.38488 0.72811 0.0
C453 C 0.09027 0.37127 0.70118 0.0
C454 C 0.11068 0.38062 0.67915 0.0
C455 C 0.13213 0.40251 0.68457 0.0
C456 C 0.15057 0.41174 0.65817 0.0
C457 C 0.13674 0.39171 0.63584 0.0
C458 C 0.11376 0.37304 0.64832 0.0
C459 C 0.14658 0.4466 0.64962 0.0
C460 C 0.1825 0.40284 0.6657 0.0
H461 H 0.09909 0.32365 0.54364 0.0
H462 H 0.04016 0.27457 0.62637 0.0
H463 H 0.10481 0.29027 0.65665 0.0
H464 H 0.09518 0.31444 0.68429 0.0
H465 H 0.06871 0.28679 0.67222 0.0
H466 H 0.03312 0.3474 0.62742 0.0
H467 H 0.03242 0.32568 0.66239 0.0
H468 H 0.04929 0.36381 0.65776 0.0
H469 H 0.19351 0.38508 0.52229 0.0
H470 H 0.22798 0.45289 0.57855 0.0
H471 H 0.18933 0.44005 0.61341 0.0
H472 H 0.12759 0.40269 0.52833 0.0
H473 H 0.12985 0.36571 0.51395 0.0
H474 H 0.10153 0.37372 0.53952 0.0
H475 H 0.17723 0.33101 0.57284 0.0
H476 H 0.14367 0.31526 0.56046 0.0
H477 H 0.16862 0.33402 0.5343 0.0
H478 H 0.06679 0.28022 0.53556 0.0
C479 C 0.08664 0.31382 0.56199 0.0
Co480 Co 0.99602 0.0135 0.50194 0.0
C481 C 0.02237 0.95624 0.50258 0.0
Co482 Co 0.03602 0.00909 0.52862 0.0
C483 C 0.93497 0.02123 0.48954 0.0
C484 C 0.95744 1.00345 0.45382 0.0
N485 N 0.96173 0.01388 0.48059 0.0
N486 N 0.91394 0.01541 0.4696 0.0
C487 C 0.92811 1.00436 0.447 0.0
H488 H 0.93108 0.03014 0.51058 0.0
H489 H 0.9744 0.99462 0.44064 0.0
C490 C 1.00933 0.06627 0.52828 0.0
N491 N 0.07048 0.00841 0.54967 0.0
C492 C 0.09646 0.99884 0.54066 0.0
C493 C 0.07584 0.01896 0.57621 0.0
N494 N 0.11801 1.00313 0.56041 0.0
C495 C 0.10506 0.01571 0.58291 0.0
C496 C 0.04546 0.03163 0.46866 0.0
O497 O 0.99093 0.05463 0.511 0.0
O498 O 0.0305 0.05024 0.53825 0.0
O499 O 0.05759 0.02457 0.49342 0.0
O500 O 0.01772 0.0284 0.46691 0.0
O501 O 0.04127 0.968 0.51921 0.0
H502 H 0.05966 0.02893 0.58952 0.0
H503 H 0.09938 0.98892 0.51992 0.0
O504 O 1.00115 0.97227 0.49289 0.0
O505 O 0.97436 0.99893 0.53739 0.0
O506 O 0.01446 0.9936 0.56352 0.0
C507 C 0.98665 0.99126 0.56193 0.0
H508 H 0.91799 0.99631 0.4274 0.0
H509 H 0.11598 0.02277 0.6025 0.0
Co510 Co 0.4973 1.00485 0.99613 0.0
C511 C 0.49478 0.95947 0.04155 0.0
Co512 Co 0.52782 0.01475 0.0317 0.0
C513 C 0.47527 0.97106 0.9492 0.0
C514 C 0.45678 0.01574 0.94837 0.0
N515 N 0.47441 0.99646 0.96424 0.0
N516 N 0.45945 0.97394 0.92422 0.0
C517 C 0.44767 1.00198 0.92358 0.0
H518 H 0.48892 0.9517 0.95539 0.0
H519 H 0.4522 0.0389 0.95366 0.0
C520 C 0.53011 0.06018 0.98621 0.0
N521 N 0.55046 0.02355 0.06371 0.0
C522 C 0.54081 0.02227 0.09158 0.0
C523 C 0.57749 0.03681 0.06453 0.0
N524 N 0.56035 0.03478 0.10974 0.0
C525 C 0.58357 0.04395 0.09288 0.0
C526 C 0.55567 0.98255 0.99018 0.0
O527 O 0.51019 0.04286 0.97606 0.0
O528 O 0.54109 0.05258 0.01124 0.0
O529 O 0.56022 0.99365 0.01491 0.0
O530 O 0.53008 0.98484 0.97894 0.0
O531 O 0.51429 0.97704 0.0521 0.0
H532 H 0.59116 0.04242 0.04553 0.0
H533 H 0.51894 0.01429 0.09804 0.0
O534 O 0.48449 0.96672 0.01615 0.0
O535 O 0.46463 0.02512 0.01355 0.0
O536 O 0.4955 0.03576 0.04826 0.0
C537 C 0.46962 0.03722 0.03769 0.0
H538 H 0.43441 0.01225 0.90593 0.0
H539 H 0.60306 0.05589 0.1003 0.0
Co540 Co 0.53518 0.51805 0.50323 0.0
C541 C 0.49726 0.52126 0.45437 0.0
Co542 Co 0.49721 0.48595 0.5076 0.0
C543 C 0.59506 0.53672 0.50586 0.0
C544 C 0.56946 0.5738 0.48746 0.0
N545 N 0.56739 0.54442 0.49898 0.0
N546 N 0.61461 0.55983 0.49871 0.0
C547 C 0.59853 0.58336 0.48723 0.0
H548 H 0.60069 0.51421 0.51554 0.0
H549 H 0.55116 0.58705 0.47902 0.0
C550 C 0.53544 0.48206 0.55617 0.0
N551 N 0.46539 0.45905 0.51167 0.0
C552 C 0.43725 0.46573 0.5058 0.0
C553 C 0.46512 0.42849 0.51899 0.0
N554 N 0.41926 0.44055 0.50894 0.0
C555 C 0.43679 0.41703 0.51734 0.0
C556 C 0.54495 0.4609 0.48314 0.0
O557 O 0.54843 0.50465 0.54198 0.0
O558 O 0.51243 0.47023 0.54509 0.0
O559 O 0.51811 0.45582 0.48916 0.0
O560 O 0.55691 0.48668 0.48788 0.0
O561 O 0.48242 0.50144 0.47031 0.0
H562 H 0.48435 0.41533 0.52465 0.0
H563 H 0.43024 0.48879 0.4994 0.0
O564 O 0.52171 0.53125 0.46412 0.0
O565 O 0.51359 0.54905 0.51887 0.0
O566 O 0.47636 0.51638 0.52597 0.0
C567 C 0.4877 0.54314 0.52804 0.0
H568 H 0.60715 0.60543 0.4781 0.0
H569 H 0.42986 0.39315 0.52156 0.0
Co570 Co 0.02021 0.50754 0.98663 0.0
C571 C 0.96293 0.4841 0.99625 0.0
Co572 Co 1.00597 0.50876 0.03235 0.0
C573 C 0.05433 0.49433 0.93571 0.0
C574 C 0.0159 0.52002 0.92488 0.0
N575 N 0.03107 0.50693 0.94783 0.0
N576 N 0.05427 0.49966 0.90627 0.0
C577 C 0.03027 0.51579 0.89935 0.0
H578 H 0.07098 0.48176 0.94813 0.0
H579 H 0.9955 0.53173 0.92654 0.0
C580 C 0.06326 0.53223 0.02273 0.0
N581 N 0.99505 0.50991 0.07121 0.0
C582 C 0.97526 0.52791 0.0828 0.0
C583 C 1.00951 0.49674 0.09457 0.0
N584 N 0.97732 0.52695 0.1123 0.0
C585 C 0.99868 0.50718 0.1198 0.0
C586 C 0.03466 0.454 0.02182 0.0
O587 O 0.05771 0.52583 0.99644 0.0
O588 O 0.04333 0.52706 0.04192 0.0
O589 O 0.02188 0.46807 0.04129 0.0
O590 O 0.03588 0.46685 0.99578 0.0
O591 O 0.96846 0.49045 0.02259 0.0
H592 H 0.02814 0.48216 0.09335 0.0
H593 H 0.96118 0.54328 0.06985 0.0
O594 O 0.98287 0.48929 0.97708 0.0
O595 O 1.00446 0.54824 0.97769 0.0
O596 O 0.99023 0.54953 0.02297 0.0
C597 C 0.99155 0.56236 0.99698 0.0
H598 H 0.02343 0.52344 0.87731 0.0
H599 H 1.00692 0.50194 0.14184 0.0
H600 H 0.0797 0.10669 0.30367 0.0
H601 H 0.17204 0.09901 0.32535 0.0
H602 H 0.15899 0.07564 0.37449 0.0
H603 H 0.05637 0.12643 0.37537 0.0
H604 H 0.02232 0.10446 0.37471 0.0
H605 H 0.03866 0.12021 0.34084 0.0
H606 H 0.03804 0.06584 0.32157 0.0
H607 H 0.02171 0.04993 0.35539 0.0
H608 H 0.05534 0.03482 0.34289 0.0
H609 H 0.1361 0.05391 0.42247 0.0
H610 H 0.10536 0.03468 0.46451 0.0
H611 H 0.02724 0.05557 0.41303 0.0
C612 C 0.09726 0.10024 0.31872 0.0
C613 C 0.12712 0.10475 0.31001 0.0
C614 C 0.14909 0.0955 0.33075 0.0
C615 C 0.14186 0.08232 0.35901 0.0
C616 C 0.1124 0.07823 0.36676 0.0
C617 C 0.0904 0.08683 0.3472 0.0
C618 C 0.06043 0.07977 0.36122 0.0
C619 C 0.04344 0.10949 0.36314 0.0
C620 C 0.04284 0.05619 0.34425 0.0
C621 C 0.06903 0.06601 0.39171 0.0
C622 C 0.09918 0.06545 0.39438 0.0
C623 C 0.11248 0.05421 0.42049 0.0
C624 C 0.09472 0.0433 0.4444 0.0
C625 C 0.06368 0.04339 0.44245 0.0
C626 C 0.05081 0.05495 0.41547 0.0
H627 H 0.46389 0.93156 0.7592 0.0
H628 H 0.45749 0.8352 0.79156 0.0
H629 H 0.46129 0.85042 0.8424 0.0
H630 H 0.5125 0.95904 0.81664 0.0
H631 H 0.49338 0.99455 0.81769 0.0
H632 H 0.49487 0.97569 0.784 0.0
H633 H 0.43815 0.9751 0.78089 0.0
H634 H 0.43643 0.99351 0.81476 0.0
H635 H 0.41701 0.95733 0.81114 0.0
H636 H 0.46161 0.87657 0.88995 0.0
H637 H 0.45908 0.91165 0.93006 0.0
H638 H 0.46124 0.99032 0.86597 0.0
C639 C 0.46356 0.91355 0.77689 0.0
C640 C 0.4604 0.88215 0.77127 0.0
C641 C 0.46043 0.85939 0.79518 0.0
C642 C 0.46233 0.86781 0.82419 0.0
C643 C 0.46413 0.89906 0.82889 0.0
C644 C 0.4649 0.92155 0.80586 0.0
C645 C 0.46458 0.95351 0.81663 0.0
C646 C 0.49303 0.97177 0.80825 0.0
C647 C 0.43743 0.97087 0.80518 0.0
C648 C 0.4629 0.94553 0.84934 0.0
C649 C 0.46308 0.91404 0.85606 0.0
C650 C 0.46157 0.90126 0.88494 0.0
C651 C 0.46009 0.92126 0.90751 0.0
C652 C 0.45966 0.95355 0.90098 0.0
C653 C 0.46101 0.9657 0.87151 0.0
H654 H 0.63464 0.46968 0.70393 0.0
H655 H 0.61297 0.37158 0.70843 0.0
H656 H 0.58357 0.37891 0.66355 0.0
H657 H 0.56627 0.4966 0.67602 0.0
H658 H 0.58136 0.52652 0.65059 0.0
H659 H 0.60149 0.51434 0.68328 0.0
H660 H 0.64608 0.5025 0.65179 0.0
H661 H 0.62618 0.515 0.61902 0.0
H662 H 0.64126 0.47711 0.62263 0.0
H663 H 0.55276 0.39649 0.62105 0.0
H664 H 0.52845 0.4225 0.57808 0.0
H665 H 0.5727 0.50871 0.59612 0.0
C666 C 0.62405 0.44972 0.69523 0.0
C667 C 0.62552 0.42015 0.71057 0.0
C668 C 0.61144 0.39467 0.69803 0.0
C669 C 0.59473 0.39851 0.6723 0.0
C670 C 0.59269 0.42791 0.65848 0.0
C671 C 0.60749 0.45303 0.66893 0.0
C672 C 0.6019 0.48192 0.64889 0.0
C673 C 0.58686 0.50629 0.66571 0.0
C674 C 0.63056 0.4949 0.63474 0.0
C675 C 0.58131 0.46903 0.6261 0.0
C676 C 0.57613 0.43785 0.63241 0.0
C677 C 0.55693 0.42084 0.61561 0.0
C678 C 0.54302 0.43589 0.59133 0.0
C679 C 0.54861 0.46762 0.58362 0.0
C680 C 0.56806 0.48439 0.60136 0.0
H681 H 0.97213 0.62854 0.24787 0.0
H682 H 0.8794 0.63894 0.23063 0.0
H683 H 0.8841 0.61239 0.18486 0.0
H684 H 0.99735 0.63572 0.1704 0.0
H685 H 0.02422 0.60661 0.17777 0.0
H686 H 0.01418 0.63076 0.20619 0.0
H687 H 1.00114 0.582 0.24029 0.0
H688 H 1.01065 0.55773 0.21189 0.0
H689 H 0.97473 0.55405 0.2281 0.0
H690 H 0.89857 0.58087 0.14309 0.0
H691 H 0.92137 0.54597 0.10985 0.0
H692 H 1.0036 0.55458 0.15678 0.0
C693 C 0.95306 0.62618 0.23389 0.0
C694 C 0.92554 0.63618 0.24231 0.0
C695 C 0.90074 0.63166 0.2242 0.0
C696 C 0.90322 0.61668 0.19823 0.0
C697 C 0.93061 0.60628 0.19094 0.0
C698 C 0.9551 0.61093 0.20825 0.0
C699 C 0.98133 0.5949 0.19737 0.0
C700 C 1.00571 0.6184 0.18733 0.0
C701 C 0.9926 0.57074 0.22081 0.0
C702 C 0.96767 0.57987 0.17166 0.0
C703 C 0.93856 0.58708 0.16789 0.0
C704 C 0.92139 0.57523 0.14575 0.0
C705 C 0.93441 0.55547 0.12706 0.0
C706 C 0.96402 0.5474 0.13111 0.0
C707 C 0.98077 0.55998 0.15356 0.0
H708 H 0.30668 0.09384 0.07789 0.0
H709 H 0.34397 0.11527 0.16173 0.0
H710 H 0.39249 0.09984 0.14571 0.0
H711 H 0.34897 0.02587 0.07085 0.0
H712 H 0.35394 0.03212 0.03172 0.0
H713 H 0.32215 0.04657 0.04866 0.0
H714 H 0.33514 0.10149 0.02601 0.0
H715 H 0.36695 0.08718 1.00897 0.0
H716 H 0.37088 0.11838 0.0326 0.0
H717 H 0.4371 0.08149 0.12155 0.0
H718 H 0.47468 0.05978 0.09165 0.0
H719 H 0.41031 0.04724 0.0228 0.0
C720 C 0.32519 0.09563 0.09267 0.0
C721 C 0.32135 0.10607 0.12118 0.0
C722 C 0.34615 0.10746 0.13992 0.0
C723 C 0.37392 0.09875 0.13095 0.0
C724 C 0.37696 0.08826 0.10306 0.0
C725 C 0.35332 0.08648 0.08413 0.0
C726 C 0.3628 0.07303 0.05579 0.0
C727 C 0.34596 0.04259 0.05151 0.0
C728 C 0.35869 0.09642 0.02926 0.0
C729 C 0.39531 0.06756 0.06184 0.0
C730 C 0.40287 0.07681 0.08923 0.0
C731 C 0.43138 0.07421 0.10006 0.0
C732 C 0.45272 0.06178 0.08273 0.0
C733 C 0.4459 0.05164 0.05459 0.0
C734 C 0.41655 0.05473 0.04408 0.0
H735 H 0.27393 0.95301 0.6197 0.0
H736 H 0.29923 0.94405 0.52952 0.0
H737 H 0.25131 0.96414 0.51248 0.0
H738 H 0.2013 0.92704 0.6119 0.0
H739 H 0.18633 0.9528 0.6366 0.0
H740 H 0.22351 0.94073 0.64127 0.0
H741 H 0.24192 0.99779 0.63818 0.0
H742 H 0.20474 0.01008 0.63364 0.0
H743 H 0.23205 0.02317 0.60688 0.0
H744 H 0.1997 0.98289 0.50588 0.0
H745 H 0.1483 0.99766 0.50998 0.0
H746 H 0.15693 0.99204 0.60493 0.0
C747 C 0.26969 0.95603 0.59632 0.0
C748 C 0.29033 0.94748 0.57583 0.0
C749 C 0.28365 0.95068 0.54548 0.0
C750 C 0.25661 0.96213 0.53565 0.0
C751 C 0.23659 0.97004 0.55653 0.0
C752 C 0.24284 0.9671 0.58623 0.0
C753 C 0.21699 0.97512 0.60435 0.0
C754 C 0.20641 0.94726 0.62471 0.0
C755 C 0.22437 1.00322 0.62178 0.0
C756 C 0.19503 0.9828 0.58023 0.0
C757 C 0.20677 0.97999 0.5528 0.0
C758 C 0.1903 0.9852 0.52725 0.0
C759 C 0.16101 0.99332 0.52985 0.0
C760 C 0.14841 0.99589 0.55782 0.0
C761 C 0.16588 0.99073 0.58323 0.0
H762 H 0.83758 0.42034 0.88848 0.0
H763 H 0.7792 0.41603 0.9632 0.0
H764 H 0.81858 0.43749 0.99344 0.0
H765 H 0.90152 0.39772 0.92871 0.0
H766 H 0.92668 0.42324 0.90776 0.0
H767 H 0.89348 0.40957 0.89091 0.0
H768 H 0.87877 0.46577 0.87695 0.0
H769 H 0.91209 0.4796 0.89352 0.0
H770 H 0.87719 0.49251 0.90511 0.0
H771 H 0.86479 0.45646 0.0168 0.0
H772 H 0.91432 0.47433 0.03099 0.0
H773 H 0.944 0.46702 0.94178 0.0
C774 C 0.833 0.42455 0.91102 0.0
C775 C 0.80517 0.41653 0.92344 0.0
C776 C 0.80027 0.4219 0.95321 0.0
C777 C 0.82255 0.43409 0.97061 0.0
C778 C 0.84989 0.44098 0.95807 0.0
C779 C 0.85524 0.43669 0.92891 0.0
C780 C 0.88704 0.44526 0.92139 0.0
C781 C 0.90312 0.41728 0.91162 0.0
C782 C 0.88887 0.4724 0.89784 0.0
C783 C 0.89862 0.45469 0.95087 0.0
C784 C 0.87674 0.45203 0.97167 0.0
C785 C 0.88207 0.45882 1.00063 0.0
C786 C 0.91038 0.46887 1.00854 0.0
C787 C 0.93327 0.47215 0.98765 0.0
C788 C 0.92711 0.46482 0.95838 0.0
H789 H 0.77538 0.62606 0.47231 0.0
H790 H 0.80093 0.53169 0.4669 0.0
H791 H 0.75273 0.51314 0.48657 0.0
H792 H 0.72577 0.61212 0.53889 0.0
H793 H 0.70006 0.63948 0.52331 0.0
H794 H 0.73863 0.64509 0.51575 0.0
H795 H 0.72734 0.64793 0.45998 0.0
H796 H 0.68892 0.64188 0.46727 0.0
H797 H 0.70749 0.61637 0.4448 0.0
H798 H 0.70012 0.50525 0.49804 0.0
H799 H 0.64672 0.50798 0.5006 0.0
H800 H 0.65434 0.60783 0.49826 0.0
C801 C 0.7712 0.60151 0.4766 0.0
C802 C 0.79182 0.58018 0.46873 0.0
C803 C 0.78538 0.54823 0.47326 0.0
C804 C 0.75817 0.53756 0.48447 0.0
C805 C 0.73776 0.55921 0.49095 0.0
C806 C 0.74399 0.59054 0.4874 0.0
C807 C 0.71698 0.60894 0.49194 0.0
C808 C 0.72058 0.6275 0.5191 0.0
C809 C 0.70977 0.62999 0.46435 0.0
C810 C 0.6943 0.58308 0.49708 0.0
C811 C 0.70688 0.55461 0.49708 0.0
C812 C 0.69009 0.52737 0.49886 0.0
C813 C 0.65962 0.52922 0.50038 0.0
C814 C 0.64609 0.55818 0.49988 0.0
C815 C 0.66388 0.58536 0.49873 0.0
H816 H 0.10843 0.31691 0.12564 0.0
H817 H 0.12802 0.27468 0.04525 0.0
H818 H 0.10348 0.31651 0.01649 0.0
H819 H 0.03564 0.34403 0.10179 0.0
H820 H 0.03945 0.37961 0.11941 0.0
H821 H 0.05801 0.34592 0.13432 0.0
H822 H 0.10745 0.37658 0.13134 0.0
H823 H 0.08904 0.41031 0.11634 0.0
H824 H 0.11902 0.39555 0.09672 0.0
H825 H 0.079 0.36428 0.9954 0.0
H826 H 0.05432 0.41341 0.98395 0.0
H827 H 0.04791 0.42555 0.07707 0.0
C828 C 0.10725 0.31625 0.10203 0.0
C829 C 0.1208 0.29231 0.08792 0.0
C830 C 0.11864 0.29279 0.05684 0.0
C831 C 0.10449 0.31649 0.04016 0.0
C832 C 0.09205 0.33994 0.05457 0.0
C833 C 0.093 0.33999 0.08482 0.0
C834 C 0.07796 0.3684 0.09451 0.0
C835 C 0.05117 0.35892 0.11365 0.0
C836 C 0.09966 0.38892 0.11069 0.0
C837 C 0.06871 0.38425 0.06502 0.0
C838 C 0.07718 0.36735 0.04232 0.0
C839 C 0.07205 0.37754 0.01305 0.0
C840 C 0.05798 0.40563 1.00673 0.0
C841 C 0.04878 0.42355 0.02944 0.0
C842 C 0.05423 0.4124 0.05907 0.0
H843 H 0.61616 0.22258 0.94749 0.0
H844 H 0.59571 0.20898 0.85631 0.0
H845 H 0.57123 0.15934 0.87119 0.0
H846 H 0.63042 0.14031 0.96848 0.0
H847 H 0.61453 0.14127 1.00438 0.0
H848 H 0.63167 0.17559 0.98676 0.0
H849 H 0.58388 0.20496 0.99277 0.0
H850 H 0.56651 0.17066 1.0101 0.0
H851 H 0.55002 0.19006 0.97812 0.0
H852 H 0.54527 0.11392 0.89523 0.0
H853 H 0.52401 0.07107 0.92718 0.0
H854 H 0.56308 0.11042 1.00337 0.0
C855 C 0.60696 0.20887 0.93069 0.0
C856 C 0.60739 0.22009 0.90072 0.0
C857 C 0.59505 0.20137 0.87943 0.0
C858 C 0.58117 0.173 0.88763 0.0
C859 C 0.58014 0.16313 0.91726 0.0
C860 C 0.59311 0.18005 0.93851 0.0
C861 C 0.58856 0.16365 0.96884 0.0
C862 C 0.61805 0.15467 0.98295 0.0
C863 C 0.57121 0.18352 0.98862 0.0
C864 C 0.57063 0.1353 0.96117 0.0
C865 C 0.56595 0.13576 0.93125 0.0
C866 C 0.54906 0.11304 0.91868 0.0
C867 C 0.5369 0.08887 0.93708 0.0
C868 C 0.54189 0.08726 0.96779 0.0
C869 C 0.55902 0.1109 0.97996 0.0
H870 H 0.96605 0.80901 0.42512 0.0
H871 H 1.01087 0.75335 0.49309 0.0
H872 H 0.03396 0.80061 0.51126 0.0
H873 H 0.02353 0.87014 0.41197 0.0
H874 H 0.99698 0.89994 0.40737 0.0
H875 H 0.98772 0.86162 0.39726 0.0
H876 H 0.94249 0.85954 0.43142 0.0
H877 H 0.95163 0.89773 0.44166 0.0
H878 H 0.94748 0.86639 0.46958 0.0
H879 H 0.04918 0.85433 0.52389 0.0
H880 H 0.05217 0.90982 0.53242 0.0
H881 H 0.99506 0.92951 0.45746 0.0
C882 C 0.98138 0.8068 0.44331 0.0
C883 C 0.98719 0.77774 0.45749 0.0
C884 C 1.00647 0.77557 0.48189 0.0
C885 C 0.01973 0.8022 0.4922 0.0
C886 C 1.01322 0.83067 0.47796 0.0
C887 C 0.99436 0.83309 0.45412 0.0
C888 C 0.98838 0.86633 0.44464 0.0
C889 C 0.99985 0.87501 0.41346 0.0
C890 C 0.95556 0.87286 0.44699 0.0
C891 C 1.00628 0.88228 0.46727 0.0
C892 C 0.02095 0.86144 0.48594 0.0
C893 C 0.038 0.87088 0.50926 0.0
C894 C 0.0396 0.90239 0.51391 0.0
C895 C 0.0238 0.92383 0.49563 0.0
C896 C 1.00739 0.91361 0.47178 0.0
H897 H 0.46419 0.71058 0.58029 0.0
H898 H 0.37065 0.69064 0.57804 0.0
H899 H 0.37997 0.63754 0.56526 0.0
H900 H 0.48151 0.66981 0.51862 0.0
H901 H 0.51589 0.65638 0.53348 0.0
H902 H 0.50171 0.69193 0.54423 0.0
H903 H 0.50461 0.67141 0.59893 0.0
H904 H 0.51876 0.63573 0.58832 0.0
H905 H 0.48638 0.63532 0.6107 0.0
H906 H 0.39979 0.58688 0.55221 0.0
H907 H 0.42836 0.54377 0.53632 0.0
H908 H 0.50869 0.59811 0.54567 0.0
C909 C 0.44572 0.69487 0.57743 0.0
C910 C 0.41673 0.70444 0.58028 0.0
C911 C 0.39302 0.6836 0.57583 0.0
C912 C 0.39811 0.65344 0.56876 0.0
C913 C 0.42702 0.6447 0.56607 0.0
C914 C 0.4504 0.6649 0.57005 0.0
C915 C 0.47928 0.65043 0.56434 0.0
C916 C 0.49554 0.66819 0.53864 0.0
C917 C 0.49838 0.64808 0.59224 0.0
C918 C 0.4685 0.619 0.5563 0.0
C919 C 0.43833 0.61595 0.55777 0.0
C920 C 0.42343 0.58897 0.55101 0.0
C921 C 0.43982 0.56461 0.54211 0.0
C922 C 0.47069 0.56767 0.53973 0.0
C923 C 0.48511 0.59513 0.54722 0.0
H924 H 0.92379 0.89413 0.70886 0.0
H925 H 0.87087 0.97381 0.72012 0.0
H926 H 0.89084 0.99918 0.67498 0.0
H927 H 0.98821 0.94161 0.68295 0.0
H928 H 0.99953 0.9147 0.65747 0.0
H929 H 0.98 0.901 0.69028 0.0
H930 H 0.94101 0.87437 0.65873 0.0
H931 H 0.96032 0.88815 0.62582 0.0
H932 H 0.92229 0.89679 0.62995 0.0
H933 H 0.91329 0.01553 0.62628 0.0
H934 H 0.94325 0.0251 0.58152 0.0
H935 H 0.98842 0.94017 0.60326 0.0
C936 C 0.91641 0.91696 0.7021 0.0
C937 C 0.89422 0.93082 0.71819 0.0
C938 C 0.88616 0.96119 0.70807 0.0
C939 C 0.89781 0.97632 0.68231 0.0
C940 C 0.91864 0.9617 0.66671 0.0
C941 C 0.92859 0.93307 0.67653 0.0
C942 C 0.95262 0.92369 0.65605 0.0
C943 C 0.98183 0.92003 0.67268 0.0
C944 C 0.94351 0.89398 0.6418 0.0
C945 C 0.95415 0.95131 0.6332 0.0
C946 C 0.93386 0.97264 0.6397 0.0
C947 C 0.92961 0.99922 0.62126 0.0
C948 C 0.94667 1.00444 0.59575 0.0
C949 C 0.96844 0.98372 0.58891 0.0
C950 C 0.97225 0.95673 0.60807 0.0
H951 H 0.57007 0.13121 0.25004 0.0
H952 H 0.52082 0.05658 0.29679 0.0
H953 H 0.51445 0.03073 0.25059 0.0
H954 H 0.53041 0.13019 0.17829 0.0
H955 H 0.5638 0.13784 0.15788 0.0
H956 H 0.55985 0.15268 0.19335 0.0
H957 H 0.60753 0.12599 0.21078 0.0
H958 H 0.61131 0.11047 0.17566 0.0
H959 H 0.61027 0.085 0.20866 0.0
H960 H 0.51763 0.01092 0.20058 0.0
H961 H 0.52929 0.99889 0.14999 0.0
H962 H 0.5788 0.08529 0.13678 0.0
C963 C 0.55692 0.11006 0.25018 0.0
C964 C 0.54521 0.09613 0.27656 0.0
C965 C 0.52933 0.06776 0.27649 0.0
C966 C 0.52573 0.05295 0.25045 0.0
C967 C 0.53845 0.06675 0.22489 0.0
C968 C 0.55359 0.09478 0.22451 0.0
C969 C 0.56761 0.1032 0.19494 0.0
C970 C 0.55463 0.13273 0.18025 0.0
C971 C 0.60116 0.10634 0.1977 0.0
C972 C 0.55852 0.07527 0.17894 0.0
C973 C 0.54141 0.05471 0.19645 0.0
C974 C 0.5308 0.02698 0.18659 0.0
C975 C 0.53756 0.0203 0.15792 0.0
C976 C 0.55505 0.04108 0.13963 0.0
C977 C 0.56574 0.06881 0.15043 0.0
H978 H 0.37815 0.56103 0.32678 0.0
H979 H 0.45188 0.58879 0.27036 0.0
H980 H 0.48599 0.57406 0.31047 0.0
H981 H 0.40813 0.58681 0.3927 0.0
H982 H 0.39455 0.55465 0.41645 0.0
H983 H 0.37524 0.56589 0.38301 0.0
H984 H 0.37903 0.51072 0.36617 0.0
H985 H 0.39808 0.49926 0.39974 0.0
H986 H 0.41444 0.49368 0.36482 0.0
H987 H 0.51241 0.56144 0.35761 0.0
H988 H 0.52972 0.5452 0.40761 0.0
H989 H 0.44019 0.52159 0.43376 0.0
C990 C 0.40146 0.5634 0.32273 0.0
C991 C 0.41219 0.57663 0.29538 0.0
C992 C 0.44296 0.57941 0.29118 0.0
C993 C 0.46262 0.57099 0.31385 0.0
C994 C 0.45144 0.55918 0.34075 0.0
C995 C 0.42164 0.55472 0.34524 0.0
C996 C 0.41576 0.54158 0.37658 0.0
C997 C 0.39733 0.56355 0.39316 0.0
C998 C 0.40095 0.50939 0.37683 0.0
C999 C 0.44681 0.5399 0.3889 0.0
C1000 C 0.46698 0.55043 0.36784 0.0
C1001 C 0.49687 0.55268 0.3742 0.0
C1002 C 0.50651 0.54356 0.40272 0.0
C1003 C 0.48644 0.53188 0.42457 0.0
C1004 C 0.45615 0.53005 0.41743 0.0
H1005 H 0.0963 0.38639 0.78974 0.0
H1006 H 0.12865 0.46835 0.73822 0.0
H1007 H 0.1265 0.49779 0.78153 0.0
H1008 H 0.04303 0.42415 0.82497 0.0
H1009 H 0.04578 0.40195 0.85978 0.0
H1010 H 0.05577 0.38527 0.82663 0.0
H1011 H 0.10708 0.37366 0.84868 0.0
H1012 H 0.09725 0.39066 0.88189 0.0
H1013 H 0.12947 0.40455 0.86187 0.0
H1014 H 0.11407 0.52077 0.82676 0.0
H1015 H 0.08853 0.53615 0.87064 0.0
H1016 H 0.06249 0.4412 0.89365 0.0
C1017 C 0.10334 0.4104 0.78761 0.0
C1018 C 0.11336 0.42462 0.76047 0.0
C1019 C 0.12201 0.4563 0.7588 0.0
C1020 C 0.12077 0.47343 0.78336 0.0
C1021 C 0.1106 0.4588 0.80958 0.0
C1022 C 0.10183 0.42807 0.81192 0.0
C1023 C 0.088 0.41916 0.84156 0.0
C1024 C 0.05627 0.40693 0.83801 0.0
C1025 C 0.10657 0.39561 0.85956 0.0
C1026 C 0.08909 0.45007 0.85481 0.0
C1027 C 0.10293 0.47241 0.8362 0.0
C1028 C 0.10389 0.5034 0.84191 0.0
C1029 C 0.08947 0.51197 0.86678 0.0
C1030 C 0.07445 0.48967 0.88553 0.0
C1031 C 0.07493 0.45828 0.88003 0.0
H1032 H 0.71546 0.9134 0.9585 0.0
H1033 H 0.6862 0.9076 0.86848 0.0
H1034 H 0.63854 0.92815 0.88108 0.0
H1035 H 0.64573 0.8923 0.9934 0.0
H1036 H 0.64981 0.91915 0.02139 0.0
H1037 H 0.68177 0.90363 1.00573 0.0
H1038 H 0.702 0.95884 0.99158 0.0
H1039 H 0.67013 0.97453 1.00725 0.0
H1040 H 0.67978 0.98538 0.96962 0.0
H1041 H 0.59295 0.94785 0.90349 0.0
H1042 H 0.55429 0.96863 0.93289 0.0
H1043 H 0.61215 0.96487 1.0088 0.0
C1044 C 0.69901 0.91637 0.94144 0.0
C1045 C 0.70501 0.90876 0.91228 0.0
C1046 C 0.68268 0.91345 0.89078 0.0
C1047 C 0.6553 0.92499 0.89781 0.0
C1048 C 0.65016 0.93223 0.92655 0.0
C1049 C 0.67146 0.92841 0.94803 0.0
C1050 C 0.66028 0.93885 0.97706 0.0
C1051 C 0.65935 0.91187 1.0008 0.0
C1052 C 0.67918 0.96601 0.98696 0.0
C1053 C 0.62938 0.94896 0.96857 0.0
C1054 C 0.62405 0.94461 0.93933 0.0
C1055 C 0.59705 0.95149 0.92635 0.0
C1056 C 0.57505 0.96329 0.9434 0.0
C1057 C 0.57979 0.96866 0.97337 0.0
C1058 C 0.60759 0.96127 0.98601 0.0
H1059 H 0.75244 0.04293 0.41162 0.0
H1060 H 0.72788 0.05447 0.50144 0.0
H1061 H 0.77722 0.03865 0.5184 0.0
H1062 H 0.8023 0.97743 0.42667 0.0
H1063 H 0.82769 0.99266 0.39883 0.0
H1064 H 0.78914 0.9997 0.39464 0.0
H1065 H 0.80078 0.05846 0.38848 0.0
H1066 H 0.83925 0.05168 0.39299 0.0
H1067 H 0.82136 0.07649 0.41668 0.0
H1068 H 0.83033 0.02643 0.5247 0.0
H1069 H 0.88326 0.01914 0.52024 0.0
H1070 H 0.87347 0.01922 0.42556 0.0
C1071 C 0.75719 0.04097 0.43495 0.0
C1072 C 0.73643 0.04918 0.4554 0.0
C1073 C 0.74357 0.04775 0.48563 0.0
C1074 C 0.77143 0.0388 0.49538 0.0
C1075 C 0.79178 0.03166 0.47453 0.0
C1076 C 0.78497 0.03259 0.44494 0.0
C1077 C 0.81156 0.02716 0.42671 0.0
C1078 C 0.80742 0.99746 0.41078 0.0
C1079 C 0.81865 0.05511 0.40495 0.0
C1080 C 0.83454 0.02364 0.45059 0.0
C1081 C 0.82265 0.02588 0.47803 0.0
C1082 C 0.83986 0.02446 0.50333 0.0
C1083 C 0.87004 0.02065 0.50049 0.0
C1084 C 0.8828 0.01871 0.47248 0.0
C1085 C 0.86457 0.02011 0.44733 0.0
H1086 H 0.18973 0.59361 0.13063 0.0
H1087 H 0.24616 0.60394 0.05441 0.0
H1088 H 0.20658 0.58293 0.02404 0.0
H1089 H 0.15135 0.52177 0.11156 0.0
H1090 H 0.11641 0.53301 0.12466 0.0
H1091 H 0.14979 0.54689 0.14108 0.0
H1092 H 0.13348 0.60303 0.13007 0.0
H1093 H 0.10019 0.58931 0.11341 0.0
H1094 H 0.12426 0.61646 0.09294 0.0
H1095 H 0.16038 0.56331 1.00101 0.0
H1096 H 0.11097 0.54472 0.98723 0.0
H1097 H 0.08306 0.54707 0.07767 0.0
C1098 C 0.19384 0.59082 0.10769 0.0
C1099 C 0.22119 0.6003 0.09493 0.0
C1100 C 0.22548 0.59684 0.06467 0.0
C1101 C 0.20309 0.58493 0.04721 0.0
C1102 C 0.17623 0.5765 0.06016 0.0
C1103 C 0.17146 0.57908 0.08974 0.0
C1104 C 0.14003 0.56926 0.09769 0.0
C1105 C 0.13936 0.54105 0.12007 0.0
C1106 C 0.12352 0.59612 0.1092 0.0
C1107 C 0.12798 0.56103 0.068 0.0
C1108 C 0.14932 0.56534 0.04672 0.0
C1109 C 0.14352 0.55972 0.01754 0.0
C1110 C 0.11527 0.54922 1.00988 0.0
C1111 C 0.0929 0.5444 0.03122 0.0
C1112 C 0.09953 0.55051 0.06072 0.0
H1113 H 0.25904 0.38228 0.55095 0.0
H1114 H 0.22885 0.46792 0.50869 0.0
H1115 H 0.27819 0.47892 0.48729 0.0
H1116 H 0.32348 0.41225 0.57458 0.0
H1117 H 0.34517 0.379 0.57031 0.0
H1118 H 0.30641 0.37428 0.5762 0.0
H1119 H 0.30073 0.34604 0.52845 0.0
H1120 H 0.33967 0.35037 0.52252 0.0
H1121 H 0.31449 0.3643 0.49435 0.0
H1122 H 0.33195 0.48353 0.47636 0.0
H1123 H 0.38577 0.48289 0.47814 0.0
H1124 H 0.38099 0.39581 0.53124 0.0
C1125 C 0.26265 0.40262 0.53608 0.0
C1126 C 0.24033 0.42389 0.53054 0.0
C1127 C 0.24576 0.45112 0.51235 0.0
C1128 C 0.27362 0.45746 0.50019 0.0
C1129 C 0.2956 0.43639 0.50678 0.0
C1130 C 0.29037 0.40947 0.5243 0.0
C1131 C 0.31842 0.39294 0.53175 0.0
C1132 C 0.32366 0.38944 0.56518 0.0
C1133 C 0.31832 0.36155 0.51846 0.0
C1134 C 0.34042 0.41529 0.51661 0.0
C1135 C 0.32683 0.43982 0.50179 0.0
C1136 C 0.34281 0.46428 0.48768 0.0
C1137 C 0.37346 0.46385 0.48914 0.0
C1138 C 0.38787 0.43941 0.50511 0.0
C1139 C 0.37091 0.41461 0.51848 0.0
H1140 H 0.9281 0.70166 0.88961 0.0
H1141 H 0.89656 0.741 0.96763 0.0
H1142 H 0.91674 0.69763 0.99831 0.0
H1143 H 0.91454 0.62183 0.91438 0.0
H1144 H 0.94728 0.60851 0.89824 0.0
H1145 H 0.92997 0.64243 0.88211 0.0
H1146 H 0.97862 0.67383 0.88648 0.0
H1147 H 0.99606 0.63999 0.90263 0.0
H1148 H 0.9965 0.67474 0.92173 0.0
H1149 H 0.94061 0.64921 0.02125 0.0
H1150 H 0.96591 0.60057 0.03396 0.0
H1151 H 0.98377 0.5928 0.9417 0.0
C1152 C 0.92555 0.70146 0.91315 0.0
C1153 C 0.91025 0.72521 0.92584 0.0
C1154 C 0.90741 0.72321 0.9569 0.0
C1155 C 0.91911 0.69861 0.9747 0.0
C1156 C 0.93393 0.67579 0.96148 0.0
C1157 C 0.93723 0.677 0.93137 0.0
C1158 C 0.95423 0.64946 0.92274 0.0
C1159 C 0.93538 0.62937 0.90321 0.0
C1160 C 0.98307 0.66015 0.90749 0.0
C1161 C 0.95998 0.63261 0.95263 0.0
C1162 C 0.94802 0.6482 0.97468 0.0
C1163 C 0.95011 0.63696 1.00408 0.0
C1164 C 0.96462 0.60918 1.01113 0.0
C1165 C 0.97716 0.59261 0.98901 0.0
C1166 C 0.97475 0.60481 0.95931 0.0
H1167 H 0.40774 0.79763 0.08002 0.0
H1168 H 0.41906 0.81629 0.1715 0.0
H1169 H 0.44429 0.86553 0.15658 0.0
H1170 H 0.47598 0.82919 0.05438 0.0
H1171 H 0.46246 0.84687 0.02016 0.0
H1172 H 0.44378 0.81328 0.03737 0.0
H1173 H 0.39534 0.84269 0.03728 0.0
H1174 H 0.4138 0.87625 0.01969 0.0
H1175 H 0.39455 0.87904 0.05364 0.0
H1176 H 0.47245 0.90982 0.13291 0.0
H1177 H 0.49616 0.95132 0.10107 0.0
H1178 H 0.46441 0.90777 0.02403 0.0
C1179 C 0.41502 0.8124 0.09682 0.0
C1180 C 0.41186 0.8027 0.12701 0.0
C1181 C 0.42179 0.82275 0.1483 0.0
C1182 C 0.4361 0.85089 0.14006 0.0
C1183 C 0.43995 0.8592 0.11033 0.0
C1184 C 0.4292 0.84103 0.08893 0.0
C1185 C 0.43648 0.8559 0.05851 0.0
C1186 C 0.45582 0.83506 0.04162 0.0
C1187 C 0.40837 0.86395 0.04126 0.0
C1188 C 0.45338 0.88484 0.06635 0.0
C1189 C 0.45525 0.88597 0.09643 0.0
C1190 C 0.47082 0.90947 0.1093 0.0
C1191 C 0.48442 0.93284 0.09099 0.0
C1192 C 0.48213 0.93289 0.06005 0.0
C1193 C 0.4664 0.90846 0.04761 0.0
H1194 H 0.06281 0.21656 0.60323 0.0
H1195 H 1.00428 0.26774 0.54417 0.0
H1196 H 0.98227 0.21877 0.52875 0.0
H1197 H 0.07971 0.1636 0.5551 0.0
H1198 H 0.08229 0.131 0.58168 0.0
H1199 H 0.089 0.16931 0.59277 0.0
H1200 H 0.04899 0.16051 0.63271 0.0
H1201 H 0.04238 0.1219 0.62198 0.0
H1202 H 1.01256 0.14805 0.62254 0.0
H1203 H 0.97119 0.16478 0.51542 0.0
H1204 H 0.97265 0.1102 0.50422 0.0
H1205 H 0.04046 0.09474 0.57033 0.0
C1206 C 0.04452 0.21727 0.58799 0.0
C1207 C 0.03456 0.24559 0.57535 0.0
C1208 C 1.0116 0.24604 0.55443 0.0
C1209 C 0.99905 0.21842 0.5456 0.0
C1210 C 1.00996 0.1907 0.55779 0.0
C1211 C 0.03215 0.18993 0.57862 0.0
C1212 C 0.04259 0.1575 0.58547 0.0
C1213 C 0.07532 0.15524 0.57831 0.0
C1214 C 0.03623 0.14633 0.61758 0.0
C1215 C 0.02351 0.14031 0.56459 0.0
C1216 C 1.00443 0.1597 0.54924 0.0
C1217 C 0.98575 0.14929 0.5276 0.0
C1218 C 0.98679 0.11829 0.52133 0.0
C1219 C 1.0067 0.09827 0.53636 0.0
C1220 C 0.02495 0.10946 0.5585 0.0
H1221 H 0.58385 0.30778 0.40969 0.0
H1222 H 0.64257 0.29029 0.48446 0.0
H1223 H 0.63451 0.34179 0.49919 0.0
H1224 H 0.59669 0.38984 0.39601 0.0
H1225 H 0.5585 0.3977 0.39004 0.0
H1226 H 0.5725 0.3612 0.38145 0.0
H1227 H 0.5337 0.33244 0.41537 0.0
H1228 H 0.51942 0.3688 0.4238 0.0
H1229 H 0.53115 0.34173 0.45304 0.0
H1230 H 0.62042 0.39504 0.50675 0.0
H1231 H 0.59332 0.44247 0.51238 0.0
H1232 H 0.53669 0.4216 0.43949 0.0
C1233 C 0.59514 0.31424 0.42923 0.0
C1234 C 0.61495 0.29446 0.4449 0.0
C1235 C 0.6287 0.30489 0.47056 0.0
C1236 C 0.62402 0.3343 0.47954 0.0
C1237 C 0.60467 0.35294 0.46343 0.0
C1238 C 0.58974 0.34305 0.43938 0.0
C1239 C 0.56708 0.36604 0.42846 0.0
C1240 C 0.57413 0.37949 0.39713 0.0
C1241 C 0.536 0.35137 0.43029 0.0
C1242 C 0.5715 0.39013 0.45045 0.0
C1243 C 0.59403 0.38253 0.46977 0.0
C1244 C 0.60266 0.40124 0.49185 0.0
C1245 C 0.58731 0.42812 0.49478 0.0
C1246 C 0.56316 0.43538 0.47631 0.0
C1247 C 0.55522 0.41636 0.45374 0.0
loop_
_geom_bond_atom_site_label_1
_geom_bond_atom_site_label_2
_geom_bond_distance
_geom_bond_site_symmetry_2
_ccdc_geom_bond_type
C0 C1 1.391 . S
C0 C4 1.391 . S
C0 H42 0.948 . S
C1 C0 1.391 . S
C1 C2 1.391 . S
C2 C1 1.391 . S
C2 H58 0.947 . S
C2 C59 1.392 . S
C3 C4 1.391 . S
C3 C7 1.397 . S
C3 C59 1.419 . S
C4 C0 1.391 . S
C4 C3 1.391 . S
C4 C5 1.399 . S
C5 C4 1.399 . S
C5 C8 1.396 . S
C5 C17 1.453 . S
C5 C18 1.684 . S
H6 C30 0.948 . S
C7 C3 1.397 . S
C7 C8 1.394 . S
C7 C26 1.723 . S
C8 C5 1.396 . S
C8 C7 1.394 . S
C8 C38 1.723 . S
H9 C32 0.947 . S
H10 C33 0.948 . S
H11 C39 0.982 . S
H12 C40 0.979 . S
H13 C40 0.980 . S
H14 C40 0.983 . S
H15 C39 0.979 . S
H16 C39 0.977 . S
C17 C5 1.453 . S
C17 H46 0.982 . S
C17 H47 0.979 . S
C17 H48 0.977 . S
C18 C5 1.684 . S
C18 H43 0.979 . S
C18 H44 0.980 . S
C18 H45 0.983 . S
C19 C20 1.391 . S
C19 C24 1.391 . S
C19 H49 0.948 . S
C20 C19 1.391 . S
C20 C21 1.391 . S
C21 C20 1.391 . S
C21 C22 1.392 . S
C21 H50 0.947 . S
C22 C21 1.392 . S
C22 C23 1.419 . S
C22 H51 0.948 . S
C23 C22 1.419 . S
C23 C24 1.391 . S
C23 C27 1.397 . S
C24 C19 1.391 . S
C24 C23 1.391 . S
C24 C25 1.399 . S
C25 C24 1.399 . S
C25 C26 1.396 . S
C25 C28 1.453 . S
C25 C29 1.684 . S
C26 C7 1.723 . S
C26 C25 1.396 . S
C26 C27 1.394 . S
C27 C23 1.397 . S
C27 C26 1.394 . S
C27 C37 1.723 . S
C28 C25 1.453 . S
C28 H52 0.982 . S
C28 H53 0.979 . S
C28 H54 0.977 . S
C29 C25 1.684 . S
C29 H55 0.979 . S
C29 H56 0.980 . S
C29 H57 0.983 . S
C30 H6 0.948 . S
C30 C31 1.391 . S
C30 C35 1.391 . S
C31 C30 1.391 . S
C31 C32 1.391 . S
C32 H9 0.947 . S
C32 C31 1.391 . S
C32 C33 1.392 . S
C33 H10 0.948 . S
C33 C32 1.392 . S
C33 C34 1.419 . S
C34 C33 1.419 . S
C34 C35 1.391 . S
C34 C38 1.397 . S
C35 C30 1.391 . S
C35 C34 1.391 . S
C35 C36 1.399 . S
C36 C35 1.399 . S
C36 C37 1.396 . S
C36 C39 1.453 . S
C36 C40 1.684 . S
C37 C27 1.723 . S
C37 C36 1.396 . S
C37 C38 1.394 . S
C38 C8 1.723 . S
C38 C34 1.397 . S
C38 C37 1.394 . S
C39 H11 0.982 . S
C39 H15 0.979 . S
C39 H16 0.977 . S
C39 C36 1.453 . S
C40 H12 0.979 . S
C40 H13 0.980 . S
C40 H14 0.983 . S
C40 C36 1.684 . S
H41 C59 0.948 . S
H42 C0 0.948 . S
H43 C18 0.979 . S
H44 C18 0.980 . S
H45 C18 0.983 . S
H46 C17 0.982 . S
H47 C17 0.979 . S
H48 C17 0.977 . S
H49 C19 0.948 . S
H50 C21 0.947 . S
H51 C22 0.948 . S
H52 C28 0.982 . S
H53 C28 0.979 . S
H54 C28 0.977 . S
H55 C29 0.979 . S
H56 C29 0.980 . S
H57 C29 0.983 . S
H58 C2 0.947 . S
C59 C2 1.392 . S
C59 C3 1.419 . S
C59 H41 0.948 . S
C60 C61 1.391 . S
C60 C64 1.391 . S
C60 H102 0.948 . S
C61 C60 1.391 . S
C61 C62 1.391 . S
C62 C61 1.391 . S
C62 H118 0.947 . S
C62 C119 1.392 . S
C63 C64 1.391 . S
C63 C67 1.397 . S
C63 C119 1.419 . S
C64 C60 1.391 . S
C64 C63 1.391 . S
C64 C65 1.399 . S
C65 C64 1.399 . S
C65 C68 1.396 . S
C65 C77 1.453 . S
C65 C78 1.684 . S
H66 C90 0.948 . S
C67 C63 1.397 . S
C67 C68 1.394 . S
C67 C86 1.723 . S
C68 C65 1.396 . S
C68 C67 1.394 . S
C68 C98 1.723 . S
H69 C92 0.947 . S
H70 C93 0.948 . S
H71 C99 0.982 . S
H72 C100 0.979 . S
H73 C100 0.980 . S
H74 C100 0.983 . S
H75 C99 0.979 . S
H76 C99 0.977 . S
C77 C65 1.453 . S
C77 H106 0.982 . S
C77 H107 0.979 . S
C77 H108 0.977 . S
C78 C65 1.684 . S
C78 H103 0.979 . S
C78 H104 0.980 . S
C78 H105 0.983 . S
C79 C80 1.391 . S
C79 C84 1.391 . S
C79 H109 0.948 . S
C80 C79 1.391 . S
C80 C81 1.391 . S
C81 C80 1.391 . S
C81 C82 1.392 . S
C81 H110 0.947 . S
C82 C81 1.392 . S
C82 C83 1.419 . S
C82 H111 0.948 . S
C83 C82 1.419 . S
C83 C84 1.391 . S
C83 C87 1.397 . S
C84 C79 1.391 . S
C84 C83 1.391 . S
C84 C85 1.399 . S
C85 C84 1.399 . S
C85 C86 1.396 . S
C85 C88 1.453 . S
C85 C89 1.684 . S
C86 C67 1.723 . S
C86 C85 1.396 . S
C86 C87 1.394 . S
C87 C83 1.397 . S
C87 C86 1.394 . S
C87 C97 1.723 . S
C88 C85 1.453 . S
C88 H112 0.982 . S
C88 H113 0.979 . S
C88 H114 0.977 . S
C89 C85 1.684 . S
C89 H115 0.979 . S
C89 H116 0.980 . S
C89 H117 0.983 . S
C90 H66 0.948 . S
C90 C91 1.391 . S
C90 C95 1.391 . S
C91 C90 1.391 . S
C91 C92 1.391 . S
C92 H69 0.947 . S
C92 C91 1.391 . S
C92 C93 1.392 . S
C93 H70 0.948 . S
C93 C92 1.392 . S
C93 C94 1.419 . S
C94 C93 1.419 . S
C94 C95 1.391 . S
C94 C98 1.397 . S
C95 C90 1.391 . S
C95 C94 1.391 . S
C95 C96 1.399 . S
C96 C95 1.399 . S
C96 C97 1.396 . S
C96 C99 1.453 . S
C96 C100 1.684 . S
C97 C87 1.723 . S
C97 C96 1.396 . S
C97 C98 1.394 . S
C98 C68 1.723 . S
C98 C94 1.397 . S
C98 C97 1.394 . S
C99 H71 0.982 . S
C99 H75 0.979 . S
C99 H76 0.977 . S
C99 C96 1.453 . S
C100 H72 0.979 . S
C100 H73 0.980 . S
C100 H74 0.983 . S
C100 C96 1.684 . S
H101 C119 0.948 . S
H102 C60 0.948 . S
H103 C78 0.979 . S
H104 C78 0.980 . S
H105 C78 0.983 . S
H106 C77 0.982 . S
H107 C77 0.979 . S
H108 C77 0.977 . S
H109 C79 0.948 . S
H110 C81 0.947 . S
H111 C82 0.948 . S
H112 C88 0.982 . S
H113 C88 0.979 . S
H114 C88 0.977 . S
H115 C89 0.979 . S
H116 C89 0.980 . S
H117 C89 0.983 . S
H118 C62 0.947 . S
C119 C62 1.392 . S
C119 C63 1.419 . S
C119 H101 0.948 . S
C120 C121 1.391 . S
C120 C124 1.391 . S
C120 H162 0.948 . S
C121 C120 1.391 . S
C121 C122 1.391 . S
C122 C121 1.391 . S
C122 H178 0.947 . S
C122 C179 1.392 . S
C123 C124 1.391 . S
C123 C127 1.397 . S
C123 C179 1.419 . S
C124 C120 1.391 . S
C124 C123 1.391 . S
C124 C125 1.399 . S
C125 C124 1.399 . S
C125 C128 1.396 . S
C125 C137 1.453 . S
C125 C138 1.684 . S
H126 C150 0.948 . S
C127 C123 1.397 . S
C127 C128 1.394 . S
C127 C146 1.723 . S
C128 C125 1.396 . S
C128 C127 1.394 . S
C128 C158 1.723 . S
H129 C152 0.947 . S
H130 C153 0.948 . S
H131 C159 0.982 . S
H132 C160 0.979 . S
H133 C160 0.980 . S
H134 C160 0.983 . S
H135 C159 0.979 . S
H136 C159 0.977 . S
C137 C125 1.453 . S
C137 H166 0.982 . S
C137 H167 0.979 . S
C137 H168 0.977 . S
C138 C125 1.684 . S
C138 H163 0.979 . S
C138 H164 0.980 . S
C138 H165 0.983 . S
C139 C140 1.391 . S
C139 C144 1.391 . S
C139 H169 0.948 . S
C140 C139 1.391 . S
C140 C141 1.391 . S
C141 C140 1.391 . S
C141 C142 1.392 . S
C141 H170 0.947 . S
C142 C141 1.392 . S
C142 C143 1.419 . S
C142 H171 0.948 . S
C143 C142 1.419 . S
C143 C144 1.391 . S
C143 C147 1.397 . S
C144 C139 1.391 . S
C144 C143 1.391 . S
C144 C145 1.399 . S
C145 C144 1.399 . S
C145 C146 1.396 . S
C145 C148 1.453 . S
C145 C149 1.684 . S
C146 C127 1.723 . S
C146 C145 1.396 . S
C146 C147 1.394 . S
C147 C143 1.397 . S
C147 C146 1.394 . S
C147 C157 1.723 . S
C148 C145 1.453 . S
C148 H172 0.982 . S
C148 H173 0.979 . S
C148 H174 0.977 . S
C149 C145 1.684 . S
C149 H175 0.979 . S
C149 H176 0.980 . S
C149 H177 0.983 . S
C150 H126 0.948 . S
C150 C151 1.391 . S
C150 C155 1.391 . S
C151 C150 1.391 . S
C151 C152 1.391 . S
C152 H129 0.947 . S
C152 C151 1.391 . S
C152 C153 1.392 . S
C153 H130 0.948 . S
C153 C152 1.392 . S
C153 C154 1.419 . S
C154 C153 1.419 . S
C154 C155 1.391 . S
C154 C158 1.397 . S
C155 C150 1.391 . S
C155 C154 1.391 . S
C155 C156 1.399 . S
C156 C155 1.399 . S
C156 C157 1.396 . S
C156 C159 1.453 . S
C156 C160 1.684 . S
C157 C147 1.723 . S
C157 C156 1.396 . S
C157 C158 1.394 . S
C158 C128 1.723 . S
C158 C154 1.397 . S
C158 C157 1.394 . S
C159 H131 0.982 . S
C159 H135 0.979 . S
C159 H136 0.977 . S
C159 C156 1.453 . S
C160 H132 0.979 . S
C160 H133 0.980 . S
C160 H134 0.983 . S
C160 C156 1.684 . S
H161 C179 0.948 . S
H162 C120 0.948 . S
H163 C138 0.979 . S
H164 C138 0.980 . S
H165 C138 0.983 . S
H166 C137 0.982 . S
H167 C137 0.979 . S
H168 C137 0.977 . S
H169 C139 0.948 . S
H170 C141 0.947 . S
H171 C142 0.948 . S
H172 C148 0.982 . S
H173 C148 0.979 . S
H174 C148 0.977 . S
H175 C149 0.979 . S
H176 C149 0.980 . S
H177 C149 0.983 . S
H178 C122 0.947 . S
C179 C122 1.392 . S
C179 C123 1.419 . S
C179 H161 0.948 . S
C180 C181 1.391 . S
C180 C184 1.391 . S
C180 H222 0.948 . S
C181 C180 1.391 . S
C181 C182 1.391 . S
C182 C181 1.391 . S
C182 H238 0.947 . S
C182 C239 1.392 . S
C183 C184 1.391 . S
C183 C187 1.397 . S
C183 C239 1.419 . S
C184 C180 1.391 . S
C184 C183 1.391 . S
C184 C185 1.399 . S
C185 C184 1.399 . S
C185 C188 1.396 . S
C185 C197 1.453 . S
C185 C198 1.684 . S
H186 C210 0.948 . S
C187 C183 1.397 . S
C187 C188 1.394 . S
C187 C206 1.723 . S
C188 C185 1.396 . S
C188 C187 1.394 . S
C188 C218 1.723 . S
H189 C212 0.947 . S
H190 C213 0.948 . S
H191 C219 0.982 . S
H192 C220 0.979 . S
H193 C220 0.980 . S
H194 C220 0.983 . S
H195 C219 0.979 . S
H196 C219 0.977 . S
C197 C185 1.453 . S
C197 H226 0.982 . S
C197 H227 0.979 . S
C197 H228 0.977 . S
C198 C185 1.684 . S
C198 H223 0.979 . S
C198 H224 0.980 . S
C198 H225 0.983 . S
C199 C200 1.391 . S
C199 C204 1.391 . S
C199 H229 0.948 . S
C200 C199 1.391 . S
C200 C201 1.391 . S
C201 C200 1.391 . S
C201 C202 1.392 . S
C201 H230 0.947 . S
C202 C201 1.392 . S
C202 C203 1.419 . S
C202 H231 0.948 . S
C203 C202 1.419 . S
C203 C204 1.391 . S
C203 C207 1.397 . S
C204 C199 1.391 . S
C204 C203 1.391 . S
C204 C205 1.399 . S
C205 C204 1.399 . S
C205 C206 1.396 . S
C205 C208 1.453 . S
C205 C209 1.684 . S
C206 C187 1.723 . S
C206 C205 1.396 . S
C206 C207 1.394 . S
C207 C203 1.397 . S
C207 C206 1.394 . S
C207 C217 1.723 . S
C208 C205 1.453 . S
C208 H232 0.982 . S
C208 H233 0.979 . S
C208 H234 0.977 . S
C209 C205 1.684 . S
C209 H235 0.979 . S
C209 H236 0.980 . S
C209 H237 0.983 . S
C210 H186 0.948 . S
C210 C211 1.391 . S
C210 C215 1.391 . S
C211 C210 1.391 . S
C211 C212 1.391 . S
C212 H189 0.947 . S
C212 C211 1.391 . S
C212 C213 1.392 . S
C213 H190 0.948 . S
C213 C212 1.392 . S
C213 C214 1.419 . S
C214 C213 1.419 . S
C214 C215 1.391 . S
C214 C218 1.397 . S
C215 C210 1.391 . S
C215 C214 1.391 . S
C215 C216 1.399 . S
C216 C215 1.399 . S
C216 C217 1.396 . S
C216 C219 1.453 . S
C216 C220 1.684 . S
C217 C207 1.723 . S
C217 C216 1.396 . S
C217 C218 1.394 . S
C218 C188 1.723 . S
C218 C214 1.397 . S
C218 C217 1.394 . S
C219 H191 0.982 . S
C219 H195 0.979 . S
C219 H196 0.977 . S
C219 C216 1.453 . S
C220 H192 0.979 . S
C220 H193 0.980 . S
C220 H194 0.983 . S
C220 C216 1.684 . S
H221 C239 0.948 . S
H222 C180 0.948 . S
H223 C198 0.979 . S
H224 C198 0.980 . S
H225 C198 0.983 . S
H226 C197 0.982 . S
H227 C197 0.979 . S
H228 C197 0.977 . S
H229 C199 0.948 . S
H230 C201 0.947 . S
H231 C202 0.948 . S
H232 C208 0.982 . S
H233 C208 0.979 . S
H234 C208 0.977 . S
H235 C209 0.979 . S
H236 C209 0.980 . S
H237 C209 0.983 . S
H238 C182 0.947 . S
C239 C182 1.392 . S
C239 C183 1.419 . S
C239 H221 0.948 . S
C240 C241 1.391 . S
C240 C244 1.391 . S
C240 H282 0.948 . S
C241 C240 1.391 . S
C241 C242 1.391 . S
C242 C241 1.391 . S
C242 H298 0.947 . S
C242 C299 1.392 . S
C243 C244 1.391 . S
C243 C247 1.397 . S
C243 C299 1.419 . S
C244 C240 1.391 . S
C244 C243 1.391 . S
C244 C245 1.399 . S
C245 C244 1.399 . S
C245 C248 1.396 . S
C245 C257 1.453 . S
C245 C258 1.684 . S
H246 C270 0.948 . S
C247 C243 1.397 . S
C247 C248 1.394 . S
C247 C266 1.723 . S
C248 C245 1.396 . S
C248 C247 1.394 . S
C248 C278 1.723 . S
H249 C272 0.947 . S
H250 C273 0.948 . S
H251 C279 0.982 . S
H252 C280 0.979 . S
H253 C280 0.980 . S
H254 C280 0.983 . S
H255 C279 0.979 . S
H256 C279 0.977 . S
C257 C245 1.453 . S
C257 H286 0.982 . S
C257 H287 0.979 . S
C257 H288 0.977 . S
C258 C245 1.684 . S
C258 H283 0.979 . S
C258 H284 0.980 . S
C258 H285 0.983 . S
C259 C260 1.391 . S
C259 C264 1.391 . S
C259 H289 0.948 . S
C260 C259 1.391 . S
C260 C261 1.391 . S
C261 C260 1.391 . S
C261 C262 1.392 . S
C261 H290 0.947 . S
C262 C261 1.392 . S
C262 C263 1.419 . S
C262 H291 0.948 . S
C263 C262 1.419 . S
C263 C264 1.391 . S
C263 C267 1.397 . S
C264 C259 1.391 . S
C264 C263 1.391 . S
C264 C265 1.399 . S
C265 C264 1.399 . S
C265 C266 1.396 . S
C265 C268 1.453 . S
C265 C269 1.684 . S
C266 C247 1.723 . S
C266 C265 1.396 . S
C266 C267 1.394 . S
C267 C263 1.397 . S
C267 C266 1.394 . S
C267 C277 1.723 . S
C268 C265 1.453 . S
C268 H292 0.982 . S
C268 H293 0.979 . S
C268 H294 0.977 . S
C269 C265 1.684 . S
C269 H295 0.979 . S
C269 H296 0.980 . S
C269 H297 0.983 . S
C270 H246 0.948 . S
C270 C271 1.391 . S
C270 C275 1.391 . S
C271 C270 1.391 . S
C271 C272 1.391 . S
C272 H249 0.947 . S
C272 C271 1.391 . S
C272 C273 1.392 . S
C273 H250 0.948 . S
C273 C272 1.392 . S
C273 C274 1.419 . S
C274 C273 1.419 . S
C274 C275 1.391 . S
C274 C278 1.397 . S
C275 C270 1.391 . S
C275 C274 1.391 . S
C275 C276 1.399 . S
C276 C275 1.399 . S
C276 C277 1.396 . S
C276 C279 1.453 . S
C276 C280 1.684 . S
C277 C267 1.723 . S
C277 C276 1.396 . S
C277 C278 1.394 . S
C278 C248 1.723 . S
C278 C274 1.397 . S
C278 C277 1.394 . S
C279 H251 0.982 . S
C279 H255 0.979 . S
C279 H256 0.977 . S
C279 C276 1.453 . S
C280 H252 0.979 . S
C280 H253 0.980 . S
C280 H254 0.983 . S
C280 C276 1.684 . S
H281 C299 0.948 . S
H282 C240 0.948 . S
H283 C258 0.979 . S
H284 C258 0.980 . S
H285 C258 0.983 . S
H286 C257 0.982 . S
H287 C257 0.979 . S
H288 C257 0.977 . S
H289 C259 0.948 . S
H290 C261 0.947 . S
H291 C262 0.948 . S
H292 C268 0.982 . S
H293 C268 0.979 . S
H294 C268 0.977 . S
H295 C269 0.979 . S
H296 C269 0.980 . S
H297 C269 0.983 . S
H298 C242 0.947 . S
C299 C242 1.392 . S
C299 C243 1.419 . S
C299 H281 0.948 . S
C300 C301 1.391 . S
C300 C304 1.391 . S
C300 H342 0.948 . S
C301 C300 1.391 . S
C301 C302 1.391 . S
C302 C301 1.391 . S
C302 H358 0.947 . S
C302 C359 1.392 . S
C303 C304 1.391 . S
C303 C307 1.397 . S
C303 C359 1.419 . S
C304 C300 1.391 . S
C304 C303 1.391 . S
C304 C305 1.399 . S
C305 C304 1.399 . S
C305 C308 1.396 . S
C305 C317 1.453 . S
C305 C318 1.684 . S
H306 C330 0.948 . S
C307 C303 1.397 . S
C307 C308 1.394 . S
C307 C326 1.723 . S
C308 C305 1.396 . S
C308 C307 1.394 . S
C308 C338 1.723 . S
H309 C332 0.947 . S
H310 C333 0.948 . S
H311 C339 0.982 . S
H312 C340 0.979 . S
H313 C340 0.980 . S
H314 C340 0.983 . S
H315 C339 0.979 . S
H316 C339 0.977 . S
C317 C305 1.453 . S
C317 H346 0.982 . S
C317 H347 0.979 . S
C317 H348 0.977 . S
C318 C305 1.684 . S
C318 H343 0.979 . S
C318 H344 0.980 . S
C318 H345 0.983 . S
C319 C320 1.391 . S
C319 C324 1.391 . S
C319 H349 0.948 . S
C320 C319 1.391 . S
C320 C321 1.391 . S
C321 C320 1.391 . S
C321 C322 1.392 . S
C321 H350 0.947 . S
C322 C321 1.392 . S
C322 C323 1.419 . S
C322 H351 0.948 . S
C323 C322 1.419 . S
C323 C324 1.391 . S
C323 C327 1.397 . S
C324 C319 1.391 . S
C324 C323 1.391 . S
C324 C325 1.399 . S
C325 C324 1.399 . S
C325 C326 1.396 . S
C325 C328 1.453 . S
C325 C329 1.684 . S
C326 C307 1.723 . S
C326 C325 1.396 . S
C326 C327 1.394 . S
C327 C323 1.397 . S
C327 C326 1.394 . S
C327 C337 1.723 . S
C328 C325 1.453 . S
C328 H352 0.982 . S
C328 H353 0.979 . S
C328 H354 0.977 . S
C329 C325 1.684 . S
C329 H355 0.979 . S
C329 H356 0.980 . S
C329 H357 0.983 . S
C330 H306 0.948 . S
C330 C331 1.391 . S
C330 C335 1.391 . S
C331 C330 1.391 . S
C331 C332 1.391 . S
C332 H309 0.947 . S
C332 C331 1.391 . S
C332 C333 1.392 . S
C333 H310 0.948 . S
C333 C332 1.392 . S
C333 C334 1.419 . S
C334 C333 1.419 . S
C334 C335 1.391 . S
C334 C338 1.397 . S
C335 C330 1.391 . S
C335 C334 1.391 . S
C335 C336 1.399 . S
C336 C335 1.399 . S
C336 C337 1.396 . S
C336 C339 1.453 . S
C336 C340 1.684 . S
C337 C327 1.723 . S
C337 C336 1.396 . S
C337 C338 1.394 . S
C338 C308 1.723 . S
C338 C334 1.397 . S
C338 C337 1.394 . S
C339 H311 0.982 . S
C339 H315 0.979 . S
C339 H316 0.977 . S
C339 C336 1.453 . S
C340 H312 0.979 . S
C340 H313 0.980 . S
C340 H314 0.983 . S
C340 C336 1.684 . S
H341 C359 0.948 . S
H342 C300 0.948 . S
H343 C318 0.979 . S
H344 C318 0.980 . S
H345 C318 0.983 . S
H346 C317 0.982 . S
H347 C317 0.979 . S
H348 C317 0.977 . S
H349 C319 0.948 . S
H350 C321 0.947 . S
H351 C322 0.948 . S
H352 C328 0.982 . S
H353 C328 0.979 . S
H354 C328 0.977 . S
H355 C329 0.979 . S
H356 C329 0.980 . S
H357 C329 0.983 . S
H358 C302 0.947 . S
C359 C302 1.392 . S
C359 C303 1.419 . S
C359 H341 0.948 . S
C360 C361 1.391 . S
C360 C364 1.391 . S
C360 H402 0.948 . S
C361 C360 1.391 . S
C361 C362 1.391 . S
C362 C361 1.391 . S
C362 H418 0.947 . S
C362 C419 1.392 . S
C363 C364 1.391 . S
C363 C367 1.397 . S
C363 C419 1.419 . S
C364 C360 1.391 . S
C364 C363 1.391 . S
C364 C365 1.399 . S
C365 C364 1.399 . S
C365 C368 1.396 . S
C365 C377 1.453 . S
C365 C378 1.684 . S
H366 C390 0.948 . S
C367 C363 1.397 . S
C367 C368 1.394 . S
C367 C386 1.723 . S
C368 C365 1.396 . S
C368 C367 1.394 . S
C368 C398 1.723 . S
H369 C392 0.947 . S
H370 C393 0.948 . S
H371 C399 0.982 . S
H372 C400 0.979 . S
H373 C400 0.980 . S
H374 C400 0.983 . S
H375 C399 0.979 . S
H376 C399 0.977 . S
C377 C365 1.453 . S
C377 H406 0.982 . S
C377 H407 0.979 . S
C377 H408 0.977 . S
C378 C365 1.684 . S
C378 H403 0.979 . S
C378 H404 0.980 . S
C378 H405 0.983 . S
C379 C380 1.391 . S
C379 C384 1.391 . S
C379 H409 0.948 . S
C380 C379 1.391 . S
C380 C381 1.391 . S
C381 C380 1.391 . S
C381 C382 1.392 . S
C381 H410 0.947 . S
C382 C381 1.392 . S
C382 C383 1.419 . S
C382 H411 0.948 . S
C383 C382 1.419 . S
C383 C384 1.391 . S
C383 C387 1.397 . S
C384 C379 1.391 . S
C384 C383 1.391 . S
C384 C385 1.399 . S
C385 C384 1.399 . S
C385 C386 1.396 . S
C385 C388 1.453 . S
C385 C389 1.684 . S
C386 C367 1.723 . S
C386 C385 1.396 . S
C386 C387 1.394 . S
C387 C383 1.397 . S
C387 C386 1.394 . S
C387 C397 1.723 . S
C388 C385 1.453 . S
C388 H412 0.982 . S
C388 H413 0.979 . S
C388 H414 0.977 . S
C389 C385 1.684 . S
C389 H415 0.979 . S
C389 H416 0.980 . S
C389 H417 0.983 . S
C390 H366 0.948 . S
C390 C391 1.391 . S
C390 C395 1.391 . S
C391 C390 1.391 . S
C391 C392 1.391 . S
C392 H369 0.947 . S
C392 C391 1.391 . S
C392 C393 1.392 . S
C393 H370 0.948 . S
C393 C392 1.392 . S
C393 C394 1.419 . S
C394 C393 1.419 . S
C394 C395 1.391 . S
C394 C398 1.397 . S
C395 C390 1.391 . S
C395 C394 1.391 . S
C395 C396 1.399 . S
C396 C395 1.399 . S
C396 C397 1.396 . S
C396 C399 1.453 . S
C396 C400 1.684 . S
C397 C387 1.723 . S
C397 C396 1.396 . S
C397 C398 1.394 . S
C398 C368 1.723 . S
C398 C394 1.397 . S
C398 C397 1.394 . S
C399 H371 0.982 . S
C399 H375 0.979 . S
C399 H376 0.977 . S
C399 C396 1.453 . S
C400 H372 0.979 . S
C400 H373 0.980 . S
C400 H374 0.983 . S
C400 C396 1.684 . S
H401 C419 0.948 . S
H402 C360 0.948 . S
H403 C378 0.979 . S
H404 C378 0.980 . S
H405 C378 0.983 . S
H406 C377 0.982 . S
H407 C377 0.979 . S
H408 C377 0.977 . S
H409 C379 0.948 . S
H410 C381 0.947 . S
H411 C382 0.948 . S
H412 C388 0.982 . S
H413 C388 0.979 . S
H414 C388 0.977 . S
H415 C389 0.979 . S
H416 C389 0.980 . S
H417 C389 0.983 . S
H418 C362 0.947 . S
C419 C362 1.392 . S
C419 C363 1.419 . S
C419 H401 0.948 . S
C420 C421 1.391 . S
C420 C424 1.391 . S
C420 H462 0.948 . S
C421 C420 1.391 . S
C421 C422 1.391 . S
C422 C421 1.391 . S
C422 H478 0.947 . S
C422 C479 1.392 . S
C423 C424 1.391 . S
C423 C427 1.397 . S
C423 C479 1.419 . S
C424 C420 1.391 . S
C424 C423 1.391 . S
C424 C425 1.399 . S
C425 C424 1.399 . S
C425 C428 1.396 . S
C425 C437 1.453 . S
C425 C438 1.684 . S
H426 C450 0.948 . S
C427 C423 1.397 . S
C427 C428 1.394 . S
C427 C446 1.723 . S
C428 C425 1.396 . S
C428 C427 1.394 . S
C428 C458 1.723 . S
H429 C452 0.947 . S
H430 C453 0.948 . S
H431 C459 0.982 . S
H432 C460 0.979 . S
H433 C460 0.980 . S
H434 C460 0.983 . S
H435 C459 0.979 . S
H436 C459 0.977 . S
C437 C425 1.453 . S
C437 H466 0.982 . S
C437 H467 0.979 . S
C437 H468 0.977 . S
C438 C425 1.684 . S
C438 H463 0.979 . S
C438 H464 0.980 . S
C438 H465 0.983 . S
C439 C440 1.391 . S
C439 C444 1.391 . S
C439 H469 0.948 . S
C440 C439 1.391 . S
C440 C441 1.391 . S
C441 C440 1.391 . S
C441 C442 1.392 . S
C441 H470 0.947 . S
C442 C441 1.392 . S
C442 C443 1.419 . S
C442 H471 0.948 . S
C443 C442 1.419 . S
C443 C444 1.391 . S
C443 C447 1.397 . S
C444 C439 1.391 . S
C444 C443 1.391 . S
C444 C445 1.399 . S
C445 C444 1.399 . S
C445 C446 1.396 . S
C445 C448 1.453 . S
C445 C449 1.684 . S
C446 C427 1.723 . S
C446 C445 1.396 . S
C446 C447 1.394 . S
C447 C443 1.397 . S
C447 C446 1.394 . S
C447 C457 1.723 . S
C448 C445 1.453 . S
C448 H472 0.982 . S
C448 H473 0.979 . S
C448 H474 0.977 . S
C449 C445 1.684 . S
C449 H475 0.979 . S
C449 H476 0.980 . S
C449 H477 0.983 . S
C450 H426 0.948 . S
C450 C451 1.391 . S
C450 C455 1.391 . S
C451 C450 1.391 . S
C451 C452 1.391 . S
C452 H429 0.947 . S
C452 C451 1.391 . S
C452 C453 1.392 . S
C453 H430 0.948 . S
C453 C452 1.392 . S
C453 C454 1.419 . S
C454 C453 1.419 . S
C454 C455 1.391 . S
C454 C458 1.397 . S
C455 C450 1.391 . S
C455 C454 1.391 . S
C455 C456 1.399 . S
C456 C455 1.399 . S
C456 C457 1.396 . S
C456 C459 1.453 . S
C456 C460 1.684 . S
C457 C447 1.723 . S
C457 C456 1.396 . S
C457 C458 1.394 . S
C458 C428 1.723 . S
C458 C454 1.397 . S
C458 C457 1.394 . S
C459 H431 0.982 . S
C459 H435 0.979 . S
C459 H436 0.977 . S
C459 C456 1.453 . S
C460 H432 0.979 . S
C460 H433 0.980 . S
C460 H434 0.983 . S
C460 C456 1.684 . S
H461 C479 0.948 . S
H462 C420 0.948 . S
H463 C438 0.979 . S
H464 C438 0.980 . S
H465 C438 0.983 . S
H466 C437 0.982 . S
H467 C437 0.979 . S
H468 C437 0.977 . S
H469 C439 0.948 . S
H470 C441 0.947 . S
H471 C442 0.948 . S
H472 C448 0.982 . S
H473 C448 0.979 . S
H474 C448 0.977 . S
H475 C449 0.979 . S
H476 C449 0.980 . S
H477 C449 0.983 . S
H478 C422 0.947 . S
C479 C422 1.392 . S
C479 C423 1.419 . S
C479 H461 0.948 . S
Co480 N485 2.057 . S
Co480 O497 2.021 . S
Co480 O500 2.062 . S
Co480 O504 2.117 1_545 S
Co480 O505 2.020 1_545 S
C481 O501 1.259 1_655 S
C481 O504 1.258 . S
Co482 N491 2.057 . S
Co482 O498 2.117 1_565 S
Co482 O499 2.020 1_565 S
Co482 O501 2.021 . S
Co482 O506 2.062 . S
C483 N485 1.316 . S
C483 N486 1.347 . S
C483 H488 0.931 . S
C484 N485 1.375 1_565 S
C484 C487 1.350 1_565 S
C484 H489 0.930 . S
N485 Co480 2.057 . S
N485 C483 1.316 . S
N485 C484 1.375 1_545 S
N486 C483 1.347 . S
N486 C487 1.373 . S
C487 C484 1.350 1_545 S
C487 N486 1.373 . S
C487 H508 0.931 1_545 S
H488 C483 0.931 . S
H489 C484 0.930 . S
C490 O497 1.259 1_455 S
C490 O498 1.258 . S
N491 Co482 2.057 . S
N491 C492 1.316 . S
N491 C493 1.375 1_565 S
C492 N491 1.316 . S
C492 N494 1.347 . S
C492 H503 0.931 . S
C493 N491 1.375 1_545 S
C493 C495 1.350 1_545 S
C493 H502 0.930 . S
N494 C492 1.347 . S
N494 C495 1.373 . S
C495 C493 1.350 1_565 S
C495 N494 1.373 . S
C495 H509 0.931 1_565 S
C496 O499 1.256 . S
C496 O500 1.255 1_455 S
O497 Co480 2.021 . S
O497 C490 1.259 1_655 S
O498 Co482 2.117 1_545 S
O498 C490 1.258 . S
O499 Co482 2.020 1_545 S
O499 C496 1.256 . S
O500 Co480 2.062 . S
O500 C496 1.255 1_655 S
O501 C481 1.259 1_455 S
O501 Co482 2.021 . S
H502 C493 0.930 . S
H503 C492 0.931 . S
O504 Co480 2.117 1_565 S
O504 C481 1.258 . S
O505 Co480 2.020 1_565 S
O505 C507 1.256 . S
O506 Co482 2.062 . S
O506 C507 1.255 1_455 S
C507 O505 1.256 . S
C507 O506 1.255 1_655 S
H508 C487 0.931 1_565 S
H509 C495 0.931 1_545 S
Co510 N515 2.057 . S
Co510 O527 2.021 1_565 S
Co510 O530 2.062 . S
Co510 O534 2.117 . S
Co510 O535 2.020 1_565 S
C511 O531 1.259 . S
C511 O534 1.258 1_554 S
Co512 N521 2.057 . S
Co512 O528 2.117 . S
Co512 O529 2.020 1_545 S
Co512 O531 2.021 1_545 S
Co512 O536 2.062 . S
C513 N515 1.316 . S
C513 N516 1.347 . S
C513 H518 0.931 1_565 S
C514 N515 1.375 . S
C514 C517 1.350 . S
C514 H519 0.930 . S
N515 Co510 2.057 . S
N515 C513 1.316 . S
N515 C514 1.375 . S
N516 C513 1.347 . S
N516 C517 1.373 . S
C517 C514 1.350 . S
C517 N516 1.373 . S
C517 H538 0.931 . S
H518 C513 0.931 1_545 S
H519 C514 0.930 . S
C520 O527 1.259 . S
C520 O528 1.258 1_556 S
N521 Co512 2.057 . S
N521 C522 1.316 . S
N521 C523 1.375 . S
C522 N521 1.316 . S
C522 N524 1.347 . S
C522 H533 0.931 1_545 S
C523 N521 1.375 . S
C523 C525 1.350 . S
C523 H532 0.930 . S
N524 C522 1.347 . S
N524 C525 1.373 . S
C525 C523 1.350 . S
C525 N524 1.373 . S
C525 H539 0.931 . S
C526 O529 1.256 1_556 S
C526 O530 1.255 . S
O527 Co510 2.021 1_545 S
O527 C520 1.259 . S
O528 Co512 2.117 . S
O528 C520 1.258 1_554 S
O529 Co512 2.020 1_565 S
O529 C526 1.256 1_554 S
O530 Co510 2.062 . S
O530 C526 1.255 . S
O531 C511 1.259 . S
O531 Co512 2.021 1_565 S
H532 C523 0.930 . S
H533 C522 0.931 1_565 S
O534 Co510 2.117 . S
O534 C511 1.258 1_556 S
O535 Co510 2.020 1_545 S
O535 C537 1.256 1_556 S
O536 Co512 2.062 . S
O536 C537 1.255 . S
C537 O535 1.256 1_554 S
C537 O536 1.255 . S
H538 C517 0.931 . S
H539 C525 0.931 . S
Co540 N545 2.057 . S
Co540 O557 2.021 . S
Co540 O560 2.062 . S
Co540 O564 2.117 . S
Co540 O565 2.020 . S
C541 O561 1.259 . S
C541 O564 1.258 . S
Co542 N551 2.057 . S
Co542 O558 2.117 . S
Co542 O559 2.020 . S
Co542 O561 2.021 . S
Co542 O566 2.062 . S
C543 N545 1.316 . S
C543 N546 1.347 . S
C543 H548 0.931 . S
C544 N545 1.375 . S
C544 C547 1.350 . S
C544 H549 0.930 . S
N545 Co540 2.057 . S
N545 C543 1.316 . S
N545 C544 1.375 . S
N546 C543 1.347 . S
N546 C547 1.373 . S
C547 C544 1.350 . S
C547 N546 1.373 . S
C547 H568 0.931 . S
H548 C543 0.931 . S
H549 C544 0.930 . S
C550 O557 1.259 . S
C550 O558 1.258 . S
N551 Co542 2.057 . S
N551 C552 1.316 . S
N551 C553 1.375 . S
C552 N551 1.316 . S
C552 N554 1.347 . S
C552 H563 0.931 . S
C553 N551 1.375 . S
C553 C555 1.350 . S
C553 H562 0.930 . S
N554 C552 1.347 . S
N554 C555 1.373 . S
C555 C553 1.350 . S
C555 N554 1.373 . S
C555 H569 0.931 . S
C556 O559 1.256 . S
C556 O560 1.255 . S
O557 Co540 2.021 . S
O557 C550 1.259 . S
O558 Co542 2.117 . S
O558 C550 1.258 . S
O559 Co542 2.020 . S
O559 C556 1.256 . S
O560 Co540 2.062 . S
O560 C556 1.255 . S
O561 C541 1.259 . S
O561 Co542 2.021 . S
H562 C553 0.930 . S
H563 C552 0.931 . S
O564 Co540 2.117 . S
O564 C541 1.258 . S
O565 Co540 2.020 . S
O565 C567 1.256 . S
O566 Co542 2.062 . S
O566 C567 1.255 . S
C567 O565 1.256 . S
C567 O566 1.255 . S
H568 C547 0.931 . S
H569 C555 0.931 . S
Co570 N575 2.057 . S
Co570 O587 2.021 . S
Co570 O590 2.062 . S
Co570 O594 2.117 1_455 S
Co570 O595 2.020 1_455 S
C571 O591 1.259 1_556 S
C571 O594 1.258 . S
Co572 N581 2.057 . S
Co572 O588 2.117 1_655 S
Co572 O589 2.020 1_655 S
Co572 O591 2.021 . S
Co572 O596 2.062 . S
C573 N575 1.316 . S
C573 N576 1.347 . S
C573 H578 0.931 . S
C574 N575 1.375 1_655 S
C574 C577 1.350 1_655 S
C574 H579 0.930 . S
N575 Co570 2.057 . S
N575 C573 1.316 . S
N575 C574 1.375 1_455 S
N576 C573 1.347 . S
N576 C577 1.373 . S
C577 C574 1.350 1_455 S
C577 N576 1.373 . S
C577 H598 0.931 1_455 S
H578 C573 0.931 . S
H579 C574 0.930 . S
C580 O587 1.259 1_554 S
C580 O588 1.258 . S
N581 Co572 2.057 . S
N581 C582 1.316 . S
N581 C583 1.375 1_655 S
C582 N581 1.316 . S
C582 N584 1.347 . S
C582 H593 0.931 . S
C583 N581 1.375 1_455 S
C583 C585 1.350 1_455 S
C583 H592 0.930 . S
N584 C582 1.347 . S
N584 C585 1.373 . S
C585 C583 1.350 1_655 S
C585 N584 1.373 . S
C585 H599 0.931 1_655 S
C586 O589 1.256 . S
C586 O590 1.255 1_554 S
O587 Co570 2.021 . S
O587 C580 1.259 1_556 S
O588 Co572 2.117 1_455 S
O588 C580 1.258 . S
O589 Co572 2.020 1_455 S
O589 C586 1.256 . S
O590 Co570 2.062 . S
O590 C586 1.255 1_556 S
O591 C571 1.259 1_554 S
O591 Co572 2.021 . S
H592 C583 0.930 . S
H593 C582 0.931 . S
O594 Co570 2.117 1_655 S
O594 C571 1.258 . S
O595 Co570 2.020 1_655 S
O595 C597 1.256 . S
O596 Co572 2.062 . S
O596 C597 1.255 1_554 S
C597 O595 1.256 . S
C597 O596 1.255 1_556 S
H598 C577 0.931 1_655 S
H599 C585 0.931 1_455 S
H600 C612 0.930 . S
H601 C614 0.930 . S
H602 C615 0.930 1_565 S
H603 C619 0.959 . S
H604 C619 0.959 . S
H605 C619 0.961 . S
H606 C620 0.960 . S
H607 C620 0.961 . S
H608 C620 0.959 . S
H609 C623 0.929 1_565 S
H610 C624 0.931 1_565 S
H611 C626 0.930 . S
C612 H600 0.930 . S
C612 C613 1.399 . S
C612 C617 1.399 . S
C613 C612 1.399 . S
C613 C614 1.376 . S
C614 H601 0.930 . S
C614 C613 1.376 . S
C614 C615 1.388 . S
C615 H602 0.930 1_545 S
C615 C614 1.388 . S
C615 C616 1.390 . S
C616 C615 1.390 . S
C616 C617 1.394 . S
C616 C622 1.465 . S
C617 C612 1.399 . S
C617 C616 1.394 . S
C617 C618 1.516 . S
C618 C617 1.516 . S
C618 C619 1.502 . S
C618 C620 1.561 . S
C618 C621 1.526 . S
C619 H603 0.959 . S
C619 H604 0.959 . S
C619 H605 0.961 . S
C619 C618 1.502 . S
C620 H606 0.960 . S
C620 H607 0.961 . S
C620 H608 0.959 . S
C620 C618 1.561 . S
C621 C618 1.526 . S
C621 C622 1.396 . S
C621 C626 1.390 . S
C622 C616 1.465 . S
C622 C621 1.396 . S
C622 C623 1.399 . S
C623 H609 0.929 1_545 S
C623 C622 1.399 . S
C623 C624 1.385 . S
C624 H610 0.931 1_545 S
C624 C623 1.385 . S
C624 C625 1.389 . S
C625 C624 1.389 . S
C625 C626 1.387 . S
C626 H611 0.930 . S
C626 C621 1.390 . S
C626 C625 1.387 . S
H627 C639 0.930 . S
H628 C641 0.930 . S
H629 C642 0.930 . S
H630 C646 0.959 . S
H631 C646 0.959 1_545 S
H632 C646 0.961 . S
H633 C647 0.960 1_545 S
H634 C647 0.961 1_545 S
H635 C647 0.959 . S
H636 C650 0.929 . S
H637 C651 0.931 . S
H638 C653 0.930 . S
C639 H627 0.930 . S
C639 C640 1.399 . S
C639 C644 1.399 . S
C640 C639 1.399 . S
C640 C641 1.376 . S
C641 H628 0.930 . S
C641 C640 1.376 . S
C641 C642 1.388 . S
C642 H629 0.930 . S
C642 C641 1.388 . S
C642 C643 1.390 . S
C643 C642 1.390 . S
C643 C644 1.394 . S
C643 C649 1.465 . S
C644 C639 1.399 . S
C644 C643 1.394 . S
C644 C645 1.516 . S
C645 C644 1.516 . S
C645 C646 1.502 . S
C645 C647 1.561 . S
C645 C648 1.526 . S
C646 H630 0.959 . S
C646 H631 0.959 1_565 S
C646 H632 0.961 . S
C646 C645 1.502 . S
C647 H633 0.960 1_565 S
C647 H634 0.961 1_565 S
C647 H635 0.959 . S
C647 C645 1.561 . S
C648 C645 1.526 . S
C648 C649 1.396 . S
C648 C653 1.390 . S
C649 C643 1.465 . S
C649 C648 1.396 . S
C649 C650 1.399 . S
C650 H636 0.929 . S
C650 C649 1.399 . S
C650 C651 1.385 . S
C651 H637 0.931 . S
C651 C650 1.385 . S
C651 C652 1.389 . S
C652 C651 1.389 . S
C652 C653 1.387 . S
C653 H638 0.930 . S
C653 C648 1.390 . S
C653 C652 1.387 . S
H654 C666 0.930 . S
H655 C668 0.930 . S
H656 C669 0.930 . S
H657 C673 0.959 . S
H658 C673 0.959 . S
H659 C673 0.961 . S
H660 C674 0.960 . S
H661 C674 0.961 . S
H662 C674 0.959 . S
H663 C677 0.929 . S
H664 C678 0.931 . S
H665 C680 0.930 . S
C666 H654 0.930 . S
C666 C667 1.399 . S
C666 C671 1.399 . S
C667 C666 1.399 . S
C667 C668 1.376 . S
C668 H655 0.930 . S
C668 C667 1.376 . S
C668 C669 1.388 . S
C669 H656 0.930 . S
C669 C668 1.388 . S
C669 C670 1.390 . S
C670 C669 1.390 . S
C670 C671 1.394 . S
C670 C676 1.465 . S
C671 C666 1.399 . S
C671 C670 1.394 . S
C671 C672 1.516 . S
C672 C671 1.516 . S
C672 C673 1.502 . S
C672 C674 1.561 . S
C672 C675 1.526 . S
C673 H657 0.959 . S
C673 H658 0.959 . S
C673 H659 0.961 . S
C673 C672 1.502 . S
C674 H660 0.960 . S
C674 H661 0.961 . S
C674 H662 0.959 . S
C674 C672 1.561 . S
C675 C672 1.526 . S
C675 C676 1.396 . S
C675 C680 1.390 . S
C676 C670 1.465 . S
C676 C675 1.396 . S
C676 C677 1.399 . S
C677 H663 0.929 . S
C677 C676 1.399 . S
C677 C678 1.385 . S
C678 H664 0.931 . S
C678 C677 1.385 . S
C678 C679 1.389 . S
C679 C678 1.389 . S
C679 C680 1.387 . S
C680 H665 0.930 . S
C680 C675 1.390 . S
C680 C679 1.387 . S
H681 C693 0.930 . S
H682 C695 0.930 . S
H683 C696 0.930 . S
H684 C700 0.959 1_655 S
H685 C700 0.959 . S
H686 C700 0.961 . S
H687 C701 0.960 . S
H688 C701 0.961 . S
H689 C701 0.949 1_655 S
H690 C704 0.929 . S
H691 C705 0.931 . S
H692 C707 0.930 . S
C693 H681 0.930 . S
C693 C694 1.399 . S
C693 C698 1.399 . S
C694 C693 1.399 . S
C694 C695 1.376 . S
C695 H682 0.930 . S
C695 C694 1.376 . S
C695 C696 1.388 . S
C696 H683 0.930 . S
C696 C695 1.388 . S
C696 C697 1.390 . S
C697 C696 1.390 . S
C697 C698 1.394 . S
C697 C703 1.465 . S
C698 C693 1.399 . S
C698 C697 1.394 . S
C698 C699 1.516 . S
C699 C698 1.516 . S
C699 C700 1.502 1_655 S
C699 C701 1.561 1_655 S
C699 C702 1.526 . S
C700 H684 0.959 1_455 S
C700 H685 0.959 . S
C700 H686 0.961 . S
C700 C699 1.502 1_455 S
C701 H687 0.960 . S
C701 H688 0.961 . S
C701 H689 0.949 1_455 S
C701 C699 1.561 1_455 S
C702 C699 1.526 . S
C702 C703 1.396 . S
C702 C707 1.390 . S
C703 C697 1.465 . S
C703 C702 1.396 . S
C703 C704 1.399 . S
C704 H690 0.929 . S
C704 C703 1.399 . S
C704 C705 1.385 . S
C705 H691 0.931 . S
C705 C704 1.385 . S
C705 C706 1.389 . S
C706 C705 1.389 . S
C706 C707 1.387 . S
C707 H692 0.930 . S
C707 C702 1.390 . S
C707 C706 1.387 . S
H708 C720 0.930 . S
H709 C722 0.930 . S
H710 C723 0.930 . S
H711 C727 0.959 . S
H712 C727 0.959 . S
H713 C727 0.961 . S
H714 C728 0.960 1_556 S
H715 C728 0.961 1_556 S
H716 C728 0.959 . S
H717 C731 0.929 . S
H718 C732 0.931 . S
H719 C734 0.930 1_556 S
C720 H708 0.930 . S
C720 C721 1.399 . S
C720 C725 1.399 . S
C721 C720 1.399 . S
C721 C722 1.376 . S
C722 H709 0.930 . S
C722 C721 1.376 . S
C722 C723 1.388 . S
C723 H710 0.930 . S
C723 C722 1.388 . S
C723 C724 1.390 . S
C724 C723 1.390 . S
C724 C725 1.394 . S
C724 C730 1.465 . S
C725 C720 1.399 . S
C725 C724 1.394 . S
C725 C726 1.516 . S
C726 C725 1.516 . S
C726 C727 1.502 1_554 S
C726 C728 1.561 . S
C726 C729 1.526 . S
C727 H711 0.959 . S
C727 H712 0.959 . S
C727 H713 0.961 . S
C727 C726 1.502 1_556 S
C728 H714 0.960 1_554 S
C728 H715 0.961 1_554 S
C728 H716 0.959 . S
C728 C726 1.561 . S
C729 C726 1.526 . S
C729 C730 1.396 . S
C729 C734 1.390 . S
C730 C724 1.465 . S
C730 C729 1.396 . S
C730 C731 1.399 . S
C731 H717 0.929 . S
C731 C730 1.399 . S
C731 C732 1.385 . S
C732 H718 0.931 . S
C732 C731 1.385 . S
C732 C733 1.389 . S
C733 C732 1.389 . S
C733 C734 1.387 . S
C734 H719 0.930 1_554 S
C734 C729 1.390 . S
C734 C733 1.387 . S
H735 C747 0.930 . S
H736 C749 0.930 . S
H737 C750 0.930 . S
H738 C754 0.959 . S
H739 C754 0.959 . S
H740 C754 0.961 . S
H741 C755 0.960 . S
H742 C755 0.961 . S
H743 C755 0.959 . S
H744 C758 0.929 . S
H745 C759 0.931 . S
H746 C761 0.930 . S
C747 H735 0.930 . S
C747 C748 1.399 . S
C747 C752 1.399 . S
C748 C747 1.399 . S
C748 C749 1.376 . S
C749 H736 0.930 . S
C749 C748 1.376 . S
C749 C750 1.388 . S
C750 H737 0.930 . S
C750 C749 1.388 . S
C750 C751 1.390 . S
C751 C750 1.390 . S
C751 C752 1.394 . S
C751 C757 1.465 . S
C752 C747 1.399 . S
C752 C751 1.394 . S
C752 C753 1.516 . S
C753 C752 1.516 . S
C753 C754 1.502 . S
C753 C755 1.561 . S
C753 C756 1.526 . S
C754 H738 0.959 . S
C754 H739 0.959 . S
C754 H740 0.961 . S
C754 C753 1.502 . S
C755 H741 0.960 . S
C755 H742 0.961 . S
C755 H743 0.959 . S
C755 C753 1.561 . S
C756 C753 1.526 . S
C756 C757 1.396 . S
C756 C761 1.390 . S
C757 C751 1.465 . S
C757 C756 1.396 . S
C757 C758 1.399 . S
C758 H744 0.929 . S
C758 C757 1.399 . S
C758 C759 1.385 . S
C759 H745 0.931 . S
C759 C758 1.385 . S
C759 C760 1.389 . S
C760 C759 1.389 . S
C760 C761 1.387 . S
C761 H746 0.930 . S
C761 C756 1.390 . S
C761 C760 1.387 . S
H762 C774 0.930 . S
H763 C776 0.930 . S
H764 C777 0.930 . S
H765 C781 0.959 . S
H766 C781 0.959 . S
H767 C781 0.961 . S
H768 C782 0.960 . S
H769 C782 0.961 . S
H770 C782 0.959 . S
H771 C785 0.944 . S
H772 C786 0.931 . S
H773 C788 0.930 . S
C774 H762 0.930 . S
C774 C775 1.399 . S
C774 C779 1.399 . S
C775 C774 1.399 . S
C775 C776 1.376 . S
C776 H763 0.930 . S
C776 C775 1.376 . S
C776 C777 1.388 . S
C777 H764 0.930 . S
C777 C776 1.388 . S
C777 C778 1.390 . S
C778 C777 1.390 . S
C778 C779 1.394 . S
C778 C784 1.465 . S
C779 C774 1.399 . S
C779 C778 1.394 . S
C779 C780 1.516 . S
C780 C779 1.516 . S
C780 C781 1.502 . S
C780 C782 1.561 . S
C780 C783 1.526 . S
C781 H765 0.959 . S
C781 H766 0.959 . S
C781 H767 0.961 . S
C781 C780 1.502 . S
C782 H768 0.960 . S
C782 H769 0.961 . S
C782 H770 0.959 . S
C782 C780 1.561 . S
C783 C780 1.526 . S
C783 C784 1.396 . S
C783 C788 1.390 . S
C784 C778 1.465 . S
C784 C783 1.396 . S
C784 C785 1.382 1_556 S
C785 H771 0.944 . S
C785 C784 1.382 1_554 S
C785 C786 1.387 . S
C786 H772 0.931 . S
C786 C785 1.387 . S
C786 C787 1.389 1_554 S
C787 C786 1.389 1_556 S
C787 C788 1.387 . S
C788 H773 0.930 . S
C788 C783 1.390 . S
C788 C787 1.387 . S
H789 C801 0.930 . S
H790 C803 0.930 . S
H791 C804 0.930 . S
H792 C808 0.959 . S
H793 C808 0.959 . S
H794 C808 0.961 . S
H795 C809 0.960 . S
H796 C809 0.961 . S
H797 C809 0.959 . S
H798 C812 0.929 . S
H799 C813 0.931 . S
H800 C815 0.930 . S
C801 H789 0.930 . S
C801 C802 1.399 . S
C801 C806 1.399 . S
C802 C801 1.399 . S
C802 C803 1.376 . S
C803 H790 0.930 . S
C803 C802 1.376 . S
C803 C804 1.388 . S
C804 H791 0.930 . S
C804 C803 1.388 . S
C804 C805 1.390 . S
C805 C804 1.390 . S
C805 C806 1.394 . S
C805 C811 1.465 . S
C806 C801 1.399 . S
C806 C805 1.394 . S
C806 C807 1.516 . S
C807 C806 1.516 . S
C807 C808 1.502 . S
C807 C809 1.561 . S
C807 C810 1.526 . S
C808 H792 0.959 . S
C808 H793 0.959 . S
C808 H794 0.961 . S
C808 C807 1.502 . S
C809 H795 0.960 . S
C809 H796 0.961 . S
C809 H797 0.959 . S
C809 C807 1.561 . S
C810 C807 1.526 . S
C810 C811 1.396 . S
C810 C815 1.390 . S
C811 C805 1.465 . S
C811 C810 1.396 . S
C811 C812 1.399 . S
C812 H798 0.929 . S
C812 C811 1.399 . S
C812 C813 1.385 . S
C813 H799 0.931 . S
C813 C812 1.385 . S
C813 C814 1.389 . S
C814 C813 1.389 . S
C814 C815 1.387 . S
C815 H800 0.930 . S
C815 C810 1.390 . S
C815 C814 1.387 . S
H816 C828 0.930 . S
H817 C830 0.930 . S
H818 C831 0.930 1_556 S
H819 C835 0.959 . S
H820 C835 0.959 . S
H821 C835 0.961 . S
H822 C836 0.960 . S
H823 C836 0.961 . S
H824 C836 0.959 . S
H825 C839 0.929 . S
H826 C840 0.931 . S
H827 C842 0.930 . S
C828 H816 0.930 . S
C828 C829 1.399 . S
C828 C833 1.399 . S
C829 C828 1.399 . S
C829 C830 1.376 . S
C830 H817 0.930 . S
C830 C829 1.376 . S
C830 C831 1.388 . S
C831 H818 0.930 1_554 S
C831 C830 1.388 . S
C831 C832 1.390 . S
C832 C831 1.390 . S
C832 C833 1.394 . S
C832 C838 1.465 . S
C833 C828 1.399 . S
C833 C832 1.394 . S
C833 C834 1.516 . S
C834 C833 1.516 . S
C834 C835 1.502 . S
C834 C836 1.561 . S
C834 C837 1.526 . S
C835 H819 0.959 . S
C835 H820 0.959 . S
C835 H821 0.961 . S
C835 C834 1.502 . S
C836 H822 0.960 . S
C836 H823 0.961 . S
C836 H824 0.959 . S
C836 C834 1.561 . S
C837 C834 1.526 . S
C837 C838 1.396 . S
C837 C842 1.390 . S
C838 C832 1.465 . S
C838 C837 1.396 . S
C838 C839 1.399 1_554 S
C839 H825 0.929 . S
C839 C838 1.399 1_556 S
C839 C840 1.385 . S
C840 H826 0.931 . S
C840 C839 1.385 . S
C840 C841 1.389 1_556 S
C841 C840 1.389 1_554 S
C841 C842 1.387 . S
C842 H827 0.930 . S
C842 C837 1.390 . S
C842 C841 1.387 . S
H843 C855 0.930 . S
H844 C857 0.930 . S
H845 C858 0.930 . S
H846 C862 0.959 . S
H847 C862 0.959 1_554 S
H848 C862 0.961 . S
H849 C863 0.960 . S
H850 C863 0.961 . S
H851 C863 0.959 . S
H852 C866 0.929 . S
H853 C867 0.931 . S
H854 C869 0.930 . S
C855 H843 0.930 . S
C855 C856 1.399 . S
C855 C860 1.399 . S
C856 C855 1.399 . S
C856 C857 1.376 . S
C857 H844 0.930 . S
C857 C856 1.376 . S
C857 C858 1.388 . S
C858 H845 0.930 . S
C858 C857 1.388 . S
C858 C859 1.390 . S
C859 C858 1.390 . S
C859 C860 1.394 . S
C859 C865 1.465 . S
C860 C855 1.399 . S
C860 C859 1.394 . S
C860 C861 1.516 . S
C861 C860 1.516 . S
C861 C862 1.502 . S
C861 C863 1.561 1_556 S
C861 C864 1.526 . S
C862 H846 0.959 . S
C862 H847 0.959 1_556 S
C862 H848 0.961 . S
C862 C861 1.502 . S
C863 H849 0.960 . S
C863 H850 0.961 . S
C863 H851 0.959 . S
C863 C861 1.561 1_554 S
C864 C861 1.526 . S
C864 C865 1.396 . S
C864 C869 1.390 . S
C865 C859 1.465 . S
C865 C864 1.396 . S
C865 C866 1.399 . S
C866 H852 0.929 . S
C866 C865 1.399 . S
C866 C867 1.385 . S
C867 H853 0.931 . S
C867 C866 1.385 . S
C867 C868 1.389 . S
C868 C867 1.389 . S
C868 C869 1.387 . S
C869 H854 0.930 . S
C869 C864 1.390 . S
C869 C868 1.387 . S
H870 C882 0.930 . S
H871 C884 0.930 . S
H872 C885 0.930 . S
H873 C889 0.959 . S
H874 C889 0.959 . S
H875 C889 0.961 . S
H876 C890 0.960 . S
H877 C890 0.961 . S
H878 C890 0.959 . S
H879 C893 0.929 . S
H880 C894 0.931 . S
H881 C896 0.930 . S
C882 H870 0.930 . S
C882 C883 1.399 . S
C882 C887 1.399 . S
C883 C882 1.399 . S
C883 C884 1.376 . S
C884 H871 0.930 . S
C884 C883 1.376 . S
C884 C885 1.388 . S
C885 H872 0.930 . S
C885 C884 1.388 . S
C885 C886 1.390 . S
C886 C885 1.390 . S
C886 C887 1.394 . S
C886 C892 1.465 . S
C887 C882 1.399 . S
C887 C886 1.394 . S
C887 C888 1.516 . S
C888 C887 1.516 . S
C888 C889 1.502 1_655 S
C888 C890 1.561 . S
C888 C891 1.526 . S
C889 H873 0.959 . S
C889 H874 0.959 . S
C889 H875 0.961 . S
C889 C888 1.502 1_455 S
C890 H876 0.960 . S
C890 H877 0.961 . S
C890 H878 0.959 . S
C890 C888 1.561 . S
C891 C888 1.526 . S
C891 C892 1.396 . S
C891 C896 1.390 . S
C892 C886 1.465 . S
C892 C891 1.396 . S
C892 C893 1.399 . S
C893 H879 0.929 . S
C893 C892 1.399 . S
C893 C894 1.385 . S
C894 H880 0.931 . S
C894 C893 1.385 . S
C894 C895 1.389 . S
C895 C894 1.389 . S
C895 C896 1.387 . S
C896 H881 0.930 . S
C896 C891 1.390 . S
C896 C895 1.387 . S
H897 C909 0.930 . S
H898 C911 0.930 . S
H899 C912 0.930 . S
H900 C916 0.959 . S
H901 C916 0.959 . S
H902 C916 0.961 . S
H903 C917 0.960 . S
H904 C917 0.961 . S
H905 C917 0.959 . S
H906 C920 0.929 . S
H907 C921 0.931 . S
H908 C923 0.930 . S
C909 H897 0.930 . S
C909 C910 1.399 . S
C909 C914 1.399 . S
C910 C909 1.399 . S
C910 C911 1.376 . S
C911 H898 0.930 . S
C911 C910 1.376 . S
C911 C912 1.388 . S
C912 H899 0.930 . S
C912 C911 1.388 . S
C912 C913 1.390 . S
C913 C912 1.390 . S
C913 C914 1.394 . S
C913 C919 1.465 . S
C914 C909 1.399 . S
C914 C913 1.394 . S
C914 C915 1.516 . S
C915 C914 1.516 . S
C915 C916 1.502 . S
C915 C917 1.561 . S
C915 C918 1.526 . S
C916 H900 0.959 . S
C916 H901 0.959 . S
C916 H902 0.961 . S
C916 C915 1.502 . S
C917 H903 0.960 . S
C917 H904 0.961 . S
C917 H905 0.959 . S
C917 C915 1.561 . S
C918 C915 1.526 . S
C918 C919 1.396 . S
C918 C923 1.390 . S
C919 C913 1.465 . S
C919 C918 1.396 . S
C919 C920 1.399 . S
C920 H906 0.929 . S
C920 C919 1.399 . S
C920 C921 1.385 . S
C921 H907 0.931 . S
C921 C920 1.385 . S
C921 C922 1.389 . S
C922 C921 1.389 . S
C922 C923 1.387 . S
C923 H908 0.930 . S
C923 C918 1.390 . S
C923 C922 1.387 . S
H924 C936 0.930 . S
H925 C938 0.930 . S
H926 C939 0.930 1_545 S
H927 C943 0.959 1_455 S
H928 C943 0.959 . S
H929 C943 0.961 . S
H930 C944 0.960 . S
H931 C944 0.961 . S
H932 C944 0.959 . S
H933 C947 0.923 1_545 S
H934 C948 0.919 1_545 S
H935 C950 0.930 . S
C936 H924 0.930 . S
C936 C937 1.399 . S
C936 C941 1.399 . S
C937 C936 1.399 . S
C937 C938 1.376 . S
C938 H925 0.930 . S
C938 C937 1.376 . S
C938 C939 1.388 . S
C939 H926 0.930 1_565 S
C939 C938 1.388 . S
C939 C940 1.390 . S
C940 C939 1.390 . S
C940 C941 1.394 . S
C940 C946 1.465 . S
C941 C936 1.399 . S
C941 C940 1.394 . S
C941 C942 1.516 . S
C942 C941 1.516 . S
C942 C943 1.502 . S
C942 C944 1.561 . S
C942 C945 1.526 . S
C943 H927 0.959 1_655 S
C943 H928 0.959 . S
C943 H929 0.961 . S
C943 C942 1.502 . S
C944 H930 0.960 . S
C944 H931 0.961 . S
C944 H932 0.959 . S
C944 C942 1.561 . S
C945 C942 1.526 . S
C945 C946 1.396 . S
C945 C950 1.390 . S
C946 C940 1.465 . S
C946 C945 1.396 . S
C946 C947 1.405 . S
C947 H933 0.923 1_565 S
C947 C946 1.405 . S
C947 C948 1.385 . S
C948 H934 0.919 1_565 S
C948 C947 1.385 . S
C948 C949 1.401 . S
C949 C948 1.401 . S
C949 C950 1.387 . S
C950 H935 0.930 . S
C950 C945 1.390 . S
C950 C949 1.387 . S
H951 C963 0.930 . S
H952 C965 0.930 . S
H953 C966 0.930 . S
H954 C970 0.959 . S
H955 C970 0.959 . S
H956 C970 0.961 . S
H957 C971 0.960 . S
H958 C971 0.961 . S
H959 C971 0.959 . S
H960 C974 0.905 1_565 S
H961 C975 0.931 1_565 S
H962 C977 0.930 . S
C963 H951 0.930 . S
C963 C964 1.399 . S
C963 C968 1.399 . S
C964 C963 1.399 . S
C964 C965 1.376 . S
C965 H952 0.930 . S
C965 C964 1.376 . S
C965 C966 1.388 . S
C966 H953 0.930 . S
C966 C965 1.388 . S
C966 C967 1.390 . S
C967 C966 1.390 . S
C967 C968 1.394 . S
C967 C973 1.465 . S
C968 C963 1.399 . S
C968 C967 1.394 . S
C968 C969 1.516 . S
C969 C968 1.516 . S
C969 C970 1.502 . S
C969 C971 1.561 . S
C969 C972 1.526 . S
C970 H954 0.959 . S
C970 H955 0.959 . S
C970 H956 0.961 . S
C970 C969 1.502 . S
C971 H957 0.960 . S
C971 H958 0.961 . S
C971 H959 0.959 . S
C971 C969 1.561 . S
C972 C969 1.526 . S
C972 C973 1.396 . S
C972 C977 1.390 . S
C973 C967 1.465 . S
C973 C972 1.396 . S
C973 C974 1.399 . S
C974 H960 0.905 1_545 S
C974 C973 1.399 . S
C974 C975 1.385 . S
C975 H961 0.931 1_545 S
C975 C974 1.385 . S
C975 C976 1.389 . S
C976 C975 1.389 . S
C976 C977 1.387 . S
C977 H962 0.930 . S
C977 C972 1.390 . S
C977 C976 1.387 . S
H978 C990 0.930 . S
H979 C992 0.930 . S
H980 C993 0.930 . S
H981 C997 0.959 . S
H982 C997 0.959 . S
H983 C997 0.961 . S
H984 C998 0.960 . S
H985 C998 0.961 . S
H986 C998 0.959 . S
H987 C1001 0.929 . S
H988 C1002 0.931 . S
H989 C1004 0.930 . S
C990 H978 0.930 . S
C990 C991 1.399 . S
C990 C995 1.399 . S
C991 C990 1.399 . S
C991 C992 1.376 . S
C992 H979 0.930 . S
C992 C991 1.376 . S
C992 C993 1.388 . S
C993 H980 0.930 . S
C993 C992 1.388 . S
C993 C994 1.390 . S
C994 C993 1.390 . S
C994 C995 1.394 . S
C994 C1000 1.465 . S
C995 C990 1.399 . S
C995 C994 1.394 . S
C995 C996 1.516 . S
C996 C995 1.516 . S
C996 C997 1.502 . S
C996 C998 1.561 . S
C996 C999 1.526 . S
C997 H981 0.959 . S
C997 H982 0.959 . S
C997 H983 0.961 . S
C997 C996 1.502 . S
C998 H984 0.960 . S
C998 H985 0.961 . S
C998 H986 0.959 . S
C998 C996 1.561 . S
C999 C996 1.526 . S
C999 C1000 1.396 . S
C999 C1004 1.390 . S
C1000 C994 1.465 . S
C1000 C999 1.396 . S
C1000 C1001 1.399 . S
C1001 H987 0.929 . S
C1001 C1000 1.399 . S
C1001 C1002 1.385 . S
C1002 H988 0.931 . S
C1002 C1001 1.385 . S
C1002 C1003 1.389 . S
C1003 C1002 1.389 . S
C1003 C1004 1.387 . S
C1004 H989 0.930 . S
C1004 C999 1.390 . S
C1004 C1003 1.387 . S
H1005 C1017 0.930 . S
H1006 C1019 0.930 . S
H1007 C1020 0.930 . S
H1008 C1024 0.959 1_655 S
H1009 C1024 0.959 . S
H1010 C1024 0.961 . S
H1011 C1025 0.960 . S
H1012 C1025 0.961 . S
H1013 C1025 0.959 . S
H1014 C1028 0.929 . S
H1015 C1029 0.931 . S
H1016 C1031 0.930 . S
C1017 H1005 0.930 . S
C1017 C1018 1.399 . S
C1017 C1022 1.399 . S
C1018 C1017 1.399 . S
C1018 C1019 1.376 . S
C1019 H1006 0.930 . S
C1019 C1018 1.376 . S
C1019 C1020 1.388 . S
C1020 H1007 0.930 . S
C1020 C1019 1.388 . S
C1020 C1021 1.390 . S
C1021 C1020 1.390 . S
C1021 C1022 1.394 . S
C1021 C1027 1.465 . S
C1022 C1017 1.399 . S
C1022 C1021 1.394 . S
C1022 C1023 1.516 . S
C1023 C1022 1.516 . S
C1023 C1024 1.502 . S
C1023 C1025 1.561 . S
C1023 C1026 1.526 . S
C1024 H1008 0.959 1_455 S
C1024 H1009 0.959 . S
C1024 H1010 0.961 . S
C1024 C1023 1.502 . S
C1025 H1011 0.960 . S
C1025 H1012 0.961 . S
C1025 H1013 0.959 . S
C1025 C1023 1.561 . S
C1026 C1023 1.526 . S
C1026 C1027 1.396 . S
C1026 C1031 1.390 . S
C1027 C1021 1.465 . S
C1027 C1026 1.396 . S
C1027 C1028 1.399 . S
C1028 H1014 0.929 . S
C1028 C1027 1.399 . S
C1028 C1029 1.385 . S
C1029 H1015 0.931 . S
C1029 C1028 1.385 . S
C1029 C1030 1.389 . S
C1030 C1029 1.389 . S
C1030 C1031 1.387 . S
C1031 H1016 0.930 . S
C1031 C1026 1.390 . S
C1031 C1030 1.387 . S
H1032 C1044 0.930 . S
H1033 C1046 0.930 . S
H1034 C1047 0.930 1_545 S
H1035 C1051 0.959 . S
H1036 C1051 0.959 . S
H1037 C1051 0.961 . S
H1038 C1052 0.960 . S
H1039 C1052 0.961 . S
H1040 C1052 0.959 1_554 S
H1041 C1055 0.949 . S
H1042 C1056 0.928 . S
H1043 C1058 0.930 . S
C1044 H1032 0.930 . S
C1044 C1045 1.399 . S
C1044 C1049 1.399 . S
C1045 C1044 1.399 . S
C1045 C1046 1.376 . S
C1046 H1033 0.930 . S
C1046 C1045 1.376 . S
C1046 C1047 1.388 . S
C1047 H1034 0.930 1_565 S
C1047 C1046 1.388 . S
C1047 C1048 1.390 . S
C1048 C1047 1.390 . S
C1048 C1049 1.394 . S
C1048 C1054 1.465 . S
C1049 C1044 1.399 . S
C1049 C1048 1.394 . S
C1049 C1050 1.516 . S
C1050 C1049 1.516 . S
C1050 C1051 1.502 . S
C1050 C1052 1.561 . S
C1050 C1053 1.526 . S
C1051 H1035 0.959 . S
C1051 H1036 0.959 . S
C1051 H1037 0.961 . S
C1051 C1050 1.502 . S
C1052 H1038 0.960 . S
C1052 H1039 0.961 . S
C1052 H1040 0.959 1_556 S
C1052 C1050 1.561 . S
C1053 C1050 1.526 . S
C1053 C1054 1.396 . S
C1053 C1058 1.390 . S
C1054 C1048 1.465 . S
C1054 C1053 1.396 . S
C1054 C1055 1.378 1_565 S
C1055 H1041 0.949 . S
C1055 C1054 1.378 1_545 S
C1055 C1056 1.386 . S
C1056 H1042 0.928 . S
C1056 C1055 1.386 . S
C1056 C1057 1.392 1_545 S
C1057 C1056 1.392 1_565 S
C1057 C1058 1.387 . S
C1058 H1043 0.930 . S
C1058 C1053 1.390 . S
C1058 C1057 1.387 . S
H1059 C1071 0.930 . S
H1060 C1073 0.930 . S
H1061 C1074 0.930 . S
H1062 C1078 0.959 . S
H1063 C1078 0.959 . S
H1064 C1078 0.961 . S
H1065 C1079 0.960 . S
H1066 C1079 0.961 . S
H1067 C1079 0.959 . S
H1068 C1082 0.929 . S
H1069 C1083 0.931 . S
H1070 C1085 0.930 . S
C1071 H1059 0.930 . S
C1071 C1072 1.399 . S
C1071 C1076 1.399 . S
C1072 C1071 1.399 . S
C1072 C1073 1.376 . S
C1073 H1060 0.930 . S
C1073 C1072 1.376 . S
C1073 C1074 1.388 . S
C1074 H1061 0.930 . S
C1074 C1073 1.388 . S
C1074 C1075 1.390 . S
C1075 C1074 1.390 . S
C1075 C1076 1.394 . S
C1075 C1081 1.465 . S
C1076 C1071 1.399 . S
C1076 C1075 1.394 . S
C1076 C1077 1.516 . S
C1077 C1076 1.516 . S
C1077 C1078 1.502 . S
C1077 C1079 1.561 . S
C1077 C1080 1.526 . S
C1078 H1062 0.959 . S
C1078 H1063 0.959 . S
C1078 H1064 0.961 . S
C1078 C1077 1.502 . S
C1079 H1065 0.960 . S
C1079 H1066 0.961 . S
C1079 H1067 0.959 . S
C1079 C1077 1.561 . S
C1080 C1077 1.526 . S
C1080 C1081 1.396 . S
C1080 C1085 1.390 . S
C1081 C1075 1.465 . S
C1081 C1080 1.396 . S
C1081 C1082 1.399 . S
C1082 H1068 0.929 . S
C1082 C1081 1.399 . S
C1082 C1083 1.385 . S
C1083 H1069 0.931 . S
C1083 C1082 1.385 . S
C1083 C1084 1.389 . S
C1084 C1083 1.389 . S
C1084 C1085 1.387 . S
C1085 H1070 0.930 . S
C1085 C1080 1.390 . S
C1085 C1084 1.387 . S
H1086 C1098 0.930 . S
H1087 C1100 0.930 . S
H1088 C1101 0.930 . S
H1089 C1105 0.959 . S
H1090 C1105 0.959 . S
H1091 C1105 0.961 . S
H1092 C1106 0.960 . S
H1093 C1106 0.948 1_556 S
H1094 C1106 0.941 1_556 S
H1095 C1109 0.929 . S
H1096 C1110 0.931 . S
H1097 C1112 0.930 . S
C1098 H1086 0.930 . S
C1098 C1099 1.399 . S
C1098 C1103 1.399 . S
C1099 C1098 1.399 . S
C1099 C1100 1.376 . S
C1100 H1087 0.930 . S
C1100 C1099 1.376 . S
C1100 C1101 1.388 . S
C1101 H1088 0.930 . S
C1101 C1100 1.388 . S
C1101 C1102 1.390 . S
C1102 C1101 1.390 . S
C1102 C1103 1.394 . S
C1102 C1108 1.465 . S
C1103 C1098 1.399 . S
C1103 C1102 1.394 . S
C1103 C1104 1.516 . S
C1104 C1103 1.516 . S
C1104 C1105 1.502 . S
C1104 C1106 1.592 . S
C1104 C1107 1.526 . S
C1105 H1089 0.959 . S
C1105 H1090 0.959 . S
C1105 H1091 0.961 . S
C1105 C1104 1.502 . S
C1106 H1092 0.960 . S
C1106 H1093 0.948 1_554 S
C1106 H1094 0.941 1_554 S
C1106 C1104 1.592 . S
C1107 C1104 1.526 . S
C1107 C1108 1.396 . S
C1107 C1112 1.390 . S
C1108 C1102 1.465 . S
C1108 C1107 1.396 . S
C1108 C1109 1.399 . S
C1109 H1095 0.929 . S
C1109 C1108 1.399 . S
C1109 C1110 1.385 . S
C1110 H1096 0.931 . S
C1110 C1109 1.385 . S
C1110 C1111 1.389 . S
C1111 C1110 1.389 . S
C1111 C1112 1.387 . S
C1112 H1097 0.930 . S
C1112 C1107 1.390 . S
C1112 C1111 1.387 . S
H1113 C1125 0.930 . S
H1114 C1127 0.930 . S
H1115 C1128 0.930 . S
H1116 C1132 0.959 . S
H1117 C1132 0.959 . S
H1118 C1132 0.961 . S
H1119 C1133 0.960 . S
H1120 C1133 0.961 . S
H1121 C1133 0.959 . S
H1122 C1136 0.929 . S
H1123 C1137 0.931 . S
H1124 C1139 0.930 . S
C1125 H1113 0.930 . S
C1125 C1126 1.399 . S
C1125 C1130 1.399 . S
C1126 C1125 1.399 . S
C1126 C1127 1.376 . S
C1127 H1114 0.930 . S
C1127 C1126 1.376 . S
C1127 C1128 1.388 . S
C1128 H1115 0.930 . S
C1128 C1127 1.388 . S
C1128 C1129 1.390 . S
C1129 C1128 1.390 . S
C1129 C1130 1.394 . S
C1129 C1135 1.465 . S
C1130 C1125 1.399 . S
C1130 C1129 1.394 . S
C1130 C1131 1.516 . S
C1131 C1130 1.516 . S
C1131 C1132 1.502 . S
C1131 C1133 1.561 . S
C1131 C1134 1.526 . S
C1132 H1116 0.959 . S
C1132 H1117 0.959 . S
C1132 H1118 0.961 . S
C1132 C1131 1.502 . S
C1133 H1119 0.960 . S
C1133 H1120 0.961 . S
C1133 H1121 0.959 . S
C1133 C1131 1.561 . S
C1134 C1131 1.526 . S
C1134 C1135 1.396 . S
C1134 C1139 1.390 . S
C1135 C1129 1.465 . S
C1135 C1134 1.396 . S
C1135 C1136 1.399 . S
C1136 H1122 0.929 . S
C1136 C1135 1.399 . S
C1136 C1137 1.385 . S
C1137 H1123 0.931 . S
C1137 C1136 1.385 . S
C1137 C1138 1.389 . S
C1138 C1137 1.389 . S
C1138 C1139 1.387 . S
C1139 H1124 0.930 . S
C1139 C1134 1.390 . S
C1139 C1138 1.387 . S
H1140 C1152 0.930 . S
H1141 C1154 0.930 . S
H1142 C1155 0.930 1_554 S
H1143 C1159 0.959 . S
H1144 C1159 0.959 . S
H1145 C1159 0.961 . S
H1146 C1160 0.960 . S
H1147 C1160 0.961 . S
H1148 C1160 0.959 . S
H1149 C1163 0.929 . S
H1150 C1164 0.931 . S
H1151 C1166 0.930 . S
C1152 H1140 0.930 . S
C1152 C1153 1.399 . S
C1152 C1157 1.399 . S
C1153 C1152 1.399 . S
C1153 C1154 1.376 . S
C1154 H1141 0.930 . S
C1154 C1153 1.376 . S
C1154 C1155 1.388 . S
C1155 H1142 0.930 1_556 S
C1155 C1154 1.388 . S
C1155 C1156 1.390 . S
C1156 C1155 1.390 . S
C1156 C1157 1.394 . S
C1156 C1162 1.465 . S
C1157 C1152 1.399 . S
C1157 C1156 1.394 . S
C1157 C1158 1.516 . S
C1158 C1157 1.516 . S
C1158 C1159 1.502 . S
C1158 C1160 1.561 . S
C1158 C1161 1.526 . S
C1159 H1143 0.959 . S
C1159 H1144 0.959 . S
C1159 H1145 0.961 . S
C1159 C1158 1.502 . S
C1160 H1146 0.960 . S
C1160 H1147 0.961 . S
C1160 H1148 0.959 . S
C1160 C1158 1.561 . S
C1161 C1158 1.526 . S
C1161 C1162 1.396 . S
C1161 C1166 1.390 . S
C1162 C1156 1.465 . S
C1162 C1161 1.396 . S
C1162 C1163 1.399 1_556 S
C1163 H1149 0.929 . S
C1163 C1162 1.399 1_554 S
C1163 C1164 1.385 . S
C1164 H1150 0.931 . S
C1164 C1163 1.385 . S
C1164 C1165 1.389 1_554 S
C1165 C1164 1.389 1_556 S
C1165 C1166 1.387 . S
C1166 H1151 0.930 . S
C1166 C1161 1.390 . S
C1166 C1165 1.387 . S
H1167 C1179 0.930 . S
H1168 C1181 0.930 . S
H1169 C1182 0.930 . S
H1170 C1186 0.959 . S
H1171 C1186 0.959 . S
H1172 C1186 0.961 . S
H1173 C1187 0.960 . S
H1174 C1187 0.961 . S
H1175 C1187 0.959 . S
H1176 C1190 0.929 . S
H1177 C1191 0.931 . S
H1178 C1193 0.930 . S
C1179 H1167 0.930 . S
C1179 C1180 1.399 . S
C1179 C1184 1.399 . S
C1180 C1179 1.399 . S
C1180 C1181 1.376 . S
C1181 H1168 0.930 . S
C1181 C1180 1.376 . S
C1181 C1182 1.388 . S
C1182 H1169 0.930 . S
C1182 C1181 1.388 . S
C1182 C1183 1.390 . S
C1183 C1182 1.390 . S
C1183 C1184 1.394 . S
C1183 C1189 1.465 . S
C1184 C1179 1.399 . S
C1184 C1183 1.394 . S
C1184 C1185 1.516 . S
C1185 C1184 1.516 . S
C1185 C1186 1.502 . S
C1185 C1187 1.561 1_554 S
C1185 C1188 1.526 . S
C1186 H1170 0.959 . S
C1186 H1171 0.959 . S
C1186 H1172 0.961 . S
C1186 C1185 1.502 . S
C1187 H1173 0.960 . S
C1187 H1174 0.961 . S
C1187 H1175 0.959 . S
C1187 C1185 1.561 1_556 S
C1188 C1185 1.526 . S
C1188 C1189 1.396 . S
C1188 C1193 1.390 . S
C1189 C1183 1.465 . S
C1189 C1188 1.396 . S
C1189 C1190 1.399 . S
C1190 H1176 0.929 . S
C1190 C1189 1.399 . S
C1190 C1191 1.385 . S
C1191 H1177 0.931 . S
C1191 C1190 1.385 . S
C1191 C1192 1.389 . S
C1192 C1191 1.389 . S
C1192 C1193 1.387 . S
C1193 H1178 0.930 . S
C1193 C1188 1.390 . S
C1193 C1192 1.387 . S
H1194 C1206 0.930 . S
H1195 C1208 0.930 . S
H1196 C1209 0.930 . S
H1197 C1213 0.959 . S
H1198 C1213 0.959 . S
H1199 C1213 0.961 . S
H1200 C1214 0.960 . S
H1201 C1214 0.961 . S
H1202 C1214 0.959 1_655 S
H1203 C1217 0.929 . S
H1204 C1218 0.931 . S
H1205 C1220 0.930 . S
C1206 H1194 0.930 . S
C1206 C1207 1.399 . S
C1206 C1211 1.399 . S
C1207 C1206 1.399 . S
C1207 C1208 1.376 . S
C1208 H1195 0.930 . S
C1208 C1207 1.376 . S
C1208 C1209 1.388 . S
C1209 H1196 0.930 . S
C1209 C1208 1.388 . S
C1209 C1210 1.390 . S
C1210 C1209 1.390 . S
C1210 C1211 1.394 . S
C1210 C1216 1.465 . S
C1211 C1206 1.399 . S
C1211 C1210 1.394 . S
C1211 C1212 1.516 . S
C1212 C1211 1.516 . S
C1212 C1213 1.502 . S
C1212 C1214 1.561 . S
C1212 C1215 1.526 . S
C1213 H1197 0.959 . S
C1213 H1198 0.959 . S
C1213 H1199 0.961 . S
C1213 C1212 1.502 . S
C1214 H1200 0.960 . S
C1214 H1201 0.961 . S
C1214 H1202 0.959 1_455 S
C1214 C1212 1.561 . S
C1215 C1212 1.526 . S
C1215 C1216 1.396 . S
C1215 C1220 1.390 . S
C1216 C1210 1.465 . S
C1216 C1215 1.396 . S
C1216 C1217 1.399 . S
C1217 H1203 0.929 . S
C1217 C1216 1.399 . S
C1217 C1218 1.385 . S
C1218 H1204 0.931 . S
C1218 C1217 1.385 . S
C1218 C1219 1.389 . S
C1219 C1218 1.389 . S
C1219 C1220 1.387 . S
C1220 H1205 0.930 . S
C1220 C1215 1.390 . S
C1220 C1219 1.387 . S
H1221 C1233 0.930 . S
H1222 C1235 0.930 . S
H1223 C1236 0.930 . S
H1224 C1240 0.959 . S
H1225 C1240 0.959 . S
H1226 C1240 0.961 . S
H1227 C1241 0.960 . S
H1228 C1241 0.961 . S
H1229 C1241 0.959 . S
H1230 C1244 0.929 . S
H1231 C1245 0.931 . S
H1232 C1247 0.930 . S
C1233 H1221 0.930 . S
C1233 C1234 1.399 . S
C1233 C1238 1.399 . S
C1234 C1233 1.399 . S
C1234 C1235 1.376 . S
C1235 H1222 0.930 . S
C1235 C1234 1.376 . S
C1235 C1236 1.388 . S
C1236 H1223 0.930 . S
C1236 C1235 1.388 . S
C1236 C1237 1.390 . S
C1237 C1236 1.390 . S
C1237 C1238 1.394 . S
C1237 C1243 1.465 . S
C1238 C1233 1.399 . S
C1238 C1237 1.394 . S
C1238 C1239 1.516 . S
C1239 C1238 1.516 . S
C1239 C1240 1.502 . S
C1239 C1241 1.561 . S
C1239 C1242 1.526 . S
C1240 H1224 0.959 . S
C1240 H1225 0.959 . S
C1240 H1226 0.961 . S
C1240 C1239 1.502 . S
C1241 H1227 0.960 . S
C1241 H1228 0.961 . S
C1241 H1229 0.959 . S
C1241 C1239 1.561 . S
C1242 C1239 1.526 . S
C1242 C1243 1.396 . S
C1242 C1247 1.390 . S
C1243 C1237 1.465 . S
C1243 C1242 1.396 . S
C1243 C1244 1.399 . S
C1244 H1230 0.929 . S
C1244 C1243 1.399 . S
C1244 C1245 1.385 . S
C1245 H1231 0.931 . S
C1245 C1244 1.385 . S
C1245 C1246 1.389 . S
C1246 C1245 1.389 . S
C1246 C1247 1.387 . S
C1247 H1232 0.930 . S
C1247 C1242 1.390 . S
C1247 C1246 1.387 . S
C613 C1 2.131 . S
C625 C496 2.160 . S
C640 C80 1.065 . S
C652 N516 1.072 . S
C679 C550 2.007 . S
C667 C140 1.917 . S
C694 C211 1.325 . S
C706 N584 1.325 . S
C733 C537 2.336 . S
C721 C31 2.303 . S
C760 N494 1.127 . S
C748 C61 1.212 . S
C787 C571 1.996 . S
C775 C151 1.930 . S
C814 N546 1.065 . S
C802 C200 0.983 . S
C829 C20 1.815 . S
C841 C586 1.837 . S
C868 C520 1.720 . S
C856 C121 1.633 . S
C883 C181 1.389 . S
C895 C481 1.499 . S
C910 C91 1.362 . S
C922 C567 1.467 . S
C949 C507 2.159 . S
C937 C260 2.142 . S
C964 C320 1.146 . S
C976 N524 1.148 . S
C991 C361 1.986 . S
C1003 C541 1.990 . S
C1018 C451 1.327 . S
C1030 N576 1.290 . S
C1045 C271 2.323 . S
C1057 C526 2.328 . S
C1084 N486 1.128 . S
C1072 C301 1.222 . S
C1111 C580 1.995 . S
C1099 C380 1.979 . S
C1138 N554 1.075 . S
C1126 C440 1.077 . S
C1153 C241 1.816 . S
C1165 C597 1.839 . S
C1192 C511 1.729 . S
C1180 C391 1.708 . S
C1219 C490 1.478 . S
C1207 C421 1.453 . S
C1234 C331 1.443 . S
C1246 C556 1.451 . S
