# Generated by pormake.
# Topology anh, (6,3)-cn, num edge types: 1
# Building blocks:
#     Node 0, Type 0, BuildingBlock: MIFKUJ_clean_sbu_0, # of connection points: 6
#     Node 1, Type 0, BuildingBlock: MIFKUJ_clean_sbu_0, # of connection points: 6
#     Node 2, Type 0, BuildingBlock: MIFKUJ_clean_sbu_0, # of connection points: 6
#     Node 3, Type 1, BuildingBlock: BETDAH_clean_linker_0, # of connection points: 3
#     Node 4, Type 1, BuildingBlock: BETDAH_clean_linker_0, # of connection points: 3
#     Node 5, Type 1, BuildingBlock: BETDAH_clean_linker_0, # of connection points: 3
#     Node 6, Type 1, BuildingBlock: BETDAH_clean_linker_0, # of connection points: 3
#     Node 7, Type 1, BuildingBlock: BETDAH_clean_linker_0, # of connection points: 3
#     Node 8, Type 1, BuildingBlock: BETDAH_clean_linker_0, # of connection points: 3
#     Edge 9, Type (0, 1), BuildingBlock: TEMPAE_clean_linker_10, # of connection points: 2
#     Edge 10, Type (0, 1), BuildingBlock: TEMPAE_clean_linker_10, # of connection points: 2
#     Edge 11, Type (0, 1), BuildingBlock: TEMPAE_clean_linker_10, # of connection points: 2
#     Edge 12, Type (0, 1), BuildingBlock: TEMPAE_clean_linker_10, # of connection points: 2
#     Edge 13, Type (0, 1), BuildingBlock: TEMPAE_clean_linker_10, # of connection points: 2
#     Edge 14, Type (0, 1), BuildingBlock: TEMPAE_clean_linker_10, # of connection points: 2
#     Edge 15, Type (0, 1), BuildingBlock: TEMPAE_clean_linker_10, # of connection points: 2
#     Edge 16, Type (0, 1), BuildingBlock: TEMPAE_clean_linker_10, # of connection points: 2
#     Edge 17, Type (0, 1), BuildingBlock: TEMPAE_clean_linker_10, # of connection points: 2
#     Edge 18, Type (0, 1), BuildingBlock: TEMPAE_clean_linker_10, # of connection points: 2
#     Edge 19, Type (0, 1), BuildingBlock: TEMPAE_clean_linker_10, # of connection points: 2
#     Edge 20, Type (0, 1), BuildingBlock: TEMPAE_clean_linker_10, # of connection points: 2
#     Edge 21, Type (0, 1), BuildingBlock: TEMPAE_clean_linker_10, # of connection points: 2
#     Edge 22, Type (0, 1), BuildingBlock: TEMPAE_clean_linker_10, # of connection points: 2
#     Edge 23, Type (0, 1), BuildingBlock: TEMPAE_clean_linker_10, # of connection points: 2
#     Edge 24, Type (0, 1), BuildingBlock: TEMPAE_clean_linker_10, # of connection points: 2
#     Edge 25, Type (0, 1), BuildingBlock: TEMPAE_clean_linker_10, # of connection points: 2
#     Edge 26, Type (0, 1), BuildingBlock: TEMPAE_clean_linker_10, # of connection points: 2
# Relax obj value: 0.069
# Max RMSD: 0.135
# Mean RMSD: 0.096
data_MOF--net-anh--node1-MIFKUJ_clean_sbu_0--node2-BETDAH_clean_linker_0--edge1-TEMPAE_clean_linker_10
_symmetry_space_group_name_H-M    P1
_symmetry_Int_Tables_number       1
_symmetry_cell_setting            triclinic
loop_
_symmetry_equiv_pos_as_xyz
'x, y, z'
_cell_length_a     32.144485
_cell_length_b     32.128961
_cell_length_c     47.1435
_cell_angle_alpha  96.610636
_cell_angle_beta   93.309331
_cell_angle_gamma 119.85485
loop_
_atom_site_label
_atom_site_type_symbol
_atom_site_fract_x
_atom_site_fract_y
_atom_site_fract_z
_atom_type_partial_charge
Zn0 Zn 0.04399 0.53394 0.15581 0.0
Zn1 Zn 0.91362 0.43246 0.15581 0.0
C2 C 0.13593 0.54393 0.16211 0.0
O3 O 0.13851 0.57364 0.18468 0.0
C4 C 0.84328 0.4499 0.13016 0.0
O5 O 0.83665 0.41217 0.11206 0.0
O6 O 0.07899 0.60642 0.16006 0.0
O7 O 0.99142 0.50795 0.12231 0.0
O8 O 0.94413 0.42903 0.12004 0.0
C9 C 0.10132 0.62327 0.13901 0.0
O10 O 0.09236 0.59309 0.11512 0.0
O11 O 0.0959 0.51857 0.14556 0.0
C12 C 0.83992 0.35535 0.17902 0.0
O13 O 0.84861 0.39192 0.1989 0.0
O14 O 0.86347 0.36385 0.1576 0.0
O15 O 0.95382 0.45588 0.19471 0.0
O16 O 0.02877 0.51634 0.19502 0.0
O17 O 0.87698 0.4678 0.15126 0.0
C18 C 0.97215 0.46502 0.10848 0.0
C19 C 0.99546 0.48701 0.20801 0.0
Zn20 Zn 0.62799 0.1297 0.51878 0.0
Zn21 Zn 0.56028 0.9876 0.51841 0.0
C22 C 0.72932 0.1929 0.5339 0.0
O23 O 0.71375 0.21236 0.5535 0.0
C24 C 0.45854 0.91694 0.5077 0.0
O25 O 0.45584 0.95519 0.5032 0.0
O26 O 0.62367 0.19008 0.52081 0.0
O27 O 0.59101 0.08924 0.48046 0.0
O28 O 0.55494 0.01002 0.48121 0.0
C29 C 0.62886 0.21283 0.49974 0.0
O30 O 0.63591 0.19571 0.47496 0.0
O31 O 0.69874 0.15342 0.51754 0.0
C32 C 0.62216 0.95945 0.54356 0.0
O33 O 0.59826 0.95997 0.56516 0.0
O34 O 0.61434 0.97347 0.52076 0.0
O35 O 0.56272 0.02615 0.55562 0.0
O36 O 0.60453 0.10577 0.55572 0.0
O37 O 0.49977 0.92224 0.51505 0.0
C38 C 0.56531 0.04539 0.46786 0.0
C39 C 0.58088 0.06965 0.56842 0.0
Zn40 Zn 0.56665 0.5888 0.8265 0.0
Zn41 Zn 0.4717 0.62193 0.81398 0.0
C42 C 0.54012 0.50758 0.8539 0.0
O43 O 0.57442 0.54259 0.87327 0.0
C44 C 0.50438 0.71991 0.80358 0.0
O45 O 0.49704 0.69907 0.77668 0.0
O46 O 0.6329 0.59661 0.83112 0.0
O47 O 0.55361 0.59388 0.78569 0.0
O48 O 0.49383 0.60808 0.77618 0.0
C49 C 0.63572 0.56449 0.81423 0.0
O50 O 0.59866 0.53468 0.79458 0.0
O51 O 0.52486 0.51915 0.83237 0.0
C52 C 0.3812 0.59808 0.83004 0.0
O53 O 0.41052 0.62469 0.85377 0.0
O54 O 0.39922 0.59123 0.80788 0.0
O55 O 0.48352 0.59835 0.85013 0.0
O56 O 0.56279 0.63511 0.85697 0.0
O57 O 0.49758 0.69446 0.82349 0.0
C58 C 0.52628 0.59952 0.768 0.0
C59 C 0.52277 0.61597 0.86697 0.0
H60 H 0.41821 0.90244 0.25425 0.0
H61 H 0.56685 0.99642 0.24236 0.0
H62 H 0.463 0.89593 0.17059 0.0
C63 C 0.4465 0.91564 0.24048 0.0
C64 C 0.4352 0.8959 0.21113 0.0
C65 C 0.49398 0.95206 0.25207 0.0
C66 C 0.53012 0.96825 0.23377 0.0
C67 C 0.51891 0.94768 0.20437 0.0
C68 C 0.47158 0.91149 0.19329 0.0
N69 N 0.55446 0.96273 0.18545 0.0
C70 C 0.59201 0.01047 0.18833 0.0
H71 H 0.6027 0.5119 0.57309 0.0
H72 H 0.66146 0.66277 0.5661 0.0
H73 H 0.69789 0.57365 0.51013 0.0
C74 C 0.62392 0.54261 0.56243 0.0
C75 C 0.64864 0.53706 0.54006 0.0
C76 C 0.62868 0.58797 0.57223 0.0
C77 C 0.65789 0.6278 0.5588 0.0
C78 C 0.68301 0.62266 0.53638 0.0
C79 C 0.67852 0.57744 0.52738 0.0
N80 N 0.7134 0.66231 0.52268 0.0
C81 C 0.71271 0.70542 0.52577 0.0
H82 H 0.88422 0.48493 0.90441 0.0
H83 H 0.99454 0.45355 0.88085 0.0
H84 H 0.9048 0.46671 0.81562 0.0
C85 C 0.90346 0.47784 0.88819 0.0
C86 C 0.89081 0.47803 0.85925 0.0
C87 C 0.94077 0.46897 0.89637 0.0
C88 C 0.96545 0.46004 0.87495 0.0
C89 C 0.95219 0.45906 0.84578 0.0
C90 C 0.91475 0.46756 0.83814 0.0
N91 N 0.97553 0.44927 0.82356 0.0
C92 C 0.02422 0.4636 0.82716 0.0
H93 H 0.14578 0.59538 0.4143 0.0
H94 H 0.05292 0.44977 0.43017 0.0
H95 H 0.17363 0.553 0.49325 0.0
C96 C 0.13608 0.56827 0.42828 0.0
C97 C 0.16432 0.58029 0.45502 0.0
C98 C 0.09612 0.52125 0.41903 0.0
C99 C 0.08355 0.48617 0.43723 0.0
C100 C 0.11134 0.49799 0.46424 0.0
C101 C 0.15178 0.54466 0.47274 0.0
N102 N 0.10074 0.46355 0.48305 0.0
C103 C 0.05487 0.42409 0.48345 0.0
H104 H 0.53951 0.20038 0.76974 0.0
H105 H 0.54626 0.07726 0.79104 0.0
H106 H 0.53651 0.17465 0.85742 0.0
C107 C 0.53993 0.17873 0.78565 0.0
C108 C 0.53754 0.19272 0.81458 0.0
C109 C 0.54327 0.13729 0.77704 0.0
C110 C 0.5439 0.10934 0.79771 0.0
C111 C 0.54107 0.12257 0.82675 0.0
C112 C 0.53797 0.16421 0.83497 0.0
N113 N 0.54156 0.09507 0.84822 0.0
C114 C 0.54073 0.05119 0.84234 0.0
H115 H 0.59587 0.54315 0.06088 0.0
H116 H 0.47412 0.55364 0.08521 0.0
H117 H 0.56254 0.53339 0.14779 0.0
C118 C 0.57343 0.54334 0.07715 0.0
C119 C 0.58427 0.53764 0.10519 0.0
C120 C 0.53392 0.5492 0.06978 0.0
C121 C 0.50467 0.5492 0.09084 0.0
C122 C 0.5148 0.54303 0.11901 0.0
C123 C 0.55464 0.53756 0.12598 0.0
N124 N 0.48605 0.54224 0.14096 0.0
C125 C 0.44225 0.54105 0.13668 0.0
C126 C 0.17844 0.51098 0.13191 0.0
C127 C 0.1799 0.54255 0.15565 0.0
C128 C 0.22032 0.50986 0.12597 0.0
C129 C 0.2646 0.541 0.1442 0.0
C130 C 0.2664 0.57359 0.16782 0.0
C131 C 0.22414 0.57397 0.17323 0.0
C132 C 0.21707 0.4749 0.10045 0.0
C133 C 0.31285 0.60759 0.18775 0.0
C134 C 0.36156 0.50681 0.15179 0.0
C135 C 0.39602 0.53836 0.13609 0.0
C136 C 0.31787 0.50619 0.15379 0.0
C137 C 0.30862 0.53797 0.1397 0.0
C138 C 0.34299 0.56898 0.12307 0.0
C139 C 0.38655 0.56889 0.12152 0.0
C140 C 0.28243 0.47279 0.17186 0.0
C141 C 0.33439 0.60325 0.10768 0.0
H142 H 0.14453 0.48691 0.11807 0.0
H143 H 0.22586 0.59893 0.19144 0.0
H144 H 0.24444 0.4948 0.08633 0.0
H145 H 0.2252 0.44794 0.10799 0.0
H146 H 0.18068 0.45503 0.08747 0.0
H147 H 0.30843 0.63165 0.20468 0.0
H148 H 0.32563 0.58618 0.1984 0.0
H149 H 0.34152 0.63073 0.17526 0.0
H150 H 0.36932 0.48339 0.1631 0.0
H151 H 0.41358 0.59335 0.10945 0.0
H152 H 0.24605 0.45007 0.15909 0.0
H153 H 0.27898 0.49475 0.19054 0.0
H154 H 0.29379 0.44842 0.18007 0.0
H155 H 0.29865 0.58306 0.09404 0.0
H156 H 0.36284 0.62222 0.0939 0.0
H157 H 0.33374 0.63101 0.12368 0.0
C158 C 0.79461 0.20489 0.50336 0.0
C159 C 0.77987 0.22102 0.52762 0.0
C160 C 0.84026 0.23446 0.49503 0.0
C161 C 0.87189 0.28119 0.51135 0.0
C162 C 0.85801 0.2968 0.53651 0.0
C163 C 0.81223 0.26654 0.54435 0.0
C164 C 0.85391 0.21645 0.46817 0.0
C165 C 0.89081 0.34628 0.55461 0.0
C166 C 0.00613 0.35116 0.5047 0.0
C167 C 0.00842 0.38489 0.48765 0.0
C168 C 0.9616 0.31591 0.51179 0.0
C169 C 0.91868 0.31482 0.50161 0.0
C170 C 0.92095 0.3481 0.48356 0.0
C171 C 0.96602 0.38295 0.47683 0.0
C172 C 0.96071 0.28112 0.53104 0.0
C173 C 0.87602 0.34807 0.47224 0.0
H174 H 0.76987 0.16978 0.49029 0.0
H175 H 0.80127 0.27929 0.56316 0.0
H176 H 0.85711 0.23935 0.45157 0.0
H177 H 0.88971 0.21967 0.47288 0.0
H178 H 0.82682 0.17797 0.45905 0.0
H179 H 0.87568 0.35193 0.57432 0.0
H180 H 0.92679 0.35093 0.56113 0.0
H181 H 0.89655 0.37509 0.54174 0.0
H182 H 0.03932 0.35321 0.51314 0.0
H183 H 0.96827 0.4095 0.46376 0.0
H184 H 0.93373 0.24306 0.52116 0.0
H185 H 0.94956 0.28861 0.55196 0.0
H186 H 0.9966 0.28424 0.53527 0.0
H187 H 0.84812 0.31113 0.46111 0.0
H188 H 0.88354 0.37418 0.45701 0.0
H189 H 0.86052 0.35791 0.49048 0.0
C190 C 0.51283 0.79031 0.83782 0.0
C191 C 0.51597 0.77112 0.81028 0.0
C192 C 0.51943 0.83727 0.84364 0.0
C193 C 0.52984 0.8659 0.82146 0.0
C194 C 0.53479 0.8474 0.79392 0.0
C195 C 0.5276 0.8002 0.78863 0.0
C196 C 0.5137 0.85561 0.87326 0.0
C197 C 0.54637 0.87697 0.76979 0.0
C198 C 0.49419 0.96274 0.82619 0.0
C199 C 0.53845 0.00496 0.83664 0.0
C200 C 0.49094 0.91721 0.82111 0.0
C201 C 0.53308 0.91414 0.82663 0.0
C202 C 0.57802 0.95708 0.83706 0.0
C203 C 0.58014 0.00215 0.84199 0.0
C204 C 0.44237 0.87237 0.80998 0.0
C205 C 0.62372 0.95536 0.84311 0.0
H206 H 0.50379 0.76811 0.85467 0.0
H207 H 0.53041 0.78581 0.76733 0.0
H208 H 0.54619 0.89134 0.8822 0.0
H209 H 0.48228 0.86116 0.87178 0.0
H210 H 0.50805 0.82994 0.88853 0.0
H211 H 0.55205 0.85862 0.75021 0.0
H212 H 0.51631 0.88335 0.76398 0.0
H213 H 0.57942 0.91312 0.77689 0.0
H214 H 0.46206 0.96532 0.82212 0.0
H215 H 0.61432 0.03514 0.85012 0.0
H216 H 0.43253 0.84621 0.82532 0.0
H217 H 0.44431 0.85391 0.78913 0.0
H218 H 0.41315 0.88099 0.8068 0.0
H219 H 0.61938 0.93197 0.85959 0.0
H220 H 0.6558 0.99205 0.85088 0.0
H221 H 0.63068 0.9389 0.82329 0.0
C222 C 0.81154 0.50389 0.1485 0.0
C223 C 0.80931 0.46824 0.1272 0.0
C224 C 0.77725 0.51883 0.14669 0.0
C225 C 0.73994 0.49768 0.12301 0.0
C226 C 0.73817 0.46249 0.10116 0.0
C227 C 0.77281 0.44822 0.10352 0.0
C228 C 0.78036 0.55654 0.17038 0.0
C229 C 0.69913 0.43923 0.07547 0.0
C230 C 0.6207 0.49425 0.12806 0.0
C231 C 0.62585 0.53059 0.11227 0.0
C232 C 0.65826 0.48434 0.13263 0.0
C233 C 0.70202 0.51141 0.12113 0.0
C234 C 0.7081 0.54937 0.10612 0.0
C235 C 0.66999 0.55851 0.1019 0.0
C236 C 0.65037 0.44359 0.14879 0.0
C237 C 0.75425 0.57923 0.09366 0.0
H238 H 0.83957 0.51952 0.16689 0.0
H239 H 0.77083 0.42078 0.08689 0.0
H240 H 0.78188 0.58744 0.16116 0.0
H241 H 0.74742 0.54046 0.18126 0.0
H242 H 0.81259 0.5708 0.18677 0.0
H243 H 0.70349 0.41328 0.06001 0.0
H244 H 0.66306 0.41942 0.08279 0.0
H245 H 0.69957 0.46767 0.06396 0.0
H246 H 0.5866 0.47227 0.13593 0.0
H247 H 0.67452 0.58723 0.09011 0.0
H248 H 0.68065 0.45663 0.16636 0.0
H249 H 0.64973 0.41378 0.13396 0.0
H250 H 0.61586 0.42851 0.15822 0.0
H251 H 0.78601 0.59445 0.11048 0.0
H252 H 0.75461 0.60967 0.08441 0.0
H253 H 0.75858 0.55563 0.07642 0.0
C254 C 0.36951 0.86153 0.49256 0.0
C255 C 0.41458 0.86787 0.50257 0.0
C256 C 0.32809 0.81495 0.48603 0.0
C257 C 0.33181 0.77373 0.48962 0.0
C258 C 0.37693 0.77995 0.50036 0.0
C259 C 0.41778 0.82693 0.5067 0.0
C260 C 0.28056 0.80975 0.47464 0.0
C261 C 0.3823 0.73687 0.50455 0.0
C262 C 0.21681 0.65429 0.49238 0.0
C263 C 0.20746 0.6297 0.46409 0.0
C264 C 0.25722 0.70118 0.50106 0.0
C265 C 0.28897 0.72397 0.48095 0.0
C266 C 0.27982 0.69926 0.4524 0.0
C267 C 0.23925 0.65243 0.44434 0.0
C268 C 0.2658 0.72643 0.53168 0.0
C269 C 0.31292 0.7223 0.43035 0.0
H270 H 0.36666 0.89294 0.48935 0.0
H271 H 0.45241 0.83147 0.51451 0.0
H272 H 0.2684 0.78895 0.45239 0.0
H273 H 0.25225 0.78895 0.48802 0.0
H274 H 0.28324 0.84553 0.47434 0.0
H275 H 0.41938 0.74803 0.5143 0.0
H276 H 0.35609 0.71469 0.51859 0.0
H277 H 0.37397 0.71314 0.48348 0.0
H278 H 0.19209 0.63712 0.50766 0.0
H279 H 0.23268 0.63333 0.42258 0.0
H280 H 0.2656 0.76088 0.53178 0.0
H281 H 0.30195 0.7361 0.54218 0.0
H282 H 0.23799 0.70351 0.54475 0.0
H283 H 0.31491 0.75705 0.42759 0.0
H284 H 0.30059 0.69828 0.40902 0.0
H285 H 0.35012 0.73101 0.43794 0.0
C286 C 0.4977 0.42 0.83046 0.0
C287 C 0.52978 0.45697 0.85302 0.0
C288 C 0.49485 0.37459 0.82621 0.0
C289 C 0.52506 0.36611 0.84482 0.0
C290 C 0.55539 0.40224 0.8686 0.0
C291 C 0.5571 0.44706 0.87255 0.0
C292 C 0.46164 0.33679 0.80077 0.0
C293 C 0.58843 0.39481 0.88881 0.0
C294 C 0.50236 0.23732 0.84171 0.0
C295 C 0.53515 0.23743 0.82327 0.0
C296 C 0.49865 0.27894 0.84904 0.0
C297 C 0.52858 0.32166 0.83775 0.0
C298 C 0.56223 0.32216 0.81948 0.0
C299 C 0.56508 0.2801 0.81247 0.0
C300 C 0.46226 0.277 0.86849 0.0
C301 C 0.59494 0.367 0.80702 0.0
H302 H 0.47632 0.42721 0.81533 0.0
H303 H 0.58195 0.47529 0.8901 0.0
H304 H 0.48354 0.33295 0.78444 0.0
H305 H 0.4401 0.30079 0.8075 0.0
H306 H 0.43647 0.34661 0.79046 0.0
H307 H 0.607 0.42484 0.90751 0.0
H308 H 0.56769 0.35995 0.89693 0.0
H309 H 0.61635 0.39263 0.877 0.0
H310 H 0.47884 0.20433 0.84991 0.0
H311 H 0.59099 0.28066 0.79856 0.0
H312 H 0.43572 0.28377 0.85693 0.0
H313 H 0.48074 0.30607 0.88763 0.0
H314 H 0.44233 0.24133 0.87593 0.0
H315 H 0.57284 0.37559 0.79253 0.0
H316 H 0.621 0.36223 0.79457 0.0
H317 H 0.61552 0.39885 0.82446 0.0
C318 C 0.65284 0.91272 0.56748 0.0
C319 C 0.64977 0.93386 0.54361 0.0
C320 C 0.67028 0.88038 0.5659 0.0
C321 C 0.68507 0.86909 0.53986 0.0
C322 C 0.68577 0.89333 0.5165 0.0
C323 C 0.66812 0.92551 0.51865 0.0
C324 C 0.66935 0.85555 0.59138 0.0
C325 C 0.70169 0.88255 0.48845 0.0
C326 C 0.74631 0.79374 0.53895 0.0
C327 C 0.70687 0.74714 0.52882 0.0
C328 C 0.74005 0.83423 0.54251 0.0
C329 C 0.69329 0.82735 0.53575 0.0
C330 C 0.65351 0.78 0.52535 0.0
C331 C 0.66087 0.74037 0.52204 0.0
C332 C 0.78317 0.88413 0.55367 0.0
C333 C 0.60307 0.7711 0.51793 0.0
H334 H 0.63925 0.91938 0.58697 0.0
H335 H 0.66634 0.94207 0.50019 0.0
H336 H 0.6398 0.81692 0.5864 0.0
H337 H 0.70379 0.85591 0.59583 0.0
H338 H 0.66324 0.87305 0.61116 0.0
H339 H 0.70669 0.90925 0.47402 0.0
H340 H 0.73609 0.88266 0.49246 0.0
H341 H 0.67393 0.8457 0.47709 0.0
H342 H 0.78184 0.79844 0.54423 0.0
H343 H 0.63056 0.70395 0.5143 0.0
H344 H 0.77722 0.89946 0.57431 0.0
H345 H 0.78758 0.90915 0.53822 0.0
H346 H 0.81725 0.8834 0.55725 0.0
H347 H 0.59117 0.78307 0.53727 0.0
H348 H 0.57629 0.73214 0.50976 0.0
H349 H 0.60294 0.79281 0.50128 0.0
C350 C 0.71345 0.58316 0.84212 0.0
C351 C 0.67648 0.55582 0.81897 0.0
C352 C 0.74965 0.57192 0.84826 0.0
C353 C 0.74871 0.53242 0.83084 0.0
C354 C 0.71215 0.50542 0.80706 0.0
C355 C 0.67654 0.51751 0.80138 0.0
C356 C 0.78815 0.60148 0.87382 0.0
C357 C 0.71019 0.46328 0.78787 0.0
C358 C 0.86267 0.52436 0.83258 0.0
C359 C 0.8537 0.49076 0.8513 0.0
C360 C 0.82888 0.53842 0.82578 0.0
C361 C 0.78509 0.51827 0.83797 0.0
C362 C 0.77565 0.48403 0.85671 0.0
C363 C 0.81012 0.47071 0.86317 0.0
C364 C 0.84023 0.57513 0.80579 0.0
C365 C 0.729 0.46124 0.86978 0.0
H366 H 0.71356 0.6127 0.85585 0.0
H367 H 0.64812 0.49615 0.78343 0.0
H368 H 0.78526 0.57784 0.88991 0.0
H369 H 0.82464 0.61603 0.86698 0.0
H370 H 0.78508 0.63238 0.88442 0.0
H371 H 0.67831 0.44484 0.77089 0.0
H372 H 0.74348 0.47639 0.77733 0.0
H373 H 0.70888 0.43614 0.80092 0.0
H374 H 0.89662 0.54043 0.82368 0.0
H375 H 0.80286 0.44431 0.87739 0.0
H376 H 0.8403 0.60749 0.81699 0.0
H377 H 0.81181 0.55928 0.78683 0.0
H378 H 0.87588 0.58723 0.79807 0.0
H379 H 0.72403 0.48993 0.88175 0.0
H380 H 0.72794 0.43646 0.8847 0.0
H381 H 0.69794 0.44019 0.85243 0.0
C382 C 0.18447 0.67884 0.12877 0.0
C383 C 0.1463 0.67103 0.14458 0.0
C384 C 0.23114 0.71863 0.13786 0.0
C385 C 0.23939 0.75186 0.16295 0.0
C386 C 0.20019 0.74636 0.17761 0.0
C387 C 0.15404 0.7056 0.1684 0.0
C388 C 0.27218 0.7228 0.12194 0.0
C389 C 0.20756 0.78174 0.2041 0.0
C390 C 0.36254 0.81382 0.2078 0.0
C391 C 0.38511 0.85927 0.19896 0.0
C392 C 0.31509 0.7783 0.196 0.0
C393 C 0.28957 0.78929 0.17548 0.0
C394 C 0.31218 0.83552 0.16679 0.0
C395 C 0.3601 0.86991 0.17845 0.0
C396 C 0.29248 0.72888 0.20521 0.0
C397 C 0.28578 0.84856 0.14526 0.0
H398 H 0.17879 0.65203 0.11045 0.0
H399 H 0.1245 0.69969 0.18057 0.0
H400 H 0.2953 0.76052 0.11792 0.0
H401 H 0.29532 0.71396 0.13537 0.0
H402 H 0.25894 0.69763 0.101 0.0
H403 H 0.17268 0.776 0.21067 0.0
H404 H 0.22775 0.77727 0.22225 0.0
H405 H 0.2295 0.81978 0.20026 0.0
H406 H 0.38239 0.8059 0.22359 0.0
H407 H 0.37794 0.90538 0.17185 0.0
H408 H 0.28159 0.70016 0.18616 0.0
H409 H 0.25926 0.72122 0.2149 0.0
H410 H 0.31752 0.72612 0.22111 0.0
H411 H 0.27492 0.82351 0.12446 0.0
H412 H 0.30824 0.88654 0.14133 0.0
H413 H 0.25214 0.84416 0.15308 0.0
C414 C 0.62861 0.2819 0.48008 0.0
C415 C 0.62937 0.25943 0.50374 0.0
C416 C 0.63034 0.32676 0.48389 0.0
C417 C 0.63345 0.34979 0.51204 0.0
C418 C 0.63398 0.32714 0.53598 0.0
C419 C 0.63168 0.28213 0.53152 0.0
C420 C 0.62913 0.34966 0.45786 0.0
C421 C 0.63768 0.35077 0.56636 0.0
C422 C 0.6862 0.48634 0.52834 0.0
C423 C 0.64452 0.48937 0.53079 0.0
C424 C 0.68303 0.44111 0.5215 0.0
C425 C 0.63703 0.39804 0.51675 0.0
C426 C 0.59472 0.40102 0.51827 0.0
C427 C 0.599 0.4467 0.52546 0.0
C428 C 0.72899 0.43933 0.52037 0.0
C429 C 0.54503 0.3559 0.51301 0.0
H430 H 0.62664 0.26444 0.45855 0.0
H431 H 0.63249 0.26511 0.54994 0.0
H432 H 0.5987 0.35678 0.4572 0.0
H433 H 0.66299 0.38524 0.45935 0.0
H434 H 0.62503 0.32629 0.43736 0.0
H435 H 0.63747 0.32823 0.58261 0.0
H436 H 0.67155 0.38673 0.57149 0.0
H437 H 0.60706 0.35724 0.56837 0.0
H438 H 0.72144 0.51929 0.53272 0.0
H439 H 0.56672 0.4491 0.52705 0.0
H440 H 0.72734 0.41835 0.49951 0.0
H441 H 0.7329 0.4203 0.53764 0.0
H442 H 0.76168 0.47621 0.52314 0.0
H443 H 0.54016 0.33329 0.49206 0.0
H444 H 0.51569 0.3647 0.51295 0.0
H445 H 0.54119 0.33354 0.53002 0.0
C446 C 0.29649 0.55038 0.80404 0.0
C447 C 0.32826 0.57624 0.82958 0.0
C448 C 0.24631 0.5302 0.80356 0.0
C449 C 0.22757 0.53594 0.82924 0.0
C450 C 0.25941 0.56141 0.85515 0.0
C451 C 0.30933 0.58131 0.85499 0.0
C452 C 0.2134 0.50334 0.77551 0.0
C453 C 0.2408 0.56818 0.88299 0.0
C454 C 0.10591 0.52881 0.82336 0.0
C455 C 0.07534 0.48172 0.8286 0.0
C456 C 0.15562 0.54688 0.82343 0.0
C457 C 0.17484 0.5169 0.82888 0.0
C458 C 0.14379 0.46918 0.83434 0.0
C459 C 0.09411 0.45206 0.8341 0.0
C460 C 0.18751 0.59794 0.81757 0.0
C461 C 0.16302 0.43628 0.84033 0.0
H462 H 0.31083 0.54623 0.78434 0.0
H463 H 0.33357 0.601 0.87488 0.0
H464 H 0.1856 0.466 0.77806 0.0
H465 H 0.19403 0.52216 0.7694 0.0
H466 H 0.23352 0.50079 0.75764 0.0
H467 H 0.2702 0.58748 0.90148 0.0
H468 H 0.22243 0.58933 0.88072 0.0
H469 H 0.2136 0.53231 0.88798 0.0
H470 H 0.09083 0.5514 0.819 0.0
H471 H 0.06995 0.41549 0.83802 0.0
H472 H 0.20592 0.59706 0.79851 0.0
H473 H 0.21612 0.62001 0.83616 0.0
H474 H 0.1668 0.6164 0.8136 0.0
H475 H 0.18055 0.4306 0.82187 0.0
H476 H 0.1341 0.40023 0.84417 0.0
H477 H 0.19108 0.45365 0.85951 0.0
C478 C 0.78024 0.29506 0.20632 0.0
C479 C 0.80382 0.3049 0.18172 0.0
C480 C 0.74601 0.24728 0.20913 0.0
C481 C 0.73511 0.20859 0.18676 0.0
C482 C 0.75893 0.21826 0.16195 0.0
C483 C 0.79305 0.26632 0.15973 0.0
C484 C 0.72128 0.2382 0.23591 0.0
C485 C 0.74804 0.17787 0.1376 0.0
C486 C 0.67572 0.07859 0.201 0.0
C487 C 0.62782 0.06071 0.18944 0.0
C488 C 0.71111 0.12723 0.20088 0.0
C489 C 0.69778 0.15802 0.18883 0.0
C490 C 0.64895 0.13992 0.17763 0.0
C491 C 0.61443 0.09123 0.17809 0.0
C492 C 0.7628 0.1454 0.21307 0.0
C493 C 0.6334 0.17165 0.16462 0.0
H494 H 0.78851 0.32469 0.22345 0.0
H495 H 0.81113 0.27363 0.14066 0.0
H496 H 0.68167 0.22149 0.23001 0.0
H497 H 0.72708 0.21212 0.24656 0.0
H498 H 0.73472 0.27216 0.25164 0.0
H499 H 0.77038 0.19145 0.12 0.0
H500 H 0.75469 0.15041 0.14581 0.0
H501 H 0.70929 0.15905 0.12847 0.0
H502 H 0.68555 0.05443 0.20977 0.0
H503 H 0.57704 0.0768 0.16921 0.0
H504 H 0.77628 0.17821 0.22972 0.0
H505 H 0.78626 0.1562 0.19575 0.0
H506 H 0.76672 0.11745 0.22281 0.0
H507 H 0.64397 0.20484 0.18034 0.0
H508 H 0.5937 0.15242 0.15785 0.0
H509 H 0.65206 0.18368 0.14552 0.0
C510 C 0.01414 0.48629 0.06518 0.0
C511 C 0.97164 0.45855 0.07698 0.0
C512 C 0.01344 0.48547 0.03533 0.0
C513 C 0.96889 0.45711 0.01701 0.0
C514 C 0.92616 0.42743 0.02878 0.0
C515 C 0.92817 0.42808 0.05867 0.0
C516 C 0.05999 0.5166 0.02359 0.0
C517 C 0.8778 0.39732 0.01005 0.0
C518 C 0.95221 0.50214 0.94881 0.0
C519 C 0.95289 0.46854 0.92728 0.0
C520 C 0.95801 0.4991 0.97804 0.0
C521 C 0.96595 0.46228 0.98611 0.0
C522 C 0.96923 0.42976 0.96465 0.0
C523 C 0.96226 0.43301 0.93544 0.0
C524 C 0.95411 0.53445 0.00024 0.0
C525 C 0.97873 0.39073 0.97249 0.0
H526 H 0.04786 0.50916 0.07938 0.0
H527 H 0.89524 0.40681 0.06785 0.0
H528 H 0.06411 0.49528 0.00485 0.0
H529 H 0.05914 0.54758 0.01594 0.0
H530 H 0.0922 0.53139 0.04009 0.0
H531 H 0.84869 0.3737 0.0222 0.0
H532 H 0.86747 0.42178 0.00098 0.0
H533 H 0.88012 0.37407 0.99166 0.0
H534 H 0.94631 0.53054 0.94279 0.0
H535 H 0.96262 0.40672 0.919 0.0
H536 H 0.98758 0.55471 0.01595 0.0
H537 H 0.92362 0.51421 0.01246 0.0
H538 H 0.94811 0.56113 0.99038 0.0
H539 H 0.01076 0.40676 0.98921 0.0
H540 H 0.98497 0.37153 0.95356 0.0
H541 H 0.94734 0.36358 0.98173 0.0
C542 C 0.56843 0.07276 0.41989 0.0
C543 C 0.55059 0.035 0.43627 0.0
C544 C 0.55887 0.06276 0.38968 0.0
C545 C 0.53073 0.01389 0.37556 0.0
C546 C 0.51108 0.97577 0.39198 0.0
C547 C 0.52123 0.98677 0.42211 0.0
C548 C 0.58025 0.10436 0.37286 0.0
C549 C 0.48059 0.92318 0.3777 0.0
C550 C 0.47405 0.98268 0.29758 0.0
C551 C 0.5056 0.97196 0.28335 0.0
C552 C 0.48246 0.9977 0.32752 0.0
C553 C 0.52344 0.00218 0.34359 0.0
C554 C 0.55628 0.99297 0.32925 0.0
C555 C 0.54695 0.97795 0.29928 0.0
C556 C 0.44678 0.00744 0.34204 0.0
C557 C 0.60043 0.99739 0.34567 0.0
H558 H 0.5911 0.11013 0.43057 0.0
H559 H 0.50696 0.95733 0.43454 0.0
H560 H 0.60713 0.10185 0.36014 0.0
H561 H 0.55162 0.10215 0.35737 0.0
H562 H 0.59843 0.14041 0.38708 0.0
H563 H 0.46599 0.89806 0.39358 0.0
H564 H 0.44983 0.91811 0.3628 0.0
H565 H 0.50263 0.91276 0.36466 0.0
H566 H 0.44243 0.97885 0.28528 0.0
H567 H 0.57119 0.96927 0.28846 0.0
H568 H 0.46586 0.0441 0.35551 0.0
H569 H 0.42899 0.98062 0.35659 0.0
H570 H 0.41834 0.00512 0.32628 0.0
H571 H 0.62221 0.03387 0.35922 0.0
H572 H 0.62381 0.99169 0.33116 0.0
H573 H 0.58904 0.97009 0.36035 0.0
C574 C 0.51618 0.61631 0.71795 0.0
C575 C 0.53369 0.59665 0.73723 0.0
C576 C 0.52669 0.61668 0.68936 0.0
C577 C 0.55493 0.59652 0.67989 0.0
C578 C 0.57131 0.57529 0.69904 0.0
C579 C 0.56066 0.57577 0.7274 0.0
C580 C 0.50881 0.63981 0.66956 0.0
C581 C 0.60109 0.5529 0.68978 0.0
C582 C 0.55976 0.55742 0.60177 0.0
C583 C 0.60604 0.59409 0.59787 0.0
C584 C 0.54111 0.55923 0.62779 0.0
C585 C 0.56928 0.59882 0.6504 0.0
C586 C 0.6145 0.6376 0.64586 0.0
C587 C 0.63242 0.63468 0.61971 0.0
C588 C 0.49267 0.51722 0.63172 0.0
C589 C 0.64555 0.68063 0.66934 0.0
H590 H 0.49543 0.63261 0.72539 0.0
H591 H 0.57395 0.56002 0.74202 0.0
H592 H 0.54012 0.67235 0.66375 0.0
H593 H 0.48882 0.61414 0.64923 0.0
H594 H 0.48476 0.65108 0.67959 0.0
H595 H 0.60942 0.53623 0.70699 0.0
H596 H 0.58153 0.52447 0.67044 0.0
H597 H 0.63572 0.58114 0.68381 0.0
H598 H 0.53871 0.52641 0.58477 0.0
H599 H 0.66834 0.66305 0.61704 0.0
H600 H 0.4701 0.53067 0.64148 0.0
H601 H 0.49826 0.49565 0.64668 0.0
H602 H 0.47249 0.4927 0.61102 0.0
H603 H 0.62369 0.69492 0.6792 0.0
H604 H 0.67636 0.71057 0.66119 0.0
H605 H 0.6603 0.66896 0.68662 0.0
C606 C 0.54472 0.03928 0.61273 0.0
C607 C 0.57459 0.07839 0.59906 0.0
C608 C 0.53861 0.04693 0.64173 0.0
C609 C 0.56317 0.09478 0.65753 0.0
C610 C 0.59351 0.13439 0.64396 0.0
C611 C 0.59873 0.12576 0.61487 0.0
C612 C 0.5057 0.00381 0.65543 0.0
C613 C 0.62051 0.18594 0.66017 0.0
C614 C 0.51567 0.12379 0.72434 0.0
C615 C 0.54685 0.12392 0.74646 0.0
C616 C 0.52007 0.11355 0.6953 0.0
C617 C 0.55678 0.10357 0.68822 0.0
C618 C 0.58793 0.10295 0.71047 0.0
C619 C 0.58246 0.11296 0.73935 0.0
C620 C 0.48578 0.11396 0.67219 0.0
C621 C 0.62768 0.09274 0.70376 0.0
H622 H 0.52584 0.00254 0.60074 0.0
H623 H 0.62203 0.15621 0.60459 0.0
H624 H 0.52627 0.00145 0.67428 0.0
H625 H 0.47627 0.00851 0.66345 0.0
H626 H 0.48918 0.96891 0.64017 0.0
H627 H 0.6432 0.21262 0.6466 0.0
H628 H 0.5945 0.19614 0.66819 0.0
H629 H 0.64417 0.18868 0.67925 0.0
H630 H 0.48773 0.13168 0.72979 0.0
H631 H 0.6069 0.11349 0.75641 0.0
H632 H 0.46689 0.0786 0.65733 0.0
H633 H 0.50641 0.14257 0.65918 0.0
H634 H 0.45822 0.12083 0.68129 0.0
H635 H 0.61224 0.05707 0.68948 0.0
H636 H 0.64803 0.0924 0.72351 0.0
H637 H 0.65345 0.12085 0.69203 0.0
C638 C 0.47683 0.57902 0.90716 0.0
C639 C 0.52129 0.60737 0.89722 0.0
C640 C 0.47493 0.56892 0.9354 0.0
C641 C 0.51851 0.58789 0.95419 0.0
C642 C 0.56344 0.61737 0.9445 0.0
C643 C 0.5643 0.62668 0.91613 0.0
C644 C 0.42637 0.5371 0.94491 0.0
C645 C 0.6107 0.63842 0.96397 0.0
C646 C 0.51865 0.5953 0.03526 0.0
C647 C 0.52436 0.55608 0.04005 0.0
C648 C 0.51539 0.60544 0.00728 0.0
C649 C 0.51749 0.57535 0.98363 0.0
C650 C 0.52111 0.53446 0.98828 0.0
C651 C 0.52464 0.52542 0.01644 0.0
C652 C 0.51174 0.64947 0.00315 0.0
C653 C 0.52284 0.50114 0.96359 0.0
H654 H 0.44337 0.564 0.89274 0.0
H655 H 0.59879 0.6488 0.90869 0.0
H656 H 0.42407 0.50328 0.95015 0.0
H657 H 0.42221 0.55606 0.96477 0.0
H658 H 0.39576 0.52696 0.92809 0.0
H659 H 0.64238 0.66238 0.95357 0.0
H660 H 0.61036 0.65974 0.98413 0.0
H661 H 0.6154 0.60855 0.97012 0.0
H662 H 0.51878 0.61923 0.05351 0.0
H663 H 0.52847 0.49471 0.02011 0.0
H664 H 0.48079 0.63911 0.9866 0.0
H665 H 0.54502 0.67647 0.99526 0.0
H666 H 0.50716 0.66718 0.02344 0.0
H667 H 0.49144 0.4878 0.94676 0.0
H668 H 0.5227 0.46926 0.97065 0.0
H669 H 0.55605 0.52153 0.95346 0.0
C670 C 0.96801 0.46234 0.25528 0.0
C671 C 0.00564 0.48879 0.23939 0.0
C672 C 0.9773 0.46387 0.28499 0.0
C673 C 0.0254 0.49216 0.29912 0.0
C674 C 0.06355 0.51863 0.28319 0.0
C675 C 0.0532 0.51681 0.2536 0.0
C676 C 0.93564 0.43556 0.30131 0.0
C677 C 0.11543 0.54896 0.29741 0.0
C678 C 0.05603 0.53988 0.37942 0.0
C679 C 0.07022 0.50883 0.38948 0.0
C680 C 0.03879 0.53324 0.35027 0.0
C681 C 0.03623 0.49493 0.33066 0.0
C682 C 0.04815 0.46195 0.34098 0.0
C683 C 0.0648 0.46917 0.37035 0.0
C684 C 0.02571 0.56873 0.34024 0.0
C685 C 0.04612 0.4208 0.32074 0.0
H686 H 0.93112 0.44067 0.24456 0.0
H687 H 0.08258 0.53717 0.24154 0.0
H688 H 0.94166 0.40962 0.31197 0.0
H689 H 0.93348 0.46078 0.31852 0.0
H690 H 0.90039 0.41489 0.28709 0.0
H691 H 0.14101 0.56648 0.28186 0.0
H692 H 0.1191 0.57782 0.31451 0.0
H693 H 0.12613 0.52589 0.3079 0.0
H694 H 0.05984 0.57034 0.39428 0.0
H695 H 0.07617 0.44538 0.37804 0.0
H696 H 0.9899 0.54895 0.32668 0.0
H697 H 0.05273 0.59149 0.32676 0.0
H698 H 0.02467 0.59314 0.35854 0.0
H699 H 0.01066 0.39963 0.30685 0.0
H700 H 0.05198 0.39569 0.33247 0.0
H701 H 0.07444 0.43593 0.30635 0.0
loop_
_geom_bond_atom_site_label_1
_geom_bond_atom_site_label_2
_geom_bond_distance
_geom_bond_site_symmetry_2
_ccdc_geom_bond_type
Zn0 O6 1.969 . S
Zn0 O7 1.965 . S
Zn0 O11 2.024 . S
Zn0 O16 1.969 . S
Zn1 O8 1.969 . S
Zn1 O14 1.969 . S
Zn1 O15 1.965 . S
Zn1 O17 2.024 . S
C2 O3 1.229 . S
C2 O11 1.058 . S
O3 C2 1.229 . S
C4 O5 1.229 . S
C4 O17 1.058 . S
O5 C4 1.229 . S
O6 Zn0 1.969 . S
O6 C9 1.267 . S
O7 Zn0 1.965 . S
O7 C18 1.260 . S
O8 Zn1 1.969 . S
O8 C18 1.258 1_655 S
C9 O6 1.267 . S
C9 O10 1.228 . S
O10 C9 1.228 . S
O11 Zn0 2.024 . S
O11 C2 1.058 . S
C12 O13 1.228 . S
C12 O14 1.267 . S
O13 C12 1.228 . S
O14 Zn1 1.969 . S
O14 C12 1.267 . S
O15 Zn1 1.965 . S
O15 C19 1.260 1_655 S
O16 Zn0 1.969 . S
O16 C19 1.258 . S
O17 Zn1 2.024 . S
O17 C4 1.058 . S
C18 O7 1.260 . S
C18 O8 1.258 1_455 S
C19 O15 1.260 1_455 S
C19 O16 1.258 . S
Zn20 O26 1.969 . S
Zn20 O27 1.965 . S
Zn20 O31 2.024 . S
Zn20 O36 1.969 . S
Zn21 O28 1.969 . S
Zn21 O34 1.969 . S
Zn21 O35 1.965 1_565 S
Zn21 O37 2.024 . S
C22 O23 1.229 . S
C22 O31 1.058 . S
O23 C22 1.229 . S
C24 O25 1.229 . S
C24 O37 1.058 . S
O25 C24 1.229 . S
O26 Zn20 1.969 . S
O26 C29 1.267 . S
O27 Zn20 1.965 . S
O27 C38 1.260 . S
O28 Zn21 1.969 . S
O28 C38 1.258 1_565 S
C29 O26 1.267 . S
C29 O30 1.228 . S
O30 C29 1.228 . S
O31 Zn20 2.024 . S
O31 C22 1.058 . S
C32 O33 1.228 . S
C32 O34 1.267 . S
O33 C32 1.228 . S
O34 Zn21 1.969 . S
O34 C32 1.267 . S
O35 Zn21 1.965 1_545 S
O35 C39 1.260 . S
O36 Zn20 1.969 . S
O36 C39 1.258 . S
O37 Zn21 2.024 . S
O37 C24 1.058 . S
C38 O27 1.260 . S
C38 O28 1.258 1_545 S
C39 O35 1.260 . S
C39 O36 1.258 . S
Zn40 O46 1.969 . S
Zn40 O47 1.965 . S
Zn40 O51 2.024 . S
Zn40 O56 1.969 . S
Zn41 O48 1.969 . S
Zn41 O54 1.969 . S
Zn41 O55 1.965 . S
Zn41 O57 2.024 . S
C42 O43 1.229 . S
C42 O51 1.058 . S
O43 C42 1.229 . S
C44 O45 1.229 . S
C44 O57 1.058 . S
O45 C44 1.229 . S
O46 Zn40 1.969 . S
O46 C49 1.267 . S
O47 Zn40 1.965 . S
O47 C58 1.260 . S
O48 Zn41 1.969 . S
O48 C58 1.258 . S
C49 O46 1.267 . S
C49 O50 1.228 . S
O50 C49 1.228 . S
O51 Zn40 2.024 . S
O51 C42 1.058 . S
C52 O53 1.228 . S
C52 O54 1.267 . S
O53 C52 1.228 . S
O54 Zn41 1.969 . S
O54 C52 1.267 . S
O55 Zn41 1.965 . S
O55 C59 1.260 . S
O56 Zn40 1.969 . S
O56 C59 1.258 . S
O57 Zn41 2.024 . S
O57 C44 1.058 . S
C58 O47 1.260 . S
C58 O48 1.258 . S
C59 O55 1.260 . S
C59 O56 1.258 . S
H60 C63 0.929 1_565 S
H61 C66 0.929 . S
H62 C68 0.930 . S
C63 H60 0.929 1_545 S
C63 C64 1.398 1_545 S
C63 C65 1.396 . S
C64 C63 1.398 1_565 S
C64 C68 1.407 1_565 S
C65 C63 1.396 . S
C65 C66 1.394 . S
C66 H61 0.929 . S
C66 C65 1.394 . S
C66 C67 1.382 . S
C67 C66 1.382 . S
C67 C68 1.392 . S
C67 N69 1.420 . S
C68 H62 0.930 . S
C68 C64 1.407 1_545 S
C68 C67 1.392 . S
N69 C67 1.420 . S
N69 C70 1.244 . S
C70 N69 1.244 . S
H71 C74 0.929 . S
H72 C77 0.929 . S
H73 C79 0.930 . S
C74 H71 0.929 . S
C74 C75 1.398 . S
C74 C76 1.396 . S
C75 C74 1.398 . S
C75 C79 1.407 . S
C76 C74 1.396 . S
C76 C77 1.394 . S
C77 H72 0.929 . S
C77 C76 1.394 . S
C77 C78 1.382 . S
C78 C77 1.382 . S
C78 C79 1.392 . S
C78 N80 1.420 . S
C79 H73 0.930 . S
C79 C75 1.407 . S
C79 C78 1.392 . S
N80 C78 1.420 . S
N80 C81 1.244 . S
C81 N80 1.244 . S
H82 C85 0.929 1_655 S
H83 C88 0.929 . S
H84 C90 0.930 . S
C85 H82 0.929 1_455 S
C85 C86 1.398 1_455 S
C85 C87 1.396 . S
C86 C85 1.398 1_655 S
C86 C90 1.407 1_655 S
C87 C85 1.396 . S
C87 C88 1.394 . S
C88 H83 0.929 . S
C88 C87 1.394 . S
C88 C89 1.382 . S
C89 C88 1.382 . S
C89 C90 1.392 . S
C89 N91 1.420 . S
C90 H84 0.930 . S
C90 C86 1.407 1_455 S
C90 C89 1.392 . S
N91 C89 1.420 . S
N91 C92 1.244 . S
C92 N91 1.244 . S
H93 C96 0.929 . S
H94 C99 0.929 1_655 S
H95 C101 0.930 . S
C96 H93 0.929 . S
C96 C97 1.398 . S
C96 C98 1.396 . S
C97 C96 1.398 . S
C97 C101 1.407 . S
C98 C96 1.396 . S
C98 C99 1.394 . S
C99 H94 0.929 1_455 S
C99 C98 1.394 . S
C99 C100 1.382 . S
C100 C99 1.382 . S
C100 C101 1.392 . S
C100 N102 1.420 1_455 S
C101 H95 0.930 . S
C101 C97 1.407 . S
C101 C100 1.392 . S
N102 C100 1.420 1_655 S
N102 C103 1.244 . S
C103 N102 1.244 . S
H104 C107 0.929 . S
H105 C110 0.929 1_565 S
H106 C112 0.930 . S
C107 H104 0.929 . S
C107 C108 1.398 . S
C107 C109 1.396 . S
C108 C107 1.398 . S
C108 C112 1.407 . S
C109 C107 1.396 . S
C109 C110 1.394 . S
C110 H105 0.929 1_545 S
C110 C109 1.394 . S
C110 C111 1.382 . S
C111 C110 1.382 . S
C111 C112 1.392 . S
C111 N113 1.418 . S
C112 H106 0.930 . S
C112 C108 1.407 . S
C112 C111 1.392 . S
N113 C111 1.418 . S
N113 C114 1.246 1_545 S
C114 N113 1.246 1_565 S
H115 C118 0.929 . S
H116 C121 0.929 . S
H117 C123 0.930 . S
C118 H115 0.929 . S
C118 C119 1.398 . S
C118 C120 1.396 . S
C119 C118 1.398 . S
C119 C123 1.407 . S
C120 C118 1.396 . S
C120 C121 1.394 . S
C121 H116 0.929 . S
C121 C120 1.394 . S
C121 C122 1.382 . S
C122 C121 1.382 . S
C122 C123 1.392 . S
C122 N124 1.420 . S
C123 H117 0.930 . S
C123 C119 1.407 . S
C123 C122 1.392 . S
N124 C122 1.420 . S
N124 C125 1.244 . S
C125 N124 1.244 . S
C126 C127 1.391 . S
C126 C128 1.394 . S
C126 H142 0.931 . S
C127 C126 1.391 . S
C127 C131 1.376 . S
C128 C126 1.394 . S
C128 C129 1.369 . S
C128 C132 1.531 . S
C129 C128 1.369 . S
C129 C130 1.410 . S
C129 C137 1.503 . S
C130 C129 1.410 . S
C130 C131 1.392 . S
C130 C133 1.511 . S
C131 C127 1.376 . S
C131 C130 1.392 . S
C131 H143 0.929 . S
C132 C128 1.531 . S
C132 H144 0.960 . S
C132 H145 0.962 . S
C132 H146 0.960 . S
C133 C130 1.511 . S
C133 H147 0.961 . S
C133 H148 0.961 . S
C133 H149 0.961 . S
C134 C135 1.370 . S
C134 C136 1.363 . S
C134 H150 0.931 . S
C135 C134 1.370 . S
C135 C139 1.408 . S
C136 C134 1.363 . S
C136 C137 1.370 . S
C136 C140 1.524 . S
C137 C129 1.503 . S
C137 C136 1.370 . S
C137 C138 1.403 . S
C138 C137 1.403 . S
C138 C139 1.404 . S
C138 C141 1.539 . S
C139 C135 1.408 . S
C139 C138 1.404 . S
C139 H151 0.930 . S
C140 C136 1.524 . S
C140 H152 0.956 . S
C140 H153 0.961 . S
C140 H154 0.961 . S
C141 C138 1.539 . S
C141 H155 0.958 . S
C141 H156 0.961 . S
C141 H157 0.960 . S
H142 C126 0.931 . S
H143 C131 0.929 . S
H144 C132 0.960 . S
H145 C132 0.962 . S
H146 C132 0.960 . S
H147 C133 0.961 . S
H148 C133 0.961 . S
H149 C133 0.961 . S
H150 C134 0.931 . S
H151 C139 0.930 . S
H152 C140 0.956 . S
H153 C140 0.961 . S
H154 C140 0.961 . S
H155 C141 0.958 . S
H156 C141 0.961 . S
H157 C141 0.960 . S
C158 C159 1.391 . S
C158 C160 1.394 . S
C158 H174 0.931 . S
C159 C158 1.391 . S
C159 C163 1.376 . S
C160 C158 1.394 . S
C160 C161 1.369 . S
C160 C164 1.531 . S
C161 C160 1.369 . S
C161 C162 1.410 . S
C161 C169 1.503 . S
C162 C161 1.410 . S
C162 C163 1.392 . S
C162 C165 1.511 . S
C163 C159 1.376 . S
C163 C162 1.392 . S
C163 H175 0.929 . S
C164 C160 1.531 . S
C164 H176 0.960 . S
C164 H177 0.962 . S
C164 H178 0.960 . S
C165 C162 1.511 . S
C165 H179 0.961 . S
C165 H180 0.961 . S
C165 H181 0.961 . S
C166 C167 1.370 . S
C166 C168 1.363 . S
C166 H182 0.931 . S
C167 C166 1.370 . S
C167 C171 1.408 . S
C168 C166 1.363 . S
C168 C169 1.370 . S
C168 C172 1.524 . S
C169 C161 1.503 . S
C169 C168 1.370 . S
C169 C170 1.403 . S
C170 C169 1.403 . S
C170 C171 1.404 . S
C170 C173 1.539 . S
C171 C167 1.408 . S
C171 C170 1.404 . S
C171 H183 0.930 . S
C172 C168 1.524 . S
C172 H184 0.956 . S
C172 H185 0.961 . S
C172 H186 0.961 . S
C173 C170 1.539 . S
C173 H187 0.958 . S
C173 H188 0.961 . S
C173 H189 0.960 . S
H174 C158 0.931 . S
H175 C163 0.929 . S
H176 C164 0.960 . S
H177 C164 0.962 . S
H178 C164 0.960 . S
H179 C165 0.961 . S
H180 C165 0.961 . S
H181 C165 0.961 . S
H182 C166 0.931 . S
H183 C171 0.930 . S
H184 C172 0.956 . S
H185 C172 0.961 . S
H186 C172 0.961 . S
H187 C173 0.958 . S
H188 C173 0.961 . S
H189 C173 0.960 . S
C190 C191 1.391 . S
C190 C192 1.394 . S
C190 H206 0.931 . S
C191 C190 1.391 . S
C191 C195 1.376 . S
C192 C190 1.394 . S
C192 C193 1.369 . S
C192 C196 1.531 . S
C193 C192 1.369 . S
C193 C194 1.410 . S
C193 C201 1.503 . S
C194 C193 1.410 . S
C194 C195 1.392 . S
C194 C197 1.511 . S
C195 C191 1.376 . S
C195 C194 1.392 . S
C195 H207 0.929 . S
C196 C192 1.531 . S
C196 H208 0.960 . S
C196 H209 0.962 . S
C196 H210 0.960 . S
C197 C194 1.511 . S
C197 H211 0.961 . S
C197 H212 0.961 . S
C197 H213 0.961 . S
C198 C199 1.370 . S
C198 C200 1.363 . S
C198 H214 0.931 . S
C199 C198 1.370 . S
C199 C203 1.408 . S
C200 C198 1.363 . S
C200 C201 1.370 . S
C200 C204 1.524 . S
C201 C193 1.503 . S
C201 C200 1.370 . S
C201 C202 1.403 . S
C202 C201 1.403 . S
C202 C203 1.404 . S
C202 C205 1.539 . S
C203 C199 1.408 . S
C203 C202 1.404 . S
C203 H215 0.930 . S
C204 C200 1.524 . S
C204 H216 0.956 . S
C204 H217 0.961 . S
C204 H218 0.961 . S
C205 C202 1.539 . S
C205 H219 0.958 . S
C205 H220 0.961 . S
C205 H221 0.960 . S
H206 C190 0.931 . S
H207 C195 0.929 . S
H208 C196 0.960 . S
H209 C196 0.962 . S
H210 C196 0.960 . S
H211 C197 0.961 . S
H212 C197 0.961 . S
H213 C197 0.961 . S
H214 C198 0.931 . S
H215 C203 0.930 . S
H216 C204 0.956 . S
H217 C204 0.961 . S
H218 C204 0.961 . S
H219 C205 0.958 . S
H220 C205 0.961 . S
H221 C205 0.960 . S
C222 C223 1.391 . S
C222 C224 1.394 . S
C222 H238 0.931 . S
C223 C222 1.391 . S
C223 C227 1.376 . S
C224 C222 1.394 . S
C224 C225 1.369 . S
C224 C228 1.531 . S
C225 C224 1.369 . S
C225 C226 1.410 . S
C225 C233 1.503 . S
C226 C225 1.410 . S
C226 C227 1.392 . S
C226 C229 1.511 . S
C227 C223 1.376 . S
C227 C226 1.392 . S
C227 H239 0.929 . S
C228 C224 1.531 . S
C228 H240 0.960 . S
C228 H241 0.962 . S
C228 H242 0.960 . S
C229 C226 1.511 . S
C229 H243 0.961 . S
C229 H244 0.961 . S
C229 H245 0.961 . S
C230 C231 1.370 . S
C230 C232 1.363 . S
C230 H246 0.931 . S
C231 C230 1.370 . S
C231 C235 1.408 . S
C232 C230 1.363 . S
C232 C233 1.370 . S
C232 C236 1.524 . S
C233 C225 1.503 . S
C233 C232 1.370 . S
C233 C234 1.403 . S
C234 C233 1.403 . S
C234 C235 1.404 . S
C234 C237 1.539 . S
C235 C231 1.408 . S
C235 C234 1.404 . S
C235 H247 0.930 . S
C236 C232 1.524 . S
C236 H248 0.956 . S
C236 H249 0.961 . S
C236 H250 0.961 . S
C237 C234 1.539 . S
C237 H251 0.958 . S
C237 H252 0.961 . S
C237 H253 0.960 . S
H238 C222 0.931 . S
H239 C227 0.929 . S
H240 C228 0.960 . S
H241 C228 0.962 . S
H242 C228 0.960 . S
H243 C229 0.961 . S
H244 C229 0.961 . S
H245 C229 0.961 . S
H246 C230 0.931 . S
H247 C235 0.930 . S
H248 C236 0.956 . S
H249 C236 0.961 . S
H250 C236 0.961 . S
H251 C237 0.958 . S
H252 C237 0.961 . S
H253 C237 0.960 . S
C254 C255 1.391 . S
C254 C256 1.394 . S
C254 H270 0.931 . S
C255 C254 1.391 . S
C255 C259 1.376 . S
C256 C254 1.394 . S
C256 C257 1.369 . S
C256 C260 1.531 . S
C257 C256 1.369 . S
C257 C258 1.410 . S
C257 C265 1.503 . S
C258 C257 1.410 . S
C258 C259 1.392 . S
C258 C261 1.511 . S
C259 C255 1.376 . S
C259 C258 1.392 . S
C259 H271 0.929 . S
C260 C256 1.531 . S
C260 H272 0.960 . S
C260 H273 0.962 . S
C260 H274 0.960 . S
C261 C258 1.511 . S
C261 H275 0.961 . S
C261 H276 0.961 . S
C261 H277 0.961 . S
C262 C263 1.370 . S
C262 C264 1.363 . S
C262 H278 0.931 . S
C263 C262 1.370 . S
C263 C267 1.408 . S
C264 C262 1.363 . S
C264 C265 1.370 . S
C264 C268 1.524 . S
C265 C257 1.503 . S
C265 C264 1.370 . S
C265 C266 1.403 . S
C266 C265 1.403 . S
C266 C267 1.404 . S
C266 C269 1.539 . S
C267 C263 1.408 . S
C267 C266 1.404 . S
C267 H279 0.930 . S
C268 C264 1.524 . S
C268 H280 0.956 . S
C268 H281 0.961 . S
C268 H282 0.961 . S
C269 C266 1.539 . S
C269 H283 0.958 . S
C269 H284 0.961 . S
C269 H285 0.960 . S
H270 C254 0.931 . S
H271 C259 0.929 . S
H272 C260 0.960 . S
H273 C260 0.962 . S
H274 C260 0.960 . S
H275 C261 0.961 . S
H276 C261 0.961 . S
H277 C261 0.961 . S
H278 C262 0.931 . S
H279 C267 0.930 . S
H280 C268 0.956 . S
H281 C268 0.961 . S
H282 C268 0.961 . S
H283 C269 0.958 . S
H284 C269 0.961 . S
H285 C269 0.960 . S
C286 C287 1.391 . S
C286 C288 1.394 . S
C286 H302 0.931 . S
C287 C286 1.391 . S
C287 C291 1.376 . S
C288 C286 1.394 . S
C288 C289 1.369 . S
C288 C292 1.531 . S
C289 C288 1.369 . S
C289 C290 1.410 . S
C289 C297 1.503 . S
C290 C289 1.410 . S
C290 C291 1.392 . S
C290 C293 1.511 . S
C291 C287 1.376 . S
C291 C290 1.392 . S
C291 H303 0.929 . S
C292 C288 1.531 . S
C292 H304 0.960 . S
C292 H305 0.962 . S
C292 H306 0.960 . S
C293 C290 1.511 . S
C293 H307 0.961 . S
C293 H308 0.961 . S
C293 H309 0.961 . S
C294 C295 1.370 . S
C294 C296 1.363 . S
C294 H310 0.931 . S
C295 C294 1.370 . S
C295 C299 1.408 . S
C296 C294 1.363 . S
C296 C297 1.370 . S
C296 C300 1.524 . S
C297 C289 1.503 . S
C297 C296 1.370 . S
C297 C298 1.403 . S
C298 C297 1.403 . S
C298 C299 1.404 . S
C298 C301 1.539 . S
C299 C295 1.408 . S
C299 C298 1.404 . S
C299 H311 0.930 . S
C300 C296 1.524 . S
C300 H312 0.956 . S
C300 H313 0.961 . S
C300 H314 0.961 . S
C301 C298 1.539 . S
C301 H315 0.958 . S
C301 H316 0.961 . S
C301 H317 0.960 . S
H302 C286 0.931 . S
H303 C291 0.929 . S
H304 C292 0.960 . S
H305 C292 0.962 . S
H306 C292 0.960 . S
H307 C293 0.961 . S
H308 C293 0.961 . S
H309 C293 0.961 . S
H310 C294 0.931 . S
H311 C299 0.930 . S
H312 C300 0.956 . S
H313 C300 0.961 . S
H314 C300 0.961 . S
H315 C301 0.958 . S
H316 C301 0.961 . S
H317 C301 0.960 . S
C318 C319 1.391 . S
C318 C320 1.394 . S
C318 H334 0.931 . S
C319 C318 1.391 . S
C319 C323 1.376 . S
C320 C318 1.394 . S
C320 C321 1.369 . S
C320 C324 1.531 . S
C321 C320 1.369 . S
C321 C322 1.410 . S
C321 C329 1.503 . S
C322 C321 1.410 . S
C322 C323 1.392 . S
C322 C325 1.511 . S
C323 C319 1.376 . S
C323 C322 1.392 . S
C323 H335 0.929 . S
C324 C320 1.531 . S
C324 H336 0.960 . S
C324 H337 0.962 . S
C324 H338 0.960 . S
C325 C322 1.511 . S
C325 H339 0.961 . S
C325 H340 0.961 . S
C325 H341 0.961 . S
C326 C327 1.370 . S
C326 C328 1.363 . S
C326 H342 0.931 . S
C327 C326 1.370 . S
C327 C331 1.408 . S
C328 C326 1.363 . S
C328 C329 1.370 . S
C328 C332 1.524 . S
C329 C321 1.503 . S
C329 C328 1.370 . S
C329 C330 1.403 . S
C330 C329 1.403 . S
C330 C331 1.404 . S
C330 C333 1.539 . S
C331 C327 1.408 . S
C331 C330 1.404 . S
C331 H343 0.930 . S
C332 C328 1.524 . S
C332 H344 0.956 . S
C332 H345 0.961 . S
C332 H346 0.961 . S
C333 C330 1.539 . S
C333 H347 0.958 . S
C333 H348 0.961 . S
C333 H349 0.960 . S
H334 C318 0.931 . S
H335 C323 0.929 . S
H336 C324 0.960 . S
H337 C324 0.962 . S
H338 C324 0.960 . S
H339 C325 0.961 . S
H340 C325 0.961 . S
H341 C325 0.961 . S
H342 C326 0.931 . S
H343 C331 0.930 . S
H344 C332 0.956 . S
H345 C332 0.961 . S
H346 C332 0.961 . S
H347 C333 0.958 . S
H348 C333 0.961 . S
H349 C333 0.960 . S
C350 C351 1.391 . S
C350 C352 1.394 . S
C350 H366 0.931 . S
C351 C350 1.391 . S
C351 C355 1.376 . S
C352 C350 1.394 . S
C352 C353 1.369 . S
C352 C356 1.531 . S
C353 C352 1.369 . S
C353 C354 1.410 . S
C353 C361 1.503 . S
C354 C353 1.410 . S
C354 C355 1.392 . S
C354 C357 1.511 . S
C355 C351 1.376 . S
C355 C354 1.392 . S
C355 H367 0.929 . S
C356 C352 1.531 . S
C356 H368 0.960 . S
C356 H369 0.962 . S
C356 H370 0.960 . S
C357 C354 1.511 . S
C357 H371 0.961 . S
C357 H372 0.961 . S
C357 H373 0.961 . S
C358 C359 1.370 . S
C358 C360 1.363 . S
C358 H374 0.931 . S
C359 C358 1.370 . S
C359 C363 1.408 . S
C360 C358 1.363 . S
C360 C361 1.370 . S
C360 C364 1.524 . S
C361 C353 1.503 . S
C361 C360 1.370 . S
C361 C362 1.403 . S
C362 C361 1.403 . S
C362 C363 1.404 . S
C362 C365 1.539 . S
C363 C359 1.408 . S
C363 C362 1.404 . S
C363 H375 0.930 . S
C364 C360 1.524 . S
C364 H376 0.956 . S
C364 H377 0.961 . S
C364 H378 0.961 . S
C365 C362 1.539 . S
C365 H379 0.958 . S
C365 H380 0.961 . S
C365 H381 0.960 . S
H366 C350 0.931 . S
H367 C355 0.929 . S
H368 C356 0.960 . S
H369 C356 0.962 . S
H370 C356 0.960 . S
H371 C357 0.961 . S
H372 C357 0.961 . S
H373 C357 0.961 . S
H374 C358 0.931 . S
H375 C363 0.930 . S
H376 C364 0.956 . S
H377 C364 0.961 . S
H378 C364 0.961 . S
H379 C365 0.958 . S
H380 C365 0.961 . S
H381 C365 0.960 . S
C382 C383 1.391 . S
C382 C384 1.394 . S
C382 H398 0.931 . S
C383 C382 1.391 . S
C383 C387 1.376 . S
C384 C382 1.394 . S
C384 C385 1.369 . S
C384 C388 1.531 . S
C385 C384 1.369 . S
C385 C386 1.410 . S
C385 C393 1.503 . S
C386 C385 1.410 . S
C386 C387 1.392 . S
C386 C389 1.511 . S
C387 C383 1.376 . S
C387 C386 1.392 . S
C387 H399 0.929 . S
C388 C384 1.531 . S
C388 H400 0.960 . S
C388 H401 0.962 . S
C388 H402 0.960 . S
C389 C386 1.511 . S
C389 H403 0.961 . S
C389 H404 0.961 . S
C389 H405 0.961 . S
C390 C391 1.370 . S
C390 C392 1.363 . S
C390 H406 0.931 . S
C391 C390 1.370 . S
C391 C395 1.408 . S
C392 C390 1.363 . S
C392 C393 1.370 . S
C392 C396 1.524 . S
C393 C385 1.503 . S
C393 C392 1.370 . S
C393 C394 1.403 . S
C394 C393 1.403 . S
C394 C395 1.404 . S
C394 C397 1.539 . S
C395 C391 1.408 . S
C395 C394 1.404 . S
C395 H407 0.930 . S
C396 C392 1.524 . S
C396 H408 0.956 . S
C396 H409 0.961 . S
C396 H410 0.961 . S
C397 C394 1.539 . S
C397 H411 0.958 . S
C397 H412 0.961 . S
C397 H413 0.960 . S
H398 C382 0.931 . S
H399 C387 0.929 . S
H400 C388 0.960 . S
H401 C388 0.962 . S
H402 C388 0.960 . S
H403 C389 0.961 . S
H404 C389 0.961 . S
H405 C389 0.961 . S
H406 C390 0.931 . S
H407 C395 0.930 . S
H408 C396 0.956 . S
H409 C396 0.961 . S
H410 C396 0.961 . S
H411 C397 0.958 . S
H412 C397 0.961 . S
H413 C397 0.960 . S
C414 C415 1.391 . S
C414 C416 1.394 . S
C414 H430 0.931 . S
C415 C414 1.391 . S
C415 C419 1.376 . S
C416 C414 1.394 . S
C416 C417 1.369 . S
C416 C420 1.531 . S
C417 C416 1.369 . S
C417 C418 1.410 . S
C417 C425 1.503 . S
C418 C417 1.410 . S
C418 C419 1.392 . S
C418 C421 1.511 . S
C419 C415 1.376 . S
C419 C418 1.392 . S
C419 H431 0.929 . S
C420 C416 1.531 . S
C420 H432 0.960 . S
C420 H433 0.962 . S
C420 H434 0.960 . S
C421 C418 1.511 . S
C421 H435 0.961 . S
C421 H436 0.961 . S
C421 H437 0.961 . S
C422 C423 1.370 . S
C422 C424 1.363 . S
C422 H438 0.931 . S
C423 C422 1.370 . S
C423 C427 1.408 . S
C424 C422 1.363 . S
C424 C425 1.370 . S
C424 C428 1.524 . S
C425 C417 1.503 . S
C425 C424 1.370 . S
C425 C426 1.403 . S
C426 C425 1.403 . S
C426 C427 1.404 . S
C426 C429 1.539 . S
C427 C423 1.408 . S
C427 C426 1.404 . S
C427 H439 0.930 . S
C428 C424 1.524 . S
C428 H440 0.956 . S
C428 H441 0.961 . S
C428 H442 0.961 . S
C429 C426 1.539 . S
C429 H443 0.958 . S
C429 H444 0.961 . S
C429 H445 0.960 . S
H430 C414 0.931 . S
H431 C419 0.929 . S
H432 C420 0.960 . S
H433 C420 0.962 . S
H434 C420 0.960 . S
H435 C421 0.961 . S
H436 C421 0.961 . S
H437 C421 0.961 . S
H438 C422 0.931 . S
H439 C427 0.930 . S
H440 C428 0.956 . S
H441 C428 0.961 . S
H442 C428 0.961 . S
H443 C429 0.958 . S
H444 C429 0.961 . S
H445 C429 0.960 . S
C446 C447 1.391 . S
C446 C448 1.394 . S
C446 H462 0.931 . S
C447 C446 1.391 . S
C447 C451 1.376 . S
C448 C446 1.394 . S
C448 C449 1.369 . S
C448 C452 1.531 . S
C449 C448 1.369 . S
C449 C450 1.410 . S
C449 C457 1.503 . S
C450 C449 1.410 . S
C450 C451 1.392 . S
C450 C453 1.511 . S
C451 C447 1.376 . S
C451 C450 1.392 . S
C451 H463 0.929 . S
C452 C448 1.531 . S
C452 H464 0.960 . S
C452 H465 0.962 . S
C452 H466 0.960 . S
C453 C450 1.511 . S
C453 H467 0.961 . S
C453 H468 0.961 . S
C453 H469 0.961 . S
C454 C455 1.370 . S
C454 C456 1.363 . S
C454 H470 0.931 . S
C455 C454 1.370 . S
C455 C459 1.408 . S
C456 C454 1.363 . S
C456 C457 1.370 . S
C456 C460 1.524 . S
C457 C449 1.503 . S
C457 C456 1.370 . S
C457 C458 1.403 . S
C458 C457 1.403 . S
C458 C459 1.404 . S
C458 C461 1.539 . S
C459 C455 1.408 . S
C459 C458 1.404 . S
C459 H471 0.930 . S
C460 C456 1.524 . S
C460 H472 0.956 . S
C460 H473 0.961 . S
C460 H474 0.961 . S
C461 C458 1.539 . S
C461 H475 0.958 . S
C461 H476 0.961 . S
C461 H477 0.960 . S
H462 C446 0.931 . S
H463 C451 0.929 . S
H464 C452 0.960 . S
H465 C452 0.962 . S
H466 C452 0.960 . S
H467 C453 0.961 . S
H468 C453 0.961 . S
H469 C453 0.961 . S
H470 C454 0.931 . S
H471 C459 0.930 . S
H472 C460 0.956 . S
H473 C460 0.961 . S
H474 C460 0.961 . S
H475 C461 0.958 . S
H476 C461 0.961 . S
H477 C461 0.960 . S
C478 C479 1.391 . S
C478 C480 1.394 . S
C478 H494 0.931 . S
C479 C478 1.391 . S
C479 C483 1.376 . S
C480 C478 1.394 . S
C480 C481 1.369 . S
C480 C484 1.531 . S
C481 C480 1.369 . S
C481 C482 1.410 . S
C481 C489 1.503 . S
C482 C481 1.410 . S
C482 C483 1.392 . S
C482 C485 1.511 . S
C483 C479 1.376 . S
C483 C482 1.392 . S
C483 H495 0.929 . S
C484 C480 1.531 . S
C484 H496 0.960 . S
C484 H497 0.962 . S
C484 H498 0.960 . S
C485 C482 1.511 . S
C485 H499 0.961 . S
C485 H500 0.961 . S
C485 H501 0.961 . S
C486 C487 1.370 . S
C486 C488 1.363 . S
C486 H502 0.931 . S
C487 C486 1.370 . S
C487 C491 1.408 . S
C488 C486 1.363 . S
C488 C489 1.370 . S
C488 C492 1.524 . S
C489 C481 1.503 . S
C489 C488 1.370 . S
C489 C490 1.403 . S
C490 C489 1.403 . S
C490 C491 1.404 . S
C490 C493 1.539 . S
C491 C487 1.408 . S
C491 C490 1.404 . S
C491 H503 0.930 . S
C492 C488 1.524 . S
C492 H504 0.956 . S
C492 H505 0.961 . S
C492 H506 0.961 . S
C493 C490 1.539 . S
C493 H507 0.958 . S
C493 H508 0.961 . S
C493 H509 0.960 . S
H494 C478 0.931 . S
H495 C483 0.929 . S
H496 C484 0.960 . S
H497 C484 0.962 . S
H498 C484 0.960 . S
H499 C485 0.961 . S
H500 C485 0.961 . S
H501 C485 0.961 . S
H502 C486 0.931 . S
H503 C491 0.930 . S
H504 C492 0.956 . S
H505 C492 0.961 . S
H506 C492 0.961 . S
H507 C493 0.958 . S
H508 C493 0.961 . S
H509 C493 0.960 . S
C510 C511 1.391 . S
C510 C512 1.394 . S
C510 H526 0.931 . S
C511 C510 1.391 . S
C511 C515 1.376 1_455 S
C512 C510 1.394 . S
C512 C513 1.369 . S
C512 C516 1.531 . S
C513 C512 1.369 . S
C513 C514 1.410 1_455 S
C513 C521 1.503 . S
C514 C513 1.410 1_655 S
C514 C515 1.392 . S
C514 C517 1.511 . S
C515 C511 1.376 1_655 S
C515 C514 1.392 . S
C515 H527 0.929 . S
C516 C512 1.531 . S
C516 H528 0.960 . S
C516 H529 0.962 . S
C516 H530 0.960 . S
C517 C514 1.511 . S
C517 H531 0.961 . S
C517 H532 0.961 . S
C517 H533 0.961 . S
C518 C519 1.370 . S
C518 C520 1.363 . S
C518 H534 0.931 . S
C519 C518 1.370 . S
C519 C523 1.408 . S
C520 C518 1.363 . S
C520 C521 1.370 1_556 S
C520 C524 1.524 1_556 S
C521 C513 1.503 . S
C521 C520 1.370 1_554 S
C521 C522 1.403 1_554 S
C522 C521 1.403 1_556 S
C522 C523 1.404 . S
C522 C525 1.552 . S
C523 C519 1.408 . S
C523 C522 1.404 . S
C523 H535 0.930 . S
C524 C520 1.524 1_554 S
C524 H536 0.956 . S
C524 H537 0.961 . S
C524 H538 0.961 1_554 S
C525 C522 1.552 . S
C525 H539 0.952 1_556 S
C525 H540 0.975 1_455 S
C525 H541 0.941 1_456 S
H526 C510 0.931 . S
H527 C515 0.929 . S
H528 C516 0.960 . S
H529 C516 0.962 . S
H530 C516 0.960 . S
H531 C517 0.961 . S
H532 C517 0.961 . S
H533 C517 0.961 . S
H534 C518 0.931 . S
H535 C523 0.930 . S
H536 C524 0.956 . S
H537 C524 0.961 . S
H538 C524 0.961 1_556 S
H539 C525 0.952 1_554 S
H540 C525 0.975 1_655 S
H541 C525 0.941 1_654 S
C542 C543 1.391 . S
C542 C544 1.394 . S
C542 H558 0.931 . S
C543 C542 1.391 . S
C543 C547 1.376 1_545 S
C544 C542 1.394 . S
C544 C545 1.369 . S
C544 C548 1.531 . S
C545 C544 1.369 . S
C545 C546 1.410 1_545 S
C545 C553 1.503 . S
C546 C545 1.410 1_565 S
C546 C547 1.392 . S
C546 C549 1.511 . S
C547 C543 1.376 1_565 S
C547 C546 1.392 . S
C547 H559 0.929 . S
C548 C544 1.531 . S
C548 H560 0.960 . S
C548 H561 0.962 . S
C548 H562 0.960 . S
C549 C546 1.511 . S
C549 H563 0.961 . S
C549 H564 0.961 . S
C549 H565 0.961 . S
C550 C551 1.370 . S
C550 C552 1.363 . S
C550 H566 0.931 . S
C551 C550 1.370 . S
C551 C555 1.408 . S
C552 C550 1.363 . S
C552 C553 1.370 . S
C552 C556 1.524 . S
C553 C545 1.503 . S
C553 C552 1.370 . S
C553 C554 1.403 . S
C554 C553 1.403 . S
C554 C555 1.404 . S
C554 C557 1.539 . S
C555 C551 1.408 . S
C555 C554 1.404 . S
C555 H567 0.930 . S
C556 C552 1.524 . S
C556 H568 0.956 . S
C556 H569 0.963 1_545 S
C556 H570 0.961 . S
C557 C554 1.539 . S
C557 H571 0.958 . S
C557 H572 0.961 . S
C557 H573 0.960 . S
H558 C542 0.931 . S
H559 C547 0.929 . S
H560 C548 0.960 . S
H561 C548 0.962 . S
H562 C548 0.960 . S
H563 C549 0.961 . S
H564 C549 0.961 . S
H565 C549 0.961 . S
H566 C550 0.931 . S
H567 C555 0.930 . S
H568 C556 0.956 . S
H569 C556 0.963 1_565 S
H570 C556 0.961 . S
H571 C557 0.958 . S
H572 C557 0.961 . S
H573 C557 0.960 . S
C574 C575 1.391 . S
C574 C576 1.394 . S
C574 H590 0.931 . S
C575 C574 1.391 . S
C575 C579 1.376 . S
C576 C574 1.394 . S
C576 C577 1.369 . S
C576 C580 1.531 . S
C577 C576 1.369 . S
C577 C578 1.410 . S
C577 C585 1.503 . S
C578 C577 1.410 . S
C578 C579 1.392 . S
C578 C581 1.511 . S
C579 C575 1.376 . S
C579 C578 1.392 . S
C579 H591 0.929 . S
C580 C576 1.531 . S
C580 H592 0.960 . S
C580 H593 0.962 . S
C580 H594 0.960 . S
C581 C578 1.511 . S
C581 H595 0.961 . S
C581 H596 0.961 . S
C581 H597 0.961 . S
C582 C583 1.370 . S
C582 C584 1.363 . S
C582 H598 0.931 . S
C583 C582 1.370 . S
C583 C587 1.408 . S
C584 C582 1.363 . S
C584 C585 1.370 . S
C584 C588 1.524 . S
C585 C577 1.503 . S
C585 C584 1.370 . S
C585 C586 1.403 . S
C586 C585 1.403 . S
C586 C587 1.404 . S
C586 C589 1.539 . S
C587 C583 1.408 . S
C587 C586 1.404 . S
C587 H599 0.930 . S
C588 C584 1.524 . S
C588 H600 0.956 . S
C588 H601 0.961 . S
C588 H602 0.961 . S
C589 C586 1.539 . S
C589 H603 0.958 . S
C589 H604 0.961 . S
C589 H605 0.960 . S
H590 C574 0.931 . S
H591 C579 0.929 . S
H592 C580 0.960 . S
H593 C580 0.962 . S
H594 C580 0.960 . S
H595 C581 0.961 . S
H596 C581 0.961 . S
H597 C581 0.961 . S
H598 C582 0.931 . S
H599 C587 0.930 . S
H600 C588 0.956 . S
H601 C588 0.961 . S
H602 C588 0.961 . S
H603 C589 0.958 . S
H604 C589 0.961 . S
H605 C589 0.960 . S
C606 C607 1.391 . S
C606 C608 1.394 . S
C606 H622 0.931 . S
C607 C606 1.391 . S
C607 C611 1.376 . S
C608 C606 1.394 . S
C608 C609 1.369 . S
C608 C612 1.531 . S
C609 C608 1.369 . S
C609 C610 1.410 . S
C609 C617 1.503 . S
C610 C609 1.410 . S
C610 C611 1.392 . S
C610 C613 1.511 . S
C611 C607 1.376 . S
C611 C610 1.392 . S
C611 H623 0.929 . S
C612 C608 1.531 . S
C612 H624 0.960 . S
C612 H625 0.962 . S
C612 H626 0.960 . S
C613 C610 1.511 . S
C613 H627 0.961 1_545 S
C613 H628 0.953 1_545 S
C613 H629 0.961 . S
C614 C615 1.370 . S
C614 C616 1.363 . S
C614 H630 0.931 1_545 S
C615 C614 1.370 . S
C615 C619 1.408 . S
C616 C614 1.363 . S
C616 C617 1.370 . S
C616 C620 1.524 1_545 S
C617 C609 1.503 . S
C617 C616 1.370 . S
C617 C618 1.403 . S
C618 C617 1.403 . S
C618 C619 1.404 . S
C618 C621 1.539 . S
C619 C615 1.408 . S
C619 C618 1.404 . S
C619 H631 0.930 . S
C620 C616 1.524 1_565 S
C620 H632 0.956 . S
C620 H633 0.961 . S
C620 H634 0.961 . S
C621 C618 1.539 . S
C621 H635 0.958 . S
C621 H636 0.961 . S
C621 H637 0.960 . S
H622 C606 0.931 . S
H623 C611 0.929 . S
H624 C612 0.960 . S
H625 C612 0.962 . S
H626 C612 0.960 . S
H627 C613 0.961 1_565 S
H628 C613 0.953 1_565 S
H629 C613 0.961 . S
H630 C614 0.931 1_565 S
H631 C619 0.930 . S
H632 C620 0.956 . S
H633 C620 0.961 . S
H634 C620 0.961 . S
H635 C621 0.958 . S
H636 C621 0.961 . S
H637 C621 0.960 . S
C638 C639 1.391 . S
C638 C640 1.394 . S
C638 H654 0.931 . S
C639 C638 1.391 . S
C639 C643 1.376 . S
C640 C638 1.394 . S
C640 C641 1.369 . S
C640 C644 1.531 . S
C641 C640 1.369 . S
C641 C642 1.410 . S
C641 C649 1.503 . S
C642 C641 1.410 . S
C642 C643 1.392 . S
C642 C645 1.511 . S
C643 C639 1.376 . S
C643 C642 1.392 . S
C643 H655 0.929 . S
C644 C640 1.531 . S
C644 H656 0.960 . S
C644 H657 0.962 . S
C644 H658 0.960 . S
C645 C642 1.511 . S
C645 H659 0.961 . S
C645 H660 0.961 . S
C645 H661 0.961 . S
C646 C647 1.370 . S
C646 C648 1.363 . S
C646 H662 0.931 . S
C647 C646 1.370 . S
C647 C651 1.408 . S
C648 C646 1.363 . S
C648 C649 1.370 1_554 S
C648 C652 1.524 1_554 S
C649 C641 1.503 . S
C649 C648 1.370 1_556 S
C649 C650 1.403 1_556 S
C650 C649 1.403 1_554 S
C650 C651 1.404 . S
C650 C653 1.539 1_554 S
C651 C647 1.408 . S
C651 C650 1.404 . S
C651 H663 0.930 . S
C652 C648 1.524 1_556 S
C652 H664 0.956 . S
C652 H665 0.961 . S
C652 H666 0.961 1_556 S
C653 C650 1.539 1_556 S
C653 H667 0.958 . S
C653 H668 0.961 1_556 S
C653 H669 0.960 . S
H654 C638 0.931 . S
H655 C643 0.929 . S
H656 C644 0.960 . S
H657 C644 0.962 . S
H658 C644 0.960 . S
H659 C645 0.961 . S
H660 C645 0.961 . S
H661 C645 0.961 . S
H662 C646 0.931 . S
H663 C651 0.930 . S
H664 C652 0.956 . S
H665 C652 0.961 . S
H666 C652 0.961 1_554 S
H667 C653 0.958 . S
H668 C653 0.961 1_554 S
H669 C653 0.960 . S
C670 C671 1.391 1_655 S
C670 C672 1.394 . S
C670 H686 0.931 . S
C671 C670 1.391 1_455 S
C671 C675 1.376 . S
C672 C670 1.394 . S
C672 C673 1.369 1_655 S
C672 C676 1.531 . S
C673 C672 1.369 1_455 S
C673 C674 1.410 . S
C673 C681 1.503 . S
C674 C673 1.410 . S
C674 C675 1.392 . S
C674 C677 1.511 . S
C675 C671 1.376 . S
C675 C674 1.392 . S
C675 H687 0.929 . S
C676 C672 1.531 . S
C676 H688 0.960 . S
C676 H689 0.962 . S
C676 H690 0.960 . S
C677 C674 1.511 . S
C677 H691 0.961 . S
C677 H692 0.961 . S
C677 H693 0.961 . S
C678 C679 1.370 . S
C678 C680 1.363 . S
C678 H694 0.931 . S
C679 C678 1.370 . S
C679 C683 1.408 . S
C680 C678 1.363 . S
C680 C681 1.370 . S
C680 C684 1.524 . S
C681 C673 1.503 . S
C681 C680 1.370 . S
C681 C682 1.403 . S
C682 C681 1.403 . S
C682 C683 1.404 . S
C682 C685 1.539 . S
C683 C679 1.408 . S
C683 C682 1.404 . S
C683 H695 0.930 . S
C684 C680 1.524 . S
C684 H696 0.956 1_455 S
C684 H697 0.961 . S
C684 H698 0.961 . S
C685 C682 1.539 . S
C685 H699 0.958 . S
C685 H700 0.961 . S
C685 H701 0.960 . S
H686 C670 0.931 . S
H687 C675 0.929 . S
H688 C676 0.960 . S
H689 C676 0.962 . S
H690 C676 0.960 . S
H691 C677 0.961 . S
H692 C677 0.961 . S
H693 C677 0.961 . S
H694 C678 0.931 . S
H695 C683 0.930 . S
H696 C684 0.956 1_655 S
H697 C684 0.961 . S
H698 C684 0.961 . S
H699 C685 0.958 . S
H700 C685 0.961 . S
H701 C685 0.960 . S
C127 C2 1.417 . S
C135 C125 1.500 . S
C159 C22 1.428 . S
C167 C103 1.516 . S
C191 C44 1.480 . S
C199 C114 1.525 . S
C223 C4 1.426 . S
C231 C119 1.502 . S
C263 C97 1.503 . S
C255 C24 1.408 . S
C295 C108 1.485 . S
C287 C42 1.358 . S
C319 C32 1.420 . S
C327 C81 1.406 . S
C351 C49 1.130 . S
C359 C86 1.184 . S
C383 C9 1.158 . S
C391 C64 1.180 . S
C423 C75 1.199 . S
C415 C29 1.155 . S
C455 C92 1.335 . S
C447 C52 1.339 . S
C479 C12 1.284 . S
C487 C70 1.337 . S
C519 C87 1.493 . S
C511 C18 1.494 . S
C543 C38 1.474 . S
C551 C65 1.472 . S
C575 C58 1.445 . S
C583 C76 1.498 . S
C615 C109 1.510 . S
C607 C39 1.492 . S
C647 C120 1.523 . S
C639 C59 1.496 . S
C671 C19 1.485 . S
C679 C98 1.535 . S
