# Generated by pormake.
# Topology nom, (4,4)-cn, num edge types: 1
# Building blocks:
#     Node 0, Type 0, BuildingBlock: AZAVOO_clean_linker_0, # of connection points: 4
#     Node 1, Type 0, BuildingBlock: AZAVOO_clean_linker_0, # of connection points: 4
#     Node 2, Type 0, BuildingBlock: AZAVOO_clean_linker_0, # of connection points: 4
#     Node 3, Type 0, BuildingBlock: AZAVOO_clean_linker_0, # of connection points: 4
#     Node 4, Type 0, BuildingBlock: AZAVOO_clean_linker_0, # of connection points: 4
#     Node 5, Type 0, BuildingBlock: AZAVOO_clean_linker_0, # of connection points: 4
#     Node 6, Type 1, BuildingBlock: NAHDIM_clean_sbu_0, # of connection points: 4
#     Node 7, Type 1, BuildingBlock: NAHDIM_clean_sbu_0, # of connection points: 4
#     Node 8, Type 1, BuildingBlock: NAHDIM_clean_sbu_0, # of connection points: 4
#     Node 9, Type 1, BuildingBlock: NAHDIM_clean_sbu_0, # of connection points: 4
#     Node 10, Type 1, BuildingBlock: NAHDIM_clean_sbu_0, # of connection points: 4
#     Node 11, Type 1, BuildingBlock: NAHDIM_clean_sbu_0, # of connection points: 4
#     Edge 12, Type (0, 1), None
#     Edge 13, Type (0, 1), None
#     Edge 14, Type (0, 1), None
#     Edge 15, Type (0, 1), None
#     Edge 16, Type (0, 1), None
#     Edge 17, Type (0, 1), None
#     Edge 18, Type (0, 1), None
#     Edge 19, Type (0, 1), None
#     Edge 20, Type (0, 1), None
#     Edge 21, Type (0, 1), None
#     Edge 22, Type (0, 1), None
#     Edge 23, Type (0, 1), None
#     Edge 24, Type (0, 1), None
#     Edge 25, Type (0, 1), None
#     Edge 26, Type (0, 1), None
#     Edge 27, Type (0, 1), None
#     Edge 28, Type (0, 1), None
#     Edge 29, Type (0, 1), None
#     Edge 30, Type (0, 1), None
#     Edge 31, Type (0, 1), None
#     Edge 32, Type (0, 1), None
#     Edge 33, Type (0, 1), None
#     Edge 34, Type (0, 1), None
#     Edge 35, Type (0, 1), None
# Relax obj value: 0.200
# Max RMSD: 0.236
# Mean RMSD: 0.171
data_MOF--net-nom--node1-NAHDIM_clean_sbu_0--node2-AZAVOO_clean_linker_0--edge1-none
_symmetry_space_group_name_H-M    P1
_symmetry_Int_Tables_number       1
_symmetry_cell_setting            triclinic
loop_
_symmetry_equiv_pos_as_xyz
'x, y, z'
_cell_length_a     25.432897
_cell_length_b     27.569351
_cell_length_c     31.250639
_cell_angle_alpha  90.33532
_cell_angle_beta   90.157943
_cell_angle_gamma 122.90169
loop_
_atom_site_label
_atom_site_type_symbol
_atom_site_fract_x
_atom_site_fract_y
_atom_site_fract_z
_atom_type_partial_charge
H0 H 0.17082 0.48318 0.01673 0.0
H1 H 0.44435 0.80389 0.43992 0.0
H2 H 0.98922 0.42364 0.25623 0.0
H3 H 0.91595 0.35556 0.20189 0.0
H4 H 0.9247 0.49673 0.13575 0.0
H5 H 0.99439 0.56395 0.19172 0.0
H6 H 0.12683 0.48217 0.20048 0.0
H7 H 0.14172 0.46568 0.12562 0.0
H8 H 0.12375 0.60671 0.08777 0.0
H9 H 0.10927 0.62283 0.16277 0.0
H10 H 0.26132 0.58147 0.25518 0.0
H11 H 0.36936 0.64966 0.23238 0.0
H12 H 0.31599 0.76362 0.18397 0.0
H13 H 0.20889 0.69652 0.20861 0.0
H14 H 0.22616 0.56337 0.33854 0.0
H15 H 0.31796 0.61344 0.38572 0.0
H16 H 0.32539 0.77254 0.36833 0.0
H17 H 0.23396 0.72196 0.32066 0.0
H18 H 0.10265 0.50705 0.37682 0.0
H19 H 0.14862 0.53198 0.44872 0.0
H20 H 0.1611 0.69435 0.44242 0.0
H21 H 0.11766 0.6702 0.3698 0.0
H22 H 0.94269 0.44823 0.31667 0.0
H23 H 0.84511 0.43326 0.34483 0.0
H24 H 0.9302 0.61797 0.35034 0.0
H25 H 0.0262 0.63245 0.32 0.0
O26 O 0.16208 0.48872 0.04584 0.0
O27 O 0.14057 0.55382 0.02696 0.0
O28 O 0.40618 0.70167 0.42559 0.0
O29 O 0.4081 0.78307 0.42132 0.0
C30 C 0.05319 0.54015 0.25301 0.0
C31 C 0.11194 0.56548 0.23259 0.0
C32 C 0.16731 0.60107 0.25607 0.0
C33 C 0.16489 0.60719 0.30053 0.0
C34 C 0.10647 0.58275 0.32096 0.0
C35 C 0.05039 0.55222 0.29682 0.0
C36 C -0.00358 0.4986 0.2282 0.0
C37 C 0.97287 0.43939 0.23116 0.0
C38 C 0.93199 0.40078 0.19984 0.0
C39 C 0.9163 0.42143 0.16437 0.0
C40 C 0.93732 0.48017 0.16252 0.0
C41 C 0.97624 0.51835 0.19468 0.0
C42 C 0.11651 0.55333 0.18688 0.0
C43 C 0.12561 0.50908 0.17588 0.0
C44 C 0.13431 0.49992 0.13316 0.0
C45 C 0.13407 0.53497 0.10073 0.0
C46 C 0.12407 0.57886 0.11193 0.0
C47 C 0.11566 0.5881 0.15469 0.0
C48 C 0.22798 0.63474 0.23405 0.0
C49 C 0.27289 0.62069 0.239 0.0
C50 C 0.33423 0.65949 0.22597 0.0
C51 C 0.35068 0.71195 0.20698 0.0
C52 C 0.30428 0.72339 0.19853 0.0
C53 C 0.24328 0.68519 0.21248 0.0
C54 C 0.22369 0.63915 0.32619 0.0
C55 C 0.24826 0.60922 0.34454 0.0
C56 C 0.30051 0.63787 0.37158 0.0
C57 C 0.32901 0.69704 0.38085 0.0
C58 C 0.30472 0.72706 0.36179 0.0
C59 C 0.25264 0.69837 0.33449 0.0
C60 C 0.10627 0.58656 0.36821 0.0
C61 C 0.11245 0.54675 0.39176 0.0
C62 C 0.13985 0.56152 0.43243 0.0
C63 C 0.1596 0.61559 0.45054 0.0
C64 C 0.1465 0.65249 0.42902 0.0
C65 C 0.12058 0.63832 0.38783 0.0
C66 C 0.99149 0.5414 0.31575 0.0
C67 C 0.94008 0.48539 0.32341 0.0
C68 C 0.88459 0.477 0.33989 0.0
C69 C 0.88017 0.52456 0.34988 0.0
C70 C 0.93235 0.58056 0.34334 0.0
C71 C 0.98719 0.58883 0.326 0.0
C72 C 0.14548 0.52642 0.05557 0.0
C73 C 0.38342 0.72719 0.41056 0.0
H74 H 0.62764 0.08528 0.1926 0.0
H75 H 0.65669 0.35822 0.64237 0.0
H76 H 0.62559 0.98577 0.42153 0.0
H77 H 0.6151 0.92194 0.36248 0.0
H78 H 0.42057 0.86503 0.34801 0.0
H79 H 0.43145 0.92796 0.40728 0.0
H80 H 0.66218 0.0968 0.37871 0.0
H81 H 0.66746 0.10063 0.30038 0.0
H82 H 0.47237 0.04465 0.29454 0.0
H83 H 0.46777 0.04065 0.37278 0.0
H84 H 0.6977 0.20181 0.44905 0.0
H85 H 0.73561 0.29872 0.42278 0.0
H86 H 0.54621 0.24484 0.38946 0.0
H87 H 0.50854 0.14756 0.41622 0.0
H88 H 0.68695 0.1616 0.54048 0.0
H89 H 0.72911 0.24402 0.58971 0.0
H90 H 0.56321 0.24818 0.57016 0.0
H91 H 0.52189 0.16597 0.5205 0.0
H92 H 0.62526 0.03666 0.57128 0.0
H93 H 0.64905 0.0698 0.64589 0.0
H94 H 0.49619 0.09575 0.64529 0.0
H95 H 0.47175 0.06114 0.57125 0.0
H96 H 0.57539 0.93253 0.50303 0.0
H97 H 0.51609 0.83082 0.52339 0.0
H98 H 0.35119 0.83663 0.54182 0.0
H99 H 0.41134 0.93879 0.5214 0.0
O100 O 0.6251 0.08469 0.22352 0.0
O101 O 0.52807 0.06534 0.2226 0.0
O102 O 0.7272 0.32435 0.62929 0.0
O103 O 0.63999 0.32428 0.62431 0.0
C104 C 0.53955 0.00878 0.44722 0.0
C105 C 0.56041 0.06281 0.42844 0.0
C106 C 0.57743 0.11106 0.45446 0.0
C107 C 0.57488 0.10559 0.49936 0.0
C108 C 0.54948 0.05059 0.51824 0.0
C109 C 0.53055 0.00172 0.49201 0.0
C110 C 0.52899 0.96078 0.419 0.0
C111 C 0.58021 0.95787 0.40646 0.0
C112 C 0.57433 0.92188 0.37249 0.0
C113 C 0.5171 0.88846 0.35044 0.0
C114 C 0.46526 0.8898 0.36445 0.0
C115 C 0.4711 0.92544 0.39853 0.0
C116 C 0.56469 0.06864 0.38122 0.0
C117 C 0.62085 0.08582 0.36038 0.0
C118 C 0.62362 0.08773 0.31569 0.0
C119 C 0.57029 0.07285 0.29119 0.0
C120 C 0.5143 0.05645 0.31241 0.0
C121 C 0.51155 0.05425 0.35705 0.0
C122 C 0.60045 0.16801 0.43486 0.0
C123 C 0.66451 0.21082 0.43575 0.0
C124 C 0.68595 0.26605 0.42073 0.0
C125 C 0.64371 0.27944 0.40445 0.0
C126 C 0.57976 0.23571 0.40179 0.0
C127 C 0.55823 0.18033 0.41711 0.0
C128 C 0.60147 0.15796 0.52699 0.0
C129 C 0.66003 0.18069 0.54665 0.0
C130 C 0.68387 0.2276 0.57485 0.0
C131 C 0.6494 0.25255 0.58401 0.0
C132 C 0.59089 0.22992 0.56387 0.0
C133 C 0.56731 0.18322 0.53535 0.0
C134 C 0.54704 0.04686 0.56571 0.0
C135 C 0.59481 0.04646 0.58799 0.0
C136 C 0.60876 0.06603 0.63052 0.0
C137 C 0.57547 0.08678 0.65098 0.0
C138 C 0.52327 0.08091 0.63008 0.0
C139 C 0.50872 0.06043 0.58794 0.0
C140 C 0.49762 0.94292 0.5105 0.0
C141 C 0.52678 0.91209 0.51214 0.0
C142 C 0.49267 0.85392 0.52375 0.0
C143 C 0.42859 0.82536 0.53381 0.0
C144 C 0.40034 0.85725 0.53424 0.0
C145 C 0.43464 0.91559 0.52263 0.0
C146 C 0.573 0.07407 0.24372 0.0
C147 C 0.67465 0.30239 0.61402 0.0
H148 H 0.5203 0.54817 0.91067 0.0
H149 H 0.7113 0.33206 0.49707 0.0
H150 H 0.59347 0.64945 0.66946 0.0
H151 H 0.57091 0.69917 0.72452 0.0
H152 H 0.38427 0.54755 0.73722 0.0
H153 H 0.40709 0.49804 0.68209 0.0
H154 H 0.61257 0.58875 0.73492 0.0
H155 H 0.59191 0.58661 0.81155 0.0
H156 H 0.42995 0.41247 0.79725 0.0
H157 H 0.44996 0.41595 0.72033 0.0
H158 H 0.66505 0.51048 0.70987 0.0
H159 H 0.69042 0.44733 0.74692 0.0
H160 H 0.52295 0.29779 0.69354 0.0
H161 H 0.49839 0.36113 0.65699 0.0
H162 H 0.70353 0.53763 0.60485 0.0
H163 H 0.76375 0.50386 0.56926 0.0
H164 H 0.59127 0.34376 0.53584 0.0
H165 H 0.5318 0.37754 0.57252 0.0
H166 H 0.65348 0.6055 0.54796 0.0
H167 H 0.70241 0.60593 0.4803 0.0
H168 H 0.54772 0.43136 0.45452 0.0
H169 H 0.49818 0.43215 0.52124 0.0
H170 H 0.54474 0.64207 0.59097 0.0
H171 H 0.46674 0.66083 0.56439 0.0
H172 H 0.34146 0.47954 0.53415 0.0
H173 H 0.41921 0.46102 0.56139 0.0
O174 O 0.52881 0.54741 0.88059 0.0
O175 O 0.45522 0.45384 0.87367 0.0
O176 O 0.77556 0.43113 0.5264 0.0
O177 O 0.68844 0.34709 0.51004 0.0
C178 C 0.52255 0.53625 0.64976 0.0
C179 C 0.54166 0.50604 0.67502 0.0
C180 C 0.56693 0.47731 0.65524 0.0
C181 C 0.57755 0.4824 0.61084 0.0
C182 C 0.55647 0.51096 0.58539 0.0
C183 C 0.52571 0.53525 0.60464 0.0
C184 C 0.50168 0.57045 0.6717 0.0
C185 C 0.54678 0.62801 0.68272 0.0
C186 C 0.53414 0.65609 0.71433 0.0
C187 C 0.47591 0.62714 0.73469 0.0
C188 C 0.42909 0.57107 0.72123 0.0
C189 C 0.44192 0.54281 0.68979 0.0
C190 C 0.53257 0.50263 0.72212 0.0
C191 C 0.57269 0.55019 0.74842 0.0
C192 C 0.56073 0.54887 0.79214 0.0
C193 C 0.50922 0.4994 0.81049 0.0
C194 C 0.47008 0.4512 0.78414 0.0
C195 C 0.48154 0.45295 0.74028 0.0
C196 C 0.58038 0.44012 0.68049 0.0
C197 C 0.63373 0.46405 0.70672 0.0
C198 C 0.64795 0.42795 0.72786 0.0
C199 C 0.60893 0.3676 0.72285 0.0
C200 C 0.55413 0.34406 0.6979 0.0
C201 C 0.54008 0.38008 0.67688 0.0
C202 C 0.61347 0.46002 0.59117 0.0
C203 C 0.67897 0.49507 0.59016 0.0
C204 C 0.71316 0.4758 0.56961 0.0
C205 C 0.68228 0.42112 0.54961 0.0
C206 C 0.6165 0.38603 0.55094 0.0
C207 C 0.58243 0.40511 0.57194 0.0
C208 C 0.57227 0.5188 0.5394 0.0
C209 C 0.62874 0.56848 0.52663 0.0
C210 C 0.6571 0.56833 0.48838 0.0
C211 C 0.6297 0.51808 0.46296 0.0
C212 C 0.57049 0.47026 0.47405 0.0
C213 C 0.54156 0.47096 0.51171 0.0
C214 C 0.48746 0.55008 0.57863 0.0
C215 C 0.501 0.60662 0.57786 0.0
C216 C 0.45622 0.61715 0.56288 0.0
C217 C 0.39736 0.57136 0.54818 0.0
C218 C 0.38613 0.51561 0.54556 0.0
C219 C 0.43072 0.50506 0.56087 0.0
C220 C 0.49618 0.4985 0.85683 0.0
C221 C 0.71842 0.40038 0.52792 0.0
H222 H 0.06181 0.34506 0.06937 0.0
H223 H 0.41457 0.64786 0.63669 0.0
H224 H 0.9795 0.44819 0.85033 0.0
H225 H 0.91628 0.42415 0.91457 0.0
H226 H 0.87053 0.24882 0.90688 0.0
H227 H 0.9356 0.27377 0.84245 0.0
H228 H 0.06835 0.44961 0.90583 0.0
H229 H 0.06441 0.41872 0.97944 0.0
H230 H 0.08039 0.27895 0.93361 0.0
H231 H 0.08223 0.30936 0.85978 0.0
H232 H 0.18088 0.50738 0.87527 0.0
H233 H 0.28962 0.56085 0.89822 0.0
H234 H 0.32571 0.45928 0.81162 0.0
H235 H 0.21518 0.40385 0.79023 0.0
H236 H 0.20005 0.56446 0.78909 0.0
H237 H 0.29353 0.6411 0.75309 0.0
H238 H 0.286 0.51457 0.66642 0.0
H239 H 0.19255 0.43798 0.70317 0.0
H240 H 0.09515 0.53991 0.73041 0.0
H241 H 0.14905 0.59473 0.6662 0.0
H242 H 0.11253 0.43796 0.60559 0.0
H243 H 0.06138 0.38426 0.6705 0.0
H244 H 0.93273 0.43319 0.7777 0.0
H245 H 0.82184 0.37656 0.75716 0.0
H246 H 0.849 0.25299 0.69242 0.0
H247 H 0.95916 0.30834 0.71503 0.0
O248 O 0.06319 0.3563 0.03991 0.0
O249 O 0.07415 0.28658 0.01494 0.0
O250 O 0.37605 0.68122 0.69464 0.0
O251 O 0.37745 0.61793 0.6511 0.0
C252 C 0.01643 0.38393 0.8133 0.0
C253 C 0.0735 0.39819 0.83255 0.0
C254 C 0.12968 0.43086 0.80985 0.0
C255 C 0.12931 0.45087 0.76849 0.0
C256 C 0.07186 0.43383 0.7481 0.0
C257 C 0.015 0.39884 0.77018 0.0
C258 C 0.96147 0.36255 0.8414 0.0
C259 C 0.95361 0.40389 0.86128 0.0
C260 C 0.91862 0.39044 0.8985 0.0
C261 C 0.88994 0.33506 0.91607 0.0
C262 C 0.89272 0.29197 0.89398 0.0
C263 C 0.929 0.30585 0.85697 0.0
C264 C 0.07477 0.38126 0.87746 0.0
C265 C 0.07056 0.41209 0.91171 0.0
C266 C 0.06869 0.39454 0.95378 0.0
C267 C 0.07212 0.34636 0.96246 0.0
C268 C 0.07756 0.3162 0.92803 0.0
C269 C 0.07879 0.33352 0.88588 0.0
C270 C 0.19028 0.45174 0.83122 0.0
C271 C 0.21135 0.49453 0.86295 0.0
C272 C 0.27377 0.52548 0.87565 0.0
C273 C 0.31633 0.51501 0.85597 0.0
C274 C 0.29394 0.46837 0.8272 0.0
C275 C 0.23099 0.43679 0.81489 0.0
C276 C 0.1895 0.49578 0.74862 0.0
C277 C 0.21913 0.55328 0.76266 0.0
C278 C 0.27221 0.59702 0.74183 0.0
C279 C 0.2968 0.58402 0.70657 0.0
C280 C 0.26795 0.52606 0.69329 0.0
C281 C 0.21477 0.48224 0.71427 0.0
C282 C 0.07443 0.45802 0.70525 0.0
C283 C 0.09605 0.51691 0.70248 0.0
C284 C 0.12795 0.54843 0.66606 0.0
C285 C 0.13666 0.52102 0.63133 0.0
C286 C 0.10734 0.46057 0.63204 0.0
C287 C 0.07687 0.42938 0.66888 0.0
C288 C 0.95374 0.37441 0.74842 0.0
C289 C 0.91495 0.39432 0.75866 0.0
C290 C 0.85167 0.36188 0.74698 0.0
C291 C 0.82671 0.30988 0.72384 0.0
C292 C 0.86696 0.29276 0.71038 0.0
C293 C 0.92993 0.32452 0.72301 0.0
C294 C 0.06994 0.32778 0.00726 0.0
C295 C 0.35234 0.63077 0.68378 0.0
H296 H 0.36205 0.98382 0.71717 0.0
H297 H 0.3985 0.65471 0.09493 0.0
H298 H 0.46234 0.09744 0.92538 0.0
H299 H 0.51142 0.16515 0.86602 0.0
H300 H 0.68765 0.18395 0.89516 0.0
H301 H 0.63756 0.11316 0.95188 0.0
H302 H 0.36557 0.95812 0.90274 0.0
H303 H 0.34522 0.96132 0.82653 0.0
H304 H 0.54107 0.03445 0.79987 0.0
H305 H 0.56057 0.03024 0.87596 0.0
H306 H 0.34496 0.8331 0.94859 0.0
H307 H 0.33281 0.74913 0.91066 0.0
H308 H 0.52619 0.85412 0.87082 0.0
H309 H 0.5382 0.93583 0.90964 0.0
H310 H 0.3622 0.87225 0.05393 0.0
H311 H 0.32476 0.7791 0.08785 0.0
H312 H 0.47972 0.77761 0.03284 0.0
H313 H 0.51665 0.87071 0.99926 0.0
H314 H 0.45124 0.98969 0.10526 0.0
H315 H 0.46918 0.96033 0.17493 0.0
H316 H 0.61081 0.93951 0.11841 0.0
H317 H 0.5923 0.96851 0.04931 0.0
H318 H 0.51016 0.12594 0.03753 0.0
H319 H 0.59276 0.22202 0.06372 0.0
H320 H 0.72531 0.17002 0.05929 0.0
H321 H 0.64323 0.07511 0.03285 0.0
O322 O 0.37107 0.98284 0.74715 0.0
O323 O 0.47164 0.01795 0.73499 0.0
O324 O 0.32657 0.68846 0.10184 0.0
O325 O 0.41196 0.69126 0.08161 0.0
C326 C 0.51252 0.04394 0.96605 0.0
C327 C 0.47629 0.99263 0.94153 0.0
C328 C 0.45556 0.93873 0.96005 0.0
C329 C 0.46471 0.93496 0.0041 0.0
C330 C 0.50077 0.98589 0.02877 0.0
C331 C 0.52537 0.04039 0.0097 0.0
C332 C 0.54612 0.10002 0.94307 0.0
C333 C 0.51206 0.1178 0.91999 0.0
C334 C 0.53994 0.15597 0.88586 0.0
C335 C 0.6029 0.17872 0.87567 0.0
C336 C 0.63896 0.16683 0.90232 0.0
C337 C 0.61054 0.12703 0.93536 0.0
C338 C 0.46465 0.99477 0.89501 0.0
C339 C 0.40398 0.97484 0.88038 0.0
C340 C 0.39253 0.97678 0.83684 0.0
C341 C 0.44157 -0.00162 0.80712 0.0
C342 C 0.50227 0.01773 0.82189 0.0
C343 C 0.51359 0.01563 0.86539 0.0
C344 C 0.44232 0.89035 0.93162 0.0
C345 C 0.38397 0.83788 0.93079 0.0
C346 C 0.37718 0.79026 0.90905 0.0
C347 C 0.42881 0.79511 0.88817 0.0
C348 C 0.48569 0.84892 0.8868 0.0
C349 C 0.49251 0.89584 0.90869 0.0
C350 C 0.44166 0.87783 0.0238 0.0
C351 C 0.38775 0.85153 0.0491 0.0
C352 C 0.36652 0.79839 0.06842 0.0
C353 C 0.39913 0.7708 0.06289 0.0
C354 C 0.45345 0.7976 0.0377 0.0
C355 C 0.4745 0.85063 0.01832 0.0
C356 C 0.52047 0.98116 0.0724 0.0
C357 C 0.48746 0.98056 0.1084 0.0
C358 C 0.49784 0.96379 0.1481 0.0
C359 C 0.54111 0.94719 0.15203 0.0
C360 C 0.57699 0.95177 0.11639 0.0
C361 C 0.5667 0.96857 0.07695 0.0
C362 C 0.57075 0.09362 0.03353 0.0
C363 C 0.55663 0.13494 0.04355 0.0
C364 C 0.60372 0.18956 0.05864 0.0
C365 C 0.66542 0.20339 0.06322 0.0
C366 C 0.67816 0.16047 0.056 0.0
C367 C 0.63119 0.10605 0.04124 0.0
C368 C 0.42927 0.00043 0.76091 0.0
C369 C 0.37682 0.71438 0.08333 0.0
H370 H 0.61704 0.47053 0.81382 0.0
H371 H 0.84295 0.43972 0.24489 0.0
H372 H 0.50906 0.55846 0.05517 0.0
H373 H 0.46044 0.58983 0.0045 0.0
H374 H 0.64344 0.72636 0.96207 0.0
H375 H 0.69211 0.69748 0.01571 0.0
H376 H 0.55818 0.4806 0.99323 0.0
H377 H 0.56325 0.46308 0.91696 0.0
H378 H 0.74207 0.62555 0.90922 0.0
H379 H 0.73806 0.64083 0.98608 0.0
H380 H 0.59714 0.42557 0.03861 0.0
H381 H 0.63203 0.36361 0.01214 0.0
H382 H 0.82374 0.50991 0.01638 0.0
H383 H 0.78841 0.5714 0.04226 0.0
H384 H 0.6148 0.42563 0.12818 0.0
H385 H 0.65512 0.37689 0.1691 0.0
H386 H 0.83112 0.54031 0.18715 0.0
H387 H 0.79051 0.58827 0.14561 0.0
H388 H 0.56338 0.48525 0.1786 0.0
H389 H 0.57657 0.45739 0.24998 0.0
H390 H 0.75496 0.61996 0.26243 0.0
H391 H 0.74173 0.64663 0.19076 0.0
H392 H 0.51946 0.57934 0.12984 0.0
H393 H 0.49238 0.64481 0.16049 0.0
H394 H 0.68861 0.77636 0.1771 0.0
H395 H 0.71565 0.71152 0.14359 0.0
O396 O 0.61519 0.47908 0.84366 0.0
O397 O 0.69926 0.56844 0.8389 0.0
O398 O 0.74001 0.37332 0.21068 0.0
O399 O 0.82634 0.45765 0.22781 0.0
C400 C 0.63199 0.60049 0.06455 0.0
C401 C 0.64997 0.56696 0.0424 0.0
C402 C 0.67121 0.53715 0.06536 0.0
C403 C 0.67472 0.54037 0.11023 0.0
C404 C 0.6552 0.57253 0.13257 0.0
C405 C 0.63551 0.6041 0.10989 0.0
C406 C 0.60401 0.62655 0.03982 0.0
C407 C 0.53868 0.59697 0.03659 0.0
C408 C 0.51104 0.61453 0.00731 0.0
C409 C 0.5484 0.66034 0.9795 0.0
C410 C 0.61386 0.6909 0.98331 0.0
C411 C 0.64155 0.67465 0.01389 0.0
C412 C 0.64731 0.56236 0.99498 0.0
C413 C 0.59789 0.51278 0.97483 0.0
C414 C 0.60113 0.50271 0.93134 0.0
C415 C 0.65303 0.54296 0.90696 0.0
C416 C 0.70132 0.59378 0.92701 0.0
C417 C 0.69883 0.60297 0.97078 0.0
C418 C 0.69057 0.50253 0.04251 0.0
C419 C 0.64642 0.44438 0.03242 0.0
C420 C 0.66626 0.40929 0.0171 0.0
C421 C 0.73043 0.43217 0.01252 0.0
C422 C 0.77396 0.49142 0.01981 0.0
C423 C 0.75407 0.52646 0.03466 0.0
C424 C 0.69973 0.51042 0.13404 0.0
C425 C 0.6622 0.45067 0.14072 0.0
C426 C 0.6853 0.42302 0.16418 0.0
C427 C 0.74628 0.4548 0.18158 0.0
C428 C 0.78389 0.51463 0.17441 0.0
C429 C 0.76086 0.54212 0.15068 0.0
C430 C 0.65154 0.56802 0.17968 0.0
C431 C 0.60389 0.5159 0.19764 0.0
C432 C 0.61199 0.49964 0.2381 0.0
C433 C 0.66755 0.53577 0.26127 0.0
C434 C 0.71193 0.59081 0.24511 0.0
C435 C 0.70406 0.60672 0.20444 0.0
C436 C 0.61941 0.64122 0.13335 0.0
C437 C 0.55665 0.62236 0.13969 0.0
C438 C 0.54134 0.65959 0.15755 0.0
C439 C 0.58855 0.71559 0.17091 0.0
C440 C 0.65151 0.73329 0.16717 0.0
C441 C 0.66685 0.69646 0.14799 0.0
C442 C 0.65735 0.53121 0.86111 0.0
C443 C 0.77051 0.42593 0.20743 0.0
C444 C 0.6667 0.33984 0.39351 0.0
O445 O 0.71922 0.38174 0.41087 0.0
O446 O 0.76948 0.46909 0.3544 0.0
Zn447 Zn 0.6776 0.43923 0.3627 0.0
O448 O 0.65216 0.46471 0.41511 0.0
C449 C 0.68195 0.51481 0.30015 0.0
O450 O 0.73335 0.54987 0.32192 0.0
O451 O 0.63585 0.35275 0.36917 0.0
C452 C 0.6634 0.51396 0.42622 0.0
O453 O 0.70325 0.56016 0.40452 0.0
C454 C 0.82033 0.51552 0.36475 0.0
O455 O 0.81903 0.55632 0.38565 0.0
O456 O 0.64828 0.46197 0.31098 0.0
C457 C 0.39125 0.76191 0.54028 0.0
O458 O 0.41555 0.732 0.5297 0.0
O459 O 0.3478 0.62318 0.55679 0.0
Zn460 Zn 0.28476 0.64653 0.55262 0.0
O461 O 0.23399 0.61779 0.49834 0.0
C462 C 0.18033 0.55509 0.5963 0.0
O463 O 0.18065 0.52863 0.5613 0.0
O464 O 0.33442 0.735 0.5526 0.0
C465 C 0.19796 0.63521 0.4899 0.0
O466 O 0.19798 0.67335 0.51532 0.0
C467 C 0.34663 0.58108 0.5389 0.0
O468 O 0.29836 0.54448 0.51496 0.0
O469 O 0.22213 0.60873 0.60111 0.0
C470 C 0.62739 0.32932 0.74033 0.0
O471 O 0.67739 0.35011 0.76476 0.0
O472 O 0.72145 0.27307 0.74335 0.0
Zn473 Zn 0.62674 0.22447 0.7431 0.0
O474 O 0.59026 0.16169 0.6974 0.0
C475 C 0.62874 0.20861 0.83481 0.0
O476 O 0.68904 0.24705 0.83117 0.0
O477 O 0.59818 0.27682 0.72827 0.0
C478 C 0.59976 0.12144 0.69091 0.0
O479 O 0.63789 0.11664 0.71634 0.0
C480 C 0.75844 0.27179 0.71678 0.0
O481 O 0.73575 0.23419 0.68508 0.0
O482 O 0.59384 0.19203 0.80167 0.0
C483 C 0.42699 0.74366 0.87305 0.0
O484 O 0.37408 0.69288 0.87236 0.0
O485 O 0.40034 0.60907 0.87228 0.0
Zn486 Zn 0.48453 0.67898 0.86164 0.0
O487 O 0.54168 0.68227 0.90714 0.0
C488 C 0.46705 0.65137 0.7738 0.0
O489 O 0.41124 0.64012 0.78329 0.0
O490 O 0.47848 0.74729 0.86739 0.0
C491 C 0.51852 0.67215 0.94447 0.0
O492 O 0.46272 0.66321 0.94992 0.0
C493 C 0.38367 0.55902 0.85928 0.0
O494 O 0.42439 0.5518 0.8395 0.0
O495 O 0.50956 0.67207 0.80249 0.0
C496 C 0.75324 0.39377 0.00846 0.0
O497 O 0.71943 0.34288 0.98976 0.0
O498 O 0.77015 0.27883 0.05197 0.0
Zn499 Zn 0.83785 0.36044 0.04007 0.0
O500 O 0.89456 0.40047 0.09046 0.0
C501 C 0.86028 0.32411 0.9583 0.0
O502 O 0.81047 0.27327 0.96722 0.0
O503 O 0.80152 0.40677 0.03 0.0
C504 C 0.87972 0.38263 0.12864 0.0
O505 O 0.82921 0.33167 0.13609 0.0
C506 C 0.71777 0.26383 0.06829 0.0
O507 O 0.70797 0.30353 0.08163 0.0
O508 O 0.88164 0.36517 0.98556 0.0
C509 C 0.57065 0.75582 0.18484 0.0
O510 O 0.52565 0.75548 0.1639 0.0
O511 O 0.45638 0.76103 0.22831 0.0
Zn512 Zn 0.54665 0.82588 0.23297 0.0
O513 O 0.56349 0.88506 0.1884 0.0
C514 C 0.51155 0.85543 0.31121 0.0
O515 O 0.45673 0.82408 0.29224 0.0
O516 O 0.59416 0.78781 0.21807 0.0
C517 C 0.54295 0.91802 0.19097 0.0
O518 O 0.51282 0.91674 0.22545 0.0
C519 C 0.41679 0.75743 0.20149 0.0
O520 O 0.43371 0.79838 0.17329 0.0
O521 O 0.55961 0.86157 0.29285 0.0
loop_
_geom_bond_atom_site_label_1
_geom_bond_atom_site_label_2
_geom_bond_distance
_geom_bond_site_symmetry_2
_ccdc_geom_bond_type
H0 O26 0.856 . S
H1 O29 0.854 . S
H2 C37 0.930 1_455 S
H3 C38 0.930 . S
H4 C40 0.930 . S
H5 C41 0.930 . S
H6 C43 0.931 . S
H7 C44 0.930 . S
H8 C46 0.930 . S
H9 C47 0.929 . S
H10 C49 0.930 . S
H11 C50 0.931 . S
H12 C52 0.930 . S
H13 C53 0.929 . S
H14 C55 0.931 . S
H15 C56 0.930 . S
H16 C58 0.930 . S
H17 C59 0.932 . S
H18 C61 0.930 . S
H19 C62 0.929 . S
H20 C64 0.931 . S
H21 C65 0.930 . S
H22 C67 0.929 . S
H23 C68 0.931 . S
H24 C70 0.930 . S
H25 C71 0.929 . S
O26 H0 0.856 . S
O26 C72 1.300 . S
O27 C72 1.209 . S
O28 C73 1.199 . S
O29 H1 0.854 . S
O29 C73 1.297 . S
C30 C31 1.404 . S
C30 C35 1.397 . S
C30 C36 1.492 . S
C31 C30 1.404 . S
C31 C32 1.396 . S
C31 C42 1.492 . S
C32 C31 1.396 . S
C32 C33 1.397 . S
C32 C48 1.509 . S
C33 C32 1.397 . S
C33 C34 1.412 . S
C33 C54 1.485 . S
C34 C33 1.412 . S
C34 C35 1.388 . S
C34 C60 1.490 . S
C35 C30 1.397 . S
C35 C34 1.388 . S
C35 C66 1.519 1_455 S
C36 C30 1.492 . S
C36 C37 1.363 1_455 S
C36 C41 1.390 1_455 S
C37 H2 0.930 1_655 S
C37 C36 1.363 1_655 S
C37 C38 1.372 . S
C38 H3 0.930 . S
C38 C37 1.372 . S
C38 C39 1.383 . S
C39 C38 1.383 . S
C39 C40 1.395 . S
C40 H4 0.930 . S
C40 C39 1.395 . S
C40 C41 1.362 . S
C41 H5 0.930 . S
C41 C36 1.390 1_655 S
C41 C40 1.362 . S
C42 C31 1.492 . S
C42 C43 1.377 . S
C42 C47 1.397 . S
C43 H6 0.931 . S
C43 C42 1.377 . S
C43 C44 1.376 . S
C44 H7 0.930 . S
C44 C43 1.376 . S
C44 C45 1.376 . S
C45 C44 1.376 . S
C45 C46 1.378 . S
C45 C72 1.486 . S
C46 H8 0.930 . S
C46 C45 1.378 . S
C46 C47 1.376 . S
C47 H9 0.929 . S
C47 C42 1.397 . S
C47 C46 1.376 . S
C48 C32 1.509 . S
C48 C49 1.391 . S
C48 C53 1.386 . S
C49 H10 0.930 . S
C49 C48 1.391 . S
C49 C50 1.375 . S
C50 H11 0.931 . S
C50 C49 1.375 . S
C50 C51 1.375 . S
C51 C50 1.375 . S
C51 C52 1.361 . S
C52 H12 0.930 . S
C52 C51 1.361 . S
C52 C53 1.399 . S
C53 H13 0.929 . S
C53 C48 1.386 . S
C53 C52 1.399 . S
C54 C33 1.485 . S
C54 C55 1.394 . S
C54 C59 1.360 . S
C55 H14 0.931 . S
C55 C54 1.394 . S
C55 C56 1.372 . S
C56 H15 0.930 . S
C56 C55 1.372 . S
C56 C57 1.397 . S
C57 C56 1.397 . S
C57 C58 1.390 . S
C57 C73 1.476 . S
C58 H16 0.930 . S
C58 C57 1.390 . S
C58 C59 1.366 . S
C59 H17 0.932 . S
C59 C54 1.360 . S
C59 C58 1.366 . S
C60 C34 1.490 . S
C60 C61 1.380 . S
C60 C65 1.386 . S
C61 H18 0.930 . S
C61 C60 1.380 . S
C61 C62 1.381 . S
C62 H19 0.929 . S
C62 C61 1.381 . S
C62 C63 1.371 . S
C63 C62 1.371 . S
C63 C64 1.380 . S
C64 H20 0.931 . S
C64 C63 1.380 . S
C64 C65 1.387 . S
C65 H21 0.930 . S
C65 C60 1.386 . S
C65 C64 1.387 . S
C66 C35 1.519 1_655 S
C66 C67 1.377 . S
C66 C71 1.361 . S
C67 H22 0.929 . S
C67 C66 1.377 . S
C67 C68 1.386 . S
C68 H23 0.931 . S
C68 C67 1.386 . S
C68 C69 1.363 . S
C69 C68 1.363 . S
C69 C70 1.385 . S
C70 H24 0.930 . S
C70 C69 1.385 . S
C70 C71 1.396 . S
C71 H25 0.929 . S
C71 C66 1.361 . S
C71 C70 1.396 . S
C72 O26 1.300 . S
C72 O27 1.209 . S
C72 C45 1.486 . S
C73 O28 1.199 . S
C73 O29 1.297 . S
C73 C57 1.476 . S
H74 O100 0.856 . S
H75 O103 0.854 . S
H76 C111 0.930 1_545 S
H77 C112 0.930 . S
H78 C114 0.930 . S
H79 C115 0.930 . S
H80 C117 0.931 . S
H81 C118 0.930 . S
H82 C120 0.930 . S
H83 C121 0.929 . S
H84 C123 0.930 . S
H85 C124 0.931 . S
H86 C126 0.930 . S
H87 C127 0.929 . S
H88 C129 0.931 . S
H89 C130 0.930 . S
H90 C132 0.930 . S
H91 C133 0.932 . S
H92 C135 0.930 . S
H93 C136 0.929 . S
H94 C138 0.931 . S
H95 C139 0.930 . S
H96 C141 0.929 . S
H97 C142 0.931 . S
H98 C144 0.930 . S
H99 C145 0.929 . S
O100 H74 0.856 . S
O100 C146 1.300 . S
O101 C146 1.209 . S
O102 C147 1.199 . S
O103 H75 0.854 . S
O103 C147 1.297 . S
C104 C105 1.404 . S
C104 C109 1.397 . S
C104 C110 1.492 1_545 S
C105 C104 1.404 . S
C105 C106 1.396 . S
C105 C116 1.492 . S
C106 C105 1.396 . S
C106 C107 1.397 . S
C106 C122 1.509 . S
C107 C106 1.397 . S
C107 C108 1.412 . S
C107 C128 1.485 . S
C108 C107 1.412 . S
C108 C109 1.388 . S
C108 C134 1.490 . S
C109 C104 1.397 . S
C109 C108 1.388 . S
C109 C140 1.519 1_545 S
C110 C104 1.492 1_565 S
C110 C111 1.363 . S
C110 C115 1.390 . S
C111 H76 0.930 1_565 S
C111 C110 1.363 . S
C111 C112 1.372 . S
C112 H77 0.930 . S
C112 C111 1.372 . S
C112 C113 1.383 . S
C113 C112 1.383 . S
C113 C114 1.395 . S
C114 H78 0.930 . S
C114 C113 1.395 . S
C114 C115 1.362 . S
C115 H79 0.930 . S
C115 C110 1.390 . S
C115 C114 1.362 . S
C116 C105 1.492 . S
C116 C117 1.377 . S
C116 C121 1.397 . S
C117 H80 0.931 . S
C117 C116 1.377 . S
C117 C118 1.376 . S
C118 H81 0.930 . S
C118 C117 1.376 . S
C118 C119 1.376 . S
C119 C118 1.376 . S
C119 C120 1.378 . S
C119 C146 1.486 . S
C120 H82 0.930 . S
C120 C119 1.378 . S
C120 C121 1.376 . S
C121 H83 0.929 . S
C121 C116 1.397 . S
C121 C120 1.376 . S
C122 C106 1.509 . S
C122 C123 1.391 . S
C122 C127 1.386 . S
C123 H84 0.930 . S
C123 C122 1.391 . S
C123 C124 1.375 . S
C124 H85 0.931 . S
C124 C123 1.375 . S
C124 C125 1.375 . S
C125 C124 1.375 . S
C125 C126 1.361 . S
C126 H86 0.930 . S
C126 C125 1.361 . S
C126 C127 1.399 . S
C127 H87 0.929 . S
C127 C122 1.386 . S
C127 C126 1.399 . S
C128 C107 1.485 . S
C128 C129 1.394 . S
C128 C133 1.360 . S
C129 H88 0.931 . S
C129 C128 1.394 . S
C129 C130 1.372 . S
C130 H89 0.930 . S
C130 C129 1.372 . S
C130 C131 1.397 . S
C131 C130 1.397 . S
C131 C132 1.390 . S
C131 C147 1.476 . S
C132 H90 0.930 . S
C132 C131 1.390 . S
C132 C133 1.366 . S
C133 H91 0.932 . S
C133 C128 1.360 . S
C133 C132 1.366 . S
C134 C108 1.490 . S
C134 C135 1.380 . S
C134 C139 1.386 . S
C135 H92 0.930 . S
C135 C134 1.380 . S
C135 C136 1.381 . S
C136 H93 0.929 . S
C136 C135 1.381 . S
C136 C137 1.371 . S
C137 C136 1.371 . S
C137 C138 1.380 . S
C138 H94 0.931 . S
C138 C137 1.380 . S
C138 C139 1.387 . S
C139 H95 0.930 . S
C139 C134 1.386 . S
C139 C138 1.387 . S
C140 C109 1.519 1_565 S
C140 C141 1.377 . S
C140 C145 1.361 . S
C141 H96 0.929 . S
C141 C140 1.377 . S
C141 C142 1.386 . S
C142 H97 0.931 . S
C142 C141 1.386 . S
C142 C143 1.363 . S
C143 C142 1.363 . S
C143 C144 1.385 . S
C144 H98 0.930 . S
C144 C143 1.385 . S
C144 C145 1.396 . S
C145 H99 0.929 . S
C145 C140 1.361 . S
C145 C144 1.396 . S
C146 O100 1.300 . S
C146 O101 1.209 . S
C146 C119 1.486 . S
C147 O102 1.199 . S
C147 O103 1.297 . S
C147 C131 1.476 . S
H148 O174 0.856 . S
H149 O177 0.854 . S
H150 C185 0.930 . S
H151 C186 0.930 . S
H152 C188 0.930 . S
H153 C189 0.930 . S
H154 C191 0.931 . S
H155 C192 0.930 . S
H156 C194 0.930 . S
H157 C195 0.929 . S
H158 C197 0.930 . S
H159 C198 0.931 . S
H160 C200 0.930 . S
H161 C201 0.929 . S
H162 C203 0.931 . S
H163 C204 0.930 . S
H164 C206 0.930 . S
H165 C207 0.932 . S
H166 C209 0.930 . S
H167 C210 0.929 . S
H168 C212 0.931 . S
H169 C213 0.930 . S
H170 C215 0.929 . S
H171 C216 0.931 . S
H172 C218 0.930 . S
H173 C219 0.929 . S
O174 H148 0.856 . S
O174 C220 1.300 . S
O175 C220 1.209 . S
O176 C221 1.199 . S
O177 H149 0.854 . S
O177 C221 1.297 . S
C178 C179 1.404 . S
C178 C183 1.397 . S
C178 C184 1.492 . S
C179 C178 1.404 . S
C179 C180 1.396 . S
C179 C190 1.492 . S
C180 C179 1.396 . S
C180 C181 1.397 . S
C180 C196 1.509 . S
C181 C180 1.397 . S
C181 C182 1.412 . S
C181 C202 1.485 . S
C182 C181 1.412 . S
C182 C183 1.388 . S
C182 C208 1.490 . S
C183 C178 1.397 . S
C183 C182 1.388 . S
C183 C214 1.519 . S
C184 C178 1.492 . S
C184 C185 1.363 . S
C184 C189 1.390 . S
C185 H150 0.930 . S
C185 C184 1.363 . S
C185 C186 1.372 . S
C186 H151 0.930 . S
C186 C185 1.372 . S
C186 C187 1.383 . S
C187 C186 1.383 . S
C187 C188 1.395 . S
C188 H152 0.930 . S
C188 C187 1.395 . S
C188 C189 1.362 . S
C189 H153 0.930 . S
C189 C184 1.390 . S
C189 C188 1.362 . S
C190 C179 1.492 . S
C190 C191 1.377 . S
C190 C195 1.397 . S
C191 H154 0.931 . S
C191 C190 1.377 . S
C191 C192 1.376 . S
C192 H155 0.930 . S
C192 C191 1.376 . S
C192 C193 1.376 . S
C193 C192 1.376 . S
C193 C194 1.378 . S
C193 C220 1.486 . S
C194 H156 0.930 . S
C194 C193 1.378 . S
C194 C195 1.376 . S
C195 H157 0.929 . S
C195 C190 1.397 . S
C195 C194 1.376 . S
C196 C180 1.509 . S
C196 C197 1.391 . S
C196 C201 1.386 . S
C197 H158 0.930 . S
C197 C196 1.391 . S
C197 C198 1.375 . S
C198 H159 0.931 . S
C198 C197 1.375 . S
C198 C199 1.375 . S
C199 C198 1.375 . S
C199 C200 1.361 . S
C200 H160 0.930 . S
C200 C199 1.361 . S
C200 C201 1.399 . S
C201 H161 0.929 . S
C201 C196 1.386 . S
C201 C200 1.399 . S
C202 C181 1.485 . S
C202 C203 1.394 . S
C202 C207 1.360 . S
C203 H162 0.931 . S
C203 C202 1.394 . S
C203 C204 1.372 . S
C204 H163 0.930 . S
C204 C203 1.372 . S
C204 C205 1.397 . S
C205 C204 1.397 . S
C205 C206 1.390 . S
C205 C221 1.476 . S
C206 H164 0.930 . S
C206 C205 1.390 . S
C206 C207 1.366 . S
C207 H165 0.932 . S
C207 C202 1.360 . S
C207 C206 1.366 . S
C208 C182 1.490 . S
C208 C209 1.380 . S
C208 C213 1.386 . S
C209 H166 0.930 . S
C209 C208 1.380 . S
C209 C210 1.381 . S
C210 H167 0.929 . S
C210 C209 1.381 . S
C210 C211 1.371 . S
C211 C210 1.371 . S
C211 C212 1.380 . S
C212 H168 0.931 . S
C212 C211 1.380 . S
C212 C213 1.387 . S
C213 H169 0.930 . S
C213 C208 1.386 . S
C213 C212 1.387 . S
C214 C183 1.519 . S
C214 C215 1.377 . S
C214 C219 1.361 . S
C215 H170 0.929 . S
C215 C214 1.377 . S
C215 C216 1.386 . S
C216 H171 0.931 . S
C216 C215 1.386 . S
C216 C217 1.363 . S
C217 C216 1.363 . S
C217 C218 1.385 . S
C218 H172 0.930 . S
C218 C217 1.385 . S
C218 C219 1.396 . S
C219 H173 0.929 . S
C219 C214 1.361 . S
C219 C218 1.396 . S
C220 O174 1.300 . S
C220 O175 1.209 . S
C220 C193 1.486 . S
C221 O176 1.199 . S
C221 O177 1.297 . S
C221 C205 1.476 . S
H222 O248 0.856 . S
H223 O251 0.854 . S
H224 C259 0.930 1_455 S
H225 C260 0.930 . S
H226 C262 0.930 . S
H227 C263 0.930 . S
H228 C265 0.931 . S
H229 C266 0.930 . S
H230 C268 0.930 . S
H231 C269 0.929 . S
H232 C271 0.930 . S
H233 C272 0.931 . S
H234 C274 0.930 . S
H235 C275 0.929 . S
H236 C277 0.931 . S
H237 C278 0.930 . S
H238 C280 0.930 . S
H239 C281 0.932 . S
H240 C283 0.930 . S
H241 C284 0.929 . S
H242 C286 0.931 . S
H243 C287 0.930 . S
H244 C289 0.929 . S
H245 C290 0.931 . S
H246 C292 0.930 . S
H247 C293 0.929 . S
O248 H222 0.856 . S
O248 C294 1.300 . S
O249 C294 1.209 . S
O250 C295 1.199 . S
O251 H223 0.854 . S
O251 C295 1.297 . S
C252 C253 1.404 . S
C252 C257 1.397 . S
C252 C258 1.492 1_455 S
C253 C252 1.404 . S
C253 C254 1.396 . S
C253 C264 1.492 . S
C254 C253 1.396 . S
C254 C255 1.397 . S
C254 C270 1.509 . S
C255 C254 1.397 . S
C255 C256 1.412 . S
C255 C276 1.485 . S
C256 C255 1.412 . S
C256 C257 1.388 . S
C256 C282 1.490 . S
C257 C252 1.397 . S
C257 C256 1.388 . S
C257 C288 1.519 1_455 S
C258 C252 1.492 1_655 S
C258 C259 1.363 . S
C258 C263 1.390 . S
C259 H224 0.930 1_655 S
C259 C258 1.363 . S
C259 C260 1.372 . S
C260 H225 0.930 . S
C260 C259 1.372 . S
C260 C261 1.383 . S
C261 C260 1.383 . S
C261 C262 1.395 . S
C262 H226 0.930 . S
C262 C261 1.395 . S
C262 C263 1.362 . S
C263 H227 0.930 . S
C263 C258 1.390 . S
C263 C262 1.362 . S
C264 C253 1.492 . S
C264 C265 1.377 . S
C264 C269 1.397 . S
C265 H228 0.931 . S
C265 C264 1.377 . S
C265 C266 1.376 . S
C266 H229 0.930 . S
C266 C265 1.376 . S
C266 C267 1.376 . S
C267 C266 1.376 . S
C267 C268 1.378 . S
C267 C294 1.486 1_556 S
C268 H230 0.930 . S
C268 C267 1.378 . S
C268 C269 1.376 . S
C269 H231 0.929 . S
C269 C264 1.397 . S
C269 C268 1.376 . S
C270 C254 1.509 . S
C270 C271 1.391 . S
C270 C275 1.386 . S
C271 H232 0.930 . S
C271 C270 1.391 . S
C271 C272 1.375 . S
C272 H233 0.931 . S
C272 C271 1.375 . S
C272 C273 1.375 . S
C273 C272 1.375 . S
C273 C274 1.361 . S
C274 H234 0.930 . S
C274 C273 1.361 . S
C274 C275 1.399 . S
C275 H235 0.929 . S
C275 C270 1.386 . S
C275 C274 1.399 . S
C276 C255 1.485 . S
C276 C277 1.394 . S
C276 C281 1.360 . S
C277 H236 0.931 . S
C277 C276 1.394 . S
C277 C278 1.372 . S
C278 H237 0.930 . S
C278 C277 1.372 . S
C278 C279 1.397 . S
C279 C278 1.397 . S
C279 C280 1.390 . S
C279 C295 1.476 . S
C280 H238 0.930 . S
C280 C279 1.390 . S
C280 C281 1.366 . S
C281 H239 0.932 . S
C281 C276 1.360 . S
C281 C280 1.366 . S
C282 C256 1.490 . S
C282 C283 1.380 . S
C282 C287 1.386 . S
C283 H240 0.930 . S
C283 C282 1.380 . S
C283 C284 1.381 . S
C284 H241 0.929 . S
C284 C283 1.381 . S
C284 C285 1.371 . S
C285 C284 1.371 . S
C285 C286 1.380 . S
C286 H242 0.931 . S
C286 C285 1.380 . S
C286 C287 1.387 . S
C287 H243 0.930 . S
C287 C282 1.386 . S
C287 C286 1.387 . S
C288 C257 1.519 1_655 S
C288 C289 1.377 . S
C288 C293 1.361 . S
C289 H244 0.929 . S
C289 C288 1.377 . S
C289 C290 1.386 . S
C290 H245 0.931 . S
C290 C289 1.386 . S
C290 C291 1.363 . S
C291 C290 1.363 . S
C291 C292 1.385 . S
C292 H246 0.930 . S
C292 C291 1.385 . S
C292 C293 1.396 . S
C293 H247 0.929 . S
C293 C288 1.361 . S
C293 C292 1.396 . S
C294 O248 1.300 . S
C294 O249 1.209 . S
C294 C267 1.486 1_554 S
C295 O250 1.199 . S
C295 O251 1.297 . S
C295 C279 1.476 . S
H296 O322 0.856 . S
H297 O325 0.854 . S
H298 C333 0.930 . S
H299 C334 0.930 . S
H300 C336 0.930 . S
H301 C337 0.930 . S
H302 C339 0.931 . S
H303 C340 0.930 . S
H304 C342 0.930 1_545 S
H305 C343 0.929 1_545 S
H306 C345 0.930 . S
H307 C346 0.931 . S
H308 C348 0.930 . S
H309 C349 0.929 . S
H310 C351 0.931 . S
H311 C352 0.930 . S
H312 C354 0.930 . S
H313 C355 0.932 . S
H314 C357 0.930 . S
H315 C358 0.929 . S
H316 C360 0.931 . S
H317 C361 0.930 . S
H318 C363 0.920 1_556 S
H319 C364 0.931 . S
H320 C366 0.930 . S
H321 C367 0.929 . S
O322 H296 0.856 . S
O322 C368 1.300 . S
O323 C368 1.209 . S
O324 C369 1.199 . S
O325 H297 0.854 . S
O325 C369 1.297 . S
C326 C327 1.404 1_545 S
C326 C331 1.397 . S
C326 C332 1.492 . S
C327 C326 1.404 1_565 S
C327 C328 1.396 . S
C327 C338 1.492 . S
C328 C327 1.396 . S
C328 C329 1.397 . S
C328 C344 1.509 . S
C329 C328 1.397 . S
C329 C330 1.412 1_556 S
C329 C350 1.485 1_556 S
C330 C329 1.412 1_554 S
C330 C331 1.388 1_564 S
C330 C356 1.490 . S
C331 C326 1.397 . S
C331 C330 1.388 1_546 S
C331 C362 1.519 1_556 S
C332 C326 1.492 . S
C332 C333 1.363 . S
C332 C337 1.390 . S
C333 H298 0.930 . S
C333 C332 1.363 . S
C333 C334 1.372 . S
C334 H299 0.930 . S
C334 C333 1.372 . S
C334 C335 1.383 . S
C335 C334 1.383 . S
C335 C336 1.395 . S
C336 H300 0.930 . S
C336 C335 1.395 . S
C336 C337 1.362 . S
C337 H301 0.930 . S
C337 C332 1.390 . S
C337 C336 1.362 . S
C338 C327 1.492 . S
C338 C339 1.377 . S
C338 C343 1.397 . S
C339 H302 0.931 . S
C339 C338 1.377 . S
C339 C340 1.376 . S
C340 H303 0.930 . S
C340 C339 1.376 . S
C340 C341 1.376 . S
C341 C340 1.376 . S
C341 C342 1.378 . S
C341 C368 1.486 . S
C342 H304 0.930 1_565 S
C342 C341 1.378 . S
C342 C343 1.376 . S
C343 H305 0.929 1_565 S
C343 C338 1.397 . S
C343 C342 1.376 . S
C344 C328 1.509 . S
C344 C345 1.391 . S
C344 C349 1.386 . S
C345 H306 0.930 . S
C345 C344 1.391 . S
C345 C346 1.375 . S
C346 H307 0.931 . S
C346 C345 1.375 . S
C346 C347 1.375 . S
C347 C346 1.375 . S
C347 C348 1.361 . S
C348 H308 0.930 . S
C348 C347 1.361 . S
C348 C349 1.399 . S
C349 H309 0.929 . S
C349 C344 1.386 . S
C349 C348 1.399 . S
C350 C329 1.485 1_554 S
C350 C351 1.394 . S
C350 C355 1.360 . S
C351 H310 0.931 . S
C351 C350 1.394 . S
C351 C352 1.372 . S
C352 H311 0.930 . S
C352 C351 1.372 . S
C352 C353 1.397 . S
C353 C352 1.397 . S
C353 C354 1.390 . S
C353 C369 1.476 . S
C354 H312 0.930 . S
C354 C353 1.390 . S
C354 C355 1.366 . S
C355 H313 0.932 . S
C355 C350 1.360 . S
C355 C354 1.366 . S
C356 C330 1.490 . S
C356 C357 1.380 1_565 S
C356 C361 1.386 . S
C357 H314 0.930 . S
C357 C356 1.380 1_545 S
C357 C358 1.381 . S
C358 H315 0.929 . S
C358 C357 1.381 . S
C358 C359 1.371 . S
C359 C358 1.371 . S
C359 C360 1.380 1_545 S
C360 H316 0.931 . S
C360 C359 1.380 1_565 S
C360 C361 1.387 . S
C361 H317 0.930 . S
C361 C356 1.386 . S
C361 C360 1.387 . S
C362 C331 1.519 1_554 S
C362 C363 1.378 . S
C362 C367 1.361 . S
C363 H318 0.920 1_554 S
C363 C362 1.378 . S
C363 C364 1.395 . S
C364 H319 0.931 . S
C364 C363 1.395 . S
C364 C365 1.363 . S
C365 C364 1.363 . S
C365 C366 1.385 . S
C366 H320 0.930 . S
C366 C365 1.385 . S
C366 C367 1.396 . S
C367 H321 0.929 . S
C367 C362 1.361 . S
C367 C366 1.396 . S
C368 O322 1.300 . S
C368 O323 1.209 . S
C368 C341 1.486 . S
C369 O324 1.199 . S
C369 O325 1.297 . S
C369 C353 1.476 . S
H370 O396 0.856 . S
H371 O399 0.854 . S
H372 C407 0.930 . S
H373 C408 0.926 1_556 S
H374 C410 0.930 . S
H375 C411 0.930 . S
H376 C413 0.931 1_554 S
H377 C414 0.930 . S
H378 C416 0.930 . S
H379 C417 0.928 . S
H380 C419 0.930 . S
H381 C420 0.931 . S
H382 C422 0.930 . S
H383 C423 0.929 . S
H384 C425 0.931 . S
H385 C426 0.930 . S
H386 C428 0.930 . S
H387 C429 0.932 . S
H388 C431 0.930 . S
H389 C432 0.929 . S
H390 C434 0.931 . S
H391 C435 0.930 . S
H392 C437 0.929 . S
H393 C438 0.931 . S
H394 C440 0.930 . S
H395 C441 0.929 . S
O396 H370 0.856 . S
O396 C442 1.300 . S
O397 C442 1.209 . S
O398 C443 1.199 . S
O399 H371 0.854 . S
O399 C443 1.297 . S
C400 C401 1.404 . S
C400 C405 1.397 . S
C400 C406 1.492 . S
C401 C400 1.404 . S
C401 C402 1.396 . S
C401 C412 1.492 . S
C402 C401 1.396 . S
C402 C403 1.397 . S
C402 C418 1.509 . S
C403 C402 1.397 . S
C403 C404 1.412 . S
C403 C424 1.485 . S
C404 C403 1.412 . S
C404 C405 1.388 . S
C404 C430 1.490 . S
C405 C400 1.397 . S
C405 C404 1.388 . S
C405 C436 1.519 . S
C406 C400 1.492 . S
C406 C407 1.363 . S
C406 C411 1.390 . S
C407 H372 0.930 . S
C407 C406 1.363 . S
C407 C408 1.379 . S
C408 H373 0.926 1_554 S
C408 C407 1.379 . S
C408 C409 1.381 1_554 S
C409 C408 1.381 1_556 S
C409 C410 1.395 1_556 S
C410 H374 0.930 . S
C410 C409 1.395 1_554 S
C410 C411 1.362 . S
C411 H375 0.930 . S
C411 C406 1.390 . S
C411 C410 1.362 . S
C412 C401 1.492 . S
C412 C413 1.377 1_554 S
C412 C417 1.397 1_554 S
C413 H376 0.931 1_556 S
C413 C412 1.377 1_556 S
C413 C414 1.376 . S
C414 H377 0.930 . S
C414 C413 1.376 . S
C414 C415 1.376 . S
C415 C414 1.376 . S
C415 C416 1.378 . S
C415 C442 1.486 . S
C416 H378 0.930 . S
C416 C415 1.378 . S
C416 C417 1.376 . S
C417 H379 0.928 . S
C417 C412 1.397 1_556 S
C417 C416 1.376 . S
C418 C402 1.509 . S
C418 C419 1.391 . S
C418 C423 1.386 . S
C419 H380 0.930 . S
C419 C418 1.391 . S
C419 C420 1.375 . S
C420 H381 0.931 . S
C420 C419 1.375 . S
C420 C421 1.375 . S
C421 C420 1.375 . S
C421 C422 1.361 . S
C422 H382 0.930 . S
C422 C421 1.361 . S
C422 C423 1.399 . S
C423 H383 0.929 . S
C423 C418 1.386 . S
C423 C422 1.399 . S
C424 C403 1.485 . S
C424 C425 1.394 . S
C424 C429 1.360 . S
C425 H384 0.931 . S
C425 C424 1.394 . S
C425 C426 1.372 . S
C426 H385 0.930 . S
C426 C425 1.372 . S
C426 C427 1.397 . S
C427 C426 1.397 . S
C427 C428 1.390 . S
C427 C443 1.476 . S
C428 H386 0.930 . S
C428 C427 1.390 . S
C428 C429 1.366 . S
C429 H387 0.932 . S
C429 C424 1.360 . S
C429 C428 1.366 . S
C430 C404 1.490 . S
C430 C431 1.380 . S
C430 C435 1.386 . S
C431 H388 0.930 . S
C431 C430 1.380 . S
C431 C432 1.381 . S
C432 H389 0.929 . S
C432 C431 1.381 . S
C432 C433 1.371 . S
C433 C432 1.371 . S
C433 C434 1.380 . S
C434 H390 0.931 . S
C434 C433 1.380 . S
C434 C435 1.387 . S
C435 H391 0.930 . S
C435 C430 1.386 . S
C435 C434 1.387 . S
C436 C405 1.519 . S
C436 C437 1.377 . S
C436 C441 1.361 . S
C437 H392 0.929 . S
C437 C436 1.377 . S
C437 C438 1.386 . S
C438 H393 0.931 . S
C438 C437 1.386 . S
C438 C439 1.363 . S
C439 C438 1.363 . S
C439 C440 1.385 . S
C440 H394 0.930 . S
C440 C439 1.385 . S
C440 C441 1.396 . S
C441 H395 0.929 . S
C441 C436 1.361 . S
C441 C440 1.396 . S
C442 O396 1.300 . S
C442 O397 1.209 . S
C442 C415 1.486 . S
C443 O398 1.199 . S
C443 O399 1.297 . S
C443 C427 1.476 . S
C444 O445 1.160 . S
C444 O451 1.185 . S
O445 C444 1.160 . S
O446 Zn447 1.899 . S
O446 C454 1.284 . S
Zn447 O446 1.899 . S
Zn447 O448 2.032 . S
Zn447 O451 2.086 . S
Zn447 O456 1.977 . S
O448 Zn447 2.032 . S
O448 C452 1.278 . S
C449 O450 1.203 . S
C449 O456 1.267 . S
O450 C449 1.203 . S
O451 C444 1.185 . S
O451 Zn447 2.086 . S
C452 O448 1.278 . S
C452 O453 1.211 . S
O453 C452 1.211 . S
C454 O446 1.284 . S
C454 O455 1.273 . S
O455 C454 1.273 . S
O456 Zn447 1.977 . S
O456 C449 1.267 . S
C457 O458 1.160 . S
C457 O464 1.185 . S
O458 C457 1.160 . S
O459 Zn460 1.899 . S
O459 C467 1.284 . S
Zn460 O459 1.899 . S
Zn460 O461 2.032 . S
Zn460 O464 2.086 . S
Zn460 O469 1.977 . S
O461 Zn460 2.032 . S
O461 C465 1.278 . S
C462 O463 1.203 . S
C462 O469 1.267 . S
O463 C462 1.203 . S
O464 C457 1.185 . S
O464 Zn460 2.086 . S
C465 O461 1.278 . S
C465 O466 1.211 . S
O466 C465 1.211 . S
C467 O459 1.284 . S
C467 O468 1.273 . S
O468 C467 1.273 . S
O469 Zn460 1.977 . S
O469 C462 1.267 . S
C470 O471 1.160 . S
C470 O477 1.185 . S
O471 C470 1.160 . S
O472 Zn473 1.899 . S
O472 C480 1.284 . S
Zn473 O472 1.899 . S
Zn473 O474 2.032 . S
Zn473 O477 2.086 . S
Zn473 O482 1.977 . S
O474 Zn473 2.032 . S
O474 C478 1.278 . S
C475 O476 1.203 . S
C475 O482 1.267 . S
O476 C475 1.203 . S
O477 C470 1.185 . S
O477 Zn473 2.086 . S
C478 O474 1.278 . S
C478 O479 1.211 . S
O479 C478 1.211 . S
C480 O472 1.284 . S
C480 O481 1.273 . S
O481 C480 1.273 . S
O482 Zn473 1.977 . S
O482 C475 1.267 . S
C483 O484 1.160 . S
C483 O490 1.185 . S
O484 C483 1.160 . S
O485 Zn486 1.899 . S
O485 C493 1.284 . S
Zn486 O485 1.899 . S
Zn486 O487 2.032 . S
Zn486 O490 2.086 . S
Zn486 O495 1.977 . S
O487 Zn486 2.032 . S
O487 C491 1.278 . S
C488 O489 1.203 . S
C488 O495 1.267 . S
O489 C488 1.203 . S
O490 C483 1.185 . S
O490 Zn486 2.086 . S
C491 O487 1.278 . S
C491 O492 1.211 . S
O492 C491 1.211 . S
C493 O485 1.284 . S
C493 O494 1.273 . S
O494 C493 1.273 . S
O495 Zn486 1.977 . S
O495 C488 1.267 . S
C496 O497 1.160 . S
C496 O503 1.185 . S
O497 C496 1.160 . S
O498 Zn499 1.899 . S
O498 C506 1.284 . S
Zn499 O498 1.899 . S
Zn499 O500 2.032 . S
Zn499 O503 2.086 . S
Zn499 O508 1.977 1_554 S
O500 Zn499 2.032 . S
O500 C504 1.278 . S
C501 O502 1.203 . S
C501 O508 1.267 . S
O502 C501 1.203 . S
O503 C496 1.185 . S
O503 Zn499 2.086 . S
C504 O500 1.278 . S
C504 O505 1.211 . S
O505 C504 1.211 . S
C506 O498 1.284 . S
C506 O507 1.273 . S
O507 C506 1.273 . S
O508 Zn499 1.977 1_556 S
O508 C501 1.267 . S
C509 O510 1.160 . S
C509 O516 1.185 . S
O510 C509 1.160 . S
O511 Zn512 1.899 . S
O511 C519 1.284 . S
Zn512 O511 1.899 . S
Zn512 O513 2.032 . S
Zn512 O516 2.086 . S
Zn512 O521 1.977 . S
O513 Zn512 2.032 . S
O513 C517 1.278 . S
C514 O515 1.203 . S
C514 O521 1.267 . S
O515 C514 1.203 . S
O516 C509 1.185 . S
O516 Zn512 2.086 . S
C517 O513 1.278 . S
C517 O518 1.211 . S
O518 C517 1.211 . S
C519 O511 1.284 . S
C519 O520 1.273 . S
O520 C519 1.273 . S
O521 Zn512 1.977 . S
O521 C514 1.267 . S
C519 C51 1.959 . S
C125 C444 1.608 . S
C217 C467 3.565 . S
C291 C480 1.714 . S
C483 C347 1.322 . S
C421 C496 0.993 . S
C143 C457 2.741 . S
C199 C470 1.726 . S
C273 C493 0.440 . S
C506 C365 2.332 . S
C509 C439 2.441 . S
C454 C69 3.498 . S
C63 C465 2.180 . S
C137 C478 2.055 . S
C488 C187 1.864 . S
C261 C501 1.870 . S
C517 C359 2.346 1_565 S
C449 C433 1.727 . S
C514 C113 2.130 . S
C211 C452 1.871 . S
C462 C285 2.555 . S
C335 C475 2.080 . S
C409 C491 2.063 . S
C39 C504 2.335 . S
