# Generated by pormake.
# Topology zzz, (3,6)-cn, num edge types: 1
# Building blocks:
#     Node 0, Type 0, BuildingBlock: MIDCAF_clean_linker_0, # of connection points: 3
#     Node 1, Type 0, BuildingBlock: MIDCAF_clean_linker_0, # of connection points: 3
#     Node 2, Type 0, BuildingBlock: MIDCAF_clean_linker_0, # of connection points: 3
#     Node 3, Type 0, BuildingBlock: MIDCAF_clean_linker_0, # of connection points: 3
#     Node 4, Type 0, BuildingBlock: MIDCAF_clean_linker_0, # of connection points: 3
#     Node 5, Type 0, BuildingBlock: MIDCAF_clean_linker_0, # of connection points: 3
#     Node 6, Type 0, BuildingBlock: MIDCAF_clean_linker_0, # of connection points: 3
#     Node 7, Type 0, BuildingBlock: MIDCAF_clean_linker_0, # of connection points: 3
#     Node 8, Type 1, BuildingBlock: BETDIP_clean_sbu_0, # of connection points: 6
#     Node 9, Type 1, BuildingBlock: BETDIP_clean_sbu_0, # of connection points: 6
#     Node 10, Type 1, BuildingBlock: BETDIP_clean_sbu_0, # of connection points: 6
#     Node 11, Type 1, BuildingBlock: BETDIP_clean_sbu_0, # of connection points: 6
#     Edge 12, Type (0, 1), BuildingBlock: UVAHIK_clean_linker_0, # of connection points: 2
#     Edge 13, Type (0, 1), BuildingBlock: UVAHIK_clean_linker_0, # of connection points: 2
#     Edge 14, Type (0, 1), BuildingBlock: UVAHIK_clean_linker_0, # of connection points: 2
#     Edge 15, Type (0, 1), BuildingBlock: UVAHIK_clean_linker_0, # of connection points: 2
#     Edge 16, Type (0, 1), BuildingBlock: UVAHIK_clean_linker_0, # of connection points: 2
#     Edge 17, Type (0, 1), BuildingBlock: UVAHIK_clean_linker_0, # of connection points: 2
#     Edge 18, Type (0, 1), BuildingBlock: UVAHIK_clean_linker_0, # of connection points: 2
#     Edge 19, Type (0, 1), BuildingBlock: UVAHIK_clean_linker_0, # of connection points: 2
#     Edge 20, Type (0, 1), BuildingBlock: UVAHIK_clean_linker_0, # of connection points: 2
#     Edge 21, Type (0, 1), BuildingBlock: UVAHIK_clean_linker_0, # of connection points: 2
#     Edge 22, Type (0, 1), BuildingBlock: UVAHIK_clean_linker_0, # of connection points: 2
#     Edge 23, Type (0, 1), BuildingBlock: UVAHIK_clean_linker_0, # of connection points: 2
#     Edge 24, Type (0, 1), BuildingBlock: UVAHIK_clean_linker_0, # of connection points: 2
#     Edge 25, Type (0, 1), BuildingBlock: UVAHIK_clean_linker_0, # of connection points: 2
#     Edge 26, Type (0, 1), BuildingBlock: UVAHIK_clean_linker_0, # of connection points: 2
#     Edge 27, Type (0, 1), BuildingBlock: UVAHIK_clean_linker_0, # of connection points: 2
#     Edge 28, Type (0, 1), BuildingBlock: UVAHIK_clean_linker_0, # of connection points: 2
#     Edge 29, Type (0, 1), BuildingBlock: UVAHIK_clean_linker_0, # of connection points: 2
#     Edge 30, Type (0, 1), BuildingBlock: UVAHIK_clean_linker_0, # of connection points: 2
#     Edge 31, Type (0, 1), BuildingBlock: UVAHIK_clean_linker_0, # of connection points: 2
#     Edge 32, Type (0, 1), BuildingBlock: UVAHIK_clean_linker_0, # of connection points: 2
#     Edge 33, Type (0, 1), BuildingBlock: UVAHIK_clean_linker_0, # of connection points: 2
#     Edge 34, Type (0, 1), BuildingBlock: UVAHIK_clean_linker_0, # of connection points: 2
#     Edge 35, Type (0, 1), BuildingBlock: UVAHIK_clean_linker_0, # of connection points: 2
# Relax obj value: 0.411
# Max RMSD: 0.268
# Mean RMSD: 0.241
data_MOF--net-zzz--node1-BETDIP_clean_sbu_0--node2-MIDCAF_clean_linker_0--edge1-UVAHIK_clean_linker_0
_symmetry_space_group_name_H-M    P1
_symmetry_Int_Tables_number       1
_symmetry_cell_setting            triclinic
loop_
_symmetry_equiv_pos_as_xyz
'x, y, z'
_cell_length_a     73.798583
_cell_length_b     73.895924
_cell_length_c     22.90641
_cell_angle_alpha  89.76092
_cell_angle_beta   89.99866
_cell_angle_gamma 89.987259
loop_
_atom_site_label
_atom_site_type_symbol
_atom_site_fract_x
_atom_site_fract_y
_atom_site_fract_z
_atom_type_partial_charge
C0 C 0.78895 0.52076 0.30917 0.0
C1 C 0.78605 0.51765 0.36902 0.0
C2 C 0.76877 0.51174 0.38727 0.0
C3 C 0.75502 0.50828 0.34619 0.0
H4 H 0.69593 0.52573 0.23973 0.0
H5 H 0.66425 0.53136 0.21249 0.0
H6 H 0.66206 0.47863 0.13139 0.0
H7 H 0.69288 0.47292 0.16073 0.0
H8 H 0.72827 0.46237 0.07881 0.0
H9 H 0.74223 0.44914 0.9916 0.0
H10 H 0.79018 0.4813 0.02039 0.0
H11 H 0.77655 0.49427 0.10758 0.0
H12 H 0.77846 0.51901 0.22258 0.0
H13 H 0.80208 0.52505 0.29313 0.0
H14 H 0.76602 0.50936 0.43309 0.0
H15 H 0.74215 0.50295 0.36106 0.0
N16 N 0.72754 0.5044 0.24566 0.0
N17 N 0.7248 0.48862 0.15696 0.0
N18 N 0.75347 0.49506 0.194 0.0
C19 C 0.7169 0.49701 0.20303 0.0
C20 C 0.743 0.48765 0.15198 0.0
C21 C 0.74598 0.50326 0.24116 0.0
C22 C 0.69692 0.49896 0.20193 0.0
C23 C 0.68834 0.51515 0.21811 0.0
C24 C 0.67028 0.51845 0.20162 0.0
C25 C 0.6605 0.5056 0.16876 0.0
C26 C 0.66882 0.48887 0.15707 0.0
C27 C 0.68668 0.48559 0.17361 0.0
C28 C 0.75134 0.47934 0.10002 0.0
C29 C 0.74179 0.46659 0.06644 0.0
C30 C 0.74973 0.45901 0.01673 0.0
C31 C 0.76713 0.4644 0.99924 0.0
C32 C 0.77662 0.47713 0.0327 0.0
C33 C 0.76888 0.48442 0.08283 0.0
C34 C 0.75845 0.51044 0.28622 0.0
C35 C 0.77539 0.51718 0.2685 0.0
C36 C 0.01201 0.78582 0.39637 0.0
C37 C 0.9941 0.7914 0.40686 0.0
C38 C 0.97988 0.78161 0.38065 0.0
C39 C 0.98357 0.76724 0.34241 0.0
H40 H 0.99313 0.69586 0.27832 0.0
H41 H 0.9838 0.66642 0.23852 0.0
H42 H 0.97665 0.6912 0.06888 0.0
H43 H 0.98583 0.7202 0.10857 0.0
H44 H 0.03011 0.73647 0.08042 0.0
H45 H 0.04953 0.75129 0.00857 0.0
H46 H 0.06686 0.7895 0.13936 0.0
H47 H 0.04776 0.77466 0.21125 0.0
H48 H 0.02969 0.76846 0.34826 0.0
H49 H 0.02332 0.79308 0.41519 0.0
H50 H 0.96591 0.78546 0.38821 0.0
H51 H 0.97242 0.7606 0.32043 0.0
N52 N 0.9961 0.73593 0.26444 0.0
N53 N 0.01352 0.73262 0.17896 0.0
N54 N 0.01955 0.75644 0.24247 0.0
C55 C 1.00007 0.72665 0.21453 0.0
C56 C 0.02341 0.74741 0.1927 0.0
C57 C 0.00598 0.75095 0.27844 0.0
C58 C 0.9901 0.71026 0.19651 0.0
C59 C 0.98892 0.69502 0.23311 0.0
C60 C 0.98381 0.67816 0.2101 0.0
C61 C 0.97958 0.67639 0.15035 0.0
C62 C 0.97958 0.69201 0.11512 0.0
C63 C 0.98488 0.70867 0.13783 0.0
C64 C 0.03713 0.75456 0.15145 0.0
C65 C 0.03834 0.74781 0.09422 0.0
C66 C 0.04943 0.7563 0.05294 0.0
C67 C 0.05964 0.77162 0.06815 0.0
C68 C 0.05933 0.77761 0.12631 0.0
C69 C 0.0482 0.76919 0.16746 0.0
C70 C 1.00156 0.76259 0.32907 0.0
C71 C 0.01568 0.7717 0.3578 0.0
C72 C 0.70964 0.97206 0.36862 0.0
C73 C 0.71021 0.98449 0.41486 0.0
C74 C 0.72597 0.99513 0.42155 0.0
C75 C 0.74037 0.99387 0.38139 0.0
H76 H 0.80879 0.97134 0.29424 0.0
H77 H 0.84071 0.97404 0.26554 0.0
H78 H 0.82713 0.02043 0.15837 0.0
H79 H 0.7958 0.01791 0.18859 0.0
H80 H 0.77316 0.98533 0.07582 0.0
H81 H 0.75922 0.9853 0.97934 0.0
H82 H 0.70758 0.97203 0.0576 0.0
H83 H 0.72146 0.97162 0.1533 0.0
H84 H 0.72251 0.96156 0.29262 0.0
H85 H 0.69775 0.9638 0.36114 0.0
H86 H 0.72701 0.00471 0.45701 0.0
H87 H 0.75193 1.00277 0.38609 0.0
N88 N 0.7699 0.98786 0.29018 0.0
N89 N 0.77363 0.98601 0.18817 0.0
N90 N 0.74553 0.97957 0.22956 0.0
C91 C 0.78067 0.98928 0.24175 0.0
C92 C 0.75614 0.98107 0.18159 0.0
C93 C 0.75213 0.98292 0.28383 0.0
C94 C 0.79993 0.99453 0.24404 0.0
C95 C 0.81293 0.98263 0.26704 0.0
C96 C 0.83114 0.984 0.24957 0.0
C97 C 0.83658 0.99726 0.20861 0.0
C98 C 0.82371 0.01014 0.19028 0.0
C99 C 0.80565 0.00876 0.20772 0.0
C100 C 0.74836 0.97875 0.12253 0.0
C101 C 0.75889 0.98209 0.07235 0.0
C102 C 0.75091 0.98212 0.017 0.0
C103 C 0.73229 0.97875 0.0107 0.0
C104 C 0.72203 0.97442 0.0606 0.0
C105 C 0.72997 0.97438 0.11578 0.0
C106 C 0.73919 0.98208 0.33353 0.0
C107 C 0.72387 0.97086 0.32879 0.0
C108 C 0.54856 0.741 0.08535 0.0
C109 C 0.54557 0.7501 0.03215 0.0
C110 C 0.54177 0.76874 0.03328 0.0
C111 C 0.53959 0.77771 0.08647 0.0
H112 H 0.49081 0.81039 0.19035 0.0
H113 H 0.48377 0.84051 0.15356 0.0
H114 H 0.52903 0.86226 0.25032 0.0
H115 H 0.53613 0.83175 0.28637 0.0
H116 H 0.55459 0.75185 0.33692 0.0
H117 H 0.55113 0.72519 0.3987 0.0
H118 H 0.49472 0.73838 0.42516 0.0
H119 H 0.49842 0.76552 0.36396 0.0
H120 H 0.54802 0.74219 0.1783 0.0
H121 H 0.5513 0.72661 0.08651 0.0
H122 H 0.53971 0.77624 0.9931 0.0
H123 H 0.53578 0.79185 0.08574 0.0
N124 N 0.5285 0.79347 0.19602 0.0
N125 N 0.52077 0.79026 0.2954 0.0
N126 N 0.53518 0.76658 0.24502 0.0
C127 C 0.52138 0.80049 0.24559 0.0
C128 C 0.52793 0.7732 0.29502 0.0
C129 C 0.53547 0.77654 0.19531 0.0
C130 C 0.51378 0.81887 0.24197 0.0
C131 C 0.49872 0.82176 0.20581 0.0
C132 C 0.49476 0.83907 0.18456 0.0
C133 C 0.50593 0.85388 0.19842 0.0
C134 C 0.52027 0.85114 0.23817 0.0
C135 C 0.52417 0.83376 0.25968 0.0
C136 C 0.52677 0.76073 0.34561 0.0
C137 C 0.54159 0.74939 0.35755 0.0
C138 C 0.53955 0.734 0.39243 0.0
C139 C 0.52253 0.72936 0.41565 0.0
C140 C 0.50801 0.74155 0.40791 0.0
C141 C 0.51013 0.75715 0.37315 0.0
C142 C 0.5412 0.7682 0.13959 0.0
C143 C 0.54649 0.74995 0.13834 0.0
C144 C 0.21134 0.51472 0.01429 0.0
C145 C 0.21295 0.50775 0.95756 0.0
C146 C 0.22888 0.49827 0.94279 0.0
C147 C 0.24263 0.49545 0.9845 0.0
H148 H 0.30438 0.51874 0.09678 0.0
H149 H 0.33603 0.52211 0.12771 0.0
H150 H 0.33579 0.46696 0.1911 0.0
H151 H 0.30445 0.46374 0.16006 0.0
H152 H 0.2738 0.48947 0.29473 0.0
H153 H 0.25997 0.48961 0.39164 0.0
H154 H 0.2072 0.48287 0.31322 0.0
H155 H 0.22089 0.48269 0.21673 0.0
H156 H 0.22276 0.5168 0.09959 0.0
H157 H 0.19922 0.52186 0.02764 0.0
H158 H 0.23057 0.49278 0.89936 0.0
H159 H 0.25447 0.48762 0.9727 0.0
N160 N 0.27137 0.49561 0.08234 0.0
N161 N 0.27451 0.48746 0.18141 0.0
N162 N 0.24577 0.49304 0.14314 0.0
C163 C 0.28212 0.4909 0.12861 0.0
C164 C 0.25639 0.4885 0.18911 0.0
C165 C 0.253 0.49652 0.08972 0.0
C166 C 0.30207 0.49095 0.12574 0.0
C167 C 0.31145 0.50712 0.11467 0.0
C168 C 0.32947 0.50911 0.13323 0.0
C169 C 0.3384 0.49489 0.16273 0.0
C170 C 0.32947 0.47816 0.16822 0.0
C171 C 0.31149 0.47627 0.15029 0.0
C172 C 0.24841 0.48625 0.24794 0.0
C173 C 0.25929 0.48768 0.29822 0.0
C174 C 0.25139 0.48782 0.35372 0.0
C175 C 0.23254 0.48624 0.35997 0.0
C176 C 0.22181 0.48387 0.30988 0.0
C177 C 0.22964 0.48394 0.25449 0.0
C178 C 0.24047 0.50176 0.04189 0.0
C179 C 0.22483 0.51171 0.05579 0.0
C180 C 0.00545 0.23731 0.9549 0.0
C181 C 0.01961 0.22457 0.95032 0.0
C182 C 0.0365 0.22884 0.97513 0.0
C183 C 0.03869 0.24449 0.00831 0.0
H184 H 0.04182 0.32576 0.07771 0.0
H185 H 0.03916 0.35663 0.11516 0.0
H186 H 0.98645 0.34369 0.18563 0.0
H187 H 0.98926 0.3129 0.14817 0.0
H188 H 0.02424 0.28718 0.27473 0.0
H189 H 0.02661 0.27123 0.36796 0.0
H190 H 0.05114 0.22571 0.2804 0.0
H191 H 0.04896 0.24158 0.1878 0.0
H192 H 0.99623 0.26203 0.99466 0.0
H193 H 0.99226 0.23446 0.9364 0.0
H194 H 0.04784 0.21962 0.97128 0.0
H195 H 0.05151 0.2467 0.03023 0.0
N196 N 0.01975 0.28702 0.0617 0.0
N197 N 0.02606 0.29084 0.16184 0.0
N198 N 0.03108 0.26285 0.11815 0.0
C199 C 0.02041 0.29779 0.11007 0.0
C200 C 0.03147 0.27341 0.16625 0.0
C201 C 0.02523 0.26939 0.06602 0.0
C202 C 0.01559 0.31711 0.10909 0.0
C203 C 0.02928 0.32987 0.09837 0.0
C204 C 0.02786 0.34744 0.12068 0.0
C205 C 0.0127 0.35255 0.15412 0.0
C206 C 0.99824 0.34027 0.15973 0.0
C207 C 0.99975 0.32266 0.13787 0.0
C208 C 0.03607 0.26547 0.22368 0.0
C209 C 0.03058 0.27396 0.27562 0.0
C210 C 0.03191 0.26484 0.32904 0.0
C211 C 0.03892 0.24718 0.33146 0.0
C212 C 0.04583 0.23938 0.28021 0.0
C213 C 0.04437 0.2484 0.22688 0.0
C214 C 0.02418 0.25647 0.0169 0.0
C215 C 0.00773 0.25317 0.98793 0.0
C216 C 0.27216 0.98919 0.96069 0.0
C217 C 0.27805 0.00726 0.95845 0.0
C218 C 0.2687 0.02023 0.99192 0.0
C219 C 0.25452 0.01501 0.02937 0.0
H220 H 0.1855 0.00651 0.09602 0.0
H221 H 0.15676 0.01644 0.14021 0.0
H222 H 0.18008 0.00954 0.31177 0.0
H223 H 0.20837 0.99964 0.26805 0.0
H224 H 0.22903 0.95992 0.27695 0.0
H225 H 0.24676 0.93999 0.33996 0.0
H226 H 0.28157 0.92687 0.19458 0.0
H227 H 0.26383 0.94651 0.13149 0.0
H228 H 0.25484 0.96974 1.0018 0.0
H229 H 0.2791 0.97879 0.9361 0.0
H230 H 0.27279 0.0343 0.99081 0.0
H231 H 0.2483 0.02507 0.05721 0.0
N232 N 0.22381 0.99913 0.10473 0.0
N233 N 0.22212 0.97872 0.18386 0.0
N234 N 0.245 0.97551 0.11447 0.0
C235 C 0.21535 0.99321 0.15437 0.0
C236 C 0.23685 0.96972 0.16406 0.0
C237 C 0.23873 0.99013 0.08463 0.0
C238 C 0.19914 1.00231 0.17862 0.0
C239 C 0.18453 0.00757 0.14306 0.0
C240 C 0.16806 0.01306 0.16837 0.0
C241 C 0.16612 0.01375 0.22955 0.0
C242 C 0.18112 0.00937 0.26461 0.0
C243 C 0.19734 0.00362 0.23951 0.0
C244 C 0.24524 0.95512 0.19939 0.0
C245 C 0.24019 0.95245 0.25802 0.0
C246 C 0.25036 0.94105 0.29423 0.0
C247 C 0.26567 0.93202 0.27243 0.0
C248 C 0.26978 0.93353 0.2127 0.0
C249 C 0.25969 0.94497 0.1766 0.0
C250 C 0.24966 0.9967 0.03459 0.0
C251 C 0.25824 0.98397 0.99847 0.0
C252 C 0.51136 0.28632 0.27888 0.0
C253 C 0.51818 0.27625 0.32616 0.0
C254 C 0.52036 0.25748 0.32029 0.0
C255 C 0.51543 0.2489 0.26834 0.0
H256 H 0.52063 0.19859 0.14532 0.0
H257 H 0.51484 0.16824 0.18269 0.0
H258 H 0.45839 0.17357 0.13583 0.0
H259 H 0.46439 0.20412 0.09786 0.0
H260 H 0.5129 0.25552 0.97053 0.0
H261 H 0.51198 0.2813 0.90259 0.0
H262 H 0.46404 0.30128 0.98904 0.0
H263 H 0.46523 0.27572 0.05709 0.0
H264 H 0.50128 0.28604 0.19161 0.0
H265 H 0.50985 0.30087 0.28186 0.0
H266 H 0.5256 0.24942 0.35611 0.0
H267 H 0.51709 0.23438 0.26527 0.0
N268 N 0.50135 0.23176 0.16432 0.0
N269 N 0.49104 0.23339 0.06711 0.0
N270 N 0.49834 0.2599 0.11877 0.0
C271 C 0.49547 0.22336 0.1153 0.0
C272 C 0.49267 0.25179 0.06899 0.0
C273 C 0.50275 0.24999 0.16658 0.0
C274 C 0.49299 0.20358 0.11828 0.0
C275 C 0.50716 0.19294 0.14063 0.0
C276 C 0.50381 0.17555 0.16217 0.0
C277 C 0.48611 0.16853 0.16284 0.0
C278 C 0.47215 0.17867 0.13632 0.0
C279 C 0.4756 0.19604 0.11387 0.0
C280 C 0.48892 0.2635 0.01815 0.0
C281 C 0.50177 0.26505 0.97326 0.0
C282 C 0.50137 0.27992 0.93499 0.0
C283 C 0.48799 0.29339 0.94066 0.0
C284 C 0.4744 0.29107 0.98308 0.0
C285 C 0.47501 0.2764 0.02187 0.0
C286 C 0.50844 0.259 0.22114 0.0
C287 C 0.50659 0.27782 0.22695 0.0
Tb288 Tb 0.00835 1.00087 0.74135 0.0
Tb289 Tb 0.98209 0.01168 0.65195 0.0
C290 C 0.02537 0.98523 0.82209 0.0
C291 C 0.03598 0.96848 0.82407 0.0
C292 C 0.04312 0.9623 0.87711 0.0
C293 C 0.05278 0.94605 0.87936 0.0
C294 C 0.05527 0.93569 0.82858 0.0
C295 C 0.04833 0.9421 0.77529 0.0
C296 C 0.03888 0.95846 0.77299 0.0
C297 C 0.02332 0.01299 0.64407 0.0
C298 C 0.99176 0.97095 0.65379 0.0
C299 C 0.96631 0.02823 0.57071 0.0
C300 C 0.9661 0.04758 0.55469 0.0
C301 C 0.97478 0.05325 0.50331 0.0
C302 C 0.97777 0.07161 0.49266 0.0
C303 C 0.97197 0.08469 0.53301 0.0
C304 C 0.96212 0.07907 0.58234 0.0
C305 C 0.95925 0.06069 0.5932 0.0
C306 C 0.96742 0.99944 0.7496 0.0
C307 C 0.99838 0.04124 0.73844 0.0
O308 O 0.00796 0.9832 0.81326 0.0
O309 O 0.03224 0.99814 0.78986 0.0
O310 O 0.0096 1.00289 0.64782 0.0
O311 O 0.02965 0.01571 0.69587 0.0
O312 O 1.001 0.97457 0.70205 0.0
O313 O 0.98405 0.98394 0.62289 0.0
O314 O 0.98199 0.02016 0.56452 0.0
O315 O 0.95838 0.02376 0.61977 0.0
O316 O 0.98101 0.00967 0.74541 0.0
O317 O 0.96102 0.99646 0.69782 0.0
O318 O 0.9923 0.03776 0.68526 0.0
O319 O 1.00278 0.02785 0.77406 0.0
H320 H 0.04103 0.96993 0.91685 0.0
H321 H 0.0578 0.94129 0.92113 0.0
H322 H 0.05015 0.93444 0.73551 0.0
H323 H 0.03372 0.96321 0.73144 0.0
H324 H 0.98015 0.04341 0.4729 0.0
H325 H 0.98553 0.07543 0.45445 0.0
H326 H 0.95719 0.08883 0.6137 0.0
H327 H 0.95241 0.05679 0.63314 0.0
Tb328 Tb 0.49899 0.02346 0.7207 0.0
Tb329 Tb 0.48731 0.9971 0.63116 0.0
C330 C 0.51635 0.03834 0.80071 0.0
C331 C 0.53574 0.03576 0.81312 0.0
C332 C 0.54359 0.01865 0.80446 0.0
C333 C 0.56233 0.01669 0.80252 0.0
C334 C 0.57366 0.03178 0.80927 0.0
C335 C 0.56588 0.04876 0.82104 0.0
C336 C 0.54701 0.05075 0.82258 0.0
C337 C 0.48543 0.03814 0.62518 0.0
C338 C 0.52911 0.00601 0.6394 0.0
C339 C 0.4788 0.97951 0.54197 0.0
C340 C 0.46339 0.9679 0.52734 0.0
C341 C 0.44878 0.96616 0.5661 0.0
C342 C 0.43394 0.95536 0.55154 0.0
C343 C 0.43349 0.94614 0.49797 0.0
C344 C 0.44838 0.94766 0.45985 0.0
C345 C 0.46322 0.95847 0.47449 0.0
C346 C 0.48834 0.98397 0.73815 0.0
C347 C 0.45785 0.0146 0.71289 0.0
O348 O 0.50589 0.02422 0.80955 0.0
O349 O 0.51312 0.04622 0.75053 0.0
O350 O 0.49578 0.02459 0.62782 0.0
O351 O 0.48279 0.04434 0.67741 0.0
O352 O 0.52519 0.01766 0.68096 0.0
O353 O 0.51645 0.99622 0.61384 0.0
O354 O 0.47499 0.99672 0.54885 0.0
O355 O 0.48948 0.97322 0.58293 0.0
O356 O 0.49972 0.99462 0.71545 0.0
O357 O 0.47632 0.97967 0.69956 0.0
O358 O 0.46123 0.00828 0.65983 0.0
O359 O 0.47114 0.01919 0.74868 0.0
H360 H 0.53526 0.0069 0.79605 0.0
H361 H 0.56796 0.00339 0.79443 0.0
H362 H 0.57434 0.06061 0.82638 0.0
H363 H 0.54123 0.0641 0.82826 0.0
H364 H 0.44875 0.97335 0.60723 0.0
H365 H 0.42259 0.95469 0.58145 0.0
H366 H 0.44851 0.94057 0.41856 0.0
H367 H 0.47449 0.95959 0.44437 0.0
Tb368 Tb 0.48645 0.51656 0.71585 0.0
Tb369 Tb 0.51136 0.50528 0.62261 0.0
C370 C 0.47311 0.53478 0.79687 0.0
C371 C 0.47786 0.55352 0.8121 0.0
C372 C 0.4961 0.55903 0.81108 0.0
C373 C 0.50058 0.5773 0.81381 0.0
C374 C 0.48695 0.59049 0.81755 0.0
C375 C 0.46875 0.58497 0.8213 0.0
C376 C 0.46423 0.5666 0.81833 0.0
C377 C 0.47014 0.5052 0.6205 0.0
C378 C 0.50344 0.54574 0.62853 0.0
C379 C 0.52629 0.48819 0.54173 0.0
C380 C 0.53493 0.47033 0.54399 0.0
C381 C 0.53487 0.45921 0.49476 0.0
C382 C 0.54087 0.44133 0.49909 0.0
C383 C 0.54702 0.43429 0.55285 0.0
C384 C 0.54759 0.44572 0.60165 0.0
C385 C 0.54153 0.46356 0.59731 0.0
C386 C 0.52783 0.51622 0.71874 0.0
C387 C 0.49476 0.47556 0.71186 0.0
O388 O 0.48581 0.52267 0.80513 0.0
O389 O 0.46524 0.533 0.74607 0.0
O390 O 0.48421 0.51486 0.62268 0.0
O391 O 0.46418 0.50245 0.67307 0.0
O392 O 0.49842 0.54197 0.68269 0.0
O393 O 0.50666 0.53257 0.59123 0.0
O394 O 0.50877 0.48802 0.55065 0.0
O395 O 0.53444 0.50092 0.57129 0.0
O396 O 0.5136 0.5069 0.71568 0.0
O397 O 0.53406 0.51857 0.66647 0.0
O398 O 0.5035 0.47924 0.66263 0.0
O399 O 0.48769 0.48854 0.7442 0.0
H400 H 0.50694 0.54929 0.80554 0.0
H401 H 0.51474 0.58115 0.81186 0.0
H402 H 0.45798 0.59489 0.82411 0.0
H403 H 0.45009 0.56268 0.81831 0.0
H404 H 0.52956 0.46415 0.45356 0.0
H405 H 0.53992 0.4328 0.46088 0.0
H406 H 0.55236 0.44078 0.6435 0.0
H407 H 0.54149 0.4719 0.6361 0.0
Tb408 Tb 0.99426 0.49769 0.71285 0.0
Tb409 Tb 1.00305 0.52502 0.62584 0.0
C410 C 0.97848 0.47938 0.78983 0.0
C411 C 0.96037 0.47079 0.78948 0.0
C412 C 0.94543 0.48006 0.81278 0.0
C413 C 0.92796 0.47323 0.80595 0.0
C414 C 0.92502 0.45691 0.77612 0.0
C415 C 0.93998 0.44719 0.75516 0.0
C416 C 0.95751 0.45407 0.76168 0.0
C417 C 0.00623 0.48434 0.61326 0.0
C418 C 0.96303 0.51342 0.62778 0.0
C419 C 0.01982 0.54267 0.54969 0.0
C420 C 0.03956 0.54572 0.54658 0.0
C421 C 0.04944 0.53825 0.50028 0.0
C422 C 0.06824 0.53648 0.50435 0.0
C423 C 0.07746 0.54223 0.55471 0.0
C424 C 0.06779 0.55126 0.59851 0.0
C425 C 0.04898 0.55291 0.59467 0.0
C426 C 0.99046 0.53826 0.72448 0.0
C427 C 0.03398 0.50935 0.71064 0.0
O428 O 0.97861 0.4971 0.78918 0.0
O429 O 0.99051 0.47259 0.75414 0.0
O430 O 0.99536 0.49734 0.6192 0.0
O431 O 0.0103 0.47797 0.66429 0.0
O432 O 0.96738 0.50464 0.67642 0.0
O433 O 0.97557 0.52127 0.59527 0.0
O434 O 0.0148 0.52583 0.54244 0.0
O435 O 0.01133 0.55028 0.59329 0.0
O436 O 1.00164 0.52544 0.71945 0.0
O437 O 0.98654 0.54455 0.67316 0.0
O438 O 0.0298 0.51616 0.65883 0.0
O439 O 0.02113 0.50345 0.74587 0.0
H440 H 0.94718 0.49285 0.83499 0.0
H441 H 0.91669 0.4808 0.82388 0.0
H442 H 0.9381 0.43453 0.73224 0.0
H443 H 0.96873 0.44652 0.74351 0.0
H444 H 0.04252 0.53263 0.46279 0.0
H445 H 0.07545 0.52979 0.46936 0.0
H446 H 0.07453 0.55577 0.63786 0.0
H447 H 0.04178 0.55867 0.63136 0.0
C448 C 0.14754 0.02874 0.30755 0.0
C449 C 0.14835 0.01771 0.25776 0.0
C450 C 0.13146 0.03039 0.33942 0.0
C451 C 0.08963 0.00514 0.37202 0.0
H452 H 0.07633 0.04929 0.4522 0.0
C453 C 0.03006 0.00741 0.53781 0.0
C454 C 0.03415 0.01614 0.59057 0.0
C455 C 0.04165 0.00916 0.48949 0.0
C456 C 0.07987 0.03683 0.43026 0.0
H457 H 0.13264 1.0003 0.20116 0.0
H458 H 0.10444 1.00332 0.25652 0.0
H459 H 0.10084 0.04979 0.38077 0.0
H460 H 0.0531 0.03411 0.63342 0.0
H461 H 0.07321 0.03714 0.54984 0.0
H462 H 0.06899 0.99208 0.42274 0.0
C463 C 0.11634 0.01057 0.27122 0.0
C464 C 0.09394 0.03711 0.38927 0.0
C465 C 0.13244 0.009 0.23907 0.0
C466 C 0.0496 0.02719 0.59336 0.0
C467 C 0.06109 0.02902 0.5452 0.0
C468 C 0.07555 0.00485 0.41307 0.0
C469 C 0.11574 0.02099 0.3225 0.0
C470 C 0.0993 0.02119 0.36058 0.0
C471 C 0.05746 0.01981 0.49287 0.0
C472 C 0.07077 0.0206 0.44378 0.0
H473 H 0.15952 0.03573 0.32289 0.0
H474 H 0.13161 0.03841 0.37886 0.0
H475 H 0.09349 0.99257 0.3513 0.0
H476 H 0.01821 0.99883 0.53442 0.0
H477 H 0.03835 1.00202 0.44969 0.0
C478 C 0.49376 0.13706 0.19807 0.0
C479 C 0.48204 0.15209 0.19841 0.0
C480 C 0.49161 0.12299 0.23872 0.0
C481 C 0.47495 0.11597 0.38725 0.0
H482 H 0.48038 0.06483 0.35452 0.0
C483 C 0.46991 0.06349 0.57284 0.0
C484 C 0.48194 0.0488 0.57153 0.0
C485 C 0.46786 0.07474 0.52399 0.0
C486 C 0.47903 0.07907 0.36462 0.0
H487 H 0.45848 0.16373 0.24054 0.0
H488 H 0.45472 0.13921 0.31113 0.0
H489 H 0.4806 0.08672 0.27418 0.0
H490 H 0.50085 0.03394 0.51757 0.0
H491 H 0.49781 0.05387 0.43295 0.0
H492 H 0.47413 0.10866 0.47742 0.0
C493 C 0.4656 0.13834 0.27951 0.0
C494 C 0.47907 0.09159 0.31843 0.0
C495 C 0.46763 0.15229 0.23857 0.0
C496 C 0.49144 0.04518 0.51976 0.0
C497 C 0.48961 0.05659 0.47109 0.0
C498 C 0.47513 0.10352 0.43335 0.0
C499 C 0.47783 0.12375 0.28102 0.0
C500 C 0.47704 0.11019 0.32927 0.0
C501 C 0.47802 0.07175 0.47282 0.0
C502 C 0.47719 0.08486 0.42288 0.0
H503 H 0.50496 0.13647 0.16755 0.0
H504 H 0.50129 0.11197 0.23885 0.0
H505 H 0.47371 0.13023 0.39721 0.0
H506 H 0.46227 0.06648 0.61202 0.0
H507 H 0.45844 0.08593 0.52673 0.0
C508 C 0.35754 0.51378 0.22952 0.0
C509 C 0.35556 0.49807 0.19561 0.0
C510 C 0.37182 0.51538 0.26931 0.0
C511 C 0.4161 0.49628 0.31602 0.0
H512 H 0.4004 0.51187 0.46937 0.0
C513 C 0.44144 0.4954 0.57231 0.0
C514 C 0.45889 0.50283 0.56759 0.0
C515 C 0.43001 0.49466 0.52372 0.0
C516 C 0.40501 0.50742 0.4269 0.0
H517 H 0.36789 0.47231 0.17414 0.0
H518 H 0.39281 0.4751 0.24381 0.0
H519 H 0.37894 0.51182 0.38873 0.0
H520 H 0.47836 0.51464 0.50775 0.0
H521 H 0.45835 0.51324 0.42241 0.0
H522 H 0.44219 0.49167 0.35495 0.0
C523 C 0.38327 0.48616 0.23962 0.0
C524 C 0.39276 0.5076 0.38042 0.0
C525 C 0.36891 0.48451 0.19993 0.0
C526 C 0.46495 0.50887 0.51267 0.0
C527 C 0.45352 0.50802 0.46382 0.0
C528 C 0.42846 0.49625 0.3626 0.0
C529 C 0.38454 0.50136 0.27616 0.0
C530 C 0.39809 0.50195 0.32444 0.0
C531 C 0.43577 0.50124 0.46909 0.0
C532 C 0.42298 0.50165 0.41875 0.0
H533 H 0.34746 0.52442 0.22793 0.0
H534 H 0.37257 0.5274 0.29613 0.0
H535 H 0.42065 0.49191 0.27341 0.0
H536 H 0.43643 0.49052 0.61395 0.0
H537 H 0.41654 0.48906 0.52906 0.0
C538 C 0.99776 0.38027 0.19709 0.0
C539 C 0.01317 0.36923 0.19052 0.0
C540 C 0.99773 0.39455 0.23734 0.0
C541 C 0.01796 0.40673 0.37667 0.0
H542 H 1.00171 0.45567 0.34491 0.0
C543 C 0.0225 0.46092 0.55533 0.0
C544 C 0.00864 0.47384 0.55897 0.0
C545 C 0.02386 0.4496 0.50674 0.0
C546 C 0.00606 0.44202 0.35491 0.0
H547 H 0.04067 0.36474 0.22076 0.0
H548 H 0.04052 0.38945 0.29092 0.0
H549 H 1.00204 0.43334 0.26634 0.0
H550 H 0.98555 0.48543 0.51404 0.0
H551 H 0.98738 0.46521 0.4302 0.0
H552 H 0.0213 0.41484 0.46523 0.0
C553 C 0.02853 0.38716 0.26468 0.0
C554 C 0.00632 0.42926 0.30967 0.0
C555 C 0.02866 0.37311 0.22399 0.0
C556 C 0.99644 0.47561 0.51223 0.0
C557 C 0.99757 0.46403 0.46399 0.0
C558 C 0.01742 0.41933 0.42197 0.0
C559 C 0.01298 0.39783 0.27257 0.0
C560 C 0.01242 0.41152 0.32004 0.0
C561 C 0.01113 0.45061 0.46095 0.0
C562 C 0.01162 0.43724 0.41186 0.0
H563 H 0.98562 0.37762 0.17196 0.0
H564 H 0.98553 0.40252 0.24265 0.0
H565 H 0.02242 0.39307 0.38625 0.0
H566 H 0.0322 0.4594 0.59052 0.0
H567 H 0.03485 0.43991 0.50555 0.0
C568 C 0.86218 0.97953 0.16339 0.0
C569 C 0.85461 0.99635 0.17867 0.0
C570 C 0.87716 0.97857 0.12601 0.0
C571 C 0.91254 0.00669 0.04962 0.0
H572 H 0.90966 0.96828 0.93535 0.0
C573 C 0.96392 1.00179 0.85839 0.0
C574 C 0.9569 0.99662 0.80395 0.0
C575 C 0.95335 1.00025 0.90907 0.0
C576 C 0.91064 0.9792 0.96655 0.0
H577 H 0.85807 0.0254 0.17002 0.0
H578 H 0.88349 0.02373 0.10309 0.0
H579 H 0.88822 0.96898 0.0154 0.0
H580 H 0.93344 0.98553 0.75996 0.0
H581 H 0.91488 0.98334 0.84732 0.0
H582 H 0.93427 0.01752 0.99844 0.0
C583 C 0.87804 0.01121 0.12036 0.0
C584 C 0.89848 0.97943 0.01338 0.0
C585 C 0.86321 0.01218 0.15838 0.0
C586 C 0.93926 0.98956 0.80133 0.0
C587 C 0.92865 0.98819 0.85173 0.0
C588 C 0.92459 0.00658 1.00231 0.0
C589 C 0.88491 0.99437 0.10214 0.0
C590 C 0.89905 0.99331 0.05529 0.0
C591 C 0.93545 0.99364 0.90637 0.0
C592 C 0.92363 0.99298 0.95951 0.0
H593 H 0.85597 0.967 0.17762 0.0
H594 H 0.88231 0.96534 0.11444 0.0
H595 H 0.91368 0.01745 0.08133 0.0
H596 H 0.97751 0.00722 0.86173 0.0
H597 H 0.95922 0.0043 0.9503 0.0
C598 C 0.48659 0.8778 0.15027 0.0
C599 C 0.50386 0.87132 0.16583 0.0
C600 C 0.48471 0.89237 0.11152 0.0
C601 C 0.50884 0.93041 0.03874 0.0
H602 H 0.4747 0.92119 0.91381 0.0
C603 C 0.50689 0.97253 0.82281 0.0
C604 C 0.49006 0.97464 0.79507 0.0
C605 C 0.50843 0.96172 0.87315 0.0
C606 C 0.48406 0.92426 0.94879 0.0
H607 H 0.53272 0.8758 0.15455 0.0
H608 H 0.52939 0.90135 0.08772 0.0
H609 H 0.47734 0.89976 0.9938 0.0
H610 H 0.46151 0.96812 0.79975 0.0
H611 H 0.46397 0.94995 0.88822 0.0
H612 H 0.51556 0.95497 0.99339 0.0
C613 C 0.5173 0.89516 0.10569 0.0
C614 C 0.48559 0.91188 0.99478 0.0
C615 C 0.5192 0.88052 0.14428 0.0
C616 C 0.4747 0.96653 0.81994 0.0
C617 C 0.47616 0.95598 0.87046 0.0
C618 C 0.5072 0.94294 0.99278 0.0
C619 C 0.50004 0.90092 0.08748 0.0
C620 C 0.49801 0.91474 0.0403 0.0
C621 C 0.49312 0.95297 0.89696 0.0
C622 C 0.49479 0.94001 0.94706 0.0
H623 H 0.47448 0.87128 0.16679 0.0
H624 H 0.4712 0.8967 0.0993 0.0
H625 H 0.51848 0.93306 0.07329 0.0
H626 H 0.51897 0.9785 0.80413 0.0
H627 H 0.52174 0.95965 0.89191 0.0
C628 C 0.62993 0.49631 0.1296 0.0
C629 C 0.64269 0.51003 0.14074 0.0
C630 C 0.61516 0.49943 0.09265 0.0
C631 C 0.60077 0.53139 0.97434 0.0
H632 H 0.55865 0.50016 0.97368 0.0
C633 C 0.55713 0.52367 0.76761 0.0
C634 C 0.53889 0.51849 0.77215 0.0
C635 C 0.5681 0.52465 0.81726 0.0
C636 C 0.57009 0.50931 0.97336 0.0
H637 H 0.64868 0.53842 0.12553 0.0
H638 H 0.62228 0.54423 0.06526 0.0
H639 H 0.57924 0.49923 0.0557 0.0
H640 H 0.51772 0.51067 0.8325 0.0
H641 H 0.53638 0.51357 0.91966 0.0
H642 H 0.59109 0.54222 0.8937 0.0
C643 C 0.62421 0.53069 0.08232 0.0
C644 C 0.58222 0.50851 0.02033 0.0
C645 C 0.63926 0.52744 0.1182 0.0
C646 C 0.5317 0.51481 0.82765 0.0
C647 C 0.54255 0.51623 0.87765 0.0
C648 C 0.5884 0.53253 0.92817 0.0
C649 C 0.61234 0.51655 0.06686 0.0
C650 C 0.59807 0.51914 0.02083 0.0
C651 C 0.56104 0.5209 0.87323 0.0
C652 C 0.57313 0.52112 0.92592 0.0
H653 H 0.63172 0.48284 0.14742 0.0
H654 H 0.60656 0.48805 0.08222 0.0
H655 H 0.61279 0.53974 0.97211 0.0
H656 H 0.56312 0.52646 0.72535 0.0
H657 H 0.58228 0.52785 0.81115 0.0
C658 C 0.98869 0.64384 0.13621 0.0
C659 C 0.977 0.6583 0.1227 0.0
C660 C 0.98838 0.62791 0.10318 0.0
C661 C 0.96189 0.60289 0.98969 0.0
H662 H 0.00916 0.58498 0.94375 0.0
C663 C 0.974 0.56239 0.77872 0.0
C664 C 0.98678 0.54831 0.77896 0.0
C665 C 0.97149 0.57316 0.82809 0.0
C666 C 0.99584 0.58957 0.95685 0.0
H667 H 0.95494 0.66678 0.0664 0.0
H668 H 0.9546 0.63931 0.00833 0.0
H669 H 0.00692 0.60849 0.01763 0.0
H670 H 0.00656 0.53404 0.8317 0.0
H671 H 1.00229 0.55302 0.91826 0.0
H672 H 0.9509 0.58441 0.9271 0.0
C673 C 0.96399 0.64012 0.04456 0.0
C674 C 0.99452 0.60307 0.99941 0.0
C675 C 0.96428 0.65601 0.07759 0.0
C676 C 0.99663 0.54483 0.83028 0.0
C677 C 0.99425 0.55576 0.87966 0.0
C678 C 0.96322 0.58947 0.94691 0.0
C679 C 0.97636 0.62604 0.05583 0.0
C680 C 0.97755 0.61019 0.01561 0.0
C681 C 0.9818 0.5702 0.87888 0.0
C682 C 0.98023 0.5829 0.92912 0.0
H683 H 0.99874 0.64515 0.17036 0.0
H684 H 0.9979 0.61724 0.11384 0.0
H685 H 0.94857 0.60774 1.00178 0.0
H686 H 0.96619 0.56536 0.73979 0.0
H687 H 0.96194 0.58427 0.82564 0.0
C688 C 0.01906 0.23492 0.41025 0.0
C689 C 0.03623 0.23564 0.38377 0.0
C690 C 0.01445 0.22044 0.44658 0.0
C691 C 0.02509 0.17299 0.44754 0.0
H692 H 0.98903 0.17031 0.5705 0.0
C693 C 0.97864 0.11189 0.47078 0.0
C694 C 0.97775 0.10381 0.52631 0.0
C695 C 0.98644 0.12895 0.46371 0.0
C696 C 0.99922 0.17089 0.53649 0.0
H697 H 0.06284 0.22328 0.38112 0.0
H698 H 0.0548 0.19796 0.44488 0.0
H699 H 1.00379 0.19932 0.54849 0.0
H700 H 0.98369 0.10766 0.61812 0.0
H701 H 0.99694 0.13768 0.60584 0.0
H702 H 0.02016 0.14483 0.43405 0.0
C703 C 0.04479 0.20837 0.43645 0.0
C704 C 0.00764 0.18743 0.52394 0.0
C705 C 0.04939 0.22285 0.40003 0.0
C706 C 0.98396 0.1136 0.57495 0.0
C707 C 0.99163 0.13074 0.56794 0.0
C708 C 0.01659 0.1566 0.45967 0.0
C709 C 0.02694 0.20646 0.45702 0.0
C710 C 0.0204 0.18869 0.4785 0.0
C711 C 0.99338 0.13832 0.51204 0.0
C712 C 1.00327 0.15549 0.5032 0.0
H713 H 0.00858 0.24452 0.39842 0.0
H714 H 1.00058 0.21933 0.46163 0.0
H715 H 0.03463 0.17353 0.41164 0.0
H716 H 0.97367 0.10488 0.43258 0.0
H717 H 0.98733 0.1347 0.42022 0.0
C718 C 0.28449 0.9329 0.36277 0.0
C719 C 0.27898 0.92352 0.31263 0.0
C720 C 0.29992 0.92752 0.39337 0.0
C721 C 0.34311 0.90593 0.35954 0.0
H722 H 0.35352 0.92038 0.51849 0.0
C723 C 0.41019 0.93789 0.4235 0.0
C724 C 0.41704 0.93599 0.48036 0.0
C725 C 0.39375 0.92995 0.40809 0.0
C726 C 0.3509 0.91585 0.47439 0.0
H727 H 0.2841 0.89999 0.25899 0.0
H728 H 0.31096 0.89033 0.31321 0.0
H729 H 0.32222 0.91654 0.48768 0.0
H730 H 0.41253 0.92341 0.56481 0.0
H731 H 0.38371 0.90943 0.53776 0.0
H732 H 0.37177 0.90549 0.34601 0.0
C733 C 0.30363 0.90216 0.32791 0.0
C734 C 0.33291 0.91386 0.45651 0.0
C735 C 0.28823 0.90764 0.29696 0.0
C736 C 0.40744 0.92533 0.52086 0.0
C737 C 0.39096 0.91731 0.50537 0.0
C738 C 0.36108 0.90774 0.37757 0.0
C739 C 0.31016 0.91255 0.37477 0.0
C740 C 0.32879 0.90981 0.39804 0.0
C741 C 0.38376 0.91983 0.44909 0.0
C742 C 0.36516 0.91365 0.4343 0.0
H743 H 0.2778 0.9453 0.37568 0.0
H744 H 0.30457 0.93603 0.4287 0.0
H745 H 0.34055 0.90282 0.31413 0.0
H746 H 0.41709 0.94625 0.39153 0.0
H747 H 0.38846 0.93254 0.36475 0.0
C748 C 0.54008 0.28263 0.40731 0.0
C749 C 0.52317 0.28561 0.38079 0.0
C750 C 0.54588 0.29374 0.45301 0.0
C751 C 0.55949 0.32952 0.5003 0.0
H752 H 0.52537 0.35602 0.59591 0.0
C753 C 0.56014 0.40561 0.51308 0.0
C754 C 0.55139 0.41476 0.55864 0.0
C755 C 0.56147 0.38679 0.51382 0.0
C756 C 0.53538 0.34863 0.571 0.0
H757 H 0.49837 0.30122 0.38461 0.0
H758 H 0.50848 0.32079 0.46261 0.0
H759 H 0.51738 0.32623 0.56052 0.0
H760 H 0.53852 0.4114 0.64326 0.0
H761 H 0.54143 0.37861 0.64552 0.0
H762 H 0.57737 0.35207 0.50992 0.0
C763 C 0.51734 0.3099 0.44911 0.0
C764 C 0.53066 0.33158 0.55003 0.0
C765 C 0.5116 0.29886 0.40366 0.0
C766 C 0.54537 0.40479 0.60738 0.0
C767 C 0.54686 0.38594 0.60842 0.0
C768 C 0.56434 0.34647 0.52209 0.0
C769 C 0.53481 0.30794 0.47295 0.0
C770 C 0.54212 0.32244 0.51099 0.0
C771 C 0.55423 0.37665 0.5605 0.0
C772 C 0.55182 0.35677 0.55415 0.0
H773 H 0.54924 0.27244 0.39055 0.0
H774 H 0.55932 0.29175 0.47087 0.0
H775 H 0.56876 0.32284 0.47077 0.0
H776 H 0.56526 0.41293 0.4755 0.0
H777 H 0.56708 0.38022 0.47575 0.0
C778 C 0.22823 0.5041 0.45146 0.0
C779 C 0.22366 0.48903 0.41723 0.0
C780 C 0.217 0.50943 0.49745 0.0
C781 C 0.17479 0.49721 0.57929 0.0
H782 H 0.16089 0.54633 0.53942 0.0
C783 C 0.1021 0.51919 0.55212 0.0
C784 C 0.09659 0.53696 0.56434 0.0
C785 C 0.12 0.5139 0.56084 0.0
C786 C 0.16479 0.5328 0.55276 0.0
H787 H 0.20513 0.4665 0.40844 0.0
H788 H 0.1854 0.47587 0.48767 0.0
H789 H 0.19016 0.53497 0.5088 0.0
H790 H 0.10531 0.56293 0.59778 0.0
H791 H 0.13695 0.55374 0.61186 0.0
H792 H 0.14869 0.49475 0.61949 0.0
C793 C 0.1976 0.48362 0.47955 0.0
C794 C 0.18165 0.52625 0.53522 0.0
C795 C 0.20879 0.47833 0.4336 0.0
C796 C 0.10925 0.54919 0.58751 0.0
C797 C 0.12729 0.54393 0.59573 0.0
C798 C 0.1579 0.50378 0.59686 0.0
C799 C 0.20105 0.49976 0.50996 0.0
C800 C 0.18636 0.50804 0.54514 0.0
C801 C 0.13289 0.52628 0.58169 0.0
C802 C 0.15233 0.52128 0.58051 0.0
H803 H 0.23963 0.51261 0.43986 0.0
H804 H 0.22013 0.52179 0.52059 0.0
H805 H 0.17822 0.48325 0.58869 0.0
H806 H 0.09254 0.50931 0.53576 0.0
H807 H 0.1239 0.50029 0.54876 0.0
C808 C 0.05909 0.78732 0.97137 0.0
C809 C 0.06855 0.78288 0.02272 0.0
C810 C 0.0652 0.80127 0.93517 0.0
C811 C 0.08114 0.83145 0.86127 0.0
H812 H 0.08871 0.8727 0.96232 0.0
C813 C 0.0556 0.90256 0.80725 0.0
C814 C 0.06402 0.9177 0.83227 0.0
C815 C 0.06232 0.88519 0.81777 0.0
C816 C 0.08715 0.86139 0.93286 0.0
H817 H 0.09293 0.78806 0.07268 0.0
H818 H 0.10364 0.81247 0.00926 0.0
H819 H 0.0903 0.8425 0.00266 0.0
H820 H 0.08691 0.92677 0.88354 0.0
H821 H 0.09894 0.89643 0.901 0.0
H822 H 0.0771 0.85057 0.79195 0.0
C823 C 0.09131 0.80539 0.99768 0.0
C824 C 0.08807 0.84396 0.95615 0.0
C825 C 0.08518 0.79145 0.03399 0.0
C826 C 0.08 0.91527 0.86462 0.0
C827 C 0.08685 0.89791 0.8746 0.0
C828 C 0.0803 0.84894 0.83781 0.0
C829 C 0.08089 0.81106 0.94958 0.0
C830 C 0.08433 0.82883 0.92122 0.0
C831 C 0.0777 0.88261 0.85314 0.0
C832 C 0.08254 0.86414 0.87394 0.0
H833 H 0.04617 0.78108 0.96162 0.0
H834 H 0.05674 0.80537 0.89878 0.0
H835 H 0.07846 0.82003 0.83309 0.0
H836 H 0.04319 0.90405 0.78241 0.0
H837 H 0.05475 0.87377 0.80116 0.0
C838 C 0.70809 0.97107 0.93832 0.0
C839 C 0.72296 0.98184 0.95414 0.0
C840 C 0.69628 0.97674 0.89444 0.0
C841 C 0.6804 0.02029 0.8387 0.0
H842 H 0.64454 0.989 0.76813 0.0
C843 C 0.60539 0.03721 0.84357 0.0
C844 C 0.5935 0.02965 0.80271 0.0
C845 C 0.62393 0.03355 0.84061 0.0
C846 C 0.65454 0.99813 0.78615 0.0
H847 H 0.73842 0.00581 0.93107 0.0
H848 H 0.71824 0.01529 0.85276 0.0
H849 H 0.67395 0.97679 0.79424 0.0
H850 H 0.59172 0.01334 0.7246 0.0
H851 H 0.62411 0.00753 0.71778 0.0
H852 H 0.66099 0.04161 0.83079 0.0
C853 C 0.7153 1.0028 0.87579 0.0
C854 C 0.67138 0.99102 0.80185 0.0
C855 C 0.72702 0.99723 0.92029 0.0
C856 C 0.6006 0.01922 0.75692 0.0
C857 C 0.61915 0.01582 0.75326 0.0
C858 C 0.66369 0.02747 0.82207 0.0
C859 C 0.6992 0.99322 0.86483 0.0
C860 C 0.68407 1.00173 0.8317 0.0
C861 C 0.63101 0.02247 0.79612 0.0
C862 C 0.65015 0.01622 0.79899 0.0
H863 H 0.70487 0.95888 0.96262 0.0
H864 H 0.68407 0.96892 0.88754 0.0
H865 H 0.68977 0.02907 0.86139 0.0
H866 H 0.60027 0.04519 0.87954 0.0
H867 H 0.63252 0.03865 0.87514 0.0
C868 C 0.52953 0.74311 0.93842 0.0
C869 C 0.54383 0.73951 0.9774 0.0
C870 C 0.52474 0.73048 0.89596 0.0
C871 C 0.53682 0.68468 0.83655 0.0
H872 H 0.4849 0.67744 0.84744 0.0
C873 C 0.5048 0.61637 0.77636 0.0
C874 C 0.49186 0.6099 0.81636 0.0
C875 C 0.51029 0.63443 0.7774 0.0
C876 C 0.49943 0.67923 0.84394 0.0
H877 H 0.56586 0.72102 0.99683 0.0
H878 H 0.55698 0.69863 0.92551 0.0
H879 H 0.49794 0.70572 0.87973 0.0
H880 H 0.47428 0.6173 0.88805 0.0
H881 H 0.48426 0.64863 0.89156 0.0
H882 H 0.53842 0.65748 0.80591 0.0
C883 C 0.54946 0.7112 0.92691 0.0
C884 C 0.50693 0.69565 0.86148 0.0
C885 C 0.55444 0.72397 0.96864 0.0
C886 C 0.48415 0.62196 0.85639 0.0
C887 C 0.48982 0.63997 0.85802 0.0
C888 C 0.52933 0.66813 0.81985 0.0
C889 C 0.53394 0.71385 0.89221 0.0
C890 C 0.52582 0.69832 0.86035 0.0
C891 C 0.50315 0.64638 0.81907 0.0
C892 C 0.51062 0.66495 0.8257 0.0
H893 H 0.52107 0.75497 0.94354 0.0
H894 H 0.51306 0.73324 0.86873 0.0
H895 H 0.55137 0.68639 0.83369 0.0
H896 H 0.51082 0.60739 0.74456 0.0
H897 H 0.52035 0.63895 0.74618 0.0
C898 C 0.77863 0.43783 0.94311 0.0
C899 C 0.77587 0.45658 0.94723 0.0
C900 C 0.79034 0.43088 0.90069 0.0
C901 C 0.82891 0.42662 0.85697 0.0
H902 H 0.83907 0.44936 0.70772 0.0
C903 C 0.9018 0.43211 0.77948 0.0
C904 C 0.90631 0.45022 0.76748 0.0
C905 C 0.88367 0.4266 0.77952 0.0
C906 C 0.83638 0.4427 0.74903 0.0
H907 H 0.78149 0.48258 0.90741 0.0
H908 H 0.80183 0.47059 0.83355 0.0
H909 H 0.80854 0.45095 0.74856 0.0
H910 H 0.89571 0.47627 0.74028 0.0
H911 H 0.86421 0.46693 0.74205 0.0
H912 H 0.85694 0.41976 0.86035 0.0
C913 C 0.79506 0.46116 0.86255 0.0
C914 C 0.81889 0.44355 0.77225 0.0
C915 C 0.78357 0.46808 0.9052 0.0
C916 C 0.89256 0.46232 0.75098 0.0
C917 C 0.8745 0.45685 0.75103 0.0
C918 C 0.84639 0.42586 0.83396 0.0
C919 C 0.79924 0.44259 0.86154 0.0
C920 C 0.81529 0.43648 0.82809 0.0
C921 C 0.86976 0.43911 0.7675 0.0
C922 C 0.85056 0.43488 0.78149 0.0
H923 H 0.7728 0.42873 0.97519 0.0
H924 H 0.79326 0.41652 0.9007 0.0
H925 H 0.82662 0.4211 0.90022 0.0
H926 H 0.91216 0.42247 0.79201 0.0
H927 H 0.88048 0.41279 0.79168 0.0
C928 C 0.02369 0.19084 0.95387 0.0
C929 C 0.01651 0.20615 0.92535 0.0
C930 C 0.02075 0.17344 0.93219 0.0
C931 C 0.00868 0.14804 0.79916 0.0
H932 H 0.99904 0.10937 0.90985 0.0
C933 C 0.99265 0.07461 0.72513 0.0
C934 C 0.99979 0.06031 0.75869 0.0
C935 C 0.99379 0.09253 0.74465 0.0
C936 C 1.00194 0.11992 0.87829 0.0
H937 H 1.00047 0.21499 0.85129 0.0
H938 H 0.99525 0.18443 0.81325 0.0
H939 H 1.00238 0.14027 0.94448 0.0
H940 H 0.01402 0.05379 0.8389 0.0
H941 H 0.01649 0.08498 0.87197 0.0
H942 H 0.00844 0.12762 0.73297 0.0
C943 C 1.00332 0.18602 0.85238 0.0
C944 C 1.00382 0.13771 0.89819 0.0
C945 C 0.00619 0.20352 0.8744 0.0
C946 C 0.00825 0.06442 0.81202 0.0
C947 C 0.00957 0.08235 0.83121 0.0
C948 C 0.00686 0.1302 0.7792 0.0
C949 C 0.01049 0.17074 0.88127 0.0
C950 C 0.00742 0.15199 0.85906 0.0
C951 C 1.00231 0.09669 0.79787 0.0
C952 C 1.00365 0.11584 0.81859 0.0
H953 H 0.03143 0.19224 0.99377 0.0
H954 H 0.02668 0.16207 0.95526 0.0
H955 H 0.01161 0.15866 0.76783 0.0
H956 H 0.986 0.07197 0.68396 0.0
H957 H 0.98772 0.10313 0.71852 0.0
C958 C 0.29886 0.00405 0.87165 0.0
C959 C 0.29502 0.01193 0.92613 0.0
C960 C 0.31586 0.00634 0.84534 0.0
C961 C 0.3634 0.01557 0.8847 0.0
H962 H 0.37035 0.02133 0.71791 0.0
C963 C 0.43486 0.0248 0.78659 0.0
C964 C 0.4388 0.01608 0.73364 0.0
C965 C 0.41709 0.02557 0.80777 0.0
C966 C 0.36868 0.01952 0.76453 0.0
H967 H 0.30597 0.02891 0.99453 0.0
H968 H 0.33547 0.03311 0.94832 0.0
H969 H 0.3397 0.0209 0.75818 0.0
H970 H 0.42698 1.00143 0.66119 0.0
H971 H 0.39603 1.00247 0.69862 0.0
H972 H 0.39224 0.01378 0.89128 0.0
C973 C 0.32539 0.02499 0.92621 0.0
C974 C 0.35107 0.01933 0.78764 0.0
C975 C 0.30836 0.02278 0.95237 0.0
C976 C 0.42444 0.00835 0.70198 0.0
C977 C 0.40664 0.00902 0.72338 0.0
C978 C 0.38096 0.01566 0.86164 0.0
C979 C 0.3295 0.01648 0.87296 0.0
C980 C 0.3482 0.01734 0.84807 0.0
C981 C 0.40272 0.01752 0.77688 0.0
C982 C 0.38389 0.01763 0.80121 0.0
H983 H 0.28886 0.99572 0.84998 0.0
H984 H 0.31854 0.99953 0.80447 0.0
H985 H 0.36172 0.01364 0.93129 0.0
H986 H 0.44552 0.03104 0.812 0.0
H987 H 0.41462 0.03255 0.84847 0.0
C988 C 0.47379 0.31871 0.88223 0.0
C989 C 0.48926 0.31074 0.90742 0.0
C990 C 0.47475 0.33593 0.85639 0.0
C991 C 0.49999 0.37833 0.86666 0.0
H992 H 0.47855 0.3902 0.71672 0.0
C993 C 0.48809 0.45215 0.78907 0.0
C994 C 0.49374 0.45642 0.73202 0.0
C995 C 0.48774 0.43415 0.80853 0.0
C996 C 0.48464 0.38707 0.75859 0.0
H997 H 0.51787 0.31458 0.92474 0.0
H998 H 0.51947 0.34467 0.88027 0.0
H999 H 0.47779 0.35888 0.75256 0.0
H1000 H 0.5033 0.44494 0.6505 0.0
H1001 H 0.50238 0.41355 0.68431 0.0
H1002 H 0.50658 0.40651 0.87326 0.0
C1003 C 0.50665 0.33755 0.88018 0.0
C1004 C 0.48411 0.36918 0.77922 0.0
C1005 C 0.50576 0.32024 0.90512 0.0
C1006 C 0.49883 0.44219 0.6947 0.0
C1007 C 0.49824 0.42417 0.71393 0.0
C1008 C 0.50024 0.39625 0.84652 0.0
C1009 C 0.49111 0.34569 0.85616 0.0
C1010 C 0.49182 0.3646 0.83345 0.0
C1011 C 0.4928 0.41995 0.7712 0.0
C1012 C 0.49258 0.40084 0.79226 0.0
H1013 H 0.46089 0.31173 0.88328 0.0
H1014 H 0.46253 0.34187 0.83846 0.0
H1015 H 0.50592 0.37527 0.90882 0.0
H1016 H 0.48413 0.46273 0.81906 0.0
H1017 H 0.48336 0.43131 0.85277 0.0
C1018 C 0.18726 0.52562 0.91396 0.0
C1019 C 0.19735 0.50948 0.91637 0.0
C1020 C 0.17081 0.52641 0.88371 0.0
C1021 C 0.14121 0.50315 0.77632 0.0
H1022 H 0.10267 0.52476 0.86767 0.0
C1023 C 0.06736 0.51224 0.68993 0.0
C1024 C 0.05323 0.50895 0.72982 0.0
C1025 C 0.08547 0.51248 0.70854 0.0
C1026 C 0.11322 0.51858 0.84163 0.0
H1027 H 0.1985 0.48181 0.88554 0.0
H1028 H 0.1698 0.48323 0.83221 0.0
H1029 H 0.13357 0.52522 0.90439 0.0
H1030 H 0.04716 0.50284 0.82039 0.0
H1031 H 0.07863 0.50304 0.85261 0.0
H1032 H 0.12066 0.49629 0.71388 0.0
C1033 C 0.17466 0.4953 0.85384 0.0
C1034 C 0.13102 0.51905 0.86237 0.0
C1035 C 0.19115 0.49449 0.88433 0.0
C1036 C 0.05767 0.50552 0.78849 0.0
C1037 C 0.07574 0.50577 0.80707 0.0
C1038 C 0.12334 0.50279 0.75527 0.0
C1039 C 0.164 0.5111 0.85483 0.0
C1040 C 0.14525 0.51124 0.83031 0.0
C1041 C 0.08988 0.50942 0.76748 0.0
C1042 C 0.10907 0.51031 0.78811 0.0
H1043 H 0.19179 0.53754 0.93713 0.0
H1044 H 0.16317 0.53892 0.88425 0.0
H1045 H 0.15187 0.49712 0.75033 0.0
H1046 H 0.06445 0.51464 0.64424 0.0
H1047 H 0.09599 0.5154 0.67702 0.0
C1048 C 0.97836 0.82138 0.4193 0.0
C1049 C 0.99066 0.80836 0.44038 0.0
C1050 C 0.97699 0.83838 0.44582 0.0
C1051 C 0.98838 0.86431 0.5799 0.0
H1052 H 0.98762 0.90552 0.47467 0.0
C1053 C 1.00035 0.93793 0.65996 0.0
C1054 C 0.99058 0.95195 0.63258 0.0
C1055 C 0.99955 0.92018 0.63865 0.0
C1056 C 0.98755 0.89421 0.5049 0.0
H1057 H 0.01044 0.80275 0.50806 0.0
H1058 H 0.00809 0.83239 0.55417 0.0
H1059 H 0.98687 0.87503 0.43516 0.0
H1060 H 0.97193 0.95805 0.56195 0.0
H1061 H 0.97025 0.92722 0.52578 0.0
H1062 H 0.98906 0.88353 0.64969 0.0
C1063 C 0.99949 0.82947 0.51706 0.0
C1064 C 0.98712 0.87667 0.48212 0.0
C1065 C 1.00094 0.81251 0.49035 0.0
C1066 C 0.97978 0.94768 0.58396 0.0
C1067 C 0.9789 0.92995 0.56289 0.0
C1068 C 0.98872 0.88189 0.60276 0.0
C1069 C 0.9878 0.84279 0.49435 0.0
C1070 C 0.98758 0.86146 0.51924 0.0
C1071 C 0.98888 0.91594 0.58956 0.0
C1072 C 0.98834 0.89712 0.56556 0.0
H1073 H 0.97035 0.81875 0.38064 0.0
H1074 H 0.96764 0.84821 0.42765 0.0
H1075 H 0.98858 0.85293 0.60983 0.0
H1076 H 0.00881 0.94067 0.6975 0.0
H1077 H 0.0076 0.90985 0.66004 0.0
C1078 C 0.68817 0.00442 0.46961 0.0
C1079 C 0.6938 0.98703 0.45249 0.0
C1080 C 0.67143 0.00698 0.49751 0.0
C1081 C 0.63277 0.98194 0.56863 0.0
H1082 H 0.60537 0.02437 0.52198 0.0
C1083 C 0.55473 0.98812 0.59573 0.0
C1084 C 0.54831 0.00421 0.62085 0.0
C1085 C 0.57301 0.98638 0.57993 0.0
C1086 C 0.6129 0.01252 0.5358 0.0
H1087 H 0.6866 0.95858 0.45545 0.0
H1088 H 0.65737 0.96305 0.50133 0.0
H1089 H 0.6365 0.02077 0.48856 0.0
H1090 H 0.55601 0.03121 0.64816 0.0
H1091 H 0.58767 0.02843 0.61811 0.0
H1092 H 0.60874 0.97345 0.61391 0.0
C1093 C 0.66586 0.97479 0.49404 0.0
C1094 C 0.63086 0.01048 0.51697 0.0
C1095 C 0.68263 0.97222 0.46679 0.0
C1096 C 0.56051 0.01863 0.62889 0.0
C1097 C 0.57863 0.01707 0.61149 0.0
C1098 C 0.61472 0.98387 0.58667 0.0
C1099 C 0.65978 0.99225 0.50876 0.0
C1100 C 0.64105 0.99506 0.53259 0.0
C1101 C 0.58516 1.00086 0.58751 0.0
C1102 C 0.60453 0.9991 0.57003 0.0
H1103 H 0.6963 0.01619 0.45924 0.0
H1104 H 0.66751 0.0206 0.50925 0.0
H1105 H 0.64018 0.97008 0.58289 0.0
H1106 H 0.5457 0.97676 0.58918 0.0
H1107 H 0.5776 0.97378 0.56099 0.0
C1108 C 0.52746 0.6958 0.41482 0.0
C1109 C 0.51971 0.71102 0.44179 0.0
C1110 C 0.5247 0.67842 0.43726 0.0
C1111 C 0.51236 0.65294 0.56999 0.0
H1112 H 0.50326 0.61433 0.45964 0.0
C1113 C 0.49749 0.57891 0.64341 0.0
C1114 C 0.50491 0.56492 0.60944 0.0
C1115 C 0.4984 0.59696 0.62452 0.0
C1116 C 0.50601 0.62487 0.49112 0.0
H1117 H 0.50291 0.71978 0.51392 0.0
H1118 H 0.49805 0.68921 0.55349 0.0
H1119 H 0.50622 0.64531 0.42471 0.0
H1120 H 0.51938 0.55902 0.52943 0.0
H1121 H 0.52147 0.59043 0.49739 0.0
H1122 H 0.51241 0.63238 0.63635 0.0
C1123 C 0.50639 0.69087 0.51493 0.0
C1124 C 0.50765 0.64268 0.47104 0.0
C1125 C 0.50906 0.70836 0.49207 0.0
C1126 C 0.51343 0.56943 0.55651 0.0
C1127 C 0.51451 0.58748 0.53795 0.0
C1128 C 0.51079 0.63504 0.59014 0.0
C1129 C 0.51408 0.67567 0.48742 0.0
C1130 C 0.51109 0.65693 0.51003 0.0
C1131 C 0.50692 0.60151 0.57149 0.0
C1132 C 0.50783 0.62072 0.55083 0.0
H1133 H 0.53548 0.69725 0.37548 0.0
H1134 H 0.531 0.6671 0.41532 0.0
H1135 H 0.51514 0.66356 0.60117 0.0
H1136 H 0.49065 0.57592 0.68413 0.0
H1137 H 0.49209 0.60731 0.65098 0.0
C1138 C 0.80464 0.50608 0.45388 0.0
C1139 C 0.80158 0.51928 0.41055 0.0
C1140 C 0.82069 0.50611 0.4867 0.0
C1141 C 0.86163 0.53425 0.52161 0.0
H1142 H 0.88437 0.48759 0.54751 0.0
C1143 C 0.93827 0.52622 0.56487 0.0
C1144 C 0.94376 0.51416 0.60908 0.0
C1145 C 0.92012 0.52711 0.54745 0.0
C1146 C 0.87811 0.50071 0.54123 0.0
H1147 H 0.81259 0.54359 0.37078 0.0
H1148 H 0.8406 0.54335 0.42614 0.0
H1149 H 0.85388 0.48901 0.50669 0.0
H1150 H 0.93439 0.49347 0.6695 0.0
H1151 H 0.90271 0.49485 0.63822 0.0
H1152 H 0.88622 0.5459 0.55408 0.0
C1153 C 0.83062 0.53301 0.43553 0.0
C1154 C 0.86055 0.50156 0.51803 0.0
C1155 C 0.81457 0.53303 0.4031 0.0
C1156 C 0.93064 0.50293 0.63531 0.0
C1157 C 0.91249 0.50366 0.61729 0.0
C1158 C 0.87924 0.53339 0.54414 0.0
C1159 C 0.83413 0.51932 0.47695 0.0
C1160 C 0.85214 0.51836 0.50699 0.0
C1161 C 0.90701 0.51582 0.5733 0.0
C1162 C 0.88779 0.51663 0.55343 0.0
H1163 H 0.79501 0.49521 0.46069 0.0
H1164 H 0.8227 0.49554 0.51892 0.0
H1165 H 0.85552 0.54743 0.51515 0.0
H1166 H 0.94798 0.53509 0.54382 0.0
H1167 H 0.91638 0.53647 0.51298 0.0
loop_
_geom_bond_atom_site_label_1
_geom_bond_atom_site_label_2
_geom_bond_distance
_geom_bond_site_symmetry_2
_ccdc_geom_bond_type
C0 C1 1.384 . S
C0 H13 0.947 . S
C0 C35 1.382 . S
C1 C0 1.384 . S
C1 C2 1.378 . S
C2 C1 1.378 . S
C2 C3 1.378 . S
C2 H14 0.952 . S
C3 C2 1.378 . S
C3 H15 0.950 . S
C3 C34 1.383 . S
H4 C23 0.947 . S
H5 C24 0.946 . S
H6 C26 0.953 . S
H7 C27 0.945 . S
H8 C29 0.952 . S
H9 C30 0.949 . S
H10 C32 0.950 . S
H11 C33 0.948 . S
H12 C35 0.951 . S
H13 C0 0.947 . S
H14 C2 0.952 . S
H15 C3 0.950 . S
N16 C19 1.382 . S
N16 C21 1.363 . S
N17 C19 1.371 . S
N17 C20 1.372 . S
N18 C20 1.361 . S
N18 C21 1.377 . S
C19 N16 1.382 . S
C19 N17 1.371 . S
C19 C22 1.480 . S
C20 N17 1.372 . S
C20 N18 1.361 . S
C20 C28 1.457 . S
C21 N16 1.363 . S
C21 N18 1.377 . S
C21 C34 1.479 . S
C22 C19 1.480 . S
C22 C23 1.383 . S
C22 C27 1.385 . S
C23 H4 0.947 . S
C23 C22 1.383 . S
C23 C24 1.388 . S
C24 H5 0.946 . S
C24 C23 1.388 . S
C24 C25 1.384 . S
C25 C24 1.384 . S
C25 C26 1.377 . S
C26 H6 0.953 . S
C26 C25 1.377 . S
C26 C27 1.369 . S
C27 H7 0.945 . S
C27 C22 1.385 . S
C27 C26 1.369 . S
C28 C20 1.457 . S
C28 C29 1.372 . S
C28 C33 1.364 . S
C29 H8 0.952 . S
C29 C28 1.372 . S
C29 C30 1.389 . S
C30 H9 0.949 . S
C30 C29 1.389 . S
C30 C31 1.387 . S
C31 C30 1.387 . S
C31 C32 1.372 . S
C32 H10 0.950 . S
C32 C31 1.372 . S
C32 C33 1.379 . S
C33 H11 0.948 . S
C33 C28 1.364 . S
C33 C32 1.379 . S
C34 C3 1.383 . S
C34 C21 1.479 . S
C34 C35 1.398 . S
C35 C0 1.382 . S
C35 H12 0.951 . S
C35 C34 1.398 . S
C36 C37 1.381 1_655 S
C36 H49 0.948 . S
C36 C71 1.382 1_655 S
C37 C36 1.381 1_455 S
C37 C38 1.387 . S
C38 C37 1.387 . S
C38 C39 1.378 . S
C38 H50 0.952 . S
C39 C38 1.378 . S
C39 H51 0.950 . S
C39 C70 1.383 . S
H40 C59 0.947 . S
H41 C60 0.952 . S
H42 C62 0.953 . S
H43 C63 0.945 . S
H44 C65 0.949 1_655 S
H45 C66 0.956 . S
H46 C68 0.950 . S
H47 C69 0.948 . S
H48 C71 0.952 1_655 S
H49 C36 0.948 . S
H50 C38 0.952 . S
H51 C39 0.950 . S
N52 C55 1.382 . S
N52 C57 1.363 . S
N53 C55 1.371 . S
N53 C56 1.372 . S
N54 C56 1.361 . S
N54 C57 1.377 . S
C55 N52 1.382 . S
C55 N53 1.371 . S
C55 C58 1.480 . S
C56 N53 1.372 . S
C56 N54 1.361 . S
C56 C64 1.457 . S
C57 N52 1.363 . S
C57 N54 1.377 . S
C57 C70 1.479 . S
C58 C55 1.480 . S
C58 C59 1.383 . S
C58 C63 1.385 . S
C59 H40 0.947 . S
C59 C58 1.383 . S
C59 C60 1.386 1_455 S
C60 H41 0.952 . S
C60 C59 1.386 1_655 S
C60 C61 1.381 1_655 S
C61 C60 1.381 1_455 S
C61 C62 1.377 . S
C62 H42 0.953 . S
C62 C61 1.377 . S
C62 C63 1.369 . S
C63 H43 0.945 . S
C63 C58 1.385 . S
C63 C62 1.369 . S
C64 C56 1.457 . S
C64 C65 1.376 . S
C64 C69 1.364 . S
C65 H44 0.949 1_455 S
C65 C64 1.376 . S
C65 C66 1.387 1_455 S
C66 H45 0.956 . S
C66 C65 1.387 1_655 S
C66 C67 1.383 1_655 S
C67 C66 1.383 1_455 S
C67 C68 1.372 . S
C68 H46 0.950 . S
C68 C67 1.372 . S
C68 C69 1.379 . S
C69 H47 0.948 . S
C69 C64 1.364 . S
C69 C68 1.379 . S
C70 C39 1.383 . S
C70 C57 1.479 . S
C70 C71 1.398 . S
C71 C36 1.382 1_455 S
C71 H48 0.952 1_455 S
C71 C70 1.398 . S
C72 C73 1.381 1_565 S
C72 H85 0.948 . S
C72 C107 1.382 1_565 S
C73 C72 1.381 1_545 S
C73 C74 1.387 . S
C74 C73 1.387 . S
C74 C75 1.378 . S
C74 H86 0.952 . S
C75 C74 1.378 . S
C75 H87 0.950 . S
C75 C106 1.383 . S
H76 C95 0.947 . S
H77 C96 0.952 . S
H78 C98 0.953 . S
H79 C99 0.945 . S
H80 C101 0.949 1_565 S
H81 C102 0.957 . S
H82 C104 0.950 . S
H83 C105 0.948 . S
H84 C107 0.952 1_565 S
H85 C72 0.948 . S
H86 C74 0.952 . S
H87 C75 0.950 . S
N88 C91 1.382 . S
N88 C93 1.363 . S
N89 C91 1.371 . S
N89 C92 1.372 . S
N90 C92 1.361 . S
N90 C93 1.377 . S
C91 N88 1.382 . S
C91 N89 1.371 . S
C91 C94 1.480 . S
C92 N89 1.372 . S
C92 N90 1.361 . S
C92 C100 1.457 . S
C93 N88 1.363 . S
C93 N90 1.377 . S
C93 C106 1.479 . S
C94 C91 1.480 . S
C94 C95 1.383 . S
C94 C99 1.385 . S
C95 H76 0.947 . S
C95 C94 1.383 . S
C95 C96 1.386 1_545 S
C96 H77 0.952 . S
C96 C95 1.386 1_565 S
C96 C97 1.381 1_565 S
C97 C96 1.381 1_545 S
C97 C98 1.377 . S
C98 H78 0.953 . S
C98 C97 1.377 . S
C98 C99 1.369 . S
C99 H79 0.945 . S
C99 C94 1.385 . S
C99 C98 1.369 . S
C100 C92 1.457 . S
C100 C101 1.376 . S
C100 C105 1.364 . S
C101 H80 0.949 1_545 S
C101 C100 1.376 . S
C101 C102 1.386 1_545 S
C102 H81 0.957 . S
C102 C101 1.386 1_565 S
C102 C103 1.383 1_565 S
C103 C102 1.383 1_545 S
C103 C104 1.372 . S
C104 H82 0.950 . S
C104 C103 1.372 . S
C104 C105 1.379 . S
C105 H83 0.948 . S
C105 C100 1.364 . S
C105 C104 1.379 . S
C106 C75 1.383 . S
C106 C93 1.479 . S
C106 C107 1.398 . S
C107 C72 1.382 1_545 S
C107 H84 0.952 1_545 S
C107 C106 1.398 . S
C108 C109 1.384 . S
C108 H121 0.947 . S
C108 C143 1.382 . S
C109 C108 1.384 . S
C109 C110 1.378 . S
C110 C109 1.378 . S
C110 C111 1.378 . S
C110 H122 0.952 . S
C111 C110 1.378 . S
C111 H123 0.950 . S
C111 C142 1.383 . S
H112 C131 0.947 . S
H113 C132 0.946 . S
H114 C134 0.953 . S
H115 C135 0.945 . S
H116 C137 0.952 . S
H117 C138 0.949 . S
H118 C140 0.950 . S
H119 C141 0.948 . S
H120 C143 0.951 . S
H121 C108 0.947 . S
H122 C110 0.952 . S
H123 C111 0.950 . S
N124 C127 1.382 . S
N124 C129 1.363 . S
N125 C127 1.371 . S
N125 C128 1.372 . S
N126 C128 1.361 . S
N126 C129 1.377 . S
C127 N124 1.382 . S
C127 N125 1.371 . S
C127 C130 1.480 . S
C128 N125 1.372 . S
C128 N126 1.361 . S
C128 C136 1.457 . S
C129 N124 1.363 . S
C129 N126 1.377 . S
C129 C142 1.479 . S
C130 C127 1.480 . S
C130 C131 1.383 . S
C130 C135 1.385 . S
C131 H112 0.947 . S
C131 C130 1.383 . S
C131 C132 1.388 . S
C132 H113 0.946 . S
C132 C131 1.388 . S
C132 C133 1.384 . S
C133 C132 1.384 . S
C133 C134 1.377 . S
C134 H114 0.953 . S
C134 C133 1.377 . S
C134 C135 1.369 . S
C135 H115 0.945 . S
C135 C130 1.385 . S
C135 C134 1.369 . S
C136 C128 1.457 . S
C136 C137 1.372 . S
C136 C141 1.364 . S
C137 H116 0.952 . S
C137 C136 1.372 . S
C137 C138 1.389 . S
C138 H117 0.949 . S
C138 C137 1.389 . S
C138 C139 1.387 . S
C139 C138 1.387 . S
C139 C140 1.372 . S
C140 H118 0.950 . S
C140 C139 1.372 . S
C140 C141 1.379 . S
C141 H119 0.948 . S
C141 C136 1.364 . S
C141 C140 1.379 . S
C142 C111 1.383 . S
C142 C129 1.479 . S
C142 C143 1.398 . S
C143 C108 1.382 . S
C143 H120 0.951 . S
C143 C142 1.398 . S
C144 C145 1.384 . S
C144 H157 0.947 . S
C144 C179 1.382 . S
C145 C144 1.384 . S
C145 C146 1.378 . S
C146 C145 1.378 . S
C146 C147 1.378 . S
C146 H158 0.952 . S
C147 C146 1.378 . S
C147 H159 0.950 . S
C147 C178 1.383 . S
H148 C167 0.947 1_556 S
H149 C168 0.946 . S
H150 C170 0.953 . S
H151 C171 0.945 . S
H152 C173 0.952 . S
H153 C174 0.949 . S
H154 C176 0.950 . S
H155 C177 0.948 . S
H156 C179 0.951 . S
H157 C144 0.947 . S
H158 C146 0.952 . S
H159 C147 0.950 . S
N160 C163 1.382 . S
N160 C165 1.363 1_554 S
N161 C163 1.371 . S
N161 C164 1.372 . S
N162 C164 1.361 . S
N162 C165 1.377 1_554 S
C163 N160 1.382 . S
C163 N161 1.371 . S
C163 C166 1.480 . S
C164 N161 1.372 . S
C164 N162 1.361 . S
C164 C172 1.457 . S
C165 N160 1.363 1_556 S
C165 N162 1.377 1_556 S
C165 C178 1.479 . S
C166 C163 1.480 . S
C166 C167 1.383 . S
C166 C171 1.385 . S
C167 H148 0.947 1_554 S
C167 C166 1.383 . S
C167 C168 1.388 . S
C168 H149 0.946 . S
C168 C167 1.388 . S
C168 C169 1.384 . S
C169 C168 1.384 . S
C169 C170 1.377 . S
C170 H150 0.953 . S
C170 C169 1.377 . S
C170 C171 1.369 . S
C171 H151 0.945 . S
C171 C166 1.385 . S
C171 C170 1.369 . S
C172 C164 1.457 . S
C172 C173 1.372 . S
C172 C177 1.364 . S
C173 H152 0.952 . S
C173 C172 1.372 . S
C173 C174 1.389 . S
C174 H153 0.949 . S
C174 C173 1.389 . S
C174 C175 1.387 . S
C175 C174 1.387 . S
C175 C176 1.372 . S
C176 H154 0.950 . S
C176 C175 1.372 . S
C176 C177 1.379 . S
C177 H155 0.948 . S
C177 C172 1.364 . S
C177 C176 1.379 . S
C178 C147 1.383 . S
C178 C165 1.479 . S
C178 C179 1.398 . S
C179 C144 1.382 . S
C179 H156 0.951 . S
C179 C178 1.398 . S
C180 C181 1.384 . S
C180 H193 0.948 1_455 S
C180 C215 1.382 . S
C181 C180 1.384 . S
C181 C182 1.378 . S
C182 C181 1.378 . S
C182 C183 1.378 . S
C182 H194 0.952 . S
C183 C182 1.378 . S
C183 H195 0.950 . S
C183 C214 1.383 . S
H184 C203 0.947 1_556 S
H185 C204 0.948 . S
H186 C206 0.953 . S
H187 C207 0.945 . S
H188 C209 0.947 1_655 S
H189 C210 0.953 . S
H190 C212 0.950 . S
H191 C213 0.948 . S
H192 C215 0.950 1_655 S
H193 C180 0.948 1_655 S
H194 C182 0.952 . S
H195 C183 0.950 . S
N196 C199 1.382 . S
N196 C201 1.363 1_554 S
N197 C199 1.371 . S
N197 C200 1.372 . S
N198 C200 1.361 . S
N198 C201 1.377 1_554 S
C199 N196 1.382 . S
C199 N197 1.371 . S
C199 C202 1.480 . S
C200 N197 1.372 . S
C200 N198 1.361 . S
C200 C208 1.457 . S
C201 N196 1.363 1_556 S
C201 N198 1.377 1_556 S
C201 C214 1.479 . S
C202 C199 1.480 . S
C202 C203 1.383 . S
C202 C207 1.385 . S
C203 H184 0.947 1_554 S
C203 C202 1.383 . S
C203 C204 1.387 1_455 S
C204 H185 0.948 . S
C204 C203 1.387 1_655 S
C204 C205 1.383 1_655 S
C205 C204 1.383 1_455 S
C205 C206 1.377 . S
C206 H186 0.953 . S
C206 C205 1.377 . S
C206 C207 1.369 . S
C207 H187 0.945 . S
C207 C202 1.385 . S
C207 C206 1.369 . S
C208 C200 1.457 . S
C208 C209 1.379 . S
C208 C213 1.364 . S
C209 H188 0.947 1_455 S
C209 C208 1.379 . S
C209 C210 1.387 1_455 S
C210 H189 0.953 . S
C210 C209 1.387 1_655 S
C210 C211 1.384 1_655 S
C211 C210 1.384 1_455 S
C211 C212 1.372 . S
C212 H190 0.950 . S
C212 C211 1.372 . S
C212 C213 1.379 . S
C213 H191 0.948 . S
C213 C208 1.364 . S
C213 C212 1.379 . S
C214 C183 1.383 . S
C214 C201 1.479 . S
C214 C215 1.399 . S
C215 C180 1.382 . S
C215 H192 0.950 1_455 S
C215 C214 1.399 . S
C216 C217 1.384 . S
C216 H229 0.948 1_545 S
C216 C251 1.382 . S
C217 C216 1.384 . S
C217 C218 1.378 . S
C218 C217 1.378 . S
C218 C219 1.378 . S
C218 H230 0.952 . S
C219 C218 1.378 . S
C219 H231 0.950 . S
C219 C250 1.383 . S
H220 C239 0.947 1_556 S
H221 C240 0.948 . S
H222 C242 0.953 . S
H223 C243 0.945 . S
H224 C245 0.947 1_565 S
H225 C246 0.953 . S
H226 C248 0.950 . S
H227 C249 0.948 . S
H228 C251 0.950 1_565 S
H229 C216 0.948 1_565 S
H230 C218 0.952 . S
H231 C219 0.950 . S
N232 C235 1.382 . S
N232 C237 1.363 1_554 S
N233 C235 1.371 . S
N233 C236 1.372 . S
N234 C236 1.361 . S
N234 C237 1.377 1_554 S
C235 N232 1.382 . S
C235 N233 1.371 . S
C235 C238 1.480 . S
C236 N233 1.372 . S
C236 N234 1.361 . S
C236 C244 1.457 . S
C237 N232 1.363 1_556 S
C237 N234 1.377 1_556 S
C237 C250 1.479 . S
C238 C235 1.480 . S
C238 C239 1.383 . S
C238 C243 1.385 . S
C239 H220 0.947 1_554 S
C239 C238 1.383 . S
C239 C240 1.387 1_545 S
C240 H221 0.948 . S
C240 C239 1.387 1_565 S
C240 C241 1.383 1_565 S
C241 C240 1.383 1_545 S
C241 C242 1.377 . S
C242 H222 0.953 . S
C242 C241 1.377 . S
C242 C243 1.369 . S
C243 H223 0.945 . S
C243 C238 1.385 . S
C243 C242 1.369 . S
C244 C236 1.457 . S
C244 C245 1.379 . S
C244 C249 1.364 . S
C245 H224 0.947 1_545 S
C245 C244 1.379 . S
C245 C246 1.387 1_545 S
C246 H225 0.953 . S
C246 C245 1.387 1_565 S
C246 C247 1.384 1_565 S
C247 C246 1.384 1_545 S
C247 C248 1.372 . S
C248 H226 0.950 . S
C248 C247 1.372 . S
C248 C249 1.379 . S
C249 H227 0.948 . S
C249 C244 1.364 . S
C249 C248 1.379 . S
C250 C219 1.383 . S
C250 C237 1.479 . S
C250 C251 1.399 . S
C251 C216 1.382 . S
C251 H228 0.950 1_545 S
C251 C250 1.399 . S
C252 C253 1.384 . S
C252 H265 0.947 . S
C252 C287 1.382 . S
C253 C252 1.384 . S
C253 C254 1.378 . S
C254 C253 1.378 . S
C254 C255 1.378 . S
C254 H266 0.952 . S
C255 C254 1.378 . S
C255 H267 0.950 . S
C255 C286 1.383 . S
H256 C275 0.947 . S
H257 C276 0.946 . S
H258 C278 0.953 . S
H259 C279 0.945 1_556 S
H260 C281 0.952 . S
H261 C282 0.949 . S
H262 C284 0.950 . S
H263 C285 0.948 . S
H264 C287 0.951 . S
H265 C252 0.947 . S
H266 C254 0.952 . S
H267 C255 0.950 . S
N268 C271 1.382 . S
N268 C273 1.363 . S
N269 C271 1.386 . S
N269 C272 1.368 1_554 S
N270 C272 1.361 1_554 S
N270 C273 1.377 . S
C271 N268 1.382 . S
C271 N269 1.386 . S
C271 C274 1.480 . S
C272 N269 1.368 1_556 S
C272 N270 1.361 1_556 S
C272 C280 1.457 . S
C273 N268 1.363 . S
C273 N270 1.377 . S
C273 C286 1.479 . S
C274 C271 1.480 . S
C274 C275 1.383 . S
C274 C279 1.385 . S
C275 H256 0.947 . S
C275 C274 1.383 . S
C275 C276 1.388 . S
C276 H257 0.946 . S
C276 C275 1.388 . S
C276 C277 1.384 . S
C277 C276 1.384 . S
C277 C278 1.377 . S
C278 H258 0.953 . S
C278 C277 1.377 . S
C278 C279 1.369 . S
C279 H259 0.945 1_554 S
C279 C274 1.385 . S
C279 C278 1.369 . S
C280 C272 1.457 . S
C280 C281 1.372 . S
C280 C285 1.364 . S
C281 H260 0.952 . S
C281 C280 1.372 . S
C281 C282 1.389 . S
C282 H261 0.949 . S
C282 C281 1.389 . S
C282 C283 1.387 . S
C283 C282 1.387 . S
C283 C284 1.372 . S
C284 H262 0.950 . S
C284 C283 1.372 . S
C284 C285 1.379 . S
C285 H263 0.948 . S
C285 C280 1.364 . S
C285 C284 1.379 . S
C286 C255 1.383 . S
C286 C273 1.479 . S
C286 C287 1.398 . S
C287 C252 1.382 . S
C287 H264 0.951 . S
C287 C286 1.398 . S
Tb288 C290 2.809 . S
Tb288 O308 2.484 . S
Tb288 O309 2.440 . S
Tb288 O310 2.658 1_565 S
Tb288 O311 2.409 . S
Tb288 O312 2.378 . S
Tb288 O316 2.325 1_455 S
Tb288 O319 2.341 1_565 S
Tb289 C299 2.809 . S
Tb289 O310 2.325 1_655 S
Tb289 O313 2.341 1_545 S
Tb289 O314 2.484 . S
Tb289 O315 2.440 . S
Tb289 O316 2.658 1_545 S
Tb289 O317 2.409 . S
Tb289 O318 2.378 . S
C290 Tb288 2.809 . S
C290 C291 1.514 . S
C290 O308 1.248 . S
C290 O309 1.266 . S
C291 C290 1.514 . S
C291 C292 1.359 . S
C291 C296 1.348 . S
C292 C291 1.359 . S
C292 C293 1.380 . S
C292 H320 0.929 1_455 S
C293 C292 1.380 . S
C293 C294 1.347 . S
C293 H321 0.931 1_455 S
C294 C293 1.347 . S
C294 C295 1.369 . S
C295 C294 1.369 . S
C295 C296 1.408 . S
C295 H322 0.930 . S
C296 C291 1.348 . S
C296 C295 1.408 . S
C296 H323 0.930 . S
C297 O310 1.263 1_565 S
C297 O311 1.280 . S
C298 O312 1.236 1_655 S
C298 O313 1.266 . S
C299 Tb289 2.809 . S
C299 C300 1.514 . S
C299 O314 1.248 . S
C299 O315 1.266 . S
C300 C299 1.514 . S
C300 C301 1.359 . S
C300 C305 1.348 . S
C301 C300 1.359 . S
C301 C302 1.380 . S
C301 H324 0.929 1_655 S
C302 C301 1.380 . S
C302 C303 1.347 . S
C302 H325 0.931 1_655 S
C303 C302 1.347 . S
C303 C304 1.369 . S
C304 C303 1.369 . S
C304 C305 1.408 . S
C304 H326 0.930 . S
C305 C300 1.348 . S
C305 C304 1.408 . S
C305 H327 0.930 . S
C306 O316 1.281 1_545 S
C306 O317 1.254 . S
C307 O318 1.236 1_455 S
C307 O319 1.266 . S
O308 Tb288 2.484 . S
O308 C290 1.248 . S
O309 Tb288 2.440 . S
O309 C290 1.266 . S
O310 Tb288 2.658 1_545 S
O310 Tb289 2.325 1_455 S
O310 C297 1.263 1_545 S
O311 Tb288 2.409 . S
O311 C297 1.280 . S
O312 Tb288 2.378 . S
O312 C298 1.236 1_455 S
O313 Tb289 2.341 1_565 S
O313 C298 1.266 . S
O314 Tb289 2.484 . S
O314 C299 1.248 . S
O315 Tb289 2.440 . S
O315 C299 1.266 . S
O316 Tb288 2.325 1_655 S
O316 Tb289 2.658 1_565 S
O316 C306 1.281 1_565 S
O317 Tb289 2.409 . S
O317 C306 1.254 . S
O318 Tb289 2.378 . S
O318 C307 1.236 1_655 S
O319 Tb288 2.341 1_545 S
O319 C307 1.266 . S
H320 C292 0.929 1_655 S
H321 C293 0.931 1_655 S
H322 C295 0.930 . S
H323 C296 0.930 . S
H324 C301 0.929 1_455 S
H325 C302 0.931 1_455 S
H326 C304 0.930 . S
H327 C305 0.930 . S
Tb328 C330 2.809 . S
Tb328 O348 2.484 . S
Tb328 O349 2.440 . S
Tb328 O350 2.658 . S
Tb328 O351 2.409 . S
Tb328 O352 2.378 . S
Tb328 O356 2.325 1_545 S
Tb328 O359 2.341 . S
Tb329 C339 2.809 . S
Tb329 O350 2.325 1_565 S
Tb329 O353 2.341 . S
Tb329 O354 2.509 . S
Tb329 O355 2.440 . S
Tb329 O356 2.658 . S
Tb329 O357 2.409 . S
Tb329 O358 2.378 . S
C330 Tb328 2.809 . S
C330 C331 1.514 . S
C330 O348 1.248 . S
C330 O349 1.266 . S
C331 C330 1.514 . S
C331 C332 1.359 . S
C331 C336 1.348 . S
C332 C331 1.359 . S
C332 C333 1.380 . S
C332 H360 0.929 1_545 S
C333 C332 1.380 . S
C333 C334 1.347 . S
C333 H361 0.931 1_545 S
C334 C333 1.347 . S
C334 C335 1.369 . S
C335 C334 1.369 . S
C335 C336 1.408 . S
C335 H362 0.930 . S
C336 C331 1.348 . S
C336 C335 1.408 . S
C336 H363 0.930 . S
C337 O350 1.281 . S
C337 O351 1.254 . S
C338 O352 1.236 1_565 S
C338 O353 1.266 . S
C339 Tb329 2.809 . S
C339 C340 1.514 . S
C339 O354 1.305 . S
C339 O355 1.266 . S
C340 C339 1.514 . S
C340 C341 1.359 . S
C340 C345 1.348 . S
C341 C340 1.359 . S
C341 C342 1.380 . S
C341 H364 0.929 1_565 S
C342 C341 1.380 . S
C342 C343 1.347 . S
C342 H365 0.931 1_565 S
C343 C342 1.347 . S
C343 C344 1.369 . S
C344 C343 1.369 . S
C344 C345 1.408 . S
C344 H366 0.930 . S
C345 C340 1.348 . S
C345 C344 1.408 . S
C345 H367 0.930 . S
C346 O356 1.281 . S
C346 O357 1.254 . S
C347 O358 1.236 1_545 S
C347 O359 1.266 . S
O348 Tb328 2.484 . S
O348 C330 1.248 . S
O349 Tb328 2.440 . S
O349 C330 1.266 . S
O350 Tb328 2.658 . S
O350 Tb329 2.325 1_545 S
O350 C337 1.281 . S
O351 Tb328 2.409 . S
O351 C337 1.254 . S
O352 Tb328 2.378 . S
O352 C338 1.236 1_545 S
O353 Tb329 2.341 . S
O353 C338 1.266 . S
O354 Tb329 2.509 . S
O354 C339 1.305 . S
O355 Tb329 2.440 . S
O355 C339 1.266 . S
O356 Tb328 2.325 1_565 S
O356 Tb329 2.658 . S
O356 C346 1.281 . S
O357 Tb329 2.409 . S
O357 C346 1.254 . S
O358 Tb329 2.378 . S
O358 C347 1.236 1_565 S
O359 Tb328 2.341 . S
O359 C347 1.266 . S
H360 C332 0.929 1_565 S
H361 C333 0.931 1_565 S
H362 C335 0.930 . S
H363 C336 0.930 . S
H364 C341 0.929 1_545 S
H365 C342 0.931 1_545 S
H366 C344 0.930 . S
H367 C345 0.930 . S
Tb368 C370 2.809 . S
Tb368 O388 2.484 . S
Tb368 O389 2.440 . S
Tb368 O390 2.658 . S
Tb368 O391 2.409 . S
Tb368 O392 2.378 . S
Tb368 O396 2.325 . S
Tb368 O399 2.341 . S
Tb369 C379 2.809 . S
Tb369 O390 2.325 . S
Tb369 O393 2.341 . S
Tb369 O394 2.484 . S
Tb369 O395 2.440 . S
Tb369 O396 2.658 . S
Tb369 O397 2.409 . S
Tb369 O398 2.378 . S
C370 Tb368 2.809 . S
C370 C371 1.514 . S
C370 O388 1.248 . S
C370 O389 1.266 . S
C371 C370 1.514 . S
C371 C372 1.359 . S
C371 C376 1.348 . S
C372 C371 1.359 . S
C372 C373 1.380 . S
C372 H400 0.929 . S
C373 C372 1.380 . S
C373 C374 1.347 . S
C373 H401 0.931 . S
C374 C373 1.347 . S
C374 C375 1.369 . S
C375 C374 1.369 . S
C375 C376 1.408 . S
C375 H402 0.930 . S
C376 C371 1.348 . S
C376 C375 1.408 . S
C376 H403 0.930 . S
C377 O390 1.281 . S
C377 O391 1.254 . S
C378 O392 1.236 . S
C378 O393 1.266 . S
C379 Tb369 2.809 . S
C379 C380 1.514 . S
C379 O394 1.248 . S
C379 O395 1.266 . S
C380 C379 1.514 . S
C380 C381 1.359 . S
C380 C385 1.348 . S
C381 C380 1.359 . S
C381 C382 1.380 . S
C381 H404 0.929 . S
C382 C381 1.380 . S
C382 C383 1.347 . S
C382 H405 0.931 . S
C383 C382 1.347 . S
C383 C384 1.369 . S
C384 C383 1.369 . S
C384 C385 1.408 . S
C384 H406 0.930 . S
C385 C380 1.348 . S
C385 C384 1.408 . S
C385 H407 0.930 . S
C386 O396 1.281 . S
C386 O397 1.254 . S
C387 O398 1.236 . S
C387 O399 1.266 . S
O388 Tb368 2.484 . S
O388 C370 1.248 . S
O389 Tb368 2.440 . S
O389 C370 1.266 . S
O390 Tb368 2.658 . S
O390 Tb369 2.325 . S
O390 C377 1.281 . S
O391 Tb368 2.409 . S
O391 C377 1.254 . S
O392 Tb368 2.378 . S
O392 C378 1.236 . S
O393 Tb369 2.341 . S
O393 C378 1.266 . S
O394 Tb369 2.484 . S
O394 C379 1.248 . S
O395 Tb369 2.440 . S
O395 C379 1.266 . S
O396 Tb368 2.325 . S
O396 Tb369 2.658 . S
O396 C386 1.281 . S
O397 Tb369 2.409 . S
O397 C386 1.254 . S
O398 Tb369 2.378 . S
O398 C387 1.236 . S
O399 Tb368 2.341 . S
O399 C387 1.266 . S
H400 C372 0.929 . S
H401 C373 0.931 . S
H402 C375 0.930 . S
H403 C376 0.930 . S
H404 C381 0.929 . S
H405 C382 0.931 . S
H406 C384 0.930 . S
H407 C385 0.930 . S
Tb408 C410 2.809 . S
Tb408 O428 2.484 . S
Tb408 O429 2.440 . S
Tb408 O430 2.658 1_655 S
Tb408 O431 2.409 . S
Tb408 O432 2.378 . S
Tb408 O436 2.325 . S
Tb408 O439 2.341 1_655 S
Tb409 C419 2.809 . S
Tb409 O430 2.325 . S
Tb409 O433 2.341 1_455 S
Tb409 O434 2.484 . S
Tb409 O435 2.440 . S
Tb409 O436 2.658 1_455 S
Tb409 O437 2.409 . S
Tb409 O438 2.378 . S
C410 Tb408 2.809 . S
C410 C411 1.514 . S
C410 O428 1.248 . S
C410 O429 1.266 . S
C411 C410 1.514 . S
C411 C412 1.359 . S
C411 C416 1.348 . S
C412 C411 1.359 . S
C412 C413 1.380 . S
C412 H440 0.929 . S
C413 C412 1.380 . S
C413 C414 1.347 . S
C413 H441 0.931 . S
C414 C413 1.347 . S
C414 C415 1.369 . S
C415 C414 1.369 . S
C415 C416 1.408 . S
C415 H442 0.930 . S
C416 C411 1.348 . S
C416 C415 1.408 . S
C416 H443 0.930 . S
C417 O430 1.271 1_655 S
C417 O431 1.268 . S
C418 O432 1.236 . S
C418 O433 1.266 . S
C419 Tb409 2.809 . S
C419 C420 1.514 . S
C419 O434 1.248 . S
C419 O435 1.266 . S
C420 C419 1.514 . S
C420 C421 1.359 . S
C420 C425 1.348 . S
C421 C420 1.359 . S
C421 C422 1.380 . S
C421 H444 0.929 . S
C422 C421 1.380 . S
C422 C423 1.347 . S
C422 H445 0.931 . S
C423 C422 1.347 . S
C423 C424 1.369 . S
C424 C423 1.369 . S
C424 C425 1.408 . S
C424 H446 0.930 . S
C425 C420 1.348 . S
C425 C424 1.408 . S
C425 H447 0.930 . S
C426 O436 1.266 1_455 S
C426 O437 1.275 . S
C427 O438 1.236 . S
C427 O439 1.266 . S
O428 Tb408 2.484 . S
O428 C410 1.248 . S
O429 Tb408 2.440 . S
O429 C410 1.266 . S
O430 Tb408 2.658 1_455 S
O430 Tb409 2.325 . S
O430 C417 1.271 1_455 S
O431 Tb408 2.409 . S
O431 C417 1.268 . S
O432 Tb408 2.378 . S
O432 C418 1.236 . S
O433 Tb409 2.341 1_655 S
O433 C418 1.266 . S
O434 Tb409 2.484 . S
O434 C419 1.248 . S
O435 Tb409 2.440 . S
O435 C419 1.266 . S
O436 Tb408 2.325 . S
O436 Tb409 2.658 1_655 S
O436 C426 1.266 1_655 S
O437 Tb409 2.409 . S
O437 C426 1.275 . S
O438 Tb409 2.378 . S
O438 C427 1.236 . S
O439 Tb408 2.341 1_455 S
O439 C427 1.266 . S
H440 C412 0.929 . S
H441 C413 0.931 . S
H442 C415 0.930 . S
H443 C416 0.930 . S
H444 C421 0.929 . S
H445 C422 0.931 . S
H446 C424 0.930 . S
H447 C425 0.930 . S
C448 C449 1.351 . S
C448 C450 1.327 . S
C448 H473 0.950 . S
C449 C448 1.351 . S
C449 C465 1.346 1_545 S
C450 C448 1.327 . S
C450 C469 1.436 . S
C450 H474 0.950 . S
C451 C468 1.574 . S
C451 C470 1.357 1_565 S
C451 H475 0.949 . S
H452 C456 0.949 . S
C453 C454 1.325 1_565 S
C453 C455 1.327 . S
C453 H476 0.950 . S
C454 C453 1.325 1_545 S
C454 C466 1.372 . S
C455 C453 1.327 . S
C455 C471 1.411 1_565 S
C455 H477 0.950 . S
C456 H452 0.949 . S
C456 C464 1.574 . S
C456 C472 1.385 . S
H457 C465 0.950 . S
H458 C463 0.950 . S
H459 C464 0.949 . S
H460 C466 0.950 . S
H461 C467 0.950 . S
H462 C468 0.949 . S
C463 H458 0.950 . S
C463 C465 1.327 . S
C463 C469 1.421 1_565 S
C464 C456 1.574 . S
C464 H459 0.949 . S
C464 C470 1.380 . S
C465 C449 1.346 1_565 S
C465 H457 0.950 . S
C465 C463 1.327 . S
C466 C454 1.372 . S
C466 H460 0.950 . S
C466 C467 1.327 . S
C467 H461 0.950 . S
C467 C466 1.327 . S
C467 C471 1.447 . S
C468 C451 1.574 . S
C468 H462 0.949 . S
C468 C472 1.352 1_565 S
C469 C450 1.436 . S
C469 C463 1.421 1_545 S
C469 C470 1.523 . S
C470 C451 1.357 1_545 S
C470 C464 1.380 . S
C470 C469 1.523 . S
C471 C455 1.411 1_545 S
C471 C467 1.447 . S
C471 C472 1.523 . S
C472 C456 1.385 . S
C472 C468 1.352 1_545 S
C472 C471 1.523 . S
H473 C448 0.950 . S
H474 C450 0.950 . S
H475 C451 0.949 . S
H476 C453 0.950 . S
H477 C455 0.950 . S
C478 C479 1.349 . S
C478 C480 1.327 . S
C478 H503 0.950 . S
C479 C478 1.349 . S
C479 C495 1.349 . S
C480 C478 1.327 . S
C480 C499 1.429 . S
C480 H504 0.950 . S
C481 C498 1.574 . S
C481 C500 1.368 . S
C481 H505 0.949 . S
H482 C486 0.949 . S
C483 C484 1.349 . S
C483 C485 1.327 . S
C483 H506 0.950 . S
C484 C483 1.349 . S
C484 C496 1.349 . S
C485 C483 1.327 . S
C485 C501 1.429 . S
C485 H507 0.950 . S
C486 H482 0.949 . S
C486 C494 1.574 . S
C486 C502 1.368 . S
H487 C495 0.950 . S
H488 C493 0.950 . S
H489 C494 0.949 . S
H490 C496 0.950 . S
H491 C497 0.950 . S
H492 C498 0.949 . S
C493 H488 0.950 . S
C493 C495 1.327 . S
C493 C499 1.429 . S
C494 C486 1.574 . S
C494 H489 0.949 . S
C494 C500 1.368 . S
C495 C479 1.349 . S
C495 H487 0.950 . S
C495 C493 1.327 . S
C496 C484 1.349 . S
C496 H490 0.950 . S
C496 C497 1.327 . S
C497 H491 0.950 . S
C497 C496 1.327 . S
C497 C501 1.429 . S
C498 C481 1.574 . S
C498 H492 0.949 . S
C498 C502 1.368 . S
C499 C480 1.429 . S
C499 C493 1.429 . S
C499 C500 1.523 . S
C500 C481 1.368 . S
C500 C494 1.368 . S
C500 C499 1.523 . S
C501 C485 1.429 . S
C501 C497 1.429 . S
C501 C502 1.523 . S
C502 C486 1.368 . S
C502 C498 1.368 . S
C502 C501 1.523 . S
H503 C478 0.950 . S
H504 C480 0.950 . S
H505 C481 0.949 . S
H506 C483 0.950 . S
H507 C485 0.950 . S
C508 C509 1.349 . S
C508 C510 1.327 . S
C508 H533 0.950 . S
C509 C508 1.349 . S
C509 C525 1.349 . S
C510 C508 1.327 . S
C510 C529 1.429 . S
C510 H534 0.950 . S
C511 C528 1.574 . S
C511 C530 1.368 . S
C511 H535 0.949 . S
H512 C516 0.949 . S
C513 C514 1.349 . S
C513 C515 1.327 . S
C513 H536 0.950 . S
C514 C513 1.349 . S
C514 C526 1.349 . S
C515 C513 1.327 . S
C515 C531 1.429 . S
C515 H537 0.950 . S
C516 H512 0.949 . S
C516 C524 1.574 . S
C516 C532 1.368 . S
H517 C525 0.950 . S
H518 C523 0.950 . S
H519 C524 0.949 . S
H520 C526 0.950 . S
H521 C527 0.950 . S
H522 C528 0.949 . S
C523 H518 0.950 . S
C523 C525 1.327 . S
C523 C529 1.429 . S
C524 C516 1.574 . S
C524 H519 0.949 . S
C524 C530 1.368 . S
C525 C509 1.349 . S
C525 H517 0.950 . S
C525 C523 1.327 . S
C526 C514 1.349 . S
C526 H520 0.950 . S
C526 C527 1.327 . S
C527 H521 0.950 . S
C527 C526 1.327 . S
C527 C531 1.429 . S
C528 C511 1.574 . S
C528 H522 0.949 . S
C528 C532 1.368 . S
C529 C510 1.429 . S
C529 C523 1.429 . S
C529 C530 1.523 . S
C530 C511 1.368 . S
C530 C524 1.368 . S
C530 C529 1.523 . S
C531 C515 1.429 . S
C531 C527 1.429 . S
C531 C532 1.523 . S
C532 C516 1.368 . S
C532 C528 1.368 . S
C532 C531 1.523 . S
H533 C508 0.950 . S
H534 C510 0.950 . S
H535 C511 0.949 . S
H536 C513 0.950 . S
H537 C515 0.950 . S
C538 C539 1.346 1_655 S
C538 C540 1.327 . S
C538 H563 0.950 . S
C539 C538 1.346 1_455 S
C539 C555 1.351 . S
C540 C538 1.327 . S
C540 C559 1.421 1_655 S
C540 H564 0.950 . S
C541 C558 1.574 . S
C541 C560 1.380 . S
C541 H565 0.949 . S
H542 C546 0.949 . S
C543 C544 1.373 . S
C543 C545 1.327 . S
C543 H566 0.950 . S
C544 C543 1.373 . S
C544 C556 1.326 1_455 S
C545 C543 1.327 . S
C545 C561 1.447 . S
C545 H567 0.950 . S
C546 H542 0.949 . S
C546 C554 1.574 . S
C546 C562 1.352 1_655 S
H547 C555 0.950 . S
H548 C553 0.950 . S
H549 C554 0.949 . S
H550 C556 0.950 . S
H551 C557 0.950 . S
H552 C558 0.949 . S
C553 H548 0.950 . S
C553 C555 1.327 . S
C553 C559 1.436 . S
C554 C546 1.574 . S
C554 H549 0.949 . S
C554 C560 1.357 1_655 S
C555 C539 1.351 . S
C555 H547 0.950 . S
C555 C553 1.327 . S
C556 C544 1.326 1_655 S
C556 H550 0.950 . S
C556 C557 1.327 . S
C557 H551 0.950 . S
C557 C556 1.327 . S
C557 C561 1.412 1_655 S
C558 C541 1.574 . S
C558 H552 0.949 . S
C558 C562 1.385 . S
C559 C540 1.421 1_455 S
C559 C553 1.436 . S
C559 C560 1.523 . S
C560 C541 1.380 . S
C560 C554 1.357 1_455 S
C560 C559 1.523 . S
C561 C545 1.447 . S
C561 C557 1.412 1_455 S
C561 C562 1.523 . S
C562 C546 1.352 1_455 S
C562 C558 1.385 . S
C562 C561 1.523 . S
H563 C538 0.950 . S
H564 C540 0.950 . S
H565 C541 0.949 . S
H566 C543 0.950 . S
H567 C545 0.950 . S
C568 C569 1.351 1_565 S
C568 C570 1.327 . S
C568 H593 0.950 . S
C569 C568 1.351 1_545 S
C569 C585 1.346 . S
C570 C568 1.327 . S
C570 C589 1.426 . S
C570 H594 0.950 . S
C571 C588 1.574 1_554 S
C571 C590 1.368 1_545 S
C571 H595 0.949 . S
H572 C576 0.949 . S
C573 C574 1.336 1_545 S
C573 C575 1.327 . S
C573 H596 0.950 . S
C574 C573 1.336 1_565 S
C574 C586 1.362 . S
C575 C573 1.327 . S
C575 C591 1.421 1_545 S
C575 H597 0.950 . S
C576 H572 0.949 . S
C576 C584 1.574 1_556 S
C576 C592 1.373 . S
H577 C585 0.950 . S
H578 C583 0.950 . S
H579 C584 0.949 . S
H580 C586 0.950 . S
H581 C587 0.950 . S
H582 C588 0.949 . S
C583 H578 0.950 . S
C583 C585 1.327 . S
C583 C589 1.431 1_545 S
C584 C576 1.574 1_554 S
C584 H579 0.949 . S
C584 C590 1.368 . S
C585 C569 1.346 . S
C585 H577 0.950 . S
C585 C583 1.327 . S
C586 C574 1.362 . S
C586 H580 0.950 . S
C586 C587 1.327 . S
C587 H581 0.950 . S
C587 C586 1.327 . S
C587 C591 1.436 . S
C588 C571 1.574 1_556 S
C588 H582 0.949 . S
C588 C592 1.363 1_545 S
C589 C570 1.426 . S
C589 C583 1.431 1_565 S
C589 C590 1.523 . S
C590 C571 1.368 1_565 S
C590 C584 1.368 . S
C590 C589 1.523 . S
C591 C575 1.421 1_565 S
C591 C587 1.436 . S
C591 C592 1.523 . S
C592 C576 1.373 . S
C592 C588 1.363 1_565 S
C592 C591 1.523 . S
H593 C568 0.950 . S
H594 C570 0.950 . S
H595 C571 0.949 . S
H596 C573 0.950 . S
H597 C575 0.950 . S
C598 C599 1.349 . S
C598 C600 1.327 . S
C598 H623 0.950 . S
C599 C598 1.349 . S
C599 C615 1.349 . S
C600 C598 1.327 . S
C600 C619 1.429 . S
C600 H624 0.950 . S
C601 C618 1.574 1_554 S
C601 C620 1.368 . S
C601 H625 0.949 . S
H602 C606 0.949 . S
C603 C604 1.349 . S
C603 C605 1.327 . S
C603 H626 0.950 . S
C604 C603 1.349 . S
C604 C616 1.349 . S
C605 C603 1.327 . S
C605 C621 1.429 . S
C605 H627 0.950 . S
C606 H602 0.949 . S
C606 C614 1.574 . S
C606 C622 1.368 . S
H607 C615 0.950 . S
H608 C613 0.950 . S
H609 C614 0.949 1_554 S
H610 C616 0.950 . S
H611 C617 0.950 . S
H612 C618 0.949 . S
C613 H608 0.950 . S
C613 C615 1.327 . S
C613 C619 1.429 . S
C614 C606 1.574 . S
C614 H609 0.949 1_556 S
C614 C620 1.368 1_556 S
C615 C599 1.349 . S
C615 H607 0.950 . S
C615 C613 1.327 . S
C616 C604 1.349 . S
C616 H610 0.950 . S
C616 C617 1.327 . S
C617 H611 0.950 . S
C617 C616 1.327 . S
C617 C621 1.429 . S
C618 C601 1.574 1_556 S
C618 H612 0.949 . S
C618 C622 1.368 . S
C619 C600 1.429 . S
C619 C613 1.429 . S
C619 C620 1.523 . S
C620 C601 1.368 . S
C620 C614 1.368 1_554 S
C620 C619 1.523 . S
C621 C605 1.429 . S
C621 C617 1.429 . S
C621 C622 1.523 . S
C622 C606 1.368 . S
C622 C618 1.368 . S
C622 C621 1.523 . S
H623 C598 0.950 . S
H624 C600 0.950 . S
H625 C601 0.949 . S
H626 C603 0.950 . S
H627 C605 0.950 . S
C628 C629 1.349 . S
C628 C630 1.327 . S
C628 H653 0.950 . S
C629 C628 1.349 . S
C629 C645 1.349 . S
C630 C628 1.327 . S
C630 C649 1.429 . S
C630 H654 0.950 . S
C631 C648 1.574 1_554 S
C631 C650 1.368 . S
C631 H655 0.949 . S
H632 C636 0.949 . S
C633 C634 1.349 . S
C633 C635 1.327 . S
C633 H656 0.950 . S
C634 C633 1.349 . S
C634 C646 1.349 . S
C635 C633 1.327 . S
C635 C651 1.429 . S
C635 H657 0.950 . S
C636 H632 0.949 . S
C636 C644 1.574 1_556 S
C636 C652 1.368 . S
H637 C645 0.950 . S
H638 C643 0.950 . S
H639 C644 0.949 . S
H640 C646 0.950 . S
H641 C647 0.950 . S
H642 C648 0.949 . S
C643 H638 0.950 . S
C643 C645 1.327 . S
C643 C649 1.429 . S
C644 C636 1.574 1_554 S
C644 H639 0.949 . S
C644 C650 1.368 . S
C645 C629 1.349 . S
C645 H637 0.950 . S
C645 C643 1.327 . S
C646 C634 1.349 . S
C646 H640 0.950 . S
C646 C647 1.327 . S
C647 H641 0.950 . S
C647 C646 1.327 . S
C647 C651 1.429 . S
C648 C631 1.574 1_556 S
C648 H642 0.949 . S
C648 C652 1.368 . S
C649 C630 1.429 . S
C649 C643 1.429 . S
C649 C650 1.523 . S
C650 C631 1.368 . S
C650 C644 1.368 . S
C650 C649 1.523 . S
C651 C635 1.429 . S
C651 C647 1.429 . S
C651 C652 1.523 . S
C652 C636 1.368 . S
C652 C648 1.368 . S
C652 C651 1.523 . S
H653 C628 0.950 . S
H654 C630 0.950 . S
H655 C631 0.949 . S
H656 C633 0.950 . S
H657 C635 0.950 . S
C658 C659 1.346 1_455 S
C658 C660 1.327 . S
C658 H683 0.950 . S
C659 C658 1.346 1_655 S
C659 C675 1.352 . S
C660 C658 1.327 . S
C660 C679 1.420 1_455 S
C660 H684 0.950 . S
C661 C678 1.574 1_554 S
C661 C680 1.382 . S
C661 H685 0.949 . S
H662 C666 0.949 . S
C663 C664 1.378 . S
C663 C665 1.327 . S
C663 H686 0.950 . S
C664 C663 1.378 . S
C664 C676 1.321 1_655 S
C665 C663 1.327 . S
C665 C681 1.451 . S
C665 H687 0.950 . S
C666 H662 0.949 . S
C666 C674 1.574 . S
C666 C682 1.349 1_455 S
H667 C675 0.950 . S
H668 C673 0.950 . S
H669 C674 0.949 . S
H670 C676 0.950 . S
H671 C677 0.950 . S
H672 C678 0.949 . S
C673 H668 0.950 . S
C673 C675 1.327 . S
C673 C679 1.438 . S
C674 C666 1.574 . S
C674 H669 0.949 . S
C674 C680 1.355 1_456 S
C675 C659 1.352 . S
C675 H667 0.950 . S
C675 C673 1.327 . S
C676 C664 1.321 1_455 S
C676 H670 0.950 . S
C676 C677 1.327 . S
C677 H671 0.950 . S
C677 C676 1.327 . S
C677 C681 1.408 1_455 S
C678 C661 1.574 1_556 S
C678 H672 0.949 . S
C678 C682 1.389 . S
C679 C660 1.420 1_655 S
C679 C673 1.438 . S
C679 C680 1.523 . S
C680 C661 1.382 . S
C680 C674 1.355 1_654 S
C680 C679 1.523 . S
C681 C665 1.451 . S
C681 C677 1.408 1_655 S
C681 C682 1.523 . S
C682 C666 1.349 1_655 S
C682 C678 1.389 . S
C682 C681 1.523 . S
H683 C658 0.950 . S
H684 C660 0.950 . S
H685 C661 0.949 . S
H686 C663 0.950 . S
H687 C665 0.950 . S
C688 C689 1.349 1_655 S
C688 C690 1.327 . S
C688 H713 0.950 . S
C689 C688 1.349 1_455 S
C689 C705 1.349 . S
C690 C688 1.327 . S
C690 C709 1.429 . S
C690 H714 0.950 . S
C691 C708 1.574 1_455 S
C691 C710 1.368 1_455 S
C691 H715 0.949 . S
H692 C696 0.949 . S
C693 C694 1.349 . S
C693 C695 1.327 . S
C693 H716 0.950 . S
C694 C693 1.349 . S
C694 C706 1.349 . S
C695 C693 1.327 . S
C695 C711 1.429 . S
C695 H717 0.935 1_655 S
C696 H692 0.949 . S
C696 C704 1.574 . S
C696 C712 1.368 . S
H697 C705 0.950 . S
H698 C703 0.950 . S
H699 C704 0.949 . S
H700 C706 0.950 . S
H701 C707 0.950 . S
H702 C708 0.949 1_455 S
C703 H698 0.950 . S
C703 C705 1.327 . S
C703 C709 1.429 1_455 S
C704 C696 1.574 . S
C704 H699 0.949 . S
C704 C710 1.368 . S
C705 C689 1.349 . S
C705 H697 0.950 . S
C705 C703 1.327 . S
C706 C694 1.349 . S
C706 H700 0.950 . S
C706 C707 1.327 . S
C707 H701 0.950 . S
C707 C706 1.327 . S
C707 C711 1.429 . S
C708 C691 1.574 1_655 S
C708 H702 0.949 1_655 S
C708 C712 1.368 . S
C709 C690 1.429 . S
C709 C703 1.429 1_655 S
C709 C710 1.523 . S
C710 C691 1.368 1_655 S
C710 C704 1.368 . S
C710 C709 1.523 . S
C711 C695 1.429 . S
C711 C707 1.429 . S
C711 C712 1.523 . S
C712 C696 1.368 . S
C712 C708 1.368 . S
C712 C711 1.523 . S
H713 C688 0.950 . S
H714 C690 0.950 . S
H715 C691 0.949 . S
H716 C693 0.950 . S
H717 C695 0.935 1_455 S
C718 C719 1.349 . S
C718 C720 1.327 . S
C718 H743 0.950 . S
C719 C718 1.349 . S
C719 C735 1.349 1_545 S
C720 C718 1.327 . S
C720 C739 1.429 1_545 S
C720 H744 0.950 . S
C721 C738 1.574 . S
C721 C740 1.368 . S
C721 H745 0.949 . S
H722 C726 0.942 1_545 S
C723 C724 1.349 . S
C723 C725 1.327 . S
C723 H746 0.950 . S
C724 C723 1.349 . S
C724 C736 1.349 . S
C725 C723 1.327 . S
C725 C741 1.429 . S
C725 H747 0.950 . S
C726 H722 0.942 1_565 S
C726 C734 1.571 1_565 S
C726 C742 1.379 . S
H727 C735 0.950 . S
H728 C733 0.950 . S
H729 C734 0.949 . S
H730 C736 0.950 . S
H731 C737 0.950 1_545 S
H732 C738 0.949 . S
C733 H728 0.950 . S
C733 C735 1.327 . S
C733 C739 1.429 . S
C734 C726 1.571 1_545 S
C734 H729 0.949 . S
C734 C740 1.368 1_545 S
C735 C719 1.349 1_565 S
C735 H727 0.950 . S
C735 C733 1.327 . S
C736 C724 1.349 . S
C736 H730 0.950 . S
C736 C737 1.327 . S
C737 H731 0.950 1_565 S
C737 C736 1.327 . S
C737 C741 1.429 . S
C738 C721 1.574 . S
C738 H732 0.949 . S
C738 C742 1.368 . S
C739 C720 1.429 1_565 S
C739 C733 1.429 . S
C739 C740 1.523 . S
C740 C721 1.368 . S
C740 C734 1.368 1_565 S
C740 C739 1.523 . S
C741 C725 1.429 . S
C741 C737 1.429 . S
C741 C742 1.523 . S
C742 C726 1.379 . S
C742 C738 1.368 . S
C742 C741 1.523 . S
H743 C718 0.950 . S
H744 C720 0.950 . S
H745 C721 0.949 . S
H746 C723 0.950 . S
H747 C725 0.950 . S
C748 C749 1.349 . S
C748 C750 1.327 . S
C748 H773 0.950 . S
C749 C748 1.349 . S
C749 C765 1.349 . S
C750 C748 1.327 . S
C750 C769 1.429 . S
C750 H774 0.950 . S
C751 C768 1.574 . S
C751 C770 1.368 . S
C751 H775 0.949 . S
H752 C756 0.949 . S
C753 C754 1.349 . S
C753 C755 1.327 . S
C753 H776 0.950 . S
C754 C753 1.349 . S
C754 C766 1.349 . S
C755 C753 1.327 . S
C755 C771 1.429 . S
C755 H777 0.950 . S
C756 H752 0.949 . S
C756 C764 1.574 . S
C756 C772 1.368 . S
H757 C765 0.950 . S
H758 C763 0.950 . S
H759 C764 0.949 . S
H760 C766 0.950 . S
H761 C767 0.950 . S
H762 C768 0.949 . S
C763 H758 0.950 . S
C763 C765 1.327 . S
C763 C769 1.429 . S
C764 C756 1.574 . S
C764 H759 0.949 . S
C764 C770 1.368 . S
C765 C749 1.349 . S
C765 H757 0.950 . S
C765 C763 1.327 . S
C766 C754 1.349 . S
C766 H760 0.950 . S
C766 C767 1.327 . S
C767 H761 0.950 . S
C767 C766 1.327 . S
C767 C771 1.429 . S
C768 C751 1.574 . S
C768 H762 0.949 . S
C768 C772 1.368 . S
C769 C750 1.429 . S
C769 C763 1.429 . S
C769 C770 1.523 . S
C770 C751 1.368 . S
C770 C764 1.368 . S
C770 C769 1.523 . S
C771 C755 1.429 . S
C771 C767 1.429 . S
C771 C772 1.523 . S
C772 C756 1.368 . S
C772 C768 1.368 . S
C772 C771 1.523 . S
H773 C748 0.950 . S
H774 C750 0.950 . S
H775 C751 0.949 . S
H776 C753 0.950 . S
H777 C755 0.950 . S
C778 C779 1.349 . S
C778 C780 1.327 . S
C778 H803 0.950 . S
C779 C778 1.349 . S
C779 C795 1.349 . S
C780 C778 1.327 . S
C780 C799 1.429 . S
C780 H804 0.950 . S
C781 C798 1.574 . S
C781 C800 1.368 . S
C781 H805 0.949 . S
H782 C786 0.949 . S
C783 C784 1.349 . S
C783 C785 1.327 . S
C783 H806 0.950 . S
C784 C783 1.349 . S
C784 C796 1.349 . S
C785 C783 1.327 . S
C785 C801 1.429 . S
C785 H807 0.950 . S
C786 H782 0.949 . S
C786 C794 1.574 . S
C786 C802 1.368 . S
H787 C795 0.950 . S
H788 C793 0.950 . S
H789 C794 0.949 . S
H790 C796 0.950 . S
H791 C797 0.950 . S
H792 C798 0.949 . S
C793 H788 0.950 . S
C793 C795 1.327 . S
C793 C799 1.429 . S
C794 C786 1.574 . S
C794 H789 0.949 . S
C794 C800 1.368 . S
C795 C779 1.349 . S
C795 H787 0.950 . S
C795 C793 1.327 . S
C796 C784 1.349 . S
C796 H790 0.950 . S
C796 C797 1.327 . S
C797 H791 0.950 . S
C797 C796 1.327 . S
C797 C801 1.429 . S
C798 C781 1.574 . S
C798 H792 0.949 . S
C798 C802 1.368 . S
C799 C780 1.429 . S
C799 C793 1.429 . S
C799 C800 1.523 . S
C800 C781 1.368 . S
C800 C794 1.368 . S
C800 C799 1.523 . S
C801 C785 1.429 . S
C801 C797 1.429 . S
C801 C802 1.523 . S
C802 C786 1.368 . S
C802 C798 1.368 . S
C802 C801 1.523 . S
H803 C778 0.950 . S
H804 C780 0.950 . S
H805 C781 0.949 . S
H806 C783 0.950 . S
H807 C785 0.950 . S
C808 C809 1.349 . S
C808 C810 1.327 . S
C808 H833 0.950 . S
C809 C808 1.349 . S
C809 C825 1.349 1_655 S
C810 C808 1.327 . S
C810 C829 1.429 1_655 S
C810 H834 0.950 . S
C811 C828 1.574 . S
C811 C830 1.368 1_556 S
C811 H835 0.949 . S
H812 C816 0.949 1_655 S
C813 C814 1.349 . S
C813 C815 1.327 . S
C813 H836 0.950 . S
C814 C813 1.349 . S
C814 C826 1.349 . S
C815 C813 1.327 . S
C815 C831 1.429 . S
C815 H837 0.950 . S
C816 H812 0.949 1_455 S
C816 C824 1.574 1_455 S
C816 C832 1.368 1_554 S
H817 C825 0.950 . S
H818 C823 0.950 . S
H819 C824 0.949 . S
H820 C826 0.950 . S
H821 C827 0.950 . S
H822 C828 0.949 . S
C823 H818 0.950 . S
C823 C825 1.327 . S
C823 C829 1.429 . S
C824 C816 1.574 1_655 S
C824 H819 0.949 . S
C824 C830 1.368 1_655 S
C825 C809 1.349 1_455 S
C825 H817 0.950 . S
C825 C823 1.327 . S
C826 C814 1.349 . S
C826 H820 0.950 . S
C826 C827 1.327 . S
C827 H821 0.950 . S
C827 C826 1.327 . S
C827 C831 1.429 . S
C828 C811 1.574 . S
C828 H822 0.949 . S
C828 C832 1.368 . S
C829 C810 1.429 1_455 S
C829 C823 1.429 . S
C829 C830 1.523 . S
C830 C811 1.368 1_554 S
C830 C824 1.368 1_455 S
C830 C829 1.523 . S
C831 C815 1.429 . S
C831 C827 1.429 . S
C831 C832 1.523 . S
C832 C816 1.368 1_556 S
C832 C828 1.368 . S
C832 C831 1.523 . S
H833 C808 0.950 . S
H834 C810 0.950 . S
H835 C811 0.949 . S
H836 C813 0.950 . S
H837 C815 0.950 . S
C838 C839 1.349 . S
C838 C840 1.327 . S
C838 H863 0.950 . S
C839 C838 1.349 . S
C839 C855 1.349 1_565 S
C840 C838 1.327 . S
C840 C859 1.429 1_565 S
C840 H864 0.950 . S
C841 C858 1.574 1_554 S
C841 C860 1.368 . S
C841 H865 0.949 . S
H842 C846 0.949 . S
C843 C844 1.349 . S
C843 C845 1.327 . S
C843 H866 0.950 . S
C844 C843 1.349 . S
C844 C856 1.349 . S
C845 C843 1.327 . S
C845 C861 1.429 . S
C845 H867 0.950 . S
C846 H842 0.949 . S
C846 C854 1.574 . S
C846 C862 1.368 1_565 S
H847 C855 0.950 . S
H848 C853 0.950 . S
H849 C854 0.949 1_554 S
H850 C856 0.950 1_565 S
H851 C857 0.950 1_565 S
H852 C858 0.949 . S
C853 H848 0.950 . S
C853 C855 1.327 . S
C853 C859 1.429 . S
C854 C846 1.574 . S
C854 H849 0.949 1_556 S
C854 C860 1.368 1_566 S
C855 C839 1.349 1_545 S
C855 H847 0.950 . S
C855 C853 1.327 . S
C856 C844 1.349 . S
C856 H850 0.950 1_545 S
C856 C857 1.327 . S
C857 H851 0.950 1_545 S
C857 C856 1.327 . S
C857 C861 1.429 . S
C858 C841 1.574 1_556 S
C858 H852 0.949 . S
C858 C862 1.368 . S
C859 C840 1.429 1_545 S
C859 C853 1.429 . S
C859 C860 1.523 . S
C860 C841 1.368 . S
C860 C854 1.368 1_544 S
C860 C859 1.523 . S
C861 C845 1.429 . S
C861 C857 1.429 . S
C861 C862 1.523 . S
C862 C846 1.368 1_545 S
C862 C858 1.368 . S
C862 C861 1.523 . S
H863 C838 0.950 . S
H864 C840 0.950 . S
H865 C841 0.949 . S
H866 C843 0.950 . S
H867 C845 0.950 . S
C868 C869 1.349 . S
C868 C870 1.327 . S
C868 H893 0.950 . S
C869 C868 1.349 . S
C869 C885 1.349 . S
C870 C868 1.327 . S
C870 C889 1.429 . S
C870 H894 0.950 . S
C871 C888 1.574 . S
C871 C890 1.368 1_556 S
C871 H895 0.949 . S
H872 C876 0.949 . S
C873 C874 1.349 . S
C873 C875 1.327 . S
C873 H896 0.950 . S
C874 C873 1.349 . S
C874 C886 1.349 . S
C875 C873 1.327 . S
C875 C891 1.429 . S
C875 H897 0.950 . S
C876 H872 0.949 . S
C876 C884 1.574 . S
C876 C892 1.368 1_554 S
H877 C885 0.950 . S
H878 C883 0.950 . S
H879 C884 0.949 . S
H880 C886 0.950 . S
H881 C887 0.950 . S
H882 C888 0.949 . S
C883 H878 0.950 . S
C883 C885 1.327 . S
C883 C889 1.429 . S
C884 C876 1.574 . S
C884 H879 0.949 . S
C884 C890 1.368 . S
C885 C869 1.349 . S
C885 H877 0.950 . S
C885 C883 1.327 . S
C886 C874 1.349 . S
C886 H880 0.950 . S
C886 C887 1.327 . S
C887 H881 0.950 . S
C887 C886 1.327 . S
C887 C891 1.429 . S
C888 C871 1.574 . S
C888 H882 0.949 . S
C888 C892 1.368 . S
C889 C870 1.429 . S
C889 C883 1.429 . S
C889 C890 1.523 . S
C890 C871 1.368 1_554 S
C890 C884 1.368 . S
C890 C889 1.523 . S
C891 C875 1.429 . S
C891 C887 1.429 . S
C891 C892 1.523 . S
C892 C876 1.368 1_556 S
C892 C888 1.368 . S
C892 C891 1.523 . S
H893 C868 0.950 . S
H894 C870 0.950 . S
H895 C871 0.949 . S
H896 C873 0.950 . S
H897 C875 0.950 . S
C898 C899 1.349 . S
C898 C900 1.327 . S
C898 H923 0.950 . S
C899 C898 1.349 . S
C899 C915 1.349 . S
C900 C898 1.327 . S
C900 C919 1.429 . S
C900 H924 0.950 . S
C901 C918 1.574 . S
C901 C920 1.368 . S
C901 H925 0.949 . S
H902 C906 0.949 . S
C903 C904 1.349 . S
C903 C905 1.327 . S
C903 H926 0.950 . S
C904 C903 1.349 . S
C904 C916 1.349 . S
C905 C903 1.327 . S
C905 C921 1.429 . S
C905 H927 0.950 . S
C906 H902 0.949 . S
C906 C914 1.574 . S
C906 C922 1.368 . S
H907 C915 0.950 . S
H908 C913 0.950 . S
H909 C914 0.949 . S
H910 C916 0.950 . S
H911 C917 0.950 . S
H912 C918 0.949 . S
C913 H908 0.950 . S
C913 C915 1.327 . S
C913 C919 1.429 . S
C914 C906 1.574 . S
C914 H909 0.949 . S
C914 C920 1.368 1_556 S
C915 C899 1.349 . S
C915 H907 0.950 . S
C915 C913 1.327 . S
C916 C904 1.349 . S
C916 H910 0.950 . S
C916 C917 1.327 . S
C917 H911 0.950 . S
C917 C916 1.327 . S
C917 C921 1.429 . S
C918 C901 1.574 . S
C918 H912 0.949 . S
C918 C922 1.368 1_554 S
C919 C900 1.429 . S
C919 C913 1.429 . S
C919 C920 1.523 . S
C920 C901 1.368 . S
C920 C914 1.368 1_554 S
C920 C919 1.523 . S
C921 C905 1.429 . S
C921 C917 1.429 . S
C921 C922 1.523 . S
C922 C906 1.368 . S
C922 C918 1.368 1_556 S
C922 C921 1.523 . S
H923 C898 0.950 . S
H924 C900 0.950 . S
H925 C901 0.949 . S
H926 C903 0.950 . S
H927 C905 0.950 . S
C928 C929 1.351 . S
C928 C930 1.330 . S
C928 H953 0.948 1_455 S
C929 C928 1.351 . S
C929 C945 1.349 . S
C930 C928 1.330 . S
C930 C949 1.429 . S
C930 H954 0.950 . S
C931 C948 1.574 . S
C931 C950 1.368 . S
C931 H955 0.949 . S
H932 C936 0.949 . S
C933 C934 1.349 . S
C933 C935 1.327 . S
C933 H956 0.950 . S
C934 C933 1.349 . S
C934 C946 1.349 . S
C935 C933 1.327 . S
C935 C951 1.429 . S
C935 H957 0.950 . S
C936 H932 0.949 . S
C936 C944 1.574 . S
C936 C952 1.368 . S
H937 C945 0.950 . S
H938 C943 0.950 . S
H939 C944 0.949 . S
H940 C946 0.950 . S
H941 C947 0.950 . S
H942 C948 0.949 . S
C943 H938 0.950 . S
C943 C945 1.327 . S
C943 C949 1.429 . S
C944 C936 1.574 . S
C944 H939 0.949 . S
C944 C950 1.368 . S
C945 C929 1.349 . S
C945 H937 0.950 . S
C945 C943 1.327 . S
C946 C934 1.349 . S
C946 H940 0.950 . S
C946 C947 1.327 . S
C947 H941 0.950 . S
C947 C946 1.327 . S
C947 C951 1.429 . S
C948 C931 1.574 . S
C948 H942 0.949 . S
C948 C952 1.368 . S
C949 C930 1.429 . S
C949 C943 1.429 . S
C949 C950 1.523 . S
C950 C931 1.368 . S
C950 C944 1.368 . S
C950 C949 1.523 . S
C951 C935 1.429 . S
C951 C947 1.429 . S
C951 C952 1.523 . S
C952 C936 1.368 . S
C952 C948 1.368 . S
C952 C951 1.523 . S
H953 C928 0.948 1_655 S
H954 C930 0.950 . S
H955 C931 0.949 . S
H956 C933 0.950 . S
H957 C935 0.950 . S
C958 C959 1.349 1_565 S
C958 C960 1.327 . S
C958 H983 0.950 . S
C959 C958 1.349 1_545 S
C959 C975 1.349 . S
C960 C958 1.327 . S
C960 C979 1.429 1_565 S
C960 H984 0.950 . S
C961 C978 1.574 . S
C961 C980 1.368 . S
C961 H985 0.949 . S
H962 C966 0.949 . S
C963 C964 1.349 . S
C963 C965 1.327 . S
C963 H986 0.950 . S
C964 C963 1.349 . S
C964 C976 1.349 1_545 S
C965 C963 1.327 . S
C965 C981 1.429 . S
C965 H987 0.950 . S
C966 H962 0.949 . S
C966 C974 1.574 . S
C966 C982 1.368 1_565 S
H967 C975 0.950 . S
H968 C973 0.950 . S
H969 C974 0.949 . S
H970 C976 0.950 . S
H971 C977 0.950 . S
H972 C978 0.949 . S
C973 H968 0.950 . S
C973 C975 1.327 . S
C973 C979 1.429 . S
C974 C966 1.574 . S
C974 H969 0.949 . S
C974 C980 1.368 1_565 S
C975 C959 1.349 . S
C975 H967 0.950 . S
C975 C973 1.327 . S
C976 C964 1.349 1_565 S
C976 H970 0.950 . S
C976 C977 1.327 . S
C977 H971 0.950 . S
C977 C976 1.327 . S
C977 C981 1.429 1_565 S
C978 C961 1.574 . S
C978 H972 0.949 . S
C978 C982 1.368 . S
C979 C960 1.429 1_545 S
C979 C973 1.429 . S
C979 C980 1.523 . S
C980 C961 1.368 . S
C980 C974 1.368 1_545 S
C980 C979 1.523 . S
C981 C965 1.429 . S
C981 C977 1.429 1_545 S
C981 C982 1.523 . S
C982 C966 1.368 1_545 S
C982 C978 1.368 . S
C982 C981 1.523 . S
H983 C958 0.950 . S
H984 C960 0.950 . S
H985 C961 0.949 . S
H986 C963 0.950 . S
H987 C965 0.950 . S
C988 C989 1.349 . S
C988 C990 1.327 . S
C988 H1013 0.950 . S
C989 C988 1.349 . S
C989 C1005 1.349 . S
C990 C988 1.327 . S
C990 C1009 1.429 . S
C990 H1014 0.950 . S
C991 C1008 1.574 . S
C991 C1010 1.368 . S
C991 H1015 0.949 . S
H992 C996 0.949 . S
C993 C994 1.349 . S
C993 C995 1.327 . S
C993 H1016 0.950 . S
C994 C993 1.349 . S
C994 C1006 1.349 . S
C995 C993 1.327 . S
C995 C1011 1.429 . S
C995 H1017 0.950 . S
C996 H992 0.949 . S
C996 C1004 1.574 . S
C996 C1012 1.368 . S
H997 C1005 0.950 . S
H998 C1003 0.950 . S
H999 C1004 0.949 . S
H1000 C1006 0.950 . S
H1001 C1007 0.950 . S
H1002 C1008 0.949 . S
C1003 H998 0.950 . S
C1003 C1005 1.327 . S
C1003 C1009 1.429 . S
C1004 C996 1.574 . S
C1004 H999 0.949 . S
C1004 C1010 1.368 . S
C1005 C989 1.349 . S
C1005 H997 0.950 . S
C1005 C1003 1.327 . S
C1006 C994 1.349 . S
C1006 H1000 0.950 . S
C1006 C1007 1.327 . S
C1007 H1001 0.950 . S
C1007 C1006 1.327 . S
C1007 C1011 1.429 . S
C1008 C991 1.574 . S
C1008 H1002 0.949 . S
C1008 C1012 1.368 . S
C1009 C990 1.429 . S
C1009 C1003 1.429 . S
C1009 C1010 1.523 . S
C1010 C991 1.368 . S
C1010 C1004 1.368 . S
C1010 C1009 1.523 . S
C1011 C995 1.429 . S
C1011 C1007 1.429 . S
C1011 C1012 1.523 . S
C1012 C996 1.368 . S
C1012 C1008 1.368 . S
C1012 C1011 1.523 . S
H1013 C988 0.950 . S
H1014 C990 0.950 . S
H1015 C991 0.949 . S
H1016 C993 0.950 . S
H1017 C995 0.950 . S
C1018 C1019 1.349 . S
C1018 C1020 1.327 . S
C1018 H1043 0.950 . S
C1019 C1018 1.349 . S
C1019 C1035 1.349 . S
C1020 C1018 1.327 . S
C1020 C1039 1.429 . S
C1020 H1044 0.950 . S
C1021 C1038 1.574 . S
C1021 C1040 1.368 . S
C1021 H1045 0.949 . S
H1022 C1026 0.949 . S
C1023 C1024 1.349 . S
C1023 C1025 1.327 . S
C1023 H1046 0.950 . S
C1024 C1023 1.349 . S
C1024 C1036 1.349 . S
C1025 C1023 1.327 . S
C1025 C1041 1.429 . S
C1025 H1047 0.950 . S
C1026 H1022 0.949 . S
C1026 C1034 1.574 . S
C1026 C1042 1.368 . S
H1027 C1035 0.950 . S
H1028 C1033 0.950 . S
H1029 C1034 0.949 . S
H1030 C1036 0.950 . S
H1031 C1037 0.950 . S
H1032 C1038 0.949 . S
C1033 H1028 0.950 . S
C1033 C1035 1.327 . S
C1033 C1039 1.429 . S
C1034 C1026 1.574 . S
C1034 H1029 0.949 . S
C1034 C1040 1.368 . S
C1035 C1019 1.349 . S
C1035 H1027 0.950 . S
C1035 C1033 1.327 . S
C1036 C1024 1.349 . S
C1036 H1030 0.950 . S
C1036 C1037 1.327 . S
C1037 H1031 0.950 . S
C1037 C1036 1.327 . S
C1037 C1041 1.429 . S
C1038 C1021 1.574 . S
C1038 H1032 0.949 . S
C1038 C1042 1.368 . S
C1039 C1020 1.429 . S
C1039 C1033 1.429 . S
C1039 C1040 1.523 . S
C1040 C1021 1.368 . S
C1040 C1034 1.368 . S
C1040 C1039 1.523 . S
C1041 C1025 1.429 . S
C1041 C1037 1.429 . S
C1041 C1042 1.523 . S
C1042 C1026 1.368 . S
C1042 C1038 1.368 . S
C1042 C1041 1.523 . S
H1043 C1018 0.950 . S
H1044 C1020 0.950 . S
H1045 C1021 0.949 . S
H1046 C1023 0.950 . S
H1047 C1025 0.950 . S
C1048 C1049 1.349 . S
C1048 C1050 1.327 . S
C1048 H1073 0.950 . S
C1049 C1048 1.349 . S
C1049 C1065 1.349 1_655 S
C1050 C1048 1.327 . S
C1050 C1069 1.429 . S
C1050 H1074 0.950 . S
C1051 C1068 1.572 . S
C1051 C1070 1.355 1_455 S
C1051 H1075 0.966 . S
H1052 C1056 0.949 . S
C1053 C1054 1.349 . S
C1053 C1055 1.327 . S
C1053 H1076 0.946 1_655 S
C1054 C1053 1.349 . S
C1054 C1066 1.349 . S
C1055 C1053 1.327 . S
C1055 C1071 1.429 . S
C1055 H1077 0.950 1_655 S
C1056 H1052 0.949 . S
C1056 C1064 1.574 . S
C1056 C1072 1.368 . S
H1057 C1065 0.950 . S
H1058 C1063 0.950 . S
H1059 C1064 0.949 . S
H1060 C1066 0.950 . S
H1061 C1067 0.950 . S
H1062 C1068 0.949 . S
C1063 H1058 0.950 . S
C1063 C1065 1.327 . S
C1063 C1069 1.429 1_455 S
C1064 C1056 1.574 . S
C1064 H1059 0.949 . S
C1064 C1070 1.368 . S
C1065 C1049 1.349 1_455 S
C1065 H1057 0.950 . S
C1065 C1063 1.327 . S
C1066 C1054 1.349 . S
C1066 H1060 0.950 . S
C1066 C1067 1.327 . S
C1067 H1061 0.950 . S
C1067 C1066 1.327 . S
C1067 C1071 1.429 . S
C1068 C1051 1.572 . S
C1068 H1062 0.949 . S
C1068 C1072 1.369 1_455 S
C1069 C1050 1.429 . S
C1069 C1063 1.429 1_655 S
C1069 C1070 1.523 . S
C1070 C1051 1.355 1_655 S
C1070 C1064 1.368 . S
C1070 C1069 1.523 . S
C1071 C1055 1.429 . S
C1071 C1067 1.429 . S
C1071 C1072 1.523 . S
C1072 C1056 1.368 . S
C1072 C1068 1.369 1_655 S
C1072 C1071 1.523 . S
H1073 C1048 0.950 . S
H1074 C1050 0.950 . S
H1075 C1051 0.966 . S
H1076 C1053 0.946 1_455 S
H1077 C1055 0.950 1_455 S
C1078 C1079 1.349 1_545 S
C1078 C1080 1.327 . S
C1078 H1103 0.950 . S
C1079 C1078 1.349 1_565 S
C1079 C1095 1.349 . S
C1080 C1078 1.327 . S
C1080 C1099 1.429 1_545 S
C1080 H1104 0.950 . S
C1081 C1098 1.574 . S
C1081 C1100 1.368 . S
C1081 H1105 0.949 . S
H1082 C1086 0.949 . S
C1083 C1084 1.349 . S
C1083 C1085 1.327 . S
C1083 H1106 0.950 . S
C1084 C1083 1.349 . S
C1084 C1096 1.349 1_565 S
C1085 C1083 1.327 . S
C1085 C1101 1.429 . S
C1085 H1107 0.950 . S
C1086 H1082 0.949 . S
C1086 C1094 1.574 . S
C1086 C1102 1.368 1_545 S
H1087 C1095 0.950 . S
H1088 C1093 0.950 . S
H1089 C1094 0.949 . S
H1090 C1096 0.950 . S
H1091 C1097 0.950 . S
H1092 C1098 0.949 . S
C1093 H1088 0.950 . S
C1093 C1095 1.327 . S
C1093 C1099 1.429 . S
C1094 C1086 1.574 . S
C1094 H1089 0.949 . S
C1094 C1100 1.368 1_545 S
C1095 C1079 1.349 . S
C1095 H1087 0.950 . S
C1095 C1093 1.327 . S
C1096 C1084 1.349 1_545 S
C1096 H1090 0.950 . S
C1096 C1097 1.327 . S
C1097 H1091 0.950 . S
C1097 C1096 1.327 . S
C1097 C1101 1.429 1_545 S
C1098 C1081 1.574 . S
C1098 H1092 0.949 . S
C1098 C1102 1.368 . S
C1099 C1080 1.429 1_565 S
C1099 C1093 1.429 . S
C1099 C1100 1.523 . S
C1100 C1081 1.368 . S
C1100 C1094 1.368 1_565 S
C1100 C1099 1.523 . S
C1101 C1085 1.429 . S
C1101 C1097 1.429 1_565 S
C1101 C1102 1.523 . S
C1102 C1086 1.368 1_565 S
C1102 C1098 1.368 . S
C1102 C1101 1.523 . S
H1103 C1078 0.950 . S
H1104 C1080 0.950 . S
H1105 C1081 0.949 . S
H1106 C1083 0.950 . S
H1107 C1085 0.950 . S
C1108 C1109 1.349 . S
C1108 C1110 1.327 . S
C1108 H1133 0.950 . S
C1109 C1108 1.349 . S
C1109 C1125 1.349 . S
C1110 C1108 1.327 . S
C1110 C1129 1.429 . S
C1110 H1134 0.950 . S
C1111 C1128 1.574 . S
C1111 C1130 1.368 . S
C1111 H1135 0.949 . S
H1112 C1116 0.949 . S
C1113 C1114 1.349 . S
C1113 C1115 1.327 . S
C1113 H1136 0.950 . S
C1114 C1113 1.349 . S
C1114 C1126 1.349 . S
C1115 C1113 1.327 . S
C1115 C1131 1.429 . S
C1115 H1137 0.950 . S
C1116 H1112 0.949 . S
C1116 C1124 1.574 . S
C1116 C1132 1.368 . S
H1117 C1125 0.950 . S
H1118 C1123 0.950 . S
H1119 C1124 0.949 . S
H1120 C1126 0.950 . S
H1121 C1127 0.950 . S
H1122 C1128 0.949 . S
C1123 H1118 0.950 . S
C1123 C1125 1.327 . S
C1123 C1129 1.429 . S
C1124 C1116 1.574 . S
C1124 H1119 0.949 . S
C1124 C1130 1.368 . S
C1125 C1109 1.349 . S
C1125 H1117 0.950 . S
C1125 C1123 1.327 . S
C1126 C1114 1.349 . S
C1126 H1120 0.950 . S
C1126 C1127 1.327 . S
C1127 H1121 0.950 . S
C1127 C1126 1.327 . S
C1127 C1131 1.429 . S
C1128 C1111 1.574 . S
C1128 H1122 0.949 . S
C1128 C1132 1.368 . S
C1129 C1110 1.429 . S
C1129 C1123 1.429 . S
C1129 C1130 1.523 . S
C1130 C1111 1.368 . S
C1130 C1124 1.368 . S
C1130 C1129 1.523 . S
C1131 C1115 1.429 . S
C1131 C1127 1.429 . S
C1131 C1132 1.523 . S
C1132 C1116 1.368 . S
C1132 C1128 1.368 . S
C1132 C1131 1.523 . S
H1133 C1108 0.950 . S
H1134 C1110 0.950 . S
H1135 C1111 0.949 . S
H1136 C1113 0.950 . S
H1137 C1115 0.950 . S
C1138 C1139 1.349 . S
C1138 C1140 1.327 . S
C1138 H1163 0.950 . S
C1139 C1138 1.349 . S
C1139 C1155 1.349 . S
C1140 C1138 1.327 . S
C1140 C1159 1.429 . S
C1140 H1164 0.950 . S
C1141 C1158 1.574 . S
C1141 C1160 1.368 . S
C1141 H1165 0.949 . S
H1142 C1146 0.949 . S
C1143 C1144 1.349 . S
C1143 C1145 1.327 . S
C1143 H1166 0.950 . S
C1144 C1143 1.349 . S
C1144 C1156 1.349 . S
C1145 C1143 1.327 . S
C1145 C1161 1.429 . S
C1145 H1167 0.950 . S
C1146 H1142 0.949 . S
C1146 C1154 1.574 . S
C1146 C1162 1.368 . S
H1147 C1155 0.950 . S
H1148 C1153 0.950 . S
H1149 C1154 0.949 . S
H1150 C1156 0.950 . S
H1151 C1157 0.950 . S
H1152 C1158 0.949 . S
C1153 H1148 0.950 . S
C1153 C1155 1.327 . S
C1153 C1159 1.429 . S
C1154 C1146 1.574 . S
C1154 H1149 0.949 . S
C1154 C1160 1.368 . S
C1155 C1139 1.349 . S
C1155 H1147 0.950 . S
C1155 C1153 1.327 . S
C1156 C1144 1.349 . S
C1156 H1150 0.950 . S
C1156 C1157 1.327 . S
C1157 H1151 0.950 . S
C1157 C1156 1.327 . S
C1157 C1161 1.429 . S
C1158 C1141 1.574 . S
C1158 H1152 0.949 . S
C1158 C1162 1.368 . S
C1159 C1140 1.429 . S
C1159 C1153 1.429 . S
C1159 C1160 1.523 . S
C1160 C1141 1.368 . S
C1160 C1154 1.368 . S
C1160 C1159 1.523 . S
C1161 C1145 1.429 . S
C1161 C1157 1.429 . S
C1161 C1162 1.523 . S
C1162 C1146 1.368 . S
C1162 C1158 1.368 . S
C1162 C1161 1.523 . S
H1163 C1138 0.950 . S
H1164 C1140 0.950 . S
H1165 C1141 0.949 . S
H1166 C1143 0.950 . S
H1167 C1145 0.950 . S
C449 C241 1.874 . S
C454 C297 2.024 1_545 S
C484 C337 2.051 . S
C479 C277 1.936 . S
C514 C377 2.042 . S
C509 C169 1.883 . S
C544 C417 2.041 1_455 S
C539 C205 1.887 . S
C574 C306 2.030 1_565 S
C569 C97 1.879 . S
C599 C133 1.939 . S
C604 C346 2.056 . S
C629 C25 1.887 . S
C634 C386 2.041 . S
C659 C61 1.887 1_655 S
C664 C426 2.041 1_655 S
C694 C303 0.249 . S
C689 C211 0.260 . S
C724 C343 0.249 . S
C719 C247 0.262 . S
C754 C383 0.242 . S
C749 C253 0.258 . S
C779 C175 0.261 . S
C784 C423 0.243 . S
C809 C67 0.335 1_655 S
C814 C294 0.239 . S
C844 C334 0.249 . S
C839 C103 0.326 1_565 S
C874 C374 0.242 . S
C869 C109 0.192 . S
C899 C31 0.327 . S
C904 C414 0.250 . S
C929 C181 2.566 . S
C934 C307 2.834 . S
C959 C217 2.535 . S
C964 C347 2.809 . S
C994 C387 2.808 . S
C989 C283 2.472 . S
C1024 C427 2.819 . S
C1019 C145 2.536 . S
C1049 C37 2.568 1_655 S
C1054 C298 2.849 . S
C1084 C338 2.809 . S
C1079 C73 2.537 1_565 S
C1114 C378 2.808 . S
C1109 C139 2.462 . S
C1139 C1 2.551 . S
C1144 C418 2.826 . S
