# Generated by pormake.
# Topology eea, (3,6)-cn, num edge types: 1
# Building blocks:
#     Node 0, Type 0, BuildingBlock: BETDIP_clean_linker_0, # of connection points: 3
#     Node 1, Type 0, BuildingBlock: BETDIP_clean_linker_0, # of connection points: 3
#     Node 2, Type 0, BuildingBlock: BETDIP_clean_linker_0, # of connection points: 3
#     Node 3, Type 0, BuildingBlock: BETDIP_clean_linker_0, # of connection points: 3
#     Node 4, Type 0, BuildingBlock: BETDIP_clean_linker_0, # of connection points: 3
#     Node 5, Type 0, BuildingBlock: BETDIP_clean_linker_0, # of connection points: 3
#     Node 6, Type 0, BuildingBlock: BETDIP_clean_linker_0, # of connection points: 3
#     Node 7, Type 0, BuildingBlock: BETDIP_clean_linker_0, # of connection points: 3
#     Node 8, Type 0, BuildingBlock: BETDIP_clean_linker_0, # of connection points: 3
#     Node 9, Type 0, BuildingBlock: BETDIP_clean_linker_0, # of connection points: 3
#     Node 10, Type 0, BuildingBlock: BETDIP_clean_linker_0, # of connection points: 3
#     Node 11, Type 0, BuildingBlock: BETDIP_clean_linker_0, # of connection points: 3
#     Node 12, Type 0, BuildingBlock: BETDIP_clean_linker_0, # of connection points: 3
#     Node 13, Type 0, BuildingBlock: BETDIP_clean_linker_0, # of connection points: 3
#     Node 14, Type 0, BuildingBlock: BETDIP_clean_linker_0, # of connection points: 3
#     Node 15, Type 0, BuildingBlock: BETDIP_clean_linker_0, # of connection points: 3
#     Node 16, Type 0, BuildingBlock: BETDIP_clean_linker_0, # of connection points: 3
#     Node 17, Type 0, BuildingBlock: BETDIP_clean_linker_0, # of connection points: 3
#     Node 18, Type 1, BuildingBlock: HISSIN_clean_sbu_0, # of connection points: 6
#     Node 19, Type 1, BuildingBlock: HISSIN_clean_sbu_0, # of connection points: 6
#     Node 20, Type 1, BuildingBlock: HISSIN_clean_sbu_0, # of connection points: 6
#     Node 21, Type 1, BuildingBlock: HISSIN_clean_sbu_0, # of connection points: 6
#     Node 22, Type 1, BuildingBlock: HISSIN_clean_sbu_0, # of connection points: 6
#     Node 23, Type 1, BuildingBlock: HISSIN_clean_sbu_0, # of connection points: 6
#     Node 24, Type 1, BuildingBlock: HISSIN_clean_sbu_0, # of connection points: 6
#     Node 25, Type 1, BuildingBlock: HISSIN_clean_sbu_0, # of connection points: 6
#     Node 26, Type 1, BuildingBlock: HISSIN_clean_sbu_0, # of connection points: 6
#     Edge 27, Type (0, 1), BuildingBlock: XIVTED_clean_linker_0, # of connection points: 2
#     Edge 28, Type (0, 1), BuildingBlock: XIVTED_clean_linker_0, # of connection points: 2
#     Edge 29, Type (0, 1), BuildingBlock: XIVTED_clean_linker_0, # of connection points: 2
#     Edge 30, Type (0, 1), BuildingBlock: XIVTED_clean_linker_0, # of connection points: 2
#     Edge 31, Type (0, 1), BuildingBlock: XIVTED_clean_linker_0, # of connection points: 2
#     Edge 32, Type (0, 1), BuildingBlock: XIVTED_clean_linker_0, # of connection points: 2
#     Edge 33, Type (0, 1), BuildingBlock: XIVTED_clean_linker_0, # of connection points: 2
#     Edge 34, Type (0, 1), BuildingBlock: XIVTED_clean_linker_0, # of connection points: 2
#     Edge 35, Type (0, 1), BuildingBlock: XIVTED_clean_linker_0, # of connection points: 2
#     Edge 36, Type (0, 1), BuildingBlock: XIVTED_clean_linker_0, # of connection points: 2
#     Edge 37, Type (0, 1), BuildingBlock: XIVTED_clean_linker_0, # of connection points: 2
#     Edge 38, Type (0, 1), BuildingBlock: XIVTED_clean_linker_0, # of connection points: 2
#     Edge 39, Type (0, 1), BuildingBlock: XIVTED_clean_linker_0, # of connection points: 2
#     Edge 40, Type (0, 1), BuildingBlock: XIVTED_clean_linker_0, # of connection points: 2
#     Edge 41, Type (0, 1), BuildingBlock: XIVTED_clean_linker_0, # of connection points: 2
#     Edge 42, Type (0, 1), BuildingBlock: XIVTED_clean_linker_0, # of connection points: 2
#     Edge 43, Type (0, 1), BuildingBlock: XIVTED_clean_linker_0, # of connection points: 2
#     Edge 44, Type (0, 1), BuildingBlock: XIVTED_clean_linker_0, # of connection points: 2
#     Edge 45, Type (0, 1), BuildingBlock: XIVTED_clean_linker_0, # of connection points: 2
#     Edge 46, Type (0, 1), BuildingBlock: XIVTED_clean_linker_0, # of connection points: 2
#     Edge 47, Type (0, 1), BuildingBlock: XIVTED_clean_linker_0, # of connection points: 2
#     Edge 48, Type (0, 1), BuildingBlock: XIVTED_clean_linker_0, # of connection points: 2
#     Edge 49, Type (0, 1), BuildingBlock: XIVTED_clean_linker_0, # of connection points: 2
#     Edge 50, Type (0, 1), BuildingBlock: XIVTED_clean_linker_0, # of connection points: 2
#     Edge 51, Type (0, 1), BuildingBlock: XIVTED_clean_linker_0, # of connection points: 2
#     Edge 52, Type (0, 1), BuildingBlock: XIVTED_clean_linker_0, # of connection points: 2
#     Edge 53, Type (0, 1), BuildingBlock: XIVTED_clean_linker_0, # of connection points: 2
#     Edge 54, Type (0, 1), BuildingBlock: XIVTED_clean_linker_0, # of connection points: 2
#     Edge 55, Type (0, 1), BuildingBlock: XIVTED_clean_linker_0, # of connection points: 2
#     Edge 56, Type (0, 1), BuildingBlock: XIVTED_clean_linker_0, # of connection points: 2
#     Edge 57, Type (0, 1), BuildingBlock: XIVTED_clean_linker_0, # of connection points: 2
#     Edge 58, Type (0, 1), BuildingBlock: XIVTED_clean_linker_0, # of connection points: 2
#     Edge 59, Type (0, 1), BuildingBlock: XIVTED_clean_linker_0, # of connection points: 2
#     Edge 60, Type (0, 1), BuildingBlock: XIVTED_clean_linker_0, # of connection points: 2
#     Edge 61, Type (0, 1), BuildingBlock: XIVTED_clean_linker_0, # of connection points: 2
#     Edge 62, Type (0, 1), BuildingBlock: XIVTED_clean_linker_0, # of connection points: 2
#     Edge 63, Type (0, 1), BuildingBlock: XIVTED_clean_linker_0, # of connection points: 2
#     Edge 64, Type (0, 1), BuildingBlock: XIVTED_clean_linker_0, # of connection points: 2
#     Edge 65, Type (0, 1), BuildingBlock: XIVTED_clean_linker_0, # of connection points: 2
#     Edge 66, Type (0, 1), BuildingBlock: XIVTED_clean_linker_0, # of connection points: 2
#     Edge 67, Type (0, 1), BuildingBlock: XIVTED_clean_linker_0, # of connection points: 2
#     Edge 68, Type (0, 1), BuildingBlock: XIVTED_clean_linker_0, # of connection points: 2
#     Edge 69, Type (0, 1), BuildingBlock: XIVTED_clean_linker_0, # of connection points: 2
#     Edge 70, Type (0, 1), BuildingBlock: XIVTED_clean_linker_0, # of connection points: 2
#     Edge 71, Type (0, 1), BuildingBlock: XIVTED_clean_linker_0, # of connection points: 2
#     Edge 72, Type (0, 1), BuildingBlock: XIVTED_clean_linker_0, # of connection points: 2
#     Edge 73, Type (0, 1), BuildingBlock: XIVTED_clean_linker_0, # of connection points: 2
#     Edge 74, Type (0, 1), BuildingBlock: XIVTED_clean_linker_0, # of connection points: 2
#     Edge 75, Type (0, 1), BuildingBlock: XIVTED_clean_linker_0, # of connection points: 2
#     Edge 76, Type (0, 1), BuildingBlock: XIVTED_clean_linker_0, # of connection points: 2
#     Edge 77, Type (0, 1), BuildingBlock: XIVTED_clean_linker_0, # of connection points: 2
#     Edge 78, Type (0, 1), BuildingBlock: XIVTED_clean_linker_0, # of connection points: 2
#     Edge 79, Type (0, 1), BuildingBlock: XIVTED_clean_linker_0, # of connection points: 2
#     Edge 80, Type (0, 1), BuildingBlock: XIVTED_clean_linker_0, # of connection points: 2
# Relax obj value: 0.060
# Max RMSD: 0.209
# Mean RMSD: 0.147
data_MOF--net-eea--node1-HISSIN_clean_sbu_0--node2-BETDIP_clean_linker_0--edge1-XIVTED_clean_linker_0
_symmetry_space_group_name_H-M    P1
_symmetry_Int_Tables_number       1
_symmetry_cell_setting            triclinic
loop_
_symmetry_equiv_pos_as_xyz
'x, y, z'
_cell_length_a     55.213865
_cell_length_b     55.672876
_cell_length_c     69.353383
_cell_angle_alpha  93.264201
_cell_angle_beta   93.584633
_cell_angle_gamma 119.84908
loop_
_atom_site_label
_atom_site_type_symbol
_atom_site_fract_x
_atom_site_fract_y
_atom_site_fract_z
_atom_type_partial_charge
H0 H 0.23269 0.1064 0.37733 0.0
H1 H 0.27943 0.17557 0.42077 0.0
H2 H 0.28309 0.1008 0.42499 0.0
H3 H 0.28372 0.19776 0.3894 0.0
C4 C 0.26094 0.18706 0.38698 0.0
C5 C 0.24729 0.11557 0.39036 0.0
C6 C 0.25726 0.10012 0.4 0.0
C7 C 0.25589 0.14295 0.39748 0.0
C8 C 0.27363 0.15475 0.41488 0.0
C9 C 0.28308 0.13942 0.42509 0.0
C10 C 0.27542 0.11246 0.41727 0.0
N11 N 0.24513 0.15781 0.3876 0.0
H12 H 0.90292 0.13256 0.38203 0.0
H13 H 0.85107 0.10695 0.42891 0.0
H14 H 0.93134 0.18187 0.43766 0.0
H15 H 0.81676 0.08921 0.40333 0.0
C16 C 0.82512 0.07918 0.39417 0.0
C17 C 0.89977 0.13611 0.39696 0.0
C18 C 0.92038 0.15979 0.4089 0.0
C19 C 0.87453 0.11729 0.4039 0.0
C20 C 0.87021 0.12171 0.42324 0.0
C21 C 0.89045 0.14511 0.43541 0.0
C22 C 0.91543 0.1641 0.42813 0.0
N23 N 0.85412 0.09364 0.39142 0.0
H24 H 0.8854 0.78918 0.39911 0.0
H25 H 0.91478 0.76283 0.44801 0.0
H26 H 0.83431 0.75706 0.44605 0.0
H27 H 0.95689 0.79637 0.44057 0.0
C28 C 0.95495 0.79397 0.4248 0.0
C29 C 0.88214 0.78077 0.41303 0.0
C30 C 0.85698 0.77327 0.4213 0.0
C31 C 0.90341 0.77773 0.42272 0.0
C32 C 0.89899 0.76609 0.44059 0.0
C33 C 0.87411 0.75874 0.44908 0.0
C34 C 0.85339 0.7625 0.43938 0.0
N35 N 0.92888 0.78639 0.41412 0.0
H36 H 0.07964 0.19613 0.62874 0.0
H37 H 0.12983 0.2233 0.58115 0.0
H38 H 0.05971 0.23612 0.58387 0.0
H39 H 0.1325 0.18386 0.58621 0.0
C40 C 0.13752 0.18772 0.60188 0.0
C41 C 0.08363 0.20564 0.61523 0.0
C42 C 0.0667 0.21597 0.60766 0.0
C43 C 0.10581 0.20737 0.60543 0.0
C44 C 0.11186 0.22057 0.58828 0.0
C45 C 0.09554 0.2313 0.5806 0.0
C46 C 0.07289 0.22873 0.59025 0.0
N47 N 0.12237 0.19656 0.61337 0.0
H48 H 0.7555 0.8657 0.66216 0.0
H49 H 0.7287 0.89226 0.61224 0.0
H50 H 0.73468 0.81841 0.60619 0.0
H51 H 0.71236 0.90933 0.63596 0.0
C52 C 0.73138 0.91946 0.64602 0.0
C53 C 0.74847 0.8625 0.64681 0.0
C54 C 0.74542 0.83935 0.63524 0.0
C55 C 0.7419 0.88134 0.63874 0.0
C56 C 0.73307 0.87744 0.61877 0.0
C57 C 0.73012 0.85462 0.60701 0.0
C58 C 0.73619 0.83562 0.61537 0.0
N59 N 0.7455 0.90473 0.65071 0.0
H60 H 0.12105 0.89103 0.64062 0.0
H61 H 0.09187 0.82872 0.59187 0.0
H62 H 0.17361 0.9013 0.59476 0.0
H63 H 0.04986 0.82415 0.59837 0.0
C64 C 0.05133 0.8253 0.61413 0.0
C65 C 0.12467 0.88361 0.62693 0.0
C66 C 0.15025 0.89936 0.61904 0.0
C67 C 0.10325 0.85853 0.61705 0.0
C68 C 0.10785 0.84849 0.59938 0.0
C69 C 0.13343 0.86364 0.59149 0.0
C70 C 0.15442 0.88902 0.60136 0.0
N71 N 0.07737 0.84387 0.62523 0.0
H72 H 0.92007 0.45039 0.70435 0.0
H73 H 0.95177 0.50846 0.75577 0.0
H74 H 0.95122 0.43137 0.7564 0.0
H75 H 0.95917 0.53941 0.73444 0.0
C76 C 0.94033 0.52827 0.72428 0.0
C77 C 0.92952 0.45609 0.71927 0.0
C78 C 0.93518 0.43772 0.72911 0.0
C79 C 0.93604 0.48194 0.72855 0.0
C80 C 0.94767 0.48914 0.74807 0.0
C81 C 0.9536 0.47117 0.75804 0.0
C82 C 0.94756 0.44566 0.74844 0.0
N83 N 0.92916 0.49954 0.71832 0.0
H84 H 0.57143 0.46318 0.7172 0.0
H85 H 0.52118 0.43968 0.76505 0.0
H86 H 0.60014 0.51594 0.77137 0.0
H87 H 0.48622 0.41819 0.74081 0.0
C88 C 0.4948 0.40875 0.73133 0.0
C89 C 0.56851 0.46755 0.73202 0.0
C90 C 0.58894 0.49214 0.74326 0.0
C91 C 0.54376 0.44879 0.73959 0.0
C92 C 0.53983 0.4543 0.75883 0.0
C93 C 0.55988 0.47867 0.77025 0.0
C94 C 0.58433 0.49747 0.76237 0.0
N95 N 0.52349 0.42418 0.72782 0.0
H96 H 0.5517 0.12215 0.73176 0.0
H97 H 0.57821 0.09261 0.78012 0.0
H98 H 0.4992 0.08997 0.77809 0.0
H99 H 0.62114 0.12547 0.77347 0.0
C100 C 0.61967 0.12415 0.75772 0.0
C101 C 0.54784 0.11338 0.74555 0.0
C102 C 0.5226 0.10635 0.75359 0.0
C103 C 0.56841 0.10932 0.75524 0.0
C104 C 0.56309 0.09689 0.77279 0.0
C105 C 0.53814 0.08993 0.78105 0.0
C106 C 0.51825 0.09503 0.77151 0.0
N107 N 0.59404 0.11771 0.7469 0.0
H108 H 0.75223 0.53628 0.96481 0.0
H109 H 0.80246 0.56396 0.91728 0.0
H110 H 0.73193 0.57617 0.92008 0.0
H111 H 0.80683 0.52594 0.92251 0.0
C112 C 0.81076 0.52875 0.93825 0.0
C113 C 0.75619 0.54588 0.95133 0.0
C114 C 0.7391 0.55602 0.94377 0.0
C115 C 0.77846 0.54784 0.94156 0.0
C116 C 0.78445 0.56109 0.92442 0.0
C117 C 0.76794 0.57163 0.91674 0.0
C118 C 0.74524 0.56889 0.92642 0.0
N119 N 0.79502 0.53705 0.94952 0.0
H120 H 0.43419 0.20332 0.98522 0.0
H121 H 0.39726 0.22266 0.93655 0.0
H122 H 0.39955 0.14687 0.93279 0.0
H123 H 0.38761 0.24547 0.95983 0.0
C124 C 0.40726 0.25536 0.96922 0.0
C125 C 0.42329 0.19747 0.97071 0.0
C126 C 0.41837 0.17296 0.95992 0.0
C127 C 0.41475 0.21497 0.96269 0.0
C128 C 0.40207 0.20836 0.94344 0.0
C129 C 0.39688 0.18401 0.93253 0.0
C130 C 0.4045 0.16617 0.94102 0.0
N131 N 0.42077 0.24 0.97373 0.0
H132 H 0.78935 0.22227 0.97693 0.0
H133 H 0.76002 0.16203 0.92687 0.0
H134 H 0.8425 0.23384 0.93126 0.0
H135 H 0.71822 0.15774 0.93344 0.0
C136 C 0.7194 0.15815 0.94916 0.0
C137 C 0.79302 0.21531 0.96308 0.0
C138 C 0.81885 0.23112 0.95551 0.0
C139 C 0.77145 0.19079 0.95268 0.0
C140 C 0.77612 0.18139 0.93478 0.0
C141 C 0.80192 0.19664 0.92718 0.0
C142 C 0.82309 0.22144 0.93759 0.0
N143 N 0.74535 0.17604 0.96058 0.0
H144 H 0.57952 0.77862 0.04627 0.0
H145 H 0.62085 0.84472 0.09263 0.0
H146 H 0.62267 0.7693 0.09681 0.0
H147 H 0.62386 0.87155 0.06928 0.0
C148 C 0.60372 0.85921 0.06061 0.0
C149 C 0.59241 0.78691 0.06007 0.0
C150 C 0.6 0.77028 0.07056 0.0
C151 C 0.60061 0.81411 0.06756 0.0
C152 C 0.61569 0.82442 0.08608 0.0
C153 C 0.62363 0.80831 0.09663 0.0
C154 C 0.61635 0.78161 0.0886 0.0
N155 N 0.59179 0.82993 0.0568 0.0
H156 H 0.23617 0.79501 0.04861 0.0
H157 H 0.18554 0.77142 0.09621 0.0
H158 H 0.26557 0.84659 0.10334 0.0
H159 H 0.15068 0.75198 0.07134 0.0
C160 C 0.1589 0.74193 0.06206 0.0
C161 C 0.23333 0.7992 0.0635 0.0
C162 C 0.25412 0.82335 0.07497 0.0
C163 C 0.20833 0.78067 0.07088 0.0
C164 C 0.20444 0.78591 0.09017 0.0
C165 C 0.22482 0.80982 0.10186 0.0
C166 C 0.24955 0.82847 0.09416 0.0
N167 N 0.18775 0.75652 0.05887 0.0
H168 H 0.22014 0.45446 0.06406 0.0
H169 H 0.24996 0.43033 0.114 0.0
H170 H 0.16921 0.42401 0.1113 0.0
H171 H 0.29187 0.46447 0.10644 0.0
C172 C 0.29007 0.4614 0.09069 0.0
C173 C 0.21695 0.44659 0.07817 0.0
C174 C 0.19177 0.43928 0.08634 0.0
C175 C 0.23836 0.44413 0.0882 0.0
C176 C 0.23404 0.43317 0.10631 0.0
C177 C 0.20914 0.426 0.11469 0.0
C178 C 0.18828 0.42926 0.10468 0.0
N179 N 0.26392 0.45279 0.07975 0.0
H180 H 0.41537 0.86653 0.29525 0.0
H181 H 0.47117 0.90296 0.25156 0.0
H182 H 0.39891 0.91255 0.25354 0.0
H183 H 0.47783 0.86629 0.25579 0.0
C184 C 0.47976 0.86707 0.27153 0.0
C185 C 0.42101 0.8787 0.28294 0.0
C186 C 0.4038 0.88868 0.27537 0.0
C187 C 0.44506 0.88339 0.2743 0.0
C188 C 0.45243 0.89889 0.25818 0.0
C189 C 0.43567 0.90917 0.25045 0.0
C190 C 0.41147 0.90403 0.25917 0.0
N191 N 0.46171 0.87269 0.28227 0.0
H192 H 0.08288 0.53157 0.32677 0.0
H193 H 0.05711 0.55752 0.2761 0.0
H194 H 0.06344 0.48377 0.27118 0.0
H195 H 0.04091 0.57576 0.29891 0.0
C196 C 0.05934 0.58535 0.3095 0.0
C197 C 0.07615 0.52818 0.31135 0.0
C198 C 0.07388 0.50525 0.30002 0.0
C199 C 0.06933 0.54664 0.30298 0.0
C200 C 0.06092 0.54254 0.28293 0.0
C201 C 0.05865 0.51986 0.27137 0.0
C202 C 0.06505 0.50126 0.28005 0.0
N203 N 0.07262 0.57005 0.31475 0.0
H204 H 0.45339 0.55724 0.31296 0.0
H205 H 0.42467 0.50585 0.2583 0.0
H206 H 0.5067 0.57843 0.26666 0.0
H207 H 0.38266 0.4971 0.26653 0.0
C208 C 0.3837 0.49623 0.28214 0.0
C209 C 0.45712 0.55284 0.29836 0.0
C210 C 0.48291 0.57048 0.29137 0.0
C211 C 0.43575 0.52977 0.28649 0.0
C212 C 0.44064 0.52385 0.26756 0.0
C213 C 0.46616 0.54152 0.26033 0.0
C214 C 0.48712 0.56462 0.27234 0.0
N215 N 0.40957 0.51322 0.29393 0.0
Eu216 Eu 0.47669 0.98216 0.99326 0.0
Eu217 Eu 0.49795 0.01474 0.03788 0.0
C218 C 0.47143 0.03611 1.0055 0.0
C219 C 0.46803 0.97093 0.93825 0.0
C220 C 0.45851 0.98894 0.93264 0.0
C221 C 0.49144 0.97768 0.90881 0.0
C222 C 0.46553 0.00129 0.91531 0.0
C223 C 0.48417 0.96511 0.92603 0.0
C224 C 0.48248 -0.00381 0.9033 0.0
C225 C 0.46321 0.95967 0.95732 0.0
O226 O 0.45122 0.98535 0.03644 0.0
O227 O 0.44528 0.95279 0.01196 0.0
C228 C 0.43649 0.96033 0.02705 0.0
O229 O 0.50415 0.96774 1.00766 0.0
O230 O 0.49259 0.03691 0.06268 0.0
O231 O 0.52701 0.02866 0.06429 0.0
O232 O 0.49746 0.97431 0.03931 0.0
C233 C 0.50536 0.96295 0.02588 0.0
O234 O 0.51463 0.02361 0.99066 0.0
O235 O 0.53652 0.03278 0.02159 0.0
O236 O 0.49063 0.04358 0.02027 0.0
O237 O 0.48569 0.96416 0.96791 0.0
O238 O 0.44601 0.96327 0.96759 0.0
O239 O 0.45969 0.01145 0.9956 0.0
C240 C 0.50471 0.0257 0.09249 0.0
C241 C 0.48416 -0.00231 0.09283 0.0
C242 C 0.5103 0.03148 0.12773 0.0
C243 C 0.47668 0.98662 0.11052 0.0
C244 C 0.51773 0.04255 0.11 0.0
C245 C 0.48967 0.00337 0.12819 0.0
C246 C 0.51261 0.03715 0.07386 0.0
C247 C 0.53723 0.03681 1.00308 0.0
H248 H 0.44607 0.99391 0.94177 0.0
H249 H 0.50482 0.9735 0.90014 0.0
H250 H 0.45777 0.01498 0.91139 0.0
H251 H 0.49187 0.95141 0.93008 0.0
H252 H 0.47399 0.98435 0.0794 0.0
H253 H 0.52048 0.045 0.14107 0.0
H254 H 0.46105 0.96481 0.11034 0.0
H255 H 0.53363 0.06424 0.10995 0.0
Eu256 Eu 0.01223 0.48325 0.99209 0.0
Eu257 Eu 0.98734 0.48086 0.0344 0.0
C258 C 0.96284 0.42764 1.00479 0.0
C259 C 0.02726 0.48752 0.93845 0.0
C260 C 0.03488 0.47512 0.92375 0.0
C261 C 0.01009 0.50667 0.91414 0.0
C262 C 0.02993 0.47819 0.90434 0.0
C263 C 0.01493 0.50343 0.93361 0.0
C264 C 0.01734 0.49388 0.89925 0.0
C265 C 0.03118 0.48234 0.95857 0.0
O266 O 0.01832 0.46564 0.03832 0.0
O267 O 0.04555 0.48658 0.01401 0.0
C268 C 0.04163 0.47426 0.02999 0.0
O269 O 0.02663 0.52764 1.0033 0.0
O270 O 0.96735 0.45694 0.05829 0.0
O271 O 0.97689 0.49974 0.05846 0.0
O272 O 0.02726 0.52202 0.03579 0.0
C273 C 0.0351 0.538 0.02156 0.0
O274 O 0.97247 0.48423 0.98473 0.0
O275 O 0.96556 0.49716 0.01515 0.0
O276 O 0.95565 0.44317 0.01494 0.0
O277 O 0.04303 0.5038 0.97162 0.0
O278 O 0.00996 0.46092 0.96458 0.0
O279 O 0.98813 0.43863 0.99919 0.0
C280 C 0.9779 0.4829 0.08868 0.0
C281 C 0.00656 0.49449 0.09474 0.0
C282 C 0.96798 0.48069 0.12229 0.0
C283 C 0.0159 0.49923 0.11454 0.0
C284 C 0.9587 0.47599 0.10252 0.0
C285 C 0.9967 0.49244 0.12854 0.0
C286 C 0.96765 0.47785 0.06803 0.0
C287 C 0.95986 0.4932 0.99615 0.0
H288 H 0.04419 0.46255 0.92728 0.0
H289 H 0.00059 0.5191 0.91075 0.0
H290 H 0.03525 0.46754 0.89331 0.0
H291 H 0.00876 0.51302 0.94484 0.0
H292 H 0.02165 0.49993 0.08416 0.0
H293 H 0.95259 0.47479 0.13266 0.0
H294 H 0.03818 0.50855 0.11888 0.0
H295 H 0.93647 0.46689 0.09804 0.0
Eu296 Eu 0.52671 0.51162 0.03718 0.0
Eu297 Eu 0.50405 0.51905 0.99381 0.0
C298 C 0.53378 0.57033 0.02673 0.0
C299 C 0.53564 0.51024 0.09142 0.0
C300 C 0.52133 0.52489 0.0941 0.0
C301 C 0.53346 0.50162 0.12533 0.0
C302 C 0.51305 0.52784 0.11228 0.0
C303 C 0.54177 0.49873 0.10712 0.0
C304 C 0.51885 0.51606 0.12808 0.0
C305 C 0.54212 0.50506 0.07199 0.0
O306 O 0.55047 0.53488 0.99387 0.0
O307 O 0.55628 0.50988 0.01702 0.0
C308 C 0.56484 0.52458 1.0022 0.0
O309 O 0.49676 0.46882 0.0225 0.0
O310 O 0.50893 0.54464 0.97006 0.0
O311 O 0.47434 0.50217 0.96768 0.0
O312 O 0.50282 0.478 0.99092 0.0
C313 C 0.49502 0.46045 1.00418 0.0
O314 O 0.48929 0.51616 0.04187 0.0
O315 O 0.46639 0.50203 0.01101 0.0
O316 O 0.51326 0.55736 0.01269 0.0
O317 O 0.52085 0.48552 0.06068 0.0
O318 O 0.5571 0.52692 0.06301 0.0
O319 O 0.54546 0.55774 0.03551 0.0
C320 C 0.49597 0.51912 0.93948 0.0
C321 C 0.51211 0.50622 0.93761 0.0
C322 C 0.49538 0.52364 0.9049 0.0
C323 C 0.51975 0.50194 0.91946 0.0
C324 C 0.48766 0.52783 0.92307 0.0
C325 C 0.51149 0.51063 0.9029 0.0
C326 C 0.48857 0.52418 0.95864 0.0
C327 C 0.46646 0.50681 0.02983 0.0
H328 H 0.5161 0.5336 0.08202 0.0
H329 H 0.53853 0.49262 0.13727 0.0
H330 H 0.50152 0.53875 0.11384 0.0
H331 H 0.55262 0.48717 0.10522 0.0
H332 H 0.51894 0.49962 0.95021 0.0
H333 H 0.48846 0.5303 0.89238 0.0
H334 H 0.53249 0.49222 0.91846 0.0
H335 H 0.47527 0.5379 0.92432 0.0
Eu336 Eu 0.14256 0.32151 0.32774 0.0
Eu337 Eu 0.16368 0.35153 0.37251 0.0
C338 C 0.13433 0.37244 0.34244 0.0
C339 C 0.13692 0.31315 0.2733 0.0
C340 C 0.15167 0.34223 0.27361 0.0
C341 C 0.14053 0.30905 0.23872 0.0
C342 C 0.1608 0.35467 0.2566 0.0
C343 C 0.13139 0.2966 0.25581 0.0
C344 C 0.15536 0.33824 0.23895 0.0
C345 C 0.12873 0.30033 0.29145 0.0
O346 O 0.11713 0.32134 0.37101 0.0
O347 O 0.11218 0.29006 0.34595 0.0
C348 C 0.10294 0.29656 0.36125 0.0
O349 O 0.17391 0.31082 0.34074 0.0
O350 O 0.15757 0.37143 0.39831 0.0
O351 O 0.19347 0.36546 0.39849 0.0
O352 O 0.16363 0.31103 0.37199 0.0
C353 C 0.17389 0.30297 0.35817 0.0
O354 O 0.17971 0.36372 0.32546 0.0
O355 O 0.20202 0.37122 0.35606 0.0
O356 O 0.15545 0.38069 0.35588 0.0
O357 O 0.14899 0.30092 0.30251 0.0
O358 O 0.11346 0.30734 0.30131 0.0
O359 O 0.12237 0.34758 0.33285 0.0
C360 C 0.17141 0.35966 0.42762 0.0
C361 C 0.18198 0.34288 0.43414 0.0
C362 C 0.14504 0.35089 0.45576 0.0
C363 C 0.17389 0.32998 0.45116 0.0
C364 C 0.15325 0.36391 0.43878 0.0
C365 C 0.155 0.33349 0.46202 0.0
C366 C 0.17818 0.37183 0.40891 0.0
C367 C 0.2025 0.37637 0.33776 0.0
H368 H 0.15635 0.35532 0.28706 0.0
H369 H 0.13576 0.29583 0.22532 0.0
H370 H 0.17253 0.37718 0.25734 0.0
H371 H 0.12017 0.27411 0.25538 0.0
H372 H 0.1962 0.33932 0.426 0.0
H373 H 0.1303 0.35389 0.46368 0.0
H374 H 0.18244 0.3172 0.45577 0.0
H375 H 0.14488 0.37685 0.43415 0.0
Eu376 Eu 0.67819 0.81917 0.32898 0.0
Eu377 Eu 0.65342 0.81776 0.37118 0.0
C378 C 0.62866 0.7641 0.34218 0.0
C379 C 0.69532 0.82472 0.27582 0.0
C380 C 0.70166 0.8116 0.26079 0.0
C381 C 0.68283 0.84845 0.25231 0.0
C382 C 0.69829 0.81652 0.2416 0.0
C383 C 0.68607 0.84335 0.27156 0.0
C384 C 0.6886 0.83482 0.23707 0.0
C385 C 0.69719 0.81749 0.29561 0.0
O386 O 0.68412 0.80219 0.37538 0.0
O387 O 0.71145 0.82289 0.3511 0.0
C388 C 0.70747 0.8107 0.36712 0.0
O389 O 0.69225 0.86373 0.33941 0.0
O390 O 0.63263 0.79392 0.3949 0.0
O391 O 0.64418 0.83736 0.3955 0.0
O392 O 0.69321 0.85888 0.372 0.0
C393 C 0.70072 0.87452 0.35758 0.0
O394 O 0.63911 0.82126 0.32139 0.0
O395 O 0.63109 0.83336 0.35171 0.0
O396 O 0.62159 0.78005 0.35191 0.0
O397 O 0.71059 0.83801 0.3093 0.0
O398 O 0.6742 0.79722 0.30088 0.0
O399 O 0.6539 0.77475 0.33652 0.0
C400 C 0.64485 0.81963 0.42546 0.0
C401 C 0.67378 0.8339 0.43134 0.0
C402 C 0.63543 0.81231 0.45894 0.0
C403 C 0.6835 0.83748 0.45098 0.0
C404 C 0.62576 0.80886 0.43934 0.0
C405 C 0.6644 0.82664 0.46498 0.0
C406 C 0.63422 0.81528 0.40493 0.0
C407 C 0.62606 0.82986 0.33265 0.0
H408 H 0.70861 0.79698 0.26387 0.0
H409 H 0.67558 0.86284 0.24936 0.0
H410 H 0.70237 0.80519 0.23027 0.0
H411 H 0.68097 0.85357 0.28305 0.0
H412 H 0.68879 0.84214 0.42073 0.0
H413 H 0.62022 0.80402 0.46941 0.0
H414 H 0.70592 0.84834 0.45518 0.0
H415 H 0.60336 0.79775 0.43499 0.0
Eu416 Eu 0.19245 0.84711 0.3685 0.0
Eu417 Eu 0.16554 0.84884 0.32476 0.0
C418 C 0.19912 0.90298 0.35426 0.0
C419 C 0.20182 0.8409 0.42254 0.0
C420 C 0.22048 0.85235 0.43948 0.0
C421 C 0.16265 0.82183 0.44215 0.0
C422 C 0.21035 0.84893 0.45766 0.0
C423 C 0.17284 0.82542 0.42394 0.0
C424 C 0.18128 0.8339 0.45925 0.0
C425 C 0.21277 0.84734 0.40363 0.0
O426 O 0.211 0.86259 0.32211 0.0
O427 O 0.22183 0.84495 0.34836 0.0
C428 C 0.22737 0.85542 0.33163 0.0
O429 O 0.15956 0.80311 0.35765 0.0
O430 O 0.16744 0.87235 0.30025 0.0
O431 O 0.13538 0.82888 0.29899 0.0
O432 O 0.1634 0.80751 0.32524 0.0
C433 C 0.15562 0.79203 0.33972 0.0
O434 O 0.15281 0.84752 0.37363 0.0
O435 O 0.12904 0.83415 0.34287 0.0
O436 O 0.17585 0.88825 0.34269 0.0
O437 O 0.20382 0.82651 0.39022 0.0
O438 O 0.2133 0.86896 0.39693 0.0
O439 O 0.21304 0.8915 0.36133 0.0
C440 C 0.15579 0.84554 0.27028 0.0
C441 C 0.17302 0.83379 0.26879 0.0
C442 C 0.15566 0.84993 0.23567 0.0
C443 C 0.18143 0.83001 0.25082 0.0
C444 C 0.14715 0.85359 0.25365 0.0
C445 C 0.17291 0.8381 0.23405 0.0
C446 C 0.14794 0.85055 0.28931 0.0
C447 C 0.12974 0.83848 0.36182 0.0
H448 H 0.2429 0.86465 0.43862 0.0
H449 H 0.14019 0.80988 0.44281 0.0
H450 H 0.22532 0.859 0.47043 0.0
H451 H 0.15811 0.81663 0.41095 0.0
H452 H 0.18018 0.82778 0.28156 0.0
H453 H 0.14853 0.85612 0.22299 0.0
H454 H 0.19502 0.82121 0.25012 0.0
H455 H 0.13398 0.86284 0.2546 0.0
Eu456 Eu 0.81039 0.65147 0.66127 0.0
Eu457 Eu 0.83266 0.68317 0.70579 0.0
C458 C 0.80358 0.70368 0.67522 0.0
C459 C 0.80204 0.64309 0.60689 0.0
C460 C 0.81499 0.67213 0.60733 0.0
C461 C 0.80523 0.63992 0.5722 0.0
C462 C 0.82314 0.68501 0.59035 0.0
C463 C 0.79709 0.62703 0.58926 0.0
C464 C 0.81849 0.66908 0.57259 0.0
C465 C 0.79587 0.63002 0.62508 0.0
O466 O 0.78608 0.65274 0.70478 0.0
O467 O 0.78039 0.62082 0.67993 0.0
C468 C 0.77162 0.62776 0.69527 0.0
O469 O 0.83892 0.63739 0.67452 0.0
O470 O 0.82634 0.7035 0.73128 0.0
O471 O 0.86301 0.69882 0.73154 0.0
O472 O 0.8336 0.64342 0.70657 0.0
C473 C 0.8412 0.63253 0.69263 0.0
O474 O 0.84782 0.69324 0.65856 0.0
O475 O 0.87074 0.70168 0.68902 0.0
O476 O 0.82484 0.71197 0.68851 0.0
O477 O 0.81771 0.63274 0.6355 0.0
O478 O 0.7797 0.63491 0.63558 0.0
O479 O 0.79107 0.67854 0.66597 0.0
C480 C 0.84129 0.69323 0.76079 0.0
C481 C 0.85112 0.6757 0.76699 0.0
C482 C 0.81636 0.6859 0.78958 0.0
C483 C 0.84341 0.6632 0.78418 0.0
C484 C 0.82422 0.69855 0.77242 0.0
C485 C 0.82557 0.66778 0.79554 0.0
C486 C 0.84746 0.70489 0.74188 0.0
C487 C 0.87084 0.70612 0.67059 0.0
H488 H 0.8193 0.68488 0.6209 0.0
H489 H 0.80108 0.62706 0.55872 0.0
H490 H 0.83368 0.70752 0.59122 0.0
H491 H 0.78732 0.60459 0.58873 0.0
H492 H 0.86443 0.67123 0.75845 0.0
H493 H 0.80241 0.68972 0.79786 0.0
H494 H 0.85138 0.64984 0.78853 0.0
H495 H 0.8164 0.71201 0.768 0.0
Eu496 Eu 0.3463 0.15357 0.65675 0.0
Eu497 Eu 0.31882 0.14762 0.69823 0.0
C498 C 0.29578 0.09646 0.66672 0.0
C499 C 0.36304 0.16351 0.6039 0.0
C500 C 0.3371 0.16019 0.59678 0.0
C501 C 0.37997 0.1756 0.57245 0.0
C502 C 0.33242 0.16396 0.57744 0.0
C503 C 0.38457 0.1717 0.59176 0.0
C504 C 0.35366 0.17124 0.56495 0.0
C505 C 0.36755 0.15725 0.62362 0.0
O506 O 0.34931 0.13187 0.70213 0.0
O507 O 0.37812 0.15409 0.6788 0.0
C508 C 0.37308 0.14071 0.69436 0.0
O509 O 0.36038 0.19702 0.67005 0.0
O510 O 0.29691 0.12162 0.72075 0.0
O511 O 0.30681 0.16463 0.72247 0.0
O512 O 0.35942 0.18836 0.70193 0.0
C513 C 0.36835 0.20573 0.68857 0.0
O514 O 0.30609 0.15373 0.64909 0.0
O515 O 0.29904 0.16628 0.6795 0.0
O516 O 0.28818 0.11124 0.67733 0.0
O517 O 0.37749 0.17777 0.63731 0.0
O518 O 0.34753 0.13422 0.62896 0.0
O519 O 0.32128 0.10796 0.66142 0.0
C520 C 0.30701 0.14558 0.75177 0.0
C521 C 0.33554 0.15612 0.75764 0.0
C522 C 0.29713 0.14168 0.78536 0.0
C523 C 0.34485 0.15946 0.77732 0.0
C524 C 0.28786 0.13836 0.76568 0.0
C525 C 0.32573 0.15227 0.7914 0.0
C526 C 0.29702 0.14193 0.73119 0.0
C527 C 0.29339 0.16257 0.66052 0.0
H528 H 0.32025 0.15394 0.60601 0.0
H529 H 0.39691 0.18166 0.56333 0.0
H530 H 0.31182 0.16013 0.57211 0.0
H531 H 0.40478 0.17452 0.59711 0.0
H532 H 0.35057 0.1618 0.747 0.0
H533 H 0.28185 0.1356 0.79582 0.0
H534 H 0.36705 0.168 0.78152 0.0
H535 H 0.26574 0.13009 0.7613 0.0
Eu536 Eu 0.85926 0.18174 0.70285 0.0
Eu537 Eu 0.83254 0.18286 0.6592 0.0
C538 C 0.86695 0.23733 0.68762 0.0
C539 C 0.86943 0.17713 0.7571 0.0
C540 C 0.88828 0.18869 0.77394 0.0
C541 C 0.83054 0.15812 0.77696 0.0
C542 C 0.87838 0.18532 0.7922 0.0
C543 C 0.8405 0.16165 0.75867 0.0
C544 C 0.84937 0.17024 0.79396 0.0
C545 C 0.88014 0.18329 0.7381 0.0
O546 O 0.87828 0.19697 0.65696 0.0
O547 O 0.88734 0.17729 0.68261 0.0
C548 C 0.8938 0.18859 0.66623 0.0
O549 O 0.82663 0.13745 0.69246 0.0
O550 O 0.8346 0.20652 0.63474 0.0
O551 O 0.80267 0.16299 0.63328 0.0
O552 O 0.82994 0.14131 0.65992 0.0
C553 C 0.82256 0.1261 0.67458 0.0
O554 O 0.81941 0.18183 0.70788 0.0
O555 O 0.79583 0.1682 0.67709 0.0
O556 O 0.84269 0.22214 0.67722 0.0
O557 O 0.87144 0.16221 0.72495 0.0
O558 O 0.88008 0.20447 0.73107 0.0
O559 O 0.88083 0.22566 0.69444 0.0
C560 C 0.82271 0.18016 0.60453 0.0
C561 C 0.83899 0.16744 0.60243 0.0
C562 C 0.82305 0.18626 0.57016 0.0
C563 C 0.84716 0.16404 0.58428 0.0
C564 C 0.81478 0.18953 0.58832 0.0
C565 C 0.83937 0.17351 0.56794 0.0
C566 C 0.81509 0.18481 0.62373 0.0
C567 C 0.79636 0.17256 0.696 0.0
H568 H 0.91066 0.20099 0.77296 0.0
H569 H 0.80811 0.14613 0.77775 0.0
H570 H 0.89349 0.19542 0.8049 0.0
H571 H 0.82562 0.15276 0.74576 0.0
H572 H 0.84561 0.1604 0.61489 0.0
H573 H 0.81647 0.19351 0.55782 0.0
H574 H 0.86002 0.15447 0.5831 0.0
H575 H 0.80233 0.19953 0.58973 0.0
H576 H 0.28551 0.81169 0.05083 0.0
H577 H 0.40869 0.9701 0.05502 0.0
H578 H 0.28322 0.88047 0.08096 0.0
H579 H 0.40225 0.9048 0.01454 0.0
H580 H 0.3641 0.93686 0.06614 0.0
H581 H 0.32933 0.84484 0.03853 0.0
C582 C 0.29405 0.83374 0.05476 0.0
C583 C 0.28058 0.84322 0.06704 0.0
C584 C 0.37238 0.9298 0.05478 0.0
C585 C 0.33108 0.88127 0.05324 0.0
C586 C 0.39792 0.94878 0.04843 0.0
C587 C 0.40928 0.94029 0.03377 0.0
C588 C 0.35811 0.90199 0.04656 0.0
C589 C 0.39428 0.91233 0.02583 0.0
C590 C 0.31917 0.85264 0.0478 0.0
C591 C 0.29302 0.87207 0.07186 0.0
N592 N 0.36952 0.89416 0.03237 0.0
N593 N 0.31755 0.89001 0.06501 0.0
H594 H 0.13469 0.40468 0.08442 0.0
H595 H 0.09619 0.49915 0.02194 0.0
H596 H 0.19747 0.48209 0.06551 0.0
H597 H 0.03818 0.43853 0.05684 0.0
H598 H 0.13265 0.48992 0.03463 0.0
H599 H 0.09814 0.41327 0.07091 0.0
C600 C 0.14084 0.42351 0.07744 0.0
C601 C 0.16931 0.44287 0.07634 0.0
C602 C 0.11198 0.47869 0.03955 0.0
C603 C 0.1274 0.45255 0.06056 0.0
C604 C 0.0911 0.48389 0.0323 0.0
C605 C 0.06404 0.46955 0.03833 0.0
C606 C 0.10573 0.45875 0.05277 0.0
C607 C 0.05876 0.45013 0.05185 0.0
C608 C 0.11992 0.42834 0.06971 0.0
C609 C 0.17587 0.46649 0.06662 0.0
N610 N 0.07939 0.44517 0.05853 0.0
N611 N 0.15507 0.4707 0.05915 0.0
H612 H 0.59249 0.74727 0.03274 0.0
H613 H 0.56119 0.59921 0.06176 0.0
H614 H 0.58391 0.7255 0.09177 0.0
H615 H 0.5294 0.60862 1.00595 0.0
H616 H 0.57731 0.64805 0.07205 0.0
H617 H 0.57599 0.6985 0.02162 0.0
C618 C 0.5871 0.73236 0.04338 0.0
C619 C 0.58993 0.74077 0.06329 0.0
C620 C 0.56679 0.63938 0.05755 0.0
C621 C 0.57172 0.68517 0.05063 0.0
C622 C 0.55771 0.61159 0.05164 0.0
C623 C 0.54387 0.59986 0.033 0.0
C624 C 0.56247 0.65571 0.04461 0.0
C625 C 0.53981 0.61683 0.02051 0.0
C626 C 0.57781 0.70458 0.037 0.0
C627 C 0.58291 0.72039 0.07635 0.0
N628 N 0.54924 0.64401 0.0265 0.0
N629 N 0.57436 0.69366 0.0698 0.0
H630 H 0.87618 0.25368 0.9592 0.0
H631 H 0.90766 0.39963 0.01156 0.0
H632 H 0.81165 0.27145 0.97441 0.0
H633 H 0.97061 0.38763 0.98588 0.0
H634 H 0.87312 0.35087 1.00173 0.0
H635 H 0.91182 0.30081 0.97261 0.0
C636 C 0.86947 0.26743 0.96541 0.0
C637 C 0.84079 0.25858 0.9655 0.0
C638 C 0.8945 0.35886 0.99828 0.0
C639 C 0.88157 0.31251 0.98106 0.0
C640 C 0.91429 0.38673 1.00392 0.0
C641 C 0.94209 0.39782 0.99945 0.0
C642 C 0.90251 0.34182 0.98816 0.0
C643 C 0.94939 0.38002 0.98955 0.0
C644 C 0.88986 0.29431 0.97311 0.0
C645 C 0.83344 0.27717 0.97414 0.0
N646 N 0.9297 0.3529 0.9842 0.0
N647 N 0.85368 0.30326 0.98147 0.0
H648 H 0.7191 0.59237 0.94738 0.0
H649 H 0.59479 0.49838 0.00981 0.0
H650 H 0.70275 0.51189 0.96275 0.0
H651 H 0.59516 0.56235 0.97722 0.0
H652 H 0.63807 0.5067 0.99653 0.0
H653 H 0.67724 0.58519 0.96205 0.0
C654 C 0.70673 0.57314 0.95376 0.0
C655 C 0.7145 0.55262 0.95364 0.0
C656 C 0.62865 0.5189 0.99232 0.0
C657 C 0.66676 0.5446 0.97087 0.0
C658 C 0.60401 0.51425 0.99993 0.0
C659 C 0.59128 0.52966 0.99459 0.0
C660 C 0.64086 0.53936 0.97948 0.0
C661 C 0.60415 0.54989 0.98168 0.0
C662 C 0.68288 0.56914 0.96222 0.0
C663 C 0.6979 0.52847 0.96265 0.0
N664 N 0.62827 0.55422 0.97462 0.0
N665 N 0.67485 0.52514 0.97088 0.0
H666 H 0.41962 0.15944 0.99758 0.0
H667 H 0.44995 0.03775 0.96948 0.0
H668 H 0.43973 0.1446 0.94051 0.0
H669 H 0.47502 0.0806 0.02733 0.0
H670 H 0.43811 0.07219 0.95906 0.0
H671 H 0.43341 0.12682 0.00945 0.0
C672 C 0.42707 0.14956 0.98757 0.0
C673 C 0.42806 0.15454 0.96791 0.0
C674 C 0.44621 0.07403 0.97403 0.0
C675 C 0.44312 0.11682 0.98132 0.0
C676 C 0.45279 0.05431 0.98002 0.0
C677 C 0.46351 0.05639 0.99929 0.0
C678 C 0.44985 0.09567 0.98748 0.0
C679 C 0.46695 0.07839 0.01231 0.0
C680 C 0.43479 0.13087 0.99436 0.0
C681 C 0.43771 0.14086 0.95562 0.0
N682 N 0.45995 0.09715 1.0062 0.0
N683 N 0.44455 0.12244 0.96247 0.0
H684 H 0.71207 0.1521 0.988 0.0
H685 H 0.54596 0.04987 0.96583 0.0
H686 H 0.66715 0.12644 0.93065 0.0
H687 H 0.58983 0.06805 0.02328 0.0
H688 H 0.59018 0.08023 0.9533 0.0
H689 H 0.66768 0.12365 1.00173 0.0
C690 C 0.69286 0.14054 0.97831 0.0
C691 C 0.69318 0.14157 0.95815 0.0
C692 C 0.59022 0.07767 0.96866 0.0
C693 C 0.6425 0.10911 0.97372 0.0
C694 C 0.56488 0.06031 0.97587 0.0
C695 C 0.5641 0.05627 0.99568 0.0
C696 C 0.61516 0.09123 0.98127 0.0
C697 C 0.58942 0.0705 0.00791 0.0
C698 C 0.66756 0.12429 0.98615 0.0
C699 C 0.66776 0.12617 0.94627 0.0
N700 N 0.61396 0.08732 1.0005 0.0
N701 N 0.64348 0.1106 0.95422 0.0
H702 H 0.82769 0.53314 0.97718 0.0
H703 H 0.94217 0.48855 0.95752 0.0
H704 H 0.84258 0.51202 0.92003 0.0
H705 H 0.92783 0.51027 0.01478 0.0
H706 H 0.9057 0.49696 0.94355 0.0
H707 H 0.8641 0.52458 0.99131 0.0
C708 C 0.83858 0.52663 0.96761 0.0
C709 C 0.83216 0.52322 0.9474 0.0
C710 C 0.91054 0.4999 0.95918 0.0
C711 C 0.87385 0.51349 0.96343 0.0
C712 C 0.9314 0.4951 0.96718 0.0
C713 C 0.93813 0.49867 0.98739 0.0
C714 C 0.89623 0.50832 0.97144 0.0
C715 C 0.92342 0.50724 0.99913 0.0
C716 C 0.85939 0.52177 0.97567 0.0
C717 C 0.84694 0.51483 0.93569 0.0
N718 N 0.90318 0.51174 0.99099 0.0
N719 N 0.86711 0.51025 0.94386 0.0
H720 H 0.4505 0.2871 0.99787 0.0
H721 H 0.47069 0.43161 0.96849 0.0
H722 H 0.39515 0.29196 0.95354 0.0
H723 H 0.49308 0.42126 0.02693 0.0
H724 H 0.44974 0.38138 0.95994 0.0
H725 H 0.47303 0.33762 1.00621 0.0
C726 C 0.44314 0.29882 0.9899 0.0
C727 C 0.42096 0.28551 0.97502 0.0
C728 C 0.45931 0.3902 0.97461 0.0
C729 C 0.44679 0.34296 0.98421 0.0
C730 C 0.47137 0.41881 0.97947 0.0
C731 C 0.48347 0.43052 0.99846 0.0
C732 C 0.4599 0.37337 0.98876 0.0
C733 C 0.48373 0.413 0.01215 0.0
C734 C 0.45593 0.32755 0.99467 0.0
C735 C 0.41215 0.30156 0.96516 0.0
N736 N 0.47222 0.38528 1.00701 0.0
N737 N 0.42524 0.32952 0.96982 0.0
H738 H 0.10867 0.70666 0.0739 0.0
H739 H 0.07038 0.57656 0.99862 0.0
H740 H 0.16667 0.71014 0.03376 0.0
H741 H 0.04143 0.56845 0.05556 0.0
H742 H 0.10081 0.62694 1.00756 0.0
H743 H 0.07814 0.65705 0.06334 0.0
C744 C 0.11486 0.69695 0.06277 0.0
C745 C 0.14022 0.71236 0.05477 0.0
C746 C 0.08777 0.61401 0.01803 0.0
C747 C 0.10538 0.65582 0.04251 0.0
C748 C 0.07036 0.58538 0.01294 0.0
C749 C 0.05344 0.56834 0.0264 0.0
C750 C 0.08767 0.62563 0.03652 0.0
C751 C 0.05426 0.58078 0.04478 0.0
C752 C 0.09753 0.66868 0.05682 0.0
C753 C 0.14733 0.69887 0.04038 0.0
N754 N 0.07093 0.60868 0.04925 0.0
N755 N 0.12989 0.67129 0.03462 0.0
H756 H 0.34239 0.48156 0.10843 0.0
H757 H 0.41388 0.48676 0.01044 0.0
H758 H 0.2962 0.45761 0.05155 0.0
H759 H 0.45884 0.51375 0.06788 0.0
H760 H 0.37058 0.47616 0.02476 0.0
H761 H 0.38529 0.49349 0.09341 0.0
C762 C 0.34134 0.47885 0.09274 0.0
C763 C 0.31579 0.46862 0.08123 0.0
C764 C 0.38997 0.48448 0.03419 0.0
C765 C 0.36481 0.48219 0.06384 0.0
C766 C 0.41471 0.49056 0.02603 0.0
C767 C 0.4401 0.50113 0.03795 0.0
C768 C 0.39062 0.48896 0.05441 0.0
C769 C 0.43985 0.50561 0.05806 0.0
C770 C 0.36583 0.48568 0.08415 0.0
C771 C 0.31552 0.46548 0.06097 0.0
N772 N 0.41555 0.49945 0.06561 0.0
N773 N 0.3397 0.47221 0.0529 0.0
H774 H 0.55895 0.84069 0.03259 0.0
H775 H 0.52915 0.9631 0.06163 0.0
H776 H 0.61267 0.90904 0.07577 0.0
H777 H 0.50915 0.92357 1.00292 0.0
H778 H 0.55214 0.93663 0.07011 0.0
H779 H 0.53313 0.86475 0.02422 0.0
C780 C 0.56523 0.86071 0.04031 0.0
C781 C 0.58793 0.87304 0.05486 0.0
C782 C 0.54259 0.93371 0.05541 0.0
C783 C 0.55837 0.90015 0.04568 0.0
C784 C 0.52933 0.94864 0.05058 0.0
C785 C 0.51737 0.94559 0.03152 0.0
C786 C 0.54339 0.91525 0.04117 0.0
C787 C 0.51832 0.92666 0.01775 0.0
C788 C 0.55058 0.87439 0.03552 0.0
C789 C 0.59533 0.89898 0.06441 0.0
N790 N 0.53106 0.91209 0.02286 0.0
N791 N 0.58044 0.91161 0.05977 0.0
H792 H 0.94901 0.21675 0.41583 0.0
H793 H 0.06975 0.2411 0.34802 0.0
H794 H 0.95242 0.14929 0.38465 0.0
H795 H 0.07415 0.30479 0.38909 0.0
H796 H 0.02494 0.20754 0.35911 0.0
H797 H 0.99315 0.24971 0.40406 0.0
C798 C 0.95909 0.20881 0.40661 0.0
C799 C 0.94697 0.1801 0.40136 0.0
C800 C 0.03577 0.22887 0.36568 0.0
C801 C 0.99748 0.21794 0.38752 0.0
C802 C 0.06132 0.24806 0.35933 0.0
C803 C 0.07579 0.27583 0.36764 0.0
C804 C 0.02451 0.23758 0.38032 0.0
C805 C 0.06384 0.28361 0.38228 0.0
C806 C 0.98427 0.22769 0.3998 0.0
C807 C 0.96077 0.17121 0.38894 0.0
N808 N 0.03892 0.26463 0.3881 0.0
N809 N 0.98529 0.19004 0.38245 0.0
H810 H 0.79985 0.73884 0.41919 0.0
H811 H 0.76221 0.83622 0.35958 0.0
H812 H 0.86298 0.8171 0.40156 0.0
H813 H 0.70374 0.77415 0.39343 0.0
H814 H 0.79853 0.82656 0.37186 0.0
H815 H 0.7635 0.74823 0.40647 0.0
C816 C 0.80612 0.75803 0.41265 0.0
C817 C 0.83464 0.77738 0.41168 0.0
C818 C 0.7778 0.81512 0.37666 0.0
C819 C 0.79293 0.78799 0.39681 0.0
C820 C 0.757 0.82057 0.36964 0.0
C821 C 0.72984 0.80592 0.37548 0.0
C822 C 0.77138 0.79461 0.38942 0.0
C823 C 0.7244 0.786 0.38861 0.0
C824 C 0.7853 0.76332 0.40538 0.0
C825 C 0.84133 0.80149 0.40254 0.0
N826 N 0.74496 0.78078 0.39505 0.0
N827 N 0.82064 0.80613 0.3955 0.0
H828 H 0.24678 0.07746 0.36187 0.0
H829 H 0.23294 0.93431 0.38686 0.0
H830 H 0.24698 0.05587 0.42077 0.0
H831 H 0.18776 0.93873 0.33537 0.0
H832 H 0.24722 0.98258 0.39757 0.0
H833 H 0.23271 0.02956 0.35004 0.0
C834 C 0.24377 0.06277 0.37234 0.0
C835 C 0.24832 0.07099 0.39241 0.0
C836 C 0.23425 0.97296 0.3839 0.0
C837 C 0.2331 0.01649 0.37887 0.0
C838 C 0.22625 0.94553 0.37772 0.0
C839 C 0.20909 0.93254 0.36023 0.0
C840 C 0.22549 0.98766 0.37233 0.0
C841 C 0.20087 0.94798 0.34901 0.0
C842 C 0.23591 0.0355 0.36554 0.0
C843 C 0.24452 0.05095 0.4052 0.0
N844 N 0.20928 0.97487 0.35521 0.0
N845 N 0.23737 0.02474 0.39821 0.0
H846 H 0.53975 0.59118 0.29533 0.0
H847 H 0.57412 0.73647 0.35041 0.0
H848 H 0.47641 0.60867 0.31379 0.0
H849 H 0.63558 0.72351 0.32332 0.0
H850 H 0.53922 0.6876 0.34139 0.0
H851 H 0.5761 0.6372 0.31012 0.0
C852 C 0.5335 0.60462 0.30266 0.0
C853 C 0.50498 0.59621 0.30309 0.0
C854 C 0.56036 0.69539 0.3375 0.0
C855 C 0.5465 0.6489 0.32007 0.0
C856 C 0.58035 0.72333 0.34264 0.0
C857 C 0.60781 0.73419 0.33747 0.0
C858 C 0.56783 0.67808 0.32714 0.0
C859 C 0.61463 0.71609 0.32748 0.0
C860 C 0.55426 0.63088 0.3111 0.0
C861 C 0.49811 0.61424 0.31314 0.0
N862 N 0.59473 0.68893 0.32257 0.0
N863 N 0.51873 0.63985 0.32106 0.0
H864 H 0.39465 0.88747 0.31403 0.0
H865 H 0.24052 0.86568 0.29446 0.0
H866 H 0.35303 0.87634 0.25665 0.0
H867 H 0.27272 0.85466 0.34957 0.0
H868 H 0.28315 0.87303 0.28087 0.0
H869 H 0.3515 0.87837 0.32781 0.0
C870 C 0.37645 0.88295 0.3043 0.0
C871 C 0.37764 0.88283 0.28411 0.0
C872 C 0.28088 0.86895 0.29593 0.0
C873 C 0.32829 0.87285 0.29988 0.0
C874 C 0.25657 0.86485 0.30373 0.0
C875 C 0.25304 0.8596 0.32322 0.0
C876 C 0.30201 0.86809 0.30771 0.0
C877 C 0.27451 0.85858 0.33447 0.0
C878 C 0.35186 0.87788 0.31221 0.0
C879 C 0.35341 0.87724 0.2723 0.0
N880 N 0.29815 0.86293 0.32658 0.0
N881 N 0.32984 0.8726 0.28036 0.0
H882 H 0.11859 0.51743 0.32647 0.0
H883 H 0.0882 0.36087 0.31803 0.0
H884 H 0.04594 0.44841 0.29336 0.0
H885 H 0.15655 0.42738 0.3561 0.0
H886 H 0.07199 0.39273 0.30954 0.0
H887 H 0.13211 0.48485 0.33856 0.0
C888 C 0.10531 0.4954 0.32192 0.0
C889 C 0.08123 0.48566 0.30873 0.0
C890 C 0.09047 0.40037 0.31982 0.0
C891 C 0.09677 0.44835 0.32228 0.0
C892 C 0.0998 0.38217 0.32466 0.0
C893 C 0.12387 0.39148 0.33774 0.0
C894 C 0.10538 0.4282 0.32801 0.0
C895 C 0.13792 0.41931 0.34592 0.0
C896 C 0.11312 0.47684 0.32874 0.0
C897 C 0.06497 0.45692 0.30319 0.0
N898 N 0.12855 0.43674 0.34083 0.0
N899 N 0.07312 0.43934 0.3099 0.0
H900 H 0.33163 0.46554 0.26311 0.0
H901 H 0.2549 0.40683 0.35813 0.0
H902 H 0.3756 0.48834 0.32071 0.0
H903 H 0.21165 0.39017 0.30062 0.0
H904 H 0.29932 0.4368 0.34506 0.0
H905 H 0.28747 0.43747 0.27688 0.0
C906 C 0.33193 0.46461 0.27869 0.0
C907 C 0.35723 0.47926 0.29078 0.0
C908 C 0.28007 0.42666 0.33535 0.0
C909 C 0.30679 0.44718 0.30672 0.0
C910 C 0.25468 0.40957 0.3428 0.0
C911 C 0.22944 0.39588 0.33047 0.0
C912 C 0.28024 0.43001 0.31542 0.0
C913 C 0.23051 0.40023 0.31071 0.0
C914 C 0.30673 0.44863 0.28656 0.0
C915 C 0.35652 0.47737 0.31086 0.0
N916 N 0.25544 0.41679 0.30382 0.0
N917 N 0.33167 0.46157 0.31821 0.0
H918 H 0.49241 0.86731 0.31069 0.0
H919 H 0.61107 0.82757 0.29384 0.0
H920 H 0.51468 0.85373 0.25423 0.0
H921 H 0.59197 0.8449 0.35064 0.0
H922 H 0.57525 0.83631 0.27915 0.0
H923 H 0.52804 0.85825 0.32569 0.0
C924 C 0.50475 0.86234 0.30145 0.0
C925 C 0.50063 0.86121 0.28118 0.0
C926 C 0.5789 0.83823 0.29483 0.0
C927 C 0.54142 0.85091 0.29822 0.0
C928 C 0.59938 0.83322 0.30326 0.0
C929 C 0.6046 0.83548 0.32354 0.0
C930 C 0.5634 0.84551 0.30674 0.0
C931 C 0.58874 0.84293 0.33494 0.0
C932 C 0.52512 0.85722 0.31002 0.0
C933 C 0.51723 0.85477 0.26992 0.0
N934 N 0.56886 0.84764 0.32639 0.0
N935 N 0.53689 0.84986 0.27858 0.0
H936 H 0.10062 0.6165 0.33947 0.0
H937 H 0.12881 0.76092 0.30526 0.0
H938 H 0.04833 0.6223 0.29326 0.0
H939 H 0.15002 0.75367 0.3648 0.0
H940 H 0.10446 0.71024 0.29876 0.0
H941 H 0.12387 0.66713 0.34753 0.0
C942 C 0.09399 0.62843 0.33109 0.0
C943 C 0.07262 0.61537 0.31564 0.0
C944 C 0.11442 0.71977 0.31325 0.0
C945 C 0.09928 0.67294 0.32454 0.0
C946 C 0.12846 0.74867 0.31695 0.0
C947 C 0.14143 0.76148 0.33561 0.0
C948 C 0.11378 0.7036 0.32821 0.0
C949 C 0.14018 0.74458 0.35023 0.0
C950 C 0.10719 0.65722 0.33572 0.0
C951 C 0.06472 0.63168 0.30528 0.0
N952 N 0.12674 0.71644 0.34619 0.0
N953 N 0.07825 0.65969 0.30977 0.0
H954 H 0.83374 0.04738 0.36643 0.0
H955 H 0.70637 0.9053 0.39119 0.0
H956 H 0.77454 0.04386 0.40553 0.0
H957 H 0.73596 0.91285 0.33446 0.0
H958 H 0.73623 0.95553 0.39896 0.0
H959 H 0.80269 -0.00263 0.35636 0.0
C960 C 0.81419 0.0361 0.37283 0.0
C961 C 0.80661 0.0496 0.38687 0.0
C962 C 0.73613 0.94621 0.38479 0.0
C963 C 0.77153 0.99278 0.3757 0.0
C964 C 0.71922 0.91754 0.38037 0.0
C965 C 0.7187 0.90493 0.36215 0.0
C966 C 0.75309 0.96238 0.37104 0.0
C967 C 0.73568 0.92183 0.34865 0.0
C968 C 0.79651 0.00769 0.36704 0.0
C969 C 0.78108 0.03414 0.39466 0.0
N970 N 0.75245 0.94976 0.35343 0.0
N971 N 0.76458 0.00648 0.38914 0.0
H972 H 0.00705 0.81176 0.44211 0.0
H973 H 0.07725 0.82057 0.34303 0.0
H974 H 0.96077 0.79185 0.38551 0.0
H975 H 0.12247 0.84275 0.40029 0.0
H976 H 0.03439 0.81002 0.35792 0.0
H977 H 0.04954 0.82317 0.42668 0.0
C978 C 0.0059 0.80983 0.4264 0.0
C979 C 0.98043 0.80089 0.41509 0.0
C980 C 0.05373 0.81726 0.36719 0.0
C981 C 0.02899 0.81387 0.39722 0.0
C982 C 0.07824 0.82331 0.3587 0.0
C983 C 0.1036 0.83261 0.37039 0.0
C984 C 0.05456 0.82047 0.38751 0.0
C985 C 0.10351 0.83571 0.39063 0.0
C986 C 0.03015 0.81635 0.41758 0.0
C987 C 0.98002 0.7987 0.39479 0.0
N988 N 0.07943 0.82963 0.3985 0.0
N989 N 0.00397 0.80513 0.38648 0.0
H990 H 0.20635 0.17298 0.39053 0.0
H991 H 0.21461 0.30016 0.33973 0.0
H992 H 0.28415 0.2375 0.37308 0.0
H993 H 0.16184 0.26649 0.38581 0.0
H994 H 0.23559 0.27141 0.34659 0.0
H995 H 0.18469 0.20129 0.38365 0.0
C996 C 0.21876 0.19299 0.38508 0.0
C997 C 0.24701 0.20301 0.38224 0.0
C998 C 0.21942 0.27037 0.35518 0.0
C999 C 0.22242 0.23508 0.37427 0.0
C1000 C 0.20737 0.28662 0.35124 0.0
C1001 C 0.18652 0.28567 0.36227 0.0
C1002 C 0.21008 0.25259 0.36992 0.0
C1003 C 0.17799 0.2679 0.37708 0.0
C1004 C 0.20647 0.20914 0.38131 0.0
C1005 C 0.26229 0.22914 0.3754 0.0
N1006 N 0.18965 0.2518 0.38038 0.0
N1007 N 0.24973 0.24423 0.37146 0.0
H1008 H 0.61634 0.54921 0.74846 0.0
H1009 H 0.73858 0.57219 0.68264 0.0
H1010 H 0.62135 0.48121 0.71966 0.0
H1011 H 0.74261 0.63665 0.72272 0.0
H1012 H 0.69356 0.53899 0.69356 0.0
H1013 H 0.6605 0.58197 0.7366 0.0
C1014 C 0.62676 0.54111 0.73972 0.0
C1015 C 0.61514 0.51231 0.73523 0.0
C1016 C 0.70434 0.5604 0.69996 0.0
C1017 C 0.66567 0.54991 0.7213 0.0
C1018 C 0.73002 0.57939 0.69371 0.0
C1019 C 0.74445 0.60729 0.70178 0.0
C1020 C 0.69286 0.5694 0.71424 0.0
C1021 C 0.73233 0.61538 0.71611 0.0
C1022 C 0.65195 0.55988 0.73287 0.0
C1023 C 0.62934 0.50319 0.72338 0.0
N1024 N 0.70723 0.59656 0.72183 0.0
N1025 N 0.65387 0.52192 0.71685 0.0
H1026 H 0.5301 0.15014 0.73311 0.0
H1027 H 0.36775 0.10484 0.72153 0.0
H1028 H 0.4652 0.07329 0.75131 0.0
H1029 H 0.42814 0.16455 0.68733 0.0
H1030 H 0.40414 0.096 0.73535 0.0
H1031 H 0.49377 0.15829 0.71835 0.0
C1032 C 0.50827 0.13484 0.73387 0.0
C1033 C 0.50082 0.11105 0.74362 0.0
C1034 C 0.40937 0.11099 0.72479 0.0
C1035 C 0.45913 0.12064 0.72711 0.0
C1036 C 0.38865 0.11614 0.71696 0.0
C1037 C 0.39486 0.1354 0.70321 0.0
C1038 C 0.43659 0.12547 0.71901 0.0
C1039 C 0.42233 0.1494 0.69781 0.0
C1040 C 0.48754 0.13962 0.72554 0.0
C1041 C 0.47208 0.09223 0.74435 0.0
N1042 N 0.44219 0.14424 0.70578 0.0
N1043 N 0.45234 0.09751 0.73634 0.0
H1044 H 0.88656 0.40117 0.7062 0.0
H1045 H 0.91796 0.27569 0.70691 0.0
H1046 H 0.96454 0.40996 0.73109 0.0
H1047 H 0.84268 0.26814 0.6778 0.0
H1048 H 0.93616 0.32542 0.71465 0.0
H1049 H 0.87119 0.35318 0.69398 0.0
C1050 C 0.90064 0.39317 0.70885 0.0
C1051 C 0.9268 0.40958 0.71983 0.0
C1052 C 0.91572 0.31293 0.70648 0.0
C1053 C 0.90911 0.35446 0.70618 0.0
C1054 C 0.90527 0.28449 0.70209 0.0
C1055 C 0.87867 0.26766 0.69178 0.0
C1056 C 0.8994 0.32467 0.70064 0.0
C1057 C 0.86325 0.28028 0.68584 0.0
C1058 C 0.89176 0.36568 0.70198 0.0
C1059 C 0.94399 0.39792 0.72301 0.0
N1060 N 0.87378 0.30799 0.69044 0.0
N1061 N 0.93476 0.37105 0.71635 0.0
H1062 H 0.14225 0.93965 0.63712 0.0
H1063 H 0.30439 0.05725 0.64742 0.0
H1064 H 0.20777 0.92327 0.62211 0.0
H1065 H 0.24023 0.06793 0.67238 0.0
H1066 H 0.26942 0.00837 0.63739 0.0
H1067 H 0.17799 0.98681 0.65 0.0
C1068 C 0.16414 0.94578 0.63677 0.0
C1069 C 0.17192 0.92736 0.62843 0.0
C1070 C 0.26307 0.02142 0.64514 0.0
C1071 C 0.21308 0.98176 0.64279 0.0
C1072 C 0.283 0.04934 0.65081 0.0
C1073 C 0.27524 0.06675 0.66071 0.0
C1074 C 0.23515 0.01093 0.64926 0.0
C1075 C 0.24721 0.05533 0.66477 0.0
C1076 C 0.18458 0.97285 0.644 0.0
C1077 C 0.20072 0.93684 0.62808 0.0
N1078 N 0.2282 0.02823 0.65895 0.0
N1079 N 0.22022 0.96341 0.63503 0.0
H1080 H 0.04709 0.2527 0.61075 0.0
H1081 H 0.92432 0.16345 0.67533 0.0
H1082 H 0.03028 0.17254 0.62723 0.0
H1083 H 0.92219 0.22284 0.63888 0.0
H1084 H 0.96714 0.17057 0.66189 0.0
H1085 H 0.00524 0.24609 0.62512 0.0
C1086 C 0.03462 0.23364 0.6173 0.0
C1087 C 0.04224 0.21302 0.61753 0.0
C1088 C 0.95725 0.182 0.65685 0.0
C1089 C 0.99454 0.20573 0.63448 0.0
C1090 C 0.93288 0.17803 0.66455 0.0
C1091 C 0.91962 0.19256 0.6582 0.0
C1092 C 0.9687 0.20095 0.64296 0.0
C1093 C 0.93161 0.21111 0.64414 0.0
C1094 C 0.01077 0.22999 0.62558 0.0
C1095 C 0.02555 0.18918 0.62682 0.0
N1096 N 0.95555 0.21489 0.63707 0.0
N1097 N 0.00251 0.1862 0.63492 0.0
H1098 H 0.7902 0.85038 0.66127 0.0
H1099 H 0.75802 0.69313 0.65042 0.0
H1100 H 0.71672 0.78254 0.628 0.0
H1101 H 0.82634 0.75848 0.68919 0.0
H1102 H 0.74242 0.72569 0.64235 0.0
H1103 H 0.80327 0.81706 0.67245 0.0
C1104 C 0.77664 0.82846 0.65651 0.0
C1105 C 0.75246 0.81928 0.64354 0.0
C1106 C 0.76076 0.7329 0.65269 0.0
C1107 C 0.76751 0.78111 0.65602 0.0
C1108 C 0.76974 0.71431 0.65727 0.0
C1109 C 0.79359 0.72308 0.67046 0.0
C1110 C 0.77582 0.76055 0.66126 0.0
C1111 C 0.80785 0.75079 0.67892 0.0
C1112 C 0.7842 0.80946 0.66279 0.0
C1113 C 0.73584 0.79064 0.63769 0.0
N1114 N 0.79882 0.76857 0.67411 0.0
N1115 N 0.74376 0.77263 0.64387 0.0
H1116 H 0.04488 0.82067 0.65317 0.0
H1117 H 0.87841 0.71917 0.63325 0.0
H1118 H -0.00126 0.7931 0.59622 0.0
H1119 H 0.92394 0.73714 0.69007 0.0
H1120 H 0.92224 0.74912 0.62008 0.0
H1121 H 0.00088 0.79289 0.66752 0.0
C1122 C 0.02549 0.80883 0.6437 0.0
C1123 C 0.02535 0.80913 0.62347 0.0
C1124 C 0.92272 0.7466 0.63544 0.0
C1125 C 0.97511 0.77745 0.63975 0.0
C1126 C 0.89761 0.7295 0.64303 0.0
C1127 C 0.89742 0.7255 0.66284 0.0
C1128 C 0.948 0.75996 0.6477 0.0
C1129 C 0.92307 0.73955 0.67471 0.0
C1130 C 0.00041 0.79297 0.65189 0.0
C1131 C -0.0003 0.79339 0.61188 0.0
N1132 N 0.94736 0.75613 0.66695 0.0
N1133 N 0.97564 0.77823 0.62018 0.0
H1134 H 0.16893 0.17101 0.5831 0.0
H1135 H 0.26243 0.18065 0.67946 0.0
H1136 H 0.15788 0.1957 0.64046 0.0
H1137 H 0.27349 0.15571 0.62208 0.0
H1138 H 0.2246 0.18686 0.66539 0.0
H1139 H 0.20744 0.16548 0.59708 0.0
C1140 C 0.17461 0.17518 0.59866 0.0
C1141 C 0.16022 0.18375 0.61064 0.0
C1142 C 0.23532 0.18008 0.65586 0.0
C1143 C 0.20431 0.17762 0.62677 0.0
C1144 C 0.25701 0.17656 0.66388 0.0
C1145 C 0.27122 0.16757 0.65195 0.0
C1146 C 0.22766 0.17459 0.63573 0.0
C1147 C 0.26317 0.16264 0.63186 0.0
C1148 C 0.1966 0.17208 0.60663 0.0
C1149 C 0.16839 0.18898 0.63069 0.0
N1150 N 0.2419 0.16616 0.6244 0.0
N1151 N 0.18992 0.18584 0.63813 0.0
H1152 H 0.77407 0.95206 0.67492 0.0
H1153 H 0.79506 0.09404 0.64055 0.0
H1154 H 0.71799 0.95507 0.63022 0.0
H1155 H 0.81926 0.08872 0.69986 0.0
H1156 H 0.7722 0.04339 0.63445 0.0
H1157 H 0.79613 0.0027 0.68261 0.0
C1158 C 0.76638 0.96338 0.66679 0.0
C1159 C 0.74426 0.94953 0.65189 0.0
C1160 C 0.78248 0.05334 0.6488 0.0
C1161 C 0.76953 0.00709 0.66035 0.0
C1162 C 0.79566 0.08222 0.65227 0.0
C1163 C 0.80904 0.09556 0.67075 0.0
C1164 C 0.78314 0.03772 0.6638 0.0
C1165 C 0.80904 0.0792 0.68543 0.0
C1166 C 0.77889 0.99217 0.6712 0.0
C1167 C 0.73499 0.96507 0.64183 0.0
N1168 N 0.79646 0.05107 0.6816 0.0
N1169 N 0.74786 0.99308 0.64609 0.0
H1170 H 0.50288 0.37849 0.70206 0.0
H1171 H 0.37554 0.23357 0.72402 0.0
H1172 H 0.44566 0.37189 0.7438 0.0
H1173 H 0.40432 0.24602 0.66702 0.0
H1174 H 0.40661 0.28324 0.73389 0.0
H1175 H 0.47199 0.32874 0.69107 0.0
C1176 C 0.48384 0.36657 0.70889 0.0
C1177 C 0.4767 0.37916 0.72386 0.0
C1178 C 0.40608 0.27508 0.71922 0.0
C1179 C 0.44179 0.3226 0.71163 0.0
C1180 C 0.38847 0.24674 0.71359 0.0
C1181 C 0.38729 0.23569 0.69464 0.0
C1182 C 0.42304 0.29245 0.70593 0.0
C1183 C 0.40447 0.25377 0.68173 0.0
C1184 C 0.46625 0.3383 0.70258 0.0
C1185 C 0.45181 0.36289 0.73219 0.0
N1186 N 0.42183 0.28129 0.68765 0.0
N1187 N 0.43537 0.33538 0.72609 0.0
H1188 H 0.67136 0.14085 0.7754 0.0
H1189 H 0.74409 0.1548 0.67694 0.0
H1190 H 0.62663 0.12441 0.71856 0.0
H1191 H 0.78839 0.17581 0.73444 0.0
H1192 H 0.70082 0.14334 0.69154 0.0
H1193 H 0.71435 0.15332 0.76031 0.0
C1194 C 0.67064 0.1399 0.75971 0.0
C1195 C 0.64546 0.13163 0.74823 0.0
C1196 C 0.72005 0.15054 0.70093 0.0
C1197 C 0.69461 0.14584 0.73076 0.0
C1198 C 0.74479 0.1571 0.69261 0.0
C1199 C 0.77002 0.16632 0.70444 0.0
C1200 C 0.72048 0.15311 0.72124 0.0
C1201 C 0.76955 0.16886 0.72467 0.0
C1202 C 0.69519 0.14704 0.75109 0.0
C1203 C 0.64563 0.13071 0.72797 0.0
N1204 N 0.74523 0.16224 0.73238 0.0
N1205 N 0.66985 0.13771 0.71986 0.0
H1206 H 0.89829 0.51271 0.69455 0.0
H1207 H 0.86515 0.63149 0.72801 0.0
H1208 H 0.94779 0.57657 0.74149 0.0
H1209 H 0.84663 0.59522 0.66846 0.0
H1210 H 0.88883 0.60539 0.73549 0.0
H1211 H 0.87285 0.53728 0.68675 0.0
C1212 C 0.90377 0.53188 0.70319 0.0
C1213 C 0.92512 0.54274 0.71868 0.0
C1214 C 0.87951 0.60313 0.72081 0.0
C1215 C 0.89598 0.57047 0.71008 0.0
C1216 C 0.86585 0.61785 0.71655 0.0
C1217 C 0.85401 0.61558 0.69756 0.0
C1218 C 0.88092 0.58566 0.70607 0.0
C1219 C 0.85565 0.59769 0.68326 0.0
C1220 C 0.88933 0.54587 0.69872 0.0
C1221 C 0.9315 0.56764 0.7294 0.0
N1222 N 0.8688 0.5833 0.68782 0.0
N1223 N 0.91683 0.58058 0.72501 0.0
H1224 H 0.40056 0.90426 0.21885 0.0
H1225 H 0.52443 0.01232 0.16118 0.0
H1226 H 0.48774 0.94937 0.2422 0.0
H1227 H 0.43717 0.96703 0.138 0.0
H1228 H 0.51123 0.99114 0.19154 0.0
H1229 H 0.41337 0.92871 0.18973 0.0
C1230 C 0.42238 0.9195 0.21793 0.0
C1231 C 0.44311 0.92471 0.23299 0.0
C1232 C 0.49495 0.98589 0.17983 0.0
C1233 C 0.458 0.95256 0.19953 0.0
C1234 C 0.50246 -0.00189 0.16253 0.0
C1235 C 0.48189 0.99139 0.14697 0.0
C1236 C 0.46665 0.96679 0.18164 0.0
C1237 C 0.45379 0.97251 0.14948 0.0
C1238 C 0.42971 0.93334 0.20124 0.0
C1239 C 0.47111 0.94439 0.23085 0.0
N1240 N 0.44703 0.96086 0.16645 0.0
N1241 N 0.47773 0.95755 0.21442 0.0
H1242 H 0.08042 0.50451 0.24171 0.0
H1243 H 0.97871 0.51245 0.15805 0.0
H1244 H 0.01733 0.52635 0.25271 0.0
H1245 H 0.03686 0.48397 0.14707 0.0
H1246 H 0.99383 0.51921 0.19271 0.0
H1247 H 0.06584 0.49819 0.20693 0.0
C1248 C 0.06338 0.50781 0.23683 0.0
C1249 C 0.05003 0.51591 0.25017 0.0
C1250 C 0.00331 0.51149 0.18273 0.0
C1251 C 0.03348 0.50907 0.21033 0.0
C1252 C 0.99459 0.5075 0.16293 0.0
C1253 C 0.00642 0.49748 0.14961 0.0
C1254 C 0.02409 0.50548 0.18933 0.0
C1255 C 0.02734 0.49198 0.15677 0.0
C1256 C 0.05518 0.50435 0.21695 0.0
C1257 C 0.02843 0.52039 0.24295 0.0
N1258 N 0.03545 0.49599 0.17615 0.0
N1259 N 0.02083 0.51689 0.22354 0.0
H1260 H 0.48662 0.57949 0.23395 0.0
H1261 H 0.49543 0.47622 0.15336 0.0
H1262 H 0.45673 0.49291 0.24063 0.0
H1263 H 0.52085 0.56191 0.14652 0.0
H1264 H 0.48043 0.48132 0.18506 0.0
H1265 H 0.49802 0.57273 0.20144 0.0
C1266 C 0.48245 0.55901 0.22852 0.0
C1267 C 0.47099 0.53678 0.24004 0.0
C1268 C 0.48921 0.49897 0.17659 0.0
C1269 C 0.48395 0.52882 0.20276 0.0
C1270 C 0.49797 0.49614 0.15856 0.0
C1271 C 0.5095 0.51871 0.14729 0.0
C1272 C 0.49211 0.52459 0.18343 0.0
C1273 C 0.51184 0.54388 0.15461 0.0
C1274 C 0.48888 0.55513 0.20993 0.0
C1275 C 0.46551 0.51057 0.23217 0.0
N1276 N 0.50331 0.54615 0.17222 0.0
N1277 N 0.47225 0.50734 0.21404 0.0
H1278 H 0.93495 0.49014 0.78757 0.0
H1279 H 0.04875 0.49863 0.86898 0.0
H1280 H 0.99781 0.46847 0.77555 0.0
H1281 H 0.97064 0.4929 0.88196 0.0
H1282 H 0.03497 0.49617 0.83446 0.0
H1283 H 0.95258 0.49985 0.82207 0.0
C1284 C 0.95266 0.48772 0.7922 0.0
C1285 C 0.96492 0.47841 0.77877 0.0
C1286 C 0.02095 0.49561 0.8449 0.0
C1287 C 0.9851 0.48943 0.81807 0.0
C1288 C 0.02873 0.49691 0.86461 0.0
C1289 C 0.01067 0.49559 0.87845 0.0
C1290 C 0.99504 0.49323 0.83893 0.0
C1291 C 0.98535 0.49416 0.87189 0.0
C1292 C 0.96258 0.49311 0.81186 0.0
C1293 C 0.98762 0.47535 0.78551 0.0
N1294 N 0.97821 0.49287 0.85259 0.0
N1295 N 0.997 0.48085 0.80471 0.0
H1296 H 0.56791 0.52777 0.78786 0.0
H1297 H 0.51124 0.46423 0.88717 0.0
H1298 H 0.54056 0.44277 0.79834 0.0
H1299 H 0.53038 0.54659 0.87474 0.0
H1300 H 0.52482 0.45708 0.85546 0.0
H1301 H 0.55747 0.53624 0.8205 0.0
C1302 C 0.55994 0.51097 0.7971 0.0
C1303 C 0.55498 0.48449 0.79035 0.0
C1304 C 0.52607 0.47673 0.85965 0.0
C1305 C 0.54275 0.49394 0.82762 0.0
C1306 C 0.51845 0.48088 0.87781 0.0
C1307 C 0.51965 0.50605 0.88362 0.0
C1308 C 0.53506 0.49793 0.84719 0.0
C1309 C 0.5288 0.52674 0.87076 0.0
C1310 C 0.5538 0.51575 0.81567 0.0
C1311 C 0.54433 0.46339 0.80286 0.0
N1312 N 0.53618 0.52224 0.85316 0.0
N1313 N 0.53855 0.46856 0.82086 0.0
H1314 H 0.54206 0.04502 0.79105 0.0
H1315 H 0.49612 0.04978 0.89756 0.0
H1316 H 0.52104 0.10562 0.8131 0.0
H1317 H 0.48975 0.97595 0.86825 0.0
H1318 H 0.51098 0.07321 0.86826 0.0
H1319 H 0.52951 0.02243 0.82113 0.0
C1320 C 0.53507 0.0537 0.80232 0.0
C1321 C 0.53246 0.07712 0.79961 0.0
C1322 C 0.50629 0.05186 0.86826 0.0
C1323 C 0.51807 0.05148 0.8339 0.0
C1324 C 0.49758 0.03834 0.88496 0.0
C1325 C 0.49144 0.01068 0.88545 0.0
C1326 C 0.50923 0.03781 0.85194 0.0
C1327 C 0.49455 -0.00265 0.86873 0.0
C1328 C 0.52772 0.04072 0.81938 0.0
C1329 C 0.52308 0.08743 0.81457 0.0
N1330 N 0.50327 0.01104 0.85269 0.0
N1331 N 0.51626 0.07457 0.83109 0.0
H1332 H 0.10857 0.21426 0.54703 0.0
H1333 H 0.14548 0.35249 0.49662 0.0
H1334 H 0.09836 0.28042 0.57319 0.0
H1335 H 0.14201 0.28011 0.46734 0.0
H1336 H 0.1293 0.32713 0.5251 0.0
H1337 H 0.12221 0.23884 0.51803 0.0
C1338 C 0.10922 0.23399 0.54665 0.0
C1339 C 0.10243 0.24538 0.56256 0.0
C1340 C 0.13205 0.31681 0.51242 0.0
C1341 C 0.11799 0.27366 0.52939 0.0
C1342 C 0.14119 0.33124 0.49611 0.0
C1343 C 0.14526 0.3185 0.47954 0.0
C1344 C 0.12702 0.28946 0.51221 0.0
C1345 C 0.13971 0.29101 0.47988 0.0
C1346 C 0.11688 0.24797 0.53006 0.0
C1347 C 0.10324 0.27083 0.56119 0.0
N1348 N 0.13096 0.27747 0.49594 0.0
N1349 N 0.11105 0.28421 0.54493 0.0
H1350 H 0.74802 0.89398 0.58117 0.0
H1351 H 0.64489 0.78799 0.49124 0.0
H1352 H 0.69163 0.80653 0.58492 0.0
H1353 H 0.70696 0.87347 0.48617 0.0
H1354 H 0.66104 0.79465 0.52576 0.0
H1355 H 0.73247 0.88721 0.5465 0.0
C1356 C 0.73226 0.87338 0.5747 0.0
C1357 C 0.72104 0.85079 0.58594 0.0
C1358 C 0.67119 0.81195 0.5171 0.0
C1359 C 0.70331 0.84283 0.54626 0.0
C1360 C 0.66187 0.80819 0.49742 0.0
C1361 C 0.67455 0.83024 0.48583 0.0
C1362 C 0.69326 0.83799 0.52531 0.0
C1363 C 0.69677 0.85585 0.49453 0.0
C1364 C 0.72353 0.86948 0.55489 0.0
C1365 C 0.70101 0.82446 0.57675 0.0
N1366 N 0.70534 0.85905 0.51377 0.0
N1367 N 0.69272 0.82122 0.55746 0.0
H1368 H 0.17913 0.86041 0.58218 0.0
H1369 H 0.13479 0.83628 0.46858 0.0
H1370 H 0.09835 0.84498 0.55764 0.0
H1371 H 0.20355 0.82845 0.49422 0.0
H1372 H 0.12044 0.8385 0.50088 0.0
H1373 H 0.18832 0.8484 0.55003 0.0
C1374 C 0.16327 0.85429 0.57001 0.0
C1375 C 0.13803 0.85381 0.5725 0.0
C1376 C 0.1385 0.83601 0.49941 0.0
C1377 C 0.14842 0.84025 0.53569 0.0
C1378 C 0.14665 0.83457 0.48092 0.0
C1379 C 0.17063 0.83242 0.4786 0.0
C1380 C 0.15459 0.83562 0.51575 0.0
C1381 C 0.18533 0.83075 0.49528 0.0
C1382 C 0.16845 0.84733 0.55169 0.0
C1383 C 0.11803 0.8455 0.55632 0.0
N1384 N 0.17725 0.83269 0.51314 0.0
N1385 N 0.1238 0.83936 0.53854 0.0
H1386 H 0.6697 0.80751 0.11289 0.0
H1387 H 0.64485 0.83942 0.2204 0.0
H1388 H 0.60881 0.83142 0.12605 0.0
H1389 H 0.71893 0.83716 0.20654 0.0
H1390 H 0.63259 0.83877 0.18593 0.0
H1391 H 0.68912 0.81972 0.14704 0.0
C1392 C 0.66061 0.81556 0.12297 0.0
C1393 C 0.63757 0.81835 0.11671 0.0
C1394 C 0.65171 0.83874 0.19044 0.0
C1395 C 0.65945 0.83217 0.15572 0.0
C1396 C 0.65885 0.8393 0.21018 0.0
C1397 C 0.68282 0.83801 0.21644 0.0
C1398 C 0.66846 0.83656 0.17681 0.0
C1399 C 0.69988 0.83748 0.20239 0.0
C1400 C 0.67175 0.82265 0.14241 0.0
C1401 C 0.6267 0.82911 0.13027 0.0
N1402 N 0.69218 0.8364 0.18323 0.0
N1403 N 0.63752 0.83532 0.1492 0.0
H1404 H 0.23337 0.85878 0.12015 0.0
H1405 H 0.17517 0.79295 0.21859 0.0
H1406 H 0.20497 0.77321 0.12946 0.0
H1407 H 0.19145 0.87443 0.20609 0.0
H1408 H 0.19 0.78684 0.1871 0.0
H1409 H 0.22238 0.86648 0.15281 0.0
C1410 C 0.22507 0.8417 0.12914 0.0
C1411 C 0.21993 0.81528 0.12205 0.0
C1412 C 0.19035 0.80607 0.19124 0.0
C1413 C 0.20711 0.82385 0.15934 0.0
C1414 C 0.18202 0.80963 0.20927 0.0
C1415 C 0.182 0.83422 0.21498 0.0
C1416 C 0.19889 0.82731 0.17882 0.0
C1417 C 0.19078 0.85499 0.20218 0.0
C1418 C 0.21862 0.84604 0.14772 0.0
C1419 C 0.2089 0.79381 0.13425 0.0
N1420 N 0.19889 0.85108 0.18472 0.0
N1421 N 0.20284 0.79855 0.15227 0.0
H1422 H 0.19016 0.44256 0.14516 0.0
H1423 H 0.1789 0.32369 0.21003 0.0
H1424 H 0.21756 0.38496 0.12802 0.0
H1425 H 0.15381 0.38335 0.22671 0.0
H1426 H 0.19442 0.34626 0.18035 0.0
H1427 H 0.17864 0.42206 0.1758 0.0
C1428 C 0.1938 0.42559 0.14791 0.0
C1429 C 0.20458 0.41525 0.13399 0.0
C1430 C 0.18561 0.35445 0.19055 0.0
C1431 C 0.19143 0.3916 0.16906 0.0
C1432 C 0.17655 0.34146 0.20742 0.0
C1433 C 0.165 0.35162 0.22088 0.0
C1434 C 0.18298 0.3777 0.18707 0.0
C1435 C 0.16288 0.37498 0.21688 0.0
C1436 C 0.18728 0.41392 0.16542 0.0
C1437 C 0.20936 0.39357 0.13841 0.0
N1438 N 0.1717 0.38715 0.20035 0.0
N1439 N 0.20253 0.38229 0.15553 0.0
H1440 H 0.77031 0.62048 0.90902 0.0
H1441 H 0.81118 0.61404 0.80091 0.0
H1442 H 0.78071 0.55426 0.88319 0.0
H1443 H 0.8179 0.68784 0.83048 0.0
H1444 H 0.79611 0.59036 0.83006 0.0
H1445 H 0.78322 0.64376 0.87929 0.0
C1446 C 0.7751 0.61076 0.89703 0.0
C1447 C 0.77456 0.58547 0.89858 0.0
C1448 C 0.80091 0.61175 0.83019 0.0
C1449 C 0.78944 0.61198 0.86463 0.0
C1450 C 0.80971 0.62538 0.81357 0.0
C1451 C 0.81608 0.65312 0.81323 0.0
C1452 C 0.79823 0.62581 0.84663 0.0
C1453 C 0.813 0.66641 0.82997 0.0
C1454 C 0.78264 0.62413 0.88014 0.0
C1455 C 0.78121 0.5739 0.88269 0.0
N1456 N 0.80432 0.65264 0.84599 0.0
N1457 N 0.78835 0.58723 0.86639 0.0
H1458 H 0.35372 0.19006 0.91649 0.0
H1459 H 0.36457 0.14079 0.80822 0.0
H1460 H 0.41275 0.16432 0.90164 0.0
H1461 H 0.30933 0.17179 0.8222 0.0
H1462 H 0.38109 0.14751 0.84264 0.0
H1463 H 0.33563 0.18161 0.8822 0.0
C1464 C 0.36287 0.18264 0.90601 0.0
C1465 C 0.38477 0.17789 0.91194 0.0
C1466 C 0.36532 0.15282 0.83819 0.0
C1467 C 0.3641 0.16802 0.87273 0.0
C1468 C 0.356 0.14913 0.81852 0.0
C1469 C 0.3356 0.15583 0.8123 0.0
C1470 C 0.35419 0.16329 0.85178 0.0
C1471 C 0.32487 0.16608 0.82636 0.0
C1472 C 0.35248 0.17772 0.88646 0.0
C1473 C 0.3956 0.16792 0.89777 0.0
N1474 N 0.33434 0.16955 0.84543 0.0
N1475 N 0.3852 0.16339 0.87884 0.0
H1476 H 0.84745 0.19339 0.91738 0.0
H1477 H 0.803 0.1725 0.80378 0.0
H1478 H 0.76713 0.17965 0.89324 0.0
H1479 H 0.87206 0.16456 0.82866 0.0
H1480 H 0.78887 0.17416 0.83624 0.0
H1481 H 0.85668 0.1825 0.88495 0.0
C1482 C 0.8317 0.1879 0.90523 0.0
C1483 C 0.80657 0.18755 0.90794 0.0
C1484 C 0.80696 0.17178 0.83457 0.0
C1485 C 0.81701 0.17523 0.87079 0.0
C1486 C 0.81498 0.17066 0.81599 0.0
C1487 C 0.83895 0.16861 0.81341 0.0
C1488 C 0.82316 0.17115 0.85075 0.0
C1489 C 0.85382 0.16678 0.82993 0.0
C1490 C 0.83691 0.18157 0.88675 0.0
C1491 C 0.78672 0.18003 0.89177 0.0
N1492 N 0.84585 0.16836 0.84788 0.0
N1493 N 0.7925 0.17447 0.87384 0.0
H1494 H 0.32855 0.13643 0.44028 0.0
H1495 H 0.32291 0.19233 0.54781 0.0
H1496 H 0.27312 0.16702 0.45464 0.0
H1497 H 0.37069 0.15256 0.53414 0.0
H1498 H 0.30973 0.18967 0.51311 0.0
H1499 H 0.34973 0.14897 0.47397 0.0
C1500 C 0.32099 0.14599 0.45048 0.0
C1501 C 0.29883 0.15041 0.44467 0.0
C1502 C 0.32332 0.18177 0.51771 0.0
C1503 C 0.323 0.16487 0.48323 0.0
C1504 C 0.33074 0.18316 0.53752 0.0
C1505 C 0.34775 0.17245 0.54394 0.0
C1506 C 0.33292 0.16953 0.50419 0.0
C1507 C 0.35773 0.16131 0.52991 0.0
C1508 C 0.33313 0.15321 0.4697 0.0
C1509 C 0.29025 0.16336 0.45843 0.0
N1510 N 0.34999 0.15995 0.51073 0.0
N1511 N 0.30216 0.16987 0.47711 0.0
H1512 H 0.86969 0.10715 0.46208 0.0
H1513 H 0.85936 0.21136 0.54105 0.0
H1514 H 0.89899 0.19347 0.45476 0.0
H1515 H 0.8398 0.12805 0.55096 0.0
H1516 H 0.87339 0.20513 0.50924 0.0
H1517 H 0.85834 0.11437 0.49461 0.0
C1518 C 0.87374 0.12764 0.46734 0.0
C1519 C 0.88516 0.14971 0.45565 0.0
C1520 C 0.86611 0.18824 0.5184 0.0
C1521 C 0.87225 0.15817 0.49293 0.0
C1522 C 0.85791 0.19172 0.53651 0.0
C1523 C 0.8483 0.17016 0.54868 0.0
C1524 C 0.86453 0.16295 0.51232 0.0
C1525 C 0.8473 0.14531 0.54214 0.0
C1526 C 0.86737 0.13179 0.48595 0.0
C1527 C 0.89037 0.17593 0.46333 0.0
N1528 N 0.85519 0.14235 0.52439 0.0
N1529 N 0.88371 0.17939 0.48143 0.0
H1530 H 0.8831 0.7176 0.46156 0.0
H1531 H 0.81457 0.71318 0.5607 0.0
H1532 H 0.8542 0.77355 0.47987 0.0
H1533 H 0.84359 0.65682 0.54363 0.0
H1534 H 0.83072 0.73651 0.53156 0.0
H1535 H 0.87111 0.69635 0.49214 0.0
C1536 C 0.87452 0.72559 0.47211 0.0
C1537 C 0.86938 0.74717 0.46812 0.0
C1538 C 0.83362 0.71906 0.53417 0.0
C1539 C 0.85536 0.72286 0.50293 0.0
C1540 C 0.82448 0.70579 0.55086 0.0
C1541 C 0.82773 0.683 0.55464 0.0
C1542 C 0.84611 0.70952 0.52105 0.0
C1543 C 0.84032 0.67407 0.54118 0.0
C1544 C 0.86751 0.71336 0.48948 0.0
C1545 C 0.85805 0.75662 0.48222 0.0
N1546 N 0.84906 0.68736 0.52498 0.0
N1547 N 0.85132 0.74434 0.49893 0.0
loop_
_geom_bond_atom_site_label_1
_geom_bond_atom_site_label_2
_geom_bond_distance
_geom_bond_site_symmetry_2
_ccdc_geom_bond_type
H0 C5 0.930 . S
H1 C8 0.930 . S
H2 C10 0.930 . S
H3 C4 1.016 . S
C4 H3 1.016 . S
C4 N11 1.286 . S
C5 H0 0.930 . S
C5 C6 1.397 . S
C5 C7 1.361 . S
C6 C5 1.397 . S
C6 C10 1.390 . S
C7 C5 1.361 . S
C7 C8 1.393 . S
C7 N11 1.413 . S
C8 H1 0.930 . S
C8 C7 1.393 . S
C8 C9 1.399 . S
C9 C8 1.399 . S
C9 C10 1.381 . S
C10 H2 0.930 . S
C10 C6 1.390 . S
C10 C9 1.381 . S
N11 C4 1.286 . S
N11 C7 1.413 . S
H12 C17 0.930 . S
H13 C20 0.930 . S
H14 C22 0.930 . S
H15 C16 1.016 . S
C16 H15 1.016 . S
C16 N23 1.286 . S
C17 H12 0.930 . S
C17 C18 1.397 . S
C17 C19 1.361 . S
C18 C17 1.397 . S
C18 C22 1.390 . S
C19 C17 1.361 . S
C19 C20 1.393 . S
C19 N23 1.413 . S
C20 H13 0.930 . S
C20 C19 1.393 . S
C20 C21 1.399 . S
C21 C20 1.399 . S
C21 C22 1.381 . S
C22 H14 0.930 . S
C22 C18 1.390 . S
C22 C21 1.381 . S
N23 C16 1.286 . S
N23 C19 1.413 . S
H24 C29 0.930 . S
H25 C32 0.930 . S
H26 C34 0.930 . S
H27 C28 1.016 . S
C28 H27 1.016 . S
C28 N35 1.286 . S
C29 H24 0.930 . S
C29 C30 1.397 . S
C29 C31 1.361 . S
C30 C29 1.397 . S
C30 C34 1.390 . S
C31 C29 1.361 . S
C31 C32 1.393 . S
C31 N35 1.413 . S
C32 H25 0.930 . S
C32 C31 1.393 . S
C32 C33 1.399 . S
C33 C32 1.399 . S
C33 C34 1.381 . S
C34 H26 0.930 . S
C34 C30 1.390 . S
C34 C33 1.381 . S
N35 C28 1.286 . S
N35 C31 1.413 . S
H36 C41 0.930 . S
H37 C44 0.930 . S
H38 C46 0.930 . S
H39 C40 1.016 . S
C40 H39 1.016 . S
C40 N47 1.286 . S
C41 H36 0.930 . S
C41 C42 1.397 . S
C41 C43 1.361 . S
C42 C41 1.397 . S
C42 C46 1.390 . S
C43 C41 1.361 . S
C43 C44 1.393 . S
C43 N47 1.413 . S
C44 H37 0.930 . S
C44 C43 1.393 . S
C44 C45 1.399 . S
C45 C44 1.399 . S
C45 C46 1.381 . S
C46 H38 0.930 . S
C46 C42 1.390 . S
C46 C45 1.381 . S
N47 C40 1.286 . S
N47 C43 1.413 . S
H48 C53 0.930 . S
H49 C56 0.930 . S
H50 C58 0.930 . S
H51 C52 1.016 . S
C52 H51 1.016 . S
C52 N59 1.286 . S
C53 H48 0.930 . S
C53 C54 1.397 . S
C53 C55 1.361 . S
C54 C53 1.397 . S
C54 C58 1.390 . S
C55 C53 1.361 . S
C55 C56 1.393 . S
C55 N59 1.413 . S
C56 H49 0.930 . S
C56 C55 1.393 . S
C56 C57 1.399 . S
C57 C56 1.399 . S
C57 C58 1.381 . S
C58 H50 0.930 . S
C58 C54 1.390 . S
C58 C57 1.381 . S
N59 C52 1.286 . S
N59 C55 1.413 . S
H60 C65 0.930 . S
H61 C68 0.930 . S
H62 C70 0.930 . S
H63 C64 1.016 . S
C64 H63 1.016 . S
C64 N71 1.286 . S
C65 H60 0.930 . S
C65 C66 1.397 . S
C65 C67 1.361 . S
C66 C65 1.397 . S
C66 C70 1.390 . S
C67 C65 1.361 . S
C67 C68 1.393 . S
C67 N71 1.413 . S
C68 H61 0.930 . S
C68 C67 1.393 . S
C68 C69 1.399 . S
C69 C68 1.399 . S
C69 C70 1.381 . S
C70 H62 0.930 . S
C70 C66 1.390 . S
C70 C69 1.381 . S
N71 C64 1.286 . S
N71 C67 1.413 . S
H72 C77 0.930 . S
H73 C80 0.930 . S
H74 C82 0.930 . S
H75 C76 1.016 . S
C76 H75 1.016 . S
C76 N83 1.286 . S
C77 H72 0.930 . S
C77 C78 1.397 . S
C77 C79 1.361 . S
C78 C77 1.397 . S
C78 C82 1.390 . S
C79 C77 1.361 . S
C79 C80 1.393 . S
C79 N83 1.413 . S
C80 H73 0.930 . S
C80 C79 1.393 . S
C80 C81 1.399 . S
C81 C80 1.399 . S
C81 C82 1.381 . S
C82 H74 0.930 . S
C82 C78 1.390 . S
C82 C81 1.381 . S
N83 C76 1.286 . S
N83 C79 1.413 . S
H84 C89 0.930 . S
H85 C92 0.930 . S
H86 C94 0.930 . S
H87 C88 1.016 . S
C88 H87 1.016 . S
C88 N95 1.286 . S
C89 H84 0.930 . S
C89 C90 1.397 . S
C89 C91 1.361 . S
C90 C89 1.397 . S
C90 C94 1.390 . S
C91 C89 1.361 . S
C91 C92 1.393 . S
C91 N95 1.413 . S
C92 H85 0.930 . S
C92 C91 1.393 . S
C92 C93 1.399 . S
C93 C92 1.399 . S
C93 C94 1.381 . S
C94 H86 0.930 . S
C94 C90 1.390 . S
C94 C93 1.381 . S
N95 C88 1.286 . S
N95 C91 1.413 . S
H96 C101 0.930 . S
H97 C104 0.930 . S
H98 C106 0.930 . S
H99 C100 1.016 . S
C100 H99 1.016 . S
C100 N107 1.286 . S
C101 H96 0.930 . S
C101 C102 1.397 . S
C101 C103 1.361 . S
C102 C101 1.397 . S
C102 C106 1.390 . S
C103 C101 1.361 . S
C103 C104 1.393 . S
C103 N107 1.413 . S
C104 H97 0.930 . S
C104 C103 1.393 . S
C104 C105 1.399 . S
C105 C104 1.399 . S
C105 C106 1.381 . S
C106 H98 0.930 . S
C106 C102 1.390 . S
C106 C105 1.381 . S
N107 C100 1.286 . S
N107 C103 1.413 . S
H108 C113 0.930 . S
H109 C116 0.930 . S
H110 C118 0.930 . S
H111 C112 1.016 . S
C112 H111 1.016 . S
C112 N119 1.286 . S
C113 H108 0.930 . S
C113 C114 1.397 . S
C113 C115 1.361 . S
C114 C113 1.397 . S
C114 C118 1.390 . S
C115 C113 1.361 . S
C115 C116 1.393 . S
C115 N119 1.413 . S
C116 H109 0.930 . S
C116 C115 1.393 . S
C116 C117 1.399 . S
C117 C116 1.399 . S
C117 C118 1.381 . S
C118 H110 0.930 . S
C118 C114 1.390 . S
C118 C117 1.381 . S
N119 C112 1.286 . S
N119 C115 1.413 . S
H120 C125 0.930 . S
H121 C128 0.930 . S
H122 C130 0.930 . S
H123 C124 1.016 . S
C124 H123 1.016 . S
C124 N131 1.286 . S
C125 H120 0.930 . S
C125 C126 1.397 . S
C125 C127 1.361 . S
C126 C125 1.397 . S
C126 C130 1.390 . S
C127 C125 1.361 . S
C127 C128 1.393 . S
C127 N131 1.413 . S
C128 H121 0.930 . S
C128 C127 1.393 . S
C128 C129 1.399 . S
C129 C128 1.399 . S
C129 C130 1.381 . S
C130 H122 0.930 . S
C130 C126 1.390 . S
C130 C129 1.381 . S
N131 C124 1.286 . S
N131 C127 1.413 . S
H132 C137 0.930 . S
H133 C140 0.930 . S
H134 C142 0.930 . S
H135 C136 1.016 . S
C136 H135 1.016 . S
C136 N143 1.286 . S
C137 H132 0.930 . S
C137 C138 1.397 . S
C137 C139 1.361 . S
C138 C137 1.397 . S
C138 C142 1.390 . S
C139 C137 1.361 . S
C139 C140 1.393 . S
C139 N143 1.413 . S
C140 H133 0.930 . S
C140 C139 1.393 . S
C140 C141 1.399 . S
C141 C140 1.399 . S
C141 C142 1.381 . S
C142 H134 0.930 . S
C142 C138 1.390 . S
C142 C141 1.381 . S
N143 C136 1.286 . S
N143 C139 1.413 . S
H144 C149 0.930 . S
H145 C152 0.930 . S
H146 C154 0.930 . S
H147 C148 1.016 . S
C148 H147 1.016 . S
C148 N155 1.286 . S
C149 H144 0.930 . S
C149 C150 1.397 . S
C149 C151 1.361 . S
C150 C149 1.397 . S
C150 C154 1.390 . S
C151 C149 1.361 . S
C151 C152 1.393 . S
C151 N155 1.413 . S
C152 H145 0.930 . S
C152 C151 1.393 . S
C152 C153 1.399 . S
C153 C152 1.399 . S
C153 C154 1.381 . S
C154 H146 0.930 . S
C154 C150 1.390 . S
C154 C153 1.381 . S
N155 C148 1.286 . S
N155 C151 1.413 . S
H156 C161 0.930 . S
H157 C164 0.930 . S
H158 C166 0.930 . S
H159 C160 1.016 . S
C160 H159 1.016 . S
C160 N167 1.286 . S
C161 H156 0.930 . S
C161 C162 1.397 . S
C161 C163 1.361 . S
C162 C161 1.397 . S
C162 C166 1.390 . S
C163 C161 1.361 . S
C163 C164 1.393 . S
C163 N167 1.413 . S
C164 H157 0.930 . S
C164 C163 1.393 . S
C164 C165 1.399 . S
C165 C164 1.399 . S
C165 C166 1.381 . S
C166 H158 0.930 . S
C166 C162 1.390 . S
C166 C165 1.381 . S
N167 C160 1.286 . S
N167 C163 1.413 . S
H168 C173 0.930 . S
H169 C176 0.930 . S
H170 C178 0.930 . S
H171 C172 1.016 . S
C172 H171 1.016 . S
C172 N179 1.286 . S
C173 H168 0.930 . S
C173 C174 1.397 . S
C173 C175 1.361 . S
C174 C173 1.397 . S
C174 C178 1.390 . S
C175 C173 1.361 . S
C175 C176 1.393 . S
C175 N179 1.413 . S
C176 H169 0.930 . S
C176 C175 1.393 . S
C176 C177 1.399 . S
C177 C176 1.399 . S
C177 C178 1.381 . S
C178 H170 0.930 . S
C178 C174 1.390 . S
C178 C177 1.381 . S
N179 C172 1.286 . S
N179 C175 1.413 . S
H180 C185 0.930 . S
H181 C188 0.930 . S
H182 C190 0.930 . S
H183 C184 1.016 . S
C184 H183 1.016 . S
C184 N191 1.286 . S
C185 H180 0.930 . S
C185 C186 1.397 . S
C185 C187 1.361 . S
C186 C185 1.397 . S
C186 C190 1.390 . S
C187 C185 1.361 . S
C187 C188 1.393 . S
C187 N191 1.413 . S
C188 H181 0.930 . S
C188 C187 1.393 . S
C188 C189 1.399 . S
C189 C188 1.399 . S
C189 C190 1.381 . S
C190 H182 0.930 . S
C190 C186 1.390 . S
C190 C189 1.381 . S
N191 C184 1.286 . S
N191 C187 1.413 . S
H192 C197 0.930 . S
H193 C200 0.930 . S
H194 C202 0.930 . S
H195 C196 1.016 . S
C196 H195 1.016 . S
C196 N203 1.286 . S
C197 H192 0.930 . S
C197 C198 1.397 . S
C197 C199 1.361 . S
C198 C197 1.397 . S
C198 C202 1.390 . S
C199 C197 1.361 . S
C199 C200 1.393 . S
C199 N203 1.413 . S
C200 H193 0.930 . S
C200 C199 1.393 . S
C200 C201 1.399 . S
C201 C200 1.399 . S
C201 C202 1.381 . S
C202 H194 0.930 . S
C202 C198 1.390 . S
C202 C201 1.381 . S
N203 C196 1.286 . S
N203 C199 1.413 . S
H204 C209 0.930 . S
H205 C212 0.930 . S
H206 C214 0.930 . S
H207 C208 1.016 . S
C208 H207 1.016 . S
C208 N215 1.286 . S
C209 H204 0.930 . S
C209 C210 1.397 . S
C209 C211 1.361 . S
C210 C209 1.397 . S
C210 C214 1.390 . S
C211 C209 1.361 . S
C211 C212 1.393 . S
C211 N215 1.413 . S
C212 H205 0.930 . S
C212 C211 1.393 . S
C212 C213 1.399 . S
C213 C212 1.399 . S
C213 C214 1.381 . S
C214 H206 0.930 . S
C214 C210 1.390 . S
C214 C213 1.381 . S
N215 C208 1.286 . S
N215 C211 1.413 . S
Eu216 C225 2.828 1_565 S
Eu216 O227 2.392 . S
Eu216 O229 2.418 . S
Eu216 O234 2.373 1_565 S
Eu216 O237 2.488 . S
Eu216 O238 2.471 1_565 S
Eu216 O239 2.349 1_565 S
Eu217 O226 2.373 1_545 S
Eu217 O230 2.488 . S
Eu217 O231 2.471 1_545 S
Eu217 O232 2.349 1_545 S
Eu217 O235 2.392 . S
Eu217 O236 2.418 . S
Eu217 C246 2.828 . S
C218 O236 1.244 . S
C218 O239 1.265 1_554 S
C219 C220 1.379 . S
C219 C223 1.373 1_545 S
C219 C225 1.505 . S
C220 C219 1.379 . S
C220 C222 1.369 . S
C220 H248 0.930 . S
C221 C223 1.383 1_545 S
C221 C224 1.382 . S
C221 H249 0.930 1_545 S
C222 C220 1.369 . S
C222 C224 1.392 . S
C222 H250 0.930 . S
C223 C219 1.373 1_565 S
C223 C221 1.383 1_565 S
C223 H251 0.931 . S
C224 C221 1.382 . S
C224 C222 1.392 . S
C225 Eu216 2.828 1_545 S
C225 C219 1.505 . S
C225 O237 1.249 1_545 S
C225 O238 1.244 . S
O226 Eu217 2.373 1_565 S
O226 C228 1.258 . S
O227 Eu216 2.392 . S
O227 C228 1.242 1_556 S
C228 O226 1.258 . S
C228 O227 1.242 1_554 S
O229 Eu216 2.418 . S
O229 C233 1.244 1_556 S
O230 Eu217 2.488 . S
O230 C246 1.249 . S
O231 Eu217 2.471 1_565 S
O231 C246 1.244 1_565 S
O232 Eu217 2.349 1_565 S
O232 C233 1.265 . S
C233 O229 1.244 1_554 S
C233 O232 1.265 . S
O234 Eu216 2.373 1_545 S
O234 C247 1.258 . S
O235 Eu217 2.392 . S
O235 C247 1.242 1_554 S
O236 Eu217 2.418 . S
O236 C218 1.244 . S
O237 Eu216 2.488 . S
O237 C225 1.249 1_565 S
O238 Eu216 2.471 1_545 S
O238 C225 1.244 . S
O239 Eu216 2.349 1_545 S
O239 C218 1.265 1_556 S
C240 C241 1.379 . S
C240 C244 1.373 1_565 S
C240 C246 1.505 1_565 S
C241 C240 1.379 . S
C241 C243 1.369 . S
C241 H252 0.930 . S
C242 C244 1.383 . S
C242 C245 1.382 1_545 S
C242 H253 0.930 . S
C243 C241 1.369 . S
C243 C245 1.392 . S
C243 H254 0.930 . S
C244 C240 1.373 1_545 S
C244 C242 1.383 . S
C244 H255 0.931 . S
C245 C242 1.382 1_565 S
C245 C243 1.392 . S
C246 Eu217 2.828 . S
C246 O230 1.249 . S
C246 O231 1.244 1_545 S
C246 C240 1.505 1_545 S
C247 O234 1.258 . S
C247 O235 1.242 1_556 S
H248 C220 0.930 . S
H249 C221 0.930 1_565 S
H250 C222 0.930 . S
H251 C223 0.931 . S
H252 C241 0.930 . S
H253 C242 0.930 . S
H254 C243 0.930 . S
H255 C244 0.931 . S
Eu256 C265 2.822 1_455 S
Eu256 O267 2.392 1_556 S
Eu256 O269 2.418 . S
Eu256 O274 2.373 1_455 S
Eu256 O277 2.488 . S
Eu256 O278 2.471 1_455 S
Eu256 O279 2.349 1_455 S
Eu257 O266 2.373 1_655 S
Eu257 O270 2.488 . S
Eu257 O271 2.471 1_655 S
Eu257 O272 2.349 1_655 S
Eu257 O275 2.392 . S
Eu257 O276 2.418 . S
Eu257 C286 2.828 1_655 S
C258 O276 1.244 . S
C258 O279 1.265 1_554 S
C259 C260 1.379 . S
C259 C263 1.373 1_655 S
C259 C265 1.512 . S
C260 C259 1.379 . S
C260 C262 1.369 . S
C260 H288 0.930 . S
C261 C263 1.383 1_655 S
C261 C264 1.382 . S
C261 H289 0.930 1_655 S
C262 C260 1.369 . S
C262 C264 1.392 . S
C262 H290 0.930 . S
C263 C259 1.373 1_455 S
C263 C261 1.383 1_455 S
C263 H291 0.931 . S
C264 C261 1.382 . S
C264 C262 1.392 . S
C265 Eu256 2.822 1_655 S
C265 C259 1.512 . S
C265 O277 1.241 1_655 S
C265 O278 1.247 . S
O266 Eu257 2.373 1_455 S
O266 C268 1.258 . S
O267 Eu256 2.392 1_554 S
O267 C268 1.242 . S
C268 O266 1.258 . S
C268 O267 1.242 . S
O269 Eu256 2.418 . S
O269 C273 1.244 1_556 S
O270 Eu257 2.488 . S
O270 C286 1.249 1_655 S
O271 Eu257 2.471 1_455 S
O271 C286 1.244 . S
O272 Eu257 2.349 1_455 S
O272 C273 1.265 . S
C273 O269 1.244 1_554 S
C273 O272 1.265 . S
O274 Eu256 2.373 1_655 S
O274 C287 1.258 . S
O275 Eu257 2.392 . S
O275 C287 1.242 1_554 S
O276 Eu257 2.418 . S
O276 C258 1.244 . S
O277 Eu256 2.488 . S
O277 C265 1.241 1_455 S
O278 Eu256 2.471 1_655 S
O278 C265 1.247 . S
O279 Eu256 2.349 1_655 S
O279 C258 1.265 1_556 S
C280 C281 1.379 . S
C280 C284 1.365 1_455 S
C280 C286 1.505 . S
C281 C280 1.379 . S
C281 C283 1.369 . S
C281 H292 0.930 . S
C282 C284 1.374 1_455 S
C282 C285 1.382 . S
C282 H293 0.930 1_455 S
C283 C281 1.369 . S
C283 C285 1.392 . S
C283 H294 0.930 . S
C284 C280 1.365 1_655 S
C284 C282 1.374 1_655 S
C284 H295 0.949 . S
C285 C282 1.382 . S
C285 C283 1.392 . S
C286 Eu257 2.828 1_455 S
C286 O270 1.249 1_455 S
C286 O271 1.244 . S
C286 C280 1.505 . S
C287 O274 1.258 . S
C287 O275 1.242 1_556 S
H288 C260 0.930 . S
H289 C261 0.930 1_455 S
H290 C262 0.930 . S
H291 C263 0.931 . S
H292 C281 0.930 . S
H293 C282 0.930 1_655 S
H294 C283 0.930 . S
H295 C284 0.949 . S
Eu296 C305 2.828 . S
Eu296 O307 2.392 . S
Eu296 O309 2.418 . S
Eu296 O314 2.373 . S
Eu296 O317 2.488 . S
Eu296 O318 2.471 . S
Eu296 O319 2.349 . S
Eu297 O306 2.373 . S
Eu297 O310 2.488 . S
Eu297 O311 2.471 . S
Eu297 O312 2.343 1_556 S
Eu297 O315 2.392 1_556 S
Eu297 O316 2.418 . S
Eu297 C326 2.828 . S
C298 O316 1.244 1_554 S
C298 O319 1.265 . S
C299 C300 1.379 . S
C299 C303 1.373 . S
C299 C305 1.505 . S
C300 C299 1.379 . S
C300 C302 1.369 . S
C300 H328 0.930 . S
C301 C303 1.383 . S
C301 C304 1.382 . S
C301 H329 0.930 . S
C302 C300 1.369 . S
C302 C304 1.392 . S
C302 H330 0.930 . S
C303 C299 1.373 . S
C303 C301 1.383 . S
C303 H331 0.931 . S
C304 C301 1.382 . S
C304 C302 1.392 . S
C305 Eu296 2.828 . S
C305 C299 1.505 . S
C305 O317 1.249 . S
C305 O318 1.244 . S
O306 Eu297 2.373 . S
O306 C308 1.258 . S
O307 Eu296 2.392 . S
O307 C308 1.242 1_554 S
C308 O306 1.258 . S
C308 O307 1.242 1_556 S
O309 Eu296 2.418 . S
O309 C313 1.244 . S
O310 Eu297 2.488 . S
O310 C326 1.249 . S
O311 Eu297 2.471 . S
O311 C326 1.244 . S
O312 Eu297 2.343 1_554 S
O312 C313 1.271 . S
C313 O309 1.244 . S
C313 O312 1.271 . S
O314 Eu296 2.373 . S
O314 C327 1.258 . S
O315 Eu297 2.392 1_554 S
O315 C327 1.242 . S
O316 Eu297 2.418 . S
O316 C298 1.244 1_556 S
O317 Eu296 2.488 . S
O317 C305 1.249 . S
O318 Eu296 2.471 . S
O318 C305 1.244 . S
O319 Eu296 2.349 . S
O319 C298 1.265 . S
C320 C321 1.379 . S
C320 C324 1.373 . S
C320 C326 1.505 . S
C321 C320 1.379 . S
C321 C323 1.369 . S
C321 H332 0.930 . S
C322 C324 1.383 . S
C322 C325 1.382 . S
C322 H333 0.930 . S
C323 C321 1.369 . S
C323 C325 1.392 . S
C323 H334 0.930 . S
C324 C320 1.373 . S
C324 C322 1.383 . S
C324 H335 0.931 . S
C325 C322 1.382 . S
C325 C323 1.392 . S
C326 Eu297 2.828 . S
C326 O310 1.249 . S
C326 O311 1.244 . S
C326 C320 1.505 . S
C327 O314 1.258 . S
C327 O315 1.242 . S
H328 C300 0.930 . S
H329 C301 0.930 . S
H330 C302 0.930 . S
H331 C303 0.931 . S
H332 C321 0.930 . S
H333 C322 0.930 . S
H334 C323 0.930 . S
H335 C324 0.931 . S
Eu336 C345 2.828 . S
Eu336 O347 2.392 . S
Eu336 O349 2.418 . S
Eu336 O354 2.373 . S
Eu336 O357 2.488 . S
Eu336 O358 2.471 . S
Eu336 O359 2.349 . S
Eu337 O346 2.373 . S
Eu337 O350 2.488 . S
Eu337 O351 2.471 . S
Eu337 O352 2.349 . S
Eu337 O355 2.392 . S
Eu337 O356 2.418 . S
Eu337 C366 2.828 . S
C338 O356 1.244 . S
C338 O359 1.265 . S
C339 C340 1.379 . S
C339 C343 1.373 . S
C339 C345 1.505 . S
C340 C339 1.379 . S
C340 C342 1.369 . S
C340 H368 0.930 . S
C341 C343 1.383 . S
C341 C344 1.382 . S
C341 H369 0.930 . S
C342 C340 1.369 . S
C342 C344 1.392 . S
C342 H370 0.930 . S
C343 C339 1.373 . S
C343 C341 1.383 . S
C343 H371 0.931 . S
C344 C341 1.382 . S
C344 C342 1.392 . S
C345 Eu336 2.828 . S
C345 C339 1.505 . S
C345 O357 1.249 . S
C345 O358 1.244 . S
O346 Eu337 2.373 . S
O346 C348 1.258 . S
O347 Eu336 2.392 . S
O347 C348 1.242 . S
C348 O346 1.258 . S
C348 O347 1.242 . S
O349 Eu336 2.418 . S
O349 C353 1.244 . S
O350 Eu337 2.488 . S
O350 C366 1.249 . S
O351 Eu337 2.471 . S
O351 C366 1.244 . S
O352 Eu337 2.349 . S
O352 C353 1.265 . S
C353 O349 1.244 . S
C353 O352 1.265 . S
O354 Eu336 2.373 . S
O354 C367 1.258 . S
O355 Eu337 2.392 . S
O355 C367 1.242 . S
O356 Eu337 2.418 . S
O356 C338 1.244 . S
O357 Eu336 2.488 . S
O357 C345 1.249 . S
O358 Eu336 2.471 . S
O358 C345 1.244 . S
O359 Eu336 2.349 . S
O359 C338 1.265 . S
C360 C361 1.379 . S
C360 C364 1.373 . S
C360 C366 1.505 . S
C361 C360 1.379 . S
C361 C363 1.369 . S
C361 H372 0.930 . S
C362 C364 1.383 . S
C362 C365 1.382 . S
C362 H373 0.930 . S
C363 C361 1.369 . S
C363 C365 1.392 . S
C363 H374 0.930 . S
C364 C360 1.373 . S
C364 C362 1.383 . S
C364 H375 0.931 . S
C365 C362 1.382 . S
C365 C363 1.392 . S
C366 Eu337 2.828 . S
C366 O350 1.249 . S
C366 O351 1.244 . S
C366 C360 1.505 . S
C367 O354 1.258 . S
C367 O355 1.242 . S
H368 C340 0.930 . S
H369 C341 0.930 . S
H370 C342 0.930 . S
H371 C343 0.931 . S
H372 C361 0.930 . S
H373 C362 0.930 . S
H374 C363 0.930 . S
H375 C364 0.931 . S
Eu376 C385 2.828 . S
Eu376 O387 2.392 . S
Eu376 O389 2.418 . S
Eu376 O394 2.373 . S
Eu376 O397 2.488 . S
Eu376 O398 2.471 . S
Eu376 O399 2.349 . S
Eu377 O386 2.373 . S
Eu377 O390 2.488 . S
Eu377 O391 2.471 . S
Eu377 O392 2.349 . S
Eu377 O395 2.392 . S
Eu377 O396 2.418 . S
Eu377 C406 2.828 . S
C378 O396 1.244 . S
C378 O399 1.265 . S
C379 C380 1.379 . S
C379 C383 1.373 . S
C379 C385 1.505 . S
C380 C379 1.379 . S
C380 C382 1.369 . S
C380 H408 0.930 . S
C381 C383 1.383 . S
C381 C384 1.382 . S
C381 H409 0.930 . S
C382 C380 1.369 . S
C382 C384 1.392 . S
C382 H410 0.930 . S
C383 C379 1.373 . S
C383 C381 1.383 . S
C383 H411 0.931 . S
C384 C381 1.382 . S
C384 C382 1.392 . S
C385 Eu376 2.828 . S
C385 C379 1.505 . S
C385 O397 1.249 . S
C385 O398 1.244 . S
O386 Eu377 2.373 . S
O386 C388 1.258 . S
O387 Eu376 2.392 . S
O387 C388 1.242 . S
C388 O386 1.258 . S
C388 O387 1.242 . S
O389 Eu376 2.418 . S
O389 C393 1.244 . S
O390 Eu377 2.488 . S
O390 C406 1.249 . S
O391 Eu377 2.471 . S
O391 C406 1.244 . S
O392 Eu377 2.349 . S
O392 C393 1.265 . S
C393 O389 1.244 . S
C393 O392 1.265 . S
O394 Eu376 2.373 . S
O394 C407 1.258 . S
O395 Eu377 2.392 . S
O395 C407 1.242 . S
O396 Eu377 2.418 . S
O396 C378 1.244 . S
O397 Eu376 2.488 . S
O397 C385 1.249 . S
O398 Eu376 2.471 . S
O398 C385 1.244 . S
O399 Eu376 2.349 . S
O399 C378 1.265 . S
C400 C401 1.379 . S
C400 C404 1.373 . S
C400 C406 1.505 . S
C401 C400 1.379 . S
C401 C403 1.369 . S
C401 H412 0.930 . S
C402 C404 1.383 . S
C402 C405 1.382 . S
C402 H413 0.930 . S
C403 C401 1.369 . S
C403 C405 1.392 . S
C403 H414 0.930 . S
C404 C400 1.373 . S
C404 C402 1.383 . S
C404 H415 0.931 . S
C405 C402 1.382 . S
C405 C403 1.392 . S
C406 Eu377 2.828 . S
C406 O390 1.249 . S
C406 O391 1.244 . S
C406 C400 1.505 . S
C407 O394 1.258 . S
C407 O395 1.242 . S
H408 C380 0.930 . S
H409 C381 0.930 . S
H410 C382 0.930 . S
H411 C383 0.931 . S
H412 C401 0.930 . S
H413 C402 0.930 . S
H414 C403 0.930 . S
H415 C404 0.931 . S
Eu416 C425 2.828 . S
Eu416 O427 2.392 . S
Eu416 O429 2.418 . S
Eu416 O434 2.373 . S
Eu416 O437 2.488 . S
Eu416 O438 2.471 . S
Eu416 O439 2.349 . S
Eu417 O426 2.373 . S
Eu417 O430 2.488 . S
Eu417 O431 2.471 . S
Eu417 O432 2.349 . S
Eu417 O435 2.392 . S
Eu417 O436 2.418 . S
Eu417 C446 2.828 . S
C418 O436 1.244 . S
C418 O439 1.265 . S
C419 C420 1.379 . S
C419 C423 1.373 . S
C419 C425 1.505 . S
C420 C419 1.379 . S
C420 C422 1.369 . S
C420 H448 0.930 . S
C421 C423 1.383 . S
C421 C424 1.382 . S
C421 H449 0.930 . S
C422 C420 1.369 . S
C422 C424 1.392 . S
C422 H450 0.930 . S
C423 C419 1.373 . S
C423 C421 1.383 . S
C423 H451 0.931 . S
C424 C421 1.382 . S
C424 C422 1.392 . S
C425 Eu416 2.828 . S
C425 C419 1.505 . S
C425 O437 1.249 . S
C425 O438 1.244 . S
O426 Eu417 2.373 . S
O426 C428 1.258 . S
O427 Eu416 2.392 . S
O427 C428 1.242 . S
C428 O426 1.258 . S
C428 O427 1.242 . S
O429 Eu416 2.418 . S
O429 C433 1.244 . S
O430 Eu417 2.488 . S
O430 C446 1.249 . S
O431 Eu417 2.471 . S
O431 C446 1.244 . S
O432 Eu417 2.349 . S
O432 C433 1.265 . S
C433 O429 1.244 . S
C433 O432 1.265 . S
O434 Eu416 2.373 . S
O434 C447 1.258 . S
O435 Eu417 2.392 . S
O435 C447 1.242 . S
O436 Eu417 2.418 . S
O436 C418 1.244 . S
O437 Eu416 2.488 . S
O437 C425 1.249 . S
O438 Eu416 2.471 . S
O438 C425 1.244 . S
O439 Eu416 2.349 . S
O439 C418 1.265 . S
C440 C441 1.379 . S
C440 C444 1.373 . S
C440 C446 1.505 . S
C441 C440 1.379 . S
C441 C443 1.369 . S
C441 H452 0.930 . S
C442 C444 1.383 . S
C442 C445 1.382 . S
C442 H453 0.930 . S
C443 C441 1.369 . S
C443 C445 1.392 . S
C443 H454 0.930 . S
C444 C440 1.373 . S
C444 C442 1.383 . S
C444 H455 0.931 . S
C445 C442 1.382 . S
C445 C443 1.392 . S
C446 Eu417 2.828 . S
C446 O430 1.249 . S
C446 O431 1.244 . S
C446 C440 1.505 . S
C447 O434 1.258 . S
C447 O435 1.242 . S
H448 C420 0.930 . S
H449 C421 0.930 . S
H450 C422 0.930 . S
H451 C423 0.931 . S
H452 C441 0.930 . S
H453 C442 0.930 . S
H454 C443 0.930 . S
H455 C444 0.931 . S
Eu456 C465 2.828 . S
Eu456 O467 2.392 . S
Eu456 O469 2.418 . S
Eu456 O474 2.373 . S
Eu456 O477 2.488 . S
Eu456 O478 2.471 . S
Eu456 O479 2.349 . S
Eu457 O466 2.373 . S
Eu457 O470 2.488 . S
Eu457 O471 2.471 . S
Eu457 O472 2.349 . S
Eu457 O475 2.392 . S
Eu457 O476 2.418 . S
Eu457 C486 2.828 . S
C458 O476 1.244 . S
C458 O479 1.265 . S
C459 C460 1.379 . S
C459 C463 1.373 . S
C459 C465 1.505 . S
C460 C459 1.379 . S
C460 C462 1.369 . S
C460 H488 0.930 . S
C461 C463 1.383 . S
C461 C464 1.382 . S
C461 H489 0.930 . S
C462 C460 1.369 . S
C462 C464 1.392 . S
C462 H490 0.930 . S
C463 C459 1.373 . S
C463 C461 1.383 . S
C463 H491 0.931 . S
C464 C461 1.382 . S
C464 C462 1.392 . S
C465 Eu456 2.828 . S
C465 C459 1.505 . S
C465 O477 1.249 . S
C465 O478 1.244 . S
O466 Eu457 2.373 . S
O466 C468 1.258 . S
O467 Eu456 2.392 . S
O467 C468 1.242 . S
C468 O466 1.258 . S
C468 O467 1.242 . S
O469 Eu456 2.418 . S
O469 C473 1.244 . S
O470 Eu457 2.488 . S
O470 C486 1.249 . S
O471 Eu457 2.471 . S
O471 C486 1.244 . S
O472 Eu457 2.349 . S
O472 C473 1.265 . S
C473 O469 1.244 . S
C473 O472 1.265 . S
O474 Eu456 2.373 . S
O474 C487 1.258 . S
O475 Eu457 2.392 . S
O475 C487 1.242 . S
O476 Eu457 2.418 . S
O476 C458 1.244 . S
O477 Eu456 2.488 . S
O477 C465 1.249 . S
O478 Eu456 2.471 . S
O478 C465 1.244 . S
O479 Eu456 2.349 . S
O479 C458 1.265 . S
C480 C481 1.379 . S
C480 C484 1.373 . S
C480 C486 1.505 . S
C481 C480 1.379 . S
C481 C483 1.369 . S
C481 H492 0.930 . S
C482 C484 1.383 . S
C482 C485 1.382 . S
C482 H493 0.930 . S
C483 C481 1.369 . S
C483 C485 1.392 . S
C483 H494 0.930 . S
C484 C480 1.373 . S
C484 C482 1.383 . S
C484 H495 0.931 . S
C485 C482 1.382 . S
C485 C483 1.392 . S
C486 Eu457 2.828 . S
C486 O470 1.249 . S
C486 O471 1.244 . S
C486 C480 1.505 . S
C487 O474 1.258 . S
C487 O475 1.242 . S
H488 C460 0.930 . S
H489 C461 0.930 . S
H490 C462 0.930 . S
H491 C463 0.931 . S
H492 C481 0.930 . S
H493 C482 0.930 . S
H494 C483 0.930 . S
H495 C484 0.931 . S
Eu496 C505 2.828 . S
Eu496 O507 2.392 . S
Eu496 O509 2.418 . S
Eu496 O514 2.373 . S
Eu496 O517 2.488 . S
Eu496 O518 2.471 . S
Eu496 O519 2.349 . S
Eu497 O506 2.373 . S
Eu497 O510 2.488 . S
Eu497 O511 2.471 . S
Eu497 O512 2.349 . S
Eu497 O515 2.392 . S
Eu497 O516 2.418 . S
Eu497 C526 2.828 . S
C498 O516 1.244 . S
C498 O519 1.265 . S
C499 C500 1.379 . S
C499 C503 1.373 . S
C499 C505 1.505 . S
C500 C499 1.379 . S
C500 C502 1.369 . S
C500 H528 0.930 . S
C501 C503 1.383 . S
C501 C504 1.382 . S
C501 H529 0.930 . S
C502 C500 1.369 . S
C502 C504 1.392 . S
C502 H530 0.930 . S
C503 C499 1.373 . S
C503 C501 1.383 . S
C503 H531 0.931 . S
C504 C501 1.382 . S
C504 C502 1.392 . S
C505 Eu496 2.828 . S
C505 C499 1.505 . S
C505 O517 1.249 . S
C505 O518 1.244 . S
O506 Eu497 2.373 . S
O506 C508 1.258 . S
O507 Eu496 2.392 . S
O507 C508 1.242 . S
C508 O506 1.258 . S
C508 O507 1.242 . S
O509 Eu496 2.418 . S
O509 C513 1.244 . S
O510 Eu497 2.488 . S
O510 C526 1.249 . S
O511 Eu497 2.471 . S
O511 C526 1.244 . S
O512 Eu497 2.349 . S
O512 C513 1.265 . S
C513 O509 1.244 . S
C513 O512 1.265 . S
O514 Eu496 2.373 . S
O514 C527 1.258 . S
O515 Eu497 2.392 . S
O515 C527 1.242 . S
O516 Eu497 2.418 . S
O516 C498 1.244 . S
O517 Eu496 2.488 . S
O517 C505 1.249 . S
O518 Eu496 2.471 . S
O518 C505 1.244 . S
O519 Eu496 2.349 . S
O519 C498 1.265 . S
C520 C521 1.379 . S
C520 C524 1.373 . S
C520 C526 1.505 . S
C521 C520 1.379 . S
C521 C523 1.369 . S
C521 H532 0.930 . S
C522 C524 1.383 . S
C522 C525 1.382 . S
C522 H533 0.930 . S
C523 C521 1.369 . S
C523 C525 1.392 . S
C523 H534 0.930 . S
C524 C520 1.373 . S
C524 C522 1.383 . S
C524 H535 0.931 . S
C525 C522 1.382 . S
C525 C523 1.392 . S
C526 Eu497 2.828 . S
C526 O510 1.249 . S
C526 O511 1.244 . S
C526 C520 1.505 . S
C527 O514 1.258 . S
C527 O515 1.242 . S
H528 C500 0.930 . S
H529 C501 0.930 . S
H530 C502 0.930 . S
H531 C503 0.931 . S
H532 C521 0.930 . S
H533 C522 0.930 . S
H534 C523 0.930 . S
H535 C524 0.931 . S
Eu536 C545 2.828 . S
Eu536 O547 2.392 . S
Eu536 O549 2.418 . S
Eu536 O554 2.373 . S
Eu536 O557 2.488 . S
Eu536 O558 2.471 . S
Eu536 O559 2.349 . S
Eu537 O546 2.373 . S
Eu537 O550 2.488 . S
Eu537 O551 2.471 . S
Eu537 O552 2.349 . S
Eu537 O555 2.392 . S
Eu537 O556 2.418 . S
Eu537 C566 2.828 . S
C538 O556 1.244 . S
C538 O559 1.265 . S
C539 C540 1.379 . S
C539 C543 1.373 . S
C539 C545 1.505 . S
C540 C539 1.379 . S
C540 C542 1.369 . S
C540 H568 0.930 . S
C541 C543 1.383 . S
C541 C544 1.382 . S
C541 H569 0.930 . S
C542 C540 1.369 . S
C542 C544 1.392 . S
C542 H570 0.930 . S
C543 C539 1.373 . S
C543 C541 1.383 . S
C543 H571 0.931 . S
C544 C541 1.382 . S
C544 C542 1.392 . S
C545 Eu536 2.828 . S
C545 C539 1.505 . S
C545 O557 1.249 . S
C545 O558 1.244 . S
O546 Eu537 2.373 . S
O546 C548 1.258 . S
O547 Eu536 2.392 . S
O547 C548 1.242 . S
C548 O546 1.258 . S
C548 O547 1.242 . S
O549 Eu536 2.418 . S
O549 C553 1.244 . S
O550 Eu537 2.488 . S
O550 C566 1.249 . S
O551 Eu537 2.471 . S
O551 C566 1.244 . S
O552 Eu537 2.349 . S
O552 C553 1.265 . S
C553 O549 1.244 . S
C553 O552 1.265 . S
O554 Eu536 2.373 . S
O554 C567 1.258 . S
O555 Eu537 2.392 . S
O555 C567 1.242 . S
O556 Eu537 2.418 . S
O556 C538 1.244 . S
O557 Eu536 2.488 . S
O557 C545 1.249 . S
O558 Eu536 2.471 . S
O558 C545 1.244 . S
O559 Eu536 2.349 . S
O559 C538 1.265 . S
C560 C561 1.379 . S
C560 C564 1.373 . S
C560 C566 1.505 . S
C561 C560 1.379 . S
C561 C563 1.369 . S
C561 H572 0.930 . S
C562 C564 1.383 . S
C562 C565 1.382 . S
C562 H573 0.930 . S
C563 C561 1.369 . S
C563 C565 1.392 . S
C563 H574 0.930 . S
C564 C560 1.373 . S
C564 C562 1.383 . S
C564 H575 0.931 . S
C565 C562 1.382 . S
C565 C563 1.392 . S
C566 Eu537 2.828 . S
C566 O550 1.249 . S
C566 O551 1.244 . S
C566 C560 1.505 . S
C567 O554 1.258 . S
C567 O555 1.242 . S
H568 C540 0.930 . S
H569 C541 0.930 . S
H570 C542 0.930 . S
H571 C543 0.931 . S
H572 C561 0.930 . S
H573 C562 0.930 . S
H574 C563 0.930 . S
H575 C564 0.931 . S
H576 C582 0.930 . S
H577 C586 0.930 . S
H578 C591 0.929 . S
H579 C589 0.929 . S
H580 C584 0.929 . S
H581 C590 0.929 . S
C582 H576 0.930 . S
C582 C583 1.367 . S
C582 C590 1.378 . S
C583 C582 1.367 . S
C583 C591 1.433 . S
C584 H580 0.929 . S
C584 C586 1.378 . S
C584 C588 1.350 . S
C585 C588 1.463 . S
C585 C590 1.350 . S
C585 N593 1.427 . S
C586 H577 0.930 . S
C586 C584 1.378 . S
C586 C587 1.367 . S
C587 C586 1.367 . S
C587 C589 1.433 . S
C588 C584 1.350 . S
C588 C585 1.463 . S
C588 N592 1.427 . S
C589 H579 0.929 . S
C589 C587 1.433 . S
C589 N592 1.384 . S
C590 H581 0.929 . S
C590 C582 1.378 . S
C590 C585 1.350 . S
C591 H578 0.929 . S
C591 C583 1.433 . S
C591 N593 1.384 . S
N592 C588 1.427 . S
N592 C589 1.384 . S
N593 C585 1.427 . S
N593 C591 1.384 . S
H594 C600 0.930 . S
H595 C604 0.930 . S
H596 C609 0.929 . S
H597 C607 0.929 . S
H598 C602 0.929 . S
H599 C608 0.929 . S
C600 H594 0.930 . S
C600 C601 1.367 . S
C600 C608 1.378 . S
C601 C600 1.367 . S
C601 C609 1.433 . S
C602 H598 0.929 . S
C602 C604 1.378 . S
C602 C606 1.350 . S
C603 C606 1.463 . S
C603 C608 1.350 . S
C603 N611 1.427 . S
C604 H595 0.930 . S
C604 C602 1.378 . S
C604 C605 1.367 . S
C605 C604 1.367 . S
C605 C607 1.433 . S
C606 C602 1.350 . S
C606 C603 1.463 . S
C606 N610 1.427 . S
C607 H597 0.929 . S
C607 C605 1.433 . S
C607 N610 1.384 . S
C608 H599 0.929 . S
C608 C600 1.378 . S
C608 C603 1.350 . S
C609 H596 0.929 . S
C609 C601 1.433 . S
C609 N611 1.384 . S
N610 C606 1.427 . S
N610 C607 1.384 . S
N611 C603 1.427 . S
N611 C609 1.384 . S
H612 C618 0.930 . S
H613 C622 0.930 . S
H614 C627 0.929 . S
H615 C625 0.913 1_556 S
H616 C620 0.929 . S
H617 C626 0.929 . S
C618 H612 0.930 . S
C618 C619 1.367 . S
C618 C626 1.378 . S
C619 C618 1.367 . S
C619 C627 1.433 . S
C620 H616 0.929 . S
C620 C622 1.378 . S
C620 C624 1.350 . S
C621 C624 1.463 . S
C621 C626 1.350 . S
C621 N629 1.427 . S
C622 H613 0.930 . S
C622 C620 1.378 . S
C622 C623 1.367 . S
C623 C622 1.367 . S
C623 C625 1.433 . S
C624 C620 1.350 . S
C624 C621 1.463 . S
C624 N628 1.427 . S
C625 H615 0.913 1_554 S
C625 C623 1.433 . S
C625 N628 1.384 . S
C626 H617 0.929 . S
C626 C618 1.378 . S
C626 C621 1.350 . S
C627 H614 0.929 . S
C627 C619 1.433 . S
C627 N629 1.384 . S
N628 C624 1.427 . S
N628 C625 1.384 . S
N629 C621 1.427 . S
N629 C627 1.384 . S
H630 C636 0.930 . S
H631 C640 0.930 . S
H632 C645 0.929 . S
H633 C643 0.929 1_554 S
H634 C638 0.929 . S
H635 C644 0.929 . S
C636 H630 0.930 . S
C636 C637 1.367 . S
C636 C644 1.378 . S
C637 C636 1.367 . S
C637 C645 1.433 . S
C638 H634 0.929 . S
C638 C640 1.378 . S
C638 C642 1.350 . S
C639 C642 1.463 . S
C639 C644 1.350 . S
C639 N647 1.427 . S
C640 H631 0.930 . S
C640 C638 1.378 . S
C640 C641 1.367 . S
C641 C640 1.367 . S
C641 C643 1.433 . S
C642 C638 1.350 . S
C642 C639 1.463 . S
C642 N646 1.427 . S
C643 H633 0.929 1_556 S
C643 C641 1.433 . S
C643 N646 1.384 . S
C644 H635 0.929 . S
C644 C636 1.378 . S
C644 C639 1.350 . S
C645 H632 0.929 . S
C645 C637 1.433 . S
C645 N647 1.384 . S
N646 C642 1.427 . S
N646 C643 1.384 . S
N647 C639 1.427 . S
N647 C645 1.384 . S
H648 C654 0.930 . S
H649 C658 0.930 1_554 S
H650 C663 0.929 . S
H651 C661 0.929 . S
H652 C656 0.929 . S
H653 C662 0.929 . S
C654 H648 0.930 . S
C654 C655 1.367 . S
C654 C662 1.378 . S
C655 C654 1.367 . S
C655 C663 1.433 . S
C656 H652 0.929 . S
C656 C658 1.378 . S
C656 C660 1.350 . S
C657 C660 1.463 . S
C657 C662 1.350 . S
C657 N665 1.427 . S
C658 H649 0.930 1_556 S
C658 C656 1.378 . S
C658 C659 1.367 . S
C659 C658 1.367 . S
C659 C661 1.433 . S
C660 C656 1.350 . S
C660 C657 1.463 . S
C660 N664 1.427 . S
C661 H651 0.929 . S
C661 C659 1.433 . S
C661 N664 1.384 . S
C662 H653 0.929 . S
C662 C654 1.378 . S
C662 C657 1.350 . S
C663 H650 0.929 . S
C663 C655 1.433 . S
C663 N665 1.384 . S
N664 C660 1.427 . S
N664 C661 1.384 . S
N665 C657 1.427 . S
N665 C663 1.384 . S
H666 C672 0.930 1_554 S
H667 C676 0.930 . S
H668 C681 0.929 . S
H669 C679 0.929 . S
H670 C674 0.929 . S
H671 C680 0.929 . S
C672 H666 0.930 1_556 S
C672 C673 1.367 . S
C672 C680 1.378 1_556 S
C673 C672 1.367 . S
C673 C681 1.433 . S
C674 H670 0.929 . S
C674 C676 1.378 . S
C674 C678 1.350 . S
C675 C678 1.463 . S
C675 C680 1.350 1_556 S
C675 N683 1.427 . S
C676 H667 0.930 . S
C676 C674 1.378 . S
C676 C677 1.367 . S
C677 C676 1.367 . S
C677 C679 1.433 1_556 S
C678 C674 1.350 . S
C678 C675 1.463 . S
C678 N682 1.427 1_556 S
C679 H669 0.929 . S
C679 C677 1.433 1_554 S
C679 N682 1.384 . S
C680 H671 0.929 . S
C680 C672 1.378 1_554 S
C680 C675 1.350 1_554 S
C681 H668 0.929 . S
C681 C673 1.433 . S
C681 N683 1.384 . S
N682 C678 1.427 1_554 S
N682 C679 1.384 . S
N683 C675 1.427 . S
N683 C681 1.384 . S
H684 C690 0.930 . S
H685 C694 0.930 . S
H686 C699 0.929 . S
H687 C697 0.929 . S
H688 C692 0.929 . S
H689 C698 0.929 . S
C690 H684 0.930 . S
C690 C691 1.367 . S
C690 C698 1.378 . S
C691 C690 1.367 . S
C691 C699 1.433 . S
C692 H688 0.929 . S
C692 C694 1.378 . S
C692 C696 1.350 . S
C693 C696 1.463 . S
C693 C698 1.350 . S
C693 N701 1.427 . S
C694 H685 0.930 . S
C694 C692 1.378 . S
C694 C695 1.367 . S
C695 C694 1.367 . S
C695 C697 1.433 . S
C696 C692 1.350 . S
C696 C693 1.463 . S
C696 N700 1.427 . S
C697 H687 0.929 . S
C697 C695 1.433 . S
C697 N700 1.384 . S
C698 H689 0.929 . S
C698 C690 1.378 . S
C698 C693 1.350 . S
C699 H686 0.929 . S
C699 C691 1.433 . S
C699 N701 1.384 . S
N700 C696 1.427 . S
N700 C697 1.384 . S
N701 C693 1.427 . S
N701 C699 1.384 . S
H702 C708 0.930 . S
H703 C712 0.930 . S
H704 C717 0.929 . S
H705 C715 0.929 1_554 S
H706 C710 0.929 . S
H707 C716 0.929 . S
C708 H702 0.930 . S
C708 C709 1.367 . S
C708 C716 1.378 . S
C709 C708 1.367 . S
C709 C717 1.433 . S
C710 H706 0.929 . S
C710 C712 1.378 . S
C710 C714 1.350 . S
C711 C714 1.463 . S
C711 C716 1.350 . S
C711 N719 1.427 . S
C712 H703 0.930 . S
C712 C710 1.378 . S
C712 C713 1.367 . S
C713 C712 1.367 . S
C713 C715 1.433 . S
C714 C710 1.350 . S
C714 C711 1.463 . S
C714 N718 1.427 . S
C715 H705 0.929 1_556 S
C715 C713 1.433 . S
C715 N718 1.384 . S
C716 H707 0.929 . S
C716 C708 1.378 . S
C716 C711 1.350 . S
C717 H704 0.929 . S
C717 C709 1.433 . S
C717 N719 1.384 . S
N718 C714 1.427 . S
N718 C715 1.384 . S
N719 C711 1.427 . S
N719 C717 1.384 . S
H720 C726 0.930 . S
H721 C730 0.930 . S
H722 C735 0.929 . S
H723 C733 0.929 . S
H724 C728 0.929 . S
H725 C734 0.929 . S
C726 H720 0.930 . S
C726 C727 1.367 1_554 S
C726 C734 1.378 . S
C727 C726 1.367 1_556 S
C727 C735 1.433 . S
C728 H724 0.929 . S
C728 C730 1.378 . S
C728 C732 1.350 . S
C729 C732 1.463 . S
C729 C734 1.350 1_556 S
C729 N737 1.427 . S
C730 H721 0.930 . S
C730 C728 1.378 . S
C730 C731 1.345 1_556 S
C731 C730 1.345 1_554 S
C731 C733 1.456 . S
C732 C728 1.350 . S
C732 C729 1.463 . S
C732 N736 1.427 1_556 S
C733 H723 0.929 . S
C733 C731 1.456 . S
C733 N736 1.384 . S
C734 H725 0.929 . S
C734 C726 1.378 . S
C734 C729 1.350 1_554 S
C735 H722 0.929 . S
C735 C727 1.433 . S
C735 N737 1.384 . S
N736 C732 1.427 1_554 S
N736 C733 1.384 . S
N737 C729 1.427 . S
N737 C735 1.384 . S
H738 C744 0.930 . S
H739 C748 0.930 1_556 S
H740 C753 0.929 . S
H741 C751 0.929 . S
H742 C746 0.958 . S
H743 C752 0.929 . S
C744 H738 0.930 . S
C744 C745 1.367 . S
C744 C752 1.378 . S
C745 C744 1.367 . S
C745 C753 1.433 . S
C746 H742 0.958 . S
C746 C748 1.378 . S
C746 C750 1.350 . S
C747 C750 1.463 . S
C747 C752 1.350 . S
C747 N755 1.427 . S
C748 H739 0.930 1_554 S
C748 C746 1.378 . S
C748 C749 1.367 . S
C749 C748 1.367 . S
C749 C751 1.433 . S
C750 C746 1.350 . S
C750 C747 1.463 . S
C750 N754 1.427 . S
C751 H741 0.929 . S
C751 C749 1.433 . S
C751 N754 1.384 . S
C752 H743 0.929 . S
C752 C744 1.378 . S
C752 C747 1.350 . S
C753 H740 0.929 . S
C753 C745 1.433 . S
C753 N755 1.384 . S
N754 C750 1.427 . S
N754 C751 1.384 . S
N755 C747 1.427 . S
N755 C753 1.384 . S
H756 C762 0.930 . S
H757 C766 0.930 . S
H758 C771 0.929 . S
H759 C769 0.929 . S
H760 C764 0.929 . S
H761 C770 0.929 . S
C762 H756 0.930 . S
C762 C763 1.367 . S
C762 C770 1.378 . S
C763 C762 1.367 . S
C763 C771 1.433 . S
C764 H760 0.929 . S
C764 C766 1.378 . S
C764 C768 1.350 . S
C765 C768 1.463 . S
C765 C770 1.350 . S
C765 N773 1.427 . S
C766 H757 0.930 . S
C766 C764 1.378 . S
C766 C767 1.367 . S
C767 C766 1.367 . S
C767 C769 1.433 . S
C768 C764 1.350 . S
C768 C765 1.463 . S
C768 N772 1.427 . S
C769 H759 0.929 . S
C769 C767 1.433 . S
C769 N772 1.384 . S
C770 H761 0.929 . S
C770 C762 1.378 . S
C770 C765 1.350 . S
C771 H758 0.929 . S
C771 C763 1.433 . S
C771 N773 1.384 . S
N772 C768 1.427 . S
N772 C769 1.384 . S
N773 C765 1.427 . S
N773 C771 1.384 . S
H774 C780 0.930 . S
H775 C784 0.930 . S
H776 C789 0.929 . S
H777 C787 0.929 . S
H778 C782 0.929 . S
H779 C788 0.929 . S
C780 H774 0.930 . S
C780 C781 1.367 . S
C780 C788 1.378 . S
C781 C780 1.367 . S
C781 C789 1.433 . S
C782 H778 0.929 . S
C782 C784 1.378 . S
C782 C786 1.350 . S
C783 C786 1.463 . S
C783 C788 1.350 . S
C783 N791 1.427 . S
C784 H775 0.930 . S
C784 C782 1.378 . S
C784 C785 1.367 . S
C785 C784 1.367 . S
C785 C787 1.433 . S
C786 C782 1.350 . S
C786 C783 1.463 . S
C786 N790 1.427 . S
C787 H777 0.929 . S
C787 C785 1.433 . S
C787 N790 1.384 . S
C788 H779 0.929 . S
C788 C780 1.378 . S
C788 C783 1.350 . S
C789 H776 0.929 . S
C789 C781 1.433 . S
C789 N791 1.384 . S
N790 C786 1.427 . S
N790 C787 1.384 . S
N791 C783 1.427 . S
N791 C789 1.384 . S
H792 C798 0.930 . S
H793 C802 0.930 . S
H794 C807 0.929 . S
H795 C805 0.929 . S
H796 C800 0.929 . S
H797 C806 0.929 . S
C798 H792 0.930 . S
C798 C799 1.367 . S
C798 C806 1.378 . S
C799 C798 1.367 . S
C799 C807 1.433 . S
C800 H796 0.929 . S
C800 C802 1.378 . S
C800 C804 1.350 . S
C801 C804 1.463 1_655 S
C801 C806 1.350 . S
C801 N809 1.427 . S
C802 H793 0.930 . S
C802 C800 1.378 . S
C802 C803 1.367 . S
C803 C802 1.367 . S
C803 C805 1.433 . S
C804 C800 1.350 . S
C804 C801 1.463 1_455 S
C804 N808 1.427 . S
C805 H795 0.929 . S
C805 C803 1.433 . S
C805 N808 1.384 . S
C806 H797 0.929 . S
C806 C798 1.378 . S
C806 C801 1.350 . S
C807 H794 0.929 . S
C807 C799 1.433 . S
C807 N809 1.384 . S
N808 C804 1.427 . S
N808 C805 1.384 . S
N809 C801 1.427 . S
N809 C807 1.384 . S
H810 C816 0.930 . S
H811 C820 0.930 . S
H812 C825 0.929 . S
H813 C823 0.929 . S
H814 C818 0.929 . S
H815 C824 0.929 . S
C816 H810 0.930 . S
C816 C817 1.367 . S
C816 C824 1.378 . S
C817 C816 1.367 . S
C817 C825 1.433 . S
C818 H814 0.929 . S
C818 C820 1.378 . S
C818 C822 1.350 . S
C819 C822 1.463 . S
C819 C824 1.350 . S
C819 N827 1.427 . S
C820 H811 0.930 . S
C820 C818 1.378 . S
C820 C821 1.367 . S
C821 C820 1.367 . S
C821 C823 1.433 . S
C822 C818 1.350 . S
C822 C819 1.463 . S
C822 N826 1.427 . S
C823 H813 0.929 . S
C823 C821 1.433 . S
C823 N826 1.384 . S
C824 H815 0.929 . S
C824 C816 1.378 . S
C824 C819 1.350 . S
C825 H812 0.929 . S
C825 C817 1.433 . S
C825 N827 1.384 . S
N826 C822 1.427 . S
N826 C823 1.384 . S
N827 C819 1.427 . S
N827 C825 1.384 . S
H828 C834 0.930 . S
H829 C838 0.930 . S
H830 C843 0.929 . S
H831 C841 0.929 . S
H832 C836 0.929 . S
H833 C842 0.929 . S
C834 H828 0.930 . S
C834 C835 1.367 . S
C834 C842 1.378 . S
C835 C834 1.367 . S
C835 C843 1.433 . S
C836 H832 0.929 . S
C836 C838 1.378 . S
C836 C840 1.350 1_565 S
C837 C840 1.463 . S
C837 C842 1.350 . S
C837 N845 1.427 . S
C838 H829 0.930 . S
C838 C836 1.378 . S
C838 C839 1.367 . S
C839 C838 1.367 . S
C839 C841 1.433 . S
C840 C836 1.350 1_545 S
C840 C837 1.463 . S
C840 N844 1.427 . S
C841 H831 0.929 . S
C841 C839 1.433 . S
C841 N844 1.384 1_565 S
C842 H833 0.929 . S
C842 C834 1.378 . S
C842 C837 1.350 . S
C843 H830 0.929 . S
C843 C835 1.433 . S
C843 N845 1.384 . S
N844 C840 1.427 . S
N844 C841 1.384 1_545 S
N845 C837 1.427 . S
N845 C843 1.384 . S
H846 C852 0.930 . S
H847 C856 0.930 . S
H848 C861 0.929 . S
H849 C859 0.929 . S
H850 C854 0.929 . S
H851 C860 0.929 . S
C852 H846 0.930 . S
C852 C853 1.367 . S
C852 C860 1.378 . S
C853 C852 1.367 . S
C853 C861 1.433 . S
C854 H850 0.929 . S
C854 C856 1.378 . S
C854 C858 1.350 . S
C855 C858 1.463 . S
C855 C860 1.350 . S
C855 N863 1.427 . S
C856 H847 0.930 . S
C856 C854 1.378 . S
C856 C857 1.367 . S
C857 C856 1.367 . S
C857 C859 1.433 . S
C858 C854 1.350 . S
C858 C855 1.463 . S
C858 N862 1.427 . S
C859 H849 0.929 . S
C859 C857 1.433 . S
C859 N862 1.384 . S
C860 H851 0.929 . S
C860 C852 1.378 . S
C860 C855 1.350 . S
C861 H848 0.929 . S
C861 C853 1.433 . S
C861 N863 1.384 . S
N862 C858 1.427 . S
N862 C859 1.384 . S
N863 C855 1.427 . S
N863 C861 1.384 . S
H864 C870 0.930 . S
H865 C874 0.930 . S
H866 C879 0.929 . S
H867 C877 0.929 . S
H868 C872 0.929 . S
H869 C878 0.929 . S
C870 H864 0.930 . S
C870 C871 1.367 . S
C870 C878 1.378 . S
C871 C870 1.367 . S
C871 C879 1.433 . S
C872 H868 0.929 . S
C872 C874 1.378 . S
C872 C876 1.350 . S
C873 C876 1.463 . S
C873 C878 1.350 . S
C873 N881 1.427 . S
C874 H865 0.930 . S
C874 C872 1.378 . S
C874 C875 1.367 . S
C875 C874 1.367 . S
C875 C877 1.433 . S
C876 C872 1.350 . S
C876 C873 1.463 . S
C876 N880 1.427 . S
C877 H867 0.929 . S
C877 C875 1.433 . S
C877 N880 1.384 . S
C878 H869 0.929 . S
C878 C870 1.378 . S
C878 C873 1.350 . S
C879 H866 0.929 . S
C879 C871 1.433 . S
C879 N881 1.384 . S
N880 C876 1.427 . S
N880 C877 1.384 . S
N881 C873 1.427 . S
N881 C879 1.384 . S
H882 C888 0.930 . S
H883 C892 0.930 . S
H884 C897 0.929 . S
H885 C895 0.929 . S
H886 C890 0.929 . S
H887 C896 0.929 . S
C888 H882 0.930 . S
C888 C889 1.367 . S
C888 C896 1.378 . S
C889 C888 1.367 . S
C889 C897 1.433 . S
C890 H886 0.929 . S
C890 C892 1.378 . S
C890 C894 1.350 . S
C891 C894 1.463 . S
C891 C896 1.350 . S
C891 N899 1.427 . S
C892 H883 0.930 . S
C892 C890 1.378 . S
C892 C893 1.367 . S
C893 C892 1.367 . S
C893 C895 1.433 . S
C894 C890 1.350 . S
C894 C891 1.463 . S
C894 N898 1.427 . S
C895 H885 0.929 . S
C895 C893 1.433 . S
C895 N898 1.384 . S
C896 H887 0.929 . S
C896 C888 1.378 . S
C896 C891 1.350 . S
C897 H884 0.929 . S
C897 C889 1.433 . S
C897 N899 1.384 . S
N898 C894 1.427 . S
N898 C895 1.384 . S
N899 C891 1.427 . S
N899 C897 1.384 . S
H900 C906 0.930 . S
H901 C910 0.930 . S
H902 C915 0.929 . S
H903 C913 0.929 . S
H904 C908 0.929 . S
H905 C914 0.929 . S
C906 H900 0.930 . S
C906 C907 1.367 . S
C906 C914 1.378 . S
C907 C906 1.367 . S
C907 C915 1.433 . S
C908 H904 0.929 . S
C908 C910 1.378 . S
C908 C912 1.350 . S
C909 C912 1.463 . S
C909 C914 1.350 . S
C909 N917 1.427 . S
C910 H901 0.930 . S
C910 C908 1.378 . S
C910 C911 1.367 . S
C911 C910 1.367 . S
C911 C913 1.433 . S
C912 C908 1.350 . S
C912 C909 1.463 . S
C912 N916 1.427 . S
C913 H903 0.929 . S
C913 C911 1.433 . S
C913 N916 1.384 . S
C914 H905 0.929 . S
C914 C906 1.378 . S
C914 C909 1.350 . S
C915 H902 0.929 . S
C915 C907 1.433 . S
C915 N917 1.384 . S
N916 C912 1.427 . S
N916 C913 1.384 . S
N917 C909 1.427 . S
N917 C915 1.384 . S
H918 C924 0.930 . S
H919 C928 0.930 . S
H920 C933 0.929 . S
H921 C931 0.929 . S
H922 C926 0.929 . S
H923 C932 0.929 . S
C924 H918 0.930 . S
C924 C925 1.367 . S
C924 C932 1.378 . S
C925 C924 1.367 . S
C925 C933 1.433 . S
C926 H922 0.929 . S
C926 C928 1.378 . S
C926 C930 1.350 . S
C927 C930 1.463 . S
C927 C932 1.350 . S
C927 N935 1.427 . S
C928 H919 0.930 . S
C928 C926 1.378 . S
C928 C929 1.367 . S
C929 C928 1.367 . S
C929 C931 1.433 . S
C930 C926 1.350 . S
C930 C927 1.463 . S
C930 N934 1.427 . S
C931 H921 0.929 . S
C931 C929 1.433 . S
C931 N934 1.384 . S
C932 H923 0.929 . S
C932 C924 1.378 . S
C932 C927 1.350 . S
C933 H920 0.929 . S
C933 C925 1.433 . S
C933 N935 1.384 . S
N934 C930 1.427 . S
N934 C931 1.384 . S
N935 C927 1.427 . S
N935 C933 1.384 . S
H936 C942 0.930 . S
H937 C946 0.930 . S
H938 C951 0.929 . S
H939 C949 0.929 . S
H940 C944 0.929 . S
H941 C950 0.929 . S
C942 H936 0.930 . S
C942 C943 1.367 . S
C942 C950 1.378 . S
C943 C942 1.367 . S
C943 C951 1.433 . S
C944 H940 0.929 . S
C944 C946 1.378 . S
C944 C948 1.350 . S
C945 C948 1.463 . S
C945 C950 1.350 . S
C945 N953 1.427 . S
C946 H937 0.930 . S
C946 C944 1.378 . S
C946 C947 1.367 . S
C947 C946 1.367 . S
C947 C949 1.433 . S
C948 C944 1.350 . S
C948 C945 1.463 . S
C948 N952 1.427 . S
C949 H939 0.929 . S
C949 C947 1.433 . S
C949 N952 1.384 . S
C950 H941 0.929 . S
C950 C942 1.378 . S
C950 C945 1.350 . S
C951 H938 0.929 . S
C951 C943 1.433 . S
C951 N953 1.384 . S
N952 C948 1.427 . S
N952 C949 1.384 . S
N953 C945 1.427 . S
N953 C951 1.384 . S
H954 C960 0.930 . S
H955 C964 0.930 . S
H956 C969 0.929 . S
H957 C967 0.929 . S
H958 C962 0.929 . S
H959 C968 0.929 . S
C960 H954 0.930 . S
C960 C961 1.367 . S
C960 C968 1.378 1_545 S
C961 C960 1.367 . S
C961 C969 1.433 . S
C962 H958 0.929 . S
C962 C964 1.378 . S
C962 C966 1.350 . S
C963 C966 1.463 . S
C963 C968 1.350 . S
C963 N971 1.427 . S
C964 H955 0.930 . S
C964 C962 1.378 . S
C964 C965 1.367 . S
C965 C964 1.367 . S
C965 C967 1.433 . S
C966 C962 1.350 . S
C966 C963 1.463 . S
C966 N970 1.427 . S
C967 H957 0.929 . S
C967 C965 1.433 . S
C967 N970 1.384 . S
C968 H959 0.929 . S
C968 C960 1.378 1_565 S
C968 C963 1.350 . S
C969 H956 0.929 . S
C969 C961 1.433 . S
C969 N971 1.384 1_545 S
N970 C966 1.427 . S
N970 C967 1.384 . S
N971 C963 1.427 . S
N971 C969 1.384 1_565 S
H972 C978 0.930 . S
H973 C982 0.930 . S
H974 C987 0.929 . S
H975 C985 0.929 . S
H976 C980 0.929 . S
H977 C986 0.929 . S
C978 H972 0.930 . S
C978 C979 1.367 1_455 S
C978 C986 1.378 . S
C979 C978 1.367 1_655 S
C979 C987 1.433 . S
C980 H976 0.929 . S
C980 C982 1.378 . S
C980 C984 1.350 . S
C981 C984 1.463 . S
C981 C986 1.350 . S
C981 N989 1.427 . S
C982 H973 0.930 . S
C982 C980 1.378 . S
C982 C983 1.367 . S
C983 C982 1.367 . S
C983 C985 1.433 . S
C984 C980 1.350 . S
C984 C981 1.463 . S
C984 N988 1.427 . S
C985 H975 0.929 . S
C985 C983 1.433 . S
C985 N988 1.384 . S
C986 H977 0.929 . S
C986 C978 1.378 . S
C986 C981 1.350 . S
C987 H974 0.929 . S
C987 C979 1.433 . S
C987 N989 1.384 1_655 S
N988 C984 1.427 . S
N988 C985 1.384 . S
N989 C981 1.427 . S
N989 C987 1.384 1_455 S
H990 C996 0.930 . S
H991 C1000 0.930 . S
H992 C1005 0.929 . S
H993 C1003 0.929 . S
H994 C998 0.929 . S
H995 C1004 0.929 . S
C996 H990 0.930 . S
C996 C997 1.367 . S
C996 C1004 1.378 . S
C997 C996 1.367 . S
C997 C1005 1.433 . S
C998 H994 0.929 . S
C998 C1000 1.378 . S
C998 C1002 1.350 . S
C999 C1002 1.463 . S
C999 C1004 1.350 . S
C999 N1007 1.427 . S
C1000 H991 0.930 . S
C1000 C998 1.378 . S
C1000 C1001 1.367 . S
C1001 C1000 1.367 . S
C1001 C1003 1.433 . S
C1002 C998 1.350 . S
C1002 C999 1.463 . S
C1002 N1006 1.427 . S
C1003 H993 0.929 . S
C1003 C1001 1.433 . S
C1003 N1006 1.384 . S
C1004 H995 0.929 . S
C1004 C996 1.378 . S
C1004 C999 1.350 . S
C1005 H992 0.929 . S
C1005 C997 1.433 . S
C1005 N1007 1.384 . S
N1006 C1002 1.427 . S
N1006 C1003 1.384 . S
N1007 C999 1.427 . S
N1007 C1005 1.384 . S
H1008 C1014 0.930 . S
H1009 C1018 0.930 . S
H1010 C1023 0.929 . S
H1011 C1021 0.929 . S
H1012 C1016 0.929 . S
H1013 C1022 0.929 . S
C1014 H1008 0.930 . S
C1014 C1015 1.367 . S
C1014 C1022 1.378 . S
C1015 C1014 1.367 . S
C1015 C1023 1.433 . S
C1016 H1012 0.929 . S
C1016 C1018 1.378 . S
C1016 C1020 1.350 . S
C1017 C1020 1.463 . S
C1017 C1022 1.350 . S
C1017 N1025 1.427 . S
C1018 H1009 0.930 . S
C1018 C1016 1.378 . S
C1018 C1019 1.367 . S
C1019 C1018 1.367 . S
C1019 C1021 1.433 . S
C1020 C1016 1.350 . S
C1020 C1017 1.463 . S
C1020 N1024 1.427 . S
C1021 H1011 0.929 . S
C1021 C1019 1.433 . S
C1021 N1024 1.384 . S
C1022 H1013 0.929 . S
C1022 C1014 1.378 . S
C1022 C1017 1.350 . S
C1023 H1010 0.929 . S
C1023 C1015 1.433 . S
C1023 N1025 1.384 . S
N1024 C1020 1.427 . S
N1024 C1021 1.384 . S
N1025 C1017 1.427 . S
N1025 C1023 1.384 . S
H1026 C1032 0.930 . S
H1027 C1036 0.930 . S
H1028 C1041 0.929 . S
H1029 C1039 0.929 . S
H1030 C1034 0.929 . S
H1031 C1040 0.929 . S
C1032 H1026 0.930 . S
C1032 C1033 1.367 . S
C1032 C1040 1.378 . S
C1033 C1032 1.367 . S
C1033 C1041 1.433 . S
C1034 H1030 0.929 . S
C1034 C1036 1.378 . S
C1034 C1038 1.350 . S
C1035 C1038 1.463 . S
C1035 C1040 1.350 . S
C1035 N1043 1.427 . S
C1036 H1027 0.930 . S
C1036 C1034 1.378 . S
C1036 C1037 1.367 . S
C1037 C1036 1.367 . S
C1037 C1039 1.433 . S
C1038 C1034 1.350 . S
C1038 C1035 1.463 . S
C1038 N1042 1.427 . S
C1039 H1029 0.929 . S
C1039 C1037 1.433 . S
C1039 N1042 1.384 . S
C1040 H1031 0.929 . S
C1040 C1032 1.378 . S
C1040 C1035 1.350 . S
C1041 H1028 0.929 . S
C1041 C1033 1.433 . S
C1041 N1043 1.384 . S
N1042 C1038 1.427 . S
N1042 C1039 1.384 . S
N1043 C1035 1.427 . S
N1043 C1041 1.384 . S
H1044 C1050 0.930 . S
H1045 C1054 0.930 . S
H1046 C1059 0.929 . S
H1047 C1057 0.929 . S
H1048 C1052 0.929 . S
H1049 C1058 0.929 . S
C1050 H1044 0.930 . S
C1050 C1051 1.367 . S
C1050 C1058 1.378 . S
C1051 C1050 1.367 . S
C1051 C1059 1.433 . S
C1052 H1048 0.929 . S
C1052 C1054 1.378 . S
C1052 C1056 1.350 . S
C1053 C1056 1.463 . S
C1053 C1058 1.350 . S
C1053 N1061 1.427 . S
C1054 H1045 0.930 . S
C1054 C1052 1.378 . S
C1054 C1055 1.367 . S
C1055 C1054 1.367 . S
C1055 C1057 1.433 . S
C1056 C1052 1.350 . S
C1056 C1053 1.463 . S
C1056 N1060 1.427 . S
C1057 H1047 0.929 . S
C1057 C1055 1.433 . S
C1057 N1060 1.384 . S
C1058 H1049 0.929 . S
C1058 C1050 1.378 . S
C1058 C1053 1.350 . S
C1059 H1046 0.929 . S
C1059 C1051 1.433 . S
C1059 N1061 1.384 . S
N1060 C1056 1.427 . S
N1060 C1057 1.384 . S
N1061 C1053 1.427 . S
N1061 C1059 1.384 . S
H1062 C1068 0.930 . S
H1063 C1072 0.930 . S
H1064 C1077 0.929 . S
H1065 C1075 0.929 . S
H1066 C1070 0.929 1_565 S
H1067 C1076 0.929 . S
C1068 H1062 0.930 . S
C1068 C1069 1.367 . S
C1068 C1076 1.378 . S
C1069 C1068 1.367 . S
C1069 C1077 1.433 . S
C1070 H1066 0.929 1_545 S
C1070 C1072 1.378 . S
C1070 C1074 1.350 . S
C1071 C1074 1.463 1_565 S
C1071 C1076 1.350 . S
C1071 N1079 1.427 . S
C1072 H1063 0.930 . S
C1072 C1070 1.378 . S
C1072 C1073 1.367 . S
C1073 C1072 1.367 . S
C1073 C1075 1.433 . S
C1074 C1070 1.350 . S
C1074 C1071 1.463 1_545 S
C1074 N1078 1.427 . S
C1075 H1065 0.929 . S
C1075 C1073 1.433 . S
C1075 N1078 1.384 . S
C1076 H1067 0.929 . S
C1076 C1068 1.378 . S
C1076 C1071 1.350 . S
C1077 H1064 0.929 . S
C1077 C1069 1.433 . S
C1077 N1079 1.384 . S
N1078 C1074 1.427 . S
N1078 C1075 1.384 . S
N1079 C1071 1.427 . S
N1079 C1077 1.384 . S
H1080 C1086 0.930 . S
H1081 C1090 0.930 . S
H1082 C1095 0.929 . S
H1083 C1093 0.929 . S
H1084 C1088 0.929 . S
H1085 C1094 0.929 . S
C1086 H1080 0.930 . S
C1086 C1087 1.367 . S
C1086 C1094 1.378 . S
C1087 C1086 1.367 . S
C1087 C1095 1.433 . S
C1088 H1084 0.929 . S
C1088 C1090 1.378 . S
C1088 C1092 1.350 . S
C1089 C1092 1.463 1_455 S
C1089 C1094 1.350 . S
C1089 N1097 1.427 . S
C1090 H1081 0.930 . S
C1090 C1088 1.378 . S
C1090 C1091 1.367 . S
C1091 C1090 1.367 . S
C1091 C1093 1.433 . S
C1092 C1088 1.350 . S
C1092 C1089 1.463 1_655 S
C1092 N1096 1.427 . S
C1093 H1083 0.929 . S
C1093 C1091 1.433 . S
C1093 N1096 1.384 . S
C1094 H1085 0.929 . S
C1094 C1086 1.378 . S
C1094 C1089 1.350 . S
C1095 H1082 0.929 . S
C1095 C1087 1.433 . S
C1095 N1097 1.384 . S
N1096 C1092 1.427 . S
N1096 C1093 1.384 . S
N1097 C1089 1.427 . S
N1097 C1095 1.384 . S
H1098 C1104 0.930 . S
H1099 C1108 0.930 . S
H1100 C1113 0.929 . S
H1101 C1111 0.929 . S
H1102 C1106 0.929 . S
H1103 C1112 0.929 . S
C1104 H1098 0.930 . S
C1104 C1105 1.367 . S
C1104 C1112 1.378 . S
C1105 C1104 1.367 . S
C1105 C1113 1.433 . S
C1106 H1102 0.929 . S
C1106 C1108 1.378 . S
C1106 C1110 1.350 . S
C1107 C1110 1.463 . S
C1107 C1112 1.350 . S
C1107 N1115 1.427 . S
C1108 H1099 0.930 . S
C1108 C1106 1.378 . S
C1108 C1109 1.367 . S
C1109 C1108 1.367 . S
C1109 C1111 1.433 . S
C1110 C1106 1.350 . S
C1110 C1107 1.463 . S
C1110 N1114 1.427 . S
C1111 H1101 0.929 . S
C1111 C1109 1.433 . S
C1111 N1114 1.384 . S
C1112 H1103 0.929 . S
C1112 C1104 1.378 . S
C1112 C1107 1.350 . S
C1113 H1100 0.929 . S
C1113 C1105 1.433 . S
C1113 N1115 1.384 . S
N1114 C1110 1.427 . S
N1114 C1111 1.384 . S
N1115 C1107 1.427 . S
N1115 C1113 1.384 . S
H1116 C1122 0.930 . S
H1117 C1126 0.930 . S
H1118 C1131 0.929 . S
H1119 C1129 0.929 . S
H1120 C1124 0.929 . S
H1121 C1130 0.929 . S
C1122 H1116 0.930 . S
C1122 C1123 1.367 . S
C1122 C1130 1.378 1_455 S
C1123 C1122 1.367 . S
C1123 C1131 1.433 . S
C1124 H1120 0.929 . S
C1124 C1126 1.378 . S
C1124 C1128 1.350 . S
C1125 C1128 1.463 . S
C1125 C1130 1.350 . S
C1125 N1133 1.427 . S
C1126 H1117 0.930 . S
C1126 C1124 1.378 . S
C1126 C1127 1.367 . S
C1127 C1126 1.367 . S
C1127 C1129 1.433 . S
C1128 C1124 1.350 . S
C1128 C1125 1.463 . S
C1128 N1132 1.427 . S
C1129 H1119 0.929 . S
C1129 C1127 1.433 . S
C1129 N1132 1.384 . S
C1130 H1121 0.929 . S
C1130 C1122 1.378 1_655 S
C1130 C1125 1.350 . S
C1131 H1118 0.929 . S
C1131 C1123 1.433 . S
C1131 N1133 1.384 1_455 S
N1132 C1128 1.427 . S
N1132 C1129 1.384 . S
N1133 C1125 1.427 . S
N1133 C1131 1.384 1_655 S
H1134 C1140 0.930 . S
H1135 C1144 0.930 . S
H1136 C1149 0.929 . S
H1137 C1147 0.929 . S
H1138 C1142 0.929 . S
H1139 C1148 0.929 . S
C1140 H1134 0.930 . S
C1140 C1141 1.367 . S
C1140 C1148 1.378 . S
C1141 C1140 1.367 . S
C1141 C1149 1.433 . S
C1142 H1138 0.929 . S
C1142 C1144 1.378 . S
C1142 C1146 1.350 . S
C1143 C1146 1.463 . S
C1143 C1148 1.350 . S
C1143 N1151 1.427 . S
C1144 H1135 0.930 . S
C1144 C1142 1.378 . S
C1144 C1145 1.367 . S
C1145 C1144 1.367 . S
C1145 C1147 1.433 . S
C1146 C1142 1.350 . S
C1146 C1143 1.463 . S
C1146 N1150 1.427 . S
C1147 H1137 0.929 . S
C1147 C1145 1.433 . S
C1147 N1150 1.384 . S
C1148 H1139 0.929 . S
C1148 C1140 1.378 . S
C1148 C1143 1.350 . S
C1149 H1136 0.929 . S
C1149 C1141 1.433 . S
C1149 N1151 1.384 . S
N1150 C1146 1.427 . S
N1150 C1147 1.384 . S
N1151 C1143 1.427 . S
N1151 C1149 1.384 . S
H1152 C1158 0.930 . S
H1153 C1162 0.930 . S
H1154 C1167 0.929 . S
H1155 C1165 0.929 . S
H1156 C1160 0.929 . S
H1157 C1166 0.929 . S
C1158 H1152 0.930 . S
C1158 C1159 1.367 . S
C1158 C1166 1.378 1_565 S
C1159 C1158 1.367 . S
C1159 C1167 1.433 . S
C1160 H1156 0.929 . S
C1160 C1162 1.378 . S
C1160 C1164 1.350 . S
C1161 C1164 1.463 . S
C1161 C1166 1.350 . S
C1161 N1169 1.427 . S
C1162 H1153 0.930 . S
C1162 C1160 1.378 . S
C1162 C1163 1.367 . S
C1163 C1162 1.367 . S
C1163 C1165 1.433 . S
C1164 C1160 1.350 . S
C1164 C1161 1.463 . S
C1164 N1168 1.427 . S
C1165 H1155 0.929 . S
C1165 C1163 1.433 . S
C1165 N1168 1.384 . S
C1166 H1157 0.929 . S
C1166 C1158 1.378 1_545 S
C1166 C1161 1.350 . S
C1167 H1154 0.929 . S
C1167 C1159 1.433 . S
C1167 N1169 1.384 1_565 S
N1168 C1164 1.427 . S
N1168 C1165 1.384 . S
N1169 C1161 1.427 . S
N1169 C1167 1.384 1_545 S
H1170 C1176 0.930 . S
H1171 C1180 0.930 . S
H1172 C1185 0.929 . S
H1173 C1183 0.929 . S
H1174 C1178 0.929 . S
H1175 C1184 0.929 . S
C1176 H1170 0.930 . S
C1176 C1177 1.367 . S
C1176 C1184 1.378 . S
C1177 C1176 1.367 . S
C1177 C1185 1.433 . S
C1178 H1174 0.929 . S
C1178 C1180 1.378 . S
C1178 C1182 1.350 . S
C1179 C1182 1.463 . S
C1179 C1184 1.350 . S
C1179 N1187 1.427 . S
C1180 H1171 0.930 . S
C1180 C1178 1.378 . S
C1180 C1181 1.367 . S
C1181 C1180 1.367 . S
C1181 C1183 1.433 . S
C1182 C1178 1.350 . S
C1182 C1179 1.463 . S
C1182 N1186 1.427 . S
C1183 H1173 0.929 . S
C1183 C1181 1.433 . S
C1183 N1186 1.384 . S
C1184 H1175 0.929 . S
C1184 C1176 1.378 . S
C1184 C1179 1.350 . S
C1185 H1172 0.929 . S
C1185 C1177 1.433 . S
C1185 N1187 1.384 . S
N1186 C1182 1.427 . S
N1186 C1183 1.384 . S
N1187 C1179 1.427 . S
N1187 C1185 1.384 . S
H1188 C1194 0.930 . S
H1189 C1198 0.930 . S
H1190 C1203 0.929 . S
H1191 C1201 0.929 . S
H1192 C1196 0.929 . S
H1193 C1202 0.929 . S
C1194 H1188 0.930 . S
C1194 C1195 1.367 . S
C1194 C1202 1.378 . S
C1195 C1194 1.367 . S
C1195 C1203 1.433 . S
C1196 H1192 0.929 . S
C1196 C1198 1.378 . S
C1196 C1200 1.350 . S
C1197 C1200 1.463 . S
C1197 C1202 1.350 . S
C1197 N1205 1.427 . S
C1198 H1189 0.930 . S
C1198 C1196 1.378 . S
C1198 C1199 1.367 . S
C1199 C1198 1.367 . S
C1199 C1201 1.433 . S
C1200 C1196 1.350 . S
C1200 C1197 1.463 . S
C1200 N1204 1.427 . S
C1201 H1191 0.929 . S
C1201 C1199 1.433 . S
C1201 N1204 1.384 . S
C1202 H1193 0.929 . S
C1202 C1194 1.378 . S
C1202 C1197 1.350 . S
C1203 H1190 0.929 . S
C1203 C1195 1.433 . S
C1203 N1205 1.384 . S
N1204 C1200 1.427 . S
N1204 C1201 1.384 . S
N1205 C1197 1.427 . S
N1205 C1203 1.384 . S
H1206 C1212 0.930 . S
H1207 C1216 0.930 . S
H1208 C1221 0.929 . S
H1209 C1219 0.929 . S
H1210 C1214 0.929 . S
H1211 C1220 0.929 . S
C1212 H1206 0.930 . S
C1212 C1213 1.367 . S
C1212 C1220 1.378 . S
C1213 C1212 1.367 . S
C1213 C1221 1.433 . S
C1214 H1210 0.929 . S
C1214 C1216 1.378 . S
C1214 C1218 1.350 . S
C1215 C1218 1.463 . S
C1215 C1220 1.350 . S
C1215 N1223 1.427 . S
C1216 H1207 0.930 . S
C1216 C1214 1.378 . S
C1216 C1217 1.367 . S
C1217 C1216 1.367 . S
C1217 C1219 1.433 . S
C1218 C1214 1.350 . S
C1218 C1215 1.463 . S
C1218 N1222 1.427 . S
C1219 H1209 0.929 . S
C1219 C1217 1.433 . S
C1219 N1222 1.384 . S
C1220 H1211 0.929 . S
C1220 C1212 1.378 . S
C1220 C1215 1.350 . S
C1221 H1208 0.929 . S
C1221 C1213 1.433 . S
C1221 N1223 1.384 . S
N1222 C1218 1.427 . S
N1222 C1219 1.384 . S
N1223 C1215 1.427 . S
N1223 C1221 1.384 . S
H1224 C1230 0.930 . S
H1225 C1234 0.930 . S
H1226 C1239 0.929 . S
H1227 C1237 0.929 . S
H1228 C1232 0.929 . S
H1229 C1238 0.929 . S
C1230 H1224 0.930 . S
C1230 C1231 1.367 . S
C1230 C1238 1.378 . S
C1231 C1230 1.367 . S
C1231 C1239 1.433 . S
C1232 H1228 0.929 . S
C1232 C1234 1.378 . S
C1232 C1236 1.350 . S
C1233 C1236 1.463 . S
C1233 C1238 1.350 . S
C1233 N1241 1.427 . S
C1234 H1225 0.930 . S
C1234 C1232 1.378 . S
C1234 C1235 1.367 . S
C1235 C1234 1.367 . S
C1235 C1237 1.433 . S
C1236 C1232 1.350 . S
C1236 C1233 1.463 . S
C1236 N1240 1.427 . S
C1237 H1227 0.929 . S
C1237 C1235 1.433 . S
C1237 N1240 1.384 . S
C1238 H1229 0.929 . S
C1238 C1230 1.378 . S
C1238 C1233 1.350 . S
C1239 H1226 0.929 . S
C1239 C1231 1.433 . S
C1239 N1241 1.384 . S
N1240 C1236 1.427 . S
N1240 C1237 1.384 . S
N1241 C1233 1.427 . S
N1241 C1239 1.384 . S
H1242 C1248 0.930 . S
H1243 C1252 0.930 . S
H1244 C1257 0.929 . S
H1245 C1255 0.929 . S
H1246 C1250 0.929 . S
H1247 C1256 0.929 . S
C1248 H1242 0.930 . S
C1248 C1249 1.367 . S
C1248 C1256 1.378 . S
C1249 C1248 1.367 . S
C1249 C1257 1.433 . S
C1250 H1246 0.929 . S
C1250 C1252 1.378 . S
C1250 C1254 1.350 . S
C1251 C1254 1.463 . S
C1251 C1256 1.350 . S
C1251 N1259 1.427 . S
C1252 H1243 0.930 . S
C1252 C1250 1.378 . S
C1252 C1253 1.367 . S
C1253 C1252 1.367 . S
C1253 C1255 1.433 . S
C1254 C1250 1.350 . S
C1254 C1251 1.463 . S
C1254 N1258 1.427 . S
C1255 H1245 0.929 . S
C1255 C1253 1.433 . S
C1255 N1258 1.384 . S
C1256 H1247 0.929 . S
C1256 C1248 1.378 . S
C1256 C1251 1.350 . S
C1257 H1244 0.929 . S
C1257 C1249 1.433 . S
C1257 N1259 1.384 . S
N1258 C1254 1.427 . S
N1258 C1255 1.384 . S
N1259 C1251 1.427 . S
N1259 C1257 1.384 . S
H1260 C1266 0.930 . S
H1261 C1270 0.930 . S
H1262 C1275 0.929 . S
H1263 C1273 0.929 . S
H1264 C1268 0.929 . S
H1265 C1274 0.929 . S
C1266 H1260 0.930 . S
C1266 C1267 1.367 . S
C1266 C1274 1.378 . S
C1267 C1266 1.367 . S
C1267 C1275 1.433 . S
C1268 H1264 0.929 . S
C1268 C1270 1.378 . S
C1268 C1272 1.350 . S
C1269 C1272 1.463 . S
C1269 C1274 1.350 . S
C1269 N1277 1.427 . S
C1270 H1261 0.930 . S
C1270 C1268 1.378 . S
C1270 C1271 1.367 . S
C1271 C1270 1.367 . S
C1271 C1273 1.433 . S
C1272 C1268 1.350 . S
C1272 C1269 1.463 . S
C1272 N1276 1.427 . S
C1273 H1263 0.929 . S
C1273 C1271 1.433 . S
C1273 N1276 1.384 . S
C1274 H1265 0.929 . S
C1274 C1266 1.378 . S
C1274 C1269 1.350 . S
C1275 H1262 0.929 . S
C1275 C1267 1.433 . S
C1275 N1277 1.384 . S
N1276 C1272 1.427 . S
N1276 C1273 1.384 . S
N1277 C1269 1.427 . S
N1277 C1275 1.384 . S
H1278 C1284 0.930 . S
H1279 C1288 0.930 . S
H1280 C1293 0.929 . S
H1281 C1291 0.929 . S
H1282 C1286 0.929 . S
H1283 C1292 0.929 . S
C1284 H1278 0.930 . S
C1284 C1285 1.367 . S
C1284 C1292 1.378 . S
C1285 C1284 1.367 . S
C1285 C1293 1.433 . S
C1286 H1282 0.929 . S
C1286 C1288 1.378 . S
C1286 C1290 1.350 . S
C1287 C1290 1.463 . S
C1287 C1292 1.350 . S
C1287 N1295 1.427 . S
C1288 H1279 0.930 . S
C1288 C1286 1.378 . S
C1288 C1289 1.367 . S
C1289 C1288 1.367 . S
C1289 C1291 1.433 . S
C1290 C1286 1.350 . S
C1290 C1287 1.463 . S
C1290 N1294 1.427 . S
C1291 H1281 0.929 . S
C1291 C1289 1.433 . S
C1291 N1294 1.384 . S
C1292 H1283 0.929 . S
C1292 C1284 1.378 . S
C1292 C1287 1.350 . S
C1293 H1280 0.929 . S
C1293 C1285 1.433 . S
C1293 N1295 1.384 . S
N1294 C1290 1.427 . S
N1294 C1291 1.384 . S
N1295 C1287 1.427 . S
N1295 C1293 1.384 . S
H1296 C1302 0.930 . S
H1297 C1306 0.930 . S
H1298 C1311 0.929 . S
H1299 C1309 0.929 . S
H1300 C1304 0.929 . S
H1301 C1310 0.929 . S
C1302 H1296 0.930 . S
C1302 C1303 1.367 . S
C1302 C1310 1.378 . S
C1303 C1302 1.367 . S
C1303 C1311 1.433 . S
C1304 H1300 0.929 . S
C1304 C1306 1.378 . S
C1304 C1308 1.350 . S
C1305 C1308 1.463 . S
C1305 C1310 1.350 . S
C1305 N1313 1.427 . S
C1306 H1297 0.930 . S
C1306 C1304 1.378 . S
C1306 C1307 1.367 . S
C1307 C1306 1.367 . S
C1307 C1309 1.433 . S
C1308 C1304 1.350 . S
C1308 C1305 1.463 . S
C1308 N1312 1.427 . S
C1309 H1299 0.929 . S
C1309 C1307 1.433 . S
C1309 N1312 1.384 . S
C1310 H1301 0.929 . S
C1310 C1302 1.378 . S
C1310 C1305 1.350 . S
C1311 H1298 0.929 . S
C1311 C1303 1.433 . S
C1311 N1313 1.384 . S
N1312 C1308 1.427 . S
N1312 C1309 1.384 . S
N1313 C1305 1.427 . S
N1313 C1311 1.384 . S
H1314 C1320 0.930 . S
H1315 C1324 0.930 . S
H1316 C1329 0.929 . S
H1317 C1327 0.929 . S
H1318 C1322 0.929 . S
H1319 C1328 0.929 . S
C1320 H1314 0.930 . S
C1320 C1321 1.367 . S
C1320 C1328 1.378 . S
C1321 C1320 1.367 . S
C1321 C1329 1.433 . S
C1322 H1318 0.929 . S
C1322 C1324 1.378 . S
C1322 C1326 1.350 . S
C1323 C1326 1.463 . S
C1323 C1328 1.350 . S
C1323 N1331 1.427 . S
C1324 H1315 0.930 . S
C1324 C1322 1.378 . S
C1324 C1325 1.367 . S
C1325 C1324 1.367 . S
C1325 C1327 1.433 . S
C1326 C1322 1.350 . S
C1326 C1323 1.463 . S
C1326 N1330 1.427 . S
C1327 H1317 0.929 . S
C1327 C1325 1.433 . S
C1327 N1330 1.384 . S
C1328 H1319 0.929 . S
C1328 C1320 1.378 . S
C1328 C1323 1.350 . S
C1329 H1316 0.929 . S
C1329 C1321 1.433 . S
C1329 N1331 1.384 . S
N1330 C1326 1.427 . S
N1330 C1327 1.384 . S
N1331 C1323 1.427 . S
N1331 C1329 1.384 . S
H1332 C1338 0.930 . S
H1333 C1342 0.930 . S
H1334 C1347 0.929 . S
H1335 C1345 0.929 . S
H1336 C1340 0.929 . S
H1337 C1346 0.929 . S
C1338 H1332 0.930 . S
C1338 C1339 1.367 . S
C1338 C1346 1.378 . S
C1339 C1338 1.367 . S
C1339 C1347 1.433 . S
C1340 H1336 0.929 . S
C1340 C1342 1.378 . S
C1340 C1344 1.350 . S
C1341 C1344 1.463 . S
C1341 C1346 1.350 . S
C1341 N1349 1.427 . S
C1342 H1333 0.930 . S
C1342 C1340 1.378 . S
C1342 C1343 1.367 . S
C1343 C1342 1.367 . S
C1343 C1345 1.433 . S
C1344 C1340 1.350 . S
C1344 C1341 1.463 . S
C1344 N1348 1.427 . S
C1345 H1335 0.929 . S
C1345 C1343 1.433 . S
C1345 N1348 1.384 . S
C1346 H1337 0.929 . S
C1346 C1338 1.378 . S
C1346 C1341 1.350 . S
C1347 H1334 0.929 . S
C1347 C1339 1.433 . S
C1347 N1349 1.384 . S
N1348 C1344 1.427 . S
N1348 C1345 1.384 . S
N1349 C1341 1.427 . S
N1349 C1347 1.384 . S
H1350 C1356 0.930 . S
H1351 C1360 0.930 . S
H1352 C1365 0.929 . S
H1353 C1363 0.929 . S
H1354 C1358 0.929 . S
H1355 C1364 0.929 . S
C1356 H1350 0.930 . S
C1356 C1357 1.367 . S
C1356 C1364 1.378 . S
C1357 C1356 1.367 . S
C1357 C1365 1.433 . S
C1358 H1354 0.929 . S
C1358 C1360 1.378 . S
C1358 C1362 1.350 . S
C1359 C1362 1.463 . S
C1359 C1364 1.350 . S
C1359 N1367 1.427 . S
C1360 H1351 0.930 . S
C1360 C1358 1.378 . S
C1360 C1361 1.367 . S
C1361 C1360 1.367 . S
C1361 C1363 1.433 . S
C1362 C1358 1.350 . S
C1362 C1359 1.463 . S
C1362 N1366 1.427 . S
C1363 H1353 0.929 . S
C1363 C1361 1.433 . S
C1363 N1366 1.384 . S
C1364 H1355 0.929 . S
C1364 C1356 1.378 . S
C1364 C1359 1.350 . S
C1365 H1352 0.929 . S
C1365 C1357 1.433 . S
C1365 N1367 1.384 . S
N1366 C1362 1.427 . S
N1366 C1363 1.384 . S
N1367 C1359 1.427 . S
N1367 C1365 1.384 . S
H1368 C1374 0.930 . S
H1369 C1378 0.930 . S
H1370 C1383 0.929 . S
H1371 C1381 0.929 . S
H1372 C1376 0.929 . S
H1373 C1382 0.929 . S
C1374 H1368 0.930 . S
C1374 C1375 1.367 . S
C1374 C1382 1.378 . S
C1375 C1374 1.367 . S
C1375 C1383 1.433 . S
C1376 H1372 0.929 . S
C1376 C1378 1.378 . S
C1376 C1380 1.350 . S
C1377 C1380 1.463 . S
C1377 C1382 1.350 . S
C1377 N1385 1.427 . S
C1378 H1369 0.930 . S
C1378 C1376 1.378 . S
C1378 C1379 1.367 . S
C1379 C1378 1.367 . S
C1379 C1381 1.433 . S
C1380 C1376 1.350 . S
C1380 C1377 1.463 . S
C1380 N1384 1.427 . S
C1381 H1371 0.929 . S
C1381 C1379 1.433 . S
C1381 N1384 1.384 . S
C1382 H1373 0.929 . S
C1382 C1374 1.378 . S
C1382 C1377 1.350 . S
C1383 H1370 0.929 . S
C1383 C1375 1.433 . S
C1383 N1385 1.384 . S
N1384 C1380 1.427 . S
N1384 C1381 1.384 . S
N1385 C1377 1.427 . S
N1385 C1383 1.384 . S
H1386 C1392 0.930 . S
H1387 C1396 0.930 . S
H1388 C1401 0.929 . S
H1389 C1399 0.929 . S
H1390 C1394 0.929 . S
H1391 C1400 0.929 . S
C1392 H1386 0.930 . S
C1392 C1393 1.367 . S
C1392 C1400 1.378 . S
C1393 C1392 1.367 . S
C1393 C1401 1.433 . S
C1394 H1390 0.929 . S
C1394 C1396 1.378 . S
C1394 C1398 1.350 . S
C1395 C1398 1.463 . S
C1395 C1400 1.350 . S
C1395 N1403 1.427 . S
C1396 H1387 0.930 . S
C1396 C1394 1.378 . S
C1396 C1397 1.367 . S
C1397 C1396 1.367 . S
C1397 C1399 1.433 . S
C1398 C1394 1.350 . S
C1398 C1395 1.463 . S
C1398 N1402 1.427 . S
C1399 H1389 0.929 . S
C1399 C1397 1.433 . S
C1399 N1402 1.384 . S
C1400 H1391 0.929 . S
C1400 C1392 1.378 . S
C1400 C1395 1.350 . S
C1401 H1388 0.929 . S
C1401 C1393 1.433 . S
C1401 N1403 1.384 . S
N1402 C1398 1.427 . S
N1402 C1399 1.384 . S
N1403 C1395 1.427 . S
N1403 C1401 1.384 . S
H1404 C1410 0.930 . S
H1405 C1414 0.930 . S
H1406 C1419 0.929 . S
H1407 C1417 0.929 . S
H1408 C1412 0.929 . S
H1409 C1418 0.929 . S
C1410 H1404 0.930 . S
C1410 C1411 1.367 . S
C1410 C1418 1.378 . S
C1411 C1410 1.367 . S
C1411 C1419 1.433 . S
C1412 H1408 0.929 . S
C1412 C1414 1.378 . S
C1412 C1416 1.350 . S
C1413 C1416 1.463 . S
C1413 C1418 1.350 . S
C1413 N1421 1.427 . S
C1414 H1405 0.930 . S
C1414 C1412 1.378 . S
C1414 C1415 1.367 . S
C1415 C1414 1.367 . S
C1415 C1417 1.433 . S
C1416 C1412 1.350 . S
C1416 C1413 1.463 . S
C1416 N1420 1.427 . S
C1417 H1407 0.929 . S
C1417 C1415 1.433 . S
C1417 N1420 1.384 . S
C1418 H1409 0.929 . S
C1418 C1410 1.378 . S
C1418 C1413 1.350 . S
C1419 H1406 0.929 . S
C1419 C1411 1.433 . S
C1419 N1421 1.384 . S
N1420 C1416 1.427 . S
N1420 C1417 1.384 . S
N1421 C1413 1.427 . S
N1421 C1419 1.384 . S
H1422 C1428 0.930 . S
H1423 C1432 0.930 . S
H1424 C1437 0.929 . S
H1425 C1435 0.929 . S
H1426 C1430 0.929 . S
H1427 C1436 0.929 . S
C1428 H1422 0.930 . S
C1428 C1429 1.367 . S
C1428 C1436 1.378 . S
C1429 C1428 1.367 . S
C1429 C1437 1.433 . S
C1430 H1426 0.929 . S
C1430 C1432 1.378 . S
C1430 C1434 1.350 . S
C1431 C1434 1.463 . S
C1431 C1436 1.350 . S
C1431 N1439 1.427 . S
C1432 H1423 0.930 . S
C1432 C1430 1.378 . S
C1432 C1433 1.367 . S
C1433 C1432 1.367 . S
C1433 C1435 1.433 . S
C1434 C1430 1.350 . S
C1434 C1431 1.463 . S
C1434 N1438 1.427 . S
C1435 H1425 0.929 . S
C1435 C1433 1.433 . S
C1435 N1438 1.384 . S
C1436 H1427 0.929 . S
C1436 C1428 1.378 . S
C1436 C1431 1.350 . S
C1437 H1424 0.929 . S
C1437 C1429 1.433 . S
C1437 N1439 1.384 . S
N1438 C1434 1.427 . S
N1438 C1435 1.384 . S
N1439 C1431 1.427 . S
N1439 C1437 1.384 . S
H1440 C1446 0.930 . S
H1441 C1450 0.930 . S
H1442 C1455 0.929 . S
H1443 C1453 0.929 . S
H1444 C1448 0.929 . S
H1445 C1454 0.929 . S
C1446 H1440 0.930 . S
C1446 C1447 1.367 . S
C1446 C1454 1.378 . S
C1447 C1446 1.367 . S
C1447 C1455 1.433 . S
C1448 H1444 0.929 . S
C1448 C1450 1.378 . S
C1448 C1452 1.350 . S
C1449 C1452 1.463 . S
C1449 C1454 1.350 . S
C1449 N1457 1.427 . S
C1450 H1441 0.930 . S
C1450 C1448 1.378 . S
C1450 C1451 1.367 . S
C1451 C1450 1.367 . S
C1451 C1453 1.433 . S
C1452 C1448 1.350 . S
C1452 C1449 1.463 . S
C1452 N1456 1.427 . S
C1453 H1443 0.929 . S
C1453 C1451 1.433 . S
C1453 N1456 1.384 . S
C1454 H1445 0.929 . S
C1454 C1446 1.378 . S
C1454 C1449 1.350 . S
C1455 H1442 0.929 . S
C1455 C1447 1.433 . S
C1455 N1457 1.384 . S
N1456 C1452 1.427 . S
N1456 C1453 1.384 . S
N1457 C1449 1.427 . S
N1457 C1455 1.384 . S
H1458 C1464 0.930 . S
H1459 C1468 0.930 . S
H1460 C1473 0.929 . S
H1461 C1471 0.929 . S
H1462 C1466 0.929 . S
H1463 C1472 0.929 . S
C1464 H1458 0.930 . S
C1464 C1465 1.367 . S
C1464 C1472 1.378 . S
C1465 C1464 1.367 . S
C1465 C1473 1.433 . S
C1466 H1462 0.929 . S
C1466 C1468 1.378 . S
C1466 C1470 1.350 . S
C1467 C1470 1.463 . S
C1467 C1472 1.350 . S
C1467 N1475 1.427 . S
C1468 H1459 0.930 . S
C1468 C1466 1.378 . S
C1468 C1469 1.367 . S
C1469 C1468 1.367 . S
C1469 C1471 1.433 . S
C1470 C1466 1.350 . S
C1470 C1467 1.463 . S
C1470 N1474 1.427 . S
C1471 H1461 0.929 . S
C1471 C1469 1.433 . S
C1471 N1474 1.384 . S
C1472 H1463 0.929 . S
C1472 C1464 1.378 . S
C1472 C1467 1.350 . S
C1473 H1460 0.929 . S
C1473 C1465 1.433 . S
C1473 N1475 1.384 . S
N1474 C1470 1.427 . S
N1474 C1471 1.384 . S
N1475 C1467 1.427 . S
N1475 C1473 1.384 . S
H1476 C1482 0.930 . S
H1477 C1486 0.930 . S
H1478 C1491 0.929 . S
H1479 C1489 0.929 . S
H1480 C1484 0.929 . S
H1481 C1490 0.929 . S
C1482 H1476 0.930 . S
C1482 C1483 1.367 . S
C1482 C1490 1.378 . S
C1483 C1482 1.367 . S
C1483 C1491 1.433 . S
C1484 H1480 0.929 . S
C1484 C1486 1.378 . S
C1484 C1488 1.350 . S
C1485 C1488 1.463 . S
C1485 C1490 1.350 . S
C1485 N1493 1.427 . S
C1486 H1477 0.930 . S
C1486 C1484 1.378 . S
C1486 C1487 1.367 . S
C1487 C1486 1.367 . S
C1487 C1489 1.433 . S
C1488 C1484 1.350 . S
C1488 C1485 1.463 . S
C1488 N1492 1.427 . S
C1489 H1479 0.929 . S
C1489 C1487 1.433 . S
C1489 N1492 1.384 . S
C1490 H1481 0.929 . S
C1490 C1482 1.378 . S
C1490 C1485 1.350 . S
C1491 H1478 0.929 . S
C1491 C1483 1.433 . S
C1491 N1493 1.384 . S
N1492 C1488 1.427 . S
N1492 C1489 1.384 . S
N1493 C1485 1.427 . S
N1493 C1491 1.384 . S
H1494 C1500 0.930 . S
H1495 C1504 0.930 . S
H1496 C1509 0.929 . S
H1497 C1507 0.929 . S
H1498 C1502 0.929 . S
H1499 C1508 0.929 . S
C1500 H1494 0.930 . S
C1500 C1501 1.367 . S
C1500 C1508 1.378 . S
C1501 C1500 1.367 . S
C1501 C1509 1.433 . S
C1502 H1498 0.929 . S
C1502 C1504 1.378 . S
C1502 C1506 1.350 . S
C1503 C1506 1.463 . S
C1503 C1508 1.350 . S
C1503 N1511 1.427 . S
C1504 H1495 0.930 . S
C1504 C1502 1.378 . S
C1504 C1505 1.367 . S
C1505 C1504 1.367 . S
C1505 C1507 1.433 . S
C1506 C1502 1.350 . S
C1506 C1503 1.463 . S
C1506 N1510 1.427 . S
C1507 H1497 0.929 . S
C1507 C1505 1.433 . S
C1507 N1510 1.384 . S
C1508 H1499 0.929 . S
C1508 C1500 1.378 . S
C1508 C1503 1.350 . S
C1509 H1496 0.929 . S
C1509 C1501 1.433 . S
C1509 N1511 1.384 . S
N1510 C1506 1.427 . S
N1510 C1507 1.384 . S
N1511 C1503 1.427 . S
N1511 C1509 1.384 . S
H1512 C1518 0.930 . S
H1513 C1522 0.930 . S
H1514 C1527 0.929 . S
H1515 C1525 0.929 . S
H1516 C1520 0.929 . S
H1517 C1526 0.929 . S
C1518 H1512 0.930 . S
C1518 C1519 1.367 . S
C1518 C1526 1.378 . S
C1519 C1518 1.367 . S
C1519 C1527 1.433 . S
C1520 H1516 0.929 . S
C1520 C1522 1.378 . S
C1520 C1524 1.350 . S
C1521 C1524 1.463 . S
C1521 C1526 1.350 . S
C1521 N1529 1.427 . S
C1522 H1513 0.930 . S
C1522 C1520 1.378 . S
C1522 C1523 1.367 . S
C1523 C1522 1.367 . S
C1523 C1525 1.433 . S
C1524 C1520 1.350 . S
C1524 C1521 1.463 . S
C1524 N1528 1.427 . S
C1525 H1515 0.929 . S
C1525 C1523 1.433 . S
C1525 N1528 1.384 . S
C1526 H1517 0.929 . S
C1526 C1518 1.378 . S
C1526 C1521 1.350 . S
C1527 H1514 0.929 . S
C1527 C1519 1.433 . S
C1527 N1529 1.384 . S
N1528 C1524 1.427 . S
N1528 C1525 1.384 . S
N1529 C1521 1.427 . S
N1529 C1527 1.384 . S
H1530 C1536 0.930 . S
H1531 C1540 0.930 . S
H1532 C1545 0.929 . S
H1533 C1543 0.929 . S
H1534 C1538 0.929 . S
H1535 C1544 0.929 . S
C1536 H1530 0.930 . S
C1536 C1537 1.367 . S
C1536 C1544 1.378 . S
C1537 C1536 1.367 . S
C1537 C1545 1.433 . S
C1538 H1534 0.929 . S
C1538 C1540 1.378 . S
C1538 C1542 1.350 . S
C1539 C1542 1.463 . S
C1539 C1544 1.350 . S
C1539 N1547 1.427 . S
C1540 H1531 0.930 . S
C1540 C1538 1.378 . S
C1540 C1541 1.367 . S
C1541 C1540 1.367 . S
C1541 C1543 1.433 . S
C1542 C1538 1.350 . S
C1542 C1539 1.463 . S
C1542 N1546 1.427 . S
C1543 H1533 0.929 . S
C1543 C1541 1.433 . S
C1543 N1546 1.384 . S
C1544 H1535 0.929 . S
C1544 C1536 1.378 . S
C1544 C1539 1.350 . S
C1545 H1532 0.929 . S
C1545 C1537 1.433 . S
C1545 N1547 1.384 . S
N1546 C1542 1.427 . S
N1546 C1543 1.384 . S
N1547 C1539 1.427 . S
N1547 C1545 1.384 . S
C583 C162 1.670 . S
C587 C228 1.677 . S
C601 C174 1.798 . S
C605 C268 1.794 . S
C619 C150 1.604 . S
C623 C298 1.584 . S
C637 C138 1.482 . S
C641 C258 1.453 1_556 S
C659 C308 1.504 . S
C655 C114 1.507 . S
C673 C126 1.364 . S
C677 C218 1.355 1_556 S
C695 C247 1.668 . S
C691 C136 1.643 . S
C713 C287 1.677 . S
C709 C112 1.660 . S
C727 C124 1.648 . S
C731 C313 1.690 . S
C745 C160 1.492 . S
C749 C273 1.505 . S
C763 C172 1.450 . S
C767 C327 1.459 . S
C785 C233 1.476 . S
C781 C148 1.447 . S
C803 C348 1.677 . S
C799 C18 1.672 . S
C817 C30 1.797 . S
C821 C388 1.792 . S
C835 C6 1.604 . S
C839 C418 1.584 . S
C853 C210 1.478 . S
C857 C378 1.449 . S
C871 C186 1.508 . S
C875 C428 1.505 . S
C889 C198 1.359 . S
C893 C338 1.355 . S
C907 C208 1.640 . S
C911 C367 1.668 . S
C925 C184 1.660 . S
C929 C407 1.676 . S
C947 C433 1.682 . S
C943 C196 1.651 . S
C961 C16 1.499 . S
C965 C393 1.515 . S
C983 C447 1.460 . S
C979 C28 1.449 . S
C997 C4 1.445 . S
C1001 C353 1.475 . S
C1019 C468 1.677 . S
C1015 C90 1.672 . S
C1033 C102 1.798 . S
C1037 C508 1.796 . S
C1055 C538 1.587 . S
C1051 C78 1.604 . S
C1073 C498 1.454 . S
C1069 C66 1.478 . S
C1091 C548 1.504 . S
C1087 C42 1.507 . S
C1105 C54 1.359 . S
C1109 C458 1.355 . S
C1123 C64 1.646 . S
C1127 C487 1.669 . S
C1141 C40 1.653 . S
C1145 C527 1.671 . S
C1163 C553 1.682 . S
C1159 C52 1.650 . S
C1177 C88 1.498 . S
C1181 C513 1.514 . S
C1195 C100 1.449 . S
C1199 C567 1.460 . S
C1213 C76 1.451 . S
C1217 C473 1.479 . S
C1231 C189 1.506 . S
C1235 C245 1.474 . S
C1253 C285 1.909 . S
C1249 C201 1.951 . S
C1267 C213 1.562 . S
C1271 C304 1.577 . S
C1285 C81 1.787 . S
C1289 C264 1.781 . S
C1303 C93 1.693 . S
C1307 C325 1.670 . S
C1325 C224 1.319 . S
C1321 C105 1.310 . S
C1339 C45 1.509 . S
C1343 C365 1.479 . S
C1357 C57 1.954 . S
C1361 C405 1.913 . S
C1375 C69 1.563 . S
C1379 C424 1.579 . S
C1393 C153 1.782 . S
C1397 C384 1.783 . S
C1415 C445 1.667 . S
C1411 C165 1.691 . S
C1429 C177 1.308 . S
C1433 C344 1.317 . S
C1447 C117 1.507 . S
C1451 C485 1.479 . S
C1465 C129 1.958 . S
C1469 C525 1.919 . S
C1487 C544 1.579 . S
C1483 C141 1.563 . S
C1501 C9 1.787 . S
C1505 C504 1.785 . S
C1519 C21 1.694 . S
C1523 C565 1.672 . S
C1537 C33 1.314 . S
C1541 C464 1.317 . S
