# Generated by pormake.
# Topology pyr, (3,6)-cn, num edge types: 1
# Building blocks:
#     Node 0, Type 0, BuildingBlock: VETTIZ_charged_linker_0, # of connection points: 3
#     Node 1, Type 0, BuildingBlock: VETTIZ_charged_linker_0, # of connection points: 3
#     Node 2, Type 0, BuildingBlock: VETTIZ_charged_linker_0, # of connection points: 3
#     Node 3, Type 0, BuildingBlock: VETTIZ_charged_linker_0, # of connection points: 3
#     Node 4, Type 0, BuildingBlock: VETTIZ_charged_linker_0, # of connection points: 3
#     Node 5, Type 0, BuildingBlock: VETTIZ_charged_linker_0, # of connection points: 3
#     Node 6, Type 0, BuildingBlock: VETTIZ_charged_linker_0, # of connection points: 3
#     Node 7, Type 0, BuildingBlock: VETTIZ_charged_linker_0, # of connection points: 3
#     Node 8, Type 1, BuildingBlock: JUFBIX_clean_sbu_0, # of connection points: 6
#     Node 9, Type 1, BuildingBlock: JUFBIX_clean_sbu_0, # of connection points: 6
#     Node 10, Type 1, BuildingBlock: JUFBIX_clean_sbu_0, # of connection points: 6
#     Node 11, Type 1, BuildingBlock: JUFBIX_clean_sbu_0, # of connection points: 6
#     Edge 12, Type (0, 1), BuildingBlock: UVAHIK_clean_linker_0, # of connection points: 2
#     Edge 13, Type (0, 1), BuildingBlock: UVAHIK_clean_linker_0, # of connection points: 2
#     Edge 14, Type (0, 1), BuildingBlock: UVAHIK_clean_linker_0, # of connection points: 2
#     Edge 15, Type (0, 1), BuildingBlock: UVAHIK_clean_linker_0, # of connection points: 2
#     Edge 16, Type (0, 1), BuildingBlock: UVAHIK_clean_linker_0, # of connection points: 2
#     Edge 17, Type (0, 1), BuildingBlock: UVAHIK_clean_linker_0, # of connection points: 2
#     Edge 18, Type (0, 1), BuildingBlock: UVAHIK_clean_linker_0, # of connection points: 2
#     Edge 19, Type (0, 1), BuildingBlock: UVAHIK_clean_linker_0, # of connection points: 2
#     Edge 20, Type (0, 1), BuildingBlock: UVAHIK_clean_linker_0, # of connection points: 2
#     Edge 21, Type (0, 1), BuildingBlock: UVAHIK_clean_linker_0, # of connection points: 2
#     Edge 22, Type (0, 1), BuildingBlock: UVAHIK_clean_linker_0, # of connection points: 2
#     Edge 23, Type (0, 1), BuildingBlock: UVAHIK_clean_linker_0, # of connection points: 2
#     Edge 24, Type (0, 1), BuildingBlock: UVAHIK_clean_linker_0, # of connection points: 2
#     Edge 25, Type (0, 1), BuildingBlock: UVAHIK_clean_linker_0, # of connection points: 2
#     Edge 26, Type (0, 1), BuildingBlock: UVAHIK_clean_linker_0, # of connection points: 2
#     Edge 27, Type (0, 1), BuildingBlock: UVAHIK_clean_linker_0, # of connection points: 2
#     Edge 28, Type (0, 1), BuildingBlock: UVAHIK_clean_linker_0, # of connection points: 2
#     Edge 29, Type (0, 1), BuildingBlock: UVAHIK_clean_linker_0, # of connection points: 2
#     Edge 30, Type (0, 1), BuildingBlock: UVAHIK_clean_linker_0, # of connection points: 2
#     Edge 31, Type (0, 1), BuildingBlock: UVAHIK_clean_linker_0, # of connection points: 2
#     Edge 32, Type (0, 1), BuildingBlock: UVAHIK_clean_linker_0, # of connection points: 2
#     Edge 33, Type (0, 1), BuildingBlock: UVAHIK_clean_linker_0, # of connection points: 2
#     Edge 34, Type (0, 1), BuildingBlock: UVAHIK_clean_linker_0, # of connection points: 2
#     Edge 35, Type (0, 1), BuildingBlock: UVAHIK_clean_linker_0, # of connection points: 2
# Relax obj value: 0.036
# Max RMSD: 0.087
# Mean RMSD: 0.029
data_MOF--net-pyr--node1-JUFBIX_clean_sbu_0--node2-VETTIZ_charged_linker_0--edge1-UVAHIK_clean_linker_0
_symmetry_space_group_name_H-M    P1
_symmetry_Int_Tables_number       1
_symmetry_cell_setting            triclinic
loop_
_symmetry_equiv_pos_as_xyz
'x, y, z'
_cell_length_a     56.577515
_cell_length_b     54.296722
_cell_length_c     56.494845
_cell_angle_alpha  86.29313
_cell_angle_beta   90.209937
_cell_angle_gamma 91.517446
loop_
_atom_site_label
_atom_site_type_symbol
_atom_site_fract_x
_atom_site_fract_y
_atom_site_fract_z
_atom_type_partial_charge
C0 C 0.15759 0.11657 0.24094 0.0
C1 C 0.1374 0.12477 0.25241 0.0
C2 C 0.12507 0.14474 0.24147 0.0
C3 C 0.15303 0.14829 0.20884 0.0
C4 C 0.16506 0.12859 0.21932 0.0
C5 C 0.18627 0.12246 0.20491 0.0
H6 H 0.25603 0.14711 0.10808 0.0
C7 C 0.16552 0.15693 0.18665 0.0
C8 C 0.18508 0.14186 0.18426 0.0
H9 H 0.2635 0.08942 0.16387 0.0
H10 H 0.2288 0.10315 0.18325 0.0
H11 H 0.24326 0.18986 0.14261 0.0
H12 H 0.19911 0.14122 0.1031 0.0
H13 H 0.18762 0.17101 0.09961 0.0
H14 H 0.21697 0.16576 0.08905 0.0
H15 H 0.24028 0.19377 0.11096 0.0
H16 H 0.21981 0.20718 0.13057 0.0
C17 C 0.20869 0.12603 0.22026 0.0
C18 C 0.18245 0.09598 0.19671 0.0
C19 C 0.13441 0.23012 0.1357 0.0
C20 C 0.14248 0.24307 0.11467 0.0
C21 C 0.16332 0.23513 0.10409 0.0
C22 C 0.1757 0.21488 0.11406 0.0
C23 C 0.16739 0.20225 0.13504 0.0
C24 C 0.14711 0.21003 0.14555 0.0
C25 C 0.14118 0.19479 0.16809 0.0
C26 C 0.16112 0.1765 0.1693 0.0
C27 C 0.17641 0.18087 0.14983 0.0
C28 C 0.14231 0.21205 0.1889 0.0
C29 C 0.11679 0.18182 0.16475 0.0
C30 C 0.25033 0.13754 0.12457 0.0
C31 C 0.26266 0.11702 0.13431 0.0
C32 C 0.25427 0.105 0.15569 0.0
C33 C 0.23412 0.11311 0.16705 0.0
C34 C 0.22198 0.13352 0.15703 0.0
C35 C 0.23014 0.14537 0.13612 0.0
C36 C 0.21488 0.16665 0.12798 0.0
C37 C 0.19622 0.16557 0.14737 0.0
C38 C 0.2005 0.14614 0.16442 0.0
C39 C 0.23024 0.19071 0.12779 0.0
C40 C 0.20411 0.16114 0.10358 0.0
H41 H 0.12247 0.17149 0.21263 0.0
H42 H 0.16763 0.10142 0.2488 0.0
H43 H 0.16349 0.09225 0.19261 0.0
H44 H 0.1919 0.09294 0.18013 0.0
H45 H 0.18789 0.08194 0.21072 0.0
H46 H 0.20711 0.14238 0.231 0.0
H47 H 0.21144 0.10967 0.23271 0.0
H48 H 0.22485 0.12976 0.2096 0.0
H49 H 0.11841 0.23534 0.14433 0.0
H50 H 0.17038 0.24484 0.08822 0.0
H51 H 0.1914 0.20993 0.1051 0.0
H52 H 0.15639 0.22661 0.18589 0.0
H53 H 0.1253 0.22145 0.19089 0.0
H54 H 0.14701 0.20235 0.20598 0.0
H55 H 0.11479 0.17589 0.14635 0.0
H56 H 0.11436 0.16473 0.17625 0.0
H57 H 0.10216 0.19442 0.168 0.0
H58 H 0.10923 0.15121 0.2495 0.0
C59 C 0.13272 0.15646 0.21989 0.0
C60 C 0.34681 0.91093 0.55149 0.0
C61 C 0.33553 0.9323 0.55792 0.0
C62 C 0.34558 0.94593 0.57604 0.0
C63 C 0.37587 0.91559 0.5827 0.0
C64 C 0.36683 0.9029 0.56413 0.0
C65 C 0.37999 0.87966 0.56071 0.0
H66 H 0.4562 0.79431 0.60424 0.0
C67 C 0.39512 0.90106 0.59381 0.0
C68 C 0.39777 0.88006 0.58093 0.0
H69 H 0.41679 0.79484 0.53858 0.0
H70 H 0.40221 0.83523 0.54536 0.0
H71 H 0.47548 0.85002 0.59592 0.0
H72 H 0.41628 0.81834 0.63596 0.0
H73 H 0.43106 0.83963 0.65338 0.0
H74 H 0.44649 0.81325 0.64435 0.0
H75 H 0.47923 0.83393 0.62438 0.0
H76 H 0.47341 0.86654 0.62149 0.0
C77 C 0.39219 0.88227 0.53611 0.0
C78 C 0.36221 0.85751 0.56394 0.0
C79 C 0.43107 0.92677 0.67114 0.0
C80 C 0.44681 0.91538 0.68749 0.0
C81 C 0.45758 0.89341 0.68173 0.0
C82 C 0.45204 0.8825 0.6605 0.0
C83 C 0.43542 0.89355 0.64489 0.0
C84 C 0.42556 0.91553 0.65016 0.0
C85 C 0.40771 0.92427 0.63196 0.0
C86 C 0.40856 0.90398 0.61477 0.0
C87 C 0.42471 0.88596 0.6225 0.0
C88 C 0.41665 0.94943 0.62038 0.0
C89 C 0.38335 0.92497 0.64444 0.0
C90 C 0.44433 0.80317 0.59144 0.0
C91 C 0.43732 0.79141 0.57104 0.0
C92 C 0.42234 0.80364 0.55443 0.0
C93 C 0.41384 0.82699 0.55845 0.0
C94 C 0.42044 0.83825 0.57926 0.0
C95 C 0.43594 0.82666 0.59503 0.0
C96 C 0.44208 0.84211 0.61545 0.0
C97 C 0.42734 0.86466 0.60954 0.0
C98 C 0.41433 0.86203 0.5886 0.0
C99 C 0.46895 0.84844 0.61452 0.0
C100 C 0.43375 0.82768 0.63862 0.0
H101 H 0.3721 0.94865 0.60232 0.0
H102 H 0.3398 0.90028 0.53738 0.0
H103 H 0.35082 0.85943 0.5797 0.0
H104 H 0.37076 0.8396 0.56706 0.0
H105 H 0.35048 0.85649 0.5482 0.0
H106 H 0.39566 0.90198 0.5302 0.0
H107 H 0.38106 0.87395 0.52233 0.0
H108 H 0.40983 0.87389 0.53638 0.0
H109 H 0.42271 0.94382 0.67482 0.0
H110 H 0.46962 0.88411 0.69405 0.0
H111 H 0.46044 0.86553 0.65737 0.0
H112 H 0.43623 0.94988 0.61852 0.0
H113 H 0.41189 0.96486 0.63129 0.0
H114 H 0.40989 0.9531 0.60215 0.0
H115 H 0.38162 0.91013 0.65891 0.0
H116 H 0.36828 0.9215 0.63256 0.0
H117 H 0.381 0.94289 0.65246 0.0
H118 H 0.33722 0.96233 0.58156 0.0
C119 C 0.36572 0.93778 0.58833 0.0
C120 C 0.63827 0.28371 0.88877 0.0
C121 C 0.61774 0.27313 0.87901 0.0
C122 C 0.60768 0.28492 0.85853 0.0
C123 C 0.6387 0.31662 0.85753 0.0
C124 C 0.64832 0.30541 0.87785 0.0
C125 C 0.66994 0.31919 0.88608 0.0
H126 H 0.74973 0.4137 0.86852 0.0
C127 C 0.6536 0.33861 0.85043 0.0
C128 C 0.67184 0.34035 0.86717 0.0
H129 H 0.74616 0.35773 0.92661 0.0
H130 H 0.71123 0.33972 0.90964 0.0
H131 H 0.69379 0.42426 0.86773 0.0
H132 H 0.73599 0.37739 0.827 0.0
H133 H 0.71626 0.39302 0.80757 0.0
H134 H 0.738 0.41048 0.82335 0.0
H135 H 0.71371 0.43654 0.845 0.0
H136 H 0.68377 0.42703 0.83823 0.0
C137 C 0.66472 0.32836 0.91092 0.0
C138 C 0.69121 0.30185 0.88538 0.0
C139 C 0.63482 0.38909 0.77432 0.0
C140 C 0.64542 0.41016 0.76261 0.0
C141 C 0.66529 0.42142 0.77304 0.0
C142 C 0.67465 0.41156 0.79458 0.0
C143 C 0.66399 0.39026 0.80589 0.0
C144 C 0.6443 0.37954 0.79578 0.0
C145 C 0.635 0.35725 0.8103 0.0
C146 C 0.6525 0.35611 0.8307 0.0
C147 C 0.66951 0.37541 0.82805 0.0
C148 C 0.60966 0.36258 0.81865 0.0
C149 C 0.63662 0.33462 0.79506 0.0
C150 C 0.74131 0.3977 0.87771 0.0
C151 C 0.75093 0.38708 0.89891 0.0
C152 C 0.73947 0.36606 0.91007 0.0
C153 C 0.71903 0.35569 0.90026 0.0
C154 C 0.70978 0.36639 0.87902 0.0
C155 C 0.72081 0.38713 0.86816 0.0
C156 C 0.70826 0.39609 0.8458 0.0
C157 C 0.68791 0.37732 0.84509 0.0
C158 C 0.68899 0.35991 0.86456 0.0
C159 C 0.69949 0.42242 0.84911 0.0
C160 C 0.72543 0.39439 0.82471 0.0
H161 H 0.60952 0.31447 0.83221 0.0
H162 H 0.64662 0.27515 0.90437 0.0
H163 H 0.69022 0.29085 0.86944 0.0
H164 H 0.70842 0.31187 0.884 0.0
H165 H 0.69142 0.28869 0.90126 0.0
H166 H 0.64565 0.3323 0.91286 0.0
H167 H 0.66937 0.31432 0.92523 0.0
H168 H 0.67401 0.34601 0.9141 0.0
H169 H 0.61926 0.38027 0.76703 0.0
H170 H 0.67383 0.43762 0.76432 0.0
H171 H 0.6899 0.42082 0.80152 0.0
H172 H 0.60757 0.38261 0.82098 0.0
H173 H 0.59618 0.35696 0.80557 0.0
H174 H 0.60538 0.35345 0.83623 0.0
H175 H 0.6532 0.33565 0.78445 0.0
H176 H 0.63732 0.3169 0.80572 0.0
H177 H 0.62153 0.33378 0.78247 0.0
H178 H 0.59161 0.27759 0.85088 0.0
C179 C 0.61804 0.30651 0.84776 0.0
C180 C 0.95118 0.69955 0.41815 0.0
C181 C 0.94919 0.70785 0.44109 0.0
C182 C 0.93612 0.69339 0.45832 0.0
C183 C 0.92553 0.66416 0.42911 0.0
C184 C 0.93932 0.67774 0.41259 0.0
C185 C 0.9389 0.66692 0.38877 0.0
H186 H 0.89264 0.58319 0.31702 0.0
C187 C 0.91433 0.6434 0.4172 0.0
C188 C 0.92237 0.64473 0.39364 0.0
H189 H 0.94461 0.64128 0.2994 0.0
H190 H 0.94454 0.65289 0.33992 0.0
H191 H 0.91609 0.56364 0.36433 0.0
H192 H 0.86059 0.61517 0.35039 0.0
H193 H 0.85158 0.59466 0.37418 0.0
H194 H 0.85764 0.58278 0.34594 0.0
H195 H 0.88619 0.55341 0.35935 0.0
H196 H 0.89686 0.55953 0.38866 0.0
C197 C 0.96429 0.65917 0.38298 0.0
C198 C 0.92835 0.68621 0.37053 0.0
C199 C 0.8493 0.59061 0.45866 0.0
C200 C 0.83478 0.57114 0.45117 0.0
C201 C 0.83975 0.56097 0.42947 0.0
C202 C 0.85789 0.57098 0.41478 0.0
C203 C 0.87114 0.59153 0.42172 0.0
C204 C 0.86743 0.60041 0.44373 0.0
C205 C 0.8839 0.62185 0.44832 0.0
C206 C 0.89725 0.625 0.42496 0.0
C207 C 0.88936 0.60743 0.40937 0.0
C208 C 0.90033 0.61401 0.46933 0.0
C209 C 0.86873 0.64448 0.45255 0.0
C210 C 0.90419 0.59827 0.3219 0.0
C211 C 0.91856 0.61139 0.30491 0.0
C212 C 0.93308 0.63111 0.31203 0.0
C213 C 0.93313 0.63772 0.33562 0.0
C214 C 0.91842 0.62458 0.3523 0.0
C215 C 0.90445 0.60509 0.34534 0.0
C216 C 0.88993 0.59318 0.36536 0.0
C217 C 0.89748 0.60875 0.38557 0.0
C218 C 0.91399 0.62723 0.37778 0.0
C219 C 0.89741 0.56597 0.36967 0.0
C220 C 0.86351 0.59637 0.35876 0.0
H221 H 0.91416 0.66166 0.46614 0.0
H222 H 0.96139 0.7101 0.40464 0.0
H223 H 0.91379 0.69618 0.37861 0.0
H224 H 0.92023 0.67791 0.35505 0.0
H225 H 0.94199 0.70017 0.36421 0.0
H226 H 0.97384 0.65268 0.39938 0.0
H227 H 0.97475 0.6749 0.37444 0.0
H228 H 0.96455 0.64343 0.37153 0.0
H229 H 0.84613 0.59853 0.47544 0.0
H230 H 0.82879 0.54606 0.42321 0.0
H231 H 0.86029 0.56289 0.39817 0.0
H232 H 0.90301 0.59373 0.47049 0.0
H233 H 0.8928 0.61885 0.4865 0.0
H234 H 0.91835 0.62229 0.46733 0.0
H235 H 0.85414 0.64604 0.43932 0.0
H236 H 0.87874 0.66217 0.4506 0.0
H237 H 0.86066 0.64276 0.4705 0.0
H238 H 0.93426 0.69947 0.47609 0.0
C239 C 0.9243 0.67157 0.45245 0.0
C240 C 0.86166 0.77595 0.89576 0.0
C241 C 0.88282 0.76539 0.88859 0.0
C242 C 0.89449 0.77626 0.86827 0.0
C243 C 0.86394 0.80662 0.86234 0.0
C244 C 0.85267 0.7965 0.8825 0.0
C245 C 0.83066 0.8102 0.88784 0.0
H246 H 0.75384 0.90106 0.8575 0.0
C247 C 0.84991 0.82758 0.85241 0.0
C248 C 0.83041 0.82988 0.86737 0.0
H249 H 0.75242 0.84986 0.9195 0.0
H250 H 0.78781 0.83139 0.90643 0.0
H251 H 0.76958 0.8618 0.82006 0.0
H252 H 0.81047 0.91304 0.85995 0.0
H253 H 0.82174 0.91422 0.83093 0.0
H254 H 0.79171 0.92305 0.83569 0.0
H255 H 0.76896 0.8946 0.81358 0.0
H256 H 0.79123 0.8761 0.80119 0.0
C257 C 0.80924 0.79196 0.88683 0.0
C258 C 0.83415 0.82161 0.9121 0.0
C259 C 0.87598 0.87426 0.7753 0.0
C260 C 0.86659 0.89412 0.76129 0.0
C261 C 0.84556 0.90459 0.76893 0.0
C262 C 0.83418 0.89553 0.78994 0.0
C263 C 0.8438 0.87569 0.80368 0.0
C264 C 0.86438 0.86542 0.79624 0.0
C265 C 0.8721 0.84443 0.81298 0.0
C266 C 0.8528 0.84376 0.83169 0.0
C267 C 0.83621 0.86212 0.8262 0.0
C268 C 0.87172 0.82064 0.79923 0.0
C269 C 0.89661 0.8515 0.82328 0.0
C270 C 0.7612 0.88601 0.8684 0.0
C271 C 0.74989 0.87688 0.88955 0.0
C272 C 0.76022 0.85704 0.90291 0.0
C273 C 0.78102 0.8464 0.89539 0.0
C274 C 0.79196 0.85563 0.87424 0.0
C275 C 0.78213 0.87521 0.86117 0.0
C276 C 0.79649 0.88278 0.83932 0.0
C277 C 0.81653 0.86459 0.84149 0.0
C278 C 0.81371 0.84863 0.86197 0.0
C279 C 0.78085 0.87884 0.81727 0.0
C280 C 0.80553 0.90973 0.84132 0.0
H281 H 0.89499 0.80378 0.83992 0.0
H282 H 0.85206 0.76825 0.91116 0.0
H283 H 0.85306 0.82666 0.91512 0.0
H284 H 0.82474 0.83907 0.91325 0.0
H285 H 0.82843 0.80842 0.92696 0.0
H286 H 0.81103 0.77995 0.87174 0.0
H287 H 0.80789 0.77978 0.90337 0.0
H288 H 0.79229 0.80127 0.88379 0.0
H289 H 0.8919 0.86548 0.76996 0.0
H290 H 0.83801 0.92009 0.75882 0.0
H291 H 0.81831 0.9044 0.79472 0.0
H292 H 0.85619 0.82018 0.7871 0.0
H293 H 0.88789 0.81965 0.78828 0.0
H294 H 0.8699 0.8036 0.81088 0.0
H295 H 0.89837 0.87176 0.82505 0.0
H296 H 0.89946 0.84322 0.84142 0.0
H297 H 0.91114 0.84618 0.81163 0.0
H298 H 0.91111 0.76922 0.86254 0.0
C299 C 0.88519 0.7966 0.85517 0.0
C300 C 0.67577 0.10157 0.4476 0.0
C301 C 0.68749 0.08131 0.43936 0.0
C302 C 0.67615 0.06681 0.42267 0.0
C303 C 0.64326 0.09447 0.42049 0.0
C304 C 0.65376 0.10787 0.43785 0.0
C305 C 0.63984 0.13013 0.44297 0.0
H306 H 0.55188 0.20768 0.41221 0.0
C307 C 0.6219 0.10744 0.41208 0.0
C308 C 0.61965 0.12822 0.42531 0.0
H309 H 0.60317 0.21296 0.46881 0.0
H310 H 0.61857 0.1737 0.46022 0.0
H311 H 0.53945 0.14839 0.4222 0.0
H312 H 0.58777 0.18946 0.37483 0.0
H313 H 0.57505 0.16558 0.35917 0.0
H314 H 0.55641 0.18886 0.36988 0.0
H315 H 0.52965 0.16707 0.39685 0.0
H316 H 0.53783 0.13544 0.39446 0.0
C317 C 0.63105 0.12687 0.46897 0.0
C318 C 0.65579 0.15344 0.43737 0.0
C319 C 0.57958 0.07987 0.33882 0.0
C320 C 0.562 0.09052 0.32413 0.0
C321 C 0.55 0.11102 0.33177 0.0
C322 C 0.55642 0.12156 0.35299 0.0
C323 C 0.5752 0.11167 0.3666 0.0
C324 C 0.58606 0.09083 0.35967 0.0
C325 C 0.6064 0.08346 0.3755 0.0
C326 C 0.60612 0.10341 0.39305 0.0
C327 C 0.58786 0.11993 0.38777 0.0
C328 C 0.6005 0.05762 0.3876 0.0
C329 C 0.62923 0.08487 0.36021 0.0
C330 C 0.56647 0.20041 0.42271 0.0
C331 C 0.57632 0.21356 0.44119 0.0
C332 C 0.59503 0.20316 0.45467 0.0
C333 C 0.60412 0.1804 0.44953 0.0
C334 C 0.59464 0.16792 0.43052 0.0
C335 C 0.57586 0.1777 0.41772 0.0
C336 C 0.56818 0.16181 0.39808 0.0
C337 C 0.58543 0.14089 0.40128 0.0
C338 C 0.60105 0.14477 0.42014 0.0
C339 C 0.54237 0.15274 0.4029 0.0
C340 C 0.57181 0.17709 0.37416 0.0
H341 H 0.64661 0.06174 0.40026 0.0
H342 H 0.68413 0.11311 0.46033 0.0
H343 H 0.66649 0.15141 0.42115 0.0
H344 H 0.64577 0.17037 0.43351 0.0
H345 H 0.66825 0.15654 0.45219 0.0
H346 H 0.62815 0.10701 0.47466 0.0
H347 H 0.64411 0.1347 0.48135 0.0
H348 H 0.6137 0.13526 0.47143 0.0
H349 H 0.5889 0.06386 0.33373 0.0
H350 H 0.53643 0.11967 0.3208 0.0
H351 H 0.54709 0.13754 0.35754 0.0
H352 H 0.58129 0.05552 0.39164 0.0
H353 H 0.60511 0.04275 0.37595 0.0
H354 H 0.60943 0.05443 0.40492 0.0
H355 H 0.62828 0.09978 0.34579 0.0
H356 H 0.64528 0.08963 0.37026 0.0
H357 H 0.63196 0.06726 0.35176 0.0
H358 H 0.68474 0.05088 0.41636 0.0
C359 C 0.65404 0.07317 0.41333 0.0
C360 C 0.38008 0.61865 0.24016 0.0
C361 C 0.37082 0.59645 0.25099 0.0
C362 C 0.35196 0.58415 0.23991 0.0
C363 C 0.35181 0.6162 0.2079 0.0
C364 C 0.37047 0.62804 0.21869 0.0
C365 C 0.37874 0.6511 0.20465 0.0
H366 H 0.37047 0.72826 0.10621 0.0
C367 C 0.34615 0.63078 0.18566 0.0
C368 C 0.36202 0.65113 0.18359 0.0
H369 H 0.41752 0.7346 0.16604 0.0
H370 H 0.40033 0.69728 0.18508 0.0
H371 H 0.32524 0.71527 0.13748 0.0
H372 H 0.3728 0.66845 0.10309 0.0
H373 H 0.34377 0.65751 0.09812 0.0
H374 H 0.35252 0.68829 0.08711 0.0
H375 H 0.32401 0.71174 0.10614 0.0
H376 H 0.30792 0.69104 0.12696 0.0
C377 C 0.37495 0.67341 0.2199 0.0
C378 C 0.40473 0.64767 0.19722 0.0
C379 C 0.27658 0.60503 0.13472 0.0
C380 C 0.26705 0.61504 0.11326 0.0
C381 C 0.27844 0.6358 0.1016 0.0
C382 C 0.29867 0.64669 0.11134 0.0
C383 C 0.3077 0.63678 0.13302 0.0
C384 C 0.29683 0.61613 0.14421 0.0
C385 C 0.30914 0.60794 0.16694 0.0
C386 C 0.3287 0.62755 0.16789 0.0
C387 C 0.32775 0.64439 0.14797 0.0
C388 C 0.29137 0.60917 0.18758 0.0
C389 C 0.31904 0.58194 0.16415 0.0
C390 C 0.37717 0.72138 0.12331 0.0
C391 C 0.39546 0.73414 0.13462 0.0
C392 C 0.40341 0.72502 0.15707 0.0
C393 C 0.39344 0.70333 0.16804 0.0
C394 C 0.37514 0.69072 0.15655 0.0
C395 C 0.36712 0.69992 0.13468 0.0
C396 C 0.34665 0.68482 0.12579 0.0
C397 C 0.34407 0.66474 0.14568 0.0
C398 C 0.36093 0.6682 0.16353 0.0
C399 C 0.32476 0.70145 0.12376 0.0
C400 C 0.35409 0.67425 0.1022 0.0
H401 H 0.32794 0.5838 0.21099 0.0
H402 H 0.39482 0.62833 0.24804 0.0
H403 H 0.40745 0.62842 0.19236 0.0
H404 H 0.41002 0.65939 0.18134 0.0
H405 H 0.4171 0.65143 0.21195 0.0
H406 H 0.35941 0.6701 0.23182 0.0
H407 H 0.39061 0.67693 0.23123 0.0
H408 H 0.37089 0.6905 0.20912 0.0
H409 H 0.26849 0.58886 0.14392 0.0
H410 H 0.27138 0.64401 0.08517 0.0
H411 H 0.30637 0.66257 0.1017 0.0
H412 H 0.28087 0.6262 0.1853 0.0
H413 H 0.27879 0.59308 0.18824 0.0
H414 H 0.30001 0.61003 0.20505 0.0
H415 H 0.32386 0.57944 0.14539 0.0
H416 H 0.3356 0.5788 0.17421 0.0
H417 H 0.30581 0.56722 0.16965 0.0
H418 H 0.34444 0.56709 0.24798 0.0
C419 C 0.34236 0.59393 0.21848 0.0
C420 C 0.07141 0.29897 0.59323 0.0
C421 C 0.07632 0.2905 0.57086 0.0
C422 C 0.09096 0.30504 0.55506 0.0
C423 C 0.09651 0.3353 0.58449 0.0
C424 C 0.0815 0.32135 0.59958 0.0
C425 C 0.07799 0.33284 0.62274 0.0
H426 H 0.10682 0.42285 0.69539 0.0
C427 C 0.10435 0.35732 0.59676 0.0
C428 C 0.09322 0.35613 0.61903 0.0
H429 H 0.05924 0.36006 0.70969 0.0
H430 H 0.06539 0.34724 0.67006 0.0
H431 H 0.0877 0.43892 0.64667 0.0
H432 H 0.14623 0.39322 0.66657 0.0
H433 H 0.15564 0.41569 0.6445 0.0
H434 H 0.14443 0.42538 0.67189 0.0
H435 H 0.11649 0.45216 0.65173 0.0
H436 H 0.10751 0.44295 0.62278 0.0
C437 C 0.05147 0.33864 0.62509 0.0
C438 C 0.08767 0.31501 0.64282 0.0
C439 C 0.17084 0.41404 0.56303 0.0
C440 C 0.18192 0.43525 0.57163 0.0
C441 C 0.1715 0.44652 0.59066 0.0
C442 C 0.1519 0.43561 0.60247 0.0
C443 C 0.14254 0.41313 0.59528 0.0
C444 C 0.15103 0.40339 0.57508 0.0
C445 C 0.13729 0.38034 0.56925 0.0
C446 C 0.12057 0.37704 0.59035 0.0
C447 C 0.1242 0.39607 0.60572 0.0
C448 C 0.12384 0.38579 0.54562 0.0
C449 C 0.15468 0.35887 0.56868 0.0
C450 C 0.09751 0.40647 0.68996 0.0
C451 C 0.08255 0.39245 0.70574 0.0
C452 C 0.0711 0.37102 0.69799 0.0
C453 C 0.0746 0.3637 0.67492 0.0
C454 C 0.08981 0.37788 0.65944 0.0
C455 C 0.1008 0.39895 0.66706 0.0
C456 C 0.11643 0.41176 0.64842 0.0
C457 C 0.11311 0.39481 0.62826 0.0
C458 C 0.09767 0.37494 0.63488 0.0
C459 C 0.10674 0.43786 0.64208 0.0
C460 C 0.14206 0.41172 0.6582 0.0
H461 H 0.11248 0.33752 0.54923 0.0
H462 H 0.05992 0.28834 0.60559 0.0
H463 H 0.10358 0.30555 0.63682 0.0
H464 H 0.09367 0.3245 0.65854 0.0
H465 H 0.07423 0.30052 0.6484 0.0
H466 H 0.04373 0.34434 0.60751 0.0
H467 H 0.04117 0.32221 0.63243 0.0
H468 H 0.04844 0.35429 0.63617 0.0
H469 H 0.17814 0.40522 0.54815 0.0
H470 H 0.17911 0.46338 0.59704 0.0
H471 H 0.14535 0.44464 0.61733 0.0
H472 H 0.1203 0.4058 0.54252 0.0
H473 H 0.13414 0.38018 0.53025 0.0
H474 H 0.10615 0.37659 0.54559 0.0
H475 H 0.16648 0.35853 0.58449 0.0
H476 H 0.14572 0.34058 0.56905 0.0
H477 H 0.16598 0.36097 0.5526 0.0
H478 H 0.09498 0.29879 0.53773 0.0
C479 C 0.10113 0.32741 0.56178 0.0
Co480 Co 0.99229 0.00368 0.49787 0.0
C481 C 0.00934 0.95604 0.49511 0.0
Co482 Co 0.02619 0.99695 0.51614 0.0
C483 C 0.94463 0.01925 0.48767 0.0
C484 C 0.9597 1.00016 0.4596 0.0
N485 N 0.96435 0.00788 0.48138 0.0
N486 N 0.92788 0.01904 0.47057 0.0
C487 C 0.93734 0.00697 0.45292 0.0
H488 H 0.94279 0.02787 0.50429 0.0
H489 H 0.97186 0.99024 0.44922 0.0
C490 C 0.00915 0.04463 0.51876 0.0
N491 N 0.05425 0.99288 0.53251 0.0
C492 C 0.07496 0.98455 0.52486 0.0
C493 C 0.05862 0.99938 0.55475 0.0
N494 N 0.09218 0.9857 0.54145 0.0
C495 C 0.08184 0.99502 0.56029 0.0
C496 C 0.03186 0.01483 0.46912 0.0
O497 O 0.99204 0.03685 0.50643 0.0
O498 O 0.0256 0.03008 0.52494 0.0
O499 O 0.0433 0.00786 0.4877 0.0
O500 O 0.00941 0.01422 0.46987 0.0
O501 O 0.02658 0.96371 0.50736 0.0
H502 H 0.04588 0.00744 0.56599 0.0
H503 H 0.07732 0.97802 0.50736 0.0
O504 O 0.99281 0.9706 0.48926 0.0
O505 O 0.97515 0.9931 0.52618 0.0
O506 O 0.00889 0.9862 0.54421 0.0
C507 C 0.9864 0.98596 0.54483 0.0
H508 H 0.92865 1.00307 0.43643 0.0
H509 H 0.09057 0.99927 0.57666 0.0
Co510 Co 0.49546 1.00003 0.98943 0.0
C511 C 0.49248 0.962 0.0251 0.0
Co512 Co 0.51656 0.00665 0.02135 0.0
C513 C 0.48304 0.99355 0.94046 0.0
C514 C 0.45373 0.98685 0.96408 0.0
N515 N 0.47684 0.9936 0.96351 0.0
N516 N 0.46468 0.98702 0.92664 0.0
C517 C 0.44621 0.98285 0.94149 0.0
H518 H 0.50072 0.99808 0.93401 0.0
H519 H 0.44314 0.98446 0.98001 0.0
C520 C 0.51946 0.04474 0.98568 0.0
N521 N 0.53507 0.01316 0.04732 0.0
C522 C 0.52859 0.01339 0.07027 0.0
C523 C 0.55805 0.02038 0.04691 0.0
N524 N 0.54661 0.02058 0.08422 0.0
C525 C 0.56519 0.02491 0.06952 0.0
C526 C 0.54125 0.98286 0.98681 0.0
O527 O 0.50564 0.03076 0.97447 0.0
O528 O 0.52614 0.03772 0.00648 0.0
O529 O 0.54275 0.99142 0.00721 0.0
O530 O 0.52172 0.98439 0.97565 0.0
O531 O 0.5069 0.97558 0.03606 0.0
H532 H 0.56875 0.0229 0.03107 0.0
H533 H 0.51089 0.00865 0.07653 0.0
O534 O 0.48534 0.96932 1.00455 0.0
O535 O 0.46943 0.01575 1.00337 0.0
O536 O 0.49017 0.02179 0.03532 0.0
C537 C 0.47078 0.0238 0.02399 0.0
H538 H 0.42869 0.97652 0.93653 0.0
H539 H 0.58248 0.03184 0.07453 0.0
Co540 Co 0.52515 0.51049 0.49824 0.0
C541 C 0.48702 0.51235 0.46712 0.0
Co542 Co 0.49175 0.49592 0.51436 0.0
C543 C 0.57524 0.5177 0.48992 0.0
C544 C 0.55467 0.54473 0.4705 0.0
N545 N 0.55276 0.52412 0.48509 0.0
N546 N 0.59108 0.53374 0.47924 0.0
C547 C 0.5782 0.55072 0.46692 0.0
H548 H 0.5799 0.50231 0.50203 0.0
H549 H 0.5399 0.55529 0.46367 0.0
C550 C 0.52985 0.4941 0.54552 0.0
N551 N 0.46411 0.48244 0.52763 0.0
C552 C 0.44165 0.48889 0.52272 0.0
C553 C 0.46217 0.46353 0.54428 0.0
N554 N 0.42587 0.47485 0.53574 0.0
C555 C 0.43867 0.45894 0.54942 0.0
C556 C 0.51856 0.46083 0.49346 0.0
O557 O 0.541 0.50401 0.52774 0.0
O558 O 0.50795 0.48898 0.54345 0.0
O559 O 0.49946 0.46454 0.50429 0.0
O560 O 0.53308 0.47878 0.48892 0.0
O561 O 0.47583 0.50308 0.48514 0.0
H562 H 0.47688 0.45354 0.55206 0.0
H563 H 0.43694 0.50375 0.51001 0.0
O564 O 0.5091 0.51682 0.46885 0.0
O565 O 0.51694 0.54212 0.50765 0.0
O566 O 0.48417 0.52735 0.52439 0.0
C567 C 0.49815 0.54554 0.51911 0.0
H568 H 0.58527 0.56662 0.45646 0.0
H569 H 0.43151 0.44472 0.56189 0.0
Co570 Co 0.0144 0.50301 0.99036 0.0
C571 C 0.96771 0.48503 0.99514 0.0
Co572 Co 0.99913 0.50527 0.02608 0.0
C573 C 0.04101 0.48898 0.94913 0.0
C574 C 0.01608 0.51722 0.94079 0.0
N575 N 0.02486 0.50304 0.95912 0.0
N576 N 0.04279 0.49432 0.92551 0.0
C577 C 0.02717 0.51209 0.9203 0.0
H578 H 0.05091 0.47479 0.95879 0.0
H579 H 1.00172 0.5298 0.94182 0.0
C580 C 0.04587 0.52321 0.02119 0.0
N581 N 0.98862 0.50537 0.05715 0.0
C582 C 0.97079 0.51781 0.06632 0.0
C583 C 0.99871 0.49327 0.07606 0.0
N584 N 0.96931 0.51364 0.0901 0.0
C585 C 0.9868 0.49816 0.09623 0.0
C586 C 0.02324 0.46114 0.01847 0.0
O587 O 0.04362 0.51724 0.99987 0.0
O588 O 0.02847 0.51975 0.03532 0.0
O589 O 0.01157 0.47304 0.03292 0.0
O590 O 0.02656 0.4707 0.99756 0.0
O591 O 0.96992 0.49074 0.01655 0.0
H592 H 0.01428 0.48222 0.07544 0.0
H593 H 0.95934 0.52995 0.05589 0.0
O594 O 0.98508 0.48881 0.98104 0.0
O595 O 1.00224 0.53533 0.98379 0.0
O596 O 0.98671 0.53756 0.01887 0.0
C597 C 0.9904 0.54723 0.99808 0.0
H598 H 0.02306 0.5198 0.90264 0.0
H599 H 0.99138 0.4918 0.11419 0.0
C600 C 0.12008 0.12718 0.29325 0.0
C601 C 0.12905 0.11281 0.27563 0.0
C602 C 0.11108 0.11612 0.31452 0.0
C603 C 0.10997 0.05803 0.35344 0.0
H604 H 0.0526 0.08489 0.37735 0.0
C605 C 0.06901 0.02642 0.44571 0.0
C606 C 0.04419 0.02435 0.44697 0.0
C607 C 0.08024 0.03644 0.42497 0.0
C608 C 0.06854 0.077 0.3709 0.0
H609 H 0.13589 0.07531 0.26706 0.0
H610 H 0.12016 0.05597 0.30421 0.0
H611 H 0.07048 0.10345 0.34118 0.0
H612 H 0.01182 0.03071 0.42702 0.0
H613 H 0.03126 0.04783 0.39113 0.0
H614 H 0.10767 0.03126 0.38309 0.0
C615 C 0.12029 0.07591 0.30159 0.0
C616 C 0.07899 0.08788 0.35023 0.0
C617 C 0.12933 0.08701 0.28024 0.0
C618 C 0.03096 0.03214 0.42684 0.0
C619 C 0.04213 0.04215 0.40622 0.0
C620 C 0.09952 0.04716 0.37423 0.0
C621 C 0.11075 0.0903 0.31891 0.0
C622 C 0.09985 0.07857 0.34115 0.0
C623 C 0.06692 0.0447 0.40502 0.0
C624 C 0.07856 0.05643 0.38318 0.0
H625 H 0.12006 0.14712 0.29064 0.0
H626 H 0.1044 0.12788 0.3276 0.0
H627 H 0.12612 0.05046 0.34712 0.0
H628 H 0.07978 0.02062 0.46085 0.0
H629 H 0.09935 0.03825 0.42478 0.0
C630 C 0.43128 0.93429 0.72336 0.0
C631 C 0.45053 0.92535 0.71113 0.0
C632 C 0.4342 0.94249 0.74608 0.0
C633 C 0.47852 0.96345 0.78905 0.0
H634 H 0.42936 0.94349 0.83451 0.0
C635 C 0.48551 0.97632 0.89036 0.0
C636 C 0.46485 0.98341 0.9016 0.0
C637 C 0.48498 0.9707 0.86654 0.0
C638 C 0.44311 0.94947 0.82197 0.0
H639 H 0.48812 0.9186 0.71305 0.0
H640 H 0.49313 0.93251 0.75314 0.0
H641 H 0.42632 0.93063 0.79419 0.0
H642 H 0.42787 0.99167 0.89625 0.0
H643 H 0.42693 0.9819 0.85482 0.0
H644 H 0.49535 0.98215 0.81715 0.0
C645 C 0.47581 0.93337 0.74493 0.0
C646 C 0.44137 0.9421 0.79885 0.0
C647 C 0.4729 0.92517 0.72209 0.0
C648 C 0.44393 0.98572 0.88827 0.0
C649 C 0.4434 0.98013 0.86453 0.0
C650 C 0.48029 0.9708 0.81231 0.0
C651 C 0.4564 0.94182 0.75728 0.0
C652 C 0.45891 0.9492 0.78204 0.0
C653 C 0.46378 0.97207 0.85353 0.0
C654 C 0.46245 0.96408 0.82893 0.0
H655 H 0.41373 0.93439 0.71564 0.0
H656 H 0.41895 0.94923 0.75496 0.0
H657 H 0.49225 0.96934 0.77646 0.0
H658 H 0.50186 0.97417 0.90019 0.0
H659 H 0.50093 0.96441 0.85857 0.0
C660 C 0.6287 0.40397 0.72225 0.0
C661 C 0.6357 0.42012 0.73958 0.0
C662 C 0.61831 0.41298 0.70109 0.0
C663 C 0.60959 0.46977 0.66233 0.0
H664 H 0.55643 0.43172 0.63905 0.0
C665 C 0.56696 0.49086 0.56992 0.0
C666 C 0.54227 0.48785 0.56815 0.0
C667 C 0.57869 0.48377 0.59102 0.0
C668 C 0.57109 0.44272 0.64539 0.0
H669 H 0.63768 0.45846 0.74812 0.0
H670 H 0.61929 0.47425 0.71116 0.0
H671 H 0.57635 0.41735 0.67533 0.0
H672 H 0.51048 0.47567 0.58738 0.0
H673 H 0.53086 0.46372 0.62418 0.0
H674 H 0.6039 0.49544 0.63257 0.0
C675 C 0.62211 0.45462 0.71383 0.0
C676 C 0.58275 0.43428 0.66605 0.0
C677 C 0.63263 0.44558 0.73502 0.0
C678 C 0.52954 0.47809 0.58808 0.0
C679 C 0.54125 0.47109 0.60915 0.0
C680 C 0.59788 0.47824 0.64163 0.0
C681 C 0.61455 0.43837 0.69674 0.0
C682 C 0.60219 0.44763 0.67476 0.0
C683 C 0.56599 0.47355 0.61082 0.0
C684 C 0.57847 0.46481 0.63291 0.0
H685 H 0.63125 0.38429 0.72504 0.0
H686 H 0.6132 0.39999 0.6881 0.0
H687 H 0.6246 0.48041 0.66845 0.0
H688 H 0.57729 0.49828 0.55488 0.0
H689 H 0.59778 0.48569 0.5916 0.0
C690 C 0.91906 0.62244 0.26096 0.0
C691 C 0.91844 0.60434 0.27995 0.0
C692 C 0.91881 0.6156 0.23751 0.0
C693 C 0.90477 0.56287 0.20094 0.0
H694 H 0.95249 0.59265 0.15827 0.0
C695 C 0.94694 0.51232 0.1273 0.0
C696 C 0.95456 0.52541 0.10638 0.0
C697 C 0.93623 0.52449 0.14521 0.0
C698 C 0.93865 0.58453 0.1697 0.0
H699 H 0.91746 0.56491 0.28914 0.0
H700 H 0.91697 0.55305 0.2484 0.0
H701 H 0.94629 0.60963 0.19658 0.0
H702 H 0.95578 0.56118 0.08708 0.0
H703 H 0.937 0.58272 0.1186 0.0
H704 H 0.89785 0.53711 0.17448 0.0
C705 C 0.91716 0.57251 0.25158 0.0
C706 C 0.93515 0.59423 0.1917 0.0
C707 C 0.9175 0.57932 0.27496 0.0
C708 C 0.94994 0.55069 0.10303 0.0
C709 C 0.9394 0.56299 0.12111 0.0
C710 C 0.90826 0.55318 0.17897 0.0
C711 C 0.91783 0.59055 0.23259 0.0
C712 C 0.91876 0.58294 0.20788 0.0
C713 C 0.93305 0.55011 0.14265 0.0
C714 C 0.92583 0.56337 0.16348 0.0
H715 H 0.91946 0.64188 0.26422 0.0
H716 H 0.91923 0.6299 0.22322 0.0
H717 H 0.89164 0.55412 0.21285 0.0
H718 H 0.95016 0.49278 0.13016 0.0
H719 H 0.93177 0.51405 0.16165 0.0
C720 C 0.30101 0.12472 0.11182 0.0
C721 C 0.28406 0.10803 0.12233 0.0
C722 C 0.32124 0.11619 0.10098 0.0
C723 C 0.34516 0.0608 0.07494 0.0
H724 H 0.40591 0.09387 0.08331 0.0
C725 C 0.42812 0.03583 0.02257 0.0
C726 C 0.4498 0.03469 0.03482 0.0
C727 C 0.40812 0.04532 0.03297 0.0
C728 C 0.38912 0.08431 0.08089 0.0
H729 H 0.2751 0.06913 0.12914 0.0
H730 H 0.31036 0.05433 0.11058 0.0
H731 H 0.37078 0.10904 0.10205 0.0
H732 H 0.46736 0.04288 0.06769 0.0
H733 H 0.43249 0.05932 0.08585 0.0
H734 H 0.36351 0.03582 0.05414 0.0
C735 C 0.308 0.07406 0.11059 0.0
C736 C 0.36889 0.09319 0.09143 0.0
C737 C 0.28785 0.08257 0.1215 0.0
C738 C 0.451 0.04353 0.05768 0.0
C739 C 0.43099 0.05309 0.06807 0.0
C740 C 0.36536 0.05198 0.06433 0.0
C741 C 0.32503 0.09072 0.1002 0.0
C742 C 0.34662 0.08152 0.08867 0.0
C743 C 0.40921 0.05398 0.05591 0.0
C744 C 0.38766 0.06357 0.06717 0.0
H745 H 0.29884 0.14444 0.11227 0.0
H746 H 0.33382 0.1296 0.09297 0.0
H747 H 0.32833 0.05145 0.07218 0.0
H748 H 0.42649 0.02925 1.00493 0.0
H749 H 0.3918 0.04601 0.0229 0.0
C750 C 0.30632 0.96398 0.5434 0.0
C751 C 0.31219 0.93908 0.54766 0.0
C752 C 0.28317 0.97036 0.53752 0.0
C753 C 0.22471 0.94614 0.51852 0.0
H754 H 0.20048 0.99413 0.55958 0.0
C755 C 0.12748 0.97937 0.5168 0.0
C756 C 0.11678 0.97984 0.53923 0.0
C757 C 0.15164 0.97501 0.51487 0.0
C758 C 0.20702 0.98074 0.54796 0.0
H759 H 0.29852 0.90133 0.54781 0.0
H760 H 0.25828 0.91248 0.53732 0.0
H761 H 0.24262 0.986 0.55972 0.0
H762 H 0.12311 0.97493 0.57715 0.0
H763 H 0.16513 0.96785 0.57373 0.0
H764 H 0.18881 0.9405 0.50729 0.0
C765 C 0.27161 0.92706 0.5384 0.0
C766 C 0.23117 0.97629 0.54782 0.0
C767 C 0.29472 0.92068 0.54439 0.0
C768 C 0.13075 0.97531 0.55961 0.0
C769 C 0.15486 0.97119 0.55767 0.0
C770 C 0.2005 0.95079 0.51849 0.0
C771 C 0.26544 0.95197 0.53565 0.0
C772 C 0.24024 0.95862 0.53343 0.0
C773 C 0.1656 0.97127 0.53531 0.0
C774 C 0.19139 0.96776 0.53361 0.0
H775 H 0.31947 0.97858 0.54532 0.0
H776 H 0.27898 0.98971 0.53513 0.0
H777 H 0.23125 0.9325 0.50717 0.0
H778 H 0.1174 0.98301 0.5007 0.0
H779 H 0.15953 0.97523 0.49741 0.0
C780 C 0.7767 0.4234 0.90919 0.0
C781 C 0.77282 0.39769 0.90938 0.0
C782 C 0.79724 0.43327 0.91918 0.0
C783 C 0.84519 0.41807 0.96179 0.0
H784 H 0.87899 0.47245 0.92793 0.0
C785 C 0.92581 0.46947 1.00163 0.0
C786 C 0.94507 0.47475 0.9863 0.0
C787 C 0.90434 0.46032 0.9929 0.0
C788 C 0.86979 0.45721 0.93757 0.0
H789 H 0.78784 0.36225 0.91986 0.0
H790 H 0.82349 0.37949 0.93741 0.0
H791 H 0.84247 0.45593 0.91133 0.0
H792 H 0.95687 0.47437 0.9498 0.0
H793 H 0.91958 0.4584 0.93471 0.0
H794 H 0.87276 0.41912 0.98784 0.0
C795 C 0.81047 0.392 0.92984 0.0
C796 C 0.84874 0.44791 0.92817 0.0
C797 C 0.79001 0.38213 0.91978 0.0
C798 C 0.9424 0.47055 0.96212 0.0
C799 C 0.92096 0.46155 0.95341 0.0
C800 C 0.86618 0.42748 0.97126 0.0
C801 C 0.81433 0.41768 0.92966 0.0
C802 C 0.83629 0.42811 0.94008 0.0
C803 C 0.90164 0.45641 0.96865 0.0
C804 C 0.87883 0.44701 0.95915 0.0
H805 H 0.76369 0.43593 0.90166 0.0
H806 H 0.79957 0.45315 0.91899 0.0
H807 H 0.83587 0.40297 0.97152 0.0
H808 H 0.92727 0.47253 0.02034 0.0
H809 H 0.88972 0.45669 1.00506 0.0
C810 C 0.80569 0.53833 0.46672 0.0
C811 C 0.81285 0.56334 0.4642 0.0
C812 C 0.78304 0.53151 0.475 0.0
C813 C 0.72858 0.55595 0.50148 0.0
H814 H 0.69658 0.5094 0.4622 0.0
C815 C 0.629 0.55672 0.48232 0.0
C816 C 0.61634 0.53413 0.48226 0.0
C817 C 0.65351 0.55726 0.48505 0.0
C818 C 0.70533 0.52208 0.47363 0.0
H819 H 0.80235 0.6007 0.46946 0.0
H820 H 0.76292 0.58896 0.48353 0.0
H821 H 0.73924 0.51554 0.45918 0.0
H822 H 0.61935 0.49437 0.48521 0.0
H823 H 0.66251 0.49528 0.4896 0.0
H824 H 0.69431 0.5634 0.5149 0.0
C825 C 0.7748 0.57447 0.4796 0.0
C826 C 0.72983 0.52557 0.47199 0.0
C827 C 0.79747 0.58125 0.47149 0.0
C828 C 0.62869 0.51202 0.48526 0.0
C829 C 0.65333 0.51255 0.48768 0.0
C830 C 0.70405 0.55261 0.50294 0.0
C831 C 0.76703 0.54959 0.48075 0.0
C832 C 0.74169 0.54304 0.48542 0.0
C833 C 0.66596 0.5352 0.48754 0.0
C834 C 0.69213 0.53612 0.48858 0.0
H835 H 0.81732 0.52411 0.46151 0.0
H836 H 0.77781 0.51214 0.47614 0.0
H837 H 0.73719 0.56917 0.51244 0.0
H838 H 0.61991 0.57404 0.4804 0.0
H839 H 0.66281 0.57499 0.4846 0.0
C840 C 0.11832 0.28121 0.11845 0.0
C841 C 0.12952 0.26488 0.10398 0.0
C842 C 0.10653 0.30178 0.1085 0.0
C843 C 0.08129 0.32881 0.0514 0.0
H844 H 0.08317 0.38895 0.08485 0.0
C845 C 0.04716 0.42357 0.01138 0.0
C846 C 0.03399 0.43731 0.02673 0.0
C847 C 0.05844 0.402 0.01994 0.0
C848 C 0.0823 0.37225 0.07535 0.0
H849 H 0.13646 0.25754 0.06736 0.0
H850 H 0.11683 0.29379 0.05015 0.0
H851 H 0.10364 0.35289 0.10132 0.0
H852 H 0.02205 0.43863 0.0631 0.0
H853 H 0.04172 0.40142 0.07786 0.0
H854 H 0.06025 0.34862 0.02519 0.0
C855 C 0.11679 0.29049 0.06925 0.0
C856 C 0.094 0.35144 0.08486 0.0
C857 C 0.12843 0.26979 0.0792 0.0
C858 C 0.03208 0.42868 0.05071 0.0
C859 C 0.04351 0.40736 0.05926 0.0
C860 C 0.06977 0.34977 0.04176 0.0
C861 C 0.1057 0.30689 0.08373 0.0
C862 C 0.09353 0.32928 0.07318 0.0
C863 C 0.05704 0.39384 0.04409 0.0
C864 C 0.06995 0.37169 0.05373 0.0
H865 H 0.11893 0.27837 0.13758 0.0
H866 H 0.09792 0.31362 0.12033 0.0
H867 H 0.08018 0.3121 0.04196 0.0
H868 H 0.04904 0.42966 0.99283 0.0
H869 H 0.0688 0.39207 0.00778 0.0
C870 C 0.59704 0.23193 0.87567 0.0
C871 C 0.6069 0.24984 0.88996 0.0
C872 C 0.58681 0.21009 0.88588 0.0
C873 C 0.56275 0.18183 0.94274 0.0
H874 H 0.57116 0.12061 0.91238 0.0
C875 C 0.54029 0.08571 0.98827 0.0
C876 C 0.52808 0.06873 0.97462 0.0
C877 C 0.54898 0.10814 0.97781 0.0
C878 C 0.56847 0.13761 0.92092 0.0
H879 H 0.61351 0.25875 0.92634 0.0
H880 H 0.59654 0.22028 0.94409 0.0
H881 H 0.58858 0.15894 0.8946 0.0
H882 H 0.51535 0.06199 0.93929 0.0
H883 H 0.53076 0.10116 0.92097 0.0
H884 H 0.54308 0.16023 0.96937 0.0
C885 C 0.59628 0.22332 0.92496 0.0
C886 C 0.5784 0.15961 0.91072 0.0
C887 C 0.60635 0.24527 0.91475 0.0
C888 C 0.52466 0.0747 0.95029 0.0
C889 C 0.53358 0.09704 0.93977 0.0
C890 C 0.55301 0.15978 0.95305 0.0
C891 C 0.58635 0.20545 0.91065 0.0
C892 C 0.57568 0.18202 0.92149 0.0
C893 C 0.54586 0.11397 0.95343 0.0
C894 C 0.55578 0.13745 0.94225 0.0
H895 H 0.59742 0.23462 0.85652 0.0
H896 H 0.57908 0.19693 0.87429 0.0
H897 H 0.55991 0.19877 0.95132 0.0
H898 H 0.54322 0.08167 0.00706 0.0
H899 H 0.55856 0.12073 0.98872 0.0
C900 C 0.95517 0.7529 0.43054 0.0
C901 C 0.95907 0.73242 0.44642 0.0
C902 C 0.96287 0.77646 0.43601 0.0
C903 C 1.00431 0.8115 0.47117 0.0
H904 H 0.95662 0.86153 0.4654 0.0
C905 C 0.01898 0.91126 0.50163 0.0
C906 C 0.00765 0.93027 0.48832 0.0
C907 C 0.01491 0.88658 0.49656 0.0
C908 C 0.97031 0.84795 0.46675 0.0
H909 H 0.97475 0.72038 0.48012 0.0
H910 H 0.98852 0.76187 0.48963 0.0
H911 H 0.94639 0.81943 0.45641 0.0
H912 H 0.98454 0.93866 0.45835 0.0
H913 H 0.97824 0.896 0.44891 0.0
H914 H 0.02842 0.84023 0.48101 0.0
C915 C 0.97942 0.75953 0.47299 0.0
C916 C 0.96437 0.82378 0.46172 0.0
C917 C 0.97142 0.73589 0.46764 0.0
C918 C 0.99322 0.92434 0.46915 0.0
C919 C 0.98947 0.89984 0.46386 0.0
C920 C 0.01039 0.83587 0.47595 0.0
C921 C 0.97482 0.78005 0.45738 0.0
C922 C 0.98132 0.80538 0.46367 0.0
C923 C 0.99968 0.88057 0.4779 0.0
C924 C 0.99348 0.85445 0.47353 0.0
H925 H 0.9455 0.75083 0.41417 0.0
H926 H 0.95927 0.79198 0.42361 0.0
H927 H 0.0177 0.79759 0.47274 0.0
H928 H 0.03015 0.91536 0.51656 0.0
H929 H 0.02299 0.87223 0.5078 0.0
C930 C 0.4558 0.76105 0.54583 0.0
C931 C 0.44513 0.76624 0.56727 0.0
C932 C 0.46259 0.73708 0.54206 0.0
C933 C 0.44756 0.67315 0.55742 0.0
H934 H 0.51133 0.65971 0.53795 0.0
C935 C 0.47655 0.57383 0.54422 0.0
C936 C 0.49261 0.57052 0.52589 0.0
C937 C 0.47144 0.59756 0.5506 0.0
C938 C 0.49333 0.66313 0.54301 0.0
H939 H 0.43301 0.75071 0.60152 0.0
H940 H 0.44438 0.70848 0.59465 0.0
H941 H 0.5011 0.70166 0.54614 0.0
H942 H 0.51563 0.58934 0.49958 0.0
H943 H 0.50598 0.63064 0.50987 0.0
H944 H 0.43931 0.63506 0.55332 0.0
C945 C 0.44771 0.72304 0.58094 0.0
C946 C 0.48758 0.68714 0.54785 0.0
C947 C 0.44135 0.74712 0.5849 0.0
C948 C 0.50334 0.59134 0.51394 0.0
C949 C 0.49791 0.61505 0.52 0.0
C950 C 0.45317 0.64921 0.55214 0.0
C951 C 0.45838 0.71785 0.5595 0.0
C952 C 0.46465 0.69234 0.55504 0.0
C953 C 0.48196 0.61852 0.53848 0.0
C954 C 0.47612 0.64388 0.54478 0.0
H955 H 0.45892 0.77556 0.53203 0.0
H956 H 0.47069 0.73343 0.52534 0.0
H957 H 0.42968 0.67682 0.56274 0.0
H958 H 0.46815 0.55808 0.55386 0.0
H959 H 0.45941 0.59941 0.5652 0.0
C960 C 0.86544 0.91158 0.71868 0.0
C961 C 0.87864 0.90389 0.73889 0.0
C962 C 0.87673 0.92074 0.69773 0.0
C963 C 0.93418 0.94755 0.67482 0.0
H964 H 0.90934 0.93039 0.61382 0.0
C965 C 0.98629 0.9695 0.58752 0.0
C966 C 0.97363 0.97721 0.56698 0.0
C967 C 0.97444 0.96101 0.60833 0.0
C968 C 0.91638 0.93564 0.63067 0.0
H969 H 0.91429 0.90018 0.75268 0.0
H970 H 0.9339 0.91562 0.71615 0.0
H971 H 0.88938 0.91471 0.65013 0.0
H972 H 0.93842 0.98206 0.55243 0.0
H973 H 0.91776 0.96743 0.58877 0.0
H974 H 0.96122 0.96842 0.65538 0.0
C975 C 0.91476 0.91483 0.71654 0.0
C976 C 0.9049 0.92662 0.65157 0.0
C977 C 0.90348 0.90565 0.73748 0.0
C978 C 0.94877 0.97623 0.56786 0.0
C979 C 0.9369 0.96768 0.5887 0.0
C980 C 0.94566 0.95655 0.65394 0.0
C981 C 0.90157 0.92253 0.69634 0.0
C982 C 0.91366 0.93237 0.67397 0.0
C983 C 0.94956 0.95993 0.60926 0.0
C984 C 0.93699 0.95067 0.63154 0.0
H985 H 0.84632 0.91028 0.71892 0.0
H986 H 0.86592 0.92669 0.68268 0.0
H987 H 0.94126 0.9528 0.69165 0.0
H988 H 1.00544 0.96991 0.58753 0.0
H989 H 0.98484 0.95489 0.62362 0.0
C990 C 0.57746 0.07553 0.28641 0.0
C991 C 0.55801 0.08176 0.30002 0.0
C992 C 0.57433 0.06833 0.26338 0.0
C993 C 0.5305 0.0447 0.22147 0.0
H994 H 0.577 0.06983 0.17508 0.0
C995 C 0.52463 0.03077 0.12005 0.0
C996 C 0.5459 0.02488 0.10912 0.0
C997 C 0.52448 0.03692 0.14372 0.0
C998 C 0.56399 0.0625 0.18787 0.0
H999 H 0.51989 0.085 0.30008 0.0
H1000 H 0.51443 0.07279 0.25938 0.0
H1001 H 0.57938 0.08274 0.21544 0.0
H1002 H 0.58335 0.01944 0.11499 0.0
H1003 H 0.5831 0.03038 0.15606 0.0
H1004 H 0.51509 0.02453 0.19355 0.0
C1005 C 0.5321 0.07325 0.2668 0.0
C1006 C 0.56535 0.06988 0.21101 0.0
C1007 C 0.53525 0.08045 0.29001 0.0
C1008 C 0.56679 0.02443 0.12265 0.0
C1009 C 0.56664 0.03067 0.1462 0.0
C1010 C 0.52907 0.03738 0.19817 0.0
C1011 C 0.55168 0.06739 0.25316 0.0
C1012 C 0.5489 0.06073 0.2282 0.0
C1013 C 0.54559 0.03742 0.15686 0.0
C1014 C 0.54607 0.0459 0.18127 0.0
H1015 H 0.5953 0.07674 0.29333 0.0
H1016 H 0.58975 0.06355 0.25352 0.0
H1017 H 0.51764 0.03725 0.23434 0.0
H1018 H 0.50825 0.03151 0.11012 0.0
H1019 H 0.50801 0.04216 0.15147 0.0
C1020 C 0.38619 0.56098 0.2768 0.0
C1021 C 0.381 0.58615 0.27365 0.0
C1022 C 0.39672 0.55157 0.2978 0.0
C1023 C 0.40599 0.56401 0.36052 0.0
H1024 H 0.45991 0.5218 0.35663 0.0
C1025 C 0.44954 0.51676 0.44363 0.0
C1026 C 0.47436 0.51855 0.44463 0.0
C1027 C 0.43751 0.52364 0.42268 0.0
C1028 C 0.4449 0.53359 0.35798 0.0
H1029 H 0.38219 0.62106 0.29025 0.0
H1030 H 0.40055 0.60464 0.32692 0.0
H1031 H 0.43972 0.53661 0.32032 0.0
H1032 H 0.50602 0.52855 0.42428 0.0
H1033 H 0.48498 0.54043 0.38768 0.0
H1034 H 0.41134 0.56127 0.39813 0.0
C1035 C 0.39648 0.59218 0.31316 0.0
C1036 C 0.43321 0.54188 0.33723 0.0
C1037 C 0.38617 0.60162 0.2921 0.0
C1038 C 0.4869 0.52694 0.4241 0.0
C1039 C 0.47486 0.53363 0.4031 0.0
C1040 C 0.41754 0.55554 0.38127 0.0
C1041 C 0.40204 0.5671 0.31618 0.0
C1042 C 0.41377 0.55736 0.33827 0.0
C1043 C 0.45003 0.53226 0.40222 0.0
C1044 C 0.43723 0.54041 0.38022 0.0
H1045 H 0.38256 0.54866 0.26281 0.0
H1046 H 0.40065 0.53212 0.2997 0.0
H1047 H 0.39094 0.57575 0.36189 0.0
H1048 H 0.43935 0.51035 0.45912 0.0
H1049 H 0.41838 0.52216 0.42247 0.0
C1050 C 0.07693 0.4256 0.73375 0.0
C1051 C 0.07897 0.40041 0.73007 0.0
C1052 C 0.07468 0.43349 0.75657 0.0
C1053 C 0.0846 0.41512 0.81986 0.0
H1054 H 0.04371 0.47008 0.82821 0.0
C1055 C 0.05495 0.45562 0.90902 0.0
C1056 C 0.05526 0.48156 0.90816 0.0
C1057 C 0.06127 0.4434 0.88897 0.0
C1058 C 0.05532 0.45481 0.8261 0.0
H1059 H 0.08007 0.36369 0.74755 0.0
H1060 H 0.07532 0.37751 0.7876 0.0
H1061 H 0.04561 0.45261 0.7898 0.0
H1062 H 0.06487 0.51494 0.88707 0.0
H1063 H 0.07599 0.49373 0.85217 0.0
H1064 H 0.09378 0.41731 0.85668 0.0
C1065 C 0.07591 0.39114 0.77274 0.0
C1066 C 0.05646 0.44483 0.80409 0.0
C1067 C 0.07831 0.38322 0.7498 0.0
C1068 C 0.06422 0.49495 0.88796 0.0
C1069 C 0.0705 0.48284 0.86805 0.0
C1070 C 0.08323 0.425 0.84212 0.0
C1071 C 0.07409 0.4164 0.77635 0.0
C1072 C 0.0715 0.42525 0.80051 0.0
C1073 C 0.06794 0.45708 0.86798 0.0
C1074 C 0.06896 0.4453 0.84518 0.0
H1075 H 0.07707 0.43932 0.71895 0.0
H1076 H 0.0737 0.45312 0.75869 0.0
H1077 H 0.09643 0.40008 0.81765 0.0
H1078 H 0.04797 0.44495 0.92441 0.0
H1079 H 0.05919 0.4235 0.88928 0.0
C1080 C 0.70995 0.87286 0.9096 0.0
C1081 C 0.72756 0.88787 0.8979 0.0
C1082 C 0.68956 0.88311 0.91842 0.0
C1083 C 0.65196 0.93804 0.91293 0.0
H1084 H 0.63066 0.91491 0.97585 0.0
C1085 C 0.562 0.96547 0.95235 0.0
C1086 C 0.56216 0.97164 0.97617 0.0
C1087 C 0.58195 0.95541 0.94232 0.0
C1088 C 0.63639 0.92167 0.95829 0.0
H1089 H 0.73699 0.9257 0.88617 0.0
H1090 H 0.70122 0.94345 0.90121 0.0
H1091 H 0.66574 0.89747 0.95915 0.0
H1092 H 0.58358 0.97191 0.00808 0.0
H1093 H 0.61815 0.95422 0.9907 0.0
H1094 H 0.6226 0.96234 0.91218 0.0
C1095 C 0.70326 0.92367 0.90348 0.0
C1096 C 0.65641 0.91149 0.94861 0.0
C1097 C 0.7238 0.91343 0.89479 0.0
C1098 C 0.58274 0.96734 0.98971 0.0
C1099 C 0.60258 0.95707 0.97976 0.0
C1100 C 0.63176 0.94806 0.92254 0.0
C1101 C 0.68599 0.90866 0.91565 0.0
C1102 C 0.66452 0.91956 0.92582 0.0
C1103 C 0.6025 0.95101 0.95592 0.0
C1104 C 0.62376 0.94008 0.9454 0.0
H1105 H 0.7118 0.85306 0.91187 0.0
H1106 H 0.67645 0.87091 0.92729 0.0
H1107 H 0.65758 0.94458 0.89528 0.0
H1108 H 0.54649 0.96857 0.94136 0.0
H1109 H 0.58118 0.95076 0.92397 0.0
C1110 C 0.7291 0.07343 0.42849 0.0
C1111 C 0.71235 0.07679 0.44619 0.0
C1112 C 0.75283 0.07042 0.43435 0.0
C1113 C 0.79249 0.04921 0.48136 0.0
H1114 H 0.83982 0.08549 0.44262 0.0
C1115 C 0.89274 0.03186 0.49223 0.0
C1116 C 0.90477 0.02952 0.47079 0.0
C1117 C 0.86981 0.04093 0.49215 0.0
C1118 C 0.82684 0.07517 0.45356 0.0
H1119 H 0.70715 0.07943 0.48391 0.0
H1120 H 0.74895 0.07364 0.4943 0.0
H1121 H 0.79816 0.09473 0.43709 0.0
H1122 H 0.90253 0.03581 0.43256 0.0
H1123 H 0.86261 0.05097 0.43234 0.0
H1124 H 0.82108 0.02886 0.49711 0.0
C1125 C 0.74357 0.0735 0.47589 0.0
C1126 C 0.80302 0.08051 0.45044 0.0
C1127 C 0.71976 0.07686 0.46996 0.0
C1128 C 0.89365 0.03701 0.44936 0.0
C1129 C 0.87084 0.04607 0.44927 0.0
C1130 C 0.81637 0.04371 0.48439 0.0
C1131 C 0.76032 0.07051 0.45806 0.0
C1132 C 0.78559 0.06712 0.46384 0.0
C1133 C 0.85856 0.04797 0.47062 0.0
C1134 C 0.83373 0.05616 0.47001 0.0
H1135 H 0.72394 0.07364 0.40999 0.0
H1136 H 0.76533 0.06785 0.4203 0.0
H1137 H 0.77935 0.03858 0.49186 0.0
H1138 H 0.90078 0.02611 0.50903 0.0
H1139 H 0.86085 0.04233 0.5089 0.0
C1140 C 0.24265 0.60158 0.07889 0.0
C1141 C 0.24495 0.60437 0.10336 0.0
C1142 C 0.22156 0.59226 0.06954 0.0
C1143 C 0.16644 0.55711 0.08671 0.0
H1144 H 0.14255 0.58678 0.02738 0.0
C1145 C 0.07164 0.53759 0.05395 0.0
C1146 C 0.06868 0.53326 0.02983 0.0
C1147 C 0.09338 0.54611 0.06243 0.0
C1148 C 0.14911 0.57813 0.04384 0.0
H1149 H 0.22684 0.59977 0.13717 0.0
H1150 H 0.19004 0.58373 0.1209 0.0
H1151 H 0.18014 0.60158 0.04316 0.0
H1152 H 0.08621 0.53482 0.99566 0.0
H1153 H 0.12421 0.54977 0.01052 0.0
H1154 H 0.13526 0.53387 0.08751 0.0
C1155 C 0.20465 0.58827 0.10894 0.0
C1156 C 0.17069 0.58657 0.05287 0.0
C1157 C 0.22576 0.59748 0.11829 0.0
C1158 C 0.08789 0.53799 0.01433 0.0
C1159 C 0.10963 0.54665 0.02282 0.0
C1160 C 0.14484 0.54875 0.07773 0.0
C1161 C 0.20225 0.58561 0.08444 0.0
C1162 C 0.17958 0.57623 0.07449 0.0
C1163 C 0.11267 0.55062 0.04701 0.0
C1164 C 0.13587 0.55924 0.05625 0.0
H1165 H 0.25723 0.60641 0.06697 0.0
H1166 H 0.22047 0.59008 0.05065 0.0
H1167 H 0.17294 0.5484 0.10317 0.0
H1168 H 0.05722 0.53417 0.06639 0.0
H1169 H 0.09505 0.54932 0.0811 0.0
C1170 C 0.21133 0.44556 0.53863 0.0
C1171 C 0.20551 0.44425 0.56287 0.0
C1172 C 0.23403 0.45354 0.53111 0.0
C1173 C 0.28796 0.4863 0.55225 0.0
H1174 H 0.32169 0.44731 0.50891 0.0
C1175 C 0.38757 0.47277 0.5562 0.0
C1176 C 0.40057 0.47623 0.53512 0.0
C1177 C 0.36295 0.47328 0.55571 0.0
C1178 C 0.31233 0.45864 0.52068 0.0
H1179 H 0.21921 0.44934 0.59821 0.0
H1180 H 0.2583 0.46303 0.58526 0.0
H1181 H 0.27915 0.44004 0.51482 0.0
H1182 H 0.39826 0.48282 0.49698 0.0
H1183 H 0.35478 0.48298 0.49602 0.0
H1184 H 0.32142 0.50373 0.55927 0.0
C1185 C 0.24531 0.45876 0.5719 0.0
C1186 C 0.28801 0.45454 0.52403 0.0
C1187 C 0.22283 0.45086 0.57935 0.0
C1188 C 0.38854 0.4803 0.51347 0.0
C1189 C 0.36379 0.48028 0.5129 0.0
C1190 C 0.31224 0.49015 0.54913 0.0
C1191 C 0.25123 0.4603 0.54772 0.0
C1192 C 0.27576 0.46771 0.54054 0.0
C1193 C 0.35085 0.4768 0.53406 0.0
C1194 C 0.32474 0.47581 0.53392 0.0
H1195 H 0.19834 0.44057 0.52553 0.0
H1196 H 0.23809 0.45451 0.51235 0.0
H1197 H 0.27892 0.49719 0.56464 0.0
H1198 H 0.3965 0.46975 0.57309 0.0
H1199 H 0.35332 0.47032 0.57223 0.0
C1200 C 0.89095 0.73971 0.92683 0.0
C1201 C 0.89284 0.74323 0.90195 0.0
C1202 C 0.90121 0.71936 0.93917 0.0
C1203 C 0.94912 0.67552 0.93404 0.0
H1204 H 0.91508 0.63347 0.98115 0.0
C1205 C 0.98432 0.58086 0.96631 0.0
C1206 C 0.98028 0.57136 0.98974 0.0
C1207 C 0.97397 0.60269 0.95754 0.0
C1208 C 0.92504 0.64523 0.96836 0.0
H1209 H 0.90623 0.72698 0.87067 0.0
H1210 H 0.92459 0.69226 0.89218 0.0
H1211 H 0.89608 0.66975 0.96239 0.0
H1212 H 0.96232 0.57788 0.02249 0.0
H1213 H 0.94466 0.61654 0.00734 0.0
H1214 H 0.97818 0.65156 0.94004 0.0
C1215 C 0.91538 0.70542 0.90216 0.0
C1216 C 0.91407 0.666 0.95754 0.0
C1217 C 0.90491 0.72549 0.88983 0.0
C1218 C 0.96584 0.58464 1.00435 0.0
C1219 C 0.95555 0.60673 0.99557 0.0
C1220 C 0.96017 0.65503 0.94502 0.0
C1221 C 0.91385 0.70218 0.92699 0.0
C1222 C 0.92584 0.6811 0.9399 0.0
C1223 C 0.95941 0.61603 0.97196 0.0
C1224 C 0.94816 0.63921 0.96198 0.0
H1225 H 0.88205 0.75299 0.93691 0.0
H1226 H 0.8998 0.71744 0.95832 0.0
H1227 H 0.95887 0.68705 0.92087 0.0
H1228 H 0.99528 0.57125 0.95445 0.0
H1229 H 0.97706 0.60877 0.93916 0.0
C1230 C 0.41469 0.7576 0.09996 0.0
C1231 C 0.40609 0.75709 0.12324 0.0
C1232 C 0.42505 0.77921 0.08935 0.0
C1233 C 0.45004 0.84095 0.10371 0.0
H1234 H 0.44197 0.8554 0.03615 0.0
C1235 C 0.49581 0.92615 0.05508 0.0
C1236 C 0.48359 0.93817 0.0362 0.0
C1237 C 0.48725 0.90357 0.06543 0.0
C1238 C 0.44419 0.85188 0.0551 0.0
H1239 H 0.40103 0.77872 0.15359 0.0
H1240 H 0.41807 0.81677 0.13486 0.0
H1241 H 0.42455 0.8178 0.05476 0.0
H1242 H 0.45261 0.9363 0.01363 0.0
H1243 H 0.43712 0.89768 0.03225 0.0
H1244 H 0.46848 0.87574 0.10427 0.0
C1245 C 0.41772 0.80036 0.12495 0.0
C1246 C 0.43451 0.82998 0.06576 0.0
C1247 C 0.40778 0.77861 0.13568 0.0
C1248 C 0.46256 0.92732 0.028 0.0
C1249 C 0.45377 0.90502 0.03861 0.0
C1250 C 0.45937 0.86306 0.09312 0.0
C1251 C 0.42662 0.80096 0.10166 0.0
C1252 C 0.43726 0.82419 0.09023 0.0
C1253 C 0.46603 0.89273 0.05741 0.0
C1254 C 0.45654 0.86889 0.06866 0.0
H1255 H 0.41377 0.74112 0.09011 0.0
H1256 H 0.43208 0.77871 0.0716 0.0
H1257 H 0.45295 0.83702 0.12251 0.0
H1258 H 0.51216 0.93402 0.06166 0.0
H1259 H 0.49744 0.89452 0.07955 0.0
C1260 C 0.05506 0.26342 0.54288 0.0
C1261 C 0.06672 0.26618 0.56457 0.0
C1262 C 0.04533 0.24044 0.53758 0.0
C1263 C 0.02776 0.17897 0.56645 0.0
H1264 H 0.03258 0.15705 0.50271 0.0
C1265 C 0.02505 0.07719 0.54405 0.0
C1266 C 0.01072 0.07057 0.525 0.0
C1267 C 0.02813 0.1019 0.54899 0.0
C1268 C 0.03082 0.1631 0.52051 0.0
H1269 H 0.0781 0.24713 0.59733 0.0
H1270 H 0.06196 0.20702 0.58787 0.0
H1271 H 0.04589 0.19884 0.51073 0.0
H1272 H 0.9881 0.0845 0.49638 0.0
H1273 H 0.99404 0.12801 0.50474 0.0
H1274 H 0.01382 0.14271 0.57635 0.0
C1275 C 0.05945 0.2226 0.57525 0.0
C1276 C 0.03838 0.18705 0.52513 0.0
C1277 C 0.06887 0.24555 0.58064 0.0
C1278 C 0.99916 0.08911 0.51124 0.0
C1279 C 1.00263 0.11394 0.51591 0.0
C1280 C 0.02054 0.15496 0.56188 0.0
C1281 C 0.04735 0.21975 0.55376 0.0
C1282 C 0.03737 0.19512 0.54827 0.0
C1283 C 0.01727 0.12051 0.53474 0.0
C1284 C 0.02237 0.14671 0.53897 0.0
H1285 H 0.05304 0.27912 0.53028 0.0
H1286 H 0.03595 0.23901 0.52097 0.0
H1287 H 0.0261 0.18474 0.58435 0.0
H1288 H 0.03413 0.06327 0.55497 0.0
H1289 H 0.03966 0.10654 0.56349 0.0
C1290 C 0.5626 0.25559 0.42701 0.0
C1291 C 0.56791 0.23846 0.44589 0.0
C1292 C 0.55611 0.27952 0.4314 0.0
C1293 C 0.55804 0.33268 0.445 0.0
H1294 H 0.5187 0.34447 0.49893 0.0
C1295 C 0.54613 0.43018 0.4781 0.0
C1296 C 0.52369 0.43576 0.48649 0.0
C1297 C 0.55098 0.40618 0.4723 0.0
C1298 C 0.5295 0.34153 0.48364 0.0
H1299 H 0.56982 0.23284 0.48421 0.0
H1300 H 0.5592 0.27471 0.49183 0.0
H1301 H 0.52695 0.30233 0.49009 0.0
H1302 H 0.48854 0.42074 0.4948 0.0
H1303 H 0.49682 0.37917 0.48421 0.0
H1304 H 0.5601 0.37191 0.43822 0.0
C1305 C 0.55976 0.26961 0.47363 0.0
C1306 C 0.53449 0.31734 0.47875 0.0
C1307 C 0.56614 0.24567 0.46925 0.0
C1308 C 0.50609 0.417 0.48857 0.0
C1309 C 0.51088 0.39311 0.48263 0.0
C1310 C 0.55295 0.3569 0.44982 0.0
C1311 C 0.55486 0.28689 0.45475 0.0
C1312 C 0.54892 0.31262 0.45945 0.0
C1313 C 0.53344 0.38732 0.47465 0.0
C1314 C 0.53868 0.36161 0.46925 0.0
H1315 H 0.56403 0.25073 0.40879 0.0
H1316 H 0.55214 0.29226 0.41646 0.0
H1317 H 0.56946 0.32972 0.43016 0.0
H1318 H 0.56008 0.44424 0.47638 0.0
H1319 H 0.56864 0.4023 0.46647 0.0
loop_
_geom_bond_atom_site_label_1
_geom_bond_atom_site_label_2
_geom_bond_distance
_geom_bond_site_symmetry_2
_ccdc_geom_bond_type
C0 C1 1.391 . S
C0 C4 1.391 . S
C0 H42 0.948 . S
C1 C0 1.391 . S
C1 C2 1.391 . S
C2 C1 1.391 . S
C2 H58 0.947 . S
C2 C59 1.392 . S
C3 C4 1.391 . S
C3 C7 1.397 . S
C3 C59 1.419 . S
C4 C0 1.391 . S
C4 C3 1.391 . S
C4 C5 1.399 . S
C5 C4 1.399 . S
C5 C8 1.396 . S
C5 C17 1.453 . S
C5 C18 1.684 . S
H6 C30 0.948 . S
C7 C3 1.397 . S
C7 C8 1.394 . S
C7 C26 1.723 . S
C8 C5 1.396 . S
C8 C7 1.394 . S
C8 C38 1.723 . S
H9 C32 0.947 . S
H10 C33 0.948 . S
H11 C39 0.982 . S
H12 C40 0.979 . S
H13 C40 0.980 . S
H14 C40 0.983 . S
H15 C39 0.979 . S
H16 C39 0.977 . S
C17 C5 1.453 . S
C17 H46 0.982 . S
C17 H47 0.979 . S
C17 H48 0.977 . S
C18 C5 1.684 . S
C18 H43 0.979 . S
C18 H44 0.980 . S
C18 H45 0.983 . S
C19 C20 1.391 . S
C19 C24 1.391 . S
C19 H49 0.948 . S
C20 C19 1.391 . S
C20 C21 1.391 . S
C21 C20 1.391 . S
C21 C22 1.392 . S
C21 H50 0.947 . S
C22 C21 1.392 . S
C22 C23 1.419 . S
C22 H51 0.948 . S
C23 C22 1.419 . S
C23 C24 1.391 . S
C23 C27 1.397 . S
C24 C19 1.391 . S
C24 C23 1.391 . S
C24 C25 1.399 . S
C25 C24 1.399 . S
C25 C26 1.396 . S
C25 C28 1.453 . S
C25 C29 1.684 . S
C26 C7 1.723 . S
C26 C25 1.396 . S
C26 C27 1.394 . S
C27 C23 1.397 . S
C27 C26 1.394 . S
C27 C37 1.723 . S
C28 C25 1.453 . S
C28 H52 0.982 . S
C28 H53 0.979 . S
C28 H54 0.977 . S
C29 C25 1.684 . S
C29 H55 0.979 . S
C29 H56 0.980 . S
C29 H57 0.983 . S
C30 H6 0.948 . S
C30 C31 1.391 . S
C30 C35 1.391 . S
C31 C30 1.391 . S
C31 C32 1.391 . S
C32 H9 0.947 . S
C32 C31 1.391 . S
C32 C33 1.392 . S
C33 H10 0.948 . S
C33 C32 1.392 . S
C33 C34 1.419 . S
C34 C33 1.419 . S
C34 C35 1.391 . S
C34 C38 1.397 . S
C35 C30 1.391 . S
C35 C34 1.391 . S
C35 C36 1.399 . S
C36 C35 1.399 . S
C36 C37 1.396 . S
C36 C39 1.453 . S
C36 C40 1.684 . S
C37 C27 1.723 . S
C37 C36 1.396 . S
C37 C38 1.394 . S
C38 C8 1.723 . S
C38 C34 1.397 . S
C38 C37 1.394 . S
C39 H11 0.982 . S
C39 H15 0.979 . S
C39 H16 0.977 . S
C39 C36 1.453 . S
C40 H12 0.979 . S
C40 H13 0.980 . S
C40 H14 0.983 . S
C40 C36 1.684 . S
H41 C59 0.948 . S
H42 C0 0.948 . S
H43 C18 0.979 . S
H44 C18 0.980 . S
H45 C18 0.983 . S
H46 C17 0.982 . S
H47 C17 0.979 . S
H48 C17 0.977 . S
H49 C19 0.948 . S
H50 C21 0.947 . S
H51 C22 0.948 . S
H52 C28 0.982 . S
H53 C28 0.979 . S
H54 C28 0.977 . S
H55 C29 0.979 . S
H56 C29 0.980 . S
H57 C29 0.983 . S
H58 C2 0.947 . S
C59 C2 1.392 . S
C59 C3 1.419 . S
C59 H41 0.948 . S
C60 C61 1.391 . S
C60 C64 1.391 . S
C60 H102 0.948 . S
C61 C60 1.391 . S
C61 C62 1.391 . S
C62 C61 1.391 . S
C62 H118 0.947 . S
C62 C119 1.392 . S
C63 C64 1.391 . S
C63 C67 1.397 . S
C63 C119 1.419 . S
C64 C60 1.391 . S
C64 C63 1.391 . S
C64 C65 1.399 . S
C65 C64 1.399 . S
C65 C68 1.396 . S
C65 C77 1.453 . S
C65 C78 1.684 . S
H66 C90 0.948 . S
C67 C63 1.397 . S
C67 C68 1.394 . S
C67 C86 1.723 . S
C68 C65 1.396 . S
C68 C67 1.394 . S
C68 C98 1.723 . S
H69 C92 0.947 . S
H70 C93 0.948 . S
H71 C99 0.982 . S
H72 C100 0.979 . S
H73 C100 0.980 . S
H74 C100 0.983 . S
H75 C99 0.979 . S
H76 C99 0.977 . S
C77 C65 1.453 . S
C77 H106 0.982 . S
C77 H107 0.979 . S
C77 H108 0.977 . S
C78 C65 1.684 . S
C78 H103 0.979 . S
C78 H104 0.980 . S
C78 H105 0.983 . S
C79 C80 1.391 . S
C79 C84 1.391 . S
C79 H109 0.948 . S
C80 C79 1.391 . S
C80 C81 1.391 . S
C81 C80 1.391 . S
C81 C82 1.392 . S
C81 H110 0.947 . S
C82 C81 1.392 . S
C82 C83 1.419 . S
C82 H111 0.948 . S
C83 C82 1.419 . S
C83 C84 1.391 . S
C83 C87 1.397 . S
C84 C79 1.391 . S
C84 C83 1.391 . S
C84 C85 1.399 . S
C85 C84 1.399 . S
C85 C86 1.396 . S
C85 C88 1.453 . S
C85 C89 1.684 . S
C86 C67 1.723 . S
C86 C85 1.396 . S
C86 C87 1.394 . S
C87 C83 1.397 . S
C87 C86 1.394 . S
C87 C97 1.723 . S
C88 C85 1.453 . S
C88 H112 0.982 . S
C88 H113 0.979 . S
C88 H114 0.977 . S
C89 C85 1.684 . S
C89 H115 0.979 . S
C89 H116 0.980 . S
C89 H117 0.983 . S
C90 H66 0.948 . S
C90 C91 1.391 . S
C90 C95 1.391 . S
C91 C90 1.391 . S
C91 C92 1.391 . S
C92 H69 0.947 . S
C92 C91 1.391 . S
C92 C93 1.392 . S
C93 H70 0.948 . S
C93 C92 1.392 . S
C93 C94 1.419 . S
C94 C93 1.419 . S
C94 C95 1.391 . S
C94 C98 1.397 . S
C95 C90 1.391 . S
C95 C94 1.391 . S
C95 C96 1.399 . S
C96 C95 1.399 . S
C96 C97 1.396 . S
C96 C99 1.453 . S
C96 C100 1.684 . S
C97 C87 1.723 . S
C97 C96 1.396 . S
C97 C98 1.394 . S
C98 C68 1.723 . S
C98 C94 1.397 . S
C98 C97 1.394 . S
C99 H71 0.982 . S
C99 H75 0.979 . S
C99 H76 0.977 . S
C99 C96 1.453 . S
C100 H72 0.979 . S
C100 H73 0.980 . S
C100 H74 0.983 . S
C100 C96 1.684 . S
H101 C119 0.948 . S
H102 C60 0.948 . S
H103 C78 0.979 . S
H104 C78 0.980 . S
H105 C78 0.983 . S
H106 C77 0.982 . S
H107 C77 0.979 . S
H108 C77 0.977 . S
H109 C79 0.948 . S
H110 C81 0.947 . S
H111 C82 0.948 . S
H112 C88 0.982 . S
H113 C88 0.979 . S
H114 C88 0.977 . S
H115 C89 0.979 . S
H116 C89 0.980 . S
H117 C89 0.983 . S
H118 C62 0.947 . S
C119 C62 1.392 . S
C119 C63 1.419 . S
C119 H101 0.948 . S
C120 C121 1.391 . S
C120 C124 1.391 . S
C120 H162 0.948 . S
C121 C120 1.391 . S
C121 C122 1.391 . S
C122 C121 1.391 . S
C122 H178 0.947 . S
C122 C179 1.392 . S
C123 C124 1.391 . S
C123 C127 1.397 . S
C123 C179 1.419 . S
C124 C120 1.391 . S
C124 C123 1.391 . S
C124 C125 1.399 . S
C125 C124 1.399 . S
C125 C128 1.396 . S
C125 C137 1.453 . S
C125 C138 1.684 . S
H126 C150 0.948 . S
C127 C123 1.397 . S
C127 C128 1.394 . S
C127 C146 1.723 . S
C128 C125 1.396 . S
C128 C127 1.394 . S
C128 C158 1.723 . S
H129 C152 0.947 . S
H130 C153 0.948 . S
H131 C159 0.982 . S
H132 C160 0.979 . S
H133 C160 0.980 . S
H134 C160 0.983 . S
H135 C159 0.979 . S
H136 C159 0.977 . S
C137 C125 1.453 . S
C137 H166 0.982 . S
C137 H167 0.979 . S
C137 H168 0.977 . S
C138 C125 1.684 . S
C138 H163 0.979 . S
C138 H164 0.980 . S
C138 H165 0.983 . S
C139 C140 1.391 . S
C139 C144 1.391 . S
C139 H169 0.948 . S
C140 C139 1.391 . S
C140 C141 1.391 . S
C141 C140 1.391 . S
C141 C142 1.392 . S
C141 H170 0.947 . S
C142 C141 1.392 . S
C142 C143 1.419 . S
C142 H171 0.948 . S
C143 C142 1.419 . S
C143 C144 1.391 . S
C143 C147 1.397 . S
C144 C139 1.391 . S
C144 C143 1.391 . S
C144 C145 1.399 . S
C145 C144 1.399 . S
C145 C146 1.396 . S
C145 C148 1.453 . S
C145 C149 1.684 . S
C146 C127 1.723 . S
C146 C145 1.396 . S
C146 C147 1.394 . S
C147 C143 1.397 . S
C147 C146 1.394 . S
C147 C157 1.723 . S
C148 C145 1.453 . S
C148 H172 0.982 . S
C148 H173 0.979 . S
C148 H174 0.977 . S
C149 C145 1.684 . S
C149 H175 0.979 . S
C149 H176 0.980 . S
C149 H177 0.983 . S
C150 H126 0.948 . S
C150 C151 1.391 . S
C150 C155 1.391 . S
C151 C150 1.391 . S
C151 C152 1.391 . S
C152 H129 0.947 . S
C152 C151 1.391 . S
C152 C153 1.392 . S
C153 H130 0.948 . S
C153 C152 1.392 . S
C153 C154 1.419 . S
C154 C153 1.419 . S
C154 C155 1.391 . S
C154 C158 1.397 . S
C155 C150 1.391 . S
C155 C154 1.391 . S
C155 C156 1.399 . S
C156 C155 1.399 . S
C156 C157 1.396 . S
C156 C159 1.453 . S
C156 C160 1.684 . S
C157 C147 1.723 . S
C157 C156 1.396 . S
C157 C158 1.394 . S
C158 C128 1.723 . S
C158 C154 1.397 . S
C158 C157 1.394 . S
C159 H131 0.982 . S
C159 H135 0.979 . S
C159 H136 0.977 . S
C159 C156 1.453 . S
C160 H132 0.979 . S
C160 H133 0.980 . S
C160 H134 0.983 . S
C160 C156 1.684 . S
H161 C179 0.948 . S
H162 C120 0.948 . S
H163 C138 0.979 . S
H164 C138 0.980 . S
H165 C138 0.983 . S
H166 C137 0.982 . S
H167 C137 0.979 . S
H168 C137 0.977 . S
H169 C139 0.948 . S
H170 C141 0.947 . S
H171 C142 0.948 . S
H172 C148 0.982 . S
H173 C148 0.979 . S
H174 C148 0.977 . S
H175 C149 0.979 . S
H176 C149 0.980 . S
H177 C149 0.983 . S
H178 C122 0.947 . S
C179 C122 1.392 . S
C179 C123 1.419 . S
C179 H161 0.948 . S
C180 C181 1.391 . S
C180 C184 1.391 . S
C180 H222 0.948 . S
C181 C180 1.391 . S
C181 C182 1.391 . S
C182 C181 1.391 . S
C182 H238 0.947 . S
C182 C239 1.392 . S
C183 C184 1.391 . S
C183 C187 1.397 . S
C183 C239 1.419 . S
C184 C180 1.391 . S
C184 C183 1.391 . S
C184 C185 1.399 . S
C185 C184 1.399 . S
C185 C188 1.396 . S
C185 C197 1.453 . S
C185 C198 1.684 . S
H186 C210 0.948 . S
C187 C183 1.397 . S
C187 C188 1.394 . S
C187 C206 1.723 . S
C188 C185 1.396 . S
C188 C187 1.394 . S
C188 C218 1.723 . S
H189 C212 0.947 . S
H190 C213 0.948 . S
H191 C219 0.982 . S
H192 C220 0.979 . S
H193 C220 0.980 . S
H194 C220 0.983 . S
H195 C219 0.979 . S
H196 C219 0.977 . S
C197 C185 1.453 . S
C197 H226 0.982 . S
C197 H227 0.979 . S
C197 H228 0.977 . S
C198 C185 1.684 . S
C198 H223 0.979 . S
C198 H224 0.980 . S
C198 H225 0.983 . S
C199 C200 1.391 . S
C199 C204 1.391 . S
C199 H229 0.948 . S
C200 C199 1.391 . S
C200 C201 1.391 . S
C201 C200 1.391 . S
C201 C202 1.392 . S
C201 H230 0.947 . S
C202 C201 1.392 . S
C202 C203 1.419 . S
C202 H231 0.948 . S
C203 C202 1.419 . S
C203 C204 1.391 . S
C203 C207 1.397 . S
C204 C199 1.391 . S
C204 C203 1.391 . S
C204 C205 1.399 . S
C205 C204 1.399 . S
C205 C206 1.396 . S
C205 C208 1.453 . S
C205 C209 1.684 . S
C206 C187 1.723 . S
C206 C205 1.396 . S
C206 C207 1.394 . S
C207 C203 1.397 . S
C207 C206 1.394 . S
C207 C217 1.723 . S
C208 C205 1.453 . S
C208 H232 0.982 . S
C208 H233 0.979 . S
C208 H234 0.977 . S
C209 C205 1.684 . S
C209 H235 0.979 . S
C209 H236 0.980 . S
C209 H237 0.983 . S
C210 H186 0.948 . S
C210 C211 1.391 . S
C210 C215 1.391 . S
C211 C210 1.391 . S
C211 C212 1.391 . S
C212 H189 0.947 . S
C212 C211 1.391 . S
C212 C213 1.392 . S
C213 H190 0.948 . S
C213 C212 1.392 . S
C213 C214 1.419 . S
C214 C213 1.419 . S
C214 C215 1.391 . S
C214 C218 1.397 . S
C215 C210 1.391 . S
C215 C214 1.391 . S
C215 C216 1.399 . S
C216 C215 1.399 . S
C216 C217 1.396 . S
C216 C219 1.453 . S
C216 C220 1.684 . S
C217 C207 1.723 . S
C217 C216 1.396 . S
C217 C218 1.394 . S
C218 C188 1.723 . S
C218 C214 1.397 . S
C218 C217 1.394 . S
C219 H191 0.982 . S
C219 H195 0.979 . S
C219 H196 0.977 . S
C219 C216 1.453 . S
C220 H192 0.979 . S
C220 H193 0.980 . S
C220 H194 0.983 . S
C220 C216 1.684 . S
H221 C239 0.948 . S
H222 C180 0.948 . S
H223 C198 0.979 . S
H224 C198 0.980 . S
H225 C198 0.983 . S
H226 C197 0.982 . S
H227 C197 0.979 . S
H228 C197 0.977 . S
H229 C199 0.948 . S
H230 C201 0.947 . S
H231 C202 0.948 . S
H232 C208 0.982 . S
H233 C208 0.979 . S
H234 C208 0.977 . S
H235 C209 0.979 . S
H236 C209 0.980 . S
H237 C209 0.983 . S
H238 C182 0.947 . S
C239 C182 1.392 . S
C239 C183 1.419 . S
C239 H221 0.948 . S
C240 C241 1.391 . S
C240 C244 1.391 . S
C240 H282 0.948 . S
C241 C240 1.391 . S
C241 C242 1.391 . S
C242 C241 1.391 . S
C242 H298 0.947 . S
C242 C299 1.392 . S
C243 C244 1.391 . S
C243 C247 1.397 . S
C243 C299 1.419 . S
C244 C240 1.391 . S
C244 C243 1.391 . S
C244 C245 1.399 . S
C245 C244 1.399 . S
C245 C248 1.396 . S
C245 C257 1.453 . S
C245 C258 1.684 . S
H246 C270 0.948 . S
C247 C243 1.397 . S
C247 C248 1.394 . S
C247 C266 1.723 . S
C248 C245 1.396 . S
C248 C247 1.394 . S
C248 C278 1.723 . S
H249 C272 0.947 . S
H250 C273 0.948 . S
H251 C279 0.982 . S
H252 C280 0.979 . S
H253 C280 0.980 . S
H254 C280 0.983 . S
H255 C279 0.979 . S
H256 C279 0.977 . S
C257 C245 1.453 . S
C257 H286 0.982 . S
C257 H287 0.979 . S
C257 H288 0.977 . S
C258 C245 1.684 . S
C258 H283 0.979 . S
C258 H284 0.980 . S
C258 H285 0.983 . S
C259 C260 1.391 . S
C259 C264 1.391 . S
C259 H289 0.948 . S
C260 C259 1.391 . S
C260 C261 1.391 . S
C261 C260 1.391 . S
C261 C262 1.392 . S
C261 H290 0.947 . S
C262 C261 1.392 . S
C262 C263 1.419 . S
C262 H291 0.948 . S
C263 C262 1.419 . S
C263 C264 1.391 . S
C263 C267 1.397 . S
C264 C259 1.391 . S
C264 C263 1.391 . S
C264 C265 1.399 . S
C265 C264 1.399 . S
C265 C266 1.396 . S
C265 C268 1.453 . S
C265 C269 1.684 . S
C266 C247 1.723 . S
C266 C265 1.396 . S
C266 C267 1.394 . S
C267 C263 1.397 . S
C267 C266 1.394 . S
C267 C277 1.723 . S
C268 C265 1.453 . S
C268 H292 0.982 . S
C268 H293 0.979 . S
C268 H294 0.977 . S
C269 C265 1.684 . S
C269 H295 0.979 . S
C269 H296 0.980 . S
C269 H297 0.983 . S
C270 H246 0.948 . S
C270 C271 1.391 . S
C270 C275 1.391 . S
C271 C270 1.391 . S
C271 C272 1.391 . S
C272 H249 0.947 . S
C272 C271 1.391 . S
C272 C273 1.392 . S
C273 H250 0.948 . S
C273 C272 1.392 . S
C273 C274 1.419 . S
C274 C273 1.419 . S
C274 C275 1.391 . S
C274 C278 1.397 . S
C275 C270 1.391 . S
C275 C274 1.391 . S
C275 C276 1.399 . S
C276 C275 1.399 . S
C276 C277 1.396 . S
C276 C279 1.453 . S
C276 C280 1.684 . S
C277 C267 1.723 . S
C277 C276 1.396 . S
C277 C278 1.394 . S
C278 C248 1.723 . S
C278 C274 1.397 . S
C278 C277 1.394 . S
C279 H251 0.982 . S
C279 H255 0.979 . S
C279 H256 0.977 . S
C279 C276 1.453 . S
C280 H252 0.979 . S
C280 H253 0.980 . S
C280 H254 0.983 . S
C280 C276 1.684 . S
H281 C299 0.948 . S
H282 C240 0.948 . S
H283 C258 0.979 . S
H284 C258 0.980 . S
H285 C258 0.983 . S
H286 C257 0.982 . S
H287 C257 0.979 . S
H288 C257 0.977 . S
H289 C259 0.948 . S
H290 C261 0.947 . S
H291 C262 0.948 . S
H292 C268 0.982 . S
H293 C268 0.979 . S
H294 C268 0.977 . S
H295 C269 0.979 . S
H296 C269 0.980 . S
H297 C269 0.983 . S
H298 C242 0.947 . S
C299 C242 1.392 . S
C299 C243 1.419 . S
C299 H281 0.948 . S
C300 C301 1.391 . S
C300 C304 1.391 . S
C300 H342 0.948 . S
C301 C300 1.391 . S
C301 C302 1.391 . S
C302 C301 1.391 . S
C302 H358 0.947 . S
C302 C359 1.392 . S
C303 C304 1.391 . S
C303 C307 1.397 . S
C303 C359 1.419 . S
C304 C300 1.391 . S
C304 C303 1.391 . S
C304 C305 1.399 . S
C305 C304 1.399 . S
C305 C308 1.396 . S
C305 C317 1.453 . S
C305 C318 1.684 . S
H306 C330 0.948 . S
C307 C303 1.397 . S
C307 C308 1.394 . S
C307 C326 1.723 . S
C308 C305 1.396 . S
C308 C307 1.394 . S
C308 C338 1.723 . S
H309 C332 0.947 . S
H310 C333 0.948 . S
H311 C339 0.982 . S
H312 C340 0.979 . S
H313 C340 0.980 . S
H314 C340 0.983 . S
H315 C339 0.979 . S
H316 C339 0.977 . S
C317 C305 1.453 . S
C317 H346 0.982 . S
C317 H347 0.979 . S
C317 H348 0.977 . S
C318 C305 1.684 . S
C318 H343 0.979 . S
C318 H344 0.980 . S
C318 H345 0.983 . S
C319 C320 1.391 . S
C319 C324 1.391 . S
C319 H349 0.948 . S
C320 C319 1.391 . S
C320 C321 1.391 . S
C321 C320 1.391 . S
C321 C322 1.392 . S
C321 H350 0.947 . S
C322 C321 1.392 . S
C322 C323 1.419 . S
C322 H351 0.948 . S
C323 C322 1.419 . S
C323 C324 1.391 . S
C323 C327 1.397 . S
C324 C319 1.391 . S
C324 C323 1.391 . S
C324 C325 1.399 . S
C325 C324 1.399 . S
C325 C326 1.396 . S
C325 C328 1.453 . S
C325 C329 1.684 . S
C326 C307 1.723 . S
C326 C325 1.396 . S
C326 C327 1.394 . S
C327 C323 1.397 . S
C327 C326 1.394 . S
C327 C337 1.723 . S
C328 C325 1.453 . S
C328 H352 0.982 . S
C328 H353 0.979 . S
C328 H354 0.977 . S
C329 C325 1.684 . S
C329 H355 0.979 . S
C329 H356 0.980 . S
C329 H357 0.983 . S
C330 H306 0.948 . S
C330 C331 1.391 . S
C330 C335 1.391 . S
C331 C330 1.391 . S
C331 C332 1.391 . S
C332 H309 0.947 . S
C332 C331 1.391 . S
C332 C333 1.392 . S
C333 H310 0.948 . S
C333 C332 1.392 . S
C333 C334 1.419 . S
C334 C333 1.419 . S
C334 C335 1.391 . S
C334 C338 1.397 . S
C335 C330 1.391 . S
C335 C334 1.391 . S
C335 C336 1.399 . S
C336 C335 1.399 . S
C336 C337 1.396 . S
C336 C339 1.453 . S
C336 C340 1.684 . S
C337 C327 1.723 . S
C337 C336 1.396 . S
C337 C338 1.394 . S
C338 C308 1.723 . S
C338 C334 1.397 . S
C338 C337 1.394 . S
C339 H311 0.982 . S
C339 H315 0.979 . S
C339 H316 0.977 . S
C339 C336 1.453 . S
C340 H312 0.979 . S
C340 H313 0.980 . S
C340 H314 0.983 . S
C340 C336 1.684 . S
H341 C359 0.948 . S
H342 C300 0.948 . S
H343 C318 0.979 . S
H344 C318 0.980 . S
H345 C318 0.983 . S
H346 C317 0.982 . S
H347 C317 0.979 . S
H348 C317 0.977 . S
H349 C319 0.948 . S
H350 C321 0.947 . S
H351 C322 0.948 . S
H352 C328 0.982 . S
H353 C328 0.979 . S
H354 C328 0.977 . S
H355 C329 0.979 . S
H356 C329 0.980 . S
H357 C329 0.983 . S
H358 C302 0.947 . S
C359 C302 1.392 . S
C359 C303 1.419 . S
C359 H341 0.948 . S
C360 C361 1.391 . S
C360 C364 1.391 . S
C360 H402 0.948 . S
C361 C360 1.391 . S
C361 C362 1.391 . S
C362 C361 1.391 . S
C362 H418 0.947 . S
C362 C419 1.392 . S
C363 C364 1.391 . S
C363 C367 1.397 . S
C363 C419 1.419 . S
C364 C360 1.391 . S
C364 C363 1.391 . S
C364 C365 1.399 . S
C365 C364 1.399 . S
C365 C368 1.396 . S
C365 C377 1.453 . S
C365 C378 1.684 . S
H366 C390 0.948 . S
C367 C363 1.397 . S
C367 C368 1.394 . S
C367 C386 1.723 . S
C368 C365 1.396 . S
C368 C367 1.394 . S
C368 C398 1.723 . S
H369 C392 0.947 . S
H370 C393 0.948 . S
H371 C399 0.982 . S
H372 C400 0.979 . S
H373 C400 0.980 . S
H374 C400 0.983 . S
H375 C399 0.979 . S
H376 C399 0.977 . S
C377 C365 1.453 . S
C377 H406 0.982 . S
C377 H407 0.979 . S
C377 H408 0.977 . S
C378 C365 1.684 . S
C378 H403 0.979 . S
C378 H404 0.980 . S
C378 H405 0.983 . S
C379 C380 1.391 . S
C379 C384 1.391 . S
C379 H409 0.948 . S
C380 C379 1.391 . S
C380 C381 1.391 . S
C381 C380 1.391 . S
C381 C382 1.392 . S
C381 H410 0.947 . S
C382 C381 1.392 . S
C382 C383 1.419 . S
C382 H411 0.948 . S
C383 C382 1.419 . S
C383 C384 1.391 . S
C383 C387 1.397 . S
C384 C379 1.391 . S
C384 C383 1.391 . S
C384 C385 1.399 . S
C385 C384 1.399 . S
C385 C386 1.396 . S
C385 C388 1.453 . S
C385 C389 1.684 . S
C386 C367 1.723 . S
C386 C385 1.396 . S
C386 C387 1.394 . S
C387 C383 1.397 . S
C387 C386 1.394 . S
C387 C397 1.723 . S
C388 C385 1.453 . S
C388 H412 0.982 . S
C388 H413 0.979 . S
C388 H414 0.977 . S
C389 C385 1.684 . S
C389 H415 0.979 . S
C389 H416 0.980 . S
C389 H417 0.983 . S
C390 H366 0.948 . S
C390 C391 1.391 . S
C390 C395 1.391 . S
C391 C390 1.391 . S
C391 C392 1.391 . S
C392 H369 0.947 . S
C392 C391 1.391 . S
C392 C393 1.392 . S
C393 H370 0.948 . S
C393 C392 1.392 . S
C393 C394 1.419 . S
C394 C393 1.419 . S
C394 C395 1.391 . S
C394 C398 1.397 . S
C395 C390 1.391 . S
C395 C394 1.391 . S
C395 C396 1.399 . S
C396 C395 1.399 . S
C396 C397 1.396 . S
C396 C399 1.453 . S
C396 C400 1.684 . S
C397 C387 1.723 . S
C397 C396 1.396 . S
C397 C398 1.394 . S
C398 C368 1.723 . S
C398 C394 1.397 . S
C398 C397 1.394 . S
C399 H371 0.982 . S
C399 H375 0.979 . S
C399 H376 0.977 . S
C399 C396 1.453 . S
C400 H372 0.979 . S
C400 H373 0.980 . S
C400 H374 0.983 . S
C400 C396 1.684 . S
H401 C419 0.948 . S
H402 C360 0.948 . S
H403 C378 0.979 . S
H404 C378 0.980 . S
H405 C378 0.983 . S
H406 C377 0.982 . S
H407 C377 0.979 . S
H408 C377 0.977 . S
H409 C379 0.948 . S
H410 C381 0.947 . S
H411 C382 0.948 . S
H412 C388 0.982 . S
H413 C388 0.979 . S
H414 C388 0.977 . S
H415 C389 0.979 . S
H416 C389 0.980 . S
H417 C389 0.983 . S
H418 C362 0.947 . S
C419 C362 1.392 . S
C419 C363 1.419 . S
C419 H401 0.948 . S
C420 C421 1.391 . S
C420 C424 1.391 . S
C420 H462 0.948 . S
C421 C420 1.391 . S
C421 C422 1.391 . S
C422 C421 1.391 . S
C422 H478 0.947 . S
C422 C479 1.392 . S
C423 C424 1.391 . S
C423 C427 1.397 . S
C423 C479 1.419 . S
C424 C420 1.391 . S
C424 C423 1.391 . S
C424 C425 1.399 . S
C425 C424 1.399 . S
C425 C428 1.396 . S
C425 C437 1.453 . S
C425 C438 1.684 . S
H426 C450 0.948 . S
C427 C423 1.397 . S
C427 C428 1.394 . S
C427 C446 1.723 . S
C428 C425 1.396 . S
C428 C427 1.394 . S
C428 C458 1.723 . S
H429 C452 0.947 . S
H430 C453 0.948 . S
H431 C459 0.982 . S
H432 C460 0.979 . S
H433 C460 0.980 . S
H434 C460 0.983 . S
H435 C459 0.979 . S
H436 C459 0.977 . S
C437 C425 1.453 . S
C437 H466 0.982 . S
C437 H467 0.979 . S
C437 H468 0.977 . S
C438 C425 1.684 . S
C438 H463 0.979 . S
C438 H464 0.980 . S
C438 H465 0.983 . S
C439 C440 1.391 . S
C439 C444 1.391 . S
C439 H469 0.948 . S
C440 C439 1.391 . S
C440 C441 1.391 . S
C441 C440 1.391 . S
C441 C442 1.392 . S
C441 H470 0.947 . S
C442 C441 1.392 . S
C442 C443 1.419 . S
C442 H471 0.948 . S
C443 C442 1.419 . S
C443 C444 1.391 . S
C443 C447 1.397 . S
C444 C439 1.391 . S
C444 C443 1.391 . S
C444 C445 1.399 . S
C445 C444 1.399 . S
C445 C446 1.396 . S
C445 C448 1.453 . S
C445 C449 1.684 . S
C446 C427 1.723 . S
C446 C445 1.396 . S
C446 C447 1.394 . S
C447 C443 1.397 . S
C447 C446 1.394 . S
C447 C457 1.723 . S
C448 C445 1.453 . S
C448 H472 0.982 . S
C448 H473 0.979 . S
C448 H474 0.977 . S
C449 C445 1.684 . S
C449 H475 0.979 . S
C449 H476 0.980 . S
C449 H477 0.983 . S
C450 H426 0.948 . S
C450 C451 1.391 . S
C450 C455 1.391 . S
C451 C450 1.391 . S
C451 C452 1.391 . S
C452 H429 0.947 . S
C452 C451 1.391 . S
C452 C453 1.392 . S
C453 H430 0.948 . S
C453 C452 1.392 . S
C453 C454 1.419 . S
C454 C453 1.419 . S
C454 C455 1.391 . S
C454 C458 1.397 . S
C455 C450 1.391 . S
C455 C454 1.391 . S
C455 C456 1.399 . S
C456 C455 1.399 . S
C456 C457 1.396 . S
C456 C459 1.453 . S
C456 C460 1.684 . S
C457 C447 1.723 . S
C457 C456 1.396 . S
C457 C458 1.394 . S
C458 C428 1.723 . S
C458 C454 1.397 . S
C458 C457 1.394 . S
C459 H431 0.982 . S
C459 H435 0.979 . S
C459 H436 0.977 . S
C459 C456 1.453 . S
C460 H432 0.979 . S
C460 H433 0.980 . S
C460 H434 0.983 . S
C460 C456 1.684 . S
H461 C479 0.948 . S
H462 C420 0.948 . S
H463 C438 0.979 . S
H464 C438 0.980 . S
H465 C438 0.983 . S
H466 C437 0.982 . S
H467 C437 0.979 . S
H468 C437 0.977 . S
H469 C439 0.948 . S
H470 C441 0.947 . S
H471 C442 0.948 . S
H472 C448 0.982 . S
H473 C448 0.979 . S
H474 C448 0.977 . S
H475 C449 0.979 . S
H476 C449 0.980 . S
H477 C449 0.983 . S
H478 C422 0.947 . S
C479 C422 1.392 . S
C479 C423 1.419 . S
C479 H461 0.948 . S
Co480 N485 2.057 . S
Co480 O497 2.021 . S
Co480 O500 2.062 . S
Co480 O504 2.117 1_545 S
Co480 O505 2.020 1_545 S
C481 O501 1.259 1_655 S
C481 O504 1.258 . S
Co482 N491 2.057 . S
Co482 O498 2.117 1_565 S
Co482 O499 2.020 1_565 S
Co482 O501 2.021 . S
Co482 O506 2.062 . S
C483 N485 1.316 . S
C483 N486 1.347 . S
C483 H488 0.931 . S
C484 N485 1.375 1_565 S
C484 C487 1.350 1_565 S
C484 H489 0.930 . S
N485 Co480 2.057 . S
N485 C483 1.316 . S
N485 C484 1.375 1_545 S
N486 C483 1.347 . S
N486 C487 1.373 . S
C487 C484 1.350 1_545 S
C487 N486 1.373 . S
C487 H508 0.931 1_545 S
H488 C483 0.931 . S
H489 C484 0.930 . S
C490 O497 1.259 1_455 S
C490 O498 1.258 . S
N491 Co482 2.057 . S
N491 C492 1.316 . S
N491 C493 1.375 1_565 S
C492 N491 1.316 . S
C492 N494 1.347 . S
C492 H503 0.931 . S
C493 N491 1.375 1_545 S
C493 C495 1.350 1_545 S
C493 H502 0.930 . S
N494 C492 1.347 . S
N494 C495 1.373 . S
C495 C493 1.350 1_565 S
C495 N494 1.373 . S
C495 H509 0.931 1_565 S
C496 O499 1.256 . S
C496 O500 1.255 1_455 S
O497 Co480 2.021 . S
O497 C490 1.259 1_655 S
O498 Co482 2.117 1_545 S
O498 C490 1.258 . S
O499 Co482 2.020 1_545 S
O499 C496 1.256 . S
O500 Co480 2.062 . S
O500 C496 1.255 1_655 S
O501 C481 1.259 1_455 S
O501 Co482 2.021 . S
H502 C493 0.930 . S
H503 C492 0.931 . S
O504 Co480 2.117 1_565 S
O504 C481 1.258 . S
O505 Co480 2.020 1_565 S
O505 C507 1.256 . S
O506 Co482 2.062 . S
O506 C507 1.255 1_455 S
C507 O505 1.256 . S
C507 O506 1.255 1_655 S
H508 C487 0.931 1_565 S
H509 C495 0.931 1_545 S
Co510 N515 2.057 . S
Co510 O527 2.021 1_565 S
Co510 O530 2.062 . S
Co510 O534 2.117 . S
Co510 O535 2.020 1_565 S
C511 O531 1.259 . S
C511 O534 1.258 1_554 S
Co512 N521 2.057 . S
Co512 O528 2.117 . S
Co512 O529 2.020 1_545 S
Co512 O531 2.021 1_545 S
Co512 O536 2.062 . S
C513 N515 1.316 . S
C513 N516 1.347 . S
C513 H518 0.931 1_565 S
C514 N515 1.375 . S
C514 C517 1.350 . S
C514 H519 0.930 . S
N515 Co510 2.057 . S
N515 C513 1.316 . S
N515 C514 1.375 . S
N516 C513 1.347 . S
N516 C517 1.373 . S
C517 C514 1.350 . S
C517 N516 1.373 . S
C517 H538 0.931 . S
H518 C513 0.931 1_545 S
H519 C514 0.930 . S
C520 O527 1.259 . S
C520 O528 1.258 1_556 S
N521 Co512 2.057 . S
N521 C522 1.316 . S
N521 C523 1.375 . S
C522 N521 1.316 . S
C522 N524 1.347 . S
C522 H533 0.931 1_545 S
C523 N521 1.375 . S
C523 C525 1.350 . S
C523 H532 0.930 . S
N524 C522 1.347 . S
N524 C525 1.373 . S
C525 C523 1.350 . S
C525 N524 1.373 . S
C525 H539 0.931 . S
C526 O529 1.256 1_556 S
C526 O530 1.255 . S
O527 Co510 2.021 1_545 S
O527 C520 1.259 . S
O528 Co512 2.117 . S
O528 C520 1.258 1_554 S
O529 Co512 2.020 1_565 S
O529 C526 1.256 1_554 S
O530 Co510 2.062 . S
O530 C526 1.255 . S
O531 C511 1.259 . S
O531 Co512 2.021 1_565 S
H532 C523 0.930 . S
H533 C522 0.931 1_565 S
O534 Co510 2.117 . S
O534 C511 1.258 1_556 S
O535 Co510 2.020 1_545 S
O535 C537 1.256 1_556 S
O536 Co512 2.062 . S
O536 C537 1.255 . S
C537 O535 1.256 1_554 S
C537 O536 1.255 . S
H538 C517 0.931 . S
H539 C525 0.931 . S
Co540 N545 2.057 . S
Co540 O557 2.021 . S
Co540 O560 2.062 . S
Co540 O564 2.117 . S
Co540 O565 2.020 . S
C541 O561 1.259 . S
C541 O564 1.258 . S
Co542 N551 2.057 . S
Co542 O558 2.117 . S
Co542 O559 2.020 . S
Co542 O561 2.021 . S
Co542 O566 2.062 . S
C543 N545 1.316 . S
C543 N546 1.347 . S
C543 H548 0.931 . S
C544 N545 1.375 . S
C544 C547 1.350 . S
C544 H549 0.930 . S
N545 Co540 2.057 . S
N545 C543 1.316 . S
N545 C544 1.375 . S
N546 C543 1.347 . S
N546 C547 1.373 . S
C547 C544 1.350 . S
C547 N546 1.373 . S
C547 H568 0.931 . S
H548 C543 0.931 . S
H549 C544 0.930 . S
C550 O557 1.259 . S
C550 O558 1.258 . S
N551 Co542 2.057 . S
N551 C552 1.316 . S
N551 C553 1.375 . S
C552 N551 1.316 . S
C552 N554 1.347 . S
C552 H563 0.931 . S
C553 N551 1.375 . S
C553 C555 1.350 . S
C553 H562 0.930 . S
N554 C552 1.347 . S
N554 C555 1.373 . S
C555 C553 1.350 . S
C555 N554 1.373 . S
C555 H569 0.931 . S
C556 O559 1.256 . S
C556 O560 1.255 . S
O557 Co540 2.021 . S
O557 C550 1.259 . S
O558 Co542 2.117 . S
O558 C550 1.258 . S
O559 Co542 2.020 . S
O559 C556 1.256 . S
O560 Co540 2.062 . S
O560 C556 1.255 . S
O561 C541 1.259 . S
O561 Co542 2.021 . S
H562 C553 0.930 . S
H563 C552 0.931 . S
O564 Co540 2.117 . S
O564 C541 1.258 . S
O565 Co540 2.020 . S
O565 C567 1.256 . S
O566 Co542 2.062 . S
O566 C567 1.255 . S
C567 O565 1.256 . S
C567 O566 1.255 . S
H568 C547 0.931 . S
H569 C555 0.931 . S
Co570 N575 2.057 . S
Co570 O587 2.021 . S
Co570 O590 2.062 . S
Co570 O594 2.117 1_455 S
Co570 O595 2.020 1_455 S
C571 O591 1.259 1_556 S
C571 O594 1.258 . S
Co572 N581 2.057 . S
Co572 O588 2.117 1_655 S
Co572 O589 2.020 1_655 S
Co572 O591 2.021 . S
Co572 O596 2.062 . S
C573 N575 1.316 . S
C573 N576 1.347 . S
C573 H578 0.931 . S
C574 N575 1.375 1_655 S
C574 C577 1.350 1_655 S
C574 H579 0.930 . S
N575 Co570 2.057 . S
N575 C573 1.316 . S
N575 C574 1.375 1_455 S
N576 C573 1.347 . S
N576 C577 1.373 . S
C577 C574 1.350 1_455 S
C577 N576 1.373 . S
C577 H598 0.931 1_455 S
H578 C573 0.931 . S
H579 C574 0.930 . S
C580 O587 1.259 1_554 S
C580 O588 1.258 . S
N581 Co572 2.057 . S
N581 C582 1.316 . S
N581 C583 1.375 1_655 S
C582 N581 1.316 . S
C582 N584 1.347 . S
C582 H593 0.931 . S
C583 N581 1.375 1_455 S
C583 C585 1.350 1_455 S
C583 H592 0.930 . S
N584 C582 1.347 . S
N584 C585 1.373 . S
C585 C583 1.350 1_655 S
C585 N584 1.373 . S
C585 H599 0.931 1_655 S
C586 O589 1.256 . S
C586 O590 1.255 1_554 S
O587 Co570 2.021 . S
O587 C580 1.259 1_556 S
O588 Co572 2.117 1_455 S
O588 C580 1.258 . S
O589 Co572 2.020 1_455 S
O589 C586 1.256 . S
O590 Co570 2.062 . S
O590 C586 1.255 1_556 S
O591 C571 1.259 1_554 S
O591 Co572 2.021 . S
H592 C583 0.930 . S
H593 C582 0.931 . S
O594 Co570 2.117 1_655 S
O594 C571 1.258 . S
O595 Co570 2.020 1_655 S
O595 C597 1.256 . S
O596 Co572 2.062 . S
O596 C597 1.255 1_554 S
C597 O595 1.256 . S
C597 O596 1.255 1_556 S
H598 C577 0.931 1_655 S
H599 C585 0.931 1_455 S
C600 C601 1.349 . S
C600 C602 1.327 . S
C600 H625 0.950 . S
C601 C600 1.349 . S
C601 C617 1.349 . S
C602 C600 1.327 . S
C602 C621 1.429 . S
C602 H626 0.950 . S
C603 C620 1.574 . S
C603 C622 1.368 . S
C603 H627 0.949 . S
H604 C608 0.949 . S
C605 C606 1.349 . S
C605 C607 1.327 . S
C605 H628 0.950 1_545 S
C606 C605 1.349 . S
C606 C618 1.349 . S
C607 C605 1.327 . S
C607 C623 1.429 . S
C607 H629 0.949 1_545 S
C608 H604 0.949 . S
C608 C616 1.574 . S
C608 C624 1.368 . S
H609 C617 0.950 . S
H610 C615 0.950 . S
H611 C616 0.949 . S
H612 C618 0.950 . S
H613 C619 0.950 . S
H614 C620 0.949 . S
C615 H610 0.950 . S
C615 C617 1.327 . S
C615 C621 1.429 . S
C616 C608 1.574 . S
C616 H611 0.949 . S
C616 C622 1.368 . S
C617 C601 1.349 . S
C617 H609 0.950 . S
C617 C615 1.327 . S
C618 C606 1.349 . S
C618 H612 0.950 . S
C618 C619 1.327 . S
C619 H613 0.950 . S
C619 C618 1.327 . S
C619 C623 1.429 . S
C620 C603 1.574 . S
C620 H614 0.949 . S
C620 C624 1.368 . S
C621 C602 1.429 . S
C621 C615 1.429 . S
C621 C622 1.523 . S
C622 C603 1.368 . S
C622 C616 1.368 . S
C622 C621 1.523 . S
C623 C607 1.429 . S
C623 C619 1.429 . S
C623 C624 1.523 . S
C624 C608 1.368 . S
C624 C620 1.368 . S
C624 C623 1.523 . S
H625 C600 0.950 . S
H626 C602 0.950 . S
H627 C603 0.949 . S
H628 C605 0.950 1_565 S
H629 C607 0.949 1_565 S
C630 C631 1.349 . S
C630 C632 1.327 . S
C630 H655 0.950 . S
C631 C630 1.349 . S
C631 C647 1.349 . S
C632 C630 1.327 . S
C632 C651 1.429 . S
C632 H656 0.950 . S
C633 C650 1.574 . S
C633 C652 1.368 . S
C633 H657 0.949 . S
H634 C638 0.949 . S
C635 C636 1.349 . S
C635 C637 1.327 . S
C635 H658 0.950 . S
C636 C635 1.349 . S
C636 C648 1.349 . S
C637 C635 1.327 . S
C637 C653 1.429 . S
C637 H659 0.950 . S
C638 H634 0.949 . S
C638 C646 1.574 . S
C638 C654 1.368 . S
H639 C647 0.950 . S
H640 C645 0.950 . S
H641 C646 0.949 . S
H642 C648 0.950 . S
H643 C649 0.950 . S
H644 C650 0.949 . S
C645 H640 0.950 . S
C645 C647 1.327 . S
C645 C651 1.429 . S
C646 C638 1.574 . S
C646 H641 0.949 . S
C646 C652 1.368 . S
C647 C631 1.349 . S
C647 H639 0.950 . S
C647 C645 1.327 . S
C648 C636 1.349 . S
C648 H642 0.950 . S
C648 C649 1.327 . S
C649 H643 0.950 . S
C649 C648 1.327 . S
C649 C653 1.429 . S
C650 C633 1.574 . S
C650 H644 0.949 . S
C650 C654 1.368 . S
C651 C632 1.429 . S
C651 C645 1.429 . S
C651 C652 1.523 . S
C652 C633 1.368 . S
C652 C646 1.368 . S
C652 C651 1.523 . S
C653 C637 1.429 . S
C653 C649 1.429 . S
C653 C654 1.523 . S
C654 C638 1.368 . S
C654 C650 1.368 . S
C654 C653 1.523 . S
H655 C630 0.950 . S
H656 C632 0.950 . S
H657 C633 0.949 . S
H658 C635 0.950 . S
H659 C637 0.950 . S
C660 C661 1.349 . S
C660 C662 1.327 . S
C660 H685 0.950 . S
C661 C660 1.349 . S
C661 C677 1.349 . S
C662 C660 1.327 . S
C662 C681 1.429 . S
C662 H686 0.950 . S
C663 C680 1.574 . S
C663 C682 1.368 . S
C663 H687 0.949 . S
H664 C668 0.949 . S
C665 C666 1.349 . S
C665 C667 1.327 . S
C665 H688 0.950 . S
C666 C665 1.349 . S
C666 C678 1.349 . S
C667 C665 1.327 . S
C667 C683 1.429 . S
C667 H689 0.950 . S
C668 H664 0.949 . S
C668 C676 1.574 . S
C668 C684 1.368 . S
H669 C677 0.950 . S
H670 C675 0.950 . S
H671 C676 0.949 . S
H672 C678 0.950 . S
H673 C679 0.950 . S
H674 C680 0.949 . S
C675 H670 0.950 . S
C675 C677 1.327 . S
C675 C681 1.429 . S
C676 C668 1.574 . S
C676 H671 0.949 . S
C676 C682 1.368 . S
C677 C661 1.349 . S
C677 H669 0.950 . S
C677 C675 1.327 . S
C678 C666 1.349 . S
C678 H672 0.950 . S
C678 C679 1.327 . S
C679 H673 0.950 . S
C679 C678 1.327 . S
C679 C683 1.429 . S
C680 C663 1.574 . S
C680 H674 0.949 . S
C680 C684 1.368 . S
C681 C662 1.429 . S
C681 C675 1.429 . S
C681 C682 1.523 . S
C682 C663 1.368 . S
C682 C676 1.368 . S
C682 C681 1.523 . S
C683 C667 1.429 . S
C683 C679 1.429 . S
C683 C684 1.523 . S
C684 C668 1.368 . S
C684 C680 1.368 . S
C684 C683 1.523 . S
H685 C660 0.950 . S
H686 C662 0.950 . S
H687 C663 0.949 . S
H688 C665 0.950 . S
H689 C667 0.950 . S
C690 C691 1.349 . S
C690 C692 1.327 . S
C690 H715 0.950 . S
C691 C690 1.349 . S
C691 C707 1.349 . S
C692 C690 1.327 . S
C692 C711 1.429 . S
C692 H716 0.950 . S
C693 C710 1.574 . S
C693 C712 1.368 . S
C693 H717 0.949 . S
H694 C698 0.949 . S
C695 C696 1.349 . S
C695 C697 1.327 . S
C695 H718 0.950 . S
C696 C695 1.349 . S
C696 C708 1.349 . S
C697 C695 1.327 . S
C697 C713 1.429 . S
C697 H719 0.950 . S
C698 H694 0.949 . S
C698 C706 1.574 . S
C698 C714 1.368 . S
H699 C707 0.950 . S
H700 C705 0.950 . S
H701 C706 0.949 . S
H702 C708 0.950 . S
H703 C709 0.950 . S
H704 C710 0.949 . S
C705 H700 0.950 . S
C705 C707 1.327 . S
C705 C711 1.429 . S
C706 C698 1.574 . S
C706 H701 0.949 . S
C706 C712 1.368 . S
C707 C691 1.349 . S
C707 H699 0.950 . S
C707 C705 1.327 . S
C708 C696 1.349 . S
C708 H702 0.950 . S
C708 C709 1.327 . S
C709 H703 0.950 . S
C709 C708 1.327 . S
C709 C713 1.429 . S
C710 C693 1.574 . S
C710 H704 0.949 . S
C710 C714 1.368 . S
C711 C692 1.429 . S
C711 C705 1.429 . S
C711 C712 1.523 . S
C712 C693 1.368 . S
C712 C706 1.368 . S
C712 C711 1.523 . S
C713 C697 1.429 . S
C713 C709 1.429 . S
C713 C714 1.523 . S
C714 C698 1.368 . S
C714 C710 1.368 . S
C714 C713 1.523 . S
H715 C690 0.950 . S
H716 C692 0.950 . S
H717 C693 0.949 . S
H718 C695 0.950 . S
H719 C697 0.950 . S
C720 C721 1.349 . S
C720 C722 1.327 . S
C720 H745 0.950 . S
C721 C720 1.349 . S
C721 C737 1.349 . S
C722 C720 1.327 . S
C722 C741 1.429 . S
C722 H746 0.950 . S
C723 C740 1.574 . S
C723 C742 1.368 . S
C723 H747 0.949 . S
H724 C728 0.949 . S
C725 C726 1.349 . S
C725 C727 1.327 . S
C725 H748 0.950 1_545 S
C726 C725 1.349 . S
C726 C738 1.349 . S
C727 C725 1.327 . S
C727 C743 1.429 . S
C727 H749 0.982 . S
C728 H724 0.949 . S
C728 C736 1.574 . S
C728 C744 1.368 . S
H729 C737 0.950 . S
H730 C735 0.950 . S
H731 C736 0.949 . S
H732 C738 0.950 . S
H733 C739 0.950 . S
H734 C740 0.949 . S
C735 H730 0.950 . S
C735 C737 1.327 . S
C735 C741 1.429 . S
C736 C728 1.574 . S
C736 H731 0.949 . S
C736 C742 1.368 . S
C737 C721 1.349 . S
C737 H729 0.950 . S
C737 C735 1.327 . S
C738 C726 1.349 . S
C738 H732 0.950 . S
C738 C739 1.327 . S
C739 H733 0.950 . S
C739 C738 1.327 . S
C739 C743 1.429 . S
C740 C723 1.574 . S
C740 H734 0.949 . S
C740 C744 1.368 . S
C741 C722 1.429 . S
C741 C735 1.429 . S
C741 C742 1.523 . S
C742 C723 1.368 . S
C742 C736 1.368 . S
C742 C741 1.523 . S
C743 C727 1.429 . S
C743 C739 1.429 . S
C743 C744 1.523 . S
C744 C728 1.368 . S
C744 C740 1.368 . S
C744 C743 1.523 . S
H745 C720 0.950 . S
H746 C722 0.950 . S
H747 C723 0.949 . S
H748 C725 0.950 1_565 S
H749 C727 0.982 . S
C750 C751 1.349 . S
C750 C752 1.327 . S
C750 H775 0.950 . S
C751 C750 1.349 . S
C751 C767 1.349 . S
C752 C750 1.327 . S
C752 C771 1.429 . S
C752 H776 0.950 . S
C753 C770 1.574 . S
C753 C772 1.368 . S
C753 H777 0.949 . S
H754 C758 0.949 . S
C755 C756 1.349 . S
C755 C757 1.327 . S
C755 H778 0.950 . S
C756 C755 1.349 . S
C756 C768 1.349 . S
C757 C755 1.327 . S
C757 C773 1.429 . S
C757 H779 0.950 . S
C758 H754 0.949 . S
C758 C766 1.574 . S
C758 C774 1.368 . S
H759 C767 0.950 . S
H760 C765 0.950 . S
H761 C766 0.949 . S
H762 C768 0.950 . S
H763 C769 0.950 . S
H764 C770 0.949 . S
C765 H760 0.950 . S
C765 C767 1.327 . S
C765 C771 1.429 . S
C766 C758 1.574 . S
C766 H761 0.949 . S
C766 C772 1.368 . S
C767 C751 1.349 . S
C767 H759 0.950 . S
C767 C765 1.327 . S
C768 C756 1.349 . S
C768 H762 0.950 . S
C768 C769 1.327 . S
C769 H763 0.950 . S
C769 C768 1.327 . S
C769 C773 1.429 . S
C770 C753 1.574 . S
C770 H764 0.949 . S
C770 C774 1.368 . S
C771 C752 1.429 . S
C771 C765 1.429 . S
C771 C772 1.523 . S
C772 C753 1.368 . S
C772 C766 1.368 . S
C772 C771 1.523 . S
C773 C757 1.429 . S
C773 C769 1.429 . S
C773 C774 1.523 . S
C774 C758 1.368 . S
C774 C770 1.368 . S
C774 C773 1.523 . S
H775 C750 0.950 . S
H776 C752 0.950 . S
H777 C753 0.949 . S
H778 C755 0.950 . S
H779 C757 0.950 . S
C780 C781 1.349 . S
C780 C782 1.327 . S
C780 H805 0.950 . S
C781 C780 1.349 . S
C781 C797 1.349 . S
C782 C780 1.327 . S
C782 C801 1.429 . S
C782 H806 0.950 . S
C783 C800 1.574 . S
C783 C802 1.368 . S
C783 H807 0.949 . S
H784 C788 0.949 . S
C785 C786 1.349 . S
C785 C787 1.327 . S
C785 H808 0.950 . S
C786 C785 1.349 . S
C786 C798 1.349 . S
C787 C785 1.327 . S
C787 C803 1.429 . S
C787 H809 0.950 . S
C788 H784 0.949 . S
C788 C796 1.574 . S
C788 C804 1.368 . S
H789 C797 0.950 . S
H790 C795 0.950 . S
H791 C796 0.949 . S
H792 C798 0.950 . S
H793 C799 0.950 . S
H794 C800 0.949 . S
C795 H790 0.950 . S
C795 C797 1.327 . S
C795 C801 1.429 . S
C796 C788 1.574 . S
C796 H791 0.949 . S
C796 C802 1.368 . S
C797 C781 1.349 . S
C797 H789 0.950 . S
C797 C795 1.327 . S
C798 C786 1.349 . S
C798 H792 0.950 . S
C798 C799 1.327 . S
C799 H793 0.950 . S
C799 C798 1.327 . S
C799 C803 1.429 . S
C800 C783 1.574 . S
C800 H794 0.949 . S
C800 C804 1.368 . S
C801 C782 1.429 . S
C801 C795 1.429 . S
C801 C802 1.523 . S
C802 C783 1.368 . S
C802 C796 1.368 . S
C802 C801 1.523 . S
C803 C787 1.429 . S
C803 C799 1.429 . S
C803 C804 1.523 . S
C804 C788 1.368 . S
C804 C800 1.368 . S
C804 C803 1.523 . S
H805 C780 0.950 . S
H806 C782 0.950 . S
H807 C783 0.949 . S
H808 C785 0.950 . S
H809 C787 0.950 . S
C810 C811 1.349 . S
C810 C812 1.327 . S
C810 H835 0.950 . S
C811 C810 1.349 . S
C811 C827 1.349 . S
C812 C810 1.327 . S
C812 C831 1.429 . S
C812 H836 0.950 . S
C813 C830 1.574 . S
C813 C832 1.368 . S
C813 H837 0.949 . S
H814 C818 0.949 . S
C815 C816 1.349 . S
C815 C817 1.327 . S
C815 H838 0.950 . S
C816 C815 1.349 . S
C816 C828 1.349 . S
C817 C815 1.327 . S
C817 C833 1.429 . S
C817 H839 0.950 . S
C818 H814 0.949 . S
C818 C826 1.574 . S
C818 C834 1.368 . S
H819 C827 0.950 . S
H820 C825 0.950 . S
H821 C826 0.949 . S
H822 C828 0.950 . S
H823 C829 0.950 . S
H824 C830 0.949 . S
C825 H820 0.950 . S
C825 C827 1.327 . S
C825 C831 1.429 . S
C826 C818 1.574 . S
C826 H821 0.949 . S
C826 C832 1.368 . S
C827 C811 1.349 . S
C827 H819 0.950 . S
C827 C825 1.327 . S
C828 C816 1.349 . S
C828 H822 0.950 . S
C828 C829 1.327 . S
C829 H823 0.950 . S
C829 C828 1.327 . S
C829 C833 1.429 . S
C830 C813 1.574 . S
C830 H824 0.949 . S
C830 C834 1.368 . S
C831 C812 1.429 . S
C831 C825 1.429 . S
C831 C832 1.523 . S
C832 C813 1.368 . S
C832 C826 1.368 . S
C832 C831 1.523 . S
C833 C817 1.429 . S
C833 C829 1.429 . S
C833 C834 1.523 . S
C834 C818 1.368 . S
C834 C830 1.368 . S
C834 C833 1.523 . S
H835 C810 0.950 . S
H836 C812 0.950 . S
H837 C813 0.949 . S
H838 C815 0.950 . S
H839 C817 0.950 . S
C840 C841 1.349 . S
C840 C842 1.327 . S
C840 H865 0.950 . S
C841 C840 1.349 . S
C841 C857 1.349 . S
C842 C840 1.327 . S
C842 C861 1.429 . S
C842 H866 0.950 . S
C843 C860 1.574 . S
C843 C862 1.368 . S
C843 H867 0.949 . S
H844 C848 0.949 . S
C845 C846 1.349 . S
C845 C847 1.327 . S
C845 H868 0.950 1_554 S
C846 C845 1.349 . S
C846 C858 1.349 . S
C847 C845 1.327 . S
C847 C863 1.429 . S
C847 H869 0.950 . S
C848 H844 0.949 . S
C848 C856 1.574 . S
C848 C864 1.368 . S
H849 C857 0.950 . S
H850 C855 0.950 . S
H851 C856 0.949 . S
H852 C858 0.950 . S
H853 C859 0.950 . S
H854 C860 0.949 . S
C855 H850 0.950 . S
C855 C857 1.327 . S
C855 C861 1.429 . S
C856 C848 1.574 . S
C856 H851 0.949 . S
C856 C862 1.368 . S
C857 C841 1.349 . S
C857 H849 0.950 . S
C857 C855 1.327 . S
C858 C846 1.349 . S
C858 H852 0.950 . S
C858 C859 1.327 . S
C859 H853 0.950 . S
C859 C858 1.327 . S
C859 C863 1.429 . S
C860 C843 1.574 . S
C860 H854 0.949 . S
C860 C864 1.368 . S
C861 C842 1.429 . S
C861 C855 1.429 . S
C861 C862 1.523 . S
C862 C843 1.368 . S
C862 C856 1.368 . S
C862 C861 1.523 . S
C863 C847 1.429 . S
C863 C859 1.429 . S
C863 C864 1.523 . S
C864 C848 1.368 . S
C864 C860 1.368 . S
C864 C863 1.523 . S
H865 C840 0.950 . S
H866 C842 0.950 . S
H867 C843 0.949 . S
H868 C845 0.950 1_556 S
H869 C847 0.950 . S
C870 C871 1.349 . S
C870 C872 1.327 . S
C870 H895 0.950 . S
C871 C870 1.349 . S
C871 C887 1.349 . S
C872 C870 1.327 . S
C872 C891 1.429 . S
C872 H896 0.950 . S
C873 C890 1.574 . S
C873 C892 1.368 . S
C873 H897 0.949 . S
H874 C878 0.949 . S
C875 C876 1.349 . S
C875 C877 1.327 . S
C875 H898 0.950 . S
C876 C875 1.349 . S
C876 C888 1.349 . S
C877 C875 1.327 . S
C877 C893 1.429 . S
C877 H899 0.950 . S
C878 H874 0.949 . S
C878 C886 1.574 . S
C878 C894 1.368 . S
H879 C887 0.950 . S
H880 C885 0.950 . S
H881 C886 0.949 . S
H882 C888 0.950 . S
H883 C889 0.950 . S
H884 C890 0.949 . S
C885 H880 0.950 . S
C885 C887 1.327 . S
C885 C891 1.429 . S
C886 C878 1.574 . S
C886 H881 0.949 . S
C886 C892 1.368 . S
C887 C871 1.349 . S
C887 H879 0.950 . S
C887 C885 1.327 . S
C888 C876 1.349 . S
C888 H882 0.950 . S
C888 C889 1.327 . S
C889 H883 0.950 . S
C889 C888 1.327 . S
C889 C893 1.429 . S
C890 C873 1.574 . S
C890 H884 0.949 . S
C890 C894 1.368 . S
C891 C872 1.429 . S
C891 C885 1.429 . S
C891 C892 1.523 . S
C892 C873 1.368 . S
C892 C886 1.368 . S
C892 C891 1.523 . S
C893 C877 1.429 . S
C893 C889 1.429 . S
C893 C894 1.523 . S
C894 C878 1.368 . S
C894 C890 1.368 . S
C894 C893 1.523 . S
H895 C870 0.950 . S
H896 C872 0.950 . S
H897 C873 0.949 . S
H898 C875 0.950 . S
H899 C877 0.950 . S
C900 C901 1.349 . S
C900 C902 1.327 . S
C900 H925 0.950 . S
C901 C900 1.349 . S
C901 C917 1.349 . S
C902 C900 1.327 . S
C902 C921 1.429 . S
C902 H926 0.950 . S
C903 C920 1.574 . S
C903 C922 1.368 . S
C903 H927 0.949 . S
H904 C908 0.949 . S
C905 C906 1.349 . S
C905 C907 1.327 . S
C905 H928 0.950 1_655 S
C906 C905 1.349 . S
C906 C918 1.349 . S
C907 C905 1.327 . S
C907 C923 1.429 . S
C907 H929 0.950 . S
C908 H904 0.949 . S
C908 C916 1.574 . S
C908 C924 1.368 . S
H909 C917 0.950 . S
H910 C915 0.950 . S
H911 C916 0.949 . S
H912 C918 0.950 . S
H913 C919 0.950 . S
H914 C920 0.949 . S
C915 H910 0.950 . S
C915 C917 1.327 . S
C915 C921 1.429 . S
C916 C908 1.574 . S
C916 H911 0.949 . S
C916 C922 1.368 . S
C917 C901 1.349 . S
C917 H909 0.950 . S
C917 C915 1.327 . S
C918 C906 1.349 . S
C918 H912 0.950 . S
C918 C919 1.327 . S
C919 H913 0.950 . S
C919 C918 1.327 . S
C919 C923 1.429 . S
C920 C903 1.574 . S
C920 H914 0.949 . S
C920 C924 1.368 . S
C921 C902 1.429 . S
C921 C915 1.429 . S
C921 C922 1.523 . S
C922 C903 1.368 . S
C922 C916 1.368 . S
C922 C921 1.523 . S
C923 C907 1.429 . S
C923 C919 1.429 . S
C923 C924 1.523 . S
C924 C908 1.368 . S
C924 C920 1.368 . S
C924 C923 1.523 . S
H925 C900 0.950 . S
H926 C902 0.950 . S
H927 C903 0.949 . S
H928 C905 0.950 1_455 S
H929 C907 0.950 . S
C930 C931 1.349 . S
C930 C932 1.327 . S
C930 H955 0.950 . S
C931 C930 1.349 . S
C931 C947 1.349 . S
C932 C930 1.327 . S
C932 C951 1.429 . S
C932 H956 0.950 . S
C933 C950 1.574 . S
C933 C952 1.368 . S
C933 H957 0.949 . S
H934 C938 0.949 . S
C935 C936 1.349 . S
C935 C937 1.327 . S
C935 H958 0.950 . S
C936 C935 1.349 . S
C936 C948 1.349 . S
C937 C935 1.327 . S
C937 C953 1.429 . S
C937 H959 0.950 . S
C938 H934 0.949 . S
C938 C946 1.574 . S
C938 C954 1.368 . S
H939 C947 0.950 . S
H940 C945 0.950 . S
H941 C946 0.949 . S
H942 C948 0.950 . S
H943 C949 0.950 . S
H944 C950 0.949 . S
C945 H940 0.950 . S
C945 C947 1.327 . S
C945 C951 1.429 . S
C946 C938 1.574 . S
C946 H941 0.949 . S
C946 C952 1.368 . S
C947 C931 1.349 . S
C947 H939 0.950 . S
C947 C945 1.327 . S
C948 C936 1.349 . S
C948 H942 0.950 . S
C948 C949 1.327 . S
C949 H943 0.950 . S
C949 C948 1.327 . S
C949 C953 1.429 . S
C950 C933 1.574 . S
C950 H944 0.949 . S
C950 C954 1.368 . S
C951 C932 1.429 . S
C951 C945 1.429 . S
C951 C952 1.523 . S
C952 C933 1.368 . S
C952 C946 1.368 . S
C952 C951 1.523 . S
C953 C937 1.429 . S
C953 C949 1.429 . S
C953 C954 1.523 . S
C954 C938 1.368 . S
C954 C950 1.368 . S
C954 C953 1.523 . S
H955 C930 0.950 . S
H956 C932 0.950 . S
H957 C933 0.949 . S
H958 C935 0.950 . S
H959 C937 0.950 . S
C960 C961 1.349 . S
C960 C962 1.327 . S
C960 H985 0.950 . S
C961 C960 1.349 . S
C961 C977 1.349 . S
C962 C960 1.327 . S
C962 C981 1.429 . S
C962 H986 0.950 . S
C963 C980 1.574 . S
C963 C982 1.368 . S
C963 H987 0.949 . S
H964 C968 0.949 . S
C965 C966 1.349 . S
C965 C967 1.327 . S
C965 H988 0.950 1_655 S
C966 C965 1.349 . S
C966 C978 1.349 . S
C967 C965 1.327 . S
C967 C983 1.429 . S
C967 H989 0.950 . S
C968 H964 0.949 . S
C968 C976 1.574 . S
C968 C984 1.368 . S
H969 C977 0.950 . S
H970 C975 0.950 . S
H971 C976 0.949 . S
H972 C978 0.950 . S
H973 C979 0.950 . S
H974 C980 0.949 . S
C975 H970 0.950 . S
C975 C977 1.327 . S
C975 C981 1.429 . S
C976 C968 1.574 . S
C976 H971 0.949 . S
C976 C982 1.368 . S
C977 C961 1.349 . S
C977 H969 0.950 . S
C977 C975 1.327 . S
C978 C966 1.349 . S
C978 H972 0.950 . S
C978 C979 1.327 . S
C979 H973 0.950 . S
C979 C978 1.327 . S
C979 C983 1.429 . S
C980 C963 1.574 . S
C980 H974 0.949 . S
C980 C984 1.368 . S
C981 C962 1.429 . S
C981 C975 1.429 . S
C981 C982 1.523 . S
C982 C963 1.368 . S
C982 C976 1.368 . S
C982 C981 1.523 . S
C983 C967 1.429 . S
C983 C979 1.429 . S
C983 C984 1.523 . S
C984 C968 1.368 . S
C984 C980 1.368 . S
C984 C983 1.523 . S
H985 C960 0.950 . S
H986 C962 0.950 . S
H987 C963 0.949 . S
H988 C965 0.950 1_455 S
H989 C967 0.950 . S
C990 C991 1.349 . S
C990 C992 1.327 . S
C990 H1015 0.950 . S
C991 C990 1.349 . S
C991 C1007 1.349 . S
C992 C990 1.327 . S
C992 C1011 1.429 . S
C992 H1016 0.950 . S
C993 C1010 1.574 . S
C993 C1012 1.368 . S
C993 H1017 0.949 . S
H994 C998 0.949 . S
C995 C996 1.349 . S
C995 C997 1.327 . S
C995 H1018 0.950 . S
C996 C995 1.349 . S
C996 C1008 1.349 . S
C997 C995 1.327 . S
C997 C1013 1.429 . S
C997 H1019 0.950 . S
C998 H994 0.949 . S
C998 C1006 1.574 . S
C998 C1014 1.368 . S
H999 C1007 0.950 . S
H1000 C1005 0.950 . S
H1001 C1006 0.949 . S
H1002 C1008 0.950 . S
H1003 C1009 0.950 . S
H1004 C1010 0.949 . S
C1005 H1000 0.950 . S
C1005 C1007 1.327 . S
C1005 C1011 1.429 . S
C1006 C998 1.574 . S
C1006 H1001 0.949 . S
C1006 C1012 1.368 . S
C1007 C991 1.349 . S
C1007 H999 0.950 . S
C1007 C1005 1.327 . S
C1008 C996 1.349 . S
C1008 H1002 0.950 . S
C1008 C1009 1.327 . S
C1009 H1003 0.950 . S
C1009 C1008 1.327 . S
C1009 C1013 1.429 . S
C1010 C993 1.574 . S
C1010 H1004 0.949 . S
C1010 C1014 1.368 . S
C1011 C992 1.429 . S
C1011 C1005 1.429 . S
C1011 C1012 1.523 . S
C1012 C993 1.368 . S
C1012 C1006 1.368 . S
C1012 C1011 1.523 . S
C1013 C997 1.429 . S
C1013 C1009 1.429 . S
C1013 C1014 1.523 . S
C1014 C998 1.368 . S
C1014 C1010 1.368 . S
C1014 C1013 1.523 . S
H1015 C990 0.950 . S
H1016 C992 0.950 . S
H1017 C993 0.949 . S
H1018 C995 0.950 . S
H1019 C997 0.950 . S
C1020 C1021 1.349 . S
C1020 C1022 1.327 . S
C1020 H1045 0.950 . S
C1021 C1020 1.349 . S
C1021 C1037 1.349 . S
C1022 C1020 1.327 . S
C1022 C1041 1.429 . S
C1022 H1046 0.950 . S
C1023 C1040 1.574 . S
C1023 C1042 1.368 . S
C1023 H1047 0.949 . S
H1024 C1028 0.949 . S
C1025 C1026 1.349 . S
C1025 C1027 1.327 . S
C1025 H1048 0.950 . S
C1026 C1025 1.349 . S
C1026 C1038 1.349 . S
C1027 C1025 1.327 . S
C1027 C1043 1.429 . S
C1027 H1049 0.950 . S
C1028 H1024 0.949 . S
C1028 C1036 1.574 . S
C1028 C1044 1.368 . S
H1029 C1037 0.950 . S
H1030 C1035 0.950 . S
H1031 C1036 0.949 . S
H1032 C1038 0.950 . S
H1033 C1039 0.950 . S
H1034 C1040 0.949 . S
C1035 H1030 0.950 . S
C1035 C1037 1.327 . S
C1035 C1041 1.429 . S
C1036 C1028 1.574 . S
C1036 H1031 0.949 . S
C1036 C1042 1.368 . S
C1037 C1021 1.349 . S
C1037 H1029 0.950 . S
C1037 C1035 1.327 . S
C1038 C1026 1.349 . S
C1038 H1032 0.950 . S
C1038 C1039 1.327 . S
C1039 H1033 0.950 . S
C1039 C1038 1.327 . S
C1039 C1043 1.429 . S
C1040 C1023 1.574 . S
C1040 H1034 0.949 . S
C1040 C1044 1.368 . S
C1041 C1022 1.429 . S
C1041 C1035 1.429 . S
C1041 C1042 1.523 . S
C1042 C1023 1.368 . S
C1042 C1036 1.368 . S
C1042 C1041 1.523 . S
C1043 C1027 1.429 . S
C1043 C1039 1.429 . S
C1043 C1044 1.523 . S
C1044 C1028 1.368 . S
C1044 C1040 1.368 . S
C1044 C1043 1.523 . S
H1045 C1020 0.950 . S
H1046 C1022 0.950 . S
H1047 C1023 0.949 . S
H1048 C1025 0.950 . S
H1049 C1027 0.950 . S
C1050 C1051 1.349 . S
C1050 C1052 1.327 . S
C1050 H1075 0.950 . S
C1051 C1050 1.349 . S
C1051 C1067 1.349 . S
C1052 C1050 1.327 . S
C1052 C1071 1.429 . S
C1052 H1076 0.950 . S
C1053 C1070 1.574 . S
C1053 C1072 1.368 . S
C1053 H1077 0.949 . S
H1054 C1058 0.949 . S
C1055 C1056 1.349 . S
C1055 C1057 1.327 . S
C1055 H1078 0.950 . S
C1056 C1055 1.349 . S
C1056 C1068 1.349 . S
C1057 C1055 1.327 . S
C1057 C1073 1.429 . S
C1057 H1079 0.950 . S
C1058 H1054 0.949 . S
C1058 C1066 1.574 . S
C1058 C1074 1.368 . S
H1059 C1067 0.950 . S
H1060 C1065 0.950 . S
H1061 C1066 0.949 . S
H1062 C1068 0.950 . S
H1063 C1069 0.950 . S
H1064 C1070 0.949 . S
C1065 H1060 0.950 . S
C1065 C1067 1.327 . S
C1065 C1071 1.429 . S
C1066 C1058 1.574 . S
C1066 H1061 0.949 . S
C1066 C1072 1.368 . S
C1067 C1051 1.349 . S
C1067 H1059 0.950 . S
C1067 C1065 1.327 . S
C1068 C1056 1.349 . S
C1068 H1062 0.950 . S
C1068 C1069 1.327 . S
C1069 H1063 0.950 . S
C1069 C1068 1.327 . S
C1069 C1073 1.429 . S
C1070 C1053 1.574 . S
C1070 H1064 0.949 . S
C1070 C1074 1.368 . S
C1071 C1052 1.429 . S
C1071 C1065 1.429 . S
C1071 C1072 1.523 . S
C1072 C1053 1.368 . S
C1072 C1066 1.368 . S
C1072 C1071 1.523 . S
C1073 C1057 1.429 . S
C1073 C1069 1.429 . S
C1073 C1074 1.523 . S
C1074 C1058 1.368 . S
C1074 C1070 1.368 . S
C1074 C1073 1.523 . S
H1075 C1050 0.950 . S
H1076 C1052 0.950 . S
H1077 C1053 0.949 . S
H1078 C1055 0.950 . S
H1079 C1057 0.950 . S
C1080 C1081 1.349 . S
C1080 C1082 1.327 . S
C1080 H1105 0.950 . S
C1081 C1080 1.349 . S
C1081 C1097 1.349 . S
C1082 C1080 1.327 . S
C1082 C1101 1.429 . S
C1082 H1106 0.950 . S
C1083 C1100 1.574 . S
C1083 C1102 1.368 . S
C1083 H1107 0.949 . S
H1084 C1088 0.949 . S
C1085 C1086 1.349 . S
C1085 C1087 1.327 . S
C1085 H1108 0.950 1_565 S
C1086 C1085 1.349 . S
C1086 C1098 1.349 . S
C1087 C1085 1.327 . S
C1087 C1103 1.429 . S
C1087 H1109 0.950 . S
C1088 H1084 0.949 . S
C1088 C1096 1.574 . S
C1088 C1104 1.368 . S
H1089 C1097 0.950 . S
H1090 C1095 0.950 . S
H1091 C1096 0.949 . S
H1092 C1098 0.982 . S
H1093 C1099 0.950 . S
H1094 C1100 0.949 . S
C1095 H1090 0.950 . S
C1095 C1097 1.327 . S
C1095 C1101 1.429 . S
C1096 C1088 1.574 . S
C1096 H1091 0.949 . S
C1096 C1102 1.368 . S
C1097 C1081 1.349 . S
C1097 H1089 0.950 . S
C1097 C1095 1.327 . S
C1098 C1086 1.349 . S
C1098 H1092 0.982 . S
C1098 C1099 1.327 . S
C1099 H1093 0.950 . S
C1099 C1098 1.327 . S
C1099 C1103 1.429 . S
C1100 C1083 1.574 . S
C1100 H1094 0.949 . S
C1100 C1104 1.368 . S
C1101 C1082 1.429 . S
C1101 C1095 1.429 . S
C1101 C1102 1.523 . S
C1102 C1083 1.368 . S
C1102 C1096 1.368 . S
C1102 C1101 1.523 . S
C1103 C1087 1.429 . S
C1103 C1099 1.429 . S
C1103 C1104 1.523 . S
C1104 C1088 1.368 . S
C1104 C1100 1.368 . S
C1104 C1103 1.523 . S
H1105 C1080 0.950 . S
H1106 C1082 0.950 . S
H1107 C1083 0.949 . S
H1108 C1085 0.950 1_545 S
H1109 C1087 0.950 . S
C1110 C1111 1.349 . S
C1110 C1112 1.327 . S
C1110 H1135 0.950 . S
C1111 C1110 1.349 . S
C1111 C1127 1.349 . S
C1112 C1110 1.327 . S
C1112 C1131 1.429 . S
C1112 H1136 0.950 . S
C1113 C1130 1.574 . S
C1113 C1132 1.368 . S
C1113 H1137 0.949 . S
H1114 C1118 0.949 . S
C1115 C1116 1.349 . S
C1115 C1117 1.327 . S
C1115 H1138 0.950 . S
C1116 C1115 1.349 . S
C1116 C1128 1.349 . S
C1117 C1115 1.327 . S
C1117 C1133 1.429 . S
C1117 H1139 0.950 . S
C1118 H1114 0.949 . S
C1118 C1126 1.574 . S
C1118 C1134 1.368 . S
H1119 C1127 0.950 . S
H1120 C1125 0.950 . S
H1121 C1126 0.949 . S
H1122 C1128 0.950 . S
H1123 C1129 0.950 . S
H1124 C1130 0.949 . S
C1125 H1120 0.950 . S
C1125 C1127 1.327 . S
C1125 C1131 1.429 . S
C1126 C1118 1.574 . S
C1126 H1121 0.949 . S
C1126 C1132 1.368 . S
C1127 C1111 1.349 . S
C1127 H1119 0.950 . S
C1127 C1125 1.327 . S
C1128 C1116 1.349 . S
C1128 H1122 0.950 . S
C1128 C1129 1.327 . S
C1129 H1123 0.950 . S
C1129 C1128 1.327 . S
C1129 C1133 1.429 . S
C1130 C1113 1.574 . S
C1130 H1124 0.949 . S
C1130 C1134 1.368 . S
C1131 C1112 1.429 . S
C1131 C1125 1.429 . S
C1131 C1132 1.523 . S
C1132 C1113 1.368 . S
C1132 C1126 1.368 . S
C1132 C1131 1.523 . S
C1133 C1117 1.429 . S
C1133 C1129 1.429 . S
C1133 C1134 1.523 . S
C1134 C1118 1.368 . S
C1134 C1130 1.368 . S
C1134 C1133 1.523 . S
H1135 C1110 0.950 . S
H1136 C1112 0.950 . S
H1137 C1113 0.949 . S
H1138 C1115 0.950 . S
H1139 C1117 0.950 . S
C1140 C1141 1.349 . S
C1140 C1142 1.327 . S
C1140 H1165 0.950 . S
C1141 C1140 1.349 . S
C1141 C1157 1.349 . S
C1142 C1140 1.327 . S
C1142 C1161 1.429 . S
C1142 H1166 0.950 . S
C1143 C1160 1.574 . S
C1143 C1162 1.368 . S
C1143 H1167 0.949 . S
H1144 C1148 0.949 . S
C1145 C1146 1.349 . S
C1145 C1147 1.327 . S
C1145 H1168 0.950 . S
C1146 C1145 1.349 . S
C1146 C1158 1.349 . S
C1147 C1145 1.327 . S
C1147 C1163 1.429 . S
C1147 H1169 0.950 . S
C1148 H1144 0.949 . S
C1148 C1156 1.574 . S
C1148 C1164 1.368 . S
H1149 C1157 0.950 . S
H1150 C1155 0.950 . S
H1151 C1156 0.949 . S
H1152 C1158 0.950 1_556 S
H1153 C1159 0.950 . S
H1154 C1160 0.949 . S
C1155 H1150 0.950 . S
C1155 C1157 1.327 . S
C1155 C1161 1.429 . S
C1156 C1148 1.574 . S
C1156 H1151 0.949 . S
C1156 C1162 1.368 . S
C1157 C1141 1.349 . S
C1157 H1149 0.950 . S
C1157 C1155 1.327 . S
C1158 C1146 1.349 . S
C1158 H1152 0.950 1_554 S
C1158 C1159 1.327 . S
C1159 H1153 0.950 . S
C1159 C1158 1.327 . S
C1159 C1163 1.429 . S
C1160 C1143 1.574 . S
C1160 H1154 0.949 . S
C1160 C1164 1.368 . S
C1161 C1142 1.429 . S
C1161 C1155 1.429 . S
C1161 C1162 1.523 . S
C1162 C1143 1.368 . S
C1162 C1156 1.368 . S
C1162 C1161 1.523 . S
C1163 C1147 1.429 . S
C1163 C1159 1.429 . S
C1163 C1164 1.523 . S
C1164 C1148 1.368 . S
C1164 C1160 1.368 . S
C1164 C1163 1.523 . S
H1165 C1140 0.950 . S
H1166 C1142 0.950 . S
H1167 C1143 0.949 . S
H1168 C1145 0.950 . S
H1169 C1147 0.950 . S
C1170 C1171 1.349 . S
C1170 C1172 1.327 . S
C1170 H1195 0.950 . S
C1171 C1170 1.349 . S
C1171 C1187 1.349 . S
C1172 C1170 1.327 . S
C1172 C1191 1.429 . S
C1172 H1196 0.950 . S
C1173 C1190 1.574 . S
C1173 C1192 1.368 . S
C1173 H1197 0.949 . S
H1174 C1178 0.949 . S
C1175 C1176 1.349 . S
C1175 C1177 1.327 . S
C1175 H1198 0.950 . S
C1176 C1175 1.349 . S
C1176 C1188 1.349 . S
C1177 C1175 1.327 . S
C1177 C1193 1.429 . S
C1177 H1199 0.950 . S
C1178 H1174 0.949 . S
C1178 C1186 1.574 . S
C1178 C1194 1.368 . S
H1179 C1187 0.950 . S
H1180 C1185 0.950 . S
H1181 C1186 0.949 . S
H1182 C1188 0.950 . S
H1183 C1189 0.950 . S
H1184 C1190 0.949 . S
C1185 H1180 0.950 . S
C1185 C1187 1.327 . S
C1185 C1191 1.429 . S
C1186 C1178 1.574 . S
C1186 H1181 0.949 . S
C1186 C1192 1.368 . S
C1187 C1171 1.349 . S
C1187 H1179 0.950 . S
C1187 C1185 1.327 . S
C1188 C1176 1.349 . S
C1188 H1182 0.950 . S
C1188 C1189 1.327 . S
C1189 H1183 0.950 . S
C1189 C1188 1.327 . S
C1189 C1193 1.429 . S
C1190 C1173 1.574 . S
C1190 H1184 0.949 . S
C1190 C1194 1.368 . S
C1191 C1172 1.429 . S
C1191 C1185 1.429 . S
C1191 C1192 1.523 . S
C1192 C1173 1.368 . S
C1192 C1186 1.368 . S
C1192 C1191 1.523 . S
C1193 C1177 1.429 . S
C1193 C1189 1.429 . S
C1193 C1194 1.523 . S
C1194 C1178 1.368 . S
C1194 C1190 1.368 . S
C1194 C1193 1.523 . S
H1195 C1170 0.950 . S
H1196 C1172 0.950 . S
H1197 C1173 0.949 . S
H1198 C1175 0.950 . S
H1199 C1177 0.950 . S
C1200 C1201 1.349 . S
C1200 C1202 1.327 . S
C1200 H1225 0.950 . S
C1201 C1200 1.349 . S
C1201 C1217 1.349 . S
C1202 C1200 1.327 . S
C1202 C1221 1.429 . S
C1202 H1226 0.950 . S
C1203 C1220 1.574 . S
C1203 C1222 1.368 . S
C1203 H1227 0.949 . S
H1204 C1208 0.949 . S
C1205 C1206 1.349 . S
C1205 C1207 1.327 . S
C1205 H1228 0.950 . S
C1206 C1205 1.349 . S
C1206 C1218 1.349 . S
C1207 C1205 1.327 . S
C1207 C1223 1.429 . S
C1207 H1229 0.950 . S
C1208 H1204 0.949 . S
C1208 C1216 1.574 . S
C1208 C1224 1.368 . S
H1209 C1217 0.950 . S
H1210 C1215 0.950 . S
H1211 C1216 0.949 . S
H1212 C1218 0.950 1_554 S
H1213 C1219 0.950 . S
H1214 C1220 0.949 . S
C1215 H1210 0.950 . S
C1215 C1217 1.327 . S
C1215 C1221 1.429 . S
C1216 C1208 1.574 . S
C1216 H1211 0.949 . S
C1216 C1222 1.368 . S
C1217 C1201 1.349 . S
C1217 H1209 0.950 . S
C1217 C1215 1.327 . S
C1218 C1206 1.349 . S
C1218 H1212 0.950 1_556 S
C1218 C1219 1.327 . S
C1219 H1213 0.950 . S
C1219 C1218 1.327 . S
C1219 C1223 1.429 . S
C1220 C1203 1.574 . S
C1220 H1214 0.949 . S
C1220 C1224 1.368 . S
C1221 C1202 1.429 . S
C1221 C1215 1.429 . S
C1221 C1222 1.523 . S
C1222 C1203 1.368 . S
C1222 C1216 1.368 . S
C1222 C1221 1.523 . S
C1223 C1207 1.429 . S
C1223 C1219 1.429 . S
C1223 C1224 1.523 . S
C1224 C1208 1.368 . S
C1224 C1220 1.368 . S
C1224 C1223 1.523 . S
H1225 C1200 0.950 . S
H1226 C1202 0.950 . S
H1227 C1203 0.949 . S
H1228 C1205 0.950 . S
H1229 C1207 0.950 . S
C1230 C1231 1.349 . S
C1230 C1232 1.327 . S
C1230 H1255 0.950 . S
C1231 C1230 1.349 . S
C1231 C1247 1.349 . S
C1232 C1230 1.327 . S
C1232 C1251 1.429 . S
C1232 H1256 0.950 . S
C1233 C1250 1.574 . S
C1233 C1252 1.368 . S
C1233 H1257 0.949 . S
H1234 C1238 0.949 . S
C1235 C1236 1.349 . S
C1235 C1237 1.327 . S
C1235 H1258 0.950 . S
C1236 C1235 1.349 . S
C1236 C1248 1.349 . S
C1237 C1235 1.327 . S
C1237 C1253 1.429 . S
C1237 H1259 0.950 . S
C1238 H1234 0.949 . S
C1238 C1246 1.574 . S
C1238 C1254 1.368 . S
H1239 C1247 0.950 . S
H1240 C1245 0.950 . S
H1241 C1246 0.949 . S
H1242 C1248 0.950 1_556 S
H1243 C1249 0.950 . S
H1244 C1250 0.949 . S
C1245 H1240 0.950 . S
C1245 C1247 1.327 . S
C1245 C1251 1.429 . S
C1246 C1238 1.574 . S
C1246 H1241 0.949 . S
C1246 C1252 1.368 . S
C1247 C1231 1.349 . S
C1247 H1239 0.950 . S
C1247 C1245 1.327 . S
C1248 C1236 1.349 . S
C1248 H1242 0.950 1_554 S
C1248 C1249 1.327 . S
C1249 H1243 0.950 . S
C1249 C1248 1.327 . S
C1249 C1253 1.429 . S
C1250 C1233 1.574 . S
C1250 H1244 0.949 . S
C1250 C1254 1.368 . S
C1251 C1232 1.429 . S
C1251 C1245 1.429 . S
C1251 C1252 1.523 . S
C1252 C1233 1.368 . S
C1252 C1246 1.368 . S
C1252 C1251 1.523 . S
C1253 C1237 1.429 . S
C1253 C1249 1.429 . S
C1253 C1254 1.523 . S
C1254 C1238 1.368 . S
C1254 C1250 1.368 . S
C1254 C1253 1.523 . S
H1255 C1230 0.950 . S
H1256 C1232 0.950 . S
H1257 C1233 0.949 . S
H1258 C1235 0.950 . S
H1259 C1237 0.950 . S
C1260 C1261 1.349 . S
C1260 C1262 1.327 . S
C1260 H1285 0.950 . S
C1261 C1260 1.349 . S
C1261 C1277 1.349 . S
C1262 C1260 1.327 . S
C1262 C1281 1.429 . S
C1262 H1286 0.950 . S
C1263 C1280 1.574 . S
C1263 C1282 1.368 . S
C1263 H1287 0.949 . S
H1264 C1268 0.949 . S
C1265 C1266 1.349 . S
C1265 C1267 1.327 . S
C1265 H1288 0.950 . S
C1266 C1265 1.349 . S
C1266 C1278 1.349 . S
C1267 C1265 1.327 . S
C1267 C1283 1.429 . S
C1267 H1289 0.950 . S
C1268 H1264 0.949 . S
C1268 C1276 1.574 . S
C1268 C1284 1.368 . S
H1269 C1277 0.950 . S
H1270 C1275 0.950 . S
H1271 C1276 0.949 . S
H1272 C1278 0.950 . S
H1273 C1279 0.950 . S
H1274 C1280 0.949 . S
C1275 H1270 0.950 . S
C1275 C1277 1.327 . S
C1275 C1281 1.429 . S
C1276 C1268 1.574 . S
C1276 H1271 0.949 . S
C1276 C1282 1.368 . S
C1277 C1261 1.349 . S
C1277 H1269 0.950 . S
C1277 C1275 1.327 . S
C1278 C1266 1.349 . S
C1278 H1272 0.950 . S
C1278 C1279 1.327 . S
C1279 H1273 0.950 . S
C1279 C1278 1.327 . S
C1279 C1283 1.429 . S
C1280 C1263 1.574 . S
C1280 H1274 0.949 . S
C1280 C1284 1.368 . S
C1281 C1262 1.429 . S
C1281 C1275 1.429 . S
C1281 C1282 1.523 . S
C1282 C1263 1.368 . S
C1282 C1276 1.368 . S
C1282 C1281 1.523 . S
C1283 C1267 1.429 . S
C1283 C1279 1.429 . S
C1283 C1284 1.523 . S
C1284 C1268 1.368 . S
C1284 C1280 1.368 . S
C1284 C1283 1.523 . S
H1285 C1260 0.950 . S
H1286 C1262 0.950 . S
H1287 C1263 0.949 . S
H1288 C1265 0.950 . S
H1289 C1267 0.950 . S
C1290 C1291 1.349 . S
C1290 C1292 1.327 . S
C1290 H1315 0.950 . S
C1291 C1290 1.349 . S
C1291 C1307 1.349 . S
C1292 C1290 1.327 . S
C1292 C1311 1.429 . S
C1292 H1316 0.950 . S
C1293 C1310 1.574 . S
C1293 C1312 1.368 . S
C1293 H1317 0.949 . S
H1294 C1298 0.949 . S
C1295 C1296 1.349 . S
C1295 C1297 1.327 . S
C1295 H1318 0.950 . S
C1296 C1295 1.349 . S
C1296 C1308 1.349 . S
C1297 C1295 1.327 . S
C1297 C1313 1.429 . S
C1297 H1319 0.950 . S
C1298 H1294 0.949 . S
C1298 C1306 1.574 . S
C1298 C1314 1.368 . S
H1299 C1307 0.950 . S
H1300 C1305 0.950 . S
H1301 C1306 0.949 . S
H1302 C1308 0.950 . S
H1303 C1309 0.950 . S
H1304 C1310 0.949 . S
C1305 H1300 0.950 . S
C1305 C1307 1.327 . S
C1305 C1311 1.429 . S
C1306 C1298 1.574 . S
C1306 H1301 0.949 . S
C1306 C1312 1.368 . S
C1307 C1291 1.349 . S
C1307 H1299 0.950 . S
C1307 C1305 1.327 . S
C1308 C1296 1.349 . S
C1308 H1302 0.950 . S
C1308 C1309 1.327 . S
C1309 H1303 0.950 . S
C1309 C1308 1.327 . S
C1309 C1313 1.429 . S
C1310 C1293 1.574 . S
C1310 H1304 0.949 . S
C1310 C1314 1.368 . S
C1311 C1292 1.429 . S
C1311 C1305 1.429 . S
C1311 C1312 1.523 . S
C1312 C1293 1.368 . S
C1312 C1306 1.368 . S
C1312 C1311 1.523 . S
C1313 C1297 1.429 . S
C1313 C1309 1.429 . S
C1313 C1314 1.523 . S
C1314 C1298 1.368 . S
C1314 C1310 1.368 . S
C1314 C1313 1.523 . S
H1315 C1290 0.950 . S
H1316 C1292 0.950 . S
H1317 C1293 0.949 . S
H1318 C1295 0.950 . S
H1319 C1297 0.950 . S
C601 C1 2.154 . S
C606 C496 2.184 . S
C631 C80 1.077 . S
C636 N516 1.080 . S
C666 C550 1.985 . S
C661 C140 1.928 . S
C691 C211 1.295 . S
C696 N584 1.273 . S
C726 C537 2.374 . S
C721 C31 2.352 . S
C756 N494 1.168 . S
C751 C61 1.163 . S
C786 C571 1.967 . S
C781 C151 1.899 . S
C816 N546 1.011 . S
C811 C200 0.990 . S
C841 C20 1.841 . S
C846 C586 1.856 . S
C876 C520 1.707 . S
C871 C121 1.642 . S
C901 C181 1.418 . S
C906 C481 1.487 . S
C931 C91 1.413 . S
C936 C567 1.468 . S
C966 C507 2.185 . S
C961 C260 2.171 . S
C991 C320 1.077 . S
C996 N524 1.077 . S
C1021 C361 1.971 . S
C1026 C541 1.985 . S
C1051 C451 1.295 . S
C1056 N576 1.274 . S
C1081 C271 2.353 . S
C1086 C526 2.375 . S
C1116 N486 1.168 . S
C1111 C301 1.161 . S
C1146 C580 1.967 . S
C1141 C380 1.939 . S
C1176 N554 1.011 . S
C1171 C440 0.990 . S
C1201 C241 1.826 . S
C1206 C597 1.856 . S
C1236 C511 1.707 . S
C1231 C391 1.689 . S
C1266 C490 1.483 . S
C1261 C421 1.415 . S
C1291 C331 1.413 . S
C1296 C556 1.468 . S
