# Generated by pormake.
# Topology rtl, (3,6)-cn, num edge types: 1
# Building blocks:
#     Node 0, Type 0, BuildingBlock: BELTOD_clean_linker_0, # of connection points: 3
#     Node 1, Type 0, BuildingBlock: BELTOD_clean_linker_0, # of connection points: 3
#     Node 2, Type 0, BuildingBlock: BELTOD_clean_linker_0, # of connection points: 3
#     Node 3, Type 0, BuildingBlock: BELTOD_clean_linker_0, # of connection points: 3
#     Node 4, Type 1, BuildingBlock: FUNLAD_clean_sbu_0, # of connection points: 6
#     Node 5, Type 1, BuildingBlock: FUNLAD_clean_sbu_0, # of connection points: 6
#     Edge 6, Type (0, 1), BuildingBlock: MIFKUJ_clean_linker_0, # of connection points: 2
#     Edge 7, Type (0, 1), BuildingBlock: MIFKUJ_clean_linker_0, # of connection points: 2
#     Edge 8, Type (0, 1), BuildingBlock: MIFKUJ_clean_linker_0, # of connection points: 2
#     Edge 9, Type (0, 1), BuildingBlock: MIFKUJ_clean_linker_0, # of connection points: 2
#     Edge 10, Type (0, 1), BuildingBlock: MIFKUJ_clean_linker_0, # of connection points: 2
#     Edge 11, Type (0, 1), BuildingBlock: MIFKUJ_clean_linker_0, # of connection points: 2
#     Edge 12, Type (0, 1), BuildingBlock: MIFKUJ_clean_linker_0, # of connection points: 2
#     Edge 13, Type (0, 1), BuildingBlock: MIFKUJ_clean_linker_0, # of connection points: 2
#     Edge 14, Type (0, 1), BuildingBlock: MIFKUJ_clean_linker_0, # of connection points: 2
#     Edge 15, Type (0, 1), BuildingBlock: MIFKUJ_clean_linker_0, # of connection points: 2
#     Edge 16, Type (0, 1), BuildingBlock: MIFKUJ_clean_linker_0, # of connection points: 2
#     Edge 17, Type (0, 1), BuildingBlock: MIFKUJ_clean_linker_0, # of connection points: 2
# Relax obj value: 0.024
# Max RMSD: 0.078
# Mean RMSD: 0.068
data_MOF--net-rtl--node1-FUNLAD_clean_sbu_0--node2-BELTOD_clean_linker_0--edge1-MIFKUJ_clean_linker_0
_symmetry_space_group_name_H-M    P1
_symmetry_Int_Tables_number       1
_symmetry_cell_setting            triclinic
loop_
_symmetry_equiv_pos_as_xyz
'x, y, z'
_cell_length_a     56.531142
_cell_length_b     46.983471
_cell_length_c     32.919709
_cell_angle_alpha  89.132555
_cell_angle_beta   90.941207
_cell_angle_gamma 90.605244
loop_
_atom_site_label
_atom_site_type_symbol
_atom_site_fract_x
_atom_site_fract_y
_atom_site_fract_z
_atom_type_partial_charge
P0 P 0.15194 0.80472 0.02439 0.0
H1 H 0.16292 0.82108 0.10726 0.0
H2 H 0.13848 0.82601 0.1671 0.0
H3 H 0.07923 0.78823 0.1023 0.0
H4 H 0.10397 0.78313 0.04243 0.0
H5 H 0.2021 0.80209 0.00655 0.0
H6 H 0.23009 0.76312 0.00528 0.0
H7 H 0.17415 0.7035 0.03554 0.0
H8 H 0.14593 0.74299 0.03654 0.0
H9 H 0.10971 0.83761 0.00663 0.0
H10 H 0.15412 0.77951 0.94316 0.0
O11 O 0.16773 0.83491 0.02605 0.0
H12 H 0.08731 0.84711 0.94405 0.0
H13 H 0.13175 0.78904 0.88021 0.0
C14 C 0.135 0.80267 0.07011 0.0
C15 C 0.14479 0.8134 0.10615 0.0
C16 C 0.13083 0.816 0.14045 0.0
C17 C 0.10683 0.80784 0.1392 0.0
C18 C 0.09757 0.7951 0.10388 0.0
C19 C 0.11166 0.79224 0.06967 0.0
C20 C 0.17207 0.77545 0.02243 0.0
C21 C 0.1958 0.7807 0.01309 0.0
C22 C 0.21182 0.75839 0.01248 0.0
C23 C 0.20438 0.73031 0.0209 0.0
C24 C 0.18037 0.72494 0.02898 0.0
C25 C 0.1643 0.74743 0.02977 0.0
C26 C 0.13323 0.80737 0.97981 0.0
C27 C 0.1142 0.82626 0.97947 0.0
C28 C 0.10138 0.83166 0.94366 0.0
C29 C 0.10769 0.8187 0.90725 0.0
C30 C 0.12651 0.79933 0.90783 0.0
C31 C 0.13921 0.79375 0.94385 0.0
P32 P 0.63875 0.71278 0.51068 0.0
H33 H 0.65295 0.70244 0.42793 0.0
H34 H 0.63038 0.69303 0.36554 0.0
H35 H 0.56554 0.71101 0.42745 0.0
H36 H 0.58826 0.72065 0.48974 0.0
H37 H 0.67153 0.73121 0.57361 0.0
H38 H 0.6993 0.77104 0.57851 0.0
H39 H 0.67538 0.80202 0.4606 0.0
H40 H 0.64665 0.76295 0.45713 0.0
H41 H 0.60817 0.66569 0.53335 0.0
H42 H 0.62644 0.74826 0.58101 0.0
O43 O 0.65711 0.6852 0.51114 0.0
H44 H 0.58466 0.65522 0.59356 0.0
H45 H 0.60358 0.73741 0.64198 0.0
C46 C 0.62224 0.71158 0.46358 0.0
C47 C 0.63392 0.70489 0.42783 0.0
C48 C 0.62101 0.69971 0.39216 0.0
C49 C 0.59618 0.70105 0.39179 0.0
C50 C 0.58464 0.70951 0.42707 0.0
C51 C 0.59762 0.71498 0.46266 0.0
C52 C 0.65695 0.74422 0.5152 0.0
C53 C 0.67195 0.74692 0.54919 0.0
C54 C 0.68802 0.76955 0.55171 0.0
C55 C 0.68985 0.7896 0.5197 0.0
C56 C 0.67432 0.78719 0.48601 0.0
C57 C 0.65795 0.76469 0.48384 0.0
C58 C 0.6194 0.70747 0.55305 0.0
C59 C 0.60695 0.68165 0.55661 0.0
C60 C 0.59343 0.67577 0.59084 0.0
C61 C 0.5924 0.69553 0.62232 0.0
C62 C 0.60423 0.72182 0.61812 0.0
C63 C 0.61742 0.72791 0.58341 0.0
P64 P 0.90396 0.29142 -0.00047 0.0
H65 H 0.92549 0.30441 0.92108 0.0
H66 H 0.93409 0.27509 0.86242 0.0
H67 H 0.90179 0.20241 0.9224 0.0
H68 H 0.89316 0.2319 0.98081 0.0
H69 H 0.88457 0.34709 0.01775 0.0
H70 H 0.84427 0.36514 0.019 0.0
H71 H 0.81749 0.28302 0.98122 0.0
H72 H 0.85787 0.26496 0.98093 0.0
H73 H 0.94181 0.25258 0.02165 0.0
H74 H 0.87914 0.28472 0.07736 0.0
O75 O 0.92308 0.31872 -0.00045 0.0
H76 H 0.95023 0.2237 0.08226 0.0
H77 H 0.88778 0.25645 0.13864 0.0
C78 C 0.90898 0.27021 0.95545 0.0
C79 C 0.92023 0.28219 0.92155 0.0
C80 C 0.92521 0.26538 0.88813 0.0
C81 C 0.91877 0.23639 0.88791 0.0
C82 C 0.90684 0.22471 0.92151 0.0
C83 C 0.90199 0.24151 0.95499 0.0
C84 C 0.87425 0.30486 0.99844 0.0
C85 C 0.87006 0.33303 0.00937 0.0
C86 C 0.84698 0.34336 0.00997 0.0
C87 C 0.82764 0.32559 -7e-05 0.0
C88 C 0.83196 0.29722 0.98937 0.0
C89 C 0.85507 0.28693 0.9888 0.0
C90 C 0.90964 0.27035 0.04467 0.0
C91 C 0.92985 0.25339 0.04697 0.0
C92 C 0.93476 0.2371 0.08183 0.0
C93 C 0.91968 0.23774 0.11537 0.0
C94 C 0.89956 0.25512 0.11313 0.0
C95 C 0.89463 0.27138 0.07811 0.0
P96 P 0.40903 0.20353 0.51422 0.0
H97 H 0.43145 0.1939 0.59386 0.0
H98 H 0.43977 0.22514 0.65103 0.0
H99 H 0.40566 0.29446 0.5858 0.0
H100 H 0.39851 0.26338 0.52812 0.0
H101 H 0.38881 0.14767 0.49547 0.0
H102 H 0.34842 0.12871 0.49619 0.0
H103 H 0.32324 0.21044 0.53463 0.0
H104 H 0.36368 0.22886 0.53508 0.0
H105 H 0.45216 0.22432 0.47714 0.0
H106 H 0.37724 0.22773 0.45079 0.0
O107 O 0.42804 0.17659 0.51652 0.0
H108 H 0.4599 0.25413 0.41724 0.0
H109 H 0.38484 0.25711 0.39057 0.0
C110 C 0.41466 0.22645 0.55662 0.0
C111 C 0.42591 0.21588 0.59183 0.0
C112 C 0.43044 0.23374 0.62468 0.0
C113 C 0.42345 0.26242 0.62311 0.0
C114 C 0.41174 0.2727 0.58787 0.0
C115 C 0.40748 0.25489 0.55491 0.0
C116 C 0.37931 0.1895 0.51595 0.0
C117 C 0.37461 0.16139 0.50449 0.0
C118 C 0.35146 0.15066 0.50455 0.0
C119 C 0.33254 0.16801 0.5156 0.0
C120 C 0.33739 0.1963 0.52676 0.0
C121 C 0.36056 0.20692 0.52692 0.0
C122 C 0.4142 0.22349 0.46812 0.0
C123 C 0.43741 0.23115 0.4581 0.0
C124 C 0.4418 0.24812 0.42381 0.0
C125 C 0.42298 0.25791 0.39904 0.0
C126 C 0.3997 0.25012 0.40921 0.0
C127 C 0.39535 0.2331 0.44353 0.0
C128 C 0.00911 0.97218 0.45072 0.0
N129 N 0.04758 0.03815 0.50562 0.0
C130 C 0.06635 0.0203 0.50425 0.0
C131 C 0.08939 0.03119 0.5038 0.0
C132 C 0.09318 0.06072 0.50519 0.0
C133 C 0.07353 0.07868 0.50673 0.0
C134 C 0.05074 0.06688 0.5067 0.0
Zn135 Zn 0.01423 0.02104 0.5068 0.0
C136 C 0.98192 0.04836 0.44626 0.0
N137 N 0.94499 0.98436 0.51006 0.0
C138 C 0.94247 0.95555 0.50999 0.0
C139 C 0.92584 0.00161 0.51132 0.0
C140 C 0.90304 0.98996 0.51301 0.0
C141 C 0.8999 0.96024 0.51312 0.0
C142 C 0.92002 0.94301 0.51128 0.0
Zn143 Zn 0.97819 0.00171 0.50866 0.0
O144 O 0.02363 0.99117 0.46281 0.0
C145 C 0.01083 0.97428 0.56859 0.0
O146 O 0.98828 0.97161 0.46468 0.0
H147 H 0.92825 0.02448 0.51129 0.0
H148 H 0.06347 0.99752 0.50376 0.0
H149 H 0.95792 0.94222 0.50896 0.0
O150 O 0.02503 0.99234 0.55306 0.0
O151 O 0.98942 0.97345 0.55616 0.0
H152 H 0.03558 0.08068 0.50764 0.0
O153 O 0.9687 0.03177 0.55264 0.0
O154 O 0.00432 0.05068 0.5514 0.0
O155 O 0.96745 0.0303 0.46124 0.0
O156 O 0.00306 0.04935 0.45998 0.0
C157 C 0.98351 0.0502 0.56551 0.0
H158 H 0.1041 0.01664 0.50309 0.0
H159 H 0.07575 0.10159 0.50752 0.0
H160 H 0.88811 0.00409 0.51488 0.0
H161 H 0.91849 0.92004 0.51053 0.0
C162 C 0.48215 0.45113 0.95126 0.0
N163 N 0.54682 0.46162 0.01421 0.0
C164 C 0.54924 0.43301 0.01032 0.0
C165 C 0.57171 0.42093 0.00992 0.0
C166 C 0.59194 0.4384 0.01389 0.0
C167 C 0.58883 0.46783 0.01841 0.0
C168 C 0.56606 0.47903 0.01827 0.0
Zn169 Zn 0.51378 0.47905 0.01304 0.0
C170 C 0.51035 0.52713 0.95349 0.0
N171 N 0.44501 0.51566 0.00904 0.0
C172 C 0.42486 0.49958 0.01068 0.0
C173 C 0.44417 0.54457 0.00781 0.0
C174 C 0.42256 0.55845 0.00882 0.0
C175 C 0.40147 0.54252 0.01133 0.0
C176 C 0.40275 0.51266 0.01178 0.0
Zn177 Zn 0.47769 0.49747 0.01012 0.0
O178 O 0.50321 0.45172 0.96541 0.0
C179 C 0.48124 0.44946 0.06994 0.0
O180 O 0.46695 0.46804 0.96517 0.0
H181 H 0.46035 0.55699 0.00643 0.0
H182 H 0.53372 0.41953 0.00714 0.0
H183 H 0.42595 0.4766 0.01167 0.0
O184 O 0.50207 0.44857 0.05608 0.0
O185 O 0.46708 0.46843 0.05666 0.0
H186 H 0.56377 0.50172 0.02129 0.0
O187 O 0.48904 0.52695 0.05485 0.0
O188 O 0.52367 0.50651 0.06074 0.0
O189 O 0.48882 0.52596 0.96385 0.0
O190 O 0.52509 0.51008 0.96992 0.0
C191 C 0.50941 0.52556 0.07157 0.0
H192 H 0.57316 0.3982 0.0058 0.0
H193 H 0.60382 0.48212 0.02229 0.0
H194 H 0.4224 0.5815 0.00756 0.0
H195 H 0.38692 0.49958 0.01389 0.0
H196 H 0.31163 0.13257 0.45988 0.0
H197 H 0.27101 0.1145 0.45873 0.0
H198 H 0.25649 0.16104 0.56737 0.0
H199 H 0.29746 0.17806 0.56992 0.0
H200 H 0.23744 0.10975 0.57221 0.0
H201 H 0.23781 0.18489 0.47246 0.0
H202 H 0.25164 0.21155 0.41213 0.0
H203 H 0.23617 0.13939 0.33736 0.0
H204 H 0.22254 0.11214 0.39737 0.0
H205 H 0.1117 0.10169 0.55474 0.0
H206 H 0.15236 0.12029 0.55636 0.0
H207 H 0.17025 0.06513 0.45817 0.0
H208 H 0.1296 0.04652 0.45629 0.0
H209 H 0.18708 0.12133 0.44827 0.0
H210 H 0.1867 0.04655 0.54992 0.0
H211 H 0.17203 0.02126 0.61081 0.0
H212 H 0.18668 0.09503 0.6828 0.0
H213 H 0.20111 0.12092 0.62215 0.0
C214 C 0.29991 0.13869 0.48386 0.0
C215 C 0.30783 0.15686 0.51494 0.0
C216 C 0.27659 0.12861 0.48287 0.0
C217 C 0.26058 0.13679 0.51259 0.0
C218 C 0.26849 0.15457 0.54399 0.0
C219 C 0.29187 0.16451 0.54517 0.0
C220 C 0.23562 0.1267 0.51103 0.0
C221 C 0.22635 0.11266 0.54529 0.0
C222 C 0.22123 0.13004 0.47567 0.0
C223 C 0.22937 0.14639 0.43949 0.0
C224 C 0.23753 0.17463 0.44321 0.0
C225 C 0.2453 0.18986 0.40906 0.0
C226 C 0.24484 0.17715 0.37096 0.0
C227 C 0.23654 0.14919 0.36691 0.0
C228 C 0.22877 0.13386 0.40097 0.0
C229 C 0.12427 0.09372 0.5333 0.0
C230 C 0.11755 0.07262 0.50545 0.0
C231 C 0.14748 0.10421 0.53442 0.0
C232 C 0.16429 0.0939 0.50758 0.0
C233 C 0.15752 0.07328 0.47918 0.0
C234 C 0.13438 0.06257 0.47831 0.0
C235 C 0.18905 0.10443 0.50935 0.0
C236 C 0.19823 0.11853 0.47515 0.0
C237 C 0.20327 0.10136 0.54485 0.0
C238 C 0.19475 0.08577 0.5814 0.0
C239 C 0.1866 0.05746 0.57866 0.0
C240 C 0.17836 0.04301 0.61314 0.0
C241 C 0.17836 0.05656 0.65063 0.0
C242 C 0.18666 0.08458 0.65373 0.0
C243 C 0.19489 0.09915 0.61931 0.0
H244 H 0.17197 0.04533 0.67729 0.0
H245 H 0.25087 0.18897 0.34455 0.0
H246 H 0.20046 0.67746 0.98679 0.0
H247 H 0.23114 0.64095 0.98408 0.0
H248 H 0.27838 0.69443 0.0543 0.0
H249 H 0.248 0.73079 0.05694 0.0
H250 H 0.29955 0.67565 0.98847 0.0
H251 H 0.25172 0.63479 0.09524 0.0
H252 H 0.21496 0.61591 0.12522 0.0
H253 H 0.21074 0.55143 0.03426 0.0
H254 H 0.24733 0.57017 0.00339 0.0
H255 H 0.39151 0.58911 0.05606 0.0
H256 H 0.35505 0.61639 0.05557 0.0
H257 H 0.3226 0.55667 0.97296 0.0
H258 H 0.35937 0.5293 0.97271 0.0
H259 H 0.29212 0.57535 0.03641 0.0
H260 H 0.34187 0.61448 0.93299 0.0
H261 H 0.37928 0.63291 0.90489 0.0
H262 H 0.37994 0.70088 0.99065 0.0
H263 H 0.34271 0.68259 0.01972 0.0
C264 C 0.2173 0.68118 0.00208 0.0
C265 C 0.22194 0.70707 0.02173 0.0
C266 C 0.23479 0.66035 0.00051 0.0
C267 C 0.25706 0.665 0.01894 0.0
C268 C 0.2614 0.69049 0.03956 0.0
C269 C 0.24405 0.71127 0.04098 0.0
C270 C 0.27642 0.64415 0.01544 0.0
C271 C 0.29793 0.65379 0.99926 0.0
C272 C 0.27409 0.61535 0.02821 0.0
C273 C 0.25209 0.6041 0.04672 0.0
C274 C 0.24283 0.61675 0.08141 0.0
C275 C 0.22205 0.60604 0.09861 0.0
C276 C 0.21047 0.58255 0.08158 0.0
C277 C 0.21969 0.56966 0.04737 0.0
C278 C 0.24046 0.58031 0.03002 0.0
C279 C 0.37666 0.58175 0.03768 0.0
C280 C 0.37847 0.55731 0.01385 0.0
C281 C 0.3558 0.59727 0.03765 0.0
C282 C 0.3363 0.58873 0.01379 0.0
C283 C 0.33752 0.56359 0.9915 0.0
C284 C 0.3585 0.54799 0.99144 0.0
C285 C 0.31529 0.60722 0.01066 0.0
C286 C 0.29355 0.59714 0.02528 0.0
C287 C 0.31734 0.6357 0.99651 0.0
C288 C 0.33958 0.64703 0.97873 0.0
C289 C 0.35007 0.63325 0.94605 0.0
C290 C 0.37124 0.64368 0.92992 0.0
C291 C 0.38201 0.66802 0.94603 0.0
C292 C 0.37158 0.68202 0.97822 0.0
C293 C 0.35043 0.67165 0.9945 0.0
H294 H 0.3984 0.67606 0.93351 0.0
H295 H 0.1944 0.57428 0.09495 0.0
H296 H 0.73524 0.78409 0.54829 0.0
H297 H 0.76661 0.81991 0.54935 0.0
H298 H 0.71976 0.88083 0.49215 0.0
H299 H 0.6877 0.84525 0.49224 0.0
H300 H 0.76513 0.87675 0.45574 0.0
H301 H 0.73237 0.8909 0.58653 0.0
H302 H 0.71702 0.87625 0.65341 0.0
H303 H 0.78449 0.84093 0.68657 0.0
H304 H 0.80016 0.85498 0.61965 0.0
H305 H 0.85863 0.97888 0.47677 0.0
H306 H 0.81941 0.95667 0.48004 0.0
H307 H 0.84778 0.88925 0.55616 0.0
H308 H 0.88661 0.91214 0.55508 0.0
H309 H 0.80678 0.90422 0.58331 0.0
H310 H 0.83753 0.88232 0.4511 0.0
H311 H 0.85356 0.89387 0.38352 0.0
H312 H 0.79085 0.94077 0.35256 0.0
H313 H 0.77457 0.92977 0.4202 0.0
C314 C 0.73132 0.80524 0.5367 0.0
C315 C 0.70879 0.81182 0.52059 0.0
C316 C 0.74937 0.82565 0.53712 0.0
C317 C 0.74539 0.85305 0.52123 0.0
C318 C 0.7231 0.85977 0.50466 0.0
C319 C 0.70487 0.83937 0.50458 0.0
C320 C 0.765 0.87412 0.52107 0.0
C321 C 0.77396 0.88335 0.48361 0.0
C322 C 0.7767 0.88216 0.55747 0.0
C323 C 0.7674 0.87387 0.59794 0.0
C324 C 0.74389 0.87983 0.60797 0.0
C325 C 0.73514 0.87166 0.64591 0.0
C326 C 0.74976 0.85764 0.6742 0.0
C327 C 0.77318 0.8518 0.66463 0.0
C328 C 0.78202 0.85991 0.62671 0.0
C329 C 0.85646 0.95957 0.49474 0.0
C330 C 0.87587 0.94719 0.5154 0.0
C331 C 0.83406 0.94673 0.4962 0.0
C332 C 0.83071 0.92105 0.51784 0.0
C333 C 0.84993 0.909 0.53914 0.0
C334 C 0.87223 0.92195 0.53806 0.0
C335 C 0.80742 0.9062 0.51789 0.0
C336 C 0.79774 0.89813 0.5554 0.0
C337 C 0.79522 0.89895 0.48149 0.0
C338 C 0.80498 0.90553 0.44085 0.0
C339 C 0.82725 0.89528 0.42999 0.0
C340 C 0.83636 0.90169 0.39166 0.0
C341 C 0.82326 0.91812 0.36381 0.0
C342 C 0.80099 0.9281 0.37419 0.0
C343 C 0.79181 0.92178 0.4125 0.0
H344 H 0.83035 0.92306 0.33415 0.0
H345 H 0.74294 0.85132 0.70355 0.0
H346 H 0.78802 0.29862 0.02894 0.0
H347 H 0.74778 0.31705 0.03102 0.0
H348 H 0.7715 0.39589 0.97566 0.0
H349 H 0.81175 0.37754 0.97321 0.0
H350 H 0.74349 0.40565 0.03882 0.0
H351 H 0.74036 0.34723 0.92086 0.0
H352 H 0.7452 0.30341 0.88173 0.0
H353 H 0.69587 0.25945 0.95884 0.0
H354 H 0.69099 0.30294 0.99883 0.0
H355 H 0.63169 0.46151 0.9792 0.0
H356 H 0.67141 0.4417 0.97851 0.0
H357 H 0.64678 0.36727 0.044 0.0
H358 H 0.60707 0.3873 0.04613 0.0
H359 H 0.67484 0.3547 0.97695 0.0
H360 H 0.67773 0.41421 0.09406 0.0
H361 H 0.6728 0.45865 0.13175 0.0
H362 H 0.72267 0.50124 0.05417 0.0
H363 H 0.72763 0.45714 0.0156 0.0
C364 C 0.78463 0.31976 0.01677 0.0
C365 C 0.8031 0.33659 0.00082 0.0
C366 C 0.76162 0.33028 0.01806 0.0
C367 C 0.7566 0.35776 0.00319 0.0
C368 C 0.77499 0.37465 0.98741 0.0
C369 C 0.798 0.36416 0.98613 0.0
C370 C 0.73221 0.36908 0.00455 0.0
C371 C 0.72853 0.39469 0.02483 0.0
C372 C 0.71262 0.35445 0.98709 0.0
C373 C 0.71551 0.32826 0.96311 0.0
C374 C 0.7307 0.32815 0.9297 0.0
C375 C 0.73343 0.30339 0.90733 0.0
C376 C 0.72091 0.27863 0.91787 0.0
C377 C 0.70559 0.27862 0.95076 0.0
C378 C 0.70283 0.30333 0.97327 0.0
C379 C 0.63471 0.44111 0.99401 0.0
C380 C 0.61611 0.42611 0.01294 0.0
C381 C 0.65743 0.42975 0.99335 0.0
C382 C 0.66203 0.40312 0.01142 0.0
C383 C 0.64354 0.38785 0.0298 0.0
C384 C 0.62083 0.3993 0.0308 0.0
C385 C 0.68621 0.39126 0.01104 0.0
C386 C 0.68983 0.36558 0.99098 0.0
C387 C 0.70577 0.40589 0.02849 0.0
C388 C 0.70287 0.43244 0.05168 0.0
C389 C 0.68749 0.43312 0.0848 0.0
C390 C 0.68472 0.45823 0.10637 0.0
C391 C 0.69737 0.48277 0.0953 0.0
C392 C 0.71286 0.48223 0.06268 0.0
C393 C 0.71567 0.45717 0.04097 0.0
H394 H 0.69521 0.5022 0.11205 0.0
H395 H 0.72303 0.25948 0.90049 0.0
H396 H 0.11496 0.80206 0.22124 0.0
H397 H 0.0925 0.82384 0.27547 0.0
H398 H 0.04128 0.85431 0.187 0.0
H399 H 0.0637 0.83287 0.13272 0.0
H400 H 0.06095 0.89687 0.23318 0.0
H401 H 0.02443 0.80567 0.25451 0.0
H402 H 0.02336 0.75372 0.26626 0.0
H403 H 0.06171 0.76381 0.37887 0.0
H404 H 0.06332 0.8158 0.36752 0.0
H405 H 0.98228 0.92997 0.41552 0.0
H406 H 0.99467 0.89628 0.36405 0.0
H407 H 0.06518 0.93218 0.36817 0.0
H408 H 0.05298 0.96605 0.41897 0.0
H409 H 0.03036 0.85487 0.36147 0.0
H410 H 0.0844 0.9381 0.27115 0.0
H411 H 0.08629 0.9903 0.26241 0.0
H412 H 0.01217 0.99565 0.28737 0.0
H413 H 0.00967 0.94349 0.29492 0.0
C414 C 0.09865 0.81291 0.21351 0.0
C415 C 0.09114 0.81588 0.17274 0.0
C416 C 0.08577 0.82519 0.2445 0.0
C417 C 0.06525 0.84069 0.23518 0.0
C418 C 0.05705 0.84237 0.19478 0.0
C419 C 0.0698 0.82994 0.16385 0.0
C420 C 0.05406 0.85798 0.26667 0.0
C421 C 0.05408 0.88763 0.26107 0.0
C422 C 0.04514 0.8459 0.30302 0.0
C423 C 0.04415 0.81464 0.30999 0.0
C424 C 0.03281 0.7968 0.28162 0.0
C425 C 0.03207 0.76735 0.28824 0.0
C426 C 0.0425 0.75547 0.32325 0.0
C427 C 0.05365 0.77304 0.35175 0.0
C428 C 0.05445 0.80251 0.34527 0.0
C429 C 0.00044 0.93062 0.40555 0.0
C430 C 0.01656 0.95095 0.42091 0.0
C431 C 0.00751 0.91123 0.37638 0.0
C432 C 0.03075 0.91196 0.36208 0.0
C433 C 0.04708 0.93151 0.37849 0.0
C434 C 0.04004 0.9509 0.40746 0.0
C435 C 0.03769 0.89366 0.32812 0.0
C436 C 0.03697 0.86396 0.33332 0.0
C437 C 0.04601 0.90563 0.29127 0.0
C438 C 0.04691 0.93688 0.28397 0.0
C439 C 0.06844 0.95039 0.27425 0.0
C440 C 0.06962 0.97999 0.2695 0.0
C441 C 0.04938 0.99631 0.2744 0.0
C442 C 0.02784 0.98303 0.28352 0.0
C443 C 0.02652 0.95343 0.28795 0.0
H444 H 0.05041 0.01924 0.27116 0.0
H445 H 0.04191 0.73266 0.32832 0.0
H446 H 0.61158 0.69754 0.69836 0.0
H447 H 0.59576 0.6753 0.76015 0.0
H448 H 0.53189 0.65218 0.6947 0.0
H449 H 0.54782 0.67398 0.63253 0.0
H450 H 0.52772 0.67189 0.78348 0.0
H451 H 0.56687 0.60501 0.6947 0.0
H452 H 0.60062 0.5903 0.65369 0.0
H453 H 0.64628 0.59384 0.7591 0.0
H454 H 0.61283 0.60911 0.80056 0.0
H455 H 0.48312 0.55452 0.89644 0.0
H456 H 0.4961 0.58865 0.84458 0.0
H457 H 0.56787 0.58261 0.89064 0.0
H458 H 0.55511 0.54732 0.94125 0.0
H459 H 0.56895 0.58109 0.81408 0.0
H460 H 0.5308 0.64263 0.9057 0.0
H461 H 0.49872 0.65958 0.94874 0.0
H462 H 0.45336 0.66908 0.84363 0.0
H463 H 0.48507 0.65181 0.79998 0.0
C464 C 0.59389 0.68846 0.6975 0.0
C465 C 0.58092 0.68729 0.66079 0.0
C466 C 0.58491 0.67577 0.73271 0.0
C467 C 0.56273 0.66211 0.73176 0.0
C468 C 0.54899 0.66279 0.69592 0.0
C469 C 0.55813 0.67505 0.6605 0.0
C470 C 0.55544 0.64376 0.76619 0.0
C471 C 0.53652 0.65192 0.79021 0.0
C472 C 0.56745 0.61819 0.77532 0.0
C473 C 0.58744 0.60851 0.75059 0.0
C474 C 0.58415 0.6029 0.70903 0.0
C475 C 0.60322 0.59442 0.68573 0.0
C476 C 0.6256 0.59121 0.70375 0.0
C477 C 0.62894 0.59639 0.74516 0.0
C478 C 0.60994 0.60495 0.76858 0.0
C479 C 0.50165 0.56056 0.89555 0.0
C480 C 0.51812 0.54826 0.92279 0.0
C481 C 0.50904 0.58027 0.86611 0.0
C482 C 0.53292 0.58868 0.86409 0.0
C483 C 0.54935 0.57652 0.89157 0.0
C484 C 0.54205 0.55636 0.92047 0.0
C485 C 0.54098 0.60897 0.83201 0.0
C486 C 0.56011 0.60114 0.80806 0.0
C487 C 0.52934 0.63505 0.82351 0.0
C488 C 0.51027 0.64569 0.8496 0.0
C489 C 0.51394 0.64815 0.89178 0.0
C490 C 0.49582 0.65784 0.91629 0.0
C491 C 0.474 0.66534 0.89894 0.0
C492 C 0.47027 0.66324 0.85702 0.0
C493 C 0.48832 0.65354 0.83238 0.0
H494 H 0.45999 0.67281 0.91797 0.0
H495 H 0.64034 0.58465 0.68566 0.0
H496 H 0.88852 0.20724 0.16247 0.0
H497 H 0.8977 0.17632 0.22099 0.0
H498 H 0.97183 0.19705 0.20978 0.0
H499 H 0.9628 0.22835 0.15182 0.0
H500 H 0.96369 0.13986 0.2151 0.0
H501 H 0.94059 0.22358 0.28619 0.0
H502 H 0.91402 0.26271 0.30348 0.0
H503 H 0.86104 0.20215 0.34115 0.0
H504 H 0.88719 0.16263 0.32353 0.0
H505 H 0.00989 0.08293 0.39952 0.0
H506 H 0.99759 0.11476 0.34392 0.0
H507 H 0.92478 0.08992 0.36163 0.0
H508 H 0.93694 0.05784 0.41735 0.0
H509 H 0.93034 0.14804 0.35284 0.0
H510 H 0.95199 0.06477 0.28213 0.0
H511 H 0.97607 0.02472 0.25959 0.0
H512 H 0.0299 0.08318 0.21903 0.0
H513 H 0.0062 0.12362 0.24162 0.0
C514 C 0.90673 0.20561 0.17289 0.0
C515 C 0.92494 0.22016 0.15229 0.0
C516 C 0.91194 0.18789 0.20629 0.0
C517 C 0.93544 0.18446 0.21977 0.0
C518 C 0.95359 0.19931 0.19974 0.0
C519 C 0.9484 0.21707 0.16648 0.0
C520 C 0.94134 0.16432 0.25341 0.0
C521 C 0.9567 0.14191 0.24541 0.0
C522 C 0.93148 0.16641 0.29247 0.0
C523 C 0.91575 0.19015 0.30312 0.0
C524 C 0.92319 0.2186 0.29781 0.0
C525 C 0.90822 0.24086 0.30775 0.0
C526 C 0.88583 0.23492 0.3233 0.0
C527 C 0.87838 0.20672 0.32904 0.0
C528 C 0.89327 0.18438 0.31912 0.0
C529 C 0.99125 0.08421 0.39164 0.0
C530 C 0.97439 0.06782 0.41282 0.0
C531 C 0.98427 0.10232 0.35972 0.0
C532 C 0.9603 0.10451 0.34845 0.0
C533 C 0.94337 0.08847 0.36983 0.0
C534 C 0.95036 0.07012 0.40156 0.0
C535 C 0.95301 0.12386 0.31464 0.0
C536 C 0.93736 0.14604 0.32256 0.0
C537 C 0.96247 0.1215 0.27534 0.0
C538 C 0.97741 0.09721 0.26391 0.0
C539 C 0.96911 0.06908 0.26895 0.0
C540 C 0.98265 0.04631 0.25599 0.0
C541 C 0.00449 0.05142 0.23786 0.0
C542 C 0.01296 0.07928 0.23304 0.0
C543 C 0.99948 0.10213 0.24587 0.0
H544 H 0.01477 0.03381 0.22726 0.0
H545 H 0.87427 0.25218 0.33098 0.0
H546 H 0.43645 0.31884 0.62028 0.0
H547 H 0.44517 0.35011 0.67709 0.0
H548 H 0.43233 0.28062 0.76131 0.0
H549 H 0.42207 0.24962 0.70472 0.0
H550 H 0.41435 0.32662 0.78983 0.0
H551 H 0.48933 0.30252 0.73543 0.0
H552 H 0.5192 0.2974 0.68234 0.0
H553 H 0.51846 0.38762 0.65956 0.0
H554 H 0.48834 0.39323 0.71217 0.0
H555 H 0.50852 0.40768 0.92268 0.0
H556 H 0.49788 0.37446 0.86896 0.0
H557 H 0.43074 0.4162 0.85173 0.0
H558 H 0.44101 0.44907 0.9063 0.0
H559 H 0.48963 0.38187 0.79186 0.0
H560 H 0.38903 0.36864 0.82039 0.0
H561 H 0.36148 0.36937 0.87772 0.0
H562 H 0.41775 0.34566 0.96024 0.0
H563 H 0.44554 0.34442 0.90336 0.0
C564 C 0.43507 0.31026 0.65086 0.0
C565 C 0.42862 0.2816 0.6578 0.0
C566 C 0.44038 0.32811 0.68336 0.0
C567 C 0.43982 0.3176 0.72348 0.0
C568 C 0.433 0.28918 0.7306 0.0
C569 C 0.42741 0.27138 0.69814 0.0
C570 C 0.44655 0.33618 0.75799 0.0
C571 C 0.43081 0.33871 0.79026 0.0
C572 C 0.46824 0.35153 0.75903 0.0
C573 C 0.48642 0.34825 0.72748 0.0
C574 C 0.49542 0.32124 0.7189 0.0
C575 C 0.51241 0.31825 0.68893 0.0
C576 C 0.52068 0.34216 0.66753 0.0
C577 C 0.51202 0.36912 0.67613 0.0
C578 C 0.495 0.37221 0.70605 0.0
C579 C 0.49144 0.40975 0.90758 0.0
C580 C 0.47557 0.43097 0.91882 0.0
C581 C 0.48542 0.39077 0.87679 0.0
C582 C 0.46344 0.39266 0.85651 0.0
C583 C 0.44763 0.41399 0.86743 0.0
C584 C 0.45356 0.43285 0.89851 0.0
C585 C 0.45732 0.37256 0.8235 0.0
C586 C 0.47316 0.3698 0.79144 0.0
C587 C 0.43606 0.35638 0.82328 0.0
C588 C 0.41941 0.35674 0.85765 0.0
C589 C 0.39549 0.36349 0.85075 0.0
C590 C 0.37984 0.364 0.88317 0.0
C591 C 0.38787 0.35766 0.92261 0.0
C592 C 0.41156 0.35068 0.9297 0.0
C593 C 0.42728 0.3501 0.89739 0.0
H594 H 0.37573 0.35809 0.94767 0.0
H595 H 0.53384 0.3398 0.64433 0.0
H596 H 0.55888 0.66405 0.39244 0.0
H597 H 0.54111 0.63951 0.33452 0.0
H598 H 0.58479 0.68909 0.25303 0.0
H599 H 0.60305 0.71331 0.3112 0.0
H600 H 0.51716 0.65014 0.2672 0.0
H601 H 0.60478 0.64625 0.17959 0.0
H602 H 0.64779 0.64936 0.1933 0.0
H603 H 0.6374 0.61845 0.31521 0.0
H604 H 0.59441 0.61476 0.302 0.0
H605 H 0.49274 0.5792 0.08152 0.0
H606 H 0.50544 0.61377 0.13243 0.0
H607 H 0.55406 0.55234 0.18422 0.0
H608 H 0.54238 0.51842 0.13191 0.0
H609 H 0.57493 0.59985 0.18285 0.0
H610 H 0.49782 0.56963 0.22708 0.0
H611 H 0.45482 0.56112 0.22004 0.0
H612 H 0.44398 0.65024 0.19674 0.0
H613 H 0.48696 0.65923 0.20317 0.0
C614 C 0.56427 0.67024 0.36212 0.0
C615 C 0.5825 0.69039 0.3563 0.0
C616 C 0.55411 0.65618 0.32901 0.0
C617 C 0.56193 0.66207 0.28951 0.0
C618 C 0.57884 0.68379 0.28335 0.0
C619 C 0.58923 0.69763 0.31653 0.0
C620 C 0.55407 0.64358 0.25562 0.0
C621 C 0.52976 0.63928 0.24853 0.0
C622 C 0.57051 0.62889 0.23188 0.0
C623 C 0.59638 0.63059 0.23992 0.0
C624 C 0.61171 0.64004 0.20926 0.0
C625 C 0.63607 0.6419 0.21695 0.0
C626 C 0.64531 0.63422 0.25515 0.0
C627 C 0.63022 0.6245 0.28568 0.0
C628 C 0.60586 0.62253 0.27811 0.0
C629 C 0.50611 0.57313 0.10386 0.0
C630 C 0.51654 0.54614 0.10293 0.0
C631 C 0.51328 0.59284 0.13306 0.0
C632 C 0.53046 0.58558 0.16267 0.0
C633 C 0.54083 0.55854 0.16169 0.0
C634 C 0.53409 0.53911 0.1319 0.0
C635 C 0.53793 0.60608 0.19449 0.0
C636 C 0.56223 0.61087 0.20113 0.0
C637 C 0.52146 0.62038 0.21875 0.0
C638 C 0.49561 0.61505 0.21521 0.0
C639 C 0.48627 0.58738 0.22022 0.0
C640 C 0.4619 0.58248 0.21637 0.0
C641 C 0.44668 0.60512 0.20784 0.0
C642 C 0.45579 0.63272 0.20328 0.0
C643 C 0.48015 0.63774 0.20706 0.0
H644 H 0.42783 0.60127 0.20484 0.0
H645 H 0.66417 0.63572 0.26106 0.0
H646 H 0.96073 0.23497 0.84801 0.0
H647 H 0.9714 0.20421 0.79213 0.0
H648 H 0.90174 0.16582 0.7937 0.0
H649 H 0.89103 0.19642 0.84989 0.0
H650 H 0.93464 0.12614 0.78856 0.0
H651 H 0.91802 0.21459 0.71926 0.0
H652 H 0.92177 0.2662 0.70583 0.0
H653 H 0.99576 0.2568 0.68244 0.0
H654 H 0.99252 0.20516 0.69628 0.0
H655 H 0.94046 0.055 0.60119 0.0
H656 H 0.9295 0.08746 0.65481 0.0
H657 H 2e-05 0.12344 0.65558 0.0
H658 H 0.01109 0.09126 0.60148 0.0
H659 H 0.96684 0.16441 0.65925 0.0
H660 H 0.98357 0.07621 0.72867 0.0
H661 H 0.97999 0.02456 0.74187 0.0
H662 H 0.90594 0.03354 0.76503 0.0
H663 H 0.909 0.08522 0.75139 0.0
C664 C 0.9476 0.22021 0.83613 0.0
C665 C 0.925 0.21821 0.85323 0.0
C666 C 0.95372 0.20262 0.8042 0.0
C667 C 0.93728 0.18293 0.78836 0.0
C668 C 0.91472 0.18084 0.80544 0.0
C669 C 0.90863 0.19831 0.83756 0.0
C670 C 0.94377 0.16411 0.75454 0.0
C671 C 0.94134 0.13455 0.76006 0.0
C672 C 0.95312 0.17502 0.71773 0.0
C673 C 0.95507 0.20604 0.70917 0.0
C674 C 0.93513 0.22356 0.71154 0.0
C675 C 0.93715 0.25281 0.70381 0.0
C676 C 0.959 0.26478 0.69339 0.0
C677 C 0.97885 0.2475 0.69056 0.0
C678 C 0.97693 0.21824 0.69831 0.0
C679 C 0.95365 0.06984 0.61267 0.0
C680 C 0.9767 0.07043 0.59719 0.0
C681 C 0.94737 0.08832 0.64343 0.0
C682 C 0.96403 0.1076 0.65956 0.0
C683 C 0.9869 0.10867 0.64363 0.0
C684 C 0.99321 0.09021 0.61278 0.0
C685 C 0.95761 0.12651 0.69326 0.0
C686 C 0.96009 0.15605 0.68774 0.0
C687 C 0.94833 0.1156 0.73008 0.0
C688 C 0.94647 0.08455 0.73863 0.0
C689 C 0.96649 0.06715 0.73629 0.0
C690 C 0.96456 0.03786 0.74389 0.0
C691 C 0.94274 0.02576 0.75418 0.0
C692 C 0.92282 0.04294 0.75701 0.0
C693 C 0.92465 0.07223 0.74938 0.0
H694 H 0.94128 0.00309 0.76005 0.0
H695 H 0.96053 0.28744 0.68742 0.0
H696 H 0.39867 0.30534 0.37422 0.0
H697 H 0.40721 0.33702 0.31659 0.0
H698 H 0.46652 0.28496 0.28584 0.0
H699 H 0.458 0.25307 0.34326 0.0
H700 H 0.47823 0.34087 0.28594 0.0
H701 H 0.41529 0.28284 0.23003 0.0
H702 H 0.37549 0.26085 0.22833 0.0
H703 H 0.34401 0.34364 0.22657 0.0
H704 H 0.38364 0.36613 0.22882 0.0
H705 H 0.50377 0.401 0.09458 0.0
H706 H 0.49241 0.36788 0.14881 0.0
H707 H 0.43103 0.41853 0.17238 0.0
H708 H 0.44191 0.45135 0.11717 0.0
H709 H 0.4198 0.36394 0.17654 0.0
H710 H 0.48167 0.42234 0.23289 0.0
H711 H 0.52106 0.44536 0.23566 0.0
H712 H 0.55404 0.36343 0.23864 0.0
H713 H 0.51484 0.33991 0.23531 0.0
C714 C 0.41333 0.3004 0.35485 0.0
C715 C 0.42765 0.27666 0.36328 0.0
C716 C 0.41821 0.31856 0.32198 0.0
C717 C 0.43739 0.31322 0.29675 0.0
C718 C 0.45166 0.2895 0.30499 0.0
C719 C 0.44681 0.27135 0.33787 0.0
C720 C 0.44305 0.33281 0.26246 0.0
C721 C 0.46557 0.34561 0.2617 0.0
C722 C 0.42627 0.33966 0.23157 0.0
C723 C 0.40243 0.32616 0.22998 0.0
C724 C 0.39988 0.29636 0.22959 0.0
C725 C 0.37735 0.2838 0.22847 0.0
C726 C 0.35724 0.30084 0.22745 0.0
C727 C 0.35961 0.33047 0.22742 0.0
C728 C 0.3821 0.34313 0.22858 0.0
C729 C 0.48781 0.40507 0.11122 0.0
C730 C 0.47383 0.42891 0.10182 0.0
C731 C 0.48139 0.38617 0.14233 0.0
C732 C 0.46111 0.39102 0.16521 0.0
C733 C 0.44679 0.41443 0.15523 0.0
C734 C 0.45306 0.43319 0.12374 0.0
C735 C 0.45507 0.37185 0.19984 0.0
C736 C 0.43247 0.35919 0.20075 0.0
C737 C 0.47172 0.36529 0.23112 0.0
C738 C 0.49532 0.37938 0.23349 0.0
C739 C 0.49733 0.40924 0.23387 0.0
C740 C 0.51962 0.42238 0.23557 0.0
C741 C 0.54004 0.40587 0.23723 0.0
C742 C 0.5382 0.37619 0.23731 0.0
C743 C 0.51595 0.36294 0.23556 0.0
H744 H 0.55728 0.41608 0.23853 0.0
H745 H 0.33981 0.29108 0.22659 0.0
H746 H 0.06041 0.82616 0.89128 0.0
H747 H 0.04236 0.84778 0.83018 0.0
H748 H 0.11094 0.85371 0.77498 0.0
H749 H 0.12909 0.83245 0.83595 0.0
H750 H 0.0873 0.90501 0.77642 0.0
H751 H 0.07104 0.80795 0.73881 0.0
H752 H 0.05502 0.75937 0.74872 0.0
H753 H 0.98503 0.79277 0.75943 0.0
H754 H 0.00068 0.84161 0.75015 0.0
H755 H 0.05629 0.95909 0.5847 0.0
H756 H 0.07097 0.92803 0.63925 0.0
H757 H 0.99963 0.91435 0.68058 0.0
H758 H 0.98468 0.94461 0.62468 0.0
H759 H 0.02329 0.86651 0.68743 0.0
H760 H 0.03794 0.96249 0.72752 0.0
H761 H 0.05251 0.01192 0.71997 0.0
H762 H 0.12358 0.98194 0.709 0.0
H763 H 0.10939 0.93229 0.71595 0.0
C764 C 0.07156 0.83173 0.86585 0.0
C765 C 0.09617 0.82769 0.86841 0.0
C766 C 0.06122 0.8439 0.83093 0.0
C767 C 0.07534 0.85231 0.79811 0.0
C768 C 0.09976 0.84731 0.8 0.0
C769 C 0.11007 0.83497 0.83472 0.0
C770 C 0.06509 0.86866 0.76341 0.0
C771 C 0.07355 0.89644 0.75655 0.0
C772 C 0.0465 0.85783 0.73865 0.0
C773 C 0.03708 0.82847 0.7442 0.0
C774 C 0.05226 0.80496 0.74365 0.0
C775 C 0.04324 0.77737 0.74907 0.0
C776 C 0.01903 0.77299 0.75481 0.0
C777 C 0.00378 0.7962 0.75503 0.0
C778 C 0.01272 0.82384 0.74966 0.0
C779 C 0.0437 0.9494 0.60532 0.0
C780 C 0.01936 0.95454 0.60077 0.0
C781 C 0.05212 0.9317 0.63657 0.0
C782 C 0.03647 0.91939 0.66464 0.0
C783 C 0.01205 0.92374 0.65942 0.0
C784 C 0.00354 0.94109 0.62759 0.0
C785 C 0.04579 0.90276 0.70001 0.0
C786 C 0.03707 0.87506 0.70722 0.0
C787 C 0.06393 0.91379 0.72566 0.0
C788 C 0.07257 0.94366 0.72192 0.0
C789 C 0.05666 0.96643 0.72326 0.0
C790 C 0.06485 0.99449 0.71911 0.0
C791 C 0.08895 6e-05 0.71392 0.0
C792 C 0.10492 0.97759 0.71299 0.0
C793 C 0.09681 0.94949 0.71708 0.0
H794 H 0.09526 0.02179 0.71068 0.0
H795 H 0.01209 0.75161 0.75899 0.0
loop_
_geom_bond_atom_site_label_1
_geom_bond_atom_site_label_2
_geom_bond_distance
_geom_bond_site_symmetry_2
_ccdc_geom_bond_type
P0 O11 1.490 . S
P0 C14 1.812 . S
P0 C20 1.803 . S
P0 C26 1.819 1_554 S
H1 C15 0.941 . S
H2 C16 0.939 . S
H3 C18 0.940 . S
H4 C19 0.940 . S
H5 C21 0.939 1_556 S
H6 C22 0.942 1_556 S
H7 C24 0.940 . S
H8 C25 0.939 . S
H9 C27 0.941 . S
H10 C31 0.939 . S
O11 P0 1.490 . S
H12 C28 0.939 . S
H13 C30 0.940 . S
C14 P0 1.812 . S
C14 C15 1.389 . S
C14 C19 1.391 . S
C15 H1 0.941 . S
C15 C14 1.389 . S
C15 C16 1.397 . S
C16 H2 0.939 . S
C16 C15 1.397 . S
C16 C17 1.378 . S
C17 C16 1.378 . S
C17 C18 1.378 . S
C18 H3 0.940 . S
C18 C17 1.378 . S
C18 C19 1.396 . S
C19 H4 0.940 . S
C19 C14 1.391 . S
C19 C18 1.396 . S
C20 P0 1.803 . S
C20 C21 1.378 . S
C20 C25 1.400 . S
C21 H5 0.939 1_554 S
C21 C20 1.378 . S
C21 C22 1.361 . S
C22 H6 0.942 1_554 S
C22 C21 1.361 . S
C22 C23 1.369 . S
C23 C22 1.369 . S
C23 C24 1.404 . S
C24 H7 0.940 . S
C24 C23 1.404 . S
C24 C25 1.389 . S
C25 H8 0.939 . S
C25 C20 1.400 . S
C25 C24 1.389 . S
C26 P0 1.819 1_556 S
C26 C27 1.391 . S
C26 C31 1.391 . S
C27 H9 0.941 . S
C27 C26 1.391 . S
C27 C28 1.396 . S
C28 H12 0.939 . S
C28 C27 1.396 . S
C28 C29 1.397 . S
C29 C28 1.397 . S
C29 C30 1.385 . S
C30 H13 0.940 . S
C30 C29 1.385 . S
C30 C31 1.388 . S
C31 H10 0.939 . S
C31 C26 1.391 . S
C31 C30 1.388 . S
P32 O43 1.490 . S
P32 C46 1.812 . S
P32 C52 1.803 . S
P32 C58 1.819 . S
H33 C47 0.941 . S
H34 C48 0.939 . S
H35 C50 0.940 . S
H36 C51 0.940 . S
H37 C53 0.939 . S
H38 C54 0.942 . S
H39 C56 0.940 . S
H40 C57 0.939 . S
H41 C59 0.941 . S
H42 C63 0.939 . S
O43 P32 1.490 . S
H44 C60 0.939 . S
H45 C62 0.940 . S
C46 P32 1.812 . S
C46 C47 1.389 . S
C46 C51 1.391 . S
C47 H33 0.941 . S
C47 C46 1.389 . S
C47 C48 1.397 . S
C48 H34 0.939 . S
C48 C47 1.397 . S
C48 C49 1.378 . S
C49 C48 1.378 . S
C49 C50 1.378 . S
C50 H35 0.940 . S
C50 C49 1.378 . S
C50 C51 1.396 . S
C51 H36 0.940 . S
C51 C46 1.391 . S
C51 C50 1.396 . S
C52 P32 1.803 . S
C52 C53 1.378 . S
C52 C57 1.400 . S
C53 H37 0.939 . S
C53 C52 1.378 . S
C53 C54 1.361 . S
C54 H38 0.942 . S
C54 C53 1.361 . S
C54 C55 1.369 . S
C55 C54 1.369 . S
C55 C56 1.404 . S
C56 H39 0.940 . S
C56 C55 1.404 . S
C56 C57 1.389 . S
C57 H40 0.939 . S
C57 C52 1.400 . S
C57 C56 1.389 . S
C58 P32 1.819 . S
C58 C59 1.391 . S
C58 C63 1.391 . S
C59 H41 0.941 . S
C59 C58 1.391 . S
C59 C60 1.396 . S
C60 H44 0.939 . S
C60 C59 1.396 . S
C60 C61 1.397 . S
C61 C60 1.397 . S
C61 C62 1.385 . S
C62 H45 0.940 . S
C62 C61 1.385 . S
C62 C63 1.388 . S
C63 H42 0.939 . S
C63 C58 1.391 . S
C63 C62 1.388 . S
P64 O75 1.490 . S
P64 C78 1.812 1_554 S
P64 C84 1.803 . S
P64 C90 1.819 . S
H65 C79 0.941 . S
H66 C80 0.939 . S
H67 C82 0.940 . S
H68 C83 0.940 . S
H69 C85 0.939 . S
H70 C86 0.942 . S
H71 C88 0.940 . S
H72 C89 0.939 . S
H73 C91 0.941 . S
H74 C95 0.939 . S
O75 P64 1.490 . S
H76 C92 0.939 . S
H77 C94 0.940 . S
C78 P64 1.812 1_556 S
C78 C79 1.389 . S
C78 C83 1.391 . S
C79 H65 0.941 . S
C79 C78 1.389 . S
C79 C80 1.397 . S
C80 H66 0.939 . S
C80 C79 1.397 . S
C80 C81 1.378 . S
C81 C80 1.378 . S
C81 C82 1.378 . S
C82 H67 0.940 . S
C82 C81 1.378 . S
C82 C83 1.396 . S
C83 H68 0.940 . S
C83 C78 1.391 . S
C83 C82 1.396 . S
C84 P64 1.803 . S
C84 C85 1.378 . S
C84 C89 1.400 1_554 S
C85 H69 0.939 . S
C85 C84 1.378 . S
C85 C86 1.361 . S
C86 H70 0.942 . S
C86 C85 1.361 . S
C86 C87 1.369 . S
C87 C86 1.369 . S
C87 C88 1.404 1_554 S
C88 H71 0.940 . S
C88 C87 1.404 1_556 S
C88 C89 1.389 . S
C89 H72 0.939 . S
C89 C84 1.400 1_556 S
C89 C88 1.389 . S
C90 P64 1.819 . S
C90 C91 1.391 . S
C90 C95 1.391 . S
C91 H73 0.941 . S
C91 C90 1.391 . S
C91 C92 1.396 . S
C92 H76 0.939 . S
C92 C91 1.396 . S
C92 C93 1.397 . S
C93 C92 1.397 . S
C93 C94 1.385 . S
C94 H77 0.940 . S
C94 C93 1.385 . S
C94 C95 1.388 . S
C95 H74 0.939 . S
C95 C90 1.391 . S
C95 C94 1.388 . S
P96 O107 1.490 . S
P96 C110 1.812 . S
P96 C116 1.803 . S
P96 C122 1.819 . S
H97 C111 0.941 . S
H98 C112 0.939 . S
H99 C114 0.940 . S
H100 C115 0.940 . S
H101 C117 0.939 . S
H102 C118 0.942 . S
H103 C120 0.940 . S
H104 C121 0.939 . S
H105 C123 0.941 . S
H106 C127 0.939 . S
O107 P96 1.490 . S
H108 C124 0.939 . S
H109 C126 0.940 . S
C110 P96 1.812 . S
C110 C111 1.389 . S
C110 C115 1.391 . S
C111 H97 0.941 . S
C111 C110 1.389 . S
C111 C112 1.397 . S
C112 H98 0.939 . S
C112 C111 1.397 . S
C112 C113 1.378 . S
C113 C112 1.378 . S
C113 C114 1.378 . S
C114 H99 0.940 . S
C114 C113 1.378 . S
C114 C115 1.396 . S
C115 H100 0.940 . S
C115 C110 1.391 . S
C115 C114 1.396 . S
C116 P96 1.803 . S
C116 C117 1.378 . S
C116 C121 1.400 . S
C117 H101 0.939 . S
C117 C116 1.378 . S
C117 C118 1.361 . S
C118 H102 0.942 . S
C118 C117 1.361 . S
C118 C119 1.369 . S
C119 C118 1.369 . S
C119 C120 1.404 . S
C120 H103 0.940 . S
C120 C119 1.404 . S
C120 C121 1.389 . S
C121 H104 0.939 . S
C121 C116 1.400 . S
C121 C120 1.389 . S
C122 P96 1.819 . S
C122 C123 1.391 . S
C122 C127 1.391 . S
C123 H105 0.941 . S
C123 C122 1.391 . S
C123 C124 1.396 . S
C124 H108 0.939 . S
C124 C123 1.396 . S
C124 C125 1.397 . S
C125 C124 1.397 . S
C125 C126 1.385 . S
C126 H109 0.940 . S
C126 C125 1.385 . S
C126 C127 1.388 . S
C127 H106 0.939 . S
C127 C122 1.391 . S
C127 C126 1.388 . S
C128 O144 1.251 . S
C128 O146 1.254 1_455 S
N129 C130 1.333 . S
N129 C134 1.307 . S
N129 Zn135 2.020 . S
C130 N129 1.333 . S
C130 C131 1.379 . S
C130 H148 0.952 . S
C131 C130 1.379 . S
C131 C132 1.390 . S
C131 H158 0.949 . S
C132 C131 1.390 . S
C132 C133 1.357 . S
C133 C132 1.357 . S
C133 C134 1.370 . S
C133 H159 0.950 . S
C134 N129 1.307 . S
C134 C133 1.370 . S
C134 H152 0.948 . S
Zn135 N129 2.020 . S
Zn135 O144 2.039 1_545 S
Zn135 O150 2.034 1_545 S
Zn135 O154 2.025 . S
Zn135 O156 2.024 . S
C136 O155 1.246 . S
C136 O156 1.249 1_655 S
N137 C138 1.307 . S
N137 C139 1.333 . S
N137 Zn143 2.020 . S
C138 N137 1.307 . S
C138 C142 1.370 . S
C138 H149 0.948 . S
C139 N137 1.333 . S
C139 C140 1.379 . S
C139 H147 0.952 . S
C140 C139 1.379 . S
C140 C141 1.390 . S
C140 H160 0.949 . S
C141 C140 1.390 . S
C141 C142 1.357 . S
C142 C138 1.370 . S
C142 C141 1.357 . S
C142 H161 0.950 . S
Zn143 N137 2.020 . S
Zn143 O146 2.025 . S
Zn143 O151 2.024 . S
Zn143 O153 2.039 1_565 S
Zn143 O155 2.034 1_565 S
O144 C128 1.251 . S
O144 Zn135 2.039 1_565 S
C145 O150 1.246 . S
C145 O151 1.249 1_455 S
O146 C128 1.254 1_655 S
O146 Zn143 2.025 . S
H147 C139 0.952 . S
H148 C130 0.952 . S
H149 C138 0.948 . S
O150 Zn135 2.034 1_565 S
O150 C145 1.246 . S
O151 Zn143 2.024 . S
O151 C145 1.249 1_655 S
H152 C134 0.948 . S
O153 Zn143 2.039 1_545 S
O153 C157 1.251 . S
O154 Zn135 2.025 . S
O154 C157 1.254 1_455 S
O155 C136 1.246 . S
O155 Zn143 2.034 1_545 S
O156 Zn135 2.024 . S
O156 C136 1.249 1_455 S
C157 O153 1.251 . S
C157 O154 1.254 1_655 S
H158 C131 0.949 . S
H159 C133 0.950 . S
H160 C140 0.949 . S
H161 C142 0.950 . S
C162 O178 1.251 . S
C162 O180 1.254 . S
N163 C164 1.343 . S
N163 C168 1.307 . S
N163 Zn169 2.020 . S
C164 N163 1.343 . S
C164 C165 1.379 1_554 S
C164 H182 0.943 1_554 S
C165 C164 1.379 1_556 S
C165 C166 1.391 1_556 S
C165 H192 0.948 . S
C166 C165 1.391 1_554 S
C166 C167 1.357 . S
C167 C166 1.357 . S
C167 C168 1.370 . S
C167 H193 0.950 . S
C168 N163 1.307 . S
C168 C167 1.370 . S
C168 H186 0.948 . S
Zn169 N163 2.020 . S
Zn169 O178 2.039 1_554 S
Zn169 O184 2.034 . S
Zn169 O188 2.025 . S
Zn169 O190 2.024 1_554 S
C170 O189 1.246 . S
C170 O190 1.249 . S
N171 C172 1.307 . S
N171 C173 1.333 . S
N171 Zn177 2.020 . S
C172 N171 1.307 . S
C172 C176 1.370 . S
C172 H183 0.948 1_554 S
C173 N171 1.333 . S
C173 C174 1.379 . S
C173 H181 0.952 . S
C174 C173 1.379 . S
C174 C175 1.390 . S
C174 H194 0.949 . S
C175 C174 1.390 . S
C175 C176 1.357 . S
C176 C172 1.370 . S
C176 C175 1.357 . S
C176 H195 0.950 1_554 S
Zn177 N171 2.020 . S
Zn177 O180 2.025 1_554 S
Zn177 O185 2.024 . S
Zn177 O187 2.039 . S
Zn177 O189 2.034 1_554 S
O178 C162 1.251 . S
O178 Zn169 2.039 1_556 S
C179 O184 1.246 . S
C179 O185 1.249 . S
O180 C162 1.254 . S
O180 Zn177 2.025 1_556 S
H181 C173 0.952 . S
H182 C164 0.943 1_556 S
H183 C172 0.948 1_556 S
O184 Zn169 2.034 . S
O184 C179 1.246 . S
O185 Zn177 2.024 . S
O185 C179 1.249 . S
H186 C168 0.948 . S
O187 Zn177 2.039 . S
O187 C191 1.251 . S
O188 Zn169 2.025 . S
O188 C191 1.254 . S
O189 C170 1.246 . S
O189 Zn177 2.034 1_556 S
O190 Zn169 2.024 1_556 S
O190 C170 1.249 . S
C191 O187 1.251 . S
C191 O188 1.254 . S
H192 C165 0.948 . S
H193 C167 0.950 . S
H194 C174 0.949 . S
H195 C176 0.950 1_556 S
H196 C214 0.951 . S
H197 C216 0.951 . S
H198 C218 0.950 . S
H199 C219 0.950 . S
H200 C221 0.950 . S
H201 C224 0.950 . S
H202 C225 0.950 . S
H203 C227 0.950 . S
H204 C228 0.950 . S
H205 C229 0.951 . S
H206 C231 0.951 . S
H207 C233 0.950 . S
H208 C234 0.950 . S
H209 C236 0.950 . S
H210 C239 0.950 . S
H211 C240 0.950 . S
H212 C242 0.950 . S
H213 C243 0.950 . S
C214 H196 0.951 . S
C214 C215 1.366 . S
C214 C216 1.388 . S
C215 C214 1.366 . S
C215 C219 1.385 . S
C216 H197 0.951 . S
C216 C214 1.388 . S
C216 C217 1.366 . S
C217 C216 1.366 . S
C217 C218 1.414 . S
C217 C220 1.499 . S
C218 H198 0.950 . S
C218 C217 1.414 . S
C218 C219 1.374 . S
C219 H199 0.950 . S
C219 C215 1.385 . S
C219 C218 1.374 . S
C220 C217 1.499 . S
C220 C221 1.373 . S
C220 C222 1.389 . S
C221 H200 0.950 . S
C221 C220 1.373 . S
C221 C237 1.377 . S
C222 C220 1.389 . S
C222 C223 1.524 . S
C222 C236 1.377 . S
C223 C222 1.524 . S
C223 C224 1.397 . S
C223 C228 1.363 . S
C224 H201 0.950 . S
C224 C223 1.397 . S
C224 C225 1.334 . S
C225 H202 0.950 . S
C225 C224 1.334 . S
C225 C226 1.287 . S
C226 C225 1.287 . S
C226 C227 1.524 . S
C226 H245 0.913 . S
C227 H203 0.950 . S
C227 C226 1.524 . S
C227 C228 1.415 . S
C228 H204 0.950 . S
C228 C223 1.363 . S
C228 C227 1.415 . S
C229 H205 0.951 . S
C229 C230 1.366 . S
C229 C231 1.388 . S
C230 C229 1.366 . S
C230 C234 1.385 . S
C231 H206 0.951 . S
C231 C229 1.388 . S
C231 C232 1.366 . S
C232 C231 1.366 . S
C232 C233 1.414 . S
C232 C235 1.499 . S
C233 H207 0.950 . S
C233 C232 1.414 . S
C233 C234 1.374 . S
C234 H208 0.950 . S
C234 C230 1.385 . S
C234 C233 1.374 . S
C235 C232 1.499 . S
C235 C236 1.373 . S
C235 C237 1.389 . S
C236 H209 0.950 . S
C236 C222 1.377 . S
C236 C235 1.373 . S
C237 C221 1.377 . S
C237 C235 1.389 . S
C237 C238 1.524 . S
C238 C237 1.524 . S
C238 C239 1.397 . S
C238 C243 1.363 . S
C239 H210 0.950 . S
C239 C238 1.397 . S
C239 C240 1.334 . S
C240 H211 0.950 . S
C240 C239 1.334 . S
C240 C241 1.287 . S
C241 C240 1.287 . S
C241 C242 1.524 . S
C241 H244 0.999 . S
C242 H212 0.950 . S
C242 C241 1.524 . S
C242 C243 1.415 . S
C243 H213 0.950 . S
C243 C238 1.363 . S
C243 C242 1.415 . S
H244 C241 0.999 . S
H245 C226 0.913 . S
H246 C264 0.951 1_556 S
H247 C266 0.951 1_556 S
H248 C268 0.950 . S
H249 C269 0.950 . S
H250 C271 0.943 1_556 S
H251 C274 0.950 . S
H252 C275 0.950 . S
H253 C277 0.950 . S
H254 C278 0.950 . S
H255 C279 0.951 . S
H256 C281 0.951 . S
H257 C283 0.950 . S
H258 C284 0.959 . S
H259 C286 0.950 . S
H260 C289 0.950 . S
H261 C290 0.950 . S
H262 C292 0.950 . S
H263 C293 0.950 1_554 S
C264 H246 0.951 1_554 S
C264 C265 1.366 . S
C264 C266 1.388 . S
C265 C264 1.366 . S
C265 C269 1.385 . S
C266 H247 0.951 1_554 S
C266 C264 1.388 . S
C266 C267 1.366 . S
C267 C266 1.366 . S
C267 C268 1.414 . S
C267 C270 1.499 . S
C268 H248 0.950 . S
C268 C267 1.414 . S
C268 C269 1.374 . S
C269 H249 0.950 . S
C269 C265 1.385 . S
C269 C268 1.374 . S
C270 C267 1.499 . S
C270 C271 1.383 . S
C270 C272 1.389 . S
C271 H250 0.943 1_554 S
C271 C270 1.383 . S
C271 C287 1.374 1_554 S
C272 C270 1.389 . S
C272 C273 1.524 . S
C272 C286 1.377 . S
C273 C272 1.524 . S
C273 C274 1.397 . S
C273 C278 1.363 . S
C274 H251 0.950 . S
C274 C273 1.397 . S
C274 C275 1.334 . S
C275 H252 0.950 . S
C275 C274 1.334 . S
C275 C276 1.287 . S
C276 C275 1.287 . S
C276 C277 1.524 . S
C276 H295 0.913 . S
C277 H253 0.950 . S
C277 C276 1.524 . S
C277 C278 1.415 . S
C278 H254 0.950 . S
C278 C273 1.363 . S
C278 C277 1.415 . S
C279 H255 0.951 . S
C279 C280 1.366 . S
C279 C281 1.388 . S
C280 C279 1.366 . S
C280 C284 1.377 1_554 S
C281 H256 0.951 . S
C281 C279 1.388 . S
C281 C282 1.366 . S
C282 C281 1.366 . S
C282 C283 1.414 1_554 S
C282 C285 1.499 . S
C283 H257 0.950 . S
C283 C282 1.414 1_556 S
C283 C284 1.374 . S
C284 H258 0.959 . S
C284 C280 1.377 1_556 S
C284 C283 1.374 . S
C285 C282 1.499 . S
C285 C286 1.373 . S
C285 C287 1.389 1_554 S
C286 H259 0.950 . S
C286 C272 1.377 . S
C286 C285 1.373 . S
C287 C271 1.374 1_556 S
C287 C285 1.389 1_556 S
C287 C288 1.524 . S
C288 C287 1.524 . S
C288 C289 1.397 . S
C288 C293 1.363 . S
C289 H260 0.950 . S
C289 C288 1.397 . S
C289 C290 1.334 . S
C290 H261 0.950 . S
C290 C289 1.334 . S
C290 C291 1.287 . S
C291 C290 1.287 . S
C291 C292 1.524 . S
C291 H294 0.999 . S
C292 H262 0.950 . S
C292 C291 1.524 . S
C292 C293 1.415 . S
C293 H263 0.950 1_556 S
C293 C288 1.363 . S
C293 C292 1.415 . S
H294 C291 0.999 . S
H295 C276 0.913 . S
H296 C314 0.951 . S
H297 C316 0.951 . S
H298 C318 0.950 . S
H299 C319 0.950 . S
H300 C321 0.950 . S
H301 C324 0.950 . S
H302 C325 0.950 . S
H303 C327 0.950 . S
H304 C328 0.950 . S
H305 C329 0.951 . S
H306 C331 0.951 . S
H307 C333 0.950 . S
H308 C334 0.950 . S
H309 C336 0.950 . S
H310 C339 0.950 . S
H311 C340 0.950 . S
H312 C342 0.950 . S
H313 C343 0.950 . S
C314 H296 0.951 . S
C314 C315 1.366 . S
C314 C316 1.388 . S
C315 C314 1.366 . S
C315 C319 1.385 . S
C316 H297 0.951 . S
C316 C314 1.388 . S
C316 C317 1.366 . S
C317 C316 1.366 . S
C317 C318 1.414 . S
C317 C320 1.499 . S
C318 H298 0.950 . S
C318 C317 1.414 . S
C318 C319 1.374 . S
C319 H299 0.950 . S
C319 C315 1.385 . S
C319 C318 1.374 . S
C320 C317 1.499 . S
C320 C321 1.373 . S
C320 C322 1.389 . S
C321 H300 0.950 . S
C321 C320 1.373 . S
C321 C337 1.377 . S
C322 C320 1.389 . S
C322 C323 1.524 . S
C322 C336 1.377 . S
C323 C322 1.524 . S
C323 C324 1.397 . S
C323 C328 1.363 . S
C324 H301 0.950 . S
C324 C323 1.397 . S
C324 C325 1.334 . S
C325 H302 0.950 . S
C325 C324 1.334 . S
C325 C326 1.287 . S
C326 C325 1.287 . S
C326 C327 1.524 . S
C326 H345 0.913 . S
C327 H303 0.950 . S
C327 C326 1.524 . S
C327 C328 1.415 . S
C328 H304 0.950 . S
C328 C323 1.363 . S
C328 C327 1.415 . S
C329 H305 0.951 . S
C329 C330 1.366 . S
C329 C331 1.388 . S
C330 C329 1.366 . S
C330 C334 1.385 . S
C331 H306 0.951 . S
C331 C329 1.388 . S
C331 C332 1.366 . S
C332 C331 1.366 . S
C332 C333 1.414 . S
C332 C335 1.499 . S
C333 H307 0.950 . S
C333 C332 1.414 . S
C333 C334 1.374 . S
C334 H308 0.950 . S
C334 C330 1.385 . S
C334 C333 1.374 . S
C335 C332 1.499 . S
C335 C336 1.373 . S
C335 C337 1.389 . S
C336 H309 0.950 . S
C336 C322 1.377 . S
C336 C335 1.373 . S
C337 C321 1.377 . S
C337 C335 1.389 . S
C337 C338 1.524 . S
C338 C337 1.524 . S
C338 C339 1.397 . S
C338 C343 1.363 . S
C339 H310 0.950 . S
C339 C338 1.397 . S
C339 C340 1.334 . S
C340 H311 0.950 . S
C340 C339 1.334 . S
C340 C341 1.287 . S
C341 C340 1.287 . S
C341 C342 1.524 . S
C341 H344 0.999 . S
C342 H312 0.950 . S
C342 C341 1.524 . S
C342 C343 1.415 . S
C343 H313 0.950 . S
C343 C338 1.363 . S
C343 C342 1.415 . S
H344 C341 0.999 . S
H345 C326 0.913 . S
H346 C364 0.951 . S
H347 C366 0.951 . S
H348 C368 0.950 . S
H349 C369 0.950 . S
H350 C371 0.950 . S
H351 C374 0.950 . S
H352 C375 0.950 . S
H353 C377 0.950 . S
H354 C378 0.950 . S
H355 C379 0.951 . S
H356 C381 0.951 . S
H357 C383 0.950 1_556 S
H358 C384 0.950 1_556 S
H359 C386 0.950 . S
H360 C389 0.950 . S
H361 C390 0.950 . S
H362 C392 0.950 . S
H363 C393 0.950 . S
C364 H346 0.951 . S
C364 C365 1.366 1_556 S
C364 C366 1.388 . S
C365 C364 1.366 1_554 S
C365 C369 1.385 . S
C366 H347 0.951 . S
C366 C364 1.388 . S
C366 C367 1.366 1_556 S
C367 C366 1.366 1_554 S
C367 C368 1.414 . S
C367 C370 1.499 . S
C368 H348 0.950 . S
C368 C367 1.414 . S
C368 C369 1.374 . S
C369 H349 0.950 . S
C369 C365 1.385 . S
C369 C368 1.374 . S
C370 C367 1.499 . S
C370 C371 1.373 . S
C370 C372 1.389 1_554 S
C371 H350 0.950 . S
C371 C370 1.373 . S
C371 C387 1.377 . S
C372 C370 1.389 1_556 S
C372 C373 1.524 . S
C372 C386 1.377 . S
C373 C372 1.524 . S
C373 C374 1.397 . S
C373 C378 1.363 . S
C374 H351 0.950 . S
C374 C373 1.397 . S
C374 C375 1.334 . S
C375 H352 0.950 . S
C375 C374 1.334 . S
C375 C376 1.287 . S
C376 C375 1.287 . S
C376 C377 1.524 . S
C376 H395 0.913 . S
C377 H353 0.950 . S
C377 C376 1.524 . S
C377 C378 1.415 . S
C378 H354 0.950 . S
C378 C373 1.363 . S
C378 C377 1.415 . S
C379 H355 0.951 . S
C379 C380 1.366 . S
C379 C381 1.388 . S
C380 C379 1.366 . S
C380 C384 1.385 . S
C381 H356 0.951 . S
C381 C379 1.388 . S
C381 C382 1.366 . S
C382 C381 1.366 . S
C382 C383 1.414 . S
C382 C385 1.499 . S
C383 H357 0.950 1_554 S
C383 C382 1.414 . S
C383 C384 1.374 . S
C384 H358 0.950 1_554 S
C384 C380 1.385 . S
C384 C383 1.374 . S
C385 C382 1.499 . S
C385 C386 1.373 1_554 S
C385 C387 1.389 . S
C386 H359 0.950 . S
C386 C372 1.377 . S
C386 C385 1.373 1_556 S
C387 C371 1.377 . S
C387 C385 1.389 . S
C387 C388 1.524 . S
C388 C387 1.524 . S
C388 C389 1.397 . S
C388 C393 1.363 . S
C389 H360 0.950 . S
C389 C388 1.397 . S
C389 C390 1.334 . S
C390 H361 0.950 . S
C390 C389 1.334 . S
C390 C391 1.287 . S
C391 C390 1.287 . S
C391 C392 1.524 . S
C391 H394 0.999 . S
C392 H362 0.950 . S
C392 C391 1.524 . S
C392 C393 1.415 . S
C393 H363 0.950 . S
C393 C388 1.363 . S
C393 C392 1.415 . S
H394 C391 0.999 . S
H395 C376 0.913 . S
H396 C414 0.951 . S
H397 C416 0.951 . S
H398 C418 0.950 . S
H399 C419 0.950 . S
H400 C421 0.950 . S
H401 C424 0.950 . S
H402 C425 0.950 . S
H403 C427 0.950 . S
H404 C428 0.950 . S
H405 C429 0.951 1_655 S
H406 C431 0.951 . S
H407 C433 0.950 . S
H408 C434 0.950 . S
H409 C436 0.950 . S
H410 C439 0.950 . S
H411 C440 0.953 . S
H412 C442 0.950 . S
H413 C443 0.950 . S
C414 H396 0.951 . S
C414 C415 1.366 . S
C414 C416 1.388 . S
C415 C414 1.366 . S
C415 C419 1.385 . S
C416 H397 0.951 . S
C416 C414 1.388 . S
C416 C417 1.366 . S
C417 C416 1.366 . S
C417 C418 1.414 . S
C417 C420 1.499 . S
C418 H398 0.950 . S
C418 C417 1.414 . S
C418 C419 1.374 . S
C419 H399 0.950 . S
C419 C415 1.385 . S
C419 C418 1.374 . S
C420 C417 1.499 . S
C420 C421 1.373 . S
C420 C422 1.389 . S
C421 H400 0.950 . S
C421 C420 1.373 . S
C421 C437 1.377 . S
C422 C420 1.389 . S
C422 C423 1.524 . S
C422 C436 1.377 . S
C423 C422 1.524 . S
C423 C424 1.397 . S
C423 C428 1.363 . S
C424 H401 0.950 . S
C424 C423 1.397 . S
C424 C425 1.334 . S
C425 H402 0.950 . S
C425 C424 1.334 . S
C425 C426 1.287 . S
C426 C425 1.287 . S
C426 C427 1.524 . S
C426 H445 0.913 . S
C427 H403 0.950 . S
C427 C426 1.524 . S
C427 C428 1.415 . S
C428 H404 0.950 . S
C428 C423 1.363 . S
C428 C427 1.415 . S
C429 H405 0.951 1_455 S
C429 C430 1.366 . S
C429 C431 1.388 . S
C430 C429 1.366 . S
C430 C434 1.385 . S
C431 H406 0.951 . S
C431 C429 1.388 . S
C431 C432 1.366 . S
C432 C431 1.366 . S
C432 C433 1.414 . S
C432 C435 1.499 . S
C433 H407 0.950 . S
C433 C432 1.414 . S
C433 C434 1.374 . S
C434 H408 0.950 . S
C434 C430 1.385 . S
C434 C433 1.374 . S
C435 C432 1.499 . S
C435 C436 1.373 . S
C435 C437 1.389 . S
C436 H409 0.950 . S
C436 C422 1.377 . S
C436 C435 1.373 . S
C437 C421 1.377 . S
C437 C435 1.389 . S
C437 C438 1.524 . S
C438 C437 1.524 . S
C438 C439 1.397 . S
C438 C443 1.363 . S
C439 H410 0.950 . S
C439 C438 1.397 . S
C439 C440 1.334 . S
C440 H411 0.953 . S
C440 C439 1.334 . S
C440 C441 1.287 . S
C441 C440 1.287 . S
C441 C442 1.524 . S
C441 H444 0.999 1_565 S
C442 H412 0.950 . S
C442 C441 1.524 . S
C442 C443 1.415 . S
C443 H413 0.950 . S
C443 C438 1.363 . S
C443 C442 1.415 . S
H444 C441 0.999 1_545 S
H445 C426 0.913 . S
H446 C464 0.951 . S
H447 C466 0.951 . S
H448 C468 0.950 . S
H449 C469 0.950 . S
H450 C471 0.950 . S
H451 C474 0.950 . S
H452 C475 0.950 . S
H453 C477 0.950 . S
H454 C478 0.950 . S
H455 C479 0.951 . S
H456 C481 0.951 . S
H457 C483 0.950 . S
H458 C484 0.950 . S
H459 C486 0.950 . S
H460 C489 0.950 . S
H461 C490 0.950 . S
H462 C492 0.950 . S
H463 C493 0.950 . S
C464 H446 0.951 . S
C464 C465 1.366 . S
C464 C466 1.388 . S
C465 C464 1.366 . S
C465 C469 1.385 . S
C466 H447 0.951 . S
C466 C464 1.388 . S
C466 C467 1.366 . S
C467 C466 1.366 . S
C467 C468 1.414 . S
C467 C470 1.499 . S
C468 H448 0.950 . S
C468 C467 1.414 . S
C468 C469 1.374 . S
C469 H449 0.950 . S
C469 C465 1.385 . S
C469 C468 1.374 . S
C470 C467 1.499 . S
C470 C471 1.373 . S
C470 C472 1.389 . S
C471 H450 0.950 . S
C471 C470 1.373 . S
C471 C487 1.377 . S
C472 C470 1.389 . S
C472 C473 1.524 . S
C472 C486 1.377 . S
C473 C472 1.524 . S
C473 C474 1.397 . S
C473 C478 1.363 . S
C474 H451 0.950 . S
C474 C473 1.397 . S
C474 C475 1.334 . S
C475 H452 0.950 . S
C475 C474 1.334 . S
C475 C476 1.287 . S
C476 C475 1.287 . S
C476 C477 1.524 . S
C476 H495 0.913 . S
C477 H453 0.950 . S
C477 C476 1.524 . S
C477 C478 1.415 . S
C478 H454 0.950 . S
C478 C473 1.363 . S
C478 C477 1.415 . S
C479 H455 0.951 . S
C479 C480 1.366 . S
C479 C481 1.388 . S
C480 C479 1.366 . S
C480 C484 1.385 . S
C481 H456 0.951 . S
C481 C479 1.388 . S
C481 C482 1.366 . S
C482 C481 1.366 . S
C482 C483 1.414 . S
C482 C485 1.499 . S
C483 H457 0.950 . S
C483 C482 1.414 . S
C483 C484 1.374 . S
C484 H458 0.950 . S
C484 C480 1.385 . S
C484 C483 1.374 . S
C485 C482 1.499 . S
C485 C486 1.373 . S
C485 C487 1.389 . S
C486 H459 0.950 . S
C486 C472 1.377 . S
C486 C485 1.373 . S
C487 C471 1.377 . S
C487 C485 1.389 . S
C487 C488 1.524 . S
C488 C487 1.524 . S
C488 C489 1.397 . S
C488 C493 1.363 . S
C489 H460 0.950 . S
C489 C488 1.397 . S
C489 C490 1.334 . S
C490 H461 0.950 . S
C490 C489 1.334 . S
C490 C491 1.287 . S
C491 C490 1.287 . S
C491 C492 1.524 . S
C491 H494 0.999 . S
C492 H462 0.950 . S
C492 C491 1.524 . S
C492 C493 1.415 . S
C493 H463 0.950 . S
C493 C488 1.363 . S
C493 C492 1.415 . S
H494 C491 0.999 . S
H495 C476 0.913 . S
H496 C514 0.951 . S
H497 C516 0.951 . S
H498 C518 0.950 . S
H499 C519 0.950 . S
H500 C521 0.950 . S
H501 C524 0.950 . S
H502 C525 0.950 . S
H503 C527 0.950 . S
H504 C528 0.950 . S
H505 C529 0.951 1_455 S
H506 C531 0.981 . S
H507 C533 0.950 . S
H508 C534 0.950 . S
H509 C536 0.950 . S
H510 C539 0.950 . S
H511 C540 0.950 . S
H512 C542 0.950 . S
H513 C543 0.950 . S
C514 H496 0.951 . S
C514 C515 1.366 . S
C514 C516 1.388 . S
C515 C514 1.366 . S
C515 C519 1.385 . S
C516 H497 0.951 . S
C516 C514 1.388 . S
C516 C517 1.366 . S
C517 C516 1.366 . S
C517 C518 1.414 . S
C517 C520 1.499 . S
C518 H498 0.950 . S
C518 C517 1.414 . S
C518 C519 1.374 . S
C519 H499 0.950 . S
C519 C515 1.385 . S
C519 C518 1.374 . S
C520 C517 1.499 . S
C520 C521 1.373 . S
C520 C522 1.389 . S
C521 H500 0.950 . S
C521 C520 1.373 . S
C521 C537 1.377 . S
C522 C520 1.389 . S
C522 C523 1.524 . S
C522 C536 1.377 . S
C523 C522 1.524 . S
C523 C524 1.397 . S
C523 C528 1.363 . S
C524 H501 0.950 . S
C524 C523 1.397 . S
C524 C525 1.334 . S
C525 H502 0.950 . S
C525 C524 1.334 . S
C525 C526 1.287 . S
C526 C525 1.287 . S
C526 C527 1.524 . S
C526 H545 0.913 . S
C527 H503 0.950 . S
C527 C526 1.524 . S
C527 C528 1.415 . S
C528 H504 0.950 . S
C528 C523 1.363 . S
C528 C527 1.415 . S
C529 H505 0.951 1_655 S
C529 C530 1.366 . S
C529 C531 1.388 . S
C530 C529 1.366 . S
C530 C534 1.385 . S
C531 H506 0.981 . S
C531 C529 1.388 . S
C531 C532 1.366 . S
C532 C531 1.366 . S
C532 C533 1.414 . S
C532 C535 1.499 . S
C533 H507 0.950 . S
C533 C532 1.414 . S
C533 C534 1.374 . S
C534 H508 0.950 . S
C534 C530 1.385 . S
C534 C533 1.374 . S
C535 C532 1.499 . S
C535 C536 1.373 . S
C535 C537 1.389 . S
C536 H509 0.950 . S
C536 C522 1.377 . S
C536 C535 1.373 . S
C537 C521 1.377 . S
C537 C535 1.389 . S
C537 C538 1.524 . S
C538 C537 1.524 . S
C538 C539 1.397 . S
C538 C543 1.363 1_655 S
C539 H510 0.950 . S
C539 C538 1.397 . S
C539 C540 1.334 . S
C540 H511 0.950 . S
C540 C539 1.334 . S
C540 C541 1.287 1_655 S
C541 C540 1.287 1_455 S
C541 C542 1.524 . S
C541 H544 0.999 . S
C542 H512 0.950 . S
C542 C541 1.524 . S
C542 C543 1.415 . S
C543 H513 0.950 . S
C543 C538 1.363 1_455 S
C543 C542 1.415 . S
H544 C541 0.999 . S
H545 C526 0.913 . S
H546 C564 0.951 . S
H547 C566 0.951 . S
H548 C568 0.950 . S
H549 C569 0.950 . S
H550 C571 0.950 . S
H551 C574 0.950 . S
H552 C575 0.950 . S
H553 C577 0.950 . S
H554 C578 0.950 . S
H555 C579 0.951 . S
H556 C581 0.951 . S
H557 C583 0.950 . S
H558 C584 0.950 . S
H559 C586 0.950 . S
H560 C589 0.950 . S
H561 C590 0.950 . S
H562 C592 0.950 . S
H563 C593 0.950 . S
C564 H546 0.951 . S
C564 C565 1.366 . S
C564 C566 1.388 . S
C565 C564 1.366 . S
C565 C569 1.385 . S
C566 H547 0.951 . S
C566 C564 1.388 . S
C566 C567 1.366 . S
C567 C566 1.366 . S
C567 C568 1.414 . S
C567 C570 1.499 . S
C568 H548 0.950 . S
C568 C567 1.414 . S
C568 C569 1.374 . S
C569 H549 0.950 . S
C569 C565 1.385 . S
C569 C568 1.374 . S
C570 C567 1.499 . S
C570 C571 1.373 . S
C570 C572 1.389 . S
C571 H550 0.950 . S
C571 C570 1.373 . S
C571 C587 1.377 . S
C572 C570 1.389 . S
C572 C573 1.524 . S
C572 C586 1.377 . S
C573 C572 1.524 . S
C573 C574 1.397 . S
C573 C578 1.363 . S
C574 H551 0.950 . S
C574 C573 1.397 . S
C574 C575 1.334 . S
C575 H552 0.950 . S
C575 C574 1.334 . S
C575 C576 1.287 . S
C576 C575 1.287 . S
C576 C577 1.524 . S
C576 H595 0.913 . S
C577 H553 0.950 . S
C577 C576 1.524 . S
C577 C578 1.415 . S
C578 H554 0.950 . S
C578 C573 1.363 . S
C578 C577 1.415 . S
C579 H555 0.951 . S
C579 C580 1.366 . S
C579 C581 1.388 . S
C580 C579 1.366 . S
C580 C584 1.385 . S
C581 H556 0.951 . S
C581 C579 1.388 . S
C581 C582 1.366 . S
C582 C581 1.366 . S
C582 C583 1.414 . S
C582 C585 1.499 . S
C583 H557 0.950 . S
C583 C582 1.414 . S
C583 C584 1.374 . S
C584 H558 0.950 . S
C584 C580 1.385 . S
C584 C583 1.374 . S
C585 C582 1.499 . S
C585 C586 1.373 . S
C585 C587 1.389 . S
C586 H559 0.950 . S
C586 C572 1.377 . S
C586 C585 1.373 . S
C587 C571 1.377 . S
C587 C585 1.389 . S
C587 C588 1.524 . S
C588 C587 1.524 . S
C588 C589 1.397 . S
C588 C593 1.363 . S
C589 H560 0.950 . S
C589 C588 1.397 . S
C589 C590 1.334 . S
C590 H561 0.950 . S
C590 C589 1.334 . S
C590 C591 1.287 . S
C591 C590 1.287 . S
C591 C592 1.524 . S
C591 H594 0.999 . S
C592 H562 0.950 . S
C592 C591 1.524 . S
C592 C593 1.415 . S
C593 H563 0.950 . S
C593 C588 1.363 . S
C593 C592 1.415 . S
H594 C591 0.999 . S
H595 C576 0.913 . S
H596 C614 0.951 . S
H597 C616 0.951 . S
H598 C618 0.950 . S
H599 C619 0.950 . S
H600 C621 0.950 . S
H601 C624 0.950 . S
H602 C625 0.950 . S
H603 C627 0.950 . S
H604 C628 0.950 . S
H605 C629 0.951 . S
H606 C631 0.951 . S
H607 C633 0.950 . S
H608 C634 0.950 . S
H609 C636 0.950 . S
H610 C639 0.950 . S
H611 C640 0.950 . S
H612 C642 0.950 . S
H613 C643 0.950 . S
C614 H596 0.951 . S
C614 C615 1.366 . S
C614 C616 1.388 . S
C615 C614 1.366 . S
C615 C619 1.385 . S
C616 H597 0.951 . S
C616 C614 1.388 . S
C616 C617 1.366 . S
C617 C616 1.366 . S
C617 C618 1.414 . S
C617 C620 1.499 . S
C618 H598 0.950 . S
C618 C617 1.414 . S
C618 C619 1.374 . S
C619 H599 0.950 . S
C619 C615 1.385 . S
C619 C618 1.374 . S
C620 C617 1.499 . S
C620 C621 1.373 . S
C620 C622 1.389 . S
C621 H600 0.950 . S
C621 C620 1.373 . S
C621 C637 1.377 . S
C622 C620 1.389 . S
C622 C623 1.524 . S
C622 C636 1.377 . S
C623 C622 1.524 . S
C623 C624 1.397 . S
C623 C628 1.363 . S
C624 H601 0.950 . S
C624 C623 1.397 . S
C624 C625 1.334 . S
C625 H602 0.950 . S
C625 C624 1.334 . S
C625 C626 1.287 . S
C626 C625 1.287 . S
C626 C627 1.524 . S
C626 H645 0.913 . S
C627 H603 0.950 . S
C627 C626 1.524 . S
C627 C628 1.415 . S
C628 H604 0.950 . S
C628 C623 1.363 . S
C628 C627 1.415 . S
C629 H605 0.951 . S
C629 C630 1.366 . S
C629 C631 1.388 . S
C630 C629 1.366 . S
C630 C634 1.385 . S
C631 H606 0.951 . S
C631 C629 1.388 . S
C631 C632 1.366 . S
C632 C631 1.366 . S
C632 C633 1.414 . S
C632 C635 1.499 . S
C633 H607 0.950 . S
C633 C632 1.414 . S
C633 C634 1.374 . S
C634 H608 0.950 . S
C634 C630 1.385 . S
C634 C633 1.374 . S
C635 C632 1.499 . S
C635 C636 1.373 . S
C635 C637 1.389 . S
C636 H609 0.950 . S
C636 C622 1.377 . S
C636 C635 1.373 . S
C637 C621 1.377 . S
C637 C635 1.389 . S
C637 C638 1.524 . S
C638 C637 1.524 . S
C638 C639 1.397 . S
C638 C643 1.363 . S
C639 H610 0.950 . S
C639 C638 1.397 . S
C639 C640 1.334 . S
C640 H611 0.950 . S
C640 C639 1.334 . S
C640 C641 1.287 . S
C641 C640 1.287 . S
C641 C642 1.524 . S
C641 H644 0.999 . S
C642 H612 0.950 . S
C642 C641 1.524 . S
C642 C643 1.415 . S
C643 H613 0.950 . S
C643 C638 1.363 . S
C643 C642 1.415 . S
H644 C641 0.999 . S
H645 C626 0.913 . S
H646 C664 0.951 . S
H647 C666 0.951 . S
H648 C668 0.950 . S
H649 C669 0.950 . S
H650 C671 0.950 . S
H651 C674 0.950 . S
H652 C675 0.950 . S
H653 C677 0.950 . S
H654 C678 0.950 . S
H655 C679 0.951 . S
H656 C681 0.951 . S
H657 C683 0.950 . S
H658 C684 0.950 1_455 S
H659 C686 0.950 . S
H660 C689 0.950 . S
H661 C690 0.950 . S
H662 C692 0.950 . S
H663 C693 0.950 . S
C664 H646 0.951 . S
C664 C665 1.366 . S
C664 C666 1.388 . S
C665 C664 1.366 . S
C665 C669 1.385 . S
C666 H647 0.951 . S
C666 C664 1.388 . S
C666 C667 1.366 . S
C667 C666 1.366 . S
C667 C668 1.414 . S
C667 C670 1.499 . S
C668 H648 0.950 . S
C668 C667 1.414 . S
C668 C669 1.374 . S
C669 H649 0.950 . S
C669 C665 1.385 . S
C669 C668 1.374 . S
C670 C667 1.499 . S
C670 C671 1.373 . S
C670 C672 1.389 . S
C671 H650 0.950 . S
C671 C670 1.373 . S
C671 C687 1.377 . S
C672 C670 1.389 . S
C672 C673 1.524 . S
C672 C686 1.377 . S
C673 C672 1.524 . S
C673 C674 1.397 . S
C673 C678 1.363 1_655 S
C674 H651 0.950 . S
C674 C673 1.397 . S
C674 C675 1.334 . S
C675 H652 0.950 . S
C675 C674 1.334 . S
C675 C676 1.287 1_655 S
C676 C675 1.287 1_455 S
C676 C677 1.524 . S
C676 H695 0.913 . S
C677 H653 0.950 . S
C677 C676 1.524 . S
C677 C678 1.415 . S
C678 H654 0.950 . S
C678 C673 1.363 1_455 S
C678 C677 1.415 . S
C679 H655 0.951 . S
C679 C680 1.366 . S
C679 C681 1.388 . S
C680 C679 1.366 . S
C680 C684 1.385 . S
C681 H656 0.951 . S
C681 C679 1.388 . S
C681 C682 1.366 . S
C682 C681 1.366 . S
C682 C683 1.414 . S
C682 C685 1.499 . S
C683 H657 0.950 . S
C683 C682 1.414 . S
C683 C684 1.374 . S
C684 H658 0.950 1_655 S
C684 C680 1.385 . S
C684 C683 1.374 . S
C685 C682 1.499 . S
C685 C686 1.373 . S
C685 C687 1.389 . S
C686 H659 0.950 . S
C686 C672 1.377 . S
C686 C685 1.373 . S
C687 C671 1.377 . S
C687 C685 1.389 . S
C687 C688 1.524 . S
C688 C687 1.524 . S
C688 C689 1.397 . S
C688 C693 1.363 . S
C689 H660 0.950 . S
C689 C688 1.397 . S
C689 C690 1.334 . S
C690 H661 0.950 . S
C690 C689 1.334 . S
C690 C691 1.287 . S
C691 C690 1.287 . S
C691 C692 1.524 . S
C691 H694 0.999 . S
C692 H662 0.950 . S
C692 C691 1.524 . S
C692 C693 1.415 . S
C693 H663 0.950 . S
C693 C688 1.363 . S
C693 C692 1.415 . S
H694 C691 0.999 . S
H695 C676 0.913 . S
H696 C714 0.951 . S
H697 C716 0.951 . S
H698 C718 0.950 . S
H699 C719 0.950 . S
H700 C721 0.950 . S
H701 C724 0.950 . S
H702 C725 0.950 . S
H703 C727 0.950 . S
H704 C728 0.950 . S
H705 C729 0.951 . S
H706 C731 0.951 . S
H707 C733 0.950 . S
H708 C734 0.950 . S
H709 C736 0.950 . S
H710 C739 0.950 . S
H711 C740 0.950 . S
H712 C742 0.950 . S
H713 C743 0.950 . S
C714 H696 0.951 . S
C714 C715 1.366 . S
C714 C716 1.388 . S
C715 C714 1.366 . S
C715 C719 1.385 . S
C716 H697 0.951 . S
C716 C714 1.388 . S
C716 C717 1.366 . S
C717 C716 1.366 . S
C717 C718 1.414 . S
C717 C720 1.499 . S
C718 H698 0.950 . S
C718 C717 1.414 . S
C718 C719 1.374 . S
C719 H699 0.950 . S
C719 C715 1.385 . S
C719 C718 1.374 . S
C720 C717 1.499 . S
C720 C721 1.373 . S
C720 C722 1.389 . S
C721 H700 0.950 . S
C721 C720 1.373 . S
C721 C737 1.377 . S
C722 C720 1.389 . S
C722 C723 1.524 . S
C722 C736 1.377 . S
C723 C722 1.524 . S
C723 C724 1.397 . S
C723 C728 1.363 . S
C724 H701 0.950 . S
C724 C723 1.397 . S
C724 C725 1.334 . S
C725 H702 0.950 . S
C725 C724 1.334 . S
C725 C726 1.287 . S
C726 C725 1.287 . S
C726 C727 1.524 . S
C726 H745 0.913 . S
C727 H703 0.950 . S
C727 C726 1.524 . S
C727 C728 1.415 . S
C728 H704 0.950 . S
C728 C723 1.363 . S
C728 C727 1.415 . S
C729 H705 0.951 . S
C729 C730 1.366 . S
C729 C731 1.388 . S
C730 C729 1.366 . S
C730 C734 1.385 . S
C731 H706 0.951 . S
C731 C729 1.388 . S
C731 C732 1.366 . S
C732 C731 1.366 . S
C732 C733 1.414 . S
C732 C735 1.499 . S
C733 H707 0.950 . S
C733 C732 1.414 . S
C733 C734 1.374 . S
C734 H708 0.950 . S
C734 C730 1.385 . S
C734 C733 1.374 . S
C735 C732 1.499 . S
C735 C736 1.373 . S
C735 C737 1.389 . S
C736 H709 0.950 . S
C736 C722 1.377 . S
C736 C735 1.373 . S
C737 C721 1.377 . S
C737 C735 1.389 . S
C737 C738 1.524 . S
C738 C737 1.524 . S
C738 C739 1.397 . S
C738 C743 1.363 . S
C739 H710 0.950 . S
C739 C738 1.397 . S
C739 C740 1.334 . S
C740 H711 0.950 . S
C740 C739 1.334 . S
C740 C741 1.287 . S
C741 C740 1.287 . S
C741 C742 1.524 . S
C741 H744 0.999 . S
C742 H712 0.950 . S
C742 C741 1.524 . S
C742 C743 1.415 . S
C743 H713 0.950 . S
C743 C738 1.363 . S
C743 C742 1.415 . S
H744 C741 0.999 . S
H745 C726 0.913 . S
H746 C764 0.951 . S
H747 C766 0.951 . S
H748 C768 0.950 . S
H749 C769 0.950 . S
H750 C771 0.950 . S
H751 C774 0.950 . S
H752 C775 0.950 . S
H753 C777 0.950 . S
H754 C778 0.950 . S
H755 C779 0.951 . S
H756 C781 0.951 . S
H757 C783 0.950 . S
H758 C784 0.950 1_655 S
H759 C786 0.950 . S
H760 C789 0.950 . S
H761 C790 0.950 . S
H762 C792 0.950 . S
H763 C793 0.950 . S
C764 H746 0.951 . S
C764 C765 1.366 . S
C764 C766 1.388 . S
C765 C764 1.366 . S
C765 C769 1.385 . S
C766 H747 0.951 . S
C766 C764 1.388 . S
C766 C767 1.366 . S
C767 C766 1.366 . S
C767 C768 1.414 . S
C767 C770 1.499 . S
C768 H748 0.950 . S
C768 C767 1.414 . S
C768 C769 1.374 . S
C769 H749 0.950 . S
C769 C765 1.385 . S
C769 C768 1.374 . S
C770 C767 1.499 . S
C770 C771 1.373 . S
C770 C772 1.389 . S
C771 H750 0.950 . S
C771 C770 1.373 . S
C771 C787 1.377 . S
C772 C770 1.389 . S
C772 C773 1.524 . S
C772 C786 1.377 . S
C773 C772 1.524 . S
C773 C774 1.397 . S
C773 C778 1.363 1_455 S
C774 H751 0.950 . S
C774 C773 1.397 . S
C774 C775 1.334 . S
C775 H752 0.950 . S
C775 C774 1.334 . S
C775 C776 1.287 1_455 S
C776 C775 1.287 1_655 S
C776 C777 1.524 . S
C776 H795 0.913 . S
C777 H753 0.950 . S
C777 C776 1.524 . S
C777 C778 1.415 . S
C778 H754 0.950 . S
C778 C773 1.363 1_655 S
C778 C777 1.415 . S
C779 H755 0.951 . S
C779 C780 1.366 . S
C779 C781 1.388 . S
C780 C779 1.366 . S
C780 C784 1.385 . S
C781 H756 0.951 . S
C781 C779 1.388 . S
C781 C782 1.366 . S
C782 C781 1.366 . S
C782 C783 1.414 . S
C782 C785 1.499 . S
C783 H757 0.950 . S
C783 C782 1.414 . S
C783 C784 1.374 . S
C784 H758 0.950 1_455 S
C784 C780 1.385 . S
C784 C783 1.374 . S
C785 C782 1.499 . S
C785 C786 1.373 . S
C785 C787 1.389 . S
C786 H759 0.950 . S
C786 C772 1.377 . S
C786 C785 1.373 . S
C787 C771 1.377 . S
C787 C785 1.389 . S
C787 C788 1.524 . S
C788 C787 1.524 . S
C788 C789 1.397 . S
C788 C793 1.363 . S
C789 H760 0.950 . S
C789 C788 1.397 . S
C789 C790 1.334 . S
C790 H761 0.950 . S
C790 C789 1.334 . S
C790 C791 1.287 . S
C791 C790 1.287 . S
C791 C792 1.524 . S
C791 H794 0.999 . S
C792 H762 0.950 . S
C792 C791 1.524 . S
C792 C793 1.415 . S
C793 H763 0.950 . S
C793 C788 1.363 . S
C793 C792 1.415 . S
H794 C791 0.999 . S
H795 C776 0.913 . S
C230 C132 1.599 . S
C215 C119 1.598 . S
C265 C23 1.464 . S
C280 C175 1.534 . S
C315 C55 1.509 . S
C330 C141 1.599 . S
C365 C87 1.535 . S
C380 C166 1.534 . S
C430 C128 1.566 . S
C415 C17 1.488 . S
C480 C170 1.643 . S
C465 C61 1.530 . S
C515 C93 1.561 . S
C530 C136 1.560 . S
C565 C113 1.642 . S
C580 C162 1.641 . S
C630 C191 1.641 . S
C615 C49 1.544 . S
C680 C157 1.566 . S
C665 C81 1.566 . S
C730 C179 1.643 . S
C715 C125 1.644 . S
C765 C29 1.470 . S
C780 C145 1.560 . S
