# Generated by pormake.
# Topology dag, (6,3)-cn, num edge types: 1
# Building blocks:
#     Node 0, Type 0, BuildingBlock: OJICUG_clean_sbu_0, # of connection points: 6
#     Node 1, Type 0, BuildingBlock: OJICUG_clean_sbu_0, # of connection points: 6
#     Node 2, Type 0, BuildingBlock: OJICUG_clean_sbu_0, # of connection points: 6
#     Node 3, Type 0, BuildingBlock: OJICUG_clean_sbu_0, # of connection points: 6
#     Node 4, Type 1, BuildingBlock: VETTIZ_charged_linker_0, # of connection points: 3
#     Node 5, Type 1, BuildingBlock: VETTIZ_charged_linker_0, # of connection points: 3
#     Node 6, Type 1, BuildingBlock: VETTIZ_charged_linker_0, # of connection points: 3
#     Node 7, Type 1, BuildingBlock: VETTIZ_charged_linker_0, # of connection points: 3
#     Node 8, Type 1, BuildingBlock: VETTIZ_charged_linker_0, # of connection points: 3
#     Node 9, Type 1, BuildingBlock: VETTIZ_charged_linker_0, # of connection points: 3
#     Node 10, Type 1, BuildingBlock: VETTIZ_charged_linker_0, # of connection points: 3
#     Node 11, Type 1, BuildingBlock: VETTIZ_charged_linker_0, # of connection points: 3
#     Edge 12, Type (0, 1), BuildingBlock: XUDNAN_clean_linker_2, # of connection points: 2
#     Edge 13, Type (0, 1), BuildingBlock: XUDNAN_clean_linker_2, # of connection points: 2
#     Edge 14, Type (0, 1), BuildingBlock: XUDNAN_clean_linker_2, # of connection points: 2
#     Edge 15, Type (0, 1), BuildingBlock: XUDNAN_clean_linker_2, # of connection points: 2
#     Edge 16, Type (0, 1), BuildingBlock: XUDNAN_clean_linker_2, # of connection points: 2
#     Edge 17, Type (0, 1), BuildingBlock: XUDNAN_clean_linker_2, # of connection points: 2
#     Edge 18, Type (0, 1), BuildingBlock: XUDNAN_clean_linker_2, # of connection points: 2
#     Edge 19, Type (0, 1), BuildingBlock: XUDNAN_clean_linker_2, # of connection points: 2
#     Edge 20, Type (0, 1), BuildingBlock: XUDNAN_clean_linker_2, # of connection points: 2
#     Edge 21, Type (0, 1), BuildingBlock: XUDNAN_clean_linker_2, # of connection points: 2
#     Edge 22, Type (0, 1), BuildingBlock: XUDNAN_clean_linker_2, # of connection points: 2
#     Edge 23, Type (0, 1), BuildingBlock: XUDNAN_clean_linker_2, # of connection points: 2
#     Edge 24, Type (0, 1), BuildingBlock: XUDNAN_clean_linker_2, # of connection points: 2
#     Edge 25, Type (0, 1), BuildingBlock: XUDNAN_clean_linker_2, # of connection points: 2
#     Edge 26, Type (0, 1), BuildingBlock: XUDNAN_clean_linker_2, # of connection points: 2
#     Edge 27, Type (0, 1), BuildingBlock: XUDNAN_clean_linker_2, # of connection points: 2
#     Edge 28, Type (0, 1), BuildingBlock: XUDNAN_clean_linker_2, # of connection points: 2
#     Edge 29, Type (0, 1), BuildingBlock: XUDNAN_clean_linker_2, # of connection points: 2
#     Edge 30, Type (0, 1), BuildingBlock: XUDNAN_clean_linker_2, # of connection points: 2
#     Edge 31, Type (0, 1), BuildingBlock: XUDNAN_clean_linker_2, # of connection points: 2
#     Edge 32, Type (0, 1), BuildingBlock: XUDNAN_clean_linker_2, # of connection points: 2
#     Edge 33, Type (0, 1), BuildingBlock: XUDNAN_clean_linker_2, # of connection points: 2
#     Edge 34, Type (0, 1), BuildingBlock: XUDNAN_clean_linker_2, # of connection points: 2
#     Edge 35, Type (0, 1), BuildingBlock: XUDNAN_clean_linker_2, # of connection points: 2
# Relax obj value: 0.268
# Max RMSD: 0.196
# Mean RMSD: 0.162
data_MOF--net-dag--node1-OJICUG_clean_sbu_0--node2-VETTIZ_charged_linker_0--edge1-XUDNAN_clean_linker_2
_symmetry_space_group_name_H-M    P1
_symmetry_Int_Tables_number       1
_symmetry_cell_setting            triclinic
loop_
_symmetry_equiv_pos_as_xyz
'x, y, z'
_cell_length_a     45.595307
_cell_length_b     45.547156
_cell_length_c     47.601598
_cell_angle_alpha  90.120108
_cell_angle_beta   90.010442
_cell_angle_gamma 90.01359
loop_
_atom_site_label
_atom_site_type_symbol
_atom_site_fract_x
_atom_site_fract_y
_atom_site_fract_z
_atom_type_partial_charge
Sc0 Sc 0.16631 0.84247 -0.00208 0.0
Sc1 Sc 0.20442 0.77621 0.98948 0.0
Sc2 Sc 0.2428 0.84389 -0.00351 0.0
O3 O 0.20461 0.8207 0.99476 0.0
C4 C 0.2018 0.88407 0.9578 0.0
C5 C 0.14799 0.79238 0.95412 0.0
C6 C 0.25261 0.79851 0.94592 0.0
C7 C 0.15679 0.78719 0.03751 0.0
C8 C 0.20614 0.87874 0.04141 0.0
C9 C 0.25985 0.7855 0.02941 0.0
O10 O 0.17803 0.87141 0.96453 0.0
O11 O 0.1694 0.77546 0.95911 0.0
O12 O 0.25816 0.82234 0.95892 0.0
O13 O 0.15274 0.81403 0.03118 0.0
O14 O 0.2306 0.86785 0.03403 0.0
O15 O 0.23955 0.77009 0.01869 0.0
O16 O 0.18226 0.87274 0.02897 0.0
O17 O 0.17362 0.77001 0.02375 0.0
O18 O 0.26374 0.81244 0.02369 0.0
O19 O 0.1442 0.81635 0.96715 0.0
O20 O 0.22634 0.87852 0.96941 0.0
O21 O 0.23445 0.77943 0.95479 0.0
Sc22 Sc 0.74135 0.65888 0.48045 0.0
Sc23 Sc 0.69303 0.71915 0.48876 0.0
Sc24 Sc 0.66957 0.64803 0.50584 0.0
O25 O 0.70136 0.67534 0.49167 0.0
C26 C 0.69652 0.61185 0.45465 0.0
C27 C 0.72969 0.70685 0.43318 0.0
C28 C 0.63194 0.69313 0.46918 0.0
C29 C 0.75848 0.71766 0.51284 0.0
C30 C 0.72667 0.619 0.53319 0.0
C31 C 0.66388 0.70233 0.5474 0.0
O32 O 0.72151 0.62437 0.45558 0.0
O33 O 0.71107 0.72156 0.44715 0.0
O34 O 0.63496 0.66906 0.4823 0.0
O35 O 0.76469 0.69196 0.50414 0.0
O36 O 0.69928 0.62345 0.5314 0.0
O37 O 0.67324 0.72136 0.53006 0.0
O38 O 0.74501 0.63041 0.5164 0.0
O39 O 0.73395 0.72999 0.50831 0.0
O40 O 0.6618 0.67516 0.54177 0.0
O41 O 0.74292 0.68458 0.44289 0.0
O42 O 0.67556 0.61823 0.47123 0.0
O43 O 0.65142 0.71298 0.46883 0.0
Sc44 Sc 0.79896 0.21792 -0.00388 0.0
Sc45 Sc 0.75865 0.15191 0.99057 0.0
Sc46 Sc 0.83536 0.15018 0.98974 0.0
O47 O 0.79763 0.17336 0.99203 0.0
C48 C 0.85129 0.20561 0.95288 0.0
C49 C 0.74756 0.20829 0.9521 0.0
C50 C 0.79496 0.11532 0.94587 0.0
C51 C 0.74644 0.20041 0.03704 0.0
C52 C 0.85011 0.19831 0.03673 0.0
C53 C 0.79695 0.10974 0.0295 0.0
O54 O 0.83453 0.22293 0.96638 0.0
O55 O 0.74067 0.18327 0.96187 0.0
O56 O 0.8194 0.12173 0.95713 0.0
O57 O 0.7643 0.21892 0.02681 0.0
O58 O 0.85587 0.17559 0.02223 0.0
O59 O 0.77278 0.11831 0.01907 0.0
O60 O 0.82891 0.21549 0.03119 0.0
O61 O 0.74266 0.17502 0.02667 0.0
O62 O 0.82163 0.11992 0.02181 0.0
O63 O 0.76882 0.2235 0.9616 0.0
O64 O 0.8525 0.17822 0.95769 0.0
O65 O 0.77074 0.12563 0.95466 0.0
Sc66 Sc 0.32389 0.35563 0.48152 0.0
Sc67 Sc 0.25057 0.35003 0.50303 0.0
Sc68 Sc 0.29476 0.28624 0.49854 0.0
O69 O 0.28976 0.3306 0.49438 0.0
C70 C 0.32993 0.29884 0.44231 0.0
C71 C 0.271 0.38559 0.449 0.0
C72 C 0.23117 0.29171 0.47088 0.0
C73 C 0.2954 0.39597 0.52934 0.0
C74 C 0.35606 0.31004 0.52174 0.0
C75 C 0.25673 0.30282 0.55221 0.0
O76 O 0.3349 0.32546 0.44872 0.0
O77 O 0.25156 0.37815 0.46668 0.0
O78 O 0.25369 0.27715 0.47813 0.0
O79 O 0.31628 0.38883 0.51298 0.0
O80 O 0.33671 0.29016 0.51892 0.0
O81 O 0.24526 0.32526 0.54088 0.0
O82 O 0.35399 0.33511 0.51022 0.0
O83 O 0.27047 0.38347 0.52882 0.0
O84 O 0.2751 0.28637 0.53972 0.0
O85 O 0.2978 0.37847 0.45111 0.0
O86 O 0.31555 0.28144 0.45799 0.0
O87 O 0.22718 0.3184 0.47784 0.0
C88 C 0.14569 0.03525 0.20317 0.0
C89 C 0.13416 0.01692 0.18193 0.0
C90 C 0.10382 0.0182 0.17611 0.0
C91 C 0.09809 0.05856 0.20854 0.0
C92 C 0.12711 0.05571 0.21641 0.0
C93 C 0.13508 0.07707 0.23949 0.0
H94 H 0.09325 0.19189 0.32164 0.0
C95 C 0.08519 0.08335 0.22407 0.0
C96 C 0.10643 0.09393 0.24292 0.0
H97 H 0.1774 0.14802 0.3216 0.0
H98 H 0.15989 0.1141 0.28611 0.0
H99 H 0.09047 0.1978 0.25986 0.0
H100 H 0.05081 0.13459 0.31439 0.0
H101 H 0.02404 0.14612 0.29 0.0
H102 H 0.04112 0.17277 0.31274 0.0
H103 H 0.0551 0.20418 0.27498 0.0
H104 H 0.05933 0.18623 0.24136 0.0
C105 C 0.16018 0.09699 0.22882 0.0
C106 C 0.14286 0.05923 0.26609 0.0
C107 C 0.99 0.12798 0.18942 0.0
C108 C 0.97558 0.15445 0.19602 0.0
C109 C 0.98415 0.17002 0.22028 0.0
C110 C 0.00792 0.16045 0.23651 0.0
C111 C 0.02367 0.13536 0.22814 0.0
C112 C 0.01418 0.11916 0.20537 0.0
C113 C 0.03413 0.09369 0.19895 0.0
C114 C 0.05805 0.09826 0.22082 0.0
C115 C 0.05168 0.12259 0.2378 0.0
C116 C 0.04577 0.09756 0.16858 0.0
C117 C 0.01689 0.06475 0.20377 0.0
C118 C 0.10812 0.17513 0.31404 0.0
C119 C 0.13683 0.17288 0.32446 0.0
C120 C 0.15506 0.15018 0.31418 0.0
C121 C 0.14492 0.1306 0.29343 0.0
C122 C 0.11636 0.13389 0.28269 0.0
C123 C 0.09861 0.15594 0.29309 0.0
C124 C 0.06975 0.15789 0.27818 0.0
C125 C 0.07238 0.13243 0.2579 0.0
C126 C 0.09969 0.11834 0.26047 0.0
C127 C 0.06832 0.18803 0.2629 0.0
C128 C 0.04496 0.15277 0.29985 0.0
H129 H 0.06315 0.03908 0.18343 0.0
H130 H 0.16871 0.0344 0.20869 0.0
H131 H 0.12847 0.0396 0.26801 0.0
H132 H 0.13938 0.07173 0.28569 0.0
H133 H 0.16593 0.05144 0.26534 0.0
H134 H 0.15603 0.10387 0.20676 0.0
H135 H 0.18152 0.08523 0.22933 0.0
H136 H 0.16231 0.11754 0.24093 0.0
H137 H 0.98338 0.11498 0.17143 0.0
H138 H 0.97346 0.1904 0.22597 0.0
H139 H 0.01378 0.1736 0.25434 0.0
H140 H 0.05369 0.12042 0.16533 0.0
H141 H 0.02821 0.09318 0.15296 0.0
H142 H 0.06443 0.08319 0.16349 0.0
H143 H 0.99723 0.06821 0.21722 0.0
H144 H 0.03014 0.04817 0.21512 0.0
H145 H 0.00917 0.05518 0.1836 0.0
H146 H 0.09396 0.00346 0.16092 0.0
C147 C 0.08583 0.03882 0.18927 0.0
C148 C 0.34698 0.58378 0.65848 0.0
C149 C 0.3634 0.56306 0.64309 0.0
C150 C 0.39376 0.56787 0.6395 0.0
C151 C 0.3905 0.6137 0.66519 0.0
C152 C 0.36095 0.60868 0.66944 0.0
C153 C 0.34691 0.63229 0.68704 0.0
H154 H 0.36273 0.75711 0.76265 0.0
C155 C 0.39809 0.64192 0.67868 0.0
C156 C 0.37266 0.65289 0.6916 0.0
H157 H 0.28589 0.70182 0.75636 0.0
H158 H 0.31077 0.6709 0.72254 0.0
H159 H 0.40882 0.70648 0.76624 0.0
H160 H 0.37734 0.75779 0.69687 0.0
H161 H 0.41404 0.74966 0.68894 0.0
H162 H 0.40551 0.77119 0.71982 0.0
H163 H 0.41629 0.74493 0.76187 0.0
H164 H 0.43935 0.71743 0.74622 0.0
C165 C 0.33624 0.61819 0.71487 0.0
C166 C 0.32234 0.64693 0.66954 0.0
C167 C 0.50139 0.6827 0.67028 0.0
C168 C 0.51393 0.70962 0.67817 0.0
C169 C 0.49687 0.73067 0.69225 0.0
C170 C 0.4675 0.72475 0.69879 0.0
C171 C 0.45513 0.69767 0.6908 0.0
C172 C 0.47192 0.67734 0.67648 0.0
C173 C 0.45455 0.65072 0.66785 0.0
C174 C 0.42459 0.65826 0.6797 0.0
C175 C 0.42525 0.68554 0.69343 0.0
C176 C 0.46809 0.62353 0.68243 0.0
C177 C 0.45432 0.64916 0.63531 0.0
C178 C 0.35093 0.73878 0.75353 0.0
C179 C 0.32235 0.73185 0.76225 0.0
C180 C 0.30806 0.7074 0.75021 0.0
C181 C 0.32256 0.68945 0.73066 0.0
C182 C 0.35171 0.69591 0.72327 0.0
C183 C 0.36516 0.72056 0.73427 0.0
C184 C 0.39635 0.72378 0.72471 0.0
C185 C 0.39982 0.69631 0.70704 0.0
C186 C 0.37364 0.68013 0.70612 0.0
C187 C 0.41644 0.72333 0.75099 0.0
C188 C 0.39869 0.75211 0.7068 0.0
H189 H 0.43042 0.59542 0.64675 0.0
H190 H 0.32364 0.581 0.66166 0.0
H191 H 0.32972 0.65048 0.64753 0.0
H192 H 0.31618 0.66885 0.67751 0.0
H193 H 0.30242 0.63289 0.66888 0.0
H194 H 0.35 0.59897 0.72071 0.0
H195 H 0.31323 0.6104 0.71305 0.0
H196 H 0.33806 0.63323 0.73303 0.0
H197 H 0.51406 0.66655 0.65876 0.0
H198 H 0.50629 0.75166 0.69807 0.0
H199 H 0.45555 0.74154 0.70969 0.0
H200 H 0.47604 0.6292 0.70387 0.0
H201 H 0.48708 0.61492 0.67033 0.0
H202 H 0.4521 0.60564 0.68568 0.0
H203 H 0.45354 0.67155 0.62603 0.0
H204 H 0.43482 0.63789 0.62678 0.0
H205 H 0.47436 0.63814 0.62723 0.0
H206 H 0.40722 0.55203 0.62845 0.0
C207 C 0.40732 0.59305 0.65033 0.0
C208 C 0.80254 0.78736 0.24171 0.0
C209 C 0.80753 0.75829 0.2502 0.0
C210 C 0.83233 0.74327 0.23982 0.0
C211 C 0.84739 0.78684 0.21448 0.0
C212 C 0.82255 0.80106 0.22395 0.0
C213 C 0.82059 0.83216 0.21388 0.0
H214 H 0.87064 0.93844 0.12889 0.0
C215 C 0.8643 0.80796 0.19749 0.0
C216 C 0.84858 0.83445 0.19694 0.0
H217 H 0.79492 0.94033 0.18382 0.0
H218 H 0.80808 0.89319 0.20228 0.0
H219 H 0.91339 0.91667 0.17695 0.0
H220 H 0.86903 0.87078 0.11054 0.0
H221 H 0.90592 0.85898 0.11166 0.0
H222 H 0.89793 0.89706 0.10543 0.0
H223 H 0.92929 0.91348 0.14268 0.0
H224 H 0.93558 0.88616 0.16948 0.0
C225 C 0.82088 0.85289 0.23982 0.0
C226 C 0.79283 0.83466 0.19522 0.0
C227 C 0.96403 0.77973 0.15825 0.0
C228 C 0.98496 0.79554 0.14281 0.0
C229 C 0.97835 0.8243 0.13388 0.0
C230 C 0.95157 0.83739 0.14068 0.0
C231 C 0.9311 0.82163 0.15661 0.0
C232 C 0.93737 0.79328 0.16508 0.0
C233 C 0.91303 0.78027 0.18236 0.0
C234 C 0.89162 0.80578 0.18341 0.0
C235 C 0.90227 0.82983 0.16811 0.0
C236 C 0.92544 0.77281 0.21178 0.0
C237 C 0.90029 0.7536 0.16617 0.0
C238 C 0.85707 0.92898 0.14518 0.0
C239 C 0.83108 0.94288 0.15416 0.0
C240 C 0.81439 0.9297 0.17566 0.0
C241 C 0.82212 0.90229 0.18648 0.0
C242 C 0.84701 0.88789 0.17597 0.0
C243 C 0.86471 0.90171 0.15656 0.0
C244 C 0.89152 0.88381 0.14953 0.0
C245 C 0.88583 0.85624 0.16663 0.0
C246 C 0.85952 0.8587 0.18162 0.0
C247 C 0.91897 0.90081 0.15996 0.0
C248 C 0.89137 0.87734 0.11759 0.0
H249 H 0.87098 0.74502 0.21506 0.0
H250 H 0.78411 0.79983 0.24973 0.0
H251 H 0.79052 0.81499 0.18149 0.0
H252 H 0.79338 0.85346 0.1807 0.0
H253 H 0.77273 0.83626 0.20832 0.0
H254 H 0.83238 0.84268 0.25796 0.0
H255 H 0.79826 0.85834 0.24675 0.0
H256 H 0.8331 0.87348 0.23591 0.0
H257 H 0.96854 0.75761 0.16535 0.0
H258 H 0.99389 0.83665 0.12139 0.0
H259 H 0.94785 0.85927 0.13325 0.0
H260 H 0.94046 0.79045 0.2192 0.0
H261 H 0.93806 0.75196 0.21126 0.0
H262 H 0.90835 0.77113 0.22809 0.0
H263 H 0.90158 0.75703 0.14307 0.0
H264 H 0.87673 0.75007 0.17042 0.0
H265 H 0.91257 0.73319 0.17112 0.0
H266 H 0.83656 0.72077 0.24592 0.0
C267 C 0.85228 0.7574 0.22195 0.0
C268 C 0.66233 0.28759 0.75622 0.0
C269 C 0.68862 0.29167 0.77116 0.0
C270 C 0.70979 0.31128 0.7604 0.0
C271 C 0.67825 0.32213 0.72075 0.0
C272 C 0.6579 0.30248 0.73105 0.0
C273 C 0.63192 0.29888 0.71202 0.0
H274 H 0.55935 0.33767 0.59441 0.0
C275 C 0.66663 0.334 0.69415 0.0
C276 C 0.63975 0.32005 0.68874 0.0
H277 H 0.5344 0.27358 0.65703 0.0
H278 H 0.57899 0.28282 0.68242 0.0
H279 H 0.57941 0.38505 0.63736 0.0
H280 H 0.62895 0.32046 0.59168 0.0
H281 H 0.64857 0.35372 0.59035 0.0
H282 H 0.61224 0.35184 0.57547 0.0
H283 H 0.5895 0.39032 0.60132 0.0
H284 H 0.61319 0.40155 0.62978 0.0
C285 C 0.60419 0.30881 0.72833 0.0
C286 C 0.63116 0.26658 0.70157 0.0
C287 C 0.71755 0.41975 0.64669 0.0
C288 C 0.70957 0.43709 0.62364 0.0
C289 C 0.68538 0.429 0.60699 0.0
C290 C 0.66852 0.40442 0.61378 0.0
C291 C 0.6757 0.38801 0.63772 0.0
C292 C 0.70016 0.39538 0.65348 0.0
C293 C 0.70381 0.37576 0.67861 0.0
C294 C 0.677 0.35615 0.67577 0.0
C295 C 0.66069 0.36344 0.65176 0.0
C296 C 0.70248 0.39511 0.70538 0.0
C297 C 0.73275 0.3583 0.67517 0.0
C298 C 0.56347 0.32567 0.61363 0.0
C299 C 0.5433 0.30472 0.6236 0.0
C300 C 0.54972 0.28944 0.64858 0.0
C301 C 0.57559 0.295 0.66345 0.0
C302 C 0.59533 0.31619 0.6534 0.0
C303 C 0.5892 0.33105 0.62884 0.0
C304 C 0.61245 0.35332 0.62181 0.0
C305 C 0.63377 0.34892 0.64597 0.0
C306 C 0.62348 0.32728 0.66438 0.0
C307 C 0.5981 0.38422 0.62235 0.0
C308 C 0.6263 0.3447 0.59325 0.0
H309 H 0.72158 0.34117 0.72816 0.0
H310 H 0.64532 0.27307 0.76387 0.0
H311 H 0.65357 0.25693 0.70077 0.0
H312 H 0.62287 0.26447 0.67983 0.0
H313 H 0.61772 0.25259 0.71567 0.0
H314 H 0.60909 0.32823 0.74175 0.0
H315 H 0.59605 0.29105 0.74225 0.0
H316 H 0.58617 0.31596 0.71446 0.0
H317 H 0.73598 0.42584 0.65983 0.0
H318 H 0.67908 0.44229 0.58911 0.0
H319 H 0.65006 0.39966 0.60058 0.0
H320 H 0.68447 0.4115 0.7037 0.0
H321 H 0.72334 0.40731 0.70844 0.0
H322 H 0.69783 0.38257 0.72464 0.0
H323 H 0.73807 0.35467 0.65261 0.0
H324 H 0.73141 0.33599 0.68422 0.0
H325 H 0.75151 0.3702 0.6848 0.0
H326 H 0.73051 0.31451 0.77108 0.0
C327 C 0.7047 0.32657 0.73531 0.0
C328 C 0.64474 0.42745 0.32065 0.0
C329 C 0.62894 0.44665 0.33828 0.0
C330 C 0.59913 0.4405 0.34378 0.0
C331 C 0.60188 0.39622 0.31568 0.0
C332 C 0.63076 0.40266 0.30944 0.0
C333 C 0.64406 0.38059 0.28962 0.0
H334 H 0.62761 0.25692 0.21217 0.0
C335 C 0.59409 0.3686 0.30125 0.0
C336 C 0.61863 0.35945 0.2857 0.0
H337 H 0.70345 0.31382 0.2159 0.0
H338 H 0.67879 0.34475 0.24992 0.0
H339 H 0.61602 0.256 0.27815 0.0
H340 H 0.58033 0.30649 0.21012 0.0
H341 H 0.55081 0.29713 0.23206 0.0
H342 H 0.57186 0.26842 0.2155 0.0
H343 H 0.58894 0.24131 0.25469 0.0
H344 H 0.57883 0.26106 0.28617 0.0
C345 C 0.67036 0.36583 0.30453 0.0
C346 C 0.65209 0.39661 0.26196 0.0
C347 C 0.49484 0.32124 0.31846 0.0
C348 C 0.48218 0.29467 0.30937 0.0
C349 C 0.49781 0.27664 0.29058 0.0
C350 C 0.52574 0.28483 0.28116 0.0
C351 C 0.53826 0.31124 0.29078 0.0
C352 C 0.52279 0.32901 0.30901 0.0
C353 C 0.53979 0.35594 0.31749 0.0
C354 C 0.56823 0.3512 0.30156 0.0
C355 C 0.5671 0.32507 0.28598 0.0
C356 C 0.54443 0.35496 0.34972 0.0
C357 C 0.52296 0.38336 0.30693 0.0
C358 C 0.6392 0.27571 0.22064 0.0
C359 C 0.66756 0.28284 0.21146 0.0
C360 C 0.6815 0.30798 0.22254 0.0
C361 C 0.66715 0.32587 0.24227 0.0
C362 C 0.63853 0.31862 0.25083 0.0
C363 C 0.62521 0.29375 0.24015 0.0
C364 C 0.59476 0.28937 0.25122 0.0
C365 C 0.59161 0.31611 0.26987 0.0
C366 C 0.61727 0.33315 0.26971 0.0
C367 C 0.59431 0.26039 0.26831 0.0
C368 C 0.57314 0.29015 0.22606 0.0
H369 H 0.56298 0.41195 0.33787 0.0
H370 H 0.66764 0.43127 0.31591 0.0
H371 H 0.63655 0.41488 0.25763 0.0
H372 H 0.65052 0.38224 0.2433 0.0
H373 H 0.67449 0.40614 0.26308 0.0
H374 H 0.66496 0.36111 0.32687 0.0
H375 H 0.68995 0.38033 0.30426 0.0
H376 H 0.67631 0.34443 0.29524 0.0
H377 H 0.48362 0.33533 0.33334 0.0
H378 H 0.48844 0.25615 0.28325 0.0
H379 H 0.53656 0.27012 0.26692 0.0
H380 H 0.54989 0.33229 0.35663 0.0
H381 H 0.52426 0.36188 0.36103 0.0
H382 H 0.56287 0.36869 0.35695 0.0
H383 H 0.51031 0.37837 0.2875 0.0
H384 H 0.53776 0.40152 0.30088 0.0
H385 H 0.50716 0.39139 0.32295 0.0
H386 H 0.58603 0.4552 0.35653 0.0
C387 C 0.58561 0.41542 0.33271 0.0
C388 C 0.18319 0.2419 0.75302 0.0
C389 C 0.20956 0.23264 0.74058 0.0
C390 C 0.22315 0.20682 0.75038 0.0
C391 C 0.18329 0.19918 0.78326 0.0
C392 C 0.17052 0.22496 0.77418 0.0
C393 C 0.14177 0.23111 0.7884 0.0
H394 H 0.03342 0.18497 0.87407 0.0
C395 C 0.16346 0.18587 0.80418 0.0
C396 C 0.1392 0.20461 0.80739 0.0
H397 H 0.03682 0.26546 0.82624 0.0
H398 H 0.08583 0.25331 0.8104 0.0
H399 H 0.05994 0.14438 0.82682 0.0
H400 H 0.0986 0.18823 0.89773 0.0
H401 H 0.11654 0.15426 0.89491 0.0
H402 H 0.07751 0.15521 0.90138 0.0
H403 H 0.0544 0.13252 0.86235 0.0
H404 H 0.08494 0.11965 0.84171 0.0
C405 C 0.11746 0.23163 0.76561 0.0
C406 C 0.14483 0.26001 0.80538 0.0
C407 C 0.1854 0.08437 0.84332 0.0
C408 C 0.16956 0.06601 0.86141 0.0
C409 C 0.14357 0.07616 0.87393 0.0
C410 C 0.13288 0.10421 0.86797 0.0
C411 C 0.14823 0.12213 0.84902 0.0
C412 C 0.17429 0.11239 0.8374 0.0
C413 C 0.18731 0.1345 0.81753 0.0
C414 C 0.16459 0.15887 0.81898 0.0
C415 C 0.1417 0.15132 0.83728 0.0
C416 C 0.18883 0.12028 0.78796 0.0
C417 C 0.21733 0.14443 0.82945 0.0
C418 C 0.04463 0.19991 0.86 0.0
C419 C 0.03112 0.22594 0.85094 0.0
C420 C 0.04678 0.24521 0.83337 0.0
C421 C 0.07514 0.23803 0.82414 0.0
C422 C 0.0879 0.21131 0.83261 0.0
C423 C 0.07278 0.19304 0.85061 0.0
C424 C 0.0895 0.1656 0.85752 0.0
C425 C 0.11718 0.1702 0.84048 0.0
C426 C 0.11605 0.19685 0.8258 0.0
C427 C 0.07137 0.13899 0.84681 0.0
C428 C 0.0958 0.1655 0.88954 0.0
H429 H 0.22139 0.17049 0.77811 0.0
H430 H 0.17188 0.26133 0.74567 0.0
H431 H 0.16737 0.26236 0.81408 0.0
H432 H 0.13026 0.26079 0.82391 0.0
H433 H 0.1405 0.27944 0.79194 0.0
H434 H 0.12178 0.21482 0.74912 0.0
H435 H 0.11641 0.25337 0.75513 0.0
H436 H 0.09553 0.22614 0.77384 0.0
H437 H 0.20541 0.07678 0.83343 0.0
H438 H 0.13123 0.06208 0.88795 0.0
H439 H 0.11274 0.11056 0.87788 0.0
H440 H 0.16914 0.10644 0.78396 0.0
H441 H 0.20846 0.106 0.78592 0.0
H442 H 0.18895 0.13647 0.77077 0.0
H443 H 0.21689 0.14513 0.85281 0.0
H444 H 0.22331 0.16696 0.82306 0.0
H445 H 0.23507 0.1291 0.82307 0.0
H446 H 0.24364 0.1994 0.7413 0.0
C447 C 0.21021 0.19011 0.77176 0.0
C448 C 0.31567 0.68864 0.21866 0.0
C449 C 0.3311 0.71242 0.20713 0.0
C450 C 0.35042 0.7286 0.22429 0.0
C451 C 0.34117 0.69519 0.26288 0.0
C452 C 0.32096 0.68048 0.24645 0.0
C453 C 0.30729 0.65491 0.26142 0.0
H454 H 0.30598 0.56397 0.37316 0.0
C455 C 0.34354 0.67937 0.28983 0.0
C456 C 0.32348 0.65597 0.28921 0.0
H457 H 0.25179 0.55969 0.29882 0.0
H458 H 0.27352 0.6047 0.28166 0.0
H459 H 0.3612 0.57562 0.34348 0.0
H460 H 0.30343 0.63778 0.38272 0.0
H461 H 0.33988 0.64547 0.39303 0.0
H462 H 0.32414 0.61021 0.40097 0.0
H463 H 0.36467 0.58459 0.37998 0.0
H464 H 0.38382 0.60505 0.35318 0.0
C465 C 0.31442 0.62663 0.24455 0.0
C466 C 0.2741 0.66121 0.26501 0.0
C467 C 0.42585 0.7049 0.35724 0.0
C468 C 0.4383 0.68962 0.38006 0.0
C469 C 0.42287 0.66527 0.39104 0.0
C470 C 0.39656 0.65572 0.3789 0.0
C471 C 0.38578 0.66997 0.35494 0.0
C472 C 0.40026 0.69426 0.3446 0.0
C473 C 0.38752 0.70468 0.31722 0.0
C474 C 0.36302 0.68256 0.31289 0.0
C475 C 0.36188 0.66255 0.33524 0.0
C476 C 0.41171 0.70217 0.29439 0.0
C477 C 0.37542 0.7361 0.32159 0.0
C478 C 0.29829 0.57321 0.35353 0.0
C479 C 0.27694 0.55866 0.33741 0.0
C480 C 0.26816 0.5707 0.31154 0.0
C481 C 0.28085 0.59675 0.30166 0.0
C482 C 0.30297 0.61051 0.31757 0.0
C483 C 0.31112 0.59885 0.34317 0.0
C484 C 0.33617 0.61529 0.35643 0.0
C485 C 0.34107 0.63938 0.33498 0.0
C486 C 0.32176 0.63632 0.31221 0.0
C487 C 0.36286 0.59419 0.35862 0.0
C488 C 0.32559 0.62781 0.38491 0.0
H489 H 0.37093 0.73285 0.26409 0.0
H490 H 0.30009 0.6763 0.20614 0.0
H491 H 0.26992 0.68514 0.26753 0.0
H492 H 0.26484 0.65115 0.28417 0.0
H493 H 0.26145 0.65357 0.24644 0.0
H494 H 0.33708 0.62754 0.23591 0.0
H495 H 0.2991 0.62385 0.22659 0.0
H496 H 0.31392 0.60655 0.25744 0.0
H497 H 0.43635 0.72407 0.3484 0.0
H498 H 0.43165 0.65248 0.40821 0.0
H499 H 0.38628 0.63683 0.388 0.0
H500 H 0.42626 0.68302 0.29845 0.0
H501 H 0.4257 0.72212 0.29398 0.0
H502 H 0.40297 0.69819 0.27313 0.0
H503 H 0.36513 0.73835 0.34268 0.0
H504 H 0.35791 0.74175 0.30649 0.0
H505 H 0.39322 0.75268 0.32012 0.0
H506 H 0.36233 0.74717 0.21584 0.0
C507 C 0.35549 0.72013 0.25218 0.0
C508 C 0.82829 0.9285 0.80982 0.0
C509 C 0.8333 0.93878 0.83727 0.0
C510 C 0.85082 0.92208 0.85564 0.0
C511 C 0.86035 0.88693 0.81866 0.0
C512 C 0.84213 0.90258 0.80095 0.0
C513 C 0.84072 0.88916 0.77204 0.0
H514 H 0.88337 0.78139 0.68283 0.0
C515 C 0.87309 0.86234 0.80259 0.0
C516 C 0.86158 0.86334 0.77529 0.0
H517 H 0.82428 0.85376 0.66636 0.0
H518 H 0.83156 0.87182 0.71336 0.0
H519 H 0.93101 0.82063 0.71111 0.0
H520 H 0.863 0.76694 0.74661 0.0
H521 H 0.89607 0.7601 0.76478 0.0
H522 H 0.89406 0.75286 0.72766 0.0
H523 H 0.93608 0.78202 0.71634 0.0
H524 H 0.94476 0.80845 0.74344 0.0
C525 C 0.85227 0.91201 0.75063 0.0
C526 C 0.80878 0.879 0.76678 0.0
C527 C 0.95447 0.8022 0.84596 0.0
C528 C 0.97427 0.78169 0.83468 0.0
C529 C 0.9686 0.76959 0.80796 0.0
C530 C 0.94475 0.77953 0.79191 0.0
C531 C 0.92665 0.80194 0.80263 0.0
C532 C 0.93128 0.81236 0.82952 0.0
C533 C 0.91129 0.83739 0.83697 0.0
C534 C 0.89439 0.84094 0.80978 0.0
C535 C 0.90331 0.82005 0.78984 0.0
C536 C 0.93056 0.86465 0.84371 0.0
C537 C 0.89117 0.82734 0.86136 0.0
C538 C 0.87227 0.80136 0.68909 0.0
C539 C 0.85288 0.81585 0.67077 0.0
C540 C 0.8388 0.84169 0.68013 0.0
C541 C 0.84312 0.85226 0.70746 0.0
C542 C 0.86201 0.8371 0.72565 0.0
C543 C 0.87662 0.81241 0.71619 0.0
C544 C 0.89701 0.79999 0.73794 0.0
C545 C 0.89121 0.82054 0.76241 0.0
C546 C 0.87063 0.84218 0.75513 0.0
C547 C 0.92889 0.80264 0.72676 0.0
C548 C 0.88728 0.7682 0.74463 0.0
H549 H 0.87765 0.88477 0.86144 0.0
H550 H 0.81491 0.94094 0.79529 0.0
H551 H 0.79918 0.86937 0.78618 0.0
H552 H 0.80709 0.86149 0.75081 0.0
H553 H 0.7947 0.89773 0.7604 0.0
H554 H 0.86988 0.92578 0.76006 0.0
H555 H 0.83447 0.92695 0.74363 0.0
H556 H 0.86258 0.90182 0.73202 0.0
H557 H 0.95797 0.81155 0.86664 0.0
H558 H 0.9835 0.75369 0.79886 0.0
H559 H 0.94199 0.77021 0.77136 0.0
H560 H 0.95066 0.86491 0.83045 0.0
H561 H 0.93768 0.86467 0.86602 0.0
H562 H 0.91964 0.8857 0.83908 0.0
H563 H 0.88602 0.80351 0.85965 0.0
H564 H 0.86956 0.83834 0.86119 0.0
H565 H 0.90183 0.83099 0.88206 0.0
H566 H 0.8545 0.92935 0.87705 0.0
C567 C 0.86421 0.89617 0.84655 0.0
H568 H 0.17041 0.92578 0.04494 0.0
H569 H 0.23792 0.87914 0.09081 0.0
H570 H 0.23002 0.91216 0.13182 0.0
H571 H 0.18722 -0.00076 0.07292 0.0
H572 H 0.14904 0.00947 0.07329 0.0
H573 H 0.16235 0.98379 0.04743 0.0
H574 H 0.12326 0.94598 0.06344 0.0
H575 H 0.11002 0.97135 0.08948 0.0
H576 H 0.12181 0.93518 0.09983 0.0
H577 H 0.2097 0.94768 0.16967 0.0
H578 H 0.18127 0.98275 0.19891 0.0
H579 H 0.13001 0.00678 0.12569 0.0
C580 C 0.18386 0.92275 0.06348 0.0
C581 C 0.20467 0.89993 0.06487 0.0
C582 C 0.22198 0.89669 0.08936 0.0
C583 C 0.21756 0.91527 0.1127 0.0
C584 C 0.19622 0.93723 0.11082 0.0
C585 C 0.18006 0.94122 0.08654 0.0
C586 C 0.15776 0.96545 0.08971 0.0
C587 C 0.16451 0.991 0.06965 0.0
C588 C 0.12637 0.95378 0.08537 0.0
C589 C 0.1631 0.97403 0.1199 0.0
C590 C 0.18536 0.95772 0.1319 0.0
C591 C 0.19257 0.96085 0.16028 0.0
C592 C 0.17637 0.98087 0.17673 0.0
C593 C 0.15319 0.99736 0.1647 0.0
C594 C 0.1472 0.99421 0.13575 0.0
H595 H 0.62281 0.74382 0.55838 0.0
H596 H 0.67927 0.67954 0.59761 0.0
H597 H 0.65241 0.68535 0.64219 0.0
H598 H 0.60455 0.78885 0.62615 0.0
H599 H 0.56722 0.79312 0.61438 0.0
H600 H 0.59674 0.79222 0.58917 0.0
H601 H 0.5708 0.74966 0.56291 0.0
H602 H 0.54154 0.75016 0.58802 0.0
H603 H 0.56159 0.71666 0.58185 0.0
H604 H 0.61275 0.68662 0.67636 0.0
H605 H 0.56351 0.6841 0.6979 0.0
H606 H 0.53126 0.74738 0.63775 0.0
C607 C 0.63042 0.7324 0.57694 0.0
C608 C 0.6533 0.71175 0.57504 0.0
C609 C 0.66202 0.69583 0.59905 0.0
C610 C 0.64695 0.69911 0.62444 0.0
C611 C 0.62318 0.71832 0.62537 0.0
C612 C 0.61511 0.73505 0.60233 0.0
C613 C 0.58551 0.7494 0.60691 0.0
C614 C 0.58871 0.78289 0.6093 0.0
C615 C 0.5636 0.74093 0.58356 0.0
C616 C 0.57711 0.73608 0.6349 0.0
C617 C 0.59957 0.71899 0.64563 0.0
C618 C 0.59541 0.7008 0.66885 0.0
C619 C 0.56745 0.69938 0.6809 0.0
C620 C 0.54419 0.7161 0.66973 0.0
C621 C 0.54924 0.73534 0.64713 0.0
H622 H 0.84344 0.08523 0.05794 0.0
H623 H 0.74848 0.08174 0.0502 0.0
H624 H 0.74698 0.04161 0.08462 0.0
H625 H 0.85499 0.0095 0.06163 0.0
H626 H 0.88417 0.01125 0.08714 0.0
H627 H 0.87789 0.0417 0.06388 0.0
H628 H 0.87262 0.07663 0.10661 0.0
H629 H 0.87898 0.04627 0.13007 0.0
H630 H 0.84632 0.06823 0.1337 0.0
H631 H 0.75569 -0.00089 0.11561 0.0
H632 H 0.77406 0.95691 0.14225 0.0
H633 H 0.86328 0.98901 0.13239 0.0
C634 C 0.8223 0.07631 0.06371 0.0
C635 C 0.79611 0.08665 0.05126 0.0
C636 C 0.76889 0.07423 0.05938 0.0
C637 C 0.76774 0.05147 0.079 0.0
C638 C 0.79395 0.04155 0.09054 0.0
C639 C 0.82071 0.05363 0.0834 0.0
C640 C 0.84569 0.03782 0.0979 0.0
C641 C 0.86692 0.02426 0.07635 0.0
C642 C 0.86185 0.05847 0.11828 0.0
C643 C 0.82877 0.01439 0.11356 0.0
C644 C 0.79896 0.01717 0.10918 0.0
C645 C 0.77893 0.99703 0.11978 0.0
C646 C 0.78964 0.97319 0.13511 0.0
C647 C 0.82016 0.9697 0.13988 0.0
C648 C 0.83986 0.99092 0.12919 0.0
H649 H 0.3985 0.34855 0.53963 0.0
H650 H 0.37388 0.25639 0.54143 0.0
H651 H 0.41928 0.24496 0.56736 0.0
H652 H 0.47519 0.3378 0.52937 0.0
H653 H 0.48595 0.36785 0.55182 0.0
H654 H 0.45127 0.36899 0.53375 0.0
H655 H 0.42426 0.37657 0.58112 0.0
H656 H 0.45887 0.37567 0.59933 0.0
H657 H 0.42999 0.35074 0.60924 0.0
H658 H 0.46809 0.24329 0.59163 0.0
H659 H 0.51576 0.25192 0.61478 0.0
H660 H 0.50742 0.34535 0.59851 0.0
C661 C 0.40256 0.32595 0.5455 0.0
C662 C 0.38262 0.30337 0.5384 0.0
C663 C 0.38876 0.27411 0.54667 0.0
C664 C 0.41454 0.26736 0.56133 0.0
C665 C 0.43383 0.29012 0.56771 0.0
C666 C 0.42805 0.31884 0.56028 0.0
C667 C 0.45227 0.33925 0.56987 0.0
C668 C 0.46704 0.35435 0.5447 0.0
C669 C 0.44065 0.36188 0.59116 0.0
C670 C 0.47269 0.31745 0.58368 0.0
C671 C 0.4617 0.28922 0.58215 0.0
C672 C 0.47682 0.26533 0.59318 0.0
C673 C 0.5038 0.27048 0.6064 0.0
C674 C 0.5153 0.29932 0.60858 0.0
C675 C 0.49946 0.323 0.59692 0.0
H676 H 0.65678 0.5671 0.45713 0.0
H677 H 0.72482 0.60425 0.40427 0.0
H678 H 0.71503 0.56609 0.36836 0.0
H679 H 0.67287 0.49145 0.44112 0.0
H680 H 0.63492 0.4804 0.4421 0.0
H681 H 0.64723 0.51084 0.46322 0.0
H682 H 0.60779 0.54414 0.44038 0.0
H683 H 0.59545 0.51384 0.41908 0.0
H684 H 0.60662 0.54767 0.40268 0.0
H685 H 0.69601 0.52485 0.33747 0.0
H686 H 0.67171 0.48226 0.31539 0.0
H687 H 0.61896 0.47047 0.39057 0.0
C688 C 0.6696 0.56728 0.43798 0.0
C689 C 0.69144 0.58872 0.43339 0.0
C690 C 0.70802 0.58796 0.40822 0.0
C691 C 0.70255 0.56646 0.38769 0.0
C692 C 0.68072 0.54572 0.39287 0.0
C693 C 0.66475 0.5458 0.41754 0.0
C694 C 0.643 0.52075 0.41836 0.0
C695 C 0.64994 0.49961 0.44264 0.0
C696 C 0.61135 0.5323 0.42023 0.0
C697 C 0.64897 0.50669 0.39015 0.0
C698 C 0.67064 0.52147 0.37565 0.0
C699 C 0.67926 0.51289 0.34878 0.0
C700 C 0.66543 0.4885 0.3365 0.0
C701 C 0.64341 0.47274 0.35118 0.0
C702 C 0.63532 0.48211 0.37845 0.0
H703 H 0.87979 0.17569 0.91158 0.0
H704 H 0.87055 0.26259 0.94799 0.0
H705 H 0.9118 0.28015 0.91878 0.0
H706 H 0.95316 0.17247 0.91411 0.0
H707 H 0.95858 0.15306 0.88148 0.0
H708 H 0.92466 0.14913 0.90021 0.0
H709 H 0.89566 0.16588 0.85625 0.0
H710 H 0.9296 0.16963 0.83715 0.0
H711 H 0.9047 0.20026 0.83965 0.0
H712 H 0.95969 0.28538 0.89257 0.0
H713 H 0.00867 0.27785 0.87119 0.0
H714 H 0.98525 0.18791 0.85142 0.0
C715 C 0.88585 0.19865 0.91284 0.0
C716 C 0.87204 0.21776 0.93207 0.0
C717 C 0.8807 0.24761 0.93321 0.0
C718 C 0.90409 0.25778 0.91668 0.0
C719 C 0.91811 0.23796 0.89879 0.0
C720 C 0.90893 0.2091 0.89646 0.0
C721 C 0.9294 0.19125 0.87825 0.0
C722 C 0.9422 0.16496 0.8945 0.0
C723 C 0.91391 0.18117 0.85121 0.0
C724 C 0.95254 0.21405 0.87206 0.0
C725 C 0.94548 0.24104 0.88355 0.0
C726 C 0.9651 0.26456 0.88288 0.0
C727 C 0.99283 0.26013 0.87071 0.0
C728 C 0.00065 0.23229 0.85976 0.0
C729 C 0.97983 0.2094 0.8597 0.0
H730 H 0.24975 0.44056 0.45448 0.0
H731 H 0.27696 0.37605 0.39293 0.0
H732 H 0.27098 0.41281 0.35508 0.0
H733 H 0.19895 0.48533 0.40825 0.0
H734 H 0.21189 0.51914 0.42361 0.0
H735 H 0.21049 0.48616 0.44447 0.0
H736 H 0.26565 0.49211 0.45639 0.0
H737 H 0.26724 0.5249 0.43559 0.0
H738 H 0.29191 0.49494 0.4282 0.0
H739 H 0.2692 0.45774 0.32546 0.0
H740 H 0.27703 0.50788 0.30719 0.0
H741 H 0.25477 0.54402 0.3887 0.0
C742 C 0.25312 0.434 0.43283 0.0
C743 C 0.2629 0.40552 0.42622 0.0
C744 C 0.26878 0.39775 0.39804 0.0
C745 C 0.26532 0.41841 0.37651 0.0
C746 C 0.25639 0.44674 0.38371 0.0
C747 C 0.25055 0.45461 0.41126 0.0
C748 C 0.24661 0.48746 0.41422 0.0
C749 C 0.2151 0.49496 0.42316 0.0
C750 C 0.2692 0.5006 0.4348 0.0
C751 C 0.25244 0.497 0.38433 0.0
C752 C 0.25705 0.47314 0.36685 0.0
C753 C 0.26508 0.47657 0.33879 0.0
C754 C 0.2694 0.50508 0.32856 0.0
C755 C 0.26627 0.52963 0.34656 0.0
C756 C 0.25693 0.52553 0.37452 0.0
H757 H 0.10953 0.82875 0.92808 0.0
H758 H 0.13645 0.73747 0.93204 0.0
H759 H 0.09616 0.72418 0.89935 0.0
H760 H 0.0343 0.81662 0.92919 0.0
H761 H 0.0256 0.84598 0.90528 0.0
H762 H 0.05796 0.84823 0.92678 0.0
H763 H 0.09013 0.85528 0.88235 0.0
H764 H 0.05779 0.85335 0.86069 0.0
H765 H 0.08805 0.8288 0.85422 0.0
H766 H 0.04962 0.72108 0.86876 0.0
H767 H 0.003 0.72887 0.84276 0.0
H768 H 0.00922 0.82234 0.85936 0.0
C769 C 0.10723 0.80595 0.92193 0.0
C770 C 0.12601 0.78411 0.9327 0.0
C771 C 0.12233 0.75458 0.92393 0.0
C772 C 0.0995 0.74685 0.90543 0.0
C773 C 0.08093 0.76898 0.89573 0.0
C774 C 0.08489 0.79797 0.90353 0.0
C775 C 0.06165 0.81767 0.89125 0.0
C776 C 0.04383 0.83301 0.91451 0.0
C777 C 0.07522 0.84009 0.87092 0.0
C778 C 0.04344 0.79523 0.87582 0.0
C779 C 0.0548 0.76724 0.87837 0.0
C780 C 0.04073 0.74297 0.86646 0.0
C781 C 0.01433 0.74756 0.85175 0.0
C782 C 0.00234 0.77613 0.8494 0.0
C783 C 0.01748 0.80014 0.86127 0.0
H784 H 0.84204 0.08553 0.92491 0.0
H785 H 0.74765 0.09401 0.91589 0.0
H786 H 0.74768 0.05249 0.88229 0.0
H787 H 0.8583 0.06237 0.85201 0.0
H788 H 0.88624 0.0372 0.86367 0.0
H789 H 0.87908 0.07028 0.88334 0.0
H790 H 0.87049 0.0392 0.92818 0.0
H791 H 0.87733 0.00609 0.90868 0.0
H792 H 0.84338 0.01039 0.92763 0.0
H793 H 0.75776 0.00633 0.85348 0.0
H794 H 0.77693 0.95983 0.83329 0.0
H795 H 0.86406 0.98223 0.86276 0.0
C796 C 0.82138 0.07924 0.91544 0.0
C797 C 0.79486 0.09315 0.92304 0.0
C798 C 0.76831 0.0838 0.91034 0.0
C799 C 0.7681 0.06027 0.89118 0.0
C800 C 0.79463 0.04649 0.88486 0.0
C801 C 0.82077 0.05583 0.89656 0.0
C802 C 0.84593 0.03592 0.88862 0.0
C803 C 0.86873 0.05243 0.87085 0.0
C804 C 0.86009 0.02209 0.91483 0.0
C805 C 0.82978 0.01331 0.87132 0.0
C806 C 0.80029 0.0199 0.86891 0.0
C807 C 0.78087 0.00117 0.85496 0.0
C808 C 0.79189 0.97488 0.84357 0.0
C809 C 0.82187 0.96753 0.84668 0.0
C810 C 0.84099 0.9873 0.86027 0.0
H811 H 0.34263 0.33053 0.39593 0.0
H812 H 0.34894 0.24291 0.43066 0.0
H813 H 0.38195 0.22854 0.39176 0.0
H814 H 0.35197 0.3087 0.31837 0.0
H815 H 0.37327 0.3414 0.31222 0.0
H816 H 0.3438 0.34191 0.33749 0.0
H817 H 0.37997 0.36064 0.3755 0.0
H818 H 0.40948 0.35984 0.35067 0.0
H819 H 0.41254 0.33962 0.38306 0.0
H820 H 0.42308 0.22782 0.35703 0.0
H821 H 0.46714 0.24036 0.32938 0.0
H822 H 0.43341 0.3283 0.31677 0.0
C823 C 0.35006 0.30798 0.39471 0.0
C824 C 0.34338 0.28781 0.4162 0.0
C825 C 0.35361 0.25858 0.41418 0.0
C826 C 0.37234 0.25026 0.39214 0.0
C827 C 0.37999 0.27128 0.37211 0.0
C828 C 0.36863 0.29944 0.37293 0.0
C829 C 0.3834 0.31928 0.3518 0.0
C830 C 0.36182 0.32834 0.32859 0.0
C831 C 0.39716 0.3464 0.36613 0.0
C832 C 0.40651 0.29865 0.34058 0.0
C833 C 0.40374 0.27081 0.35187 0.0
C834 C 0.42492 0.24922 0.34735 0.0
C835 C 0.44988 0.25653 0.33161 0.0
C836 C 0.45356 0.28529 0.32094 0.0
C837 C 0.43104 0.30612 0.32462 0.0
H838 H 0.22897 0.93757 0.95647 0.0
H839 H 0.17013 0.88082 0.90977 0.0
H840 H 0.16266 0.91989 0.87467 0.0
H841 H 0.18644 -0.00097 0.95064 0.0
H842 H 0.21594 0.02516 0.94746 0.0
H843 H 0.22195 0.99103 0.96543 0.0
H844 H 0.26538 0.97925 0.93213 0.0
H845 H 0.2595 0.01349 0.91403 0.0
H846 H 0.25968 0.97945 0.89465 0.0
H847 H 0.15576 0.96621 0.84893 0.0
H848 H 0.14786 0.01804 0.8355 0.0
H849 H 0.20957 0.04598 0.8993 0.0
C850 C 0.21537 0.93317 0.93828 0.0
C851 C 0.20041 0.90622 0.93545 0.0
C852 C 0.18188 0.90137 0.91207 0.0
C853 C 0.17768 0.92332 0.89197 0.0
C854 C 0.19207 0.95002 0.89567 0.0
C855 C 0.21051 0.95512 0.91826 0.0
C856 C 0.21988 0.98702 0.9195 0.0
C857 C 0.21047 0.00139 0.9474 0.0
C858 C 0.25309 0.98997 0.91479 0.0
C859 C 0.20281 -0.00075 0.89486 0.0
C860 C 0.18751 0.97735 0.881 0.0
C861 C 0.16813 0.98348 0.85914 0.0
C862 C 0.16376 0.01284 0.85166 0.0
C863 C 0.17859 0.03551 0.8661 0.0
C864 C 0.19873 0.02872 0.88755 0.0
H865 H 0.57585 0.67755 0.48322 0.0
H866 H 0.62759 0.71988 0.41843 0.0
H867 H 0.58291 0.72669 0.38976 0.0
H868 H 0.52712 0.6391 0.43918 0.0
H869 H 0.4951 0.64502 0.46066 0.0
H870 H 0.53091 0.64442 0.47655 0.0
H871 H 0.52177 0.69604 0.49785 0.0
H872 H 0.48585 0.69676 0.48206 0.0
H873 H 0.51156 0.72593 0.4751 0.0
H874 H 0.53423 0.72353 0.3662 0.0
H875 H 0.48405 0.71447 0.35035 0.0
H876 H 0.46196 0.68065 0.43321 0.0
C877 C 0.57764 0.68837 0.46305 0.0
C878 C 0.60502 0.69804 0.45283 0.0
C879 C 0.60668 0.7124 0.42655 0.0
C880 C 0.58149 0.71635 0.41016 0.0
C881 C 0.5548 0.70645 0.42073 0.0
C882 C 0.55257 0.69321 0.44675 0.0
C883 C 0.52118 0.68466 0.45312 0.0
C884 C 0.51843 0.65132 0.45763 0.0
C885 C 0.5094 0.70188 0.47854 0.0
C886 C 0.50633 0.69419 0.42618 0.0
C887 C 0.52615 0.7066 0.4078 0.0
C888 C 0.51825 0.71466 0.38069 0.0
C889 C 0.48935 0.70966 0.372 0.0
C890 C 0.4683 0.69721 0.39052 0.0
C891 C 0.47711 0.68998 0.41821 0.0
H892 H 0.33757 0.43866 0.52745 0.0
H893 H 0.26501 0.40682 0.57799 0.0
H894 H 0.27469 0.4458 0.61302 0.0
H895 H 0.38551 0.45774 0.58415 0.0
H896 H 0.39934 0.4903 0.56725 0.0
H897 H 0.38682 0.45976 0.54636 0.0
H898 H 0.35055 0.49392 0.52011 0.0
H899 H 0.36306 0.5246 0.54081 0.0
H900 H 0.32461 0.51541 0.54 0.0
H901 H 0.29351 0.48746 0.64322 0.0
H902 H 0.31806 0.53012 0.6649 0.0
H903 H 0.37606 0.53619 0.59271 0.0
C904 C 0.32373 0.43981 0.5459 0.0
C905 C 0.30059 0.41965 0.55004 0.0
C906 C 0.28279 0.42212 0.57433 0.0
C907 C 0.28819 0.4441 0.59439 0.0
C908 C 0.31126 0.46355 0.58968 0.0
C909 C 0.32856 0.46176 0.56591 0.0
C910 C 0.35155 0.4857 0.56546 0.0
C911 C 0.38264 0.47258 0.56583 0.0
C912 C 0.34717 0.50612 0.5401 0.0
C913 C 0.34458 0.5012 0.59278 0.0
C914 C 0.32143 0.488 0.60656 0.0
C915 C 0.31148 0.49816 0.63247 0.0
C916 C 0.32546 0.52258 0.64452 0.0
C917 C 0.34898 0.53678 0.63053 0.0
C918 C 0.35849 0.52576 0.60427 0.0
H919 H 0.14184 0.81591 0.08492 0.0
H920 H 0.13024 0.73338 0.04106 0.0
H921 H 0.0894 0.72069 0.07303 0.0
H922 H 0.11526 0.78904 0.15798 0.0
H923 H 0.09794 0.82409 0.16387 0.0
H924 H 0.13163 0.822 0.14412 0.0
H925 H 0.1066 0.84936 0.10296 0.0
H926 H 0.07287 0.8511 0.12214 0.0
H927 H 0.07355 0.83438 0.08778 0.0
H928 H 0.04249 0.72365 0.10003 0.0
H929 H 0.99575 0.741 0.12058 0.0
H930 H 0.03839 0.82126 0.14746 0.0
C931 C 0.13155 0.79455 0.08299 0.0
C932 C 0.13903 0.77556 0.06074 0.0
C933 C 0.125 0.748 0.05832 0.0
C934 C 0.10179 0.74067 0.07639 0.0
C935 C 0.09351 0.76088 0.09703 0.0
C936 C 0.10854 0.78701 0.10084 0.0
C937 C 0.0928 0.80716 0.12111 0.0
C938 C 0.11046 0.81077 0.14839 0.0
C939 C 0.08605 0.83722 0.10767 0.0
C940 C 0.06524 0.78955 0.12608 0.0
C941 C 0.06633 0.76252 0.11279 0.0
C942 C 0.04175 0.74429 0.1113 0.0
C943 C 0.01529 0.75431 0.12297 0.0
C944 C 0.01364 0.78245 0.1355 0.0
C945 C 0.0392 0.79962 0.13802 0.0
H946 H 0.69689 0.59965 0.5789 0.0
H947 H 0.77826 0.58771 0.53318 0.0
H948 H 0.78847 0.54299 0.56075 0.0
H949 H 0.7217 0.56461 0.64817 0.0
H950 H 0.6859 0.54845 0.65255 0.0
H951 H 0.68961 0.5837 0.63572 0.0
H952 H 0.66138 0.56376 0.59245 0.0
H953 H 0.65789 0.52856 0.60883 0.0
H954 H 0.67476 0.5314 0.5747 0.0
H955 H 0.78365 0.49402 0.58435 0.0
H956 H 0.76442 0.44656 0.60216 0.0
H957 H 0.68603 0.49042 0.63142 0.0
C958 C 0.71744 0.58829 0.57544 0.0
C959 C 0.73673 0.59707 0.55388 0.0
C960 C 0.76327 0.58151 0.54978 0.0
C961 C 0.76926 0.55607 0.56539 0.0
C962 C 0.74874 0.54689 0.58529 0.0
C963 C 0.72357 0.56292 0.59067 0.0
C964 C 0.70269 0.54638 0.60954 0.0
C965 C 0.69982 0.5617 0.6382 0.0
C966 C 0.67244 0.54228 0.59552 0.0
C967 C 0.71892 0.51764 0.61217 0.0
C968 C 0.74587 0.51853 0.59881 0.0
C969 C 0.76304 0.49333 0.59561 0.0
C970 C 0.75203 0.46652 0.60567 0.0
C971 C 0.72404 0.46533 0.61828 0.0
C972 C 0.70778 0.49121 0.62229 0.0
H973 H 0.90612 0.18089 0.04586 0.0
H974 H 0.83241 0.2238 0.08627 0.0
H975 H 0.85813 0.22074 0.13204 0.0
H976 H 0.9184 0.12969 0.09655 0.0
H977 H 0.95785 0.12974 0.09404 0.0
H978 H 0.93607 0.13968 0.06405 0.0
H979 H 0.96296 0.18971 0.0605 0.0
H980 H 0.9854 0.17967 0.09012 0.0
H981 H 0.96473 0.21339 0.09085 0.0
H982 H 0.88918 0.20578 0.17429 0.0
H983 H 0.92444 0.18454 0.2082 0.0
H984 H 0.97769 0.15316 0.13876 0.0
C985 C 0.89573 0.19044 0.0642 0.0
C986 C 0.86738 0.20264 0.0626 0.0
C987 C 0.85435 0.21471 0.08704 0.0
C988 C 0.86871 0.21289 0.11311 0.0
C989 C 0.89618 0.19941 0.11414 0.0
C990 C 0.90976 0.18895 0.09015 0.0
C991 C 0.93827 0.17363 0.0968 0.0
C992 C 0.93757 0.14128 0.0873 0.0
C993 C 0.96439 0.19009 0.0838 0.0
C994 C 0.93826 0.17619 0.12839 0.0
C995 C 0.91396 0.19119 0.13814 0.0
C996 C 0.90857 0.19451 0.16682 0.0
C997 C 0.9287 0.18236 0.18593 0.0
C998 C 0.95379 0.16701 0.1762 0.0
C999 C 0.95854 0.16427 0.14701 0.0
H1000 H 0.28114 0.80988 0.07772 0.0
H1001 H 0.279 0.72908 0.02943 0.0
H1002 H 0.3039 0.70312 0.06811 0.0
H1003 H 0.3522 0.79572 0.116 0.0
H1004 H 0.33808 0.81138 0.14807 0.0
H1005 H 0.32568 0.82504 0.11458 0.0
H1006 H 0.27188 0.81498 0.12916 0.0
H1007 H 0.28404 0.80107 0.1625 0.0
H1008 H 0.26145 0.77855 0.14005 0.0
H1009 H 0.32209 0.68454 0.11343 0.0
H1010 H 0.33234 0.6741 0.16328 0.0
H1011 H 0.32135 0.76639 0.18339 0.0
C1012 C 0.28697 0.787 0.07497 0.0
C1013 C 0.27861 0.77147 0.05058 0.0
C1014 C 0.28548 0.7413 0.04797 0.0
C1015 C 0.29971 0.72645 0.06973 0.0
C1016 C 0.3068 0.7421 0.09396 0.0
C1017 C 0.30078 0.77173 0.09674 0.0
C1018 C 0.30724 0.78241 0.12627 0.0
C1019 C 0.3323 0.80497 0.12621 0.0
C1020 C 0.2795 0.79498 0.1403 0.0
C1021 C 0.31671 0.75393 0.13988 0.0
C1022 C 0.31679 0.7311 0.12069 0.0
C1023 C 0.32258 0.70228 0.12859 0.0
C1024 C 0.32811 0.69653 0.15693 0.0
C1025 C 0.32759 0.71946 0.17705 0.0
C1026 C 0.32236 0.74859 0.1683 0.0
H1027 H 0.74583 0.76002 0.55111 0.0
H1028 H 0.81818 0.70939 0.51698 0.0
H1029 H 0.8519 0.73326 0.5509 0.0
H1030 H 0.7864 0.82745 0.56798 0.0
H1031 H 0.76622 0.83295 0.60011 0.0
H1032 H 0.74899 0.81495 0.57067 0.0
H1033 H 0.73679 0.77015 0.60212 0.0
H1034 H 0.75392 0.78796 0.63159 0.0
H1035 H 0.76595 0.75196 0.62083 0.0
H1036 H 0.8768 0.76081 0.59067 0.0
H1037 H 0.89014 0.78667 0.63448 0.0
H1038 H 0.79984 0.81549 0.64377 0.0
C1039 C 0.7689 0.75445 0.5502 0.0
C1040 C 0.77952 0.73318 0.53115 0.0
C1041 C 0.80968 0.72581 0.5313 0.0
C1042 C 0.82896 0.73933 0.55038 0.0
C1043 C 0.8176 0.75994 0.56919 0.0
C1044 C 0.7882 0.7673 0.56928 0.0
C1045 C 0.78068 0.78766 0.5933 0.0
C1046 C 0.76995 0.81752 0.58235 0.0
C1047 C 0.75801 0.77358 0.61312 0.0
C1048 C 0.81037 0.7903 0.6071 0.0
C1049 C 0.83152 0.77463 0.59268 0.0
C1050 C 0.86041 0.77318 0.60209 0.0
C1051 C 0.86769 0.78775 0.62715 0.0
C1052 C 0.84604 0.80311 0.64275 0.0
C1053 C 0.81714 0.80458 0.6322 0.0
H1054 H 0.74145 0.25447 0.0623 0.0
H1055 H 0.71888 0.16243 0.07278 0.0
H1056 H 0.69919 0.17328 0.11984 0.0
H1057 H 0.76372 0.26809 0.13314 0.0
H1058 H 0.74803 0.30438 0.13473 0.0
H1059 H 0.76042 0.2897 0.10161 0.0
H1060 H 0.70901 0.29838 0.07987 0.0
H1061 H 0.69664 0.31357 0.11274 0.0
H1062 H 0.67711 0.28332 0.09697 0.0
H1063 H 0.68373 0.19347 0.16618 0.0
H1064 H 0.66752 0.22296 0.2068 0.0
H1065 H 0.69826 0.30213 0.1655 0.0
C1066 C 0.73218 0.23662 0.07438 0.0
C1067 C 0.73174 0.2076 0.06383 0.0
C1068 C 0.71931 0.18488 0.0803 0.0
C1069 C 0.70829 0.19075 0.10717 0.0
C1070 C 0.70968 0.21945 0.11715 0.0
C1071 C 0.72085 0.2421 0.10115 0.0
C1072 C 0.71892 0.27114 0.11657 0.0
C1073 C 0.7496 0.28408 0.12182 0.0
C1074 C 0.69924 0.29288 0.10059 0.0
C1075 C 0.70481 0.26123 0.14371 0.0
C1076 C 0.70004 0.23128 0.14372 0.0
C1077 C 0.68713 0.21698 0.16636 0.0
C1078 C 0.67796 0.23392 0.18928 0.0
C1079 C 0.68142 0.26485 0.1892 0.0
C1080 C 0.69563 0.27852 0.16634 0.0
H1081 H 0.25821 0.25042 0.58086 0.0
H1082 H 0.2413 0.34366 0.59114 0.0
H1083 H 0.23258 0.3362 0.64166 0.0
H1084 H 0.20158 0.22696 0.62715 0.0
H1085 H 0.22194 0.19627 0.64091 0.0
H1086 H 0.22919 0.20928 0.60593 0.0
H1087 H 0.28406 0.21589 0.61879 0.0
H1088 H 0.27685 0.20322 0.65396 0.0
H1089 H 0.29396 0.23843 0.64849 0.0
H1090 H 0.22486 0.31905 0.69044 0.0
H1091 H 0.21288 0.2922 0.73387 0.0
H1092 H 0.23207 0.20972 0.69182 0.0
C1093 C 0.25283 0.26923 0.59382 0.0
C1094 C 0.25042 0.29758 0.58214 0.0
C1095 C 0.243 0.32167 0.59964 0.0
C1096 C 0.23831 0.31774 0.6284 0.0
C1097 C 0.24092 0.28956 0.63931 0.0
C1098 C 0.2476 0.26563 0.62258 0.0
C1099 C 0.24682 0.23741 0.63933 0.0
C1100 C 0.22349 0.21625 0.62764 0.0
C1101 C 0.27724 0.22289 0.64019 0.0
C1102 C 0.23822 0.24926 0.66793 0.0
C1103 C 0.23548 0.27945 0.66751 0.0
C1104 C 0.22691 0.29539 0.69109 0.0
C1105 C 0.22004 0.27995 0.71559 0.0
C1106 C 0.2214 0.24889 0.71618 0.0
C1107 C 0.23129 0.23347 0.69218 0.0
H1108 H 0.77997 0.6984 0.40341 0.0
H1109 H 0.69154 0.73289 0.39666 0.0
H1110 H 0.69994 0.74344 0.34635 0.0
H1111 H 0.81292 0.75265 0.36117 0.0
H1112 H 0.8394 0.72802 0.34579 0.0
H1113 H 0.82509 0.72075 0.38027 0.0
H1114 H 0.80866 0.66901 0.36359 0.0
H1115 H 0.82247 0.67643 0.32885 0.0
H1116 H 0.78476 0.66564 0.33358 0.0
H1117 H 0.71838 0.75117 0.2974 0.0
H1118 H 0.74772 0.76275 0.25531 0.0
H1119 H 0.82483 0.72577 0.29538 0.0
C1120 C 0.76231 0.70796 0.39126 0.0
C1121 C 0.7351 0.71474 0.40373 0.0
C1122 C 0.71263 0.72771 0.38741 0.0
C1123 C 0.71707 0.73343 0.35882 0.0
C1124 C 0.74411 0.72619 0.34708 0.0
C1125 C 0.7665 0.71419 0.36289 0.0
C1126 C 0.79438 0.71105 0.346 0.0
C1127 C 0.81941 0.72921 0.35908 0.0
C1128 C 0.80307 0.6786 0.34282 0.0
C1129 C 0.78437 0.72376 0.31832 0.0
C1130 C 0.75512 0.7317 0.31916 0.0
C1131 C 0.74129 0.74504 0.29647 0.0
C1132 C 0.75815 0.7516 0.27273 0.0
C1133 C 0.7886 0.74533 0.27216 0.0
C1134 C 0.80153 0.73034 0.29492 0.0
H1135 H 0.75235 0.26158 0.92498 0.0
H1136 H 0.70806 0.17709 0.92099 0.0
H1137 H 0.68742 0.19015 0.87513 0.0
H1138 H 0.69276 0.30353 0.89022 0.0
H1139 H 0.71823 0.32696 0.87193 0.0
H1140 H 0.72783 0.31201 0.90573 0.0
H1141 H 0.77508 0.28984 0.88414 0.0
H1142 H 0.7654 0.30426 0.8502 0.0
H1143 H 0.77223 0.26553 0.85431 0.0
H1144 H 0.67704 0.20884 0.8277 0.0
H1145 H 0.67139 0.23539 0.78326 0.0
H1146 H 0.71837 0.30989 0.81874 0.0
C1147 C 0.73786 0.24607 0.91473 0.0
C1148 C 0.73197 0.21828 0.92664 0.0
C1149 C 0.71293 0.19856 0.91245 0.0
C1150 C 0.70112 0.20569 0.88628 0.0
C1151 C 0.70813 0.23279 0.87475 0.0
C1152 C 0.7255 0.25298 0.88866 0.0
C1153 C 0.72992 0.28034 0.87111 0.0
C1154 C 0.71637 0.30731 0.88561 0.0
C1155 C 0.7626 0.28526 0.86456 0.0
C1156 C 0.71296 0.27191 0.84494 0.0
C1157 C 0.70074 0.24432 0.84754 0.0
C1158 C 0.68573 0.23084 0.82563 0.0
C1159 C 0.6825 0.24625 0.80049 0.0
C1160 C 0.69377 0.27513 0.79756 0.0
C1161 C 0.70942 0.28793 0.82015 0.0
H1162 H 0.22786 0.2335 0.45593 0.0
H1163 H 0.18832 0.31865 0.43991 0.0
H1164 H 0.15916 0.29695 0.40155 0.0
H1165 H 0.2354 0.21179 0.386 0.0
H1166 H 0.22633 0.17373 0.39158 0.0
H1167 H 0.24229 0.19497 0.41961 0.0
H1168 H 0.1985 0.18224 0.45207 0.0
H1169 H 0.18261 0.1605 0.42429 0.0
H1170 H 0.16163 0.18958 0.44034 0.0
H1171 H 0.1391 0.26785 0.36169 0.0
H1172 H 0.1243 0.2317 0.32607 0.0
H1173 H 0.17434 0.16437 0.36941 0.0
C1174 C 0.21266 0.24751 0.44474 0.0
C1175 C 0.21043 0.27782 0.45096 0.0
C1176 C 0.19032 0.29536 0.4357 0.0
C1177 C 0.17375 0.28327 0.41377 0.0
C1178 C 0.17725 0.25357 0.40761 0.0
C1179 C 0.19576 0.23577 0.42294 0.0
C1180 C 0.19595 0.20468 0.4115 0.0
C1181 C 0.22683 0.19579 0.40159 0.0
C1182 C 0.18395 0.18297 0.43335 0.0
C1183 C 0.17513 0.20799 0.38693 0.0
C1184 C 0.16472 0.23641 0.38507 0.0
C1185 C 0.14647 0.24534 0.36333 0.0
C1186 C 0.13807 0.22451 0.34325 0.0
C1187 C 0.14753 0.19488 0.3452 0.0
C1188 C 0.16661 0.18672 0.36727 0.0
H1189 H 0.25493 0.74743 0.9154 0.0
H1190 H 0.27913 0.83965 0.91258 0.0
H1191 H 0.29613 0.83335 0.86375 0.0
H1192 H 0.31652 0.72104 0.87546 0.0
H1193 H 0.29551 0.69289 0.85796 0.0
H1194 H 0.28507 0.70504 0.89254 0.0
H1195 H 0.23294 0.7169 0.87394 0.0
H1196 H 0.24344 0.70531 0.83916 0.0
H1197 H 0.22875 0.7416 0.84467 0.0
H1198 H 0.30937 0.81735 0.81497 0.0
H1199 H 0.32365 0.79133 0.77152 0.0
H1200 H 0.29218 0.70942 0.80699 0.0
C1201 C 0.26394 0.76629 0.9046 0.0
C1202 C 0.26568 0.79403 0.91783 0.0
C1203 C 0.27776 0.81811 0.90297 0.0
C1204 C 0.28723 0.81484 0.87514 0.0
C1205 C 0.28459 0.78734 0.86257 0.0
C1206 C 0.27367 0.76339 0.87693 0.0
C1207 C 0.27416 0.73599 0.85892 0.0
C1208 C 0.29401 0.71236 0.872 0.0
C1209 C 0.24296 0.72427 0.85388 0.0
C1210 C 0.28725 0.74826 0.83222 0.0
C1211 C 0.29275 0.77799 0.83463 0.0
C1212 C 0.30528 0.79404 0.81286 0.0
C1213 C 0.31334 0.77908 0.78831 0.0
C1214 C 0.3091 0.74834 0.7859 0.0
C1215 C 0.29524 0.73298 0.80795 0.0
loop_
_geom_bond_atom_site_label_1
_geom_bond_atom_site_label_2
_geom_bond_distance
_geom_bond_site_symmetry_2
_ccdc_geom_bond_type
Sc0 O3 2.025 . S
Sc0 O10 2.105 1_554 S
Sc0 O13 2.105 . S
Sc0 O16 2.105 . S
Sc0 O19 2.105 1_554 S
Sc1 O3 2.025 . S
Sc1 O11 2.105 1_554 S
Sc1 O15 2.105 . S
Sc1 O17 2.105 . S
Sc1 O21 2.105 1_554 S
Sc2 O3 2.025 . S
Sc2 O12 2.105 1_554 S
Sc2 O14 2.105 . S
Sc2 O18 2.105 . S
Sc2 O20 2.105 1_554 S
O3 Sc0 2.025 . S
O3 Sc1 2.025 . S
O3 Sc2 2.025 . S
C4 O10 1.268 . S
C4 O20 1.268 . S
C5 O11 1.268 . S
C5 O19 1.268 . S
C6 O12 1.268 . S
C6 O21 1.268 . S
C7 O13 1.268 . S
C7 O17 1.268 . S
C8 O14 1.268 . S
C8 O16 1.268 . S
C9 O15 1.268 . S
C9 O18 1.268 . S
O10 Sc0 2.105 1_556 S
O10 C4 1.268 . S
O11 Sc1 2.105 1_556 S
O11 C5 1.268 . S
O12 Sc2 2.105 1_556 S
O12 C6 1.268 . S
O13 Sc0 2.105 . S
O13 C7 1.268 . S
O14 Sc2 2.105 . S
O14 C8 1.268 . S
O15 Sc1 2.105 . S
O15 C9 1.268 . S
O16 Sc0 2.105 . S
O16 C8 1.268 . S
O17 Sc1 2.105 . S
O17 C7 1.268 . S
O18 Sc2 2.105 . S
O18 C9 1.268 . S
O19 Sc0 2.105 1_556 S
O19 C5 1.268 . S
O20 Sc2 2.105 1_556 S
O20 C4 1.268 . S
O21 Sc1 2.105 1_556 S
O21 C6 1.268 . S
Sc22 O25 2.025 . S
Sc22 O32 2.105 . S
Sc22 O35 2.105 . S
Sc22 O38 2.105 . S
Sc22 O41 2.105 . S
Sc23 O25 2.025 . S
Sc23 O33 2.105 . S
Sc23 O37 2.105 . S
Sc23 O39 2.105 . S
Sc23 O43 2.105 . S
Sc24 O25 2.025 . S
Sc24 O34 2.105 . S
Sc24 O36 2.105 . S
Sc24 O40 2.105 . S
Sc24 O42 2.105 . S
O25 Sc22 2.025 . S
O25 Sc23 2.025 . S
O25 Sc24 2.025 . S
C26 O32 1.268 . S
C26 O42 1.268 . S
C27 O33 1.268 . S
C27 O41 1.268 . S
C28 O34 1.268 . S
C28 O43 1.268 . S
C29 O35 1.268 . S
C29 O39 1.268 . S
C30 O36 1.268 . S
C30 O38 1.268 . S
C31 O37 1.268 . S
C31 O40 1.268 . S
O32 Sc22 2.105 . S
O32 C26 1.268 . S
O33 Sc23 2.105 . S
O33 C27 1.268 . S
O34 Sc24 2.105 . S
O34 C28 1.268 . S
O35 Sc22 2.105 . S
O35 C29 1.268 . S
O36 Sc24 2.105 . S
O36 C30 1.268 . S
O37 Sc23 2.105 . S
O37 C31 1.268 . S
O38 Sc22 2.105 . S
O38 C30 1.268 . S
O39 Sc23 2.105 . S
O39 C29 1.268 . S
O40 Sc24 2.105 . S
O40 C31 1.268 . S
O41 Sc22 2.105 . S
O41 C27 1.268 . S
O42 Sc24 2.105 . S
O42 C26 1.268 . S
O43 Sc23 2.105 . S
O43 C28 1.268 . S
Sc44 O47 2.025 . S
Sc44 O54 2.105 1_554 S
Sc44 O57 2.105 . S
Sc44 O60 2.105 . S
Sc44 O63 2.105 1_554 S
Sc45 O47 2.025 . S
Sc45 O55 2.105 1_554 S
Sc45 O59 2.105 . S
Sc45 O61 2.105 . S
Sc45 O65 2.105 1_554 S
Sc46 O47 2.025 . S
Sc46 O56 2.105 1_554 S
Sc46 O58 2.105 . S
Sc46 O62 2.105 . S
Sc46 O64 2.105 1_554 S
O47 Sc44 2.025 . S
O47 Sc45 2.025 . S
O47 Sc46 2.025 . S
C48 O54 1.268 . S
C48 O64 1.268 . S
C49 O55 1.268 . S
C49 O63 1.268 . S
C50 O56 1.268 . S
C50 O65 1.268 . S
C51 O57 1.268 . S
C51 O61 1.268 . S
C52 O58 1.268 . S
C52 O60 1.268 . S
C53 O59 1.268 . S
C53 O62 1.268 . S
O54 Sc44 2.105 1_556 S
O54 C48 1.268 . S
O55 Sc45 2.105 1_556 S
O55 C49 1.268 . S
O56 Sc46 2.105 1_556 S
O56 C50 1.268 . S
O57 Sc44 2.105 . S
O57 C51 1.268 . S
O58 Sc46 2.105 . S
O58 C52 1.268 . S
O59 Sc45 2.105 . S
O59 C53 1.268 . S
O60 Sc44 2.105 . S
O60 C52 1.268 . S
O61 Sc45 2.105 . S
O61 C51 1.268 . S
O62 Sc46 2.105 . S
O62 C53 1.268 . S
O63 Sc44 2.105 1_556 S
O63 C49 1.268 . S
O64 Sc46 2.105 1_556 S
O64 C48 1.268 . S
O65 Sc45 2.105 1_556 S
O65 C50 1.268 . S
Sc66 O69 2.025 . S
Sc66 O76 2.105 . S
Sc66 O79 2.105 . S
Sc66 O82 2.105 . S
Sc66 O85 2.105 . S
Sc67 O69 2.025 . S
Sc67 O77 2.105 . S
Sc67 O81 2.105 . S
Sc67 O83 2.105 . S
Sc67 O87 2.105 . S
Sc68 O69 2.025 . S
Sc68 O78 2.105 . S
Sc68 O80 2.105 . S
Sc68 O84 2.105 . S
Sc68 O86 2.105 . S
O69 Sc66 2.025 . S
O69 Sc67 2.025 . S
O69 Sc68 2.025 . S
C70 O76 1.268 . S
C70 O86 1.268 . S
C71 O77 1.268 . S
C71 O85 1.268 . S
C72 O78 1.268 . S
C72 O87 1.268 . S
C73 O79 1.268 . S
C73 O83 1.268 . S
C74 O80 1.268 . S
C74 O82 1.268 . S
C75 O81 1.268 . S
C75 O84 1.268 . S
O76 Sc66 2.105 . S
O76 C70 1.268 . S
O77 Sc67 2.105 . S
O77 C71 1.268 . S
O78 Sc68 2.105 . S
O78 C72 1.268 . S
O79 Sc66 2.105 . S
O79 C73 1.268 . S
O80 Sc68 2.105 . S
O80 C74 1.268 . S
O81 Sc67 2.105 . S
O81 C75 1.268 . S
O82 Sc66 2.105 . S
O82 C74 1.268 . S
O83 Sc67 2.105 . S
O83 C73 1.268 . S
O84 Sc68 2.105 . S
O84 C75 1.268 . S
O85 Sc66 2.105 . S
O85 C71 1.268 . S
O86 Sc68 2.105 . S
O86 C70 1.268 . S
O87 Sc67 2.105 . S
O87 C72 1.268 . S
C88 C89 1.391 . S
C88 C92 1.391 . S
C88 H130 0.948 . S
C89 C88 1.391 . S
C89 C90 1.391 . S
C90 C89 1.391 . S
C90 H146 0.947 . S
C90 C147 1.392 . S
C91 C92 1.391 . S
C91 C95 1.397 . S
C91 C147 1.419 . S
C92 C88 1.391 . S
C92 C91 1.391 . S
C92 C93 1.399 . S
C93 C92 1.399 . S
C93 C96 1.396 . S
C93 C105 1.453 . S
C93 C106 1.684 . S
H94 C118 0.948 . S
C95 C91 1.397 . S
C95 C96 1.394 . S
C95 C114 1.723 . S
C96 C93 1.396 . S
C96 C95 1.394 . S
C96 C126 1.723 . S
H97 C120 0.947 . S
H98 C121 0.948 . S
H99 C127 0.982 . S
H100 C128 0.979 . S
H101 C128 0.980 . S
H102 C128 0.983 . S
H103 C127 0.979 . S
H104 C127 0.977 . S
C105 C93 1.453 . S
C105 H134 0.982 . S
C105 H135 0.979 . S
C105 H136 0.977 . S
C106 C93 1.684 . S
C106 H131 0.979 . S
C106 H132 0.980 . S
C106 H133 0.983 . S
C107 C108 1.391 . S
C107 C112 1.391 . S
C107 H137 0.948 . S
C108 C107 1.391 . S
C108 C109 1.391 . S
C109 C108 1.391 . S
C109 C110 1.392 . S
C109 H138 0.947 . S
C110 C109 1.392 . S
C110 C111 1.419 . S
C110 H139 0.948 . S
C111 C110 1.419 . S
C111 C112 1.391 . S
C111 C115 1.397 . S
C112 C107 1.391 . S
C112 C111 1.391 . S
C112 C113 1.399 . S
C113 C112 1.399 . S
C113 C114 1.396 . S
C113 C116 1.453 . S
C113 C117 1.684 . S
C114 C95 1.723 . S
C114 C113 1.396 . S
C114 C115 1.394 . S
C115 C111 1.397 . S
C115 C114 1.394 . S
C115 C125 1.723 . S
C116 C113 1.453 . S
C116 H140 0.982 . S
C116 H141 0.979 . S
C116 H142 0.977 . S
C117 C113 1.684 . S
C117 H143 0.979 . S
C117 H144 0.980 . S
C117 H145 0.983 . S
C118 H94 0.948 . S
C118 C119 1.391 . S
C118 C123 1.391 . S
C119 C118 1.391 . S
C119 C120 1.391 . S
C120 H97 0.947 . S
C120 C119 1.391 . S
C120 C121 1.392 . S
C121 H98 0.948 . S
C121 C120 1.392 . S
C121 C122 1.419 . S
C122 C121 1.419 . S
C122 C123 1.391 . S
C122 C126 1.397 . S
C123 C118 1.391 . S
C123 C122 1.391 . S
C123 C124 1.399 . S
C124 C123 1.399 . S
C124 C125 1.396 . S
C124 C127 1.453 . S
C124 C128 1.684 . S
C125 C115 1.723 . S
C125 C124 1.396 . S
C125 C126 1.394 . S
C126 C96 1.723 . S
C126 C122 1.397 . S
C126 C125 1.394 . S
C127 H99 0.982 . S
C127 H103 0.979 . S
C127 H104 0.977 . S
C127 C124 1.453 . S
C128 H100 0.979 . S
C128 H101 0.980 . S
C128 H102 0.983 . S
C128 C124 1.684 . S
H129 C147 0.948 . S
H130 C88 0.948 . S
H131 C106 0.979 . S
H132 C106 0.980 . S
H133 C106 0.983 . S
H134 C105 0.982 . S
H135 C105 0.979 . S
H136 C105 0.977 . S
H137 C107 0.948 . S
H138 C109 0.947 . S
H139 C110 0.948 . S
H140 C116 0.982 . S
H141 C116 0.979 . S
H142 C116 0.977 . S
H143 C117 0.979 . S
H144 C117 0.980 . S
H145 C117 0.983 . S
H146 C90 0.947 . S
C147 C90 1.392 . S
C147 C91 1.419 . S
C147 H129 0.948 . S
C148 C149 1.391 . S
C148 C152 1.391 . S
C148 H190 0.948 . S
C149 C148 1.391 . S
C149 C150 1.391 . S
C150 C149 1.391 . S
C150 H206 0.947 . S
C150 C207 1.392 . S
C151 C152 1.391 . S
C151 C155 1.397 . S
C151 C207 1.419 . S
C152 C148 1.391 . S
C152 C151 1.391 . S
C152 C153 1.399 . S
C153 C152 1.399 . S
C153 C156 1.396 . S
C153 C165 1.453 . S
C153 C166 1.684 . S
H154 C178 0.948 . S
C155 C151 1.397 . S
C155 C156 1.394 . S
C155 C174 1.723 . S
C156 C153 1.396 . S
C156 C155 1.394 . S
C156 C186 1.723 . S
H157 C180 0.947 . S
H158 C181 0.948 . S
H159 C187 0.982 . S
H160 C188 0.979 . S
H161 C188 0.980 . S
H162 C188 0.983 . S
H163 C187 0.979 . S
H164 C187 0.977 . S
C165 C153 1.453 . S
C165 H194 0.982 . S
C165 H195 0.979 . S
C165 H196 0.977 . S
C166 C153 1.684 . S
C166 H191 0.979 . S
C166 H192 0.980 . S
C166 H193 0.983 . S
C167 C168 1.391 . S
C167 C172 1.391 . S
C167 H197 0.948 . S
C168 C167 1.391 . S
C168 C169 1.391 . S
C169 C168 1.391 . S
C169 C170 1.392 . S
C169 H198 0.947 . S
C170 C169 1.392 . S
C170 C171 1.419 . S
C170 H199 0.948 . S
C171 C170 1.419 . S
C171 C172 1.391 . S
C171 C175 1.397 . S
C172 C167 1.391 . S
C172 C171 1.391 . S
C172 C173 1.399 . S
C173 C172 1.399 . S
C173 C174 1.396 . S
C173 C176 1.453 . S
C173 C177 1.684 . S
C174 C155 1.723 . S
C174 C173 1.396 . S
C174 C175 1.394 . S
C175 C171 1.397 . S
C175 C174 1.394 . S
C175 C185 1.723 . S
C176 C173 1.453 . S
C176 H200 0.982 . S
C176 H201 0.979 . S
C176 H202 0.977 . S
C177 C173 1.684 . S
C177 H203 0.979 . S
C177 H204 0.980 . S
C177 H205 0.983 . S
C178 H154 0.948 . S
C178 C179 1.391 . S
C178 C183 1.391 . S
C179 C178 1.391 . S
C179 C180 1.391 . S
C180 H157 0.947 . S
C180 C179 1.391 . S
C180 C181 1.392 . S
C181 H158 0.948 . S
C181 C180 1.392 . S
C181 C182 1.419 . S
C182 C181 1.419 . S
C182 C183 1.391 . S
C182 C186 1.397 . S
C183 C178 1.391 . S
C183 C182 1.391 . S
C183 C184 1.399 . S
C184 C183 1.399 . S
C184 C185 1.396 . S
C184 C187 1.453 . S
C184 C188 1.684 . S
C185 C175 1.723 . S
C185 C184 1.396 . S
C185 C186 1.394 . S
C186 C156 1.723 . S
C186 C182 1.397 . S
C186 C185 1.394 . S
C187 H159 0.982 . S
C187 H163 0.979 . S
C187 H164 0.977 . S
C187 C184 1.453 . S
C188 H160 0.979 . S
C188 H161 0.980 . S
C188 H162 0.983 . S
C188 C184 1.684 . S
H189 C207 0.948 . S
H190 C148 0.948 . S
H191 C166 0.979 . S
H192 C166 0.980 . S
H193 C166 0.983 . S
H194 C165 0.982 . S
H195 C165 0.979 . S
H196 C165 0.977 . S
H197 C167 0.948 . S
H198 C169 0.947 . S
H199 C170 0.948 . S
H200 C176 0.982 . S
H201 C176 0.979 . S
H202 C176 0.977 . S
H203 C177 0.979 . S
H204 C177 0.980 . S
H205 C177 0.983 . S
H206 C150 0.947 . S
C207 C150 1.392 . S
C207 C151 1.419 . S
C207 H189 0.948 . S
C208 C209 1.391 . S
C208 C212 1.391 . S
C208 H250 0.948 . S
C209 C208 1.391 . S
C209 C210 1.391 . S
C210 C209 1.391 . S
C210 H266 0.947 . S
C210 C267 1.392 . S
C211 C212 1.391 . S
C211 C215 1.397 . S
C211 C267 1.419 . S
C212 C208 1.391 . S
C212 C211 1.391 . S
C212 C213 1.399 . S
C213 C212 1.399 . S
C213 C216 1.396 . S
C213 C225 1.453 . S
C213 C226 1.684 . S
H214 C238 0.948 . S
C215 C211 1.397 . S
C215 C216 1.394 . S
C215 C234 1.723 . S
C216 C213 1.396 . S
C216 C215 1.394 . S
C216 C246 1.723 . S
H217 C240 0.947 . S
H218 C241 0.948 . S
H219 C247 0.982 . S
H220 C248 0.979 . S
H221 C248 0.980 . S
H222 C248 0.983 . S
H223 C247 0.979 . S
H224 C247 0.977 . S
C225 C213 1.453 . S
C225 H254 0.982 . S
C225 H255 0.979 . S
C225 H256 0.977 . S
C226 C213 1.684 . S
C226 H251 0.979 . S
C226 H252 0.980 . S
C226 H253 0.983 . S
C227 C228 1.391 . S
C227 C232 1.391 . S
C227 H257 0.948 . S
C228 C227 1.391 . S
C228 C229 1.391 . S
C229 C228 1.391 . S
C229 C230 1.392 . S
C229 H258 0.947 . S
C230 C229 1.392 . S
C230 C231 1.419 . S
C230 H259 0.948 . S
C231 C230 1.419 . S
C231 C232 1.391 . S
C231 C235 1.397 . S
C232 C227 1.391 . S
C232 C231 1.391 . S
C232 C233 1.399 . S
C233 C232 1.399 . S
C233 C234 1.396 . S
C233 C236 1.453 . S
C233 C237 1.684 . S
C234 C215 1.723 . S
C234 C233 1.396 . S
C234 C235 1.394 . S
C235 C231 1.397 . S
C235 C234 1.394 . S
C235 C245 1.723 . S
C236 C233 1.453 . S
C236 H260 0.982 . S
C236 H261 0.979 . S
C236 H262 0.977 . S
C237 C233 1.684 . S
C237 H263 0.979 . S
C237 H264 0.980 . S
C237 H265 0.983 . S
C238 H214 0.948 . S
C238 C239 1.391 . S
C238 C243 1.391 . S
C239 C238 1.391 . S
C239 C240 1.391 . S
C240 H217 0.947 . S
C240 C239 1.391 . S
C240 C241 1.392 . S
C241 H218 0.948 . S
C241 C240 1.392 . S
C241 C242 1.419 . S
C242 C241 1.419 . S
C242 C243 1.391 . S
C242 C246 1.397 . S
C243 C238 1.391 . S
C243 C242 1.391 . S
C243 C244 1.399 . S
C244 C243 1.399 . S
C244 C245 1.396 . S
C244 C247 1.453 . S
C244 C248 1.684 . S
C245 C235 1.723 . S
C245 C244 1.396 . S
C245 C246 1.394 . S
C246 C216 1.723 . S
C246 C242 1.397 . S
C246 C245 1.394 . S
C247 H219 0.982 . S
C247 H223 0.979 . S
C247 H224 0.977 . S
C247 C244 1.453 . S
C248 H220 0.979 . S
C248 H221 0.980 . S
C248 H222 0.983 . S
C248 C244 1.684 . S
H249 C267 0.948 . S
H250 C208 0.948 . S
H251 C226 0.979 . S
H252 C226 0.980 . S
H253 C226 0.983 . S
H254 C225 0.982 . S
H255 C225 0.979 . S
H256 C225 0.977 . S
H257 C227 0.948 . S
H258 C229 0.947 . S
H259 C230 0.948 . S
H260 C236 0.982 . S
H261 C236 0.979 . S
H262 C236 0.977 . S
H263 C237 0.979 . S
H264 C237 0.980 . S
H265 C237 0.983 . S
H266 C210 0.947 . S
C267 C210 1.392 . S
C267 C211 1.419 . S
C267 H249 0.948 . S
C268 C269 1.391 . S
C268 C272 1.391 . S
C268 H310 0.948 . S
C269 C268 1.391 . S
C269 C270 1.391 . S
C270 C269 1.391 . S
C270 H326 0.947 . S
C270 C327 1.392 . S
C271 C272 1.391 . S
C271 C275 1.397 . S
C271 C327 1.419 . S
C272 C268 1.391 . S
C272 C271 1.391 . S
C272 C273 1.399 . S
C273 C272 1.399 . S
C273 C276 1.396 . S
C273 C285 1.453 . S
C273 C286 1.684 . S
H274 C298 0.948 . S
C275 C271 1.397 . S
C275 C276 1.394 . S
C275 C294 1.723 . S
C276 C273 1.396 . S
C276 C275 1.394 . S
C276 C306 1.723 . S
H277 C300 0.947 . S
H278 C301 0.948 . S
H279 C307 0.982 . S
H280 C308 0.979 . S
H281 C308 0.980 . S
H282 C308 0.983 . S
H283 C307 0.979 . S
H284 C307 0.977 . S
C285 C273 1.453 . S
C285 H314 0.982 . S
C285 H315 0.979 . S
C285 H316 0.977 . S
C286 C273 1.684 . S
C286 H311 0.979 . S
C286 H312 0.980 . S
C286 H313 0.983 . S
C287 C288 1.391 . S
C287 C292 1.391 . S
C287 H317 0.948 . S
C288 C287 1.391 . S
C288 C289 1.391 . S
C289 C288 1.391 . S
C289 C290 1.392 . S
C289 H318 0.947 . S
C290 C289 1.392 . S
C290 C291 1.419 . S
C290 H319 0.948 . S
C291 C290 1.419 . S
C291 C292 1.391 . S
C291 C295 1.397 . S
C292 C287 1.391 . S
C292 C291 1.391 . S
C292 C293 1.399 . S
C293 C292 1.399 . S
C293 C294 1.396 . S
C293 C296 1.453 . S
C293 C297 1.684 . S
C294 C275 1.723 . S
C294 C293 1.396 . S
C294 C295 1.394 . S
C295 C291 1.397 . S
C295 C294 1.394 . S
C295 C305 1.723 . S
C296 C293 1.453 . S
C296 H320 0.982 . S
C296 H321 0.979 . S
C296 H322 0.977 . S
C297 C293 1.684 . S
C297 H323 0.979 . S
C297 H324 0.980 . S
C297 H325 0.983 . S
C298 H274 0.948 . S
C298 C299 1.391 . S
C298 C303 1.391 . S
C299 C298 1.391 . S
C299 C300 1.391 . S
C300 H277 0.947 . S
C300 C299 1.391 . S
C300 C301 1.392 . S
C301 H278 0.948 . S
C301 C300 1.392 . S
C301 C302 1.419 . S
C302 C301 1.419 . S
C302 C303 1.391 . S
C302 C306 1.397 . S
C303 C298 1.391 . S
C303 C302 1.391 . S
C303 C304 1.399 . S
C304 C303 1.399 . S
C304 C305 1.396 . S
C304 C307 1.453 . S
C304 C308 1.684 . S
C305 C295 1.723 . S
C305 C304 1.396 . S
C305 C306 1.394 . S
C306 C276 1.723 . S
C306 C302 1.397 . S
C306 C305 1.394 . S
C307 H279 0.982 . S
C307 H283 0.979 . S
C307 H284 0.977 . S
C307 C304 1.453 . S
C308 H280 0.979 . S
C308 H281 0.980 . S
C308 H282 0.983 . S
C308 C304 1.684 . S
H309 C327 0.948 . S
H310 C268 0.948 . S
H311 C286 0.979 . S
H312 C286 0.980 . S
H313 C286 0.983 . S
H314 C285 0.982 . S
H315 C285 0.979 . S
H316 C285 0.977 . S
H317 C287 0.948 . S
H318 C289 0.947 . S
H319 C290 0.948 . S
H320 C296 0.982 . S
H321 C296 0.979 . S
H322 C296 0.977 . S
H323 C297 0.979 . S
H324 C297 0.980 . S
H325 C297 0.983 . S
H326 C270 0.947 . S
C327 C270 1.392 . S
C327 C271 1.419 . S
C327 H309 0.948 . S
C328 C329 1.391 . S
C328 C332 1.391 . S
C328 H370 0.948 . S
C329 C328 1.391 . S
C329 C330 1.391 . S
C330 C329 1.391 . S
C330 H386 0.947 . S
C330 C387 1.392 . S
C331 C332 1.391 . S
C331 C335 1.397 . S
C331 C387 1.419 . S
C332 C328 1.391 . S
C332 C331 1.391 . S
C332 C333 1.399 . S
C333 C332 1.399 . S
C333 C336 1.396 . S
C333 C345 1.453 . S
C333 C346 1.684 . S
H334 C358 0.948 . S
C335 C331 1.397 . S
C335 C336 1.394 . S
C335 C354 1.723 . S
C336 C333 1.396 . S
C336 C335 1.394 . S
C336 C366 1.723 . S
H337 C360 0.947 . S
H338 C361 0.948 . S
H339 C367 0.982 . S
H340 C368 0.979 . S
H341 C368 0.980 . S
H342 C368 0.983 . S
H343 C367 0.979 . S
H344 C367 0.977 . S
C345 C333 1.453 . S
C345 H374 0.982 . S
C345 H375 0.979 . S
C345 H376 0.977 . S
C346 C333 1.684 . S
C346 H371 0.979 . S
C346 H372 0.980 . S
C346 H373 0.983 . S
C347 C348 1.391 . S
C347 C352 1.391 . S
C347 H377 0.948 . S
C348 C347 1.391 . S
C348 C349 1.391 . S
C349 C348 1.391 . S
C349 C350 1.392 . S
C349 H378 0.947 . S
C350 C349 1.392 . S
C350 C351 1.419 . S
C350 H379 0.948 . S
C351 C350 1.419 . S
C351 C352 1.391 . S
C351 C355 1.397 . S
C352 C347 1.391 . S
C352 C351 1.391 . S
C352 C353 1.399 . S
C353 C352 1.399 . S
C353 C354 1.396 . S
C353 C356 1.453 . S
C353 C357 1.684 . S
C354 C335 1.723 . S
C354 C353 1.396 . S
C354 C355 1.394 . S
C355 C351 1.397 . S
C355 C354 1.394 . S
C355 C365 1.723 . S
C356 C353 1.453 . S
C356 H380 0.982 . S
C356 H381 0.979 . S
C356 H382 0.977 . S
C357 C353 1.684 . S
C357 H383 0.979 . S
C357 H384 0.980 . S
C357 H385 0.983 . S
C358 H334 0.948 . S
C358 C359 1.391 . S
C358 C363 1.391 . S
C359 C358 1.391 . S
C359 C360 1.391 . S
C360 H337 0.947 . S
C360 C359 1.391 . S
C360 C361 1.392 . S
C361 H338 0.948 . S
C361 C360 1.392 . S
C361 C362 1.419 . S
C362 C361 1.419 . S
C362 C363 1.391 . S
C362 C366 1.397 . S
C363 C358 1.391 . S
C363 C362 1.391 . S
C363 C364 1.399 . S
C364 C363 1.399 . S
C364 C365 1.396 . S
C364 C367 1.453 . S
C364 C368 1.684 . S
C365 C355 1.723 . S
C365 C364 1.396 . S
C365 C366 1.394 . S
C366 C336 1.723 . S
C366 C362 1.397 . S
C366 C365 1.394 . S
C367 H339 0.982 . S
C367 H343 0.979 . S
C367 H344 0.977 . S
C367 C364 1.453 . S
C368 H340 0.979 . S
C368 H341 0.980 . S
C368 H342 0.983 . S
C368 C364 1.684 . S
H369 C387 0.948 . S
H370 C328 0.948 . S
H371 C346 0.979 . S
H372 C346 0.980 . S
H373 C346 0.983 . S
H374 C345 0.982 . S
H375 C345 0.979 . S
H376 C345 0.977 . S
H377 C347 0.948 . S
H378 C349 0.947 . S
H379 C350 0.948 . S
H380 C356 0.982 . S
H381 C356 0.979 . S
H382 C356 0.977 . S
H383 C357 0.979 . S
H384 C357 0.980 . S
H385 C357 0.983 . S
H386 C330 0.947 . S
C387 C330 1.392 . S
C387 C331 1.419 . S
C387 H369 0.948 . S
C388 C389 1.391 . S
C388 C392 1.391 . S
C388 H430 0.948 . S
C389 C388 1.391 . S
C389 C390 1.391 . S
C390 C389 1.391 . S
C390 H446 0.947 . S
C390 C447 1.392 . S
C391 C392 1.391 . S
C391 C395 1.397 . S
C391 C447 1.419 . S
C392 C388 1.391 . S
C392 C391 1.391 . S
C392 C393 1.399 . S
C393 C392 1.399 . S
C393 C396 1.396 . S
C393 C405 1.453 . S
C393 C406 1.684 . S
H394 C418 0.948 . S
C395 C391 1.397 . S
C395 C396 1.394 . S
C395 C414 1.723 . S
C396 C393 1.396 . S
C396 C395 1.394 . S
C396 C426 1.723 . S
H397 C420 0.947 . S
H398 C421 0.948 . S
H399 C427 0.982 . S
H400 C428 0.979 . S
H401 C428 0.980 . S
H402 C428 0.983 . S
H403 C427 0.979 . S
H404 C427 0.977 . S
C405 C393 1.453 . S
C405 H434 0.982 . S
C405 H435 0.979 . S
C405 H436 0.977 . S
C406 C393 1.684 . S
C406 H431 0.979 . S
C406 H432 0.980 . S
C406 H433 0.983 . S
C407 C408 1.391 . S
C407 C412 1.391 . S
C407 H437 0.948 . S
C408 C407 1.391 . S
C408 C409 1.391 . S
C409 C408 1.391 . S
C409 C410 1.392 . S
C409 H438 0.947 . S
C410 C409 1.392 . S
C410 C411 1.419 . S
C410 H439 0.948 . S
C411 C410 1.419 . S
C411 C412 1.391 . S
C411 C415 1.397 . S
C412 C407 1.391 . S
C412 C411 1.391 . S
C412 C413 1.399 . S
C413 C412 1.399 . S
C413 C414 1.396 . S
C413 C416 1.453 . S
C413 C417 1.684 . S
C414 C395 1.723 . S
C414 C413 1.396 . S
C414 C415 1.394 . S
C415 C411 1.397 . S
C415 C414 1.394 . S
C415 C425 1.723 . S
C416 C413 1.453 . S
C416 H440 0.982 . S
C416 H441 0.979 . S
C416 H442 0.977 . S
C417 C413 1.684 . S
C417 H443 0.979 . S
C417 H444 0.980 . S
C417 H445 0.983 . S
C418 H394 0.948 . S
C418 C419 1.391 . S
C418 C423 1.391 . S
C419 C418 1.391 . S
C419 C420 1.391 . S
C420 H397 0.947 . S
C420 C419 1.391 . S
C420 C421 1.392 . S
C421 H398 0.948 . S
C421 C420 1.392 . S
C421 C422 1.419 . S
C422 C421 1.419 . S
C422 C423 1.391 . S
C422 C426 1.397 . S
C423 C418 1.391 . S
C423 C422 1.391 . S
C423 C424 1.399 . S
C424 C423 1.399 . S
C424 C425 1.396 . S
C424 C427 1.453 . S
C424 C428 1.684 . S
C425 C415 1.723 . S
C425 C424 1.396 . S
C425 C426 1.394 . S
C426 C396 1.723 . S
C426 C422 1.397 . S
C426 C425 1.394 . S
C427 H399 0.982 . S
C427 H403 0.979 . S
C427 H404 0.977 . S
C427 C424 1.453 . S
C428 H400 0.979 . S
C428 H401 0.980 . S
C428 H402 0.983 . S
C428 C424 1.684 . S
H429 C447 0.948 . S
H430 C388 0.948 . S
H431 C406 0.979 . S
H432 C406 0.980 . S
H433 C406 0.983 . S
H434 C405 0.982 . S
H435 C405 0.979 . S
H436 C405 0.977 . S
H437 C407 0.948 . S
H438 C409 0.947 . S
H439 C410 0.948 . S
H440 C416 0.982 . S
H441 C416 0.979 . S
H442 C416 0.977 . S
H443 C417 0.979 . S
H444 C417 0.980 . S
H445 C417 0.983 . S
H446 C390 0.947 . S
C447 C390 1.392 . S
C447 C391 1.419 . S
C447 H429 0.948 . S
C448 C449 1.391 . S
C448 C452 1.391 . S
C448 H490 0.948 . S
C449 C448 1.391 . S
C449 C450 1.391 . S
C450 C449 1.391 . S
C450 H506 0.947 . S
C450 C507 1.392 . S
C451 C452 1.391 . S
C451 C455 1.397 . S
C451 C507 1.419 . S
C452 C448 1.391 . S
C452 C451 1.391 . S
C452 C453 1.399 . S
C453 C452 1.399 . S
C453 C456 1.396 . S
C453 C465 1.453 . S
C453 C466 1.684 . S
H454 C478 0.948 . S
C455 C451 1.397 . S
C455 C456 1.394 . S
C455 C474 1.723 . S
C456 C453 1.396 . S
C456 C455 1.394 . S
C456 C486 1.723 . S
H457 C480 0.947 . S
H458 C481 0.948 . S
H459 C487 0.982 . S
H460 C488 0.979 . S
H461 C488 0.980 . S
H462 C488 0.983 . S
H463 C487 0.979 . S
H464 C487 0.977 . S
C465 C453 1.453 . S
C465 H494 0.982 . S
C465 H495 0.979 . S
C465 H496 0.977 . S
C466 C453 1.684 . S
C466 H491 0.979 . S
C466 H492 0.980 . S
C466 H493 0.983 . S
C467 C468 1.391 . S
C467 C472 1.391 . S
C467 H497 0.948 . S
C468 C467 1.391 . S
C468 C469 1.391 . S
C469 C468 1.391 . S
C469 C470 1.392 . S
C469 H498 0.947 . S
C470 C469 1.392 . S
C470 C471 1.419 . S
C470 H499 0.948 . S
C471 C470 1.419 . S
C471 C472 1.391 . S
C471 C475 1.397 . S
C472 C467 1.391 . S
C472 C471 1.391 . S
C472 C473 1.399 . S
C473 C472 1.399 . S
C473 C474 1.396 . S
C473 C476 1.453 . S
C473 C477 1.684 . S
C474 C455 1.723 . S
C474 C473 1.396 . S
C474 C475 1.394 . S
C475 C471 1.397 . S
C475 C474 1.394 . S
C475 C485 1.723 . S
C476 C473 1.453 . S
C476 H500 0.982 . S
C476 H501 0.979 . S
C476 H502 0.977 . S
C477 C473 1.684 . S
C477 H503 0.979 . S
C477 H504 0.980 . S
C477 H505 0.983 . S
C478 H454 0.948 . S
C478 C479 1.391 . S
C478 C483 1.391 . S
C479 C478 1.391 . S
C479 C480 1.391 . S
C480 H457 0.947 . S
C480 C479 1.391 . S
C480 C481 1.392 . S
C481 H458 0.948 . S
C481 C480 1.392 . S
C481 C482 1.419 . S
C482 C481 1.419 . S
C482 C483 1.391 . S
C482 C486 1.397 . S
C483 C478 1.391 . S
C483 C482 1.391 . S
C483 C484 1.399 . S
C484 C483 1.399 . S
C484 C485 1.396 . S
C484 C487 1.453 . S
C484 C488 1.684 . S
C485 C475 1.723 . S
C485 C484 1.396 . S
C485 C486 1.394 . S
C486 C456 1.723 . S
C486 C482 1.397 . S
C486 C485 1.394 . S
C487 H459 0.982 . S
C487 H463 0.979 . S
C487 H464 0.977 . S
C487 C484 1.453 . S
C488 H460 0.979 . S
C488 H461 0.980 . S
C488 H462 0.983 . S
C488 C484 1.684 . S
H489 C507 0.948 . S
H490 C448 0.948 . S
H491 C466 0.979 . S
H492 C466 0.980 . S
H493 C466 0.983 . S
H494 C465 0.982 . S
H495 C465 0.979 . S
H496 C465 0.977 . S
H497 C467 0.948 . S
H498 C469 0.947 . S
H499 C470 0.948 . S
H500 C476 0.982 . S
H501 C476 0.979 . S
H502 C476 0.977 . S
H503 C477 0.979 . S
H504 C477 0.980 . S
H505 C477 0.983 . S
H506 C450 0.947 . S
C507 C450 1.392 . S
C507 C451 1.419 . S
C507 H489 0.948 . S
C508 C509 1.391 . S
C508 C512 1.391 . S
C508 H550 0.948 . S
C509 C508 1.391 . S
C509 C510 1.391 . S
C510 C509 1.391 . S
C510 H566 0.947 . S
C510 C567 1.392 . S
C511 C512 1.391 . S
C511 C515 1.397 . S
C511 C567 1.419 . S
C512 C508 1.391 . S
C512 C511 1.391 . S
C512 C513 1.399 . S
C513 C512 1.399 . S
C513 C516 1.396 . S
C513 C525 1.453 . S
C513 C526 1.684 . S
H514 C538 0.948 . S
C515 C511 1.397 . S
C515 C516 1.394 . S
C515 C534 1.723 . S
C516 C513 1.396 . S
C516 C515 1.394 . S
C516 C546 1.723 . S
H517 C540 0.947 . S
H518 C541 0.948 . S
H519 C547 0.982 . S
H520 C548 0.979 . S
H521 C548 0.980 . S
H522 C548 0.983 . S
H523 C547 0.979 . S
H524 C547 0.977 . S
C525 C513 1.453 . S
C525 H554 0.982 . S
C525 H555 0.979 . S
C525 H556 0.977 . S
C526 C513 1.684 . S
C526 H551 0.979 . S
C526 H552 0.980 . S
C526 H553 0.983 . S
C527 C528 1.391 . S
C527 C532 1.391 . S
C527 H557 0.948 . S
C528 C527 1.391 . S
C528 C529 1.391 . S
C529 C528 1.391 . S
C529 C530 1.392 . S
C529 H558 0.947 . S
C530 C529 1.392 . S
C530 C531 1.419 . S
C530 H559 0.948 . S
C531 C530 1.419 . S
C531 C532 1.391 . S
C531 C535 1.397 . S
C532 C527 1.391 . S
C532 C531 1.391 . S
C532 C533 1.399 . S
C533 C532 1.399 . S
C533 C534 1.396 . S
C533 C536 1.453 . S
C533 C537 1.684 . S
C534 C515 1.723 . S
C534 C533 1.396 . S
C534 C535 1.394 . S
C535 C531 1.397 . S
C535 C534 1.394 . S
C535 C545 1.723 . S
C536 C533 1.453 . S
C536 H560 0.982 . S
C536 H561 0.979 . S
C536 H562 0.977 . S
C537 C533 1.684 . S
C537 H563 0.979 . S
C537 H564 0.980 . S
C537 H565 0.983 . S
C538 H514 0.948 . S
C538 C539 1.391 . S
C538 C543 1.391 . S
C539 C538 1.391 . S
C539 C540 1.391 . S
C540 H517 0.947 . S
C540 C539 1.391 . S
C540 C541 1.392 . S
C541 H518 0.948 . S
C541 C540 1.392 . S
C541 C542 1.419 . S
C542 C541 1.419 . S
C542 C543 1.391 . S
C542 C546 1.397 . S
C543 C538 1.391 . S
C543 C542 1.391 . S
C543 C544 1.399 . S
C544 C543 1.399 . S
C544 C545 1.396 . S
C544 C547 1.453 . S
C544 C548 1.684 . S
C545 C535 1.723 . S
C545 C544 1.396 . S
C545 C546 1.394 . S
C546 C516 1.723 . S
C546 C542 1.397 . S
C546 C545 1.394 . S
C547 H519 0.982 . S
C547 H523 0.979 . S
C547 H524 0.977 . S
C547 C544 1.453 . S
C548 H520 0.979 . S
C548 H521 0.980 . S
C548 H522 0.983 . S
C548 C544 1.684 . S
H549 C567 0.948 . S
H550 C508 0.948 . S
H551 C526 0.979 . S
H552 C526 0.980 . S
H553 C526 0.983 . S
H554 C525 0.982 . S
H555 C525 0.979 . S
H556 C525 0.977 . S
H557 C527 0.948 . S
H558 C529 0.947 . S
H559 C530 0.948 . S
H560 C536 0.982 . S
H561 C536 0.979 . S
H562 C536 0.977 . S
H563 C537 0.979 . S
H564 C537 0.980 . S
H565 C537 0.983 . S
H566 C510 0.947 . S
C567 C510 1.392 . S
C567 C511 1.419 . S
C567 H549 0.948 . S
H568 C580 0.930 . S
H569 C582 0.930 . S
H570 C583 0.930 . S
H571 C587 0.959 1_545 S
H572 C587 0.959 1_545 S
H573 C587 0.961 . S
H574 C588 0.960 . S
H575 C588 0.961 . S
H576 C588 0.959 . S
H577 C591 0.929 . S
H578 C592 0.931 . S
H579 C594 0.930 . S
C580 H568 0.930 . S
C580 C581 1.399 . S
C580 C585 1.399 . S
C581 C580 1.399 . S
C581 C582 1.376 . S
C582 H569 0.930 . S
C582 C581 1.376 . S
C582 C583 1.388 . S
C583 H570 0.930 . S
C583 C582 1.388 . S
C583 C584 1.390 . S
C584 C583 1.390 . S
C584 C585 1.394 . S
C584 C590 1.465 . S
C585 C580 1.399 . S
C585 C584 1.394 . S
C585 C586 1.516 . S
C586 C585 1.516 . S
C586 C587 1.502 . S
C586 C588 1.561 . S
C586 C589 1.526 . S
C587 H571 0.959 1_565 S
C587 H572 0.959 1_565 S
C587 H573 0.961 . S
C587 C586 1.502 . S
C588 H574 0.960 . S
C588 H575 0.961 . S
C588 H576 0.959 . S
C588 C586 1.561 . S
C589 C586 1.526 . S
C589 C590 1.396 . S
C589 C594 1.390 1_565 S
C590 C584 1.465 . S
C590 C589 1.396 . S
C590 C591 1.399 . S
C591 H577 0.929 . S
C591 C590 1.399 . S
C591 C592 1.385 . S
C592 H578 0.931 . S
C592 C591 1.385 . S
C592 C593 1.389 1_565 S
C593 C592 1.389 1_545 S
C593 C594 1.387 . S
C594 H579 0.930 . S
C594 C589 1.390 1_545 S
C594 C593 1.387 . S
H595 C607 0.930 . S
H596 C609 0.930 . S
H597 C610 0.930 . S
H598 C614 0.959 . S
H599 C614 0.959 . S
H600 C614 0.961 . S
H601 C615 0.960 . S
H602 C615 0.961 . S
H603 C615 0.959 . S
H604 C618 0.929 . S
H605 C619 0.931 . S
H606 C621 0.930 . S
C607 H595 0.930 . S
C607 C608 1.399 . S
C607 C612 1.399 . S
C608 C607 1.399 . S
C608 C609 1.376 . S
C609 H596 0.930 . S
C609 C608 1.376 . S
C609 C610 1.388 . S
C610 H597 0.930 . S
C610 C609 1.388 . S
C610 C611 1.390 . S
C611 C610 1.390 . S
C611 C612 1.394 . S
C611 C617 1.465 . S
C612 C607 1.399 . S
C612 C611 1.394 . S
C612 C613 1.516 . S
C613 C612 1.516 . S
C613 C614 1.502 . S
C613 C615 1.561 . S
C613 C616 1.526 . S
C614 H598 0.959 . S
C614 H599 0.959 . S
C614 H600 0.961 . S
C614 C613 1.502 . S
C615 H601 0.960 . S
C615 H602 0.961 . S
C615 H603 0.959 . S
C615 C613 1.561 . S
C616 C613 1.526 . S
C616 C617 1.396 . S
C616 C621 1.390 . S
C617 C611 1.465 . S
C617 C616 1.396 . S
C617 C618 1.399 . S
C618 H604 0.929 . S
C618 C617 1.399 . S
C618 C619 1.385 . S
C619 H605 0.931 . S
C619 C618 1.385 . S
C619 C620 1.389 . S
C620 C619 1.389 . S
C620 C621 1.387 . S
C621 H606 0.930 . S
C621 C616 1.390 . S
C621 C620 1.387 . S
H622 C634 0.930 . S
H623 C636 0.930 . S
H624 C637 0.930 . S
H625 C641 0.959 . S
H626 C641 0.959 . S
H627 C641 0.961 . S
H628 C642 0.960 . S
H629 C642 0.961 . S
H630 C642 0.959 . S
H631 C645 0.929 . S
H632 C646 0.931 . S
H633 C648 0.930 . S
C634 H622 0.930 . S
C634 C635 1.399 . S
C634 C639 1.399 . S
C635 C634 1.399 . S
C635 C636 1.376 . S
C636 H623 0.930 . S
C636 C635 1.376 . S
C636 C637 1.388 . S
C637 H624 0.930 . S
C637 C636 1.388 . S
C637 C638 1.390 . S
C638 C637 1.390 . S
C638 C639 1.394 . S
C638 C644 1.465 . S
C639 C634 1.399 . S
C639 C638 1.394 . S
C639 C640 1.516 . S
C640 C639 1.516 . S
C640 C641 1.502 . S
C640 C642 1.561 . S
C640 C643 1.526 . S
C641 H625 0.959 . S
C641 H626 0.959 . S
C641 H627 0.961 . S
C641 C640 1.502 . S
C642 H628 0.960 . S
C642 H629 0.961 . S
C642 H630 0.959 . S
C642 C640 1.561 . S
C643 C640 1.526 . S
C643 C644 1.396 . S
C643 C648 1.390 . S
C644 C638 1.465 . S
C644 C643 1.396 . S
C644 C645 1.399 . S
C645 H631 0.929 . S
C645 C644 1.399 . S
C645 C646 1.385 1_545 S
C646 H632 0.931 . S
C646 C645 1.385 1_565 S
C646 C647 1.389 . S
C647 C646 1.389 . S
C647 C648 1.387 1_565 S
C648 H633 0.930 . S
C648 C643 1.390 . S
C648 C647 1.387 1_545 S
H649 C661 0.930 . S
H650 C663 0.930 . S
H651 C664 0.930 . S
H652 C668 0.959 . S
H653 C668 0.959 . S
H654 C668 0.961 . S
H655 C669 0.960 . S
H656 C669 0.961 . S
H657 C669 0.959 . S
H658 C672 0.929 . S
H659 C673 0.931 . S
H660 C675 0.930 . S
C661 H649 0.930 . S
C661 C662 1.399 . S
C661 C666 1.399 . S
C662 C661 1.399 . S
C662 C663 1.376 . S
C663 H650 0.930 . S
C663 C662 1.376 . S
C663 C664 1.388 . S
C664 H651 0.930 . S
C664 C663 1.388 . S
C664 C665 1.390 . S
C665 C664 1.390 . S
C665 C666 1.394 . S
C665 C671 1.465 . S
C666 C661 1.399 . S
C666 C665 1.394 . S
C666 C667 1.516 . S
C667 C666 1.516 . S
C667 C668 1.502 . S
C667 C669 1.561 . S
C667 C670 1.526 . S
C668 H652 0.959 . S
C668 H653 0.959 . S
C668 H654 0.961 . S
C668 C667 1.502 . S
C669 H655 0.960 . S
C669 H656 0.961 . S
C669 H657 0.959 . S
C669 C667 1.561 . S
C670 C667 1.526 . S
C670 C671 1.396 . S
C670 C675 1.390 . S
C671 C665 1.465 . S
C671 C670 1.396 . S
C671 C672 1.399 . S
C672 H658 0.929 . S
C672 C671 1.399 . S
C672 C673 1.385 . S
C673 H659 0.931 . S
C673 C672 1.385 . S
C673 C674 1.389 . S
C674 C673 1.389 . S
C674 C675 1.387 . S
C675 H660 0.930 . S
C675 C670 1.390 . S
C675 C674 1.387 . S
H676 C688 0.930 . S
H677 C690 0.930 . S
H678 C691 0.930 . S
H679 C695 0.959 . S
H680 C695 0.959 . S
H681 C695 0.961 . S
H682 C696 0.960 . S
H683 C696 0.961 . S
H684 C696 0.959 . S
H685 C699 0.929 . S
H686 C700 0.931 . S
H687 C702 0.930 . S
C688 H676 0.930 . S
C688 C689 1.399 . S
C688 C693 1.399 . S
C689 C688 1.399 . S
C689 C690 1.376 . S
C690 H677 0.930 . S
C690 C689 1.376 . S
C690 C691 1.388 . S
C691 H678 0.930 . S
C691 C690 1.388 . S
C691 C692 1.390 . S
C692 C691 1.390 . S
C692 C693 1.394 . S
C692 C698 1.465 . S
C693 C688 1.399 . S
C693 C692 1.394 . S
C693 C694 1.516 . S
C694 C693 1.516 . S
C694 C695 1.502 . S
C694 C696 1.561 . S
C694 C697 1.526 . S
C695 H679 0.959 . S
C695 H680 0.959 . S
C695 H681 0.961 . S
C695 C694 1.502 . S
C696 H682 0.960 . S
C696 H683 0.961 . S
C696 H684 0.959 . S
C696 C694 1.561 . S
C697 C694 1.526 . S
C697 C698 1.396 . S
C697 C702 1.390 . S
C698 C692 1.465 . S
C698 C697 1.396 . S
C698 C699 1.399 . S
C699 H685 0.929 . S
C699 C698 1.399 . S
C699 C700 1.385 . S
C700 H686 0.931 . S
C700 C699 1.385 . S
C700 C701 1.389 . S
C701 C700 1.389 . S
C701 C702 1.387 . S
C702 H687 0.930 . S
C702 C697 1.390 . S
C702 C701 1.387 . S
H703 C715 0.930 . S
H704 C717 0.930 . S
H705 C718 0.930 . S
H706 C722 0.959 . S
H707 C722 0.959 . S
H708 C722 0.961 . S
H709 C723 0.960 . S
H710 C723 0.961 . S
H711 C723 0.959 . S
H712 C726 0.929 . S
H713 C727 0.931 . S
H714 C729 0.930 . S
C715 H703 0.930 . S
C715 C716 1.399 . S
C715 C720 1.399 . S
C716 C715 1.399 . S
C716 C717 1.376 . S
C717 H704 0.930 . S
C717 C716 1.376 . S
C717 C718 1.388 . S
C718 H705 0.930 . S
C718 C717 1.388 . S
C718 C719 1.390 . S
C719 C718 1.390 . S
C719 C720 1.394 . S
C719 C725 1.465 . S
C720 C715 1.399 . S
C720 C719 1.394 . S
C720 C721 1.516 . S
C721 C720 1.516 . S
C721 C722 1.502 . S
C721 C723 1.561 . S
C721 C724 1.526 . S
C722 H706 0.959 . S
C722 H707 0.959 . S
C722 H708 0.961 . S
C722 C721 1.502 . S
C723 H709 0.960 . S
C723 H710 0.961 . S
C723 H711 0.959 . S
C723 C721 1.561 . S
C724 C721 1.526 . S
C724 C725 1.396 . S
C724 C729 1.390 1_655 S
C725 C719 1.465 . S
C725 C724 1.396 . S
C725 C726 1.399 . S
C726 H712 0.929 . S
C726 C725 1.399 . S
C726 C727 1.385 1_655 S
C727 H713 0.931 . S
C727 C726 1.385 1_455 S
C727 C728 1.389 . S
C728 C727 1.389 . S
C728 C729 1.387 . S
C729 H714 0.930 . S
C729 C724 1.390 1_455 S
C729 C728 1.387 . S
H730 C742 0.930 . S
H731 C744 0.930 . S
H732 C745 0.930 . S
H733 C749 0.959 . S
H734 C749 0.959 . S
H735 C749 0.961 . S
H736 C750 0.960 . S
H737 C750 0.961 . S
H738 C750 0.959 . S
H739 C753 0.929 . S
H740 C754 0.931 . S
H741 C756 0.930 . S
C742 H730 0.930 . S
C742 C743 1.399 . S
C742 C747 1.399 . S
C743 C742 1.399 . S
C743 C744 1.376 . S
C744 H731 0.930 . S
C744 C743 1.376 . S
C744 C745 1.388 . S
C745 H732 0.930 . S
C745 C744 1.388 . S
C745 C746 1.390 . S
C746 C745 1.390 . S
C746 C747 1.394 . S
C746 C752 1.465 . S
C747 C742 1.399 . S
C747 C746 1.394 . S
C747 C748 1.516 . S
C748 C747 1.516 . S
C748 C749 1.502 . S
C748 C750 1.561 . S
C748 C751 1.526 . S
C749 H733 0.959 . S
C749 H734 0.959 . S
C749 H735 0.961 . S
C749 C748 1.502 . S
C750 H736 0.960 . S
C750 H737 0.961 . S
C750 H738 0.959 . S
C750 C748 1.561 . S
C751 C748 1.526 . S
C751 C752 1.396 . S
C751 C756 1.390 . S
C752 C746 1.465 . S
C752 C751 1.396 . S
C752 C753 1.399 . S
C753 H739 0.929 . S
C753 C752 1.399 . S
C753 C754 1.385 . S
C754 H740 0.931 . S
C754 C753 1.385 . S
C754 C755 1.389 . S
C755 C754 1.389 . S
C755 C756 1.387 . S
C756 H741 0.930 . S
C756 C751 1.390 . S
C756 C755 1.387 . S
H757 C769 0.930 . S
H758 C771 0.930 . S
H759 C772 0.930 . S
H760 C776 0.959 . S
H761 C776 0.959 . S
H762 C776 0.961 . S
H763 C777 0.960 . S
H764 C777 0.961 . S
H765 C777 0.959 . S
H766 C780 0.930 . S
H767 C781 0.931 . S
H768 C783 0.930 . S
C769 H757 0.930 . S
C769 C770 1.399 . S
C769 C774 1.399 . S
C770 C769 1.399 . S
C770 C771 1.376 . S
C771 H758 0.930 . S
C771 C770 1.376 . S
C771 C772 1.388 . S
C772 H759 0.930 . S
C772 C771 1.388 . S
C772 C773 1.390 . S
C773 C772 1.390 . S
C773 C774 1.394 . S
C773 C779 1.465 . S
C774 C769 1.399 . S
C774 C773 1.394 . S
C774 C775 1.516 . S
C775 C774 1.516 . S
C775 C776 1.502 . S
C775 C777 1.561 . S
C775 C778 1.526 . S
C776 H760 0.959 . S
C776 H761 0.959 . S
C776 H762 0.961 . S
C776 C775 1.502 . S
C777 H763 0.960 . S
C777 H764 0.961 . S
C777 H765 0.959 . S
C777 C775 1.561 . S
C778 C775 1.526 . S
C778 C779 1.396 . S
C778 C783 1.390 . S
C779 C773 1.465 . S
C779 C778 1.396 . S
C779 C780 1.399 . S
C780 H766 0.930 . S
C780 C779 1.399 . S
C780 C781 1.385 1_455 S
C781 H767 0.931 . S
C781 C780 1.385 1_655 S
C781 C782 1.389 . S
C782 C781 1.389 . S
C782 C783 1.387 1_655 S
C783 H768 0.930 . S
C783 C778 1.390 . S
C783 C782 1.387 1_455 S
H784 C796 0.930 . S
H785 C798 0.930 . S
H786 C799 0.930 . S
H787 C803 0.959 . S
H788 C803 0.959 . S
H789 C803 0.961 . S
H790 C804 0.960 . S
H791 C804 0.961 . S
H792 C804 0.959 . S
H793 C807 0.929 . S
H794 C808 0.931 . S
H795 C810 0.930 . S
C796 H784 0.930 . S
C796 C797 1.399 . S
C796 C801 1.399 . S
C797 C796 1.399 . S
C797 C798 1.376 . S
C798 H785 0.930 . S
C798 C797 1.376 . S
C798 C799 1.388 . S
C799 H786 0.930 . S
C799 C798 1.388 . S
C799 C800 1.390 . S
C800 C799 1.390 . S
C800 C801 1.394 . S
C800 C806 1.465 . S
C801 C796 1.399 . S
C801 C800 1.394 . S
C801 C802 1.516 . S
C802 C801 1.516 . S
C802 C803 1.502 . S
C802 C804 1.561 . S
C802 C805 1.526 . S
C803 H787 0.959 . S
C803 H788 0.959 . S
C803 H789 0.961 . S
C803 C802 1.502 . S
C804 H790 0.960 . S
C804 H791 0.961 . S
C804 H792 0.959 . S
C804 C802 1.561 . S
C805 C802 1.526 . S
C805 C806 1.396 . S
C805 C810 1.390 . S
C806 C800 1.465 . S
C806 C805 1.396 . S
C806 C807 1.399 1_545 S
C807 H793 0.929 . S
C807 C806 1.399 1_565 S
C807 C808 1.385 . S
C808 H794 0.931 . S
C808 C807 1.385 . S
C808 C809 1.389 . S
C809 C808 1.389 . S
C809 C810 1.387 1_565 S
C810 H795 0.930 . S
C810 C805 1.390 . S
C810 C809 1.387 1_545 S
H811 C823 0.930 . S
H812 C825 0.930 . S
H813 C826 0.930 . S
H814 C830 0.959 . S
H815 C830 0.959 . S
H816 C830 0.961 . S
H817 C831 0.960 . S
H818 C831 0.961 . S
H819 C831 0.959 . S
H820 C834 0.929 . S
H821 C835 0.931 . S
H822 C837 0.930 . S
C823 H811 0.930 . S
C823 C824 1.399 . S
C823 C828 1.399 . S
C824 C823 1.399 . S
C824 C825 1.376 . S
C825 H812 0.930 . S
C825 C824 1.376 . S
C825 C826 1.388 . S
C826 H813 0.930 . S
C826 C825 1.388 . S
C826 C827 1.390 . S
C827 C826 1.390 . S
C827 C828 1.394 . S
C827 C833 1.465 . S
C828 C823 1.399 . S
C828 C827 1.394 . S
C828 C829 1.516 . S
C829 C828 1.516 . S
C829 C830 1.502 . S
C829 C831 1.561 . S
C829 C832 1.526 . S
C830 H814 0.959 . S
C830 H815 0.959 . S
C830 H816 0.961 . S
C830 C829 1.502 . S
C831 H817 0.960 . S
C831 H818 0.961 . S
C831 H819 0.959 . S
C831 C829 1.561 . S
C832 C829 1.526 . S
C832 C833 1.396 . S
C832 C837 1.390 . S
C833 C827 1.465 . S
C833 C832 1.396 . S
C833 C834 1.399 . S
C834 H820 0.929 . S
C834 C833 1.399 . S
C834 C835 1.385 . S
C835 H821 0.931 . S
C835 C834 1.385 . S
C835 C836 1.389 . S
C836 C835 1.389 . S
C836 C837 1.387 . S
C837 H822 0.930 . S
C837 C832 1.390 . S
C837 C836 1.387 . S
H838 C850 0.930 . S
H839 C852 0.930 . S
H840 C853 0.930 . S
H841 C857 0.959 . S
H842 C857 0.959 . S
H843 C857 0.961 . S
H844 C858 0.960 . S
H845 C858 0.961 . S
H846 C858 0.959 . S
H847 C861 0.929 . S
H848 C862 0.931 . S
H849 C864 0.930 . S
C850 H838 0.930 . S
C850 C851 1.399 . S
C850 C855 1.399 . S
C851 C850 1.399 . S
C851 C852 1.376 . S
C852 H839 0.930 . S
C852 C851 1.376 . S
C852 C853 1.388 . S
C853 H840 0.930 . S
C853 C852 1.388 . S
C853 C854 1.390 . S
C854 C853 1.390 . S
C854 C855 1.394 . S
C854 C860 1.465 . S
C855 C850 1.399 . S
C855 C854 1.394 . S
C855 C856 1.516 . S
C856 C855 1.516 . S
C856 C857 1.502 . S
C856 C858 1.561 . S
C856 C859 1.526 . S
C857 H841 0.959 . S
C857 H842 0.959 . S
C857 H843 0.961 . S
C857 C856 1.502 . S
C858 H844 0.960 . S
C858 H845 0.961 . S
C858 H846 0.959 . S
C858 C856 1.561 . S
C859 C856 1.526 . S
C859 C860 1.396 . S
C859 C864 1.390 1_565 S
C860 C854 1.465 . S
C860 C859 1.396 . S
C860 C861 1.399 . S
C861 H847 0.929 . S
C861 C860 1.399 . S
C861 C862 1.385 1_565 S
C862 H848 0.931 . S
C862 C861 1.385 1_545 S
C862 C863 1.389 . S
C863 C862 1.389 . S
C863 C864 1.387 . S
C864 H849 0.930 . S
C864 C859 1.390 1_545 S
C864 C863 1.387 . S
H865 C877 0.930 . S
H866 C879 0.930 . S
H867 C880 0.930 . S
H868 C884 0.959 . S
H869 C884 0.959 . S
H870 C884 0.961 . S
H871 C885 0.960 . S
H872 C885 0.961 . S
H873 C885 0.959 . S
H874 C888 0.929 . S
H875 C889 0.931 . S
H876 C891 0.930 . S
C877 H865 0.930 . S
C877 C878 1.399 . S
C877 C882 1.399 . S
C878 C877 1.399 . S
C878 C879 1.376 . S
C879 H866 0.930 . S
C879 C878 1.376 . S
C879 C880 1.388 . S
C880 H867 0.930 . S
C880 C879 1.388 . S
C880 C881 1.390 . S
C881 C880 1.390 . S
C881 C882 1.394 . S
C881 C887 1.465 . S
C882 C877 1.399 . S
C882 C881 1.394 . S
C882 C883 1.516 . S
C883 C882 1.516 . S
C883 C884 1.502 . S
C883 C885 1.561 . S
C883 C886 1.526 . S
C884 H868 0.959 . S
C884 H869 0.959 . S
C884 H870 0.961 . S
C884 C883 1.502 . S
C885 H871 0.960 . S
C885 H872 0.961 . S
C885 H873 0.959 . S
C885 C883 1.561 . S
C886 C883 1.526 . S
C886 C887 1.396 . S
C886 C891 1.390 . S
C887 C881 1.465 . S
C887 C886 1.396 . S
C887 C888 1.399 . S
C888 H874 0.929 . S
C888 C887 1.399 . S
C888 C889 1.385 . S
C889 H875 0.931 . S
C889 C888 1.385 . S
C889 C890 1.389 . S
C890 C889 1.389 . S
C890 C891 1.387 . S
C891 H876 0.930 . S
C891 C886 1.390 . S
C891 C890 1.387 . S
H892 C904 0.930 . S
H893 C906 0.930 . S
H894 C907 0.930 . S
H895 C911 0.959 . S
H896 C911 0.959 . S
H897 C911 0.961 . S
H898 C912 0.960 . S
H899 C912 0.961 . S
H900 C912 0.959 . S
H901 C915 0.929 . S
H902 C916 0.931 . S
H903 C918 0.930 . S
C904 H892 0.930 . S
C904 C905 1.399 . S
C904 C909 1.399 . S
C905 C904 1.399 . S
C905 C906 1.376 . S
C906 H893 0.930 . S
C906 C905 1.376 . S
C906 C907 1.388 . S
C907 H894 0.930 . S
C907 C906 1.388 . S
C907 C908 1.390 . S
C908 C907 1.390 . S
C908 C909 1.394 . S
C908 C914 1.465 . S
C909 C904 1.399 . S
C909 C908 1.394 . S
C909 C910 1.516 . S
C910 C909 1.516 . S
C910 C911 1.502 . S
C910 C912 1.561 . S
C910 C913 1.526 . S
C911 H895 0.959 . S
C911 H896 0.959 . S
C911 H897 0.961 . S
C911 C910 1.502 . S
C912 H898 0.960 . S
C912 H899 0.961 . S
C912 H900 0.959 . S
C912 C910 1.561 . S
C913 C910 1.526 . S
C913 C914 1.396 . S
C913 C918 1.390 . S
C914 C908 1.465 . S
C914 C913 1.396 . S
C914 C915 1.399 . S
C915 H901 0.929 . S
C915 C914 1.399 . S
C915 C916 1.385 . S
C916 H902 0.931 . S
C916 C915 1.385 . S
C916 C917 1.389 . S
C917 C916 1.389 . S
C917 C918 1.387 . S
C918 H903 0.930 . S
C918 C913 1.390 . S
C918 C917 1.387 . S
H919 C931 0.930 . S
H920 C933 0.930 . S
H921 C934 0.930 . S
H922 C938 0.959 . S
H923 C938 0.959 . S
H924 C938 0.961 . S
H925 C939 0.960 . S
H926 C939 0.961 . S
H927 C939 0.959 . S
H928 C942 0.929 . S
H929 C943 0.931 . S
H930 C945 0.930 . S
C931 H919 0.930 . S
C931 C932 1.399 . S
C931 C936 1.399 . S
C932 C931 1.399 . S
C932 C933 1.376 . S
C933 H920 0.930 . S
C933 C932 1.376 . S
C933 C934 1.388 . S
C934 H921 0.930 . S
C934 C933 1.388 . S
C934 C935 1.390 . S
C935 C934 1.390 . S
C935 C936 1.394 . S
C935 C941 1.465 . S
C936 C931 1.399 . S
C936 C935 1.394 . S
C936 C937 1.516 . S
C937 C936 1.516 . S
C937 C938 1.502 . S
C937 C939 1.561 . S
C937 C940 1.526 . S
C938 H922 0.959 . S
C938 H923 0.959 . S
C938 H924 0.961 . S
C938 C937 1.502 . S
C939 H925 0.960 . S
C939 H926 0.961 . S
C939 H927 0.959 . S
C939 C937 1.561 . S
C940 C937 1.526 . S
C940 C941 1.396 . S
C940 C945 1.390 . S
C941 C935 1.465 . S
C941 C940 1.396 . S
C941 C942 1.399 1_455 S
C942 H928 0.929 . S
C942 C941 1.399 1_655 S
C942 C943 1.385 . S
C943 H929 0.931 . S
C943 C942 1.385 . S
C943 C944 1.389 . S
C944 C943 1.389 . S
C944 C945 1.387 1_655 S
C945 H930 0.930 . S
C945 C940 1.390 . S
C945 C944 1.387 1_455 S
H946 C958 0.930 . S
H947 C960 0.930 . S
H948 C961 0.930 . S
H949 C965 0.959 . S
H950 C965 0.959 . S
H951 C965 0.961 . S
H952 C966 0.960 . S
H953 C966 0.961 . S
H954 C966 0.959 . S
H955 C969 0.929 . S
H956 C970 0.931 . S
H957 C972 0.930 . S
C958 H946 0.930 . S
C958 C959 1.399 . S
C958 C963 1.399 . S
C959 C958 1.399 . S
C959 C960 1.376 . S
C960 H947 0.930 . S
C960 C959 1.376 . S
C960 C961 1.388 . S
C961 H948 0.930 . S
C961 C960 1.388 . S
C961 C962 1.390 . S
C962 C961 1.390 . S
C962 C963 1.394 . S
C962 C968 1.465 . S
C963 C958 1.399 . S
C963 C962 1.394 . S
C963 C964 1.516 . S
C964 C963 1.516 . S
C964 C965 1.502 . S
C964 C966 1.561 . S
C964 C967 1.526 . S
C965 H949 0.959 . S
C965 H950 0.959 . S
C965 H951 0.961 . S
C965 C964 1.502 . S
C966 H952 0.960 . S
C966 H953 0.961 . S
C966 H954 0.959 . S
C966 C964 1.561 . S
C967 C964 1.526 . S
C967 C968 1.396 . S
C967 C972 1.390 . S
C968 C962 1.465 . S
C968 C967 1.396 . S
C968 C969 1.399 . S
C969 H955 0.929 . S
C969 C968 1.399 . S
C969 C970 1.385 . S
C970 H956 0.931 . S
C970 C969 1.385 . S
C970 C971 1.389 . S
C971 C970 1.389 . S
C971 C972 1.387 . S
C972 H957 0.930 . S
C972 C967 1.390 . S
C972 C971 1.387 . S
H973 C985 0.930 . S
H974 C987 0.930 . S
H975 C988 0.930 . S
H976 C992 0.959 . S
H977 C992 0.959 . S
H978 C992 0.961 . S
H979 C993 0.960 . S
H980 C993 0.961 . S
H981 C993 0.959 . S
H982 C996 0.929 . S
H983 C997 0.931 . S
H984 C999 0.930 . S
C985 H973 0.930 . S
C985 C986 1.399 . S
C985 C990 1.399 . S
C986 C985 1.399 . S
C986 C987 1.376 . S
C987 H974 0.930 . S
C987 C986 1.376 . S
C987 C988 1.388 . S
C988 H975 0.930 . S
C988 C987 1.388 . S
C988 C989 1.390 . S
C989 C988 1.390 . S
C989 C990 1.394 . S
C989 C995 1.465 . S
C990 C985 1.399 . S
C990 C989 1.394 . S
C990 C991 1.516 . S
C991 C990 1.516 . S
C991 C992 1.502 . S
C991 C993 1.561 . S
C991 C994 1.526 . S
C992 H976 0.959 . S
C992 H977 0.959 . S
C992 H978 0.961 . S
C992 C991 1.502 . S
C993 H979 0.960 . S
C993 H980 0.961 . S
C993 H981 0.959 . S
C993 C991 1.561 . S
C994 C991 1.526 . S
C994 C995 1.396 . S
C994 C999 1.390 1_655 S
C995 C989 1.465 . S
C995 C994 1.396 . S
C995 C996 1.399 . S
C996 H982 0.929 . S
C996 C995 1.399 . S
C996 C997 1.385 1_655 S
C997 H983 0.931 . S
C997 C996 1.385 1_455 S
C997 C998 1.389 . S
C998 C997 1.389 . S
C998 C999 1.387 . S
C999 H984 0.930 . S
C999 C994 1.390 1_455 S
C999 C998 1.387 . S
H1000 C1012 0.930 . S
H1001 C1014 0.930 . S
H1002 C1015 0.930 . S
H1003 C1019 0.959 . S
H1004 C1019 0.959 . S
H1005 C1019 0.961 . S
H1006 C1020 0.960 . S
H1007 C1020 0.961 . S
H1008 C1020 0.959 . S
H1009 C1023 0.929 . S
H1010 C1024 0.931 . S
H1011 C1026 0.930 . S
C1012 H1000 0.930 . S
C1012 C1013 1.399 . S
C1012 C1017 1.399 . S
C1013 C1012 1.399 . S
C1013 C1014 1.376 . S
C1014 H1001 0.930 . S
C1014 C1013 1.376 . S
C1014 C1015 1.388 . S
C1015 H1002 0.930 . S
C1015 C1014 1.388 . S
C1015 C1016 1.390 . S
C1016 C1015 1.390 . S
C1016 C1017 1.394 . S
C1016 C1022 1.465 . S
C1017 C1012 1.399 . S
C1017 C1016 1.394 . S
C1017 C1018 1.516 . S
C1018 C1017 1.516 . S
C1018 C1019 1.502 . S
C1018 C1020 1.561 . S
C1018 C1021 1.526 . S
C1019 H1003 0.959 . S
C1019 H1004 0.959 . S
C1019 H1005 0.961 . S
C1019 C1018 1.502 . S
C1020 H1006 0.960 . S
C1020 H1007 0.961 . S
C1020 H1008 0.959 . S
C1020 C1018 1.561 . S
C1021 C1018 1.526 . S
C1021 C1022 1.396 . S
C1021 C1026 1.390 . S
C1022 C1016 1.465 . S
C1022 C1021 1.396 . S
C1022 C1023 1.399 . S
C1023 H1009 0.929 . S
C1023 C1022 1.399 . S
C1023 C1024 1.385 . S
C1024 H1010 0.931 . S
C1024 C1023 1.385 . S
C1024 C1025 1.389 . S
C1025 C1024 1.389 . S
C1025 C1026 1.387 . S
C1026 H1011 0.930 . S
C1026 C1021 1.390 . S
C1026 C1025 1.387 . S
H1027 C1039 0.930 . S
H1028 C1041 0.930 . S
H1029 C1042 0.930 . S
H1030 C1046 0.959 . S
H1031 C1046 0.959 . S
H1032 C1046 0.961 . S
H1033 C1047 0.960 . S
H1034 C1047 0.961 . S
H1035 C1047 0.959 . S
H1036 C1050 0.929 . S
H1037 C1051 0.931 . S
H1038 C1053 0.930 . S
C1039 H1027 0.930 . S
C1039 C1040 1.399 . S
C1039 C1044 1.399 . S
C1040 C1039 1.399 . S
C1040 C1041 1.376 . S
C1041 H1028 0.930 . S
C1041 C1040 1.376 . S
C1041 C1042 1.388 . S
C1042 H1029 0.930 . S
C1042 C1041 1.388 . S
C1042 C1043 1.390 . S
C1043 C1042 1.390 . S
C1043 C1044 1.394 . S
C1043 C1049 1.465 . S
C1044 C1039 1.399 . S
C1044 C1043 1.394 . S
C1044 C1045 1.516 . S
C1045 C1044 1.516 . S
C1045 C1046 1.502 . S
C1045 C1047 1.561 . S
C1045 C1048 1.526 . S
C1046 H1030 0.959 . S
C1046 H1031 0.959 . S
C1046 H1032 0.961 . S
C1046 C1045 1.502 . S
C1047 H1033 0.960 . S
C1047 H1034 0.961 . S
C1047 H1035 0.959 . S
C1047 C1045 1.561 . S
C1048 C1045 1.526 . S
C1048 C1049 1.396 . S
C1048 C1053 1.390 . S
C1049 C1043 1.465 . S
C1049 C1048 1.396 . S
C1049 C1050 1.399 . S
C1050 H1036 0.929 . S
C1050 C1049 1.399 . S
C1050 C1051 1.385 . S
C1051 H1037 0.931 . S
C1051 C1050 1.385 . S
C1051 C1052 1.389 . S
C1052 C1051 1.389 . S
C1052 C1053 1.387 . S
C1053 H1038 0.930 . S
C1053 C1048 1.390 . S
C1053 C1052 1.387 . S
H1054 C1066 0.930 . S
H1055 C1068 0.930 . S
H1056 C1069 0.930 . S
H1057 C1073 0.959 . S
H1058 C1073 0.959 . S
H1059 C1073 0.961 . S
H1060 C1074 0.960 . S
H1061 C1074 0.961 . S
H1062 C1074 0.959 . S
H1063 C1077 0.929 . S
H1064 C1078 0.931 . S
H1065 C1080 0.930 . S
C1066 H1054 0.930 . S
C1066 C1067 1.399 . S
C1066 C1071 1.399 . S
C1067 C1066 1.399 . S
C1067 C1068 1.376 . S
C1068 H1055 0.930 . S
C1068 C1067 1.376 . S
C1068 C1069 1.388 . S
C1069 H1056 0.930 . S
C1069 C1068 1.388 . S
C1069 C1070 1.390 . S
C1070 C1069 1.390 . S
C1070 C1071 1.394 . S
C1070 C1076 1.465 . S
C1071 C1066 1.399 . S
C1071 C1070 1.394 . S
C1071 C1072 1.516 . S
C1072 C1071 1.516 . S
C1072 C1073 1.502 . S
C1072 C1074 1.561 . S
C1072 C1075 1.526 . S
C1073 H1057 0.959 . S
C1073 H1058 0.959 . S
C1073 H1059 0.961 . S
C1073 C1072 1.502 . S
C1074 H1060 0.960 . S
C1074 H1061 0.961 . S
C1074 H1062 0.959 . S
C1074 C1072 1.561 . S
C1075 C1072 1.526 . S
C1075 C1076 1.396 . S
C1075 C1080 1.390 . S
C1076 C1070 1.465 . S
C1076 C1075 1.396 . S
C1076 C1077 1.399 . S
C1077 H1063 0.929 . S
C1077 C1076 1.399 . S
C1077 C1078 1.385 . S
C1078 H1064 0.931 . S
C1078 C1077 1.385 . S
C1078 C1079 1.389 . S
C1079 C1078 1.389 . S
C1079 C1080 1.387 . S
C1080 H1065 0.930 . S
C1080 C1075 1.390 . S
C1080 C1079 1.387 . S
H1081 C1093 0.930 . S
H1082 C1095 0.930 . S
H1083 C1096 0.930 . S
H1084 C1100 0.959 . S
H1085 C1100 0.959 . S
H1086 C1100 0.961 . S
H1087 C1101 0.960 . S
H1088 C1101 0.961 . S
H1089 C1101 0.959 . S
H1090 C1104 0.929 . S
H1091 C1105 0.931 . S
H1092 C1107 0.930 . S
C1093 H1081 0.930 . S
C1093 C1094 1.399 . S
C1093 C1098 1.399 . S
C1094 C1093 1.399 . S
C1094 C1095 1.376 . S
C1095 H1082 0.930 . S
C1095 C1094 1.376 . S
C1095 C1096 1.388 . S
C1096 H1083 0.930 . S
C1096 C1095 1.388 . S
C1096 C1097 1.390 . S
C1097 C1096 1.390 . S
C1097 C1098 1.394 . S
C1097 C1103 1.465 . S
C1098 C1093 1.399 . S
C1098 C1097 1.394 . S
C1098 C1099 1.516 . S
C1099 C1098 1.516 . S
C1099 C1100 1.502 . S
C1099 C1101 1.561 . S
C1099 C1102 1.526 . S
C1100 H1084 0.959 . S
C1100 H1085 0.959 . S
C1100 H1086 0.961 . S
C1100 C1099 1.502 . S
C1101 H1087 0.960 . S
C1101 H1088 0.961 . S
C1101 H1089 0.959 . S
C1101 C1099 1.561 . S
C1102 C1099 1.526 . S
C1102 C1103 1.396 . S
C1102 C1107 1.390 . S
C1103 C1097 1.465 . S
C1103 C1102 1.396 . S
C1103 C1104 1.399 . S
C1104 H1090 0.929 . S
C1104 C1103 1.399 . S
C1104 C1105 1.385 . S
C1105 H1091 0.931 . S
C1105 C1104 1.385 . S
C1105 C1106 1.389 . S
C1106 C1105 1.389 . S
C1106 C1107 1.387 . S
C1107 H1092 0.930 . S
C1107 C1102 1.390 . S
C1107 C1106 1.387 . S
H1108 C1120 0.930 . S
H1109 C1122 0.930 . S
H1110 C1123 0.930 . S
H1111 C1127 0.959 . S
H1112 C1127 0.959 . S
H1113 C1127 0.961 . S
H1114 C1128 0.960 . S
H1115 C1128 0.961 . S
H1116 C1128 0.959 . S
H1117 C1131 0.929 . S
H1118 C1132 0.931 . S
H1119 C1134 0.930 . S
C1120 H1108 0.930 . S
C1120 C1121 1.399 . S
C1120 C1125 1.399 . S
C1121 C1120 1.399 . S
C1121 C1122 1.376 . S
C1122 H1109 0.930 . S
C1122 C1121 1.376 . S
C1122 C1123 1.388 . S
C1123 H1110 0.930 . S
C1123 C1122 1.388 . S
C1123 C1124 1.390 . S
C1124 C1123 1.390 . S
C1124 C1125 1.394 . S
C1124 C1130 1.465 . S
C1125 C1120 1.399 . S
C1125 C1124 1.394 . S
C1125 C1126 1.516 . S
C1126 C1125 1.516 . S
C1126 C1127 1.502 . S
C1126 C1128 1.561 . S
C1126 C1129 1.526 . S
C1127 H1111 0.959 . S
C1127 H1112 0.959 . S
C1127 H1113 0.961 . S
C1127 C1126 1.502 . S
C1128 H1114 0.960 . S
C1128 H1115 0.961 . S
C1128 H1116 0.959 . S
C1128 C1126 1.561 . S
C1129 C1126 1.526 . S
C1129 C1130 1.396 . S
C1129 C1134 1.390 . S
C1130 C1124 1.465 . S
C1130 C1129 1.396 . S
C1130 C1131 1.399 . S
C1131 H1117 0.929 . S
C1131 C1130 1.399 . S
C1131 C1132 1.385 . S
C1132 H1118 0.931 . S
C1132 C1131 1.385 . S
C1132 C1133 1.389 . S
C1133 C1132 1.389 . S
C1133 C1134 1.387 . S
C1134 H1119 0.930 . S
C1134 C1129 1.390 . S
C1134 C1133 1.387 . S
H1135 C1147 0.930 . S
H1136 C1149 0.930 . S
H1137 C1150 0.930 . S
H1138 C1154 0.959 . S
H1139 C1154 0.959 . S
H1140 C1154 0.961 . S
H1141 C1155 0.960 . S
H1142 C1155 0.961 . S
H1143 C1155 0.959 . S
H1144 C1158 0.929 . S
H1145 C1159 0.931 . S
H1146 C1161 0.930 . S
C1147 H1135 0.930 . S
C1147 C1148 1.399 . S
C1147 C1152 1.399 . S
C1148 C1147 1.399 . S
C1148 C1149 1.376 . S
C1149 H1136 0.930 . S
C1149 C1148 1.376 . S
C1149 C1150 1.388 . S
C1150 H1137 0.930 . S
C1150 C1149 1.388 . S
C1150 C1151 1.390 . S
C1151 C1150 1.390 . S
C1151 C1152 1.394 . S
C1151 C1157 1.465 . S
C1152 C1147 1.399 . S
C1152 C1151 1.394 . S
C1152 C1153 1.516 . S
C1153 C1152 1.516 . S
C1153 C1154 1.502 . S
C1153 C1155 1.561 . S
C1153 C1156 1.526 . S
C1154 H1138 0.959 . S
C1154 H1139 0.959 . S
C1154 H1140 0.961 . S
C1154 C1153 1.502 . S
C1155 H1141 0.960 . S
C1155 H1142 0.961 . S
C1155 H1143 0.959 . S
C1155 C1153 1.561 . S
C1156 C1153 1.526 . S
C1156 C1157 1.396 . S
C1156 C1161 1.390 . S
C1157 C1151 1.465 . S
C1157 C1156 1.396 . S
C1157 C1158 1.399 . S
C1158 H1144 0.929 . S
C1158 C1157 1.399 . S
C1158 C1159 1.385 . S
C1159 H1145 0.931 . S
C1159 C1158 1.385 . S
C1159 C1160 1.389 . S
C1160 C1159 1.389 . S
C1160 C1161 1.387 . S
C1161 H1146 0.930 . S
C1161 C1156 1.390 . S
C1161 C1160 1.387 . S
H1162 C1174 0.930 . S
H1163 C1176 0.930 . S
H1164 C1177 0.930 . S
H1165 C1181 0.959 . S
H1166 C1181 0.959 . S
H1167 C1181 0.961 . S
H1168 C1182 0.960 . S
H1169 C1182 0.961 . S
H1170 C1182 0.959 . S
H1171 C1185 0.929 . S
H1172 C1186 0.931 . S
H1173 C1188 0.930 . S
C1174 H1162 0.930 . S
C1174 C1175 1.399 . S
C1174 C1179 1.399 . S
C1175 C1174 1.399 . S
C1175 C1176 1.376 . S
C1176 H1163 0.930 . S
C1176 C1175 1.376 . S
C1176 C1177 1.388 . S
C1177 H1164 0.930 . S
C1177 C1176 1.388 . S
C1177 C1178 1.390 . S
C1178 C1177 1.390 . S
C1178 C1179 1.394 . S
C1178 C1184 1.465 . S
C1179 C1174 1.399 . S
C1179 C1178 1.394 . S
C1179 C1180 1.516 . S
C1180 C1179 1.516 . S
C1180 C1181 1.502 . S
C1180 C1182 1.561 . S
C1180 C1183 1.526 . S
C1181 H1165 0.959 . S
C1181 H1166 0.959 . S
C1181 H1167 0.961 . S
C1181 C1180 1.502 . S
C1182 H1168 0.960 . S
C1182 H1169 0.961 . S
C1182 H1170 0.959 . S
C1182 C1180 1.561 . S
C1183 C1180 1.526 . S
C1183 C1184 1.396 . S
C1183 C1188 1.390 . S
C1184 C1178 1.465 . S
C1184 C1183 1.396 . S
C1184 C1185 1.399 . S
C1185 H1171 0.929 . S
C1185 C1184 1.399 . S
C1185 C1186 1.385 . S
C1186 H1172 0.931 . S
C1186 C1185 1.385 . S
C1186 C1187 1.389 . S
C1187 C1186 1.389 . S
C1187 C1188 1.387 . S
C1188 H1173 0.930 . S
C1188 C1183 1.390 . S
C1188 C1187 1.387 . S
H1189 C1201 0.930 . S
H1190 C1203 0.930 . S
H1191 C1204 0.930 . S
H1192 C1208 0.959 . S
H1193 C1208 0.959 . S
H1194 C1208 0.961 . S
H1195 C1209 0.960 . S
H1196 C1209 0.961 . S
H1197 C1209 0.959 . S
H1198 C1212 0.929 . S
H1199 C1213 0.931 . S
H1200 C1215 0.930 . S
C1201 H1189 0.930 . S
C1201 C1202 1.399 . S
C1201 C1206 1.399 . S
C1202 C1201 1.399 . S
C1202 C1203 1.376 . S
C1203 H1190 0.930 . S
C1203 C1202 1.376 . S
C1203 C1204 1.388 . S
C1204 H1191 0.930 . S
C1204 C1203 1.388 . S
C1204 C1205 1.390 . S
C1205 C1204 1.390 . S
C1205 C1206 1.394 . S
C1205 C1211 1.465 . S
C1206 C1201 1.399 . S
C1206 C1205 1.394 . S
C1206 C1207 1.516 . S
C1207 C1206 1.516 . S
C1207 C1208 1.502 . S
C1207 C1209 1.561 . S
C1207 C1210 1.526 . S
C1208 H1192 0.959 . S
C1208 H1193 0.959 . S
C1208 H1194 0.961 . S
C1208 C1207 1.502 . S
C1209 H1195 0.960 . S
C1209 H1196 0.961 . S
C1209 H1197 0.959 . S
C1209 C1207 1.561 . S
C1210 C1207 1.526 . S
C1210 C1211 1.396 . S
C1210 C1215 1.390 . S
C1211 C1205 1.465 . S
C1211 C1210 1.396 . S
C1211 C1212 1.399 . S
C1212 H1198 0.929 . S
C1212 C1211 1.399 . S
C1212 C1213 1.385 . S
C1213 H1199 0.931 . S
C1213 C1212 1.385 . S
C1213 C1214 1.389 . S
C1214 C1213 1.389 . S
C1214 C1215 1.387 . S
C1215 H1200 0.930 . S
C1215 C1210 1.390 . S
C1215 C1214 1.387 . S
C581 C8 1.375 . S
C593 C89 1.299 . S
C608 C31 1.336 . S
C620 C168 1.353 . S
C635 C53 1.349 . S
C647 C239 1.352 . S
C674 C299 1.369 . S
C662 C74 1.368 . S
C701 C329 1.231 . S
C689 C26 1.360 . S
C716 C48 1.369 . S
C728 C419 1.372 . S
C743 C71 1.353 . S
C755 C479 1.365 . S
C770 C5 1.348 . S
C782 C528 1.356 . S
C797 C50 1.329 . S
C809 C509 1.185 . S
C836 C348 1.362 . S
C824 C70 1.316 . S
C863 C408 1.212 . S
C851 C4 1.358 . S
C878 C28 1.360 . S
C890 C468 1.312 . S
C917 C149 1.312 . S
C905 C73 1.361 . S
C932 C7 1.317 . S
C944 C228 1.220 . S
C971 C288 1.217 . S
C959 C30 1.317 . S
C998 C108 1.334 . S
C986 C52 1.358 . S
C1025 C449 1.051 . S
C1013 C9 1.021 . S
C1052 C539 1.051 . S
C1040 C29 1.025 . S
C1067 C51 1.027 . S
C1079 C359 1.046 . S
C1106 C389 1.041 . S
C1094 C75 1.038 . S
C1133 C209 1.011 . S
C1121 C27 1.040 . S
C1148 C49 1.037 . S
C1160 C269 1.048 . S
C1187 C119 1.055 . S
C1175 C72 1.034 . S
C1214 C179 1.005 . S
C1202 C6 1.044 . S
