# Generated by pormake.
# Topology zzz, (3,6)-cn, num edge types: 1
# Building blocks:
#     Node 0, Type 0, BuildingBlock: BELTOD_clean_linker_0, # of connection points: 3
#     Node 1, Type 0, BuildingBlock: BELTOD_clean_linker_0, # of connection points: 3
#     Node 2, Type 0, BuildingBlock: BELTOD_clean_linker_0, # of connection points: 3
#     Node 3, Type 0, BuildingBlock: BELTOD_clean_linker_0, # of connection points: 3
#     Node 4, Type 0, BuildingBlock: BELTOD_clean_linker_0, # of connection points: 3
#     Node 5, Type 0, BuildingBlock: BELTOD_clean_linker_0, # of connection points: 3
#     Node 6, Type 0, BuildingBlock: BELTOD_clean_linker_0, # of connection points: 3
#     Node 7, Type 0, BuildingBlock: BELTOD_clean_linker_0, # of connection points: 3
#     Node 8, Type 1, BuildingBlock: PAMTUU_clean_sbu_0, # of connection points: 6
#     Node 9, Type 1, BuildingBlock: PAMTUU_clean_sbu_0, # of connection points: 6
#     Node 10, Type 1, BuildingBlock: PAMTUU_clean_sbu_0, # of connection points: 6
#     Node 11, Type 1, BuildingBlock: PAMTUU_clean_sbu_0, # of connection points: 6
#     Edge 12, Type (0, 1), BuildingBlock: OJICUG_clean_linker_0, # of connection points: 2
#     Edge 13, Type (0, 1), BuildingBlock: OJICUG_clean_linker_0, # of connection points: 2
#     Edge 14, Type (0, 1), BuildingBlock: OJICUG_clean_linker_0, # of connection points: 2
#     Edge 15, Type (0, 1), BuildingBlock: OJICUG_clean_linker_0, # of connection points: 2
#     Edge 16, Type (0, 1), BuildingBlock: OJICUG_clean_linker_0, # of connection points: 2
#     Edge 17, Type (0, 1), BuildingBlock: OJICUG_clean_linker_0, # of connection points: 2
#     Edge 18, Type (0, 1), BuildingBlock: OJICUG_clean_linker_0, # of connection points: 2
#     Edge 19, Type (0, 1), BuildingBlock: OJICUG_clean_linker_0, # of connection points: 2
#     Edge 20, Type (0, 1), BuildingBlock: OJICUG_clean_linker_0, # of connection points: 2
#     Edge 21, Type (0, 1), BuildingBlock: OJICUG_clean_linker_0, # of connection points: 2
#     Edge 22, Type (0, 1), BuildingBlock: OJICUG_clean_linker_0, # of connection points: 2
#     Edge 23, Type (0, 1), BuildingBlock: OJICUG_clean_linker_0, # of connection points: 2
#     Edge 24, Type (0, 1), BuildingBlock: OJICUG_clean_linker_0, # of connection points: 2
#     Edge 25, Type (0, 1), BuildingBlock: OJICUG_clean_linker_0, # of connection points: 2
#     Edge 26, Type (0, 1), BuildingBlock: OJICUG_clean_linker_0, # of connection points: 2
#     Edge 27, Type (0, 1), BuildingBlock: OJICUG_clean_linker_0, # of connection points: 2
#     Edge 28, Type (0, 1), BuildingBlock: OJICUG_clean_linker_0, # of connection points: 2
#     Edge 29, Type (0, 1), BuildingBlock: OJICUG_clean_linker_0, # of connection points: 2
#     Edge 30, Type (0, 1), BuildingBlock: OJICUG_clean_linker_0, # of connection points: 2
#     Edge 31, Type (0, 1), BuildingBlock: OJICUG_clean_linker_0, # of connection points: 2
#     Edge 32, Type (0, 1), BuildingBlock: OJICUG_clean_linker_0, # of connection points: 2
#     Edge 33, Type (0, 1), BuildingBlock: OJICUG_clean_linker_0, # of connection points: 2
#     Edge 34, Type (0, 1), BuildingBlock: OJICUG_clean_linker_0, # of connection points: 2
#     Edge 35, Type (0, 1), BuildingBlock: OJICUG_clean_linker_0, # of connection points: 2
# Relax obj value: 0.414
# Max RMSD: 0.293
# Mean RMSD: 0.208
data_MOF--net-zzz--node1-PAMTUU_clean_sbu_0--node2-BELTOD_clean_linker_0--edge1-OJICUG_clean_linker_0
_symmetry_space_group_name_H-M    P1
_symmetry_Int_Tables_number       1
_symmetry_cell_setting            triclinic
loop_
_symmetry_equiv_pos_as_xyz
'x, y, z'
_cell_length_a     40.48251
_cell_length_b     44.323309
_cell_length_c     15.092807
_cell_angle_alpha  102.03605
_cell_angle_beta   90.361502
_cell_angle_gamma 88.834151
loop_
_atom_site_label
_atom_site_type_symbol
_atom_site_fract_x
_atom_site_fract_y
_atom_site_fract_z
_atom_type_partial_charge
P0 P 0.71384 0.45828 0.47478 0.0
H1 H 0.73425 0.46664 0.66391 0.0
H2 H 0.78695 0.47839 0.73566 0.0
H3 H 0.82035 0.51115 0.50125 0.0
H4 H 0.76765 0.49652 0.42657 0.0
H5 H 0.64991 0.4358 0.41206 0.0
H6 H 0.61206 0.44618 0.29747 0.0
H7 H 0.67189 0.52237 0.26109 0.0
H8 H 0.71095 0.51069 0.37568 0.0
H9 H 0.7556 0.40841 0.51291 0.0
H10 H 0.72599 0.44386 0.2783 0.0
O11 O 0.69288 0.44169 0.54616 0.0
H12 H 0.80006 0.37822 0.4247 0.0
H13 H 0.76978 0.41398 0.19087 0.0
C14 C 0.74624 0.48109 0.53973 0.0
C15 C 0.75236 0.47731 0.62853 0.0
C16 C 0.78314 0.48413 0.67013 0.0
C17 C 0.80904 0.49553 0.62506 0.0
C18 C 0.80186 0.50163 0.5384 0.0
C19 C 0.7711 0.49411 0.49596 0.0
C20 C 0.68302 0.4729 0.40494 0.0
C21 C 0.6546 0.45536 0.38164 0.0
C22 C 0.63271 0.46141 0.31526 0.0
C23 C 0.63832 0.48539 0.26927 0.0
C24 C 0.66662 0.50354 0.29403 0.0
C25 C 0.68884 0.49723 0.36079 0.0
C26 C 0.73744 0.42838 0.40237 0.0
C27 C 0.75774 0.4087 0.44159 0.0
C28 C 0.78318 0.39157 0.39136 0.0
C29 C 0.78848 0.39387 0.30113 0.0
C30 C 0.76609 0.41135 0.25986 0.0
C31 C 0.74096 0.42868 0.3103 0.0
P32 P 0.05126 0.71981 0.47354 0.0
H33 H 0.05251 0.74883 0.66579 0.0
H34 H 0.0344 0.79994 0.74199 0.0
H35 H 0.97548 0.80836 0.50795 0.0
H36 H 0.99579 0.75783 0.4297 0.0
H37 H 0.0773 0.65806 0.4079 0.0
H38 H 0.05546 0.6124 0.30862 0.0
H39 H 0.96129 0.65949 0.30145 0.0
H40 H 0.98342 0.70532 0.40193 0.0
H41 H 0.09993 0.76775 0.5011 0.0
H42 H 0.04096 0.71938 0.27965 0.0
O43 O 0.08115 0.70942 0.53849 0.0
H44 H 0.11397 0.8057 0.41257 0.0
H45 H 0.05601 0.75647 0.18884 0.0
C46 C 0.02536 0.74914 0.54204 0.0
C47 C 0.03469 0.76106 0.63188 0.0
C48 C 0.02419 0.79061 0.67573 0.0
C49 C 1.00387 0.80885 0.6308 0.0
C50 C 0.99177 0.79543 0.54411 0.0
C51 C 1.00271 0.76602 0.49984 0.0
C52 C 0.032 0.68511 0.41314 0.0
C53 C 0.05168 0.6584 0.38696 0.0
C54 C 0.03909 0.63217 0.33026 0.0
C55 C 1.00655 0.63218 0.29723 0.0
C56 C 0.9865 0.65877 0.32545 0.0
C57 C 0.99912 0.68502 0.38312 0.0
C58 C 0.06978 0.74051 0.3967 0.0
C59 C 0.09115 0.76456 0.43187 0.0
C60 C 0.09913 0.78632 0.38101 0.0
C61 C 0.08587 0.78439 0.29367 0.0
C62 C 0.06616 0.75902 0.25648 0.0
C63 C 0.0579 0.73745 0.30793 0.0
P64 P 0.81417 0.03532 0.50711 0.0
H65 H 0.79682 0.0228 0.68451 0.0
H66 H 0.74422 0.01169 0.74715 0.0
H67 H 0.70135 0.9942 0.47928 0.0
H68 H 0.75437 0.00553 0.41661 0.0
H69 H 0.88593 0.03641 0.49826 0.0
H70 H 0.92444 0.02398 0.37322 0.0
H71 H 0.84669 0.97956 0.19972 0.0
H72 H 0.80753 0.9935 0.32593 0.0
H73 H 0.75666 0.07531 0.56397 0.0
H74 H 0.83062 0.06509 0.35431 0.0
O75 O 0.83546 0.05199 0.59876 0.0
H76 H 0.72236 0.10594 0.48244 0.0
H77 H 0.79668 0.09644 0.27348 0.0
C78 C 0.78004 0.01481 0.5452 0.0
C79 C 0.77657 0.01559 0.63829 0.0
C80 C 0.74612 0.00966 0.67459 0.0
C81 C 0.71812 0.00261 0.61886 0.0
C82 C 0.72226 -0.00053 0.52455 0.0
C83 C 0.75282 0.00561 0.48825 0.0
C84 C 0.84372 0.01535 0.42302 0.0
C85 C 0.8772 0.023 0.4345 0.0
C86 C 0.89946 0.01584 0.36211 0.0
C87 C 0.8891 0.00066 0.27533 0.0
C88 C 0.85577 0.99158 0.26489 0.0
C89 C 0.83333 -0.00103 0.33776 0.0
C90 C 0.79513 0.0661 0.4623 0.0
C91 C 0.76591 0.0802 0.50138 0.0
C92 C 0.74648 0.09821 0.45517 0.0
C93 C 0.75635 0.10282 0.36985 0.0
C94 C 0.78797 0.09245 0.33771 0.0
C95 C 0.80728 0.07423 0.38376 0.0
P96 P 0.50371 0.77734 0.24043 0.0
H97 H 0.49508 0.76984 0.42639 0.0
H98 H 0.51978 0.73238 0.50535 0.0
H99 H 0.59383 0.70898 0.29635 0.0
H100 H 0.56918 0.74713 0.21799 0.0
H101 H 0.48642 0.79323 0.06991 0.0
H102 H 0.50315 0.83366 0.99484 0.0
H103 H 0.57293 0.86568 0.21012 0.0
H104 H 0.55573 0.82435 0.28598 0.0
H105 H 0.44805 0.7356 0.23071 0.0
H106 H 0.53517 0.74364 0.07513 0.0
O107 O 0.47018 0.79357 0.29594 0.0
H108 H 0.43819 0.68463 0.13632 0.0
H109 H 0.52635 0.69253 0.98301 0.0
C110 C 0.53029 0.76146 0.31624 0.0
C111 C 0.51754 0.75779 0.39945 0.0
C112 C 0.53163 0.73612 0.4445 0.0
C113 C 0.55846 0.71733 0.40637 0.0
C114 C 0.57289 0.72284 0.32679 0.0
C115 C 0.55904 0.74491 0.28248 0.0
C116 C 0.52062 0.80507 0.18201 0.0
C117 C 0.50602 0.80829 0.10005 0.0
C118 C 0.51567 0.83154 0.05696 0.0
C119 C 0.53985 0.85266 0.09547 0.0
C120 C 0.5544 0.84964 0.17838 0.0
C121 C 0.5448 0.82596 0.22143 0.0
C122 C 0.49198 0.7436 0.15883 0.0
C123 C 0.46457 0.72673 0.17478 0.0
C124 C 0.4592 0.69745 0.12138 0.0
C125 C 0.48156 0.68436 0.05223 0.0
C126 C 0.50826 0.702 0.03439 0.0
C127 C 0.51343 0.73128 0.08734 0.0
P128 P 0.29002 0.44227 0.19344 0.0
H129 H 0.26837 0.4263 1.00343 0.0
H130 H 0.21778 0.43898 0.92951 0.0
H131 H 0.19361 0.50936 0.16504 0.0
H132 H 0.24457 0.49654 0.23892 0.0
H133 H 0.35823 0.42157 0.20392 0.0
H134 H 0.40147 0.43852 0.31386 0.0
H135 H 0.34545 0.52227 0.41688 0.0
H136 H 0.30218 0.50511 0.30364 0.0
H137 H 0.22493 0.41515 0.20017 0.0
H138 H 0.30102 0.45057 0.39273 0.0
O139 O 0.30165 0.40814 0.13063 0.0
H140 H 0.18399 0.4264 0.32036 0.0
H141 H 0.26052 0.4661 0.50848 0.0
C142 C 0.26085 0.46058 0.12696 0.0
C143 C 0.25294 0.44524 0.0384 0.0
C144 C 0.22351 0.45221 0.99641 0.0
C145 C 0.20102 0.47483 0.04162 0.0
C146 C 0.21022 0.49188 0.12764 0.0
C147 C 0.23972 0.48478 0.16983 0.0
C148 C 0.32689 0.46205 0.24371 0.0
C149 C 0.35586 0.4443 0.24647 0.0
C150 C 0.38062 0.45398 0.31079 0.0
C151 C 0.37688 0.4816 0.37584 0.0
C152 C 0.34903 0.50066 0.36868 0.0
C153 C 0.32448 0.49115 0.30253 0.0
C154 C 0.26548 0.43484 0.28551 0.0
C155 C 0.23296 0.42507 0.26845 0.0
C156 C 0.20943 0.43216 0.33722 0.0
C157 C 0.21815 0.45 0.42258 0.0
C158 C 0.25199 0.45378 0.44319 0.0
C159 C 0.27554 0.4455 0.37536 0.0
P160 P 0.11269 0.25951 0.29916 0.0
H161 H 0.15117 0.21447 0.17137 0.0
H162 H 0.13421 0.16847 0.06772 0.0
H163 H 0.03331 0.2034 0.08373 0.0
H164 H 0.05027 0.248 0.19549 0.0
H165 H 0.14324 0.31013 0.42146 0.0
H166 H 0.1239 0.36171 0.49159 0.0
H167 H 0.03849 0.35054 0.3158 0.0
H168 H 0.05838 0.29877 0.24432 0.0
H169 H 0.13107 0.20704 0.37784 0.0
H170 H 0.04673 0.26833 0.38134 0.0
O171 O 0.15331 0.25605 0.31552 0.0
H172 H 0.0983 0.17352 0.45069 0.0
H173 H 1.01368 0.23465 0.45244 0.0
C174 C 0.10227 0.2354 0.19089 0.0
C175 C 0.12554 0.21295 0.15037 0.0
C176 C 0.11562 0.18623 0.09027 0.0
C177 C 0.08204 0.18139 0.06758 0.0
C178 C 0.05924 0.20551 0.10117 0.0
C179 C 0.06914 0.23188 0.16341 0.0
C180 C 0.10234 0.30029 0.32736 0.0
C181 C 0.12096 0.31905 0.39528 0.0
C182 C 0.10987 0.34873 0.43555 0.0
C183 C 0.07951 0.36022 0.40989 0.0
C184 C 0.06187 0.34221 0.33766 0.0
C185 C 0.07327 0.31252 0.29649 0.0
C186 C 0.09163 0.24056 0.37599 0.0
C187 C 0.10582 0.21382 0.39687 0.0
C188 C 0.0869 0.19443 0.43721 0.0
C189 C 0.05329 0.20128 0.45631 0.0
C190 C 0.03956 0.22889 0.43934 0.0
C191 C 0.05855 0.24828 0.39897 0.0
P192 P 0.23714 0.0442 0.22437 0.0
H193 H 0.25318 0.03505 0.03088 0.0
H194 H 0.30501 0.02042 0.95221 0.0
H195 H 0.34161 0.98519 0.18114 0.0
H196 H 0.28968 0.00093 0.26074 0.0
H197 H 0.17619 0.07261 0.30139 0.0
H198 H 0.13698 0.06108 0.40942 0.0
H199 H 0.18855 0.97461 0.40809 0.0
H200 H 0.22895 0.98726 0.30066 0.0
H201 H 0.28615 0.0883 0.19681 0.0
H202 H 0.25036 0.05104 0.41963 0.0
O203 O 0.21829 0.0664 0.16192 0.0
H204 H 0.33941 0.09792 0.27294 0.0
H205 H 0.30283 0.06074 0.49551 0.0
C206 C 0.2669 0.01895 0.15215 0.0
C207 C 0.27168 0.02299 0.06313 0.0
C208 C 0.30181 0.0147 0.01788 0.0
C209 C 0.3283 0.00207 0.06019 0.0
C210 C 0.32236 0.9955 0.1464 0.0
C211 C 0.29213 0.00383 0.19161 0.0
C212 C 0.20519 0.03049 0.29035 0.0
C213 C 0.17876 0.05074 0.3223 0.0
C214 C 0.15608 0.04401 0.38475 0.0
C215 C 0.15893 0.01664 0.41803 0.0
C216 C 0.18538 0.99603 0.38503 0.0
C217 C 0.20836 0.00298 0.32231 0.0
C218 C 0.26458 0.06817 0.30126 0.0
C219 C 0.28895 0.08398 0.26453 0.0
C220 C 0.3195 0.08934 0.30787 0.0
C221 C 0.32564 0.07917 0.38869 0.0
C222 C 0.29906 0.06868 0.43294 0.0
C223 C 0.26877 0.06294 0.38903 0.0
P224 P 0.42822 0.24145 0.52591 0.0
H225 H 0.37476 0.2503 0.40196 0.0
H226 H 0.37353 0.27818 0.27914 0.0
H227 H 0.48026 0.27836 0.27832 0.0
H228 H 0.48128 0.24899 0.3976 0.0
H229 H 0.39494 0.2041 0.63319 0.0
H230 H 0.40968 0.15636 0.67904 0.0
H231 H 0.49574 0.14594 0.50686 0.0
H232 H 0.48004 0.19388 0.45798 0.0
H233 H 0.41808 0.29949 0.65582 0.0
H234 H 0.50128 0.24281 0.53912 0.0
O235 O 0.39051 0.25149 0.56762 0.0
H236 H 0.45548 0.34014 0.72403 0.0
H237 H 0.53878 0.28468 0.60342 0.0
C238 C 0.42812 0.24853 0.41204 0.0
C239 C 0.39798 0.25536 0.37354 0.0
C240 C 0.39729 0.27172 0.30371 0.0
C241 C 0.42676 0.28173 0.27124 0.0
C242 C 0.457 0.27145 0.30221 0.0
C243 C 0.45763 0.25473 0.37144 0.0
C244 C 0.43641 0.20276 0.54206 0.0
C245 C 0.41662 0.19138 0.60322 0.0
C246 C 0.42524 0.16409 0.63037 0.0
C247 C 0.45422 0.14764 0.59812 0.0
C248 C 0.47323 0.15811 0.53298 0.0
C249 C 0.46438 0.18556 0.50524 0.0
C250 C 0.45672 0.26804 0.59166 0.0
C251 C 0.44438 0.29543 0.64605 0.0
C252 C 0.46578 0.31873 0.68503 0.0
C253 C 0.49988 0.3154 0.66859 0.0
C254 C 0.51254 0.28762 0.61696 0.0
C255 C 0.49107 0.26381 0.58013 0.0
Tb256 Tb 0.99522 0.01021 0.78507 0.0
Tb257 Tb 0.05553 0.98641 0.89878 0.0
C258 C 0.98188 0.99511 0.97509 0.0
C259 C 0.95484 0.06149 0.6598 0.0
C260 C 0.97576 0.11128 0.58594 0.0
C261 C 0.96471 0.08403 0.52909 0.0
C262 C 0.95449 0.05933 0.56582 0.0
C263 C 0.9634 0.08959 0.71687 0.0
C264 C 0.97372 0.11423 0.68026 0.0
C265 C 0.9524 0.03317 0.69602 0.0
O266 O 1.01227 0.05008 0.88382 0.0
O267 O 0.06576 0.03452 0.90063 0.0
O268 O 0.07463 0.98333 0.7613 0.0
O269 O 0.0404 0.01927 0.71743 0.0
O270 O 0.08356 0.99053 0.01829 0.0
O271 O 0.0945 0.95468 0.90101 0.0
O272 O 0.02355 0.94728 0.85726 0.0
O273 O 1.00076 0.96072 0.73154 0.0
O274 O 0.97053 0.99318 0.89228 0.0
O275 O 1.01376 0.99808 0.99313 0.0
C276 C 0.04305 0.05638 0.90702 0.0
O277 O 0.97273 0.0109 0.65965 0.0
O278 O 0.95166 0.03675 0.78397 0.0
C279 C 0.06742 0.00195 0.70612 0.0
C280 C 0.10003 0.94131 0.04197 0.0
C281 C 0.09744 0.89056 0.12741 0.0
C282 C 0.12658 0.8968 0.08466 0.0
C283 C 0.12783 0.92198 0.04235 0.0
C284 C 0.07118 0.93568 0.08642 0.0
C285 C 0.06998 0.9107 0.12931 0.0
C286 C 0.10018 0.96502 0.9869 0.0
C287 C 1.00853 0.93985 0.77883 0.0
H288 H 0.96553 0.08122 0.45609 0.0
H289 H 0.94848 0.03778 0.52075 0.0
H290 H 0.96427 0.09198 0.78974 0.0
H291 H 0.98233 0.13476 0.72596 0.0
H292 H 0.14805 0.88163 0.08097 0.0
H293 H 0.15016 0.92576 1.00731 0.0
H294 H 0.04928 0.95014 0.0861 0.0
H295 H 0.04736 0.90698 0.16306 0.0
Tb296 Tb 0.51332 0.97686 0.74273 0.0
Tb297 Tb 0.53242 0.02631 0.92456 0.0
C298 C 0.54193 0.9542 0.91365 0.0
C299 C 0.4694 0.96098 0.53772 0.0
C300 C 0.43016 0.00614 0.47857 0.0
C301 C 0.41752 0.9896 0.54018 0.0
C302 C 0.43681 0.96712 0.56905 0.0
C303 C 0.48077 0.97533 0.469 0.0
C304 C 0.46128 0.99779 0.43967 0.0
C305 C 0.49351 0.94743 0.59307 0.0
O306 O 0.46626 0.99118 0.81432 0.0
O307 O 0.48561 0.00836 0.9587 0.0
O308 O 0.49726 0.04843 0.84743 0.0
O309 O 0.51414 0.02222 0.7103 0.0
O310 O 0.54461 0.0403 0.06264 0.0
O311 O 0.53923 0.07335 0.97685 0.0
O312 O 0.57487 0.02322 0.83275 0.0
O313 O 0.56715 0.975 0.74558 0.0
O314 O 0.52516 0.94771 0.8373 0.0
O315 O 0.55086 0.98242 0.95161 0.0
C316 C 0.46128 0.99858 0.90271 0.0
O317 O 0.52188 0.9611 0.60349 0.0
O318 O 0.48269 0.94243 0.67 0.0
C319 C 0.50002 0.04652 0.76019 0.0
C320 C 0.57884 0.08349 0.09293 0.0
C321 C 0.63926 0.1071 0.16716 0.0
C322 C 0.63511 0.09861 0.07267 0.0
C323 C 0.60522 0.08669 0.03585 0.0
C324 C 0.58224 0.09342 0.1867 0.0
C325 C 0.61219 0.10508 0.22364 0.0
C326 C 0.54811 0.06891 0.05621 0.0
C327 C 0.58604 -0.00113 0.77409 0.0
H328 H 0.39302 0.99477 0.56851 0.0
H329 H 0.42698 0.95638 0.62123 0.0
H330 H 0.50574 0.97106 0.44342 0.0
H331 H 0.47128 0.00984 0.39067 0.0
H332 H 0.65534 0.10015 0.0273 0.0
H333 H 0.60302 0.07926 0.96302 0.0
H334 H 0.56207 0.09115 0.2316 0.0
H335 H 0.61462 0.11082 0.29669 0.0
Tb336 Tb 0.47784 0.48552 0.88353 0.0
Tb337 Tb 0.53914 0.50724 0.76744 0.0
C338 C 0.4669 0.49659 0.68642 0.0
C339 C 0.43179 0.4363 1.00635 0.0
C340 C 0.42896 0.3824 0.07841 0.0
C341 C 0.39989 0.39652 0.05333 0.0
C342 C 0.40129 0.4233 0.01813 0.0
C343 C 0.46096 0.42186 0.02882 0.0
C344 C 0.45956 0.39525 0.06481 0.0
C345 C 0.43309 0.4642 0.9677 0.0
O346 O 0.49836 0.44483 0.79636 0.0
O347 O 0.55095 0.4589 0.76596 0.0
O348 O 0.55831 0.50988 0.90495 0.0
O349 O 0.52257 0.47807 0.95816 0.0
O350 O 0.56528 0.5053 0.64595 0.0
O351 O 0.57844 0.53745 0.76816 0.0
O352 O 0.50579 0.54674 0.80854 0.0
O353 O 0.48259 0.53458 0.93445 0.0
O354 O 0.4548 0.5014 0.76916 0.0
O355 O 0.49887 0.49228 0.67184 0.0
C356 C 0.52902 0.43795 0.77186 0.0
O357 O 0.45358 0.48532 1.00612 0.0
O358 O 0.43495 0.45927 0.87975 0.0
C359 C 0.55007 0.49375 0.96525 0.0
C360 C 0.58315 0.55525 0.63243 0.0
C361 C 0.5814 0.6076 0.55217 0.0
C362 C 0.60273 0.60632 0.62519 0.0
C363 C 0.60371 0.58038 0.66447 0.0
C364 C 0.56235 0.55615 0.55798 0.0
C365 C 0.56161 0.58201 0.51806 0.0
C366 C 0.58262 0.5294 0.68091 0.0
C367 C 0.49077 0.55489 0.88697 0.0
H368 H 0.37597 0.38686 0.06098 0.0
H369 H 0.37853 0.43383 1.00001 0.0
H370 H 0.48483 0.43129 0.01917 0.0
H371 H 0.48242 0.38515 0.08383 0.0
H372 H 0.61854 0.62549 0.65235 0.0
H373 H 0.62008 0.58022 0.72146 0.0
H374 H 0.5461 0.53724 0.53177 0.0
H375 H 0.5447 0.58238 0.46239 0.0
Tb376 Tb 1.01535 0.52458 0.80099 0.0
Tb377 Tb 0.99539 0.46493 0.87866 0.0
C378 C 0.98623 0.5326 0.99183 0.0
C379 C 0.07188 0.57067 0.71725 0.0
C380 C 0.12846 0.54098 0.63127 0.0
C381 C 0.10764 0.55891 0.58627 0.0
C382 C 0.07915 0.57323 0.62861 0.0
C383 C 0.09608 0.55832 0.76747 0.0
C384 C 0.12372 0.54297 0.72449 0.0
C385 C 0.03719 0.56936 0.74381 0.0
O386 O 0.05574 0.51565 0.89073 0.0
O387 O 0.0494 0.46387 0.87396 0.0
O388 O 1.00274 0.44969 0.73363 0.0
O389 O 0.04003 0.48542 0.71307 0.0
O390 O 1.00289 0.43732 0.97441 0.0
O391 O 0.96889 0.4239 0.86325 0.0
O392 O 0.94832 0.48648 0.85016 0.0
O393 O 0.96739 0.51029 0.73986 0.0
O394 O 0.98291 0.54138 0.91461 0.0
O395 O 0.9959 0.50423 0.99368 0.0
C396 C 0.06773 0.4884 0.89714 0.0
O397 O 0.02109 0.54702 0.69263 0.0
O398 O 0.03202 0.57027 0.82959 0.0
C399 C 0.02623 0.45854 0.686 0.0
C400 C 0.95683 0.40836 0.99858 0.0
C401 C 0.90821 0.39078 0.10865 0.0
C402 C 0.92001 0.36972 0.0322 0.0
C403 C 0.9443 0.37845 0.97776 0.0
C404 C 0.94552 0.42929 0.07568 0.0
C405 C 0.9215 0.42051 0.13053 0.0
C406 C 0.98088 0.41749 0.93754 0.0
C407 C 0.94294 0.49895 0.77914 0.0
H408 H 0.11159 0.55964 0.51591 0.0
H409 H 0.0611 0.58308 0.58889 0.0
H410 H 0.09167 0.55679 0.83701 0.0
H411 H 0.13915 0.53014 0.76296 0.0
H412 H 0.91011 0.34673 0.01389 0.0
H413 H 0.95284 0.36205 0.91834 0.0
H414 H 0.95471 0.45259 0.09244 0.0
H415 H 0.91234 0.43743 0.18801 0.0
C416 C 0.14505 0.99549 0.55815 0.0
C417 C 0.135 0.01073 0.48887 0.0
H418 H 0.13202 0.98073 0.6802 0.0
C419 C 0.10199 0.02176 0.4906 0.0
H420 H 0.17018 0.9869 0.56056 0.0
C421 C 0.0803 0.01877 0.5604 0.0
C422 C 0.09056 0.00415 0.63048 0.0
H423 H 0.09267 0.0329 0.43788 0.0
H424 H 0.05534 0.02796 0.5592 0.0
C425 C 0.12314 0.99213 0.62756 0.0
C426 C 0.47848 0.09392 0.58398 0.0
C427 C 0.4655 0.1212 0.63816 0.0
H428 H 0.49923 0.04877 0.57978 0.0
C429 C 0.46356 0.12342 0.73242 0.0
H430 H 0.47997 0.09136 0.51115 0.0
C431 C 0.47445 0.09912 0.77171 0.0
C432 C 0.48765 0.07193 0.71786 0.0
H433 H 0.45413 0.14428 0.77636 0.0
H434 H 0.47282 0.10183 0.84457 0.0
C435 C 0.48937 0.0695 0.62339 0.0
C436 C 0.43453 0.48269 0.44292 0.0
C437 C 0.40035 0.48859 0.45485 0.0
H438 H 0.48206 0.48081 0.50516 0.0
C439 C 0.3885 0.49862 0.54398 0.0
H440 H 0.44468 0.47513 0.37553 0.0
C441 C 0.40999 0.50166 0.61888 0.0
C442 C 0.44406 0.49503 0.60693 0.0
H443 H 0.36233 0.503 0.5562 0.0
H444 H 0.39976 0.50874 0.6863 0.0
C445 C 0.45604 0.486 0.51762 0.0
C446 C 0.03155 0.38783 0.49664 0.0
C447 C 0.06438 0.38844 0.46756 0.0
H448 H 0.99388 0.40948 0.58803 0.0
C449 C 0.08349 0.41436 0.50388 0.0
H450 H 1.01624 0.36815 0.471 0.0
C451 C 0.07057 0.43825 0.57146 0.0
C452 C 0.03848 0.43641 0.60477 0.0
H453 H 0.10882 0.41561 0.48237 0.0
H454 H 0.08628 0.45729 0.60076 0.0
C455 C 1.01883 0.41143 0.5646 0.0
C456 C 0.90142 -0.00086 0.10929 0.0
C457 C 0.91259 0.9965 0.1961 0.0
H458 H 0.9141 0.00077 0.97253 0.0
C459 C 0.94685 0.99195 0.20769 0.0
H460 H 0.87548 0.00312 0.09712 0.0
C461 C 0.96917 0.99118 0.13624 0.0
C462 C 0.95801 0.99455 0.05029 0.0
H463 H 0.95663 0.98914 0.27245 0.0
H464 H 0.99527 0.98807 0.14867 0.0
C465 C 0.92374 0.99805 0.03756 0.0
C466 C 0.54941 0.9091 0.10061 0.0
C467 C 0.54767 0.87858 0.05058 0.0
H468 H 0.5493 0.95723 0.09622 0.0
C469 C 0.5493 0.87337 0.95553 0.0
H470 H 0.54809 0.91394 0.17387 0.0
C471 C 0.54953 0.89805 0.91132 0.0
C472 C 0.54866 0.9286 0.96098 0.0
H473 H 0.54882 0.85014 0.91497 0.0
H474 H 0.54901 0.89318 0.83793 0.0
C475 C 0.55003 0.93392 0.05612 0.0
C476 C 0.6271 0.49957 0.11629 0.0
C477 C 0.61536 0.48998 0.19365 0.0
H478 H 0.61604 0.50832 0.98427 0.0
C479 C 0.58154 0.48295 0.19566 0.0
H480 H 0.65289 0.50488 0.11089 0.0
C481 C 0.56064 0.48415 0.12191 0.0
C482 C 0.57254 0.49308 0.0441 0.0
H483 H 0.571 0.47634 0.25437 0.0
H484 H 0.53497 0.47816 0.12625 0.0
C485 C 0.60595 0.50129 0.04294 0.0
C486 C 0.97895 0.61101 0.1486 0.0
C487 C 0.99518 0.60569 0.22666 0.0
H488 H 0.96296 0.59199 0.01357 0.0
C489 C 1.00387 0.57516 0.23145 0.0
H490 H 0.97209 0.63421 0.14232 0.0
C491 C 0.99865 0.55083 0.15734 0.0
C492 C 0.98482 0.55658 0.07665 0.0
H493 H 1.01598 0.57024 0.29121 0.0
H494 H 1.00726 0.52788 0.16157 0.0
C495 C 0.97388 0.58675 0.07444 0.0
C496 C 1.00844 0.18818 0.55574 0.0
C497 C 0.03221 0.17863 0.48766 0.0
H498 H 0.9714 0.17441 0.6393 0.0
C499 C 0.03557 0.14707 0.44831 0.0
H500 H 1.00526 0.21235 0.58723 0.0
C501 C 1.01636 0.12544 0.47813 0.0
C502 C 0.99319 0.13482 0.54788 0.0
H503 H 0.05319 0.13903 0.39441 0.0
H504 H 0.02049 0.10123 0.44843 0.0
C505 C 0.98916 0.16647 0.58574 0.0
C506 C 0.36878 0.0722 0.5025 0.0
C507 C 0.35957 0.07026 0.41169 0.0
H508 H 0.39909 0.05328 0.59498 0.0
C509 C 0.37907 0.05208 0.34301 0.0
H510 H 0.35452 0.08637 0.5567 0.0
C511 C 0.40425 0.0329 0.36478 0.0
C512 C 0.41032 0.03179 0.45554 0.0
H513 H 0.37256 0.05002 0.27237 0.0
H514 H 0.41675 0.01697 0.3106 0.0
C515 C 0.39399 0.05305 0.52428 0.0
C516 C 0.53253 0.35839 0.63346 0.0
C517 C 0.52076 0.34255 0.69812 0.0
H518 H 0.54562 0.40248 0.60751 0.0
C519 C 0.52146 0.35689 0.79006 0.0
H520 H 0.53176 0.34778 0.562 0.0
C521 C 0.52981 0.38784 0.81592 0.0
C522 C 0.53723 0.40489 0.75015 0.0
H523 H 0.51227 0.34514 0.84082 0.0
H524 H 0.52659 0.39937 0.88618 0.0
C525 C 0.54065 0.38959 0.65942 0.0
C526 C 0.19927 0.48248 0.57248 0.0
C527 C 0.19295 0.46975 0.48055 0.0
H528 H 0.18615 0.51638 0.6895 0.0
C529 C 0.16455 0.48009 0.44046 0.0
H530 H 0.22016 0.47477 0.60747 0.0
C531 C 0.14387 0.50291 0.48946 0.0
C532 C 0.15141 0.51712 0.57934 0.0
H533 H 0.15861 0.47167 0.36981 0.0
H534 H 0.12193 0.50931 0.45588 0.0
C535 C 0.17928 0.50631 0.62047 0.0
C536 C 0.11956 0.82664 0.25221 0.0
C537 C 0.08995 0.81022 0.2457 0.0
H538 H 0.14501 0.86511 0.22181 0.0
C539 C 0.06327 0.82001 0.19785 0.0
H540 H 0.14071 0.81961 0.28781 0.0
C541 C 0.06592 0.84573 0.15874 0.0
C542 C 0.0952 0.86263 0.16716 0.0
H543 H 0.03988 0.80833 0.19255 0.0
H544 H 0.04489 0.85239 0.12194 0.0
C545 C 0.12213 0.85258 0.21359 0.0
C546 C 0.70583 0.13319 0.3408 0.0
C547 C 0.73119 0.11175 0.30779 0.0
H548 H 0.65669 0.14928 0.32046 0.0
C549 C 0.72854 0.09386 0.21953 0.0
H550 H 0.70747 0.14772 0.40789 0.0
C551 C 0.69953 0.09458 0.16996 0.0
C552 C 0.67258 0.11329 0.20743 0.0
H553 H 0.74742 0.07689 0.19201 0.0
H554 H 0.69726 0.07822 0.10613 0.0
C555 C 0.67674 0.13398 0.29092 0.0
C556 C 0.47119 0.62901 0.05481 0.0
C557 C 0.47935 0.65145 1.00551 0.0
H558 H 0.46817 0.58106 0.05602 0.0
C559 C 0.48843 0.64179 0.914 0.0
H560 H 0.46458 0.6355 0.12574 0.0
C561 C 0.49102 0.6104 0.87424 0.0
C562 C 0.48432 0.58801 0.92498 0.0
H563 H 0.49436 0.65849 0.87366 0.0
H564 H 0.4991 0.60374 0.80449 0.0
C565 C 0.47352 0.59768 0.01491 0.0
C566 C 0.82147 0.37175 0.16227 0.0
C567 C 0.82034 0.38393 0.25593 0.0
H568 H 0.85063 0.36427 0.04172 0.0
C569 C 0.84992 0.39263 0.30273 0.0
H570 H 0.79904 0.36466 0.1248 0.0
C571 C 0.87939 0.39239 0.25534 0.0
C572 C 0.87977 0.38334 0.16053 0.0
H573 H 0.84984 0.40231 0.37483 0.0
H574 H 0.90141 0.40125 0.29214 0.0
C575 C 0.85101 0.37141 0.11487 0.0
C576 C 0.09203 0.12999 0.95906 0.0
C577 C 0.07072 0.15027 0.01823 0.0
H578 H 0.10031 0.08435 0.8795 0.0
C579 C 0.0394 0.13939 0.03588 0.0
H580 H 0.11591 0.13738 0.941 0.0
C581 C 0.03008 0.10924 0.99741 0.0
C582 C 0.05214 0.08881 0.9426 0.0
H583 H 0.02232 0.15361 0.08226 0.0
H584 H 1.00606 0.10153 0.01364 0.0
C585 C 0.08307 0.09952 0.92309 0.0
C586 C 0.39086 0.0041 0.07363 0.0
C587 C 0.36248 0.99858 0.01848 0.0
H588 H 0.4434 0.00857 0.08158 0.0
C589 C 0.36726 0.99176 0.92361 0.0
H590 H 0.38872 0.00973 0.14657 0.0
C591 C 0.39911 0.9912 0.8857 0.0
C592 C 0.42724 0.99758 0.94136 0.0
H593 H 0.34635 0.98689 0.87818 0.0
H594 H 0.40158 0.98621 0.81265 0.0
C595 C 0.42254 0.00368 0.03592 0.0
C596 C 0.4025 0.33019 0.23403 0.0
C597 C 0.42588 0.30577 0.21499 0.0
H598 H 0.3854 0.37328 0.20729 0.0
C599 C 0.44964 0.30615 0.14755 0.0
H600 H 0.38435 0.33126 0.28705 0.0
C601 C 0.45034 0.33063 0.10182 0.0
C602 C 0.42727 0.35529 0.12237 0.0
H603 H 0.46786 0.28766 0.13051 0.0
H604 H 0.46901 0.3303 0.05054 0.0
C605 C 0.40316 0.35451 0.18833 0.0
C606 C 0.15228 0.50813 1.00826 0.0
C607 C 0.16728 0.47878 1.00205 0.0
H608 H 0.1097 0.53429 0.97947 0.0
C609 C 0.14925 0.45281 0.95964 0.0
H610 H 0.16532 0.5287 0.0399 0.0
C611 C 0.11726 0.45598 0.92555 0.0
C612 C 0.10222 0.48527 0.93183 0.0
H613 H 0.15957 0.42978 0.95455 0.0
H614 H 0.10426 0.43533 0.89439 0.0
C615 C 0.12035 0.51133 0.97309 0.0
C616 C 0.99882 0.85413 0.76339 0.0
C617 C 0.99928 0.84263 0.66909 0.0
H618 H 1.00156 0.89379 0.8719 0.0
C619 C 0.99916 0.86398 0.61164 0.0
H620 H 0.9981 0.83861 0.81002 0.0
C621 C 1.00028 0.89572 0.6474 0.0
C622 C 1.00218 0.90688 0.74135 0.0
H623 H 1.00009 0.85627 0.53876 0.0
H624 H 1.00156 0.91138 0.60122 0.0
C625 C 1.00063 0.88582 0.79902 0.0
C626 C 0.67469 0.0222 0.73843 0.0
C627 C 0.68455 0.00074 0.65986 0.0
H628 H 0.63643 0.03862 0.83537 0.0
C629 C 0.66176 0.97824 0.62035 0.0
H630 H 0.69123 0.04018 0.7703 0.0
C631 C 0.6302 0.97721 0.65832 0.0
C632 C 0.62024 -0.00104 0.73619 0.0
H633 H 0.66838 0.96124 0.56023 0.0
H634 H 0.61338 0.95961 0.62556 0.0
C635 C 0.64304 0.02143 0.77563 0.0
C636 C 0.57207 0.66077 0.38533 0.0
C637 C 0.56839 0.68988 0.44355 0.0
H638 H 0.57904 0.61201 0.37381 0.0
C639 C 0.57098 0.69187 0.53751 0.0
H640 H 0.56975 0.65837 0.31266 0.0
C641 C 0.57624 0.66528 0.5725 0.0
C642 C 0.57866 0.63604 0.5144 0.0
H643 H 0.56828 0.71395 0.58408 0.0
H644 H 0.57719 0.66752 0.64532 0.0
C645 C 0.57698 0.63415 0.42035 0.0
C646 C 0.84883 0.50245 0.76012 0.0
C647 C 0.84355 0.49875 0.66567 0.0
H648 H 0.88373 0.50474 0.86931 0.0
C649 C 0.87189 0.49631 0.6102 0.0
H650 H 0.82828 0.50541 0.80673 0.0
C651 C 0.9039 0.49721 0.64736 0.0
C652 C 0.90883 0.49968 0.74091 0.0
H653 H 0.86968 0.49276 0.53735 0.0
H654 H 0.9249 0.4949 0.60213 0.0
C655 C 0.88086 0.50236 0.79678 0.0
loop_
_geom_bond_atom_site_label_1
_geom_bond_atom_site_label_2
_geom_bond_distance
_geom_bond_site_symmetry_2
_ccdc_geom_bond_type
P0 O11 1.490 . S
P0 C14 1.812 . S
P0 C20 1.803 . S
P0 C26 1.819 . S
H1 C15 0.941 . S
H2 C16 0.939 . S
H3 C18 0.940 . S
H4 C19 0.940 . S
H5 C21 0.939 . S
H6 C22 0.942 . S
H7 C24 0.940 . S
H8 C25 0.939 . S
H9 C27 0.941 . S
H10 C31 0.939 . S
O11 P0 1.490 . S
H12 C28 0.939 . S
H13 C30 0.940 . S
C14 P0 1.812 . S
C14 C15 1.389 . S
C14 C19 1.391 . S
C15 H1 0.941 . S
C15 C14 1.389 . S
C15 C16 1.397 . S
C16 H2 0.939 . S
C16 C15 1.397 . S
C16 C17 1.378 . S
C17 C16 1.378 . S
C17 C18 1.378 . S
C18 H3 0.940 . S
C18 C17 1.378 . S
C18 C19 1.396 . S
C19 H4 0.940 . S
C19 C14 1.391 . S
C19 C18 1.396 . S
C20 P0 1.803 . S
C20 C21 1.378 . S
C20 C25 1.400 . S
C21 H5 0.939 . S
C21 C20 1.378 . S
C21 C22 1.361 . S
C22 H6 0.942 . S
C22 C21 1.361 . S
C22 C23 1.369 . S
C23 C22 1.369 . S
C23 C24 1.404 . S
C24 H7 0.940 . S
C24 C23 1.404 . S
C24 C25 1.389 . S
C25 H8 0.939 . S
C25 C20 1.400 . S
C25 C24 1.389 . S
C26 P0 1.819 . S
C26 C27 1.391 . S
C26 C31 1.391 . S
C27 H9 0.941 . S
C27 C26 1.391 . S
C27 C28 1.396 . S
C28 H12 0.939 . S
C28 C27 1.396 . S
C28 C29 1.397 . S
C29 C28 1.397 . S
C29 C30 1.385 . S
C30 H13 0.940 . S
C30 C29 1.385 . S
C30 C31 1.388 . S
C31 H10 0.939 . S
C31 C26 1.391 . S
C31 C30 1.388 . S
P32 O43 1.490 . S
P32 C46 1.812 . S
P32 C52 1.803 . S
P32 C58 1.819 . S
H33 C47 0.941 . S
H34 C48 0.939 . S
H35 C50 0.940 . S
H36 C51 0.950 . S
H37 C53 0.939 . S
H38 C54 0.942 . S
H39 C56 0.940 . S
H40 C57 0.959 . S
H41 C59 0.941 . S
H42 C63 0.928 1_655 S
O43 P32 1.490 . S
H44 C60 0.939 . S
H45 C62 0.940 . S
C46 P32 1.812 . S
C46 C47 1.389 . S
C46 C51 1.375 1_455 S
C47 H33 0.941 . S
C47 C46 1.389 . S
C47 C48 1.397 . S
C48 H34 0.939 . S
C48 C47 1.397 . S
C48 C49 1.378 . S
C49 C48 1.378 . S
C49 C50 1.378 1_455 S
C50 H35 0.940 . S
C50 C49 1.378 1_655 S
C50 C51 1.402 . S
C51 H36 0.950 . S
C51 C46 1.375 1_655 S
C51 C50 1.402 . S
C52 P32 1.803 . S
C52 C53 1.378 . S
C52 C57 1.368 1_455 S
C53 H37 0.939 . S
C53 C52 1.378 . S
C53 C54 1.361 . S
C54 H38 0.942 . S
C54 C53 1.361 . S
C54 C55 1.369 . S
C55 C54 1.369 . S
C55 C56 1.404 1_455 S
C56 H39 0.940 . S
C56 C55 1.404 1_655 S
C56 C57 1.403 . S
C57 H40 0.959 . S
C57 C52 1.368 1_655 S
C57 C56 1.403 . S
C58 P32 1.819 . S
C58 C59 1.391 . S
C58 C63 1.391 . S
C59 H41 0.941 . S
C59 C58 1.391 . S
C59 C60 1.396 . S
C60 H44 0.939 . S
C60 C59 1.396 . S
C60 C61 1.397 . S
C61 C60 1.397 . S
C61 C62 1.385 1_455 S
C62 H45 0.940 . S
C62 C61 1.385 1_655 S
C62 C63 1.388 1_655 S
C63 H42 0.928 1_455 S
C63 C58 1.391 . S
C63 C62 1.388 1_455 S
P64 O75 1.490 . S
P64 C78 1.812 . S
P64 C84 1.803 . S
P64 C90 1.819 . S
H65 C79 0.941 . S
H66 C80 0.939 . S
H67 C82 0.940 . S
H68 C83 0.947 . S
H69 C85 0.939 . S
H70 C86 0.942 . S
H71 C88 0.940 . S
H72 C89 0.964 . S
H73 C91 0.941 . S
H74 C95 0.930 1_565 S
O75 P64 1.490 . S
H76 C92 0.939 . S
H77 C94 0.940 . S
C78 P64 1.812 . S
C78 C79 1.389 . S
C78 C83 1.375 1_545 S
C79 H65 0.941 . S
C79 C78 1.389 . S
C79 C80 1.397 . S
C80 H66 0.939 . S
C80 C79 1.397 . S
C80 C81 1.378 . S
C81 C80 1.378 . S
C81 C82 1.378 1_545 S
C82 H67 0.940 . S
C82 C81 1.378 1_565 S
C82 C83 1.406 . S
C83 H68 0.947 . S
C83 C78 1.375 1_565 S
C83 C82 1.406 . S
C84 P64 1.803 . S
C84 C85 1.378 . S
C84 C89 1.367 1_545 S
C85 H69 0.939 . S
C85 C84 1.378 . S
C85 C86 1.361 . S
C86 H70 0.942 . S
C86 C85 1.361 . S
C86 C87 1.369 . S
C87 C86 1.369 . S
C87 C88 1.404 1_545 S
C88 H71 0.940 . S
C88 C87 1.404 1_565 S
C88 C89 1.399 . S
C89 H72 0.964 . S
C89 C84 1.367 1_565 S
C89 C88 1.399 . S
C90 P64 1.819 . S
C90 C91 1.391 . S
C90 C95 1.391 . S
C91 H73 0.941 . S
C91 C90 1.391 . S
C91 C92 1.396 . S
C92 H76 0.939 . S
C92 C91 1.396 . S
C92 C93 1.397 . S
C93 C92 1.397 . S
C93 C94 1.385 1_545 S
C94 H77 0.940 . S
C94 C93 1.385 1_565 S
C94 C95 1.388 1_565 S
C95 H74 0.930 1_545 S
C95 C90 1.391 . S
C95 C94 1.388 1_545 S
P96 O107 1.490 . S
P96 C110 1.812 . S
P96 C116 1.803 1_554 S
P96 C122 1.819 1_554 S
H97 C111 0.941 . S
H98 C112 0.939 . S
H99 C114 0.940 . S
H100 C115 0.940 . S
H101 C117 0.939 . S
H102 C118 0.942 . S
H103 C120 0.938 1_554 S
H104 C121 0.939 . S
H105 C123 0.941 . S
H106 C127 0.939 . S
O107 P96 1.490 . S
H108 C124 0.939 . S
H109 C126 0.940 . S
C110 P96 1.812 . S
C110 C111 1.389 . S
C110 C115 1.391 . S
C111 H97 0.941 . S
C111 C110 1.389 . S
C111 C112 1.397 . S
C112 H98 0.939 . S
C112 C111 1.397 . S
C112 C113 1.378 . S
C113 C112 1.378 . S
C113 C114 1.378 . S
C114 H99 0.940 . S
C114 C113 1.378 . S
C114 C115 1.396 . S
C115 H100 0.940 . S
C115 C110 1.391 . S
C115 C114 1.396 . S
C116 P96 1.803 1_556 S
C116 C117 1.378 . S
C116 C121 1.400 1_556 S
C117 H101 0.939 . S
C117 C116 1.378 . S
C117 C118 1.361 . S
C118 H102 0.942 . S
C118 C117 1.361 . S
C118 C119 1.369 . S
C119 C118 1.369 . S
C119 C120 1.409 . S
C120 H103 0.938 1_556 S
C120 C119 1.409 . S
C120 C121 1.386 1_556 S
C121 H104 0.939 . S
C121 C116 1.400 1_554 S
C121 C120 1.386 1_554 S
C122 P96 1.819 1_556 S
C122 C123 1.391 . S
C122 C127 1.391 . S
C123 H105 0.941 . S
C123 C122 1.391 . S
C123 C124 1.396 . S
C124 H108 0.939 . S
C124 C123 1.396 . S
C124 C125 1.397 . S
C125 C124 1.397 . S
C125 C126 1.385 . S
C126 H109 0.940 . S
C126 C125 1.385 . S
C126 C127 1.388 . S
C127 H106 0.939 . S
C127 C122 1.391 . S
C127 C126 1.388 . S
P128 O139 1.490 . S
P128 C142 1.812 . S
P128 C148 1.803 . S
P128 C154 1.819 . S
H129 C143 0.941 . S
H130 C144 0.939 . S
H131 C146 0.940 1_554 S
H132 C147 0.940 . S
H133 C149 0.939 . S
H134 C150 0.942 . S
H135 C152 0.940 . S
H136 C153 0.939 . S
H137 C155 0.941 . S
H138 C159 0.939 . S
O139 P128 1.490 . S
H140 C156 0.939 . S
H141 C158 0.940 . S
C142 P128 1.812 . S
C142 C143 1.389 1_554 S
C142 C147 1.391 . S
C143 H129 0.941 . S
C143 C142 1.389 1_556 S
C143 C144 1.397 . S
C144 H130 0.939 . S
C144 C143 1.397 . S
C144 C145 1.378 . S
C145 C144 1.378 . S
C145 C146 1.378 . S
C146 H131 0.940 1_556 S
C146 C145 1.378 . S
C146 C147 1.396 1_556 S
C147 H132 0.940 . S
C147 C142 1.391 . S
C147 C146 1.396 1_554 S
C148 P128 1.803 . S
C148 C149 1.378 . S
C148 C153 1.400 . S
C149 H133 0.939 . S
C149 C148 1.378 . S
C149 C150 1.361 . S
C150 H134 0.942 . S
C150 C149 1.361 . S
C150 C151 1.369 . S
C151 C150 1.369 . S
C151 C152 1.404 . S
C152 H135 0.940 . S
C152 C151 1.404 . S
C152 C153 1.389 . S
C153 H136 0.939 . S
C153 C148 1.400 . S
C153 C152 1.389 . S
C154 P128 1.819 . S
C154 C155 1.391 . S
C154 C159 1.391 . S
C155 H137 0.941 . S
C155 C154 1.391 . S
C155 C156 1.396 . S
C156 H140 0.939 . S
C156 C155 1.396 . S
C156 C157 1.397 . S
C157 C156 1.397 . S
C157 C158 1.385 . S
C158 H141 0.940 . S
C158 C157 1.385 . S
C158 C159 1.388 . S
C159 H138 0.939 . S
C159 C154 1.391 . S
C159 C158 1.388 . S
P160 O171 1.490 . S
P160 C174 1.812 . S
P160 C180 1.803 . S
P160 C186 1.819 . S
H161 C175 0.941 . S
H162 C176 0.939 . S
H163 C178 0.940 . S
H164 C179 0.945 . S
H165 C181 0.939 . S
H166 C182 0.942 . S
H167 C184 0.940 . S
H168 C185 0.955 . S
H169 C187 0.941 . S
H170 C191 0.932 1_655 S
O171 P160 1.490 . S
H172 C188 0.939 . S
H173 C190 0.940 . S
C174 P160 1.812 . S
C174 C175 1.389 . S
C174 C179 1.382 1_455 S
C175 H161 0.941 . S
C175 C174 1.389 . S
C175 C176 1.397 1_554 S
C176 H162 0.939 . S
C176 C175 1.397 1_556 S
C176 C177 1.378 . S
C177 C176 1.378 . S
C177 C178 1.378 1_456 S
C178 H163 0.940 . S
C178 C177 1.378 1_654 S
C178 C179 1.400 . S
C179 H164 0.945 . S
C179 C174 1.382 1_655 S
C179 C178 1.400 . S
C180 P160 1.803 . S
C180 C181 1.378 . S
C180 C185 1.376 1_455 S
C181 H165 0.939 . S
C181 C180 1.378 . S
C181 C182 1.361 . S
C182 H166 0.942 . S
C182 C181 1.361 . S
C182 C183 1.369 . S
C183 C182 1.369 . S
C183 C184 1.404 1_455 S
C184 H167 0.940 . S
C184 C183 1.404 1_655 S
C184 C185 1.398 . S
C185 H168 0.955 . S
C185 C180 1.376 1_655 S
C185 C184 1.398 . S
C186 P160 1.819 . S
C186 C187 1.391 . S
C186 C191 1.391 . S
C187 H169 0.941 . S
C187 C186 1.391 . S
C187 C188 1.396 . S
C188 H172 0.939 . S
C188 C187 1.396 . S
C188 C189 1.397 . S
C189 C188 1.397 . S
C189 C190 1.385 1_455 S
C190 H173 0.940 . S
C190 C189 1.385 1_655 S
C190 C191 1.388 1_655 S
C191 H170 0.932 1_455 S
C191 C186 1.391 . S
C191 C190 1.388 1_455 S
P192 O203 1.490 . S
P192 C206 1.812 . S
P192 C212 1.803 . S
P192 C218 1.819 . S
H193 C207 0.941 . S
H194 C208 0.939 . S
H195 C210 0.940 1_556 S
H196 C211 0.947 . S
H197 C213 0.939 . S
H198 C214 0.942 . S
H199 C216 0.940 . S
H200 C217 0.951 . S
H201 C219 0.941 . S
H202 C223 0.931 1_565 S
O203 P192 1.490 . S
H204 C220 0.939 . S
H205 C222 0.940 . S
C206 P192 1.812 . S
C206 C207 1.389 . S
C206 C211 1.383 1_545 S
C207 H193 0.941 . S
C207 C206 1.389 . S
C207 C208 1.397 1_554 S
C208 H194 0.939 . S
C208 C207 1.397 1_556 S
C208 C209 1.378 . S
C209 C208 1.378 . S
C209 C210 1.378 1_546 S
C210 H195 0.940 1_554 S
C210 C209 1.378 1_564 S
C210 C211 1.398 . S
C211 H196 0.947 . S
C211 C206 1.383 1_565 S
C211 C210 1.398 . S
C212 P192 1.803 . S
C212 C213 1.378 . S
C212 C217 1.378 1_545 S
C213 H197 0.939 . S
C213 C212 1.378 . S
C213 C214 1.361 . S
C214 H198 0.942 . S
C214 C213 1.361 . S
C214 C215 1.369 . S
C215 C214 1.369 . S
C215 C216 1.404 1_545 S
C216 H199 0.940 . S
C216 C215 1.404 1_565 S
C216 C217 1.401 . S
C217 H200 0.951 . S
C217 C212 1.378 1_565 S
C217 C216 1.401 . S
C218 P192 1.819 . S
C218 C219 1.391 . S
C218 C223 1.391 . S
C219 H201 0.941 . S
C219 C218 1.391 . S
C219 C220 1.396 . S
C220 H204 0.939 . S
C220 C219 1.396 . S
C220 C221 1.397 . S
C221 C220 1.397 . S
C221 C222 1.385 1_545 S
C222 H205 0.940 . S
C222 C221 1.385 1_565 S
C222 C223 1.388 1_565 S
C223 H202 0.931 1_545 S
C223 C218 1.391 . S
C223 C222 1.388 1_545 S
P224 O235 1.490 . S
P224 C238 1.812 . S
P224 C244 1.803 . S
P224 C250 1.819 . S
H225 C239 0.941 . S
H226 C240 0.939 . S
H227 C242 0.940 . S
H228 C243 0.940 . S
H229 C245 0.939 . S
H230 C246 0.942 . S
H231 C248 0.940 . S
H232 C249 0.939 . S
H233 C251 0.941 . S
H234 C255 0.939 . S
O235 P224 1.490 . S
H236 C252 0.939 . S
H237 C254 0.940 . S
C238 P224 1.812 . S
C238 C239 1.389 . S
C238 C243 1.391 . S
C239 H225 0.941 . S
C239 C238 1.389 . S
C239 C240 1.397 . S
C240 H226 0.939 . S
C240 C239 1.397 . S
C240 C241 1.378 . S
C241 C240 1.378 . S
C241 C242 1.378 . S
C242 H227 0.940 . S
C242 C241 1.378 . S
C242 C243 1.396 . S
C243 H228 0.940 . S
C243 C238 1.391 . S
C243 C242 1.396 . S
C244 P224 1.803 . S
C244 C245 1.378 . S
C244 C249 1.400 . S
C245 H229 0.939 . S
C245 C244 1.378 . S
C245 C246 1.361 . S
C246 H230 0.942 . S
C246 C245 1.361 . S
C246 C247 1.369 . S
C247 C246 1.369 . S
C247 C248 1.404 . S
C248 H231 0.940 . S
C248 C247 1.404 . S
C248 C249 1.389 . S
C249 H232 0.939 . S
C249 C244 1.400 . S
C249 C248 1.389 . S
C250 P224 1.819 . S
C250 C251 1.391 . S
C250 C255 1.391 . S
C251 H233 0.941 . S
C251 C250 1.391 . S
C251 C252 1.396 . S
C252 H236 0.939 . S
C252 C251 1.396 . S
C252 C253 1.397 . S
C253 C252 1.397 . S
C253 C254 1.385 . S
C254 H237 0.940 . S
C254 C253 1.385 . S
C254 C255 1.388 . S
C255 H234 0.939 . S
C255 C250 1.391 . S
C255 C254 1.388 . S
Tb256 C265 2.764 . S
Tb256 O266 2.325 . S
Tb256 O269 2.303 1_655 S
Tb256 O273 2.322 1_545 S
Tb256 O274 2.349 . S
Tb256 O277 2.415 . S
Tb256 O278 2.399 . S
Tb257 O267 2.322 1_565 S
Tb257 O268 2.349 . S
Tb257 O270 2.418 . S
Tb257 O271 2.399 . S
Tb257 O272 2.325 . S
Tb257 O275 2.303 1_455 S
Tb257 C286 2.764 . S
C258 O274 1.261 . S
C258 O275 1.257 1_545 S
C259 C262 1.358 . S
C259 C263 1.332 . S
C259 C265 1.504 . S
C260 C261 1.373 . S
C260 C264 1.308 . S
C261 C260 1.373 . S
C261 C262 1.429 . S
C261 H288 0.932 . S
C262 C259 1.358 . S
C262 C261 1.429 . S
C262 H289 0.930 . S
C263 C259 1.332 . S
C263 C264 1.394 . S
C263 H290 0.949 . S
C264 C260 1.308 . S
C264 C263 1.394 . S
C264 H291 0.929 . S
C265 Tb256 2.764 . S
C265 C259 1.504 . S
C265 O277 1.239 . S
C265 O278 1.263 . S
O266 Tb256 2.325 . S
O266 C276 1.236 1_655 S
O267 Tb257 2.322 1_545 S
O267 C276 1.257 . S
O268 Tb257 2.349 . S
O268 C279 1.261 . S
O269 Tb256 2.303 1_455 S
O269 C279 1.257 1_545 S
O270 Tb257 2.418 . S
O270 C286 1.239 . S
O271 Tb257 2.399 . S
O271 C286 1.263 . S
O272 Tb257 2.325 . S
O272 C287 1.236 1_455 S
O273 Tb256 2.322 1_565 S
O273 C287 1.257 . S
O274 Tb256 2.349 . S
O274 C258 1.261 . S
O275 Tb257 2.303 1_655 S
O275 C258 1.257 1_565 S
C276 O266 1.236 1_455 S
C276 O267 1.257 . S
O277 Tb256 2.415 . S
O277 C265 1.239 . S
O278 Tb256 2.399 . S
O278 C265 1.263 . S
C279 O268 1.261 . S
C279 O269 1.257 1_565 S
C280 C283 1.358 . S
C280 C284 1.332 . S
C280 C286 1.504 1_554 S
C281 C282 1.373 . S
C281 C285 1.308 . S
C282 C281 1.373 . S
C282 C283 1.429 . S
C282 H292 0.932 . S
C283 C280 1.358 . S
C283 C282 1.429 . S
C283 H293 0.930 . S
C284 C280 1.332 . S
C284 C285 1.394 . S
C284 H294 0.957 . S
C285 C281 1.308 . S
C285 C284 1.394 . S
C285 H295 0.929 . S
C286 Tb257 2.764 . S
C286 O270 1.239 . S
C286 O271 1.263 . S
C286 C280 1.504 1_556 S
C287 O272 1.236 1_655 S
C287 O273 1.257 . S
H288 C261 0.932 . S
H289 C262 0.930 . S
H290 C263 0.949 . S
H291 C264 0.929 . S
H292 C282 0.932 . S
H293 C283 0.930 . S
H294 C284 0.957 . S
H295 C285 0.929 . S
Tb296 C305 2.764 . S
Tb296 O306 2.325 . S
Tb296 O309 2.303 1_565 S
Tb296 O313 2.322 . S
Tb296 O314 2.349 . S
Tb296 O317 2.415 1_565 S
Tb296 O318 2.399 . S
Tb297 O307 2.322 . S
Tb297 O308 2.349 . S
Tb297 O310 2.415 1_546 S
Tb297 O311 2.399 1_556 S
Tb297 O312 2.325 . S
Tb297 O315 2.303 1_545 S
Tb297 C326 2.764 1_556 S
C298 O314 1.261 . S
C298 O315 1.257 . S
C299 C302 1.358 . S
C299 C303 1.332 1_565 S
C299 C305 1.504 . S
C300 C301 1.373 . S
C300 C304 1.332 . S
C301 C300 1.373 . S
C301 C302 1.429 . S
C301 H328 0.932 . S
C302 C299 1.358 . S
C302 C301 1.429 . S
C302 H329 0.930 . S
C303 C299 1.332 1_545 S
C303 C304 1.396 1_545 S
C303 H330 0.932 . S
C304 C300 1.332 . S
C304 C303 1.396 1_565 S
C304 H331 0.903 1_565 S
C305 Tb296 2.764 . S
C305 C299 1.504 . S
C305 O317 1.239 1_565 S
C305 O318 1.263 . S
O306 Tb296 2.325 . S
O306 C316 1.236 1_565 S
O307 Tb297 2.322 . S
O307 C316 1.257 . S
O308 Tb297 2.349 . S
O308 C319 1.261 . S
O309 Tb296 2.303 1_545 S
O309 C319 1.257 . S
O310 Tb297 2.415 1_564 S
O310 C326 1.239 1_565 S
O311 Tb297 2.399 1_554 S
O311 C326 1.263 . S
O312 Tb297 2.325 . S
O312 C327 1.236 1_545 S
O313 Tb296 2.322 . S
O313 C327 1.257 . S
O314 Tb296 2.349 . S
O314 C298 1.261 . S
O315 Tb297 2.303 1_565 S
O315 C298 1.257 . S
C316 O306 1.236 1_545 S
C316 O307 1.257 . S
O317 Tb296 2.415 1_545 S
O317 C305 1.239 1_545 S
O318 Tb296 2.399 . S
O318 C305 1.263 . S
C319 O308 1.261 . S
C319 O309 1.257 . S
C320 C323 1.358 . S
C320 C324 1.303 1_545 S
C320 C326 1.504 . S
C321 C322 1.373 . S
C321 C325 1.308 . S
C322 C321 1.373 . S
C322 C323 1.429 . S
C322 H332 0.932 . S
C323 C320 1.358 . S
C323 C322 1.429 . S
C323 H333 0.930 . S
C324 C320 1.303 1_565 S
C324 C325 1.396 1_565 S
C324 H334 0.961 . S
C325 C321 1.308 . S
C325 C324 1.396 1_545 S
C325 H335 0.929 1_545 S
C326 Tb297 2.764 1_554 S
C326 O310 1.239 1_545 S
C326 O311 1.263 . S
C326 C320 1.504 . S
C327 O312 1.236 1_565 S
C327 O313 1.257 . S
H328 C301 0.932 . S
H329 C302 0.930 . S
H330 C303 0.932 . S
H331 C304 0.903 1_545 S
H332 C322 0.932 . S
H333 C323 0.930 . S
H334 C324 0.961 . S
H335 C325 0.929 1_565 S
Tb336 C345 2.764 1_556 S
Tb336 O346 2.325 . S
Tb336 O349 2.303 . S
Tb336 O353 2.322 . S
Tb336 O354 2.349 . S
Tb336 O357 2.415 1_556 S
Tb336 O358 2.399 . S
Tb337 O347 2.322 . S
Tb337 O348 2.349 . S
Tb337 O350 2.415 . S
Tb337 O351 2.399 . S
Tb337 O352 2.325 . S
Tb337 O355 2.303 . S
Tb337 C366 2.764 . S
C338 O354 1.261 . S
C338 O355 1.257 . S
C339 C342 1.358 . S
C339 C343 1.332 . S
C339 C345 1.504 . S
C340 C341 1.373 . S
C340 C344 1.308 . S
C341 C340 1.373 . S
C341 C342 1.429 . S
C341 H368 0.932 . S
C342 C339 1.358 . S
C342 C341 1.429 . S
C342 H369 0.930 . S
C343 C339 1.332 . S
C343 C344 1.394 . S
C343 H370 0.932 . S
C344 C340 1.308 . S
C344 C343 1.394 . S
C344 H371 0.929 . S
C345 Tb336 2.764 1_554 S
C345 C339 1.504 . S
C345 O357 1.239 . S
C345 O358 1.263 1_554 S
O346 Tb336 2.325 . S
O346 C356 1.236 . S
O347 Tb337 2.322 . S
O347 C356 1.257 . S
O348 Tb337 2.349 . S
O348 C359 1.261 . S
O349 Tb336 2.303 . S
O349 C359 1.257 . S
O350 Tb337 2.415 . S
O350 C366 1.239 . S
O351 Tb337 2.399 . S
O351 C366 1.263 . S
O352 Tb337 2.325 . S
O352 C367 1.236 . S
O353 Tb336 2.322 . S
O353 C367 1.257 . S
O354 Tb336 2.349 . S
O354 C338 1.261 . S
O355 Tb337 2.303 . S
O355 C338 1.257 . S
C356 O346 1.236 . S
C356 O347 1.257 . S
O357 Tb336 2.415 1_554 S
O357 C345 1.239 . S
O358 Tb336 2.399 . S
O358 C345 1.263 1_556 S
C359 O348 1.261 . S
C359 O349 1.257 . S
C360 C363 1.358 . S
C360 C364 1.332 . S
C360 C366 1.504 . S
C361 C362 1.373 . S
C361 C365 1.308 . S
C362 C361 1.373 . S
C362 C363 1.429 . S
C362 H372 0.932 . S
C363 C360 1.358 . S
C363 C362 1.429 . S
C363 H373 0.930 . S
C364 C360 1.332 . S
C364 C365 1.394 . S
C364 H374 0.932 . S
C365 C361 1.308 . S
C365 C364 1.394 . S
C365 H375 0.929 . S
C366 Tb337 2.764 . S
C366 O350 1.239 . S
C366 O351 1.263 . S
C366 C360 1.504 . S
C367 O352 1.236 . S
C367 O353 1.257 . S
H368 C341 0.932 . S
H369 C342 0.930 . S
H370 C343 0.932 . S
H371 C344 0.929 . S
H372 C362 0.932 . S
H373 C363 0.930 . S
H374 C364 0.932 . S
H375 C365 0.929 . S
Tb376 C385 2.764 . S
Tb376 O386 2.325 . S
Tb376 O389 2.303 . S
Tb376 O393 2.322 1_455 S
Tb376 O394 2.349 . S
Tb376 O397 2.415 . S
Tb376 O398 2.399 . S
Tb377 O387 2.322 1_655 S
Tb377 O388 2.349 . S
Tb377 O390 2.415 1_556 S
Tb377 O391 2.399 . S
Tb377 O392 2.325 . S
Tb377 O395 2.303 . S
Tb377 C406 2.764 1_556 S
C378 O394 1.261 . S
C378 O395 1.257 1_455 S
C379 C382 1.358 . S
C379 C383 1.332 . S
C379 C385 1.504 . S
C380 C381 1.373 . S
C380 C384 1.308 . S
C381 C380 1.373 . S
C381 C382 1.429 . S
C381 H408 0.932 . S
C382 C379 1.358 . S
C382 C381 1.429 . S
C382 H409 0.930 . S
C383 C379 1.332 . S
C383 C384 1.394 . S
C383 H410 0.932 . S
C384 C380 1.308 . S
C384 C383 1.394 . S
C384 H411 0.929 . S
C385 Tb376 2.764 . S
C385 C379 1.504 . S
C385 O397 1.239 . S
C385 O398 1.263 . S
O386 Tb376 2.325 . S
O386 C396 1.236 . S
O387 Tb377 2.322 1_455 S
O387 C396 1.257 . S
O388 Tb377 2.349 . S
O388 C399 1.261 . S
O389 Tb376 2.303 . S
O389 C399 1.257 1_455 S
O390 Tb377 2.415 1_554 S
O390 C406 1.239 . S
O391 Tb377 2.399 . S
O391 C406 1.263 1_556 S
O392 Tb377 2.325 . S
O392 C407 1.236 . S
O393 Tb376 2.322 1_655 S
O393 C407 1.257 . S
O394 Tb376 2.349 . S
O394 C378 1.261 . S
O395 Tb377 2.303 . S
O395 C378 1.257 1_655 S
C396 O386 1.236 . S
C396 O387 1.257 . S
O397 Tb376 2.415 . S
O397 C385 1.239 . S
O398 Tb376 2.399 . S
O398 C385 1.263 . S
C399 O388 1.261 . S
C399 O389 1.257 1_655 S
C400 C403 1.358 . S
C400 C404 1.332 . S
C400 C406 1.504 . S
C401 C402 1.373 . S
C401 C405 1.308 . S
C402 C401 1.373 . S
C402 C403 1.429 . S
C402 H412 0.932 . S
C403 C400 1.358 . S
C403 C402 1.429 . S
C403 H413 0.930 . S
C404 C400 1.332 . S
C404 C405 1.394 . S
C404 H414 0.932 . S
C405 C401 1.308 . S
C405 C404 1.394 . S
C405 H415 0.929 . S
C406 Tb377 2.764 1_554 S
C406 O390 1.239 . S
C406 O391 1.263 1_554 S
C406 C400 1.504 . S
C407 O392 1.236 . S
C407 O393 1.257 . S
H408 C381 0.932 . S
H409 C382 0.930 . S
H410 C383 0.932 . S
H411 C384 0.929 . S
H412 C402 0.932 . S
H413 C403 0.930 . S
H414 C404 0.932 . S
H415 C405 0.929 . S
C416 C417 1.357 1_565 S
C416 H420 0.950 . S
C416 C425 1.390 . S
C417 C416 1.357 1_545 S
C417 C419 1.411 . S
H418 C425 0.950 . S
C419 C417 1.411 . S
C419 C421 1.390 . S
C419 H423 0.950 . S
H420 C416 0.950 . S
C421 C419 1.390 . S
C421 C422 1.387 . S
C421 H424 0.950 . S
C422 C421 1.387 . S
C422 C425 1.387 1_545 S
H423 C419 0.950 . S
H424 C421 0.950 . S
C425 C416 1.390 . S
C425 H418 0.950 . S
C425 C422 1.387 1_565 S
C426 C427 1.387 . S
C426 H430 0.950 . S
C426 C435 1.390 . S
C427 C426 1.387 . S
C427 C429 1.387 . S
H428 C435 0.950 . S
C429 C427 1.387 . S
C429 C431 1.390 . S
C429 H433 0.950 . S
H430 C426 0.950 . S
C431 C429 1.390 . S
C431 C432 1.387 . S
C431 H434 0.950 . S
C432 C431 1.387 . S
C432 C435 1.387 . S
H433 C429 0.950 . S
H434 C431 0.950 . S
C435 C426 1.390 . S
C435 H428 0.950 . S
C435 C432 1.387 . S
C436 C437 1.387 . S
C436 H440 0.950 . S
C436 C445 1.390 . S
C437 C436 1.387 . S
C437 C439 1.387 . S
H438 C445 0.950 . S
C439 C437 1.387 . S
C439 C441 1.390 . S
C439 H443 0.950 . S
H440 C436 0.950 . S
C441 C439 1.390 . S
C441 C442 1.387 . S
C441 H444 0.950 . S
C442 C441 1.387 . S
C442 C445 1.387 . S
H443 C439 0.950 . S
H444 C441 0.950 . S
C445 C436 1.390 . S
C445 H438 0.950 . S
C445 C442 1.387 . S
C446 C447 1.374 1_655 S
C446 H450 0.950 . S
C446 C455 1.390 . S
C447 C446 1.374 1_455 S
C447 C449 1.401 . S
H448 C455 0.950 . S
C449 C447 1.401 . S
C449 C451 1.390 . S
C449 H453 0.950 . S
H450 C446 0.950 . S
C451 C449 1.390 . S
C451 C452 1.387 . S
C451 H454 0.950 . S
C452 C451 1.387 . S
C452 C455 1.387 1_455 S
H453 C449 0.950 . S
H454 C451 0.950 . S
C455 C446 1.390 . S
C455 H448 0.950 . S
C455 C452 1.387 1_655 S
C456 C457 1.379 1_545 S
C456 H460 0.950 . S
C456 C465 1.390 . S
C457 C456 1.379 1_565 S
C457 C459 1.391 . S
H458 C465 0.950 . S
C459 C457 1.391 . S
C459 C461 1.390 . S
C459 H463 0.950 . S
H460 C456 0.950 . S
C461 C459 1.390 . S
C461 C462 1.387 . S
C461 H464 0.950 . S
C462 C461 1.387 . S
C462 C465 1.387 1_565 S
H463 C459 0.950 . S
H464 C461 0.950 . S
C465 C456 1.390 . S
C465 H458 0.950 . S
C465 C462 1.387 1_545 S
C466 C467 1.387 . S
C466 H470 0.950 1_556 S
C466 C475 1.390 . S
C467 C466 1.387 . S
C467 C469 1.387 . S
H468 C475 0.950 . S
C469 C467 1.387 . S
C469 C471 1.390 . S
C469 H473 0.950 . S
H470 C466 0.950 1_554 S
C471 C469 1.390 . S
C471 C472 1.387 . S
C471 H474 0.950 . S
C472 C471 1.387 . S
C472 C475 1.387 . S
H473 C469 0.950 . S
H474 C471 0.950 . S
C475 C466 1.390 . S
C475 H468 0.950 . S
C475 C472 1.387 . S
C476 C477 1.387 . S
C476 H480 0.950 . S
C476 C485 1.390 . S
C477 C476 1.387 . S
C477 C479 1.387 . S
H478 C485 0.950 . S
C479 C477 1.387 . S
C479 C481 1.390 . S
C479 H483 0.950 . S
H480 C476 0.950 . S
C481 C479 1.390 . S
C481 C482 1.387 . S
C481 H484 0.950 . S
C482 C481 1.387 . S
C482 C485 1.387 . S
H483 C479 0.950 . S
H484 C481 0.950 . S
C485 C476 1.390 . S
C485 H478 0.950 . S
C485 C482 1.387 . S
C486 C487 1.371 1_455 S
C486 H490 0.950 . S
C486 C495 1.390 . S
C487 C486 1.371 1_655 S
C487 C489 1.404 . S
H488 C495 0.950 . S
C489 C487 1.404 . S
C489 C491 1.390 . S
C489 H493 0.950 . S
H490 C486 0.950 . S
C491 C489 1.390 . S
C491 C492 1.387 . S
C491 H494 0.950 . S
C492 C491 1.387 . S
C492 C495 1.387 1_655 S
H493 C489 0.950 . S
H494 C491 0.950 . S
C495 C486 1.390 . S
C495 H488 0.950 . S
C495 C492 1.387 1_455 S
C496 C497 1.387 . S
C496 H500 0.950 1_655 S
C496 C505 1.390 . S
C497 C496 1.387 . S
C497 C499 1.387 . S
H498 C505 0.950 . S
C499 C497 1.387 . S
C499 C501 1.390 . S
C499 H503 0.950 . S
H500 C496 0.950 1_455 S
C501 C499 1.390 . S
C501 C502 1.387 . S
C501 H504 0.950 . S
C502 C501 1.387 . S
C502 C505 1.387 . S
H503 C499 0.950 . S
H504 C501 0.950 . S
C505 C496 1.390 . S
C505 H498 0.950 . S
C505 C502 1.387 . S
C506 C507 1.387 . S
C506 H510 0.950 . S
C506 C515 1.390 1_545 S
C507 C506 1.387 . S
C507 C509 1.387 1_545 S
H508 C515 0.949 1_545 S
C509 C507 1.387 1_565 S
C509 C511 1.390 . S
C509 H513 0.950 . S
H510 C506 0.950 . S
C511 C509 1.390 . S
C511 C512 1.387 . S
C511 H514 0.950 . S
C512 C511 1.387 . S
C512 C515 1.387 . S
H513 C509 0.950 . S
H514 C511 0.950 . S
C515 C506 1.390 1_565 S
C515 H508 0.949 1_565 S
C515 C512 1.387 . S
C516 C517 1.387 . S
C516 H520 0.950 . S
C516 C525 1.390 . S
C517 C516 1.387 . S
C517 C519 1.387 . S
H518 C525 0.950 . S
C519 C517 1.387 . S
C519 C521 1.390 . S
C519 H523 0.950 1_556 S
H520 C516 0.950 . S
C521 C519 1.390 . S
C521 C522 1.387 . S
C521 H524 0.950 . S
C522 C521 1.387 . S
C522 C525 1.387 . S
H523 C519 0.950 1_554 S
H524 C521 0.950 . S
C525 C516 1.390 . S
C525 H518 0.950 . S
C525 C522 1.387 . S
C526 C527 1.387 . S
C526 H530 0.950 . S
C526 C535 1.390 . S
C527 C526 1.387 . S
C527 C529 1.387 . S
H528 C535 0.950 . S
C529 C527 1.387 . S
C529 C531 1.390 . S
C529 H533 0.950 . S
H530 C526 0.950 . S
C531 C529 1.390 . S
C531 C532 1.387 . S
C531 H534 0.950 . S
C532 C531 1.387 . S
C532 C535 1.387 . S
H533 C529 0.950 . S
H534 C531 0.950 . S
C535 C526 1.390 . S
C535 H528 0.950 . S
C535 C532 1.387 . S
C536 C537 1.387 . S
C536 H540 0.950 . S
C536 C545 1.390 . S
C537 C536 1.387 . S
C537 C539 1.394 . S
H538 C545 0.950 . S
C539 C537 1.394 . S
C539 C541 1.413 . S
C539 H543 0.921 1_455 S
H540 C536 0.950 . S
C541 C539 1.413 . S
C541 C542 1.387 . S
C541 H544 0.950 . S
C542 C541 1.387 . S
C542 C545 1.387 . S
H543 C539 0.921 1_655 S
H544 C541 0.950 . S
C545 C536 1.390 . S
C545 H538 0.950 . S
C545 C542 1.387 . S
C546 C547 1.387 1_545 S
C546 H550 0.950 . S
C546 C555 1.390 . S
C547 C546 1.387 1_565 S
C547 C549 1.387 . S
H548 C555 0.950 . S
C549 C547 1.387 . S
C549 C551 1.390 1_565 S
C549 H553 0.950 . S
H550 C546 0.950 . S
C551 C549 1.390 1_545 S
C551 C552 1.387 . S
C551 H554 0.950 1_545 S
C552 C551 1.387 . S
C552 C555 1.387 . S
H553 C549 0.950 . S
H554 C551 0.950 1_565 S
C555 C546 1.390 . S
C555 H548 0.950 . S
C555 C552 1.387 . S
C556 C557 1.387 . S
C556 H560 0.950 . S
C556 C565 1.390 . S
C557 C556 1.387 . S
C557 C559 1.387 . S
H558 C565 0.950 . S
C559 C557 1.387 . S
C559 C561 1.390 . S
C559 H563 0.950 . S
H560 C556 0.950 . S
C561 C559 1.390 . S
C561 C562 1.387 . S
C561 H564 0.950 . S
C562 C561 1.387 . S
C562 C565 1.387 . S
H563 C559 0.950 . S
H564 C561 0.950 . S
C565 C556 1.390 . S
C565 H558 0.950 . S
C565 C562 1.387 . S
C566 C567 1.387 . S
C566 H570 0.950 . S
C566 C575 1.390 . S
C567 C566 1.387 . S
C567 C569 1.387 . S
H568 C575 0.950 . S
C569 C567 1.387 . S
C569 C571 1.390 . S
C569 H573 0.950 . S
H570 C566 0.950 . S
C571 C569 1.390 . S
C571 C572 1.387 . S
C571 H574 0.950 . S
C572 C571 1.387 . S
C572 C575 1.387 . S
H573 C569 0.950 . S
H574 C571 0.950 . S
C575 C566 1.390 . S
C575 H568 0.950 . S
C575 C572 1.387 . S
C576 C577 1.387 . S
C576 H580 0.950 . S
C576 C585 1.390 . S
C577 C576 1.387 . S
C577 C579 1.387 1_455 S
H578 C585 0.950 . S
C579 C577 1.387 1_655 S
C579 C581 1.390 . S
C579 H583 0.950 1_556 S
H580 C576 0.950 . S
C581 C579 1.390 . S
C581 C582 1.387 1_655 S
C581 H584 0.950 1_556 S
C582 C581 1.387 1_455 S
C582 C585 1.387 . S
H583 C579 0.950 1_554 S
H584 C581 0.950 1_554 S
C585 C576 1.390 . S
C585 H578 0.950 . S
C585 C582 1.387 . S
C586 C587 1.387 1_565 S
C586 H590 0.950 . S
C586 C595 1.390 . S
C587 C586 1.387 1_545 S
C587 C589 1.387 . S
H588 C595 0.950 . S
C589 C587 1.387 . S
C589 C591 1.390 . S
C589 H593 0.950 . S
H590 C586 0.950 . S
C591 C589 1.390 . S
C591 C592 1.387 . S
C591 H594 0.950 . S
C592 C591 1.387 . S
C592 C595 1.387 1_545 S
H593 C589 0.950 . S
H594 C591 0.950 . S
C595 C586 1.390 . S
C595 H588 0.950 . S
C595 C592 1.387 1_565 S
C596 C597 1.387 . S
C596 H600 0.950 . S
C596 C605 1.390 . S
C597 C596 1.387 . S
C597 C599 1.387 . S
H598 C605 0.950 . S
C599 C597 1.387 . S
C599 C601 1.390 . S
C599 H603 0.950 . S
H600 C596 0.950 . S
C601 C599 1.390 . S
C601 C602 1.387 . S
C601 H604 0.950 . S
C602 C601 1.387 . S
C602 C605 1.387 . S
H603 C599 0.950 . S
H604 C601 0.950 . S
C605 C596 1.390 . S
C605 H598 0.950 . S
C605 C602 1.387 . S
C606 C607 1.387 . S
C606 H610 0.950 . S
C606 C615 1.390 . S
C607 C606 1.387 . S
C607 C609 1.387 . S
H608 C615 0.950 . S
C609 C607 1.387 . S
C609 C611 1.390 . S
C609 H613 0.950 . S
H610 C606 0.950 . S
C611 C609 1.390 . S
C611 C612 1.387 . S
C611 H614 0.950 . S
C612 C611 1.387 . S
C612 C615 1.387 . S
H613 C609 0.950 . S
H614 C611 0.950 . S
C615 C606 1.390 . S
C615 H608 0.950 . S
C615 C612 1.387 . S
C616 C617 1.387 . S
C616 H620 0.950 1_655 S
C616 C625 1.390 . S
C617 C616 1.387 . S
C617 C619 1.387 . S
H618 C625 0.950 . S
C619 C617 1.387 . S
C619 C621 1.390 . S
C619 H623 0.950 . S
H620 C616 0.950 1_455 S
C621 C619 1.390 . S
C621 C622 1.387 . S
C621 H624 0.950 . S
C622 C621 1.387 . S
C622 C625 1.387 . S
H623 C619 0.950 . S
H624 C621 0.950 . S
C625 C616 1.390 . S
C625 H618 0.950 . S
C625 C622 1.387 . S
C626 C627 1.387 . S
C626 H630 0.950 . S
C626 C635 1.390 . S
C627 C626 1.387 . S
C627 C629 1.387 1_565 S
H628 C635 0.950 . S
C629 C627 1.387 1_545 S
C629 C631 1.390 . S
C629 H633 0.950 . S
H630 C626 0.950 . S
C631 C629 1.390 . S
C631 C632 1.387 1_545 S
C631 H634 0.950 . S
C632 C631 1.387 1_565 S
C632 C635 1.387 . S
H633 C629 0.950 . S
H634 C631 0.950 . S
C635 C626 1.390 . S
C635 H628 0.950 . S
C635 C632 1.387 . S
C636 C637 1.387 . S
C636 H640 0.950 . S
C636 C645 1.390 . S
C637 C636 1.387 . S
C637 C639 1.387 . S
H638 C645 0.950 . S
C639 C637 1.387 . S
C639 C641 1.390 . S
C639 H643 0.950 . S
H640 C636 0.950 . S
C641 C639 1.390 . S
C641 C642 1.387 . S
C641 H644 0.950 . S
C642 C641 1.387 . S
C642 C645 1.387 . S
H643 C639 0.950 . S
H644 C641 0.950 . S
C645 C636 1.390 . S
C645 H638 0.950 . S
C645 C642 1.387 . S
C646 C647 1.387 . S
C646 H650 0.950 . S
C646 C655 1.390 . S
C647 C646 1.387 . S
C647 C649 1.387 . S
H648 C655 0.950 . S
C649 C647 1.387 . S
C649 C651 1.390 . S
C649 H653 0.950 . S
H650 C646 0.950 . S
C651 C649 1.390 . S
C651 C652 1.387 . S
C651 H654 0.950 . S
C652 C651 1.387 . S
C652 C655 1.387 . S
H653 C649 0.950 . S
H654 C651 0.950 . S
C655 C646 1.390 . S
C655 H648 0.950 . S
C655 C652 1.387 . S
C417 C215 2.420 . S
C422 C279 2.682 1_545 S
C432 C319 1.739 . S
C427 C247 1.736 . S
C442 C338 2.728 . S
C437 C151 2.516 . S
C452 C399 1.970 1_455 S
C447 C183 1.760 . S
C462 C258 2.681 1_564 S
C457 C87 2.421 1_565 S
C467 C119 1.607 . S
C472 C298 1.743 . S
C477 C23 2.402 . S
C482 C359 2.729 1_554 S
C487 C55 1.756 1_655 S
C492 C378 1.968 1_654 S
C502 C260 1.082 . S
C497 C189 1.230 1_655 S
C512 C300 0.596 . S
C507 C221 0.467 . S
C522 C356 1.483 . S
C517 C253 1.410 . S
C527 C157 0.795 . S
C532 C380 0.775 . S
C537 C61 1.052 . S
C542 C281 1.085 . S
C552 C321 0.595 . S
C547 C93 0.662 1_565 S
C562 C367 1.488 . S
C557 C125 1.163 . S
C567 C29 0.756 . S
C572 C401 0.773 . S
C577 C177 2.177 . S
C582 C276 2.517 . S
C587 C209 2.828 . S
C592 C316 3.189 . S
C602 C340 1.928 . S
C597 C241 1.895 . S
C612 C396 3.174 . S
C607 C145 2.843 . S
C617 C49 2.228 1_655 S
C622 C287 2.524 . S
C632 C327 3.189 . S
C627 C81 2.847 1_565 S
C642 C361 1.930 . S
C637 C113 1.979 . S
C647 C17 2.820 . S
C652 C407 3.179 . S
