# Generated by pormake.
# Topology pyr, (3,6)-cn, num edge types: 1
# Building blocks:
#     Node 0, Type 0, BuildingBlock: BETDIP_clean_linker_0, # of connection points: 3
#     Node 1, Type 0, BuildingBlock: BETDIP_clean_linker_0, # of connection points: 3
#     Node 2, Type 0, BuildingBlock: BETDIP_clean_linker_0, # of connection points: 3
#     Node 3, Type 0, BuildingBlock: BETDIP_clean_linker_0, # of connection points: 3
#     Node 4, Type 0, BuildingBlock: BETDIP_clean_linker_0, # of connection points: 3
#     Node 5, Type 0, BuildingBlock: BETDIP_clean_linker_0, # of connection points: 3
#     Node 6, Type 0, BuildingBlock: BETDIP_clean_linker_0, # of connection points: 3
#     Node 7, Type 0, BuildingBlock: BETDIP_clean_linker_0, # of connection points: 3
#     Node 8, Type 1, BuildingBlock: PAMTUU_clean_sbu_0, # of connection points: 6
#     Node 9, Type 1, BuildingBlock: PAMTUU_clean_sbu_0, # of connection points: 6
#     Node 10, Type 1, BuildingBlock: PAMTUU_clean_sbu_0, # of connection points: 6
#     Node 11, Type 1, BuildingBlock: PAMTUU_clean_sbu_0, # of connection points: 6
#     Edge 12, Type (0, 1), BuildingBlock: MIFKUJ_clean_linker_0, # of connection points: 2
#     Edge 13, Type (0, 1), BuildingBlock: MIFKUJ_clean_linker_0, # of connection points: 2
#     Edge 14, Type (0, 1), BuildingBlock: MIFKUJ_clean_linker_0, # of connection points: 2
#     Edge 15, Type (0, 1), BuildingBlock: MIFKUJ_clean_linker_0, # of connection points: 2
#     Edge 16, Type (0, 1), BuildingBlock: MIFKUJ_clean_linker_0, # of connection points: 2
#     Edge 17, Type (0, 1), BuildingBlock: MIFKUJ_clean_linker_0, # of connection points: 2
#     Edge 18, Type (0, 1), BuildingBlock: MIFKUJ_clean_linker_0, # of connection points: 2
#     Edge 19, Type (0, 1), BuildingBlock: MIFKUJ_clean_linker_0, # of connection points: 2
#     Edge 20, Type (0, 1), BuildingBlock: MIFKUJ_clean_linker_0, # of connection points: 2
#     Edge 21, Type (0, 1), BuildingBlock: MIFKUJ_clean_linker_0, # of connection points: 2
#     Edge 22, Type (0, 1), BuildingBlock: MIFKUJ_clean_linker_0, # of connection points: 2
#     Edge 23, Type (0, 1), BuildingBlock: MIFKUJ_clean_linker_0, # of connection points: 2
#     Edge 24, Type (0, 1), BuildingBlock: MIFKUJ_clean_linker_0, # of connection points: 2
#     Edge 25, Type (0, 1), BuildingBlock: MIFKUJ_clean_linker_0, # of connection points: 2
#     Edge 26, Type (0, 1), BuildingBlock: MIFKUJ_clean_linker_0, # of connection points: 2
#     Edge 27, Type (0, 1), BuildingBlock: MIFKUJ_clean_linker_0, # of connection points: 2
#     Edge 28, Type (0, 1), BuildingBlock: MIFKUJ_clean_linker_0, # of connection points: 2
#     Edge 29, Type (0, 1), BuildingBlock: MIFKUJ_clean_linker_0, # of connection points: 2
#     Edge 30, Type (0, 1), BuildingBlock: MIFKUJ_clean_linker_0, # of connection points: 2
#     Edge 31, Type (0, 1), BuildingBlock: MIFKUJ_clean_linker_0, # of connection points: 2
#     Edge 32, Type (0, 1), BuildingBlock: MIFKUJ_clean_linker_0, # of connection points: 2
#     Edge 33, Type (0, 1), BuildingBlock: MIFKUJ_clean_linker_0, # of connection points: 2
#     Edge 34, Type (0, 1), BuildingBlock: MIFKUJ_clean_linker_0, # of connection points: 2
#     Edge 35, Type (0, 1), BuildingBlock: MIFKUJ_clean_linker_0, # of connection points: 2
# Relax obj value: 0.092
# Max RMSD: 0.160
# Mean RMSD: 0.130
data_MOF--net-pyr--node1-PAMTUU_clean_sbu_0--node2-BETDIP_clean_linker_0--edge1-MIFKUJ_clean_linker_0
_symmetry_space_group_name_H-M    P1
_symmetry_Int_Tables_number       1
_symmetry_cell_setting            triclinic
loop_
_symmetry_equiv_pos_as_xyz
'x, y, z'
_cell_length_a     49.363235
_cell_length_b     49.7204
_cell_length_c     50.253103
_cell_angle_alpha  92.249227
_cell_angle_beta   86.720664
_cell_angle_gamma 104.96943
loop_
_atom_site_label
_atom_site_type_symbol
_atom_site_fract_x
_atom_site_fract_y
_atom_site_fract_z
_atom_type_partial_charge
H0 H 0.28752 0.28803 0.2077 0.0
H1 H 0.34609 0.27991 0.14319 0.0
H2 H 0.31961 0.2153 0.20074 0.0
H3 H 0.31329 0.30042 0.1224 0.0
C4 C 0.30828 0.31501 0.13735 0.0
C5 C 0.30121 0.27644 0.19783 0.0
C6 C 0.30158 0.25032 0.20709 0.0
C7 C 0.31665 0.28689 0.1746 0.0
C8 C 0.33393 0.27179 0.16109 0.0
C9 C 0.33508 0.2459 0.17055 0.0
C10 C 0.31875 0.23528 0.19343 0.0
N11 N 0.3128 0.31178 0.16454 0.0
H12 H 0.19894 0.80835 0.72742 0.0
H13 H 0.18743 0.74974 0.66112 0.0
H14 H 0.24575 0.74658 0.72068 0.0
H15 H 0.14617 0.76284 0.65793 0.0
C16 C 0.15166 0.78461 0.66431 0.0
C17 C 0.20352 0.79029 0.7172 0.0
C18 C 0.22331 0.77809 0.72711 0.0
C19 C 0.18988 0.77982 0.69392 0.0
C20 C 0.19672 0.75717 0.67989 0.0
C21 C 0.21668 0.7448 0.68965 0.0
C22 C 0.22945 0.75512 0.71356 0.0
N23 N 0.17128 0.79426 0.68432 0.0
H24 H 0.69945 0.40672 0.83093 0.0
H25 H 0.62874 0.33471 0.8271 0.0
H26 H 0.68845 0.34231 0.88806 0.0
H27 H 0.62785 0.35023 0.7835 0.0
C28 C 0.63447 0.37282 0.7845 0.0
C29 C 0.68773 0.3869 0.83879 0.0
C30 C 0.69806 0.37572 0.86047 0.0
C31 C 0.66273 0.37255 0.82643 0.0
C32 C 0.64774 0.34604 0.83635 0.0
C33 C 0.65723 0.3343 0.8584 0.0
C34 C 0.68193 0.34997 0.8703 0.0
N35 N 0.65333 0.38593 0.80482 0.0
H36 H 0.82867 0.62767 0.3488 0.0
H37 H 0.89186 0.70434 0.3363 0.0
H38 H 0.83655 0.6948 0.40663 0.0
H39 H 0.88641 0.6895 0.29257 0.0
C40 C 0.88462 0.66734 0.29376 0.0
C41 C 0.83898 0.64864 0.35546 0.0
C42 C 0.82981 0.65957 0.37943 0.0
C43 C 0.86123 0.66461 0.33978 0.0
C44 C 0.87461 0.69189 0.34829 0.0
C45 C 0.86576 0.70312 0.3724 0.0
C46 C 0.84353 0.68658 0.38793 0.0
N47 N 0.86996 0.6523 0.31593 0.0
H48 H 0.67276 0.7737 0.89887 0.0
H49 H 0.73407 0.7618 0.83835 0.0
H50 H 0.69695 0.83036 0.83379 0.0
H51 H 0.7122 0.71428 0.85013 0.0
C52 C 0.71589 0.71923 0.8711 0.0
C53 C 0.68452 0.77985 0.88025 0.0
C54 C 0.68231 0.80383 0.86748 0.0
C55 C 0.70259 0.76417 0.86954 0.0
C56 C 0.71905 0.77294 0.84618 0.0
C57 C 0.71699 0.79671 0.83325 0.0
C58 C 0.6983 0.8118 0.84372 0.0
N59 N 0.70575 0.74105 0.88367 0.0
H60 H 0.8345 0.23314 0.32304 0.0
H61 H 0.81152 0.27808 0.39191 0.0
H62 H 0.76509 0.26993 0.32077 0.0
H63 H 0.88043 0.25193 0.34281 0.0
C64 C 0.87176 0.24325 0.36193 0.0
C65 C 0.82172 0.24588 0.3325 0.0
C66 C 0.79967 0.25088 0.31876 0.0
C67 C 0.82643 0.25624 0.35874 0.0
C68 C 0.80855 0.27114 0.37132 0.0
C69 C 0.78632 0.27618 0.35775 0.0
C70 C 0.78239 0.2664 0.33131 0.0
N71 N 0.84723 0.24958 0.37368 0.0
H72 H 0.31938 0.63697 0.2108 0.0
H73 H 0.38895 0.71023 0.21546 0.0
H74 H 0.3279 0.70294 0.15575 0.0
H75 H 0.3942 0.69383 0.25638 0.0
C76 C 0.38543 0.67146 0.25685 0.0
C77 C 0.33058 0.65729 0.20363 0.0
C78 C 0.32039 0.66822 0.18175 0.0
C79 C 0.35535 0.67194 0.21619 0.0
C80 C 0.36999 0.6986 0.20634 0.0
C81 C 0.36005 0.71039 0.1846 0.0
C82 C 0.3355 0.69459 0.17259 0.0
N83 N 0.3648 0.65869 0.23788 0.0
H84 H 0.12617 0.32743 0.7092 0.0
H85 H 0.19044 0.40323 0.69478 0.0
H86 H 0.18864 0.33107 0.64502 0.0
H87 H 0.1817 0.41364 0.73613 0.0
C88 C 0.16002 0.40344 0.74163 0.0
C89 C 0.1445 0.33891 0.69775 0.0
C90 C 0.15585 0.32579 0.67618 0.0
C91 C 0.15718 0.36661 0.7052 0.0
C92 C 0.18076 0.38161 0.69008 0.0
C93 C 0.19241 0.36867 0.66871 0.0
C94 C 0.17993 0.34083 0.66193 0.0
N95 N 0.14579 0.37864 0.72797 0.0
Tb96 Tb 0.04083 0.02263 0.49718 0.0
Tb97 Tb 0.98493 0.01336 0.5386 0.0
C98 C 0.98877 0.97016 0.49287 0.0
C99 C 0.10131 0.05281 0.44981 0.0
C100 C 0.13326 0.09397 0.41581 0.0
C101 C 0.13979 0.06819 0.41728 0.0
C102 C 0.12391 0.04777 0.43414 0.0
C103 C 0.09527 0.07885 0.44926 0.0
C104 C 0.11123 0.09938 0.43239 0.0
C105 C 0.08304 0.02993 0.46487 0.0
O106 O 0.01975 0.05394 0.48758 0.0
O107 O 0.97525 0.03128 0.50265 0.0
O108 O 0.0089 0.05619 0.54363 0.0
O109 O 0.0525 0.05072 0.53134 0.0
O110 O 0.94128 1.00059 0.5459 0.0
O111 O 0.96872 0.02014 0.57708 0.0
O112 O 0.01469 0.99559 0.55766 0.0
O113 O 0.04201 0.9878 0.52095 0.0
O114 O 0.0082 0.98925 0.48031 0.0
O115 O 0.98019 0.97371 0.51763 0.0
C116 C 0.99245 0.05042 0.48809 0.0
O117 O 0.08469 0.03138 0.4907 0.0
O118 O 0.05713 0.02226 0.45786 0.0
C119 C 0.03629 0.06463 0.54413 0.0
C120 C 0.92785 0.98614 0.5903 0.0
C121 C 0.89808 0.94724 0.62771 0.0
C122 C 0.90923 0.9752 0.63547 0.0
C123 C 0.92386 0.99446 0.6169 0.0
C124 C 0.91703 0.95811 0.58251 0.0
C125 C 0.90212 0.93885 0.60106 0.0
C126 C 0.94318 1.00716 0.57125 0.0
C127 C 0.03327 0.98365 0.54595 0.0
H128 H 0.15692 0.06363 0.40504 0.0
H129 H 0.1288 0.02776 0.4344 0.0
H130 H 0.07774 0.08295 0.46124 0.0
H131 H 0.10565 0.119 0.43153 0.0
H132 H 0.90612 0.9823 0.65579 0.0
H133 H 0.93197 0.01598 0.6233 0.0
H134 H 0.91998 0.95108 0.56213 0.0
H135 H 0.89388 0.91738 0.59464 0.0
Tb136 Tb 0.53583 0.02966 0.04004 0.0
Tb137 Tb 0.48028 0.01552 1.00415 0.0
C138 C 0.53077 0.99045 0.98987 0.0
C139 C 0.5972 0.05964 0.08368 0.0
C140 C 0.63643 0.09669 0.11541 0.0
C141 C 0.64 0.09688 0.08747 0.0
C142 C 0.62064 0.07845 0.07175 0.0
C143 C 0.59324 0.06005 0.11158 0.0
C144 C 0.61257 0.07845 0.12726 0.0
C145 C 0.5786 0.03771 0.06758 0.0
O146 O 0.54102 0.06873 0.01927 0.0
O147 O 0.50929 0.05298 0.98668 0.0
O148 O 0.47283 0.04742 0.03169 0.0
O149 O 0.50785 0.05144 0.06145 0.0
O150 O 0.46598 0.01325 0.96559 0.0
O151 O 0.43661 1.00339 0.99957 0.0
O152 O 0.46845 0.98599 0.03687 0.0
O153 O 0.5125 0.98657 0.04942 0.0
O154 O 0.54672 0.01207 1.00195 0.0
O155 O 0.50343 0.98494 0.9928 0.0
C156 C 0.53003 0.0724 0.99681 0.0
O157 O 0.55293 0.02776 0.07699 0.0
O158 O 0.5797 0.04079 0.04187 0.0
C159 C 0.48501 0.05729 0.05381 0.0
C160 C 0.42425 0.97799 0.95929 0.0
C161 C 0.39324 0.93352 0.9283 0.0
C162 C 0.3795 0.94733 0.94744 0.0
C163 C 0.39491 0.96953 0.96271 0.0
C164 C 0.43808 0.96327 0.94101 0.0
C165 C 0.42266 0.94134 0.92553 0.0
C166 C 0.43987 1.0031 0.97364 0.0
C167 C 0.48522 0.97497 0.04988 0.0
H168 H 0.65832 0.11053 0.07778 0.0
H169 H 0.62452 0.07841 0.05032 0.0
H170 H 0.57557 0.04563 0.12139 0.0
H171 H 0.60904 0.0781 0.14873 0.0
H172 H 0.35679 0.94177 0.94976 0.0
H173 H 0.38385 0.9806 0.97667 0.0
H174 H 0.46074 0.96911 0.93811 0.0
H175 H 0.43369 0.9308 0.91102 0.0
Tb176 Tb 0.50777 0.49341 0.50397 0.0
Tb177 Tb 0.5075 0.55008 0.53943 0.0
C178 C 0.48753 0.54359 0.47962 0.0
C179 C 0.53049 0.43568 0.46946 0.0
C180 C 0.5737 0.4093 0.45593 0.0
C181 C 0.55121 0.40657 0.43913 0.0
C182 C 0.52978 0.41963 0.44589 0.0
C183 C 0.5528 0.43849 0.48634 0.0
C184 C 0.57415 0.42531 0.4797 0.0
C185 C 0.50877 0.45064 0.47555 0.0
O186 O 0.54949 0.52033 0.49688 0.0
O187 O 0.55133 0.55734 0.52676 0.0
O188 O 0.5202 0.52212 0.56693 0.0
O189 O 0.53119 0.48853 0.53864 0.0
O190 O 0.51413 0.59342 0.54505 0.0
O191 O 0.49602 0.56529 0.57669 0.0
O192 O 0.46413 0.52707 0.53522 0.0
O193 O 0.47085 0.48349 0.53074 0.0
O194 O 0.48447 0.51642 0.4808 0.0
O195 O 0.49989 0.56053 0.49874 0.0
C196 C 0.563 0.54353 0.5087 0.0
O197 O 0.49874 0.44984 0.50015 0.0
O198 O 0.51436 0.47568 0.46631 0.0
C199 C 0.53088 0.50039 0.56258 0.0
C200 C 0.4785 0.60422 0.57358 0.0
C201 C 0.43096 0.62431 0.5868 0.0
C202 C 0.4536 0.62987 0.60372 0.0
C203 C 0.47717 0.6199 0.59714 0.0
C204 C 0.45628 0.59913 0.55628 0.0
C205 C 0.43273 0.60925 0.56277 0.0
C206 C 0.50159 0.59081 0.56871 0.0
C207 C 0.45472 0.50009 0.53713 0.0
H208 H 0.55044 0.39483 0.42046 0.0
H209 H 0.51288 0.41755 0.43249 0.0
H210 H 0.55382 0.45104 0.50455 0.0
H211 H 0.59095 0.4276 0.49323 0.0
H212 H 0.45293 0.64169 0.62221 0.0
H213 H 0.49404 0.62379 0.6108 0.0
H214 H 0.45679 0.58666 0.53817 0.0
H215 H 0.4155 0.60442 0.54949 0.0
Tb216 Tb 0.0133 0.5525 1.00636 0.0
Tb217 Tb 0.0083 0.49191 0.03137 0.0
C218 C 0.03599 0.50798 0.97569 0.0
C219 C 0.99203 0.61131 0.98033 0.0
C220 C 0.94725 0.63232 0.96602 0.0
C221 C 0.97298 0.6388 0.95109 0.0
C222 C 0.99524 0.62841 0.95826 0.0
C223 C 0.96643 0.60498 0.99539 0.0
C224 C 0.9443 0.61555 0.9884 0.0
C225 C 0.01461 0.59856 0.98646 0.0
O226 O 0.976 0.52484 0.9885 0.0
O227 O 0.9666 0.48665 0.01544 0.0
O228 O 0.99786 0.51856 0.06357 0.0
O229 O 0.98097 0.54692 0.03803 0.0
O230 O 0.01964 0.45423 0.02645 0.0
O231 O 0.99422 0.46178 0.06085 0.0
O232 O 0.05139 0.5162 0.03906 0.0
O233 O 0.04624 0.5605 0.03552 0.0
O234 O 0.04327 0.53389 0.98428 0.0
O235 O 0.01619 0.48985 0.98858 0.0
C236 C 0.95945 0.5008 0.99645 0.0
O237 O 0.0176 0.59542 1.01169 0.0
O238 O 0.01562 0.5763 0.97226 0.0
C239 C 0.98309 0.53672 0.06121 0.0
C240 C 0.02782 0.43619 0.06625 0.0
C241 C 0.0716 0.41998 0.08948 0.0
C242 C 0.06887 0.44741 0.09304 0.0
C243 C 0.04725 0.4555 0.08137 0.0
C244 C 0.02958 0.40856 0.06377 0.0
C245 C 0.05126 0.4005 0.07525 0.0
C246 C 0.00861 0.44541 0.04964 0.0
C247 C 0.06039 0.54333 0.04347 0.0
H248 H 0.97583 0.6518 0.93383 0.0
H249 H 0.01477 0.63331 0.9463 0.0
H250 H 0.96334 0.59142 1.01226 0.0
H251 H 0.92459 0.60989 1.00003 0.0
H252 H 0.08389 0.46286 0.10417 0.0
H253 H 0.0464 0.47705 0.08323 0.0
H254 H 0.01502 0.39352 0.05179 0.0
H255 H 0.05289 0.37934 0.07167 0.0
H256 H 0.29118 0.27588 0.25452 0.0
H257 H 0.25957 0.25525 0.29194 0.0
H258 H 0.23827 0.1765 0.24876 0.0
H259 H 0.26921 0.19707 0.21118 0.0
H260 H 0.19196 0.1896 0.27247 0.0
H261 H 0.28521 0.18777 0.29658 0.0
H262 H 0.33489 0.20898 0.30554 0.0
H263 H 0.31008 0.26081 0.36764 0.0
H264 H 0.26022 0.24012 0.35879 0.0
H265 H 0.14605 0.08344 0.36381 0.0
H266 H 0.17173 0.11634 0.33077 0.0
H267 H 0.17985 0.18355 0.38917 0.0
H268 H 0.15439 0.1504 0.42272 0.0
H269 H 0.22974 0.18414 0.36095 0.0
H270 H 0.13575 0.17982 0.34133 0.0
H271 H 0.08627 0.15722 0.33276 0.0
H272 H 0.11201 0.11653 0.26248 0.0
H273 H 0.16169 0.13853 0.27085 0.0
C274 C 0.27961 0.25422 0.25298 0.0
C275 C 0.28285 0.23802 0.23003 0.0
C276 C 0.26168 0.24246 0.27438 0.0
C277 C 0.24673 0.21432 0.27314 0.0
C278 C 0.24962 0.19825 0.2501 0.0
C279 C 0.26755 0.20995 0.22878 0.0
C280 C 0.22852 0.20116 0.29598 0.0
C281 C 0.20019 0.18832 0.2918 0.0
C282 C 0.23911 0.20032 0.32142 0.0
C283 C 0.26904 0.21266 0.32681 0.0
C284 C 0.29037 0.20385 0.31199 0.0
C285 C 0.31855 0.21575 0.31708 0.0
C286 C 0.32564 0.2363 0.33709 0.0
C287 C 0.30456 0.24493 0.35211 0.0
C288 C 0.27634 0.23313 0.34708 0.0
C289 C 0.15342 0.1052 0.36969 0.0
C290 C 0.1484 0.11436 0.39587 0.0
C291 C 0.16783 0.12401 0.35072 0.0
C292 C 0.17739 0.1524 0.35747 0.0
C293 C 0.17247 0.16171 0.38359 0.0
C294 C 0.15787 0.14283 0.40264 0.0
C295 C 0.19339 0.17186 0.3372 0.0
C296 C 0.22129 0.18592 0.34182 0.0
C297 C 0.1824 0.1738 0.31215 0.0
C298 C 0.1525 0.16074 0.30681 0.0
C299 C 0.13089 0.16592 0.32413 0.0
C300 C 0.10279 0.15323 0.3193 0.0
C301 C 0.09601 0.13542 0.29711 0.0
C302 C 0.1173 0.13033 0.27966 0.0
C303 C 0.14544 0.14294 0.28442 0.0
H304 H 0.07424 0.1256 0.29342 0.0
H305 H 0.34748 0.24548 0.341 0.0
H306 H 0.22961 0.75348 0.77315 0.0
H307 H 0.2583 0.7751 0.81063 0.0
H308 H 0.28347 0.85262 0.76921 0.0
H309 H 0.25427 0.83144 0.73221 0.0
H310 H 0.32784 0.82175 0.79447 0.0
H311 H 0.24706 0.86348 0.80857 0.0
H312 H 0.19623 0.85929 0.81491 0.0
H313 H 0.1917 0.8069 0.88182 0.0
H314 H 0.24249 0.81047 0.87556 0.0
H315 H 0.39895 0.9328 0.8744 0.0
H316 H 0.36999 0.90076 0.84311 0.0
H317 H 0.32175 0.85503 0.90887 0.0
H318 H 0.35019 0.88802 0.94036 0.0
H319 H 0.28787 0.86217 0.87456 0.0
H320 H 0.36989 0.82884 0.8675 0.0
H321 H 0.4206 0.83207 0.8624 0.0
H322 H 0.42353 0.86447 0.78405 0.0
H323 H 0.37294 0.8619 0.78883 0.0
C324 C 0.24114 0.77518 0.77227 0.0
C325 C 0.23963 0.79097 0.75009 0.0
C326 C 0.25745 0.78742 0.79353 0.0
C327 C 0.27282 0.81536 0.79251 0.0
C328 C 0.2716 0.83103 0.77025 0.0
C329 C 0.25486 0.81901 0.7493 0.0
C330 C 0.2904 0.82843 0.81456 0.0
C331 C 0.3193 0.8307 0.81201 0.0
C332 C 0.27885 0.8391 0.83767 0.0
C333 C 0.2484 0.83687 0.84134 0.0
C334 C 0.23514 0.85078 0.8244 0.0
C335 C 0.20637 0.8486 0.82804 0.0
C336 C 0.19071 0.83274 0.84868 0.0
C337 C 0.20383 0.8191 0.86578 0.0
C338 C 0.23259 0.8212 0.8622 0.0
C339 C 0.38242 0.91565 0.88215 0.0
C340 C 0.37686 0.91267 0.90972 0.0
C341 C 0.36594 0.89727 0.86427 0.0
C342 C 0.34403 0.87508 0.8736 0.0
C343 C 0.33862 0.8719 0.90121 0.0
C344 C 0.35484 0.89066 0.91915 0.0
C345 C 0.32585 0.85639 0.85438 0.0
C346 C 0.29669 0.85289 0.85738 0.0
C347 C 0.33722 0.84427 0.83182 0.0
C348 C 0.36759 0.84531 0.8286 0.0
C349 C 0.38136 0.83678 0.84923 0.0
C350 C 0.4101 0.8385 0.84639 0.0
C351 C 0.42528 0.84851 0.82293 0.0
C352 C 0.41174 0.85672 0.80221 0.0
C353 C 0.38302 0.8551 0.80496 0.0
H354 H 0.44754 0.84987 0.8208 0.0
H355 H 0.16845 0.8311 0.85149 0.0
H356 H 0.61201 0.35112 0.73754 0.0
H357 H 0.5967 0.37412 0.70109 0.0
H358 H 0.62071 0.45268 0.74392 0.0
H359 H 0.63678 0.42964 0.78042 0.0
H360 H 0.56667 0.44323 0.72127 0.0
H361 H 0.65998 0.44069 0.6906 0.0
H362 H 0.69859 0.41859 0.67915 0.0
H363 H 0.64847 0.36519 0.62132 0.0
H364 H 0.60937 0.38668 0.63273 0.0
H365 H 0.54266 0.5231 0.61336 0.0
H366 H 0.56146 0.50412 0.6503 0.0
H367 H 0.56371 0.43096 0.60217 0.0
H368 H 0.54618 0.45057 0.56479 0.0
H369 H 0.60591 0.43902 0.62864 0.0
H370 H 0.51207 0.43567 0.65979 0.0
H371 H 0.47022 0.45274 0.67167 0.0
H372 H 0.51676 0.51143 0.72803 0.0
H373 H 0.55898 0.49475 0.71635 0.0
C374 C 0.61428 0.37337 0.73925 0.0
C375 C 0.62593 0.38834 0.76214 0.0
C376 C 0.60547 0.38661 0.71819 0.0
C377 C 0.60746 0.41543 0.71921 0.0
C378 C 0.6188 0.4305 0.74225 0.0
C379 C 0.62818 0.41727 0.76321 0.0
C380 C 0.59754 0.4294 0.69638 0.0
C381 C 0.57566 0.44269 0.70111 0.0
C382 C 0.60817 0.42808 0.66957 0.0
C383 C 0.63164 0.41512 0.66271 0.0
C384 C 0.65709 0.42406 0.67561 0.0
C385 C 0.67908 0.41167 0.6691 0.0
C386 C 0.67596 0.39045 0.64957 0.0
C387 C 0.65084 0.3816 0.63647 0.0
C388 C 0.62876 0.39389 0.64295 0.0
C389 C 0.5471 0.50294 0.61051 0.0
C390 C 0.54258 0.48856 0.58568 0.0
C391 C 0.55774 0.4918 0.63201 0.0
C392 C 0.56375 0.46543 0.62994 0.0
C393 C 0.55947 0.45121 0.60498 0.0
C394 C 0.54923 0.46253 0.58335 0.0
C395 C 0.57475 0.45289 0.65332 0.0
C396 C 0.59686 0.43976 0.64874 0.0
C397 C 0.56388 0.45378 0.68018 0.0
C398 C 0.53874 0.46419 0.68697 0.0
C399 C 0.51343 0.45238 0.67455 0.0
C400 C 0.48963 0.46196 0.68129 0.0
C401 C 0.49084 0.48326 0.70052 0.0
C402 C 0.51586 0.49498 0.7131 0.0
C403 C 0.53972 0.48544 0.70646 0.0
H404 H 0.47239 0.49063 0.70578 0.0
H405 H 0.69302 0.3809 0.64454 0.0
H406 H 0.90097 0.68743 0.24444 0.0
H407 H 0.91603 0.66281 0.20537 0.0
H408 H 0.90566 0.58948 0.25193 0.0
H409 H 0.89027 0.61383 0.29093 0.0
H410 H 0.95731 0.60477 0.22009 0.0
H411 H 0.85758 0.5886 0.21161 0.0
H412 H 0.81337 0.60268 0.2097 0.0
H413 H 0.84674 0.65194 0.14135 0.0
H414 H 0.89133 0.63846 0.14309 0.0
H415 H 0.97387 0.51475 0.11105 0.0
H416 H 0.95499 0.53434 0.15119 0.0
H417 H 0.94559 0.60315 0.10598 0.0
H418 H 0.96335 0.58318 0.06572 0.0
H419 H 0.90253 0.58814 0.13857 0.0
H420 H 1.00213 0.60782 0.14703 0.0
H421 H 0.04783 0.5965 0.14823 0.0
H422 H 0.01732 0.54466 0.21552 0.0
H423 H 0.97128 0.55537 0.21447 0.0
C424 C 0.90192 0.66606 0.24628 0.0
C425 C 0.89428 0.65247 0.27057 0.0
C426 C 0.91045 0.65204 0.22401 0.0
C427 C 0.91174 0.6243 0.22579 0.0
C428 C 0.90472 0.61086 0.2502 0.0
C429 C 0.89584 0.62477 0.27239 0.0
C430 C 0.92027 0.60928 0.20207 0.0
C431 C 0.94517 0.60072 0.20237 0.0
C432 C 0.90473 0.60473 0.17881 0.0
C433 C 0.87788 0.61272 0.17764 0.0
C434 C 0.85558 0.60262 0.19631 0.0
C435 C 0.83044 0.61046 0.19523 0.0
C436 C 0.82728 0.62825 0.17546 0.0
C437 C 0.84923 0.63818 0.15668 0.0
C438 C 0.87443 0.63043 0.15768 0.0
C439 C 0.96758 0.53395 0.10966 0.0
C440 C 0.97022 0.54747 0.08525 0.0
C441 C 0.95694 0.54521 0.13264 0.0
C442 C 0.94935 0.57052 0.13175 0.0
C443 C 0.95131 0.58364 0.10722 0.0
C444 C 0.96153 0.57218 0.08419 0.0
C445 C 0.93984 0.58374 0.15634 0.0
C446 C 0.9147 0.592 0.15627 0.0
C447 C 0.95544 0.58844 0.17966 0.0
C448 C 0.98318 0.58217 0.18049 0.0
C449 C 1.00511 0.59386 0.16197 0.0
C450 C 0.03108 0.58757 0.16263 0.0
C451 C 0.03545 0.56981 0.18189 0.0
C452 C 0.01388 0.55838 0.20058 0.0
C453 C 0.98786 0.56456 0.19997 0.0
H454 H 0.05556 0.56496 0.18238 0.0
H455 H 0.80779 0.6343 0.17466 0.0
H456 H 0.31851 0.19221 0.15287 0.0
H457 H 0.34811 0.16284 0.13441 0.0
H458 H 0.42121 0.2324 0.13932 0.0
H459 H 0.39128 0.26217 0.15708 0.0
H460 H 0.42547 0.20212 0.09524 0.0
H461 H 0.40533 0.18257 0.18719 0.0
H462 H 0.37574 0.17126 0.22849 0.0
H463 H 0.3323 0.09296 0.19345 0.0
H464 H 0.36132 0.10399 0.15176 0.0
H465 H 0.51209 0.10407 0.08151 0.0
H466 H 0.49065 0.13906 0.10382 0.0
H467 H 0.4085 0.08882 0.08503 0.0
H468 H 0.42972 0.0544 0.06217 0.0
H469 H 0.41517 0.1126 0.14016 0.0
H470 H 0.43327 0.13632 0.04645 0.0
H471 H 0.46436 0.14801 1.0061 0.0
H472 H 0.51443 0.21956 0.04692 0.0
H473 H 0.4839 0.20796 0.08771 0.0
C474 C 0.34087 0.20126 0.14974 0.0
C475 C 0.35273 0.22931 0.1566 0.0
C476 C 0.35778 0.18447 0.13933 0.0
C477 C 0.387 0.19521 0.13618 0.0
C478 C 0.39876 0.22361 0.1418 0.0
C479 C 0.3817 0.24059 0.15188 0.0
C480 C 0.40508 0.17637 0.12787 0.0
C481 C 0.42359 0.18281 0.10538 0.0
C482 C 0.40269 0.15112 0.14108 0.0
C483 C 0.38541 0.1442 0.16626 0.0
C484 C 0.38936 0.16301 0.18822 0.0
C485 C 0.37269 0.15665 0.21171 0.0
C486 C 0.35212 0.13143 0.21358 0.0
C487 C 0.34824 0.11249 0.19197 0.0
C488 C 0.36481 0.11877 0.16841 0.0
C489 C 0.48945 0.10039 0.08255 0.0
C490 C 0.4725 0.07665 0.07014 0.0
C491 C 0.47729 0.12037 0.09514 0.0
C492 C 0.44805 0.11646 0.09591 0.0
C493 C 0.43109 0.09214 0.08461 0.0
C494 C 0.44323 0.07257 0.07154 0.0
C495 C 0.43486 0.13812 0.10731 0.0
C496 C 0.41732 0.13216 0.13037 0.0
C497 C 0.43842 0.16389 0.09485 0.0
C498 C 0.45654 0.17105 0.07024 0.0
C499 C 0.45108 0.15438 0.04692 0.0
C500 C 0.46857 0.16101 0.02395 0.0
C501 C 0.49142 0.18446 0.02397 0.0
C502 C 0.49676 0.20137 0.04695 0.0
C503 C 0.47938 0.19477 0.07 0.0
H504 H 0.50494 0.18956 1.00617 0.0
H505 H 0.33923 0.12655 0.23178 0.0
H506 H 0.10581 0.77178 0.63406 0.0
H507 H 0.08168 0.80411 0.61624 0.0
H508 H 0.1412 0.87335 0.65216 0.0
H509 H 0.16461 0.84129 0.67059 0.0
H510 H 0.09179 0.88196 0.65848 0.0
H511 H 0.14624 0.85471 0.58476 0.0
H512 H 0.162 0.82193 0.55323 0.0
H513 H 0.07822 0.79183 0.52641 0.0
H514 H 0.0619 0.82421 0.55805 0.0
H515 H 0.08164 0.9682 0.53489 0.0
H516 H 0.09879 0.93378 0.55731 0.0
H517 H 0.02617 0.91894 0.6121 0.0
H518 H 0.00928 0.95427 0.59014 0.0
H519 H 0.07869 0.88108 0.56131 0.0
H520 H 0.04294 0.89666 0.67111 0.0
H521 H 0.03393 0.93402 0.7014 0.0
H522 H 0.09191 0.99539 0.65407 0.0
H523 H 0.10151 0.95839 0.62372 0.0
C524 C 0.11357 0.79391 0.63819 0.0
C525 C 0.13702 0.80401 0.65367 0.0
C526 C 0.09986 0.81235 0.62798 0.0
C527 C 0.10977 0.84121 0.63268 0.0
C528 C 0.13305 0.8512 0.64839 0.0
C529 C 0.1465 0.83281 0.65883 0.0
C530 C 0.09665 0.86126 0.62067 0.0
C531 C 0.08877 0.88167 0.63724 0.0
C532 C 0.09307 0.86119 0.59293 0.0
C533 C 0.10279 0.84162 0.57399 0.0
C534 C 0.13114 0.84093 0.57229 0.0
C535 C 0.14018 0.82246 0.55438 0.0
C536 C 0.1211 0.80474 0.53789 0.0
C537 C 0.09296 0.80551 0.53924 0.0
C538 C 0.0838 0.82393 0.55715 0.0
C539 C 0.06938 0.95776 0.55183 0.0
C540 C 0.04411 0.96392 0.56077 0.0
C541 C 0.07917 0.938 0.56458 0.0
C542 C 0.06381 0.92373 0.58639 0.0
C543 C 0.0386 0.92994 0.59553 0.0
C544 C 0.02896 0.9501 0.58297 0.0
C545 C 0.07424 0.90208 0.59903 0.0
C546 C 0.08141 0.88122 0.58259 0.0
C547 C 0.07809 0.90237 0.62674 0.0
C548 C 0.07265 0.92477 0.64498 0.0
C549 C 0.0538 0.91813 0.66722 0.0
C550 C 0.04859 0.93924 0.68439 0.0
C551 C 0.06225 0.96707 0.6796 0.0
C552 C 0.08124 0.97384 0.65769 0.0
C553 C 0.08655 0.95281 0.64048 0.0
H554 H 0.05818 0.98338 0.6929 0.0
H555 H 0.12815 0.79047 0.52402 0.0
H556 H 0.72363 0.43269 0.86698 0.0
H557 H 0.76724 0.45514 0.88891 0.0
H558 H 0.77889 0.37468 0.90547 0.0
H559 H 0.73628 0.35215 0.88288 0.0
H560 H 0.78785 0.40871 0.94972 0.0
H561 H 0.81902 0.41591 0.85685 0.0
H562 H 0.81832 0.42982 0.81038 0.0
H563 H 0.8337 0.51558 0.83614 0.0
H564 H 0.83414 0.50212 0.88283 0.0
H565 H 0.92675 0.44657 0.99527 0.0
H566 H 0.88367 0.42703 0.97192 0.0
H567 H 0.88614 0.5085 0.94381 0.0
H568 H 0.93013 0.52782 0.96605 0.0
H569 H 0.8686 0.47577 0.90589 0.0
H570 H 0.83766 0.47098 0.99765 0.0
H571 H 0.83676 0.45911 0.04494 0.0
H572 H 0.81843 0.37214 0.02311 0.0
H573 H 0.81956 0.38352 0.97564 0.0
C574 C 0.73555 0.41963 0.8749 0.0
C575 C 0.72563 0.3903 0.87313 0.0
C576 C 0.76065 0.43262 0.88765 0.0
C577 C 0.77673 0.41679 0.89915 0.0
C578 C 0.76703 0.38762 0.89718 0.0
C579 C 0.74225 0.37467 0.88425 0.0
C580 C 0.80336 0.43023 0.91346 0.0
C581 C 0.80559 0.42315 0.93997 0.0
C582 C 0.8265 0.44987 0.90139 0.0
C583 C 0.82631 0.45797 0.87335 0.0
C584 C 0.82203 0.43771 0.85263 0.0
C585 C 0.82172 0.44551 0.82625 0.0
C586 C 0.82588 0.47356 0.82032 0.0
C587 C 0.83044 0.49386 0.84076 0.0
C588 C 0.83074 0.48616 0.86718 0.0
C589 C 0.91811 0.46044 0.98426 0.0
C590 C 0.93215 0.48895 0.98289 0.0
C591 C 0.89311 0.4492 0.97091 0.0
C592 C 0.88064 0.46613 0.95627 0.0
C593 C 0.8948 0.49464 0.95481 0.0
C594 C 0.92011 0.5058 0.96774 0.0
C595 C 0.8533 0.45416 0.94229 0.0
C596 C 0.85089 0.46147 0.91582 0.0
C597 C 0.82973 0.43507 0.95456 0.0
C598 C 0.82896 0.42813 0.98307 0.0
C599 C 0.83361 0.44934 1.00292 0.0
C600 C 0.83304 0.44269 0.02976 0.0
C601 C 0.82761 0.41489 0.03702 0.0
C602 C 0.82267 0.39367 0.01746 0.0
C603 C 0.82325 0.4002 0.99058 0.0
H604 H 0.82718 0.4098 0.05781 0.0
H605 H 0.82564 0.47956 0.79988 0.0
H606 H 0.82497 0.65 0.43285 0.0
H607 H 0.78264 0.62654 0.45903 0.0
H608 H 0.73612 0.61123 0.38737 0.0
H609 H 0.77855 0.63379 0.36118 0.0
H610 H 0.73618 0.63929 0.46882 0.0
H611 H 0.68304 0.5546 0.39084 0.0
H612 H 0.69707 0.52392 0.35591 0.0
H613 H 0.77366 0.52938 0.3947 0.0
H614 H 0.75992 0.55975 0.43006 0.0
H615 H 0.59018 0.59713 0.49782 0.0
H616 H 0.63838 0.61436 0.47976 0.0
H617 H 0.65129 0.53205 0.48508 0.0
H618 H 0.60239 0.51451 0.50109 0.0
H619 H 0.67202 0.54936 0.44168 0.0
H620 H 0.68224 0.59181 0.52824 0.0
H621 H 0.67125 0.61921 0.56745 0.0
H622 H 0.68624 0.69191 0.51982 0.0
H623 H 0.69697 0.66486 0.48023 0.0
C624 C 0.80573 0.64127 0.42274 0.0
C625 C 0.80498 0.6435 0.39502 0.0
C626 C 0.78158 0.62797 0.43767 0.0
C627 C 0.75621 0.61686 0.42517 0.0
C628 C 0.75555 0.61899 0.39743 0.0
C629 C 0.77978 0.63192 0.38245 0.0
C630 C 0.73009 0.60424 0.44118 0.0
C631 C 0.72223 0.61951 0.46304 0.0
C632 C 0.7122 0.5781 0.43412 0.0
C633 C 0.72053 0.55966 0.41299 0.0
C634 C 0.70281 0.54915 0.39199 0.0
C635 C 0.71073 0.53184 0.3721 0.0
C636 C 0.73627 0.52477 0.37304 0.0
C637 C 0.75392 0.53495 0.39393 0.0
C638 C 0.7461 0.55225 0.41388 0.0
C639 C 0.60352 0.5829 0.49537 0.0
C640 C 0.59279 0.55459 0.50078 0.0
C641 C 0.63113 0.59275 0.48524 0.0
C642 C 0.64882 0.57465 0.48139 0.0
C643 C 0.63817 0.54647 0.48771 0.0
C644 C 0.6103 0.53646 0.49696 0.0
C645 C 0.67771 0.58462 0.46914 0.0
C646 C 0.68608 0.56893 0.44783 0.0
C647 C 0.69652 0.60984 0.47742 0.0
C648 C 0.69023 0.62624 0.50122 0.0
C649 C 0.68303 0.6136 0.52609 0.0
C650 C 0.67687 0.62908 0.54839 0.0
C651 C 0.678 0.65727 0.54612 0.0
C652 C 0.68536 0.67006 0.52155 0.0
C653 C 0.69153 0.65468 0.49918 0.0
H654 H 0.67321 0.66921 0.5634 0.0
H655 H 0.74237 0.51137 0.35762 0.0
H656 H 0.29301 0.35628 0.16749 0.0
H657 H 0.25505 0.37782 0.15955 0.0
H658 H 0.24007 0.33115 0.08524 0.0
H659 H 0.27865 0.31012 0.09278 0.0
H660 H 0.23254 0.38086 0.07977 0.0
H661 H 0.20118 0.30847 0.14284 0.0
H662 H 0.20255 0.28321 0.1838 0.0
H663 H 0.19406 0.35442 0.2315 0.0
H664 H 0.19308 0.38026 0.19078 0.0
H665 H 0.07425 0.37046 0.1102 0.0
H666 H 0.11633 0.35564 0.11869 0.0
H667 H 0.16784 0.43723 0.09887 0.0
H668 H 0.12608 0.4517 0.08875 0.0
H669 H 0.15693 0.3696 0.1511 0.0
H670 H 0.22841 0.43197 0.06699 0.0
H671 H 0.22392 0.45112 0.02336 0.0
H672 H 0.14632 0.38914 1.01308 0.0
H673 H 0.15055 0.36941 0.05646 0.0
C674 C 0.28191 0.35094 0.14926 0.0
C675 C 0.28848 0.33129 0.13085 0.0
C676 C 0.26013 0.36317 0.14481 0.0
C677 C 0.24427 0.3556 0.12212 0.0
C678 C 0.25192 0.3372 0.10296 0.0
C679 C 0.27393 0.32521 0.10726 0.0
C680 C 0.21878 0.36559 0.11908 0.0
C681 C 0.21608 0.37853 0.09542 0.0
C682 C 0.19693 0.36193 0.13922 0.0
C683 C 0.19735 0.3464 0.16376 0.0
C684 C 0.19981 0.31881 0.16206 0.0
C685 C 0.20049 0.30438 0.18523 0.0
C686 C 0.19847 0.31723 0.21024 0.0
C687 C 0.19567 0.34451 0.21211 0.0
C688 C 0.19504 0.35906 0.189 0.0
C689 C 0.09453 0.38525 0.10754 0.0
C690 C 0.09672 0.41217 0.09843 0.0
C691 C 0.11857 0.37681 0.11267 0.0
C692 C 0.1453 0.39514 0.10894 0.0
C693 C 0.14748 0.42253 0.10137 0.0
C694 C 0.12348 0.43089 0.09594 0.0
C695 C 0.17084 0.3852 0.11192 0.0
C696 C 0.17352 0.37221 0.13556 0.0
C697 C 0.19221 0.38796 0.09138 0.0
C698 C 0.18967 0.39943 0.0651 0.0
C699 C 0.21045 0.42238 0.05536 0.0
C700 C 0.20794 0.43334 0.03069 0.0
C701 C 0.1848 0.42141 0.0155 0.0
C702 C 0.16418 0.39842 0.02491 0.0
C703 C 0.16661 0.38736 0.04955 0.0
H704 H 0.18289 0.42994 0.99642 0.0
H705 H 0.199 0.30602 0.22815 0.0
H706 H 0.59983 0.30662 0.86071 0.0
H707 H 0.57652 0.26221 0.88133 0.0
H708 H 0.65661 0.25358 0.90432 0.0
H709 H 0.67997 0.29595 0.88167 0.0
H710 H 0.63125 0.20632 0.89449 0.0
H711 H 0.59969 0.27531 0.94839 0.0
H712 H 0.57729 0.31379 0.9583 0.0
H713 H 0.49941 0.26322 0.93024 0.0
H714 H 0.52145 0.22454 0.91987 0.0
H715 H 0.5814 0.11073 1.00126 0.0
H716 H 0.60066 0.15367 0.97656 0.0
H717 H 0.52436 0.13892 0.93457 0.0
H718 H 0.50521 0.09556 0.95875 0.0
H719 H 0.54512 0.1963 0.95299 0.0
H720 H 0.57921 0.12614 0.9026 0.0
H721 H 0.60325 0.0884 0.89679 0.0
H722 H 0.67938 0.14362 0.92363 0.0
H723 H 0.65566 0.18159 0.92997 0.0
C724 C 0.61263 0.29515 0.86977 0.0
C725 C 0.64208 0.30592 0.86973 0.0
C726 C 0.59908 0.26969 0.88215 0.0
C727 C 0.61436 0.25424 0.8955 0.0
C728 C 0.64378 0.2646 0.89466 0.0
C729 C 0.65728 0.28954 0.88186 0.0
C730 C 0.60036 0.22737 0.91009 0.0
C731 C 0.61264 0.20461 0.90751 0.0
C732 C 0.57556 0.22395 0.92698 0.0
C733 C 0.56231 0.24718 0.93305 0.0
C734 C 0.57785 0.27249 0.94415 0.0
C735 C 0.56521 0.29431 0.94987 0.0
C736 C 0.53697 0.29099 0.94481 0.0
C737 C 0.5213 0.26579 0.93408 0.0
C738 C 0.53385 0.24391 0.92829 0.0
C739 C 0.56861 0.11653 0.98681 0.0
C740 C 0.54165 0.09928 0.98209 0.0
C741 C 0.57974 0.14123 0.97258 0.0
C742 C 0.56416 0.14986 0.95343 0.0
C743 C 0.53699 0.13301 0.94912 0.0
C744 C 0.52606 0.10801 0.96296 0.0
C745 C 0.57644 0.17598 0.93761 0.0
C746 C 0.56378 0.19836 0.93993 0.0
C747 C 0.60125 0.17936 0.92099 0.0
C748 C 0.61558 0.15663 0.91699 0.0
C749 C 0.60101 0.13017 0.90746 0.0
C750 C 0.61459 0.10875 0.90404 0.0
C751 C 0.64281 0.11359 0.9099 0.0
C752 C 0.65752 0.13989 0.91913 0.0
C753 C 0.64402 0.16138 0.92262 0.0
H754 H 0.65328 0.09698 0.90724 0.0
H755 H 0.52722 0.3079 0.94927 0.0
H756 H 0.92174 0.73092 0.36835 0.0
H757 H 0.94386 0.77771 0.38523 0.0
H758 H 0.86304 0.78692 0.41544 0.0
H759 H 0.84059 0.74121 0.39686 0.0
H760 H 0.89064 0.83339 0.39694 0.0
H761 H 0.91212 0.76893 0.45564 0.0
H762 H 0.93024 0.72961 0.46814 0.0
H763 H 0.01289 0.77212 0.43841 0.0
H764 H 0.99516 0.81156 0.42539 0.0
H765 H 0.93773 0.93363 0.50278 0.0
H766 H 0.91809 0.88937 0.47915 0.0
H767 H 0.99333 0.90197 0.42818 0.0
H768 H 0.01285 0.94656 0.45117 0.0
H769 H 0.97071 0.84599 0.45565 0.0
H770 H 0.94609 0.91221 0.39934 0.0
H771 H 0.92553 0.9512 0.39128 0.0
H772 H 0.8452 0.90395 0.42229 0.0
H773 H 0.86542 0.86481 0.43094 0.0
C774 C 0.90859 0.74309 0.37812 0.0
C775 C 0.87938 0.73206 0.38153 0.0
C776 C 0.92133 0.76973 0.3881 0.0
C777 C 0.90522 0.78564 0.40218 0.0
C778 C 0.87599 0.77503 0.40484 0.0
C779 C 0.86321 0.74866 0.39449 0.0
C780 C 0.91866 0.81309 0.41466 0.0
C781 C 0.908 0.83599 0.40992 0.0
C782 C 0.94152 0.81671 0.43147 0.0
C783 C 0.95224 0.79304 0.43926 0.0
C784 C 0.93411 0.76979 0.45158 0.0
C785 C 0.94432 0.74751 0.45878 0.0
C786 C 0.97268 0.74833 0.454 0.0
C787 C 0.99091 0.77149 0.44206 0.0
C788 C 0.9808 0.79382 0.43477 0.0
C789 C 0.95004 0.92699 0.48651 0.0
C790 C 0.97675 0.94356 0.47872 0.0
C791 C 0.9388 0.90179 0.47305 0.0
C792 C 0.95432 0.89259 0.45198 0.0
C793 C 0.98111 0.90885 0.4444 0.0
C794 C 0.99212 0.93432 0.45746 0.0
C795 C 0.94254 0.86587 0.43792 0.0
C796 C 0.95349 0.84321 0.44245 0.0
C797 C 0.91958 0.8623 0.42146 0.0
C798 C 0.90734 0.8857 0.41604 0.0
C799 C 0.92411 0.91023 0.40468 0.0
C800 C 0.9125 0.93234 0.39995 0.0
C801 C 0.88409 0.93009 0.40634 0.0
C802 C 0.86721 0.90568 0.41739 0.0
C803 C 0.87873 0.88352 0.42218 0.0
H804 H 0.87514 0.94722 0.40267 0.0
H805 H 0.98055 0.73106 0.4596 0.0
H806 H 0.22558 0.69663 0.7069 0.0
H807 H 0.25575 0.66982 0.68454 0.0
H808 H 0.26293 0.71882 0.61435 0.0
H809 H 0.23297 0.74599 0.63674 0.0
H810 H 0.26428 0.65917 0.60511 0.0
H811 H 0.308 0.74362 0.65444 0.0
H812 H 0.31192 0.77449 0.69443 0.0
H813 H 0.32819 0.71039 0.74114 0.0
H814 H 0.32371 0.6789 0.7015 0.0
H815 H 0.40058 0.64921 0.55627 0.0
H816 H 0.35856 0.66472 0.57019 0.0
H817 H 0.36091 0.63442 0.64912 0.0
H818 H 0.40301 0.6193 0.63542 0.0
H819 H 0.35328 0.6844 0.65249 0.0
H820 H 0.31184 0.60027 0.60388 0.0
H821 H 0.30524 0.56757 0.5652 0.0
H822 H 0.28376 0.62863 0.51818 0.0
H823 H 0.29061 0.66186 0.5565 0.0
C824 C 0.23286 0.7011 0.6864 0.0
C825 C 0.22734 0.72367 0.6737 0.0
C826 C 0.24998 0.68571 0.67364 0.0
C827 C 0.26185 0.69269 0.648 0.0
C828 C 0.2539 0.71315 0.63414 0.0
C829 C 0.23676 0.72863 0.64695 0.0
C830 C 0.28613 0.68235 0.63794 0.0
C831 C 0.28388 0.66483 0.61521 0.0
C832 C 0.31147 0.68955 0.65145 0.0
C833 C 0.31525 0.70882 0.67507 0.0
C834 C 0.31224 0.73605 0.67327 0.0
C835 C 0.31455 0.75366 0.69587 0.0
C836 C 0.32023 0.74439 0.72033 0.0
C837 C 0.32374 0.71753 0.72219 0.0
C838 C 0.32132 0.69979 0.69966 0.0
C839 C 0.39196 0.64569 0.57652 0.0
C840 C 0.40516 0.63322 0.59481 0.0
C841 C 0.36791 0.65447 0.58443 0.0
C842 C 0.35642 0.65053 0.61066 0.0
C843 C 0.36944 0.63778 0.62882 0.0
C844 C 0.39355 0.62924 0.621 0.0
C845 C 0.33157 0.66072 0.61967 0.0
C846 C 0.33376 0.67853 0.64226 0.0
C847 C 0.30621 0.6536 0.60604 0.0
C848 C 0.30202 0.63365 0.58299 0.0
C849 C 0.30593 0.60681 0.58523 0.0
C850 C 0.3021 0.58816 0.56338 0.0
C851 C 0.29416 0.59604 0.53922 0.0
C852 C 0.28996 0.62257 0.53689 0.0
C853 C 0.29378 0.64131 0.55868 0.0
H854 H 0.29121 0.58157 0.52233 0.0
H855 H 0.32197 0.75804 0.73781 0.0
H856 H 0.77388 0.80884 0.83055 0.0
H857 H 0.80585 0.83042 0.79369 0.0
H858 H 0.73497 0.82965 0.74707 0.0
H859 H 0.70283 0.80866 0.78422 0.0
H860 H 0.78692 0.81124 0.72052 0.0
H861 H 0.75623 0.88504 0.77063 0.0
H862 H 0.74811 0.91025 0.81233 0.0
H863 H 0.83559 0.92708 0.82801 0.0
H864 H 0.84411 0.90149 0.7866 0.0
H865 H 0.8473 0.91013 0.62147 0.0
H866 H 0.81818 0.88013 0.65521 0.0
H867 H 0.88258 0.9092 0.71186 0.0
H868 H 0.9115 0.93965 0.67829 0.0
H869 H 0.83463 0.91134 0.73396 0.0
H870 H 0.86781 0.84208 0.68404 0.0
H871 H 0.87824 0.8153 0.64418 0.0
H872 H 0.79036 0.78801 0.62964 0.0
H873 H 0.77942 0.81497 0.66922 0.0
C874 C 0.76519 0.81292 0.81227 0.0
C875 C 0.73601 0.80718 0.81008 0.0
C876 C 0.78339 0.8252 0.79133 0.0
C877 C 0.77265 0.83149 0.76779 0.0
C878 C 0.74353 0.82475 0.7651 0.0
C879 C 0.72528 0.81296 0.78627 0.0
C880 C 0.79184 0.84711 0.74689 0.0
C881 C 0.79716 0.8332 0.72317 0.0
C882 C 0.80577 0.87545 0.75098 0.0
C883 C 0.80073 0.89106 0.77571 0.0
C884 C 0.77367 0.89386 0.78312 0.0
C885 C 0.769 0.90827 0.80667 0.0
C886 C 0.7913 0.92018 0.82286 0.0
C887 C 0.81833 0.91779 0.81548 0.0
C888 C 0.82308 0.90334 0.79197 0.0
C889 C 0.8554 0.90975 0.641 0.0
C890 C 0.88159 0.92723 0.64733 0.0
C891 C 0.83879 0.89257 0.66026 0.0
C892 C 0.84828 0.89223 0.68604 0.0
C893 C 0.87478 0.90917 0.69214 0.0
C894 C 0.89127 0.92655 0.67299 0.0
C895 C 0.82984 0.87563 0.70712 0.0
C896 C 0.82459 0.88936 0.73106 0.0
C897 C 0.81636 0.84701 0.70332 0.0
C898 C 0.82282 0.83078 0.67947 0.0
C899 C 0.85072 0.83056 0.67222 0.0
C900 C 0.85673 0.81531 0.6497 0.0
C901 C 0.83499 0.80002 0.63435 0.0
C902 C 0.80719 0.79989 0.64153 0.0
C903 C 0.80107 0.81514 0.66403 0.0
H904 H 0.83967 0.78822 0.61693 0.0
H905 H 0.78766 0.93134 0.84108 0.0
H906 H 0.78786 0.19572 0.30635 0.0
H907 H 0.7676 0.1725 0.26573 0.0
H908 H 0.77475 0.2525 0.23141 0.0
H909 H 0.79372 0.27568 0.27282 0.0
H910 H 0.72548 0.22275 0.22563 0.0
H911 H 0.81499 0.20471 0.20731 0.0
H912 H 0.85722 0.18948 0.21642 0.0
H913 H 0.80657 0.10644 0.22964 0.0
H914 H 0.76398 0.12122 0.22099 0.0
H915 H 0.66467 0.15144 0.10866 0.0
H916 H 0.69992 0.18062 0.13722 0.0
H917 H 0.69201 0.11133 0.18874 0.0
H918 H 0.65745 0.08196 0.16002 0.0
H919 H 0.7468 0.14 0.17961 0.0
H920 H 0.6576 0.16079 0.20452 0.0
H921 H 0.61532 0.17613 0.19576 0.0
H922 H 0.66698 0.25488 0.1695 0.0
H923 H 0.70959 0.23985 0.17778 0.0
C924 C 0.78574 0.20828 0.28984 0.0
C925 C 0.79239 0.2374 0.29253 0.0
C926 C 0.77428 0.19503 0.26655 0.0
C927 C 0.76995 0.21071 0.24524 0.0
C928 C 0.77789 0.23993 0.24752 0.0
C929 C 0.7888 0.25317 0.27106 0.0
C930 C 0.75432 0.19659 0.22202 0.0
C931 C 0.73068 0.20511 0.21513 0.0
C932 C 0.76062 0.17318 0.20858 0.0
C933 C 0.78625 0.16414 0.21362 0.0
C934 C 0.81283 0.18323 0.21232 0.0
C935 C 0.83684 0.17467 0.21738 0.0
C936 C 0.83458 0.14702 0.22364 0.0
C937 C 0.8083 0.12785 0.22479 0.0
C938 C 0.78421 0.1363 0.21976 0.0
C939 C 0.67068 0.14239 0.12593 0.0
C940 C 0.65808 0.1145 0.13227 0.0
C941 C 0.6907 0.15909 0.14227 0.0
C942 C 0.69838 0.14816 0.16519 0.0
C943 C 0.68636 0.12016 0.17115 0.0
C944 C 0.66637 0.10351 0.1549 0.0
C945 C 0.718 0.166 0.18378 0.0
C946 C 0.74222 0.15809 0.18978 0.0
C947 C 0.71237 0.19004 0.19634 0.0
C948 C 0.68676 0.19908 0.19146 0.0
C949 C 0.65993 0.18129 0.19667 0.0
C950 C 0.63592 0.18994 0.19183 0.0
C951 C 0.63846 0.21643 0.182 0.0
C952 C 0.66504 0.23435 0.17706 0.0
C953 C 0.68912 0.22578 0.18183 0.0
H954 H 0.61984 0.22309 0.17827 0.0
H955 H 0.85319 0.14044 0.22756 0.0
H956 H 0.41692 0.69413 0.29879 0.0
H957 H 0.43255 0.67165 0.33516 0.0
H958 H 0.39077 0.59116 0.30249 0.0
H959 H 0.37406 0.614 0.26631 0.0
H960 H 0.38488 0.58706 0.35374 0.0
H961 H 0.46738 0.62216 0.2985 0.0
H962 H 0.50302 0.65695 0.27292 0.0
H963 H 0.52385 0.70662 0.3443 0.0
H964 H 0.48808 0.67229 0.37025 0.0
H965 H 0.45754 0.51583 0.43703 0.0
H966 H 0.43976 0.53526 0.39957 0.0
H967 H 0.4738 0.61813 0.43122 0.0
H968 H 0.49176 0.59883 0.46859 0.0
H969 H 0.48386 0.61898 0.37916 0.0
H970 H 0.40026 0.58285 0.43404 0.0
H971 H 0.36532 0.54681 0.45892 0.0
H972 H 0.34767 0.4973 0.38698 0.0
H973 H 0.38279 0.53291 0.36173 0.0
C974 C 0.41095 0.67159 0.29922 0.0
C975 C 0.39421 0.65611 0.27922 0.0
C976 C 0.42023 0.65857 0.32014 0.0
C977 C 0.41376 0.6293 0.32182 0.0
C978 C 0.3965 0.61368 0.30206 0.0
C979 C 0.3869 0.62682 0.28114 0.0
C980 C 0.42492 0.61543 0.34411 0.0
C981 C 0.40668 0.59389 0.35886 0.0
C982 C 0.45331 0.6241 0.35178 0.0
C983 C 0.47486 0.64477 0.33627 0.0
C984 C 0.47943 0.64059 0.3087 0.0
C985 C 0.49967 0.66022 0.29415 0.0
C986 C 0.51564 0.68401 0.30697 0.0
C987 C 0.51144 0.6882 0.33439 0.0
C988 C 0.49121 0.66865 0.34904 0.0
C989 C 0.46126 0.53822 0.43618 0.0
C990 C 0.47625 0.55552 0.45632 0.0
C991 C 0.45084 0.54943 0.41459 0.0
C992 C 0.45489 0.57846 0.41217 0.0
C993 C 0.4701 0.59574 0.43215 0.0
C994 C 0.4804 0.58455 0.45379 0.0
C995 C 0.44379 0.59086 0.3889 0.0
C996 C 0.46208 0.61214 0.37396 0.0
C997 C 0.41555 0.58176 0.38094 0.0
C998 C 0.39435 0.56041 0.39605 0.0
C999 C 0.38907 0.56419 0.42356 0.0
C1000 C 0.36921 0.54385 0.43773 0.0
C1001 C 0.35434 0.51975 0.42456 0.0
C1002 C 0.35924 0.51597 0.39717 0.0
C1003 C 0.3791 0.53623 0.38292 0.0
H1004 H 0.33898 0.50402 0.43556 0.0
H1005 H 0.5313 0.69918 0.29566 0.0
H1006 H 0.18154 0.4515 0.76866 0.0
H1007 H 0.16065 0.47117 0.80755 0.0
H1008 H 0.08783 0.401 0.80614 0.0
H1009 H 0.10837 0.38162 0.76675 0.0
H1010 H 0.07231 0.44774 0.81544 0.0
H1011 H 0.13935 0.40619 0.85114 0.0
H1012 H 0.18572 0.3972 0.85546 0.0
H1013 H 0.22068 0.48345 0.8757 0.0
H1014 H 0.17457 0.49303 0.87114 0.0
H1015 H 0.01862 0.45899 0.94788 0.0
H1016 H 0.04012 0.44377 0.90709 0.0
H1017 H 0.10466 0.52108 0.90646 0.0
H1018 H 0.08312 0.53667 0.94746 0.0
H1019 H 0.12499 0.47294 0.89788 0.0
H1020 H 0.05573 0.51306 0.864 0.0
H1021 H 0.00831 0.52004 0.86122 0.0
H1022 H 0.97643 0.43381 0.83905 0.0
H1023 H 0.0236 0.42622 0.8421 0.0
C1024 C 0.16104 0.44033 0.77665 0.0
C1025 C 0.14663 0.41503 0.76481 0.0
C1026 C 0.14919 0.4515 0.79892 0.0
C1027 C 0.12287 0.43735 0.81003 0.0
C1028 C 0.1082 0.41225 0.79794 0.0
C1029 C 0.11998 0.40116 0.77548 0.0
C1030 C 0.1107 0.44871 0.83428 0.0
C1031 C 0.08372 0.45294 0.83355 0.0
C1032 C 0.12581 0.45607 0.85776 0.0
C1033 C 0.15357 0.45038 0.86052 0.0
C1034 C 0.15697 0.42328 0.85629 0.0
C1035 C 0.1832 0.41808 0.85883 0.0
C1036 C 0.20615 0.43976 0.86578 0.0
C1037 C 0.2029 0.46669 0.87028 0.0
C1038 C 0.17672 0.47201 0.86774 0.0
C1039 C 0.03737 0.47284 0.93911 0.0
C1040 C 0.04916 0.49909 0.95089 0.0
C1041 C 0.04955 0.46412 0.91573 0.0
C1042 C 0.07381 0.4814 0.90369 0.0
C1043 C 0.08587 0.50751 0.91547 0.0
C1044 C 0.07351 0.5164 0.9388 0.0
C1045 C 0.08666 0.47182 0.87898 0.0
C1046 C 0.11372 0.46789 0.87967 0.0
C1047 C 0.07152 0.46447 0.85558 0.0
C1048 C 0.04317 0.46903 0.8535 0.0
C1049 C 0.03857 0.49554 0.85873 0.0
C1050 C 0.01174 0.49961 0.85708 0.0
C1051 C 0.98936 0.47737 0.85002 0.0
C1052 C 0.99378 0.45102 0.84454 0.0
C1053 C 0.02057 0.44682 0.8462 0.0
H1054 H 0.9686 0.48056 0.84876 0.0
H1055 H 0.22644 0.43568 0.86774 0.0
H1056 H 0.69666 0.86034 0.87354 0.0
H1057 H 0.66813 0.88996 0.89354 0.0
H1058 H 0.60004 0.81743 0.90956 0.0
H1059 H 0.62847 0.78751 0.88906 0.0
H1060 H 0.58269 0.86145 0.88833 0.0
H1061 H 0.63796 0.84691 0.95922 0.0
H1062 H 0.68152 0.84574 0.98029 0.0
H1063 H 0.71462 0.93335 0.96811 0.0
H1064 H 0.6714 0.93497 0.94659 0.0
H1065 H 0.50703 0.93607 0.97628 0.0
H1066 H 0.53038 0.90269 0.9546 0.0
H1067 H 0.60748 0.96756 0.94636 0.0
H1068 H 0.58454 1.00069 0.96901 0.0
H1069 H 0.61811 0.92417 0.96493 0.0
H1070 H 0.56411 0.93901 0.89257 0.0
H1071 H 0.52105 0.94065 0.87082 0.0
H1072 H 0.48602 0.85361 0.88465 0.0
H1073 H 0.52874 0.85154 0.90685 0.0
C1074 C 0.67551 0.85067 0.88107 0.0
C1075 C 0.66475 0.8216 0.87967 0.0
C1076 C 0.65932 0.86761 0.89266 0.0
C1077 C 0.63208 0.85585 0.90319 0.0
C1078 C 0.62106 0.82687 0.90156 0.0
C1079 C 0.63735 0.80983 0.89005 0.0
C1080 C 0.61544 0.87402 0.91619 0.0
C1081 C 0.59014 0.87491 0.90533 0.0
C1082 C 0.62555 0.89189 0.93802 0.0
C1083 C 0.65152 0.89101 0.95109 0.0
C1084 C 0.65461 0.86589 0.96084 0.0
C1085 C 0.67923 0.86515 0.9729 0.0
C1086 C 0.70085 0.88944 0.97548 0.0
C1087 C 0.69787 0.91454 0.96607 0.0
C1088 C 0.6733 0.91539 0.95397 0.0
C1089 C 0.52887 0.94327 0.96955 0.0
C1090 C 0.54399 0.97097 0.97438 0.0
C1091 C 0.54218 0.92418 0.95706 0.0
C1092 C 0.57066 0.93262 0.94861 0.0
C1093 C 0.58552 0.9605 0.95278 0.0
C1094 C 0.57238 0.97945 0.96567 0.0
C1095 C 0.58552 0.91224 0.93673 0.0
C1096 C 0.61051 0.91077 0.94793 0.0
C1097 C 0.57515 0.89401 0.91512 0.0
C1098 C 0.54953 0.89519 0.90162 0.0
C1099 C 0.54715 0.92027 0.89115 0.0
C1100 C 0.52281 0.92126 0.87872 0.0
C1101 C 0.50078 0.89727 0.87643 0.0
C1102 C 0.50309 0.87219 0.88649 0.0
C1103 C 0.52736 0.87109 0.89898 0.0
H1104 H 0.48195 0.89808 0.8668 0.0
H1105 H 0.71989 0.88883 0.98483 0.0
H1106 H 0.84911 0.20594 0.40074 0.0
H1107 H 0.87121 0.17371 0.42093 0.0
H1108 H 0.94768 0.20697 0.3738 0.0
H1109 H 0.92491 0.2383 0.35243 0.0
H1110 H 0.93889 0.15404 0.37406 0.0
H1111 H 0.93898 0.22286 0.44321 0.0
H1112 H 0.91893 0.2533 0.47401 0.0
H1113 H 0.86306 0.18159 0.50995 0.0
H1114 H 0.88253 0.1507 0.47913 0.0
H1115 H 0.02065 0.0912 0.4541 0.0
H1116 H 1.0015 0.1244 0.43151 0.0
H1117 H 0.91896 0.08622 0.46562 0.0
H1118 H 0.93782 0.05306 0.48837 0.0
H1119 H 0.93371 0.1433 0.47209 0.0
H1120 H 0.93457 0.07501 0.40092 0.0
H1121 H 0.95693 0.04593 0.37066 0.0
H1122 H 0.01466 0.11929 0.33952 0.0
H1123 H 0.99282 0.14881 0.36984 0.0
C1124 C 0.87071 0.20654 0.39485 0.0
C1125 C 0.88551 0.2248 0.37529 0.0
C1126 C 0.88339 0.18817 0.40648 0.0
C1127 C 0.91137 0.18828 0.39936 0.0
C1128 C 0.92613 0.20654 0.37973 0.0
C1129 C 0.91321 0.22451 0.36764 0.0
C1130 C 0.92493 0.1689 0.41199 0.0
C1131 C 0.93813 0.15206 0.39553 0.0
C1132 C 0.92369 0.16595 0.44 0.0
C1133 C 0.91207 0.18448 0.45871 0.0
C1134 C 0.9223 0.21358 0.45757 0.0
C1135 C 0.91105 0.23092 0.47505 0.0
C1136 C 0.88969 0.21939 0.49388 0.0
C1137 C 0.87959 0.19049 0.49533 0.0
C1138 C 0.89075 0.17306 0.47789 0.0
C1139 C 0.99838 0.08972 0.45667 0.0
C1140 C 0.98077 0.06949 0.47309 0.0
C1141 C 0.98748 0.10867 0.44368 0.0
C1142 C 0.95881 0.10767 0.44685 0.0
C1143 C 0.94115 0.08733 0.46296 0.0
C1144 C 0.95198 0.06833 0.47587 0.0
C1145 C 0.94726 0.12839 0.43415 0.0
C1146 C 0.93452 0.14548 0.45064 0.0
C1147 C 0.94931 0.13183 0.40625 0.0
C1148 C 0.96223 0.1141 0.38782 0.0
C1149 C 0.95215 0.08493 0.38775 0.0
C1150 C 0.96471 0.06837 0.37056 0.0
C1151 C 0.98724 0.08075 0.35322 0.0
C1152 C 0.99721 0.10973 0.35298 0.0
C1153 C 0.98473 0.12638 0.37013 0.0
H1154 H 0.99694 0.06789 0.33995 0.0
H1155 H 0.88101 0.23285 0.50739 0.0
H1156 H 0.26842 0.64087 0.20432 0.0
H1157 H 0.22504 0.61896 0.18189 0.0
H1158 H 0.26911 0.63748 0.10552 0.0
H1159 H 0.31199 0.66029 0.12792 0.0
H1160 H 0.22305 0.64648 0.09999 0.0
H1161 H 0.24493 0.56751 0.13576 0.0
H1162 H 0.25606 0.53857 0.17022 0.0
H1163 H 0.17743 0.53663 0.21236 0.0
H1164 H 0.16599 0.56585 0.1783 0.0
H1165 H 0.09992 0.51646 0.05787 0.0
H1166 H 0.14349 0.53592 0.08081 0.0
H1167 H 0.1246 0.61595 0.08669 0.0
H1168 H 0.08178 0.59691 0.06287 0.0
H1169 H 0.15897 0.55612 0.12613 0.0
H1170 H 0.18177 0.66956 0.08981 0.0
H1171 H 0.17454 0.69455 0.05043 0.0
H1172 H 0.17075 0.62119 1.00127 0.0
H1173 H 0.17831 0.59588 0.04026 0.0
C1174 C 0.26896 0.64002 0.18274 0.0
C1175 C 0.29401 0.65252 0.16811 0.0
C1176 C 0.24397 0.6273 0.16977 0.0
C1177 C 0.24323 0.62596 0.14164 0.0
C1178 C 0.26846 0.63811 0.12711 0.0
C1179 C 0.29325 0.6512 0.14004 0.0
C1180 C 0.21638 0.61277 0.12728 0.0
C1181 C 0.20916 0.62672 0.10591 0.0
C1182 C 0.19792 0.58659 0.13409 0.0
C1183 C 0.20475 0.5691 0.15463 0.0
C1184 C 0.23011 0.56108 0.15248 0.0
C1185 C 0.23646 0.5446 0.17192 0.0
C1186 C 0.2175 0.53583 0.19351 0.0
C1187 C 0.19212 0.54347 0.19566 0.0
C1188 C 0.18568 0.55997 0.17628 0.0
C1189 C 0.10509 0.53827 0.06383 0.0
C1190 C 0.08716 0.55504 0.05798 0.0
C1191 C 0.13015 0.54946 0.0772 0.0
C1192 C 0.13821 0.5778 0.08534 0.0
C1193 C 0.11983 0.59431 0.08014 0.0
C1194 C 0.09501 0.58324 0.06651 0.0
C1195 C 0.16559 0.59004 0.09913 0.0
C1196 C 0.17287 0.57593 0.12034 0.0
C1197 C 0.18462 0.61564 0.09162 0.0
C1198 C 0.1803 0.63076 0.06802 0.0
C1199 C 0.17948 0.6588 0.07057 0.0
C1200 C 0.17531 0.67301 0.04833 0.0
C1201 C 0.17209 0.65944 0.02339 0.0
C1202 C 0.17314 0.63165 0.02061 0.0
C1203 C 0.17734 0.61735 0.04278 0.0
H1204 H 0.16884 0.67048 1.00619 0.0
H1205 H 0.22245 0.52307 0.20854 0.0
H1206 H 0.2027 0.41994 0.64667 0.0
H1207 H 0.24585 0.4452 0.62245 0.0
H1208 H 0.28304 0.37713 0.63352 0.0
H1209 H 0.24002 0.3518 0.65753 0.0
H1210 H 0.3175 0.43077 0.64702 0.0
H1211 H 0.261 0.38265 0.57573 0.0
H1212 H 0.21862 0.36969 0.54953 0.0
H1213 H 0.22909 0.45549 0.53107 0.0
H1214 H 0.27132 0.46901 0.55754 0.0
H1215 H 0.43246 0.44782 0.55548 0.0
H1216 H 0.38582 0.42918 0.57633 0.0
H1217 H 0.36466 0.50644 0.56373 0.0
H1218 H 0.41167 0.52563 0.54313 0.0
H1219 H 0.32107 0.45343 0.55131 0.0
H1220 H 0.37747 0.5021 0.62055 0.0
H1221 H 0.41964 0.51645 0.64692 0.0
H1222 H 0.40888 0.43188 0.66975 0.0
H1223 H 0.3668 0.41692 0.64313 0.0
C1224 C 0.22014 0.41046 0.6439 0.0
C1225 C 0.21813 0.38396 0.65386 0.0
C1226 C 0.24463 0.42479 0.63002 0.0
C1227 C 0.26749 0.41292 0.6262 0.0
C1228 C 0.26557 0.38657 0.6363 0.0
C1229 C 0.24101 0.3721 0.64984 0.0
C1230 C 0.29367 0.42801 0.61197 0.0
C1231 C 0.31832 0.43554 0.62606 0.0
C1232 C 0.29444 0.43499 0.58486 0.0
C1233 C 0.26911 0.42688 0.56889 0.0
C1234 C 0.25411 0.39879 0.56631 0.0
C1235 C 0.23014 0.39133 0.55136 0.0
C1236 C 0.22111 0.41176 0.53871 0.0
C1237 C 0.23607 0.43969 0.54092 0.0
C1238 C 0.26003 0.44726 0.55589 0.0
C1239 C 0.41785 0.46081 0.55686 0.0
C1240 C 0.42577 0.48824 0.54778 0.0
C1241 C 0.39124 0.45012 0.56879 0.0
C1242 C 0.37199 0.46652 0.57158 0.0
C1243 C 0.37933 0.49353 0.56165 0.0
C1244 C 0.40617 0.50444 0.55004 0.0
C1245 C 0.34486 0.45566 0.5863 0.0
C1246 C 0.32011 0.44892 0.57235 0.0
C1247 C 0.34387 0.44961 0.61362 0.0
C1248 C 0.36914 0.45836 0.62964 0.0
C1249 C 0.38425 0.4865 0.63097 0.0
C1250 C 0.40809 0.49476 0.646 0.0
C1251 C 0.41693 0.47508 0.65996 0.0
C1252 C 0.40198 0.44709 0.6589 0.0
C1253 C 0.37811 0.43871 0.64386 0.0
H1254 H 0.4353 0.48159 0.67167 0.0
H1255 H 0.20256 0.40595 0.52713 0.0
H1256 H 0.74664 0.68637 0.84779 0.0
H1257 H 0.78376 0.67015 0.86698 0.0
H1258 H 0.76802 0.70897 0.94262 0.0
H1259 H 0.73136 0.72597 0.92317 0.0
H1260 H 0.82191 0.72121 0.93091 0.0
H1261 H 0.74938 0.6368 0.93243 0.0
H1262 H 0.71161 0.59868 0.91489 0.0
H1263 H 0.77027 0.57604 0.85753 0.0
H1264 H 0.80834 0.61429 0.87446 0.0
H1265 H 0.91179 0.65557 0.99739 0.0
H1266 H 0.87055 0.66947 0.98381 0.0
H1267 H 0.88688 0.64448 0.90257 0.0
H1268 H 0.92799 0.63039 0.91603 0.0
H1269 H 0.83091 0.62419 0.92094 0.0
H1270 H 0.90259 0.71121 0.91873 0.0
H1271 H 0.93994 0.74878 0.93772 0.0
H1272 H 0.88145 0.76537 0.99874 0.0
H1273 H 0.84382 0.7276 0.98032 0.0
C1274 C 0.75089 0.69112 0.86861 0.0
C1275 C 0.73618 0.70737 0.88399 0.0
C1276 C 0.77202 0.68175 0.87961 0.0
C1277 C 0.77849 0.68804 0.90637 0.0
C1278 C 0.76338 0.70384 0.92194 0.0
C1279 C 0.74238 0.71346 0.91085 0.0
C1280 C 0.80206 0.67937 0.91751 0.0
C1281 C 0.82357 0.69987 0.92918 0.0
C1282 C 0.80454 0.65163 0.91487 0.0
C1283 C 0.78168 0.62859 0.90459 0.0
C1284 C 0.75419 0.62384 0.91594 0.0
C1285 C 0.73273 0.60218 0.90612 0.0
C1286 C 0.73852 0.58499 0.88507 0.0
C1287 C 0.76581 0.58939 0.87382 0.0
C1288 C 0.78735 0.61104 0.88354 0.0
C1289 C 0.90656 0.65309 0.97664 0.0
C1290 C 0.92311 0.64199 0.95773 0.0
C1291 C 0.88312 0.66112 0.96891 0.0
C1292 C 0.87578 0.65806 0.94219 0.0
C1293 C 0.89225 0.647 0.92329 0.0
C1294 C 0.91582 0.6392 0.93095 0.0
C1295 C 0.8507 0.66606 0.93391 0.0
C1296 C 0.82899 0.64544 0.92283 0.0
C1297 C 0.8479 0.69359 0.93732 0.0
C1298 C 0.87047 0.71638 0.94832 0.0
C1299 C 0.89775 0.72271 0.93633 0.0
C1300 C 0.91896 0.74407 0.94696 0.0
C1301 C 0.91309 0.7594 0.96947 0.0
C1302 C 0.88597 0.75344 0.98134 0.0
C1303 C 0.8647 0.73208 0.9708 0.0
H1304 H 0.92953 0.77593 0.97767 0.0
H1305 H 0.72188 0.56822 0.87751 0.0
H1306 H 0.33609 0.75043 0.16685 0.0
H1307 H 0.35848 0.79419 0.14531 0.0
H1308 H 0.43984 0.78074 0.1562 0.0
H1309 H 0.41736 0.73628 0.17764 0.0
H1310 H 0.44138 0.83576 0.1651 0.0
H1311 H 0.40948 0.76946 0.09469 0.0
H1312 H 0.37513 0.73309 0.07067 0.0
H1313 H 0.32373 0.78977 0.06275 0.0
H1314 H 0.35758 0.82637 0.08708 0.0
H1315 H 0.51343 0.94252 0.07512 0.0
H1316 H 0.49416 0.89882 0.09831 0.0
H1317 H 0.41037 0.90239 0.08211 0.0
H1318 H 0.42964 0.9457 0.05823 0.0
H1319 H 0.41157 0.85139 0.07565 0.0
H1320 H 0.44191 0.91719 0.147 0.0
H1321 H 0.47526 0.95371 0.17188 0.0
H1322 H 0.52855 0.89863 0.17879 0.0
H1323 H 0.49567 0.86189 0.15364 0.0
C1324 C 0.35878 0.75644 0.16458 0.0
C1325 C 0.37466 0.73903 0.17379 0.0
C1326 C 0.37167 0.78179 0.15216 0.0
C1327 C 0.40106 0.79098 0.14834 0.0
C1328 C 0.41715 0.77437 0.15856 0.0
C1329 C 0.4042 0.74881 0.17101 0.0
C1330 C 0.41457 0.81753 0.13337 0.0
C1331 C 0.43511 0.83891 0.14536 0.0
C1332 C 0.40624 0.82247 0.10775 0.0
C1333 C 0.38595 0.80058 0.09292 0.0
C1334 C 0.39076 0.77411 0.08799 0.0
C1335 C 0.37138 0.75346 0.0743 0.0
C1336 C 0.34723 0.7591 0.06525 0.0
C1337 C 0.34243 0.78543 0.0698 0.0
C1338 C 0.36172 0.80614 0.08353 0.0
C1339 C 0.49084 0.93414 0.07651 0.0
C1340 C 0.47325 0.94813 0.06468 0.0
C1341 C 0.47973 0.90899 0.09006 0.0
C1342 C 0.4505 0.89695 0.09269 0.0
C1343 C 0.43293 0.91081 0.08068 0.0
C1344 C 0.44404 0.93588 0.06697 0.0
C1345 C 0.43829 0.8699 0.10744 0.0
C1346 C 0.41794 0.84833 0.09538 0.0
C1347 C 0.44671 0.8649 0.13305 0.0
C1348 C 0.46647 0.8869 0.1482 0.0
C1349 C 0.46084 0.91294 0.15366 0.0
C1350 C 0.47964 0.93367 0.16783 0.0
C1351 C 0.50405 0.92852 0.17684 0.0
C1352 C 0.50966 0.90261 0.17176 0.0
C1353 C 0.49094 0.88182 0.15757 0.0
H1354 H 0.51858 0.9446 0.18781 0.0
H1355 H 0.33225 0.74308 0.05466 0.0
H1356 H 0.18196 0.28457 0.66342 0.0
H1357 H 0.16131 0.2385 0.64398 0.0
H1358 H 0.07948 0.25485 0.65064 0.0
H1359 H 0.10009 0.30114 0.67009 0.0
H1360 H 0.07789 0.20056 0.66297 0.0
H1361 H 0.11627 0.26469 0.59289 0.0
H1362 H 0.15337 0.30017 0.56963 0.0
H1363 H 0.20486 0.24249 0.55978 0.0
H1364 H 0.16822 0.20679 0.58338 0.0
H1365 H 0.00948 0.10158 0.56786 0.0
H1366 H 0.03004 0.14429 0.5928 0.0
H1367 H 0.11213 0.12937 0.57978 0.0
H1368 H 0.09177 0.08673 0.55419 0.0
H1369 H 0.11425 0.18237 0.57171 0.0
H1370 H 0.07549 0.11759 0.64055 0.0
H1371 H 0.03865 0.08214 0.66415 0.0
H1372 H 0.98819 0.14053 0.67656 0.0
H1373 H 0.02457 0.17623 0.6527 0.0
C1374 C 0.15953 0.27828 0.6609 0.0
C1375 C 0.14267 0.29658 0.66792 0.0
C1376 C 0.14777 0.25196 0.64985 0.0
C1377 C 0.11897 0.2435 0.64543 0.0
C1378 C 0.10179 0.26106 0.65381 0.0
C1379 C 0.11356 0.28744 0.66496 0.0
C1380 C 0.10719 0.21709 0.63062 0.0
C1381 C 0.08559 0.19665 0.64292 0.0
C1382 C 0.11771 0.21184 0.60467 0.0
C1383 C 0.13961 0.23316 0.59014 0.0
C1384 C 0.13558 0.25963 0.58594 0.0
C1385 C 0.15652 0.27978 0.57267 0.0
C1386 C 0.18148 0.27362 0.56329 0.0
C1387 C 0.18552 0.24725 0.56709 0.0
C1388 C 0.16467 0.22705 0.5804 0.0
C1389 C 0.03192 0.10729 0.5703 0.0
C1390 C 0.04897 0.09064 0.55911 0.0
C1391 C 0.04362 0.13169 0.58471 0.0
C1392 C 0.07256 0.1398 0.58856 0.0
C1393 C 0.08972 0.12344 0.57715 0.0
C1394 C 0.07804 0.09906 0.56256 0.0
C1395 C 0.08491 0.16568 0.60404 0.0
C1396 C 0.1066 0.18612 0.59183 0.0
C1397 C 0.07448 0.17087 0.63008 0.0
C1398 C 0.05266 0.14951 0.64463 0.0
C1399 C 0.05645 0.12282 0.64815 0.0
C1400 C 0.03567 0.10269 0.66159 0.0
C1401 C 0.01107 0.10906 0.67179 0.0
C1402 C 1.00724 0.13561 0.66863 0.0
C1403 C 0.02795 0.15581 0.65517 0.0
H1404 H 0.995 0.09344 0.68218 0.0
H1405 H 0.19767 0.28924 0.55304 0.0
H1406 H 0.72939 0.25907 0.35828 0.0
H1407 H 0.6956 0.2833 0.37775 0.0
H1408 H 0.76332 0.34881 0.4077 0.0
H1409 H 0.79744 0.32436 0.38829 0.0
H1410 H 0.7183 0.3355 0.44389 0.0
H1411 H 0.73393 0.35877 0.3521 0.0
H1412 H 0.73828 0.34946 0.30371 0.0
H1413 H 0.65212 0.3022 0.30459 0.0
H1414 H 0.64737 0.31085 0.3531 0.0
H1415 H 0.63017 0.43048 0.46211 0.0
H1416 H 0.66811 0.40877 0.44849 0.0
H1417 H 0.60772 0.33666 0.4184 0.0
H1418 H 0.5696 0.35781 0.43255 0.0
H1419 H 0.65209 0.35716 0.38236 0.0
H1420 H 0.6376 0.3329 0.475 0.0
H1421 H 0.6339 0.34266 0.52337 0.0
H1422 H 0.71874 0.39347 0.52055 0.0
H1423 H 0.72281 0.38434 0.47205 0.0
C1424 C 0.7371 0.27865 0.36899 0.0
C1425 C 0.76605 0.29011 0.37139 0.0
C1426 C 0.71779 0.29244 0.38015 0.0
C1427 C 0.727 0.31812 0.39369 0.0
C1428 C 0.75582 0.32907 0.39719 0.0
C1429 C 0.77525 0.31514 0.38612 0.0
C1430 C 0.70639 0.3338 0.40316 0.0
C1431 C 0.70411 0.34067 0.4304 0.0
C1432 C 0.68771 0.34025 0.38555 0.0
C1433 C 0.69036 0.33528 0.35629 0.0
C1434 C 0.71596 0.34623 0.34202 0.0
C1435 C 0.7185 0.34109 0.31456 0.0
C1436 C 0.69551 0.3252 0.3011 0.0
C1437 C 0.66992 0.31449 0.31506 0.0
C1438 C 0.66728 0.31952 0.34253 0.0
C1439 C 0.62488 0.4098 0.45301 0.0
C1440 C 0.5968 0.3959 0.4484 0.0
C1441 C 0.64662 0.39749 0.44515 0.0
C1442 C 0.64068 0.3711 0.43253 0.0
C1443 C 0.61272 0.35711 0.42803 0.0
C1444 C 0.59098 0.3693 0.43601 0.0
C1445 C 0.66359 0.35834 0.42315 0.0
C1446 C 0.66638 0.35215 0.39584 0.0
C1447 C 0.6828 0.35275 0.44068 0.0
C1448 C 0.6804 0.35819 0.46984 0.0
C1449 C 0.65538 0.34637 0.48464 0.0
C1450 C 0.65323 0.35174 0.51209 0.0
C1451 C 0.67604 0.36875 0.52501 0.0
C1452 C 0.70107 0.38035 0.51051 0.0
C1453 C 0.70332 0.37506 0.48304 0.0
H1454 H 0.67433 0.37288 0.54627 0.0
H1455 H 0.69752 0.32123 0.27984 0.0
loop_
_geom_bond_atom_site_label_1
_geom_bond_atom_site_label_2
_geom_bond_distance
_geom_bond_site_symmetry_2
_ccdc_geom_bond_type
H0 C5 0.930 . S
H1 C8 0.930 . S
H2 C10 0.930 . S
H3 C4 1.016 . S
C4 H3 1.016 . S
C4 N11 1.286 . S
C5 H0 0.930 . S
C5 C6 1.397 . S
C5 C7 1.361 . S
C6 C5 1.397 . S
C6 C10 1.390 . S
C7 C5 1.361 . S
C7 C8 1.393 . S
C7 N11 1.413 . S
C8 H1 0.930 . S
C8 C7 1.393 . S
C8 C9 1.399 . S
C9 C8 1.399 . S
C9 C10 1.381 . S
C10 H2 0.930 . S
C10 C6 1.390 . S
C10 C9 1.381 . S
N11 C4 1.286 . S
N11 C7 1.413 . S
H12 C17 0.930 . S
H13 C20 0.930 . S
H14 C22 0.930 . S
H15 C16 1.016 . S
C16 H15 1.016 . S
C16 N23 1.286 . S
C17 H12 0.930 . S
C17 C18 1.397 . S
C17 C19 1.361 . S
C18 C17 1.397 . S
C18 C22 1.390 . S
C19 C17 1.361 . S
C19 C20 1.393 . S
C19 N23 1.413 . S
C20 H13 0.930 . S
C20 C19 1.393 . S
C20 C21 1.399 . S
C21 C20 1.399 . S
C21 C22 1.381 . S
C22 H14 0.930 . S
C22 C18 1.390 . S
C22 C21 1.381 . S
N23 C16 1.286 . S
N23 C19 1.413 . S
H24 C29 0.930 . S
H25 C32 0.930 . S
H26 C34 0.930 . S
H27 C28 1.016 . S
C28 H27 1.016 . S
C28 N35 1.286 . S
C29 H24 0.930 . S
C29 C30 1.397 . S
C29 C31 1.361 . S
C30 C29 1.397 . S
C30 C34 1.390 . S
C31 C29 1.361 . S
C31 C32 1.393 . S
C31 N35 1.413 . S
C32 H25 0.930 . S
C32 C31 1.393 . S
C32 C33 1.399 . S
C33 C32 1.399 . S
C33 C34 1.381 . S
C34 H26 0.930 . S
C34 C30 1.390 . S
C34 C33 1.381 . S
N35 C28 1.286 . S
N35 C31 1.413 . S
H36 C41 0.930 . S
H37 C44 0.930 . S
H38 C46 0.930 . S
H39 C40 1.016 . S
C40 H39 1.016 . S
C40 N47 1.286 . S
C41 H36 0.930 . S
C41 C42 1.397 . S
C41 C43 1.361 . S
C42 C41 1.397 . S
C42 C46 1.390 . S
C43 C41 1.361 . S
C43 C44 1.393 . S
C43 N47 1.413 . S
C44 H37 0.930 . S
C44 C43 1.393 . S
C44 C45 1.399 . S
C45 C44 1.399 . S
C45 C46 1.381 . S
C46 H38 0.930 . S
C46 C42 1.390 . S
C46 C45 1.381 . S
N47 C40 1.286 . S
N47 C43 1.413 . S
H48 C53 0.930 . S
H49 C56 0.930 . S
H50 C58 0.930 . S
H51 C52 1.016 . S
C52 H51 1.016 . S
C52 N59 1.286 . S
C53 H48 0.930 . S
C53 C54 1.397 . S
C53 C55 1.361 . S
C54 C53 1.397 . S
C54 C58 1.390 . S
C55 C53 1.361 . S
C55 C56 1.393 . S
C55 N59 1.413 . S
C56 H49 0.930 . S
C56 C55 1.393 . S
C56 C57 1.399 . S
C57 C56 1.399 . S
C57 C58 1.381 . S
C58 H50 0.930 . S
C58 C54 1.390 . S
C58 C57 1.381 . S
N59 C52 1.286 . S
N59 C55 1.413 . S
H60 C65 0.930 . S
H61 C68 0.930 . S
H62 C70 0.930 . S
H63 C64 1.016 . S
C64 H63 1.016 . S
C64 N71 1.286 . S
C65 H60 0.930 . S
C65 C66 1.397 . S
C65 C67 1.361 . S
C66 C65 1.397 . S
C66 C70 1.390 . S
C67 C65 1.361 . S
C67 C68 1.393 . S
C67 N71 1.413 . S
C68 H61 0.930 . S
C68 C67 1.393 . S
C68 C69 1.399 . S
C69 C68 1.399 . S
C69 C70 1.381 . S
C70 H62 0.930 . S
C70 C66 1.390 . S
C70 C69 1.381 . S
N71 C64 1.286 . S
N71 C67 1.413 . S
H72 C77 0.930 . S
H73 C80 0.930 . S
H74 C82 0.930 . S
H75 C76 1.016 . S
C76 H75 1.016 . S
C76 N83 1.286 . S
C77 H72 0.930 . S
C77 C78 1.397 . S
C77 C79 1.361 . S
C78 C77 1.397 . S
C78 C82 1.390 . S
C79 C77 1.361 . S
C79 C80 1.393 . S
C79 N83 1.413 . S
C80 H73 0.930 . S
C80 C79 1.393 . S
C80 C81 1.399 . S
C81 C80 1.399 . S
C81 C82 1.381 . S
C82 H74 0.930 . S
C82 C78 1.390 . S
C82 C81 1.381 . S
N83 C76 1.286 . S
N83 C79 1.413 . S
H84 C89 0.930 . S
H85 C92 0.930 . S
H86 C94 0.930 . S
H87 C88 1.016 . S
C88 H87 1.016 . S
C88 N95 1.286 . S
C89 H84 0.930 . S
C89 C90 1.397 . S
C89 C91 1.361 . S
C90 C89 1.397 . S
C90 C94 1.390 . S
C91 C89 1.361 . S
C91 C92 1.393 . S
C91 N95 1.413 . S
C92 H85 0.930 . S
C92 C91 1.393 . S
C92 C93 1.399 . S
C93 C92 1.399 . S
C93 C94 1.381 . S
C94 H86 0.930 . S
C94 C90 1.390 . S
C94 C93 1.381 . S
N95 C88 1.286 . S
N95 C91 1.413 . S
Tb96 C105 2.764 . S
Tb96 O106 2.325 1_455 S
Tb96 O109 2.303 . S
Tb96 O113 2.322 1_545 S
Tb96 O114 2.349 1_545 S
Tb96 O117 2.415 . S
Tb96 O118 2.399 . S
Tb97 O107 2.299 1_565 S
Tb97 O108 2.325 1_565 S
Tb97 O110 2.443 . S
Tb97 O111 2.404 . S
Tb97 O112 2.345 1_655 S
Tb97 O115 2.322 . S
Tb97 C126 2.783 . S
C98 O114 1.261 1_655 S
C98 O115 1.257 . S
C99 C102 1.358 . S
C99 C103 1.332 . S
C99 C105 1.504 . S
C100 C101 1.373 . S
C100 C104 1.308 . S
C101 C100 1.373 . S
C101 C102 1.429 . S
C101 H128 0.932 . S
C102 C99 1.358 . S
C102 C101 1.429 . S
C102 H129 0.930 . S
C103 C99 1.332 . S
C103 C104 1.394 . S
C103 H130 0.932 . S
C104 C100 1.308 . S
C104 C103 1.394 . S
C104 H131 0.929 . S
C105 Tb96 2.764 . S
C105 C99 1.504 . S
C105 O117 1.239 . S
C105 O118 1.263 . S
O106 Tb96 2.325 1_655 S
O106 C116 1.236 . S
O107 Tb97 2.299 1_545 S
O107 C116 1.257 . S
O108 Tb97 2.325 1_545 S
O108 C119 1.261 1_655 S
O109 Tb96 2.303 . S
O109 C119 1.257 . S
O110 Tb97 2.443 . S
O110 C126 1.239 . S
O111 Tb97 2.404 . S
O111 C126 1.263 . S
O112 Tb97 2.345 1_455 S
O112 C127 1.236 . S
O113 Tb96 2.322 1_565 S
O113 C127 1.257 . S
O114 Tb96 2.349 1_565 S
O114 C98 1.261 1_455 S
O115 Tb97 2.322 . S
O115 C98 1.257 . S
C116 O106 1.236 . S
C116 O107 1.257 . S
O117 Tb96 2.415 . S
O117 C105 1.239 . S
O118 Tb96 2.399 . S
O118 C105 1.263 . S
C119 O108 1.261 1_455 S
C119 O109 1.257 . S
C120 C123 1.358 . S
C120 C124 1.332 . S
C120 C126 1.504 . S
C121 C122 1.373 . S
C121 C125 1.308 . S
C122 C121 1.373 . S
C122 C123 1.429 . S
C122 H132 0.932 . S
C123 C120 1.358 . S
C123 C122 1.429 . S
C123 H133 0.930 . S
C124 C120 1.332 . S
C124 C125 1.394 . S
C124 H134 0.932 . S
C125 C121 1.308 . S
C125 C124 1.394 . S
C125 H135 0.929 . S
C126 Tb97 2.783 . S
C126 O110 1.239 . S
C126 O111 1.263 . S
C126 C120 1.504 . S
C127 O112 1.236 . S
C127 O113 1.257 . S
H128 C101 0.932 . S
H129 C102 0.930 . S
H130 C103 0.932 . S
H131 C104 0.929 . S
H132 C122 0.932 . S
H133 C123 0.930 . S
H134 C124 0.932 . S
H135 C125 0.929 . S
Tb136 C145 2.764 . S
Tb136 O146 2.325 . S
Tb136 O149 2.303 . S
Tb136 O153 2.322 1_545 S
Tb136 O154 2.349 1_545 S
Tb136 O157 2.415 . S
Tb136 O158 2.399 . S
Tb137 O147 2.322 . S
Tb137 O148 2.349 1_556 S
Tb137 O150 2.415 1_545 S
Tb137 O151 2.399 1_545 S
Tb137 O152 2.325 1_546 S
Tb137 O155 2.303 1_545 S
Tb137 C166 2.764 1_545 S
C138 O154 1.261 1_556 S
C138 O155 1.257 . S
C139 C142 1.358 . S
C139 C143 1.332 . S
C139 C145 1.504 . S
C140 C141 1.373 . S
C140 C144 1.308 . S
C141 C140 1.373 . S
C141 C142 1.429 . S
C141 H168 0.932 . S
C142 C139 1.358 . S
C142 C141 1.429 . S
C142 H169 0.930 . S
C143 C139 1.332 . S
C143 C144 1.394 . S
C143 H170 0.932 . S
C144 C140 1.308 . S
C144 C143 1.394 . S
C144 H171 0.929 . S
C145 Tb136 2.764 . S
C145 C139 1.504 . S
C145 O157 1.239 . S
C145 O158 1.263 . S
O146 Tb136 2.325 . S
O146 C156 1.236 1_554 S
O147 Tb137 2.322 . S
O147 C156 1.257 . S
O148 Tb137 2.349 1_554 S
O148 C159 1.261 . S
O149 Tb136 2.303 . S
O149 C159 1.257 . S
O150 Tb137 2.415 1_565 S
O150 C166 1.239 . S
O151 Tb137 2.399 1_565 S
O151 C166 1.263 . S
O152 Tb137 2.325 1_564 S
O152 C167 1.236 . S
O153 Tb136 2.322 1_565 S
O153 C167 1.257 . S
O154 Tb136 2.349 1_565 S
O154 C138 1.261 1_554 S
O155 Tb137 2.303 1_565 S
O155 C138 1.257 . S
C156 O146 1.236 1_556 S
C156 O147 1.257 . S
O157 Tb136 2.415 . S
O157 C145 1.239 . S
O158 Tb136 2.399 . S
O158 C145 1.263 . S
C159 O148 1.261 . S
C159 O149 1.257 . S
C160 C163 1.358 . S
C160 C164 1.332 . S
C160 C166 1.504 . S
C161 C162 1.373 . S
C161 C165 1.308 . S
C162 C161 1.373 . S
C162 C163 1.429 . S
C162 H172 0.932 . S
C163 C160 1.358 . S
C163 C162 1.429 . S
C163 H173 0.930 . S
C164 C160 1.332 . S
C164 C165 1.394 . S
C164 H174 0.932 . S
C165 C161 1.308 . S
C165 C164 1.394 . S
C165 H175 0.929 . S
C166 Tb137 2.764 1_565 S
C166 O150 1.239 . S
C166 O151 1.263 . S
C166 C160 1.504 . S
C167 O152 1.236 . S
C167 O153 1.257 . S
H168 C141 0.932 . S
H169 C142 0.930 . S
H170 C143 0.932 . S
H171 C144 0.929 . S
H172 C162 0.932 . S
H173 C163 0.930 . S
H174 C164 0.932 . S
H175 C165 0.929 . S
Tb176 C185 2.764 . S
Tb176 O186 2.325 . S
Tb176 O189 2.303 . S
Tb176 O193 2.322 . S
Tb176 O194 2.349 . S
Tb176 O197 2.415 . S
Tb176 O198 2.399 . S
Tb177 O187 2.322 . S
Tb177 O188 2.349 . S
Tb177 O190 2.415 . S
Tb177 O191 2.399 . S
Tb177 O192 2.325 . S
Tb177 O195 2.303 . S
Tb177 C206 2.764 . S
C178 O194 1.261 . S
C178 O195 1.257 . S
C179 C182 1.358 . S
C179 C183 1.332 . S
C179 C185 1.504 . S
C180 C181 1.373 . S
C180 C184 1.308 . S
C181 C180 1.373 . S
C181 C182 1.429 . S
C181 H208 0.932 . S
C182 C179 1.358 . S
C182 C181 1.429 . S
C182 H209 0.930 . S
C183 C179 1.332 . S
C183 C184 1.394 . S
C183 H210 0.932 . S
C184 C180 1.308 . S
C184 C183 1.394 . S
C184 H211 0.929 . S
C185 Tb176 2.764 . S
C185 C179 1.504 . S
C185 O197 1.239 . S
C185 O198 1.263 . S
O186 Tb176 2.325 . S
O186 C196 1.236 . S
O187 Tb177 2.322 . S
O187 C196 1.257 . S
O188 Tb177 2.349 . S
O188 C199 1.261 . S
O189 Tb176 2.303 . S
O189 C199 1.257 . S
O190 Tb177 2.415 . S
O190 C206 1.239 . S
O191 Tb177 2.399 . S
O191 C206 1.263 . S
O192 Tb177 2.325 . S
O192 C207 1.236 . S
O193 Tb176 2.322 . S
O193 C207 1.257 . S
O194 Tb176 2.349 . S
O194 C178 1.261 . S
O195 Tb177 2.303 . S
O195 C178 1.257 . S
C196 O186 1.236 . S
C196 O187 1.257 . S
O197 Tb176 2.415 . S
O197 C185 1.239 . S
O198 Tb176 2.399 . S
O198 C185 1.263 . S
C199 O188 1.261 . S
C199 O189 1.257 . S
C200 C203 1.358 . S
C200 C204 1.332 . S
C200 C206 1.504 . S
C201 C202 1.373 . S
C201 C205 1.308 . S
C202 C201 1.373 . S
C202 C203 1.429 . S
C202 H212 0.932 . S
C203 C200 1.358 . S
C203 C202 1.429 . S
C203 H213 0.930 . S
C204 C200 1.332 . S
C204 C205 1.394 . S
C204 H214 0.932 . S
C205 C201 1.308 . S
C205 C204 1.394 . S
C205 H215 0.929 . S
C206 Tb177 2.764 . S
C206 O190 1.239 . S
C206 O191 1.263 . S
C206 C200 1.504 . S
C207 O192 1.236 . S
C207 O193 1.257 . S
H208 C181 0.932 . S
H209 C182 0.930 . S
H210 C183 0.932 . S
H211 C184 0.929 . S
H212 C202 0.932 . S
H213 C203 0.930 . S
H214 C204 0.932 . S
H215 C205 0.929 . S
Tb216 C225 2.764 1_455 S
Tb216 O226 2.325 1_455 S
Tb216 O229 2.303 1_456 S
Tb216 O233 2.322 1_556 S
Tb216 O234 2.349 . S
Tb216 O237 2.415 1_455 S
Tb216 O238 2.399 1_455 S
Tb217 O227 2.322 1_455 S
Tb217 O228 2.349 1_455 S
Tb217 O230 2.415 . S
Tb217 O231 2.399 . S
Tb217 O232 2.325 . S
Tb217 O235 2.303 1_554 S
Tb217 C246 2.764 . S
C218 O234 1.261 . S
C218 O235 1.257 . S
C219 C222 1.358 . S
C219 C223 1.332 . S
C219 C225 1.504 . S
C220 C221 1.373 . S
C220 C224 1.308 . S
C221 C220 1.373 . S
C221 C222 1.429 . S
C221 H248 0.932 . S
C222 C219 1.358 . S
C222 C221 1.429 . S
C222 H249 0.930 . S
C223 C219 1.332 . S
C223 C224 1.394 . S
C223 H250 0.932 . S
C224 C220 1.308 . S
C224 C223 1.394 . S
C224 H251 0.929 . S
C225 Tb216 2.764 1_655 S
C225 C219 1.504 . S
C225 O237 1.239 . S
C225 O238 1.263 . S
O226 Tb216 2.325 1_655 S
O226 C236 1.236 . S
O227 Tb217 2.322 1_655 S
O227 C236 1.257 1_554 S
O228 Tb217 2.349 1_655 S
O228 C239 1.261 . S
O229 Tb216 2.303 1_654 S
O229 C239 1.257 . S
O230 Tb217 2.415 . S
O230 C246 1.239 . S
O231 Tb217 2.399 . S
O231 C246 1.263 . S
O232 Tb217 2.325 . S
O232 C247 1.236 . S
O233 Tb216 2.322 1_554 S
O233 C247 1.257 . S
O234 Tb216 2.349 . S
O234 C218 1.261 . S
O235 Tb217 2.303 1_556 S
O235 C218 1.257 . S
C236 O226 1.236 . S
C236 O227 1.257 1_556 S
O237 Tb216 2.415 1_655 S
O237 C225 1.239 . S
O238 Tb216 2.399 1_655 S
O238 C225 1.263 . S
C239 O228 1.261 . S
C239 O229 1.257 . S
C240 C243 1.358 . S
C240 C244 1.332 . S
C240 C246 1.504 . S
C241 C242 1.373 . S
C241 C245 1.308 . S
C242 C241 1.373 . S
C242 C243 1.429 . S
C242 H252 0.932 . S
C243 C240 1.358 . S
C243 C242 1.429 . S
C243 H253 0.930 . S
C244 C240 1.332 . S
C244 C245 1.394 . S
C244 H254 0.932 . S
C245 C241 1.308 . S
C245 C244 1.394 . S
C245 H255 0.929 . S
C246 Tb217 2.764 . S
C246 O230 1.239 . S
C246 O231 1.263 . S
C246 C240 1.504 . S
C247 O232 1.236 . S
C247 O233 1.257 . S
H248 C221 0.932 . S
H249 C222 0.930 . S
H250 C223 0.932 . S
H251 C224 0.929 . S
H252 C242 0.932 . S
H253 C243 0.930 . S
H254 C244 0.932 . S
H255 C245 0.929 . S
H256 C274 0.951 . S
H257 C276 0.951 . S
H258 C278 0.950 . S
H259 C279 0.950 . S
H260 C281 0.950 . S
H261 C284 0.950 . S
H262 C285 0.950 . S
H263 C287 0.950 . S
H264 C288 0.950 . S
H265 C289 0.951 . S
H266 C291 0.951 . S
H267 C293 0.950 . S
H268 C294 0.950 . S
H269 C296 0.950 . S
H270 C299 0.950 . S
H271 C300 0.950 . S
H272 C302 0.950 . S
H273 C303 0.950 . S
C274 H256 0.951 . S
C274 C275 1.366 . S
C274 C276 1.388 . S
C275 C274 1.366 . S
C275 C279 1.385 . S
C276 H257 0.951 . S
C276 C274 1.388 . S
C276 C277 1.366 . S
C277 C276 1.366 . S
C277 C278 1.414 . S
C277 C280 1.499 . S
C278 H258 0.950 . S
C278 C277 1.414 . S
C278 C279 1.374 . S
C279 H259 0.950 . S
C279 C275 1.385 . S
C279 C278 1.374 . S
C280 C277 1.499 . S
C280 C281 1.373 . S
C280 C282 1.389 . S
C281 H260 0.950 . S
C281 C280 1.373 . S
C281 C297 1.377 . S
C282 C280 1.389 . S
C282 C283 1.524 . S
C282 C296 1.377 . S
C283 C282 1.524 . S
C283 C284 1.397 . S
C283 C288 1.363 . S
C284 H261 0.950 . S
C284 C283 1.397 . S
C284 C285 1.334 . S
C285 H262 0.950 . S
C285 C284 1.334 . S
C285 C286 1.287 . S
C286 C285 1.287 . S
C286 C287 1.524 . S
C286 H305 0.913 . S
C287 H263 0.950 . S
C287 C286 1.524 . S
C287 C288 1.415 . S
C288 H264 0.950 . S
C288 C283 1.363 . S
C288 C287 1.415 . S
C289 H265 0.951 . S
C289 C290 1.366 . S
C289 C291 1.388 . S
C290 C289 1.366 . S
C290 C294 1.385 . S
C291 H266 0.951 . S
C291 C289 1.388 . S
C291 C292 1.366 . S
C292 C291 1.366 . S
C292 C293 1.414 . S
C292 C295 1.499 . S
C293 H267 0.950 . S
C293 C292 1.414 . S
C293 C294 1.374 . S
C294 H268 0.950 . S
C294 C290 1.385 . S
C294 C293 1.374 . S
C295 C292 1.499 . S
C295 C296 1.373 . S
C295 C297 1.389 . S
C296 H269 0.950 . S
C296 C282 1.377 . S
C296 C295 1.373 . S
C297 C281 1.377 . S
C297 C295 1.389 . S
C297 C298 1.524 . S
C298 C297 1.524 . S
C298 C299 1.397 . S
C298 C303 1.363 . S
C299 H270 0.950 . S
C299 C298 1.397 . S
C299 C300 1.334 . S
C300 H271 0.950 . S
C300 C299 1.334 . S
C300 C301 1.287 . S
C301 C300 1.287 . S
C301 C302 1.524 . S
C301 H304 0.999 . S
C302 H272 0.950 . S
C302 C301 1.524 . S
C302 C303 1.415 . S
C303 H273 0.950 . S
C303 C298 1.363 . S
C303 C302 1.415 . S
H304 C301 0.999 . S
H305 C286 0.913 . S
H306 C324 0.951 . S
H307 C326 0.951 . S
H308 C328 0.950 . S
H309 C329 0.950 . S
H310 C331 0.950 . S
H311 C334 0.950 . S
H312 C335 0.950 . S
H313 C337 0.950 . S
H314 C338 0.950 . S
H315 C339 0.951 . S
H316 C341 0.951 . S
H317 C343 0.950 . S
H318 C344 0.950 . S
H319 C346 0.950 . S
H320 C349 0.950 . S
H321 C350 0.950 . S
H322 C352 0.950 . S
H323 C353 0.950 . S
C324 H306 0.951 . S
C324 C325 1.366 . S
C324 C326 1.388 . S
C325 C324 1.366 . S
C325 C329 1.385 . S
C326 H307 0.951 . S
C326 C324 1.388 . S
C326 C327 1.366 . S
C327 C326 1.366 . S
C327 C328 1.414 . S
C327 C330 1.499 . S
C328 H308 0.950 . S
C328 C327 1.414 . S
C328 C329 1.374 . S
C329 H309 0.950 . S
C329 C325 1.385 . S
C329 C328 1.374 . S
C330 C327 1.499 . S
C330 C331 1.373 . S
C330 C332 1.389 . S
C331 H310 0.950 . S
C331 C330 1.373 . S
C331 C347 1.377 . S
C332 C330 1.389 . S
C332 C333 1.524 . S
C332 C346 1.377 . S
C333 C332 1.524 . S
C333 C334 1.397 . S
C333 C338 1.363 . S
C334 H311 0.950 . S
C334 C333 1.397 . S
C334 C335 1.334 . S
C335 H312 0.950 . S
C335 C334 1.334 . S
C335 C336 1.287 . S
C336 C335 1.287 . S
C336 C337 1.524 . S
C336 H355 0.913 . S
C337 H313 0.950 . S
C337 C336 1.524 . S
C337 C338 1.415 . S
C338 H314 0.950 . S
C338 C333 1.363 . S
C338 C337 1.415 . S
C339 H315 0.951 . S
C339 C340 1.366 . S
C339 C341 1.388 . S
C340 C339 1.366 . S
C340 C344 1.385 . S
C341 H316 0.951 . S
C341 C339 1.388 . S
C341 C342 1.366 . S
C342 C341 1.366 . S
C342 C343 1.414 . S
C342 C345 1.499 . S
C343 H317 0.950 . S
C343 C342 1.414 . S
C343 C344 1.374 . S
C344 H318 0.950 . S
C344 C340 1.385 . S
C344 C343 1.374 . S
C345 C342 1.499 . S
C345 C346 1.373 . S
C345 C347 1.389 . S
C346 H319 0.950 . S
C346 C332 1.377 . S
C346 C345 1.373 . S
C347 C331 1.377 . S
C347 C345 1.389 . S
C347 C348 1.524 . S
C348 C347 1.524 . S
C348 C349 1.397 . S
C348 C353 1.363 . S
C349 H320 0.950 . S
C349 C348 1.397 . S
C349 C350 1.334 . S
C350 H321 0.950 . S
C350 C349 1.334 . S
C350 C351 1.287 . S
C351 C350 1.287 . S
C351 C352 1.524 . S
C351 H354 0.999 . S
C352 H322 0.950 . S
C352 C351 1.524 . S
C352 C353 1.415 . S
C353 H323 0.950 . S
C353 C348 1.363 . S
C353 C352 1.415 . S
H354 C351 0.999 . S
H355 C336 0.913 . S
H356 C374 0.951 . S
H357 C376 0.951 . S
H358 C378 0.950 . S
H359 C379 0.950 . S
H360 C381 0.950 . S
H361 C384 0.950 . S
H362 C385 0.950 . S
H363 C387 0.950 . S
H364 C388 0.950 . S
H365 C389 0.951 . S
H366 C391 0.951 . S
H367 C393 0.950 . S
H368 C394 0.950 . S
H369 C396 0.950 . S
H370 C399 0.950 . S
H371 C400 0.950 . S
H372 C402 0.950 . S
H373 C403 0.950 . S
C374 H356 0.951 . S
C374 C375 1.366 . S
C374 C376 1.388 . S
C375 C374 1.366 . S
C375 C379 1.385 . S
C376 H357 0.951 . S
C376 C374 1.388 . S
C376 C377 1.366 . S
C377 C376 1.366 . S
C377 C378 1.414 . S
C377 C380 1.499 . S
C378 H358 0.950 . S
C378 C377 1.414 . S
C378 C379 1.374 . S
C379 H359 0.950 . S
C379 C375 1.385 . S
C379 C378 1.374 . S
C380 C377 1.499 . S
C380 C381 1.373 . S
C380 C382 1.389 . S
C381 H360 0.950 . S
C381 C380 1.373 . S
C381 C397 1.377 . S
C382 C380 1.389 . S
C382 C383 1.524 . S
C382 C396 1.377 . S
C383 C382 1.524 . S
C383 C384 1.397 . S
C383 C388 1.363 . S
C384 H361 0.950 . S
C384 C383 1.397 . S
C384 C385 1.334 . S
C385 H362 0.950 . S
C385 C384 1.334 . S
C385 C386 1.287 . S
C386 C385 1.287 . S
C386 C387 1.524 . S
C386 H405 0.913 . S
C387 H363 0.950 . S
C387 C386 1.524 . S
C387 C388 1.415 . S
C388 H364 0.950 . S
C388 C383 1.363 . S
C388 C387 1.415 . S
C389 H365 0.951 . S
C389 C390 1.366 . S
C389 C391 1.388 . S
C390 C389 1.366 . S
C390 C394 1.385 . S
C391 H366 0.951 . S
C391 C389 1.388 . S
C391 C392 1.366 . S
C392 C391 1.366 . S
C392 C393 1.414 . S
C392 C395 1.499 . S
C393 H367 0.950 . S
C393 C392 1.414 . S
C393 C394 1.374 . S
C394 H368 0.950 . S
C394 C390 1.385 . S
C394 C393 1.374 . S
C395 C392 1.499 . S
C395 C396 1.373 . S
C395 C397 1.389 . S
C396 H369 0.950 . S
C396 C382 1.377 . S
C396 C395 1.373 . S
C397 C381 1.377 . S
C397 C395 1.389 . S
C397 C398 1.524 . S
C398 C397 1.524 . S
C398 C399 1.397 . S
C398 C403 1.363 . S
C399 H370 0.950 . S
C399 C398 1.397 . S
C399 C400 1.334 . S
C400 H371 0.950 . S
C400 C399 1.334 . S
C400 C401 1.287 . S
C401 C400 1.287 . S
C401 C402 1.524 . S
C401 H404 0.999 . S
C402 H372 0.950 . S
C402 C401 1.524 . S
C402 C403 1.415 . S
C403 H373 0.950 . S
C403 C398 1.363 . S
C403 C402 1.415 . S
H404 C401 0.999 . S
H405 C386 0.913 . S
H406 C424 0.951 . S
H407 C426 0.951 . S
H408 C428 0.950 . S
H409 C429 0.950 . S
H410 C431 0.950 . S
H411 C434 0.950 . S
H412 C435 0.950 . S
H413 C437 0.950 . S
H414 C438 0.950 . S
H415 C439 0.951 . S
H416 C441 0.951 . S
H417 C443 0.950 . S
H418 C444 0.950 . S
H419 C446 0.950 . S
H420 C449 0.950 . S
H421 C450 0.950 . S
H422 C452 0.950 . S
H423 C453 0.950 . S
C424 H406 0.951 . S
C424 C425 1.366 . S
C424 C426 1.388 . S
C425 C424 1.366 . S
C425 C429 1.385 . S
C426 H407 0.951 . S
C426 C424 1.388 . S
C426 C427 1.366 . S
C427 C426 1.366 . S
C427 C428 1.414 . S
C427 C430 1.499 . S
C428 H408 0.950 . S
C428 C427 1.414 . S
C428 C429 1.374 . S
C429 H409 0.950 . S
C429 C425 1.385 . S
C429 C428 1.374 . S
C430 C427 1.499 . S
C430 C431 1.373 . S
C430 C432 1.389 . S
C431 H410 0.950 . S
C431 C430 1.373 . S
C431 C447 1.377 . S
C432 C430 1.389 . S
C432 C433 1.524 . S
C432 C446 1.377 . S
C433 C432 1.524 . S
C433 C434 1.397 . S
C433 C438 1.363 . S
C434 H411 0.950 . S
C434 C433 1.397 . S
C434 C435 1.334 . S
C435 H412 0.950 . S
C435 C434 1.334 . S
C435 C436 1.287 . S
C436 C435 1.287 . S
C436 C437 1.524 . S
C436 H455 0.913 . S
C437 H413 0.950 . S
C437 C436 1.524 . S
C437 C438 1.415 . S
C438 H414 0.950 . S
C438 C433 1.363 . S
C438 C437 1.415 . S
C439 H415 0.951 . S
C439 C440 1.366 . S
C439 C441 1.388 . S
C440 C439 1.366 . S
C440 C444 1.385 . S
C441 H416 0.951 . S
C441 C439 1.388 . S
C441 C442 1.366 . S
C442 C441 1.366 . S
C442 C443 1.414 . S
C442 C445 1.499 . S
C443 H417 0.950 . S
C443 C442 1.414 . S
C443 C444 1.374 . S
C444 H418 0.950 . S
C444 C440 1.385 . S
C444 C443 1.374 . S
C445 C442 1.499 . S
C445 C446 1.373 . S
C445 C447 1.389 . S
C446 H419 0.950 . S
C446 C432 1.377 . S
C446 C445 1.373 . S
C447 C431 1.377 . S
C447 C445 1.389 . S
C447 C448 1.524 . S
C448 C447 1.524 . S
C448 C449 1.397 . S
C448 C453 1.363 . S
C449 H420 0.950 . S
C449 C448 1.397 . S
C449 C450 1.334 1_655 S
C450 H421 0.950 . S
C450 C449 1.334 1_455 S
C450 C451 1.287 . S
C451 C450 1.287 . S
C451 C452 1.524 1_455 S
C451 H454 0.999 . S
C452 H422 0.950 . S
C452 C451 1.524 1_655 S
C452 C453 1.415 . S
C453 H423 0.950 . S
C453 C448 1.363 . S
C453 C452 1.415 . S
H454 C451 0.999 . S
H455 C436 0.913 . S
H456 C474 0.951 . S
H457 C476 0.951 . S
H458 C478 0.950 . S
H459 C479 0.950 . S
H460 C481 0.950 . S
H461 C484 0.950 . S
H462 C485 0.950 . S
H463 C487 0.950 . S
H464 C488 0.950 . S
H465 C489 0.951 . S
H466 C491 0.951 . S
H467 C493 0.950 . S
H468 C494 0.950 . S
H469 C496 0.950 . S
H470 C499 0.950 . S
H471 C500 0.950 . S
H472 C502 0.950 1_556 S
H473 C503 0.950 . S
C474 H456 0.951 . S
C474 C475 1.366 . S
C474 C476 1.388 . S
C475 C474 1.366 . S
C475 C479 1.385 . S
C476 H457 0.951 . S
C476 C474 1.388 . S
C476 C477 1.366 . S
C477 C476 1.366 . S
C477 C478 1.414 . S
C477 C480 1.499 . S
C478 H458 0.950 . S
C478 C477 1.414 . S
C478 C479 1.374 . S
C479 H459 0.950 . S
C479 C475 1.385 . S
C479 C478 1.374 . S
C480 C477 1.499 . S
C480 C481 1.373 . S
C480 C482 1.389 . S
C481 H460 0.950 . S
C481 C480 1.373 . S
C481 C497 1.377 . S
C482 C480 1.389 . S
C482 C483 1.524 . S
C482 C496 1.377 . S
C483 C482 1.524 . S
C483 C484 1.397 . S
C483 C488 1.363 . S
C484 H461 0.950 . S
C484 C483 1.397 . S
C484 C485 1.334 . S
C485 H462 0.950 . S
C485 C484 1.334 . S
C485 C486 1.287 . S
C486 C485 1.287 . S
C486 C487 1.524 . S
C486 H505 0.913 . S
C487 H463 0.950 . S
C487 C486 1.524 . S
C487 C488 1.415 . S
C488 H464 0.950 . S
C488 C483 1.363 . S
C488 C487 1.415 . S
C489 H465 0.951 . S
C489 C490 1.366 . S
C489 C491 1.388 . S
C490 C489 1.366 . S
C490 C494 1.385 . S
C491 H466 0.951 . S
C491 C489 1.388 . S
C491 C492 1.366 . S
C492 C491 1.366 . S
C492 C493 1.414 . S
C492 C495 1.499 . S
C493 H467 0.950 . S
C493 C492 1.414 . S
C493 C494 1.374 . S
C494 H468 0.950 . S
C494 C490 1.385 . S
C494 C493 1.374 . S
C495 C492 1.499 . S
C495 C496 1.373 . S
C495 C497 1.389 . S
C496 H469 0.950 . S
C496 C482 1.377 . S
C496 C495 1.373 . S
C497 C481 1.377 . S
C497 C495 1.389 . S
C497 C498 1.524 . S
C498 C497 1.524 . S
C498 C499 1.397 . S
C498 C503 1.363 . S
C499 H470 0.950 . S
C499 C498 1.397 . S
C499 C500 1.334 1_554 S
C500 H471 0.950 . S
C500 C499 1.334 1_556 S
C500 C501 1.287 . S
C501 C500 1.287 . S
C501 C502 1.524 1_556 S
C501 H504 0.999 . S
C502 H472 0.950 1_554 S
C502 C501 1.524 1_554 S
C502 C503 1.415 . S
C503 H473 0.950 . S
C503 C498 1.363 . S
C503 C502 1.415 . S
H504 C501 0.999 . S
H505 C486 0.913 . S
H506 C524 0.951 . S
H507 C526 0.951 . S
H508 C528 0.950 . S
H509 C529 0.950 . S
H510 C531 0.950 . S
H511 C534 0.950 . S
H512 C535 0.950 . S
H513 C537 0.950 . S
H514 C538 0.950 . S
H515 C539 0.951 . S
H516 C541 0.951 . S
H517 C543 0.950 . S
H518 C544 0.950 . S
H519 C546 0.950 . S
H520 C549 0.950 . S
H521 C550 0.950 1_655 S
H522 C552 0.950 . S
H523 C553 0.950 . S
C524 H506 0.951 . S
C524 C525 1.366 . S
C524 C526 1.388 . S
C525 C524 1.366 . S
C525 C529 1.385 . S
C526 H507 0.951 . S
C526 C524 1.388 . S
C526 C527 1.366 . S
C527 C526 1.366 . S
C527 C528 1.414 . S
C527 C530 1.499 . S
C528 H508 0.950 . S
C528 C527 1.414 . S
C528 C529 1.374 . S
C529 H509 0.950 . S
C529 C525 1.385 . S
C529 C528 1.374 . S
C530 C527 1.499 . S
C530 C531 1.373 . S
C530 C532 1.389 . S
C531 H510 0.950 . S
C531 C530 1.373 . S
C531 C547 1.377 . S
C532 C530 1.389 . S
C532 C533 1.524 . S
C532 C546 1.377 . S
C533 C532 1.524 . S
C533 C534 1.397 . S
C533 C538 1.363 . S
C534 H511 0.950 . S
C534 C533 1.397 . S
C534 C535 1.334 . S
C535 H512 0.950 . S
C535 C534 1.334 . S
C535 C536 1.287 . S
C536 C535 1.287 . S
C536 C537 1.524 . S
C536 H555 0.913 . S
C537 H513 0.950 . S
C537 C536 1.524 . S
C537 C538 1.415 . S
C538 H514 0.950 . S
C538 C533 1.363 . S
C538 C537 1.415 . S
C539 H515 0.951 . S
C539 C540 1.366 . S
C539 C541 1.388 . S
C540 C539 1.366 . S
C540 C544 1.385 . S
C541 H516 0.951 . S
C541 C539 1.388 . S
C541 C542 1.366 . S
C542 C541 1.366 . S
C542 C543 1.414 . S
C542 C545 1.499 . S
C543 H517 0.950 . S
C543 C542 1.414 . S
C543 C544 1.374 . S
C544 H518 0.950 . S
C544 C540 1.385 . S
C544 C543 1.374 . S
C545 C542 1.499 . S
C545 C546 1.373 . S
C545 C547 1.389 . S
C546 H519 0.950 . S
C546 C532 1.377 . S
C546 C545 1.373 . S
C547 C531 1.377 . S
C547 C545 1.389 . S
C547 C548 1.524 . S
C548 C547 1.524 . S
C548 C549 1.397 . S
C548 C553 1.363 . S
C549 H520 0.950 . S
C549 C548 1.397 . S
C549 C550 1.334 . S
C550 H521 0.950 1_455 S
C550 C549 1.334 . S
C550 C551 1.287 . S
C551 C550 1.287 . S
C551 C552 1.524 . S
C551 H554 0.999 . S
C552 H522 0.950 . S
C552 C551 1.524 . S
C552 C553 1.415 . S
C553 H523 0.950 . S
C553 C548 1.363 . S
C553 C552 1.415 . S
H554 C551 0.999 . S
H555 C536 0.913 . S
H556 C574 0.951 . S
H557 C576 0.951 . S
H558 C578 0.950 . S
H559 C579 0.950 . S
H560 C581 0.950 . S
H561 C584 0.950 . S
H562 C585 0.950 . S
H563 C587 0.950 . S
H564 C588 0.950 . S
H565 C589 0.951 . S
H566 C591 0.951 . S
H567 C593 0.950 . S
H568 C594 0.950 . S
H569 C596 0.950 . S
H570 C599 0.950 . S
H571 C600 0.950 . S
H572 C602 0.950 . S
H573 C603 0.950 . S
C574 H556 0.951 . S
C574 C575 1.366 . S
C574 C576 1.388 . S
C575 C574 1.366 . S
C575 C579 1.385 . S
C576 H557 0.951 . S
C576 C574 1.388 . S
C576 C577 1.366 . S
C577 C576 1.366 . S
C577 C578 1.414 . S
C577 C580 1.499 . S
C578 H558 0.950 . S
C578 C577 1.414 . S
C578 C579 1.374 . S
C579 H559 0.950 . S
C579 C575 1.385 . S
C579 C578 1.374 . S
C580 C577 1.499 . S
C580 C581 1.373 . S
C580 C582 1.389 . S
C581 H560 0.950 . S
C581 C580 1.373 . S
C581 C597 1.377 . S
C582 C580 1.389 . S
C582 C583 1.524 . S
C582 C596 1.377 . S
C583 C582 1.524 . S
C583 C584 1.397 . S
C583 C588 1.363 . S
C584 H561 0.950 . S
C584 C583 1.397 . S
C584 C585 1.334 . S
C585 H562 0.950 . S
C585 C584 1.334 . S
C585 C586 1.287 . S
C586 C585 1.287 . S
C586 C587 1.524 . S
C586 H605 0.913 . S
C587 H563 0.950 . S
C587 C586 1.524 . S
C587 C588 1.415 . S
C588 H564 0.950 . S
C588 C583 1.363 . S
C588 C587 1.415 . S
C589 H565 0.951 . S
C589 C590 1.366 . S
C589 C591 1.388 . S
C590 C589 1.366 . S
C590 C594 1.385 . S
C591 H566 0.951 . S
C591 C589 1.388 . S
C591 C592 1.366 . S
C592 C591 1.366 . S
C592 C593 1.414 . S
C592 C595 1.499 . S
C593 H567 0.950 . S
C593 C592 1.414 . S
C593 C594 1.374 . S
C594 H568 0.950 . S
C594 C590 1.385 . S
C594 C593 1.374 . S
C595 C592 1.499 . S
C595 C596 1.373 . S
C595 C597 1.389 . S
C596 H569 0.950 . S
C596 C582 1.377 . S
C596 C595 1.373 . S
C597 C581 1.377 . S
C597 C595 1.389 . S
C597 C598 1.524 . S
C598 C597 1.524 . S
C598 C599 1.397 . S
C598 C603 1.363 . S
C599 H570 0.950 . S
C599 C598 1.397 . S
C599 C600 1.334 1_556 S
C600 H571 0.950 . S
C600 C599 1.334 1_554 S
C600 C601 1.287 . S
C601 C600 1.287 . S
C601 C602 1.526 . S
C601 H604 0.999 . S
C602 H572 0.950 . S
C602 C601 1.526 . S
C602 C603 1.413 1_554 S
C603 H573 0.950 . S
C603 C598 1.363 . S
C603 C602 1.413 1_556 S
H604 C601 0.999 . S
H605 C586 0.913 . S
H606 C624 0.951 . S
H607 C626 0.951 . S
H608 C628 0.950 . S
H609 C629 0.950 . S
H610 C631 0.950 . S
H611 C634 0.950 . S
H612 C635 0.950 . S
H613 C637 0.950 . S
H614 C638 0.950 . S
H615 C639 0.951 . S
H616 C641 0.951 . S
H617 C643 0.950 . S
H618 C644 0.950 . S
H619 C646 0.950 . S
H620 C649 0.950 . S
H621 C650 0.950 . S
H622 C652 0.950 . S
H623 C653 0.950 . S
C624 H606 0.951 . S
C624 C625 1.366 . S
C624 C626 1.388 . S
C625 C624 1.366 . S
C625 C629 1.385 . S
C626 H607 0.951 . S
C626 C624 1.388 . S
C626 C627 1.366 . S
C627 C626 1.366 . S
C627 C628 1.414 . S
C627 C630 1.499 . S
C628 H608 0.950 . S
C628 C627 1.414 . S
C628 C629 1.374 . S
C629 H609 0.950 . S
C629 C625 1.385 . S
C629 C628 1.374 . S
C630 C627 1.499 . S
C630 C631 1.373 . S
C630 C632 1.389 . S
C631 H610 0.950 . S
C631 C630 1.373 . S
C631 C647 1.377 . S
C632 C630 1.389 . S
C632 C633 1.524 . S
C632 C646 1.377 . S
C633 C632 1.524 . S
C633 C634 1.397 . S
C633 C638 1.363 . S
C634 H611 0.950 . S
C634 C633 1.397 . S
C634 C635 1.334 . S
C635 H612 0.950 . S
C635 C634 1.334 . S
C635 C636 1.287 . S
C636 C635 1.287 . S
C636 C637 1.524 . S
C636 H655 0.913 . S
C637 H613 0.950 . S
C637 C636 1.524 . S
C637 C638 1.415 . S
C638 H614 0.950 . S
C638 C633 1.363 . S
C638 C637 1.415 . S
C639 H615 0.951 . S
C639 C640 1.366 . S
C639 C641 1.388 . S
C640 C639 1.366 . S
C640 C644 1.385 . S
C641 H616 0.951 . S
C641 C639 1.388 . S
C641 C642 1.366 . S
C642 C641 1.366 . S
C642 C643 1.414 . S
C642 C645 1.499 . S
C643 H617 0.950 . S
C643 C642 1.414 . S
C643 C644 1.374 . S
C644 H618 0.950 . S
C644 C640 1.385 . S
C644 C643 1.374 . S
C645 C642 1.499 . S
C645 C646 1.373 . S
C645 C647 1.389 . S
C646 H619 0.950 . S
C646 C632 1.377 . S
C646 C645 1.373 . S
C647 C631 1.377 . S
C647 C645 1.389 . S
C647 C648 1.524 . S
C648 C647 1.524 . S
C648 C649 1.397 . S
C648 C653 1.363 . S
C649 H620 0.950 . S
C649 C648 1.397 . S
C649 C650 1.334 . S
C650 H621 0.950 . S
C650 C649 1.334 . S
C650 C651 1.287 . S
C651 C650 1.287 . S
C651 C652 1.524 . S
C651 H654 0.999 . S
C652 H622 0.950 . S
C652 C651 1.524 . S
C652 C653 1.415 . S
C653 H623 0.950 . S
C653 C648 1.363 . S
C653 C652 1.415 . S
H654 C651 0.999 . S
H655 C636 0.913 . S
H656 C674 0.951 . S
H657 C676 0.951 . S
H658 C678 0.950 . S
H659 C679 0.950 . S
H660 C681 0.950 . S
H661 C684 0.950 . S
H662 C685 0.950 . S
H663 C687 0.950 . S
H664 C688 0.950 . S
H665 C689 0.951 . S
H666 C691 0.951 . S
H667 C693 0.950 . S
H668 C694 0.950 . S
H669 C696 0.950 . S
H670 C699 0.950 . S
H671 C700 0.950 . S
H672 C702 0.950 1_556 S
H673 C703 0.950 . S
C674 H656 0.951 . S
C674 C675 1.366 . S
C674 C676 1.388 . S
C675 C674 1.366 . S
C675 C679 1.385 . S
C676 H657 0.951 . S
C676 C674 1.388 . S
C676 C677 1.366 . S
C677 C676 1.366 . S
C677 C678 1.414 . S
C677 C680 1.499 . S
C678 H658 0.950 . S
C678 C677 1.414 . S
C678 C679 1.374 . S
C679 H659 0.950 . S
C679 C675 1.385 . S
C679 C678 1.374 . S
C680 C677 1.499 . S
C680 C681 1.373 . S
C680 C682 1.389 . S
C681 H660 0.950 . S
C681 C680 1.373 . S
C681 C697 1.377 . S
C682 C680 1.389 . S
C682 C683 1.524 . S
C682 C696 1.377 . S
C683 C682 1.524 . S
C683 C684 1.397 . S
C683 C688 1.363 . S
C684 H661 0.950 . S
C684 C683 1.397 . S
C684 C685 1.334 . S
C685 H662 0.950 . S
C685 C684 1.334 . S
C685 C686 1.287 . S
C686 C685 1.287 . S
C686 C687 1.524 . S
C686 H705 0.913 . S
C687 H663 0.950 . S
C687 C686 1.524 . S
C687 C688 1.415 . S
C688 H664 0.950 . S
C688 C683 1.363 . S
C688 C687 1.415 . S
C689 H665 0.951 . S
C689 C690 1.366 . S
C689 C691 1.388 . S
C690 C689 1.366 . S
C690 C694 1.385 . S
C691 H666 0.951 . S
C691 C689 1.388 . S
C691 C692 1.366 . S
C692 C691 1.366 . S
C692 C693 1.414 . S
C692 C695 1.499 . S
C693 H667 0.950 . S
C693 C692 1.414 . S
C693 C694 1.374 . S
C694 H668 0.950 . S
C694 C690 1.385 . S
C694 C693 1.374 . S
C695 C692 1.499 . S
C695 C696 1.373 . S
C695 C697 1.389 . S
C696 H669 0.950 . S
C696 C682 1.377 . S
C696 C695 1.373 . S
C697 C681 1.377 . S
C697 C695 1.389 . S
C697 C698 1.524 . S
C698 C697 1.524 . S
C698 C699 1.397 . S
C698 C703 1.363 . S
C699 H670 0.950 . S
C699 C698 1.397 . S
C699 C700 1.334 . S
C700 H671 0.950 . S
C700 C699 1.334 . S
C700 C701 1.282 1_554 S
C701 C700 1.282 1_556 S
C701 C702 1.523 1_556 S
C701 H704 1.006 . S
C702 H672 0.950 1_554 S
C702 C701 1.523 1_554 S
C702 C703 1.415 . S
C703 H673 0.950 . S
C703 C698 1.363 . S
C703 C702 1.415 . S
H704 C701 1.006 . S
H705 C686 0.913 . S
H706 C724 0.951 . S
H707 C726 0.951 . S
H708 C728 0.950 . S
H709 C729 0.950 . S
H710 C731 0.950 . S
H711 C734 0.950 . S
H712 C735 0.950 . S
H713 C737 0.950 . S
H714 C738 0.950 . S
H715 C739 0.951 . S
H716 C741 0.951 . S
H717 C743 0.950 . S
H718 C744 0.950 . S
H719 C746 0.950 . S
H720 C749 0.950 . S
H721 C750 0.950 . S
H722 C752 0.950 . S
H723 C753 0.950 . S
C724 H706 0.951 . S
C724 C725 1.366 . S
C724 C726 1.388 . S
C725 C724 1.366 . S
C725 C729 1.385 . S
C726 H707 0.951 . S
C726 C724 1.388 . S
C726 C727 1.366 . S
C727 C726 1.366 . S
C727 C728 1.414 . S
C727 C730 1.499 . S
C728 H708 0.950 . S
C728 C727 1.414 . S
C728 C729 1.374 . S
C729 H709 0.950 . S
C729 C725 1.385 . S
C729 C728 1.374 . S
C730 C727 1.499 . S
C730 C731 1.373 . S
C730 C732 1.389 . S
C731 H710 0.950 . S
C731 C730 1.373 . S
C731 C747 1.377 . S
C732 C730 1.389 . S
C732 C733 1.524 . S
C732 C746 1.377 . S
C733 C732 1.524 . S
C733 C734 1.397 . S
C733 C738 1.363 . S
C734 H711 0.950 . S
C734 C733 1.397 . S
C734 C735 1.334 . S
C735 H712 0.950 . S
C735 C734 1.334 . S
C735 C736 1.287 . S
C736 C735 1.287 . S
C736 C737 1.524 . S
C736 H755 0.913 . S
C737 H713 0.950 . S
C737 C736 1.524 . S
C737 C738 1.415 . S
C738 H714 0.950 . S
C738 C733 1.363 . S
C738 C737 1.415 . S
C739 H715 0.951 . S
C739 C740 1.366 . S
C739 C741 1.388 . S
C740 C739 1.366 . S
C740 C744 1.385 . S
C741 H716 0.951 . S
C741 C739 1.388 . S
C741 C742 1.366 . S
C742 C741 1.366 . S
C742 C743 1.414 . S
C742 C745 1.499 . S
C743 H717 0.950 . S
C743 C742 1.414 . S
C743 C744 1.374 . S
C744 H718 0.950 . S
C744 C740 1.385 . S
C744 C743 1.374 . S
C745 C742 1.499 . S
C745 C746 1.373 . S
C745 C747 1.389 . S
C746 H719 0.950 . S
C746 C732 1.377 . S
C746 C745 1.373 . S
C747 C731 1.377 . S
C747 C745 1.389 . S
C747 C748 1.524 . S
C748 C747 1.524 . S
C748 C749 1.397 . S
C748 C753 1.363 . S
C749 H720 0.950 . S
C749 C748 1.397 . S
C749 C750 1.334 . S
C750 H721 0.950 . S
C750 C749 1.334 . S
C750 C751 1.287 . S
C751 C750 1.287 . S
C751 C752 1.524 . S
C751 H754 0.999 . S
C752 H722 0.950 . S
C752 C751 1.524 . S
C752 C753 1.415 . S
C753 H723 0.950 . S
C753 C748 1.363 . S
C753 C752 1.415 . S
H754 C751 0.999 . S
H755 C736 0.913 . S
H756 C774 0.951 . S
H757 C776 0.951 . S
H758 C778 0.950 . S
H759 C779 0.950 . S
H760 C781 0.950 . S
H761 C784 0.950 . S
H762 C785 0.950 . S
H763 C787 0.950 . S
H764 C788 0.950 . S
H765 C789 0.951 . S
H766 C791 0.951 . S
H767 C793 0.950 . S
H768 C794 0.950 1_455 S
H769 C796 0.950 . S
H770 C799 0.950 . S
H771 C800 0.950 . S
H772 C802 0.950 . S
H773 C803 0.950 . S
C774 H756 0.951 . S
C774 C775 1.366 . S
C774 C776 1.388 . S
C775 C774 1.366 . S
C775 C779 1.385 . S
C776 H757 0.951 . S
C776 C774 1.388 . S
C776 C777 1.366 . S
C777 C776 1.366 . S
C777 C778 1.414 . S
C777 C780 1.499 . S
C778 H758 0.950 . S
C778 C777 1.414 . S
C778 C779 1.374 . S
C779 H759 0.950 . S
C779 C775 1.385 . S
C779 C778 1.374 . S
C780 C777 1.499 . S
C780 C781 1.373 . S
C780 C782 1.389 . S
C781 H760 0.950 . S
C781 C780 1.373 . S
C781 C797 1.377 . S
C782 C780 1.389 . S
C782 C783 1.524 . S
C782 C796 1.377 . S
C783 C782 1.524 . S
C783 C784 1.397 . S
C783 C788 1.363 . S
C784 H761 0.950 . S
C784 C783 1.397 . S
C784 C785 1.334 . S
C785 H762 0.950 . S
C785 C784 1.334 . S
C785 C786 1.287 . S
C786 C785 1.287 . S
C786 C787 1.524 . S
C786 H805 0.913 . S
C787 H763 0.950 . S
C787 C786 1.524 . S
C787 C788 1.415 . S
C788 H764 0.950 . S
C788 C783 1.363 . S
C788 C787 1.415 . S
C789 H765 0.951 . S
C789 C790 1.366 . S
C789 C791 1.388 . S
C790 C789 1.366 . S
C790 C794 1.385 . S
C791 H766 0.951 . S
C791 C789 1.388 . S
C791 C792 1.366 . S
C792 C791 1.366 . S
C792 C793 1.414 . S
C792 C795 1.499 . S
C793 H767 0.950 . S
C793 C792 1.414 . S
C793 C794 1.374 . S
C794 H768 0.950 1_655 S
C794 C790 1.385 . S
C794 C793 1.374 . S
C795 C792 1.499 . S
C795 C796 1.373 . S
C795 C797 1.389 . S
C796 H769 0.950 . S
C796 C782 1.377 . S
C796 C795 1.373 . S
C797 C781 1.377 . S
C797 C795 1.389 . S
C797 C798 1.524 . S
C798 C797 1.524 . S
C798 C799 1.397 . S
C798 C803 1.363 . S
C799 H770 0.950 . S
C799 C798 1.397 . S
C799 C800 1.334 . S
C800 H771 0.950 . S
C800 C799 1.334 . S
C800 C801 1.287 . S
C801 C800 1.287 . S
C801 C802 1.524 . S
C801 H804 0.999 . S
C802 H772 0.950 . S
C802 C801 1.524 . S
C802 C803 1.415 . S
C803 H773 0.950 . S
C803 C798 1.363 . S
C803 C802 1.415 . S
H804 C801 0.999 . S
H805 C786 0.913 . S
H806 C824 0.951 . S
H807 C826 0.951 . S
H808 C828 0.950 . S
H809 C829 0.950 . S
H810 C831 0.950 . S
H811 C834 0.950 . S
H812 C835 0.950 . S
H813 C837 0.950 . S
H814 C838 0.950 . S
H815 C839 0.951 . S
H816 C841 0.951 . S
H817 C843 0.950 . S
H818 C844 0.950 . S
H819 C846 0.950 . S
H820 C849 0.950 . S
H821 C850 0.950 . S
H822 C852 0.950 . S
H823 C853 0.950 . S
C824 H806 0.951 . S
C824 C825 1.366 . S
C824 C826 1.388 . S
C825 C824 1.366 . S
C825 C829 1.385 . S
C826 H807 0.951 . S
C826 C824 1.388 . S
C826 C827 1.366 . S
C827 C826 1.366 . S
C827 C828 1.414 . S
C827 C830 1.499 . S
C828 H808 0.950 . S
C828 C827 1.414 . S
C828 C829 1.374 . S
C829 H809 0.950 . S
C829 C825 1.385 . S
C829 C828 1.374 . S
C830 C827 1.499 . S
C830 C831 1.373 . S
C830 C832 1.389 . S
C831 H810 0.950 . S
C831 C830 1.373 . S
C831 C847 1.377 . S
C832 C830 1.389 . S
C832 C833 1.524 . S
C832 C846 1.377 . S
C833 C832 1.524 . S
C833 C834 1.397 . S
C833 C838 1.363 . S
C834 H811 0.950 . S
C834 C833 1.397 . S
C834 C835 1.334 . S
C835 H812 0.950 . S
C835 C834 1.334 . S
C835 C836 1.287 . S
C836 C835 1.287 . S
C836 C837 1.524 . S
C836 H855 0.913 . S
C837 H813 0.950 . S
C837 C836 1.524 . S
C837 C838 1.415 . S
C838 H814 0.950 . S
C838 C833 1.363 . S
C838 C837 1.415 . S
C839 H815 0.951 . S
C839 C840 1.366 . S
C839 C841 1.388 . S
C840 C839 1.366 . S
C840 C844 1.385 . S
C841 H816 0.951 . S
C841 C839 1.388 . S
C841 C842 1.366 . S
C842 C841 1.366 . S
C842 C843 1.414 . S
C842 C845 1.499 . S
C843 H817 0.950 . S
C843 C842 1.414 . S
C843 C844 1.374 . S
C844 H818 0.950 . S
C844 C840 1.385 . S
C844 C843 1.374 . S
C845 C842 1.499 . S
C845 C846 1.373 . S
C845 C847 1.389 . S
C846 H819 0.950 . S
C846 C832 1.377 . S
C846 C845 1.373 . S
C847 C831 1.377 . S
C847 C845 1.389 . S
C847 C848 1.524 . S
C848 C847 1.524 . S
C848 C849 1.397 . S
C848 C853 1.363 . S
C849 H820 0.950 . S
C849 C848 1.397 . S
C849 C850 1.334 . S
C850 H821 0.950 . S
C850 C849 1.334 . S
C850 C851 1.287 . S
C851 C850 1.287 . S
C851 C852 1.524 . S
C851 H854 0.999 . S
C852 H822 0.950 . S
C852 C851 1.524 . S
C852 C853 1.415 . S
C853 H823 0.950 . S
C853 C848 1.363 . S
C853 C852 1.415 . S
H854 C851 0.999 . S
H855 C836 0.913 . S
H856 C874 0.951 . S
H857 C876 0.951 . S
H858 C878 0.950 . S
H859 C879 0.950 . S
H860 C881 0.950 . S
H861 C884 0.950 . S
H862 C885 0.950 . S
H863 C887 0.950 . S
H864 C888 0.950 . S
H865 C889 0.951 . S
H866 C891 0.951 . S
H867 C893 0.950 . S
H868 C894 0.950 . S
H869 C896 0.950 . S
H870 C899 0.950 . S
H871 C900 0.950 . S
H872 C902 0.950 . S
H873 C903 0.950 . S
C874 H856 0.951 . S
C874 C875 1.366 . S
C874 C876 1.388 . S
C875 C874 1.366 . S
C875 C879 1.385 . S
C876 H857 0.951 . S
C876 C874 1.388 . S
C876 C877 1.366 . S
C877 C876 1.366 . S
C877 C878 1.414 . S
C877 C880 1.499 . S
C878 H858 0.950 . S
C878 C877 1.414 . S
C878 C879 1.374 . S
C879 H859 0.950 . S
C879 C875 1.385 . S
C879 C878 1.374 . S
C880 C877 1.499 . S
C880 C881 1.373 . S
C880 C882 1.389 . S
C881 H860 0.950 . S
C881 C880 1.373 . S
C881 C897 1.377 . S
C882 C880 1.389 . S
C882 C883 1.524 . S
C882 C896 1.377 . S
C883 C882 1.524 . S
C883 C884 1.397 . S
C883 C888 1.363 . S
C884 H861 0.950 . S
C884 C883 1.397 . S
C884 C885 1.334 . S
C885 H862 0.950 . S
C885 C884 1.334 . S
C885 C886 1.287 . S
C886 C885 1.287 . S
C886 C887 1.524 . S
C886 H905 0.913 . S
C887 H863 0.950 . S
C887 C886 1.524 . S
C887 C888 1.415 . S
C888 H864 0.950 . S
C888 C883 1.363 . S
C888 C887 1.415 . S
C889 H865 0.951 . S
C889 C890 1.366 . S
C889 C891 1.388 . S
C890 C889 1.366 . S
C890 C894 1.385 . S
C891 H866 0.951 . S
C891 C889 1.388 . S
C891 C892 1.366 . S
C892 C891 1.366 . S
C892 C893 1.414 . S
C892 C895 1.499 . S
C893 H867 0.950 . S
C893 C892 1.414 . S
C893 C894 1.374 . S
C894 H868 0.950 . S
C894 C890 1.385 . S
C894 C893 1.374 . S
C895 C892 1.499 . S
C895 C896 1.373 . S
C895 C897 1.389 . S
C896 H869 0.950 . S
C896 C882 1.377 . S
C896 C895 1.373 . S
C897 C881 1.377 . S
C897 C895 1.389 . S
C897 C898 1.524 . S
C898 C897 1.524 . S
C898 C899 1.397 . S
C898 C903 1.363 . S
C899 H870 0.950 . S
C899 C898 1.397 . S
C899 C900 1.334 . S
C900 H871 0.950 . S
C900 C899 1.334 . S
C900 C901 1.287 . S
C901 C900 1.287 . S
C901 C902 1.524 . S
C901 H904 0.999 . S
C902 H872 0.950 . S
C902 C901 1.524 . S
C902 C903 1.415 . S
C903 H873 0.950 . S
C903 C898 1.363 . S
C903 C902 1.415 . S
H904 C901 0.999 . S
H905 C886 0.913 . S
H906 C924 0.951 . S
H907 C926 0.951 . S
H908 C928 0.950 . S
H909 C929 0.950 . S
H910 C931 0.950 . S
H911 C934 0.950 . S
H912 C935 0.950 . S
H913 C937 0.950 . S
H914 C938 0.950 . S
H915 C939 0.951 . S
H916 C941 0.951 . S
H917 C943 0.950 . S
H918 C944 0.950 . S
H919 C946 0.950 . S
H920 C949 0.950 . S
H921 C950 0.950 . S
H922 C952 0.950 . S
H923 C953 0.950 . S
C924 H906 0.951 . S
C924 C925 1.366 . S
C924 C926 1.388 . S
C925 C924 1.366 . S
C925 C929 1.385 . S
C926 H907 0.951 . S
C926 C924 1.388 . S
C926 C927 1.366 . S
C927 C926 1.366 . S
C927 C928 1.414 . S
C927 C930 1.499 . S
C928 H908 0.950 . S
C928 C927 1.414 . S
C928 C929 1.374 . S
C929 H909 0.950 . S
C929 C925 1.385 . S
C929 C928 1.374 . S
C930 C927 1.499 . S
C930 C931 1.373 . S
C930 C932 1.389 . S
C931 H910 0.950 . S
C931 C930 1.373 . S
C931 C947 1.377 . S
C932 C930 1.389 . S
C932 C933 1.524 . S
C932 C946 1.377 . S
C933 C932 1.524 . S
C933 C934 1.397 . S
C933 C938 1.363 . S
C934 H911 0.950 . S
C934 C933 1.397 . S
C934 C935 1.334 . S
C935 H912 0.950 . S
C935 C934 1.334 . S
C935 C936 1.287 . S
C936 C935 1.287 . S
C936 C937 1.524 . S
C936 H955 0.913 . S
C937 H913 0.950 . S
C937 C936 1.524 . S
C937 C938 1.415 . S
C938 H914 0.950 . S
C938 C933 1.363 . S
C938 C937 1.415 . S
C939 H915 0.951 . S
C939 C940 1.366 . S
C939 C941 1.388 . S
C940 C939 1.366 . S
C940 C944 1.385 . S
C941 H916 0.951 . S
C941 C939 1.388 . S
C941 C942 1.366 . S
C942 C941 1.366 . S
C942 C943 1.414 . S
C942 C945 1.499 . S
C943 H917 0.950 . S
C943 C942 1.414 . S
C943 C944 1.374 . S
C944 H918 0.950 . S
C944 C940 1.385 . S
C944 C943 1.374 . S
C945 C942 1.499 . S
C945 C946 1.373 . S
C945 C947 1.389 . S
C946 H919 0.950 . S
C946 C932 1.377 . S
C946 C945 1.373 . S
C947 C931 1.377 . S
C947 C945 1.389 . S
C947 C948 1.524 . S
C948 C947 1.524 . S
C948 C949 1.397 . S
C948 C953 1.363 . S
C949 H920 0.950 . S
C949 C948 1.397 . S
C949 C950 1.334 . S
C950 H921 0.950 . S
C950 C949 1.334 . S
C950 C951 1.287 . S
C951 C950 1.287 . S
C951 C952 1.524 . S
C951 H954 0.999 . S
C952 H922 0.950 . S
C952 C951 1.524 . S
C952 C953 1.415 . S
C953 H923 0.950 . S
C953 C948 1.363 . S
C953 C952 1.415 . S
H954 C951 0.999 . S
H955 C936 0.913 . S
H956 C974 0.951 . S
H957 C976 0.951 . S
H958 C978 0.950 . S
H959 C979 0.950 . S
H960 C981 0.950 . S
H961 C984 0.950 . S
H962 C985 0.950 . S
H963 C987 0.950 . S
H964 C988 0.950 . S
H965 C989 0.951 . S
H966 C991 0.951 . S
H967 C993 0.950 . S
H968 C994 0.950 . S
H969 C996 0.950 . S
H970 C999 0.950 . S
H971 C1000 0.950 . S
H972 C1002 0.950 . S
H973 C1003 0.950 . S
C974 H956 0.951 . S
C974 C975 1.366 . S
C974 C976 1.388 . S
C975 C974 1.366 . S
C975 C979 1.385 . S
C976 H957 0.951 . S
C976 C974 1.388 . S
C976 C977 1.366 . S
C977 C976 1.366 . S
C977 C978 1.414 . S
C977 C980 1.499 . S
C978 H958 0.950 . S
C978 C977 1.414 . S
C978 C979 1.374 . S
C979 H959 0.950 . S
C979 C975 1.385 . S
C979 C978 1.374 . S
C980 C977 1.499 . S
C980 C981 1.373 . S
C980 C982 1.389 . S
C981 H960 0.950 . S
C981 C980 1.373 . S
C981 C997 1.377 . S
C982 C980 1.389 . S
C982 C983 1.524 . S
C982 C996 1.377 . S
C983 C982 1.524 . S
C983 C984 1.397 . S
C983 C988 1.363 . S
C984 H961 0.950 . S
C984 C983 1.397 . S
C984 C985 1.334 . S
C985 H962 0.950 . S
C985 C984 1.334 . S
C985 C986 1.287 . S
C986 C985 1.287 . S
C986 C987 1.524 . S
C986 H1005 0.913 . S
C987 H963 0.950 . S
C987 C986 1.524 . S
C987 C988 1.415 . S
C988 H964 0.950 . S
C988 C983 1.363 . S
C988 C987 1.415 . S
C989 H965 0.951 . S
C989 C990 1.366 . S
C989 C991 1.388 . S
C990 C989 1.366 . S
C990 C994 1.385 . S
C991 H966 0.951 . S
C991 C989 1.388 . S
C991 C992 1.366 . S
C992 C991 1.366 . S
C992 C993 1.414 . S
C992 C995 1.499 . S
C993 H967 0.950 . S
C993 C992 1.414 . S
C993 C994 1.374 . S
C994 H968 0.950 . S
C994 C990 1.385 . S
C994 C993 1.374 . S
C995 C992 1.499 . S
C995 C996 1.373 . S
C995 C997 1.389 . S
C996 H969 0.950 . S
C996 C982 1.377 . S
C996 C995 1.373 . S
C997 C981 1.377 . S
C997 C995 1.389 . S
C997 C998 1.524 . S
C998 C997 1.524 . S
C998 C999 1.397 . S
C998 C1003 1.363 . S
C999 H970 0.950 . S
C999 C998 1.397 . S
C999 C1000 1.334 . S
C1000 H971 0.950 . S
C1000 C999 1.334 . S
C1000 C1001 1.287 . S
C1001 C1000 1.287 . S
C1001 C1002 1.524 . S
C1001 H1004 0.999 . S
C1002 H972 0.950 . S
C1002 C1001 1.524 . S
C1002 C1003 1.415 . S
C1003 H973 0.950 . S
C1003 C998 1.363 . S
C1003 C1002 1.415 . S
H1004 C1001 0.999 . S
H1005 C986 0.913 . S
H1006 C1024 0.951 . S
H1007 C1026 0.951 . S
H1008 C1028 0.950 . S
H1009 C1029 0.950 . S
H1010 C1031 0.950 . S
H1011 C1034 0.950 . S
H1012 C1035 0.950 . S
H1013 C1037 0.950 . S
H1014 C1038 0.950 . S
H1015 C1039 0.951 . S
H1016 C1041 0.951 . S
H1017 C1043 0.950 . S
H1018 C1044 0.950 . S
H1019 C1046 0.950 . S
H1020 C1049 0.950 . S
H1021 C1050 0.950 . S
H1022 C1052 0.950 . S
H1023 C1053 0.950 . S
C1024 H1006 0.951 . S
C1024 C1025 1.366 . S
C1024 C1026 1.388 . S
C1025 C1024 1.366 . S
C1025 C1029 1.385 . S
C1026 H1007 0.951 . S
C1026 C1024 1.388 . S
C1026 C1027 1.366 . S
C1027 C1026 1.366 . S
C1027 C1028 1.414 . S
C1027 C1030 1.499 . S
C1028 H1008 0.950 . S
C1028 C1027 1.414 . S
C1028 C1029 1.374 . S
C1029 H1009 0.950 . S
C1029 C1025 1.385 . S
C1029 C1028 1.374 . S
C1030 C1027 1.499 . S
C1030 C1031 1.373 . S
C1030 C1032 1.389 . S
C1031 H1010 0.950 . S
C1031 C1030 1.373 . S
C1031 C1047 1.377 . S
C1032 C1030 1.389 . S
C1032 C1033 1.524 . S
C1032 C1046 1.377 . S
C1033 C1032 1.524 . S
C1033 C1034 1.397 . S
C1033 C1038 1.363 . S
C1034 H1011 0.950 . S
C1034 C1033 1.397 . S
C1034 C1035 1.334 . S
C1035 H1012 0.950 . S
C1035 C1034 1.334 . S
C1035 C1036 1.287 . S
C1036 C1035 1.287 . S
C1036 C1037 1.524 . S
C1036 H1055 0.913 . S
C1037 H1013 0.950 . S
C1037 C1036 1.524 . S
C1037 C1038 1.415 . S
C1038 H1014 0.950 . S
C1038 C1033 1.363 . S
C1038 C1037 1.415 . S
C1039 H1015 0.951 . S
C1039 C1040 1.366 . S
C1039 C1041 1.388 . S
C1040 C1039 1.366 . S
C1040 C1044 1.385 . S
C1041 H1016 0.951 . S
C1041 C1039 1.388 . S
C1041 C1042 1.366 . S
C1042 C1041 1.366 . S
C1042 C1043 1.414 . S
C1042 C1045 1.499 . S
C1043 H1017 0.950 . S
C1043 C1042 1.414 . S
C1043 C1044 1.374 . S
C1044 H1018 0.950 . S
C1044 C1040 1.385 . S
C1044 C1043 1.374 . S
C1045 C1042 1.499 . S
C1045 C1046 1.373 . S
C1045 C1047 1.389 . S
C1046 H1019 0.950 . S
C1046 C1032 1.377 . S
C1046 C1045 1.373 . S
C1047 C1031 1.377 . S
C1047 C1045 1.389 . S
C1047 C1048 1.524 . S
C1048 C1047 1.524 . S
C1048 C1049 1.397 . S
C1048 C1053 1.363 . S
C1049 H1020 0.950 . S
C1049 C1048 1.397 . S
C1049 C1050 1.334 . S
C1050 H1021 0.950 . S
C1050 C1049 1.334 . S
C1050 C1051 1.287 1_455 S
C1051 C1050 1.287 1_655 S
C1051 C1052 1.524 . S
C1051 H1054 0.999 . S
C1052 H1022 0.950 . S
C1052 C1051 1.524 . S
C1052 C1053 1.415 1_655 S
C1053 H1023 0.950 . S
C1053 C1048 1.363 . S
C1053 C1052 1.415 1_455 S
H1054 C1051 0.999 . S
H1055 C1036 0.913 . S
H1056 C1074 0.951 . S
H1057 C1076 0.951 . S
H1058 C1078 0.950 . S
H1059 C1079 0.950 . S
H1060 C1081 0.950 . S
H1061 C1084 0.950 . S
H1062 C1085 0.950 . S
H1063 C1087 0.950 . S
H1064 C1088 0.950 . S
H1065 C1089 0.951 . S
H1066 C1091 0.951 . S
H1067 C1093 0.950 . S
H1068 C1094 0.950 . S
H1069 C1096 0.950 . S
H1070 C1099 0.950 . S
H1071 C1100 0.950 . S
H1072 C1102 0.950 . S
H1073 C1103 0.950 . S
C1074 H1056 0.951 . S
C1074 C1075 1.366 . S
C1074 C1076 1.388 . S
C1075 C1074 1.366 . S
C1075 C1079 1.385 . S
C1076 H1057 0.951 . S
C1076 C1074 1.388 . S
C1076 C1077 1.366 . S
C1077 C1076 1.366 . S
C1077 C1078 1.414 . S
C1077 C1080 1.499 . S
C1078 H1058 0.950 . S
C1078 C1077 1.414 . S
C1078 C1079 1.374 . S
C1079 H1059 0.950 . S
C1079 C1075 1.385 . S
C1079 C1078 1.374 . S
C1080 C1077 1.499 . S
C1080 C1081 1.373 . S
C1080 C1082 1.389 . S
C1081 H1060 0.950 . S
C1081 C1080 1.373 . S
C1081 C1097 1.377 . S
C1082 C1080 1.389 . S
C1082 C1083 1.524 . S
C1082 C1096 1.377 . S
C1083 C1082 1.524 . S
C1083 C1084 1.397 . S
C1083 C1088 1.363 . S
C1084 H1061 0.950 . S
C1084 C1083 1.397 . S
C1084 C1085 1.334 . S
C1085 H1062 0.950 . S
C1085 C1084 1.334 . S
C1085 C1086 1.287 . S
C1086 C1085 1.287 . S
C1086 C1087 1.524 . S
C1086 H1105 0.913 . S
C1087 H1063 0.950 . S
C1087 C1086 1.524 . S
C1087 C1088 1.415 . S
C1088 H1064 0.950 . S
C1088 C1083 1.363 . S
C1088 C1087 1.415 . S
C1089 H1065 0.951 . S
C1089 C1090 1.366 . S
C1089 C1091 1.388 . S
C1090 C1089 1.366 . S
C1090 C1094 1.385 . S
C1091 H1066 0.951 . S
C1091 C1089 1.388 . S
C1091 C1092 1.366 . S
C1092 C1091 1.366 . S
C1092 C1093 1.414 . S
C1092 C1095 1.499 . S
C1093 H1067 0.950 . S
C1093 C1092 1.414 . S
C1093 C1094 1.374 . S
C1094 H1068 0.950 . S
C1094 C1090 1.385 . S
C1094 C1093 1.374 . S
C1095 C1092 1.499 . S
C1095 C1096 1.373 . S
C1095 C1097 1.389 . S
C1096 H1069 0.950 . S
C1096 C1082 1.377 . S
C1096 C1095 1.373 . S
C1097 C1081 1.377 . S
C1097 C1095 1.389 . S
C1097 C1098 1.524 . S
C1098 C1097 1.524 . S
C1098 C1099 1.397 . S
C1098 C1103 1.363 . S
C1099 H1070 0.950 . S
C1099 C1098 1.397 . S
C1099 C1100 1.334 . S
C1100 H1071 0.950 . S
C1100 C1099 1.334 . S
C1100 C1101 1.287 . S
C1101 C1100 1.287 . S
C1101 C1102 1.524 . S
C1101 H1104 0.999 . S
C1102 H1072 0.950 . S
C1102 C1101 1.524 . S
C1102 C1103 1.415 . S
C1103 H1073 0.950 . S
C1103 C1098 1.363 . S
C1103 C1102 1.415 . S
H1104 C1101 0.999 . S
H1105 C1086 0.913 . S
H1106 C1124 0.951 . S
H1107 C1126 0.951 . S
H1108 C1128 0.950 . S
H1109 C1129 0.950 . S
H1110 C1131 0.950 . S
H1111 C1134 0.950 . S
H1112 C1135 0.950 . S
H1113 C1137 0.950 . S
H1114 C1138 0.950 . S
H1115 C1139 0.951 1_455 S
H1116 C1141 0.951 . S
H1117 C1143 0.950 . S
H1118 C1144 0.950 . S
H1119 C1146 0.950 . S
H1120 C1149 0.950 . S
H1121 C1150 0.950 . S
H1122 C1152 0.950 . S
H1123 C1153 0.950 . S
C1124 H1106 0.951 . S
C1124 C1125 1.366 . S
C1124 C1126 1.388 . S
C1125 C1124 1.366 . S
C1125 C1129 1.385 . S
C1126 H1107 0.951 . S
C1126 C1124 1.388 . S
C1126 C1127 1.366 . S
C1127 C1126 1.366 . S
C1127 C1128 1.414 . S
C1127 C1130 1.499 . S
C1128 H1108 0.950 . S
C1128 C1127 1.414 . S
C1128 C1129 1.374 . S
C1129 H1109 0.950 . S
C1129 C1125 1.385 . S
C1129 C1128 1.374 . S
C1130 C1127 1.499 . S
C1130 C1131 1.373 . S
C1130 C1132 1.389 . S
C1131 H1110 0.950 . S
C1131 C1130 1.373 . S
C1131 C1147 1.377 . S
C1132 C1130 1.389 . S
C1132 C1133 1.524 . S
C1132 C1146 1.377 . S
C1133 C1132 1.524 . S
C1133 C1134 1.397 . S
C1133 C1138 1.363 . S
C1134 H1111 0.950 . S
C1134 C1133 1.397 . S
C1134 C1135 1.334 . S
C1135 H1112 0.950 . S
C1135 C1134 1.334 . S
C1135 C1136 1.287 . S
C1136 C1135 1.287 . S
C1136 C1137 1.524 . S
C1136 H1155 0.913 . S
C1137 H1113 0.950 . S
C1137 C1136 1.524 . S
C1137 C1138 1.415 . S
C1138 H1114 0.950 . S
C1138 C1133 1.363 . S
C1138 C1137 1.415 . S
C1139 H1115 0.951 1_655 S
C1139 C1140 1.366 . S
C1139 C1141 1.388 . S
C1140 C1139 1.366 . S
C1140 C1144 1.385 . S
C1141 H1116 0.951 . S
C1141 C1139 1.388 . S
C1141 C1142 1.366 . S
C1142 C1141 1.366 . S
C1142 C1143 1.414 . S
C1142 C1145 1.499 . S
C1143 H1117 0.950 . S
C1143 C1142 1.414 . S
C1143 C1144 1.374 . S
C1144 H1118 0.950 . S
C1144 C1140 1.385 . S
C1144 C1143 1.374 . S
C1145 C1142 1.499 . S
C1145 C1146 1.373 . S
C1145 C1147 1.389 . S
C1146 H1119 0.950 . S
C1146 C1132 1.377 . S
C1146 C1145 1.373 . S
C1147 C1131 1.377 . S
C1147 C1145 1.389 . S
C1147 C1148 1.524 . S
C1148 C1147 1.524 . S
C1148 C1149 1.397 . S
C1148 C1153 1.363 1_655 S
C1149 H1120 0.950 . S
C1149 C1148 1.397 . S
C1149 C1150 1.334 . S
C1150 H1121 0.950 . S
C1150 C1149 1.334 . S
C1150 C1151 1.287 1_655 S
C1151 C1150 1.287 1_455 S
C1151 C1152 1.524 . S
C1151 H1154 0.999 . S
C1152 H1122 0.950 . S
C1152 C1151 1.524 . S
C1152 C1153 1.415 . S
C1153 H1123 0.950 . S
C1153 C1148 1.363 1_455 S
C1153 C1152 1.415 . S
H1154 C1151 0.999 . S
H1155 C1136 0.913 . S
H1156 C1174 0.951 . S
H1157 C1176 0.951 . S
H1158 C1178 0.950 . S
H1159 C1179 0.950 . S
H1160 C1181 0.950 . S
H1161 C1184 0.950 . S
H1162 C1185 0.950 . S
H1163 C1187 0.950 . S
H1164 C1188 0.950 . S
H1165 C1189 0.951 . S
H1166 C1191 0.951 . S
H1167 C1193 0.950 . S
H1168 C1194 0.950 . S
H1169 C1196 0.950 . S
H1170 C1199 0.950 . S
H1171 C1200 0.950 . S
H1172 C1202 0.950 . S
H1173 C1203 0.950 . S
C1174 H1156 0.951 . S
C1174 C1175 1.366 . S
C1174 C1176 1.388 . S
C1175 C1174 1.366 . S
C1175 C1179 1.385 . S
C1176 H1157 0.951 . S
C1176 C1174 1.388 . S
C1176 C1177 1.366 . S
C1177 C1176 1.366 . S
C1177 C1178 1.414 . S
C1177 C1180 1.499 . S
C1178 H1158 0.950 . S
C1178 C1177 1.414 . S
C1178 C1179 1.374 . S
C1179 H1159 0.950 . S
C1179 C1175 1.385 . S
C1179 C1178 1.374 . S
C1180 C1177 1.499 . S
C1180 C1181 1.373 . S
C1180 C1182 1.389 . S
C1181 H1160 0.950 . S
C1181 C1180 1.373 . S
C1181 C1197 1.377 . S
C1182 C1180 1.389 . S
C1182 C1183 1.524 . S
C1182 C1196 1.377 . S
C1183 C1182 1.524 . S
C1183 C1184 1.397 . S
C1183 C1188 1.363 . S
C1184 H1161 0.950 . S
C1184 C1183 1.397 . S
C1184 C1185 1.334 . S
C1185 H1162 0.950 . S
C1185 C1184 1.334 . S
C1185 C1186 1.287 . S
C1186 C1185 1.287 . S
C1186 C1187 1.524 . S
C1186 H1205 0.913 . S
C1187 H1163 0.950 . S
C1187 C1186 1.524 . S
C1187 C1188 1.415 . S
C1188 H1164 0.950 . S
C1188 C1183 1.363 . S
C1188 C1187 1.415 . S
C1189 H1165 0.951 . S
C1189 C1190 1.366 . S
C1189 C1191 1.388 . S
C1190 C1189 1.366 . S
C1190 C1194 1.385 . S
C1191 H1166 0.951 . S
C1191 C1189 1.388 . S
C1191 C1192 1.366 . S
C1192 C1191 1.366 . S
C1192 C1193 1.414 . S
C1192 C1195 1.499 . S
C1193 H1167 0.950 . S
C1193 C1192 1.414 . S
C1193 C1194 1.374 . S
C1194 H1168 0.950 . S
C1194 C1190 1.385 . S
C1194 C1193 1.374 . S
C1195 C1192 1.499 . S
C1195 C1196 1.373 . S
C1195 C1197 1.389 . S
C1196 H1169 0.950 . S
C1196 C1182 1.377 . S
C1196 C1195 1.373 . S
C1197 C1181 1.377 . S
C1197 C1195 1.389 . S
C1197 C1198 1.524 . S
C1198 C1197 1.524 . S
C1198 C1199 1.397 . S
C1198 C1203 1.363 . S
C1199 H1170 0.950 . S
C1199 C1198 1.397 . S
C1199 C1200 1.334 1_554 S
C1200 H1171 0.950 . S
C1200 C1199 1.334 1_556 S
C1200 C1201 1.287 . S
C1201 C1200 1.287 . S
C1201 C1202 1.524 . S
C1201 H1204 0.999 . S
C1202 H1172 0.950 . S
C1202 C1201 1.524 . S
C1202 C1203 1.415 1_556 S
C1203 H1173 0.950 . S
C1203 C1198 1.363 . S
C1203 C1202 1.415 1_554 S
H1204 C1201 0.999 . S
H1205 C1186 0.913 . S
H1206 C1224 0.951 . S
H1207 C1226 0.951 . S
H1208 C1228 0.950 . S
H1209 C1229 0.950 . S
H1210 C1231 0.950 . S
H1211 C1234 0.950 . S
H1212 C1235 0.950 . S
H1213 C1237 0.950 . S
H1214 C1238 0.950 . S
H1215 C1239 0.951 . S
H1216 C1241 0.951 . S
H1217 C1243 0.950 . S
H1218 C1244 0.950 . S
H1219 C1246 0.950 . S
H1220 C1249 0.950 . S
H1221 C1250 0.950 . S
H1222 C1252 0.950 . S
H1223 C1253 0.950 . S
C1224 H1206 0.951 . S
C1224 C1225 1.366 . S
C1224 C1226 1.388 . S
C1225 C1224 1.366 . S
C1225 C1229 1.385 . S
C1226 H1207 0.951 . S
C1226 C1224 1.388 . S
C1226 C1227 1.366 . S
C1227 C1226 1.366 . S
C1227 C1228 1.414 . S
C1227 C1230 1.499 . S
C1228 H1208 0.950 . S
C1228 C1227 1.414 . S
C1228 C1229 1.374 . S
C1229 H1209 0.950 . S
C1229 C1225 1.385 . S
C1229 C1228 1.374 . S
C1230 C1227 1.499 . S
C1230 C1231 1.373 . S
C1230 C1232 1.389 . S
C1231 H1210 0.950 . S
C1231 C1230 1.373 . S
C1231 C1247 1.377 . S
C1232 C1230 1.389 . S
C1232 C1233 1.524 . S
C1232 C1246 1.377 . S
C1233 C1232 1.524 . S
C1233 C1234 1.397 . S
C1233 C1238 1.363 . S
C1234 H1211 0.950 . S
C1234 C1233 1.397 . S
C1234 C1235 1.334 . S
C1235 H1212 0.950 . S
C1235 C1234 1.334 . S
C1235 C1236 1.287 . S
C1236 C1235 1.287 . S
C1236 C1237 1.524 . S
C1236 H1255 0.913 . S
C1237 H1213 0.950 . S
C1237 C1236 1.524 . S
C1237 C1238 1.415 . S
C1238 H1214 0.950 . S
C1238 C1233 1.363 . S
C1238 C1237 1.415 . S
C1239 H1215 0.951 . S
C1239 C1240 1.366 . S
C1239 C1241 1.388 . S
C1240 C1239 1.366 . S
C1240 C1244 1.385 . S
C1241 H1216 0.951 . S
C1241 C1239 1.388 . S
C1241 C1242 1.366 . S
C1242 C1241 1.366 . S
C1242 C1243 1.414 . S
C1242 C1245 1.499 . S
C1243 H1217 0.950 . S
C1243 C1242 1.414 . S
C1243 C1244 1.374 . S
C1244 H1218 0.950 . S
C1244 C1240 1.385 . S
C1244 C1243 1.374 . S
C1245 C1242 1.499 . S
C1245 C1246 1.373 . S
C1245 C1247 1.389 . S
C1246 H1219 0.950 . S
C1246 C1232 1.377 . S
C1246 C1245 1.373 . S
C1247 C1231 1.377 . S
C1247 C1245 1.389 . S
C1247 C1248 1.524 . S
C1248 C1247 1.524 . S
C1248 C1249 1.397 . S
C1248 C1253 1.363 . S
C1249 H1220 0.950 . S
C1249 C1248 1.397 . S
C1249 C1250 1.334 . S
C1250 H1221 0.950 . S
C1250 C1249 1.334 . S
C1250 C1251 1.287 . S
C1251 C1250 1.287 . S
C1251 C1252 1.524 . S
C1251 H1254 0.999 . S
C1252 H1222 0.950 . S
C1252 C1251 1.524 . S
C1252 C1253 1.415 . S
C1253 H1223 0.950 . S
C1253 C1248 1.363 . S
C1253 C1252 1.415 . S
H1254 C1251 0.999 . S
H1255 C1236 0.913 . S
H1256 C1274 0.951 . S
H1257 C1276 0.951 . S
H1258 C1278 0.950 . S
H1259 C1279 0.950 . S
H1260 C1281 0.950 . S
H1261 C1284 0.950 . S
H1262 C1285 0.950 . S
H1263 C1287 0.950 . S
H1264 C1288 0.950 . S
H1265 C1289 0.951 . S
H1266 C1291 0.951 . S
H1267 C1293 0.950 . S
H1268 C1294 0.950 . S
H1269 C1296 0.950 . S
H1270 C1299 0.950 . S
H1271 C1300 0.950 . S
H1272 C1302 0.950 . S
H1273 C1303 0.950 . S
C1274 H1256 0.951 . S
C1274 C1275 1.366 . S
C1274 C1276 1.388 . S
C1275 C1274 1.366 . S
C1275 C1279 1.385 . S
C1276 H1257 0.951 . S
C1276 C1274 1.388 . S
C1276 C1277 1.366 . S
C1277 C1276 1.366 . S
C1277 C1278 1.414 . S
C1277 C1280 1.499 . S
C1278 H1258 0.950 . S
C1278 C1277 1.414 . S
C1278 C1279 1.374 . S
C1279 H1259 0.950 . S
C1279 C1275 1.385 . S
C1279 C1278 1.374 . S
C1280 C1277 1.499 . S
C1280 C1281 1.373 . S
C1280 C1282 1.389 . S
C1281 H1260 0.950 . S
C1281 C1280 1.373 . S
C1281 C1297 1.377 . S
C1282 C1280 1.389 . S
C1282 C1283 1.524 . S
C1282 C1296 1.377 . S
C1283 C1282 1.524 . S
C1283 C1284 1.397 . S
C1283 C1288 1.363 . S
C1284 H1261 0.950 . S
C1284 C1283 1.397 . S
C1284 C1285 1.334 . S
C1285 H1262 0.950 . S
C1285 C1284 1.334 . S
C1285 C1286 1.287 . S
C1286 C1285 1.287 . S
C1286 C1287 1.524 . S
C1286 H1305 0.913 . S
C1287 H1263 0.950 . S
C1287 C1286 1.524 . S
C1287 C1288 1.415 . S
C1288 H1264 0.950 . S
C1288 C1283 1.363 . S
C1288 C1287 1.415 . S
C1289 H1265 0.951 . S
C1289 C1290 1.366 . S
C1289 C1291 1.388 . S
C1290 C1289 1.366 . S
C1290 C1294 1.385 . S
C1291 H1266 0.951 . S
C1291 C1289 1.388 . S
C1291 C1292 1.366 . S
C1292 C1291 1.366 . S
C1292 C1293 1.414 . S
C1292 C1295 1.499 . S
C1293 H1267 0.950 . S
C1293 C1292 1.414 . S
C1293 C1294 1.374 . S
C1294 H1268 0.950 . S
C1294 C1290 1.385 . S
C1294 C1293 1.374 . S
C1295 C1292 1.499 . S
C1295 C1296 1.373 . S
C1295 C1297 1.389 . S
C1296 H1269 0.950 . S
C1296 C1282 1.377 . S
C1296 C1295 1.373 . S
C1297 C1281 1.377 . S
C1297 C1295 1.389 . S
C1297 C1298 1.524 . S
C1298 C1297 1.524 . S
C1298 C1299 1.397 . S
C1298 C1303 1.363 . S
C1299 H1270 0.950 . S
C1299 C1298 1.397 . S
C1299 C1300 1.334 . S
C1300 H1271 0.950 . S
C1300 C1299 1.334 . S
C1300 C1301 1.287 . S
C1301 C1300 1.287 . S
C1301 C1302 1.524 . S
C1301 H1304 0.999 . S
C1302 H1272 0.950 . S
C1302 C1301 1.524 . S
C1302 C1303 1.415 . S
C1303 H1273 0.950 . S
C1303 C1298 1.363 . S
C1303 C1302 1.415 . S
H1304 C1301 0.999 . S
H1305 C1286 0.913 . S
H1306 C1324 0.951 . S
H1307 C1326 0.951 . S
H1308 C1328 0.950 . S
H1309 C1329 0.950 . S
H1310 C1331 0.950 . S
H1311 C1334 0.950 . S
H1312 C1335 0.950 . S
H1313 C1337 0.950 . S
H1314 C1338 0.950 . S
H1315 C1339 0.951 . S
H1316 C1341 0.951 . S
H1317 C1343 0.950 . S
H1318 C1344 0.950 . S
H1319 C1346 0.950 . S
H1320 C1349 0.950 . S
H1321 C1350 0.950 . S
H1322 C1352 0.950 . S
H1323 C1353 0.950 . S
C1324 H1306 0.951 . S
C1324 C1325 1.366 . S
C1324 C1326 1.388 . S
C1325 C1324 1.366 . S
C1325 C1329 1.385 . S
C1326 H1307 0.951 . S
C1326 C1324 1.388 . S
C1326 C1327 1.366 . S
C1327 C1326 1.366 . S
C1327 C1328 1.414 . S
C1327 C1330 1.499 . S
C1328 H1308 0.950 . S
C1328 C1327 1.414 . S
C1328 C1329 1.374 . S
C1329 H1309 0.950 . S
C1329 C1325 1.385 . S
C1329 C1328 1.374 . S
C1330 C1327 1.499 . S
C1330 C1331 1.373 . S
C1330 C1332 1.389 . S
C1331 H1310 0.950 . S
C1331 C1330 1.373 . S
C1331 C1347 1.377 . S
C1332 C1330 1.389 . S
C1332 C1333 1.524 . S
C1332 C1346 1.377 . S
C1333 C1332 1.524 . S
C1333 C1334 1.397 . S
C1333 C1338 1.363 . S
C1334 H1311 0.950 . S
C1334 C1333 1.397 . S
C1334 C1335 1.334 . S
C1335 H1312 0.950 . S
C1335 C1334 1.334 . S
C1335 C1336 1.287 . S
C1336 C1335 1.287 . S
C1336 C1337 1.524 . S
C1336 H1355 0.913 . S
C1337 H1313 0.950 . S
C1337 C1336 1.524 . S
C1337 C1338 1.415 . S
C1338 H1314 0.950 . S
C1338 C1333 1.363 . S
C1338 C1337 1.415 . S
C1339 H1315 0.951 . S
C1339 C1340 1.366 . S
C1339 C1341 1.388 . S
C1340 C1339 1.366 . S
C1340 C1344 1.385 . S
C1341 H1316 0.951 . S
C1341 C1339 1.388 . S
C1341 C1342 1.366 . S
C1342 C1341 1.366 . S
C1342 C1343 1.414 . S
C1342 C1345 1.499 . S
C1343 H1317 0.950 . S
C1343 C1342 1.414 . S
C1343 C1344 1.374 . S
C1344 H1318 0.950 . S
C1344 C1340 1.385 . S
C1344 C1343 1.374 . S
C1345 C1342 1.499 . S
C1345 C1346 1.373 . S
C1345 C1347 1.389 . S
C1346 H1319 0.950 . S
C1346 C1332 1.377 . S
C1346 C1345 1.373 . S
C1347 C1331 1.377 . S
C1347 C1345 1.389 . S
C1347 C1348 1.524 . S
C1348 C1347 1.524 . S
C1348 C1349 1.397 . S
C1348 C1353 1.363 . S
C1349 H1320 0.950 . S
C1349 C1348 1.397 . S
C1349 C1350 1.334 . S
C1350 H1321 0.950 . S
C1350 C1349 1.334 . S
C1350 C1351 1.287 . S
C1351 C1350 1.287 . S
C1351 C1352 1.524 . S
C1351 H1354 0.999 . S
C1352 H1322 0.950 . S
C1352 C1351 1.524 . S
C1352 C1353 1.415 . S
C1353 H1323 0.950 . S
C1353 C1348 1.363 . S
C1353 C1352 1.415 . S
H1354 C1351 0.999 . S
H1355 C1336 0.913 . S
H1356 C1374 0.951 . S
H1357 C1376 0.951 . S
H1358 C1378 0.950 . S
H1359 C1379 0.950 . S
H1360 C1381 0.950 . S
H1361 C1384 0.950 . S
H1362 C1385 0.950 . S
H1363 C1387 0.950 . S
H1364 C1388 0.950 . S
H1365 C1389 0.951 . S
H1366 C1391 0.951 . S
H1367 C1393 0.950 . S
H1368 C1394 0.950 . S
H1369 C1396 0.950 . S
H1370 C1399 0.950 . S
H1371 C1400 0.950 . S
H1372 C1402 0.950 . S
H1373 C1403 0.950 . S
C1374 H1356 0.951 . S
C1374 C1375 1.366 . S
C1374 C1376 1.388 . S
C1375 C1374 1.366 . S
C1375 C1379 1.385 . S
C1376 H1357 0.951 . S
C1376 C1374 1.388 . S
C1376 C1377 1.366 . S
C1377 C1376 1.366 . S
C1377 C1378 1.414 . S
C1377 C1380 1.499 . S
C1378 H1358 0.950 . S
C1378 C1377 1.414 . S
C1378 C1379 1.374 . S
C1379 H1359 0.950 . S
C1379 C1375 1.385 . S
C1379 C1378 1.374 . S
C1380 C1377 1.499 . S
C1380 C1381 1.373 . S
C1380 C1382 1.389 . S
C1381 H1360 0.950 . S
C1381 C1380 1.373 . S
C1381 C1397 1.377 . S
C1382 C1380 1.389 . S
C1382 C1383 1.524 . S
C1382 C1396 1.377 . S
C1383 C1382 1.524 . S
C1383 C1384 1.397 . S
C1383 C1388 1.363 . S
C1384 H1361 0.950 . S
C1384 C1383 1.397 . S
C1384 C1385 1.334 . S
C1385 H1362 0.950 . S
C1385 C1384 1.334 . S
C1385 C1386 1.287 . S
C1386 C1385 1.287 . S
C1386 C1387 1.524 . S
C1386 H1405 0.913 . S
C1387 H1363 0.950 . S
C1387 C1386 1.524 . S
C1387 C1388 1.415 . S
C1388 H1364 0.950 . S
C1388 C1383 1.363 . S
C1388 C1387 1.415 . S
C1389 H1365 0.951 . S
C1389 C1390 1.366 . S
C1389 C1391 1.388 . S
C1390 C1389 1.366 . S
C1390 C1394 1.385 . S
C1391 H1366 0.951 . S
C1391 C1389 1.388 . S
C1391 C1392 1.366 . S
C1392 C1391 1.366 . S
C1392 C1393 1.414 . S
C1392 C1395 1.499 . S
C1393 H1367 0.950 . S
C1393 C1392 1.414 . S
C1393 C1394 1.374 . S
C1394 H1368 0.950 . S
C1394 C1390 1.385 . S
C1394 C1393 1.374 . S
C1395 C1392 1.499 . S
C1395 C1396 1.373 . S
C1395 C1397 1.389 . S
C1396 H1369 0.950 . S
C1396 C1382 1.377 . S
C1396 C1395 1.373 . S
C1397 C1381 1.377 . S
C1397 C1395 1.389 . S
C1397 C1398 1.524 . S
C1398 C1397 1.524 . S
C1398 C1399 1.397 . S
C1398 C1403 1.363 . S
C1399 H1370 0.950 . S
C1399 C1398 1.397 . S
C1399 C1400 1.334 1_455 S
C1400 H1371 0.950 . S
C1400 C1399 1.334 1_655 S
C1400 C1401 1.287 . S
C1401 C1400 1.287 . S
C1401 C1402 1.524 . S
C1401 H1404 0.999 . S
C1402 H1372 0.950 . S
C1402 C1401 1.524 . S
C1402 C1403 1.415 1_655 S
C1403 H1373 0.950 . S
C1403 C1398 1.363 . S
C1403 C1402 1.415 1_455 S
H1404 C1401 0.999 . S
H1405 C1386 0.913 . S
H1406 C1424 0.951 . S
H1407 C1426 0.951 . S
H1408 C1428 0.950 . S
H1409 C1429 0.950 . S
H1410 C1431 0.950 . S
H1411 C1434 0.950 . S
H1412 C1435 0.950 . S
H1413 C1437 0.950 . S
H1414 C1438 0.950 . S
H1415 C1439 0.951 . S
H1416 C1441 0.951 . S
H1417 C1443 0.950 . S
H1418 C1444 0.950 . S
H1419 C1446 0.950 . S
H1420 C1449 0.950 . S
H1421 C1450 0.950 . S
H1422 C1452 0.950 . S
H1423 C1453 0.950 . S
C1424 H1406 0.951 . S
C1424 C1425 1.366 . S
C1424 C1426 1.388 . S
C1425 C1424 1.366 . S
C1425 C1429 1.385 . S
C1426 H1407 0.951 . S
C1426 C1424 1.388 . S
C1426 C1427 1.366 . S
C1427 C1426 1.366 . S
C1427 C1428 1.414 . S
C1427 C1430 1.499 . S
C1428 H1408 0.950 . S
C1428 C1427 1.414 . S
C1428 C1429 1.374 . S
C1429 H1409 0.950 . S
C1429 C1425 1.385 . S
C1429 C1428 1.374 . S
C1430 C1427 1.499 . S
C1430 C1431 1.373 . S
C1430 C1432 1.389 . S
C1431 H1410 0.950 . S
C1431 C1430 1.373 . S
C1431 C1447 1.377 . S
C1432 C1430 1.389 . S
C1432 C1433 1.524 . S
C1432 C1446 1.377 . S
C1433 C1432 1.524 . S
C1433 C1434 1.397 . S
C1433 C1438 1.363 . S
C1434 H1411 0.950 . S
C1434 C1433 1.397 . S
C1434 C1435 1.334 . S
C1435 H1412 0.950 . S
C1435 C1434 1.334 . S
C1435 C1436 1.287 . S
C1436 C1435 1.287 . S
C1436 C1437 1.524 . S
C1436 H1455 0.913 . S
C1437 H1413 0.950 . S
C1437 C1436 1.524 . S
C1437 C1438 1.415 . S
C1438 H1414 0.950 . S
C1438 C1433 1.363 . S
C1438 C1437 1.415 . S
C1439 H1415 0.951 . S
C1439 C1440 1.366 . S
C1439 C1441 1.388 . S
C1440 C1439 1.366 . S
C1440 C1444 1.385 . S
C1441 H1416 0.951 . S
C1441 C1439 1.388 . S
C1441 C1442 1.366 . S
C1442 C1441 1.366 . S
C1442 C1443 1.414 . S
C1442 C1445 1.499 . S
C1443 H1417 0.950 . S
C1443 C1442 1.414 . S
C1443 C1444 1.374 . S
C1444 H1418 0.950 . S
C1444 C1440 1.385 . S
C1444 C1443 1.374 . S
C1445 C1442 1.499 . S
C1445 C1446 1.373 . S
C1445 C1447 1.389 . S
C1446 H1419 0.950 . S
C1446 C1432 1.377 . S
C1446 C1445 1.373 . S
C1447 C1431 1.377 . S
C1447 C1445 1.389 . S
C1447 C1448 1.524 . S
C1448 C1447 1.524 . S
C1448 C1449 1.397 . S
C1448 C1453 1.363 . S
C1449 H1420 0.950 . S
C1449 C1448 1.397 . S
C1449 C1450 1.334 . S
C1450 H1421 0.950 . S
C1450 C1449 1.334 . S
C1450 C1451 1.287 . S
C1451 C1450 1.287 . S
C1451 C1452 1.524 . S
C1451 H1454 0.999 . S
C1452 H1422 0.950 . S
C1452 C1451 1.524 . S
C1452 C1453 1.415 . S
C1453 H1423 0.950 . S
C1453 C1448 1.363 . S
C1453 C1452 1.415 . S
H1454 C1451 0.999 . S
H1455 C1436 0.913 . S
C275 C6 0.867 . S
C290 C100 0.874 . S
C325 C18 1.381 . S
C340 C161 1.389 . S
C390 C199 2.630 . S
C375 C28 2.664 . S
C425 C40 1.579 . S
C440 C239 1.546 . S
C490 C159 1.512 . S
C475 C9 1.512 . S
C540 C127 1.957 . S
C525 C16 1.894 . S
C590 C236 1.688 . S
C575 C30 1.700 . S
C640 C196 1.384 . S
C625 C42 1.397 . S
C675 C4 0.886 . S
C690 C241 0.885 . S
C740 C156 2.620 . S
C725 C33 2.613 . S
C775 C45 1.825 . S
C790 C98 1.796 . S
C825 C21 1.523 . S
C840 C201 1.563 . S
C890 C121 0.912 . S
C875 C57 0.907 . S
C925 C66 1.361 . S
C940 C140 1.383 . S
C975 C76 2.717 . S
C990 C178 2.675 . S
C1025 C88 1.485 . S
C1040 C218 1.462 . S
C1075 C54 1.485 . S
C1090 C138 1.479 . S
C1140 C116 2.047 . S
C1125 C64 2.007 . S
C1190 C247 1.546 . S
C1175 C78 1.555 . S
C1240 C207 1.448 . S
C1225 C93 1.457 . S
C1275 C52 0.864 . S
C1290 C220 0.873 . S
C1340 C167 2.614 . S
C1325 C81 2.600 . S
C1390 C119 1.772 . S
C1375 C90 1.801 . S
C1425 C69 1.520 . S
C1440 C180 1.575 . S
