# Generated by pormake.
# Topology zzz, (3,6)-cn, num edge types: 1
# Building blocks:
#     Node 0, Type 0, BuildingBlock: ESEHIV_clean_linker_0, # of connection points: 3
#     Node 1, Type 0, BuildingBlock: ESEHIV_clean_linker_0, # of connection points: 3
#     Node 2, Type 0, BuildingBlock: ESEHIV_clean_linker_0, # of connection points: 3
#     Node 3, Type 0, BuildingBlock: ESEHIV_clean_linker_0, # of connection points: 3
#     Node 4, Type 0, BuildingBlock: ESEHIV_clean_linker_0, # of connection points: 3
#     Node 5, Type 0, BuildingBlock: ESEHIV_clean_linker_0, # of connection points: 3
#     Node 6, Type 0, BuildingBlock: ESEHIV_clean_linker_0, # of connection points: 3
#     Node 7, Type 0, BuildingBlock: ESEHIV_clean_linker_0, # of connection points: 3
#     Node 8, Type 1, BuildingBlock: BETDAH_clean_sbu_0, # of connection points: 6
#     Node 9, Type 1, BuildingBlock: BETDAH_clean_sbu_0, # of connection points: 6
#     Node 10, Type 1, BuildingBlock: BETDAH_clean_sbu_0, # of connection points: 6
#     Node 11, Type 1, BuildingBlock: BETDAH_clean_sbu_0, # of connection points: 6
#     Edge 12, Type (0, 1), BuildingBlock: ZUJKAS_clean_linker_0, # of connection points: 2
#     Edge 13, Type (0, 1), BuildingBlock: ZUJKAS_clean_linker_0, # of connection points: 2
#     Edge 14, Type (0, 1), BuildingBlock: ZUJKAS_clean_linker_0, # of connection points: 2
#     Edge 15, Type (0, 1), BuildingBlock: ZUJKAS_clean_linker_0, # of connection points: 2
#     Edge 16, Type (0, 1), BuildingBlock: ZUJKAS_clean_linker_0, # of connection points: 2
#     Edge 17, Type (0, 1), BuildingBlock: ZUJKAS_clean_linker_0, # of connection points: 2
#     Edge 18, Type (0, 1), BuildingBlock: ZUJKAS_clean_linker_0, # of connection points: 2
#     Edge 19, Type (0, 1), BuildingBlock: ZUJKAS_clean_linker_0, # of connection points: 2
#     Edge 20, Type (0, 1), BuildingBlock: ZUJKAS_clean_linker_0, # of connection points: 2
#     Edge 21, Type (0, 1), BuildingBlock: ZUJKAS_clean_linker_0, # of connection points: 2
#     Edge 22, Type (0, 1), BuildingBlock: ZUJKAS_clean_linker_0, # of connection points: 2
#     Edge 23, Type (0, 1), BuildingBlock: ZUJKAS_clean_linker_0, # of connection points: 2
#     Edge 24, Type (0, 1), BuildingBlock: ZUJKAS_clean_linker_0, # of connection points: 2
#     Edge 25, Type (0, 1), BuildingBlock: ZUJKAS_clean_linker_0, # of connection points: 2
#     Edge 26, Type (0, 1), BuildingBlock: ZUJKAS_clean_linker_0, # of connection points: 2
#     Edge 27, Type (0, 1), BuildingBlock: ZUJKAS_clean_linker_0, # of connection points: 2
#     Edge 28, Type (0, 1), BuildingBlock: ZUJKAS_clean_linker_0, # of connection points: 2
#     Edge 29, Type (0, 1), BuildingBlock: ZUJKAS_clean_linker_0, # of connection points: 2
#     Edge 30, Type (0, 1), BuildingBlock: ZUJKAS_clean_linker_0, # of connection points: 2
#     Edge 31, Type (0, 1), BuildingBlock: ZUJKAS_clean_linker_0, # of connection points: 2
#     Edge 32, Type (0, 1), BuildingBlock: ZUJKAS_clean_linker_0, # of connection points: 2
#     Edge 33, Type (0, 1), BuildingBlock: ZUJKAS_clean_linker_0, # of connection points: 2
#     Edge 34, Type (0, 1), BuildingBlock: ZUJKAS_clean_linker_0, # of connection points: 2
#     Edge 35, Type (0, 1), BuildingBlock: ZUJKAS_clean_linker_0, # of connection points: 2
# Relax obj value: 0.441
# Max RMSD: 0.272
# Mean RMSD: 0.255
data_MOF--net-zzz--node1-BETDAH_clean_sbu_0--node2-ESEHIV_clean_linker_0--edge1-ZUJKAS_clean_linker_0
_symmetry_space_group_name_H-M    P1
_symmetry_Int_Tables_number       1
_symmetry_cell_setting            triclinic
loop_
_symmetry_equiv_pos_as_xyz
'x, y, z'
_cell_length_a     60.547131
_cell_length_b     60.545343
_cell_length_c     18.450881
_cell_angle_alpha  89.947274
_cell_angle_beta   89.841649
_cell_angle_gamma 89.973098
loop_
_atom_site_label
_atom_site_type_symbol
_atom_site_fract_x
_atom_site_fract_y
_atom_site_fract_z
_atom_type_partial_charge
H0 H 0.77523 0.46964 0.30146 0.0
H1 H 0.7137 0.46406 0.18727 0.0
H2 H 0.72291 0.51568 0.34518 0.0
C3 C 0.7583 0.47482 0.29278 0.0
C4 C 0.75031 0.49298 0.33182 0.0
C5 C 0.74546 0.46442 0.23965 0.0
C6 C 0.72387 0.47199 0.22791 0.0
C7 C 0.71557 0.49042 0.26539 0.0
C8 C 0.72899 0.50121 0.31695 0.0
H9 H 0.05145 0.77335 0.31458 0.0
H10 H 0.053 0.71581 0.18007 0.0
H11 H 1.00113 0.72368 0.33945 0.0
C12 C 0.04475 0.75731 0.3003 0.0
C13 C 0.02547 0.74987 0.33458 0.0
C14 C 0.05457 0.74523 0.24436 0.0
C15 C 0.04549 0.72493 0.2243 0.0
C16 C 0.02652 0.71661 0.25919 0.0
C17 C 0.01609 0.72952 0.31342 0.0
H18 H 0.73498 0.01984 0.24427 0.0
H19 H 0.79798 0.01338 0.1397 0.0
H20 H 0.7914 0.99779 0.36693 0.0
C21 C 0.75234 0.01544 0.24672 0.0
C22 C 0.76141 0.00852 0.31288 0.0
C23 C 0.76541 0.01722 0.18426 0.0
C24 C 0.78782 0.01201 0.18804 0.0
C25 C 0.79736 1.00495 0.2532 0.0
C26 C 0.78412 1.00306 0.31622 0.0
H27 H 0.4732 0.73849 0.26992 0.0
H28 H 0.50862 0.79232 0.36873 0.0
H29 H 0.48211 0.79915 0.1532 0.0
C30 C 0.47932 0.75532 0.26784 0.0
C31 C 0.4763 0.76782 0.20472 0.0
C32 C 0.49083 0.76389 0.32742 0.0
C33 C 0.49933 0.78561 0.32374 0.0
C34 C 0.49575 0.7985 0.26094 0.0
C35 C 0.4842 0.78947 0.20224 0.0
H36 H 0.24232 0.5545 0.06461 0.0
H37 H 0.29959 0.55422 0.20045 0.0
H38 H 0.28943 0.50141 0.04719 0.0
C39 C 0.25811 0.54726 0.07917 0.0
C40 C 0.2646 0.52725 0.04746 0.0
C41 C 0.27044 0.5568 0.13486 0.0
C42 C 0.29027 0.54701 0.15625 0.0
C43 C 0.29761 0.52737 0.12363 0.0
C44 C 0.28441 0.51707 0.07033 0.0
H45 H 0.99115 0.23529 0.15161 0.0
H46 H 1.00202 0.29695 0.2601 0.0
H47 H 0.01775 0.29066 0.03303 0.0
C48 C 0.99662 0.25235 0.15022 0.0
C49 C 1.00453 0.26126 0.08482 0.0
C50 C 0.99577 0.26502 0.21367 0.0
C51 C 1.00254 0.28704 0.21115 0.0
C52 C 0.01034 0.29648 0.14658 0.0
C53 C 0.01162 0.28352 0.08302 0.0
H54 H 0.27396 0.98653 0.14522 0.0
H55 H 0.21024 0.98887 0.2468 0.0
H56 H 0.21682 1.00524 0.0202 0.0
C57 C 0.25636 0.98975 0.14197 0.0
C58 C 0.24716 0.99622 0.07551 0.0
C59 C 0.24315 0.98706 0.20378 0.0
C60 C 0.22045 0.9907 0.19875 0.0
C61 C 0.2107 0.99716 0.13322 0.0
C62 C 0.22416 1.00026 0.07114 0.0
H63 H 0.53804 0.27709 0.12823 0.0
H64 H 0.50435 0.22061 0.04005 0.0
H65 H 0.53654 0.21626 0.24776 0.0
C66 C 0.53326 0.25986 0.13243 0.0
C67 C 0.53864 0.24786 0.19488 0.0
C68 C 0.52101 0.2503 0.07635 0.0
C69 C 0.51428 0.22803 0.08225 0.0
C70 C 0.5206 0.21548 0.14346 0.0
C71 C 0.53275 0.22557 0.19909 0.0
Ho72 Ho 0.0219 0.99995 0.75874 0.0
Ho73 Ho 0.98827 0.01171 0.63679 0.0
C74 C 1.00442 0.96212 0.64748 0.0
C75 C 0.03913 0.98541 0.87678 0.0
C76 C 0.0549 0.96753 0.8901 0.0
C77 C 0.06354 0.96418 0.95951 0.0
C78 C 0.07725 0.94606 0.97306 0.0
C79 C 0.08238 0.93104 0.91728 0.0
C80 C 0.07443 0.93509 0.84702 0.0
C81 C 0.06083 0.95323 0.83353 0.0
C82 C 0.04378 1.00378 0.62955 0.0
C83 C 0.00789 0.05118 0.74019 0.0
C84 C 0.96603 0.02985 0.53428 0.0
C85 C 0.95362 0.05065 0.53587 0.0
C86 C 0.95361 0.0644 0.47501 0.0
C87 C 0.94553 0.08594 0.48031 0.0
C88 C 0.93729 0.09405 0.54671 0.0
C89 C 0.9362 0.07972 0.60653 0.0
C90 C 0.94442 0.05825 0.60129 0.0
C91 C 0.97073 0.99845 0.76504 0.0
O92 O 0.01084 0.96677 0.71457 0.0
O93 O 0.9983 0.9778 0.60166 0.0
O94 O 0.04704 1.0024 0.84116 0.0
O95 O 0.01974 0.97902 0.85309 0.0
O96 O 0.05321 0.99913 0.69059 0.0
O97 O 0.0235 1.00612 0.64213 0.0
O98 O 0.99553 0.04549 0.68394 0.0
O99 O 0.01882 0.03643 0.77924 0.0
O100 O 0.95815 0.01394 0.57475 0.0
O101 O 0.98743 0.03212 0.54062 0.0
O102 O 0.96272 0.99346 0.70207 0.0
O103 O 0.98721 0.01096 0.75669 0.0
H104 H 0.05917 0.97517 1.00361 0.0
H105 H 0.08291 0.94322 0.02793 0.0
H106 H 0.07825 0.92389 0.80296 0.0
H107 H 0.05442 0.95575 0.77936 0.0
H108 H 0.96093 0.05891 0.42449 0.0
H109 H 0.94706 0.0966 0.43343 0.0
H110 H 0.92981 0.08537 0.65817 0.0
H111 H 0.94454 0.04796 0.64936 0.0
Ho112 Ho 0.50872 0.02309 0.74783 0.0
Ho113 Ho 0.50114 0.98715 0.64943 0.0
C114 C 0.54985 1.00382 0.65093 0.0
C115 C 0.52446 0.05138 0.839 0.0
C116 C 0.54567 0.06301 0.83925 0.0
C117 C 0.55299 0.07375 0.90174 0.0
C118 C 0.57465 0.08167 0.90536 0.0
C119 C 0.58949 0.07831 0.84725 0.0
C120 C 0.5814 0.0689 0.78287 0.0
C121 C 0.55963 0.06159 0.77872 0.0
C122 C 0.49488 0.03662 0.61535 0.0
C123 C 0.45997 1.0058 0.74619 0.0
C124 C 0.48392 0.95995 0.55874 0.0
C125 C 0.46154 0.95063 0.56083 0.0
C126 C 0.44832 0.95206 0.4989 0.0
C127 C 0.42552 0.94926 0.50457 0.0
C128 C 0.41572 0.94483 0.57214 0.0
C129 C 0.42909 0.94152 0.63296 0.0
C130 C 0.45188 0.94459 0.62752 0.0
C131 C 0.51478 0.9736 0.78201 0.0
O132 O 0.54363 0.01347 0.71211 0.0
O133 O 0.53507 0.99441 0.6089 0.0
O134 O 0.51111 0.05672 0.78652 0.0
O135 O 0.52586 0.03001 0.84797 0.0
O136 O 0.48734 0.04405 0.67624 0.0
O137 O 0.50927 0.02198 0.62746 0.0
O138 O 0.46623 0.99639 0.6848 0.0
O139 O 0.47477 0.01513 0.78854 0.0
O140 O 0.49729 0.95369 0.61026 0.0
O141 O 0.48451 0.98127 0.54777 0.0
O142 O 0.52207 0.96579 0.72118 0.0
O143 O 0.50056 0.98839 0.7698 0.0
H144 H 0.54228 0.07527 0.94859 0.0
H145 H 0.57998 0.08954 0.95496 0.0
H146 H 0.59213 0.06583 0.73696 0.0
H147 H 0.55405 0.05382 0.72927 0.0
H148 H 0.4554 0.95692 0.4473 0.0
H149 H 0.4154 0.95174 0.45691 0.0
H150 H 0.42177 0.93826 0.68556 0.0
H151 H 0.46168 0.94375 0.67649 0.0
Ho152 Ho 0.48794 0.51086 0.75422 0.0
Ho153 Ho 0.52217 0.50291 0.64805 0.0
C154 C 0.50556 0.55192 0.65476 0.0
C155 C 0.46301 0.52826 0.85187 0.0
C156 C 0.45299 0.55041 0.85278 0.0
C157 C 0.45728 0.56445 0.91132 0.0
C158 C 0.45236 0.58689 0.90638 0.0
C159 C 0.44289 0.5956 0.84302 0.0
C160 C 0.43711 0.58133 0.78645 0.0
C161 C 0.44233 0.55889 0.79094 0.0
C162 C 0.47177 0.49779 0.62431 0.0
C163 C 0.50461 0.46184 0.74881 0.0
C164 C 0.5473 0.48656 0.54858 0.0
C165 C 0.56044 0.46619 0.5468 0.0
C166 C 0.56193 0.45416 0.48238 0.0
C167 C 0.57183 0.43335 0.48201 0.0
C168 C 0.58059 0.42422 0.54615 0.0
C169 C 0.57978 0.43679 0.61017 0.0
C170 C 0.56965 0.45752 0.61061 0.0
C171 C 0.53834 0.51587 0.77809 0.0
O172 O 0.49634 0.54566 0.71648 0.0
O173 O 0.5145 0.53721 0.61103 0.0
O174 O 0.45562 0.51454 0.80303 0.0
O175 O 0.48456 0.52814 0.85614 0.0
O176 O 0.46478 0.49071 0.6865 0.0
O177 O 0.48714 0.51159 0.63383 0.0
O178 O 0.51455 0.46806 0.68811 0.0
O179 O 0.4949 0.47648 0.791 0.0
O180 O 0.55385 0.50171 0.59403 0.0
O181 O 0.52592 0.4836 0.55017 0.0
O182 O 0.5455 0.52279 0.716 0.0
O183 O 0.52297 0.50211 0.76833 0.0
H184 H 0.4656 0.5583 0.95921 0.0
H185 H 0.45667 0.59763 0.95112 0.0
H186 H 0.42986 0.58775 0.73711 0.0
H187 H 0.43908 0.54849 0.74445 0.0
H188 H 0.55464 0.46047 0.43294 0.0
H189 H 0.5716 0.42402 0.432 0.0
H190 H 0.58649 0.43041 0.66034 0.0
H191 H 0.56843 0.46647 0.6613 0.0
Ho192 Ho 1.0001 0.49274 0.74832 0.0
Ho193 Ho 0.01389 0.52403 0.63442 0.0
C194 C 0.96157 0.51259 0.6543 0.0
C195 C 0.99127 0.46853 0.85996 0.0
C196 C 0.97293 0.45338 0.87605 0.0
C197 C 0.96394 0.45275 0.94598 0.0
C198 C 0.94468 0.44073 0.95971 0.0
C199 C 0.9341 0.42908 0.9036 0.0
C200 C 0.94385 0.42886 0.83436 0.0
C201 C 0.96302 0.441 0.82061 0.0
C202 C 1.00203 0.47463 0.61416 0.0
C203 C 0.05223 0.50488 0.73081 0.0
C204 C 0.02173 0.54688 0.51873 0.0
C205 C 0.04019 0.56022 0.49161 0.0
C206 C 0.04285 0.56297 0.41679 0.0
C207 C 0.06138 0.5739 0.38953 0.0
C208 C 0.07747 0.58231 0.43684 0.0
C209 C 0.07431 0.58032 0.51201 0.0
C210 C 0.05583 0.5692 0.53927 0.0
C211 C 0.01201 0.54229 0.76816 0.0
O212 O 0.9661 0.50373 0.71783 0.0
O213 O 0.97754 0.5191 0.61014 0.0
O214 O 1.00473 0.46243 0.80822 0.0
O215 O 0.9859 0.48941 0.85562 0.0
O216 O 0.98692 0.47035 0.66179 0.0
O217 O 0.01594 0.48786 0.64069 0.0
O218 O 0.04787 0.51325 0.66634 0.0
O219 O 0.03613 0.49864 0.77499 0.0
O220 O 0.01124 0.55468 0.57512 0.0
O221 O 0.02552 0.52568 0.5236 0.0
O222 O 0.02704 0.54665 0.72017 0.0
O223 O 0.99805 0.529 0.74202 0.0
H224 H 0.97128 0.46231 0.98929 0.0
H225 H 0.93747 0.44161 0.01339 0.0
H226 H 0.93628 0.41989 0.79019 0.0
H227 H 0.96963 0.44127 0.76602 0.0
H228 H 0.03091 0.55613 0.37937 0.0
H229 H 0.06345 0.57529 0.33136 0.0
H230 H 0.08662 0.58643 0.54946 0.0
H231 H 0.05408 0.56707 0.59732 0.0
H232 H 0.17952 0.96592 0.15381 0.0
H233 H 0.14333 0.97204 0.20752 0.0
H234 H 0.15085 0.04227 0.17577 0.0
H235 H 0.18781 0.03602 0.12472 0.0
H236 H 0.14328 0.0355 0.30837 0.0
H237 H 0.08106 0.98547 0.16852 0.0
H238 H 0.10403 0.96797 0.18905 0.0
H239 H 0.10767 0.99107 0.12816 0.0
C240 C 0.17295 0.98257 0.15476 0.0
C241 C 0.1864 1.00047 0.13442 0.0
C242 C 0.15212 0.98611 0.18561 0.0
C243 C 0.14402 1.00765 0.19578 0.0
C244 C 0.15659 0.02546 0.16865 0.0
H245 H 0.0277 0.01556 0.49417 0.0
H246 H 0.04927 0.01959 0.38104 0.0
C247 C 0.17763 0.0219 0.13844 0.0
C248 C 0.12498 0.01152 0.24637 0.0
H249 H 0.07536 0.98984 0.30066 0.0
C250 C 0.1282 0.0259 0.3052 0.0
C251 C 0.10494 0.9994 0.2428 0.0
C252 C 0.09917 0.98533 0.17814 0.0
C253 C 0.11298 0.02718 0.36264 0.0
C254 C 0.09423 0.01321 0.36294 0.0
C255 C 0.08998 1.00018 0.30155 0.0
C256 C 0.08046 0.01033 0.42958 0.0
C257 C 0.11754 0.04308 0.42372 0.0
C258 C 0.0906 1.00327 0.49383 0.0
C259 C 0.07845 1.00113 0.55781 0.0
C260 C 0.0557 1.00571 0.55939 0.0
C261 C 0.04524 0.01211 0.4947 0.0
C262 C 0.05754 0.01436 0.43012 0.0
H263 H 0.12725 0.05751 0.40441 0.0
H264 H 0.102 0.04916 0.44883 0.0
H265 H 0.12743 0.03459 0.46596 0.0
H266 H 0.10808 0.99945 0.49464 0.0
H267 H 0.087 0.9959 0.6064 0.0
H268 H 0.47901 0.20012 0.16936 0.0
H269 H 0.46977 0.16495 0.22893 0.0
H270 H 0.53766 0.14423 0.21043 0.0
H271 H 0.5469 0.17931 0.15134 0.0
H272 H 0.50224 0.1086 0.19383 0.0
H273 H 0.49661 0.16096 0.44124 0.0
H274 H 0.48027 0.16919 0.36453 0.0
H275 H 0.50984 0.17044 0.35914 0.0
C276 C 0.49169 0.18761 0.17503 0.0
C277 C 0.51361 0.19229 0.15523 0.0
C278 C 0.48647 0.16763 0.20966 0.0
C279 C 0.50309 0.15207 0.22475 0.0
C280 C 0.52458 0.15594 0.19914 0.0
H281 H 0.52372 0.03743 0.50025 0.0
H282 H 0.52392 0.0638 0.3993 0.0
C283 C 0.52982 0.17593 0.16507 0.0
C284 C 0.49902 0.13355 0.2761 0.0
H285 H 0.49176 0.12291 0.45634 0.0
C286 C 0.49974 0.11166 0.25118 0.0
C287 C 0.49594 0.13759 0.35094 0.0
C288 C 0.49574 0.16077 0.38111 0.0
C289 C 0.49726 0.09368 0.29921 0.0
C290 C 0.4946 0.09773 0.37443 0.0
C291 C 0.4937 0.1197 0.39885 0.0
C292 C 0.4932 0.07971 0.42969 0.0
C293 C 0.49721 0.07059 0.26865 0.0
C294 C 0.47595 0.07975 0.48086 0.0
C295 C 0.47607 0.06499 0.53924 0.0
C296 C 0.49334 0.04972 0.54765 0.0
C297 C 0.51007 0.04889 0.49475 0.0
C298 C 0.51012 0.0639 0.4367 0.0
H299 H 0.49212 0.07051 0.21084 0.0
H300 H 0.51416 0.06368 0.27158 0.0
H301 H 0.48595 0.0596 0.2997 0.0
H302 H 0.46271 0.09173 0.47695 0.0
H303 H 0.46294 0.06599 0.57913 0.0
H304 H 0.30294 0.49256 0.21583 0.0
H305 H 0.33632 0.48395 0.28608 0.0
H306 H 0.37255 0.53303 0.16501 0.0
H307 H 0.33909 0.54196 0.09627 0.0
H308 H 0.38071 0.47151 0.25753 0.0
H309 H 0.37554 0.5561 0.37252 0.0
H310 H 0.35355 0.54416 0.31976 0.0
H311 H 0.3776 0.55528 0.27551 0.0
C312 C 0.31825 0.50092 0.20271 0.0
C313 C 0.31858 0.51775 0.15028 0.0
C314 C 0.33727 0.49613 0.24313 0.0
C315 C 0.35685 0.50818 0.23194 0.0
C316 C 0.35756 0.52381 0.17565 0.0
H317 H 0.47574 0.52183 0.4987 0.0
H318 H 0.4498 0.52284 0.39663 0.0
C319 C 0.33854 0.52871 0.13575 0.0
C320 C 0.37577 0.50584 0.28298 0.0
H321 H 0.4059 0.5344 0.40833 0.0
C322 C 0.38626 0.48526 0.29036 0.0
C323 C 0.38301 0.52378 0.32617 0.0
C324 C 0.37175 0.54603 0.32381 0.0
C325 C 0.40386 0.48221 0.33922 0.0
C326 C 0.41095 0.50011 0.38274 0.0
C327 C 0.40063 0.52072 0.37465 0.0
C328 C 0.4281 0.49767 0.44014 0.0
C329 C 0.41483 0.45987 0.34332 0.0
C330 C 0.4247 0.48309 0.49835 0.0
C331 C 0.43947 0.48253 0.55656 0.0
C332 C 0.45792 0.49661 0.55819 0.0
C333 C 0.46174 0.51073 0.4989 0.0
C334 C 0.44689 0.51133 0.44065 0.0
H335 H 0.41233 0.45027 0.29272 0.0
H336 H 0.43284 0.46148 0.35331 0.0
H337 H 0.40747 0.45033 0.38872 0.0
H338 H 0.41013 0.47274 0.50023 0.0
H339 H 0.43602 0.47151 0.60156 0.0
H340 H 0.04965 0.3137 0.18809 0.0
H341 H 0.05407 0.34977 0.2466 0.0
H342 H 0.98813 0.36773 0.18179 0.0
H343 H 0.98382 0.33176 0.12268 0.0
H344 H 0.02048 0.40513 0.19274 0.0
H345 H 0.01529 0.35059 0.43533 0.0
H346 H 0.03705 0.34449 0.37199 0.0
H347 H 0.00877 0.34092 0.34547 0.0
C348 C 0.03665 0.32588 0.18255 0.0
C349 C 0.01652 0.3201 0.14996 0.0
C350 C 0.03906 0.34638 0.21682 0.0
C351 C 0.02129 0.3613 0.21961 0.0
C352 C 1.00208 0.35652 0.18019 0.0
H353 H 0.97413 0.44384 0.56021 0.0
H354 H 0.9804 0.41847 0.4595 0.0
C355 C 0.99969 0.33603 0.14576 0.0
C356 C 0.02107 0.37954 0.27371 0.0
H357 H 0.01713 0.38871 0.45607 0.0
C358 C 0.02001 0.40161 0.25036 0.0
C359 C 0.02008 0.37488 0.34891 0.0
C360 C 0.02018 0.35147 0.37731 0.0
C361 C 0.01788 0.41912 0.30039 0.0
C362 C 0.01677 0.41437 0.37544 0.0
C363 C 0.01812 0.39233 0.39855 0.0
C364 C 0.01249 0.43163 0.4312 0.0
C365 C 0.01603 0.44249 0.27283 0.0
C366 C 0.02835 0.44774 0.44843 0.0
C367 C 0.02481 0.46234 0.50655 0.0
C368 C 1.00539 0.46095 0.54837 0.0
C369 C 0.98931 0.44528 0.52934 0.0
C370 C 0.99286 0.43076 0.47167 0.0
H371 H 0.01412 0.44316 0.21299 0.0
H372 H 1.00172 0.45093 0.29848 0.0
H373 H 0.03114 0.45178 0.28772 0.0
H374 H 0.04375 0.44855 0.41855 0.0
H375 H 0.0375 0.47425 0.52003 0.0
H376 H 0.83059 0.03421 0.27283 0.0
H377 H 0.86683 0.0316 0.21387 0.0
H378 H 0.85368 0.96372 0.15902 0.0
H379 H 0.81741 0.96635 0.21789 0.0
H380 H 0.90326 0.97871 0.19096 0.0
H381 H 0.8551 0.02505 0.98343 0.0
H382 H 0.85488 0.03551 0.07473 0.0
H383 H 0.84184 0.00962 0.05507 0.0
C384 C 0.83603 0.01835 0.25225 0.0
C385 C 0.82137 1.00037 0.25099 0.0
C386 C 0.85664 0.01694 0.21783 0.0
C387 C 0.86287 0.99752 0.18154 0.0
C388 C 0.84928 0.97881 0.18712 0.0
H389 H 0.93239 0.97595 0.7838 0.0
H390 H 0.9085 0.97525 0.89068 0.0
C391 C 0.82863 0.98024 0.22142 0.0
C392 C 0.88087 0.99804 0.12649 0.0
H393 H 0.89156 0.01563 0.95385 0.0
C394 C 0.90086 0.98694 0.13936 0.0
C395 C 0.87755 0.00858 0.05886 0.0
C396 C 0.85618 0.02029 0.04148 0.0
C397 C 0.91759 0.98607 0.08596 0.0
C398 C 0.91414 0.99649 0.0182 0.0
C399 C 0.89422 1.00771 0.00588 0.0
C400 C 0.93023 0.99496 0.9572 0.0
C401 C 0.93855 0.97349 0.10122 0.0
C402 C 0.95063 1.00604 0.95921 0.0
C403 C 0.96438 1.00654 0.89769 0.0
C404 C 0.95788 0.99601 0.83322 0.0
C405 C 0.93785 0.98428 0.83248 0.0
C406 C 0.92416 0.98385 0.8936 0.0
H407 H 0.93748 0.96384 0.15235 0.0
H408 H 0.94234 0.96206 0.05582 0.0
H409 H 0.9525 0.98529 0.10576 0.0
H410 H 0.95554 0.01497 0.00738 0.0
H411 H 0.9797 0.01575 0.8998 0.0
H412 H 0.53272 0.81077 0.18914 0.0
H413 H 0.53924 0.84687 0.13389 0.0
H414 H 0.48309 0.87331 0.24918 0.0
H415 H 0.47634 0.83687 0.30331 0.0
H416 H 0.47885 0.87865 0.10704 0.0
H417 H 0.56232 0.90726 0.18109 0.0
H418 H 0.56292 0.87938 0.14853 0.0
H419 H 0.54819 0.88578 0.23088 0.0
C420 C 0.52252 0.8246 0.20561 0.0
C421 C 0.50434 0.8212 0.25169 0.0
C422 C 0.5262 0.84528 0.17381 0.0
C423 C 0.5118 0.86301 0.18766 0.0
C424 C 0.49455 0.85999 0.23798 0.0
H425 H 0.49163 0.98014 0.90832 0.0
H426 H 0.49131 0.95624 0.01599 0.0
C427 C 0.49084 0.83925 0.26965 0.0
C428 C 0.51256 0.88315 0.14093 0.0
H429 H 0.5475 0.92178 0.06876 0.0
C430 C 0.49373 0.8884 0.09995 0.0
C431 C 0.53199 0.89582 0.131 0.0
C432 C 0.55241 0.8919 0.17582 0.0
C433 C 0.49412 0.90509 0.04693 0.0
C434 C 0.5138 0.91719 0.03506 0.0
C435 C 0.53242 0.91251 0.07774 0.0
C436 C 0.51579 0.9334 0.97458 0.0
C437 C 0.47378 0.9088 1.00132 0.0
C438 C 0.53032 0.92908 0.91689 0.0
C439 C 0.53059 0.94273 0.85565 0.0
C440 C 0.5164 0.96106 0.85088 0.0
C441 C 0.50267 0.96607 0.91026 0.0
C442 C 0.50239 0.95236 0.97162 0.0
H443 H 0.46154 0.89526 0.0077 0.0
H444 H 0.46574 0.92446 0.01798 0.0
H445 H 0.47824 0.91019 0.94308 0.0
H446 H 0.54086 0.91462 0.91798 0.0
H447 H 0.54145 0.93851 0.81099 0.0
H448 H 0.70553 0.52826 0.19261 0.0
H449 H 0.67106 0.53602 0.12793 0.0
H450 H 0.64151 0.47792 0.22278 0.0
H451 H 0.67622 0.46983 0.28531 0.0
H452 H 0.63837 0.47678 0.08084 0.0
H453 H 0.61043 0.55941 0.16985 0.0
H454 H 0.63858 0.5596 0.13946 0.0
H455 H 0.63106 0.54388 0.21866 0.0
C456 C 0.69135 0.51771 0.20185 0.0
C457 C 0.69338 0.49864 0.24468 0.0
C458 C 0.67161 0.52212 0.16481 0.0
C459 C 0.65348 0.50768 0.17072 0.0
C460 C 0.65516 0.48937 0.21733 0.0
H461 H 0.53406 0.49182 0.90364 0.0
H462 H 0.56 0.49057 0.00577 0.0
C463 C 0.67493 0.48484 0.25359 0.0
C464 C 0.63404 0.50986 0.12143 0.0
H465 H 0.59502 0.54593 0.05825 0.0
C466 C 0.62869 0.49181 0.0769 0.0
C467 C 0.62143 0.52949 0.11554 0.0
C468 C 0.62552 0.54911 0.16396 0.0
C469 C 0.61165 0.49303 0.02546 0.0
C470 C 0.59933 0.51278 0.0186 0.0
C471 C 0.60442 0.53077 0.06365 0.0
C472 C 0.58206 0.51534 0.96181 0.0
C473 C 0.60755 0.47342 0.97684 0.0
C474 C 0.58534 0.53029 0.90463 0.0
C475 C 0.57057 0.53105 0.84645 0.0
C476 C 0.55211 0.51696 0.8444 0.0
C477 C 0.54818 0.50282 0.90353 0.0
C478 C 0.56304 0.50201 0.96172 0.0
H479 H 0.62127 0.46125 0.97906 0.0
H480 H 0.59218 0.46497 0.9943 0.0
H481 H 0.60538 0.4788 0.91973 0.0
H482 H 0.59983 0.54078 0.90358 0.0
H483 H 0.57398 0.54222 0.80192 0.0
H484 H 0.04976 0.67858 0.24283 0.0
H485 H 0.03869 0.64555 0.17694 0.0
H486 H 0.97271 0.67162 0.15553 0.0
H487 H 0.98409 0.70536 0.21969 0.0
H488 H 0.00849 0.61283 0.18701 0.0
H489 H 0.9909 0.66534 0.94587 0.0
H490 H 1.00384 0.67626 0.02604 0.0
H491 H 0.97462 0.67097 0.02521 0.0
C492 C 0.03278 0.67716 0.22506 0.0
C493 C 0.01791 0.69476 0.23527 0.0
C494 C 0.02643 0.65819 0.18756 0.0
C495 C 1.00502 0.65626 0.1594 0.0
C496 C 0.9895 0.67296 0.17503 0.0
H497 H 0.97557 0.54487 0.85795 0.0
H498 H 0.97004 0.57068 0.9599 0.0
C499 C 0.99592 0.69211 0.21252 0.0
C500 C 1.00008 0.63778 0.10842 0.0
H501 H 0.9906 0.6271 0.92905 0.0
C502 C 1.00409 0.61593 0.13097 0.0
C503 C 0.99459 0.64177 0.03485 0.0
C504 C 0.99088 0.66482 0.00607 0.0
C505 C 1.00368 0.59822 0.08155 0.0
C506 C 0.99906 0.60241 0.00787 0.0
C507 C 0.99398 0.62399 0.98586 0.0
C508 C 1.00249 0.58537 0.95111 0.0
C509 C 0.00941 0.57528 0.10715 0.0
C510 C 0.02259 0.58496 0.91332 0.0
C511 C 0.02575 0.57041 0.85552 0.0
C512 C 0.00884 0.55595 0.83404 0.0
C513 C 0.98888 0.55583 0.87335 0.0
C514 C 0.9857 0.57054 0.93143 0.0
H515 H 0.01121 0.5744 0.16699 0.0
H516 H 0.99641 0.56348 0.08997 0.0
H517 H 0.02516 0.56996 0.0816 0.0
H518 H 0.03574 0.59627 0.92768 0.0
H519 H 0.04134 0.57081 0.82662 0.0
H520 H 0.9682 0.2832 0.31595 0.0
H521 H 0.95425 0.26568 0.42688 0.0
H522 H 0.99124 0.20676 0.37546 0.0
H523 H 1.00591 0.22439 0.26735 0.0
H524 H 0.92851 0.23124 0.43624 0.0
H525 H 1.00326 0.21035 0.58702 0.0
H526 H 1.00353 0.23075 0.5154 0.0
H527 H 0.00792 0.20186 0.49543 0.0
C528 C 0.97376 0.2667 0.32945 0.0
C529 C 0.98807 0.2551 0.28274 0.0
C530 C 0.96576 0.25673 0.39273 0.0
C531 C 0.97208 0.2351 0.41048 0.0
C532 C 0.98666 0.22372 0.3644 0.0
H533 H 0.91745 0.12176 0.44953 0.0
H534 H 0.91995 0.16165 0.44803 0.0
C535 C 0.9947 0.23366 0.30164 0.0
C536 C 0.96152 0.22295 0.47101 0.0
H537 H 0.97435 0.18076 0.58463 0.0
C538 C 0.93844 0.22071 0.47084 0.0
C539 C 0.97414 0.21001 0.51938 0.0
C540 C 0.99856 0.21365 0.52984 0.0
C541 C 0.92819 0.2034 0.50862 0.0
C542 C 0.94149 0.18764 0.54463 0.0
C543 C 0.96403 0.19223 0.5548 0.0
C544 C 0.93404 0.16451 0.55573 0.0
C545 C 0.9034 0.20139 0.5054 0.0
C546 C 0.94067 0.15253 0.61716 0.0
C547 C 0.94004 0.12945 0.61676 0.0
C548 C 0.93261 0.11799 0.55509 0.0
C549 C 0.92372 0.13008 0.49716 0.0
C550 C 0.9247 0.15306 0.49704 0.0
H551 H 0.89565 0.2179 0.51241 0.0
H552 H 0.89847 0.19523 0.45117 0.0
H553 H 0.89687 0.19008 0.54772 0.0
H554 H 0.94797 0.1609 0.66308 0.0
H555 H 0.94706 0.12069 0.66237 0.0
H556 H 0.28041 1.0034 0.26606 0.0
H557 H 0.29805 0.99106 0.37789 0.0
H558 H 0.2457 0.94392 0.41281 0.0
H559 H 0.22808 0.95593 0.29976 0.0
H560 H 0.28062 0.98654 0.53062 0.0
H561 H 0.30454 0.90745 0.39598 0.0
H562 H 0.29574 0.93078 0.34249 0.0
H563 H 0.2761 0.91617 0.3974 0.0
C564 C 0.27264 0.99043 0.29754 0.0
C565 C 0.25305 0.98043 0.27379 0.0
C566 C 0.28255 0.9836 0.36181 0.0
C567 C 0.27312 0.96661 0.40336 0.0
C568 C 0.25317 0.95707 0.38135 0.0
H569 H 0.38672 0.91375 0.6236 0.0
H570 H 0.34609 0.91583 0.61942 0.0
C571 C 0.24316 0.96396 0.31694 0.0
C572 C 0.28588 0.95764 0.46466 0.0
H573 H 0.32622 0.9195 0.49247 0.0
C574 C 0.29009 0.97146 0.52405 0.0
C575 C 0.29776 0.93769 0.45697 0.0
C576 C 0.29344 0.92206 0.39493 0.0
C577 C 0.3078 0.96715 0.57077 0.0
C578 C 0.32184 0.94904 0.55591 0.0
C579 C 0.31561 0.93357 0.5032 0.0
C580 C 0.34533 0.94926 0.57763 0.0
C581 C 0.31241 0.98304 0.63178 0.0
C582 C 0.35826 0.96743 0.55669 0.0
C583 C 0.38116 0.96611 0.55796 0.0
C584 C 0.3916 0.94659 0.58007 0.0
C585 C 0.37886 0.92889 0.60589 0.0
C586 C 0.35577 0.93013 0.604 0.0
H587 H 0.29671 0.9887 0.65689 0.0
H588 H 0.32295 0.97547 0.6743 0.0
H589 H 0.32092 0.99787 0.60993 0.0
H590 H 0.35073 0.98213 0.53415 0.0
H591 H 0.39076 0.98007 0.53889 0.0
H592 H 0.57188 0.23342 0.2851 0.0
H593 H 0.58713 0.25282 0.39091 0.0
H594 H 0.54284 0.30733 0.35119 0.0
H595 H 0.52717 0.28797 0.24848 0.0
H596 H 0.60845 0.29229 0.39758 0.0
H597 H 0.53386 0.29786 0.56522 0.0
H598 H 0.53627 0.27827 0.4917 0.0
H599 H 0.52662 0.30605 0.4751 0.0
C600 C 0.56527 0.24943 0.29977 0.0
C601 C 0.54843 0.25925 0.25822 0.0
C602 C 0.57399 0.26046 0.36003 0.0
C603 C 0.56573 0.28126 0.37995 0.0
C604 C 0.54903 0.29101 0.33819 0.0
H605 H 0.60328 0.40219 0.4399 0.0
H606 H 0.60656 0.36261 0.4269 0.0
C607 C 0.54036 0.28009 0.2785 0.0
C608 C 0.57531 0.2941 0.44034 0.0
H609 H 0.55753 0.33141 0.56465 0.0
C610 C 0.59758 0.30038 0.43612 0.0
C611 C 0.56158 0.30383 0.49344 0.0
C612 C 0.53833 0.29588 0.50713 0.0
C613 C 0.60542 0.31853 0.47573 0.0
C614 C 0.59034 0.33107 0.51772 0.0
C615 C 0.56911 0.32247 0.53065 0.0
C616 C 0.5941 0.3548 0.53437 0.0
C617 C 0.62944 0.32472 0.46885 0.0
C618 C 0.58626 0.36405 0.5994 0.0
C619 C 0.58325 0.38687 0.60544 0.0
C620 C 0.58841 0.40093 0.54693 0.0
C621 C 0.59855 0.39183 0.48523 0.0
C622 C 0.60099 0.36904 0.4785 0.0
H623 H 0.6399 0.30965 0.47084 0.0
H624 H 0.63236 0.33262 0.41535 0.0
H625 H 0.63475 0.33616 0.51247 0.0
H626 H 0.58083 0.35351 0.64346 0.0
H627 H 0.57533 0.3932 0.65383 0.0
H628 H 0.25586 0.55194 0.27128 0.0
H629 H 0.22719 0.57391 0.32898 0.0
H630 H 0.23257 0.62261 0.15862 0.0
H631 H 0.26012 0.59934 0.09727 0.0
H632 H 0.21616 0.61186 0.38133 0.0
H633 H 0.17247 0.60195 0.11728 0.0
H634 H 0.19904 0.58965 0.13276 0.0
H635 H 0.19669 0.61891 0.11651 0.0
C636 C 0.25143 0.5677 0.24746 0.0
C637 C 0.25985 0.5739 0.17968 0.0
C638 C 0.23501 0.58032 0.28043 0.0
C639 C 0.22702 0.59955 0.24669 0.0
C640 C 0.23777 0.60737 0.18407 0.0
H641 H 0.09873 0.62109 0.47014 0.0
H642 H 0.1346 0.63382 0.42286 0.0
C643 C 0.25371 0.59429 0.14959 0.0
C644 C 0.20535 0.60851 0.27085 0.0
H645 H 0.15139 0.60993 0.21794 0.0
C646 C 0.20199 0.61191 0.34546 0.0
C647 C 0.18685 0.60881 0.22376 0.0
C648 C 0.1888 0.60452 0.14327 0.0
C649 C 0.18063 0.61272 0.3753 0.0
C650 C 0.16221 0.61115 0.3286 0.0
C651 C 0.16562 0.61082 0.25342 0.0
C652 C 0.13993 0.60501 0.3555 0.0
C653 C 0.17805 0.61308 0.45667 0.0
C654 C 0.13074 0.58501 0.33171 0.0
C655 C 0.11025 0.57806 0.35709 0.0
C656 C 0.09854 0.59083 0.40757 0.0
C657 C 0.10756 0.61095 0.43137 0.0
C658 C 0.12805 0.61814 0.4048 0.0
H659 H 0.1941 0.61127 0.48505 0.0
H660 H 0.17059 0.62902 0.47342 0.0
H661 H 0.16691 0.59959 0.47484 0.0
H662 H 0.13964 0.57448 0.29419 0.0
H663 H 0.10383 0.56234 0.33871 0.0
H664 H 0.05538 0.75207 0.09926 0.0
H665 H 0.07831 0.77876 0.03525 0.0
H666 H 0.11685 0.78888 0.22889 0.0
H667 H 0.09324 0.76264 0.2939 0.0
H668 H 0.0977 0.82496 0.19054 0.0
H669 H 0.13641 0.79184 0.94392 0.0
H670 H 0.10808 0.78341 0.94647 0.0
H671 H 0.12678 0.77404 0.01608 0.0
C672 C 0.06937 0.75924 0.12718 0.0
C673 C 0.07246 0.75554 0.20153 0.0
C674 C 0.08264 0.77442 0.09035 0.0
C675 C 0.09945 0.78582 0.12703 0.0
C676 C 0.10403 0.78026 0.19941 0.0
H677 H 0.11904 0.92435 1.00193 0.0
H678 H 0.13247 0.88881 0.04837 0.0
C679 C 0.09054 0.76533 0.23655 0.0
C680 C 0.10802 0.80676 0.09603 0.0
H681 H 0.12307 0.83049 0.93553 0.0
C682 C 0.10405 0.82615 0.13565 0.0
C683 C 0.11625 0.80836 0.02443 0.0
C684 C 0.12232 0.78821 0.98077 0.0
C685 C 0.1058 0.84701 0.1034 0.0
C686 C 0.11221 0.84854 0.02973 0.0
C687 C 0.11809 0.82927 0.99191 0.0
C688 C 0.10879 0.86925 0.98864 0.0
C689 C 0.0987 0.867 0.14662 0.0
C690 C 0.0921 0.86984 0.93612 0.0
C691 C 0.08458 0.88999 0.90918 0.0
C692 C 0.09358 0.90992 0.9345 0.0
C693 C 0.11157 0.90922 0.9825 0.0
C694 C 0.11927 0.88898 0.00888 0.0
H695 H 0.0912 0.86246 0.1996 0.0
H696 H 0.11328 0.87757 0.1575 0.0
H697 H 0.0865 0.87694 0.11577 0.0
H698 H 0.08376 0.85482 0.91987 0.0
H699 H 0.07063 0.88996 0.87258 0.0
H700 H 0.72719 1.00365 0.12146 0.0
H701 H 0.70871 0.01996 0.01714 0.0
H702 H 0.76317 0.06504 0.98726 0.0
H703 H 0.78167 0.04889 0.09291 0.0
H704 H 0.72406 0.08606 1.00272 0.0
H705 H 0.71373 0.02091 0.79822 0.0
H706 H 0.7072 0.00995 0.88591 0.0
H707 H 0.73485 0.01954 0.86727 0.0
C708 C 0.73538 0.01678 0.0919 0.0
C709 C 0.7557 0.02517 0.11556 0.0
C710 C 0.72501 0.02585 0.03151 0.0
C711 C 0.73477 0.04345 0.99352 0.0
C712 C 0.75555 0.05124 0.01514 0.0
H713 H 0.62086 0.09029 0.7447 0.0
H714 H 0.66107 0.08808 0.75786 0.0
C715 C 0.76603 0.04205 0.07547 0.0
C716 C 0.72121 0.05593 0.94107 0.0
H717 H 0.6815 0.04604 0.81492 0.0
C718 C 0.71539 0.07766 0.95938 0.0
C719 C 0.71021 0.04526 0.8834 0.0
C720 C 0.71705 0.0227 0.85712 0.0
C721 C 0.69668 0.08763 0.92917 0.0
C722 C 0.68365 0.07548 0.8801 0.0
C723 C 0.69138 0.05518 0.85363 0.0
C724 C 0.65994 0.08035 0.87214 0.0
C725 C 0.68965 0.11012 0.95555 0.0
C726 C 0.64618 0.07685 0.93217 0.0
C727 C 0.62335 0.07738 0.92467 0.0
C728 C 0.61368 0.0817 0.85689 0.0
C729 C 0.62763 0.0865 0.79749 0.0
C730 C 0.65062 0.08548 0.80484 0.0
H731 H 0.70412 0.12002 0.97311 0.0
H732 H 0.68062 0.11928 0.91266 0.0
H733 H 0.67847 0.10814 1.0029 0.0
H734 H 0.65313 0.07239 0.98427 0.0
H735 H 0.61344 0.073 0.97141 0.0
H736 H 0.44473 0.78483 0.11341 0.0
H737 H 0.42913 0.76706 0.00479 0.0
H738 H 0.47091 0.71042 0.04046 0.0
H739 H 0.48651 0.72789 0.1477 0.0
H740 H 0.46519 0.73506 0.87985 0.0
H741 H 0.39178 0.70311 0.02842 0.0
H742 H 0.40237 0.73073 0.04165 0.0
H743 H 0.41653 0.70755 0.08054 0.0
C744 C 0.45061 0.76864 0.09755 0.0
C745 C 0.46661 0.75757 0.13934 0.0
C746 C 0.44175 0.75861 0.0357 0.0
C747 C 0.44901 0.73756 0.01495 0.0
C748 C 0.46521 0.72674 0.05582 0.0
H749 H 0.47507 0.62586 0.86074 0.0
H750 H 0.47103 0.66567 0.86763 0.0
C751 C 0.47391 0.73661 0.11743 0.0
C752 C 0.43924 0.72555 0.95361 0.0
H753 H 0.40637 0.68053 0.9341 0.0
C754 C 0.45167 0.72368 0.88969 0.0
C755 C 0.42129 0.71117 0.96576 0.0
C756 C 0.40704 0.71321 0.03257 0.0
C757 C 0.44855 0.70575 0.84279 0.0
C758 C 0.4332 0.68914 0.86218 0.0
C759 C 0.41845 0.69302 0.9197 0.0
C760 C 0.43628 0.66592 0.83897 0.0
C761 C 0.46313 0.70373 0.77671 0.0
C762 C 0.41817 0.65259 0.82016 0.0
C763 C 0.42045 0.62959 0.81749 0.0
C764 C 0.44078 0.61973 0.83464 0.0
C765 C 0.45915 0.63313 0.84852 0.0
C766 C 0.45691 0.65596 0.85096 0.0
H767 H 0.46515 0.72011 0.75031 0.0
H768 H 0.47981 0.69809 0.79333 0.0
H769 H 0.45632 0.6919 0.73661 0.0
H770 H 0.40205 0.65989 0.81157 0.0
H771 H 0.40611 0.61949 0.80626 0.0
H772 H 0.77547 0.432 0.27412 0.0
H773 H 0.80087 0.41419 0.18974 0.0
H774 H 0.76367 0.43993 0.00953 0.0
H775 H 0.73931 0.45936 0.09311 0.0
H776 H 0.80348 0.38682 0.07043 0.0
H777 H 0.82059 0.4744 0.99587 0.0
H778 H 0.80261 0.46713 0.06991 0.0
H779 H 0.79303 0.46511 0.97791 0.0
C780 C 0.7725 0.4337 0.21652 0.0
C781 C 0.75589 0.44791 0.19057 0.0
C782 C 0.78688 0.42323 0.16831 0.0
C783 C 0.78459 0.42643 0.09344 0.0
C784 C 0.76607 0.43781 0.06727 0.0
H785 H 0.89883 0.43054 0.81158 0.0
H786 H 0.86039 0.42281 0.8411 0.0
C787 C 0.75198 0.44875 0.11541 0.0
C788 C 0.80358 0.42158 0.04525 0.0
H789 H 0.84406 0.44771 0.94923 0.0
C790 C 0.81217 0.40003 0.04272 0.0
C791 C 0.81502 0.43891 0.00968 0.0
C792 C 0.80752 0.46271 0.01374 0.0
C793 C 0.83231 0.39551 0.00757 0.0
C794 C 0.84408 0.41302 0.97471 0.0
C795 C 0.83488 0.43427 0.97393 0.0
C796 C 0.86718 0.41085 0.94926 0.0
C797 C 0.84106 0.37221 0.00746 0.0
C798 C 0.88388 0.40576 0.99918 0.0
C799 C 0.90598 0.41001 0.98227 0.0
C800 C 0.91172 0.41966 0.91545 0.0
C801 C 0.8951 0.42295 0.86335 0.0
C802 C 0.87305 0.41858 0.88014 0.0
H803 H 0.82742 0.36 0.01145 0.0
H804 H 0.85086 0.36878 0.95775 0.0
H805 H 0.85193 0.36986 0.05518 0.0
H806 H 0.87975 0.40018 0.05332 0.0
H807 H 0.91843 0.40694 0.02311 0.0
H808 H 0.97003 0.24104 0.01906 0.0
H809 H 0.97171 0.20815 0.94196 0.0
H810 H 0.04265 0.21314 0.93453 0.0
H811 H 0.04102 0.24621 0.01202 0.0
H812 H 0.01176 0.1975 0.7914 0.0
H813 H 1.00583 0.15244 0.05421 0.0
H814 H 0.98827 0.17609 0.04 0.0
H815 H 0.01752 0.17982 0.04807 0.0
C816 C 0.98592 0.23566 0.99848 0.0
C817 C 1.00539 0.24629 0.02098 0.0
C818 C 0.98686 0.21681 0.95474 0.0
C819 C 1.00729 0.20815 0.93271 0.0
C820 C 0.0267 0.21965 0.95051 0.0
H821 H 0.03559 0.07051 0.83869 0.0
H822 H 0.03626 0.10893 0.87853 0.0
C823 C 0.02576 0.23862 0.99432 0.0
C824 C 0.00835 0.18561 0.90068 0.0
H825 H 1.0056 0.13113 0.94812 0.0
C826 C 0.01052 0.18294 0.82544 0.0
C827 C 1.00675 0.16667 0.94525 0.0
C828 C 1.00454 0.16868 0.02648 0.0
C829 C 0.01107 0.16173 0.7936 0.0
C830 C 0.00916 0.14271 0.83828 0.0
C831 C 1.00711 0.14556 0.91362 0.0
C832 C 0.00954 0.11963 0.80912 0.0
C833 C 0.01408 0.15998 0.71262 0.0
C834 C 0.9943 0.11259 0.75655 0.0
C835 C 0.994 0.09053 0.73305 0.0
C836 C 0.00871 0.07487 0.76246 0.0
C837 C 0.02396 0.08199 0.81489 0.0
C838 C 0.02438 0.10405 0.83777 0.0
H839 H 0.02165 0.17518 0.68961 0.0
H840 H 0.0246 0.14562 0.69812 0.0
H841 H 0.9977 0.15779 0.68679 0.0
H842 H 0.98226 0.12402 0.73488 0.0
H843 H 0.9819 0.08567 0.69299 0.0
H844 H 0.26629 0.03334 0.01936 0.0
H845 H 0.29978 0.03463 0.94397 0.0
H846 H 0.29767 0.9638 0.92115 0.0
H847 H 0.26438 0.96257 0.99697 0.0
H848 H 0.33681 0.9783 0.97676 0.0
H849 H 0.31694 0.0267 0.73022 0.0
H850 H 0.30835 0.03958 0.81333 0.0
H851 H 0.29595 0.01394 0.78604 0.0
C852 C 0.27242 0.01821 0.99531 0.0
C853 C 0.26245 0.99791 0.01255 0.0
C854 C 0.29165 0.01892 0.95244 0.0
C855 C 0.30129 0.99931 0.92618 0.0
C856 C 0.29056 0.97917 0.9402 0.0
H857 H 0.42433 0.98971 0.67014 0.0
H858 H 0.38569 0.98747 0.71004 0.0
C859 C 0.27139 0.97848 0.98292 0.0
C860 C 0.32389 0.99943 0.89302 0.0
H861 H 0.35524 0.02117 0.75558 0.0
C862 C 0.34074 0.98756 0.92807 0.0
C863 C 0.32913 0.01128 0.82902 0.0
C864 C 0.31163 0.02345 0.78692 0.0
C865 C 0.36264 0.98776 0.90243 0.0
C866 C 0.36812 1.00044 0.84042 0.0
C867 C 0.35117 0.01169 0.80369 0.0
C868 C 0.39145 1.00254 0.81454 0.0
C869 C 0.37977 0.97426 0.94196 0.0
C870 C 0.40759 0.01205 0.85935 0.0
C871 C 0.42969 0.0133 0.83688 0.0
C872 C 0.43626 1.00512 0.76876 0.0
C873 C 0.41997 0.99602 0.72319 0.0
C874 C 0.39781 0.99481 0.74576 0.0
H875 H 0.37207 0.96103 0.97526 0.0
H876 H 0.39159 0.96657 0.90336 0.0
H877 H 0.38921 0.9852 0.97884 0.0
H878 H 0.40308 0.01847 0.91215 0.0
H879 H 0.44166 0.02051 0.87334 0.0
H880 H 0.48314 0.27381 0.06391 0.0
H881 H 0.47822 0.30737 0.991 0.0
H882 H 0.5407 0.29539 0.88565 0.0
H883 H 0.54568 0.26192 0.95908 0.0
H884 H 0.51303 0.34124 0.00645 0.0
H885 H 0.4984 0.31806 0.71881 0.0
H886 H 0.49127 0.29996 0.79334 0.0
H887 H 0.51961 0.30336 0.76721 0.0
C888 C 0.49524 0.27775 0.02252 0.0
C889 C 0.51452 0.26499 0.01575 0.0
C890 C 0.49256 0.29705 0.98144 0.0
C891 C 0.50903 0.30386 0.93247 0.0
C892 C 0.52759 0.29029 0.92203 0.0
H893 H 0.53126 0.42832 0.69826 0.0
H894 H 0.53273 0.38994 0.74095 0.0
C895 C 0.53036 0.27108 0.9636 0.0
C896 C 0.50844 0.32658 0.90144 0.0
H897 H 0.5038 0.35599 0.74382 0.0
C898 C 0.51088 0.34447 0.94906 0.0
C899 C 0.50617 0.33076 0.82643 0.0
C900 C 0.50359 0.3121 0.77313 0.0
C901 C 0.51113 0.36639 0.92395 0.0
C902 C 0.50805 0.37073 0.84912 0.0
C903 C 0.50596 0.35277 0.80118 0.0
C904 C 0.5066 0.39379 0.82034 0.0
C905 C 0.51534 0.38462 0.97797 0.0
C906 C 0.49111 0.4087 0.84923 0.0
C907 C 0.49048 0.43067 0.82571 0.0
C908 C 0.50498 0.43823 0.77145 0.0
C909 C 0.51991 0.42309 0.74028 0.0
C910 C 0.52073 0.40111 0.76464 0.0
H911 H 0.52446 0.37842 0.02606 0.0
H912 H 0.52498 0.39831 0.95335 0.0
H913 H 0.49931 0.39129 0.99733 0.0
H914 H 0.47954 0.40338 0.8905 0.0
H915 H 0.47852 0.44175 0.85015 0.0
H916 H 0.23918 0.49095 0.07197 0.0
H917 H 0.20485 0.48157 0.00826 0.0
H918 H 0.21839 0.53223 0.84997 0.0
H919 H 0.25252 0.54167 0.91387 0.0
H920 H 0.17163 0.51521 0.99386 0.0
H921 H 0.19439 0.48027 0.72589 0.0
H922 H 0.21297 0.47997 0.80241 0.0
H923 H 0.20904 0.5049 0.75122 0.0
C924 C 0.23533 0.49931 0.02163 0.0
C925 C 0.24872 0.51673 0.99698 0.0
C926 C 0.21559 0.49413 0.9857 0.0
C927 C 0.20905 0.50609 0.92398 0.0
C928 C 0.22322 0.52248 0.89656 0.0
H929 H 0.08913 0.52451 0.67211 0.0
H930 H 0.12696 0.52377 0.719 0.0
C931 C 0.2428 0.5278 0.93287 0.0
C932 C 0.18626 0.50373 0.89446 0.0
H933 H 0.15703 0.4916 0.7412 0.0
C934 C 0.1684 0.50978 0.93889 0.0
C935 C 0.18208 0.49703 0.82237 0.0
C936 C 0.20058 0.48999 0.77265 0.0
C937 C 0.14658 0.50987 0.91287 0.0
C938 C 0.14229 0.50302 0.84077 0.0
C939 C 0.16019 0.49679 0.79644 0.0
C940 C 0.11942 0.50258 0.81031 0.0
C941 C 0.12848 0.51819 0.96225 0.0
C942 C 0.10255 0.49052 0.84477 0.0
C943 C 0.08086 0.49114 0.81857 0.0
C944 C 0.07553 0.50348 0.75633 0.0
C945 C 0.09259 0.51486 0.72019 0.0
C946 C 0.11427 0.51443 0.74697 0.0
H947 H 0.13514 0.52884 0.00606 0.0
H948 H 0.11594 0.52777 0.93164 0.0
H949 H 0.12016 0.5039 0.98829 0.0
H950 H 0.10611 0.4807 0.89237 0.0
H951 H 0.06823 0.48193 0.84731 0.0
H952 H 0.04177 0.76047 0.46646 0.0
H953 H 0.03366 0.79422 0.53449 0.0
H954 H 0.98025 0.80888 0.38801 0.0
H955 H 0.9883 0.77491 0.32026 0.0
H956 H 0.03833 0.83433 0.46361 0.0
H957 H 0.95463 0.82796 0.58546 0.0
H958 H 0.97038 0.80401 0.55799 0.0
H959 H 0.95625 0.82038 0.49142 0.0
C960 C 0.02759 0.77033 0.45112 0.0
C961 C 0.0154 0.76488 0.38893 0.0
C962 C 0.02311 0.78975 0.48949 0.0
C963 C 1.00633 0.80416 0.46656 0.0
C964 C 0.99302 0.7979 0.40766 0.0
H965 H 0.99349 0.94609 0.51319 0.0
H966 H 0.99322 0.90761 0.47262 0.0
C967 C 0.99751 0.77838 0.36918 0.0
C968 C 1.00504 0.82692 0.4973 0.0
H969 H 0.97104 0.86379 0.58328 0.0
C970 C 0.02365 0.84066 0.49029 0.0
C971 C 0.98588 0.83529 0.53185 0.0
C972 C 0.96568 0.82113 0.54284 0.0
C973 C 0.02351 0.86252 0.51583 0.0
C974 C 1.00431 0.87095 0.54947 0.0
C975 C 0.98574 0.85726 0.55729 0.0
C976 C 1.0034 0.89414 0.57573 0.0
C977 C 0.0438 0.87667 0.50624 0.0
C978 C 0.00927 0.89932 0.64724 0.0
C979 C 0.00958 0.92135 0.6707 0.0
C980 C 1.00397 0.93866 0.62304 0.0
C981 C 0.9979 0.93328 0.55153 0.0
C982 C 0.99766 0.91127 0.52816 0.0
H983 H 0.05775 0.86742 0.48145 0.0
H984 H 0.0398 0.89103 0.47114 0.0
H985 H 0.04914 0.88324 0.55956 0.0
H986 H 0.0139 0.88632 0.68463 0.0
H987 H 0.01434 0.9248 0.72608 0.0
H988 H 0.74401 0.04336 0.38501 0.0
H989 H 0.71105 0.04317 0.46227 0.0
H990 H 0.70979 0.97201 0.45429 0.0
H991 H 0.74303 0.97226 0.37753 0.0
H992 H 0.67212 0.02771 0.412 0.0
H993 H 0.69311 0.98362 0.66582 0.0
H994 H 0.71388 0.9948 0.60566 0.0
H995 H 0.70092 0.96882 0.58538 0.0
C996 C 0.73726 0.02766 0.40254 0.0
C997 C 0.74633 1.00781 0.37654 0.0
C998 C 0.71828 0.02756 0.44612 0.0
C999 C 0.70786 1.00759 0.46465 0.0
C1000 C 0.71769 0.98763 0.44221 0.0
H1001 H 0.56777 0.98749 0.52561 0.0
H1002 H 0.60617 0.98887 0.48534 0.0
C1003 C 0.73676 0.98775 0.39856 0.0
C1004 C 0.68538 0.00788 0.49857 0.0
H1005 H 0.65457 0.98816 0.6405 0.0
C1006 C 0.66839 0.01919 0.46232 0.0
C1007 C 0.6804 0.997 0.56462 0.0
C1008 C 0.69807 0.98555 0.60812 0.0
C1009 C 0.64661 0.01942 0.48893 0.0
C1010 C 0.64138 1.00769 0.55314 0.0
C1011 C 0.65846 0.99695 0.59083 0.0
C1012 C 0.61816 1.00598 0.58028 0.0
C1013 C 0.62935 0.03236 0.44801 0.0
C1014 C 0.61206 0.01458 0.64823 0.0
C1015 C 0.58996 0.01372 0.67173 0.0
C1016 C 0.57352 1.00416 0.62793 0.0
C1017 C 0.57985 0.99511 0.56073 0.0
C1018 C 0.60187 0.99597 0.53738 0.0
H1019 H 0.63694 0.04518 0.41274 0.0
H1020 H 0.61987 0.02094 0.41287 0.0
H1021 H 0.61759 0.04052 0.48577 0.0
H1022 H 0.62431 0.0223 0.68252 0.0
H1023 H 0.58577 0.02069 0.72405 0.0
H1024 H 0.52991 0.74602 0.37156 0.0
H1025 H 0.53425 0.71254 0.44585 0.0
H1026 H 0.46447 0.71286 0.49223 0.0
H1027 H 0.46007 0.74612 0.41759 0.0
H1028 H 0.50269 0.6985 0.6152 0.0
H1029 H 0.49741 0.65545 0.34888 0.0
H1030 H 0.51402 0.68004 0.35639 0.0
H1031 H 0.48457 0.682 0.36354 0.0
C1032 C 0.51572 0.73951 0.40036 0.0
C1033 C 0.49471 0.74879 0.38962 0.0
C1034 C 0.51816 0.7203 0.44232 0.0
C1035 C 0.49966 0.7102 0.47447 0.0
C1036 C 0.47897 0.72046 0.46841 0.0
H1037 H 0.47908 0.58506 0.70747 0.0
H1038 H 0.47754 0.62361 0.66804 0.0
C1039 C 0.4765 0.73951 0.42608 0.0
C1040 C 0.50122 0.68745 0.50464 0.0
H1041 H 0.50111 0.6334 0.45225 0.0
C1042 C 0.50249 0.68421 0.57983 0.0
C1043 C 0.50077 0.66888 0.45835 0.0
C1044 C 0.49905 0.67154 0.37721 0.0
C1045 C 0.50377 0.66279 0.6099 0.0
C1046 C 0.50319 0.64408 0.56343 0.0
C1047 C 0.50172 0.64755 0.48818 0.0
C1048 C 0.50437 0.62074 0.59047 0.0
C1049 C 0.50631 0.66058 0.69091 0.0
C1050 C 0.51938 0.6058 0.55882 0.0
C1051 C 0.51974 0.58356 0.57972 0.0
C1052 C 0.50531 0.57566 0.63358 0.0
C1053 C 0.4905 0.59061 0.66616 0.0
C1054 C 0.48981 0.61281 0.64412 0.0
H1055 H 0.51351 0.67575 0.71507 0.0
H1056 H 0.48979 0.65808 0.71582 0.0
H1057 H 0.51696 0.64631 0.70527 0.0
H1058 H 0.53079 0.61133 0.51732 0.0
H1059 H 0.53145 0.57255 0.55373 0.0
H1060 H 0.77502 0.5301 0.31271 0.0
H1061 H 0.80913 0.5391 0.3783 0.0
H1062 H 0.79598 0.48639 0.52954 0.0
H1063 H 0.76195 0.47743 0.46407 0.0
H1064 H 0.8167 0.5266 0.59203 0.0
H1065 H 0.85996 0.49281 0.34987 0.0
H1066 H 0.84066 0.51482 0.33337 0.0
H1067 H 0.83083 0.48862 0.36566 0.0
C1068 C 0.77891 0.52117 0.36195 0.0
C1069 C 0.76569 0.50334 0.38416 0.0
C1070 C 0.79854 0.5261 0.39882 0.0
C1071 C 0.80528 0.51321 0.45825 0.0
C1072 C 0.79113 0.49658 0.48397 0.0
H1073 H 0.92459 0.49376 0.71522 0.0
H1074 H 0.88659 0.49527 0.67058 0.0
C1075 C 0.77159 0.49159 0.44696 0.0
C1076 C 0.82806 0.51517 0.48808 0.0
H1077 H 0.88213 0.50512 0.4458 0.0
C1078 C 0.83105 0.52203 0.56006 0.0
C1079 C 0.84676 0.50905 0.44648 0.0
C1080 C 0.84453 0.50074 0.36972 0.0
C1081 C 0.85227 0.52324 0.59118 0.0
C1082 C 0.87099 0.51684 0.5498 0.0
C1083 C 0.8679 0.51009 0.47766 0.0
C1084 C 0.89393 0.51676 0.57975 0.0
C1085 C 0.85441 0.53177 0.66762 0.0
C1086 C 0.91099 0.52785 0.54294 0.0
C1087 C 0.93281 0.52672 0.56767 0.0
C1088 C 0.93818 0.51447 0.63007 0.0
C1089 C 0.92106 0.50354 0.66741 0.0
C1090 C 0.89923 0.50452 0.6422 0.0
H1091 H 0.84007 0.54225 0.68303 0.0
H1092 H 0.85495 0.51758 0.70564 0.0
H1093 H 0.86976 0.54156 0.67442 0.0
H1094 H 0.90744 0.53732 0.49447 0.0
H1095 H 0.9455 0.53537 0.53751 0.0
loop_
_geom_bond_atom_site_label_1
_geom_bond_atom_site_label_2
_geom_bond_distance
_geom_bond_site_symmetry_2
_ccdc_geom_bond_type
H0 C3 0.931 . S
H1 C6 0.928 . S
H2 C8 0.930 . S
C3 H0 0.931 . S
C3 C4 1.413 . S
C3 C5 1.360 . S
C4 C3 1.413 . S
C4 C8 1.429 . S
C5 C3 1.360 . S
C5 C6 1.372 . S
C6 H1 0.928 . S
C6 C5 1.372 . S
C6 C7 1.404 . S
C7 C6 1.404 . S
C7 C8 1.391 . S
C8 H2 0.930 . S
C8 C4 1.429 . S
C8 C7 1.391 . S
H9 C12 0.931 . S
H10 C15 0.928 . S
H11 C17 0.930 . S
C12 H9 0.931 . S
C12 C13 1.413 . S
C12 C14 1.360 . S
C13 C12 1.413 . S
C13 C17 1.429 1_655 S
C14 C12 1.360 . S
C14 C15 1.372 . S
C15 H10 0.928 . S
C15 C14 1.372 . S
C15 C16 1.404 . S
C16 C15 1.404 . S
C16 C17 1.390 1_655 S
C17 H11 0.930 . S
C17 C13 1.429 1_455 S
C17 C16 1.390 1_455 S
H18 C21 0.931 . S
H19 C24 0.928 . S
H20 C26 0.930 . S
C21 H18 0.931 . S
C21 C22 1.413 . S
C21 C23 1.360 . S
C22 C21 1.413 . S
C22 C26 1.429 1_565 S
C23 C21 1.360 . S
C23 C24 1.372 . S
C24 H19 0.928 . S
C24 C23 1.372 . S
C24 C25 1.404 . S
C25 C24 1.404 . S
C25 C26 1.390 1_565 S
C26 H20 0.930 . S
C26 C22 1.429 1_545 S
C26 C25 1.390 1_545 S
H27 C30 0.931 . S
H28 C33 0.928 . S
H29 C35 0.930 . S
C30 H27 0.931 . S
C30 C31 1.413 . S
C30 C32 1.360 . S
C31 C30 1.413 . S
C31 C35 1.429 . S
C32 C30 1.360 . S
C32 C33 1.372 . S
C33 H28 0.928 . S
C33 C32 1.372 . S
C33 C34 1.404 . S
C34 C33 1.404 . S
C34 C35 1.391 . S
C35 H29 0.930 . S
C35 C31 1.429 . S
C35 C34 1.391 . S
H36 C39 0.931 . S
H37 C42 0.928 . S
H38 C44 0.930 . S
C39 H36 0.931 . S
C39 C40 1.413 1_554 S
C39 C41 1.360 . S
C40 C39 1.413 1_556 S
C40 C44 1.429 . S
C41 C39 1.360 . S
C41 C42 1.372 . S
C42 H37 0.928 . S
C42 C41 1.372 . S
C42 C43 1.404 . S
C43 C42 1.404 . S
C43 C44 1.391 1_554 S
C44 H38 0.930 . S
C44 C40 1.429 . S
C44 C43 1.391 1_556 S
H45 C48 0.931 . S
H46 C51 0.928 . S
H47 C53 0.930 . S
C48 H45 0.931 . S
C48 C49 1.413 1_554 S
C48 C50 1.360 . S
C49 C48 1.413 1_556 S
C49 C53 1.429 1_655 S
C50 C48 1.360 . S
C50 C51 1.372 . S
C51 H46 0.928 . S
C51 C50 1.372 . S
C51 C52 1.404 . S
C52 C51 1.404 . S
C52 C53 1.391 1_654 S
C53 H47 0.930 . S
C53 C49 1.429 1_455 S
C53 C52 1.391 1_456 S
H54 C57 0.931 . S
H55 C60 0.928 . S
H56 C62 0.930 . S
C57 H54 0.931 . S
C57 C58 1.413 1_554 S
C57 C59 1.360 . S
C58 C57 1.413 1_556 S
C58 C62 1.429 1_565 S
C59 C57 1.360 . S
C59 C60 1.372 . S
C60 H55 0.928 . S
C60 C59 1.372 . S
C60 C61 1.404 . S
C61 C60 1.404 . S
C61 C62 1.391 1_564 S
C62 H56 0.930 . S
C62 C58 1.429 1_545 S
C62 C61 1.391 1_546 S
H63 C66 0.931 . S
H64 C69 0.928 . S
H65 C71 0.930 . S
C66 H63 0.931 . S
C66 C67 1.413 . S
C66 C68 1.360 1_554 S
C67 C66 1.413 . S
C67 C71 1.429 . S
C68 C66 1.360 1_556 S
C68 C69 1.372 . S
C69 H64 0.928 . S
C69 C68 1.372 . S
C69 C70 1.404 1_556 S
C70 C69 1.404 1_554 S
C70 C71 1.391 . S
C71 H65 0.930 . S
C71 C67 1.429 . S
C71 C70 1.391 . S
Ho72 C75 2.811 . S
Ho72 O92 2.322 . S
Ho72 O94 2.378 . S
Ho72 O95 2.524 . S
Ho72 O96 2.381 . S
Ho72 O97 2.669 1_565 S
Ho72 O99 2.346 1_565 S
Ho72 O103 2.305 1_455 S
Ho73 C84 2.811 . S
Ho73 O93 2.346 1_545 S
Ho73 O97 2.305 1_655 S
Ho73 O98 2.322 . S
Ho73 O100 2.378 . S
Ho73 O101 2.524 . S
Ho73 O102 2.381 . S
Ho73 O103 2.669 1_545 S
C74 O92 1.259 1_655 S
C74 O93 1.268 . S
C75 Ho72 2.811 . S
C75 C76 1.488 . S
C75 O94 1.215 . S
C75 O95 1.289 . S
C76 C75 1.488 . S
C76 C77 1.348 . S
C76 C81 1.413 . S
C77 C76 1.348 . S
C77 C78 1.442 . S
C77 H104 0.930 1_455 S
C78 C77 1.442 . S
C78 C79 1.381 . S
C78 H105 0.931 1_455 S
C79 C78 1.381 . S
C79 C80 1.321 . S
C80 C79 1.321 . S
C80 C81 1.403 . S
C80 H106 0.934 . S
C81 C76 1.413 . S
C81 C80 1.403 . S
C81 H107 0.930 . S
C82 O96 1.296 . S
C82 O97 1.245 1_565 S
C83 O98 1.259 1_455 S
C83 O99 1.268 . S
C84 Ho73 2.811 . S
C84 C85 1.488 . S
C84 O100 1.215 . S
C84 O101 1.289 . S
C85 C84 1.488 . S
C85 C86 1.348 . S
C85 C90 1.413 . S
C86 C85 1.348 . S
C86 C87 1.442 . S
C86 H108 0.930 1_655 S
C87 C86 1.442 . S
C87 C88 1.381 . S
C87 H109 0.931 1_655 S
C88 C87 1.381 . S
C88 C89 1.321 . S
C89 C88 1.321 . S
C89 C90 1.403 . S
C89 H110 0.934 . S
C90 C85 1.413 . S
C90 C89 1.403 . S
C90 H111 0.930 . S
C91 O102 1.302 . S
C91 O103 1.241 1_545 S
O92 Ho72 2.322 . S
O92 C74 1.259 1_455 S
O93 Ho73 2.346 1_565 S
O93 C74 1.268 . S
O94 Ho72 2.378 . S
O94 C75 1.215 . S
O95 Ho72 2.524 . S
O95 C75 1.289 . S
O96 Ho72 2.381 . S
O96 C82 1.296 . S
O97 Ho72 2.669 1_545 S
O97 Ho73 2.305 1_455 S
O97 C82 1.245 1_545 S
O98 Ho73 2.322 . S
O98 C83 1.259 1_655 S
O99 Ho72 2.346 1_545 S
O99 C83 1.268 . S
O100 Ho73 2.378 . S
O100 C84 1.215 . S
O101 Ho73 2.524 . S
O101 C84 1.289 . S
O102 Ho73 2.381 . S
O102 C91 1.302 . S
O103 Ho72 2.305 1_655 S
O103 Ho73 2.669 1_565 S
O103 C91 1.241 1_565 S
H104 C77 0.930 1_655 S
H105 C78 0.931 1_655 S
H106 C80 0.934 . S
H107 C81 0.930 . S
H108 C86 0.930 1_455 S
H109 C87 0.931 1_455 S
H110 C89 0.934 . S
H111 C90 0.930 . S
Ho112 C115 2.811 . S
Ho112 O132 2.322 . S
Ho112 O134 2.378 . S
Ho112 O135 2.524 . S
Ho112 O136 2.381 . S
Ho112 O137 2.669 . S
Ho112 O139 2.346 . S
Ho112 O143 2.305 1_545 S
Ho113 C124 2.811 . S
Ho113 O133 2.346 . S
Ho113 O137 2.305 1_565 S
Ho113 O138 2.322 . S
Ho113 O140 2.378 . S
Ho113 O141 2.524 . S
Ho113 O142 2.381 . S
Ho113 O143 2.669 . S
C114 O132 1.259 1_565 S
C114 O133 1.268 . S
C115 Ho112 2.811 . S
C115 C116 1.488 . S
C115 O134 1.215 . S
C115 O135 1.289 . S
C116 C115 1.488 . S
C116 C117 1.348 . S
C116 C121 1.413 . S
C117 C116 1.348 . S
C117 C118 1.442 . S
C117 H144 0.930 1_545 S
C118 C117 1.442 . S
C118 C119 1.381 . S
C118 H145 0.931 1_545 S
C119 C118 1.381 . S
C119 C120 1.321 . S
C120 C119 1.321 . S
C120 C121 1.403 . S
C120 H146 0.934 . S
C121 C116 1.413 . S
C121 C120 1.403 . S
C121 H147 0.930 . S
C122 O136 1.275 . S
C122 O137 1.256 . S
C123 O138 1.259 1_545 S
C123 O139 1.268 . S
C124 Ho113 2.811 . S
C124 C125 1.488 . S
C124 O140 1.215 . S
C124 O141 1.289 . S
C125 C124 1.488 . S
C125 C126 1.348 . S
C125 C130 1.413 . S
C126 C125 1.348 . S
C126 C127 1.442 . S
C126 H148 0.930 1_565 S
C127 C126 1.442 . S
C127 C128 1.381 . S
C127 H149 0.931 1_565 S
C128 C127 1.381 . S
C128 C129 1.321 . S
C129 C128 1.321 . S
C129 C130 1.403 . S
C129 H150 0.934 . S
C130 C125 1.413 . S
C130 C129 1.403 . S
C130 H151 0.930 . S
C131 O142 1.275 . S
C131 O143 1.256 . S
O132 Ho112 2.322 . S
O132 C114 1.259 1_545 S
O133 Ho113 2.346 . S
O133 C114 1.268 . S
O134 Ho112 2.378 . S
O134 C115 1.215 . S
O135 Ho112 2.524 . S
O135 C115 1.289 . S
O136 Ho112 2.381 . S
O136 C122 1.275 . S
O137 Ho112 2.669 . S
O137 Ho113 2.305 1_545 S
O137 C122 1.256 . S
O138 Ho113 2.322 . S
O138 C123 1.259 1_565 S
O139 Ho112 2.346 . S
O139 C123 1.268 . S
O140 Ho113 2.378 . S
O140 C124 1.215 . S
O141 Ho113 2.524 . S
O141 C124 1.289 . S
O142 Ho113 2.381 . S
O142 C131 1.275 . S
O143 Ho112 2.305 1_565 S
O143 Ho113 2.669 . S
O143 C131 1.256 . S
H144 C117 0.930 1_565 S
H145 C118 0.931 1_565 S
H146 C120 0.934 . S
H147 C121 0.930 . S
H148 C126 0.930 1_545 S
H149 C127 0.931 1_545 S
H150 C129 0.934 . S
H151 C130 0.930 . S
Ho152 C155 2.811 . S
Ho152 O172 2.322 . S
Ho152 O174 2.378 . S
Ho152 O175 2.524 . S
Ho152 O176 2.381 . S
Ho152 O177 2.669 . S
Ho152 O179 2.346 . S
Ho152 O183 2.305 . S
Ho153 C164 2.811 . S
Ho153 O173 2.346 . S
Ho153 O177 2.305 . S
Ho153 O178 2.322 . S
Ho153 O180 2.378 . S
Ho153 O181 2.524 . S
Ho153 O182 2.381 . S
Ho153 O183 2.669 . S
C154 O172 1.259 . S
C154 O173 1.268 . S
C155 Ho152 2.811 . S
C155 C156 1.488 . S
C155 O174 1.215 . S
C155 O175 1.289 . S
C156 C155 1.488 . S
C156 C157 1.348 . S
C156 C161 1.413 . S
C157 C156 1.348 . S
C157 C158 1.442 . S
C157 H184 0.930 . S
C158 C157 1.442 . S
C158 C159 1.381 . S
C158 H185 0.931 . S
C159 C158 1.381 . S
C159 C160 1.321 . S
C160 C159 1.321 . S
C160 C161 1.403 . S
C160 H186 0.934 . S
C161 C156 1.413 . S
C161 C160 1.403 . S
C161 H187 0.930 . S
C162 O176 1.275 . S
C162 O177 1.256 . S
C163 O178 1.259 . S
C163 O179 1.268 . S
C164 Ho153 2.811 . S
C164 C165 1.488 . S
C164 O180 1.215 . S
C164 O181 1.289 . S
C165 C164 1.488 . S
C165 C166 1.348 . S
C165 C170 1.413 . S
C166 C165 1.348 . S
C166 C167 1.442 . S
C166 H188 0.930 . S
C167 C166 1.442 . S
C167 C168 1.381 . S
C167 H189 0.931 . S
C168 C167 1.381 . S
C168 C169 1.321 . S
C169 C168 1.321 . S
C169 C170 1.403 . S
C169 H190 0.934 . S
C170 C165 1.413 . S
C170 C169 1.403 . S
C170 H191 0.930 . S
C171 O182 1.275 . S
C171 O183 1.256 . S
O172 Ho152 2.322 . S
O172 C154 1.259 . S
O173 Ho153 2.346 . S
O173 C154 1.268 . S
O174 Ho152 2.378 . S
O174 C155 1.215 . S
O175 Ho152 2.524 . S
O175 C155 1.289 . S
O176 Ho152 2.381 . S
O176 C162 1.275 . S
O177 Ho152 2.669 . S
O177 Ho153 2.305 . S
O177 C162 1.256 . S
O178 Ho153 2.322 . S
O178 C163 1.259 . S
O179 Ho152 2.346 . S
O179 C163 1.268 . S
O180 Ho153 2.378 . S
O180 C164 1.215 . S
O181 Ho153 2.524 . S
O181 C164 1.289 . S
O182 Ho153 2.381 . S
O182 C171 1.275 . S
O183 Ho152 2.305 . S
O183 Ho153 2.669 . S
O183 C171 1.256 . S
H184 C157 0.930 . S
H185 C158 0.931 . S
H186 C160 0.934 . S
H187 C161 0.930 . S
H188 C166 0.930 . S
H189 C167 0.931 . S
H190 C169 0.934 . S
H191 C170 0.930 . S
Ho192 C195 2.811 . S
Ho192 O212 2.322 . S
Ho192 O214 2.378 . S
Ho192 O215 2.524 . S
Ho192 O216 2.381 . S
Ho192 O217 2.669 1_655 S
Ho192 O219 2.346 1_655 S
Ho192 O223 2.305 . S
Ho193 C204 2.811 . S
Ho193 O213 2.346 1_455 S
Ho193 O217 2.305 . S
Ho193 O218 2.322 . S
Ho193 O220 2.378 . S
Ho193 O221 2.524 . S
Ho193 O222 2.381 . S
Ho193 O223 2.669 1_455 S
C194 O212 1.259 . S
C194 O213 1.268 . S
C195 Ho192 2.811 . S
C195 C196 1.488 . S
C195 O214 1.215 . S
C195 O215 1.289 . S
C196 C195 1.488 . S
C196 C197 1.348 . S
C196 C201 1.413 . S
C197 C196 1.348 . S
C197 C198 1.442 . S
C197 H224 0.930 . S
C198 C197 1.442 . S
C198 C199 1.381 . S
C198 H225 0.931 . S
C199 C198 1.381 . S
C199 C200 1.321 . S
C200 C199 1.321 . S
C200 C201 1.403 . S
C200 H226 0.934 . S
C201 C196 1.413 . S
C201 C200 1.403 . S
C201 H227 0.930 . S
C202 O216 1.293 . S
C202 O217 1.246 1_655 S
C203 O218 1.259 . S
C203 O219 1.268 . S
C204 Ho193 2.811 . S
C204 C205 1.488 . S
C204 O220 1.215 . S
C204 O221 1.289 . S
C205 C204 1.488 . S
C205 C206 1.348 . S
C205 C210 1.413 . S
C206 C205 1.348 . S
C206 C207 1.442 . S
C206 H228 0.930 . S
C207 C206 1.442 . S
C207 C208 1.381 . S
C207 H229 0.931 . S
C208 C207 1.381 . S
C208 C209 1.321 . S
C209 C208 1.321 . S
C209 C210 1.403 . S
C209 H230 0.934 . S
C210 C205 1.413 . S
C210 C209 1.403 . S
C210 H231 0.930 . S
C211 O222 1.299 . S
C211 O223 1.243 1_455 S
O212 Ho192 2.322 . S
O212 C194 1.259 . S
O213 Ho193 2.346 1_655 S
O213 C194 1.268 . S
O214 Ho192 2.378 . S
O214 C195 1.215 . S
O215 Ho192 2.524 . S
O215 C195 1.289 . S
O216 Ho192 2.381 . S
O216 C202 1.293 . S
O217 Ho192 2.669 1_455 S
O217 Ho193 2.305 . S
O217 C202 1.246 1_455 S
O218 Ho193 2.322 . S
O218 C203 1.259 . S
O219 Ho192 2.346 1_455 S
O219 C203 1.268 . S
O220 Ho193 2.378 . S
O220 C204 1.215 . S
O221 Ho193 2.524 . S
O221 C204 1.289 . S
O222 Ho193 2.381 . S
O222 C211 1.299 . S
O223 Ho192 2.305 . S
O223 Ho193 2.669 1_655 S
O223 C211 1.243 1_655 S
H224 C197 0.930 . S
H225 C198 0.931 . S
H226 C200 0.934 . S
H227 C201 0.930 . S
H228 C206 0.930 . S
H229 C207 0.931 . S
H230 C209 0.934 . S
H231 C210 0.930 . S
H232 C240 0.929 . S
H233 C242 0.930 . S
H234 C244 0.930 . S
H235 C247 0.929 . S
H236 C250 0.930 . S
H237 C252 0.960 . S
H238 C252 0.960 . S
H239 C252 0.960 1_545 S
C240 H232 0.929 . S
C240 C241 1.378 . S
C240 C242 1.384 . S
C241 C240 1.378 . S
C241 C247 1.389 1_565 S
C242 H233 0.930 . S
C242 C240 1.384 . S
C242 C243 1.391 . S
C243 C242 1.391 . S
C243 C244 1.380 1_565 S
C243 C248 1.490 . S
C244 H234 0.930 . S
C244 C243 1.380 1_545 S
C244 C247 1.386 . S
H245 C261 0.930 . S
H246 C262 0.931 . S
C247 H235 0.929 . S
C247 C241 1.389 1_545 S
C247 C244 1.386 . S
C248 C243 1.490 . S
C248 C250 1.393 1_565 S
C248 C251 1.404 . S
H249 C255 0.930 . S
C250 H236 0.930 . S
C250 C248 1.393 1_545 S
C250 C253 1.403 . S
C251 C248 1.404 . S
C251 C252 1.524 . S
C251 C255 1.400 . S
C252 H237 0.960 . S
C252 H238 0.960 . S
C252 H239 0.960 1_565 S
C252 C251 1.524 . S
C253 C250 1.403 . S
C253 C254 1.397 . S
C253 C257 1.495 . S
C254 C253 1.397 . S
C254 C255 1.381 1_545 S
C254 C256 1.480 . S
C255 H249 0.930 . S
C255 C251 1.400 . S
C255 C254 1.381 1_565 S
C256 C254 1.480 . S
C256 C258 1.381 1_545 S
C256 C262 1.383 . S
C257 C253 1.495 . S
C257 H263 0.959 . S
C257 H264 0.961 . S
C257 H265 0.960 1_545 S
C258 C256 1.381 1_565 S
C258 C259 1.394 . S
C258 H266 0.930 . S
C259 C258 1.394 . S
C259 C260 1.383 1_565 S
C259 H267 0.929 . S
C260 C259 1.383 1_545 S
C260 C261 1.377 . S
C261 H245 0.930 . S
C261 C260 1.377 . S
C261 C262 1.379 . S
C262 H246 0.931 . S
C262 C256 1.383 . S
C262 C261 1.379 . S
H263 C257 0.959 . S
H264 C257 0.961 . S
H265 C257 0.960 1_565 S
H266 C258 0.930 . S
H267 C259 0.929 . S
H268 C276 0.929 . S
H269 C278 0.930 . S
H270 C280 0.930 . S
H271 C283 0.929 . S
H272 C286 0.930 . S
H273 C288 0.960 . S
H274 C288 0.960 . S
H275 C288 0.960 . S
C276 H268 0.929 . S
C276 C277 1.377 . S
C276 C278 1.384 . S
C277 C276 1.377 . S
C277 C283 1.390 . S
C278 H269 0.930 . S
C278 C276 1.384 . S
C278 C279 1.372 . S
C279 C278 1.372 . S
C279 C280 1.400 . S
C279 C284 1.490 . S
C280 H270 0.930 . S
C280 C279 1.400 . S
C280 C283 1.386 . S
H281 C297 0.930 . S
H282 C298 0.931 . S
C283 H271 0.929 . S
C283 C277 1.390 . S
C283 C280 1.386 . S
C284 C279 1.490 . S
C284 C286 1.395 . S
C284 C287 1.403 . S
H285 C291 0.930 . S
C286 H272 0.930 . S
C286 C284 1.395 . S
C286 C289 1.403 . S
C287 C284 1.403 . S
C287 C288 1.524 . S
C287 C291 1.400 . S
C288 H273 0.960 . S
C288 H274 0.960 . S
C288 H275 0.960 . S
C288 C287 1.524 . S
C289 C286 1.403 . S
C289 C290 1.392 . S
C289 C293 1.495 . S
C290 C289 1.392 . S
C290 C291 1.385 . S
C290 C292 1.478 . S
C291 H285 0.930 . S
C291 C287 1.400 . S
C291 C290 1.385 . S
C292 C290 1.478 . S
C292 C294 1.381 . S
C292 C298 1.383 . S
C293 C289 1.495 . S
C293 H299 0.959 . S
C293 H300 0.961 . S
C293 H301 0.960 . S
C294 C292 1.381 . S
C294 C295 1.394 . S
C294 H302 0.930 . S
C295 C294 1.394 . S
C295 C296 1.383 . S
C295 H303 0.929 . S
C296 C295 1.383 . S
C296 C297 1.377 . S
C297 H281 0.930 . S
C297 C296 1.377 . S
C297 C298 1.379 . S
C298 H282 0.931 . S
C298 C292 1.383 . S
C298 C297 1.379 . S
H299 C293 0.959 . S
H300 C293 0.961 . S
H301 C293 0.960 . S
H302 C294 0.930 . S
H303 C295 0.929 . S
H304 C312 0.929 . S
H305 C314 0.930 . S
H306 C316 0.930 . S
H307 C319 0.929 . S
H308 C322 0.930 . S
H309 C324 0.960 . S
H310 C324 0.960 . S
H311 C324 0.960 . S
C312 H304 0.929 . S
C312 C313 1.377 . S
C312 C314 1.384 . S
C313 C312 1.377 . S
C313 C319 1.390 . S
C314 H305 0.930 . S
C314 C312 1.384 . S
C314 C315 1.372 . S
C315 C314 1.372 . S
C315 C316 1.400 . S
C315 C320 1.490 . S
C316 H306 0.930 . S
C316 C315 1.400 . S
C316 C319 1.386 . S
H317 C333 0.930 . S
H318 C334 0.931 . S
C319 H307 0.929 . S
C319 C313 1.390 . S
C319 C316 1.386 . S
C320 C315 1.490 . S
C320 C322 1.395 . S
C320 C323 1.403 . S
H321 C327 0.930 . S
C322 H308 0.930 . S
C322 C320 1.395 . S
C322 C325 1.403 . S
C323 C320 1.403 . S
C323 C324 1.524 . S
C323 C327 1.400 . S
C324 H309 0.960 . S
C324 H310 0.960 . S
C324 H311 0.960 . S
C324 C323 1.524 . S
C325 C322 1.403 . S
C325 C326 1.392 . S
C325 C329 1.495 . S
C326 C325 1.392 . S
C326 C327 1.385 . S
C326 C328 1.478 . S
C327 H321 0.930 . S
C327 C323 1.400 . S
C327 C326 1.385 . S
C328 C326 1.478 . S
C328 C330 1.381 . S
C328 C334 1.383 . S
C329 C325 1.495 . S
C329 H335 0.959 . S
C329 H336 0.961 . S
C329 H337 0.960 . S
C330 C328 1.381 . S
C330 C331 1.394 . S
C330 H338 0.930 . S
C331 C330 1.394 . S
C331 C332 1.383 . S
C331 H339 0.929 . S
C332 C331 1.383 . S
C332 C333 1.377 . S
C333 H317 0.930 . S
C333 C332 1.377 . S
C333 C334 1.379 . S
C334 H318 0.931 . S
C334 C328 1.383 . S
C334 C333 1.379 . S
H335 C329 0.959 . S
H336 C329 0.961 . S
H337 C329 0.960 . S
H338 C330 0.930 . S
H339 C331 0.929 . S
H340 C348 0.929 . S
H341 C350 0.930 . S
H342 C352 0.930 . S
H343 C355 0.929 . S
H344 C358 0.930 . S
H345 C360 0.960 . S
H346 C360 0.960 1_455 S
H347 C360 0.960 . S
C348 H340 0.929 . S
C348 C349 1.398 . S
C348 C350 1.384 . S
C349 C348 1.398 . S
C349 C355 1.370 1_455 S
C350 H341 0.930 . S
C350 C348 1.384 . S
C350 C351 1.372 . S
C351 C350 1.372 . S
C351 C352 1.400 1_455 S
C351 C356 1.490 . S
C352 H342 0.930 . S
C352 C351 1.400 1_655 S
C352 C355 1.386 . S
H353 C369 0.930 . S
H354 C370 0.931 . S
C355 H343 0.929 . S
C355 C349 1.370 1_655 S
C355 C352 1.386 . S
C356 C351 1.490 . S
C356 C358 1.395 . S
C356 C359 1.403 1_455 S
H357 C363 0.930 . S
C358 H344 0.930 . S
C358 C356 1.395 . S
C358 C361 1.403 . S
C359 C356 1.403 1_655 S
C359 C360 1.524 . S
C359 C363 1.400 . S
C360 H345 0.960 . S
C360 H346 0.960 1_655 S
C360 H347 0.960 . S
C360 C359 1.524 . S
C361 C358 1.403 . S
C361 C362 1.392 . S
C361 C365 1.495 . S
C362 C361 1.392 . S
C362 C363 1.385 1_455 S
C362 C364 1.478 . S
C363 H357 0.930 . S
C363 C359 1.400 . S
C363 C362 1.385 1_655 S
C364 C362 1.478 . S
C364 C366 1.381 . S
C364 C370 1.383 1_455 S
C365 C361 1.495 . S
C365 H371 0.959 . S
C365 H372 0.961 1_455 S
C365 H373 0.960 . S
C366 C364 1.381 . S
C366 C367 1.394 . S
C366 H374 0.930 . S
C367 C366 1.394 . S
C367 C368 1.383 . S
C367 H375 0.929 . S
C368 C367 1.383 . S
C368 C369 1.377 1_455 S
C369 H353 0.930 . S
C369 C368 1.377 1_655 S
C369 C370 1.379 . S
C370 H354 0.931 . S
C370 C364 1.383 1_655 S
C370 C369 1.379 . S
H371 C365 0.959 . S
H372 C365 0.961 1_655 S
H373 C365 0.960 . S
H374 C366 0.930 . S
H375 C367 0.929 . S
H376 C384 0.929 . S
H377 C386 0.930 . S
H378 C388 0.930 . S
H379 C391 0.929 . S
H380 C394 0.930 . S
H381 C396 0.964 1_556 S
H382 C396 0.925 1_545 S
H383 C396 0.994 . S
C384 H376 0.929 . S
C384 C385 1.386 . S
C384 C386 1.384 . S
C385 C384 1.386 . S
C385 C391 1.381 1_545 S
C386 H377 0.930 . S
C386 C384 1.384 . S
C386 C387 1.406 . S
C387 C386 1.406 . S
C387 C388 1.366 1_545 S
C387 C392 1.490 . S
C388 H378 0.930 . S
C388 C387 1.366 1_565 S
C388 C391 1.386 . S
H389 C405 0.930 . S
H390 C406 0.931 . S
C391 H379 0.929 . S
C391 C385 1.381 1_565 S
C391 C388 1.386 . S
C392 C387 1.490 . S
C392 C394 1.397 . S
C392 C395 1.401 1_545 S
H393 C399 0.930 . S
C394 H380 0.930 . S
C394 C392 1.397 . S
C394 C397 1.403 . S
C395 C392 1.401 1_565 S
C395 C396 1.524 . S
C395 C399 1.401 1_554 S
C396 H381 0.964 1_554 S
C396 H382 0.925 1_565 S
C396 H383 0.994 . S
C396 C395 1.524 . S
C397 C394 1.403 . S
C397 C398 1.392 . S
C397 C401 1.495 . S
C398 C397 1.392 . S
C398 C399 1.385 1_544 S
C398 C400 1.477 1_544 S
C399 H393 0.930 . S
C399 C395 1.401 1_556 S
C399 C398 1.385 1_566 S
C400 C398 1.477 1_566 S
C400 C402 1.353 1_565 S
C400 C406 1.411 . S
C401 C397 1.495 . S
C401 H407 0.959 . S
C401 H408 0.961 1_545 S
C401 H409 0.960 . S
C402 C400 1.353 1_545 S
C402 C403 1.394 . S
C402 H410 0.930 . S
C403 C402 1.394 . S
C403 C404 1.383 1_545 S
C403 H411 0.929 . S
C404 C403 1.383 1_565 S
C404 C405 1.377 . S
C405 H389 0.930 . S
C405 C404 1.377 . S
C405 C406 1.379 . S
C406 H390 0.931 . S
C406 C400 1.411 . S
C406 C405 1.379 . S
H407 C401 0.959 . S
H408 C401 0.961 1_565 S
H409 C401 0.960 . S
H410 C402 0.930 . S
H411 C403 0.929 . S
H412 C420 0.929 . S
H413 C422 0.930 . S
H414 C424 0.930 . S
H415 C427 0.929 . S
H416 C430 0.930 . S
H417 C432 0.960 . S
H418 C432 0.960 . S
H419 C432 0.960 . S
C420 H412 0.929 . S
C420 C421 1.377 . S
C420 C422 1.384 . S
C421 C420 1.377 . S
C421 C427 1.390 . S
C422 H413 0.930 . S
C422 C420 1.384 . S
C422 C423 1.372 . S
C423 C422 1.372 . S
C423 C424 1.400 . S
C423 C428 1.490 . S
C424 H414 0.930 . S
C424 C423 1.400 . S
C424 C427 1.386 . S
H425 C441 0.930 . S
H426 C442 0.931 . S
C427 H415 0.929 . S
C427 C421 1.390 . S
C427 C424 1.386 . S
C428 C423 1.490 . S
C428 C430 1.395 . S
C428 C431 1.403 . S
H429 C435 0.930 . S
C430 H416 0.930 . S
C430 C428 1.395 . S
C430 C433 1.403 1_554 S
C431 C428 1.403 . S
C431 C432 1.524 . S
C431 C435 1.400 . S
C432 H417 0.960 . S
C432 H418 0.960 . S
C432 H419 0.960 . S
C432 C431 1.524 . S
C433 C430 1.403 1_556 S
C433 C434 1.392 . S
C433 C437 1.495 . S
C434 C433 1.392 . S
C434 C435 1.385 1_556 S
C434 C436 1.478 . S
C435 H429 0.930 . S
C435 C431 1.400 . S
C435 C434 1.385 1_554 S
C436 C434 1.478 . S
C436 C438 1.381 . S
C436 C442 1.383 . S
C437 C433 1.495 . S
C437 H443 0.959 . S
C437 H444 0.961 . S
C437 H445 0.960 . S
C438 C436 1.381 . S
C438 C439 1.394 . S
C438 H446 0.930 . S
C439 C438 1.394 . S
C439 C440 1.383 . S
C439 H447 0.929 . S
C440 C439 1.383 . S
C440 C441 1.377 . S
C441 H425 0.930 . S
C441 C440 1.377 . S
C441 C442 1.379 . S
C442 H426 0.931 . S
C442 C436 1.383 . S
C442 C441 1.379 . S
H443 C437 0.959 . S
H444 C437 0.961 . S
H445 C437 0.960 . S
H446 C438 0.930 . S
H447 C439 0.929 . S
H448 C456 0.929 . S
H449 C458 0.930 . S
H450 C460 0.930 . S
H451 C463 0.929 . S
H452 C466 0.930 . S
H453 C468 0.960 . S
H454 C468 0.960 . S
H455 C468 0.960 . S
C456 H448 0.929 . S
C456 C457 1.377 . S
C456 C458 1.384 . S
C457 C456 1.377 . S
C457 C463 1.390 . S
C458 H449 0.930 . S
C458 C456 1.384 . S
C458 C459 1.372 . S
C459 C458 1.372 . S
C459 C460 1.400 . S
C459 C464 1.490 . S
C460 H450 0.930 . S
C460 C459 1.400 . S
C460 C463 1.386 . S
H461 C477 0.930 . S
H462 C478 0.931 . S
C463 H451 0.929 . S
C463 C457 1.390 . S
C463 C460 1.386 . S
C464 C459 1.490 . S
C464 C466 1.395 . S
C464 C467 1.403 . S
H465 C471 0.930 . S
C466 H452 0.930 . S
C466 C464 1.395 . S
C466 C469 1.399 1_554 S
C467 C464 1.403 . S
C467 C468 1.524 . S
C467 C471 1.400 . S
C468 H453 0.960 . S
C468 H454 0.960 . S
C468 H455 0.960 . S
C468 C467 1.524 . S
C469 C466 1.399 1_556 S
C469 C470 1.393 . S
C469 C473 1.499 . S
C470 C469 1.393 . S
C470 C471 1.385 1_556 S
C470 C472 1.478 . S
C471 H465 0.930 . S
C471 C467 1.400 . S
C471 C470 1.385 1_554 S
C472 C470 1.478 . S
C472 C474 1.381 . S
C472 C478 1.383 . S
C473 C469 1.499 . S
C473 H479 0.959 . S
C473 H480 0.961 . S
C473 H481 0.960 . S
C474 C472 1.381 . S
C474 C475 1.394 . S
C474 H482 0.930 . S
C475 C474 1.394 . S
C475 C476 1.383 . S
C475 H483 0.929 . S
C476 C475 1.383 . S
C476 C477 1.377 . S
C477 H461 0.930 . S
C477 C476 1.377 . S
C477 C478 1.379 . S
C478 H462 0.931 . S
C478 C472 1.383 . S
C478 C477 1.379 . S
H479 C473 0.959 . S
H480 C473 0.961 . S
H481 C473 0.960 . S
H482 C474 0.930 . S
H483 C475 0.929 . S
H484 C492 0.929 . S
H485 C494 0.930 . S
H486 C496 0.930 . S
H487 C499 0.929 . S
H488 C502 0.930 . S
H489 C504 0.960 1_556 S
H490 C504 0.960 . S
H491 C504 0.960 . S
C492 H484 0.929 . S
C492 C493 1.381 1_455 S
C492 C494 1.384 . S
C493 C492 1.381 1_655 S
C493 C499 1.386 . S
C494 H485 0.930 . S
C494 C492 1.384 . S
C494 C495 1.398 . S
C495 C494 1.398 . S
C495 C496 1.373 1_455 S
C495 C500 1.490 . S
C496 H486 0.930 . S
C496 C495 1.373 1_655 S
C496 C499 1.386 . S
H497 C513 0.930 . S
H498 C514 0.931 . S
C499 H487 0.929 . S
C499 C493 1.386 . S
C499 C496 1.386 . S
C500 C495 1.490 . S
C500 C502 1.419 . S
C500 C503 1.381 1_455 S
H501 C507 0.930 . S
C502 H488 0.930 . S
C502 C500 1.419 . S
C502 C505 1.403 . S
C503 C500 1.381 1_655 S
C503 C504 1.524 . S
C503 C507 1.400 1_554 S
C504 H489 0.960 1_554 S
C504 H490 0.960 . S
C504 H491 0.960 . S
C504 C503 1.524 . S
C505 C502 1.403 . S
C505 C506 1.392 . S
C505 C509 1.495 . S
C506 C505 1.392 . S
C506 C507 1.385 1_454 S
C506 C508 1.478 1_554 S
C507 H501 0.930 . S
C507 C503 1.400 1_556 S
C507 C506 1.385 1_656 S
C508 C506 1.478 1_556 S
C508 C510 1.381 . S
C508 C514 1.383 1_455 S
C509 C505 1.495 . S
C509 H515 0.959 . S
C509 H516 0.961 . S
C509 H517 0.960 . S
C510 C508 1.381 . S
C510 C511 1.394 . S
C510 H518 0.930 . S
C511 C510 1.394 . S
C511 C512 1.345 1_455 S
C511 H519 0.929 . S
C512 C511 1.345 1_655 S
C512 C513 1.414 . S
C513 H497 0.930 . S
C513 C512 1.414 . S
C513 C514 1.379 . S
C514 H498 0.931 . S
C514 C508 1.383 1_655 S
C514 C513 1.379 . S
H515 C509 0.959 . S
H516 C509 0.961 . S
H517 C509 0.960 . S
H518 C510 0.930 . S
H519 C511 0.929 . S
H520 C528 0.929 . S
H521 C530 0.930 . S
H522 C532 0.930 . S
H523 C535 0.929 . S
H524 C538 0.930 . S
H525 C540 0.960 . S
H526 C540 0.960 . S
H527 C540 0.960 . S
C528 H520 0.929 . S
C528 C529 1.377 1_655 S
C528 C530 1.384 . S
C529 C528 1.377 1_455 S
C529 C535 1.390 . S
C530 H521 0.930 . S
C530 C528 1.384 . S
C530 C531 1.372 . S
C531 C530 1.372 . S
C531 C532 1.400 1_655 S
C531 C536 1.490 . S
C532 H522 0.930 . S
C532 C531 1.400 1_455 S
C532 C535 1.386 . S
H533 C549 0.930 . S
H534 C550 0.931 . S
C535 H523 0.929 . S
C535 C529 1.390 . S
C535 C532 1.386 . S
C536 C531 1.490 . S
C536 C538 1.395 . S
C536 C539 1.400 1_655 S
H537 C543 0.930 1_455 S
C538 H524 0.930 . S
C538 C536 1.395 . S
C538 C541 1.403 . S
C539 C536 1.400 1_455 S
C539 C540 1.527 . S
C539 C543 1.399 1_455 S
C540 H525 0.960 . S
C540 H526 0.960 . S
C540 H527 0.960 . S
C540 C539 1.527 . S
C541 C538 1.403 . S
C541 C542 1.392 . S
C541 C545 1.495 . S
C542 C541 1.392 . S
C542 C543 1.385 . S
C542 C544 1.478 . S
C543 H537 0.930 1_655 S
C543 C539 1.399 1_655 S
C543 C542 1.385 . S
C544 C542 1.478 . S
C544 C546 1.381 . S
C544 C550 1.383 . S
C545 C541 1.495 . S
C545 H551 0.959 . S
C545 H552 0.961 . S
C545 H553 0.960 . S
C546 C544 1.381 . S
C546 C547 1.394 . S
C546 H554 0.930 . S
C547 C546 1.394 . S
C547 C548 1.383 . S
C547 H555 0.929 . S
C548 C547 1.383 . S
C548 C549 1.377 . S
C549 H533 0.930 . S
C549 C548 1.377 . S
C549 C550 1.379 . S
C550 H534 0.931 . S
C550 C544 1.383 . S
C550 C549 1.379 . S
H551 C545 0.959 . S
H552 C545 0.961 . S
H553 C545 0.960 . S
H554 C546 0.930 . S
H555 C547 0.929 . S
H556 C564 0.929 . S
H557 C566 0.930 . S
H558 C568 0.930 . S
H559 C571 0.929 . S
H560 C574 0.930 . S
H561 C576 0.960 . S
H562 C576 0.937 1_545 S
H563 C576 0.975 . S
C564 H556 0.929 . S
C564 C565 1.377 . S
C564 C566 1.384 . S
C565 C564 1.377 . S
C565 C571 1.390 1_545 S
C566 H557 0.930 . S
C566 C564 1.384 . S
C566 C567 1.372 1_545 S
C567 C566 1.372 1_565 S
C567 C568 1.400 . S
C567 C572 1.490 . S
C568 H558 0.930 . S
C568 C567 1.400 . S
C568 C571 1.386 . S
H569 C585 0.930 . S
H570 C586 0.931 . S
C571 H559 0.929 . S
C571 C565 1.390 1_565 S
C571 C568 1.386 . S
C572 C567 1.490 . S
C572 C574 1.395 . S
C572 C575 1.403 . S
H573 C579 0.930 . S
C574 H560 0.930 . S
C574 C572 1.395 . S
C574 C577 1.403 . S
C575 C572 1.403 . S
C575 C576 1.532 . S
C575 C579 1.400 . S
C576 H561 0.960 . S
C576 H562 0.937 1_565 S
C576 H563 0.975 . S
C576 C575 1.532 . S
C577 C574 1.403 . S
C577 C578 1.392 . S
C577 C581 1.495 . S
C578 C577 1.392 . S
C578 C579 1.385 . S
C578 C580 1.478 . S
C579 H573 0.930 . S
C579 C575 1.400 . S
C579 C578 1.385 . S
C580 C578 1.478 . S
C580 C582 1.381 . S
C580 C586 1.383 . S
C581 C577 1.495 . S
C581 H587 0.959 . S
C581 H588 0.961 . S
C581 H589 0.960 . S
C582 C580 1.381 . S
C582 C583 1.394 . S
C582 H590 0.930 . S
C583 C582 1.394 . S
C583 C584 1.383 . S
C583 H591 0.929 . S
C584 C583 1.383 . S
C584 C585 1.377 . S
C585 H569 0.930 . S
C585 C584 1.377 . S
C585 C586 1.379 . S
C586 H570 0.931 . S
C586 C580 1.383 . S
C586 C585 1.379 . S
H587 C581 0.959 . S
H588 C581 0.961 . S
H589 C581 0.960 . S
H590 C582 0.930 . S
H591 C583 0.929 . S
H592 C600 0.929 . S
H593 C602 0.930 . S
H594 C604 0.930 . S
H595 C607 0.929 . S
H596 C610 0.930 . S
H597 C612 0.960 . S
H598 C612 0.960 . S
H599 C612 0.960 . S
C600 H592 0.929 . S
C600 C601 1.377 . S
C600 C602 1.384 . S
C601 C600 1.377 . S
C601 C607 1.390 . S
C602 H593 0.930 . S
C602 C600 1.384 . S
C602 C603 1.372 . S
C603 C602 1.372 . S
C603 C604 1.400 . S
C603 C608 1.490 . S
C604 H594 0.930 . S
C604 C603 1.400 . S
C604 C607 1.386 . S
H605 C621 0.930 . S
H606 C622 0.931 . S
C607 H595 0.929 . S
C607 C601 1.390 . S
C607 C604 1.386 . S
C608 C603 1.490 . S
C608 C610 1.395 . S
C608 C611 1.403 . S
H609 C615 0.930 . S
C610 H596 0.930 . S
C610 C608 1.395 . S
C610 C613 1.403 . S
C611 C608 1.403 . S
C611 C612 1.524 . S
C611 C615 1.400 . S
C612 H597 0.960 . S
C612 H598 0.960 . S
C612 H599 0.960 . S
C612 C611 1.524 . S
C613 C610 1.403 . S
C613 C614 1.392 . S
C613 C617 1.495 . S
C614 C613 1.392 . S
C614 C615 1.385 . S
C614 C616 1.478 . S
C615 H609 0.930 . S
C615 C611 1.400 . S
C615 C614 1.385 . S
C616 C614 1.478 . S
C616 C618 1.381 . S
C616 C622 1.383 . S
C617 C613 1.495 . S
C617 H623 0.959 . S
C617 H624 0.961 . S
C617 H625 0.960 . S
C618 C616 1.381 . S
C618 C619 1.394 . S
C618 H626 0.930 . S
C619 C618 1.394 . S
C619 C620 1.383 . S
C619 H627 0.929 . S
C620 C619 1.383 . S
C620 C621 1.377 . S
C621 H605 0.930 . S
C621 C620 1.377 . S
C621 C622 1.379 . S
C622 H606 0.931 . S
C622 C616 1.383 . S
C622 C621 1.379 . S
H623 C617 0.959 . S
H624 C617 0.961 . S
H625 C617 0.960 . S
H626 C618 0.930 . S
H627 C619 0.929 . S
H628 C636 0.929 . S
H629 C638 0.930 . S
H630 C640 0.930 . S
H631 C643 0.929 . S
H632 C646 0.930 . S
H633 C648 0.960 . S
H634 C648 0.960 . S
H635 C648 0.960 . S
C636 H628 0.929 . S
C636 C637 1.377 . S
C636 C638 1.384 . S
C637 C636 1.377 . S
C637 C643 1.390 . S
C638 H629 0.930 . S
C638 C636 1.384 . S
C638 C639 1.372 . S
C639 C638 1.372 . S
C639 C640 1.400 . S
C639 C644 1.490 . S
C640 H630 0.930 . S
C640 C639 1.400 . S
C640 C643 1.386 . S
H641 C657 0.930 . S
H642 C658 0.931 . S
C643 H631 0.929 . S
C643 C637 1.390 . S
C643 C640 1.386 . S
C644 C639 1.490 . S
C644 C646 1.395 . S
C644 C647 1.403 . S
H645 C651 0.930 . S
C646 H632 0.930 . S
C646 C644 1.395 . S
C646 C649 1.403 . S
C647 C644 1.403 . S
C647 C648 1.524 . S
C647 C651 1.400 . S
C648 H633 0.960 . S
C648 H634 0.960 . S
C648 H635 0.960 . S
C648 C647 1.524 . S
C649 C646 1.403 . S
C649 C650 1.392 . S
C649 C653 1.495 . S
C650 C649 1.392 . S
C650 C651 1.385 . S
C650 C652 1.478 . S
C651 H645 0.930 . S
C651 C647 1.400 . S
C651 C650 1.385 . S
C652 C650 1.478 . S
C652 C654 1.381 . S
C652 C658 1.383 . S
C653 C649 1.495 . S
C653 H659 0.959 . S
C653 H660 0.961 . S
C653 H661 0.960 . S
C654 C652 1.381 . S
C654 C655 1.394 . S
C654 H662 0.930 . S
C655 C654 1.394 . S
C655 C656 1.383 . S
C655 H663 0.929 . S
C656 C655 1.383 . S
C656 C657 1.377 . S
C657 H641 0.930 . S
C657 C656 1.377 . S
C657 C658 1.379 . S
C658 H642 0.931 . S
C658 C652 1.383 . S
C658 C657 1.379 . S
H659 C653 0.959 . S
H660 C653 0.961 . S
H661 C653 0.960 . S
H662 C654 0.930 . S
H663 C655 0.929 . S
H664 C672 0.929 . S
H665 C674 0.930 . S
H666 C676 0.930 . S
H667 C679 0.929 . S
H668 C682 0.930 1_655 S
H669 C684 0.960 . S
H670 C684 0.960 . S
H671 C684 0.960 . S
C672 H664 0.929 . S
C672 C673 1.377 . S
C672 C674 1.384 . S
C673 C672 1.377 . S
C673 C679 1.390 1_655 S
C674 H665 0.930 . S
C674 C672 1.384 . S
C674 C675 1.372 1_655 S
C675 C674 1.372 1_455 S
C675 C676 1.400 . S
C675 C680 1.490 . S
C676 H666 0.930 . S
C676 C675 1.400 . S
C676 C679 1.386 . S
H677 C693 0.930 . S
H678 C694 0.931 . S
C679 H667 0.929 . S
C679 C673 1.390 1_455 S
C679 C676 1.386 . S
C680 C675 1.490 . S
C680 C682 1.395 . S
C680 C683 1.403 . S
H681 C687 0.930 . S
C682 H668 0.930 1_455 S
C682 C680 1.395 . S
C682 C685 1.403 . S
C683 C680 1.403 . S
C683 C684 1.524 . S
C683 C687 1.400 . S
C684 H669 0.960 . S
C684 H670 0.960 . S
C684 H671 0.960 . S
C684 C683 1.524 . S
C685 C682 1.403 . S
C685 C686 1.392 . S
C685 C689 1.495 1_455 S
C686 C685 1.392 . S
C686 C687 1.385 . S
C686 C688 1.478 . S
C687 H681 0.930 . S
C687 C683 1.400 . S
C687 C686 1.385 . S
C688 C686 1.478 . S
C688 C690 1.381 1_554 S
C688 C694 1.383 . S
C689 C685 1.495 1_655 S
C689 H695 0.959 . S
C689 H696 0.961 1_655 S
C689 H697 0.960 . S
C690 C688 1.381 1_556 S
C690 C691 1.394 . S
C690 H698 0.930 1_456 S
C691 C690 1.394 . S
C691 C692 1.383 . S
C691 H699 0.929 . S
C692 C691 1.383 . S
C692 C693 1.377 . S
C693 H677 0.930 . S
C693 C692 1.377 . S
C693 C694 1.379 1_556 S
C694 H678 0.931 . S
C694 C688 1.383 . S
C694 C693 1.379 1_554 S
H695 C689 0.959 . S
H696 C689 0.961 1_455 S
H697 C689 0.960 . S
H698 C690 0.930 1_654 S
H699 C691 0.929 . S
H700 C708 0.929 . S
H701 C710 0.930 . S
H702 C712 0.930 . S
H703 C715 0.929 . S
H704 C718 0.930 . S
H705 C720 0.960 . S
H706 C720 0.960 . S
H707 C720 0.960 . S
C708 H700 0.929 . S
C708 C709 1.377 . S
C708 C710 1.384 . S
C709 C708 1.377 . S
C709 C715 1.390 1_565 S
C710 H701 0.930 . S
C710 C708 1.384 . S
C710 C711 1.372 1_565 S
C711 C710 1.372 1_545 S
C711 C712 1.400 . S
C711 C716 1.490 . S
C712 H702 0.930 . S
C712 C711 1.400 . S
C712 C715 1.386 . S
H713 C729 0.930 . S
H714 C730 0.931 . S
C715 H703 0.929 . S
C715 C709 1.390 1_545 S
C715 C712 1.386 . S
C716 C711 1.490 . S
C716 C718 1.395 1_545 S
C716 C719 1.403 . S
H717 C723 0.930 . S
C718 H704 0.930 . S
C718 C716 1.395 1_565 S
C718 C721 1.403 1_565 S
C719 C716 1.403 . S
C719 C720 1.524 . S
C719 C723 1.400 . S
C720 H705 0.960 . S
C720 H706 0.960 . S
C720 H707 0.960 . S
C720 C719 1.524 . S
C721 C718 1.403 1_545 S
C721 C722 1.392 . S
C721 C725 1.495 1_545 S
C722 C721 1.392 . S
C722 C723 1.385 . S
C722 C724 1.478 . S
C723 H717 0.930 . S
C723 C719 1.400 . S
C723 C722 1.385 . S
C724 C722 1.478 . S
C724 C726 1.381 1_554 S
C724 C730 1.383 . S
C725 C721 1.495 1_565 S
C725 H731 0.959 . S
C725 H732 0.961 . S
C725 H733 0.960 . S
C726 C724 1.381 1_556 S
C726 C727 1.394 . S
C726 H734 0.930 1_545 S
C727 C726 1.394 . S
C727 C728 1.383 . S
C727 H735 0.929 . S
C728 C727 1.383 . S
C728 C729 1.377 . S
C729 H713 0.930 . S
C729 C728 1.377 . S
C729 C730 1.379 1_556 S
C730 H714 0.931 . S
C730 C724 1.383 . S
C730 C729 1.379 1_554 S
H731 C725 0.959 . S
H732 C725 0.961 . S
H733 C725 0.960 . S
H734 C726 0.930 1_565 S
H735 C727 0.929 . S
H736 C744 0.929 . S
H737 C746 0.930 . S
H738 C748 0.930 . S
H739 C751 0.929 . S
H740 C754 0.930 . S
H741 C756 0.960 . S
H742 C756 0.960 . S
H743 C756 0.960 . S
C744 H736 0.929 . S
C744 C745 1.377 . S
C744 C746 1.384 . S
C745 C744 1.377 . S
C745 C751 1.390 . S
C746 H737 0.930 . S
C746 C744 1.384 . S
C746 C747 1.372 . S
C747 C746 1.372 . S
C747 C748 1.400 . S
C747 C752 1.490 . S
C748 H738 0.930 . S
C748 C747 1.400 . S
C748 C751 1.386 . S
H749 C765 0.930 . S
H750 C766 0.931 . S
C751 H739 0.929 . S
C751 C745 1.390 . S
C751 C748 1.386 . S
C752 C747 1.490 . S
C752 C754 1.395 . S
C752 C755 1.403 . S
H753 C759 0.930 . S
C754 H740 0.930 . S
C754 C752 1.395 . S
C754 C757 1.403 . S
C755 C752 1.403 . S
C755 C756 1.524 . S
C755 C759 1.400 . S
C756 H741 0.960 . S
C756 H742 0.960 . S
C756 H743 0.960 . S
C756 C755 1.524 . S
C757 C754 1.403 . S
C757 C758 1.392 . S
C757 C761 1.495 1_554 S
C758 C757 1.392 . S
C758 C759 1.385 . S
C758 C760 1.478 . S
C759 H753 0.930 . S
C759 C755 1.400 . S
C759 C758 1.385 . S
C760 C758 1.478 . S
C760 C762 1.381 . S
C760 C766 1.383 1_554 S
C761 C757 1.495 1_556 S
C761 H767 0.959 . S
C761 H768 0.961 . S
C761 H769 0.960 . S
C762 C760 1.381 . S
C762 C763 1.394 1_554 S
C762 H770 0.930 . S
C763 C762 1.394 1_556 S
C763 C764 1.383 . S
C763 H771 0.929 . S
C764 C763 1.383 . S
C764 C765 1.377 . S
C765 H749 0.930 . S
C765 C764 1.377 . S
C765 C766 1.379 . S
C766 H750 0.931 . S
C766 C760 1.383 1_556 S
C766 C765 1.379 . S
H767 C761 0.959 . S
H768 C761 0.961 . S
H769 C761 0.960 . S
H770 C762 0.930 . S
H771 C763 0.929 . S
H772 C780 0.929 . S
H773 C782 0.930 . S
H774 C784 0.930 . S
H775 C787 0.929 . S
H776 C790 0.930 . S
H777 C792 0.960 . S
H778 C792 0.960 . S
H779 C792 0.960 . S
C780 H772 0.929 . S
C780 C781 1.377 . S
C780 C782 1.384 . S
C781 C780 1.377 . S
C781 C787 1.390 . S
C782 H773 0.930 . S
C782 C780 1.384 . S
C782 C783 1.372 . S
C783 C782 1.372 . S
C783 C784 1.400 . S
C783 C788 1.490 . S
C784 H774 0.930 . S
C784 C783 1.400 . S
C784 C787 1.386 . S
H785 C801 0.930 . S
H786 C802 0.931 . S
C787 H775 0.929 . S
C787 C781 1.390 . S
C787 C784 1.386 . S
C788 C783 1.490 . S
C788 C790 1.395 . S
C788 C791 1.403 . S
H789 C795 0.930 . S
C790 H776 0.930 . S
C790 C788 1.395 . S
C790 C793 1.403 . S
C791 C788 1.403 . S
C791 C792 1.524 . S
C791 C795 1.400 . S
C792 H777 0.960 . S
C792 H778 0.960 . S
C792 H779 0.960 . S
C792 C791 1.524 . S
C793 C790 1.403 . S
C793 C794 1.392 . S
C793 C797 1.499 . S
C794 C793 1.392 . S
C794 C795 1.385 . S
C794 C796 1.478 . S
C795 H789 0.930 . S
C795 C791 1.400 . S
C795 C794 1.385 . S
C796 C794 1.478 . S
C796 C798 1.381 . S
C796 C802 1.383 1_554 S
C797 C793 1.499 . S
C797 H803 0.960 . S
C797 H804 0.956 1_554 S
C797 H805 0.960 . S
C798 C796 1.381 . S
C798 C799 1.394 1_554 S
C798 H806 0.930 . S
C799 C798 1.394 1_556 S
C799 C800 1.383 . S
C799 H807 0.929 . S
C800 C799 1.383 . S
C800 C801 1.377 . S
C801 H785 0.930 . S
C801 C800 1.377 . S
C801 C802 1.379 . S
C802 H786 0.931 . S
C802 C796 1.383 1_556 S
C802 C801 1.379 . S
H803 C797 0.960 . S
H804 C797 0.956 1_556 S
H805 C797 0.960 . S
H806 C798 0.930 . S
H807 C799 0.929 . S
H808 C816 0.929 . S
H809 C818 0.930 . S
H810 C820 0.930 . S
H811 C823 0.929 . S
H812 C826 0.930 . S
H813 C828 0.960 . S
H814 C828 0.960 . S
H815 C828 0.960 . S
C816 H808 0.929 . S
C816 C817 1.377 1_655 S
C816 C818 1.384 . S
C817 C816 1.377 1_455 S
C817 C823 1.390 . S
C818 H809 0.930 . S
C818 C816 1.384 . S
C818 C819 1.372 1_655 S
C819 C818 1.372 1_455 S
C819 C820 1.400 . S
C819 C824 1.490 . S
C820 H810 0.930 . S
C820 C819 1.400 . S
C820 C823 1.386 . S
H821 C837 0.930 . S
H822 C838 0.931 . S
C823 H811 0.929 . S
C823 C817 1.390 . S
C823 C820 1.386 . S
C824 C819 1.490 . S
C824 C826 1.395 1_455 S
C824 C827 1.403 . S
H825 C831 0.930 . S
C826 H812 0.930 . S
C826 C824 1.395 1_655 S
C826 C829 1.403 . S
C827 C824 1.403 . S
C827 C828 1.524 . S
C827 C831 1.400 . S
C828 H813 0.960 . S
C828 H814 0.960 . S
C828 H815 0.960 . S
C828 C827 1.524 . S
C829 C826 1.403 . S
C829 C830 1.392 1_655 S
C829 C833 1.495 . S
C830 C829 1.392 1_455 S
C830 C831 1.385 . S
C830 C832 1.478 . S
C831 H825 0.930 . S
C831 C827 1.400 . S
C831 C830 1.385 . S
C832 C830 1.478 . S
C832 C834 1.381 1_455 S
C832 C838 1.383 . S
C833 C829 1.495 . S
C833 H839 0.959 . S
C833 H840 0.961 . S
C833 H841 0.960 . S
C834 C832 1.381 1_655 S
C834 C835 1.394 . S
C834 H842 0.930 . S
C835 C834 1.394 . S
C835 C836 1.383 1_655 S
C835 H843 0.929 . S
C836 C835 1.383 1_455 S
C836 C837 1.377 . S
C837 H821 0.930 . S
C837 C836 1.377 . S
C837 C838 1.379 . S
C838 H822 0.931 . S
C838 C832 1.383 . S
C838 C837 1.379 . S
H839 C833 0.959 . S
H840 C833 0.961 . S
H841 C833 0.960 . S
H842 C834 0.930 . S
H843 C835 0.929 . S
H844 C852 0.929 . S
H845 C854 0.930 . S
H846 C856 0.930 . S
H847 C859 0.929 . S
H848 C862 0.930 . S
H849 C864 0.964 . S
H850 C864 0.934 1_545 S
H851 C864 0.988 . S
C852 H844 0.929 . S
C852 C853 1.377 . S
C852 C854 1.384 . S
C853 C852 1.377 . S
C853 C859 1.390 1_545 S
C854 H845 0.930 . S
C854 C852 1.384 . S
C854 C855 1.372 . S
C855 C854 1.372 . S
C855 C856 1.400 1_545 S
C855 C860 1.490 . S
C856 H846 0.930 . S
C856 C855 1.400 1_565 S
C856 C859 1.386 . S
H857 C873 0.930 . S
H858 C874 0.931 . S
C859 H847 0.929 . S
C859 C853 1.390 1_565 S
C859 C856 1.386 . S
C860 C855 1.490 . S
C860 C862 1.395 . S
C860 C863 1.403 . S
H861 C867 0.930 . S
C862 H848 0.930 . S
C862 C860 1.395 . S
C862 C865 1.403 . S
C863 C860 1.403 . S
C863 C864 1.519 1_545 S
C863 C867 1.400 . S
C864 H849 0.964 . S
C864 H850 0.934 1_565 S
C864 H851 0.988 . S
C864 C863 1.519 1_565 S
C865 C862 1.403 . S
C865 C866 1.392 . S
C865 C869 1.495 . S
C866 C865 1.392 . S
C866 C867 1.385 . S
C866 C868 1.478 . S
C867 H861 0.930 . S
C867 C863 1.400 . S
C867 C866 1.385 . S
C868 C866 1.478 . S
C868 C870 1.381 . S
C868 C874 1.383 1_545 S
C869 C865 1.495 . S
C869 H875 0.959 1_556 S
C869 H876 0.961 . S
C869 H877 0.960 . S
C870 C868 1.381 . S
C870 C871 1.394 . S
C870 H878 0.930 . S
C871 C870 1.394 . S
C871 C872 1.383 . S
C871 H879 0.929 . S
C872 C871 1.383 . S
C872 C873 1.377 1_545 S
C873 H857 0.930 . S
C873 C872 1.377 1_565 S
C873 C874 1.379 . S
C874 H858 0.931 . S
C874 C868 1.383 1_565 S
C874 C873 1.379 . S
H875 C869 0.959 1_554 S
H876 C869 0.961 . S
H877 C869 0.960 . S
H878 C870 0.930 . S
H879 C871 0.929 . S
H880 C888 0.929 . S
H881 C890 0.930 . S
H882 C892 0.930 . S
H883 C895 0.929 . S
H884 C898 0.930 . S
H885 C900 0.960 . S
H886 C900 0.960 . S
H887 C900 0.960 . S
C888 H880 0.929 . S
C888 C889 1.377 . S
C888 C890 1.384 . S
C889 C888 1.377 . S
C889 C895 1.390 . S
C890 H881 0.930 . S
C890 C888 1.384 . S
C890 C891 1.372 . S
C891 C890 1.372 . S
C891 C892 1.400 . S
C891 C896 1.490 . S
C892 H882 0.930 . S
C892 C891 1.400 . S
C892 C895 1.386 . S
H893 C909 0.930 . S
H894 C910 0.931 . S
C895 H883 0.929 . S
C895 C889 1.390 . S
C895 C892 1.386 . S
C896 C891 1.490 . S
C896 C898 1.395 . S
C896 C899 1.403 . S
H897 C903 0.930 . S
C898 H884 0.930 . S
C898 C896 1.395 . S
C898 C901 1.403 . S
C899 C896 1.403 . S
C899 C900 1.524 . S
C899 C903 1.400 . S
C900 H885 0.960 . S
C900 H886 0.960 . S
C900 H887 0.960 . S
C900 C899 1.524 . S
C901 C898 1.403 . S
C901 C902 1.392 . S
C901 C905 1.495 . S
C902 C901 1.392 . S
C902 C903 1.385 . S
C902 C904 1.478 . S
C903 H897 0.930 . S
C903 C899 1.400 . S
C903 C902 1.385 . S
C904 C902 1.478 . S
C904 C906 1.381 . S
C904 C910 1.383 . S
C905 C901 1.495 . S
C905 H911 0.959 . S
C905 H912 0.961 . S
C905 H913 0.960 . S
C906 C904 1.381 . S
C906 C907 1.394 . S
C906 H914 0.930 . S
C907 C906 1.394 . S
C907 C908 1.383 . S
C907 H915 0.929 . S
C908 C907 1.383 . S
C908 C909 1.377 . S
C909 H893 0.930 . S
C909 C908 1.377 . S
C909 C910 1.379 . S
C910 H894 0.931 . S
C910 C904 1.383 . S
C910 C909 1.379 . S
H911 C905 0.959 . S
H912 C905 0.961 . S
H913 C905 0.960 . S
H914 C906 0.930 . S
H915 C907 0.929 . S
H916 C924 0.929 1_554 S
H917 C926 0.930 . S
H918 C928 0.930 . S
H919 C931 0.929 . S
H920 C934 0.930 . S
H921 C936 0.960 . S
H922 C936 0.960 . S
H923 C936 0.960 . S
C924 H916 0.929 1_556 S
C924 C925 1.377 . S
C924 C926 1.384 . S
C925 C924 1.377 . S
C925 C931 1.390 . S
C926 H917 0.930 . S
C926 C924 1.384 . S
C926 C927 1.372 . S
C927 C926 1.372 . S
C927 C928 1.400 . S
C927 C932 1.490 . S
C928 H918 0.930 . S
C928 C927 1.400 . S
C928 C931 1.386 . S
H929 C945 0.930 . S
H930 C946 0.931 . S
C931 H919 0.929 . S
C931 C925 1.390 . S
C931 C928 1.386 . S
C932 C927 1.490 . S
C932 C934 1.395 . S
C932 C935 1.403 . S
H933 C939 0.930 . S
C934 H920 0.930 . S
C934 C932 1.395 . S
C934 C937 1.403 . S
C935 C932 1.403 . S
C935 C936 1.524 . S
C935 C939 1.400 . S
C936 H921 0.960 . S
C936 H922 0.960 . S
C936 H923 0.960 . S
C936 C935 1.524 . S
C937 C934 1.403 . S
C937 C938 1.392 . S
C937 C941 1.495 . S
C938 C937 1.392 . S
C938 C939 1.385 . S
C938 C940 1.478 . S
C939 H933 0.930 . S
C939 C935 1.400 . S
C939 C938 1.385 . S
C940 C938 1.478 . S
C940 C942 1.381 . S
C940 C946 1.383 . S
C941 C937 1.495 . S
C941 H947 0.959 . S
C941 H948 0.961 . S
C941 H949 0.960 . S
C942 C940 1.381 . S
C942 C943 1.394 . S
C942 H950 0.930 . S
C943 C942 1.394 . S
C943 C944 1.383 . S
C943 H951 0.929 . S
C944 C943 1.383 . S
C944 C945 1.377 . S
C945 H929 0.930 . S
C945 C944 1.377 . S
C945 C946 1.379 . S
C946 H930 0.931 . S
C946 C940 1.383 . S
C946 C945 1.379 . S
H947 C941 0.959 . S
H948 C941 0.961 . S
H949 C941 0.960 . S
H950 C942 0.930 . S
H951 C943 0.929 . S
H952 C960 0.929 . S
H953 C962 0.930 . S
H954 C964 0.930 . S
H955 C967 0.929 . S
H956 C970 0.930 . S
H957 C972 0.960 . S
H958 C972 0.960 . S
H959 C972 0.960 . S
C960 H952 0.929 . S
C960 C961 1.377 1_455 S
C960 C962 1.384 . S
C961 C960 1.377 1_655 S
C961 C967 1.390 . S
C962 H953 0.930 . S
C962 C960 1.384 . S
C962 C963 1.372 1_455 S
C963 C962 1.372 1_655 S
C963 C964 1.400 . S
C963 C968 1.490 . S
C964 H954 0.930 . S
C964 C963 1.400 . S
C964 C967 1.386 . S
H965 C981 0.930 . S
H966 C982 0.931 . S
C967 H955 0.929 . S
C967 C961 1.390 . S
C967 C964 1.386 . S
C968 C963 1.490 . S
C968 C970 1.395 1_655 S
C968 C971 1.403 . S
H969 C975 0.930 . S
C970 H956 0.930 . S
C970 C968 1.395 1_455 S
C970 C973 1.403 . S
C971 C968 1.403 . S
C971 C972 1.524 . S
C971 C975 1.400 . S
C972 H957 0.960 . S
C972 H958 0.960 . S
C972 H959 0.960 . S
C972 C971 1.524 . S
C973 C970 1.403 . S
C973 C974 1.392 1_455 S
C973 C977 1.495 . S
C974 C973 1.392 1_655 S
C974 C975 1.385 . S
C974 C976 1.478 . S
C975 H969 0.930 . S
C975 C971 1.400 . S
C975 C974 1.385 . S
C976 C974 1.478 . S
C976 C978 1.381 1_655 S
C976 C982 1.383 . S
C977 C973 1.495 . S
C977 H983 0.959 . S
C977 H984 0.961 . S
C977 H985 0.960 . S
C978 C976 1.381 1_455 S
C978 C979 1.394 . S
C978 H986 0.930 . S
C979 C978 1.394 . S
C979 C980 1.383 1_455 S
C979 H987 0.929 . S
C980 C979 1.383 1_655 S
C980 C981 1.377 . S
C981 H965 0.930 . S
C981 C980 1.377 . S
C981 C982 1.379 . S
C982 H966 0.931 . S
C982 C976 1.383 . S
C982 C981 1.379 . S
H983 C977 0.959 . S
H984 C977 0.961 . S
H985 C977 0.960 . S
H986 C978 0.930 . S
H987 C979 0.929 . S
H988 C996 0.929 . S
H989 C998 0.930 . S
H990 C1000 0.930 . S
H991 C1003 0.929 . S
H992 C1006 0.941 . S
H993 C1008 0.960 . S
H994 C1008 0.960 1_545 S
H995 C1008 0.960 . S
C996 H988 0.929 . S
C996 C997 1.348 1_545 S
C996 C998 1.384 . S
C997 C996 1.348 1_565 S
C997 C1003 1.421 . S
C998 H989 0.930 . S
C998 C996 1.384 . S
C998 C999 1.372 1_545 S
C999 C998 1.372 1_565 S
C999 C1000 1.400 . S
C999 C1004 1.490 . S
C1000 H990 0.930 . S
C1000 C999 1.400 . S
C1000 C1003 1.386 . S
H1001 C1017 0.930 . S
H1002 C1018 0.931 . S
C1003 H991 0.929 . S
C1003 C997 1.421 . S
C1003 C1000 1.386 . S
C1004 C999 1.490 . S
C1004 C1006 1.388 1_565 S
C1004 C1007 1.403 . S
H1005 C1011 0.930 . S
C1006 H992 0.941 . S
C1006 C1004 1.388 1_545 S
C1006 C1009 1.402 1_545 S
C1007 C1004 1.403 . S
C1007 C1008 1.524 . S
C1007 C1011 1.400 . S
C1008 H993 0.960 . S
C1008 H994 0.960 1_565 S
C1008 H995 0.960 . S
C1008 C1007 1.524 . S
C1009 C1006 1.402 1_565 S
C1009 C1010 1.394 . S
C1009 C1013 1.494 1_565 S
C1010 C1009 1.394 . S
C1010 C1011 1.385 . S
C1010 C1012 1.478 . S
C1011 H1005 0.930 . S
C1011 C1007 1.400 . S
C1011 C1010 1.385 . S
C1012 C1010 1.478 . S
C1012 C1014 1.381 1_565 S
C1012 C1018 1.383 . S
C1013 C1009 1.494 1_545 S
C1013 H1019 0.959 . S
C1013 H1020 0.961 1_545 S
C1013 H1021 0.960 . S
C1014 C1012 1.381 1_545 S
C1014 C1015 1.394 . S
C1014 H1022 0.930 . S
C1015 C1014 1.394 . S
C1015 C1016 1.383 1_545 S
C1015 H1023 0.929 . S
C1016 C1015 1.383 1_565 S
C1016 C1017 1.377 . S
C1017 H1001 0.930 . S
C1017 C1016 1.377 . S
C1017 C1018 1.379 . S
C1018 H1002 0.931 . S
C1018 C1012 1.383 . S
C1018 C1017 1.379 . S
H1019 C1013 0.959 . S
H1020 C1013 0.961 1_565 S
H1021 C1013 0.960 . S
H1022 C1014 0.930 . S
H1023 C1015 0.929 . S
H1024 C1032 0.929 . S
H1025 C1034 0.930 . S
H1026 C1036 0.930 . S
H1027 C1039 0.929 . S
H1028 C1042 0.930 . S
H1029 C1044 0.960 . S
H1030 C1044 0.960 . S
H1031 C1044 0.960 . S
C1032 H1024 0.929 . S
C1032 C1033 1.377 . S
C1032 C1034 1.384 . S
C1033 C1032 1.377 . S
C1033 C1039 1.390 . S
C1034 H1025 0.930 . S
C1034 C1032 1.384 . S
C1034 C1035 1.372 . S
C1035 C1034 1.372 . S
C1035 C1036 1.400 . S
C1035 C1040 1.490 . S
C1036 H1026 0.930 . S
C1036 C1035 1.400 . S
C1036 C1039 1.386 . S
H1037 C1053 0.930 . S
H1038 C1054 0.931 . S
C1039 H1027 0.929 . S
C1039 C1033 1.390 . S
C1039 C1036 1.386 . S
C1040 C1035 1.490 . S
C1040 C1042 1.395 . S
C1040 C1043 1.403 . S
H1041 C1047 0.930 . S
C1042 H1028 0.930 . S
C1042 C1040 1.395 . S
C1042 C1045 1.403 . S
C1043 C1040 1.403 . S
C1043 C1044 1.524 . S
C1043 C1047 1.400 . S
C1044 H1029 0.960 . S
C1044 H1030 0.960 . S
C1044 H1031 0.960 . S
C1044 C1043 1.524 . S
C1045 C1042 1.403 . S
C1045 C1046 1.392 . S
C1045 C1049 1.495 . S
C1046 C1045 1.392 . S
C1046 C1047 1.385 . S
C1046 C1048 1.478 . S
C1047 H1041 0.930 . S
C1047 C1043 1.400 . S
C1047 C1046 1.385 . S
C1048 C1046 1.478 . S
C1048 C1050 1.381 . S
C1048 C1054 1.383 . S
C1049 C1045 1.495 . S
C1049 H1055 0.959 . S
C1049 H1056 0.961 . S
C1049 H1057 0.960 . S
C1050 C1048 1.381 . S
C1050 C1051 1.394 . S
C1050 H1058 0.930 . S
C1051 C1050 1.394 . S
C1051 C1052 1.383 . S
C1051 H1059 0.929 . S
C1052 C1051 1.383 . S
C1052 C1053 1.377 . S
C1053 H1037 0.930 . S
C1053 C1052 1.377 . S
C1053 C1054 1.379 . S
C1054 H1038 0.931 . S
C1054 C1048 1.383 . S
C1054 C1053 1.379 . S
H1055 C1049 0.959 . S
H1056 C1049 0.961 . S
H1057 C1049 0.960 . S
H1058 C1050 0.930 . S
H1059 C1051 0.929 . S
H1060 C1068 0.929 . S
H1061 C1070 0.930 . S
H1062 C1072 0.930 . S
H1063 C1075 0.929 . S
H1064 C1078 0.930 . S
H1065 C1080 0.960 . S
H1066 C1080 0.960 . S
H1067 C1080 0.960 . S
C1068 H1060 0.929 . S
C1068 C1069 1.377 . S
C1068 C1070 1.384 . S
C1069 C1068 1.377 . S
C1069 C1075 1.390 . S
C1070 H1061 0.930 . S
C1070 C1068 1.384 . S
C1070 C1071 1.372 . S
C1071 C1070 1.372 . S
C1071 C1072 1.400 . S
C1071 C1076 1.490 . S
C1072 H1062 0.930 . S
C1072 C1071 1.400 . S
C1072 C1075 1.386 . S
H1073 C1089 0.930 . S
H1074 C1090 0.931 . S
C1075 H1063 0.929 . S
C1075 C1069 1.390 . S
C1075 C1072 1.386 . S
C1076 C1071 1.490 . S
C1076 C1078 1.395 . S
C1076 C1079 1.403 . S
H1077 C1083 0.930 . S
C1078 H1064 0.930 . S
C1078 C1076 1.395 . S
C1078 C1081 1.403 . S
C1079 C1076 1.403 . S
C1079 C1080 1.524 . S
C1079 C1083 1.400 . S
C1080 H1065 0.960 . S
C1080 H1066 0.960 . S
C1080 H1067 0.960 . S
C1080 C1079 1.524 . S
C1081 C1078 1.403 . S
C1081 C1082 1.392 . S
C1081 C1085 1.495 . S
C1082 C1081 1.392 . S
C1082 C1083 1.385 . S
C1082 C1084 1.478 . S
C1083 H1077 0.930 . S
C1083 C1079 1.400 . S
C1083 C1082 1.385 . S
C1084 C1082 1.478 . S
C1084 C1086 1.381 . S
C1084 C1090 1.383 . S
C1085 C1081 1.495 . S
C1085 H1091 0.959 . S
C1085 H1092 0.961 . S
C1085 H1093 0.960 . S
C1086 C1084 1.381 . S
C1086 C1087 1.394 . S
C1086 H1094 0.930 . S
C1087 C1086 1.394 . S
C1087 C1088 1.383 . S
C1087 H1095 0.929 . S
C1088 C1087 1.383 . S
C1088 C1089 1.377 . S
C1089 H1073 0.930 . S
C1089 C1088 1.377 . S
C1089 C1090 1.379 . S
C1090 H1074 0.931 . S
C1090 C1084 1.383 . S
C1090 C1089 1.379 . S
H1091 C1085 0.959 . S
H1092 C1085 0.961 . S
H1093 C1085 0.960 . S
H1094 C1086 0.930 . S
H1095 C1087 0.929 . S
C241 C61 1.646 . S
C260 C82 1.717 1_545 S
C296 C122 1.735 . S
C277 C70 1.644 . S
C332 C162 1.738 . S
C313 C43 1.641 . S
C368 C202 1.733 1_455 S
C349 C52 1.645 1_455 S
C404 C91 1.727 1_565 S
C385 C25 1.647 1_545 S
C421 C34 1.655 . S
C440 C131 1.723 . S
C457 C7 1.643 . S
C476 C171 1.718 . S
C493 C16 1.643 . S
C512 C211 1.727 1_655 S
C548 C88 0.380 . S
C529 C50 0.279 1_455 S
C584 C128 0.375 . S
C565 C59 0.283 1_545 S
C620 C168 0.366 . S
C601 C67 0.268 . S
C637 C41 0.280 . S
C656 C208 0.344 . S
C673 C14 0.281 . S
C692 C79 0.263 . S
C728 C119 0.248 . S
C709 C23 0.277 . S
C764 C159 0.384 . S
C745 C31 0.253 . S
C781 C5 0.244 . S
C800 C199 0.396 . S
C817 C49 1.779 1_455 S
C836 C83 1.951 . S
C853 C58 1.783 1_545 S
C872 C123 1.953 . S
C908 C163 1.962 . S
C889 C68 1.783 . S
C944 C203 1.944 . S
C925 C40 1.773 . S
C961 C13 1.793 . S
C980 C74 1.955 . S
C1016 C114 1.950 . S
C997 C22 1.783 . S
C1052 C154 1.963 . S
C1033 C32 1.774 . S
C1069 C4 1.777 . S
C1088 C194 1.969 . S
