# Generated by pormake.
# Topology ctn, (3,4)-cn, num edge types: 1
# Building blocks:
#     Node 0, Type 0, BuildingBlock: BELTOD_clean_linker_0, # of connection points: 3
#     Node 1, Type 0, BuildingBlock: BELTOD_clean_linker_0, # of connection points: 3
#     Node 2, Type 0, BuildingBlock: BELTOD_clean_linker_0, # of connection points: 3
#     Node 3, Type 0, BuildingBlock: BELTOD_clean_linker_0, # of connection points: 3
#     Node 4, Type 0, BuildingBlock: BELTOD_clean_linker_0, # of connection points: 3
#     Node 5, Type 0, BuildingBlock: BELTOD_clean_linker_0, # of connection points: 3
#     Node 6, Type 0, BuildingBlock: BELTOD_clean_linker_0, # of connection points: 3
#     Node 7, Type 0, BuildingBlock: BELTOD_clean_linker_0, # of connection points: 3
#     Node 8, Type 0, BuildingBlock: BELTOD_clean_linker_0, # of connection points: 3
#     Node 9, Type 0, BuildingBlock: BELTOD_clean_linker_0, # of connection points: 3
#     Node 10, Type 0, BuildingBlock: BELTOD_clean_linker_0, # of connection points: 3
#     Node 11, Type 0, BuildingBlock: BELTOD_clean_linker_0, # of connection points: 3
#     Node 12, Type 0, BuildingBlock: BELTOD_clean_linker_0, # of connection points: 3
#     Node 13, Type 0, BuildingBlock: BELTOD_clean_linker_0, # of connection points: 3
#     Node 14, Type 0, BuildingBlock: BELTOD_clean_linker_0, # of connection points: 3
#     Node 15, Type 0, BuildingBlock: BELTOD_clean_linker_0, # of connection points: 3
#     Node 16, Type 1, BuildingBlock: KUFVIS_clean_sbu_0, # of connection points: 4
#     Node 17, Type 1, BuildingBlock: KUFVIS_clean_sbu_0, # of connection points: 4
#     Node 18, Type 1, BuildingBlock: KUFVIS_clean_sbu_0, # of connection points: 4
#     Node 19, Type 1, BuildingBlock: KUFVIS_clean_sbu_0, # of connection points: 4
#     Node 20, Type 1, BuildingBlock: KUFVIS_clean_sbu_0, # of connection points: 4
#     Node 21, Type 1, BuildingBlock: KUFVIS_clean_sbu_0, # of connection points: 4
#     Node 22, Type 1, BuildingBlock: KUFVIS_clean_sbu_0, # of connection points: 4
#     Node 23, Type 1, BuildingBlock: KUFVIS_clean_sbu_0, # of connection points: 4
#     Node 24, Type 1, BuildingBlock: KUFVIS_clean_sbu_0, # of connection points: 4
#     Node 25, Type 1, BuildingBlock: KUFVIS_clean_sbu_0, # of connection points: 4
#     Node 26, Type 1, BuildingBlock: KUFVIS_clean_sbu_0, # of connection points: 4
#     Node 27, Type 1, BuildingBlock: KUFVIS_clean_sbu_0, # of connection points: 4
#     Edge 28, Type (0, 1), BuildingBlock: EZIPEK_clean_linker_0, # of connection points: 2
#     Edge 29, Type (0, 1), BuildingBlock: EZIPEK_clean_linker_0, # of connection points: 2
#     Edge 30, Type (0, 1), BuildingBlock: EZIPEK_clean_linker_0, # of connection points: 2
#     Edge 31, Type (0, 1), BuildingBlock: EZIPEK_clean_linker_0, # of connection points: 2
#     Edge 32, Type (0, 1), BuildingBlock: EZIPEK_clean_linker_0, # of connection points: 2
#     Edge 33, Type (0, 1), BuildingBlock: EZIPEK_clean_linker_0, # of connection points: 2
#     Edge 34, Type (0, 1), BuildingBlock: EZIPEK_clean_linker_0, # of connection points: 2
#     Edge 35, Type (0, 1), BuildingBlock: EZIPEK_clean_linker_0, # of connection points: 2
#     Edge 36, Type (0, 1), BuildingBlock: EZIPEK_clean_linker_0, # of connection points: 2
#     Edge 37, Type (0, 1), BuildingBlock: EZIPEK_clean_linker_0, # of connection points: 2
#     Edge 38, Type (0, 1), BuildingBlock: EZIPEK_clean_linker_0, # of connection points: 2
#     Edge 39, Type (0, 1), BuildingBlock: EZIPEK_clean_linker_0, # of connection points: 2
#     Edge 40, Type (0, 1), BuildingBlock: EZIPEK_clean_linker_0, # of connection points: 2
#     Edge 41, Type (0, 1), BuildingBlock: EZIPEK_clean_linker_0, # of connection points: 2
#     Edge 42, Type (0, 1), BuildingBlock: EZIPEK_clean_linker_0, # of connection points: 2
#     Edge 43, Type (0, 1), BuildingBlock: EZIPEK_clean_linker_0, # of connection points: 2
#     Edge 44, Type (0, 1), BuildingBlock: EZIPEK_clean_linker_0, # of connection points: 2
#     Edge 45, Type (0, 1), BuildingBlock: EZIPEK_clean_linker_0, # of connection points: 2
#     Edge 46, Type (0, 1), BuildingBlock: EZIPEK_clean_linker_0, # of connection points: 2
#     Edge 47, Type (0, 1), BuildingBlock: EZIPEK_clean_linker_0, # of connection points: 2
#     Edge 48, Type (0, 1), BuildingBlock: EZIPEK_clean_linker_0, # of connection points: 2
#     Edge 49, Type (0, 1), BuildingBlock: EZIPEK_clean_linker_0, # of connection points: 2
#     Edge 50, Type (0, 1), BuildingBlock: EZIPEK_clean_linker_0, # of connection points: 2
#     Edge 51, Type (0, 1), BuildingBlock: EZIPEK_clean_linker_0, # of connection points: 2
#     Edge 52, Type (0, 1), BuildingBlock: EZIPEK_clean_linker_0, # of connection points: 2
#     Edge 53, Type (0, 1), BuildingBlock: EZIPEK_clean_linker_0, # of connection points: 2
#     Edge 54, Type (0, 1), BuildingBlock: EZIPEK_clean_linker_0, # of connection points: 2
#     Edge 55, Type (0, 1), BuildingBlock: EZIPEK_clean_linker_0, # of connection points: 2
#     Edge 56, Type (0, 1), BuildingBlock: EZIPEK_clean_linker_0, # of connection points: 2
#     Edge 57, Type (0, 1), BuildingBlock: EZIPEK_clean_linker_0, # of connection points: 2
#     Edge 58, Type (0, 1), BuildingBlock: EZIPEK_clean_linker_0, # of connection points: 2
#     Edge 59, Type (0, 1), BuildingBlock: EZIPEK_clean_linker_0, # of connection points: 2
#     Edge 60, Type (0, 1), BuildingBlock: EZIPEK_clean_linker_0, # of connection points: 2
#     Edge 61, Type (0, 1), BuildingBlock: EZIPEK_clean_linker_0, # of connection points: 2
#     Edge 62, Type (0, 1), BuildingBlock: EZIPEK_clean_linker_0, # of connection points: 2
#     Edge 63, Type (0, 1), BuildingBlock: EZIPEK_clean_linker_0, # of connection points: 2
#     Edge 64, Type (0, 1), BuildingBlock: EZIPEK_clean_linker_0, # of connection points: 2
#     Edge 65, Type (0, 1), BuildingBlock: EZIPEK_clean_linker_0, # of connection points: 2
#     Edge 66, Type (0, 1), BuildingBlock: EZIPEK_clean_linker_0, # of connection points: 2
#     Edge 67, Type (0, 1), BuildingBlock: EZIPEK_clean_linker_0, # of connection points: 2
#     Edge 68, Type (0, 1), BuildingBlock: EZIPEK_clean_linker_0, # of connection points: 2
#     Edge 69, Type (0, 1), BuildingBlock: EZIPEK_clean_linker_0, # of connection points: 2
#     Edge 70, Type (0, 1), BuildingBlock: EZIPEK_clean_linker_0, # of connection points: 2
#     Edge 71, Type (0, 1), BuildingBlock: EZIPEK_clean_linker_0, # of connection points: 2
#     Edge 72, Type (0, 1), BuildingBlock: EZIPEK_clean_linker_0, # of connection points: 2
#     Edge 73, Type (0, 1), BuildingBlock: EZIPEK_clean_linker_0, # of connection points: 2
#     Edge 74, Type (0, 1), BuildingBlock: EZIPEK_clean_linker_0, # of connection points: 2
#     Edge 75, Type (0, 1), BuildingBlock: EZIPEK_clean_linker_0, # of connection points: 2
# Relax obj value: 0.013
# Max RMSD: 0.066
# Mean RMSD: 0.034
data_MOF--net-ctn--node1-KUFVIS_clean_sbu_0--node2-BELTOD_clean_linker_0--edge1-EZIPEK_clean_linker_0
_symmetry_space_group_name_H-M    P1
_symmetry_Int_Tables_number       1
_symmetry_cell_setting            triclinic
loop_
_symmetry_equiv_pos_as_xyz
'x, y, z'
_cell_length_a     46.797111
_cell_length_b     47.033754
_cell_length_c     46.826369
_cell_angle_alpha  90.343666
_cell_angle_beta   90.365134
_cell_angle_gamma 92.69794
loop_
_atom_site_label
_atom_site_type_symbol
_atom_site_fract_x
_atom_site_fract_y
_atom_site_fract_z
_atom_type_partial_charge
P0 P 0.07067 0.06999 0.07632 0.0
H1 H 0.07022 0.02096 0.11427 0.0
H2 H 0.03449 1.00072 0.1474 0.0
H3 H 0.97473 0.06215 0.11998 0.0
H4 H 0.01044 0.08249 0.08678 0.0
H5 H 0.13106 0.07525 0.06193 0.0
H6 H 0.16495 0.04143 0.04364 0.0
H7 H 0.09717 0.97626 0.03837 0.0
H8 H 0.06298 0.01036 0.05616 0.0
H9 H 0.08536 0.12877 0.06008 0.0
H10 H 0.02643 0.06099 0.03169 0.0
O11 O 0.08975 0.0905 0.09935 0.0
H12 H 0.06569 0.16061 0.02458 0.0
H13 H 0.00652 0.09318 0.99605 0.0
C14 C 0.04271 0.05255 0.09718 0.0
C15 C 0.04919 0.02961 0.11472 0.0
C16 C 0.02891 0.01818 0.13377 0.0
C17 C 0.00194 0.02981 0.13592 0.0
C18 C 0.99533 0.05271 0.11836 0.0
C19 C 0.01567 0.06415 0.09927 0.0
C20 C 0.09464 0.04515 0.061 0.0
C21 C 0.12341 0.05373 0.0568 0.0
C22 C 0.14275 0.03447 0.04641 0.0
C23 C 0.13361 0.00632 0.03995 0.0
C24 C 0.10465 0.99785 0.04347 0.0
C25 C 0.0852 0.01728 0.05361 0.0
C26 C 0.057 0.09263 0.04887 0.0
C27 C 0.0682 0.12069 0.04623 0.0
C28 C 0.05704 0.13889 0.02594 0.0
C29 C 0.03457 0.1293 0.00783 0.0
C30 C 0.02382 0.10097 0.0099 0.0
C31 C 0.03513 0.08268 0.03019 0.0
P32 P 0.32968 0.67822 0.18101 0.0
H33 H 0.35928 0.71738 0.14185 0.0
H34 H 0.34372 0.75877 0.11507 0.0
H35 H 0.26201 0.75218 0.15709 0.0
H36 H 0.27762 0.71104 0.18417 0.0
H37 H 0.38755 0.66216 0.19606 0.0
H38 H 0.41851 0.67294 0.23744 0.0
H39 H 0.35252 0.72175 0.27507 0.0
H40 H 0.32164 0.71151 0.23318 0.0
H41 H 0.28384 0.65232 0.14641 0.0
H42 H 0.30854 0.65247 0.23494 0.0
O43 O 0.34795 0.66011 0.15704 0.0
H44 H 0.24215 0.62308 0.15704 0.0
H45 H 0.26624 0.62411 0.24631 0.0
C46 C 0.31937 0.71075 0.16446 0.0
C47 C 0.33815 0.72505 0.14559 0.0
C48 C 0.32937 0.74869 0.13043 0.0
C49 C 0.30172 0.75837 0.13407 0.0
C50 C 0.28343 0.74497 0.15404 0.0
C51 C 0.29229 0.72141 0.16932 0.0
C52 C 0.35234 0.68615 0.21154 0.0
C53 C 0.37966 0.67521 0.21313 0.0
C54 C 0.3973 0.68121 0.2368 0.0
C55 C 0.38771 0.69793 0.2594 0.0
C56 C 0.36019 0.70861 0.25796 0.0
C57 C 0.3427 0.70293 0.23405 0.0
C58 C 0.2984 0.65637 0.19007 0.0
C59 C 0.27932 0.64723 0.16851 0.0
C60 C 0.25437 0.63115 0.17507 0.0
C61 C 0.24666 0.62523 0.20375 0.0
C62 C 0.26816 0.63162 0.22463 0.0
C63 C 0.29324 0.64749 0.21805 0.0
P64 P 0.9832 0.49256 0.02376 0.0
H65 H 0.02566 0.46459 0.98968 0.0
H66 H 0.02688 0.41719 0.96784 0.0
H67 H 0.94283 0.39583 1.00077 0.0
H68 H 0.94148 0.44359 0.02266 0.0
H69 H 0.95501 0.52334 0.97861 0.0
H70 H 0.91008 0.54824 0.97667 0.0
H71 H 0.89022 0.52047 0.06215 0.0
H72 H 0.93516 0.49537 0.06408 0.0
H73 H 0.00796 0.44769 0.0588 0.0
H74 H 0.98872 0.53613 0.06811 0.0
O75 O 0.00604 0.51405 0.00587 0.0
H76 H 0.03148 0.44922 0.10572 0.0
H77 H 0.01226 0.5375 0.11519 0.0
C78 C 0.98317 0.45783 0.00719 0.0
C79 C 0.00734 0.44988 0.99205 0.0
C80 C 0.00817 0.4228 0.97974 0.0
C81 C 0.98495 0.40312 0.98268 0.0
C82 C 0.96092 0.41082 0.99828 0.0
C83 C 0.96009 0.43803 0.01059 0.0
C84 C 0.94864 0.50794 0.02167 0.0
C85 C 0.94094 0.52243 0.99689 0.0
C86 C 0.91538 0.53667 0.99577 0.0
C87 C 0.89706 0.53645 0.01938 0.0
C88 C 0.90423 0.52104 0.04381 0.0
C89 C 0.92982 0.50674 0.04489 0.0
C90 C 0.99633 0.49179 0.06002 0.0
C91 C 0.00823 0.46727 0.07107 0.0
C92 C 0.02167 0.46808 0.09785 0.0
C93 C 0.02349 0.49344 0.11384 0.0
C94 C 0.01086 0.51771 0.10319 0.0
C95 C 0.99745 0.51689 0.0764 0.0
P96 P 0.67335 0.82942 0.1804 0.0
H97 H 0.6858 0.88994 0.16936 0.0
H98 H 0.72643 0.9224 0.18208 0.0
H99 H 0.7671 0.85391 0.22469 0.0
H100 H 0.72646 0.82124 0.21179 0.0
H101 H 0.64905 0.77103 0.17289 0.0
H102 H 0.66046 0.73266 0.13975 0.0
H103 H 0.73198 0.78401 0.10803 0.0
H104 H 0.72118 0.82199 0.1417 0.0
H105 H 0.62954 0.85854 0.21116 0.0
H106 H 0.6761 0.78226 0.22166 0.0
O107 O 0.65131 0.84629 0.15886 0.0
H108 H 0.60081 0.84616 0.25332 0.0
H109 H 0.64676 0.76952 0.26358 0.0
C110 C 0.70331 0.85315 0.18946 0.0
C111 C 0.70351 0.88179 0.18127 0.0
C112 C 0.72666 0.90031 0.18849 0.0
C113 C 0.74988 0.89044 0.20403 0.0
C114 C 0.74961 0.86179 0.21233 0.0
C115 C 0.72641 0.84325 0.20512 0.0
C116 C 0.68481 0.79906 0.16051 0.0
C117 C 0.66786 0.77364 0.15966 0.0
C118 C 0.67426 0.7518 0.14064 0.0
C119 C 0.69721 0.75541 0.12159 0.0
C120 C 0.71445 0.78063 0.12281 0.0
C121 C 0.70828 0.80227 0.14209 0.0
C122 C 0.65417 0.82076 0.2127 0.0
C123 C 0.6336 0.83915 0.22255 0.0
C124 C 0.61739 0.83227 0.2467 0.0
C125 C 0.62162 0.80691 0.26138 0.0
C126 C 0.64322 0.78917 0.25243 0.0
C127 C 0.6597 0.79628 0.2284 0.0
P128 P 0.04856 0.94663 0.45955 0.0
H129 H 0.1079 0.94048 0.47611 0.0
H130 H 0.14603 0.97482 0.49156 0.0
H131 H 0.08546 0.04107 0.49372 0.0
H132 H 0.04711 0.00658 0.47877 0.0
H133 H 0.02296 0.88929 0.45484 0.0
H134 H 0.0082 0.85368 0.49047 0.0
H135 H 0.02554 0.91517 0.55773 0.0
H136 H 0.04028 0.95105 0.52197 0.0
H137 H 0.05258 0.9964 0.42245 0.0
H138 H 0.98745 0.93373 0.44779 0.0
O139 O 0.06608 0.92668 0.43654 0.0
H140 H 0.02017 0.01406 0.38605 0.0
H141 H 0.95558 0.95066 0.41058 0.0
C142 C 0.07493 0.97122 0.47536 0.0
C143 C 0.10272 0.96232 0.4802 0.0
C144 C 0.12444 0.98184 0.48907 0.0
C145 C 0.11865 0.01058 0.49317 0.0
C146 C 0.09042 0.0191 0.4902 0.0
C147 C 0.0686 0.99944 0.48161 0.0
C148 C 0.03311 0.92266 0.48579 0.0
C149 C 0.0231 0.89534 0.4772 0.0
C150 C 0.01455 0.87506 0.49746 0.0
C151 C 0.01578 0.88184 0.52666 0.0
C152 C 0.02428 0.90965 0.53526 0.0
C153 C 0.03282 0.93003 0.51488 0.0
C154 C 0.0223 0.96411 0.43839 0.0
C155 C 0.03103 0.98707 0.42094 0.0
C156 C 0.01262 0.99707 0.40002 0.0
C157 C 0.98556 0.98355 0.39556 0.0
C158 C 0.97635 0.96142 0.41378 0.0
C159 C 0.99459 0.95177 0.43504 0.0
P160 P 0.22156 0.72116 0.79798 0.0
H161 H 0.25878 0.76676 0.8216 0.0
H162 H 0.25786 0.79403 0.8659 0.0
H163 H 0.18293 0.74478 0.89281 0.0
H164 H 0.18386 0.71704 0.84798 0.0
H165 H 0.23327 0.67843 0.75555 0.0
H166 H 0.25976 0.63474 0.75716 0.0
H167 H 0.27096 0.64499 0.84818 0.0
H168 H 0.24475 0.68909 0.84655 0.0
H169 H 0.18863 0.76238 0.76809 0.0
H170 H 0.17631 0.67527 0.79547 0.0
O171 O 0.24211 0.74007 0.77531 0.0
H172 H 0.14198 0.7592 0.7439 0.0
H173 H 0.12936 0.67214 0.77125 0.0
C174 C 0.22101 0.74032 0.83127 0.0
C175 C 0.2419 0.76195 0.83676 0.0
C176 C 0.24118 0.77782 0.86191 0.0
C177 C 0.21962 0.77237 0.88213 0.0
C178 C 0.1993 0.74987 0.87715 0.0
C179 C 0.1999 0.73403 0.85173 0.0
C180 C 0.23702 0.68696 0.80088 0.0
C181 C 0.24109 0.67112 0.77592 0.0
C182 C 0.25625 0.64628 0.77682 0.0
C183 C 0.26755 0.63687 0.80273 0.0
C184 C 0.26254 0.65208 0.82797 0.0
C185 C 0.2475 0.67715 0.82702 0.0
C186 C 0.18614 0.71884 0.78287 0.0
C187 C 0.17579 0.74264 0.76903 0.0
C188 C 0.14917 0.7409 0.7554 0.0
C189 C 0.13243 0.7154 0.75568 0.0
C190 C 0.14211 0.69196 0.7708 0.0
C191 C 0.16888 0.6937 0.78441 0.0
P192 P 0.99391 0.51208 0.49686 0.0
H193 H 0.04252 0.54259 0.47054 0.0
H194 H 0.06452 0.53959 0.42335 0.0
H195 H 0.99958 0.47644 0.39749 0.0
H196 H 0.97694 0.48009 0.44433 0.0
H197 H 0.00889 0.52985 0.55494 0.0
H198 H 0.01264 0.57629 0.57862 0.0
H199 H 0.99132 0.61714 0.49972 0.0
H200 H 0.98792 0.57038 0.47562 0.0
H201 H 0.96525 0.45593 0.49005 0.0
H202 H 0.9409 0.54092 0.51112 0.0
O203 O 0.01328 0.48953 0.5153 0.0
H204 H 0.91552 0.43828 0.49641 0.0
H205 H 0.89171 0.52297 0.51881 0.0
C206 C 0.00757 0.51218 0.46085 0.0
C207 C 0.03255 0.52857 0.45457 0.0
C208 C 0.04531 0.52665 0.42775 0.0
C209 C 0.03366 0.50782 0.40693 0.0
C210 C 0.00882 0.49118 0.41324 0.0
C211 C 0.99584 0.4934 0.43999 0.0
C212 C 0.99865 0.54672 0.51341 0.0
C213 C 0.00524 0.54874 0.54259 0.0
C214 C 0.00697 0.57521 0.55626 0.0
C215 C 1.00161 0.60009 0.54117 0.0
C216 C 0.99529 0.59815 0.51182 0.0
C217 C 0.99356 0.57157 0.49808 0.0
C218 C 0.95687 0.4998 0.49969 0.0
C219 C 0.94925 0.47083 0.49577 0.0
C220 C 0.92096 0.46072 0.49959 0.0
C221 C 0.89993 0.47935 0.50795 0.0
C222 C 0.90759 0.5083 0.51215 0.0
C223 C 0.93575 0.51851 0.5077 0.0
P224 P 0.82908 0.83028 0.83485 0.0
H225 H 0.88405 0.85195 0.81213 0.0
H226 H 0.915 0.83475 0.7743 0.0
H227 H 0.8517 0.7682 0.75344 0.0
H228 H 0.82074 0.78517 0.79169 0.0
H229 H 0.78668 0.85876 0.8682 0.0
H230 H 0.74703 0.88868 0.85519 0.0
H231 H 0.7641 0.87447 0.76601 0.0
H232 H 0.80376 0.8446 0.77892 0.0
H233 H 0.86263 0.7939 0.87071 0.0
H234 H 0.77418 0.79856 0.84529 0.0
O235 O 0.84938 0.85219 0.85553 0.0
H236 H 0.84956 0.75391 0.90244 0.0
H237 H 0.76118 0.75898 0.87729 0.0
C238 C 0.85025 0.81958 0.80492 0.0
C239 C 0.87664 0.83381 0.79931 0.0
C240 C 0.89426 0.82413 0.77767 0.0
C241 C 0.88557 0.80029 0.76112 0.0
C242 C 0.85865 0.78674 0.76594 0.0
C243 C 0.8411 0.79632 0.78776 0.0
C244 C 0.7982 0.8495 0.82457 0.0
C245 C 0.78166 0.86176 0.84584 0.0
C246 C 0.75902 0.87872 0.83847 0.0
C247 C 0.75262 0.88365 0.80968 0.0
C248 C 0.76864 0.87071 0.78835 0.0
C249 C 0.79131 0.85374 0.79575 0.0
C250 C 0.81933 0.79952 0.85607 0.0
C251 C 0.84047 0.78627 0.87188 0.0
C252 C 0.83308 0.76351 0.8899 0.0
C253 C 0.80441 0.75375 0.89229 0.0
C254 C 0.78339 0.76639 0.87578 0.0
C255 C 0.79082 0.78903 0.85762 0.0
P256 P 0.33211 0.33413 0.34054 0.0
H257 H 0.38683 0.35544 0.31696 0.0
H258 H 0.41687 0.33818 0.27838 0.0
H259 H 0.35183 0.27342 0.25718 0.0
H260 H 0.32191 0.29029 0.29621 0.0
H261 H 0.31544 0.39024 0.36004 0.0
H262 H 0.27651 0.42056 0.34638 0.0
H263 H 0.24509 0.35671 0.28611 0.0
H264 H 0.28415 0.32614 0.29981 0.0
H265 H 0.36053 0.28248 0.35568 0.0
H266 H 0.27829 0.31768 0.36996 0.0
O267 O 0.35418 0.35296 0.36238 0.0
H268 H 0.34669 0.24172 0.38596 0.0
H269 H 0.26446 0.2768 0.40007 0.0
C270 C 0.35223 0.32396 0.30964 0.0
C271 C 0.37881 0.33773 0.30387 0.0
C272 C 0.39594 0.32799 0.28182 0.0
C273 C 0.38652 0.30459 0.26498 0.0
C274 C 0.35935 0.29163 0.26987 0.0
C275 C 0.34233 0.30124 0.29211 0.0
C276 C 0.30297 0.35604 0.33065 0.0
C277 C 0.30025 0.38264 0.34389 0.0
C278 C 0.27798 0.39993 0.33622 0.0
C279 C 0.25798 0.39086 0.31528 0.0
C280 C 0.26035 0.36404 0.30234 0.0
C281 C 0.28268 0.34671 0.31004 0.0
C282 C 0.32023 0.30282 0.36003 0.0
C283 C 0.33934 0.2812 0.36488 0.0
C284 C 0.33154 0.25803 0.38222 0.0
C285 C 0.30451 0.25621 0.39507 0.0
C286 C 0.28533 0.27777 0.39014 0.0
C287 C 0.29319 0.301 0.37285 0.0
P288 P 0.48434 0.98559 0.52742 0.0
H289 H 0.45259 0.96004 0.47904 0.0
H290 H 0.45376 0.91337 0.45551 0.0
H291 H 0.51311 0.88615 0.51941 0.0
H292 H 0.51089 0.93206 0.54372 0.0
H293 H 0.47225 0.04536 0.52114 0.0
H294 H 0.42777 0.07077 0.51794 0.0
H295 H 0.3788 0.9915 0.5276 0.0
H296 H 0.42347 0.966 0.53119 0.0
H297 H 0.54176 0.97692 0.54853 0.0
H298 H 0.46131 1.00011 0.58432 0.0
O299 O 0.50722 0.00315 0.50591 0.0
H300 H 0.56473 0.98354 0.59533 0.0
H301 H 0.48477 0.0081 0.63104 0.0
C302 C 0.48117 0.94957 0.51355 0.0
C303 C 0.46518 0.94378 0.48855 0.0
C304 C 0.46605 0.91725 0.47494 0.0
C305 C 0.48358 0.89629 0.48567 0.0
C306 C 0.49938 0.90197 0.51081 0.0
C307 C 0.49805 0.9283 0.52471 0.0
C308 C 0.45116 0.00371 0.52571 0.0
C309 C 0.45198 0.03337 0.52246 0.0
C310 C 0.42665 0.04789 0.52067 0.0
C311 C 0.40003 0.03298 0.52222 0.0
C312 C 0.39915 0.00333 0.52611 0.0
C313 C 0.42459 0.98881 0.52809 0.0
C314 C 0.49981 0.98789 0.56288 0.0
C315 C 0.52894 0.98308 0.56652 0.0
C316 C 0.54207 0.98688 0.59321 0.0
C317 C 0.52647 0.99627 0.61669 0.0
C318 C 0.49714 1.00064 0.61326 0.0
C319 C 0.48382 0.9962 0.58655 0.0
P320 P 0.16832 0.32779 0.6793 0.0
H321 H 0.1834 0.38673 0.66312 0.0
H322 H 0.22368 0.41952 0.67605 0.0
H323 H 0.25999 0.35406 0.72703 0.0
H324 H 0.21937 0.32129 0.71446 0.0
H325 H 0.13597 0.27725 0.6583 0.0
H326 H 0.14832 0.23836 0.626 0.0
H327 H 0.23529 0.27254 0.62271 0.0
H328 H 0.22321 0.3112 0.65485 0.0
H329 H 0.14403 0.36531 0.72064 0.0
H330 H 0.15205 0.27474 0.71097 0.0
O331 O 0.14596 0.34469 0.65813 0.0
H332 H 0.11667 0.35726 0.76454 0.0
H333 H 0.12379 0.26669 0.75449 0.0
C334 C 0.19859 0.3515 0.68765 0.0
C335 C 0.20008 0.3793 0.67692 0.0
C336 C 0.22305 0.39802 0.68425 0.0
C337 C 0.24499 0.38911 0.70221 0.0
C338 C 0.24355 0.3612 0.71281 0.0
C339 C 0.22036 0.3426 0.70576 0.0
C340 C 0.17876 0.29677 0.65973 0.0
C341 C 0.15789 0.27595 0.6513 0.0
C342 C 0.16486 0.25387 0.63281 0.0
C343 C 0.19274 0.25258 0.6222 0.0
C344 C 0.21375 0.27308 0.63095 0.0
C345 C 0.20679 0.29509 0.64948 0.0
C346 C 0.14974 0.32065 0.7123 0.0
C347 C 0.13991 0.3437 0.72795 0.0
C348 C 0.12431 0.33915 0.75295 0.0
C349 C 0.11797 0.31139 0.76255 0.0
C350 C 0.12831 0.28826 0.74726 0.0
C351 C 0.1443 0.29287 0.72235 0.0
P352 P 0.8361 0.18017 0.68373 0.0
H353 H 0.84352 0.24257 0.69274 0.0
H354 H 0.82814 0.28302 0.66428 0.0
H355 H 0.78817 0.22465 0.60311 0.0
H356 H 0.80337 0.18432 0.63148 0.0
H357 H 0.89785 0.18016 0.69353 0.0
H358 H 0.92793 0.19128 0.73555 0.0
H359 H 0.85321 0.21226 0.7832 0.0
H360 H 0.82292 0.20084 0.74118 0.0
H361 H 0.8294 0.11986 0.69643 0.0
H362 H 0.77628 0.19241 0.69649 0.0
O363 O 0.85503 0.16093 0.66126 0.0
H364 H 0.78805 0.08904 0.71018 0.0
H365 H 0.73483 0.1614 0.71 0.0
C366 C 0.82457 0.21046 0.66414 0.0
C367 C 0.83138 0.23845 0.67329 0.0
C368 C 0.82267 0.26151 0.65709 0.0
C369 C 0.80716 0.25673 0.63158 0.0
C370 C 0.80019 0.22872 0.62268 0.0
C371 C 0.80884 0.20578 0.63884 0.0
C372 C 0.85813 0.18941 0.71437 0.0
C373 C 0.88785 0.18701 0.71302 0.0
C374 C 0.90501 0.19326 0.73696 0.0
C375 C 0.89272 0.20221 0.76252 0.0
C376 C 0.86301 0.205 0.7638 0.0
C377 C 0.8458 0.19863 0.73982 0.0
C378 C 0.80572 0.15824 0.69485 0.0
C379 C 0.80886 0.12912 0.69934 0.0
C380 C 0.78536 0.11159 0.70721 0.0
C381 C 0.75849 0.12301 0.71089 0.0
C382 C 0.75544 0.1523 0.70719 0.0
C383 C 0.77903 0.16988 0.69935 0.0
P384 P 0.56391 0.56295 0.56885 0.0
H385 H 0.56661 0.52918 0.62064 0.0
H386 H 0.53019 0.51122 0.65438 0.0
H387 H 0.46455 0.54812 0.60347 0.0
H388 H 0.50069 0.56543 0.56939 0.0
H389 H 0.60951 0.56691 0.52703 0.0
H390 H 0.64289 0.5323 0.50911 0.0
H391 H 0.59774 0.46573 0.5559 0.0
H392 H 0.56388 0.49994 0.57302 0.0
H393 H 0.56747 0.62502 0.56354 0.0
H394 H 0.52868 0.55352 0.51717 0.0
O395 O 0.58705 0.58172 0.58962 0.0
H396 H 0.5476 0.65769 0.52899 0.0
H397 H 0.508 0.58649 0.48284 0.0
C398 C 0.53644 0.5483 0.59222 0.0
C399 C 0.54433 0.53304 0.61647 0.0
C400 C 0.52362 0.52285 0.63574 0.0
C401 C 0.4947 0.52831 0.63137 0.0
C402 C 0.48675 0.54357 0.60711 0.0
C403 C 0.50745 0.5534 0.58763 0.0
C404 C 0.58424 0.53616 0.5515 0.0
C405 C 0.60635 0.54475 0.5329 0.0
C406 C 0.62545 0.52507 0.52276 0.0
C407 C 0.62292 0.49653 0.5314 0.0
C408 C 0.6001 0.48768 0.54908 0.0
C409 C 0.58082 0.50732 0.55894 0.0
C410 C 0.54971 0.5868 0.5428 0.0
C411 C 0.55476 0.6163 0.5459 0.0
C412 C 0.54336 0.63499 0.52623 0.0
C413 C 0.52637 0.62453 0.50333 0.0
C414 C 0.52116 0.59497 0.5003 0.0
C415 C 0.53294 0.57622 0.51981 0.0
P416 P 0.54831 0.44393 0.9563 0.0
H417 H 0.60848 0.43941 0.97003 0.0
H418 H 0.64599 0.47429 0.9856 0.0
H419 H 0.58361 0.53867 0.99128 0.0
H420 H 0.54577 0.50344 0.97653 0.0
H421 H 0.5703 0.3934 0.9817 0.0
H422 H 0.5524 0.36071 0.01856 0.0
H423 H 0.47925 0.41177 0.03079 0.0
H424 H 0.49762 0.44514 0.99397 0.0
H425 H 0.54901 0.49553 0.92142 0.0
H426 H 0.48935 0.42577 0.94115 0.0
O427 O 0.56537 0.42337 0.93347 0.0
H428 H 0.51594 0.51208 0.8851 0.0
H429 H 0.45653 0.44217 0.90447 0.0
C430 C 0.57459 0.46917 0.97107 0.0
C431 C 0.60277 0.46096 0.97483 0.0
C432 C 0.62415 0.48078 0.98379 0.0
C433 C 0.61763 0.50916 0.98895 0.0
C434 C 0.58909 0.51697 0.98692 0.0
C435 C 0.56758 0.49694 0.97839 0.0
C436 C 0.53485 0.4212 0.98451 0.0
C437 C 0.55042 0.39769 0.99226 0.0
C438 C 0.5403 0.37909 0.01336 0.0
C439 C 0.51447 0.38375 0.02726 0.0
C440 C 0.49922 0.40783 0.02024 0.0
C441 C 0.50959 0.42669 0.99917 0.0
C442 C 0.52119 0.46009 0.93507 0.0
C443 C 0.52833 0.48448 0.91894 0.0
C444 C 0.50958 0.49384 0.898 0.0
C445 C 0.48375 0.47845 0.8923 0.0
C446 C 0.4762 0.45454 0.90888 0.0
C447 C 0.49489 0.4453 0.92995 0.0
P448 P 0.72444 0.2252 0.29164 0.0
H449 H 0.76013 0.27263 0.3141 0.0
H450 H 0.76028 0.29884 0.35902 0.0
H451 H 0.69016 0.24472 0.38923 0.0
H452 H 0.6899 0.2181 0.34366 0.0
H453 H 0.73637 0.18357 0.24803 0.0
H454 H 0.76415 0.14064 0.24816 0.0
H455 H 0.7773 0.14968 0.33905 0.0
H456 H 0.7498 0.19294 0.33892 0.0
H457 H 0.68881 0.26759 0.26734 0.0
H458 H 0.68105 0.17769 0.28518 0.0
O459 O 0.74394 0.24489 0.26872 0.0
H460 H 0.64184 0.26475 0.24375 0.0
H461 H 0.63381 0.17489 0.26156 0.0
C462 C 0.72464 0.24376 0.32535 0.0
C463 C 0.74451 0.26649 0.33013 0.0
C464 C 0.74443 0.28171 0.35572 0.0
C465 C 0.72459 0.27453 0.37714 0.0
C466 C 0.70526 0.25106 0.37276 0.0
C467 C 0.70517 0.23587 0.34689 0.0
C468 C 0.74089 0.19137 0.29343 0.0
C469 C 0.74489 0.17614 0.26807 0.0
C470 C 0.76081 0.15176 0.26811 0.0
C471 C 0.77299 0.1422 0.29356 0.0
C472 C 0.7682 0.15687 0.31919 0.0
C473 C 0.75238 0.18144 0.31909 0.0
C474 C 0.6886 0.22275 0.27742 0.0
C475 C 0.67687 0.2473 0.26638 0.0
C476 C 0.65009 0.24574 0.25304 0.0
C477 C 0.63453 0.2196 0.25078 0.0
C478 C 0.64561 0.19522 0.26307 0.0
C479 C 0.67255 0.1968 0.2764 0.0
P480 P 0.49342 0.01865 0.99426 0.0
H481 H 0.51861 0.97232 0.96347 0.0
H482 H 0.54047 0.96884 0.91612 0.0
H483 H 0.51782 0.05466 0.89779 0.0
H484 H 0.49538 0.05796 0.94498 0.0
H485 H 0.53178 0.06945 0.98901 0.0
H486 H 0.53269 0.11616 0.01277 0.0
H487 H 0.45239 0.09332 0.0531 0.0
H488 H 0.45085 0.0475 0.02885 0.0
H489 H 0.44515 0.00421 0.95532 0.0
H490 H 0.46695 0.99158 0.04385 0.0
O491 O 0.51735 0.0036 0.01519 0.0
H492 H 0.3984 0.97938 0.96297 0.0
H493 H 0.41995 0.96754 0.05163 0.0
C494 C 0.50609 0.01566 0.95804 0.0
C495 C 0.51806 0.9903 0.94917 0.0
C496 C 0.53045 0.98826 0.92217 0.0
C497 C 0.53104 0.0116 0.90362 0.0
C498 C 0.51772 0.03649 0.9119 0.0
C499 C 0.5051 0.03842 0.93887 0.0
C500 C 0.4912 0.05487 0.00689 0.0
C501 C 0.51398 0.07478 0.00237 0.0
C502 C 0.5146 0.10135 0.0161 0.0
C503 C 0.49302 0.10796 0.03551 0.0
C504 C 0.4697 0.08846 0.039 0.0
C505 C 0.46877 0.06223 0.02484 0.0
C506 C 0.4597 0.99917 0.99888 0.0
C507 C 0.44001 0.99591 0.97628 0.0
C508 C 0.41335 0.98191 0.98066 0.0
C509 C 0.40591 0.97152 0.00782 0.0
C510 C 0.42544 0.97523 0.03052 0.0
C511 C 0.45224 0.98877 0.026 0.0
Mn512 Mn 0.24677 0.87293 0.01948 0.0
Mn513 Mn 0.25522 0.90321 0.95507 0.0
C514 C 0.22833 0.8496 0.97896 0.0
C515 C 0.26376 0.84365 0.05538 0.0
C516 C 0.21585 0.92544 1.00087 0.0
O517 O 0.27976 0.90267 0.02547 0.0
O518 O 0.28819 0.91547 0.9796 0.0
C519 C 0.30678 0.87602 0.93375 0.0
N520 N 0.2786 0.88148 0.93072 0.0
C521 C 0.27629 0.85866 0.88461 0.0
C522 C 0.30526 0.85269 0.88726 0.0
C523 C 0.32052 0.86125 0.91203 0.0
C524 C 0.26363 0.87295 0.90718 0.0
H525 H 0.31867 0.88297 0.95256 0.0
C526 C 0.29469 0.91551 0.00621 0.0
O527 O 0.24576 0.86305 0.06107 0.0
O528 O 0.27249 0.84187 0.02929 0.0
N529 N 0.22455 0.89203 0.92949 0.0
C530 C 0.19618 0.89695 0.93143 0.0
C531 C 0.17775 0.88922 0.90861 0.0
C532 C 0.18862 0.87617 0.88419 0.0
C533 C 0.21771 0.87042 0.88308 0.0
C534 C 0.23505 0.87872 0.90643 0.0
H535 H 0.18757 0.90618 0.95045 0.0
O536 O 0.21817 0.84331 0.004 0.0
O537 O 0.24809 0.86981 0.97874 0.0
O538 O 0.2175 0.90419 0.01759 0.0
O539 O 0.23065 0.92772 0.97816 0.0
C540 C 0.23015 0.85663 0.85979 0.0
C541 C 0.25949 0.85101 0.86045 0.0
H542 H 0.31598 0.8415 0.87045 0.0
H543 H 0.34288 0.85673 0.91426 0.0
H544 H 0.15519 0.89309 0.90995 0.0
H545 H 0.17432 0.87012 0.86668 0.0
H546 H 0.21732 0.85008 0.84136 0.0
H547 H 0.26881 0.84036 0.84243 0.0
Mn548 Mn 0.14029 0.49878 0.25792 0.0
Mn549 Mn 0.10663 0.56098 0.25607 0.0
C550 C 0.16207 0.53877 0.23627 0.0
C551 C 0.17073 0.46695 0.27916 0.0
C552 C 0.09103 0.5107 0.21698 0.0
O553 O 0.10984 0.49354 0.28906 0.0
O554 O 0.09159 0.5371 0.28793 0.0
C555 C 0.128 0.58548 0.31105 0.0
N556 N 0.12485 0.58755 0.2822 0.0
C557 C 0.14745 0.63456 0.28231 0.0
C558 C 0.1508 0.633 0.31203 0.0
C559 C 0.14119 0.60827 0.32642 0.0
C560 C 0.13457 0.611 0.26807 0.0
H561 H 0.12052 0.56659 0.32225 0.0
C562 C 0.09352 0.51237 0.29887 0.0
O563 O 0.15128 0.45847 0.26081 0.0
O564 O 0.17187 0.49371 0.28623 0.0
N565 N 0.11931 0.58678 0.22681 0.0
C566 C 0.11385 0.58522 0.1982 0.0
C567 C 0.1219 0.60836 0.18074 0.0
C568 C 0.13515 0.63301 0.19289 0.0
C569 C 0.14009 0.63435 0.22242 0.0
C570 C 0.13141 0.6107 0.23879 0.0
H571 H 0.10333 0.56652 0.18871 0.0
O572 O 0.16967 0.51338 0.22972 0.0
O573 O 0.14183 0.53996 0.25501 0.0
O574 O 0.10977 0.49435 0.22649 0.0
O575 O 0.08701 0.53533 0.2275 0.0
C576 C 0.1529 0.6584 0.23632 0.0
C577 C 0.1566 0.6585 0.26624 0.0
H578 H 0.16084 0.6506 0.32398 0.0
H579 H 0.14381 0.60685 0.34934 0.0
H580 H 0.11787 0.60721 0.15797 0.0
H581 H 0.14137 0.65079 0.17934 0.0
H582 H 0.15996 0.67694 0.2242 0.0
H583 H 0.16664 0.67705 0.27666 0.0
Mn584 Mn 0.75064 0.62307 0.0125 0.0
Mn585 Mn 0.6947 0.64481 0.97436 0.0
C586 C 0.70942 0.59409 0.00955 0.0
C587 C 0.79405 0.60054 0.0139 0.0
C588 C 0.71286 0.67037 0.03211 0.0
O589 O 0.76744 0.65586 0.98831 0.0
O590 O 0.73025 0.66298 0.95851 0.0
C591 C 0.70535 0.61887 0.91797 0.0
N592 N 0.68802 0.62197 0.94091 0.0
C593 C 0.65022 0.59316 0.91865 0.0
C594 C 0.66762 0.58972 0.89472 0.0
C595 C 0.69537 0.6025 0.89446 0.0
C596 C 0.6614 0.60957 0.9415 0.0
H597 H 0.72657 0.6289 0.91759 0.0
C598 C 0.75625 0.66755 0.96661 0.0
O599 O 0.78774 0.61918 0.03315 0.0
O600 O 0.77564 0.59565 0.99345 0.0
N601 N 0.65894 0.62831 0.98746 0.0
C602 C 0.64614 0.63104 0.01329 0.0
C603 C 0.61863 0.61862 0.01757 0.0
C604 C 0.60473 0.60315 0.99537 0.0
C605 C 0.61864 0.59991 0.96921 0.0
C606 C 0.64595 0.61297 0.96614 0.0
H607 H 0.6572 0.64179 0.03081 0.0
O608 O 0.72806 0.59035 0.02965 0.0
O609 O 0.7159 0.61437 0.99161 0.0
O610 O 0.7307 0.65153 0.03829 0.0
O611 O 0.69965 0.67033 0.00819 0.0
C612 C 0.60667 0.58384 0.94622 0.0
C613 C 0.62243 0.58052 0.92093 0.0
H614 H 0.66001 0.57709 0.87656 0.0
H615 H 0.70898 0.59985 0.87612 0.0
H616 H 0.60835 0.62062 0.03807 0.0
H617 H 0.58361 0.59341 0.99883 0.0
H618 H 0.58554 0.57359 0.94792 0.0
H619 H 0.61319 0.56773 0.90359 0.0
Mn620 Mn 0.86917 0.00977 0.25466 0.0
Mn621 Mn 0.89072 0.94243 0.2568 0.0
C622 C 0.84098 0.97329 0.23403 0.0
C623 C 0.84435 0.04699 0.27418 0.0
C624 C 0.91823 0.98815 0.21871 0.0
O625 O 0.89985 0.01132 0.2861 0.0
O626 O 0.90873 0.96453 0.28886 0.0
C627 C 0.86308 0.92363 0.31057 0.0
N628 N 0.86681 0.92024 0.28194 0.0
C629 C 0.83526 0.87836 0.281 0.0
C630 C 0.83111 0.88136 0.31048 0.0
C631 C 0.84502 0.90415 0.3253 0.0
C632 C 0.8534 0.89851 0.26745 0.0
H633 H 0.87375 0.94113 0.32203 0.0
C634 C 0.91194 0.99035 0.29761 0.0
O635 O 0.86497 0.05168 0.25615 0.0
O636 O 0.83934 0.02091 0.28227 0.0
N637 N 0.87429 0.91874 0.22698 0.0
C638 C 0.87849 0.92029 0.19828 0.0
C639 C 0.86609 0.89905 0.1803 0.0
C640 C 0.8491 0.87669 0.19198 0.0
C641 C 0.84438 0.87599 0.22151 0.0
C642 C 0.85764 0.89752 0.23838 0.0
H643 H 0.89036 0.93809 0.1891 0.0
O644 O 0.83805 0.99945 0.22637 0.0
O645 O 0.86055 0.96947 0.25324 0.0
O646 O 0.90015 0.00698 0.22406 0.0
O647 O 0.91694 0.96358 0.23027 0.0
C648 C 0.82675 0.85497 0.2348 0.0
C649 C 0.82196 0.85629 0.26449 0.0
H650 H 0.8172 0.86637 0.32191 0.0
H651 H 0.84185 0.90667 0.34803 0.0
H652 H 0.86922 0.90019 0.15745 0.0
H653 H 0.83926 0.86054 0.17802 0.0
H654 H 0.81644 0.83791 0.22231 0.0
H655 H 0.80793 0.8403 0.27438 0.0
Mn656 Mn 0.25485 0.12173 0.51293 0.0
Mn657 Mn 0.19715 0.14526 0.47771 0.0
C658 C 0.21202 0.09447 0.51208 0.0
C659 C 0.29718 0.09722 0.51384 0.0
C660 C 0.21747 0.16875 0.53524 0.0
O661 O 0.27231 0.15283 0.48737 0.0
O662 O 0.2329 0.16463 0.46273 0.0
C663 C 0.2079 0.12214 0.41999 0.0
N664 N 0.19078 0.12376 0.44326 0.0
C665 C 0.15391 0.09407 0.4205 0.0
C666 C 0.17129 0.09191 0.39638 0.0
C667 C 0.19845 0.10595 0.39618 0.0
C668 C 0.16468 0.11017 0.44376 0.0
H669 H 0.22847 0.13331 0.41955 0.0
C670 C 0.25984 0.16698 0.46813 0.0
O671 O 0.29226 0.11687 0.5325 0.0
O672 O 0.27789 0.09224 0.49418 0.0
N673 N 0.16127 0.12836 0.48984 0.0
C674 C 0.14692 0.13296 0.51456 0.0
C675 C 0.1194 0.12036 0.51821 0.0
C676 C 0.10667 0.10366 0.49622 0.0
C677 C 0.12155 0.09977 0.47071 0.0
C678 C 0.14898 0.11276 0.46834 0.0
H679 H 0.15643 0.14604 0.53144 0.0
O680 O 0.23111 0.09062 0.53174 0.0
O681 O 0.2186 0.11414 0.49355 0.0
O682 O 0.23817 0.15232 0.53858 0.0
O683 O 0.20122 0.16808 0.5132 0.0
C684 C 0.11017 0.08369 0.44746 0.0
C685 C 0.12634 0.08083 0.42238 0.0
H686 H 0.164 0.07957 0.37791 0.0
H687 H 0.21197 0.1045 0.3776 0.0
H688 H 0.10798 0.12362 0.5379 0.0
H689 H 0.08537 0.09412 0.49908 0.0
H690 H 0.08901 0.07341 0.44865 0.0
H691 H 0.11744 0.06826 0.40473 0.0
Mn692 Mn 0.36314 0.508 0.75643 0.0
Mn693 Mn 0.38745 0.44155 0.75117 0.0
C694 C 0.33551 0.47211 0.7338 0.0
C695 C 0.33792 0.54254 0.77994 0.0
C696 C 0.40943 0.49109 0.71451 0.0
O697 O 0.39514 0.50848 0.78641 0.0
O698 O 0.40747 0.46279 0.78272 0.0
C699 C 0.36481 0.42039 0.80642 0.0
N700 N 0.3662 0.41797 0.77745 0.0
C701 C 0.33313 0.37721 0.77745 0.0
C702 C 0.33147 0.37918 0.80727 0.0
C703 C 0.34732 0.40092 0.8218 0.0
C704 C 0.35069 0.39741 0.76324 0.0
H705 H 0.37681 0.43714 0.81772 0.0
C706 C 0.40955 0.48747 0.79442 0.0
O707 O 0.35762 0.54931 0.7615 0.0
O708 O 0.33406 0.51578 0.78615 0.0
N709 N 0.36966 0.41797 0.722 0.0
C710 C 0.37567 0.41734 0.69361 0.0
C711 C 0.36209 0.39649 0.67599 0.0
C712 C 0.34329 0.37576 0.68794 0.0
C713 C 0.3387 0.37579 0.71749 0.0
C714 C 0.35281 0.39718 0.73392 0.0
H715 H 0.39135 0.43207 0.68465 0.0
O716 O 0.33122 0.49865 0.72869 0.0
O717 O 0.35603 0.4675 0.75172 0.0
O718 O 0.39275 0.50927 0.72455 0.0
O719 O 0.40961 0.46514 0.72281 0.0
C720 C 0.32112 0.3551 0.73132 0.0
C721 C 0.31808 0.35598 0.76126 0.0
H722 H 0.31808 0.36415 0.81922 0.0
H723 H 0.34605 0.40267 0.84481 0.0
H724 H 0.36645 0.39614 0.65332 0.0
H725 H 0.3329 0.35964 0.67432 0.0
H726 H 0.30993 0.33834 0.71914 0.0
H727 H 0.30436 0.34005 0.77164 0.0
Mn728 Mn 0.74904 0.37129 0.51874 0.0
Mn729 Mn 0.75378 0.40468 0.45523 0.0
C730 C 0.73262 0.34797 0.47726 0.0
C731 C 0.76874 0.34274 0.55378 0.0
C732 C 0.71021 0.41838 0.50064 0.0
O733 O 0.77805 0.40448 0.52657 0.0
O734 O 0.78288 0.42148 0.4821 0.0
C735 C 0.81097 0.38656 0.43818 0.0
N736 N 0.78243 0.38779 0.4327 0.0
C737 C 0.78735 0.3649 0.38708 0.0
C738 C 0.81679 0.36342 0.39218 0.0
C739 C 0.82862 0.37412 0.41794 0.0
C740 C 0.77073 0.37692 0.40832 0.0
H741 H 0.82021 0.395 0.45784 0.0
C742 C 0.79015 0.42128 0.50853 0.0
O743 O 0.74892 0.36018 0.5598 0.0
O744 O 0.77795 0.34275 0.52772 0.0
N745 N 0.72725 0.39021 0.42682 0.0
C746 C 0.69869 0.39424 0.42466 0.0
C747 C 0.68357 0.38469 0.40017 0.0
C748 C 0.69814 0.37188 0.37774 0.0
C749 C 0.7277 0.36879 0.38001 0.0
C750 C 0.74156 0.37842 0.40508 0.0
H751 H 0.6876 0.40509 0.44126 0.0
O752 O 0.72363 0.33956 0.50212 0.0
O753 O 0.75048 0.36989 0.47765 0.0
O754 O 0.71662 0.399 0.51815 0.0
O755 O 0.7232 0.42303 0.47703 0.0
C756 C 0.74406 0.35705 0.35813 0.0
C757 C 0.77387 0.35515 0.36166 0.0
H758 H 0.83052 0.35413 0.37646 0.0
H759 H 0.85132 0.37301 0.42207 0.0
H760 H 0.66082 0.38754 0.39842 0.0
H761 H 0.68645 0.36472 0.35878 0.0
H762 H 0.73393 0.34942 0.33848 0.0
H763 H 0.78622 0.34602 0.3447 0.0
Mn764 Mn 0.64207 1.00119 0.75826 0.0
Mn765 Mn 0.61711 0.06759 0.76074 0.0
C766 C 0.66851 0.03914 0.73846 0.0
C767 C 0.66928 0.96564 0.77776 0.0
C768 C 0.59528 0.02216 0.7182 0.0
O769 O 0.61142 0.9975 0.78895 0.0
O770 O 0.59714 0.04265 0.78931 0.0
C771 C 0.63911 0.08225 0.81875 0.0
N772 N 0.63808 0.08795 0.79027 0.0
C773 C 0.67142 0.12815 0.79612 0.0
C774 C 0.67272 0.12273 0.82548 0.0
C775 C 0.65654 0.09963 0.83683 0.0
C776 C 0.65387 0.10992 0.7791 0.0
H777 H 0.62682 0.06451 0.82767 0.0
C778 C 0.59631 0.01716 0.79885 0.0
O779 O 0.64907 0.95958 0.75927 0.0
O780 O 0.67242 0.99189 0.7862 0.0
N781 N 0.63491 0.09473 0.73523 0.0
C782 C 0.62887 0.09914 0.70719 0.0
C783 C 0.64338 0.12133 0.6925 0.0
C784 C 0.6628 0.13984 0.70723 0.0
C785 C 0.66684 0.13644 0.73667 0.0
C786 C 0.65206 0.11362 0.75001 0.0
H787 H 0.61229 0.08656 0.69645 0.0
O788 O 0.67269 0.01317 0.73072 0.0
O789 O 0.64882 0.04209 0.75761 0.0
O790 O 0.61119 0.0026 0.72696 0.0
O791 O 0.59566 0.04735 0.72899 0.0
C792 C 0.6845 0.15514 0.75339 0.0
C793 C 0.6869 0.15091 0.78307 0.0
H794 H 0.6861 0.13614 0.83951 0.0
H795 H 0.65748 0.09524 0.85946 0.0
H796 H 0.6391 0.12456 0.67004 0.0
H797 H 0.67382 0.15708 0.69591 0.0
H798 H 0.69618 0.17296 0.74368 0.0
H799 H 0.70064 0.16536 0.79569 0.0
Mn800 Mn 0.00847 0.25466 0.8813 0.0
Mn801 Mn 0.94168 0.24579 0.90778 0.0
C802 C 0.97285 0.23055 0.85453 0.0
C803 C 0.04285 0.28217 0.8556 0.0
C804 C 0.99222 0.21326 0.92924 0.0
O805 O 0.00761 0.28485 0.91274 0.0
O806 O 0.96092 0.28066 0.92507 0.0
C807 C 0.91507 0.29671 0.8844 0.0
N808 N 0.91583 0.26788 0.88639 0.0
C809 C 0.87475 0.26127 0.85547 0.0
C810 C 0.87374 0.29088 0.85285 0.0
C811 C 0.89397 0.30868 0.86742 0.0
C812 C 0.89635 0.25057 0.87261 0.0
H813 H 0.93042 0.31049 0.89568 0.0
C814 C 0.98587 0.29322 0.92627 0.0
O815 O 0.04997 0.26326 0.87407 0.0
O816 O 0.01559 0.28468 0.85215 0.0
N817 N 0.92097 0.21327 0.89188 0.0
C818 C 0.92492 0.18514 0.89651 0.0
C819 C 0.90616 0.16453 0.88377 0.0
C820 C 0.88345 0.17304 0.86657 0.0
C821 C 0.87964 0.2021 0.86234 0.0
C822 C 0.8989 0.22168 0.87573 0.0
H823 H 0.94228 0.1784 0.90974 0.0
O824 O 0.99964 0.22664 0.84953 0.0
O825 O 0.96801 0.24767 0.87559 0.0
O826 O 0.01031 0.22303 0.91107 0.0
O827 O 0.9665 0.22122 0.93058 0.0
C828 C 0.85759 0.21239 0.84523 0.0
C829 C 0.85523 0.24195 0.84166 0.0
H830 H 0.8575 0.30019 0.83976 0.0
H831 H 0.89329 0.33156 0.86559 0.0
H832 H 0.90926 0.14214 0.88713 0.0
H833 H 0.86915 0.15708 0.85661 0.0
H834 H 0.84241 0.19774 0.83458 0.0
H835 H 0.83832 0.24959 0.82824 0.0
Mn836 Mn 0.50459 0.74996 0.37702 0.0
Mn837 Mn 0.43749 0.74539 0.40335 0.0
C838 C 0.46785 0.72601 0.35165 0.0
C839 C 0.53992 0.7716 0.34837 0.0
C840 C 0.48535 0.71004 0.42572 0.0
O841 O 0.50557 0.78225 0.40638 0.0
O842 O 0.45982 0.77793 0.42163 0.0
C843 C 0.41778 0.79944 0.3797 0.0
N844 N 0.41471 0.7706 0.382 0.0
C845 C 0.37437 0.76884 0.34979 0.0
C846 C 0.37703 0.79853 0.34719 0.0
C847 C 0.39886 0.81388 0.36219 0.0
C848 C 0.39388 0.75561 0.36751 0.0
H849 H 0.43466 0.81136 0.39096 0.0
C850 C 0.48477 0.79051 0.42144 0.0
O851 O 0.54649 0.75497 0.36919 0.0
O852 O 0.5132 0.77709 0.34536 0.0
N853 N 0.41349 0.71542 0.38694 0.0
C854 C 0.41364 0.68691 0.39195 0.0
C855 C 0.39282 0.66857 0.37892 0.0
C856 C 0.37196 0.67974 0.36104 0.0
C857 C 0.37198 0.70918 0.35655 0.0
C858 C 0.39302 0.72644 0.37042 0.0
H859 H 0.42958 0.67817 0.4057 0.0
O860 O 0.49427 0.71996 0.34759 0.0
O861 O 0.46383 0.74491 0.3713 0.0
O862 O 0.50458 0.72046 0.40906 0.0
O863 O 0.45951 0.7178 0.42548 0.0
C864 C 0.35197 0.72205 0.33881 0.0
C865 C 0.35327 0.75185 0.33528 0.0
H866 H 0.36252 0.80974 0.33365 0.0
H867 H 0.40114 0.83678 0.36018 0.0
H868 H 0.39293 0.64588 0.38253 0.0
H869 H 0.35611 0.6655 0.35081 0.0
H870 H 0.33557 0.70922 0.32765 0.0
H871 H 0.33793 0.76148 0.32136 0.0
Mn872 Mn 0.00451 0.74715 0.6336 0.0
Mn873 Mn 0.97557 0.68677 0.663 0.0
C874 C 0.0069 0.70394 0.60924 0.0
C875 C 0.00207 0.7883 0.60629 0.0
C876 C 0.03264 0.71456 0.68187 0.0
O877 O 0.97897 0.76219 0.66506 0.0
O878 O 0.9589 0.72066 0.68057 0.0
C879 C 0.91679 0.692 0.64053 0.0
N880 N 0.9406 0.67664 0.64335 0.0
C881 C 0.91814 0.63689 0.61798 0.0
C882 C 0.89333 0.65221 0.61492 0.0
C883 C 0.89274 0.67998 0.62606 0.0
C884 C 0.9417 0.65028 0.63195 0.0
H885 H 0.91616 0.71327 0.64926 0.0
C886 C 0.96163 0.74784 0.68101 0.0
O887 O 0.02128 0.78588 0.62605 0.0
O888 O 0.98315 0.76736 0.60318 0.0
N889 N 0.98875 0.65156 0.64853 0.0
C890 C 0.01319 0.63859 0.65565 0.0
C891 C 0.01704 0.61054 0.64663 0.0
C892 C 0.99508 0.59552 0.63162 0.0
C893 C 0.96953 0.60873 0.62565 0.0
C894 C 0.96707 0.63687 0.63496 0.0
H895 H 0.02897 0.64895 0.6694 0.0
O896 O 0.02396 0.72551 0.60304 0.0
O897 O 0.98832 0.70849 0.62918 0.0
O898 O 0.03303 0.73455 0.66366 0.0
O899 O 0.01218 0.69563 0.68403 0.0
C900 C 0.94603 0.59471 0.61177 0.0
C901 C 0.92039 0.60883 0.6078 0.0
H902 H 0.87462 0.64288 0.60406 0.0
H903 H 0.87371 0.69198 0.62371 0.0
H904 H 0.03645 0.60017 0.6522 0.0
H905 H 0.99768 0.57351 0.62572 0.0
H906 H 0.94741 0.57302 0.60416 0.0
H907 H 0.9025 0.5979 0.59697 0.0
Mn908 Mn 0.50102 0.25155 0.13362 0.0
Mn909 Mn 0.47474 0.19092 0.16416 0.0
C910 C 0.50237 0.20869 0.1086 0.0
C911 C 0.49487 0.29225 0.10653 0.0
C912 C 0.53226 0.21982 0.18023 0.0
O913 O 0.47763 0.26589 0.1671 0.0
O914 O 0.45736 0.22428 0.1822 0.0
C915 C 0.41501 0.19387 0.1436 0.0
N916 N 0.43956 0.17952 0.14552 0.0
C917 C 0.41846 0.13981 0.11903 0.0
C918 C 0.3929 0.15408 0.1169 0.0
C919 C 0.39123 0.1813 0.1291 0.0
C920 C 0.44161 0.15364 0.13325 0.0
H921 H 0.41361 0.21478 0.15299 0.0
C922 C 0.46041 0.25146 0.1831 0.0
O923 O 0.51591 0.2907 0.12454 0.0
O924 O 0.47632 0.27084 0.1055 0.0
N925 N 0.48894 0.15645 0.14902 0.0
C926 C 0.51431 0.14458 0.15488 0.0
C927 C 0.51929 0.11715 0.14466 0.0
C928 C 0.49772 0.1017 0.12946 0.0
C929 C 0.47125 0.11372 0.12496 0.0
C930 C 0.46763 0.14126 0.13543 0.0
H931 H 0.53025 0.15554 0.16806 0.0
O932 O 0.51854 0.23054 0.1013 0.0
O933 O 0.48544 0.21284 0.13004 0.0
O934 O 0.53198 0.23926 0.16138 0.0
O935 O 0.51173 0.20122 0.18394 0.0
C936 C 0.44805 0.09912 0.11118 0.0
C937 C 0.4218 0.11232 0.10781 0.0
H938 H 0.37443 0.14434 0.10596 0.0
H939 H 0.37162 0.19251 0.12746 0.0
H940 H 0.53953 0.10775 0.14894 0.0
H941 H 0.50156 0.08046 0.12176 0.0
H942 H 0.45017 0.0777 0.1031 0.0
H943 H 0.40422 0.10098 0.09687 0.0
C944 C 0.19655 0.80673 0.91601 0.0
C945 C 0.21978 0.78963 0.90895 0.0
C946 C 0.24849 0.81205 0.9475 0.0
C947 C 0.22499 0.8286 0.9552 0.0
N948 N 0.17433 0.83551 0.95204 0.0
N949 N 0.2638 0.76953 0.92389 0.0
C950 C 0.19817 0.82374 0.9413 0.0
C951 C 0.24456 0.79038 0.92649 0.0
N952 N 0.1737 0.8081 0.89784 0.0
N953 N 0.2747 0.81679 0.96015 0.0
H954 H 0.26095 0.75254 0.90956 0.0
H955 H 0.28081 0.76723 0.93803 0.0
H956 H 0.2786 0.83082 0.97709 0.0
H957 H 0.29323 0.8081 0.95243 0.0
H958 H 0.15742 0.82218 0.90068 0.0
H959 H 0.17221 0.79708 0.87848 0.0
H960 H 0.15374 0.83031 0.94449 0.0
H961 H 0.17492 0.84894 0.96986 0.0
C962 C 0.03414 0.51583 0.35373 0.0
C963 C 0.04772 0.50566 0.37855 0.0
C964 C 0.09144 0.49896 0.35115 0.0
C965 C 0.07714 0.50687 0.32571 0.0
N966 N 0.03277 0.51705 0.30216 0.0
N967 N 0.08667 0.48092 0.39932 0.0
C968 C 0.04778 0.51343 0.32684 0.0
C969 C 0.07551 0.495 0.37671 0.0
N970 N 0.00891 0.52919 0.35592 0.0
N971 N 0.12053 0.49742 0.35172 0.0
H972 H 0.0755 0.47743 0.41829 0.0
H973 H 0.10567 0.47029 0.39813 0.0
H974 H 0.13347 0.50191 0.33415 0.0
H975 H 0.13215 0.49464 0.37047 0.0
H976 H 0.99975 0.53993 0.33903 0.0
H977 H 0.99835 0.53184 0.37523 0.0
H978 H 0.01067 0.51882 0.30148 0.0
H979 H 0.04205 0.51555 0.28215 0.0
C980 C 0.78763 0.73877 0.94091 0.0
C981 C 0.79602 0.73104 0.91295 0.0
C982 C 0.78548 0.68064 0.92377 0.0
C983 C 0.77354 0.68879 0.95015 0.0
N984 N 0.76171 0.72526 0.98384 0.0
N985 N 0.80239 0.69518 0.87689 0.0
C986 C 0.77452 0.71775 0.95891 0.0
C987 C 0.79506 0.70205 0.9042 0.0
N988 N 0.79238 0.7662 0.95024 0.0
N989 N 0.78787 0.65239 0.9177 0.0
H990 H 0.81037 0.71023 0.86234 0.0
H991 H 0.79913 0.67493 0.86804 0.0
H992 H 0.7811 0.63635 0.93178 0.0
H993 H 0.79861 0.64482 0.90003 0.0
H994 H 0.78959 0.77265 0.9713 0.0
H995 H 0.80131 0.7823 0.9374 0.0
H996 H 0.75848 0.74621 0.98984 0.0
H997 H 0.75272 0.71037 0.99798 0.0
C998 C 0.97768 0.98176 0.34239 0.0
C999 C 0.96822 0.99008 0.36985 0.0
C1000 C 0.92235 0.00322 0.34914 0.0
C1001 C 0.93223 0.99545 0.32171 0.0
N1002 N 0.9717 0.98539 0.29115 0.0
N1003 N 0.93457 0.01469 0.39852 0.0
C1004 C 0.96078 0.98748 0.31805 0.0
C1005 C 0.94149 0.00282 0.37293 0.0
N1006 N 0.00184 0.96672 0.33964 0.0
N1007 N 0.89437 0.00946 0.35274 0.0
H1008 H 0.9482 0.01472 0.41625 0.0
H1009 H 0.91664 0.02665 0.40145 0.0
H1010 H 0.8799 0.01042 0.33578 0.0
H1011 H 0.88504 0.01195 0.37267 0.0
H1012 H 0.00784 0.95737 0.3205 0.0
H1013 H 0.01459 0.96121 0.35688 0.0
H1014 H 0.99322 0.98238 0.28714 0.0
H1015 H 0.95981 0.98962 0.27286 0.0
C1016 C 0.20513 0.20291 0.60834 0.0
C1017 C 0.19946 0.23105 0.60018 0.0
C1018 C 0.20917 0.21924 0.55022 0.0
C1019 C 0.212 0.19024 0.55787 0.0
N1020 N 0.2076 0.15364 0.59386 0.0
N1021 N 0.19139 0.26511 0.56306 0.0
C1022 C 0.20876 0.18184 0.58688 0.0
C1023 C 0.20013 0.23895 0.57102 0.0
N1024 N 0.20758 0.19644 0.63665 0.0
N1025 N 0.21628 0.22833 0.52339 0.0
H1026 H 0.185 0.28036 0.57765 0.0
H1027 H 0.18814 0.27082 0.54187 0.0
H1028 H 0.22325 0.21489 0.5074 0.0
H1029 H 0.21791 0.24971 0.5177 0.0
H1030 H 0.21494 0.1772 0.64393 0.0
H1031 H 0.20451 0.2112 0.65294 0.0
H1032 H 0.20196 0.14614 0.61404 0.0
H1033 H 0.2097 0.13741 0.57895 0.0
C1034 C 0.45128 0.49791 0.64517 0.0
C1035 C 0.47279 0.5189 0.65272 0.0
C1036 C 0.45337 0.521 0.70128 0.0
C1037 C 0.43078 0.50133 0.69304 0.0
N1038 N 0.4035 0.47878 0.65474 0.0
N1039 N 0.4907 0.55495 0.68602 0.0
C1040 C 0.4284 0.49186 0.6643 0.0
C1041 C 0.47288 0.53171 0.68029 0.0
N1042 N 0.45297 0.48323 0.62001 0.0
N1043 N 0.45645 0.52922 0.72921 0.0
H1044 H 0.50491 0.56379 0.67108 0.0
H1045 H 0.4896 0.5671 0.70461 0.0
H1046 H 0.4418 0.5232 0.74498 0.0
H1047 H 0.47448 0.54054 0.73715 0.0
H1048 H 0.43935 0.46576 0.61484 0.0
H1049 H 0.46959 0.48678 0.60554 0.0
H1050 H 0.39956 0.47365 0.63335 0.0
H1051 H 0.38558 0.47627 0.66771 0.0
C1052 C 0.7687 0.28699 0.61276 0.0
C1053 C 0.79802 0.28084 0.61383 0.0
C1054 C 0.80877 0.31844 0.57887 0.0
C1055 C 0.77897 0.3221 0.57514 0.0
N1056 N 0.73034 0.30479 0.58425 0.0
N1057 N 0.84573 0.28784 0.5952 0.0
C1058 C 0.75882 0.30518 0.59109 0.0
C1059 C 0.81805 0.29586 0.59622 0.0
N1060 N 0.75028 0.27556 0.6326 0.0
N1061 N 0.82828 0.33698 0.56653 0.0
H1062 H 0.85347 0.27165 0.60779 0.0
H1063 H 0.86046 0.29569 0.58028 0.0
H1064 H 0.82249 0.35374 0.55364 0.0
H1065 H 0.8501 0.33733 0.5711 0.0
H1066 H 0.72927 0.28163 0.63469 0.0
H1067 H 0.75679 0.26207 0.64876 0.0
H1068 H 0.71523 0.29063 0.59328 0.0
H1069 H 0.7221 0.31619 0.56733 0.0
C1070 C 0.56322 0.02636 0.64349 0.0
C1071 C 0.54188 0.00399 0.64386 0.0
C1072 C 0.55315 0.99548 0.69443 0.0
C1073 C 0.57663 0.01569 0.69279 0.0
N1074 N 0.60863 0.04349 0.6627 0.0
N1075 N 0.5189 0.96439 0.66857 0.0
C1076 C 0.58288 0.02934 0.6665 0.0
C1077 C 0.53732 0.9878 0.66911 0.0
N1078 N 0.56452 0.04513 0.62132 0.0
N1079 N 0.54582 0.98384 0.72017 0.0
H1080 H 0.5071 0.95809 0.65046 0.0
H1081 H 0.51694 0.94997 0.68531 0.0
H1082 H 0.5575 0.98825 0.73883 0.0
H1083 H 0.52711 0.97142 0.7234 0.0
H1084 H 0.57811 0.06334 0.62142 0.0
H1085 H 0.54998 0.04416 0.60431 0.0
H1086 H 0.61553 0.05138 0.64303 0.0
H1087 H 0.62422 0.04454 0.67861 0.0
C1088 C 0.91954 0.23849 0.79321 0.0
C1089 C 0.91142 0.20959 0.78754 0.0
C1090 C 0.94435 0.19432 0.82486 0.0
C1091 C 0.951 0.22325 0.83208 0.0
N1092 N 0.9448 0.27334 0.82347 0.0
N1093 N 0.91215 0.16016 0.80039 0.0
C1094 C 0.9384 0.24547 0.81646 0.0
C1095 C 0.92276 0.18754 0.80403 0.0
N1096 N 0.91034 0.25918 0.77537 0.0
N1097 N 0.95895 0.17329 0.83763 0.0
H1098 H 0.8963 0.15448 0.78537 0.0
H1099 H 0.91711 0.14352 0.81382 0.0
H1100 H 0.97382 0.17725 0.85399 0.0
H1101 H 0.95757 0.15212 0.83096 0.0
H1102 H 0.91804 0.28028 0.77591 0.0
H1103 H 0.89614 0.25501 0.75844 0.0
H1104 H 0.93332 0.29023 0.81602 0.0
H1105 H 0.9608 0.2799 0.83788 0.0
C1106 C 0.47692 0.8427 0.48262 0.0
C1107 C 0.48622 0.86883 0.46992 0.0
C1108 C 0.49588 0.84353 0.42523 0.0
C1109 C 0.48858 0.81717 0.43865 0.0
N1110 N 0.47981 0.79144 0.48222 0.0
N1111 N 0.51169 0.89292 0.43171 0.0
C1112 C 0.48144 0.81672 0.46804 0.0
C1113 C 0.49795 0.86887 0.442 0.0
N1114 N 0.46267 0.84266 0.508 0.0
N1115 N 0.49926 0.84478 0.39628 0.0
H1116 H 0.51423 0.91172 0.44356 0.0
H1117 H 0.52308 0.89329 0.41265 0.0
H1118 H 0.49727 0.827 0.38292 0.0
H1119 H 0.50143 0.8639 0.3852 0.0
H1120 H 0.45289 0.82436 0.5167 0.0
H1121 H 0.45825 0.86123 0.51905 0.0
H1122 H 0.47709 0.78992 0.50424 0.0
H1123 H 0.48459 0.77235 0.47234 0.0
C1124 C 0.07065 0.31355 0.78722 0.0
C1125 C 0.09984 0.30678 0.7883 0.0
C1126 C 0.09411 0.29227 0.83844 0.0
C1127 C 0.06433 0.2971 0.8363 0.0
N1128 N 0.03033 0.3277 0.81484 0.0
N1129 N 0.14122 0.29616 0.81645 0.0
C1130 C 0.05435 0.31247 0.81258 0.0
C1131 C 0.11218 0.29797 0.81442 0.0
N1132 N 0.05811 0.32016 0.76184 0.0
N1133 N 0.10522 0.28336 0.8637 0.0
H1134 H 0.15493 0.30057 0.7994 0.0
H1135 H 0.15215 0.29196 0.83524 0.0
H1136 H 0.09445 0.28538 0.88297 0.0
H1137 H 0.12536 0.27515 0.86591 0.0
H1138 H 0.03615 0.32244 0.75965 0.0
H1139 H 0.06908 0.32069 0.74251 0.0
H1140 H 0.02328 0.34081 0.79864 0.0
H1141 H 0.02029 0.33083 0.83436 0.0
C1142 C 0.52312 0.64582 0.45411 0.0
C1143 C 0.51387 0.64482 0.48287 0.0
C1144 C 0.48569 0.68682 0.47475 0.0
C1145 C 0.49341 0.68668 0.44536 0.0
N1146 N 0.51217 0.65999 0.40592 0.0
N1147 N 0.48066 0.65975 0.51847 0.0
C1148 C 0.50998 0.66437 0.43469 0.0
C1149 C 0.49337 0.6639 0.49253 0.0
N1150 N 0.54519 0.62988 0.44545 0.0
N1151 N 0.47232 0.70936 0.48626 0.0
H1152 H 0.48541 0.64295 0.53189 0.0
H1153 H 0.46341 0.67116 0.52536 0.0
H1154 H 0.46627 0.72674 0.47445 0.0
H1155 H 0.46944 0.71201 0.50814 0.0
H1156 H 0.55475 0.63219 0.42551 0.0
H1157 H 0.55572 0.61628 0.45904 0.0
H1158 H 0.52173 0.64241 0.39714 0.0
H1159 H 0.50152 0.67193 0.39089 0.0
C1160 C 0.90676 0.79729 0.71189 0.0
C1161 C 0.90579 0.78791 0.74062 0.0
C1162 C 0.9442 0.75547 0.73104 0.0
C1163 C 0.94341 0.7629 0.70162 0.0
N1164 N 0.92034 0.78714 0.66312 0.0
N1165 N 0.92105 0.756 0.7772 0.0
C1166 C 0.92389 0.78301 0.69179 0.0
C1167 C 0.92384 0.76644 0.75009 0.0
N1168 N 0.8914 0.81996 0.70388 0.0
N1169 N 0.965 0.73853 0.74102 0.0
H1170 H 0.90732 0.76426 0.79228 0.0
H1171 H 0.93081 0.73786 0.78425 0.0
H1172 H 0.97985 0.72924 0.7279 0.0
H1173 H 0.96905 0.73538 0.76263 0.0
H1174 H 0.89366 0.82991 0.68416 0.0
H1175 H 0.87791 0.83026 0.7178 0.0
H1176 H 0.90435 0.79919 0.65449 0.0
H1177 H 0.93169 0.77644 0.64765 0.0
C1178 C 0.03484 0.84064 0.55297 0.0
C1179 C 0.01192 0.85869 0.54799 0.0
C1180 C 0.98247 0.83158 0.58265 0.0
C1181 C 0.00459 0.81214 0.58565 0.0
N1182 N 0.04927 0.79466 0.56887 0.0
N1183 N 0.96278 0.86985 0.55516 0.0
C1184 C 0.03011 0.81574 0.56953 0.0
C1185 C 0.98536 0.85375 0.56202 0.0
N1186 N 0.06139 0.84761 0.54232 0.0
N1187 N 0.95927 0.82948 0.60021 0.0
H1188 H 0.96445 0.88664 0.54071 0.0
H1189 H 0.94201 0.86544 0.56225 0.0
H1190 H 0.95656 0.81353 0.61545 0.0
H1191 H 0.94382 0.84467 0.60121 0.0
H1192 H 0.07965 0.83707 0.548 0.0
H1193 H 0.06578 0.86554 0.52979 0.0
H1194 H 0.06661 0.79472 0.55504 0.0
H1195 H 0.04633 0.7756 0.57995 0.0
C1196 C 0.08151 0.7275 0.74657 0.0
C1197 C 0.10592 0.71292 0.73807 0.0
C1198 C 0.08114 0.69697 0.69413 0.0
C1199 C 0.05762 0.71348 0.70153 0.0
N1200 N 0.03828 0.74965 0.7315 0.0
N1201 N 0.13105 0.6875 0.70184 0.0
C1202 C 0.05854 0.73016 0.7269 0.0
C1203 C 0.10625 0.69845 0.71141 0.0
N1204 N 0.08019 0.73849 0.77358 0.0
N1205 N 0.07962 0.68012 0.67033 0.0
H1206 H 0.14997 0.68809 0.71376 0.0
H1207 H 0.13368 0.67976 0.6812 0.0
H1208 H 0.06253 0.68033 0.65614 0.0
H1209 H 0.09426 0.6648 0.66559 0.0
H1210 H 0.0618 0.74684 0.78201 0.0
H1211 H 0.09671 0.73691 0.78848 0.0
H1212 H 0.03931 0.76432 0.74826 0.0
H1213 H 0.02196 0.75316 0.71686 0.0
C1214 C 0.03001 0.63892 0.56715 0.0
C1215 C 0.00325 0.62809 0.55637 0.0
C1216 C 0.98021 0.66993 0.5756 0.0
C1217 C 0.00588 0.67811 0.59052 0.0
N1218 N 0.05603 0.67138 0.59927 0.0
N1219 N 0.95227 0.63223 0.55133 0.0
C1220 C 0.03107 0.66299 0.58577 0.0
C1221 C 0.97819 0.64344 0.56065 0.0
N1222 N 0.0546 0.62695 0.55843 0.0
N1223 N 0.95815 0.68798 0.57477 0.0
H1224 H 0.94971 0.61258 0.541 0.0
H1225 H 0.93289 0.6412 0.55585 0.0
H1226 H 0.95904 0.70788 0.58475 0.0
H1227 H 0.94002 0.68456 0.562 0.0
H1228 H 0.07504 0.63555 0.56294 0.0
H1229 H 0.05469 0.60975 0.54427 0.0
H1230 H 0.07379 0.6589 0.60036 0.0
H1231 H 0.05874 0.69041 0.61058 0.0
C1232 C 0.77705 0.92029 0.24073 0.0
C1233 C 0.77411 0.91054 0.21209 0.0
C1234 C 0.81348 0.94348 0.1975 0.0
C1235 C 0.81837 0.95123 0.22653 0.0
N1236 N 0.80471 0.94757 0.27617 0.0
N1237 N 0.79193 0.90919 0.16398 0.0
C1238 C 0.80023 0.93963 0.24829 0.0
C1239 C 0.79292 0.92122 0.19065 0.0
N1240 N 0.75668 0.91231 0.26034 0.0
N1241 N 0.82841 0.95745 0.17639 0.0
H1242 H 0.77745 0.89254 0.15829 0.0
H1243 H 0.80709 0.9138 0.14829 0.0
H1244 H 0.845 0.97253 0.18047 0.0
H1245 H 0.82335 0.95522 0.15478 0.0
H1246 H 0.75555 0.92101 0.28076 0.0
H1247 H 0.73931 0.89834 0.25564 0.0
H1248 H 0.79525 0.93695 0.29337 0.0
H1249 H 0.81894 0.9641 0.28255 0.0
C1250 C 0.77814 0.08981 0.28666 0.0
C1251 C 0.79109 0.11699 0.29284 0.0
C1252 C 0.83823 0.0962 0.29365 0.0
C1253 C 0.82569 0.07019 0.28296 0.0
N1254 N 0.78365 0.04376 0.26482 0.0
N1255 N 0.83394 0.14707 0.29918 0.0
C1256 C 0.79557 0.06721 0.27856 0.0
C1257 C 0.82128 0.12047 0.29575 0.0
N1258 N 0.74913 0.08554 0.28871 0.0
N1259 N 0.86616 0.09753 0.30248 0.0
H1260 H 0.82237 0.16541 0.30078 0.0
H1261 H 0.85597 0.1512 0.29815 0.0
H1262 H 0.87895 0.07995 0.30189 0.0
H1263 H 0.87571 0.1151 0.31303 0.0
H1264 H 0.73875 0.06549 0.28729 0.0
H1265 H 0.73575 0.10165 0.29468 0.0
H1266 H 0.76231 0.04211 0.25829 0.0
H1267 H 0.79543 0.02708 0.2573 0.0
C1268 C 0.37505 0.92668 0.01288 0.0
C1269 C 0.37746 0.95689 0.01241 0.0
C1270 C 0.32534 0.95907 0.01717 0.0
C1271 C 0.3228 0.92912 0.01393 0.0
N1272 N 0.34417 0.88379 0.00916 0.0
N1273 N 0.35583 0.00233 0.01514 0.0
C1274 C 0.34742 0.91269 0.01246 0.0
C1275 C 0.35283 0.97325 0.01518 0.0
N1276 N 0.39924 0.91143 0.01353 0.0
N1277 N 0.30132 0.97373 0.02228 0.0
H1278 H 0.37572 0.01332 0.01521 0.0
H1279 H 0.33882 0.01574 0.01403 0.0
H1280 H 0.28105 0.96363 0.02385 0.0
H1281 H 0.30144 0.99537 0.027 0.0
H1282 H 0.39922 0.88961 0.01699 0.0
H1283 H 0.41981 0.92082 0.01229 0.0
H1284 H 0.36076 0.87067 0.00426 0.0
H1285 H 0.32432 0.87278 0.01015 0.0
C1286 C 0.21075 0.41329 0.32325 0.0
C1287 C 0.23531 0.4101 0.30605 0.0
C1288 C 0.21647 0.44272 0.27059 0.0
C1289 C 0.19294 0.44752 0.28873 0.0
N1290 N 0.16858 0.43987 0.33333 0.0
N1291 N 0.264 0.42488 0.26572 0.0
C1292 C 0.19038 0.43355 0.31542 0.0
C1293 C 0.23881 0.42563 0.28032 0.0
N1294 N 0.2065 0.39626 0.34655 0.0
N1295 N 0.21723 0.45412 0.24379 0.0
H1296 H 0.28078 0.41242 0.27196 0.0
H1297 H 0.26928 0.43824 0.24872 0.0
H1298 H 0.20192 0.46762 0.23618 0.0
H1299 H 0.23186 0.44863 0.22827 0.0
H1300 H 0.18775 0.39532 0.3584 0.0
H1301 H 0.22105 0.38136 0.35294 0.0
H1302 H 0.16715 0.433 0.35438 0.0
H1303 H 0.15263 0.45353 0.32761 0.0
C1304 C 0.16235 0.03834 0.47622 0.0
C1305 C 0.14259 0.03199 0.49842 0.0
C1306 C 0.16766 0.06741 0.52948 0.0
C1307 C 0.18807 0.07293 0.5076 0.0
N1308 N 0.20925 0.05782 0.46342 0.0
N1309 N 0.12908 0.03641 0.54774 0.0
C1310 C 0.18673 0.05667 0.48192 0.0
C1311 C 0.14599 0.04539 0.52554 0.0
N1312 N 0.15734 0.02759 0.44934 0.0
N1313 N 0.16842 0.08389 0.55363 0.0
H1314 H 0.11302 0.02039 0.54557 0.0
H1315 H 0.13237 0.04309 0.56878 0.0
H1316 H 0.18392 0.10015 0.55717 0.0
H1317 H 0.1524 0.08323 0.56895 0.0
H1318 H 0.16947 0.03366 0.43165 0.0
H1319 H 0.13935 0.01469 0.44398 0.0
H1320 H 0.21074 0.04425 0.44589 0.0
H1321 H 0.2279 0.07034 0.46699 0.0
C1322 C 0.71662 0.09114 0.69596 0.0
C1323 C 0.73361 0.10377 0.71818 0.0
C1324 C 0.7076 0.07471 0.75373 0.0
C1325 C 0.69035 0.06202 0.73144 0.0
N1326 N 0.68356 0.05281 0.68098 0.0
N1327 N 0.74287 0.11166 0.76823 0.0
C1328 C 0.69619 0.06883 0.70243 0.0
C1329 C 0.7284 0.09669 0.74709 0.0
N1330 N 0.71962 0.101 0.66866 0.0
N1331 N 0.70561 0.06429 0.78091 0.0
H1332 H 0.75848 0.12764 0.76405 0.0
H1333 H 0.73789 0.11012 0.7898 0.0
H1334 H 0.69145 0.04765 0.78677 0.0
H1335 H 0.71956 0.07039 0.79745 0.0
H1336 H 0.70547 0.09542 0.6521 0.0
H1337 H 0.73492 0.11675 0.66295 0.0
H1338 H 0.68914 0.05466 0.65957 0.0
H1339 H 0.66938 0.03556 0.68464 0.0
C1340 C 0.35598 0.05252 0.5443 0.0
C1341 C 0.37313 0.04865 0.51983 0.0
C1342 C 0.34174 0.07858 0.49191 0.0
C1343 C 0.32322 0.08032 0.5157 0.0
N1344 N 0.30948 0.06357 0.56254 0.0
N1345 N 0.37952 0.05343 0.469 0.0
C1346 C 0.32945 0.06582 0.54138 0.0
C1347 C 0.36517 0.06034 0.49321 0.0
N1348 N 0.36544 0.04432 0.57054 0.0
N1349 N 0.3378 0.0953 0.46857 0.0
H1350 H 0.39668 0.04004 0.46907 0.0
H1351 H 0.37283 0.05883 0.44856 0.0
H1352 H 0.32133 0.10942 0.46702 0.0
H1353 H 0.35238 0.0972 0.4519 0.0
H1354 H 0.35538 0.04949 0.58953 0.0
H1355 H 0.38475 0.03452 0.57362 0.0
H1356 H 0.31166 0.05073 0.5804 0.0
H1357 H 0.28939 0.07215 0.56096 0.0
C1358 C 0.67313 0.47989 0.53562 0.0
C1359 C 0.64524 0.47632 0.52354 0.0
C1360 C 0.65899 0.43234 0.49992 0.0
C1361 C 0.68765 0.43785 0.50909 0.0
N1362 N 0.72299 0.46816 0.53354 0.0
N1363 N 0.61266 0.45154 0.49078 0.0
C1364 C 0.69501 0.46205 0.5263 0.0
C1365 C 0.63843 0.45317 0.50473 0.0
N1366 N 0.67839 0.49945 0.55697 0.0
N1367 N 0.65117 0.40675 0.48755 0.0
H1368 H 0.59715 0.46652 0.4936 0.0
H1369 H 0.60767 0.43683 0.47459 0.0
H1370 H 0.66558 0.39079 0.48453 0.0
H1371 H 0.63004 0.40033 0.48289 0.0
H1372 H 0.69737 0.50095 0.56872 0.0
H1373 H 0.66285 0.51256 0.56483 0.0
H1374 H 0.7302 0.48729 0.54301 0.0
H1375 H 0.73942 0.45485 0.52837 0.0
C1376 C 0.7508 0.2931 0.4208 0.0
C1377 C 0.72522 0.29128 0.40436 0.0
C1378 C 0.70283 0.3227 0.43892 0.0
C1379 C 0.72982 0.32835 0.45227 0.0
N1380 N 0.78038 0.31964 0.455 0.0
N1381 N 0.67768 0.30739 0.39572 0.0
C1382 C 0.75409 0.31385 0.44286 0.0
C1383 C 0.70128 0.30666 0.413 0.0
N1384 N 0.77145 0.27397 0.41624 0.0
N1385 N 0.67871 0.33275 0.45085 0.0
H1386 H 0.6761 0.29705 0.37599 0.0
H1387 H 0.66077 0.32048 0.39961 0.0
H1388 H 0.67918 0.34522 0.46933 0.0
H1389 H 0.65813 0.3269 0.4437 0.0
H1390 H 0.78929 0.27231 0.42943 0.0
H1391 H 0.76924 0.2576 0.40114 0.0
H1392 H 0.79927 0.31277 0.44621 0.0
H1393 H 0.78378 0.33278 0.47276 0.0
C1394 C 0.57789 0.01209 0.87754 0.0
C1395 C 0.54752 0.01072 0.87648 0.0
C1396 C 0.54891 0.01206 0.82404 0.0
C1397 C 0.57924 0.01174 0.8251 0.0
N1398 N 0.62258 0.00693 0.85265 0.0
N1399 N 0.50394 0.00423 0.8491 0.0
C1400 C 0.59367 0.01005 0.8518 0.0
C1401 C 0.53296 0.00916 0.84979 0.0
N1402 N 0.59172 0.01705 0.90305 0.0
N1403 N 0.53538 0.0158 0.79848 0.0
H1404 H 0.49166 0.00206 0.86754 0.0
H1405 H 0.49232 0.99994 0.83041 0.0
H1406 H 0.54626 0.01691 0.77912 0.0
H1407 H 0.51371 0.01957 0.79658 0.0
H1408 H 0.61363 0.02171 0.90484 0.0
H1409 H 0.58107 0.01905 0.9224 0.0
H1410 H 0.63367 0.00206 0.8712 0.0
H1411 H 0.6354 0.00713 0.83454 0.0
C1412 C 0.29601 0.23711 0.44454 0.0
C1413 C 0.29662 0.23223 0.41457 0.0
C1414 C 0.28263 0.18197 0.42216 0.0
C1415 C 0.27704 0.18805 0.45116 0.0
N1416 N 0.27962 0.22068 0.491 0.0
N1417 N 0.28885 0.20043 0.37432 0.0
C1418 C 0.28439 0.21538 0.46275 0.0
C1419 C 0.28974 0.20468 0.40322 0.0
N1420 N 0.30716 0.26227 0.45556 0.0
N1421 N 0.28211 0.15431 0.41307 0.0
H1422 H 0.29393 0.21651 0.35971 0.0
H1423 H 0.28093 0.18158 0.3648 0.0
H1424 H 0.27838 0.13733 0.42703 0.0
H1425 H 0.28837 0.14817 0.39273 0.0
H1426 H 0.30994 0.26623 0.47731 0.0
H1427 H 0.3159 0.27856 0.44282 0.0
H1428 H 0.28092 0.24094 0.50011 0.0
H1429 H 0.27313 0.20474 0.50526 0.0
C1430 C 0.47561 0.47707 0.83925 0.0
C1431 C 0.46622 0.48507 0.86678 0.0
C1432 C 0.42006 0.49786 0.84658 0.0
C1433 C 0.42989 0.49083 0.81884 0.0
N1434 N 0.46923 0.48032 0.78807 0.0
N1435 N 0.43249 0.50886 0.896 0.0
C1436 C 0.45844 0.48264 0.815 0.0
C1437 C 0.43939 0.49743 0.87019 0.0
N1438 N 0.50016 0.46267 0.83633 0.0
N1439 N 0.39188 0.503 0.8508 0.0
H1440 H 0.44613 0.50863 0.9137 0.0
H1441 H 0.41453 0.52075 0.89913 0.0
H1442 H 0.37682 0.50316 0.83434 0.0
H1443 H 0.38287 0.5049 0.87096 0.0
H1444 H 0.5062 0.45326 0.81724 0.0
H1445 H 0.51343 0.45796 0.85345 0.0
H1446 H 0.49077 0.47756 0.78395 0.0
H1447 H 0.45717 0.48376 0.76974 0.0
C1448 C 0.6803 0.73075 0.07638 0.0
C1449 C 0.70124 0.73431 0.09823 0.0
C1450 C 0.73196 0.70288 0.07184 0.0
C1451 C 0.70881 0.69432 0.05319 0.0
N1452 N 0.65885 0.70099 0.03967 0.0
N1453 N 0.74572 0.72041 0.11885 0.0
C1454 C 0.68241 0.70851 0.05587 0.0
C1455 C 0.72664 0.71929 0.09664 0.0
N1456 N 0.65901 0.74961 0.07418 0.0
N1457 N 0.75949 0.69738 0.06488 0.0
H1458 H 0.74249 0.73207 0.13748 0.0
H1459 H 0.76328 0.70758 0.11976 0.0
H1460 H 0.76508 0.68882 0.04522 0.0
H1461 H 0.7771 0.70518 0.07676 0.0
H1462 H 0.64521 0.75017 0.05665 0.0
H1463 H 0.65697 0.76669 0.0882 0.0
H1464 H 0.63842 0.70718 0.04493 0.0
H1465 H 0.65865 0.68823 0.02164 0.0
C1466 C 0.96699 0.9919 0.15366 0.0
C1467 C 0.98129 0.01881 0.15775 0.0
C1468 C 0.9574 0.02387 0.20397 0.0
C1469 C 0.94311 0.99664 0.19988 0.0
N1470 N 0.9455 0.95057 0.17652 0.0
N1471 N 0.99506 0.05791 0.18914 0.0
C1472 C 0.95111 0.97931 0.17645 0.0
C1473 C 0.97786 0.03415 0.18358 0.0
N1474 N 0.96819 0.97844 0.12777 0.0
N1475 N 0.952 0.03963 0.2278 0.0
H1476 H 0.01016 0.0661 0.17472 0.0
H1477 H 0.99602 0.06841 0.20877 0.0
H1478 H 0.94118 0.03123 0.24546 0.0
H1479 H 0.95795 0.06113 0.23004 0.0
H1480 H 0.95553 0.96029 0.1226 0.0
H1481 H 0.97976 0.98688 0.11057 0.0
H1482 H 0.95272 0.93704 0.1607 0.0
H1483 H 0.93803 0.93953 0.19428 0.0
C1484 C 0.29617 0.8099 0.12148 0.0
C1485 C 0.29096 0.78062 0.11485 0.0
C1486 C 0.2643 0.79321 0.07186 0.0
C1487 C 0.27202 0.82238 0.07684 0.0
N1488 N 0.29782 0.85867 0.10449 0.0
N1489 N 0.27333 0.74399 0.08208 0.0
C1490 C 0.28848 0.83085 0.10128 0.0
C1491 C 0.2759 0.77216 0.08958 0.0
N1492 N 0.30812 0.81762 0.14726 0.0
N1493 N 0.24492 0.78565 0.05084 0.0
H1494 H 0.28082 0.72777 0.0948 0.0
H1495 H 0.26575 0.73679 0.06224 0.0
H1496 H 0.23549 0.80043 0.0377 0.0
H1497 H 0.23605 0.76509 0.04815 0.0
H1498 H 0.30978 0.83852 0.15475 0.0
H1499 H 0.31451 0.80278 0.16221 0.0
H1500 H 0.31246 0.86575 0.12009 0.0
H1501 H 0.29253 0.87453 0.09018 0.0
C1502 C 0.07092 0.49869 0.13894 0.0
C1503 C 0.04072 0.49529 0.14062 0.0
C1504 C 0.04355 0.4985 0.19292 0.0
C1505 C 0.07386 0.50155 0.19126 0.0
N1506 N 0.11653 0.4965 0.16307 0.0
N1507 N 0.99824 0.48721 0.16867 0.0
C1508 C 0.0876 0.49905 0.16441 0.0
C1509 C 0.02699 0.49381 0.16751 0.0
N1510 N 0.08367 0.50284 0.11298 0.0
N1511 N 0.03073 0.49986 0.21894 0.0
H1512 H 0.98558 0.48391 0.15042 0.0
H1513 H 0.98715 0.48313 0.18749 0.0
H1514 H 0.04246 0.49974 0.23787 0.0
H1515 H 0.00885 0.50156 0.22183 0.0
H1516 H 0.10516 0.50913 0.11063 0.0
H1517 H 0.07234 0.5024 0.09372 0.0
H1518 H 0.12719 0.4916 0.14436 0.0
H1519 H 0.12973 0.49625 0.18097 0.0
C1520 C 0.41821 0.73369 0.28744 0.0
C1521 C 0.4072 0.70528 0.28388 0.0
C1522 C 0.4376 0.69004 0.32335 0.0
C1523 C 0.44619 0.71888 0.329 0.0
N1524 N 0.44341 0.76883 0.31717 0.0
N1525 N 0.40263 0.65712 0.30112 0.0
C1526 C 0.43593 0.74091 0.31142 0.0
C1527 C 0.41593 0.68361 0.30253 0.0
N1528 N 0.41328 0.75345 0.26686 0.0
N1529 N 0.45018 0.66874 0.33779 0.0
H1530 H 0.38621 0.65181 0.28661 0.0
H1531 H 0.40588 0.64125 0.31605 0.0
H1532 H 0.46488 0.67257 0.35434 0.0
H1533 H 0.44729 0.6473 0.33229 0.0
H1534 H 0.4235 0.77358 0.26637 0.0
H1535 H 0.401 0.74899 0.24859 0.0
H1536 H 0.43312 0.78571 0.30801 0.0
H1537 H 0.45867 0.77549 0.33229 0.0
C1538 C 0.99457 0.35085 0.984 0.0
C1539 C 0.98566 0.37477 0.96847 0.0
C1540 C 0.98218 0.34598 0.92461 0.0
C1541 C 0.98826 0.32144 0.94065 0.0
N1542 N 1.00002 0.29968 0.98524 0.0
N1543 N 0.96772 0.39481 0.925 0.0
C1544 C 0.99444 0.32366 0.97029 0.0
C1545 C 0.97865 0.37226 0.93901 0.0
N1546 N 0.00386 0.35437 0.0116 0.0
N1547 N 0.98049 0.34427 0.89546 0.0
H1548 H 0.96516 0.41454 0.9347 0.0
H1549 H 0.95906 0.3934 0.90448 0.0
H1550 H 0.98266 0.32535 0.88412 0.0
H1551 H 0.9793 0.36193 0.88229 0.0
H1552 H 0.01334 0.33862 0.02337 0.0
H1553 H 0.00369 0.37384 0.02239 0.0
H1554 H 1.00133 0.29886 0.00741 0.0
H1555 H 0.00245 0.2801 0.97525 0.0
C1556 C 0.57575 0.78193 0.27615 0.0
C1557 C 0.60127 0.79752 0.28407 0.0
C1558 C 0.58581 0.79796 0.33414 0.0
C1559 C 0.56125 0.78067 0.32646 0.0
N1560 N 0.53575 0.75138 0.29114 0.0
N1561 N 0.63275 0.81759 0.32055 0.0
C1562 C 0.55695 0.77142 0.29771 0.0
C1563 C 0.60697 0.80468 0.31311 0.0
N1564 N 0.56922 0.77751 0.2479 0.0
N1565 N 0.58829 0.80892 0.3612 0.0
H1566 H 0.6483 0.82347 0.30556 0.0
H1567 H 0.63956 0.82071 0.34158 0.0
H1568 H 0.5731 0.80458 0.37699 0.0
H1569 H 0.6041 0.82402 0.36745 0.0
H1570 H 0.54926 0.76966 0.24068 0.0
H1571 H 0.58297 0.7836 0.23136 0.0
H1572 H 0.53372 0.74133 0.27131 0.0
H1573 H 0.52169 0.74264 0.30617 0.0
C1574 C 0.02757 0.14742 0.95775 0.0
C1575 C 0.02189 0.14947 0.98738 0.0
C1576 C 0.99727 0.19373 0.97931 0.0
C1577 C 1.00136 0.19078 0.94936 0.0
N1578 N 0.01379 0.16053 0.90989 0.0
N1579 N 0.99593 0.17082 0.02558 0.0
C1580 C 0.01465 0.16638 0.93851 0.0
C1581 C 0.00506 0.1715 0.9979 0.0
N1582 N 0.04605 0.12795 0.94802 0.0
N1583 N 0.98724 0.2183 0.99031 0.0
H1584 H 1.00112 0.15483 0.0398 0.0
H1585 H 0.98104 0.1845 0.03366 0.0
H1586 H 0.98123 0.23519 0.97773 0.0
H1587 H 0.98717 0.22298 0.01208 0.0
H1588 H 0.05354 0.12767 0.92712 0.0
H1589 H 0.05578 0.11355 0.96137 0.0
H1590 H 0.02051 0.14159 0.90112 0.0
H1591 H 0.00354 0.17317 0.89518 0.0
C1592 C 0.42347 0.26959 0.25286 0.0
C1593 C 0.4062 0.29197 0.24406 0.0
C1594 C 0.42389 0.28761 0.19501 0.0
C1595 C 0.44268 0.26652 0.2042 0.0
N1596 N 0.4637 0.24068 0.24293 0.0
N1597 N 0.39294 0.32551 0.20824 0.0
C1598 C 0.44336 0.25839 0.23343 0.0
C1599 C 0.40742 0.30204 0.21558 0.0
N1600 N 0.42042 0.25857 0.27971 0.0
N1601 N 0.42039 0.29263 0.16649 0.0
H1602 H 0.37989 0.33595 0.22249 0.0
H1603 H 0.39553 0.3359 0.18879 0.0
H1604 H 0.43127 0.28198 0.15063 0.0
H1605 H 0.40479 0.30544 0.15831 0.0
H1606 H 0.42952 0.23987 0.2862 0.0
H1607 H 0.4071 0.26695 0.29509 0.0
H1608 H 0.46766 0.23689 0.26444 0.0
H1609 H 0.47837 0.23144 0.22955 0.0
C1610 C 0.50523 0.36724 0.07778 0.0
C1611 C 0.5032 0.36214 0.04794 0.0
C1612 C 0.49259 0.31141 0.05633 0.0
C1613 C 0.49396 0.31647 0.08632 0.0
N1614 N 0.49365 0.35013 0.12531 0.0
N1615 N 0.4866 0.33157 0.00928 0.0
C1616 C 0.49774 0.34475 0.09696 0.0
C1617 C 0.49394 0.33493 0.03744 0.0
N1618 N 0.51557 0.39307 0.08782 0.0
N1619 N 0.49234 0.28428 0.04561 0.0
H1620 H 0.48734 0.34847 0.99492 0.0
H1621 H 0.47704 0.31283 1.00095 0.0
H1622 H 0.49264 0.26618 0.05825 0.0
H1623 H 0.49467 0.27976 0.02397 0.0
H1624 H 0.52068 0.39697 0.10921 0.0
H1625 H 0.52088 0.41015 0.07446 0.0
H1626 H 0.49358 0.37059 0.13392 0.0
H1627 H 0.48738 0.3342 0.1397 0.0
C1628 C 0.60786 0.20573 0.20571 0.0
C1629 C 0.60766 0.21773 0.23359 0.0
C1630 C 0.55899 0.23328 0.22543 0.0
C1631 C 0.55811 0.21883 0.19874 0.0
N1632 N 0.58053 0.18885 0.16445 0.0
N1633 N 0.58169 0.23874 0.27198 0.0
C1634 C 0.5822 0.20422 0.18925 0.0
C1635 C 0.58276 0.23021 0.24407 0.0
N1636 N 0.63291 0.19706 0.19438 0.0
N1637 N 0.53784 0.25111 0.23232 0.0
H1638 H 0.59874 0.23677 0.28619 0.0
H1639 H 0.56313 0.24535 0.28165 0.0
H1640 H 0.52094 0.25495 0.21848 0.0
H1641 H 0.53858 0.26429 0.25029 0.0
H1642 H 0.63517 0.19128 0.17304 0.0
H1643 H 0.65223 0.19782 0.20562 0.0
H1644 H 0.59591 0.17491 0.158 0.0
H1645 H 0.56258 0.18855 0.15129 0.0
C1646 C 0.52007 0.13957 0.07125 0.0
C1647 C 0.49561 0.13437 0.05353 0.0
C1648 C 0.47459 0.17718 0.07334 0.0
C1649 C 0.5 0.18318 0.08956 0.0
N1650 N 0.55027 0.17504 0.0956 0.0
N1651 N 0.4527 0.15212 0.03274 0.0
C1652 C 0.52383 0.16601 0.08582 0.0
C1653 C 0.47362 0.15423 0.05325 0.0
N1654 N 0.53905 0.11877 0.07553 0.0
N1655 N 0.45158 0.19372 0.07658 0.0
H1656 H 0.45209 0.1365 0.01682 0.0
H1657 H 0.43766 0.16745 0.02962 0.0
H1658 H 0.4521 0.21218 0.08903 0.0
H1659 H 0.43137 0.18819 0.06827 0.0
H1660 H 0.55578 0.12076 0.09032 0.0
H1661 H 0.53617 0.09828 0.06706 0.0
H1662 H 0.56874 0.16433 0.09115 0.0
H1663 H 0.5543 0.19483 0.10522 0.0
C1664 C 0.27172 0.41902 0.73929 0.0
C1665 C 0.26896 0.40948 0.71055 0.0
C1666 C 0.30822 0.44288 0.69664 0.0
C1667 C 0.31317 0.44998 0.7258 0.0
N1668 N 0.30049 0.44385 0.7755 0.0
N1669 N 0.28761 0.40855 0.66268 0.0
C1670 C 0.29531 0.43758 0.74732 0.0
C1671 C 0.28802 0.42042 0.68941 0.0
N1672 N 0.25078 0.41179 0.75856 0.0
N1673 N 0.32256 0.45778 0.6758 0.0
H1674 H 0.27369 0.39151 0.65681 0.0
H1675 H 0.30291 0.4136 0.64723 0.0
H1676 H 0.33789 0.47399 0.68029 0.0
H1677 H 0.31769 0.4556 0.65415 0.0
H1678 H 0.2498 0.42062 0.77894 0.0
H1679 H 0.23272 0.39892 0.75343 0.0
H1680 H 0.29098 0.4324 0.79217 0.0
H1681 H 0.31559 0.45933 0.78251 0.0
C1682 C 0.27193 0.58437 0.79633 0.0
C1683 C 0.2852 0.61136 0.80272 0.0
C1684 C 0.33204 0.59006 0.80292 0.0
C1685 C 0.31924 0.56456 0.79135 0.0
N1686 N 0.27671 0.53857 0.7737 0.0
N1687 N 0.32838 0.6408 0.80984 0.0
C1688 C 0.28903 0.56175 0.78757 0.0
C1689 C 0.3154 0.61444 0.80577 0.0
N1690 N 0.24292 0.58041 0.79862 0.0
N1691 N 0.36 0.59079 0.8116 0.0
H1692 H 0.31707 0.65925 0.81201 0.0
H1693 H 0.35045 0.64469 0.80887 0.0
H1694 H 0.37252 0.57303 0.8104 0.0
H1695 H 0.36981 0.60793 0.82263 0.0
H1696 H 0.23227 0.56051 0.79697 0.0
H1697 H 0.22985 0.59663 0.80504 0.0
H1698 H 0.25527 0.53718 0.7675 0.0
H1699 H 0.28816 0.52175 0.76596 0.0
C1700 C 0.86411 0.44864 0.53517 0.0
C1701 C 0.87001 0.46825 0.5128 0.0
C1702 C 0.81923 0.46618 0.50022 0.0
C1703 C 0.81483 0.4413 0.51694 0.0
N1704 N 0.83257 0.41163 0.55476 0.0
N1705 N 0.85299 0.49456 0.47241 0.0
C1706 C 0.83695 0.43353 0.53609 0.0
C1707 C 0.84744 0.4771 0.49513 0.0
N1708 N 0.88418 0.4452 0.55607 0.0
N1709 N 0.79625 0.47944 0.48936 0.0
H1710 H 0.87349 0.50238 0.46719 0.0
H1711 H 0.83752 0.49911 0.45721 0.0
H1712 H 0.77526 0.47251 0.49389 0.0
H1713 H 0.79805 0.49895 0.47891 0.0
H1714 H 0.8803 0.43349 0.57455 0.0
H1715 H 0.90398 0.45636 0.55628 0.0
H1716 H 0.84917 0.40184 0.56517 0.0
H1717 H 0.81244 0.40344 0.56045 0.0
C1718 C 0.74026 0.93189 0.79238 0.0
C1719 C 0.73093 0.90446 0.80187 0.0
C1720 C 0.68094 0.91804 0.79848 0.0
C1721 C 0.69027 0.94439 0.78622 0.0
N1722 N 0.72872 0.97359 0.76564 0.0
N1723 N 0.69252 0.86972 0.81048 0.0
C1724 C 0.71992 0.95061 0.78163 0.0
C1725 C 0.70126 0.89703 0.80395 0.0
N1726 N 0.76856 0.94042 0.79432 0.0
N1727 N 0.65292 0.91354 0.80597 0.0
H1728 H 0.70682 0.85393 0.81489 0.0
H1729 H 0.67127 0.86215 0.80935 0.0
H1730 H 0.63759 0.92861 0.80271 0.0
H1731 H 0.64536 0.89601 0.81765 0.0
H1732 H 0.77608 0.9613 0.79081 0.0
H1733 H 0.78426 0.92737 0.80202 0.0
H1734 H 0.74978 0.97728 0.75904 0.0
H1735 H 0.71469 0.9874 0.75632 0.0
C1736 C 0.64441 0.54362 0.02206 0.0
C1737 C 0.64111 0.53093 0.9946 0.0
C1738 C 0.68485 0.5566 0.9786 0.0
C1739 C 0.68585 0.57235 0.00457 0.0
N1740 N 0.66649 0.58157 0.05119 0.0
N1741 N 0.65597 0.52775 0.94543 0.0
C1742 C 0.66574 0.56587 0.02649 0.0
C1743 C 0.66077 0.53805 0.97251 0.0
N1744 N 0.6278 0.5337 0.04412 0.0
N1745 N 0.7075 0.55837 0.96026 0.0
H1746 H 0.63806 0.51487 0.93975 0.0
H1747 H 0.6682 0.53414 0.92791 0.0
H1748 H 0.72599 0.57103 0.9642 0.0
H1749 H 0.70925 0.54518 0.94248 0.0
H1750 H 0.63108 0.53983 0.06532 0.0
H1751 H 0.61205 0.51742 0.04163 0.0
H1752 H 0.65062 0.58012 0.06665 0.0
H1753 H 0.68174 0.59801 0.05523 0.0
C1754 C 0.2108 0.60603 0.241 0.0
C1755 C 0.21842 0.60977 0.21194 0.0
C1756 C 0.1832 0.57169 0.19871 0.0
C1757 C 0.18017 0.56419 0.22789 0.0
N1758 N 0.19384 0.57326 0.27723 0.0
N1759 N 0.19288 0.61116 0.16726 0.0
C1760 C 0.19446 0.58127 0.24923 0.0
C1761 C 0.19953 0.59677 0.1914 0.0
N1762 N 0.21622 0.62768 0.26007 0.0
N1763 N 0.17018 0.5553 0.17786 0.0
H1764 H 0.1986 0.63277 0.16515 0.0
H1765 H 0.1779 0.60348 0.1522 0.0
H1766 H 0.15654 0.53784 0.18236 0.0
H1767 H 0.17423 0.5584 0.1562 0.0
H1768 H 0.2095 0.627 0.28123 0.0
H1769 H 0.22412 0.6477 0.25346 0.0
H1770 H 0.2063 0.58366 0.29298 0.0
H1771 H 0.18302 0.55482 0.28439 0.0
C1772 C 0.87265 0.58302 0.021 0.0
C1773 C 0.8706 0.55287 0.0186 0.0
C1774 C 0.81828 0.55402 0.01654 0.0
C1775 C 0.82048 0.58427 0.01588 0.0
N1776 N 0.84999 0.62756 0.01268 0.0
N1777 N 0.84195 0.50979 0.00952 0.0
C1778 C 0.84774 0.59881 0.01691 0.0
C1779 C 0.84353 0.53839 0.01508 0.0
N1780 N 0.8983 0.59652 0.02791 0.0
N1781 N 0.79216 0.5402 0.01989 0.0
H1782 H 0.85995 0.49755 0.0085 0.0
H1783 H 0.82308 0.49864 0.00353 0.0
H1784 H 0.77318 0.55078 0.02187 0.0
H1785 H 0.78957 0.51841 0.02356 0.0
H1786 H 0.90052 0.6181 0.033 0.0
H1787 H 0.91701 0.5857 0.031 0.0
H1788 H 0.86946 0.63888 0.01009 0.0
H1789 H 0.83233 0.63982 0.00911 0.0
C1790 C 0.17368 0.97372 0.04921 0.0
C1791 C 0.15474 0.98593 0.02955 0.0
C1792 C 0.17921 0.96332 0.98961 0.0
C1793 C 0.19699 0.94917 0.00954 0.0
N1794 N 0.21822 0.95064 0.05669 0.0
N1795 N 0.13673 0.99006 0.9816 0.0
C1796 C 0.19609 0.95701 0.03897 0.0
C1797 C 0.15677 0.98007 0.99994 0.0
N1798 N 0.16955 0.9772 0.07788 0.0
N1799 N 0.18481 0.96297 0.96098 0.0
H1800 H 0.12107 0.0038 0.98792 0.0
H1801 H 0.13407 0.983 0.9606 0.0
H1802 H 0.20216 0.95374 0.95175 0.0
H1803 H 0.17441 0.9753 0.94615 0.0
H1804 H 0.18027 0.966 0.09342 0.0
H1805 H 0.15352 0.98946 0.08622 0.0
H1806 H 0.22041 0.95813 0.07759 0.0
H1807 H 0.23646 0.94096 0.0495 0.0
loop_
_geom_bond_atom_site_label_1
_geom_bond_atom_site_label_2
_geom_bond_distance
_geom_bond_site_symmetry_2
_ccdc_geom_bond_type
P0 O11 1.490 . S
P0 C14 1.812 . S
P0 C20 1.803 . S
P0 C26 1.819 . S
H1 C15 0.941 . S
H2 C16 0.939 . S
H3 C18 0.940 . S
H4 C19 0.940 . S
H5 C21 0.939 . S
H6 C22 0.942 . S
H7 C24 0.940 . S
H8 C25 0.941 . S
H9 C27 0.941 . S
H10 C31 0.939 . S
O11 P0 1.490 . S
H12 C28 0.939 . S
H13 C30 0.940 . S
C14 P0 1.812 . S
C14 C15 1.389 . S
C14 C19 1.391 . S
C15 H1 0.941 . S
C15 C14 1.389 . S
C15 C16 1.397 . S
C16 H2 0.939 . S
C16 C15 1.397 . S
C16 C17 1.378 1_455 S
C17 C16 1.378 1_655 S
C17 C18 1.378 . S
C18 H3 0.940 . S
C18 C17 1.378 . S
C18 C19 1.396 1_655 S
C19 H4 0.940 . S
C19 C14 1.391 . S
C19 C18 1.396 1_455 S
C20 P0 1.803 . S
C20 C21 1.378 . S
C20 C25 1.378 1_545 S
C21 H5 0.939 . S
C21 C20 1.378 . S
C21 C22 1.361 . S
C22 H6 0.942 . S
C22 C21 1.361 . S
C22 C23 1.369 1_545 S
C23 C22 1.369 1_565 S
C23 C24 1.404 . S
C24 H7 0.940 . S
C24 C23 1.404 . S
C24 C25 1.410 . S
C25 H8 0.941 . S
C25 C20 1.378 1_565 S
C25 C24 1.410 . S
C26 P0 1.819 . S
C26 C27 1.391 . S
C26 C31 1.391 . S
C27 H9 0.941 . S
C27 C26 1.391 . S
C27 C28 1.396 . S
C28 H12 0.939 . S
C28 C27 1.396 . S
C28 C29 1.397 1_554 S
C29 C28 1.397 1_556 S
C29 C30 1.385 . S
C30 H13 0.940 . S
C30 C29 1.385 . S
C30 C31 1.388 1_556 S
C31 H10 0.939 . S
C31 C26 1.391 . S
C31 C30 1.388 1_554 S
P32 O43 1.490 . S
P32 C46 1.812 . S
P32 C52 1.803 . S
P32 C58 1.819 . S
H33 C47 0.941 . S
H34 C48 0.939 . S
H35 C50 0.940 . S
H36 C51 0.940 . S
H37 C53 0.939 . S
H38 C54 0.942 . S
H39 C56 0.940 . S
H40 C57 0.939 . S
H41 C59 0.941 . S
H42 C63 0.939 . S
O43 P32 1.490 . S
H44 C60 0.939 . S
H45 C62 0.940 . S
C46 P32 1.812 . S
C46 C47 1.389 . S
C46 C51 1.391 . S
C47 H33 0.941 . S
C47 C46 1.389 . S
C47 C48 1.397 . S
C48 H34 0.939 . S
C48 C47 1.397 . S
C48 C49 1.378 . S
C49 C48 1.378 . S
C49 C50 1.378 . S
C50 H35 0.940 . S
C50 C49 1.378 . S
C50 C51 1.396 . S
C51 H36 0.940 . S
C51 C46 1.391 . S
C51 C50 1.396 . S
C52 P32 1.803 . S
C52 C53 1.378 . S
C52 C57 1.400 . S
C53 H37 0.939 . S
C53 C52 1.378 . S
C53 C54 1.361 . S
C54 H38 0.942 . S
C54 C53 1.361 . S
C54 C55 1.369 . S
C55 C54 1.369 . S
C55 C56 1.404 . S
C56 H39 0.940 . S
C56 C55 1.404 . S
C56 C57 1.389 . S
C57 H40 0.939 . S
C57 C52 1.400 . S
C57 C56 1.389 . S
C58 P32 1.819 . S
C58 C59 1.391 . S
C58 C63 1.391 . S
C59 H41 0.941 . S
C59 C58 1.391 . S
C59 C60 1.396 . S
C60 H44 0.939 . S
C60 C59 1.396 . S
C60 C61 1.397 . S
C61 C60 1.397 . S
C61 C62 1.385 . S
C62 H45 0.940 . S
C62 C61 1.385 . S
C62 C63 1.388 . S
C63 H42 0.939 . S
C63 C58 1.391 . S
C63 C62 1.388 . S
P64 O75 1.490 1_654 S
P64 C78 1.812 1_554 S
P64 C84 1.803 . S
P64 C90 1.819 1_655 S
H65 C79 0.941 . S
H66 C80 0.939 . S
H67 C82 0.940 . S
H68 C83 0.940 . S
H69 C85 0.939 . S
H70 C86 0.942 . S
H71 C88 0.940 . S
H72 C89 0.939 . S
H73 C91 0.941 . S
H74 C95 0.939 . S
O75 P64 1.490 1_456 S
H76 C92 0.939 . S
H77 C94 0.940 . S
C78 P64 1.812 1_556 S
C78 C79 1.388 . S
C78 C83 1.392 1_556 S
C79 H65 0.941 . S
C79 C78 1.388 . S
C79 C80 1.397 . S
C80 H66 0.939 . S
C80 C79 1.397 . S
C80 C81 1.378 . S
C81 C80 1.378 . S
C81 C82 1.378 1_556 S
C82 H67 0.940 . S
C82 C81 1.378 1_554 S
C82 C83 1.396 . S
C83 H68 0.940 . S
C83 C78 1.392 1_554 S
C83 C82 1.396 . S
C84 P64 1.803 . S
C84 C85 1.378 . S
C84 C89 1.400 . S
C85 H69 0.939 . S
C85 C84 1.378 . S
C85 C86 1.361 . S
C86 H70 0.942 . S
C86 C85 1.361 . S
C86 C87 1.369 . S
C87 C86 1.369 . S
C87 C88 1.404 . S
C88 H71 0.940 . S
C88 C87 1.404 . S
C88 C89 1.389 . S
C89 H72 0.939 . S
C89 C84 1.400 . S
C89 C88 1.389 . S
C90 P64 1.819 1_455 S
C90 C91 1.391 . S
C90 C95 1.391 1_455 S
C91 H73 0.941 . S
C91 C90 1.391 . S
C91 C92 1.396 . S
C92 H76 0.939 . S
C92 C91 1.396 . S
C92 C93 1.397 . S
C93 C92 1.397 . S
C93 C94 1.385 1_455 S
C94 H77 0.940 . S
C94 C93 1.385 1_655 S
C94 C95 1.388 . S
C95 H74 0.939 . S
C95 C90 1.391 1_655 S
C95 C94 1.388 . S
P96 O107 1.490 . S
P96 C110 1.812 . S
P96 C116 1.803 . S
P96 C122 1.819 . S
H97 C111 0.941 . S
H98 C112 0.939 . S
H99 C114 0.940 . S
H100 C115 0.940 . S
H101 C117 0.939 . S
H102 C118 0.942 . S
H103 C120 0.940 . S
H104 C121 0.939 . S
H105 C123 0.941 . S
H106 C127 0.939 . S
O107 P96 1.490 . S
H108 C124 0.939 . S
H109 C126 0.940 . S
C110 P96 1.812 . S
C110 C111 1.389 . S
C110 C115 1.391 . S
C111 H97 0.941 . S
C111 C110 1.389 . S
C111 C112 1.397 . S
C112 H98 0.939 . S
C112 C111 1.397 . S
C112 C113 1.378 . S
C113 C112 1.378 . S
C113 C114 1.378 . S
C114 H99 0.940 . S
C114 C113 1.378 . S
C114 C115 1.396 . S
C115 H100 0.940 . S
C115 C110 1.391 . S
C115 C114 1.396 . S
C116 P96 1.803 . S
C116 C117 1.378 . S
C116 C121 1.400 . S
C117 H101 0.939 . S
C117 C116 1.378 . S
C117 C118 1.361 . S
C118 H102 0.942 . S
C118 C117 1.361 . S
C118 C119 1.369 . S
C119 C118 1.369 . S
C119 C120 1.404 . S
C120 H103 0.940 . S
C120 C119 1.404 . S
C120 C121 1.389 . S
C121 H104 0.939 . S
C121 C116 1.400 . S
C121 C120 1.389 . S
C122 P96 1.819 . S
C122 C123 1.391 . S
C122 C127 1.391 . S
C123 H105 0.941 . S
C123 C122 1.391 . S
C123 C124 1.396 . S
C124 H108 0.939 . S
C124 C123 1.396 . S
C124 C125 1.397 . S
C125 C124 1.397 . S
C125 C126 1.385 . S
C126 H109 0.940 . S
C126 C125 1.385 . S
C126 C127 1.388 . S
C127 H106 0.939 . S
C127 C122 1.391 . S
C127 C126 1.388 . S
P128 O139 1.490 . S
P128 C142 1.812 . S
P128 C148 1.803 . S
P128 C154 1.819 . S
H129 C143 0.941 . S
H130 C144 0.939 . S
H131 C146 0.940 . S
H132 C147 0.940 . S
H133 C149 0.939 . S
H134 C150 0.942 . S
H135 C152 0.940 . S
H136 C153 0.939 . S
H137 C155 0.941 . S
H138 C159 0.937 1_655 S
O139 P128 1.490 . S
H140 C156 0.939 . S
H141 C158 0.940 . S
C142 P128 1.812 . S
C142 C143 1.389 . S
C142 C147 1.391 1_565 S
C143 H129 0.941 . S
C143 C142 1.389 . S
C143 C144 1.397 1_565 S
C144 H130 0.939 . S
C144 C143 1.397 1_545 S
C144 C145 1.378 . S
C145 C144 1.378 . S
C145 C146 1.378 . S
C146 H131 0.940 . S
C146 C145 1.378 . S
C146 C147 1.396 . S
C147 H132 0.940 . S
C147 C142 1.391 1_545 S
C147 C146 1.396 . S
C148 P128 1.803 . S
C148 C149 1.378 . S
C148 C153 1.400 . S
C149 H133 0.939 . S
C149 C148 1.378 . S
C149 C150 1.361 . S
C150 H134 0.942 . S
C150 C149 1.361 . S
C150 C151 1.369 . S
C151 C150 1.369 . S
C151 C152 1.404 . S
C152 H135 0.940 . S
C152 C151 1.404 . S
C152 C153 1.389 . S
C153 H136 0.939 . S
C153 C148 1.400 . S
C153 C152 1.389 . S
C154 P128 1.819 . S
C154 C155 1.391 . S
C154 C159 1.408 . S
C155 H137 0.941 . S
C155 C154 1.391 . S
C155 C156 1.396 . S
C156 H140 0.939 . S
C156 C155 1.396 . S
C156 C157 1.397 1_455 S
C157 C156 1.397 1_655 S
C157 C158 1.385 . S
C158 H141 0.940 . S
C158 C157 1.385 . S
C158 C159 1.374 1_655 S
C159 H138 0.937 1_455 S
C159 C154 1.408 . S
C159 C158 1.374 1_455 S
P160 O171 1.490 . S
P160 C174 1.812 . S
P160 C180 1.803 . S
P160 C186 1.819 . S
H161 C175 0.941 . S
H162 C176 0.939 . S
H163 C178 0.940 . S
H164 C179 0.940 . S
H165 C181 0.939 . S
H166 C182 0.942 . S
H167 C184 0.940 . S
H168 C185 0.939 . S
H169 C187 0.941 . S
H170 C191 0.939 . S
O171 P160 1.490 . S
H172 C188 0.939 . S
H173 C190 0.940 . S
C174 P160 1.812 . S
C174 C175 1.389 . S
C174 C179 1.391 . S
C175 H161 0.941 . S
C175 C174 1.389 . S
C175 C176 1.397 . S
C176 H162 0.939 . S
C176 C175 1.397 . S
C176 C177 1.378 . S
C177 C176 1.378 . S
C177 C178 1.378 . S
C178 H163 0.940 . S
C178 C177 1.378 . S
C178 C179 1.396 . S
C179 H164 0.940 . S
C179 C174 1.391 . S
C179 C178 1.396 . S
C180 P160 1.803 . S
C180 C181 1.378 . S
C180 C185 1.400 . S
C181 H165 0.939 . S
C181 C180 1.378 . S
C181 C182 1.361 . S
C182 H166 0.942 . S
C182 C181 1.361 . S
C182 C183 1.369 . S
C183 C182 1.369 . S
C183 C184 1.404 . S
C184 H167 0.940 . S
C184 C183 1.404 . S
C184 C185 1.389 . S
C185 H168 0.939 . S
C185 C180 1.400 . S
C185 C184 1.389 . S
C186 P160 1.819 . S
C186 C187 1.391 . S
C186 C191 1.391 . S
C187 H169 0.941 . S
C187 C186 1.391 . S
C187 C188 1.396 . S
C188 H172 0.939 . S
C188 C187 1.396 . S
C188 C189 1.397 . S
C189 C188 1.397 . S
C189 C190 1.385 . S
C190 H173 0.940 . S
C190 C189 1.385 . S
C190 C191 1.388 . S
C191 H170 0.939 . S
C191 C186 1.391 . S
C191 C190 1.388 . S
P192 O203 1.490 1_655 S
P192 C206 1.812 1_655 S
P192 C212 1.803 . S
P192 C218 1.819 . S
H193 C207 0.941 . S
H194 C208 0.939 . S
H195 C210 0.920 1_655 S
H196 C211 0.940 . S
H197 C213 0.933 1_455 S
H198 C214 0.942 . S
H199 C216 0.940 . S
H200 C217 0.939 . S
H201 C219 0.941 . S
H202 C223 0.939 . S
O203 P192 1.490 1_455 S
H204 C220 0.939 . S
H205 C222 0.940 . S
C206 P192 1.812 1_455 S
C206 C207 1.389 . S
C206 C211 1.391 1_455 S
C207 H193 0.941 . S
C207 C206 1.389 . S
C207 C208 1.397 . S
C208 H194 0.939 . S
C208 C207 1.397 . S
C208 C209 1.378 . S
C209 C208 1.378 . S
C209 C210 1.409 . S
C210 H195 0.920 1_455 S
C210 C209 1.409 . S
C210 C211 1.385 1_455 S
C211 H196 0.940 . S
C211 C206 1.391 1_655 S
C211 C210 1.385 1_655 S
C212 P192 1.803 . S
C212 C213 1.378 . S
C212 C217 1.400 . S
C213 H197 0.933 1_655 S
C213 C212 1.378 . S
C213 C214 1.361 . S
C214 H198 0.942 . S
C214 C213 1.361 . S
C214 C215 1.369 . S
C215 C214 1.369 . S
C215 C216 1.404 . S
C216 H199 0.940 . S
C216 C215 1.404 . S
C216 C217 1.389 . S
C217 H200 0.939 . S
C217 C212 1.400 . S
C217 C216 1.389 . S
C218 P192 1.819 . S
C218 C219 1.391 . S
C218 C223 1.391 . S
C219 H201 0.941 . S
C219 C218 1.391 . S
C219 C220 1.396 . S
C220 H204 0.939 . S
C220 C219 1.396 . S
C220 C221 1.397 . S
C221 C220 1.397 . S
C221 C222 1.385 . S
C222 H205 0.940 . S
C222 C221 1.385 . S
C222 C223 1.388 . S
C223 H202 0.939 . S
C223 C218 1.391 . S
C223 C222 1.388 . S
P224 O235 1.490 . S
P224 C238 1.812 . S
P224 C244 1.803 . S
P224 C250 1.819 . S
H225 C239 0.941 . S
H226 C240 0.939 . S
H227 C242 0.940 . S
H228 C243 0.940 . S
H229 C245 0.939 . S
H230 C246 0.942 . S
H231 C248 0.940 . S
H232 C249 0.939 . S
H233 C251 0.941 . S
H234 C255 0.939 . S
O235 P224 1.490 . S
H236 C252 0.939 . S
H237 C254 0.940 . S
C238 P224 1.812 . S
C238 C239 1.389 . S
C238 C243 1.391 . S
C239 H225 0.941 . S
C239 C238 1.389 . S
C239 C240 1.397 . S
C240 H226 0.939 . S
C240 C239 1.397 . S
C240 C241 1.378 . S
C241 C240 1.378 . S
C241 C242 1.378 . S
C242 H227 0.940 . S
C242 C241 1.378 . S
C242 C243 1.396 . S
C243 H228 0.940 . S
C243 C238 1.391 . S
C243 C242 1.396 . S
C244 P224 1.803 . S
C244 C245 1.378 . S
C244 C249 1.400 . S
C245 H229 0.939 . S
C245 C244 1.378 . S
C245 C246 1.361 . S
C246 H230 0.942 . S
C246 C245 1.361 . S
C246 C247 1.369 . S
C247 C246 1.369 . S
C247 C248 1.404 . S
C248 H231 0.940 . S
C248 C247 1.404 . S
C248 C249 1.389 . S
C249 H232 0.939 . S
C249 C244 1.400 . S
C249 C248 1.389 . S
C250 P224 1.819 . S
C250 C251 1.391 . S
C250 C255 1.391 . S
C251 H233 0.941 . S
C251 C250 1.391 . S
C251 C252 1.396 . S
C252 H236 0.939 . S
C252 C251 1.396 . S
C252 C253 1.397 . S
C253 C252 1.397 . S
C253 C254 1.385 . S
C254 H237 0.940 . S
C254 C253 1.385 . S
C254 C255 1.388 . S
C255 H234 0.939 . S
C255 C250 1.391 . S
C255 C254 1.388 . S
P256 O267 1.490 . S
P256 C270 1.812 . S
P256 C276 1.803 . S
P256 C282 1.819 . S
H257 C271 0.941 . S
H258 C272 0.939 . S
H259 C274 0.940 . S
H260 C275 0.940 . S
H261 C277 0.939 . S
H262 C278 0.942 . S
H263 C280 0.940 . S
H264 C281 0.939 . S
H265 C283 0.941 . S
H266 C287 0.939 . S
O267 P256 1.490 . S
H268 C284 0.939 . S
H269 C286 0.940 . S
C270 P256 1.812 . S
C270 C271 1.389 . S
C270 C275 1.391 . S
C271 H257 0.941 . S
C271 C270 1.389 . S
C271 C272 1.397 . S
C272 H258 0.939 . S
C272 C271 1.397 . S
C272 C273 1.378 . S
C273 C272 1.378 . S
C273 C274 1.378 . S
C274 H259 0.940 . S
C274 C273 1.378 . S
C274 C275 1.396 . S
C275 H260 0.940 . S
C275 C270 1.391 . S
C275 C274 1.396 . S
C276 P256 1.803 . S
C276 C277 1.378 . S
C276 C281 1.400 . S
C277 H261 0.939 . S
C277 C276 1.378 . S
C277 C278 1.361 . S
C278 H262 0.942 . S
C278 C277 1.361 . S
C278 C279 1.369 . S
C279 C278 1.369 . S
C279 C280 1.404 . S
C280 H263 0.940 . S
C280 C279 1.404 . S
C280 C281 1.389 . S
C281 H264 0.939 . S
C281 C276 1.400 . S
C281 C280 1.389 . S
C282 P256 1.819 . S
C282 C283 1.391 . S
C282 C287 1.391 . S
C283 H265 0.941 . S
C283 C282 1.391 . S
C283 C284 1.396 . S
C284 H268 0.939 . S
C284 C283 1.396 . S
C284 C285 1.397 . S
C285 C284 1.397 . S
C285 C286 1.385 . S
C286 H269 0.940 . S
C286 C285 1.385 . S
C286 C287 1.388 . S
C287 H266 0.939 . S
C287 C282 1.391 . S
C287 C286 1.388 . S
P288 O299 1.490 1_565 S
P288 C302 1.812 . S
P288 C308 1.803 1_565 S
P288 C314 1.819 . S
H289 C303 0.941 . S
H290 C304 0.939 . S
H291 C306 0.940 . S
H292 C307 0.940 . S
H293 C309 0.939 . S
H294 C310 0.942 . S
H295 C312 0.941 1_565 S
H296 C313 0.939 . S
H297 C315 0.941 . S
H298 C319 0.938 . S
O299 P288 1.490 1_545 S
H300 C316 0.939 . S
H301 C318 0.940 . S
C302 P288 1.812 . S
C302 C303 1.389 . S
C302 C307 1.391 . S
C303 H289 0.941 . S
C303 C302 1.389 . S
C303 C304 1.397 . S
C304 H290 0.939 . S
C304 C303 1.397 . S
C304 C305 1.378 . S
C305 C304 1.378 . S
C305 C306 1.378 . S
C306 H291 0.940 . S
C306 C305 1.378 . S
C306 C307 1.396 . S
C307 H292 0.940 . S
C307 C302 1.391 . S
C307 C306 1.396 . S
C308 P288 1.803 1_545 S
C308 C309 1.378 . S
C308 C313 1.400 1_545 S
C309 H293 0.939 . S
C309 C308 1.378 . S
C309 C310 1.361 . S
C310 H294 0.942 . S
C310 C309 1.361 . S
C310 C311 1.369 . S
C311 C310 1.369 . S
C311 C312 1.403 . S
C312 H295 0.941 1_545 S
C312 C311 1.403 . S
C312 C313 1.390 1_545 S
C313 H296 0.939 . S
C313 C308 1.400 1_565 S
C313 C312 1.390 1_565 S
C314 P288 1.819 . S
C314 C315 1.391 . S
C314 C319 1.391 . S
C315 H297 0.941 . S
C315 C314 1.391 . S
C315 C316 1.396 . S
C316 H300 0.939 . S
C316 C315 1.396 . S
C316 C317 1.397 . S
C317 C316 1.397 . S
C317 C318 1.385 . S
C318 H301 0.940 . S
C318 C317 1.385 . S
C318 C319 1.388 . S
C319 H298 0.938 . S
C319 C314 1.391 . S
C319 C318 1.388 . S
P320 O331 1.490 . S
P320 C334 1.812 . S
P320 C340 1.803 . S
P320 C346 1.819 . S
H321 C335 0.941 . S
H322 C336 0.939 . S
H323 C338 0.940 . S
H324 C339 0.940 . S
H325 C341 0.939 . S
H326 C342 0.942 . S
H327 C344 0.940 . S
H328 C345 0.939 . S
H329 C347 0.941 . S
H330 C351 0.939 . S
O331 P320 1.490 . S
H332 C348 0.939 . S
H333 C350 0.940 . S
C334 P320 1.812 . S
C334 C335 1.389 . S
C334 C339 1.391 . S
C335 H321 0.941 . S
C335 C334 1.389 . S
C335 C336 1.397 . S
C336 H322 0.939 . S
C336 C335 1.397 . S
C336 C337 1.378 . S
C337 C336 1.378 . S
C337 C338 1.378 . S
C338 H323 0.940 . S
C338 C337 1.378 . S
C338 C339 1.396 . S
C339 H324 0.940 . S
C339 C334 1.391 . S
C339 C338 1.396 . S
C340 P320 1.803 . S
C340 C341 1.378 . S
C340 C345 1.400 . S
C341 H325 0.939 . S
C341 C340 1.378 . S
C341 C342 1.361 . S
C342 H326 0.942 . S
C342 C341 1.361 . S
C342 C343 1.369 . S
C343 C342 1.369 . S
C343 C344 1.404 . S
C344 H327 0.940 . S
C344 C343 1.404 . S
C344 C345 1.389 . S
C345 H328 0.939 . S
C345 C340 1.400 . S
C345 C344 1.389 . S
C346 P320 1.819 . S
C346 C347 1.391 . S
C346 C351 1.391 . S
C347 H329 0.941 . S
C347 C346 1.391 . S
C347 C348 1.396 . S
C348 H332 0.939 . S
C348 C347 1.396 . S
C348 C349 1.397 . S
C349 C348 1.397 . S
C349 C350 1.385 . S
C350 H333 0.940 . S
C350 C349 1.385 . S
C350 C351 1.388 . S
C351 H330 0.939 . S
C351 C346 1.391 . S
C351 C350 1.388 . S
P352 O363 1.490 . S
P352 C366 1.812 . S
P352 C372 1.803 . S
P352 C378 1.819 . S
H353 C367 0.941 . S
H354 C368 0.939 . S
H355 C370 0.940 . S
H356 C371 0.940 . S
H357 C373 0.939 . S
H358 C374 0.942 . S
H359 C376 0.940 . S
H360 C377 0.939 . S
H361 C379 0.941 . S
H362 C383 0.939 . S
O363 P352 1.490 . S
H364 C380 0.939 . S
H365 C382 0.940 . S
C366 P352 1.812 . S
C366 C367 1.389 . S
C366 C371 1.391 . S
C367 H353 0.941 . S
C367 C366 1.389 . S
C367 C368 1.397 . S
C368 H354 0.939 . S
C368 C367 1.397 . S
C368 C369 1.378 . S
C369 C368 1.378 . S
C369 C370 1.378 . S
C370 H355 0.940 . S
C370 C369 1.378 . S
C370 C371 1.396 . S
C371 H356 0.940 . S
C371 C366 1.391 . S
C371 C370 1.396 . S
C372 P352 1.803 . S
C372 C373 1.378 . S
C372 C377 1.400 . S
C373 H357 0.939 . S
C373 C372 1.378 . S
C373 C374 1.361 . S
C374 H358 0.942 . S
C374 C373 1.361 . S
C374 C375 1.369 . S
C375 C374 1.369 . S
C375 C376 1.404 . S
C376 H359 0.940 . S
C376 C375 1.404 . S
C376 C377 1.389 . S
C377 H360 0.939 . S
C377 C372 1.400 . S
C377 C376 1.389 . S
C378 P352 1.819 . S
C378 C379 1.391 . S
C378 C383 1.391 . S
C379 H361 0.941 . S
C379 C378 1.391 . S
C379 C380 1.396 . S
C380 H364 0.939 . S
C380 C379 1.396 . S
C380 C381 1.397 . S
C381 C380 1.397 . S
C381 C382 1.385 . S
C382 H365 0.940 . S
C382 C381 1.385 . S
C382 C383 1.388 . S
C383 H362 0.939 . S
C383 C378 1.391 . S
C383 C382 1.388 . S
P384 O395 1.490 . S
P384 C398 1.812 . S
P384 C404 1.803 . S
P384 C410 1.819 . S
H385 C399 0.941 . S
H386 C400 0.939 . S
H387 C402 0.940 . S
H388 C403 0.940 . S
H389 C405 0.939 . S
H390 C406 0.942 . S
H391 C408 0.940 . S
H392 C409 0.939 . S
H393 C411 0.941 . S
H394 C415 0.939 . S
O395 P384 1.490 . S
H396 C412 0.939 . S
H397 C414 0.940 . S
C398 P384 1.812 . S
C398 C399 1.389 . S
C398 C403 1.391 . S
C399 H385 0.941 . S
C399 C398 1.389 . S
C399 C400 1.397 . S
C400 H386 0.939 . S
C400 C399 1.397 . S
C400 C401 1.378 . S
C401 C400 1.378 . S
C401 C402 1.378 . S
C402 H387 0.940 . S
C402 C401 1.378 . S
C402 C403 1.396 . S
C403 H388 0.940 . S
C403 C398 1.391 . S
C403 C402 1.396 . S
C404 P384 1.803 . S
C404 C405 1.378 . S
C404 C409 1.400 . S
C405 H389 0.939 . S
C405 C404 1.378 . S
C405 C406 1.361 . S
C406 H390 0.942 . S
C406 C405 1.361 . S
C406 C407 1.369 . S
C407 C406 1.369 . S
C407 C408 1.404 . S
C408 H391 0.940 . S
C408 C407 1.404 . S
C408 C409 1.389 . S
C409 H392 0.939 . S
C409 C404 1.400 . S
C409 C408 1.389 . S
C410 P384 1.819 . S
C410 C411 1.391 . S
C410 C415 1.391 . S
C411 H393 0.941 . S
C411 C410 1.391 . S
C411 C412 1.396 . S
C412 H396 0.939 . S
C412 C411 1.396 . S
C412 C413 1.397 . S
C413 C412 1.397 . S
C413 C414 1.385 . S
C414 H397 0.940 . S
C414 C413 1.385 . S
C414 C415 1.388 . S
C415 H394 0.939 . S
C415 C410 1.391 . S
C415 C414 1.388 . S
P416 O427 1.490 . S
P416 C430 1.812 . S
P416 C436 1.803 . S
P416 C442 1.819 . S
H417 C431 0.941 . S
H418 C432 0.939 . S
H419 C434 0.940 . S
H420 C435 0.940 . S
H421 C437 0.939 . S
H422 C438 0.944 . S
H423 C440 0.940 . S
H424 C441 0.939 . S
H425 C443 0.941 . S
H426 C447 0.939 . S
O427 P416 1.490 . S
H428 C444 0.939 . S
H429 C446 0.940 . S
C430 P416 1.812 . S
C430 C431 1.389 . S
C430 C435 1.391 . S
C431 H417 0.941 . S
C431 C430 1.389 . S
C431 C432 1.397 . S
C432 H418 0.939 . S
C432 C431 1.397 . S
C432 C433 1.378 . S
C433 C432 1.378 . S
C433 C434 1.378 . S
C434 H419 0.940 . S
C434 C433 1.378 . S
C434 C435 1.396 . S
C435 H420 0.940 . S
C435 C430 1.391 . S
C435 C434 1.396 . S
C436 P416 1.803 . S
C436 C437 1.378 . S
C436 C441 1.400 1_556 S
C437 H421 0.939 . S
C437 C436 1.378 . S
C437 C438 1.361 1_556 S
C438 H422 0.944 . S
C438 C437 1.361 1_554 S
C438 C439 1.369 . S
C439 C438 1.369 . S
C439 C440 1.404 . S
C440 H423 0.940 . S
C440 C439 1.404 . S
C440 C441 1.389 . S
C441 H424 0.939 . S
C441 C436 1.400 1_554 S
C441 C440 1.389 . S
C442 P416 1.819 . S
C442 C443 1.391 . S
C442 C447 1.391 . S
C443 H425 0.941 . S
C443 C442 1.391 . S
C443 C444 1.396 . S
C444 H428 0.939 . S
C444 C443 1.396 . S
C444 C445 1.397 . S
C445 C444 1.397 . S
C445 C446 1.385 . S
C446 H429 0.940 . S
C446 C445 1.385 . S
C446 C447 1.388 . S
C447 H426 0.939 . S
C447 C442 1.391 . S
C447 C446 1.388 . S
P448 O459 1.490 . S
P448 C462 1.812 . S
P448 C468 1.803 . S
P448 C474 1.819 . S
H449 C463 0.941 . S
H450 C464 0.939 . S
H451 C466 0.940 . S
H452 C467 0.940 . S
H453 C469 0.939 . S
H454 C470 0.942 . S
H455 C472 0.940 . S
H456 C473 0.939 . S
H457 C475 0.941 . S
H458 C479 0.939 . S
O459 P448 1.490 . S
H460 C476 0.939 . S
H461 C478 0.940 . S
C462 P448 1.812 . S
C462 C463 1.389 . S
C462 C467 1.391 . S
C463 H449 0.941 . S
C463 C462 1.389 . S
C463 C464 1.397 . S
C464 H450 0.939 . S
C464 C463 1.397 . S
C464 C465 1.378 . S
C465 C464 1.378 . S
C465 C466 1.378 . S
C466 H451 0.940 . S
C466 C465 1.378 . S
C466 C467 1.396 . S
C467 H452 0.940 . S
C467 C462 1.391 . S
C467 C466 1.396 . S
C468 P448 1.803 . S
C468 C469 1.378 . S
C468 C473 1.400 . S
C469 H453 0.939 . S
C469 C468 1.378 . S
C469 C470 1.361 . S
C470 H454 0.942 . S
C470 C469 1.361 . S
C470 C471 1.369 . S
C471 C470 1.369 . S
C471 C472 1.404 . S
C472 H455 0.940 . S
C472 C471 1.404 . S
C472 C473 1.389 . S
C473 H456 0.939 . S
C473 C468 1.400 . S
C473 C472 1.389 . S
C474 P448 1.819 . S
C474 C475 1.391 . S
C474 C479 1.391 . S
C475 H457 0.941 . S
C475 C474 1.391 . S
C475 C476 1.396 . S
C476 H460 0.939 . S
C476 C475 1.396 . S
C476 C477 1.397 . S
C477 C476 1.397 . S
C477 C478 1.385 . S
C478 H461 0.940 . S
C478 C477 1.385 . S
C478 C479 1.388 . S
C479 H458 0.939 . S
C479 C474 1.391 . S
C479 C478 1.388 . S
P480 O491 1.480 1_545 S
P480 C494 1.812 1_554 S
P480 C500 1.803 . S
P480 C506 1.818 1_554 S
H481 C495 0.941 . S
H482 C496 0.939 . S
H483 C498 0.940 . S
H484 C499 0.940 . S
H485 C501 0.939 . S
H486 C502 0.942 . S
H487 C504 0.940 1_556 S
H488 C505 0.939 . S
H489 C507 0.941 . S
H490 C511 0.939 . S
O491 P480 1.480 1_565 S
H492 C508 0.939 . S
H493 C510 0.942 . S
C494 P480 1.812 1_556 S
C494 C495 1.389 . S
C494 C499 1.391 . S
C495 H481 0.941 . S
C495 C494 1.389 . S
C495 C496 1.397 . S
C496 H482 0.939 . S
C496 C495 1.397 . S
C496 C497 1.378 . S
C497 C496 1.378 . S
C497 C498 1.378 . S
C498 H483 0.940 . S
C498 C497 1.378 . S
C498 C499 1.396 . S
C499 H484 0.940 . S
C499 C494 1.391 . S
C499 C498 1.396 . S
C500 P480 1.803 . S
C500 C501 1.378 . S
C500 C505 1.400 1_554 S
C501 H485 0.939 . S
C501 C500 1.378 . S
C501 C502 1.361 . S
C502 H486 0.942 . S
C502 C501 1.361 . S
C502 C503 1.369 . S
C503 C502 1.369 . S
C503 C504 1.404 . S
C504 H487 0.940 1_554 S
C504 C503 1.404 . S
C504 C505 1.389 1_554 S
C505 H488 0.939 . S
C505 C500 1.400 1_556 S
C505 C504 1.389 1_556 S
C506 P480 1.818 1_556 S
C506 C507 1.395 1_545 S
C506 C511 1.389 1_556 S
C507 H489 0.941 . S
C507 C506 1.395 1_565 S
C507 C508 1.396 . S
C508 H492 0.939 . S
C508 C507 1.396 . S
C508 C509 1.397 . S
C509 C508 1.397 . S
C509 C510 1.382 1_566 S
C510 H493 0.942 . S
C510 C509 1.382 1_544 S
C510 C511 1.390 . S
C511 H490 0.939 . S
C511 C506 1.389 1_554 S
C511 C510 1.390 . S
Mn512 O517 2.095 . S
Mn512 O527 2.162 . S
Mn512 O528 2.297 . S
Mn512 O536 2.372 1_554 S
Mn512 O537 2.209 1_554 S
Mn512 O538 2.094 . S
Mn513 O518 2.121 . S
Mn513 N520 2.257 . S
Mn513 N529 2.282 . S
Mn513 O537 2.215 . S
Mn513 O539 2.117 . S
C514 O536 1.258 . S
C514 O537 1.283 . S
C515 O527 1.281 . S
C515 O528 1.236 . S
C516 O538 1.240 . S
C516 O539 1.264 1_554 S
O517 Mn512 2.095 . S
O517 C526 1.250 . S
O518 Mn513 2.121 . S
O518 C526 1.258 1_556 S
C519 N520 1.326 . S
C519 C523 1.460 . S
C519 H525 0.929 . S
N520 Mn513 2.257 . S
N520 C519 1.326 . S
N520 C524 1.362 . S
C521 C522 1.258 . S
C521 C524 1.431 . S
C521 C541 1.449 . S
C522 C521 1.258 . S
C522 C523 1.477 . S
C522 H542 0.931 . S
C523 C519 1.460 . S
C523 C522 1.477 . S
C523 H543 0.930 . S
C524 N520 1.362 . S
C524 C521 1.431 . S
C524 C534 1.476 . S
H525 C519 0.929 . S
C526 O517 1.250 . S
C526 O518 1.258 1_554 S
O527 Mn512 2.162 . S
O527 C515 1.281 . S
O528 Mn512 2.297 . S
O528 C515 1.236 . S
N529 Mn513 2.282 . S
N529 C530 1.328 . S
N529 C534 1.318 . S
C530 N529 1.328 . S
C530 C531 1.457 . S
C530 H535 0.929 . S
C531 C530 1.457 . S
C531 C532 1.291 . S
C531 H544 0.931 . S
C532 C531 1.291 . S
C532 C533 1.373 . S
C532 H545 0.929 . S
C533 C532 1.373 . S
C533 C534 1.396 . S
C533 C540 1.403 . S
C534 C524 1.476 . S
C534 N529 1.318 . S
C534 C533 1.396 . S
H535 C530 0.929 . S
O536 Mn512 2.372 1_556 S
O536 C514 1.258 . S
O537 Mn512 2.209 1_556 S
O537 Mn513 2.215 . S
O537 C514 1.283 . S
O538 Mn512 2.094 . S
O538 C516 1.240 . S
O539 Mn513 2.117 . S
O539 C516 1.264 1_556 S
C540 C533 1.403 . S
C540 C541 1.399 . S
C540 H546 0.929 . S
C541 C521 1.449 . S
C541 C540 1.399 . S
C541 H547 0.930 . S
H542 C522 0.931 . S
H543 C523 0.930 . S
H544 C531 0.931 . S
H545 C532 0.929 . S
H546 C540 0.929 . S
H547 C541 0.930 . S
Mn548 O553 2.095 . S
Mn548 O563 2.162 . S
Mn548 O564 2.297 . S
Mn548 O572 2.385 . S
Mn548 O573 2.209 . S
Mn548 O574 2.094 . S
Mn549 O554 2.121 . S
Mn549 N556 2.257 . S
Mn549 N565 2.282 . S
Mn549 O573 2.215 . S
Mn549 O575 2.117 . S
C550 O572 1.234 . S
C550 O573 1.283 . S
C551 O563 1.281 . S
C551 O564 1.236 . S
C552 O574 1.240 . S
C552 O575 1.264 . S
O553 Mn548 2.095 . S
O553 C562 1.250 . S
O554 Mn549 2.121 . S
O554 C562 1.258 . S
C555 N556 1.326 . S
C555 C559 1.460 . S
C555 H561 0.929 . S
N556 Mn549 2.257 . S
N556 C555 1.326 . S
N556 C560 1.362 . S
C557 C558 1.258 . S
C557 C560 1.431 . S
C557 C577 1.449 . S
C558 C557 1.258 . S
C558 C559 1.477 . S
C558 H578 0.931 . S
C559 C555 1.460 . S
C559 C558 1.477 . S
C559 H579 0.930 . S
C560 N556 1.362 . S
C560 C557 1.431 . S
C560 C570 1.476 . S
H561 C555 0.929 . S
C562 O553 1.250 . S
C562 O554 1.258 . S
O563 Mn548 2.162 . S
O563 C551 1.281 . S
O564 Mn548 2.297 . S
O564 C551 1.236 . S
N565 Mn549 2.282 . S
N565 C566 1.328 . S
N565 C570 1.318 . S
C566 N565 1.328 . S
C566 C567 1.457 . S
C566 H571 0.929 . S
C567 C566 1.457 . S
C567 C568 1.291 . S
C567 H580 0.931 . S
C568 C567 1.291 . S
C568 C569 1.373 . S
C568 H581 0.929 . S
C569 C568 1.373 . S
C569 C570 1.396 . S
C569 C576 1.403 . S
C570 C560 1.476 . S
C570 N565 1.318 . S
C570 C569 1.396 . S
H571 C566 0.929 . S
O572 Mn548 2.385 . S
O572 C550 1.234 . S
O573 Mn548 2.209 . S
O573 Mn549 2.215 . S
O573 C550 1.283 . S
O574 Mn548 2.094 . S
O574 C552 1.240 . S
O575 Mn549 2.117 . S
O575 C552 1.264 . S
C576 C569 1.403 . S
C576 C577 1.399 . S
C576 H582 0.929 . S
C577 C557 1.449 . S
C577 C576 1.399 . S
C577 H583 0.930 . S
H578 C558 0.931 . S
H579 C559 0.930 . S
H580 C567 0.931 . S
H581 C568 0.929 . S
H582 C576 0.929 . S
H583 C577 0.930 . S
Mn584 O589 2.095 1_554 S
Mn584 O599 2.162 . S
Mn584 O600 2.297 1_554 S
Mn584 O608 2.385 . S
Mn584 O609 2.209 1_554 S
Mn584 O610 2.094 . S
Mn585 O590 2.121 . S
Mn585 N592 2.257 . S
Mn585 N601 2.287 . S
Mn585 O609 2.215 . S
Mn585 O611 2.117 1_556 S
C586 O608 1.234 . S
C586 O609 1.283 1_554 S
C587 O599 1.281 . S
C587 O600 1.236 1_554 S
C588 O610 1.240 . S
C588 O611 1.264 . S
O589 Mn584 2.095 1_556 S
O589 C598 1.250 . S
O590 Mn585 2.121 . S
O590 C598 1.258 . S
C591 N592 1.326 . S
C591 C595 1.460 . S
C591 H597 0.929 . S
N592 Mn585 2.257 . S
N592 C591 1.326 . S
N592 C596 1.362 . S
C593 C594 1.258 . S
C593 C596 1.431 . S
C593 C613 1.449 . S
C594 C593 1.258 . S
C594 C595 1.477 . S
C594 H614 0.931 . S
C595 C591 1.460 . S
C595 C594 1.477 . S
C595 H615 0.930 . S
C596 N592 1.362 . S
C596 C593 1.431 . S
C596 C606 1.476 . S
H597 C591 0.929 . S
C598 O589 1.250 . S
C598 O590 1.258 . S
O599 Mn584 2.162 . S
O599 C587 1.281 . S
O600 Mn584 2.297 1_556 S
O600 C587 1.236 1_556 S
N601 Mn585 2.287 . S
N601 C602 1.315 1_556 S
N601 C606 1.326 . S
C602 N601 1.315 1_554 S
C602 C603 1.457 . S
C602 H607 0.929 . S
C603 C602 1.457 . S
C603 C604 1.291 . S
C603 H616 0.931 . S
C604 C603 1.291 . S
C604 C605 1.373 1_554 S
C604 H617 0.929 . S
C605 C604 1.373 1_556 S
C605 C606 1.396 . S
C605 C612 1.403 . S
C606 C596 1.476 . S
C606 N601 1.326 . S
C606 C605 1.396 . S
H607 C602 0.929 . S
O608 Mn584 2.385 . S
O608 C586 1.234 . S
O609 Mn584 2.209 1_556 S
O609 Mn585 2.215 . S
O609 C586 1.283 1_556 S
O610 Mn584 2.094 . S
O610 C588 1.240 . S
O611 Mn585 2.117 1_554 S
O611 C588 1.264 . S
C612 C605 1.403 . S
C612 C613 1.399 . S
C612 H618 0.929 . S
C613 C593 1.449 . S
C613 C612 1.399 . S
C613 H619 0.930 . S
H614 C594 0.931 . S
H615 C595 0.930 . S
H616 C603 0.931 . S
H617 C604 0.929 . S
H618 C612 0.929 . S
H619 C613 0.930 . S
Mn620 O625 2.095 . S
Mn620 O635 2.162 . S
Mn620 O636 2.297 . S
Mn620 O644 2.385 1_545 S
Mn620 O645 2.209 1_545 S
Mn620 O646 2.094 . S
Mn621 O626 2.121 . S
Mn621 N628 2.257 . S
Mn621 N637 2.282 . S
Mn621 O645 2.215 . S
Mn621 O647 2.117 . S
C622 O644 1.234 . S
C622 O645 1.283 . S
C623 O635 1.281 . S
C623 O636 1.236 . S
C624 O646 1.240 . S
C624 O647 1.264 1_545 S
O625 Mn620 2.095 . S
O625 C634 1.250 1_545 S
O626 Mn621 2.121 . S
O626 C634 1.258 . S
C627 N628 1.326 . S
C627 C631 1.460 . S
C627 H633 0.929 . S
N628 Mn621 2.257 . S
N628 C627 1.326 . S
N628 C632 1.362 . S
C629 C630 1.258 . S
C629 C632 1.431 . S
C629 C649 1.449 . S
C630 C629 1.258 . S
C630 C631 1.477 . S
C630 H650 0.931 . S
C631 C627 1.460 . S
C631 C630 1.477 . S
C631 H651 0.930 . S
C632 N628 1.362 . S
C632 C629 1.431 . S
C632 C642 1.476 . S
H633 C627 0.929 . S
C634 O625 1.250 1_565 S
C634 O626 1.258 . S
O635 Mn620 2.162 . S
O635 C623 1.281 . S
O636 Mn620 2.297 . S
O636 C623 1.236 . S
N637 Mn621 2.282 . S
N637 C638 1.328 . S
N637 C642 1.318 . S
C638 N637 1.328 . S
C638 C639 1.457 . S
C638 H643 0.929 . S
C639 C638 1.457 . S
C639 C640 1.291 . S
C639 H652 0.931 . S
C640 C639 1.291 . S
C640 C641 1.373 . S
C640 H653 0.929 . S
C641 C640 1.373 . S
C641 C642 1.396 . S
C641 C648 1.403 . S
C642 C632 1.476 . S
C642 N637 1.318 . S
C642 C641 1.396 . S
H643 C638 0.929 . S
O644 Mn620 2.385 1_565 S
O644 C622 1.234 . S
O645 Mn620 2.209 1_565 S
O645 Mn621 2.215 . S
O645 C622 1.283 . S
O646 Mn620 2.094 . S
O646 C624 1.240 . S
O647 Mn621 2.117 . S
O647 C624 1.264 1_565 S
C648 C641 1.403 . S
C648 C649 1.399 . S
C648 H654 0.929 . S
C649 C629 1.449 . S
C649 C648 1.399 . S
C649 H655 0.930 . S
H650 C630 0.931 . S
H651 C631 0.930 . S
H652 C639 0.931 . S
H653 C640 0.929 . S
H654 C648 0.929 . S
H655 C649 0.930 . S
Mn656 O661 2.095 . S
Mn656 O671 2.162 . S
Mn656 O672 2.297 . S
Mn656 O680 2.385 . S
Mn656 O681 2.209 . S
Mn656 O682 2.094 . S
Mn657 O662 2.121 . S
Mn657 N664 2.257 . S
Mn657 N673 2.282 . S
Mn657 O681 2.215 . S
Mn657 O683 2.117 . S
C658 O680 1.234 . S
C658 O681 1.283 . S
C659 O671 1.281 . S
C659 O672 1.236 . S
C660 O682 1.240 . S
C660 O683 1.264 . S
O661 Mn656 2.095 . S
O661 C670 1.250 . S
O662 Mn657 2.121 . S
O662 C670 1.258 . S
C663 N664 1.326 . S
C663 C667 1.460 . S
C663 H669 0.929 . S
N664 Mn657 2.257 . S
N664 C663 1.326 . S
N664 C668 1.362 . S
C665 C666 1.258 . S
C665 C668 1.431 . S
C665 C685 1.449 . S
C666 C665 1.258 . S
C666 C667 1.477 . S
C666 H686 0.931 . S
C667 C663 1.460 . S
C667 C666 1.477 . S
C667 H687 0.930 . S
C668 N664 1.362 . S
C668 C665 1.431 . S
C668 C678 1.476 . S
H669 C663 0.929 . S
C670 O661 1.250 . S
C670 O662 1.258 . S
O671 Mn656 2.162 . S
O671 C659 1.281 . S
O672 Mn656 2.297 . S
O672 C659 1.236 . S
N673 Mn657 2.282 . S
N673 C674 1.328 . S
N673 C678 1.318 . S
C674 N673 1.328 . S
C674 C675 1.457 . S
C674 H679 0.929 . S
C675 C674 1.457 . S
C675 C676 1.291 . S
C675 H688 0.931 . S
C676 C675 1.291 . S
C676 C677 1.373 . S
C676 H689 0.929 . S
C677 C676 1.373 . S
C677 C678 1.396 . S
C677 C684 1.403 . S
C678 C668 1.476 . S
C678 N673 1.318 . S
C678 C677 1.396 . S
H679 C674 0.929 . S
O680 Mn656 2.385 . S
O680 C658 1.234 . S
O681 Mn656 2.209 . S
O681 Mn657 2.215 . S
O681 C658 1.283 . S
O682 Mn656 2.094 . S
O682 C660 1.240 . S
O683 Mn657 2.117 . S
O683 C660 1.264 . S
C684 C677 1.403 . S
C684 C685 1.399 . S
C684 H690 0.929 . S
C685 C665 1.449 . S
C685 C684 1.399 . S
C685 H691 0.930 . S
H686 C666 0.931 . S
H687 C667 0.930 . S
H688 C675 0.931 . S
H689 C676 0.929 . S
H690 C684 0.929 . S
H691 C685 0.930 . S
Mn692 O697 2.095 . S
Mn692 O707 2.162 . S
Mn692 O708 2.297 . S
Mn692 O716 2.385 . S
Mn692 O717 2.209 . S
Mn692 O718 2.094 . S
Mn693 O698 2.121 . S
Mn693 N700 2.257 . S
Mn693 N709 2.282 . S
Mn693 O717 2.215 . S
Mn693 O719 2.117 . S
C694 O716 1.234 . S
C694 O717 1.283 . S
C695 O707 1.281 . S
C695 O708 1.236 . S
C696 O718 1.240 . S
C696 O719 1.264 . S
O697 Mn692 2.095 . S
O697 C706 1.250 . S
O698 Mn693 2.121 . S
O698 C706 1.258 . S
C699 N700 1.326 . S
C699 C703 1.460 . S
C699 H705 0.929 . S
N700 Mn693 2.257 . S
N700 C699 1.326 . S
N700 C704 1.362 . S
C701 C702 1.258 . S
C701 C704 1.431 . S
C701 C721 1.449 . S
C702 C701 1.258 . S
C702 C703 1.477 . S
C702 H722 0.931 . S
C703 C699 1.460 . S
C703 C702 1.477 . S
C703 H723 0.930 . S
C704 N700 1.362 . S
C704 C701 1.431 . S
C704 C714 1.476 . S
H705 C699 0.929 . S
C706 O697 1.250 . S
C706 O698 1.258 . S
O707 Mn692 2.162 . S
O707 C695 1.281 . S
O708 Mn692 2.297 . S
O708 C695 1.236 . S
N709 Mn693 2.282 . S
N709 C710 1.328 . S
N709 C714 1.318 . S
C710 N709 1.328 . S
C710 C711 1.457 . S
C710 H715 0.929 . S
C711 C710 1.457 . S
C711 C712 1.291 . S
C711 H724 0.931 . S
C712 C711 1.291 . S
C712 C713 1.373 . S
C712 H725 0.929 . S
C713 C712 1.373 . S
C713 C714 1.396 . S
C713 C720 1.403 . S
C714 C704 1.476 . S
C714 N709 1.318 . S
C714 C713 1.396 . S
H715 C710 0.929 . S
O716 Mn692 2.385 . S
O716 C694 1.234 . S
O717 Mn692 2.209 . S
O717 Mn693 2.215 . S
O717 C694 1.283 . S
O718 Mn692 2.094 . S
O718 C696 1.240 . S
O719 Mn693 2.117 . S
O719 C696 1.264 . S
C720 C713 1.403 . S
C720 C721 1.399 . S
C720 H726 0.929 . S
C721 C701 1.449 . S
C721 C720 1.399 . S
C721 H727 0.930 . S
H722 C702 0.931 . S
H723 C703 0.930 . S
H724 C711 0.931 . S
H725 C712 0.929 . S
H726 C720 0.929 . S
H727 C721 0.930 . S
Mn728 O733 2.095 . S
Mn728 O743 2.162 . S
Mn728 O744 2.297 . S
Mn728 O752 2.385 . S
Mn728 O753 2.209 . S
Mn728 O754 2.094 . S
Mn729 O734 2.121 . S
Mn729 N736 2.257 . S
Mn729 N745 2.282 . S
Mn729 O753 2.215 . S
Mn729 O755 2.117 . S
C730 O752 1.234 . S
C730 O753 1.283 . S
C731 O743 1.281 . S
C731 O744 1.236 . S
C732 O754 1.240 . S
C732 O755 1.264 . S
O733 Mn728 2.095 . S
O733 C742 1.250 . S
O734 Mn729 2.121 . S
O734 C742 1.258 . S
C735 N736 1.326 . S
C735 C739 1.460 . S
C735 H741 0.929 . S
N736 Mn729 2.257 . S
N736 C735 1.326 . S
N736 C740 1.362 . S
C737 C738 1.258 . S
C737 C740 1.431 . S
C737 C757 1.449 . S
C738 C737 1.258 . S
C738 C739 1.477 . S
C738 H758 0.931 . S
C739 C735 1.460 . S
C739 C738 1.477 . S
C739 H759 0.930 . S
C740 N736 1.362 . S
C740 C737 1.431 . S
C740 C750 1.476 . S
H741 C735 0.929 . S
C742 O733 1.250 . S
C742 O734 1.258 . S
O743 Mn728 2.162 . S
O743 C731 1.281 . S
O744 Mn728 2.297 . S
O744 C731 1.236 . S
N745 Mn729 2.282 . S
N745 C746 1.328 . S
N745 C750 1.318 . S
C746 N745 1.328 . S
C746 C747 1.457 . S
C746 H751 0.929 . S
C747 C746 1.457 . S
C747 C748 1.291 . S
C747 H760 0.931 . S
C748 C747 1.291 . S
C748 C749 1.373 . S
C748 H761 0.929 . S
C749 C748 1.373 . S
C749 C750 1.396 . S
C749 C756 1.403 . S
C750 C740 1.476 . S
C750 N745 1.318 . S
C750 C749 1.396 . S
H751 C746 0.929 . S
O752 Mn728 2.385 . S
O752 C730 1.234 . S
O753 Mn728 2.209 . S
O753 Mn729 2.215 . S
O753 C730 1.283 . S
O754 Mn728 2.094 . S
O754 C732 1.240 . S
O755 Mn729 2.117 . S
O755 C732 1.264 . S
C756 C749 1.403 . S
C756 C757 1.399 . S
C756 H762 0.929 . S
C757 C737 1.449 . S
C757 C756 1.399 . S
C757 H763 0.930 . S
H758 C738 0.931 . S
H759 C739 0.930 . S
H760 C747 0.931 . S
H761 C748 0.929 . S
H762 C756 0.929 . S
H763 C757 0.930 . S
Mn764 O769 2.095 . S
Mn764 O779 2.162 . S
Mn764 O780 2.297 . S
Mn764 O788 2.385 1_565 S
Mn764 O789 2.209 1_565 S
Mn764 O790 2.094 . S
Mn765 O770 2.121 . S
Mn765 N772 2.257 . S
Mn765 N781 2.282 . S
Mn765 O789 2.215 . S
Mn765 O791 2.117 . S
C766 O788 1.234 . S
C766 O789 1.283 . S
C767 O779 1.281 . S
C767 O780 1.236 . S
C768 O790 1.240 1_545 S
C768 O791 1.264 . S
O769 Mn764 2.095 . S
O769 C778 1.250 1_565 S
O770 Mn765 2.121 . S
O770 C778 1.258 . S
C771 N772 1.326 . S
C771 C775 1.460 . S
C771 H777 0.929 . S
N772 Mn765 2.257 . S
N772 C771 1.326 . S
N772 C776 1.362 . S
C773 C774 1.258 . S
C773 C776 1.431 . S
C773 C793 1.449 . S
C774 C773 1.258 . S
C774 C775 1.477 . S
C774 H794 0.931 . S
C775 C771 1.460 . S
C775 C774 1.477 . S
C775 H795 0.930 . S
C776 N772 1.362 . S
C776 C773 1.431 . S
C776 C786 1.476 . S
H777 C771 0.929 . S
C778 O769 1.250 1_545 S
C778 O770 1.258 . S
O779 Mn764 2.162 . S
O779 C767 1.281 . S
O780 Mn764 2.297 . S
O780 C767 1.236 . S
N781 Mn765 2.282 . S
N781 C782 1.328 . S
N781 C786 1.318 . S
C782 N781 1.328 . S
C782 C783 1.457 . S
C782 H787 0.929 . S
C783 C782 1.457 . S
C783 C784 1.291 . S
C783 H796 0.931 . S
C784 C783 1.291 . S
C784 C785 1.373 . S
C784 H797 0.929 . S
C785 C784 1.373 . S
C785 C786 1.396 . S
C785 C792 1.403 . S
C786 C776 1.476 . S
C786 N781 1.318 . S
C786 C785 1.396 . S
H787 C782 0.929 . S
O788 Mn764 2.385 1_545 S
O788 C766 1.234 . S
O789 Mn764 2.209 1_545 S
O789 Mn765 2.215 . S
O789 C766 1.283 . S
O790 Mn764 2.094 . S
O790 C768 1.240 1_565 S
O791 Mn765 2.117 . S
O791 C768 1.264 . S
C792 C785 1.403 . S
C792 C793 1.399 . S
C792 H798 0.929 . S
C793 C773 1.449 . S
C793 C792 1.399 . S
C793 H799 0.930 . S
H794 C774 0.931 . S
H795 C775 0.930 . S
H796 C783 0.931 . S
H797 C784 0.929 . S
H798 C792 0.929 . S
H799 C793 0.930 . S
Mn800 O805 2.095 . S
Mn800 O815 2.162 . S
Mn800 O816 2.297 . S
Mn800 O824 2.385 1_455 S
Mn800 O825 2.209 1_455 S
Mn800 O826 2.094 . S
Mn801 O806 2.121 . S
Mn801 N808 2.257 . S
Mn801 N817 2.282 . S
Mn801 O825 2.215 . S
Mn801 O827 2.117 . S
C802 O824 1.234 . S
C802 O825 1.283 . S
C803 O815 1.281 . S
C803 O816 1.236 . S
C804 O826 1.240 . S
C804 O827 1.264 1_455 S
O805 Mn800 2.095 . S
O805 C814 1.250 1_455 S
O806 Mn801 2.121 . S
O806 C814 1.258 . S
C807 N808 1.326 . S
C807 C811 1.460 . S
C807 H813 0.929 . S
N808 Mn801 2.257 . S
N808 C807 1.326 . S
N808 C812 1.362 . S
C809 C810 1.258 . S
C809 C812 1.431 . S
C809 C829 1.449 . S
C810 C809 1.258 . S
C810 C811 1.477 . S
C810 H830 0.931 . S
C811 C807 1.460 . S
C811 C810 1.477 . S
C811 H831 0.930 . S
C812 N808 1.362 . S
C812 C809 1.431 . S
C812 C822 1.476 . S
H813 C807 0.929 . S
C814 O805 1.250 1_655 S
C814 O806 1.258 . S
O815 Mn800 2.162 . S
O815 C803 1.281 . S
O816 Mn800 2.297 . S
O816 C803 1.236 . S
N817 Mn801 2.282 . S
N817 C818 1.328 . S
N817 C822 1.318 . S
C818 N817 1.328 . S
C818 C819 1.457 . S
C818 H823 0.929 . S
C819 C818 1.457 . S
C819 C820 1.291 . S
C819 H832 0.931 . S
C820 C819 1.291 . S
C820 C821 1.373 . S
C820 H833 0.929 . S
C821 C820 1.373 . S
C821 C822 1.396 . S
C821 C828 1.403 . S
C822 C812 1.476 . S
C822 N817 1.318 . S
C822 C821 1.396 . S
H823 C818 0.929 . S
O824 Mn800 2.385 1_655 S
O824 C802 1.234 . S
O825 Mn800 2.209 1_655 S
O825 Mn801 2.215 . S
O825 C802 1.283 . S
O826 Mn800 2.094 . S
O826 C804 1.240 . S
O827 Mn801 2.117 . S
O827 C804 1.264 1_655 S
C828 C821 1.403 . S
C828 C829 1.399 . S
C828 H834 0.929 . S
C829 C809 1.449 . S
C829 C828 1.399 . S
C829 H835 0.930 . S
H830 C810 0.931 . S
H831 C811 0.930 . S
H832 C819 0.931 . S
H833 C820 0.929 . S
H834 C828 0.929 . S
H835 C829 0.930 . S
Mn836 O841 2.095 . S
Mn836 O851 2.162 . S
Mn836 O852 2.297 . S
Mn836 O860 2.385 . S
Mn836 O861 2.209 . S
Mn836 O862 2.094 . S
Mn837 O842 2.121 . S
Mn837 N844 2.257 . S
Mn837 N853 2.282 . S
Mn837 O861 2.215 . S
Mn837 O863 2.117 . S
C838 O860 1.234 . S
C838 O861 1.283 . S
C839 O851 1.281 . S
C839 O852 1.236 . S
C840 O862 1.240 . S
C840 O863 1.264 . S
O841 Mn836 2.095 . S
O841 C850 1.250 . S
O842 Mn837 2.121 . S
O842 C850 1.258 . S
C843 N844 1.326 . S
C843 C847 1.460 . S
C843 H849 0.929 . S
N844 Mn837 2.257 . S
N844 C843 1.326 . S
N844 C848 1.362 . S
C845 C846 1.258 . S
C845 C848 1.431 . S
C845 C865 1.449 . S
C846 C845 1.258 . S
C846 C847 1.477 . S
C846 H866 0.931 . S
C847 C843 1.460 . S
C847 C846 1.477 . S
C847 H867 0.930 . S
C848 N844 1.362 . S
C848 C845 1.431 . S
C848 C858 1.476 . S
H849 C843 0.929 . S
C850 O841 1.250 . S
C850 O842 1.258 . S
O851 Mn836 2.162 . S
O851 C839 1.281 . S
O852 Mn836 2.297 . S
O852 C839 1.236 . S
N853 Mn837 2.282 . S
N853 C854 1.328 . S
N853 C858 1.318 . S
C854 N853 1.328 . S
C854 C855 1.457 . S
C854 H859 0.929 . S
C855 C854 1.457 . S
C855 C856 1.291 . S
C855 H868 0.931 . S
C856 C855 1.291 . S
C856 C857 1.373 . S
C856 H869 0.929 . S
C857 C856 1.373 . S
C857 C858 1.396 . S
C857 C864 1.403 . S
C858 C848 1.476 . S
C858 N853 1.318 . S
C858 C857 1.396 . S
H859 C854 0.929 . S
O860 Mn836 2.385 . S
O860 C838 1.234 . S
O861 Mn836 2.209 . S
O861 Mn837 2.215 . S
O861 C838 1.283 . S
O862 Mn836 2.094 . S
O862 C840 1.240 . S
O863 Mn837 2.117 . S
O863 C840 1.264 . S
C864 C857 1.403 . S
C864 C865 1.399 . S
C864 H870 0.929 . S
C865 C845 1.449 . S
C865 C864 1.399 . S
C865 H871 0.930 . S
H866 C846 0.931 . S
H867 C847 0.930 . S
H868 C855 0.931 . S
H869 C856 0.929 . S
H870 C864 0.929 . S
H871 C865 0.930 . S
Mn872 O877 2.095 1_455 S
Mn872 O887 2.162 . S
Mn872 O888 2.297 1_455 S
Mn872 O896 2.385 . S
Mn872 O897 2.209 1_455 S
Mn872 O898 2.094 . S
Mn873 O878 2.121 . S
Mn873 N880 2.257 . S
Mn873 N889 2.282 . S
Mn873 O897 2.215 . S
Mn873 O899 2.117 1_655 S
C874 O896 1.234 . S
C874 O897 1.283 1_455 S
C875 O887 1.281 . S
C875 O888 1.236 1_455 S
C876 O898 1.240 . S
C876 O899 1.264 . S
O877 Mn872 2.095 1_655 S
O877 C886 1.250 . S
O878 Mn873 2.121 . S
O878 C886 1.258 . S
C879 N880 1.326 . S
C879 C883 1.460 . S
C879 H885 0.929 . S
N880 Mn873 2.257 . S
N880 C879 1.326 . S
N880 C884 1.362 . S
C881 C882 1.258 . S
C881 C884 1.431 . S
C881 C901 1.449 . S
C882 C881 1.258 . S
C882 C883 1.477 . S
C882 H902 0.931 . S
C883 C879 1.460 . S
C883 C882 1.477 . S
C883 H903 0.930 . S
C884 N880 1.362 . S
C884 C881 1.431 . S
C884 C894 1.476 . S
H885 C879 0.929 . S
C886 O877 1.250 . S
C886 O878 1.258 . S
O887 Mn872 2.162 . S
O887 C875 1.281 . S
O888 Mn872 2.297 1_655 S
O888 C875 1.236 1_655 S
N889 Mn873 2.282 . S
N889 C890 1.328 1_655 S
N889 C894 1.318 . S
C890 N889 1.328 1_455 S
C890 C891 1.457 . S
C890 H895 0.929 . S
C891 C890 1.457 . S
C891 C892 1.291 . S
C891 H904 0.931 . S
C892 C891 1.291 . S
C892 C893 1.373 1_455 S
C892 H905 0.929 . S
C893 C892 1.373 1_655 S
C893 C894 1.396 . S
C893 C900 1.403 . S
C894 C884 1.476 . S
C894 N889 1.318 . S
C894 C893 1.396 . S
H895 C890 0.929 . S
O896 Mn872 2.385 . S
O896 C874 1.234 . S
O897 Mn872 2.209 1_655 S
O897 Mn873 2.215 . S
O897 C874 1.283 1_655 S
O898 Mn872 2.094 . S
O898 C876 1.240 . S
O899 Mn873 2.117 1_455 S
O899 C876 1.264 . S
C900 C893 1.403 . S
C900 C901 1.399 . S
C900 H906 0.929 . S
C901 C881 1.449 . S
C901 C900 1.399 . S
C901 H907 0.930 . S
H902 C882 0.931 . S
H903 C883 0.930 . S
H904 C891 0.931 . S
H905 C892 0.929 . S
H906 C900 0.929 . S
H907 C901 0.930 . S
Mn908 O913 2.095 . S
Mn908 O923 2.162 . S
Mn908 O924 2.297 . S
Mn908 O932 2.385 . S
Mn908 O933 2.209 . S
Mn908 O934 2.094 . S
Mn909 O914 2.121 . S
Mn909 N916 2.257 . S
Mn909 N925 2.282 . S
Mn909 O933 2.215 . S
Mn909 O935 2.117 . S
C910 O932 1.234 . S
C910 O933 1.283 . S
C911 O923 1.281 . S
C911 O924 1.236 . S
C912 O934 1.240 . S
C912 O935 1.264 . S
O913 Mn908 2.095 . S
O913 C922 1.250 . S
O914 Mn909 2.121 . S
O914 C922 1.258 . S
C915 N916 1.326 . S
C915 C919 1.460 . S
C915 H921 0.929 . S
N916 Mn909 2.257 . S
N916 C915 1.326 . S
N916 C920 1.362 . S
C917 C918 1.258 . S
C917 C920 1.431 . S
C917 C937 1.449 . S
C918 C917 1.258 . S
C918 C919 1.477 . S
C918 H938 0.931 . S
C919 C915 1.460 . S
C919 C918 1.477 . S
C919 H939 0.930 . S
C920 N916 1.362 . S
C920 C917 1.431 . S
C920 C930 1.476 . S
H921 C915 0.929 . S
C922 O913 1.250 . S
C922 O914 1.258 . S
O923 Mn908 2.162 . S
O923 C911 1.281 . S
O924 Mn908 2.297 . S
O924 C911 1.236 . S
N925 Mn909 2.282 . S
N925 C926 1.328 . S
N925 C930 1.318 . S
C926 N925 1.328 . S
C926 C927 1.457 . S
C926 H931 0.929 . S
C927 C926 1.457 . S
C927 C928 1.291 . S
C927 H940 0.931 . S
C928 C927 1.291 . S
C928 C929 1.373 . S
C928 H941 0.929 . S
C929 C928 1.373 . S
C929 C930 1.396 . S
C929 C936 1.403 . S
C930 C920 1.476 . S
C930 N925 1.318 . S
C930 C929 1.396 . S
H931 C926 0.929 . S
O932 Mn908 2.385 . S
O932 C910 1.234 . S
O933 Mn908 2.209 . S
O933 Mn909 2.215 . S
O933 C910 1.283 . S
O934 Mn908 2.094 . S
O934 C912 1.240 . S
O935 Mn909 2.117 . S
O935 C912 1.264 . S
C936 C929 1.403 . S
C936 C937 1.399 . S
C936 H942 0.929 . S
C937 C917 1.449 . S
C937 C936 1.399 . S
C937 H943 0.930 . S
H938 C918 0.931 . S
H939 C919 0.930 . S
H940 C927 0.931 . S
H941 C928 0.929 . S
H942 C936 0.929 . S
H943 C937 0.930 . S
C944 C945 1.363 . S
C944 C950 1.379 . S
C944 N952 1.356 . S
C945 C944 1.363 . S
C945 C951 1.363 . S
C946 C947 1.363 . S
C946 C951 1.379 . S
C946 N953 1.356 . S
C947 C946 1.363 . S
C947 C950 1.363 . S
N948 C950 1.356 . S
N948 H960 0.984 . S
N948 H961 0.985 . S
N949 C951 1.356 . S
N949 H954 0.984 . S
N949 H955 0.985 . S
C950 C944 1.379 . S
C950 C947 1.363 . S
C950 N948 1.356 . S
C951 C945 1.363 . S
C951 C946 1.379 . S
C951 N949 1.356 . S
N952 C944 1.356 . S
N952 H958 0.984 . S
N952 H959 0.984 . S
N953 C946 1.356 . S
N953 H956 0.984 . S
N953 H957 0.985 . S
H954 N949 0.984 . S
H955 N949 0.985 . S
H956 N953 0.984 . S
H957 N953 0.985 . S
H958 N952 0.984 . S
H959 N952 0.984 . S
H960 N948 0.984 . S
H961 N948 0.985 . S
C962 C963 1.363 . S
C962 C968 1.379 . S
C962 N970 1.356 . S
C963 C962 1.363 . S
C963 C969 1.363 . S
C964 C965 1.363 . S
C964 C969 1.379 . S
C964 N971 1.356 . S
C965 C964 1.363 . S
C965 C968 1.363 . S
N966 C968 1.356 . S
N966 H978 0.984 . S
N966 H979 0.985 . S
N967 C969 1.356 . S
N967 H972 0.984 . S
N967 H973 0.985 . S
C968 C962 1.379 . S
C968 C965 1.363 . S
C968 N966 1.356 . S
C969 C963 1.363 . S
C969 C964 1.379 . S
C969 N967 1.356 . S
N970 C962 1.356 . S
N970 H976 0.984 . S
N970 H977 0.984 . S
N971 C964 1.356 . S
N971 H974 0.984 . S
N971 H975 0.985 . S
H972 N967 0.984 . S
H973 N967 0.985 . S
H974 N971 0.984 . S
H975 N971 0.985 . S
H976 N970 0.984 . S
H977 N970 0.984 . S
H978 N966 0.984 . S
H979 N966 0.985 . S
C980 C981 1.363 . S
C980 C986 1.379 . S
C980 N988 1.356 . S
C981 C980 1.363 . S
C981 C987 1.363 . S
C982 C983 1.363 . S
C982 C987 1.379 . S
C982 N989 1.356 . S
C983 C982 1.363 . S
C983 C986 1.363 . S
N984 C986 1.356 . S
N984 H996 0.984 . S
N984 H997 0.985 . S
N985 C987 1.356 . S
N985 H990 0.984 . S
N985 H991 0.985 . S
C986 C980 1.379 . S
C986 C983 1.363 . S
C986 N984 1.356 . S
C987 C981 1.363 . S
C987 C982 1.379 . S
C987 N985 1.356 . S
N988 C980 1.356 . S
N988 H994 0.984 . S
N988 H995 0.984 . S
N989 C982 1.356 . S
N989 H992 0.984 . S
N989 H993 0.985 . S
H990 N985 0.984 . S
H991 N985 0.985 . S
H992 N989 0.984 . S
H993 N989 0.985 . S
H994 N988 0.984 . S
H995 N988 0.984 . S
H996 N984 0.984 . S
H997 N984 0.985 . S
C998 C999 1.363 . S
C998 C1004 1.379 . S
C998 N1006 1.356 . S
C999 C998 1.363 . S
C999 C1005 1.363 1_565 S
C1000 C1001 1.363 1_545 S
C1000 C1005 1.379 . S
C1000 N1007 1.356 . S
C1001 C1000 1.363 1_565 S
C1001 C1004 1.363 . S
N1002 C1004 1.356 . S
N1002 H1014 0.984 . S
N1002 H1015 0.985 . S
N1003 C1005 1.356 . S
N1003 H1008 0.984 . S
N1003 H1009 0.985 . S
C1004 C998 1.379 . S
C1004 C1001 1.363 . S
C1004 N1002 1.356 . S
C1005 C999 1.363 1_545 S
C1005 C1000 1.379 . S
C1005 N1003 1.356 . S
N1006 C998 1.356 . S
N1006 H1012 0.984 . S
N1006 H1013 0.984 . S
N1007 C1000 1.356 . S
N1007 H1010 0.984 . S
N1007 H1011 0.985 . S
H1008 N1003 0.984 . S
H1009 N1003 0.985 . S
H1010 N1007 0.984 . S
H1011 N1007 0.985 . S
H1012 N1006 0.984 . S
H1013 N1006 0.984 . S
H1014 N1002 0.984 . S
H1015 N1002 0.985 . S
C1016 C1017 1.363 . S
C1016 C1022 1.379 . S
C1016 N1024 1.356 . S
C1017 C1016 1.363 . S
C1017 C1023 1.363 . S
C1018 C1019 1.363 . S
C1018 C1023 1.379 . S
C1018 N1025 1.356 . S
C1019 C1018 1.363 . S
C1019 C1022 1.363 . S
N1020 C1022 1.356 . S
N1020 H1032 0.984 . S
N1020 H1033 0.985 . S
N1021 C1023 1.356 . S
N1021 H1026 0.984 . S
N1021 H1027 0.985 . S
C1022 C1016 1.379 . S
C1022 C1019 1.363 . S
C1022 N1020 1.356 . S
C1023 C1017 1.363 . S
C1023 C1018 1.379 . S
C1023 N1021 1.356 . S
N1024 C1016 1.356 . S
N1024 H1030 0.984 . S
N1024 H1031 0.984 . S
N1025 C1018 1.356 . S
N1025 H1028 0.984 . S
N1025 H1029 0.985 . S
H1026 N1021 0.984 . S
H1027 N1021 0.985 . S
H1028 N1025 0.984 . S
H1029 N1025 0.985 . S
H1030 N1024 0.984 . S
H1031 N1024 0.984 . S
H1032 N1020 0.984 . S
H1033 N1020 0.985 . S
C1034 C1035 1.363 . S
C1034 C1040 1.379 . S
C1034 N1042 1.356 . S
C1035 C1034 1.363 . S
C1035 C1041 1.363 . S
C1036 C1037 1.363 . S
C1036 C1041 1.379 . S
C1036 N1043 1.356 . S
C1037 C1036 1.363 . S
C1037 C1040 1.363 . S
N1038 C1040 1.356 . S
N1038 H1050 0.984 . S
N1038 H1051 0.985 . S
N1039 C1041 1.356 . S
N1039 H1044 0.984 . S
N1039 H1045 0.985 . S
C1040 C1034 1.379 . S
C1040 C1037 1.363 . S
C1040 N1038 1.356 . S
C1041 C1035 1.363 . S
C1041 C1036 1.379 . S
C1041 N1039 1.356 . S
N1042 C1034 1.356 . S
N1042 H1048 0.984 . S
N1042 H1049 0.984 . S
N1043 C1036 1.356 . S
N1043 H1046 0.984 . S
N1043 H1047 0.985 . S
H1044 N1039 0.984 . S
H1045 N1039 0.985 . S
H1046 N1043 0.984 . S
H1047 N1043 0.985 . S
H1048 N1042 0.984 . S
H1049 N1042 0.984 . S
H1050 N1038 0.984 . S
H1051 N1038 0.985 . S
C1052 C1053 1.363 . S
C1052 C1058 1.379 . S
C1052 N1060 1.356 . S
C1053 C1052 1.363 . S
C1053 C1059 1.363 . S
C1054 C1055 1.363 . S
C1054 C1059 1.379 . S
C1054 N1061 1.356 . S
C1055 C1054 1.363 . S
C1055 C1058 1.363 . S
N1056 C1058 1.356 . S
N1056 H1068 0.984 . S
N1056 H1069 0.985 . S
N1057 C1059 1.356 . S
N1057 H1062 0.984 . S
N1057 H1063 0.985 . S
C1058 C1052 1.379 . S
C1058 C1055 1.363 . S
C1058 N1056 1.356 . S
C1059 C1053 1.363 . S
C1059 C1054 1.379 . S
C1059 N1057 1.356 . S
N1060 C1052 1.356 . S
N1060 H1066 0.984 . S
N1060 H1067 0.984 . S
N1061 C1054 1.356 . S
N1061 H1064 0.984 . S
N1061 H1065 0.985 . S
H1062 N1057 0.984 . S
H1063 N1057 0.985 . S
H1064 N1061 0.984 . S
H1065 N1061 0.985 . S
H1066 N1060 0.984 . S
H1067 N1060 0.984 . S
H1068 N1056 0.984 . S
H1069 N1056 0.985 . S
C1070 C1071 1.363 1_545 S
C1070 C1076 1.379 . S
C1070 N1078 1.356 . S
C1071 C1070 1.363 1_565 S
C1071 C1077 1.363 . S
C1072 C1073 1.363 . S
C1072 C1077 1.379 . S
C1072 N1079 1.356 . S
C1073 C1072 1.363 . S
C1073 C1076 1.363 1_565 S
N1074 C1076 1.356 . S
N1074 H1086 0.984 . S
N1074 H1087 0.985 . S
N1075 C1077 1.356 . S
N1075 H1080 0.984 . S
N1075 H1081 0.985 . S
C1076 C1070 1.379 . S
C1076 C1073 1.363 1_545 S
C1076 N1074 1.356 . S
C1077 C1071 1.363 . S
C1077 C1072 1.379 . S
C1077 N1075 1.356 . S
N1078 C1070 1.356 . S
N1078 H1084 0.984 . S
N1078 H1085 0.984 . S
N1079 C1072 1.356 . S
N1079 H1082 0.984 . S
N1079 H1083 0.985 . S
H1080 N1075 0.984 . S
H1081 N1075 0.985 . S
H1082 N1079 0.984 . S
H1083 N1079 0.985 . S
H1084 N1078 0.984 . S
H1085 N1078 0.984 . S
H1086 N1074 0.984 . S
H1087 N1074 0.985 . S
C1088 C1089 1.363 . S
C1088 C1094 1.379 . S
C1088 N1096 1.356 . S
C1089 C1088 1.363 . S
C1089 C1095 1.363 . S
C1090 C1091 1.363 . S
C1090 C1095 1.379 . S
C1090 N1097 1.356 . S
C1091 C1090 1.363 . S
C1091 C1094 1.363 . S
N1092 C1094 1.356 . S
N1092 H1104 0.984 . S
N1092 H1105 0.985 . S
N1093 C1095 1.356 . S
N1093 H1098 0.984 . S
N1093 H1099 0.985 . S
C1094 C1088 1.379 . S
C1094 C1091 1.363 . S
C1094 N1092 1.356 . S
C1095 C1089 1.363 . S
C1095 C1090 1.379 . S
C1095 N1093 1.356 . S
N1096 C1088 1.356 . S
N1096 H1102 0.984 . S
N1096 H1103 0.984 . S
N1097 C1090 1.356 . S
N1097 H1100 0.984 . S
N1097 H1101 0.985 . S
H1098 N1093 0.984 . S
H1099 N1093 0.985 . S
H1100 N1097 0.984 . S
H1101 N1097 0.985 . S
H1102 N1096 0.984 . S
H1103 N1096 0.984 . S
H1104 N1092 0.984 . S
H1105 N1092 0.985 . S
C1106 C1107 1.363 . S
C1106 C1112 1.379 . S
C1106 N1114 1.356 . S
C1107 C1106 1.363 . S
C1107 C1113 1.363 . S
C1108 C1109 1.363 . S
C1108 C1113 1.379 . S
C1108 N1115 1.356 . S
C1109 C1108 1.363 . S
C1109 C1112 1.363 . S
N1110 C1112 1.356 . S
N1110 H1122 0.984 . S
N1110 H1123 0.985 . S
N1111 C1113 1.356 . S
N1111 H1116 0.984 . S
N1111 H1117 0.985 . S
C1112 C1106 1.379 . S
C1112 C1109 1.363 . S
C1112 N1110 1.356 . S
C1113 C1107 1.363 . S
C1113 C1108 1.379 . S
C1113 N1111 1.356 . S
N1114 C1106 1.356 . S
N1114 H1120 0.984 . S
N1114 H1121 0.984 . S
N1115 C1108 1.356 . S
N1115 H1118 0.984 . S
N1115 H1119 0.985 . S
H1116 N1111 0.984 . S
H1117 N1111 0.985 . S
H1118 N1115 0.984 . S
H1119 N1115 0.985 . S
H1120 N1114 0.984 . S
H1121 N1114 0.984 . S
H1122 N1110 0.984 . S
H1123 N1110 0.985 . S
C1124 C1125 1.363 . S
C1124 C1130 1.379 . S
C1124 N1132 1.356 . S
C1125 C1124 1.363 . S
C1125 C1131 1.363 . S
C1126 C1127 1.363 . S
C1126 C1131 1.379 . S
C1126 N1133 1.356 . S
C1127 C1126 1.363 . S
C1127 C1130 1.363 . S
N1128 C1130 1.356 . S
N1128 H1140 0.984 . S
N1128 H1141 0.985 . S
N1129 C1131 1.356 . S
N1129 H1134 0.984 . S
N1129 H1135 0.985 . S
C1130 C1124 1.379 . S
C1130 C1127 1.363 . S
C1130 N1128 1.356 . S
C1131 C1125 1.363 . S
C1131 C1126 1.379 . S
C1131 N1129 1.356 . S
N1132 C1124 1.356 . S
N1132 H1138 0.984 . S
N1132 H1139 0.984 . S
N1133 C1126 1.356 . S
N1133 H1136 0.984 . S
N1133 H1137 0.985 . S
H1134 N1129 0.984 . S
H1135 N1129 0.985 . S
H1136 N1133 0.984 . S
H1137 N1133 0.985 . S
H1138 N1132 0.984 . S
H1139 N1132 0.984 . S
H1140 N1128 0.984 . S
H1141 N1128 0.985 . S
C1142 C1143 1.363 . S
C1142 C1148 1.379 . S
C1142 N1150 1.356 . S
C1143 C1142 1.363 . S
C1143 C1149 1.363 . S
C1144 C1145 1.363 . S
C1144 C1149 1.379 . S
C1144 N1151 1.356 . S
C1145 C1144 1.363 . S
C1145 C1148 1.363 . S
N1146 C1148 1.356 . S
N1146 H1158 0.984 . S
N1146 H1159 0.985 . S
N1147 C1149 1.356 . S
N1147 H1152 0.984 . S
N1147 H1153 0.985 . S
C1148 C1142 1.379 . S
C1148 C1145 1.363 . S
C1148 N1146 1.356 . S
C1149 C1143 1.363 . S
C1149 C1144 1.379 . S
C1149 N1147 1.356 . S
N1150 C1142 1.356 . S
N1150 H1156 0.984 . S
N1150 H1157 0.984 . S
N1151 C1144 1.356 . S
N1151 H1154 0.984 . S
N1151 H1155 0.985 . S
H1152 N1147 0.984 . S
H1153 N1147 0.985 . S
H1154 N1151 0.984 . S
H1155 N1151 0.985 . S
H1156 N1150 0.984 . S
H1157 N1150 0.984 . S
H1158 N1146 0.984 . S
H1159 N1146 0.985 . S
C1160 C1161 1.363 . S
C1160 C1166 1.379 . S
C1160 N1168 1.356 . S
C1161 C1160 1.363 . S
C1161 C1167 1.363 . S
C1162 C1163 1.363 . S
C1162 C1167 1.379 . S
C1162 N1169 1.356 . S
C1163 C1162 1.363 . S
C1163 C1166 1.363 . S
N1164 C1166 1.356 . S
N1164 H1176 0.984 . S
N1164 H1177 0.985 . S
N1165 C1167 1.356 . S
N1165 H1170 0.984 . S
N1165 H1171 0.985 . S
C1166 C1160 1.379 . S
C1166 C1163 1.363 . S
C1166 N1164 1.356 . S
C1167 C1161 1.363 . S
C1167 C1162 1.379 . S
C1167 N1165 1.356 . S
N1168 C1160 1.356 . S
N1168 H1174 0.984 . S
N1168 H1175 0.984 . S
N1169 C1162 1.356 . S
N1169 H1172 0.984 . S
N1169 H1173 0.985 . S
H1170 N1165 0.984 . S
H1171 N1165 0.985 . S
H1172 N1169 0.984 . S
H1173 N1169 0.985 . S
H1174 N1168 0.984 . S
H1175 N1168 0.984 . S
H1176 N1164 0.984 . S
H1177 N1164 0.985 . S
C1178 C1179 1.363 . S
C1178 C1184 1.379 . S
C1178 N1186 1.356 . S
C1179 C1178 1.363 . S
C1179 C1185 1.363 1_455 S
C1180 C1181 1.363 1_655 S
C1180 C1185 1.379 . S
C1180 N1187 1.356 . S
C1181 C1180 1.363 1_455 S
C1181 C1184 1.363 . S
N1182 C1184 1.356 . S
N1182 H1194 0.984 . S
N1182 H1195 0.985 . S
N1183 C1185 1.356 . S
N1183 H1188 0.984 . S
N1183 H1189 0.985 . S
C1184 C1178 1.379 . S
C1184 C1181 1.363 . S
C1184 N1182 1.356 . S
C1185 C1179 1.363 1_655 S
C1185 C1180 1.379 . S
C1185 N1183 1.356 . S
N1186 C1178 1.356 . S
N1186 H1192 0.984 . S
N1186 H1193 0.984 . S
N1187 C1180 1.356 . S
N1187 H1190 0.984 . S
N1187 H1191 0.985 . S
H1188 N1183 0.984 . S
H1189 N1183 0.985 . S
H1190 N1187 0.984 . S
H1191 N1187 0.985 . S
H1192 N1186 0.984 . S
H1193 N1186 0.984 . S
H1194 N1182 0.984 . S
H1195 N1182 0.985 . S
C1196 C1197 1.363 . S
C1196 C1202 1.379 . S
C1196 N1204 1.356 . S
C1197 C1196 1.363 . S
C1197 C1203 1.363 . S
C1198 C1199 1.363 . S
C1198 C1203 1.379 . S
C1198 N1205 1.356 . S
C1199 C1198 1.363 . S
C1199 C1202 1.363 . S
N1200 C1202 1.356 . S
N1200 H1212 0.984 . S
N1200 H1213 0.985 . S
N1201 C1203 1.356 . S
N1201 H1206 0.984 . S
N1201 H1207 0.985 . S
C1202 C1196 1.379 . S
C1202 C1199 1.363 . S
C1202 N1200 1.356 . S
C1203 C1197 1.363 . S
C1203 C1198 1.379 . S
C1203 N1201 1.356 . S
N1204 C1196 1.356 . S
N1204 H1210 0.984 . S
N1204 H1211 0.984 . S
N1205 C1198 1.356 . S
N1205 H1208 0.984 . S
N1205 H1209 0.985 . S
H1206 N1201 0.984 . S
H1207 N1201 0.985 . S
H1208 N1205 0.984 . S
H1209 N1205 0.985 . S
H1210 N1204 0.984 . S
H1211 N1204 0.984 . S
H1212 N1200 0.984 . S
H1213 N1200 0.985 . S
C1214 C1215 1.363 1_455 S
C1214 C1220 1.379 . S
C1214 N1222 1.356 . S
C1215 C1214 1.363 1_655 S
C1215 C1221 1.363 . S
C1216 C1217 1.363 . S
C1216 C1221 1.379 . S
C1216 N1223 1.356 . S
C1217 C1216 1.363 . S
C1217 C1220 1.363 1_655 S
N1218 C1220 1.356 . S
N1218 H1230 0.984 . S
N1218 H1231 0.985 . S
N1219 C1221 1.356 . S
N1219 H1224 0.984 . S
N1219 H1225 0.985 . S
C1220 C1214 1.379 . S
C1220 C1217 1.363 1_455 S
C1220 N1218 1.356 . S
C1221 C1215 1.363 . S
C1221 C1216 1.379 . S
C1221 N1219 1.356 . S
N1222 C1214 1.356 . S
N1222 H1228 0.984 . S
N1222 H1229 0.984 . S
N1223 C1216 1.356 . S
N1223 H1226 0.984 . S
N1223 H1227 0.985 . S
H1224 N1219 0.984 . S
H1225 N1219 0.985 . S
H1226 N1223 0.984 . S
H1227 N1223 0.985 . S
H1228 N1222 0.984 . S
H1229 N1222 0.984 . S
H1230 N1218 0.984 . S
H1231 N1218 0.985 . S
C1232 C1233 1.363 . S
C1232 C1238 1.379 . S
C1232 N1240 1.356 . S
C1233 C1232 1.363 . S
C1233 C1239 1.363 . S
C1234 C1235 1.363 . S
C1234 C1239 1.379 . S
C1234 N1241 1.356 . S
C1235 C1234 1.363 . S
C1235 C1238 1.363 . S
N1236 C1238 1.356 . S
N1236 H1248 0.984 . S
N1236 H1249 0.985 . S
N1237 C1239 1.356 . S
N1237 H1242 0.984 . S
N1237 H1243 0.985 . S
C1238 C1232 1.379 . S
C1238 C1235 1.363 . S
C1238 N1236 1.356 . S
C1239 C1233 1.363 . S
C1239 C1234 1.379 . S
C1239 N1237 1.356 . S
N1240 C1232 1.356 . S
N1240 H1246 0.984 . S
N1240 H1247 0.984 . S
N1241 C1234 1.356 . S
N1241 H1244 0.984 . S
N1241 H1245 0.985 . S
H1242 N1237 0.984 . S
H1243 N1237 0.985 . S
H1244 N1241 0.984 . S
H1245 N1241 0.985 . S
H1246 N1240 0.984 . S
H1247 N1240 0.984 . S
H1248 N1236 0.984 . S
H1249 N1236 0.985 . S
C1250 C1251 1.363 . S
C1250 C1256 1.379 . S
C1250 N1258 1.356 . S
C1251 C1250 1.363 . S
C1251 C1257 1.363 . S
C1252 C1253 1.363 . S
C1252 C1257 1.379 . S
C1252 N1259 1.356 . S
C1253 C1252 1.363 . S
C1253 C1256 1.363 . S
N1254 C1256 1.356 . S
N1254 H1266 0.984 . S
N1254 H1267 0.985 . S
N1255 C1257 1.356 . S
N1255 H1260 0.984 . S
N1255 H1261 0.985 . S
C1256 C1250 1.379 . S
C1256 C1253 1.363 . S
C1256 N1254 1.356 . S
C1257 C1251 1.363 . S
C1257 C1252 1.379 . S
C1257 N1255 1.356 . S
N1258 C1250 1.356 . S
N1258 H1264 0.984 . S
N1258 H1265 0.984 . S
N1259 C1252 1.356 . S
N1259 H1262 0.984 . S
N1259 H1263 0.985 . S
H1260 N1255 0.984 . S
H1261 N1255 0.985 . S
H1262 N1259 0.984 . S
H1263 N1259 0.985 . S
H1264 N1258 0.984 . S
H1265 N1258 0.984 . S
H1266 N1254 0.984 . S
H1267 N1254 0.985 . S
C1268 C1269 1.363 1_554 S
C1268 C1274 1.379 . S
C1268 N1276 1.356 . S
C1269 C1268 1.363 1_556 S
C1269 C1275 1.363 . S
C1270 C1271 1.363 1_556 S
C1270 C1275 1.379 . S
C1270 N1277 1.356 . S
C1271 C1270 1.363 1_554 S
C1271 C1274 1.363 . S
N1272 C1274 1.356 . S
N1272 H1284 0.984 . S
N1272 H1285 0.985 . S
N1273 C1275 1.356 . S
N1273 H1278 0.984 . S
N1273 H1279 0.985 . S
C1274 C1268 1.379 . S
C1274 C1271 1.363 . S
C1274 N1272 1.356 . S
C1275 C1269 1.363 . S
C1275 C1270 1.379 . S
C1275 N1273 1.356 . S
N1276 C1268 1.356 . S
N1276 H1282 0.984 . S
N1276 H1283 0.984 . S
N1277 C1270 1.356 . S
N1277 H1280 0.984 . S
N1277 H1281 0.985 . S
H1278 N1273 0.984 . S
H1279 N1273 0.985 . S
H1280 N1277 0.984 . S
H1281 N1277 0.985 . S
H1282 N1276 0.984 . S
H1283 N1276 0.984 . S
H1284 N1272 0.984 . S
H1285 N1272 0.985 . S
C1286 C1287 1.363 . S
C1286 C1292 1.379 . S
C1286 N1294 1.356 . S
C1287 C1286 1.363 . S
C1287 C1293 1.363 . S
C1288 C1289 1.363 . S
C1288 C1293 1.379 . S
C1288 N1295 1.356 . S
C1289 C1288 1.363 . S
C1289 C1292 1.363 . S
N1290 C1292 1.356 . S
N1290 H1302 0.984 . S
N1290 H1303 0.985 . S
N1291 C1293 1.356 . S
N1291 H1296 0.984 . S
N1291 H1297 0.985 . S
C1292 C1286 1.379 . S
C1292 C1289 1.363 . S
C1292 N1290 1.356 . S
C1293 C1287 1.363 . S
C1293 C1288 1.379 . S
C1293 N1291 1.356 . S
N1294 C1286 1.356 . S
N1294 H1300 0.984 . S
N1294 H1301 0.984 . S
N1295 C1288 1.356 . S
N1295 H1298 0.984 . S
N1295 H1299 0.985 . S
H1296 N1291 0.984 . S
H1297 N1291 0.985 . S
H1298 N1295 0.984 . S
H1299 N1295 0.985 . S
H1300 N1294 0.984 . S
H1301 N1294 0.984 . S
H1302 N1290 0.984 . S
H1303 N1290 0.985 . S
C1304 C1305 1.363 . S
C1304 C1310 1.379 . S
C1304 N1312 1.356 . S
C1305 C1304 1.363 . S
C1305 C1311 1.363 . S
C1306 C1307 1.363 . S
C1306 C1311 1.379 . S
C1306 N1313 1.356 . S
C1307 C1306 1.363 . S
C1307 C1310 1.363 . S
N1308 C1310 1.356 . S
N1308 H1320 0.984 . S
N1308 H1321 0.985 . S
N1309 C1311 1.356 . S
N1309 H1314 0.984 . S
N1309 H1315 0.985 . S
C1310 C1304 1.379 . S
C1310 C1307 1.363 . S
C1310 N1308 1.356 . S
C1311 C1305 1.363 . S
C1311 C1306 1.379 . S
C1311 N1309 1.356 . S
N1312 C1304 1.356 . S
N1312 H1318 0.984 . S
N1312 H1319 0.984 . S
N1313 C1306 1.356 . S
N1313 H1316 0.984 . S
N1313 H1317 0.985 . S
H1314 N1309 0.984 . S
H1315 N1309 0.985 . S
H1316 N1313 0.984 . S
H1317 N1313 0.985 . S
H1318 N1312 0.984 . S
H1319 N1312 0.984 . S
H1320 N1308 0.984 . S
H1321 N1308 0.985 . S
C1322 C1323 1.363 . S
C1322 C1328 1.379 . S
C1322 N1330 1.356 . S
C1323 C1322 1.363 . S
C1323 C1329 1.363 . S
C1324 C1325 1.363 . S
C1324 C1329 1.379 . S
C1324 N1331 1.356 . S
C1325 C1324 1.363 . S
C1325 C1328 1.363 . S
N1326 C1328 1.356 . S
N1326 H1338 0.984 . S
N1326 H1339 0.985 . S
N1327 C1329 1.356 . S
N1327 H1332 0.984 . S
N1327 H1333 0.985 . S
C1328 C1322 1.379 . S
C1328 C1325 1.363 . S
C1328 N1326 1.356 . S
C1329 C1323 1.363 . S
C1329 C1324 1.379 . S
C1329 N1327 1.356 . S
N1330 C1322 1.356 . S
N1330 H1336 0.984 . S
N1330 H1337 0.984 . S
N1331 C1324 1.356 . S
N1331 H1334 0.984 . S
N1331 H1335 0.985 . S
H1332 N1327 0.984 . S
H1333 N1327 0.985 . S
H1334 N1331 0.984 . S
H1335 N1331 0.985 . S
H1336 N1330 0.984 . S
H1337 N1330 0.984 . S
H1338 N1326 0.984 . S
H1339 N1326 0.985 . S
C1340 C1341 1.363 . S
C1340 C1346 1.379 . S
C1340 N1348 1.356 . S
C1341 C1340 1.363 . S
C1341 C1347 1.363 . S
C1342 C1343 1.363 . S
C1342 C1347 1.379 . S
C1342 N1349 1.356 . S
C1343 C1342 1.363 . S
C1343 C1346 1.363 . S
N1344 C1346 1.356 . S
N1344 H1356 0.984 . S
N1344 H1357 0.985 . S
N1345 C1347 1.356 . S
N1345 H1350 0.984 . S
N1345 H1351 0.985 . S
C1346 C1340 1.379 . S
C1346 C1343 1.363 . S
C1346 N1344 1.356 . S
C1347 C1341 1.363 . S
C1347 C1342 1.379 . S
C1347 N1345 1.356 . S
N1348 C1340 1.356 . S
N1348 H1354 0.984 . S
N1348 H1355 0.984 . S
N1349 C1342 1.356 . S
N1349 H1352 0.984 . S
N1349 H1353 0.985 . S
H1350 N1345 0.984 . S
H1351 N1345 0.985 . S
H1352 N1349 0.984 . S
H1353 N1349 0.985 . S
H1354 N1348 0.984 . S
H1355 N1348 0.984 . S
H1356 N1344 0.984 . S
H1357 N1344 0.985 . S
C1358 C1359 1.363 . S
C1358 C1364 1.379 . S
C1358 N1366 1.356 . S
C1359 C1358 1.363 . S
C1359 C1365 1.363 . S
C1360 C1361 1.363 . S
C1360 C1365 1.379 . S
C1360 N1367 1.356 . S
C1361 C1360 1.363 . S
C1361 C1364 1.363 . S
N1362 C1364 1.356 . S
N1362 H1374 0.984 . S
N1362 H1375 0.985 . S
N1363 C1365 1.356 . S
N1363 H1368 0.984 . S
N1363 H1369 0.985 . S
C1364 C1358 1.379 . S
C1364 C1361 1.363 . S
C1364 N1362 1.356 . S
C1365 C1359 1.363 . S
C1365 C1360 1.379 . S
C1365 N1363 1.356 . S
N1366 C1358 1.356 . S
N1366 H1372 0.984 . S
N1366 H1373 0.984 . S
N1367 C1360 1.356 . S
N1367 H1370 0.984 . S
N1367 H1371 0.985 . S
H1368 N1363 0.984 . S
H1369 N1363 0.985 . S
H1370 N1367 0.984 . S
H1371 N1367 0.985 . S
H1372 N1366 0.984 . S
H1373 N1366 0.984 . S
H1374 N1362 0.984 . S
H1375 N1362 0.985 . S
C1376 C1377 1.363 . S
C1376 C1382 1.379 . S
C1376 N1384 1.356 . S
C1377 C1376 1.363 . S
C1377 C1383 1.363 . S
C1378 C1379 1.363 . S
C1378 C1383 1.379 . S
C1378 N1385 1.356 . S
C1379 C1378 1.363 . S
C1379 C1382 1.363 . S
N1380 C1382 1.356 . S
N1380 H1392 0.984 . S
N1380 H1393 0.985 . S
N1381 C1383 1.356 . S
N1381 H1386 0.984 . S
N1381 H1387 0.985 . S
C1382 C1376 1.379 . S
C1382 C1379 1.363 . S
C1382 N1380 1.356 . S
C1383 C1377 1.363 . S
C1383 C1378 1.379 . S
C1383 N1381 1.356 . S
N1384 C1376 1.356 . S
N1384 H1390 0.984 . S
N1384 H1391 0.984 . S
N1385 C1378 1.356 . S
N1385 H1388 0.984 . S
N1385 H1389 0.985 . S
H1386 N1381 0.984 . S
H1387 N1381 0.985 . S
H1388 N1385 0.984 . S
H1389 N1385 0.985 . S
H1390 N1384 0.984 . S
H1391 N1384 0.984 . S
H1392 N1380 0.984 . S
H1393 N1380 0.985 . S
C1394 C1395 1.363 . S
C1394 C1400 1.379 . S
C1394 N1402 1.356 . S
C1395 C1394 1.363 . S
C1395 C1401 1.363 . S
C1396 C1397 1.363 1_565 S
C1396 C1401 1.379 1_565 S
C1396 N1403 1.356 . S
C1397 C1396 1.363 1_545 S
C1397 C1400 1.363 . S
N1398 C1400 1.356 . S
N1398 H1410 0.984 . S
N1398 H1411 0.985 . S
N1399 C1401 1.356 1_565 S
N1399 H1404 0.986 . S
N1399 H1405 0.985 . S
C1400 C1394 1.379 . S
C1400 C1397 1.363 . S
C1400 N1398 1.356 . S
C1401 C1395 1.363 . S
C1401 C1396 1.379 1_545 S
C1401 N1399 1.356 1_545 S
N1402 C1394 1.356 . S
N1402 H1408 0.984 . S
N1402 H1409 0.984 . S
N1403 C1396 1.356 . S
N1403 H1406 0.984 . S
N1403 H1407 0.985 . S
H1404 N1399 0.986 . S
H1405 N1399 0.985 . S
H1406 N1403 0.984 . S
H1407 N1403 0.985 . S
H1408 N1402 0.984 . S
H1409 N1402 0.984 . S
H1410 N1398 0.984 . S
H1411 N1398 0.985 . S
C1412 C1413 1.363 . S
C1412 C1418 1.379 . S
C1412 N1420 1.356 . S
C1413 C1412 1.363 . S
C1413 C1419 1.363 . S
C1414 C1415 1.363 . S
C1414 C1419 1.379 . S
C1414 N1421 1.356 . S
C1415 C1414 1.363 . S
C1415 C1418 1.363 . S
N1416 C1418 1.356 . S
N1416 H1428 0.984 . S
N1416 H1429 0.985 . S
N1417 C1419 1.356 . S
N1417 H1422 0.984 . S
N1417 H1423 0.985 . S
C1418 C1412 1.379 . S
C1418 C1415 1.363 . S
C1418 N1416 1.356 . S
C1419 C1413 1.363 . S
C1419 C1414 1.379 . S
C1419 N1417 1.356 . S
N1420 C1412 1.356 . S
N1420 H1426 0.984 . S
N1420 H1427 0.984 . S
N1421 C1414 1.356 . S
N1421 H1424 0.984 . S
N1421 H1425 0.985 . S
H1422 N1417 0.984 . S
H1423 N1417 0.985 . S
H1424 N1421 0.984 . S
H1425 N1421 0.985 . S
H1426 N1420 0.984 . S
H1427 N1420 0.984 . S
H1428 N1416 0.984 . S
H1429 N1416 0.985 . S
C1430 C1431 1.363 . S
C1430 C1436 1.379 . S
C1430 N1438 1.356 . S
C1431 C1430 1.363 . S
C1431 C1437 1.363 . S
C1432 C1433 1.363 . S
C1432 C1437 1.379 . S
C1432 N1439 1.356 . S
C1433 C1432 1.363 . S
C1433 C1436 1.363 . S
N1434 C1436 1.356 . S
N1434 H1446 0.984 . S
N1434 H1447 0.985 . S
N1435 C1437 1.356 . S
N1435 H1440 0.984 . S
N1435 H1441 0.985 . S
C1436 C1430 1.379 . S
C1436 C1433 1.363 . S
C1436 N1434 1.356 . S
C1437 C1431 1.363 . S
C1437 C1432 1.379 . S
C1437 N1435 1.356 . S
N1438 C1430 1.356 . S
N1438 H1444 0.984 . S
N1438 H1445 0.984 . S
N1439 C1432 1.356 . S
N1439 H1442 0.984 . S
N1439 H1443 0.985 . S
H1440 N1435 0.984 . S
H1441 N1435 0.985 . S
H1442 N1439 0.984 . S
H1443 N1439 0.985 . S
H1444 N1438 0.984 . S
H1445 N1438 0.984 . S
H1446 N1434 0.984 . S
H1447 N1434 0.985 . S
C1448 C1449 1.363 . S
C1448 C1454 1.379 . S
C1448 N1456 1.356 . S
C1449 C1448 1.363 . S
C1449 C1455 1.363 . S
C1450 C1451 1.363 . S
C1450 C1455 1.379 . S
C1450 N1457 1.356 . S
C1451 C1450 1.363 . S
C1451 C1454 1.363 . S
N1452 C1454 1.356 . S
N1452 H1464 0.984 . S
N1452 H1465 0.985 . S
N1453 C1455 1.356 . S
N1453 H1458 0.984 . S
N1453 H1459 0.985 . S
C1454 C1448 1.379 . S
C1454 C1451 1.363 . S
C1454 N1452 1.356 . S
C1455 C1449 1.363 . S
C1455 C1450 1.379 . S
C1455 N1453 1.356 . S
N1456 C1448 1.356 . S
N1456 H1462 0.984 . S
N1456 H1463 0.984 . S
N1457 C1450 1.356 . S
N1457 H1460 0.984 . S
N1457 H1461 0.985 . S
H1458 N1453 0.984 . S
H1459 N1453 0.985 . S
H1460 N1457 0.984 . S
H1461 N1457 0.985 . S
H1462 N1456 0.984 . S
H1463 N1456 0.984 . S
H1464 N1452 0.984 . S
H1465 N1452 0.985 . S
C1466 C1467 1.363 1_565 S
C1466 C1472 1.379 . S
C1466 N1474 1.356 . S
C1467 C1466 1.363 1_545 S
C1467 C1473 1.363 . S
C1468 C1469 1.363 . S
C1468 C1473 1.379 . S
C1468 N1475 1.356 . S
C1469 C1468 1.363 . S
C1469 C1472 1.363 1_545 S
N1470 C1472 1.356 . S
N1470 H1482 0.984 . S
N1470 H1483 0.985 . S
N1471 C1473 1.356 . S
N1471 H1476 0.984 . S
N1471 H1477 0.985 . S
C1472 C1466 1.379 . S
C1472 C1469 1.363 1_565 S
C1472 N1470 1.356 . S
C1473 C1467 1.363 . S
C1473 C1468 1.379 . S
C1473 N1471 1.356 . S
N1474 C1466 1.356 . S
N1474 H1480 0.984 . S
N1474 H1481 0.984 . S
N1475 C1468 1.356 . S
N1475 H1478 0.984 . S
N1475 H1479 0.985 . S
H1476 N1471 0.984 . S
H1477 N1471 0.985 . S
H1478 N1475 0.984 . S
H1479 N1475 0.985 . S
H1480 N1474 0.984 . S
H1481 N1474 0.984 . S
H1482 N1470 0.984 . S
H1483 N1470 0.985 . S
C1484 C1485 1.363 . S
C1484 C1490 1.379 . S
C1484 N1492 1.356 . S
C1485 C1484 1.363 . S
C1485 C1491 1.363 . S
C1486 C1487 1.363 . S
C1486 C1491 1.379 . S
C1486 N1493 1.356 . S
C1487 C1486 1.363 . S
C1487 C1490 1.363 . S
N1488 C1490 1.356 . S
N1488 H1500 0.984 . S
N1488 H1501 0.985 . S
N1489 C1491 1.356 . S
N1489 H1494 0.984 . S
N1489 H1495 0.985 . S
C1490 C1484 1.379 . S
C1490 C1487 1.363 . S
C1490 N1488 1.356 . S
C1491 C1485 1.363 . S
C1491 C1486 1.379 . S
C1491 N1489 1.356 . S
N1492 C1484 1.356 . S
N1492 H1498 0.984 . S
N1492 H1499 0.984 . S
N1493 C1486 1.356 . S
N1493 H1496 0.984 . S
N1493 H1497 0.985 . S
H1494 N1489 0.984 . S
H1495 N1489 0.985 . S
H1496 N1493 0.984 . S
H1497 N1493 0.985 . S
H1498 N1492 0.984 . S
H1499 N1492 0.984 . S
H1500 N1488 0.984 . S
H1501 N1488 0.985 . S
C1502 C1503 1.363 . S
C1502 C1508 1.379 . S
C1502 N1510 1.356 . S
C1503 C1502 1.363 . S
C1503 C1509 1.363 . S
C1504 C1505 1.363 . S
C1504 C1509 1.379 . S
C1504 N1511 1.356 . S
C1505 C1504 1.363 . S
C1505 C1508 1.363 . S
N1506 C1508 1.356 . S
N1506 H1518 0.984 . S
N1506 H1519 0.985 . S
N1507 C1509 1.356 . S
N1507 H1512 0.984 1_455 S
N1507 H1513 0.985 1_455 S
C1508 C1502 1.379 . S
C1508 C1505 1.363 . S
C1508 N1506 1.356 . S
C1509 C1503 1.363 . S
C1509 C1504 1.379 . S
C1509 N1507 1.356 . S
N1510 C1502 1.356 . S
N1510 H1516 0.984 . S
N1510 H1517 0.984 . S
N1511 C1504 1.356 . S
N1511 H1514 0.984 . S
N1511 H1515 0.985 . S
H1512 N1507 0.984 1_655 S
H1513 N1507 0.985 1_655 S
H1514 N1511 0.984 . S
H1515 N1511 0.985 . S
H1516 N1510 0.984 . S
H1517 N1510 0.984 . S
H1518 N1506 0.984 . S
H1519 N1506 0.985 . S
C1520 C1521 1.363 . S
C1520 C1526 1.379 . S
C1520 N1528 1.356 . S
C1521 C1520 1.363 . S
C1521 C1527 1.363 . S
C1522 C1523 1.363 . S
C1522 C1527 1.379 . S
C1522 N1529 1.356 . S
C1523 C1522 1.363 . S
C1523 C1526 1.363 . S
N1524 C1526 1.356 . S
N1524 H1536 0.984 . S
N1524 H1537 0.985 . S
N1525 C1527 1.356 . S
N1525 H1530 0.984 . S
N1525 H1531 0.985 . S
C1526 C1520 1.379 . S
C1526 C1523 1.363 . S
C1526 N1524 1.356 . S
C1527 C1521 1.363 . S
C1527 C1522 1.379 . S
C1527 N1525 1.356 . S
N1528 C1520 1.356 . S
N1528 H1534 0.984 . S
N1528 H1535 0.984 . S
N1529 C1522 1.356 . S
N1529 H1532 0.984 . S
N1529 H1533 0.985 . S
H1530 N1525 0.984 . S
H1531 N1525 0.985 . S
H1532 N1529 0.984 . S
H1533 N1529 0.985 . S
H1534 N1528 0.984 . S
H1535 N1528 0.984 . S
H1536 N1524 0.984 . S
H1537 N1524 0.985 . S
C1538 C1539 1.363 1_455 S
C1538 C1544 1.379 . S
C1538 N1546 1.334 1_556 S
C1539 C1538 1.363 1_655 S
C1539 C1545 1.363 . S
C1540 C1541 1.363 . S
C1540 C1545 1.379 . S
C1540 N1547 1.356 . S
C1541 C1540 1.363 . S
C1541 C1544 1.363 1_655 S
N1542 C1544 1.356 . S
N1542 H1554 0.984 . S
N1542 H1555 0.985 . S
N1543 C1545 1.356 . S
N1543 H1548 0.984 . S
N1543 H1549 0.985 . S
C1544 C1538 1.379 . S
C1544 C1541 1.363 1_455 S
C1544 N1542 1.356 . S
C1545 C1539 1.363 . S
C1545 C1540 1.379 . S
C1545 N1543 1.356 . S
N1546 C1538 1.334 1_554 S
N1546 H1552 1.001 . S
N1546 H1553 0.991 . S
N1547 C1540 1.356 . S
N1547 H1550 0.984 . S
N1547 H1551 0.985 . S
H1548 N1543 0.984 . S
H1549 N1543 0.985 . S
H1550 N1547 0.984 . S
H1551 N1547 0.985 . S
H1552 N1546 1.001 . S
H1553 N1546 0.991 . S
H1554 N1542 0.984 . S
H1555 N1542 0.985 . S
C1556 C1557 1.363 . S
C1556 C1562 1.379 . S
C1556 N1564 1.356 . S
C1557 C1556 1.363 . S
C1557 C1563 1.363 . S
C1558 C1559 1.363 . S
C1558 C1563 1.379 . S
C1558 N1565 1.356 . S
C1559 C1558 1.363 . S
C1559 C1562 1.363 . S
N1560 C1562 1.356 . S
N1560 H1572 0.984 . S
N1560 H1573 0.985 . S
N1561 C1563 1.356 . S
N1561 H1566 0.984 . S
N1561 H1567 0.985 . S
C1562 C1556 1.379 . S
C1562 C1559 1.363 . S
C1562 N1560 1.356 . S
C1563 C1557 1.363 . S
C1563 C1558 1.379 . S
C1563 N1561 1.356 . S
N1564 C1556 1.356 . S
N1564 H1570 0.984 . S
N1564 H1571 0.984 . S
N1565 C1558 1.356 . S
N1565 H1568 0.984 . S
N1565 H1569 0.985 . S
H1566 N1561 0.984 . S
H1567 N1561 0.985 . S
H1568 N1565 0.984 . S
H1569 N1565 0.985 . S
H1570 N1564 0.984 . S
H1571 N1564 0.984 . S
H1572 N1560 0.984 . S
H1573 N1560 0.985 . S
C1574 C1575 1.363 . S
C1574 C1580 1.379 . S
C1574 N1582 1.356 . S
C1575 C1574 1.363 . S
C1575 C1581 1.363 . S
C1576 C1577 1.363 . S
C1576 C1581 1.379 . S
C1576 N1583 1.356 1_455 S
C1577 C1576 1.363 . S
C1577 C1580 1.363 . S
N1578 C1580 1.356 . S
N1578 H1590 0.984 . S
N1578 H1591 0.985 . S
N1579 C1581 1.356 1_554 S
N1579 H1584 0.984 . S
N1579 H1585 0.985 1_455 S
C1580 C1574 1.379 . S
C1580 C1577 1.363 . S
C1580 N1578 1.356 . S
C1581 C1575 1.363 . S
C1581 C1576 1.379 . S
C1581 N1579 1.356 1_556 S
N1582 C1574 1.356 . S
N1582 H1588 0.984 . S
N1582 H1589 0.984 . S
N1583 C1576 1.356 1_655 S
N1583 H1586 0.984 . S
N1583 H1587 0.985 . S
H1584 N1579 0.984 . S
H1585 N1579 0.985 1_655 S
H1586 N1583 0.984 . S
H1587 N1583 0.985 . S
H1588 N1582 0.984 . S
H1589 N1582 0.984 . S
H1590 N1578 0.984 . S
H1591 N1578 0.985 . S
C1592 C1593 1.363 . S
C1592 C1598 1.379 . S
C1592 N1600 1.356 . S
C1593 C1592 1.363 . S
C1593 C1599 1.363 . S
C1594 C1595 1.363 . S
C1594 C1599 1.379 . S
C1594 N1601 1.356 . S
C1595 C1594 1.363 . S
C1595 C1598 1.363 . S
N1596 C1598 1.356 . S
N1596 H1608 0.984 . S
N1596 H1609 0.985 . S
N1597 C1599 1.356 . S
N1597 H1602 0.984 . S
N1597 H1603 0.985 . S
C1598 C1592 1.379 . S
C1598 C1595 1.363 . S
C1598 N1596 1.356 . S
C1599 C1593 1.363 . S
C1599 C1594 1.379 . S
C1599 N1597 1.356 . S
N1600 C1592 1.356 . S
N1600 H1606 0.984 . S
N1600 H1607 0.984 . S
N1601 C1594 1.356 . S
N1601 H1604 0.984 . S
N1601 H1605 0.985 . S
H1602 N1597 0.984 . S
H1603 N1597 0.985 . S
H1604 N1601 0.984 . S
H1605 N1601 0.985 . S
H1606 N1600 0.984 . S
H1607 N1600 0.984 . S
H1608 N1596 0.984 . S
H1609 N1596 0.985 . S
C1610 C1611 1.363 . S
C1610 C1616 1.379 . S
C1610 N1618 1.356 . S
C1611 C1610 1.363 . S
C1611 C1617 1.363 . S
C1612 C1613 1.363 . S
C1612 C1617 1.379 . S
C1612 N1619 1.356 . S
C1613 C1612 1.363 . S
C1613 C1616 1.363 . S
N1614 C1616 1.356 . S
N1614 H1626 0.984 . S
N1614 H1627 0.985 . S
N1615 C1617 1.356 . S
N1615 H1620 0.984 . S
N1615 H1621 0.985 . S
C1616 C1610 1.379 . S
C1616 C1613 1.363 . S
C1616 N1614 1.356 . S
C1617 C1611 1.363 . S
C1617 C1612 1.379 . S
C1617 N1615 1.356 . S
N1618 C1610 1.356 . S
N1618 H1624 0.984 . S
N1618 H1625 0.984 . S
N1619 C1612 1.356 . S
N1619 H1622 0.984 . S
N1619 H1623 0.985 . S
H1620 N1615 0.984 . S
H1621 N1615 0.985 . S
H1622 N1619 0.984 . S
H1623 N1619 0.985 . S
H1624 N1618 0.984 . S
H1625 N1618 0.984 . S
H1626 N1614 0.984 . S
H1627 N1614 0.985 . S
C1628 C1629 1.363 . S
C1628 C1634 1.379 . S
C1628 N1636 1.356 . S
C1629 C1628 1.363 . S
C1629 C1635 1.363 . S
C1630 C1631 1.363 . S
C1630 C1635 1.379 . S
C1630 N1637 1.356 . S
C1631 C1630 1.363 . S
C1631 C1634 1.363 . S
N1632 C1634 1.356 . S
N1632 H1644 0.984 . S
N1632 H1645 0.985 . S
N1633 C1635 1.356 . S
N1633 H1638 0.984 . S
N1633 H1639 0.985 . S
C1634 C1628 1.379 . S
C1634 C1631 1.363 . S
C1634 N1632 1.356 . S
C1635 C1629 1.363 . S
C1635 C1630 1.379 . S
C1635 N1633 1.356 . S
N1636 C1628 1.356 . S
N1636 H1642 0.984 . S
N1636 H1643 0.984 . S
N1637 C1630 1.356 . S
N1637 H1640 0.984 . S
N1637 H1641 0.985 . S
H1638 N1633 0.984 . S
H1639 N1633 0.985 . S
H1640 N1637 0.984 . S
H1641 N1637 0.985 . S
H1642 N1636 0.984 . S
H1643 N1636 0.984 . S
H1644 N1632 0.984 . S
H1645 N1632 0.985 . S
C1646 C1647 1.363 . S
C1646 C1652 1.379 . S
C1646 N1654 1.356 . S
C1647 C1646 1.363 . S
C1647 C1653 1.363 . S
C1648 C1649 1.363 . S
C1648 C1653 1.379 . S
C1648 N1655 1.356 . S
C1649 C1648 1.363 . S
C1649 C1652 1.363 . S
N1650 C1652 1.356 . S
N1650 H1662 0.984 . S
N1650 H1663 0.985 . S
N1651 C1653 1.356 . S
N1651 H1656 0.984 . S
N1651 H1657 0.985 . S
C1652 C1646 1.379 . S
C1652 C1649 1.363 . S
C1652 N1650 1.356 . S
C1653 C1647 1.363 . S
C1653 C1648 1.379 . S
C1653 N1651 1.356 . S
N1654 C1646 1.356 . S
N1654 H1660 0.984 . S
N1654 H1661 0.984 . S
N1655 C1648 1.356 . S
N1655 H1658 0.984 . S
N1655 H1659 0.985 . S
H1656 N1651 0.984 . S
H1657 N1651 0.985 . S
H1658 N1655 0.984 . S
H1659 N1655 0.985 . S
H1660 N1654 0.984 . S
H1661 N1654 0.984 . S
H1662 N1650 0.984 . S
H1663 N1650 0.985 . S
C1664 C1665 1.363 . S
C1664 C1670 1.379 . S
C1664 N1672 1.356 . S
C1665 C1664 1.363 . S
C1665 C1671 1.363 . S
C1666 C1667 1.363 . S
C1666 C1671 1.379 . S
C1666 N1673 1.356 . S
C1667 C1666 1.363 . S
C1667 C1670 1.363 . S
N1668 C1670 1.356 . S
N1668 H1680 0.984 . S
N1668 H1681 0.985 . S
N1669 C1671 1.356 . S
N1669 H1674 0.984 . S
N1669 H1675 0.985 . S
C1670 C1664 1.379 . S
C1670 C1667 1.363 . S
C1670 N1668 1.356 . S
C1671 C1665 1.363 . S
C1671 C1666 1.379 . S
C1671 N1669 1.356 . S
N1672 C1664 1.356 . S
N1672 H1678 0.984 . S
N1672 H1679 0.984 . S
N1673 C1666 1.356 . S
N1673 H1676 0.984 . S
N1673 H1677 0.985 . S
H1674 N1669 0.984 . S
H1675 N1669 0.985 . S
H1676 N1673 0.984 . S
H1677 N1673 0.985 . S
H1678 N1672 0.984 . S
H1679 N1672 0.984 . S
H1680 N1668 0.984 . S
H1681 N1668 0.985 . S
C1682 C1683 1.363 . S
C1682 C1688 1.379 . S
C1682 N1690 1.356 . S
C1683 C1682 1.363 . S
C1683 C1689 1.363 . S
C1684 C1685 1.363 . S
C1684 C1689 1.379 . S
C1684 N1691 1.356 . S
C1685 C1684 1.363 . S
C1685 C1688 1.363 . S
N1686 C1688 1.356 . S
N1686 H1698 0.984 . S
N1686 H1699 0.985 . S
N1687 C1689 1.356 . S
N1687 H1692 0.984 . S
N1687 H1693 0.985 . S
C1688 C1682 1.379 . S
C1688 C1685 1.363 . S
C1688 N1686 1.356 . S
C1689 C1683 1.363 . S
C1689 C1684 1.379 . S
C1689 N1687 1.356 . S
N1690 C1682 1.356 . S
N1690 H1696 0.984 . S
N1690 H1697 0.984 . S
N1691 C1684 1.356 . S
N1691 H1694 0.984 . S
N1691 H1695 0.985 . S
H1692 N1687 0.984 . S
H1693 N1687 0.985 . S
H1694 N1691 0.984 . S
H1695 N1691 0.985 . S
H1696 N1690 0.984 . S
H1697 N1690 0.984 . S
H1698 N1686 0.984 . S
H1699 N1686 0.985 . S
C1700 C1701 1.363 . S
C1700 C1706 1.379 . S
C1700 N1708 1.356 . S
C1701 C1700 1.363 . S
C1701 C1707 1.363 . S
C1702 C1703 1.363 . S
C1702 C1707 1.379 . S
C1702 N1709 1.356 . S
C1703 C1702 1.363 . S
C1703 C1706 1.363 . S
N1704 C1706 1.356 . S
N1704 H1716 0.984 . S
N1704 H1717 0.985 . S
N1705 C1707 1.356 . S
N1705 H1710 0.984 . S
N1705 H1711 0.985 . S
C1706 C1700 1.379 . S
C1706 C1703 1.363 . S
C1706 N1704 1.356 . S
C1707 C1701 1.363 . S
C1707 C1702 1.379 . S
C1707 N1705 1.356 . S
N1708 C1700 1.356 . S
N1708 H1714 0.984 . S
N1708 H1715 0.984 . S
N1709 C1702 1.356 . S
N1709 H1712 0.984 . S
N1709 H1713 0.985 . S
H1710 N1705 0.984 . S
H1711 N1705 0.985 . S
H1712 N1709 0.984 . S
H1713 N1709 0.985 . S
H1714 N1708 0.984 . S
H1715 N1708 0.984 . S
H1716 N1704 0.984 . S
H1717 N1704 0.985 . S
C1718 C1719 1.363 . S
C1718 C1724 1.379 . S
C1718 N1726 1.356 . S
C1719 C1718 1.363 . S
C1719 C1725 1.363 . S
C1720 C1721 1.363 . S
C1720 C1725 1.379 . S
C1720 N1727 1.356 . S
C1721 C1720 1.363 . S
C1721 C1724 1.363 . S
N1722 C1724 1.356 . S
N1722 H1734 0.984 . S
N1722 H1735 0.985 . S
N1723 C1725 1.356 . S
N1723 H1728 0.984 . S
N1723 H1729 0.985 . S
C1724 C1718 1.379 . S
C1724 C1721 1.363 . S
C1724 N1722 1.356 . S
C1725 C1719 1.363 . S
C1725 C1720 1.379 . S
C1725 N1723 1.356 . S
N1726 C1718 1.356 . S
N1726 H1732 0.984 . S
N1726 H1733 0.984 . S
N1727 C1720 1.356 . S
N1727 H1730 0.984 . S
N1727 H1731 0.985 . S
H1728 N1723 0.984 . S
H1729 N1723 0.985 . S
H1730 N1727 0.984 . S
H1731 N1727 0.985 . S
H1732 N1726 0.984 . S
H1733 N1726 0.984 . S
H1734 N1722 0.984 . S
H1735 N1722 0.985 . S
C1736 C1737 1.363 1_554 S
C1736 C1742 1.379 . S
C1736 N1744 1.356 . S
C1737 C1736 1.363 1_556 S
C1737 C1743 1.363 . S
C1738 C1739 1.363 . S
C1738 C1743 1.379 . S
C1738 N1745 1.356 . S
C1739 C1738 1.363 . S
C1739 C1742 1.363 1_556 S
N1740 C1742 1.356 . S
N1740 H1752 0.984 . S
N1740 H1753 0.985 . S
N1741 C1743 1.356 . S
N1741 H1746 0.984 . S
N1741 H1747 0.985 . S
C1742 C1736 1.379 . S
C1742 C1739 1.363 1_554 S
C1742 N1740 1.356 . S
C1743 C1737 1.363 . S
C1743 C1738 1.379 . S
C1743 N1741 1.356 . S
N1744 C1736 1.356 . S
N1744 H1750 0.984 . S
N1744 H1751 0.984 . S
N1745 C1738 1.356 . S
N1745 H1748 0.984 . S
N1745 H1749 0.985 . S
H1746 N1741 0.984 . S
H1747 N1741 0.985 . S
H1748 N1745 0.984 . S
H1749 N1745 0.985 . S
H1750 N1744 0.984 . S
H1751 N1744 0.984 . S
H1752 N1740 0.984 . S
H1753 N1740 0.985 . S
C1754 C1755 1.363 . S
C1754 C1760 1.379 . S
C1754 N1762 1.356 . S
C1755 C1754 1.363 . S
C1755 C1761 1.363 . S
C1756 C1757 1.363 . S
C1756 C1761 1.379 . S
C1756 N1763 1.356 . S
C1757 C1756 1.363 . S
C1757 C1760 1.363 . S
N1758 C1760 1.356 . S
N1758 H1770 0.984 . S
N1758 H1771 0.985 . S
N1759 C1761 1.356 . S
N1759 H1764 0.984 . S
N1759 H1765 0.985 . S
C1760 C1754 1.379 . S
C1760 C1757 1.363 . S
C1760 N1758 1.356 . S
C1761 C1755 1.363 . S
C1761 C1756 1.379 . S
C1761 N1759 1.356 . S
N1762 C1754 1.356 . S
N1762 H1768 0.984 . S
N1762 H1769 0.984 . S
N1763 C1756 1.356 . S
N1763 H1766 0.984 . S
N1763 H1767 0.985 . S
H1764 N1759 0.984 . S
H1765 N1759 0.985 . S
H1766 N1763 0.984 . S
H1767 N1763 0.985 . S
H1768 N1762 0.984 . S
H1769 N1762 0.984 . S
H1770 N1758 0.984 . S
H1771 N1758 0.985 . S
C1772 C1773 1.363 . S
C1772 C1778 1.379 . S
C1772 N1780 1.356 . S
C1773 C1772 1.363 . S
C1773 C1779 1.363 . S
C1774 C1775 1.363 . S
C1774 C1779 1.379 . S
C1774 N1781 1.356 . S
C1775 C1774 1.363 . S
C1775 C1778 1.363 . S
N1776 C1778 1.356 . S
N1776 H1788 0.984 . S
N1776 H1789 0.985 . S
N1777 C1779 1.356 . S
N1777 H1782 0.984 . S
N1777 H1783 0.985 . S
C1778 C1772 1.379 . S
C1778 C1775 1.363 . S
C1778 N1776 1.356 . S
C1779 C1773 1.363 . S
C1779 C1774 1.379 . S
C1779 N1777 1.356 . S
N1780 C1772 1.356 . S
N1780 H1786 0.984 . S
N1780 H1787 0.984 . S
N1781 C1774 1.356 . S
N1781 H1784 0.984 . S
N1781 H1785 0.985 . S
H1782 N1777 0.984 . S
H1783 N1777 0.985 . S
H1784 N1781 0.984 . S
H1785 N1781 0.985 . S
H1786 N1780 0.984 . S
H1787 N1780 0.984 . S
H1788 N1776 0.984 . S
H1789 N1776 0.985 . S
C1790 C1791 1.363 . S
C1790 C1796 1.379 . S
C1790 N1798 1.356 . S
C1791 C1790 1.363 . S
C1791 C1797 1.363 1_554 S
C1792 C1793 1.363 1_556 S
C1792 C1797 1.379 . S
C1792 N1799 1.356 . S
C1793 C1792 1.363 1_554 S
C1793 C1796 1.363 . S
N1794 C1796 1.356 . S
N1794 H1806 0.984 . S
N1794 H1807 0.985 . S
N1795 C1797 1.356 . S
N1795 H1800 0.984 . S
N1795 H1801 0.985 . S
C1796 C1790 1.379 . S
C1796 C1793 1.363 . S
C1796 N1794 1.356 . S
C1797 C1791 1.363 1_556 S
C1797 C1792 1.379 . S
C1797 N1795 1.356 . S
N1798 C1790 1.356 . S
N1798 H1804 0.984 . S
N1798 H1805 0.984 . S
N1799 C1792 1.356 . S
N1799 H1802 0.984 . S
N1799 H1803 0.985 . S
H1800 N1795 0.984 . S
H1801 N1795 0.985 . S
H1802 N1799 0.984 . S
H1803 N1799 0.985 . S
H1804 N1798 0.984 . S
H1805 N1798 0.984 . S
H1806 N1794 0.984 . S
H1807 N1794 0.985 . S
C947 C514 1.446 . S
C945 C177 1.387 . S
C965 C562 1.609 . S
C963 C209 1.642 . S
C981 C253 1.433 . S
C983 C598 1.366 . S
C1001 C634 1.550 . S
C999 C157 1.558 . S
C1019 C660 1.500 . S
C1017 C343 1.520 . S
C1037 C696 1.550 . S
C1035 C401 1.506 . S
C1053 C369 1.537 . S
C1055 C731 1.542 . S
C1073 C768 1.586 1_565 S
C1071 C317 1.564 . S
C1089 C375 1.499 . S
C1091 C802 1.473 . S
C1109 C850 1.563 . S
C1107 C305 1.598 . S
C1125 C349 1.507 . S
C1127 C803 1.504 . S
C1145 C840 1.586 . S
C1143 C413 1.537 . S
C1161 C241 1.479 . S
C1163 C886 1.414 . S
C1179 C151 1.531 . S
C1181 C875 1.566 . S
C1197 C189 1.431 . S
C1199 C876 1.517 . S
C1215 C215 1.594 . S
C1217 C874 1.603 1_655 S
C1233 C113 1.498 . S
C1235 C622 1.464 . S
C1251 C471 1.389 . S
C1253 C623 1.479 . S
C1271 C526 1.576 . S
C1269 C509 1.597 . S
C1289 C551 1.493 . S
C1287 C279 1.491 . S
C1305 C145 1.529 . S
C1307 C658 1.565 . S
C1325 C766 1.527 . S
C1323 C381 1.556 . S
C1343 C659 1.577 . S
C1341 C311 1.566 . S
C1361 C732 1.574 . S
C1359 C407 1.533 . S
C1379 C730 1.446 . S
C1377 C465 1.387 . S
C1395 C497 1.642 . S
C1397 C778 1.609 . S
C1413 C285 1.433 . S
C1415 C670 1.366 . S
C1433 C706 1.550 . S
C1431 C445 1.558 . S
C1449 C119 1.520 . S
C1451 C588 1.500 . S
C1469 C624 1.550 . S
C1467 C17 1.506 . S
C1487 C515 1.542 . S
C1485 C49 1.537 . S
C1505 C552 1.586 . S
C1503 C93 1.564 . S
C1521 C55 1.499 . S
C1523 C838 1.473 . S
C1539 C81 1.598 . S
C1541 C814 1.563 . S
C1557 C125 1.507 . S
C1559 C839 1.504 . S
C1575 C29 1.537 . S
C1577 C804 1.586 . S
C1595 C922 1.414 . S
C1593 C273 1.479 . S
C1613 C911 1.566 . S
C1611 C439 1.531 . S
C1631 C912 1.517 . S
C1629 C477 1.431 . S
C1647 C503 1.594 . S
C1649 C910 1.603 . S
C1665 C337 1.498 . S
C1667 C694 1.464 . S
C1685 C695 1.479 . S
C1683 C183 1.389 . S
C1703 C742 1.576 . S
C1701 C221 1.597 . S
C1721 C767 1.493 . S
C1719 C247 1.491 . S
C1737 C433 1.529 . S
C1739 C586 1.565 1_556 S
C1757 C550 1.527 . S
C1755 C61 1.556 . S
C1773 C87 1.566 . S
C1775 C587 1.576 . S
C1793 C516 1.574 . S
C1791 C23 1.533 . S
