# Generated by pormake.
# Topology tsx, (6,3)-cn, num edge types: 1
# Building blocks:
#     Node 0, Type 0, BuildingBlock: MIDCAF_clean_sbu_0, # of connection points: 6
#     Node 1, Type 0, BuildingBlock: MIDCAF_clean_sbu_0, # of connection points: 6
#     Node 2, Type 1, BuildingBlock: VETTIZ_charged_linker_0, # of connection points: 3
#     Node 3, Type 1, BuildingBlock: VETTIZ_charged_linker_0, # of connection points: 3
#     Node 4, Type 1, BuildingBlock: VETTIZ_charged_linker_0, # of connection points: 3
#     Node 5, Type 1, BuildingBlock: VETTIZ_charged_linker_0, # of connection points: 3
#     Edge 6, Type (0, 1), BuildingBlock: EZIPEK_clean_linker_0, # of connection points: 2
#     Edge 7, Type (0, 1), BuildingBlock: EZIPEK_clean_linker_0, # of connection points: 2
#     Edge 8, Type (0, 1), BuildingBlock: EZIPEK_clean_linker_0, # of connection points: 2
#     Edge 9, Type (0, 1), BuildingBlock: EZIPEK_clean_linker_0, # of connection points: 2
#     Edge 10, Type (0, 1), BuildingBlock: EZIPEK_clean_linker_0, # of connection points: 2
#     Edge 11, Type (0, 1), BuildingBlock: EZIPEK_clean_linker_0, # of connection points: 2
#     Edge 12, Type (0, 1), BuildingBlock: EZIPEK_clean_linker_0, # of connection points: 2
#     Edge 13, Type (0, 1), BuildingBlock: EZIPEK_clean_linker_0, # of connection points: 2
#     Edge 14, Type (0, 1), BuildingBlock: EZIPEK_clean_linker_0, # of connection points: 2
#     Edge 15, Type (0, 1), BuildingBlock: EZIPEK_clean_linker_0, # of connection points: 2
#     Edge 16, Type (0, 1), BuildingBlock: EZIPEK_clean_linker_0, # of connection points: 2
#     Edge 17, Type (0, 1), BuildingBlock: EZIPEK_clean_linker_0, # of connection points: 2
# Relax obj value: 0.121
# Max RMSD: 0.183
# Mean RMSD: 0.115
data_MOF--net-tsx--node1-MIDCAF_clean_sbu_0--node2-VETTIZ_charged_linker_0--edge1-EZIPEK_clean_linker_0
_symmetry_space_group_name_H-M    P1
_symmetry_Int_Tables_number       1
_symmetry_cell_setting            triclinic
loop_
_symmetry_equiv_pos_as_xyz
'x, y, z'
_cell_length_a     18.066241
_cell_length_b     18.850622
_cell_length_c     37.485448
_cell_angle_alpha  90.217106
_cell_angle_beta   94.837108
_cell_angle_gamma 90.22624
loop_
_atom_site_label
_atom_site_type_symbol
_atom_site_fract_x
_atom_site_fract_y
_atom_site_fract_z
_atom_type_partial_charge
Zn0 Zn 0.98693 0.99589 0.95975 0.0
Zn1 Zn 0.22812 0.021 0.04612 0.0
Zn2 Zn 0.10718 0.01723 0.00063 0.0
C3 C 0.20917 0.15543 0.01335 0.0
C4 C 0.24572 0.91415 -0.00412 0.0
O5 O 0.02105 0.95632 0.02775 0.0
O6 O 0.93658 0.92105 -0.01495 0.0
C7 C 1.00494 0.1429 0.97632 0.0
O8 O 0.14439 0.12989 0.00326 0.0
O9 O 0.25829 0.11628 0.02904 0.0
O10 O 0.27127 0.93261 0.02694 0.0
O11 O 0.18918 0.94589 0.98012 0.0
O12 O 0.9572 0.09627 0.96616 0.0
O13 O 0.0713 0.12501 -0.01229 0.0
O14 O 0.13983 0.96521 0.95181 0.0
O15 O 0.03573 0.97144 0.91652 0.0
C16 C 0.10427 0.95829 0.92079 0.0
O17 O 0.07495 0.98223 0.0521 0.0
O18 O 0.17042 0.01612 0.08927 0.0
C19 C 0.96249 0.91985 0.01731 0.0
C20 C 0.1049 0.99245 0.08402 0.0
Zn21 Zn 0.63494 0.52509 0.53973 0.0
Zn22 Zn 0.39258 0.55391 0.45534 0.0
Zn23 Zn 0.50891 0.53917 0.50032 0.0
C24 C 0.49963 0.49361 0.41698 0.0
C25 C 0.42706 0.6888 0.48031 0.0
O26 O 0.47909 0.48774 0.54952 0.0
O27 O 0.58626 0.49806 0.58266 0.0
C28 C 0.65027 0.43836 0.4834 0.0
O29 O 0.53393 0.4937 0.44851 0.0
O30 O 0.43501 0.51873 0.41191 0.0
O31 O 0.37834 0.6562 0.46048 0.0
O32 O 0.48245 0.65505 0.49609 0.0
O33 O 0.68328 0.4502 0.51379 0.0
O34 O 0.58849 0.46977 0.47361 0.0
O35 O 0.55444 0.64658 0.51114 0.0
O36 O 0.6683 0.62406 0.5349 0.0
C37 C 0.61972 0.66789 0.5231 0.0
O38 O 0.41523 0.48421 0.52381 0.0
O39 O 0.32474 0.49471 0.4806 0.0
C40 C 0.5185 0.48082 0.57956 0.0
C41 C 0.34799 0.471 0.5109 0.0
C42 C 0.21117 0.96406 0.453 0.0
C43 C 0.2592 0.91021 0.44275 0.0
C44 C 0.25009 0.88345 0.40754 0.0
C45 C 0.14465 0.95998 0.39385 0.0
C46 C 0.15274 0.9865 0.42837 0.0
C47 C 0.09093 0.03728 0.43527 0.0
H48 H 0.77498 0.20778 0.37017 0.0
C49 C 0.07826 0.99215 0.37501 0.0
C50 C 0.04574 0.0375 0.39898 0.0
H51 H 0.89225 0.23251 0.47442 0.0
H52 H 0.98373 0.14548 0.45927 0.0
H53 H 0.92188 0.21112 0.32875 0.0
H54 H 0.78844 0.03923 0.36348 0.0
H55 H 0.8157 0.0151 0.32122 0.0
H56 H 0.75919 0.09302 0.32553 0.0
H57 H 0.83133 0.19047 0.30783 0.0
H58 H 0.91362 0.14872 0.29387 0.0
C59 C 0.12578 0.11059 0.44527 0.0
C60 C 0.04626 1.00445 0.4645 0.0
C61 C 0.02715 0.95264 0.24183 0.0
C62 C 0.97301 0.97979 0.21668 0.0
C63 C 0.90927 0.01218 0.22837 0.0
C64 C 0.90387 0.02452 0.26498 0.0
C65 C 0.9627 1.0039 0.28976 0.0
C66 C 0.02099 0.9653 0.27817 0.0
C67 C 0.07731 0.94573 0.30822 0.0
C68 C 0.0464 0.98406 0.33935 0.0
C69 C 0.97979 0.01849 0.32834 0.0
C70 C 0.15381 0.97628 0.29987 0.0
C71 C 0.07544 0.86385 0.31263 0.0
C72 C 0.82022 0.19378 0.38967 0.0
C73 C 0.82701 0.22593 0.42349 0.0
C74 C 0.88652 0.20737 0.44831 0.0
C75 C 0.93921 0.15708 0.43946 0.0
C76 C 0.93225 0.12536 0.40534 0.0
C77 C 0.87349 0.14419 0.38112 0.0
C78 C 0.87675 0.10854 0.34549 0.0
C79 C 0.94624 0.06415 0.35236 0.0
C80 C 0.97894 0.07399 0.38748 0.0
C81 C 0.88588 0.16723 0.31725 0.0
C82 C 0.8063 0.06178 0.33817 0.0
H83 H 0.19043 0.88557 0.35679 0.0
H84 H 0.2172 0.98589 0.47986 0.0
H85 H 0.99595 0.03461 0.46936 0.0
H86 H 0.08142 1.00009 0.49013 0.0
H87 H 0.02737 0.94996 0.45657 0.0
H88 H 0.17671 0.11983 0.43116 0.0
H89 H 0.14173 0.11449 0.47447 0.0
H90 H 0.08879 0.15511 0.43699 0.0
H91 H 0.07597 0.92662 0.23319 0.0
H92 H 0.86673 0.03262 0.20907 0.0
H93 H 0.85599 0.05274 0.27238 0.0
H94 H 0.14756 0.031 0.28904 0.0
H95 H 0.17929 0.94321 0.27964 0.0
H96 H 0.19375 0.98099 0.32369 0.0
H97 H 0.02273 0.84016 0.30037 0.0
H98 H 0.07785 0.84778 0.34112 0.0
H99 H 0.12164 0.83816 0.29975 0.0
H100 H 0.28634 0.8421 0.39904 0.0
C101 C 0.19375 0.90824 0.3831 0.0
C102 C 0.11563 0.23477 0.56952 0.0
C103 C 0.1436 0.29819 0.58606 0.0
C104 C 0.12102 0.31566 0.6203 0.0
C105 C 0.06624 0.19984 0.62425 0.0
C106 C 0.07089 0.19016 0.58829 0.0
C107 C 0.01236 0.13828 0.57305 0.0
H108 H 0.78152 0.86705 0.60592 0.0
C109 C 0.02073 0.14365 0.63695 0.0
C110 C 0.98239 0.11124 0.60739 0.0
H111 H 0.78744 0.98403 0.50737 0.0
H112 H 0.88026 0.06416 0.53627 0.0
H113 H 0.97289 0.88213 0.63361 0.0
H114 H 0.77515 0.99891 0.65589 0.0
H115 H 0.83658 0.99444 0.69476 0.0
H116 H 0.79539 0.91383 0.67572 0.0
H117 H 0.89141 0.84055 0.64869 0.0
H118 H 0.95675 0.88351 0.67975 0.0
C119 C 0.0497 0.07875 0.55296 0.0
C120 C 0.95288 0.17928 0.54901 0.0
C121 C 0.11911 0.03103 0.75335 0.0
C122 C 0.08609 0.98505 0.77682 0.0
C123 C 0.0165 0.95418 0.76608 0.0
C124 C 0.97971 0.96991 0.73268 0.0
C125 C 0.01225 0.01787 0.7101 0.0
C126 C 0.07895 0.05052 0.72137 0.0
C127 C 0.0969 0.11092 0.69741 0.0
C128 C 0.02998 0.10757 0.6698 0.0
C129 C 0.98467 0.04897 0.67561 0.0
C130 C 0.17007 0.09507 0.68052 0.0
C131 C 0.1022 0.18105 0.71895 0.0
C132 C 0.80295 0.91012 0.59067 0.0
C133 C 0.77869 0.91908 0.55439 0.0
C134 C 0.80618 0.97627 0.5353 0.0
C135 C 0.85968 0.02241 0.55195 0.0
C136 C 0.8844 0.01185 0.58804 0.0
C137 C 0.85539 0.95722 0.60702 0.0
C138 C 0.88537 0.9569 0.64575 0.0
C139 C 0.93555 0.02196 0.64704 0.0
C140 C 0.93553 0.05265 0.61288 0.0
C141 C 0.92904 0.88722 0.65258 0.0
C142 C 0.81999 0.96599 0.6695 0.0
H143 H 0.0648 0.28033 0.66542 0.0
H144 H 0.12549 0.22141 0.54224 0.0
H145 H 0.9652 0.23696 0.54741 0.0
H146 H 0.89711 0.17548 0.5593 0.0
H147 H 0.94904 0.1589 0.52114 0.0
H148 H 0.09345 0.05234 0.57081 0.0
H149 H 0.07597 0.10087 0.52969 0.0
H150 H 1.00892 0.0378 0.54298 0.0
H151 H 0.17191 0.05623 0.76142 0.0
H152 H 0.98957 0.91953 0.78407 0.0
H153 H 0.92616 0.94628 0.72613 0.0
H154 H 0.16557 0.04466 0.66495 0.0
H155 H 0.21688 0.09027 0.70157 0.0
H156 H 0.18428 0.13825 0.66222 0.0
H157 H 0.13238 0.17394 0.74572 0.0
H158 H 0.0461 0.2021 0.72293 0.0
H159 H 0.13471 0.22146 0.70563 0.0
H160 H 0.13362 0.3672 0.6322 0.0
C161 C 0.08378 0.26569 0.63988 0.0
C162 C 0.7656 0.4026 0.94316 0.0
C163 C 0.80981 0.34931 0.92962 0.0
C164 C 0.79116 0.32247 0.89489 0.0
C165 C 0.68269 0.39758 0.88868 0.0
C166 C 0.70094 0.42401 0.92273 0.0
C167 C 0.64205 0.47277 0.9347 0.0
H168 H 0.32448 0.65621 0.8927 0.0
C169 C 0.61085 0.4282 0.87511 0.0
C170 C 0.58594 0.47168 0.90208 0.0
H171 H 0.46923 0.66791 -0.00996 0.0
H172 H 0.54442 0.57271 0.96915 0.0
H173 H 0.45666 0.64319 0.83968 0.0
H174 H 0.31796 0.48848 0.88611 0.0
H175 H 0.33717 0.45399 0.84429 0.0
H176 H 0.28615 0.53603 0.84642 0.0
H177 H 0.35766 0.63734 0.83019 0.0
H178 H 0.41905 0.5854 0.80579 0.0
C179 C 0.67799 0.54676 0.94179 0.0
C180 C 0.60974 0.43867 0.96756 0.0
C181 C 0.52086 0.40169 0.74414 0.0
C182 C 0.45811 0.42818 0.724 0.0
C183 C 0.39794 0.45403 0.74167 0.0
C184 C 0.40421 0.46168 0.77899 0.0
C185 C 0.47118 0.44319 0.79849 0.0
C186 C 0.52598 0.4092 0.78143 0.0
C187 C 0.59062 0.3881 0.80708 0.0
C188 C 0.56866 0.4216 0.84159 0.0
C189 C 0.49939 0.45499 0.83615 0.0
C190 C 0.66223 0.42199 0.79456 0.0
C191 C 0.59253 0.30588 0.80915 0.0
C192 C 0.37222 0.6375 0.90941 0.0
C193 C 0.39214 0.66932 0.94267 0.0
C194 C 0.45393 0.64404 0.96414 0.0
C195 C 0.49747 0.58915 0.95187 0.0
C196 C 0.47927 0.55992 0.91768 0.0
C197 C 0.41665 0.58324 0.89738 0.0
C198 C 0.40662 0.54757 0.8614 0.0
C199 C 0.47419 0.49963 0.86318 0.0
C200 C 0.51695 0.50755 0.89608 0.0
C201 C 0.40975 0.60595 0.83253 0.0
C202 C 0.33303 0.50455 0.8591 0.0
H203 H 0.71682 0.32389 0.84817 0.0
H204 H 0.77878 0.42385 0.96984 0.0
H205 H 0.59915 0.38107 0.96279 0.0
H206 H 0.55566 0.46092 0.97336 0.0
H207 H 0.64939 0.44371 -0.00828 0.0
H208 H 0.71942 0.55818 0.9222 0.0
H209 H 0.70741 0.5496 0.96899 0.0
H210 H 0.63796 0.5907 0.93845 0.0
H211 H 0.56687 0.38007 0.73092 0.0
H212 H 0.34873 0.47359 0.72636 0.0
H213 H 0.35844 0.48535 0.791 0.0
H214 H 0.65281 0.47883 0.78777 0.0
H215 H 0.67959 0.39455 0.77038 0.0
H216 H 0.70942 0.42099 0.81521 0.0
H217 H 0.53852 0.28149 0.79909 0.0
H218 H 0.60249 0.28682 0.83709 0.0
H219 H 0.63568 0.28359 0.79294 0.0
H220 H 0.82468 0.28146 0.88399 0.0
C221 C 0.72818 0.34657 0.8743 0.0
C222 C 0.72606 0.69906 0.07588 0.0
C223 C 0.79096 0.72533 0.09491 0.0
C224 C 0.81198 0.69963 0.12938 0.0
C225 C 0.70378 0.62278 0.12589 0.0
C226 C 0.68361 0.64727 0.09176 0.0
C227 C 0.61629 0.60873 0.07459 0.0
H228 H 0.36493 0.34082 0.08633 0.0
C229 C 0.65014 0.56743 0.13431 0.0
C230 C 0.59923 0.55757 0.10416 0.0
H231 H 0.38613 0.47695 -0.00451 0.0
H232 H 0.48397 0.54427 0.02954 0.0
H233 H 0.53703 0.32103 0.11192 0.0
H234 H 0.36655 0.46218 0.1407 0.0
H235 H 0.42839 0.45842 0.17929 0.0
H236 H 0.38129 0.37868 0.16267 0.0
H237 H 0.45768 0.29552 0.1348 0.0
H238 H 0.54192 0.32632 0.15908 0.0
C239 C 0.6392 0.56972 0.041 0.0
C240 C 0.5534 0.66317 0.06673 0.0
C241 C 0.65155 0.47849 0.26163 0.0
C242 C 0.59772 0.43996 0.27846 0.0
C243 C 0.54491 0.39927 0.25757 0.0
C244 C 0.54056 0.40303 0.22018 0.0
C245 C 0.58843 0.44922 0.2037 0.0
C246 C 0.64441 0.48428 0.22425 0.0
C247 C 0.686 0.53546 0.20248 0.0
C248 C 0.64298 0.52805 0.16601 0.0
C249 C 0.58657 0.47712 0.16686 0.0
C250 C 0.76717 0.5091 0.20211 0.0
C251 C 0.67845 0.6109 0.21846 0.0
C252 C 0.39086 0.38509 0.07376 0.0
C253 C 0.36945 0.40278 0.03816 0.0
C254 C 0.40284 0.46186 0.02284 0.0
C255 C 0.45986 0.50028 0.04252 0.0
C256 C 0.48308 0.47955 0.07782 0.0
C257 C 0.44699 0.42381 0.09296 0.0
C258 C 0.4742 0.41126 0.13127 0.0
C259 C 0.53639 0.46531 0.13623 0.0
C260 C 0.54185 0.50556 0.10499 0.0
C261 C 0.50402 0.33441 0.13476 0.0
C262 C 0.40958 0.42796 0.15486 0.0
H263 H 0.78793 0.63081 0.17124 0.0
H264 H 0.7102 0.71695 0.04889 0.0
H265 H 0.54954 0.69922 0.09006 0.0
H266 H 0.49821 0.63804 0.06189 0.0
H267 H 0.56394 0.69631 0.04323 0.0
H268 H 0.695 0.54528 0.04622 0.0
H269 H 0.64159 0.607 0.01825 0.0
H270 H 0.60142 0.52565 0.0328 0.0
H271 H 0.69233 0.51034 0.27741 0.0
H272 H 0.50345 0.36883 0.27023 0.0
H273 H 0.49736 0.37293 0.20572 0.0
H274 H 0.77158 0.45114 0.20735 0.0
H275 H 0.80453 0.53652 0.22286 0.0
H276 H 0.78918 0.51612 0.17564 0.0
H277 H 0.6205 0.62026 0.22522 0.0
H278 H 0.69023 0.6538 0.19986 0.0
H279 H 0.71577 0.61782 0.24334 0.0
H280 H 0.86248 0.71859 0.14402 0.0
C281 C 0.76876 0.64854 0.14497 0.0
C282 C 0.20106 0.28669 0.02584 0.0
C283 C 0.23033 0.23012 0.00641 0.0
C284 C 0.33908 0.30228 -0.00492 0.0
C285 C 0.31411 0.35565 0.01792 0.0
N286 N 0.21247 0.41044 0.04456 0.0
N287 N 0.31081 0.19286 0.96219 0.0
C288 C 0.24135 0.35191 0.02937 0.0
C289 C 0.29364 0.24151 -0.01276 0.0
N290 N 0.13824 0.27631 0.04304 0.0
N291 N 0.40848 0.30684 0.98328 0.0
H292 H 0.27822 0.14778 0.95652 0.0
H293 H 0.35242 0.2003 0.94495 0.0
H294 H 0.44254 0.35128 -0.01236 0.0
H295 H 0.43373 0.26548 0.97047 0.0
H296 H 0.11862 0.31245 0.06103 0.0
H297 H 0.10685 0.22982 0.0403 0.0
H298 H 0.15793 0.41367 0.05139 0.0
H299 H 0.24193 0.45823 0.04724 0.0
C300 C 0.26394 0.78296 -0.00576 0.0
C301 C 0.27667 0.85077 0.9794 0.0
C302 C 0.36319 0.79927 0.93976 0.0
C303 C 0.35016 0.73136 0.95438 0.0
N304 N 0.27988 0.65523 -0.00946 0.0
N305 N 0.32582 0.92254 0.93382 0.0
C306 C 0.29802 0.72221 0.98021 0.0
C307 C 0.32207 0.85854 0.95065 0.0
N308 N 0.21968 0.77698 0.02198 0.0
N309 N 0.41744 0.80758 0.91674 0.0
H310 H 0.29893 0.96781 0.94211 0.0
H311 H 0.35086 0.92977 0.91009 0.0
H312 H 0.44858 0.76547 0.90795 0.0
H313 H 0.43557 0.8567 0.90825 0.0
H314 H 0.21514 0.73112 0.037 0.0
H315 H 0.18914 0.8192 0.03113 0.0
H316 H 0.23706 0.64389 0.00654 0.0
H317 H 0.3044 0.60969 0.98099 0.0
C318 C 0.87962 0.89792 0.06658 0.0
C319 C 0.92822 0.8713 0.04201 0.0
C320 C 0.89033 0.74936 0.05376 0.0
C321 C 0.84038 0.77574 0.07786 0.0
N322 N 0.79711 0.87237 0.11288 0.0
N323 N 0.99491 0.77343 0.01893 0.0
C324 C 0.8383 0.8493 0.08618 0.0
C325 C 0.93815 0.79739 0.03767 0.0
N326 N 0.87106 0.9696 0.07007 0.0
N327 N 0.89091 0.67852 0.04571 0.0
H328 H 0.03154 0.80757 0.00729 0.0
H329 H 1.01024 0.72038 0.01764 0.0
H330 H 0.85968 0.64097 0.05833 0.0
H331 H 0.9191 0.65715 0.02512 0.0
H332 H 0.83077 0.99295 0.08448 0.0
H333 H 0.9027 0.00636 0.05712 0.0
H334 H 0.79966 0.9238 0.1231 0.0
H335 H 0.76361 0.8387 0.12665 0.0
C336 C 0.9961 0.26353 0.94901 0.0
C337 C 0.97936 0.21702 0.97668 0.0
C338 C 0.86037 0.27462 0.98192 0.0
C339 C 0.87318 0.317 0.95169 0.0
N340 N 0.96182 0.36993 0.9152 0.0
N341 N 0.91451 0.19758 0.02887 0.0
C342 C 0.94461 0.31798 0.93843 0.0
C343 C 0.91834 0.23056 -0.00328 0.0
N344 N 0.05813 0.25235 0.93137 0.0
N345 N 0.79146 0.27057 -0.00569 0.0
H346 H 0.95685 0.16418 0.03941 0.0
H347 H 0.8741 0.20896 0.04628 0.0
H348 H 0.74585 0.29929 0.98365 0.0
H349 H 0.77785 0.23422 0.01359 0.0
H350 H 0.06922 0.27902 0.90813 0.0
H351 H 0.09757 0.21426 0.9397 0.0
H352 H 0.01448 0.37653 0.90633 0.0
H353 H 0.92462 0.41042 0.90749 0.0
C354 C 0.70428 0.75818 0.50158 0.0
C355 C 0.64238 0.74293 0.52097 0.0
C356 C 0.65417 0.85977 0.54931 0.0
C357 C 0.72598 0.86647 0.53692 0.0
N358 N 0.82113 0.82073 0.5014 0.0
N359 N 0.55431 0.77974 0.5621 0.0
C360 C 0.75094 0.81632 0.51231 0.0
C361 C 0.61477 0.79464 0.54385 0.0
N362 N 0.71883 0.71586 0.47336 0.0
N363 N 0.62466 0.91542 0.56665 0.0
H364 H 0.52366 0.73297 0.55822 0.0
H365 H 0.53666 0.81202 0.5823 0.0
H366 H 0.65275 0.96367 0.57071 0.0
H367 H 0.57026 0.91616 0.57387 0.0
H368 H 0.75962 0.72748 0.45619 0.0
H369 H 0.68455 0.67313 0.46503 0.0
H370 H 0.84487 0.78079 0.4869 0.0
H371 H 0.85805 0.86172 0.50894 0.0
C372 C 0.72856 0.40225 0.43466 0.0
C373 C 0.68071 0.38282 0.461 0.0
C374 C 0.71487 0.25791 0.4549 0.0
C375 C 0.77164 0.27902 0.43324 0.0
N376 N 0.83346 0.36999 0.40161 0.0
N377 N 0.62386 0.29344 0.49554 0.0
C378 C 0.77793 0.35073 0.42229 0.0
C379 C 0.67182 0.31074 0.47055 0.0
N380 N 0.72677 0.46999 0.42176 0.0
N381 N 0.70193 0.18731 0.46011 0.0
H382 H 0.58809 0.33029 0.50574 0.0
H383 H 0.62114 0.24359 0.50718 0.0
H384 H 0.73295 0.14742 0.44912 0.0
H385 H 0.65714 0.16778 0.47284 0.0
H386 H 0.75486 0.48633 0.40008 0.0
H387 H 0.69161 0.50866 0.43084 0.0
H388 H 0.84641 0.42234 0.3959 0.0
H389 H 0.86983 0.33352 0.39161 0.0
C390 C 0.24305 0.38258 0.51157 0.0
C391 C 0.29589 0.4278 0.53063 0.0
C392 C 0.25372 0.38366 0.58638 0.0
C393 C 0.19376 0.34658 0.5673 0.0
N394 N 0.11662 0.34219 0.51109 0.0
N395 N 0.32364 0.49259 0.5859 0.0
C396 C 0.18359 0.35538 0.5296 0.0
C397 C 0.29323 0.43505 0.56806 0.0
N398 N 0.24994 0.36339 0.47687 0.0
N399 N 0.27611 0.36826 0.62111 0.0
H400 H 0.34737 0.53458 0.57279 0.0
H401 H 0.31653 0.50194 0.61285 0.0
H402 H 0.25874 0.32301 0.63399 0.0
H403 H 0.31885 0.39598 0.63543 0.0
H404 H 0.21366 0.32723 0.46333 0.0
H405 H 0.29645 0.37596 0.46342 0.0
H406 H 0.10707 0.35216 0.48373 0.0
H407 H 0.06892 0.33065 0.52388 0.0
C408 C 0.34966 0.77691 0.5072 0.0
C409 C 0.41201 0.76404 0.48791 0.0
C410 C 0.39173 0.87717 0.45738 0.0
C411 C 0.3179 0.87731 0.46778 0.0
N412 N 0.22793 0.83014 0.50591 0.0
N413 N 0.50147 0.80613 0.44934 0.0
C414 C 0.29798 0.82974 0.49477 0.0
C415 C 0.43726 0.81683 0.46527 0.0
N416 N 0.33818 0.73504 0.53584 0.0
N417 N 0.41589 0.93316 0.43847 0.0
H418 H 0.53543 0.7625 0.45571 0.0
H419 H 0.51972 0.83881 0.42952 0.0
H420 H 0.38222 0.97721 0.43256 0.0
H421 H 0.47022 0.93855 0.43154 0.0
H422 H 0.29644 0.74411 0.55283 0.0
H423 H 0.37574 0.69527 0.54431 0.0
H424 H 0.20788 0.7909 0.52208 0.0
H425 H 0.18825 0.86785 0.49776 0.0
C426 C 0.03525 0.92255 0.12739 0.0
C427 C 0.05843 0.9887 0.11431 0.0
C428 C 0.01438 0.05048 0.16561 0.0
C429 C 0.99064 0.98446 0.17894 0.0
N430 N 0.96145 0.86096 0.16895 0.0
N431 N 0.04828 0.11619 0.11412 0.0
C432 C 0.99526 0.92143 0.15848 0.0
C433 C 0.0406 0.05289 0.13118 0.0
N434 N 0.05423 0.86108 0.11108 0.0
N435 N 0.01716 0.11002 0.18668 0.0
H436 H 0.06702 0.1199 0.0886 0.0
H437 H 0.02888 0.16405 0.12366 0.0
H438 H 1.00004 0.11132 0.21251 0.0
H439 H 0.04255 0.15707 0.17965 0.0
H440 H 0.04534 0.81083 0.12135 0.0
H441 H 0.08273 0.86045 0.088 0.0
H442 H 0.95746 0.81467 0.15369 0.0
H443 H 0.93143 0.85936 0.19155 0.0
C444 C 0.13562 0.89601 0.86583 0.0
C445 C 0.14397 0.95613 0.88824 0.0
C446 C 0.13226 0.03505 0.83734 0.0
C447 C 0.11906 0.97534 0.8142 0.0
N448 N 0.13391 0.84941 0.80528 0.0
N449 N 0.18487 0.07666 0.89525 0.0
C450 C 0.13004 0.90563 0.82809 0.0
C451 C 0.15678 0.02311 0.87355 0.0
N452 N 0.12885 0.83081 0.88086 0.0
N453 N 0.11311 0.10213 0.8264 0.0
H454 H 0.20042 0.06816 0.92232 0.0
H455 H 0.1995 0.12612 0.88557 0.0
H456 H 0.08596 0.11368 0.80154 0.0
H457 H 0.11597 0.14565 0.8437 0.0
H458 H 0.11456 0.78507 0.86615 0.0
H459 H 0.13575 0.82395 0.9086 0.0
H460 H 0.14637 0.79805 0.81392 0.0
H461 H 0.13137 0.85578 0.77755 0.0
C462 C 0.47385 0.52356 0.63597 0.0
C463 C 0.48424 0.46555 0.61293 0.0
C464 C 0.46142 0.38247 0.66091 0.0
C465 C 0.4615 0.44059 0.68514 0.0
N466 N 0.48049 0.5661 0.6969 0.0
N467 N 0.48901 0.34004 0.60209 0.0
C468 C 0.47013 0.51122 0.67295 0.0
C469 C 0.47763 0.39487 0.62489 0.0
N470 N 0.46788 0.5907 0.62231 0.0
N471 N 0.44406 0.31608 0.67222 0.0
H472 H 0.49728 0.34808 0.57517 0.0
H473 H 0.49319 0.28725 0.61001 0.0
H474 H 0.43144 0.30583 0.69837 0.0
H475 H 0.43628 0.27244 0.65521 0.0
H476 H 0.45251 0.63436 0.63707 0.0
H477 H 0.47068 0.60147 0.59516 0.0
H478 H 0.49552 0.61712 0.68967 0.0
H479 H 0.48146 0.55984 0.72454 0.0
C480 C 0.56051 0.41005 0.37564 0.0
C481 C 0.54039 0.4796 0.38531 0.0
C482 C 0.56253 0.52345 0.32622 0.0
C483 C 0.5856 0.45456 0.31644 0.0
N484 N 0.62371 0.33666 0.33438 0.0
N485 N 0.54797 0.60537 0.37476 0.0
C486 C 0.5904 0.39911 0.34208 0.0
C487 C 0.55053 0.53726 0.36225 0.0
N488 N 0.54795 0.35444 0.39759 0.0
N489 N 0.54603 0.5743 0.30087 0.0
H490 H 0.54021 0.61734 0.4014 0.0
H491 H 0.56169 0.64917 0.35971 0.0
H492 H 0.54799 0.56573 0.27352 0.0
H493 H 0.52204 0.62274 0.30667 0.0
H494 H 0.55477 0.30161 0.39038 0.0
H495 H 0.52667 0.36127 0.4224 0.0
H496 H 0.63499 0.29677 0.35319 0.0
H497 H 0.64616 0.32771 0.31001 0.0
loop_
_geom_bond_atom_site_label_1
_geom_bond_atom_site_label_2
_geom_bond_distance
_geom_bond_site_symmetry_2
_ccdc_geom_bond_type
Zn0 O6 1.920 1_545 S
Zn0 O12 1.898 . S
Zn0 O15 1.905 1_545 S
Zn1 O9 1.905 . S
Zn1 O10 1.898 1_545 S
Zn1 O18 1.920 1_545 S
Zn2 O5 2.080 1_445 S
Zn2 O8 2.114 . S
Zn2 O11 2.120 1_545 S
Zn2 O13 2.120 1_455 S
Zn2 O14 2.114 1_554 S
Zn2 O17 2.080 . S
C3 O8 1.166 . S
C3 O9 1.182 . S
C4 O10 1.167 . S
C4 O11 1.299 . S
O5 Zn2 2.080 1_665 S
O5 C19 1.305 . S
O6 Zn0 1.920 1_565 S
O6 C19 1.234 1_556 S
C7 O12 1.167 . S
C7 O13 1.299 1_556 S
O8 Zn2 2.114 . S
O8 C3 1.166 . S
O9 Zn1 1.905 . S
O9 C3 1.182 . S
O10 Zn1 1.898 1_565 S
O10 C4 1.167 . S
O11 Zn2 2.120 1_565 S
O11 C4 1.299 . S
O12 Zn0 1.898 . S
O12 C7 1.167 . S
O13 Zn2 2.120 1_655 S
O13 C7 1.299 1_554 S
O14 Zn2 2.114 1_556 S
O14 C16 1.166 1_445 S
O15 Zn0 1.905 1_565 S
O15 C16 1.182 . S
C16 O14 1.166 1_665 S
C16 O15 1.182 . S
O17 Zn2 2.080 . S
O17 C20 1.305 1_545 S
O18 Zn1 1.920 1_565 S
O18 C20 1.234 . S
C19 O5 1.305 . S
C19 O6 1.234 1_554 S
C20 O17 1.305 1_565 S
C20 O18 1.234 . S
Zn21 O27 1.920 . S
Zn21 O33 1.898 . S
Zn21 O36 1.905 . S
Zn22 O30 1.905 . S
Zn22 O31 1.898 . S
Zn22 O39 1.920 . S
Zn23 O26 2.080 . S
Zn23 O29 2.114 . S
Zn23 O32 2.120 . S
Zn23 O34 2.120 . S
Zn23 O35 2.114 . S
Zn23 O38 2.080 . S
C24 O29 1.166 . S
C24 O30 1.182 . S
C25 O31 1.167 . S
C25 O32 1.299 . S
O26 Zn23 2.080 . S
O26 C40 1.305 . S
O27 Zn21 1.920 . S
O27 C40 1.234 . S
C28 O33 1.167 . S
C28 O34 1.299 . S
O29 Zn23 2.114 . S
O29 C24 1.166 . S
O30 Zn22 1.905 . S
O30 C24 1.182 . S
O31 Zn22 1.898 . S
O31 C25 1.167 . S
O32 Zn23 2.120 . S
O32 C25 1.299 . S
O33 Zn21 1.898 . S
O33 C28 1.167 . S
O34 Zn23 2.120 . S
O34 C28 1.299 . S
O35 Zn23 2.114 . S
O35 C37 1.166 . S
O36 Zn21 1.905 . S
O36 C37 1.182 . S
C37 O35 1.166 . S
C37 O36 1.182 . S
O38 Zn23 2.080 . S
O38 C41 1.305 . S
O39 Zn22 1.920 . S
O39 C41 1.234 . S
C40 O26 1.305 . S
C40 O27 1.234 . S
C41 O38 1.305 . S
C41 O39 1.234 . S
C42 C43 1.391 . S
C42 C46 1.391 . S
C42 H84 0.948 . S
C43 C42 1.391 . S
C43 C44 1.391 . S
C44 C43 1.391 . S
C44 H100 0.947 . S
C44 C101 1.392 . S
C45 C46 1.391 . S
C45 C49 1.397 . S
C45 C101 1.419 . S
C46 C42 1.391 . S
C46 C45 1.391 . S
C46 C47 1.399 . S
C47 C46 1.399 . S
C47 C50 1.396 1_565 S
C47 C59 1.453 1_565 S
C47 C60 1.684 . S
H48 C72 0.948 . S
C49 C45 1.397 . S
C49 C50 1.394 1_565 S
C49 C68 1.723 . S
C50 C47 1.396 1_545 S
C50 C49 1.394 1_545 S
C50 C80 1.723 . S
H51 C74 0.947 . S
H52 C75 0.948 1_455 S
H53 C81 0.982 1_455 S
H54 C82 0.979 . S
H55 C82 0.980 . S
H56 C82 0.983 . S
H57 C81 0.979 . S
H58 C81 0.977 . S
C59 C47 1.453 1_545 S
C59 H88 0.982 . S
C59 H89 0.979 . S
C59 H90 0.977 . S
C60 C47 1.684 . S
C60 H85 0.979 . S
C60 H86 0.967 1_565 S
C60 H87 0.983 . S
C61 C62 1.391 1_565 S
C61 C66 1.391 . S
C61 H91 0.948 . S
C62 C61 1.391 1_545 S
C62 C63 1.391 . S
C63 C62 1.391 . S
C63 C64 1.392 . S
C63 H92 0.947 1_455 S
C64 C63 1.392 . S
C64 C65 1.419 . S
C64 H93 0.948 1_455 S
C65 C64 1.419 . S
C65 C66 1.391 1_545 S
C65 C69 1.397 . S
C66 C61 1.391 . S
C66 C65 1.391 1_565 S
C66 C67 1.399 . S
C67 C66 1.399 . S
C67 C68 1.396 . S
C67 C70 1.453 . S
C67 C71 1.684 . S
C68 C49 1.723 . S
C68 C67 1.396 . S
C68 C69 1.394 1_565 S
C69 C65 1.397 . S
C69 C68 1.394 1_545 S
C69 C79 1.723 . S
C70 C67 1.453 . S
C70 H94 0.982 1_565 S
C70 H95 0.979 . S
C70 H96 0.977 . S
C71 C67 1.684 . S
C71 H97 0.979 . S
C71 H98 0.980 . S
C71 H99 0.983 . S
C72 H48 0.948 . S
C72 C73 1.391 . S
C72 C77 1.391 . S
C73 C72 1.391 . S
C73 C74 1.391 . S
C74 H51 0.947 . S
C74 C73 1.391 . S
C74 C75 1.392 . S
C75 H52 0.948 1_655 S
C75 C74 1.392 . S
C75 C76 1.419 . S
C76 C75 1.419 . S
C76 C77 1.391 . S
C76 C80 1.397 1_655 S
C77 C72 1.391 . S
C77 C76 1.391 . S
C77 C78 1.399 . S
C78 C77 1.399 . S
C78 C79 1.396 1_655 S
C78 C81 1.453 . S
C78 C82 1.684 . S
C79 C69 1.723 . S
C79 C78 1.396 1_455 S
C79 C80 1.394 . S
C80 C50 1.723 . S
C80 C76 1.397 1_455 S
C80 C79 1.394 . S
C81 H53 0.982 1_655 S
C81 H57 0.979 . S
C81 H58 0.977 . S
C81 C78 1.453 . S
C82 H54 0.979 . S
C82 H55 0.980 . S
C82 H56 0.983 . S
C82 C78 1.684 . S
H83 C101 0.948 . S
H84 C42 0.948 . S
H85 C60 0.979 . S
H86 C60 0.967 1_545 S
H87 C60 0.983 . S
H88 C59 0.982 . S
H89 C59 0.979 . S
H90 C59 0.977 . S
H91 C61 0.948 . S
H92 C63 0.947 1_655 S
H93 C64 0.948 1_655 S
H94 C70 0.982 1_545 S
H95 C70 0.979 . S
H96 C70 0.977 . S
H97 C71 0.979 . S
H98 C71 0.980 . S
H99 C71 0.983 . S
H100 C44 0.947 . S
C101 C44 1.392 . S
C101 C45 1.419 . S
C101 H83 0.948 . S
C102 C103 1.391 . S
C102 C106 1.391 . S
C102 H144 0.948 . S
C103 C102 1.391 . S
C103 C104 1.391 . S
C104 C103 1.391 . S
C104 H160 0.947 . S
C104 C161 1.392 . S
C105 C106 1.391 . S
C105 C109 1.397 . S
C105 C161 1.419 . S
C106 C102 1.391 . S
C106 C105 1.391 . S
C106 C107 1.399 . S
C107 C106 1.399 . S
C107 C110 1.396 . S
C107 C119 1.453 . S
C107 C120 1.684 1_455 S
H108 C132 0.948 . S
C109 C105 1.397 . S
C109 C110 1.394 . S
C109 C128 1.723 . S
C110 C107 1.396 . S
C110 C109 1.394 . S
C110 C140 1.723 1_445 S
H111 C134 0.947 . S
H112 C135 0.948 . S
H113 C141 0.982 . S
H114 C142 0.979 . S
H115 C142 0.980 . S
H116 C142 0.983 . S
H117 C141 0.979 . S
H118 C141 0.977 . S
C119 C107 1.453 . S
C119 H148 0.982 1_545 S
C119 H149 0.979 . S
C119 H150 0.977 1_545 S
C120 C107 1.684 1_655 S
C120 H145 0.979 . S
C120 H146 0.980 . S
C120 H147 0.983 1_655 S
C121 C122 1.391 1_455 S
C121 C126 1.391 . S
C121 H151 0.948 . S
C122 C121 1.391 1_655 S
C122 C123 1.391 1_545 S
C123 C122 1.391 1_565 S
C123 C124 1.392 . S
C123 H152 0.947 . S
C124 C123 1.392 . S
C124 C125 1.419 1_565 S
C124 H153 0.948 . S
C125 C124 1.419 1_545 S
C125 C126 1.391 1_655 S
C125 C129 1.397 . S
C126 C121 1.391 . S
C126 C125 1.391 1_455 S
C126 C127 1.399 . S
C127 C126 1.399 . S
C127 C128 1.396 . S
C127 C130 1.453 . S
C127 C131 1.684 . S
C128 C109 1.723 . S
C128 C127 1.396 . S
C128 C129 1.394 1_455 S
C129 C125 1.397 . S
C129 C128 1.394 1_655 S
C129 C139 1.723 1_545 S
C130 C127 1.453 . S
C130 H154 0.982 . S
C130 H155 0.979 . S
C130 H156 0.977 . S
C131 C127 1.684 . S
C131 H157 0.979 . S
C131 H158 0.980 . S
C131 H159 0.983 . S
C132 H108 0.948 . S
C132 C133 1.391 . S
C132 C137 1.391 . S
C133 C132 1.391 . S
C133 C134 1.391 . S
C134 H111 0.947 . S
C134 C133 1.391 . S
C134 C135 1.392 . S
C135 H112 0.948 . S
C135 C134 1.392 . S
C135 C136 1.419 . S
C136 C135 1.419 . S
C136 C137 1.391 . S
C136 C140 1.397 . S
C137 C132 1.391 . S
C137 C136 1.391 . S
C137 C138 1.399 . S
C138 C137 1.399 . S
C138 C139 1.396 . S
C138 C141 1.453 . S
C138 C142 1.684 . S
C139 C129 1.723 1_565 S
C139 C138 1.396 . S
C139 C140 1.394 . S
C140 C110 1.723 1_665 S
C140 C136 1.397 . S
C140 C139 1.394 . S
C141 H113 0.982 . S
C141 H117 0.979 . S
C141 H118 0.977 . S
C141 C138 1.453 . S
C142 H114 0.979 . S
C142 H115 0.980 . S
C142 H116 0.983 . S
C142 C138 1.684 . S
H143 C161 0.948 . S
H144 C102 0.948 . S
H145 C120 0.979 . S
H146 C120 0.980 . S
H147 C120 0.983 1_455 S
H148 C119 0.982 1_565 S
H149 C119 0.979 . S
H150 C119 0.977 1_565 S
H151 C121 0.948 . S
H152 C123 0.947 . S
H153 C124 0.948 . S
H154 C130 0.982 . S
H155 C130 0.979 . S
H156 C130 0.977 . S
H157 C131 0.979 . S
H158 C131 0.980 . S
H159 C131 0.983 . S
H160 C104 0.947 . S
C161 C104 1.392 . S
C161 C105 1.419 . S
C161 H143 0.948 . S
C162 C163 1.391 . S
C162 C166 1.391 . S
C162 H204 0.948 1_556 S
C163 C162 1.391 . S
C163 C164 1.391 . S
C164 C163 1.391 . S
C164 H220 0.947 . S
C164 C221 1.392 . S
C165 C166 1.391 . S
C165 C169 1.397 . S
C165 C221 1.419 . S
C166 C162 1.391 . S
C166 C165 1.391 . S
C166 C167 1.399 . S
C167 C166 1.399 . S
C167 C170 1.396 . S
C167 C179 1.453 1_556 S
C167 C180 1.684 1_556 S
H168 C192 0.948 . S
C169 C165 1.397 . S
C169 C170 1.394 . S
C169 C188 1.723 . S
C170 C167 1.396 . S
C170 C169 1.394 . S
C170 C200 1.723 . S
H171 C194 0.947 . S
H172 C195 0.948 1_554 S
H173 C201 0.982 . S
H174 C202 0.979 . S
H175 C202 0.980 . S
H176 C202 0.983 . S
H177 C201 0.979 . S
H178 C201 0.977 . S
C179 C167 1.453 1_554 S
C179 H208 0.982 1_554 S
C179 H209 0.979 . S
C179 H210 0.977 . S
C180 C167 1.684 1_554 S
C180 H205 0.979 . S
C180 H206 0.980 . S
C180 H207 0.983 . S
C181 C182 1.391 . S
C181 C186 1.391 . S
C181 H211 0.948 . S
C182 C181 1.391 . S
C182 C183 1.391 . S
C183 C182 1.391 . S
C183 C184 1.392 . S
C183 H212 0.947 . S
C184 C183 1.392 . S
C184 C185 1.419 . S
C184 H213 0.948 . S
C185 C184 1.419 . S
C185 C186 1.391 . S
C185 C189 1.397 . S
C186 C181 1.391 . S
C186 C185 1.391 . S
C186 C187 1.399 . S
C187 C186 1.399 . S
C187 C188 1.396 . S
C187 C190 1.453 . S
C187 C191 1.684 . S
C188 C169 1.723 . S
C188 C187 1.396 . S
C188 C189 1.394 . S
C189 C185 1.397 . S
C189 C188 1.394 . S
C189 C199 1.723 . S
C190 C187 1.453 . S
C190 H214 0.982 . S
C190 H215 0.979 . S
C190 H216 0.977 . S
C191 C187 1.684 . S
C191 H217 0.979 . S
C191 H218 0.980 . S
C191 H219 0.983 . S
C192 H168 0.948 . S
C192 C193 1.391 . S
C192 C197 1.391 . S
C193 C192 1.391 . S
C193 C194 1.391 1_556 S
C194 H171 0.947 . S
C194 C193 1.391 1_554 S
C194 C195 1.392 1_554 S
C195 H172 0.948 1_556 S
C195 C194 1.392 1_556 S
C195 C196 1.419 . S
C196 C195 1.419 . S
C196 C197 1.391 . S
C196 C200 1.397 . S
C197 C192 1.391 . S
C197 C196 1.391 . S
C197 C198 1.399 . S
C198 C197 1.399 . S
C198 C199 1.396 . S
C198 C201 1.453 . S
C198 C202 1.684 . S
C199 C189 1.723 . S
C199 C198 1.396 . S
C199 C200 1.394 . S
C200 C170 1.723 . S
C200 C196 1.397 . S
C200 C199 1.394 . S
C201 H173 0.982 . S
C201 H177 0.979 . S
C201 H178 0.977 . S
C201 C198 1.453 . S
C202 H174 0.979 . S
C202 H175 0.980 . S
C202 H176 0.983 . S
C202 C198 1.684 . S
H203 C221 0.948 . S
H204 C162 0.948 1_554 S
H205 C180 0.979 . S
H206 C180 0.980 . S
H207 C180 0.983 . S
H208 C179 0.982 1_556 S
H209 C179 0.979 . S
H210 C179 0.977 . S
H211 C181 0.948 . S
H212 C183 0.947 . S
H213 C184 0.948 . S
H214 C190 0.982 . S
H215 C190 0.979 . S
H216 C190 0.977 . S
H217 C191 0.979 . S
H218 C191 0.980 . S
H219 C191 0.983 . S
H220 C164 0.947 . S
C221 C164 1.392 . S
C221 C165 1.419 . S
C221 H203 0.948 . S
C222 C223 1.391 . S
C222 C226 1.391 . S
C222 H264 0.948 . S
C223 C222 1.391 . S
C223 C224 1.391 . S
C224 C223 1.391 . S
C224 H280 0.947 . S
C224 C281 1.392 . S
C225 C226 1.391 . S
C225 C229 1.397 . S
C225 C281 1.419 . S
C226 C222 1.391 . S
C226 C225 1.391 . S
C226 C227 1.399 . S
C227 C226 1.399 . S
C227 C230 1.396 . S
C227 C239 1.453 . S
C227 C240 1.684 . S
H228 C252 0.948 . S
C229 C225 1.397 . S
C229 C230 1.394 . S
C229 C248 1.723 . S
C230 C227 1.396 . S
C230 C229 1.394 . S
C230 C260 1.723 . S
H231 C254 0.947 1_556 S
H232 C255 0.948 . S
H233 C261 0.982 . S
H234 C262 0.979 . S
H235 C262 0.980 . S
H236 C262 0.983 . S
H237 C261 0.979 . S
H238 C261 0.977 . S
C239 C227 1.453 . S
C239 H268 0.982 . S
C239 H269 0.979 . S
C239 H270 0.977 . S
C240 C227 1.684 . S
C240 H265 0.979 . S
C240 H266 0.980 . S
C240 H267 0.983 1_554 S
C241 C242 1.391 . S
C241 C246 1.391 . S
C241 H271 0.948 . S
C242 C241 1.391 . S
C242 C243 1.391 . S
C243 C242 1.391 . S
C243 C244 1.392 . S
C243 H272 0.947 . S
C244 C243 1.392 . S
C244 C245 1.419 . S
C244 H273 0.948 . S
C245 C244 1.419 . S
C245 C246 1.391 . S
C245 C249 1.397 . S
C246 C241 1.391 . S
C246 C245 1.391 . S
C246 C247 1.399 . S
C247 C246 1.399 . S
C247 C248 1.396 . S
C247 C250 1.453 . S
C247 C251 1.684 . S
C248 C229 1.723 . S
C248 C247 1.396 . S
C248 C249 1.394 . S
C249 C245 1.397 . S
C249 C248 1.394 . S
C249 C259 1.723 . S
C250 C247 1.453 . S
C250 H274 0.982 . S
C250 H275 0.979 . S
C250 H276 0.977 . S
C251 C247 1.684 . S
C251 H277 0.979 . S
C251 H278 0.980 . S
C251 H279 0.983 . S
C252 H228 0.948 . S
C252 C253 1.391 . S
C252 C257 1.391 . S
C253 C252 1.391 . S
C253 C254 1.391 . S
C254 H231 0.947 1_554 S
C254 C253 1.391 . S
C254 C255 1.392 . S
C255 H232 0.948 . S
C255 C254 1.392 . S
C255 C256 1.419 . S
C256 C255 1.419 . S
C256 C257 1.391 . S
C256 C260 1.397 . S
C257 C252 1.391 . S
C257 C256 1.391 . S
C257 C258 1.399 . S
C258 C257 1.399 . S
C258 C259 1.396 . S
C258 C261 1.453 . S
C258 C262 1.684 . S
C259 C249 1.723 . S
C259 C258 1.396 . S
C259 C260 1.394 . S
C260 C230 1.723 . S
C260 C256 1.397 . S
C260 C259 1.394 . S
C261 H233 0.982 . S
C261 H237 0.979 . S
C261 H238 0.977 . S
C261 C258 1.453 . S
C262 H234 0.979 . S
C262 H235 0.980 . S
C262 H236 0.983 . S
C262 C258 1.684 . S
H263 C281 0.948 . S
H264 C222 0.948 . S
H265 C240 0.979 . S
H266 C240 0.980 . S
H267 C240 0.983 1_556 S
H268 C239 0.982 . S
H269 C239 0.979 . S
H270 C239 0.977 . S
H271 C241 0.948 . S
H272 C243 0.947 . S
H273 C244 0.948 . S
H274 C250 0.982 . S
H275 C250 0.979 . S
H276 C250 0.977 . S
H277 C251 0.979 . S
H278 C251 0.980 . S
H279 C251 0.983 . S
H280 C224 0.947 . S
C281 C224 1.392 . S
C281 C225 1.419 . S
C281 H263 0.948 . S
C282 C283 1.363 . S
C282 C288 1.379 . S
C282 N290 1.356 . S
C283 C282 1.363 . S
C283 C289 1.363 . S
C284 C285 1.363 . S
C284 C289 1.379 . S
C284 N291 1.356 1_554 S
C285 C284 1.363 . S
C285 C288 1.363 . S
N286 C288 1.356 . S
N286 H298 0.984 . S
N286 H299 0.985 . S
N287 C289 1.356 1_556 S
N287 H292 0.984 . S
N287 H293 0.985 . S
C288 C282 1.379 . S
C288 C285 1.363 . S
C288 N286 1.356 . S
C289 C283 1.363 . S
C289 C284 1.379 . S
C289 N287 1.356 1_554 S
N290 C282 1.356 . S
N290 H296 0.984 . S
N290 H297 0.984 . S
N291 C284 1.356 1_556 S
N291 H294 0.977 1_556 S
N291 H295 0.985 . S
H292 N287 0.984 . S
H293 N287 0.985 . S
H294 N291 0.977 1_554 S
H295 N291 0.985 . S
H296 N290 0.984 . S
H297 N290 0.984 . S
H298 N286 0.984 . S
H299 N286 0.985 . S
C300 C301 1.363 . S
C300 C306 1.379 . S
C300 N308 1.356 . S
C301 C300 1.363 . S
C301 C307 1.363 1_556 S
C302 C303 1.363 1_554 S
C302 C307 1.379 . S
C302 N309 1.356 . S
C303 C302 1.363 1_556 S
C303 C306 1.363 . S
N304 C306 1.356 . S
N304 H316 0.984 . S
N304 H317 0.985 . S
N305 C307 1.356 . S
N305 H310 0.984 . S
N305 H311 0.985 . S
C306 C300 1.379 . S
C306 C303 1.363 . S
C306 N304 1.356 . S
C307 C301 1.363 1_554 S
C307 C302 1.379 . S
C307 N305 1.356 . S
N308 C300 1.356 . S
N308 H314 0.984 . S
N308 H315 0.984 . S
N309 C302 1.356 . S
N309 H312 0.984 . S
N309 H313 0.985 . S
H310 N305 0.984 . S
H311 N305 0.985 . S
H312 N309 0.984 . S
H313 N309 0.985 . S
H314 N308 0.984 . S
H315 N308 0.984 . S
H316 N304 0.984 . S
H317 N304 0.985 . S
C318 C319 1.363 . S
C318 C324 1.379 . S
C318 N326 1.356 1_554 S
C319 C318 1.363 . S
C319 C325 1.363 . S
C320 C321 1.363 . S
C320 C325 1.379 . S
C320 N327 1.356 . S
C321 C320 1.363 . S
C321 C324 1.363 . S
N322 C324 1.356 1_556 S
N322 H334 0.984 . S
N322 H335 0.985 1_556 S
N323 C325 1.356 . S
N323 H328 0.984 . S
N323 H329 0.985 . S
C324 C318 1.379 . S
C324 C321 1.363 . S
C324 N322 1.356 1_554 S
C325 C319 1.363 . S
C325 C320 1.379 . S
C325 N323 1.356 . S
N326 C318 1.356 1_556 S
N326 H332 0.984 . S
N326 H333 0.984 . S
N327 C320 1.356 . S
N327 H330 0.984 . S
N327 H331 0.985 . S
H328 N323 0.984 . S
H329 N323 0.985 . S
H330 N327 0.984 . S
H331 N327 0.985 . S
H332 N326 0.984 . S
H333 N326 0.984 . S
H334 N322 0.984 . S
H335 N322 0.985 1_554 S
C336 C337 1.363 1_556 S
C336 C342 1.379 . S
C336 N344 1.356 . S
C337 C336 1.363 1_554 S
C337 C343 1.363 . S
C338 C339 1.363 1_554 S
C338 C343 1.379 . S
C338 N345 1.356 . S
C339 C338 1.363 1_556 S
C339 C342 1.363 . S
N340 C342 1.356 . S
N340 H352 0.984 . S
N340 H353 0.985 . S
N341 C343 1.356 . S
N341 H346 0.984 . S
N341 H347 0.985 . S
C342 C336 1.379 . S
C342 C339 1.363 . S
C342 N340 1.356 . S
C343 C337 1.363 . S
C343 C338 1.379 . S
C343 N341 1.356 . S
N344 C336 1.356 . S
N344 H350 0.984 . S
N344 H351 0.984 . S
N345 C338 1.356 . S
N345 H348 0.984 . S
N345 H349 0.985 . S
H346 N341 0.984 . S
H347 N341 0.985 . S
H348 N345 0.984 . S
H349 N345 0.985 . S
H350 N344 0.984 . S
H351 N344 0.984 . S
H352 N340 0.984 . S
H353 N340 0.985 . S
C354 C355 1.363 . S
C354 C360 1.379 . S
C354 N362 1.356 . S
C355 C354 1.363 . S
C355 C361 1.363 . S
C356 C357 1.363 . S
C356 C361 1.379 . S
C356 N363 1.356 . S
C357 C356 1.363 . S
C357 C360 1.363 . S
N358 C360 1.356 . S
N358 H370 0.984 . S
N358 H371 0.985 . S
N359 C361 1.356 . S
N359 H364 0.984 . S
N359 H365 0.985 . S
C360 C354 1.379 . S
C360 C357 1.363 . S
C360 N358 1.356 . S
C361 C355 1.363 . S
C361 C356 1.379 . S
C361 N359 1.356 . S
N362 C354 1.356 . S
N362 H368 0.984 . S
N362 H369 0.984 . S
N363 C356 1.356 . S
N363 H366 0.984 . S
N363 H367 0.985 . S
H364 N359 0.984 . S
H365 N359 0.985 . S
H366 N363 0.984 . S
H367 N363 0.985 . S
H368 N362 0.984 . S
H369 N362 0.984 . S
H370 N358 0.984 . S
H371 N358 0.985 . S
C372 C373 1.363 . S
C372 C378 1.379 . S
C372 N380 1.356 . S
C373 C372 1.363 . S
C373 C379 1.363 . S
C374 C375 1.363 . S
C374 C379 1.379 . S
C374 N381 1.356 . S
C375 C374 1.363 . S
C375 C378 1.363 . S
N376 C378 1.356 . S
N376 H388 0.984 . S
N376 H389 0.985 . S
N377 C379 1.356 . S
N377 H382 0.984 . S
N377 H383 0.985 . S
C378 C372 1.379 . S
C378 C375 1.363 . S
C378 N376 1.356 . S
C379 C373 1.363 . S
C379 C374 1.379 . S
C379 N377 1.356 . S
N380 C372 1.356 . S
N380 H386 0.984 . S
N380 H387 0.984 . S
N381 C374 1.356 . S
N381 H384 0.984 . S
N381 H385 0.985 . S
H382 N377 0.984 . S
H383 N377 0.985 . S
H384 N381 0.984 . S
H385 N381 0.985 . S
H386 N380 0.984 . S
H387 N380 0.984 . S
H388 N376 0.984 . S
H389 N376 0.985 . S
C390 C391 1.363 . S
C390 C396 1.379 . S
C390 N398 1.356 . S
C391 C390 1.363 . S
C391 C397 1.363 . S
C392 C393 1.363 . S
C392 C397 1.379 . S
C392 N399 1.356 . S
C393 C392 1.363 . S
C393 C396 1.363 . S
N394 C396 1.356 . S
N394 H406 0.984 . S
N394 H407 0.985 . S
N395 C397 1.356 . S
N395 H400 0.984 . S
N395 H401 0.985 . S
C396 C390 1.379 . S
C396 C393 1.363 . S
C396 N394 1.356 . S
C397 C391 1.363 . S
C397 C392 1.379 . S
C397 N395 1.356 . S
N398 C390 1.356 . S
N398 H404 0.984 . S
N398 H405 0.984 . S
N399 C392 1.356 . S
N399 H402 0.984 . S
N399 H403 0.985 . S
H400 N395 0.984 . S
H401 N395 0.985 . S
H402 N399 0.984 . S
H403 N399 0.985 . S
H404 N398 0.984 . S
H405 N398 0.984 . S
H406 N394 0.984 . S
H407 N394 0.985 . S
C408 C409 1.363 . S
C408 C414 1.379 . S
C408 N416 1.356 . S
C409 C408 1.363 . S
C409 C415 1.363 . S
C410 C411 1.363 . S
C410 C415 1.379 . S
C410 N417 1.356 . S
C411 C410 1.363 . S
C411 C414 1.363 . S
N412 C414 1.356 . S
N412 H424 0.984 . S
N412 H425 0.985 . S
N413 C415 1.356 . S
N413 H418 0.984 . S
N413 H419 0.985 . S
C414 C408 1.379 . S
C414 C411 1.363 . S
C414 N412 1.356 . S
C415 C409 1.363 . S
C415 C410 1.379 . S
C415 N413 1.356 . S
N416 C408 1.356 . S
N416 H422 0.984 . S
N416 H423 0.984 . S
N417 C410 1.356 . S
N417 H420 0.984 . S
N417 H421 0.985 . S
H418 N413 0.984 . S
H419 N413 0.985 . S
H420 N417 0.984 . S
H421 N417 0.985 . S
H422 N416 0.984 . S
H423 N416 0.984 . S
H424 N412 0.984 . S
H425 N412 0.985 . S
C426 C427 1.363 1_655 S
C426 C432 1.379 1_655 S
C426 N434 1.356 . S
C427 C426 1.363 1_455 S
C427 C433 1.363 1_565 S
C428 C429 1.363 . S
C428 C433 1.379 . S
C428 N435 1.356 . S
C429 C428 1.363 . S
C429 C432 1.363 1_545 S
N430 C432 1.356 1_655 S
N430 H442 0.984 . S
N430 H443 0.985 1_565 S
N431 C433 1.356 . S
N431 H436 0.987 . S
N431 H437 0.985 . S
C432 C426 1.379 1_455 S
C432 C429 1.363 1_565 S
C432 N430 1.356 1_455 S
C433 C427 1.363 1_545 S
C433 C428 1.379 . S
C433 N431 1.356 . S
N434 C426 1.356 . S
N434 H440 0.984 . S
N434 H441 0.984 . S
N435 C428 1.356 . S
N435 H438 0.984 . S
N435 H439 0.985 . S
H436 N431 0.987 . S
H437 N431 0.985 . S
H438 N435 0.984 . S
H439 N435 0.985 . S
H440 N434 0.984 . S
H441 N434 0.984 . S
H442 N430 0.984 . S
H443 N430 0.985 1_545 S
C444 C445 1.363 . S
C444 C450 1.379 . S
C444 N452 1.356 . S
C445 C444 1.363 . S
C445 C451 1.363 1_465 S
C446 C447 1.363 1_655 S
C446 C451 1.379 . S
C446 N453 1.356 . S
C447 C446 1.363 1_455 S
C447 C450 1.363 1_545 S
N448 C450 1.356 . S
N448 H460 0.984 . S
N448 H461 0.985 . S
N449 C451 1.356 . S
N449 H454 0.984 . S
N449 H455 0.985 . S
C450 C444 1.379 . S
C450 C447 1.363 1_565 S
C450 N448 1.356 . S
C451 C445 1.363 1_645 S
C451 C446 1.379 . S
C451 N449 1.356 . S
N452 C444 1.356 . S
N452 H458 0.984 . S
N452 H459 0.984 . S
N453 C446 1.356 . S
N453 H456 0.984 . S
N453 H457 0.985 . S
H454 N449 0.984 . S
H455 N449 0.985 . S
H456 N453 0.984 . S
H457 N453 0.985 . S
H458 N452 0.984 . S
H459 N452 0.984 . S
H460 N448 0.984 . S
H461 N448 0.985 . S
C462 C463 1.363 . S
C462 C468 1.379 . S
C462 N470 1.356 . S
C463 C462 1.363 . S
C463 C469 1.363 . S
C464 C465 1.363 . S
C464 C469 1.379 . S
C464 N471 1.356 . S
C465 C464 1.363 . S
C465 C468 1.363 . S
N466 C468 1.356 . S
N466 H478 0.984 . S
N466 H479 0.985 . S
N467 C469 1.356 . S
N467 H472 0.984 . S
N467 H473 0.985 . S
C468 C462 1.379 . S
C468 C465 1.363 . S
C468 N466 1.356 . S
C469 C463 1.363 . S
C469 C464 1.379 . S
C469 N467 1.356 . S
N470 C462 1.356 . S
N470 H476 0.984 . S
N470 H477 0.984 . S
N471 C464 1.356 . S
N471 H474 0.984 . S
N471 H475 0.985 . S
H472 N467 0.984 . S
H473 N467 0.985 . S
H474 N471 0.984 . S
H475 N471 0.985 . S
H476 N470 0.984 . S
H477 N470 0.984 . S
H478 N466 0.984 . S
H479 N466 0.985 . S
C480 C481 1.363 . S
C480 C486 1.379 . S
C480 N488 1.356 . S
C481 C480 1.363 . S
C481 C487 1.363 . S
C482 C483 1.363 . S
C482 C487 1.379 . S
C482 N489 1.356 . S
C483 C482 1.363 . S
C483 C486 1.363 . S
N484 C486 1.356 . S
N484 H496 0.984 . S
N484 H497 0.985 . S
N485 C487 1.356 . S
N485 H490 0.984 . S
N485 H491 0.985 . S
C486 C480 1.379 . S
C486 C483 1.363 . S
C486 N484 1.356 . S
C487 C481 1.363 . S
C487 C482 1.379 . S
C487 N485 1.356 . S
N488 C480 1.356 . S
N488 H494 0.984 . S
N488 H495 0.984 . S
N489 C482 1.356 . S
N489 H492 0.984 . S
N489 H493 0.985 . S
H490 N485 0.984 . S
H491 N485 0.985 . S
H492 N489 0.984 . S
H493 N489 0.985 . S
H494 N488 0.984 . S
H495 N488 0.984 . S
H496 N484 0.984 . S
H497 N484 0.985 . S
C285 C253 1.359 . S
C283 C3 1.242 . S
C301 C4 1.492 1_556 S
C303 C193 1.635 . S
C319 C19 1.516 . S
C321 C223 1.555 . S
C337 C7 1.240 1_554 S
C339 C163 1.259 . S
C355 C37 1.242 . S
C357 C133 1.359 . S
C373 C28 1.492 . S
C375 C73 1.635 . S
C393 C103 1.555 . S
C391 C41 1.516 . S
C411 C43 1.260 . S
C409 C25 1.240 . S
C427 C20 1.319 . S
C429 C62 1.482 . S
C445 C16 1.364 1_455 S
C447 C122 1.518 1_455 S
C465 C182 1.482 . S
C463 C40 1.319 . S
C481 C24 1.364 . S
C483 C242 1.519 . S
