# Generated by pormake.
# Topology zzz, (3,6)-cn, num edge types: 1
# Building blocks:
#     Node 0, Type 0, BuildingBlock: CUQRIR_clean_linker_1, # of connection points: 3
#     Node 1, Type 0, BuildingBlock: CUQRIR_clean_linker_1, # of connection points: 3
#     Node 2, Type 0, BuildingBlock: CUQRIR_clean_linker_1, # of connection points: 3
#     Node 3, Type 0, BuildingBlock: CUQRIR_clean_linker_1, # of connection points: 3
#     Node 4, Type 0, BuildingBlock: CUQRIR_clean_linker_1, # of connection points: 3
#     Node 5, Type 0, BuildingBlock: CUQRIR_clean_linker_1, # of connection points: 3
#     Node 6, Type 0, BuildingBlock: CUQRIR_clean_linker_1, # of connection points: 3
#     Node 7, Type 0, BuildingBlock: CUQRIR_clean_linker_1, # of connection points: 3
#     Node 8, Type 1, BuildingBlock: BETDEL_clean_sbu_0, # of connection points: 6
#     Node 9, Type 1, BuildingBlock: BETDEL_clean_sbu_0, # of connection points: 6
#     Node 10, Type 1, BuildingBlock: BETDEL_clean_sbu_0, # of connection points: 6
#     Node 11, Type 1, BuildingBlock: BETDEL_clean_sbu_0, # of connection points: 6
#     Edge 12, Type (0, 1), BuildingBlock: MIFKUJ_clean_linker_0, # of connection points: 2
#     Edge 13, Type (0, 1), BuildingBlock: MIFKUJ_clean_linker_0, # of connection points: 2
#     Edge 14, Type (0, 1), BuildingBlock: MIFKUJ_clean_linker_0, # of connection points: 2
#     Edge 15, Type (0, 1), BuildingBlock: MIFKUJ_clean_linker_0, # of connection points: 2
#     Edge 16, Type (0, 1), BuildingBlock: MIFKUJ_clean_linker_0, # of connection points: 2
#     Edge 17, Type (0, 1), BuildingBlock: MIFKUJ_clean_linker_0, # of connection points: 2
#     Edge 18, Type (0, 1), BuildingBlock: MIFKUJ_clean_linker_0, # of connection points: 2
#     Edge 19, Type (0, 1), BuildingBlock: MIFKUJ_clean_linker_0, # of connection points: 2
#     Edge 20, Type (0, 1), BuildingBlock: MIFKUJ_clean_linker_0, # of connection points: 2
#     Edge 21, Type (0, 1), BuildingBlock: MIFKUJ_clean_linker_0, # of connection points: 2
#     Edge 22, Type (0, 1), BuildingBlock: MIFKUJ_clean_linker_0, # of connection points: 2
#     Edge 23, Type (0, 1), BuildingBlock: MIFKUJ_clean_linker_0, # of connection points: 2
#     Edge 24, Type (0, 1), BuildingBlock: MIFKUJ_clean_linker_0, # of connection points: 2
#     Edge 25, Type (0, 1), BuildingBlock: MIFKUJ_clean_linker_0, # of connection points: 2
#     Edge 26, Type (0, 1), BuildingBlock: MIFKUJ_clean_linker_0, # of connection points: 2
#     Edge 27, Type (0, 1), BuildingBlock: MIFKUJ_clean_linker_0, # of connection points: 2
#     Edge 28, Type (0, 1), BuildingBlock: MIFKUJ_clean_linker_0, # of connection points: 2
#     Edge 29, Type (0, 1), BuildingBlock: MIFKUJ_clean_linker_0, # of connection points: 2
#     Edge 30, Type (0, 1), BuildingBlock: MIFKUJ_clean_linker_0, # of connection points: 2
#     Edge 31, Type (0, 1), BuildingBlock: MIFKUJ_clean_linker_0, # of connection points: 2
#     Edge 32, Type (0, 1), BuildingBlock: MIFKUJ_clean_linker_0, # of connection points: 2
#     Edge 33, Type (0, 1), BuildingBlock: MIFKUJ_clean_linker_0, # of connection points: 2
#     Edge 34, Type (0, 1), BuildingBlock: MIFKUJ_clean_linker_0, # of connection points: 2
#     Edge 35, Type (0, 1), BuildingBlock: MIFKUJ_clean_linker_0, # of connection points: 2
# Relax obj value: 0.160
# Max RMSD: 0.187
# Mean RMSD: 0.116
data_MOF--net-zzz--node1-BETDEL_clean_sbu_0--node2-CUQRIR_clean_linker_1--edge1-MIFKUJ_clean_linker_0
_symmetry_space_group_name_H-M    P1
_symmetry_Int_Tables_number       1
_symmetry_cell_setting            triclinic
loop_
_symmetry_equiv_pos_as_xyz
'x, y, z'
_cell_length_a     61.902649
_cell_length_b     62.992908
_cell_length_c     17.601671
_cell_angle_alpha  91.578101
_cell_angle_beta   88.366917
_cell_angle_gamma 95.02944
loop_
_atom_site_label
_atom_site_type_symbol
_atom_site_fract_x
_atom_site_fract_y
_atom_site_fract_z
_atom_type_partial_charge
C0 C 0.73627 0.50974 0.13997 0.0
N1 N 0.75692 0.50431 0.12626 0.0
N2 N 0.72419 0.50649 0.07646 0.0
C3 C 0.72776 0.51788 0.21482 0.0
C4 C 0.73809 0.49885 0.02406 0.0
N5 N 0.75774 0.49749 0.05402 0.0
C6 C 0.73273 0.49315 0.94259 0.0
H7 H 0.73589 0.51098 0.26256 0.0
H8 H 0.70995 0.51405 0.22037 0.0
H9 H 0.73114 0.53547 0.21795 0.0
H10 H 0.74588 0.49993 0.90395 0.0
H11 H 0.71712 0.4988 0.92613 0.0
H12 H 0.73163 0.47556 0.93476 0.0
C13 C 0.99813 0.74181 0.12688 0.0
N14 N 0.00474 0.76293 0.13011 0.0
N15 N 0.00615 0.73249 0.0629 0.0
C16 C 0.98335 0.73039 0.1845 0.0
C17 C 0.0179 0.74868 0.02747 0.0
N18 N 0.01714 0.7671 0.0684 0.0
C19 C 0.02926 0.74682 0.95111 0.0
H20 H 0.98689 0.71349 0.18806 0.0
H21 H 0.96633 0.73066 0.16667 0.0
H22 H 0.98498 0.7383 0.2414 0.0
H23 H 0.02384 0.75885 0.91262 0.0
H24 H 0.02634 0.73071 0.92456 0.0
H25 H 0.04698 0.75027 0.95794 0.0
C26 C 0.76451 0.99294 0.17455 0.0
N27 N 0.74271 0.994 0.17323 0.0
N28 N 0.7731 0.99237 0.1026 0.0
C29 C 0.77753 0.99378 0.24529 0.0
C30 C 0.75572 0.99301 0.05791 0.0
N31 N 0.73736 0.99403 0.10066 0.0
C32 C 0.7566 0.99177 0.97241 0.0
H33 H 0.79333 0.00322 0.23591 0.0
H34 H 0.78086 0.97732 0.25914 0.0
H35 H 0.76858 1.00072 0.29413 0.0
H36 H 0.77005 0.98242 0.95156 0.0
H37 H 0.75952 0.00812 0.95025 0.0
H38 H 0.74106 0.98439 0.94995 0.0
C39 C 0.51341 0.76595 0.14999 0.0
N40 N 0.51392 0.74448 0.15277 0.0
N41 N 0.51429 0.77233 0.07661 0.0
C42 C 0.50981 0.78027 0.21777 0.0
C43 C 0.51538 0.75396 0.03537 0.0
N44 N 0.51524 0.73715 0.08146 0.0
C45 C 0.51657 0.75251 0.94999 0.0
H46 H 0.49211 0.78129 0.22681 0.0
H47 H 0.51752 0.79657 0.20815 0.0
H48 H 0.51629 0.77377 0.2696 0.0
H49 H 0.52541 0.76708 0.92658 0.0
H50 H 0.49987 0.75113 0.92805 0.0
H51 H 0.52472 0.73828 0.93008 0.0
C52 C 0.27042 0.49681 0.99236 0.0
N53 N 0.24928 0.50106 0.99252 0.0
N54 N 0.27976 0.50364 0.05885 0.0
C55 C 0.28166 0.48535 0.92907 0.0
C56 C 0.26341 0.51198 0.0994 0.0
N57 N 0.24501 0.5104 0.05917 0.0
C58 C 0.26511 0.52045 0.18004 0.0
H59 H 0.29933 0.49023 0.92793 0.0
H60 H 0.27468 0.48851 0.87354 0.0
H61 H 0.27928 0.46796 0.93867 0.0
H62 H 0.28057 0.53038 0.18816 0.0
H63 H 0.26484 0.5068 0.21867 0.0
H64 H 0.2515 0.53013 0.19625 0.0
C65 C 0.01627 0.26801 0.00848 0.0
N66 N 0.01389 0.24645 0.0123 0.0
N67 N 0.01293 0.27715 0.07829 0.0
C68 C 0.02072 0.28004 0.93652 0.0
C69 C 0.00863 0.26031 0.12437 0.0
N70 N 0.00912 0.24178 0.08425 0.0
C71 C 0.00542 0.26191 0.20936 0.0
H72 H 0.0385 0.28369 0.92899 0.0
H73 H 0.01302 0.29531 0.93959 0.0
H74 H 0.01475 0.27036 0.88654 0.0
H75 H 0.98789 0.26253 0.22324 0.0
H76 H 0.01435 0.27657 0.2329 0.0
H77 H 0.011 0.2478 0.23691 0.0
C78 C 0.23449 0.01136 0.97102 0.0
N79 N 0.25546 0.00707 0.97843 0.0
N80 N 0.22364 0.01013 0.03923 0.0
C81 C 0.22459 0.01664 0.89785 0.0
C82 C 0.23868 0.00486 0.08807 0.0
N83 N 0.25789 0.00296 0.05128 0.0
C84 C 0.23468 1.00158 0.17192 0.0
H85 H 0.22721 0.03409 0.8899 0.0
H86 H 0.20687 0.01206 0.89916 0.0
H87 H 0.23239 0.00848 0.84901 0.0
H88 H 0.232 0.98423 0.18193 0.0
H89 H 0.22023 0.00917 0.194 0.0
H90 H 0.24904 0.00797 0.20436 0.0
C91 C 0.4981 0.24384 0.02586 0.0
N92 N 0.50137 0.26531 0.02006 0.0
N93 N 0.50531 0.23756 0.09354 0.0
C94 C 0.48835 0.22912 0.9652 0.0
C95 C 0.51295 0.25615 0.12819 0.0
N96 N 0.51066 0.27278 0.08333 0.0
C97 C 0.52131 0.2583 0.20768 0.0
H98 H 0.49498 0.21333 0.96657 0.0
H99 H 0.49144 0.23605 0.90823 0.0
H100 H 0.47054 0.22685 0.9755 0.0
H101 H 0.53896 0.25636 0.20578 0.0
H102 H 0.51307 0.24587 0.24444 0.0
H103 H 0.51892 0.27428 0.23303 0.0
Dy104 Dy 0.01038 0.99171 0.64016 0.0
C105 C 0.98272 0.0369 0.39493 0.0
C106 C 0.01976 0.96373 0.74825 0.0
Dy107 Dy 0.98988 0.01161 0.51326 0.0
O108 O 0.0328 0.97968 0.7253 0.0
O109 O 1.00136 0.96383 0.71498 0.0
O110 O 0.04332 0.00464 0.59798 0.0
O111 O 0.01939 0.99536 0.51932 0.0
C112 C 0.03841 0.00398 0.52686 0.0
C113 C 0.9617 0.99869 0.62529 0.0
O114 O 0.98713 0.97883 0.46243 0.0
O115 O 0.99424 0.96333 0.57555 0.0
O116 O 0.96859 0.03148 0.44833 0.0
O117 O 1.00057 0.0282 0.40564 0.0
O118 O 0.95709 0.99787 0.5536 0.0
O119 O 0.98061 0.00757 0.63417 0.0
O120 O 0.00925 0.02455 0.69303 0.0
O121 O 0.00631 0.03979 0.5765 0.0
C122 C 0.98773 0.96183 0.50431 0.0
C123 C 0.01019 0.04163 0.65011 0.0
Dy124 Dy 0.48789 0.99195 0.52124 0.0
C125 C 0.54194 0.02671 0.75878 0.0
C126 C 0.45501 0.97946 0.42569 0.0
Dy127 Dy 0.51357 0.01505 0.64637 0.0
O128 O 0.47336 0.98955 0.40531 0.0
O129 O 0.45501 0.97555 0.49758 0.0
O130 O 0.5164 0.97499 0.47804 0.0
O131 O 0.52162 0.00539 0.5295 0.0
C132 C 0.53089 0.98952 0.5033 0.0
C133 C 0.47049 0.01792 0.65947 0.0
O134 O 0.51474 0.04194 0.56551 0.0
O135 O 0.48603 0.02675 0.49512 0.0
O136 O 0.52285 0.01686 0.76862 0.0
O137 O 0.54547 0.03065 0.6872 0.0
O138 O 0.48481 0.03252 0.68479 0.0
O139 O 0.4799 1.00185 0.63683 0.0
O140 O 0.48866 0.96475 0.60041 0.0
O141 O 0.51734 0.98052 0.66891 0.0
C142 C 0.50013 0.04319 0.51251 0.0
C143 C 0.50371 0.96377 0.65191 0.0
Dy144 Dy 0.48836 0.51182 0.65394 0.0
C145 C 0.51754 0.47485 0.37994 0.0
C146 C 0.48072 0.53238 0.78899 0.0
Dy147 Dy 0.5109 0.49633 0.51389 0.0
O148 O 0.46736 0.53034 0.73315 0.0
O149 O 0.49805 0.52303 0.77108 0.0
O150 O 0.45647 0.49659 0.61402 0.0
O151 O 0.47964 0.5093 0.53406 0.0
C152 C 0.46122 0.49906 0.54205 0.0
C153 C 0.5379 0.50882 0.62692 0.0
O154 O 0.51006 0.53016 0.47946 0.0
O155 O 0.50101 0.54291 0.59976 0.0
O156 O 0.53278 0.485 0.41946 0.0
O157 O 0.49884 0.47651 0.41365 0.0
O158 O 0.54301 0.51122 0.55522 0.0
O159 O 0.51946 0.49867 0.63332 0.0
O160 O 0.48727 0.47782 0.6878 0.0
O161 O 0.50138 0.46518 0.57345 0.0
C162 C 0.50717 0.54621 0.5278 0.0
C163 C 0.49294 0.4619 0.64298 0.0
Dy164 Dy 0.99296 0.49244 0.63928 0.0
C165 C 0.03737 0.52771 0.38192 0.0
C166 C 0.9676 0.48023 0.76225 0.0
Dy167 Dy 0.01223 0.51516 0.50502 0.0
O168 O 0.97411 0.46751 0.7089 0.0
O169 O 0.97558 0.49958 0.74939 0.0
O170 O 0.00875 0.46307 0.60295 0.0
O171 O 0.99787 0.48275 0.51987 0.0
C172 C 0.00781 0.46643 0.53061 0.0
C173 C 0.99768 0.54118 0.61449 0.0
O174 O 0.97801 0.51209 0.46478 0.0
O175 O 0.96279 0.50025 0.57938 0.0
O176 O 0.03685 0.53788 0.4469 0.0
O177 O 0.02378 0.51082 0.38365 0.0
O178 O 0.99673 0.54468 0.54231 0.0
O179 O 0.00758 0.52481 0.62424 0.0
O180 O 0.02657 0.49869 0.68283 0.0
O181 O 0.04162 0.50408 0.5625 0.0
C182 C 0.96079 0.50676 0.50903 0.0
C183 C 0.04371 0.5009 0.63613 0.0
H184 H 0.20921 0.04414 0.11313 0.0
H185 H 0.1736 0.04546 0.17775 0.0
H186 H 0.15258 0.98426 0.07704 0.0
H187 H 0.1885 0.98281 0.01391 0.0
H188 H 0.12075 0.02814 0.10909 0.0
H189 H 0.16054 0.96899 0.21248 0.0
H190 H 0.19487 0.9563 0.25359 0.0
H191 H 0.20511 0.01116 0.40273 0.0
H192 H 0.17091 0.02423 0.36174 0.0
H193 H 0.03466 0.99308 0.37501 0.0
H194 H 0.06323 0.99682 0.2753 0.0
H195 H 0.10728 0.02772 0.43792 0.0
H196 H 0.07909 0.02347 0.53744 0.0
H197 H 0.12678 0.99905 0.36606 0.0
H198 H 0.08512 0.0546 0.2896 0.0
H199 H 0.05284 0.07149 0.25099 0.0
H200 H 0.04731 0.02968 0.05444 0.0
H201 H 0.07945 0.01234 0.09235 0.0
C202 C 0.19663 0.03143 0.10255 0.0
C203 C 0.20138 0.01346 0.05834 0.0
C204 C 0.17636 0.03214 0.1395 0.0
C205 C 0.16043 0.01499 0.13202 0.0
C206 C 0.16457 0.99776 0.08293 0.0
C207 C 0.18499 0.99694 0.04671 0.0
C208 C 0.14129 0.01353 0.18515 0.0
C209 C 0.12181 0.02146 0.16487 0.0
C210 C 0.14298 0.00555 0.25867 0.0
C211 C 0.16334 0.99762 0.28376 0.0
C212 C 0.1702 0.97837 0.25372 0.0
C213 C 0.18958 0.97109 0.27712 0.0
C214 C 0.20215 0.9829 0.33083 0.0
C215 C 0.19535 1.00201 0.36123 0.0
C216 C 0.17597 0.00935 0.33799 0.0
C217 C 0.0504 1.00084 0.38909 0.0
C218 C 0.05471 0.00782 0.46418 0.0
C219 C 0.06671 0.00309 0.33196 0.0
C220 C 0.08753 0.01261 0.34869 0.0
C221 C 0.09148 0.02019 0.42332 0.0
C222 C 0.07532 0.01778 0.48029 0.0
C223 C 0.1057 0.01346 0.29061 0.0
C224 C 0.12528 0.00551 0.31015 0.0
C225 C 0.10403 0.02176 0.21697 0.0
C226 C 0.08455 0.03198 0.19438 0.0
C227 C 0.0769 0.04884 0.23856 0.0
C228 C 0.05866 0.05854 0.21668 0.0
C229 C 0.04798 0.0516 0.15048 0.0
C230 C 0.05557 0.035 0.10583 0.0
C231 C 0.07381 0.02524 0.12745 0.0
H232 H 0.03384 0.0591 0.13375 0.0
H233 H 0.21718 0.97727 0.34872 0.0
H234 H 0.47069 0.2081 0.10429 0.0
H235 H 0.46915 0.17376 0.1678 0.0
H236 H 0.53688 0.18564 0.22036 0.0
H237 H 0.53862 0.21918 0.15266 0.0
H238 H 0.52998 0.1461 0.19036 0.0
H239 H 0.49298 0.19416 0.35224 0.0
H240 H 0.46588 0.21944 0.38702 0.0
H241 H 0.41439 0.17094 0.34143 0.0
H242 H 0.44121 0.14544 0.30535 0.0
H243 H 0.53156 0.07673 0.50476 0.0
H244 H 0.53192 0.10862 0.42795 0.0
H245 H 0.46877 0.08696 0.34467 0.0
H246 H 0.46833 0.05495 0.42076 0.0
H247 H 0.47249 0.13035 0.38788 0.0
H248 H 0.51211 0.08198 0.23155 0.0
H249 H 0.54081 0.05791 0.20368 0.0
H250 H 0.58958 0.10901 0.25021 0.0
H251 H 0.56113 0.13336 0.27893 0.0
C252 C 0.48531 0.20309 0.12797 0.0
C253 C 0.50474 0.21639 0.12407 0.0
C254 C 0.48438 0.1836 0.16537 0.0
C255 C 0.50277 0.17717 0.20099 0.0
C256 C 0.52238 0.19013 0.19416 0.0
C257 C 0.52336 0.20941 0.15591 0.0
C258 C 0.50163 0.15732 0.24676 0.0
C259 C 0.51751 0.14286 0.23403 0.0
C260 C 0.48526 0.1527 0.30352 0.0
C261 C 0.46909 0.16797 0.32529 0.0
C262 C 0.47587 0.18893 0.3491 0.0
C263 C 0.46057 0.2033 0.36912 0.0
C264 C 0.43843 0.19682 0.36623 0.0
C265 C 0.43155 0.17594 0.3435 0.0
C266 C 0.44679 0.16153 0.32329 0.0
C267 C 0.51768 0.07878 0.47049 0.0
C268 C 0.49992 0.06319 0.46909 0.0
C269 C 0.51797 0.09699 0.42618 0.0
C270 C 0.50045 0.10016 0.37985 0.0
C271 C 0.4825 0.08489 0.37971 0.0
C272 C 0.4823 0.06654 0.42326 0.0
C273 C 0.50088 0.11935 0.33153 0.0
C274 C 0.48488 0.13365 0.34391 0.0
C275 C 0.51738 0.12404 0.27557 0.0
C276 C 0.53448 0.10942 0.25824 0.0
C277 C 0.52895 0.08803 0.23653 0.0
C278 C 0.54518 0.07434 0.22052 0.0
C279 C 0.56701 0.08188 0.2259 0.0
C280 C 0.57266 0.10316 0.24657 0.0
C281 C 0.55649 0.11693 0.26254 0.0
H282 H 0.57958 0.0713 0.21332 0.0
H283 H 0.4266 0.20796 0.38178 0.0
H284 H 0.2975 0.46706 0.08846 0.0
H285 H 0.33137 0.46396 0.15636 0.0
H286 H 0.34402 0.53237 0.15931 0.0
H287 H 0.31046 0.53531 0.09064 0.0
H288 H 0.37783 0.47966 0.13701 0.0
H289 H 0.3549 0.54634 0.34383 0.0
H290 H 0.32224 0.56309 0.3901 0.0
H291 H 0.28334 0.50411 0.35218 0.0
H292 H 0.31577 0.48699 0.30636 0.0
H293 H 0.46525 0.51103 0.3927 0.0
H294 H 0.43664 0.50958 0.29833 0.0
H295 H 0.391 0.48021 0.46185 0.0
H296 H 0.41938 0.48185 0.55614 0.0
H297 H 0.37374 0.51166 0.39729 0.0
H298 H 0.41209 0.45228 0.30756 0.0
H299 H 0.44432 0.43468 0.26271 0.0
H300 H 0.45175 0.47568 0.07121 0.0
H301 H 0.41976 0.4938 0.11561 0.0
C302 C 0.30793 0.48131 0.10168 0.0
C303 C 0.30139 0.50143 0.0849 0.0
C304 C 0.32724 0.47956 0.14048 0.0
C305 C 0.34021 0.49795 0.16365 0.0
C306 C 0.33429 0.51796 0.14249 0.0
C307 C 0.31515 0.51965 0.10334 0.0
C308 C 0.35834 0.49657 0.21732 0.0
C309 C 0.377 0.48667 0.19387 0.0
C310 C 0.35723 0.50547 0.29192 0.0
C311 C 0.33772 0.51547 0.32107 0.0
C312 C 0.33938 0.53695 0.34569 0.0
C313 C 0.32091 0.54651 0.3717 0.0
C314 C 0.30071 0.5347 0.37377 0.0
C315 C 0.29897 0.51327 0.3502 0.0
C316 C 0.31738 0.50364 0.32409 0.0
C317 C 0.44916 0.50407 0.40819 0.0
C318 C 0.44459 0.49662 0.48212 0.0
C319 C 0.43279 0.50319 0.35406 0.0
C320 C 0.41153 0.49472 0.37253 0.0
C321 C 0.40716 0.48689 0.44594 0.0
C322 C 0.42346 0.48778 0.49988 0.0
C323 C 0.39353 0.49487 0.31732 0.0
C324 C 0.37477 0.50463 0.34047 0.0
C325 C 0.39459 0.48566 0.24286 0.0
C326 C 0.41362 0.47454 0.21536 0.0
C327 C 0.42067 0.45765 0.25616 0.0
C328 C 0.43889 0.44757 0.23079 0.0
C329 C 0.45011 0.4541 0.1643 0.0
C330 C 0.44306 0.47066 0.1228 0.0
C331 C 0.42488 0.48084 0.14802 0.0
H332 H 0.46424 0.44632 0.14491 0.0
H333 H 0.28643 0.54213 0.39381 0.0
H334 H 0.04492 0.30866 0.05418 0.0
H335 H 0.04653 0.34516 0.10861 0.0
H336 H 0.98267 0.33158 0.2101 0.0
H337 H 0.98077 0.29575 0.15244 0.0
H338 H 0.98608 0.3706 0.17138 0.0
H339 H 0.03168 0.3267 0.30634 0.0
H340 H 0.06171 0.30387 0.31902 0.0
H341 H 0.10733 0.35477 0.24364 0.0
H342 H 0.07749 0.37781 0.22955 0.0
H343 H 0.02003 0.42661 0.55095 0.0
H344 H 0.02356 0.39827 0.45539 0.0
H345 H 0.0097 0.44109 0.27934 0.0
H346 H 0.00509 0.46929 0.37588 0.0
H347 H 0.04784 0.39063 0.33986 0.0
H348 H 0.98285 0.41323 0.13703 0.0
H349 H 0.95025 0.43321 0.13899 0.0
H350 H 0.93899 0.42003 0.37559 0.0
H351 H 0.97135 0.39976 0.37471 0.0
C352 C 0.03108 0.31378 0.08644 0.0
C353 C 0.01283 0.29941 0.10005 0.0
C354 C 0.03206 0.33452 0.11824 0.0
C355 C 0.01491 0.34108 0.16514 0.0
C356 C 0.99618 0.32702 0.17462 0.0
C357 C 0.99513 0.30648 0.14218 0.0
C358 C 0.01681 0.36179 0.20907 0.0
C359 C 0.99972 0.37506 0.20758 0.0
C360 C 0.03442 0.36765 0.25729 0.0
C361 C 0.05235 0.35387 0.26597 0.0
C362 C 0.0481 0.33296 0.29198 0.0
C363 C 0.06509 0.32 0.29947 0.0
C364 C 0.08641 0.32784 0.28191 0.0
C365 C 0.0908 0.3487 0.25703 0.0
C366 C 0.07386 0.36171 0.24926 0.0
C367 C 0.01782 0.43004 0.49185 0.0
C368 C 0.01204 0.45011 0.47104 0.0
C369 C 0.01996 0.41383 0.43703 0.0
C370 C 0.01658 0.41732 0.35991 0.0
C371 C 0.01193 0.43777 0.33851 0.0
C372 C 0.00943 0.45394 0.39366 0.0
C373 C 0.01687 0.39915 0.30358 0.0
C374 C 0.03441 0.3864 0.30253 0.0
C375 C 0.99931 0.39337 0.255 0.0
C376 C 0.97965 0.40523 0.25595 0.0
C377 C 0.97337 0.41456 0.18937 0.0
C378 C 0.95495 0.42593 0.19031 0.0
C379 C 0.94261 0.42796 0.25745 0.0
C380 C 0.94861 0.41852 0.3237 0.0
C381 C 0.96699 0.4071 0.32302 0.0
H382 H 0.92838 0.4368 0.25809 0.0
H383 H 0.09954 0.31778 0.28777 0.0
H384 H 0.80207 0.96365 0.12699 0.0
H385 H 0.83856 0.96295 0.06742 0.0
H386 H 0.8303 0.02206 0.95788 0.0
H387 H 0.79434 0.02285 0.01869 0.0
H388 H 0.84949 0.95936 0.92321 0.0
H389 H 0.87751 0.05046 0.92315 0.0
H390 H 0.87557 0.08201 0.00837 0.0
H391 H 0.86686 0.04163 0.20139 0.0
H392 H 0.86908 0.00986 0.11754 0.0
H393 H 0.9189 0.98562 0.61117 0.0
H394 H 0.89072 0.98252 0.71099 0.0
H395 H 0.93844 1.00114 0.87968 0.0
H396 H 0.96675 0.00476 0.77906 0.0
H397 H 0.90428 0.02158 0.90818 0.0
H398 H 0.91503 0.94895 0.8628 0.0
H399 H 0.9195 0.91593 0.78774 0.0
H400 H 0.8549 0.91648 0.70571 0.0
H401 H 0.85014 0.94969 0.77938 0.0
C402 C 0.80842 0.97669 0.0917 0.0
C403 C 0.79554 0.99332 0.07732 0.0
C404 C 0.82913 0.97623 0.05716 0.0
C405 C 0.83736 0.99252 0.00828 0.0
C406 C 0.82463 0.00947 0.99617 0.0
C407 C 0.80403 0.0099 0.03055 0.0
C408 C 0.85843 0.99125 0.96535 0.0
C409 C 0.86153 0.97292 0.92044 0.0
C410 C 0.87455 0.00868 0.96295 0.0
C411 C 0.8733 0.02775 0.01386 0.0
C412 C 0.87529 0.04831 0.9838 0.0
C413 C 0.87412 0.06623 0.03188 0.0
C414 C 0.87104 0.06382 0.11021 0.0
C415 C 0.86917 0.04347 0.14067 0.0
C416 C 0.87035 0.0255 0.09286 0.0
C417 C 0.92345 0.98891 0.66957 0.0
C418 C 0.94505 0.99546 0.6872 0.0
C419 C 0.90731 0.987 0.72682 0.0
C420 C 0.91238 0.99132 0.80337 0.0
C421 C 0.93405 0.99767 0.82123 0.0
C422 C 0.95024 0.99967 0.76373 0.0
C423 C 0.89482 0.99006 0.86365 0.0
C424 C 0.89238 0.00792 0.91171 0.0
C425 C 0.8796 0.972 0.87039 0.0
C426 C 0.88228 0.95191 0.82633 0.0
C427 C 0.90182 0.94211 0.82839 0.0
C428 C 0.9044 0.92335 0.78612 0.0
C429 C 0.88751 0.91413 0.7419 0.0
C430 C 0.86797 0.92364 0.73999 0.0
C431 C 0.86531 0.94242 0.78209 0.0
H432 H 0.88954 0.89961 0.7092 0.0
H433 H 0.87014 0.07772 0.14733 0.0
H434 H 0.54296 0.80717 0.08327 0.0
H435 H 0.54112 0.84053 0.01501 0.0
H436 H 0.47835 0.81703 0.93177 0.0
H437 H 0.4806 0.78368 0.99885 0.0
H438 H 0.50249 0.83252 0.81897 0.0
H439 H 0.48606 0.85812 0.0725 0.0
H440 H 0.49234 0.86472 0.20918 0.0
H441 H 0.55208 0.90194 0.15629 0.0
H442 H 0.54631 0.8953 0.01926 0.0
H443 H 0.4744 0.92834 0.65653 0.0
H444 H 0.47586 0.89656 0.73236 0.0
H445 H 0.53767 0.92181 0.81857 0.0
H446 H 0.53599 0.95387 0.74482 0.0
H447 H 0.51444 0.90559 0.93054 0.0
H448 H 0.53172 0.87995 0.67909 0.0
H449 H 0.5264 0.87328 0.54188 0.0
H450 H 0.46637 0.83603 0.59013 0.0
H451 H 0.47119 0.84271 0.72765 0.0
C452 C 0.52862 0.80947 0.05174 0.0
C453 C 0.5118 0.79308 0.04685 0.0
C454 C 0.52754 0.82848 0.01258 0.0
C455 C 0.50949 0.8315 0.96826 0.0
C456 C 0.49246 0.81521 0.96522 0.0
C457 C 0.49363 0.79623 0.00393 0.0
C458 C 0.50873 0.85104 0.92196 0.0
C459 C 0.50479 0.84849 0.84379 0.0
C460 C 0.5124 0.87199 0.95325 0.0
C461 C 0.51585 0.87603 0.03563 0.0
C462 C 0.50062 0.86757 0.09003 0.0
C463 C 0.50408 0.87134 0.16756 0.0
C464 C 0.52262 0.88369 0.19141 0.0
C465 C 0.53773 0.89234 0.13774 0.0
C466 C 0.53437 0.88859 0.06014 0.0
C467 C 0.48841 0.92707 0.6911 0.0
C468 C 0.50512 0.94371 0.69404 0.0
C469 C 0.48926 0.9088 0.73447 0.0
C470 C 0.50702 0.9065 0.78091 0.0
C471 C 0.52376 0.92308 0.78354 0.0
C472 C 0.52282 0.94142 0.74085 0.0
C473 C 0.50805 0.88706 0.82763 0.0
C474 C 0.5121 0.88962 0.90577 0.0
C475 C 0.50462 0.8661 0.79627 0.0
C476 C 0.50172 0.862 0.71363 0.0
C477 C 0.51731 0.87046 0.66041 0.0
C478 C 0.51439 0.86666 0.58259 0.0
C479 C 0.49603 0.85429 0.5573 0.0
C480 C 0.48057 0.84564 0.6098 0.0
C481 C 0.4834 0.84941 0.68768 0.0
H482 H 0.4938 0.85136 0.49703 0.0
H483 H 0.52527 0.8866 0.25146 0.0
H484 H 0.68779 0.4814 0.10944 0.0
H485 H 0.65211 0.48368 0.05374 0.0
H486 H 0.67602 0.54244 0.94798 0.0
H487 H 0.71131 0.54035 0.00623 0.0
H488 H 0.63455 0.54423 0.98026 0.0
H489 H 0.67692 0.49218 0.85673 0.0
H490 H 0.69751 0.46037 0.84831 0.0
H491 H 0.64089 0.4213 0.92226 0.0
H492 H 0.62003 0.45294 0.93215 0.0
H493 H 0.57576 0.5345 0.63089 0.0
H494 H 0.60376 0.53612 0.72757 0.0
H495 H 0.56534 0.4884 0.85554 0.0
H496 H 0.53695 0.48727 0.76036 0.0
H497 H 0.61113 0.48042 0.82188 0.0
H498 H 0.56788 0.53307 0.93092 0.0
H499 H 0.5477 0.56509 0.92957 0.0
H500 H 0.6065 0.60346 0.87429 0.0
H501 H 0.62702 0.57158 0.87376 0.0
C502 C 0.68501 0.49521 0.07698 0.0
C503 C 0.70212 0.51085 0.06289 0.0
C504 C 0.66475 0.49638 0.04403 0.0
C505 C 0.66136 0.51298 0.9947 0.0
C506 C 0.67805 0.52944 0.98541 0.0
C507 C 0.69819 0.52836 0.0191 0.0
C508 C 0.64144 0.51224 0.94747 0.0
C509 C 0.62956 0.53029 0.94544 0.0
C510 C 0.63451 0.49401 0.90223 0.0
C511 C 0.647 0.47497 0.89617 0.0
C512 C 0.66891 0.47683 0.87179 0.0
C513 C 0.68063 0.45883 0.8667 0.0
C514 C 0.67054 0.43884 0.88506 0.0
C515 C 0.6487 0.4368 0.9083 0.0
C516 C 0.63692 0.45476 0.91367 0.0
C517 C 0.57317 0.52456 0.68013 0.0
C518 C 0.55415 0.51079 0.68799 0.0
C519 C 0.58917 0.52551 0.73539 0.0
C520 C 0.58668 0.5124 0.79896 0.0
C521 C 0.56762 0.4987 0.80715 0.0
C522 C 0.55138 0.49812 0.7528 0.0
C523 C 0.60445 0.51236 0.85465 0.0
C524 C 0.61599 0.49422 0.85766 0.0
C525 C 0.61115 0.53055 0.89996 0.0
C526 C 0.59896 0.54986 0.90141 0.0
C527 C 0.5765 0.54829 0.91776 0.0
C528 C 0.56499 0.56642 0.91747 0.0
C529 C 0.57579 0.58627 0.90152 0.0
C530 C 0.59815 0.58805 0.88641 0.0
C531 C 0.60974 0.56995 0.88643 0.0
H532 H 0.56682 0.60024 0.9008 0.0
H533 H 0.67963 0.42492 0.88105 0.0
H534 H 0.98183 0.72042 0.94288 0.0
H535 H 0.97714 0.68475 0.88311 0.0
H536 H 0.0152 0.66054 0.0579 0.0
H537 H 0.02033 0.69659 0.11599 0.0
H538 H 0.02863 0.6466 0.92615 0.0
H539 H 0.95908 0.64732 0.0458 0.0
H540 H 0.9242 0.66115 0.08333 0.0
H541 H 0.90636 0.66083 0.84933 0.0
H542 H 0.94129 0.64729 0.81021 0.0
H543 H 0.00952 0.54185 0.76354 0.0
H544 H 0.00752 0.57131 0.85699 0.0
H545 H 0.97662 0.60738 0.69284 0.0
H546 H 0.97847 0.578 0.5997 0.0
H547 H 0.95856 0.61211 0.83581 0.0
H548 H 0.03093 0.61539 0.71925 0.0
H549 H 0.06552 0.60044 0.68487 0.0
H550 H 0.07729 0.59191 0.92087 0.0
H551 H 0.04261 0.60657 0.95656 0.0
C552 C 0.98884 0.70732 0.96885 0.0
C553 C 1.00131 0.71104 0.03391 0.0
C554 C 0.98612 0.68694 0.93506 0.0
C555 C 0.99558 0.66975 0.96633 0.0
C556 C 0.00767 0.67345 0.03268 0.0
C557 C 0.01049 0.69393 0.06618 0.0
C558 C 0.99399 0.6484 0.92675 0.0
C559 C 0.01321 0.63888 0.90794 0.0
C560 C 0.97397 0.63829 0.90186 0.0
C561 C 0.95291 0.64643 0.92504 0.0
C562 C 0.9478 0.65035 0.00226 0.0
C563 C 0.928 0.65811 0.02384 0.0
C564 C 0.91309 0.66191 0.96874 0.0
C565 C 0.91794 0.6579 0.89195 0.0
C566 C 0.93773 0.65015 0.87004 0.0
C567 C 1.00206 0.55596 0.74781 0.0
C568 C 0.99437 0.55774 0.67405 0.0
C569 C 1.00098 0.57281 0.80115 0.0
C570 C 0.9922 0.59172 0.78163 0.0
C571 C 0.98352 0.59301 0.70922 0.0
C572 C 0.98467 0.57624 0.65591 0.0
C573 C 0.99316 0.61069 0.83434 0.0
C574 C 0.97387 0.61974 0.85531 0.0
C575 C 0.01307 0.62028 0.86187 0.0
C576 C 0.03409 0.61186 0.8405 0.0
C577 C 0.04085 0.61021 0.76376 0.0
C578 C 0.06047 0.60181 0.74405 0.0
C579 C 0.07356 0.59517 0.80064 0.0
C580 C 0.06711 0.59702 0.87709 0.0
C581 C 0.04748 0.60539 0.8971 0.0
H582 H 0.08873 0.58863 0.78526 0.0
H583 H 0.89777 0.66791 0.98556 0.0
H584 H 0.97264 0.22549 0.15521 0.0
H585 H 0.96463 0.18869 0.19719 0.0
H586 H 0.0281 0.17362 0.11595 0.0
H587 H 0.03604 0.21049 0.07485 0.0
H588 H 0.99724 0.14261 0.07516 0.0
H589 H 0.01816 0.18224 0.301 0.0
H590 H 0.01731 0.21059 0.4001 0.0
H591 H 0.95168 0.18861 0.46131 0.0
H592 H 0.95196 0.16037 0.36134 0.0
H593 H 0.01299 0.05232 0.29166 0.0
H594 H 0.01317 0.08567 0.22431 0.0
H595 H 0.94843 0.09382 0.31107 0.0
H596 H 0.94839 0.06058 0.38022 0.0
H597 H 0.97685 0.12773 0.34441 0.0
H598 H 0.95562 0.08987 0.10782 0.0
H599 H 0.95825 0.0603 0.01379 0.0
H600 H 0.02661 0.07727 0.98446 0.0
H601 H 0.02428 0.10691 0.0787 0.0
C602 C 0.98487 0.21428 0.14745 0.0
C603 C 0.00494 0.2206 0.11253 0.0
C604 C 0.9803 0.19334 0.17087 0.0
C605 C 0.99583 0.17848 0.15995 0.0
C606 C 0.01588 0.18482 0.12463 0.0
C607 C 0.02044 0.20578 0.10148 0.0
C608 C 0.99132 0.15643 0.18664 0.0
C609 C 0.99284 0.13938 0.13411 0.0
C610 C 0.98531 0.1522 0.26331 0.0
C611 C 0.98498 0.16937 0.32283 0.0
C612 C 0.00344 0.18361 0.33488 0.0
C613 C 1.00308 0.19963 0.39134 0.0
C614 C 0.98442 0.20146 0.43672 0.0
C615 C 0.96609 0.18723 0.42587 0.0
C616 C 0.96634 0.17122 0.36927 0.0
C617 C 0.99857 0.06092 0.29461 0.0
C618 C 0.98074 0.05405 0.3414 0.0
C619 C 0.99863 0.07991 0.25574 0.0
C620 C 0.98075 0.09215 0.26235 0.0
C621 C 0.96236 0.08456 0.30521 0.0
C622 C 0.96232 0.06558 0.34437 0.0
C623 C 0.98253 0.11401 0.23295 0.0
C624 C 0.98072 0.13103 0.28515 0.0
C625 C 0.9884 0.11822 0.15644 0.0
C626 C 0.98975 0.10074 0.09905 0.0
C627 C 0.97117 0.08733 0.08091 0.0
C628 C 0.9726 0.07057 0.02775 0.0
C629 C 0.99257 0.06701 0.99281 0.0
C630 C 0.01114 0.0802 0.01102 0.0
C631 C 0.00975 0.09705 0.06381 0.0
H632 H 0.99367 0.05399 0.95183 0.0
H633 H 0.98418 0.21388 0.48039 0.0
H634 H 0.29512 0.02833 0.0474 0.0
H635 H 0.32951 0.02162 0.10577 0.0
H636 H 0.29975 0.9624 0.19193 0.0
H637 H 0.26559 0.96875 0.13155 0.0
H638 H 0.32581 1.00129 0.29597 0.0
H639 H 0.32928 0.94827 0.0816 0.0
H640 H 0.32925 0.93788 0.94534 0.0
H641 H 0.37872 0.98832 0.89854 0.0
H642 H 0.37902 0.99896 0.03452 0.0
H643 H 0.41493 0.96137 0.46604 0.0
H644 H 0.38126 0.96338 0.39812 0.0
H645 H 0.41722 0.99646 0.21659 0.0
H646 H 0.45093 0.99388 0.28324 0.0
H647 H 0.38755 0.97122 0.15763 0.0
H648 H 0.3905 0.02163 0.36009 0.0
H649 H 0.39278 0.03754 0.48927 0.0
H650 H 0.33261 0.00276 0.55332 0.0
H651 H 0.33051 0.98566 0.42577 0.0
C652 C 0.29613 0.01382 0.07816 0.0
C653 C 0.27793 0.99903 0.08547 0.0
C654 C 0.31561 0.01002 0.11116 0.0
C655 C 0.31703 0.9915 0.15226 0.0
C656 C 0.29885 0.97674 0.15999 0.0
C657 C 0.27943 0.98041 0.12622 0.0
C658 C 0.33728 0.9881 0.19011 0.0
C659 C 0.33925 0.99432 0.26673 0.0
C660 C 0.35501 0.98021 0.1499 0.0
C661 C 0.3541 0.97443 0.06794 0.0
C662 C 0.34 0.95724 0.04207 0.0
C663 C 0.34005 0.95122 0.96503 0.0
C664 C 0.3541 0.96232 0.91342 0.0
C665 C 0.36795 0.97963 0.93858 0.0
C666 C 0.36805 0.98563 0.01563 0.0
C667 C 0.41566 0.96864 0.41084 0.0
C668 C 0.43547 0.97748 0.37968 0.0
C669 C 0.39641 0.96998 0.37248 0.0
C670 C 0.39666 0.98047 0.303 0.0
C671 C 0.41661 0.98836 0.27021 0.0
C672 C 0.43587 0.98685 0.30822 0.0
C673 C 0.37614 0.98378 0.26539 0.0
C674 C 0.37414 0.97788 0.18819 0.0
C675 C 0.35865 0.99276 0.30477 0.0
C676 C 0.36053 1.00205 0.38328 0.0
C677 C 0.37799 0.01694 0.40208 0.0
C678 C 0.37923 0.02621 0.47511 0.0
C679 C 0.3629 0.02108 0.52957 0.0
C680 C 0.34534 0.00658 0.51123 0.0
C681 C 0.34419 0.99698 0.43871 0.0
H682 H 0.36381 0.02837 0.58592 0.0
H683 H 0.35414 0.95756 0.8539 0.0
H684 H 0.54973 0.2946 0.06845 0.0
H685 H 0.55763 0.33356 0.08393 0.0
H686 H 0.49043 0.3394 0.14634 0.0
H687 H 0.48286 0.3006 0.1319 0.0
H688 H 0.50835 0.37035 0.04044 0.0
H689 H 0.52535 0.33857 0.28112 0.0
H690 H 0.54542 0.31484 0.35684 0.0
H691 H 0.60581 0.34722 0.28101 0.0
H692 H 0.58604 0.37095 0.20391 0.0
H693 H 0.48678 0.45087 0.30166 0.0
H694 H 0.49244 0.42137 0.21335 0.0
H695 H 0.56174 0.4367 0.22119 0.0
H696 H 0.55605 0.46601 0.31202 0.0
H697 H 0.55258 0.39791 0.25815 0.0
H698 H 0.5329 0.43786 0.05496 0.0
H699 H 0.51249 0.46163 0.98113 0.0
H700 H 0.45746 0.41519 0.98111 0.0
H701 H 0.4772 0.39135 0.05697 0.0
C702 C 0.53689 0.30437 0.08658 0.0
C703 C 0.51584 0.29498 0.10041 0.0
C704 C 0.54127 0.32647 0.09437 0.0
C705 C 0.52454 0.33929 0.1156 0.0
C706 C 0.50348 0.32978 0.12908 0.0
C707 C 0.49921 0.30774 0.12198 0.0
C708 C 0.52898 0.36246 0.12985 0.0
C709 C 0.51798 0.37658 0.08792 0.0
C710 C 0.54243 0.37047 0.18932 0.0
C711 C 0.55426 0.35632 0.23605 0.0
C712 C 0.54291 0.3405 0.28014 0.0
C713 C 0.55422 0.32708 0.32336 0.0
C714 C 0.57688 0.32948 0.32354 0.0
C715 C 0.58826 0.34535 0.28066 0.0
C716 C 0.57702 0.35878 0.23719 0.0
C717 C 0.5032 0.4483 0.28302 0.0
C718 C 0.52101 0.46044 0.31439 0.0
C719 C 0.50644 0.43153 0.23182 0.0
C720 C 0.52755 0.4268 0.21028 0.0
C721 C 0.54532 0.44005 0.23704 0.0
C722 C 0.54207 0.45677 0.28883 0.0
C723 C 0.53084 0.40604 0.17175 0.0
C724 C 0.54341 0.39218 0.20894 0.0
C725 C 0.51876 0.3984 0.10785 0.0
C726 C 0.50661 0.41277 0.06232 0.0
C727 C 0.51634 0.43278 0.04025 0.0
C728 C 0.50486 0.4463 0.99794 0.0
C729 C 0.48367 0.43995 0.97657 0.0
C730 C 0.47389 0.42008 0.99765 0.0
C731 C 0.48523 0.40655 0.04036 0.0
H732 H 0.47486 0.45039 0.9435 0.0
H733 H 0.58561 0.31907 0.35706 0.0
H734 H 0.21973 0.53681 0.99282 0.0
H735 H 0.1815 0.54101 0.02354 0.0
H736 H 0.18473 0.5008 0.21713 0.0
H737 H 0.22231 0.49494 0.18108 0.0
H738 H 0.14912 0.49043 0.15306 0.0
H739 H 0.18608 0.55832 0.22761 0.0
H740 H 0.2096 0.59149 0.20768 0.0
H741 H 0.16771 0.60925 0.03424 0.0
H742 H 0.14408 0.57603 0.0526 0.0
H743 H 0.07314 0.5555 0.3922 0.0
H744 H 0.10611 0.55512 0.31386 0.0
H745 H 0.0738 0.50838 0.16201 0.0
H746 H 0.04102 0.50796 0.24287 0.0
H747 H 0.12181 0.56198 0.18274 0.0
H748 H 0.1096 0.47308 0.09774 0.0
H749 H 0.08706 0.44062 0.13546 0.0
H750 H 0.08285 0.46521 0.3649 0.0
H751 H 0.1055 0.49774 0.32858 0.0
C752 C 0.21212 0.52884 0.04159 0.0
C753 C 0.22377 0.51557 0.08472 0.0
C754 C 0.19039 0.53139 0.05962 0.0
C755 C 0.18022 0.52143 0.12323 0.0
C756 C 0.19214 0.5086 0.16758 0.0
C757 C 0.21367 0.50553 0.148 0.0
C758 C 0.15723 0.52427 0.14413 0.0
C759 C 0.14316 0.50609 0.15946 0.0
C760 C 0.14931 0.54466 0.15191 0.0
C761 C 0.16347 0.56461 0.14088 0.0
C762 C 0.18198 0.56924 0.18489 0.0
C763 C 0.19531 0.58805 0.17393 0.0
C764 C 0.19018 0.60244 0.11957 0.0
C765 C 0.17168 0.59807 0.07622 0.0
C766 C 0.15831 0.57927 0.08689 0.0
C767 C 0.07291 0.54552 0.34103 0.0
C768 C 0.05473 0.53149 0.32407 0.0
C769 C 0.09178 0.54535 0.29605 0.0
C770 C 0.09268 0.53135 0.23275 0.0
C771 C 0.07371 0.51899 0.2113 0.0
C772 C 0.05493 0.51883 0.25729 0.0
C773 C 0.11405 0.52823 0.1956 0.0
C774 C 0.12772 0.54631 0.17576 0.0
C775 C 0.12189 0.50779 0.18683 0.0
C776 C 0.10888 0.488 0.21004 0.0
C777 C 0.10386 0.47155 0.1562 0.0
C778 C 0.09107 0.45314 0.17735 0.0
C779 C 0.08342 0.4509 0.25244 0.0
C780 C 0.0887 0.467 0.30668 0.0
C781 C 0.10151 0.48543 0.28584 0.0
H782 H 0.07346 0.43667 0.26864 0.0
H783 H 0.20052 0.617 0.11118 0.0
H784 H 0.05854 0.78167 0.03241 0.0
H785 H 0.07117 0.81754 0.98777 0.0
H786 H 0.00573 0.83569 0.00744 0.0
H787 H 0.99297 0.79974 0.04835 0.0
H788 H 0.05631 0.83817 0.85805 0.0
H789 H 0.01006 0.88632 0.09469 0.0
H790 H 0.00517 0.88645 0.23394 0.0
H791 H 0.06063 0.85078 0.25284 0.0
H792 H 0.06628 0.85087 0.11382 0.0
H793 H 0.99978 0.92378 0.74939 0.0
H794 H 0.01207 0.89238 0.8078 0.0
H795 H 0.06677 0.93072 0.89981 0.0
H796 H 0.05493 0.96232 0.83861 0.0
H797 H 0.0385 0.90289 0.00549 0.0
H798 H 0.08161 0.90234 0.7874 0.0
H799 H 0.095 0.9033 0.65458 0.0
H800 H 0.05697 0.84457 0.60445 0.0
H801 H 0.04237 0.84377 0.73585 0.0
C802 C 0.04691 0.79334 0.0263 0.0
C803 C 0.02481 0.78809 0.04348 0.0
C804 C 0.05413 0.81377 0.00164 0.0
C805 C 0.03935 0.82926 0.99566 0.0
C806 C 0.01734 0.82401 0.0133 0.0
C807 C 0.0101 0.80357 0.03644 0.0
C808 C 0.04609 0.85069 0.96647 0.0
C809 C 0.05258 0.85243 0.8899 0.0
C810 C 0.04244 0.86926 0.01 0.0
C811 C 0.03853 0.86854 0.09353 0.0
C812 C 0.02128 0.87857 0.12845 0.0
C813 C 0.01838 0.8786 0.20747 0.0
C814 C 0.03258 0.86864 0.2522 0.0
C815 C 0.04965 0.85849 0.21806 0.0
C816 C 0.05267 0.85845 0.13913 0.0
C817 C 0.01438 0.92559 0.78237 0.0
C818 C 0.02634 0.9455 0.79011 0.0
C819 C 0.0215 0.90759 0.81489 0.0
C820 C 0.04052 0.9092 0.85674 0.0
C821 C 0.05223 0.92916 0.86656 0.0
C822 C 0.04538 0.94716 0.83227 0.0
C823 C 0.04674 0.89011 0.89491 0.0
C824 C 0.04257 0.88878 0.97338 0.0
C825 C 0.05316 0.87203 0.85321 0.0
C826 C 0.06062 0.87317 0.77206 0.0
C827 C 0.07561 0.88989 0.74786 0.0
C828 C 0.08351 0.89035 0.67267 0.0
C829 C 0.07687 0.87399 0.62112 0.0
C830 C 0.0622 0.85718 0.64455 0.0
C831 C 0.05399 0.85681 0.71938 0.0
H832 H 0.08306 0.87435 0.563 0.0
H833 H 0.03043 0.86879 0.31331 0.0
H834 H 0.70021 0.97021 0.13524 0.0
H835 H 0.66338 0.97791 0.10444 0.0
H836 H 0.68987 0.03144 0.97298 0.0
H837 H 0.72648 0.02475 0.00969 0.0
H838 H 0.65601 0.04225 0.05087 0.0
H839 H 0.67151 0.98057 0.89132 0.0
H840 H 0.68127 0.94376 0.86803 0.0
H841 H 0.62664 0.91994 0.00622 0.0
H842 H 0.61671 0.95665 0.03093 0.0
H843 H 0.58204 0.04829 0.75038 0.0
H844 H 0.61193 0.04527 0.83684 0.0
H845 H 0.56964 0.00488 0.98124 0.0
H846 H 0.53959 0.00836 0.89658 0.0
H847 H 0.60711 0.98663 0.923 0.0
H848 H 0.58741 0.04915 0.05357 0.0
H849 H 0.57741 0.08612 0.06541 0.0
H850 H 0.64012 0.10908 0.97627 0.0
H851 H 0.65024 0.0722 0.96077 0.0
C852 C 0.69802 0.98363 0.10005 0.0
C853 C 0.71602 0.99686 0.07436 0.0
C854 C 0.67706 0.98796 0.08209 0.0
C855 C 0.67385 0.00513 0.03564 0.0
C856 C 0.69192 0.01814 0.00905 0.0
C857 C 0.71282 0.01412 0.02868 0.0
C858 C 0.6518 0.00936 0.01274 0.0
C859 C 0.64534 0.03013 0.02254 0.0
C860 C 0.63754 0.99336 0.97837 0.0
C861 C 0.64352 0.97133 0.96358 0.0
C862 C 0.66168 0.96748 0.9171 0.0
C863 C 0.66722 0.94664 0.90359 0.0
C864 C 0.65461 0.92953 0.9358 0.0
C865 C 0.63641 0.93321 0.98143 0.0
C866 C 0.63081 0.95402 0.99516 0.0
C867 C 0.579 0.03935 0.80186 0.0
C868 C 0.55862 0.02851 0.81687 0.0
C869 C 0.59602 0.03766 0.85117 0.0
C870 C 0.59288 0.0249 0.9154 0.0
C871 C 0.57226 0.01494 0.93236 0.0
C872 C 0.55515 0.01695 0.88393 0.0
C873 C 0.61178 0.01969 0.95822 0.0
C874 C 0.6176 0.99869 0.95246 0.0
C875 C 0.62548 0.03554 0.99547 0.0
C876 C 0.61954 0.05781 0.00549 0.0
C877 C 0.59901 0.06203 0.03572 0.0
C878 C 0.59333 0.083 0.04321 0.0
C879 C 0.60815 0.09993 0.02198 0.0
C880 C 0.62866 0.09594 0.99282 0.0
C881 C 0.63437 0.075 0.98449 0.0
H882 H 0.60372 0.11615 0.02806 0.0
H883 H 0.65893 0.9134 0.92527 0.0
H884 H 0.54144 0.70771 0.12222 0.0
H885 H 0.53439 0.66893 0.10667 0.0
H886 H 0.47818 0.67786 0.97521 0.0
H887 H 0.48445 0.71651 0.99588 0.0
H888 H 0.46883 0.64736 0.07443 0.0
H889 H 0.52913 0.6652 0.89319 0.0
H890 H 0.56639 0.67937 0.85782 0.0
H891 H 0.59212 0.63705 0.01251 0.0
H892 H 0.55498 0.62285 0.04944 0.0
H893 H 0.45234 0.5627 0.80931 0.0
H894 H 0.45667 0.59371 0.89502 0.0
H895 H 0.51018 0.56724 0.99997 0.0
H896 H 0.5064 0.53655 0.91196 0.0
H897 H 0.523 0.60357 0.94956 0.0
H898 H 0.46152 0.57797 0.09451 0.0
H899 H 0.42434 0.56345 0.1263 0.0
H900 H 0.39935 0.61896 0.03798 0.0
H901 H 0.43643 0.63382 0.00502 0.0
C902 C 0.52772 0.70125 0.08958 0.0
C903 C 0.51354 0.7149 0.05967 0.0
C904 C 0.5237 0.67918 0.08063 0.0
C905 C 0.5058 0.67048 0.03947 0.0
C906 C 0.49203 0.68421 0.00753 0.0
C907 C 0.49581 0.70624 0.01787 0.0
C908 C 0.50137 0.64713 0.02826 0.0
C909 C 0.48054 0.63768 0.04665 0.0
C910 C 0.51708 0.63436 0.99602 0.0
C911 C 0.53933 0.64316 0.97465 0.0
C912 C 0.54275 0.65907 0.9201 0.0
C913 C 0.56383 0.66708 0.89972 0.0
C914 C 0.58161 0.65917 0.93311 0.0
C915 C 0.57834 0.64323 0.98695 0.0
C916 C 0.55728 0.63521 0.00764 0.0
C917 C 0.46452 0.56316 0.85247 0.0
C918 C 0.47922 0.54746 0.85361 0.0
C919 C 0.46692 0.58086 0.90188 0.0
C920 C 0.48378 0.58286 0.95414 0.0
C921 C 0.4971 0.56607 0.96009 0.0
C922 C 0.49491 0.54854 0.9099 0.0
C923 C 0.48989 0.60383 0.9914 0.0
C924 C 0.51119 0.61289 0.97859 0.0
C925 C 0.47448 0.61615 0.02851 0.0
C926 C 0.45198 0.60713 0.04771 0.0
C927 C 0.4482 0.58716 0.08188 0.0
C928 C 0.42707 0.57882 0.10004 0.0
C929 C 0.40948 0.59029 0.08434 0.0
C930 C 0.413 0.61012 0.05037 0.0
C931 C 0.4341 0.61853 0.03213 0.0
H932 H 0.39313 0.5838 0.09839 0.0
H933 H 0.59792 0.66535 0.91711 0.0
H934 H 0.76502 0.46092 0.97818 0.0
H935 H 0.79872 0.45293 0.91037 0.0
H936 H 0.82708 0.51616 0.9685 0.0
H937 H 0.79337 0.5241 0.03422 0.0
H938 H 0.84123 0.50632 0.83822 0.0
H939 H 0.83096 0.46747 0.07603 0.0
H940 H 0.81269 0.44063 0.16141 0.0
H941 H 0.82111 0.39142 0.99256 0.0
H942 H 0.83927 0.41792 0.90593 0.0
H943 H 0.95104 0.50538 0.87318 0.0
H944 H 0.91326 0.50264 0.91863 0.0
H945 H 0.90198 0.44198 0.80012 0.0
H946 H 0.93994 0.4443 0.75655 0.0
H947 H 0.87692 0.44498 0.93246 0.0
H948 H 0.8972 0.48666 0.71268 0.0
H949 H 0.92048 0.51504 0.64943 0.0
H950 H 0.89474 0.56218 0.79777 0.0
H951 H 0.87199 0.53429 0.86432 0.0
C952 C 0.77851 0.47305 0.97541 0.0
C953 C 0.77703 0.49295 0.01196 0.0
C954 C 0.79773 0.46849 0.93729 0.0
C955 C 0.81576 0.48368 0.93673 0.0
C956 C 0.81368 0.50397 0.96991 0.0
C957 C 0.79452 0.50852 0.00752 0.0
C958 C 0.83732 0.4784 0.90697 0.0
C959 C 0.84903 0.49291 0.85876 0.0
C960 C 0.8473 0.46051 0.932 0.0
C961 C 0.83627 0.44471 0.98423 0.0
C962 C 0.82885 0.45095 0.05705 0.0
C963 C 0.81852 0.43581 0.10563 0.0
C964 C 0.8157 0.41439 0.08234 0.0
C965 C 0.82326 0.40803 0.01046 0.0
C966 C 0.83356 0.42309 0.9616 0.0
C967 C 0.94073 0.49106 0.85954 0.0
C968 C 0.94817 0.47525 0.81027 0.0
C969 C 0.91914 0.48959 0.88494 0.0
C970 C 0.90476 0.47251 0.85999 0.0
C971 C 0.91282 0.45544 0.81876 0.0
C972 C 0.93451 0.45677 0.79419 0.0
C973 C 0.88114 0.47378 0.8689 0.0
C974 C 0.86897 0.45819 0.91094 0.0
C975 C 0.87094 0.49105 0.83996 0.0
C976 C 0.8832 0.50813 0.79511 0.0
C977 C 0.89656 0.50304 0.73235 0.0
C978 C 0.90967 0.51907 0.69572 0.0
C979 C 0.90911 0.54033 0.7195 0.0
C980 C 0.89532 0.54567 0.7798 0.0
C981 C 0.8824 0.52972 0.81737 0.0
H982 H 0.91927 0.55268 0.6909 0.0
H983 H 0.80771 0.40272 0.12007 0.0
H984 H 0.04916 0.23576 0.93169 0.0
H985 H 0.05166 0.20289 0.85398 0.0
H986 H 0.98268 0.18779 0.88506 0.0
H987 H 0.9804 0.22059 0.9619 0.0
H988 H 0.04339 0.1635 0.90359 0.0
H989 H 0.96276 0.15688 0.73654 0.0
H990 H 0.94033 0.18007 0.66755 0.0
H991 H 0.9955 0.22546 0.63525 0.0
H992 H 0.01835 0.20243 0.70299 0.0
H993 H 0.00901 0.05476 0.80129 0.0
H994 H 0.01259 0.09162 0.85197 0.0
H995 H 0.02426 0.11474 0.62495 0.0
H996 H 0.02035 0.07836 0.57409 0.0
H997 H 0.99595 0.13679 0.69325 0.0
H998 H 0.06385 0.11341 0.75543 0.0
H999 H 0.08952 0.09103 0.81201 0.0
H1000 H 0.06637 0.10808 0.0357 0.0
H1001 H 0.04024 0.13029 0.98039 0.0
C1002 C 0.03451 0.22576 0.91903 0.0
C1003 C 0.01455 0.2307 0.95147 0.0
C1004 C 0.03594 0.20688 0.87568 0.0
C1005 C 0.01735 0.1928 0.86346 0.0
C1006 C 0.99721 0.19845 0.89253 0.0
C1007 C 0.99585 0.21721 0.93605 0.0
C1008 C 0.0191 0.17138 0.82652 0.0
C1009 C 0.03307 0.15765 0.8574 0.0
C1010 C 0.00595 0.16385 0.76531 0.0
C1011 C 0.99221 0.178 0.72566 0.0
C1012 C 0.97012 0.1718 0.71468 0.0
C1013 C 0.95733 0.18492 0.67575 0.0
C1014 C 0.96647 0.20426 0.64731 0.0
C1015 C 0.98842 0.21052 0.65769 0.0
C1016 C 1.00128 0.19746 0.69649 0.0
C1017 C 0.01259 0.06769 0.76236 0.0
C1018 C 0.0143 0.06354 0.68355 0.0
C1019 C 0.01466 0.08877 0.79142 0.0
C1020 C 0.01874 0.10604 0.74241 0.0
C1021 C 0.02097 0.10179 0.66405 0.0
C1022 C 0.01877 0.08088 0.63505 0.0
C1023 C 0.01983 0.1286 0.77162 0.0
C1024 C 0.00632 0.14257 0.73939 0.0
C1025 C 0.03382 0.13645 0.83036 0.0
C1026 C 0.04966 0.12314 0.86363 0.0
C1027 C 0.06396 0.11216 0.81665 0.0
C1028 C 0.07868 0.09955 0.84851 0.0
C1029 C 0.07947 0.09801 0.92739 0.0
C1030 C 0.06567 0.10921 0.97458 0.0
C1031 C 0.05088 0.12178 0.94298 0.0
H1032 H 0.09086 0.08824 0.95195 0.0
H1033 H 0.95656 0.21436 0.61699 0.0
H1034 H 0.26974 0.03842 0.88167 0.0
H1035 H 0.30334 0.04002 0.80378 0.0
H1036 H 0.31442 0.97681 0.87343 0.0
H1037 H 0.28026 0.9748 0.94632 0.0
H1038 H 0.33195 0.97993 0.74788 0.0
H1039 H 0.34815 0.07108 0.77983 0.0
H1040 H 0.33848 0.10078 0.865 0.0
H1041 H 0.32817 0.05796 0.05061 0.0
H1042 H 0.33787 0.02797 0.96634 0.0
H1043 H 0.43609 0.0047 0.57086 0.0
H1044 H 0.39747 0.0029 0.60638 0.0
H1045 H 0.41371 0.02736 0.83117 0.0
H1046 H 0.45217 0.03001 0.794 0.0
H1047 H 0.38152 0.04464 0.79767 0.0
H1048 H 0.39776 0.97206 0.77654 0.0
H1049 H 0.41116 0.94029 0.71259 0.0
H1050 H 0.36178 0.94055 0.54628 0.0
H1051 H 0.34803 0.97224 0.60952 0.0
C1052 C 0.27906 0.02466 0.87806 0.0
C1053 C 0.27257 0.00658 0.92069 0.0
C1054 C 0.29854 0.02569 0.83475 0.0
C1055 C 0.31222 0.00892 0.83512 0.0
C1056 C 0.30468 0.99022 0.87295 0.0
C1057 C 0.28508 0.98904 0.91477 0.0
C1058 C 0.33489 0.01121 0.80146 0.0
C1059 C 0.34272 0.99415 0.75859 0.0
C1060 C 0.34938 0.02949 0.81604 0.0
C1061 C 0.34341 0.04731 0.86674 0.0
C1062 C 0.34379 0.06802 0.83882 0.0
C1063 C 0.3383 0.08488 0.88685 0.0
C1064 C 0.3326 0.08121 0.96306 0.0
C1065 C 0.33245 0.0607 0.99146 0.0
C1066 C 0.3379 0.04378 0.94362 0.0
C1067 C 0.43133 0.00955 0.62786 0.0
C1068 C 0.44709 0.01722 0.67996 0.0
C1069 C 0.4092 0.00858 0.64829 0.0
C1070 C 0.40237 0.01474 0.72209 0.0
C1071 C 0.41829 0.0226 0.77376 0.0
C1072 C 0.44034 0.02405 0.75267 0.0
C1073 C 0.37883 0.01312 0.74623 0.0
C1074 C 0.37076 0.03043 0.78652 0.0
C1075 C 0.36455 0.99458 0.7328 0.0
C1076 C 0.37221 0.97492 0.69658 0.0
C1077 C 0.38983 0.96544 0.72605 0.0
C1078 C 0.39746 0.94738 0.69009 0.0
C1079 C 0.38744 0.9385 0.62506 0.0
C1080 C 0.36961 0.94752 0.5964 0.0
C1081 C 0.36189 0.96553 0.63231 0.0
H1082 H 0.39341 0.92458 0.59711 0.0
H1083 H 0.32837 0.09428 1.00018 0.0
H1084 H 0.4647 0.28444 0.0058 0.0
H1085 H 0.46125 0.31648 0.9329 0.0
H1086 H 0.52432 0.31 0.82818 0.0
H1087 H 0.52798 0.27861 0.90489 0.0
H1088 H 0.52368 0.34821 0.87517 0.0
H1089 H 0.47325 0.30313 0.72902 0.0
H1090 H 0.44157 0.27739 0.70677 0.0
H1091 H 0.3995 0.32128 0.80985 0.0
H1092 H 0.43097 0.34719 0.83361 0.0
H1093 H 0.51538 0.42817 0.59473 0.0
H1094 H 0.51503 0.39307 0.65189 0.0
H1095 H 0.46699 0.41078 0.81822 0.0
H1096 H 0.46768 0.44617 0.76285 0.0
H1097 H 0.45948 0.36737 0.7384 0.0
H1098 H 0.51176 0.41275 0.87785 0.0
H1099 H 0.54417 0.43808 0.89263 0.0
H1100 H 0.58409 0.39201 0.79143 0.0
H1101 H 0.55182 0.36663 0.77428 0.0
C1102 C 0.47732 0.2894 0.96458 0.0
C1103 C 0.49634 0.27881 0.95925 0.0
C1104 C 0.47547 0.30783 0.92316 0.0
C1105 C 0.49246 0.31581 0.87409 0.0
C1106 C 0.51095 0.30434 0.86545 0.0
C1107 C 0.51291 0.28615 0.90799 0.0
C1108 C 0.49181 0.33691 0.83697 0.0
C1109 C 0.50976 0.35213 0.844 0.0
C1110 C 0.47346 0.34256 0.798 0.0
C1111 C 0.4545 0.32702 0.78371 0.0
C1112 C 0.45726 0.30723 0.74744 0.0
C1113 C 0.43934 0.29262 0.73447 0.0
C1114 C 0.41854 0.29767 0.75705 0.0
C1115 C 0.41562 0.31738 0.79247 0.0
C1116 C 0.43349 0.33204 0.80563 0.0
C1117 C 0.50459 0.42457 0.64307 0.0
C1118 C 0.49152 0.44002 0.67401 0.0
C1119 C 0.50448 0.40451 0.67584 0.0
C1120 C 0.491 0.3993 0.73936 0.0
C1121 C 0.47748 0.41444 0.76914 0.0
C1122 C 0.47793 0.43468 0.73745 0.0
C1123 C 0.49143 0.37823 0.77565 0.0
C1124 C 0.47341 0.36319 0.76896 0.0
C1125 C 0.50985 0.37261 0.81377 0.0
C1126 C 0.52929 0.38789 0.82395 0.0
C1127 C 0.5274 0.40812 0.85797 0.0
C1128 C 0.54575 0.42247 0.86693 0.0
C1129 C 0.56617 0.41667 0.84294 0.0
C1130 C 0.56826 0.39651 0.80991 0.0
C1131 C 0.54993 0.38214 0.80048 0.0
H1132 H 0.58037 0.42779 0.85005 0.0
H1133 H 0.40469 0.28633 0.74695 0.0
H1134 H 0.21729 0.46951 0.00119 0.0
H1135 H 0.18369 0.46673 0.92971 0.0
H1136 H 0.20943 0.51938 0.7929 0.0
H1137 H 0.2433 0.52137 0.86301 0.0
H1138 H 0.15537 0.49314 0.93035 0.0
H1139 H 0.18215 0.52168 0.62899 0.0
H1140 H 0.21267 0.51891 0.53706 0.0
H1141 H 0.22737 0.46053 0.63627 0.0
H1142 H 0.19677 0.46279 0.7281 0.0
H1143 H 0.06115 0.52293 0.75835 0.0
H1144 H 0.09755 0.52218 0.80798 0.0
H1145 H 0.11187 0.47477 0.63624 0.0
H1146 H 0.07611 0.47725 0.58225 0.0
H1147 H 0.14613 0.49661 0.65227 0.0
H1148 H 0.09801 0.46459 0.84798 0.0
H1149 H 0.06652 0.46395 0.93746 0.0
H1150 H 0.09366 0.52167 0.04638 0.0
H1151 H 0.12548 0.52234 0.95896 0.0
C1152 C 0.21607 0.47973 0.95329 0.0
C1153 C 0.23302 0.49531 0.93637 0.0
C1154 C 0.19672 0.47845 0.91325 0.0
C1155 C 0.19374 0.49286 0.85548 0.0
C1156 C 0.21123 0.50774 0.83587 0.0
C1157 C 0.23072 0.5088 0.87546 0.0
C1158 C 0.17185 0.49339 0.82079 0.0
C1159 C 0.15343 0.49372 0.86938 0.0
C1160 C 0.16895 0.49414 0.74127 0.0
C1161 C 0.18729 0.49254 0.68592 0.0
C1162 C 0.19185 0.50822 0.63101 0.0
C1163 C 0.20917 0.50674 0.57895 0.0
C1164 C 0.22199 0.48959 0.58099 0.0
C1165 C 0.21748 0.47385 0.63494 0.0
C1166 C 0.20016 0.47523 0.68708 0.0
C1167 C 0.07213 0.51237 0.7313 0.0
C1168 C 0.06573 0.5 0.66691 0.0
C1169 C 0.09296 0.51173 0.76026 0.0
C1170 C 0.1076 0.49782 0.72811 0.0
C1171 C 0.10114 0.4856 0.66296 0.0
C1172 C 0.0806 0.48691 0.63215 0.0
C1173 C 0.12955 0.49606 0.76172 0.0
C1174 C 0.14802 0.49574 0.71312 0.0
C1175 C 0.13248 0.49467 0.84118 0.0
C1176 C 0.11397 0.49362 0.89651 0.0
C1177 C 0.09727 0.47706 0.89137 0.0
C1178 C 0.07941 0.47666 0.94186 0.0
C1179 C 0.07806 0.49276 0.99758 0.0
C1180 C 0.09474 0.50913 0.0036 0.0
C1181 C 0.11276 0.50946 0.9539 0.0
H1182 H 0.06411 0.49251 0.03606 0.0
H1183 H 0.2354 0.48849 0.54066 0.0
H1184 H 0.96444 0.77136 0.18022 0.0
H1185 H 0.95513 0.80198 0.25997 0.0
H1186 H 0.02326 0.82192 0.28111 0.0
H1187 H 0.03239 0.79073 0.20529 0.0
H1188 H 0.00476 0.83199 0.4051 0.0
H1189 H 0.98694 0.84082 0.13923 0.0
H1190 H 0.96724 0.83164 0.02073 0.0
H1191 H 0.90647 0.83624 0.14054 0.0
H1192 H 0.92569 0.84529 0.25958 0.0
H1193 H 0.99026 0.94947 0.35448 0.0
H1194 H 0.98566 0.91312 0.3014 0.0
H1195 H 0.96656 0.88962 0.52348 0.0
H1196 H 0.97222 0.9258 0.5774 0.0
H1197 H 0.95603 0.87969 0.28826 0.0
H1198 H 0.98769 0.84714 0.55535 0.0
H1199 H 0.00542 0.86287 0.67037 0.0
H1200 H 0.04179 0.90988 0.53503 0.0
H1201 H 0.02423 0.89454 0.41956 0.0
C1202 C 0.97735 0.78195 0.2041 0.0
C1203 C 0.99913 0.77875 0.18667 0.0
C1204 C 0.97206 0.79968 0.24859 0.0
C1205 C 0.98846 0.8148 0.27483 0.0
C1206 C 0.01023 0.81079 0.26103 0.0
C1207 C 0.01549 0.79296 0.21767 0.0
C1208 C 0.98328 0.8354 0.31244 0.0
C1209 C 0.99392 0.84222 0.37958 0.0
C1210 C 0.96918 0.84907 0.27989 0.0
C1211 C 0.95774 0.8435 0.20831 0.0
C1212 C 0.96938 0.83977 0.14023 0.0
C1213 C 0.95833 0.83461 0.07308 0.0
C1214 C 0.93568 0.8333 0.07325 0.0
C1215 C 0.92401 0.83721 0.14052 0.0
C1216 C 0.93496 0.84236 0.2078 0.0
C1217 C 0.98486 0.93657 0.39179 0.0
C1218 C 0.98207 0.94039 0.47033 0.0
C1219 C 0.98213 0.91577 0.36133 0.0
C1220 C 0.97633 0.89848 0.4087 0.0
C1221 C 0.97165 0.90258 0.48606 0.0
C1222 C 0.9749 0.92327 0.51686 0.0
C1223 C 0.97783 0.87623 0.37912 0.0
C1224 C 0.96648 0.86914 0.31413 0.0
C1225 C 0.99165 0.86252 0.4123 0.0
C1226 C 0.00467 0.86967 0.47904 0.0
C1227 C 0.99977 0.86057 0.55008 0.0
C1228 C 0.00958 0.86959 0.61539 0.0
C1229 C 0.02448 0.88752 0.60996 0.0
C1230 C 0.0301 0.89611 0.53912 0.0
C1231 C 0.02029 0.88723 0.47375 0.0
H1232 H 0.03188 0.89464 0.66051 0.0
H1233 H 0.92718 0.8293 0.0212 0.0
H1234 H 0.72251 0.02914 0.20615 0.0
H1235 H 0.68841 0.03034 0.27983 0.0
H1236 H 0.69337 0.96596 0.3504 0.0
H1237 H 0.72751 0.96485 0.27554 0.0
H1238 H 0.65299 0.00369 0.24207 0.0
H1239 H 0.66225 0.96017 0.52265 0.0
H1240 H 0.69021 0.95568 0.61661 0.0
H1241 H 0.72336 0.01582 0.55605 0.0
H1242 H 0.69543 0.02084 0.46265 0.0
H1243 H 0.55074 0.96289 0.40375 0.0
H1244 H 0.58886 0.96546 0.36064 0.0
H1245 H 0.60225 0.0202 0.50966 0.0
H1246 H 0.56394 0.01805 0.55153 0.0
H1247 H 0.6339 0.98933 0.51253 0.0
H1248 H 0.59602 0.028 0.33579 0.0
H1249 H 0.56825 0.03334 0.24264 0.0
H1250 H 0.59339 0.98593 0.09329 0.0
H1251 H 0.62089 0.97963 0.18679 0.0
C1252 C 0.71674 0.01564 0.24021 0.0
C1253 C 0.72759 0.99697 0.2358 0.0
C1254 C 0.69715 0.0162 0.28146 0.0
C1255 C 0.68817 0.99818 0.3202 0.0
C1256 C 0.70001 0.98011 0.32138 0.0
C1257 C 0.71961 0.97952 0.27942 0.0
C1258 C 0.66548 0.99757 0.35152 0.0
C1259 C 0.64883 1.00052 0.30124 0.0
C1260 C 0.66002 0.99352 0.42872 0.0
C1261 C 0.67686 0.99075 0.48501 0.0
C1262 C 0.67547 0.97247 0.52954 0.0
C1263 C 0.69132 0.96983 0.58271 0.0
C1264 C 0.7086 0.98542 0.59209 0.0
C1265 C 0.71002 0.00371 0.54848 0.0
C1266 C 0.69421 0.00644 0.49531 0.0
C1267 C 0.56181 0.97543 0.42765 0.0
C1268 C 0.55429 0.99031 0.48102 0.0
C1269 C 0.5836 0.97689 0.40282 0.0
C1270 C 0.59844 0.99307 0.43161 0.0
C1271 C 0.59112 0.00757 0.48666 0.0
C1272 C 0.56922 0.00634 0.5105 0.0
C1273 C 0.62142 0.99518 0.40282 0.0
C1274 C 0.63808 0.99242 0.45335 0.0
C1275 C 0.62693 0.99939 0.32562 0.0
C1276 C 0.6103 0.00306 0.26924 0.0
C1277 C 0.59546 0.01846 0.28367 0.0
C1278 C 0.57983 0.02174 0.23053 0.0
C1279 C 0.57911 0.01007 0.16193 0.0
C1280 C 0.594 0.995 0.1464 0.0
C1281 C 0.60956 0.99149 0.19963 0.0
H1282 H 0.567 0.01271 0.12093 0.0
H1283 H 0.72085 0.98334 0.63327 0.0
H1284 H 0.47809 0.71899 0.18535 0.0
H1285 H 0.4766 0.68708 0.26266 0.0
H1286 H 0.54136 0.70566 0.33806 0.0
H1287 H 0.54279 0.73751 0.25939 0.0
H1288 H 0.50397 0.65573 0.23471 0.0
H1289 H 0.54615 0.68152 0.51477 0.0
H1290 H 0.55016 0.71272 0.60269 0.0
H1291 H 0.48926 0.7324 0.53259 0.0
H1292 H 0.48474 0.70117 0.44514 0.0
H1293 H 0.53208 0.56187 0.40724 0.0
H1294 H 0.53431 0.59781 0.3567 0.0
H1295 H 0.48857 0.61635 0.53045 0.0
H1296 H 0.48741 0.58081 0.5839 0.0
H1297 H 0.51609 0.64829 0.50969 0.0
H1298 H 0.47548 0.60054 0.3317 0.0
H1299 H 0.47196 0.56842 0.24797 0.0
H1300 H 0.52732 0.59273 0.11445 0.0
H1301 H 0.53116 0.62501 0.1972 0.0
C1302 C 0.49157 0.7167 0.22123 0.0
C1303 C 0.51044 0.73079 0.21733 0.0
C1304 C 0.49088 0.69831 0.26443 0.0
C1305 C 0.50893 0.69379 0.30584 0.0
C1306 C 0.52717 0.7088 0.30704 0.0
C1307 C 0.52791 0.72715 0.26302 0.0
C1308 C 0.5093 0.67258 0.34162 0.0
C1309 C 0.50657 0.65413 0.29494 0.0
C1310 C 0.51279 0.67036 0.42002 0.0
C1311 C 0.51525 0.68913 0.47277 0.0
C1312 C 0.53359 0.69248 0.51828 0.0
C1313 C 0.53595 0.71017 0.56803 0.0
C1314 C 0.52001 0.72458 0.57301 0.0
C1315 C 0.50164 0.72129 0.52843 0.0
C1316 C 0.4992 0.70361 0.47866 0.0
C1317 C 0.52262 0.57367 0.435 0.0
C1318 C 0.50946 0.56839 0.49936 0.0
C1319 C 0.52377 0.59424 0.40567 0.0
C1320 C 0.51113 0.60986 0.43809 0.0
C1321 C 0.49845 0.60472 0.50377 0.0
C1322 C 0.49775 0.58432 0.53433 0.0
C1323 C 0.51062 0.6313 0.40298 0.0
C1324 C 0.51344 0.64984 0.44952 0.0
C1325 C 0.5071 0.63364 0.32433 0.0
C1326 C 0.50379 0.61501 0.27132 0.0
C1327 C 0.48687 0.59904 0.28438 0.0
C1328 C 0.48485 0.5808 0.23721 0.0
C1329 C 0.49954 0.57847 0.17639 0.0
C1330 C 0.51602 0.59454 0.16175 0.0
C1331 C 0.51808 0.61284 0.20862 0.0
H1332 H 0.49802 0.56426 0.1403 0.0
H1333 H 0.52187 0.73827 0.61155 0.0
H1334 H 0.77241 0.53731 0.21944 0.0
H1335 H 0.80561 0.53932 0.29434 0.0
H1336 H 0.81691 0.47556 0.2194 0.0
H1337 H 0.78326 0.47302 0.14814 0.0
H1338 H 0.8199 0.51301 0.41337 0.0
H1339 H 0.8731 0.4781 0.17105 0.0
H1340 H 0.88531 0.48319 0.03807 0.0
H1341 H 0.85631 0.54263 0.03676 0.0
H1342 H 0.84417 0.53805 0.17039 0.0
H1343 H 0.92253 0.48451 0.55424 0.0
H1344 H 0.88624 0.48633 0.50369 0.0
H1345 H 0.91234 0.53396 0.34661 0.0
H1346 H 0.94855 0.53195 0.39628 0.0
H1347 H 0.88962 0.50622 0.27335 0.0
H1348 H 0.87467 0.54569 0.50256 0.0
H1349 H 0.87006 0.55436 0.63921 0.0
H1350 H 0.82745 0.49742 0.6673 0.0
H1351 H 0.8315 0.4886 0.53032 0.0
C1352 C 0.78164 0.52352 0.22065 0.0
C1353 C 0.77507 0.50499 0.17769 0.0
C1354 C 0.80077 0.52474 0.2629 0.0
C1355 C 0.81401 0.50764 0.26188 0.0
C1356 C 0.80719 0.48903 0.2204 0.0
C1357 C 0.78792 0.48762 0.17969 0.0
C1358 C 0.83507 0.50907 0.30295 0.0
C1359 C 0.83514 0.51143 0.3827 0.0
C1360 C 0.85515 0.50733 0.26384 0.0
C1361 C 0.85745 0.50757 0.1802 0.0
C1362 C 0.8688 0.49197 0.14168 0.0
C1363 C 0.87585 0.49484 0.06645 0.0
C1364 C 0.87153 0.51319 0.02913 0.0
C1365 C 0.85958 0.52841 0.06599 0.0
C1366 C 0.85243 0.52559 0.14127 0.0
C1367 C 0.92048 0.49554 0.50939 0.0
C1368 C 0.93855 0.50809 0.47937 0.0
C1369 C 0.89961 0.49669 0.48087 0.0
C1370 C 0.89624 0.51044 0.42146 0.0
C1371 C 0.9143 0.52317 0.39232 0.0
C1372 C 0.93512 0.52196 0.42055 0.0
C1373 C 0.87467 0.51007 0.38379 0.0
C1374 C 0.8744 0.50756 0.30451 0.0
C1375 C 0.85463 0.51214 0.42346 0.0
C1376 C 0.85352 0.51642 0.50646 0.0
C1377 C 0.86454 0.53489 0.53808 0.0
C1378 C 0.86189 0.5399 0.61543 0.0
C1379 C 0.84844 0.52646 0.66181 0.0
C1380 C 0.8378 0.50784 0.63117 0.0
C1381 C 0.84018 0.50288 0.55365 0.0
H1382 H 0.84614 0.53054 0.72139 0.0
H1383 H 0.87777 0.51577 0.97216 0.0
loop_
_geom_bond_atom_site_label_1
_geom_bond_atom_site_label_2
_geom_bond_distance
_geom_bond_site_symmetry_2
_ccdc_geom_bond_type
C0 N1 1.317 . S
C0 N2 1.348 . S
C0 C3 1.485 . S
N1 C0 1.317 . S
N1 N5 1.370 . S
N2 C0 1.348 . S
N2 C4 1.346 . S
C3 C0 1.485 . S
C3 H7 0.960 . S
C3 H8 0.961 . S
C3 H9 0.960 . S
C4 N2 1.346 . S
C4 N5 1.307 . S
C4 C6 1.486 1_554 S
N5 N1 1.370 . S
N5 C4 1.307 . S
C6 C4 1.486 1_556 S
C6 H10 0.960 . S
C6 H11 0.960 . S
C6 H12 0.959 . S
H7 C3 0.960 . S
H8 C3 0.961 . S
H9 C3 0.960 . S
H10 C6 0.960 . S
H11 C6 0.960 . S
H12 C6 0.959 . S
C13 N14 1.317 . S
C13 N15 1.351 . S
C13 C16 1.485 . S
N14 C13 1.317 . S
N14 N18 1.370 . S
N15 C13 1.351 . S
N15 C17 1.349 1_654 S
C16 C13 1.485 . S
C16 H20 0.960 1_655 S
C16 H21 0.961 . S
C16 H22 0.960 . S
C17 N15 1.349 1_456 S
C17 N18 1.306 1_456 S
C17 C19 1.486 . S
N18 N14 1.370 . S
N18 C17 1.306 1_654 S
C19 C17 1.486 . S
C19 H23 0.925 1_455 S
C19 H24 0.992 . S
C19 H25 0.963 . S
H20 C16 0.960 1_455 S
H21 C16 0.961 . S
H22 C16 0.960 . S
H23 C19 0.925 1_655 S
H24 C19 0.992 . S
H25 C19 0.963 . S
C26 N27 1.317 . S
C26 N28 1.348 . S
C26 C29 1.485 . S
N27 C26 1.317 . S
N27 N31 1.370 1_554 S
N28 C26 1.348 . S
N28 C30 1.346 1_554 S
C29 C26 1.485 . S
C29 H33 0.960 . S
C29 H34 0.961 . S
C29 H35 0.960 . S
C30 N28 1.346 1_556 S
C30 N31 1.307 . S
C30 C32 1.486 . S
N31 N27 1.370 1_556 S
N31 C30 1.307 . S
C32 C30 1.486 . S
C32 H36 0.960 . S
C32 H37 0.960 . S
C32 H38 0.959 . S
H33 C29 0.960 . S
H34 C29 0.961 . S
H35 C29 0.960 . S
H36 C32 0.960 . S
H37 C32 0.960 . S
H38 C32 0.959 . S
C39 N40 1.317 . S
C39 N41 1.348 . S
C39 C42 1.485 . S
N40 C39 1.317 . S
N40 N44 1.370 . S
N41 C39 1.348 . S
N41 C43 1.346 . S
C42 C39 1.485 . S
C42 H46 0.960 . S
C42 H47 0.961 . S
C42 H48 0.960 . S
C43 N41 1.346 . S
C43 N44 1.307 . S
C43 C45 1.486 1_554 S
N44 N40 1.370 . S
N44 C43 1.307 . S
C45 C43 1.486 1_556 S
C45 H49 0.960 . S
C45 H50 0.960 . S
C45 H51 0.959 . S
H46 C42 0.960 . S
H47 C42 0.961 . S
H48 C42 0.960 . S
H49 C45 0.960 . S
H50 C45 0.960 . S
H51 C45 0.959 . S
C52 N53 1.317 . S
C52 N54 1.348 . S
C52 C55 1.485 1_554 S
N53 C52 1.317 . S
N53 N57 1.370 . S
N54 C52 1.348 . S
N54 C56 1.346 . S
C55 C52 1.485 1_556 S
C55 H59 0.960 . S
C55 H60 0.961 . S
C55 H61 0.960 . S
C56 N54 1.346 . S
C56 N57 1.307 . S
C56 C58 1.486 . S
N57 N53 1.370 . S
N57 C56 1.307 . S
C58 C56 1.486 . S
C58 H62 0.960 . S
C58 H63 0.960 . S
C58 H64 0.959 . S
H59 C55 0.960 . S
H60 C55 0.961 . S
H61 C55 0.960 . S
H62 C58 0.960 . S
H63 C58 0.960 . S
H64 C58 0.959 . S
C65 N66 1.317 . S
C65 N67 1.349 . S
C65 C68 1.485 1_554 S
N66 C65 1.317 . S
N66 N70 1.370 . S
N67 C65 1.349 . S
N67 C69 1.342 1_655 S
C68 C65 1.485 1_556 S
C68 H72 0.960 1_655 S
C68 H73 0.961 . S
C68 H74 0.960 . S
C69 N67 1.342 1_455 S
C69 N70 1.307 1_455 S
C69 C71 1.485 . S
N70 N66 1.370 . S
N70 C69 1.307 1_655 S
C71 C69 1.485 . S
C71 H75 0.912 1_455 S
C71 H76 0.996 . S
C71 H77 0.975 . S
H72 C68 0.960 1_455 S
H73 C68 0.961 . S
H74 C68 0.960 . S
H75 C71 0.912 1_655 S
H76 C71 0.996 . S
H77 C71 0.975 . S
C78 N79 1.317 . S
C78 N80 1.348 . S
C78 C81 1.485 . S
N79 C78 1.317 . S
N79 N83 1.370 . S
N80 C78 1.348 . S
N80 C82 1.346 . S
C81 C78 1.485 . S
C81 H85 0.960 1_554 S
C81 H86 0.961 . S
C81 H87 0.960 1_554 S
C82 N80 1.346 . S
C82 N83 1.307 . S
C82 C84 1.486 . S
N83 N79 1.370 . S
N83 C82 1.307 . S
C84 C82 1.486 . S
C84 H88 0.960 . S
C84 H89 0.960 . S
C84 H90 0.959 . S
H85 C81 0.960 1_556 S
H86 C81 0.961 . S
H87 C81 0.960 1_556 S
H88 C84 0.960 . S
H89 C84 0.960 . S
H90 C84 0.959 . S
C91 N92 1.317 . S
C91 N93 1.348 1_556 S
C91 C94 1.485 . S
N92 C91 1.317 . S
N92 N96 1.370 1_556 S
N93 C91 1.348 1_554 S
N93 C95 1.346 . S
C94 C91 1.485 . S
C94 H98 0.960 . S
C94 H99 0.961 . S
C94 H100 0.960 . S
C95 N93 1.346 . S
C95 N96 1.307 . S
C95 C97 1.486 . S
N96 N92 1.370 1_554 S
N96 C95 1.307 . S
C97 C95 1.486 . S
C97 H101 0.960 . S
C97 H102 0.960 . S
C97 H103 0.959 . S
H98 C94 0.960 . S
H99 C94 0.961 . S
H100 C94 0.960 . S
H101 C97 0.960 . S
H102 C97 0.960 . S
H103 C97 0.959 . S
Dy104 O108 2.398 . S
Dy104 O109 2.491 1_455 S
Dy104 O110 2.403 . S
Dy104 O111 2.664 1_565 S
Dy104 O115 2.326 . S
Dy104 O119 2.310 1_455 S
Dy104 O120 2.351 1_565 S
C105 O116 1.185 . S
C105 O117 1.355 1_655 S
C106 O108 1.185 . S
C106 O109 1.355 1_455 S
Dy107 O111 2.310 1_655 S
Dy107 O114 2.351 1_545 S
Dy107 O116 2.398 . S
Dy107 O117 2.491 1_655 S
Dy107 O118 2.403 . S
Dy107 O119 2.664 1_545 S
Dy107 O121 2.326 . S
O108 Dy104 2.398 . S
O108 C106 1.185 . S
O109 Dy104 2.491 1_655 S
O109 C106 1.355 1_655 S
O110 Dy104 2.403 . S
O110 C112 1.254 1_565 S
O111 Dy104 2.664 1_545 S
O111 Dy107 2.310 1_455 S
O111 C112 1.268 . S
C112 O110 1.254 1_545 S
C112 O111 1.268 . S
C113 O118 1.254 1_565 S
C113 O119 1.268 . S
O114 Dy107 2.351 1_565 S
O114 C122 1.249 . S
O115 Dy104 2.326 . S
O115 C122 1.267 1_455 S
O116 C105 1.185 . S
O116 Dy107 2.398 . S
O117 C105 1.355 1_455 S
O117 Dy107 2.491 1_455 S
O118 Dy107 2.403 . S
O118 C113 1.254 1_545 S
O119 Dy104 2.310 1_655 S
O119 Dy107 2.664 1_565 S
O119 C113 1.268 . S
O120 Dy104 2.351 1_545 S
O120 C123 1.249 . S
O121 Dy107 2.326 . S
O121 C123 1.267 1_655 S
C122 O114 1.249 . S
C122 O115 1.267 1_655 S
C123 O120 1.249 . S
C123 O121 1.267 1_455 S
Dy124 O128 2.398 . S
Dy124 O129 2.491 1_565 S
Dy124 O130 2.403 . S
Dy124 O131 2.664 . S
Dy124 O135 2.326 1_565 S
Dy124 O139 2.310 1_565 S
Dy124 O140 2.351 . S
C125 O136 1.193 . S
C125 O137 1.352 1_545 S
C126 O128 1.185 1_545 S
C126 O129 1.355 . S
Dy127 O131 2.310 1_545 S
Dy127 O134 2.351 . S
Dy127 O136 2.398 . S
Dy127 O137 2.491 1_545 S
Dy127 O138 2.403 . S
Dy127 O139 2.664 . S
Dy127 O141 2.326 1_545 S
O128 Dy124 2.398 . S
O128 C126 1.185 1_565 S
O129 Dy124 2.491 1_545 S
O129 C126 1.355 . S
O130 Dy124 2.403 . S
O130 C132 1.254 . S
O131 Dy124 2.664 . S
O131 Dy127 2.310 1_565 S
O131 C132 1.268 . S
C132 O130 1.254 . S
C132 O131 1.268 . S
C133 O138 1.254 . S
C133 O139 1.268 . S
O134 Dy127 2.351 . S
O134 C142 1.249 . S
O135 Dy124 2.326 1_545 S
O135 C142 1.267 . S
O136 C125 1.193 . S
O136 Dy127 2.398 . S
O137 C125 1.352 1_565 S
O137 Dy127 2.491 1_565 S
O138 Dy127 2.403 . S
O138 C133 1.254 . S
O139 Dy124 2.310 1_545 S
O139 Dy127 2.664 . S
O139 C133 1.268 . S
O140 Dy124 2.351 . S
O140 C143 1.249 . S
O141 Dy127 2.326 1_565 S
O141 C143 1.267 . S
C142 O134 1.249 . S
C142 O135 1.267 . S
C143 O140 1.249 . S
C143 O141 1.267 . S
Dy144 O148 2.398 . S
Dy144 O149 2.491 . S
Dy144 O150 2.403 . S
Dy144 O151 2.664 . S
Dy144 O155 2.326 . S
Dy144 O159 2.310 . S
Dy144 O160 2.351 . S
C145 O156 1.185 . S
C145 O157 1.355 . S
C146 O148 1.185 . S
C146 O149 1.355 . S
Dy147 O151 2.310 . S
Dy147 O154 2.351 . S
Dy147 O156 2.398 . S
Dy147 O157 2.491 . S
Dy147 O158 2.403 . S
Dy147 O159 2.664 . S
Dy147 O161 2.326 . S
O148 Dy144 2.398 . S
O148 C146 1.185 . S
O149 Dy144 2.491 . S
O149 C146 1.355 . S
O150 Dy144 2.403 . S
O150 C152 1.254 . S
O151 Dy144 2.664 . S
O151 Dy147 2.310 . S
O151 C152 1.268 . S
C152 O150 1.254 . S
C152 O151 1.268 . S
C153 O158 1.254 . S
C153 O159 1.268 . S
O154 Dy147 2.351 . S
O154 C162 1.249 . S
O155 Dy144 2.326 . S
O155 C162 1.267 . S
O156 C145 1.185 . S
O156 Dy147 2.398 . S
O157 C145 1.355 . S
O157 Dy147 2.491 . S
O158 Dy147 2.403 . S
O158 C153 1.254 . S
O159 Dy144 2.310 . S
O159 Dy147 2.664 . S
O159 C153 1.268 . S
O160 Dy144 2.351 . S
O160 C163 1.249 . S
O161 Dy147 2.326 . S
O161 C163 1.267 . S
C162 O154 1.249 . S
C162 O155 1.267 . S
C163 O160 1.249 . S
C163 O161 1.267 . S
Dy164 O168 2.398 . S
Dy164 O169 2.491 . S
Dy164 O170 2.403 . S
Dy164 O171 2.664 1_655 S
Dy164 O175 2.326 . S
Dy164 O179 2.310 . S
Dy164 O180 2.351 1_655 S
C165 O176 1.185 . S
C165 O177 1.355 . S
C166 O168 1.185 . S
C166 O169 1.355 . S
Dy167 O171 2.310 . S
Dy167 O174 2.351 1_455 S
Dy167 O176 2.398 . S
Dy167 O177 2.491 . S
Dy167 O178 2.403 . S
Dy167 O179 2.664 1_455 S
Dy167 O181 2.326 . S
O168 Dy164 2.398 . S
O168 C166 1.185 . S
O169 Dy164 2.491 . S
O169 C166 1.355 . S
O170 Dy164 2.403 . S
O170 C172 1.254 . S
O171 Dy164 2.664 1_455 S
O171 Dy167 2.310 . S
O171 C172 1.268 1_455 S
C172 O170 1.254 . S
C172 O171 1.268 1_655 S
C173 O178 1.254 . S
C173 O179 1.268 1_455 S
O174 Dy167 2.351 1_655 S
O174 C182 1.249 . S
O175 Dy164 2.326 . S
O175 C182 1.267 . S
O176 C165 1.185 . S
O176 Dy167 2.398 . S
O177 C165 1.355 . S
O177 Dy167 2.491 . S
O178 Dy167 2.403 . S
O178 C173 1.254 . S
O179 Dy164 2.310 . S
O179 Dy167 2.664 1_655 S
O179 C173 1.268 1_655 S
O180 Dy164 2.351 1_455 S
O180 C183 1.249 . S
O181 Dy167 2.326 . S
O181 C183 1.267 . S
C182 O174 1.249 . S
C182 O175 1.267 . S
C183 O180 1.249 . S
C183 O181 1.267 . S
H184 C202 0.951 . S
H185 C204 0.951 . S
H186 C206 0.950 . S
H187 C207 0.950 . S
H188 C209 0.950 . S
H189 C212 0.950 . S
H190 C213 0.950 . S
H191 C215 0.950 . S
H192 C216 0.950 . S
H193 C217 0.951 . S
H194 C219 0.951 1_565 S
H195 C221 0.950 . S
H196 C222 0.950 . S
H197 C224 0.950 . S
H198 C227 0.950 . S
H199 C228 0.950 . S
H200 C230 0.950 1_565 S
H201 C231 0.936 1_565 S
C202 H184 0.951 . S
C202 C203 1.366 . S
C202 C204 1.388 . S
C203 C202 1.366 . S
C203 C207 1.385 . S
C204 H185 0.951 . S
C204 C202 1.388 . S
C204 C205 1.366 . S
C205 C204 1.366 . S
C205 C206 1.414 . S
C205 C208 1.499 . S
C206 H186 0.950 . S
C206 C205 1.414 . S
C206 C207 1.374 . S
C207 H187 0.950 . S
C207 C203 1.385 . S
C207 C206 1.374 . S
C208 C205 1.499 . S
C208 C209 1.373 . S
C208 C210 1.389 . S
C209 H188 0.950 . S
C209 C208 1.373 . S
C209 C225 1.377 . S
C210 C208 1.389 . S
C210 C211 1.524 . S
C210 C224 1.377 . S
C211 C210 1.524 . S
C211 C212 1.397 . S
C211 C216 1.363 . S
C212 H189 0.950 . S
C212 C211 1.397 . S
C212 C213 1.334 . S
C213 H190 0.950 . S
C213 C212 1.334 . S
C213 C214 1.287 . S
C214 C213 1.287 . S
C214 C215 1.524 . S
C214 H233 0.913 . S
C215 H191 0.950 . S
C215 C214 1.524 . S
C215 C216 1.415 . S
C216 H192 0.950 . S
C216 C211 1.363 . S
C216 C215 1.415 . S
C217 H193 0.951 . S
C217 C218 1.366 1_565 S
C217 C219 1.388 1_565 S
C218 C217 1.366 1_545 S
C218 C222 1.385 . S
C219 H194 0.951 1_545 S
C219 C217 1.388 1_545 S
C219 C220 1.366 . S
C220 C219 1.366 . S
C220 C221 1.414 . S
C220 C223 1.499 . S
C221 H195 0.950 . S
C221 C220 1.414 . S
C221 C222 1.374 . S
C222 H196 0.950 . S
C222 C218 1.385 . S
C222 C221 1.374 . S
C223 C220 1.499 . S
C223 C224 1.373 . S
C223 C225 1.389 . S
C224 H197 0.950 . S
C224 C210 1.377 . S
C224 C223 1.373 . S
C225 C209 1.377 . S
C225 C223 1.389 . S
C225 C226 1.524 . S
C226 C225 1.524 . S
C226 C227 1.397 . S
C226 C231 1.363 . S
C227 H198 0.950 . S
C227 C226 1.397 . S
C227 C228 1.334 . S
C228 H199 0.950 . S
C228 C227 1.334 . S
C228 C229 1.287 . S
C229 C228 1.287 . S
C229 C230 1.524 . S
C229 H232 0.999 . S
C230 H200 0.950 1_545 S
C230 C229 1.524 . S
C230 C231 1.415 . S
C231 H201 0.936 1_545 S
C231 C226 1.363 . S
C231 C230 1.415 . S
H232 C229 0.999 . S
H233 C214 0.913 . S
H234 C252 0.951 . S
H235 C254 0.951 . S
H236 C256 0.950 . S
H237 C257 0.950 . S
H238 C259 0.950 . S
H239 C262 0.950 . S
H240 C263 0.950 . S
H241 C265 0.950 . S
H242 C266 0.950 . S
H243 C267 0.951 . S
H244 C269 0.951 . S
H245 C271 0.950 . S
H246 C272 0.950 . S
H247 C274 0.950 . S
H248 C277 0.950 . S
H249 C278 0.950 . S
H250 C280 0.950 . S
H251 C281 0.950 . S
C252 H234 0.951 . S
C252 C253 1.366 . S
C252 C254 1.388 . S
C253 C252 1.366 . S
C253 C257 1.385 . S
C254 H235 0.951 . S
C254 C252 1.388 . S
C254 C255 1.366 . S
C255 C254 1.366 . S
C255 C256 1.414 . S
C255 C258 1.499 . S
C256 H236 0.950 . S
C256 C255 1.414 . S
C256 C257 1.374 . S
C257 H237 0.950 . S
C257 C253 1.385 . S
C257 C256 1.374 . S
C258 C255 1.499 . S
C258 C259 1.373 . S
C258 C260 1.389 . S
C259 H238 0.950 . S
C259 C258 1.373 . S
C259 C275 1.377 . S
C260 C258 1.389 . S
C260 C261 1.524 . S
C260 C274 1.377 . S
C261 C260 1.524 . S
C261 C262 1.397 . S
C261 C266 1.363 . S
C262 H239 0.950 . S
C262 C261 1.397 . S
C262 C263 1.334 . S
C263 H240 0.950 . S
C263 C262 1.334 . S
C263 C264 1.287 . S
C264 C263 1.287 . S
C264 C265 1.524 . S
C264 H283 0.913 . S
C265 H241 0.950 . S
C265 C264 1.524 . S
C265 C266 1.415 . S
C266 H242 0.950 . S
C266 C261 1.363 . S
C266 C265 1.415 . S
C267 H243 0.951 . S
C267 C268 1.366 . S
C267 C269 1.388 . S
C268 C267 1.366 . S
C268 C272 1.385 . S
C269 H244 0.951 . S
C269 C267 1.388 . S
C269 C270 1.366 . S
C270 C269 1.366 . S
C270 C271 1.414 . S
C270 C273 1.499 . S
C271 H245 0.950 . S
C271 C270 1.414 . S
C271 C272 1.374 . S
C272 H246 0.950 . S
C272 C268 1.385 . S
C272 C271 1.374 . S
C273 C270 1.499 . S
C273 C274 1.373 . S
C273 C275 1.389 . S
C274 H247 0.950 . S
C274 C260 1.377 . S
C274 C273 1.373 . S
C275 C259 1.377 . S
C275 C273 1.389 . S
C275 C276 1.524 . S
C276 C275 1.524 . S
C276 C277 1.397 . S
C276 C281 1.363 . S
C277 H248 0.950 . S
C277 C276 1.397 . S
C277 C278 1.334 . S
C278 H249 0.950 . S
C278 C277 1.334 . S
C278 C279 1.287 . S
C279 C278 1.287 . S
C279 C280 1.524 . S
C279 H282 0.999 . S
C280 H250 0.950 . S
C280 C279 1.524 . S
C280 C281 1.415 . S
C281 H251 0.950 . S
C281 C276 1.363 . S
C281 C280 1.415 . S
H282 C279 0.999 . S
H283 C264 0.913 . S
H284 C302 0.951 . S
H285 C304 0.951 . S
H286 C306 0.950 . S
H287 C307 0.950 . S
H288 C309 0.950 . S
H289 C312 0.950 . S
H290 C313 0.950 . S
H291 C315 0.950 . S
H292 C316 0.950 . S
H293 C317 0.951 . S
H294 C319 0.951 . S
H295 C321 0.950 . S
H296 C322 0.950 . S
H297 C324 0.950 . S
H298 C327 0.950 . S
H299 C328 0.950 . S
H300 C330 0.950 . S
H301 C331 0.950 . S
C302 H284 0.951 . S
C302 C303 1.366 . S
C302 C304 1.388 . S
C303 C302 1.366 . S
C303 C307 1.385 . S
C304 H285 0.951 . S
C304 C302 1.388 . S
C304 C305 1.366 . S
C305 C304 1.366 . S
C305 C306 1.414 . S
C305 C308 1.499 . S
C306 H286 0.950 . S
C306 C305 1.414 . S
C306 C307 1.374 . S
C307 H287 0.950 . S
C307 C303 1.385 . S
C307 C306 1.374 . S
C308 C305 1.499 . S
C308 C309 1.373 . S
C308 C310 1.389 . S
C309 H288 0.950 . S
C309 C308 1.373 . S
C309 C325 1.377 . S
C310 C308 1.389 . S
C310 C311 1.524 . S
C310 C324 1.377 . S
C311 C310 1.524 . S
C311 C312 1.397 . S
C311 C316 1.363 . S
C312 H289 0.950 . S
C312 C311 1.397 . S
C312 C313 1.334 . S
C313 H290 0.950 . S
C313 C312 1.334 . S
C313 C314 1.287 . S
C314 C313 1.287 . S
C314 C315 1.524 . S
C314 H333 0.913 . S
C315 H291 0.950 . S
C315 C314 1.524 . S
C315 C316 1.415 . S
C316 H292 0.950 . S
C316 C311 1.363 . S
C316 C315 1.415 . S
C317 H293 0.951 . S
C317 C318 1.366 . S
C317 C319 1.388 . S
C318 C317 1.366 . S
C318 C322 1.385 . S
C319 H294 0.951 . S
C319 C317 1.388 . S
C319 C320 1.366 . S
C320 C319 1.366 . S
C320 C321 1.414 . S
C320 C323 1.499 . S
C321 H295 0.950 . S
C321 C320 1.414 . S
C321 C322 1.374 . S
C322 H296 0.950 . S
C322 C318 1.385 . S
C322 C321 1.374 . S
C323 C320 1.499 . S
C323 C324 1.373 . S
C323 C325 1.389 . S
C324 H297 0.950 . S
C324 C310 1.377 . S
C324 C323 1.373 . S
C325 C309 1.377 . S
C325 C323 1.389 . S
C325 C326 1.524 . S
C326 C325 1.524 . S
C326 C327 1.397 . S
C326 C331 1.363 . S
C327 H298 0.950 . S
C327 C326 1.397 . S
C327 C328 1.334 . S
C328 H299 0.950 . S
C328 C327 1.334 . S
C328 C329 1.287 . S
C329 C328 1.287 . S
C329 C330 1.524 . S
C329 H332 0.999 . S
C330 H300 0.950 . S
C330 C329 1.524 . S
C330 C331 1.415 . S
C331 H301 0.950 . S
C331 C326 1.363 . S
C331 C330 1.415 . S
H332 C329 0.999 . S
H333 C314 0.913 . S
H334 C352 0.951 . S
H335 C354 0.951 . S
H336 C356 0.950 . S
H337 C357 0.950 . S
H338 C359 0.950 . S
H339 C362 0.950 . S
H340 C363 0.950 . S
H341 C365 0.950 . S
H342 C366 0.950 . S
H343 C367 0.951 . S
H344 C369 0.951 . S
H345 C371 0.950 . S
H346 C372 0.950 . S
H347 C374 0.950 . S
H348 C377 0.950 . S
H349 C378 0.950 . S
H350 C380 0.950 . S
H351 C381 0.950 . S
C352 H334 0.951 . S
C352 C353 1.363 . S
C352 C354 1.388 . S
C353 C352 1.363 . S
C353 C357 1.387 1_455 S
C354 H335 0.951 . S
C354 C352 1.388 . S
C354 C355 1.384 . S
C355 C354 1.384 . S
C355 C356 1.397 1_455 S
C355 C358 1.497 . S
C356 H336 0.950 . S
C356 C355 1.397 1_655 S
C356 C357 1.374 . S
C357 H337 0.950 . S
C357 C353 1.387 1_655 S
C357 C356 1.374 . S
C358 C355 1.497 . S
C358 C359 1.369 1_455 S
C358 C360 1.394 . S
C359 H338 0.950 . S
C359 C358 1.369 1_655 S
C359 C375 1.377 . S
C360 C358 1.394 . S
C360 C361 1.524 . S
C360 C374 1.377 . S
C361 C360 1.524 . S
C361 C362 1.397 . S
C361 C366 1.363 . S
C362 H339 0.950 . S
C362 C361 1.397 . S
C362 C363 1.334 . S
C363 H340 0.950 . S
C363 C362 1.334 . S
C363 C364 1.287 . S
C364 C363 1.287 . S
C364 C365 1.524 . S
C364 H383 0.913 . S
C365 H341 0.950 . S
C365 C364 1.524 . S
C365 C366 1.415 . S
C366 H342 0.950 . S
C366 C361 1.363 . S
C366 C365 1.415 . S
C367 H343 0.951 . S
C367 C368 1.389 . S
C367 C369 1.388 . S
C368 C367 1.389 . S
C368 C372 1.360 1_655 S
C369 H344 0.951 . S
C369 C367 1.388 . S
C369 C370 1.366 . S
C370 C369 1.366 . S
C370 C371 1.414 1_655 S
C370 C373 1.499 . S
C371 H345 0.950 . S
C371 C370 1.414 1_455 S
C371 C372 1.374 . S
C372 H346 0.950 . S
C372 C368 1.360 1_455 S
C372 C371 1.374 . S
C373 C370 1.499 . S
C373 C374 1.373 1_655 S
C373 C375 1.389 . S
C374 H347 0.950 . S
C374 C360 1.377 . S
C374 C373 1.373 1_455 S
C375 C359 1.377 . S
C375 C373 1.389 . S
C375 C376 1.524 . S
C376 C375 1.524 . S
C376 C377 1.397 . S
C376 C381 1.363 . S
C377 H348 0.950 . S
C377 C376 1.397 . S
C377 C378 1.334 . S
C378 H349 0.950 . S
C378 C377 1.334 . S
C378 C379 1.287 . S
C379 C378 1.287 . S
C379 C380 1.524 . S
C379 H382 0.999 . S
C380 H350 0.950 . S
C380 C379 1.524 . S
C380 C381 1.415 . S
C381 H351 0.950 . S
C381 C376 1.363 . S
C381 C380 1.415 . S
H382 C379 0.999 . S
H383 C364 0.913 . S
H384 C402 0.951 . S
H385 C404 0.951 . S
H386 C406 0.950 . S
H387 C407 0.950 . S
H388 C409 0.950 . S
H389 C412 0.950 . S
H390 C413 0.950 . S
H391 C415 0.950 . S
H392 C416 0.950 1_565 S
H393 C417 0.951 . S
H394 C419 0.951 . S
H395 C421 0.950 . S
H396 C422 0.950 . S
H397 C424 0.950 . S
H398 C427 0.950 . S
H399 C428 0.950 . S
H400 C430 0.950 . S
H401 C431 0.950 . S
C402 H384 0.951 . S
C402 C403 1.366 1_554 S
C402 C404 1.388 1_554 S
C403 C402 1.366 1_556 S
C403 C407 1.385 . S
C404 H385 0.951 . S
C404 C402 1.388 1_556 S
C404 C405 1.366 . S
C405 C404 1.366 . S
C405 C406 1.414 . S
C405 C408 1.499 . S
C406 H386 0.950 . S
C406 C405 1.414 . S
C406 C407 1.374 . S
C407 H387 0.950 . S
C407 C403 1.385 . S
C407 C406 1.374 . S
C408 C405 1.499 . S
C408 C409 1.373 . S
C408 C410 1.389 . S
C409 H388 0.950 . S
C409 C408 1.373 . S
C409 C425 1.377 . S
C410 C408 1.389 . S
C410 C411 1.524 1_565 S
C410 C424 1.377 . S
C411 C410 1.524 1_545 S
C411 C412 1.398 . S
C411 C416 1.363 1_556 S
C412 H389 0.950 . S
C412 C411 1.398 . S
C412 C413 1.334 1_556 S
C413 H390 0.950 . S
C413 C412 1.334 1_554 S
C413 C414 1.287 . S
C414 C413 1.287 . S
C414 C415 1.524 . S
C414 H433 0.913 . S
C415 H391 0.950 . S
C415 C414 1.524 . S
C415 C416 1.415 . S
C416 H392 0.950 1_545 S
C416 C411 1.363 1_554 S
C416 C415 1.415 . S
C417 H393 0.951 . S
C417 C418 1.366 . S
C417 C419 1.388 . S
C418 C417 1.366 . S
C418 C422 1.385 . S
C419 H394 0.951 . S
C419 C417 1.388 . S
C419 C420 1.366 . S
C420 C419 1.366 . S
C420 C421 1.414 . S
C420 C423 1.499 . S
C421 H395 0.950 . S
C421 C420 1.414 . S
C421 C422 1.374 . S
C422 H396 0.950 . S
C422 C418 1.385 . S
C422 C421 1.374 . S
C423 C420 1.499 . S
C423 C424 1.373 . S
C423 C425 1.389 . S
C424 H397 0.950 . S
C424 C410 1.377 . S
C424 C423 1.373 . S
C425 C409 1.377 . S
C425 C423 1.389 . S
C425 C426 1.524 . S
C426 C425 1.524 . S
C426 C427 1.397 . S
C426 C431 1.363 . S
C427 H398 0.950 . S
C427 C426 1.397 . S
C427 C428 1.334 . S
C428 H399 0.950 . S
C428 C427 1.334 . S
C428 C429 1.287 . S
C429 C428 1.287 . S
C429 C430 1.524 . S
C429 H432 0.999 . S
C430 H400 0.950 . S
C430 C429 1.524 . S
C430 C431 1.415 . S
C431 H401 0.950 . S
C431 C426 1.363 . S
C431 C430 1.415 . S
H432 C429 0.999 . S
H433 C414 0.913 . S
H434 C452 0.951 . S
H435 C454 0.951 . S
H436 C456 0.950 . S
H437 C457 0.950 . S
H438 C459 0.950 . S
H439 C462 0.950 . S
H440 C463 0.950 . S
H441 C465 0.950 . S
H442 C466 0.950 . S
H443 C467 0.951 . S
H444 C469 0.951 . S
H445 C471 0.950 . S
H446 C472 0.950 . S
H447 C474 0.950 . S
H448 C477 0.950 . S
H449 C478 0.950 . S
H450 C480 0.950 . S
H451 C481 0.950 . S
C452 H434 0.951 . S
C452 C453 1.366 . S
C452 C454 1.388 1_554 S
C453 C452 1.366 . S
C453 C457 1.385 . S
C454 H435 0.951 . S
C454 C452 1.388 1_556 S
C454 C455 1.366 . S
C455 C454 1.366 . S
C455 C456 1.414 1_556 S
C455 C458 1.499 . S
C456 H436 0.950 . S
C456 C455 1.414 1_554 S
C456 C457 1.374 . S
C457 H437 0.950 . S
C457 C453 1.385 . S
C457 C456 1.374 . S
C458 C455 1.499 . S
C458 C459 1.373 . S
C458 C460 1.389 . S
C459 H438 0.950 . S
C459 C458 1.373 . S
C459 C475 1.377 . S
C460 C458 1.389 . S
C460 C461 1.524 . S
C460 C474 1.377 . S
C461 C460 1.524 . S
C461 C462 1.397 1_556 S
C461 C466 1.363 . S
C462 H439 0.950 . S
C462 C461 1.397 1_554 S
C462 C463 1.334 . S
C463 H440 0.950 . S
C463 C462 1.334 . S
C463 C464 1.287 . S
C464 C463 1.287 . S
C464 C465 1.524 1_554 S
C464 H483 0.913 . S
C465 H441 0.950 . S
C465 C464 1.524 1_556 S
C465 C466 1.415 . S
C466 H442 0.950 . S
C466 C461 1.363 . S
C466 C465 1.415 . S
C467 H443 0.951 . S
C467 C468 1.366 . S
C467 C469 1.388 . S
C468 C467 1.366 . S
C468 C472 1.385 . S
C469 H444 0.951 . S
C469 C467 1.388 . S
C469 C470 1.366 . S
C470 C469 1.366 . S
C470 C471 1.414 . S
C470 C473 1.499 . S
C471 H445 0.950 . S
C471 C470 1.414 . S
C471 C472 1.374 . S
C472 H446 0.950 . S
C472 C468 1.385 . S
C472 C471 1.374 . S
C473 C470 1.499 . S
C473 C474 1.373 . S
C473 C475 1.389 . S
C474 H447 0.950 . S
C474 C460 1.377 . S
C474 C473 1.373 . S
C475 C459 1.377 . S
C475 C473 1.389 . S
C475 C476 1.524 . S
C476 C475 1.524 . S
C476 C477 1.397 . S
C476 C481 1.363 . S
C477 H448 0.950 . S
C477 C476 1.397 . S
C477 C478 1.334 . S
C478 H449 0.950 . S
C478 C477 1.334 . S
C478 C479 1.287 . S
C479 C478 1.287 . S
C479 C480 1.524 . S
C479 H482 0.999 . S
C480 H450 0.950 . S
C480 C479 1.524 . S
C480 C481 1.415 . S
C481 H451 0.950 . S
C481 C476 1.363 . S
C481 C480 1.415 . S
H482 C479 0.999 . S
H483 C464 0.913 . S
H484 C502 0.951 . S
H485 C504 0.951 . S
H486 C506 0.950 . S
H487 C507 0.950 . S
H488 C509 0.950 . S
H489 C512 0.950 . S
H490 C513 0.950 . S
H491 C515 0.950 1_554 S
H492 C516 0.950 . S
H493 C517 0.951 . S
H494 C519 0.951 . S
H495 C521 0.950 . S
H496 C522 0.950 . S
H497 C524 0.950 . S
H498 C527 0.950 . S
H499 C528 0.950 . S
H500 C530 0.950 . S
H501 C531 0.950 . S
C502 H484 0.951 . S
C502 C503 1.366 . S
C502 C504 1.388 . S
C503 C502 1.366 . S
C503 C507 1.385 1_554 S
C504 H485 0.951 . S
C504 C502 1.388 . S
C504 C505 1.366 1_554 S
C505 C504 1.366 1_556 S
C505 C506 1.414 . S
C505 C508 1.499 . S
C506 H486 0.950 . S
C506 C505 1.414 . S
C506 C507 1.374 . S
C507 H487 0.950 . S
C507 C503 1.385 1_556 S
C507 C506 1.374 . S
C508 C505 1.499 . S
C508 C509 1.373 . S
C508 C510 1.389 . S
C509 H488 0.950 . S
C509 C508 1.373 . S
C509 C525 1.377 . S
C510 C508 1.389 . S
C510 C511 1.524 . S
C510 C524 1.377 . S
C511 C510 1.524 . S
C511 C512 1.397 . S
C511 C516 1.363 . S
C512 H489 0.950 . S
C512 C511 1.397 . S
C512 C513 1.334 . S
C513 H490 0.950 . S
C513 C512 1.334 . S
C513 C514 1.287 . S
C514 C513 1.287 . S
C514 C515 1.524 . S
C514 H533 0.913 . S
C515 H491 0.950 1_556 S
C515 C514 1.524 . S
C515 C516 1.415 . S
C516 H492 0.950 . S
C516 C511 1.363 . S
C516 C515 1.415 . S
C517 H493 0.951 . S
C517 C518 1.366 . S
C517 C519 1.388 . S
C518 C517 1.366 . S
C518 C522 1.385 . S
C519 H494 0.951 . S
C519 C517 1.388 . S
C519 C520 1.366 . S
C520 C519 1.366 . S
C520 C521 1.414 . S
C520 C523 1.499 . S
C521 H495 0.950 . S
C521 C520 1.414 . S
C521 C522 1.374 . S
C522 H496 0.950 . S
C522 C518 1.385 . S
C522 C521 1.374 . S
C523 C520 1.499 . S
C523 C524 1.373 . S
C523 C525 1.389 . S
C524 H497 0.950 . S
C524 C510 1.377 . S
C524 C523 1.373 . S
C525 C509 1.377 . S
C525 C523 1.389 . S
C525 C526 1.524 . S
C526 C525 1.524 . S
C526 C527 1.397 . S
C526 C531 1.363 . S
C527 H498 0.950 . S
C527 C526 1.397 . S
C527 C528 1.334 . S
C528 H499 0.950 . S
C528 C527 1.334 . S
C528 C529 1.287 . S
C529 C528 1.287 . S
C529 C530 1.524 . S
C529 H532 0.999 . S
C530 H500 0.950 . S
C530 C529 1.524 . S
C530 C531 1.415 . S
C531 H501 0.950 . S
C531 C526 1.363 . S
C531 C530 1.415 . S
H532 C529 0.999 . S
H533 C514 0.913 . S
H534 C552 0.951 . S
H535 C554 0.951 . S
H536 C556 0.950 . S
H537 C557 0.950 . S
H538 C559 0.950 . S
H539 C562 0.950 1_554 S
H540 C563 0.950 . S
H541 C565 0.950 . S
H542 C566 0.950 . S
H543 C567 0.951 . S
H544 C569 0.951 . S
H545 C571 0.950 . S
H546 C572 0.950 . S
H547 C574 0.950 . S
H548 C577 0.950 . S
H549 C578 0.950 . S
H550 C580 0.950 . S
H551 C581 0.950 . S
C552 H534 0.951 . S
C552 C553 1.370 . S
C552 C554 1.388 . S
C553 C552 1.370 . S
C553 C557 1.386 1_656 S
C554 H535 0.951 . S
C554 C552 1.388 . S
C554 C555 1.382 . S
C555 C554 1.382 . S
C555 C556 1.399 1_655 S
C555 C558 1.497 1_655 S
C556 H536 0.950 . S
C556 C555 1.399 1_455 S
C556 C557 1.374 1_556 S
C557 H537 0.950 . S
C557 C553 1.386 1_454 S
C557 C556 1.374 1_554 S
C558 C555 1.497 1_455 S
C558 C559 1.377 . S
C558 C560 1.386 1_455 S
C559 H538 0.950 . S
C559 C558 1.377 . S
C559 C575 1.377 . S
C560 C558 1.386 1_655 S
C560 C561 1.524 . S
C560 C574 1.377 . S
C561 C560 1.524 . S
C561 C562 1.397 . S
C561 C566 1.363 . S
C562 H539 0.950 1_556 S
C562 C561 1.397 . S
C562 C563 1.334 1_556 S
C563 H540 0.950 . S
C563 C562 1.334 1_554 S
C563 C564 1.287 1_554 S
C564 C563 1.287 1_556 S
C564 C565 1.524 . S
C564 H583 0.913 1_556 S
C565 H541 0.950 . S
C565 C564 1.524 . S
C565 C566 1.415 . S
C566 H542 0.950 . S
C566 C561 1.363 . S
C566 C565 1.415 . S
C567 H543 0.951 . S
C567 C568 1.400 . S
C567 C569 1.388 . S
C568 C567 1.400 . S
C568 C572 1.348 1_455 S
C569 H544 0.951 . S
C569 C567 1.388 . S
C569 C570 1.366 . S
C570 C569 1.366 . S
C570 C571 1.414 1_455 S
C570 C573 1.502 . S
C571 H545 0.950 . S
C571 C570 1.414 1_655 S
C571 C572 1.374 . S
C572 H546 0.950 . S
C572 C568 1.348 1_655 S
C572 C571 1.374 . S
C573 C570 1.502 . S
C573 C574 1.342 1_455 S
C573 C575 1.418 . S
C574 H547 0.950 . S
C574 C560 1.377 . S
C574 C573 1.342 1_655 S
C575 C559 1.377 . S
C575 C573 1.418 . S
C575 C576 1.524 . S
C576 C575 1.524 . S
C576 C577 1.397 . S
C576 C581 1.363 . S
C577 H548 0.950 . S
C577 C576 1.397 . S
C577 C578 1.334 . S
C578 H549 0.950 . S
C578 C577 1.334 . S
C578 C579 1.287 . S
C579 C578 1.287 . S
C579 C580 1.524 . S
C579 H582 0.999 . S
C580 H550 0.950 . S
C580 C579 1.524 . S
C580 C581 1.415 . S
C581 H551 0.950 . S
C581 C576 1.363 . S
C581 C580 1.415 . S
H582 C579 0.999 . S
H583 C564 0.913 1_554 S
H584 C602 0.951 . S
H585 C604 0.951 . S
H586 C606 0.950 . S
H587 C607 0.950 . S
H588 C609 0.950 . S
H589 C612 0.950 1_455 S
H590 C613 0.950 . S
H591 C615 0.950 . S
H592 C616 0.950 . S
H593 C617 0.951 . S
H594 C619 0.951 . S
H595 C621 0.950 . S
H596 C622 0.950 . S
H597 C624 0.950 . S
H598 C627 0.950 1_655 S
H599 C628 0.950 . S
H600 C630 0.950 . S
H601 C631 0.950 . S
C602 H584 0.951 . S
C602 C603 1.360 1_655 S
C602 C604 1.388 . S
C603 C602 1.360 1_455 S
C603 C607 1.390 . S
C604 H585 0.951 . S
C604 C602 1.388 . S
C604 C605 1.366 . S
C605 C604 1.366 . S
C605 C606 1.414 1_655 S
C605 C608 1.499 . S
C606 H586 0.950 . S
C606 C605 1.414 1_455 S
C606 C607 1.374 . S
C607 H587 0.950 . S
C607 C603 1.390 . S
C607 C606 1.374 . S
C608 C605 1.499 . S
C608 C609 1.373 1_655 S
C608 C610 1.389 . S
C609 H588 0.950 . S
C609 C608 1.373 1_455 S
C609 C625 1.377 . S
C610 C608 1.389 . S
C610 C611 1.524 . S
C610 C624 1.377 . S
C611 C610 1.524 . S
C611 C612 1.397 . S
C611 C616 1.363 . S
C612 H589 0.950 1_655 S
C612 C611 1.397 . S
C612 C613 1.334 . S
C613 H590 0.950 . S
C613 C612 1.334 . S
C613 C614 1.287 . S
C614 C613 1.287 . S
C614 C615 1.524 . S
C614 H633 0.913 . S
C615 H591 0.950 . S
C615 C614 1.524 . S
C615 C616 1.415 . S
C616 H592 0.950 . S
C616 C611 1.363 . S
C616 C615 1.415 . S
C617 H593 0.951 . S
C617 C618 1.366 1_455 S
C617 C619 1.388 . S
C618 C617 1.366 1_655 S
C618 C622 1.385 . S
C619 H594 0.951 . S
C619 C617 1.388 . S
C619 C620 1.366 1_455 S
C620 C619 1.366 1_655 S
C620 C621 1.414 . S
C620 C623 1.499 . S
C621 H595 0.950 . S
C621 C620 1.414 . S
C621 C622 1.374 . S
C622 H596 0.950 . S
C622 C618 1.385 . S
C622 C621 1.374 . S
C623 C620 1.499 . S
C623 C624 1.373 . S
C623 C625 1.389 1_655 S
C624 H597 0.950 . S
C624 C610 1.377 . S
C624 C623 1.373 . S
C625 C609 1.377 . S
C625 C623 1.389 1_455 S
C625 C626 1.524 . S
C626 C625 1.524 . S
C626 C627 1.397 . S
C626 C631 1.363 . S
C627 H598 0.950 1_455 S
C627 C626 1.397 . S
C627 C628 1.334 . S
C628 H599 0.950 . S
C628 C627 1.334 . S
C628 C629 1.287 . S
C629 C628 1.287 . S
C629 C630 1.524 . S
C629 H632 0.999 . S
C630 H600 0.950 . S
C630 C629 1.524 . S
C630 C631 1.415 . S
C631 H601 0.950 . S
C631 C626 1.363 . S
C631 C630 1.415 . S
H632 C629 0.999 . S
H633 C614 0.913 . S
H634 C652 0.951 . S
H635 C654 0.951 . S
H636 C656 0.950 . S
H637 C657 0.950 . S
H638 C659 0.950 . S
H639 C662 0.950 . S
H640 C663 0.950 . S
H641 C665 0.950 1_556 S
H642 C666 0.950 1_545 S
H643 C667 0.951 . S
H644 C669 0.951 . S
H645 C671 0.950 . S
H646 C672 0.950 . S
H647 C674 0.924 1_565 S
H648 C677 0.950 . S
H649 C678 0.950 . S
H650 C680 0.950 . S
H651 C681 0.950 . S
C652 H634 0.951 . S
C652 C653 1.366 . S
C652 C654 1.388 . S
C653 C652 1.366 . S
C653 C657 1.385 . S
C654 H635 0.951 . S
C654 C652 1.388 . S
C654 C655 1.366 . S
C655 C654 1.366 . S
C655 C656 1.414 . S
C655 C658 1.499 . S
C656 H636 0.950 . S
C656 C655 1.414 . S
C656 C657 1.374 . S
C657 H637 0.950 . S
C657 C653 1.385 . S
C657 C656 1.374 . S
C658 C655 1.499 . S
C658 C659 1.373 . S
C658 C660 1.389 . S
C659 H638 0.950 . S
C659 C658 1.373 . S
C659 C675 1.377 . S
C660 C658 1.389 . S
C660 C661 1.508 1_545 S
C660 C674 1.377 . S
C661 C660 1.508 1_565 S
C661 C662 1.410 . S
C661 C666 1.369 . S
C662 H639 0.950 . S
C662 C661 1.410 . S
C662 C663 1.334 . S
C663 H640 0.950 . S
C663 C662 1.334 . S
C663 C664 1.287 . S
C664 C663 1.287 . S
C664 C665 1.524 . S
C664 H683 0.913 . S
C665 H641 0.950 1_554 S
C665 C664 1.524 . S
C665 C666 1.415 . S
C666 H642 0.950 1_565 S
C666 C661 1.369 . S
C666 C665 1.415 . S
C667 H643 0.951 . S
C667 C668 1.366 . S
C667 C669 1.388 . S
C668 C667 1.366 . S
C668 C672 1.385 . S
C669 H644 0.951 . S
C669 C667 1.388 . S
C669 C670 1.366 . S
C670 C669 1.366 . S
C670 C671 1.414 . S
C670 C673 1.499 . S
C671 H645 0.950 . S
C671 C670 1.414 . S
C671 C672 1.374 . S
C672 H646 0.950 . S
C672 C668 1.385 . S
C672 C671 1.374 . S
C673 C670 1.499 . S
C673 C674 1.373 . S
C673 C675 1.389 . S
C674 H647 0.924 1_545 S
C674 C660 1.377 . S
C674 C673 1.373 . S
C675 C659 1.377 . S
C675 C673 1.389 . S
C675 C676 1.524 . S
C676 C675 1.524 . S
C676 C677 1.397 . S
C676 C681 1.363 . S
C677 H648 0.950 . S
C677 C676 1.397 . S
C677 C678 1.334 . S
C678 H649 0.950 . S
C678 C677 1.334 . S
C678 C679 1.287 . S
C679 C678 1.287 . S
C679 C680 1.524 . S
C679 H682 0.999 . S
C680 H650 0.950 . S
C680 C679 1.524 . S
C680 C681 1.415 . S
C681 H651 0.950 . S
C681 C676 1.363 . S
C681 C680 1.415 . S
H682 C679 0.999 . S
H683 C664 0.913 . S
H684 C702 0.951 . S
H685 C704 0.951 . S
H686 C706 0.950 . S
H687 C707 0.950 . S
H688 C709 0.950 . S
H689 C712 0.950 . S
H690 C713 0.950 . S
H691 C715 0.950 . S
H692 C716 0.950 . S
H693 C717 0.951 . S
H694 C719 0.951 . S
H695 C721 0.950 . S
H696 C722 0.950 . S
H697 C724 0.950 . S
H698 C727 0.950 . S
H699 C728 0.950 . S
H700 C730 0.950 . S
H701 C731 0.950 . S
C702 H684 0.951 . S
C702 C703 1.366 . S
C702 C704 1.388 . S
C703 C702 1.366 . S
C703 C707 1.385 . S
C704 H685 0.951 . S
C704 C702 1.388 . S
C704 C705 1.366 . S
C705 C704 1.366 . S
C705 C706 1.414 . S
C705 C708 1.499 . S
C706 H686 0.950 . S
C706 C705 1.414 . S
C706 C707 1.374 . S
C707 H687 0.950 . S
C707 C703 1.385 . S
C707 C706 1.374 . S
C708 C705 1.499 . S
C708 C709 1.373 . S
C708 C710 1.389 . S
C709 H688 0.950 . S
C709 C708 1.373 . S
C709 C725 1.377 . S
C710 C708 1.389 . S
C710 C711 1.524 . S
C710 C724 1.377 . S
C711 C710 1.524 . S
C711 C712 1.397 . S
C711 C716 1.363 . S
C712 H689 0.950 . S
C712 C711 1.397 . S
C712 C713 1.334 . S
C713 H690 0.950 . S
C713 C712 1.334 . S
C713 C714 1.287 . S
C714 C713 1.287 . S
C714 C715 1.524 . S
C714 H733 0.913 . S
C715 H691 0.950 . S
C715 C714 1.524 . S
C715 C716 1.415 . S
C716 H692 0.950 . S
C716 C711 1.363 . S
C716 C715 1.415 . S
C717 H693 0.951 . S
C717 C718 1.366 . S
C717 C719 1.388 . S
C718 C717 1.366 . S
C718 C722 1.385 . S
C719 H694 0.951 . S
C719 C717 1.388 . S
C719 C720 1.366 . S
C720 C719 1.366 . S
C720 C721 1.414 . S
C720 C723 1.499 . S
C721 H695 0.950 . S
C721 C720 1.414 . S
C721 C722 1.374 . S
C722 H696 0.950 . S
C722 C718 1.385 . S
C722 C721 1.374 . S
C723 C720 1.499 . S
C723 C724 1.373 . S
C723 C725 1.389 . S
C724 H697 0.950 . S
C724 C710 1.377 . S
C724 C723 1.373 . S
C725 C709 1.377 . S
C725 C723 1.389 . S
C725 C726 1.524 . S
C726 C725 1.524 . S
C726 C727 1.397 . S
C726 C731 1.363 . S
C727 H698 0.950 . S
C727 C726 1.397 . S
C727 C728 1.334 . S
C728 H699 0.950 . S
C728 C727 1.334 . S
C728 C729 1.287 . S
C729 C728 1.287 . S
C729 C730 1.524 . S
C729 H732 0.999 . S
C730 H700 0.950 . S
C730 C729 1.524 . S
C730 C731 1.415 . S
C731 H701 0.950 . S
C731 C726 1.363 . S
C731 C730 1.415 . S
H732 C729 0.999 . S
H733 C714 0.913 . S
H734 C752 0.951 . S
H735 C754 0.951 . S
H736 C756 0.950 . S
H737 C757 0.950 . S
H738 C759 0.950 . S
H739 C762 0.950 . S
H740 C763 0.950 . S
H741 C765 0.950 . S
H742 C766 0.950 . S
H743 C767 0.951 . S
H744 C769 0.951 . S
H745 C771 0.950 . S
H746 C772 0.950 . S
H747 C774 0.950 . S
H748 C777 0.950 . S
H749 C778 0.950 . S
H750 C780 0.950 . S
H751 C781 0.950 . S
C752 H734 0.951 . S
C752 C753 1.366 . S
C752 C754 1.388 . S
C753 C752 1.366 . S
C753 C757 1.385 . S
C754 H735 0.951 . S
C754 C752 1.388 . S
C754 C755 1.366 . S
C755 C754 1.366 . S
C755 C756 1.414 . S
C755 C758 1.499 . S
C756 H736 0.950 . S
C756 C755 1.414 . S
C756 C757 1.374 . S
C757 H737 0.950 . S
C757 C753 1.385 . S
C757 C756 1.374 . S
C758 C755 1.499 . S
C758 C759 1.373 . S
C758 C760 1.389 . S
C759 H738 0.950 . S
C759 C758 1.373 . S
C759 C775 1.377 . S
C760 C758 1.389 . S
C760 C761 1.524 . S
C760 C774 1.377 . S
C761 C760 1.524 . S
C761 C762 1.397 . S
C761 C766 1.363 . S
C762 H739 0.950 . S
C762 C761 1.397 . S
C762 C763 1.334 . S
C763 H740 0.950 . S
C763 C762 1.334 . S
C763 C764 1.287 . S
C764 C763 1.287 . S
C764 C765 1.524 . S
C764 H783 0.913 . S
C765 H741 0.950 . S
C765 C764 1.524 . S
C765 C766 1.415 . S
C766 H742 0.950 . S
C766 C761 1.363 . S
C766 C765 1.415 . S
C767 H743 0.951 . S
C767 C768 1.366 . S
C767 C769 1.388 . S
C768 C767 1.366 . S
C768 C772 1.385 . S
C769 H744 0.951 . S
C769 C767 1.388 . S
C769 C770 1.366 . S
C770 C769 1.366 . S
C770 C771 1.414 . S
C770 C773 1.499 . S
C771 H745 0.950 . S
C771 C770 1.414 . S
C771 C772 1.374 . S
C772 H746 0.950 . S
C772 C768 1.385 . S
C772 C771 1.374 . S
C773 C770 1.499 . S
C773 C774 1.373 . S
C773 C775 1.389 . S
C774 H747 0.950 . S
C774 C760 1.377 . S
C774 C773 1.373 . S
C775 C759 1.377 . S
C775 C773 1.389 . S
C775 C776 1.524 . S
C776 C775 1.524 . S
C776 C777 1.397 . S
C776 C781 1.363 . S
C777 H748 0.950 . S
C777 C776 1.397 . S
C777 C778 1.334 . S
C778 H749 0.950 . S
C778 C777 1.334 . S
C778 C779 1.287 . S
C779 C778 1.287 . S
C779 C780 1.524 . S
C779 H782 0.999 . S
C780 H750 0.950 . S
C780 C779 1.524 . S
C780 C781 1.415 . S
C781 H751 0.950 . S
C781 C776 1.363 . S
C781 C780 1.415 . S
H782 C779 0.999 . S
H783 C764 0.913 . S
H784 C802 0.951 . S
H785 C804 0.951 1_554 S
H786 C806 0.950 . S
H787 C807 0.950 . S
H788 C809 0.950 . S
H789 C812 0.950 . S
H790 C813 0.950 . S
H791 C815 0.965 . S
H792 C816 0.950 . S
H793 C817 0.951 . S
H794 C819 0.951 . S
H795 C821 0.950 . S
H796 C822 0.950 . S
H797 C824 0.950 . S
H798 C827 0.950 . S
H799 C828 0.950 . S
H800 C830 0.950 . S
H801 C831 0.950 1_655 S
C802 H784 0.951 . S
C802 C803 1.363 1_454 S
C802 C804 1.388 1_554 S
C803 C802 1.363 1_656 S
C803 C807 1.388 . S
C804 H785 0.951 1_556 S
C804 C802 1.388 1_556 S
C804 C805 1.366 . S
C805 C804 1.366 . S
C805 C806 1.414 1_455 S
C805 C808 1.499 . S
C806 H786 0.950 . S
C806 C805 1.414 1_655 S
C806 C807 1.374 . S
C807 H787 0.950 . S
C807 C803 1.388 . S
C807 C806 1.374 . S
C808 C805 1.499 . S
C808 C809 1.373 . S
C808 C810 1.389 . S
C809 H788 0.950 . S
C809 C808 1.373 . S
C809 C825 1.377 . S
C810 C808 1.389 . S
C810 C811 1.524 1_456 S
C810 C824 1.377 . S
C811 C810 1.524 1_654 S
C811 C812 1.397 . S
C811 C816 1.363 1_655 S
C812 H789 0.950 . S
C812 C811 1.397 . S
C812 C813 1.334 . S
C813 H790 0.950 . S
C813 C812 1.334 . S
C813 C814 1.287 . S
C814 C813 1.287 . S
C814 C815 1.499 1_655 S
C814 H833 0.913 . S
C815 H791 0.965 . S
C815 C814 1.499 1_455 S
C815 C816 1.423 . S
C816 H792 0.950 . S
C816 C811 1.363 1_455 S
C816 C815 1.423 . S
C817 H793 0.951 . S
C817 C818 1.366 1_655 S
C817 C819 1.388 . S
C818 C817 1.366 1_455 S
C818 C822 1.385 . S
C819 H794 0.951 . S
C819 C817 1.388 . S
C819 C820 1.366 1_655 S
C820 C819 1.366 1_455 S
C820 C821 1.414 . S
C820 C823 1.499 . S
C821 H795 0.950 . S
C821 C820 1.414 . S
C821 C822 1.374 . S
C822 H796 0.950 . S
C822 C818 1.385 . S
C822 C821 1.374 . S
C823 C820 1.499 . S
C823 C824 1.373 . S
C823 C825 1.389 . S
C824 H797 0.950 . S
C824 C810 1.377 . S
C824 C823 1.373 . S
C825 C809 1.377 . S
C825 C823 1.389 . S
C825 C826 1.524 . S
C826 C825 1.524 . S
C826 C827 1.397 . S
C826 C831 1.363 . S
C827 H798 0.950 . S
C827 C826 1.397 . S
C827 C828 1.334 . S
C828 H799 0.950 . S
C828 C827 1.334 . S
C828 C829 1.287 . S
C829 C828 1.287 . S
C829 C830 1.524 . S
C829 H832 0.999 . S
C830 H800 0.950 . S
C830 C829 1.524 . S
C830 C831 1.415 . S
C831 H801 0.950 1_455 S
C831 C826 1.363 . S
C831 C830 1.415 . S
H832 C829 0.999 . S
H833 C814 0.913 . S
H834 C852 0.951 . S
H835 C854 0.951 1_554 S
H836 C856 0.950 . S
H837 C857 0.950 . S
H838 C859 0.950 . S
H839 C862 0.950 . S
H840 C863 0.950 . S
H841 C865 0.950 1_554 S
H842 C866 0.950 . S
H843 C867 0.951 . S
H844 C869 0.946 1_545 S
H845 C871 0.950 . S
H846 C872 0.950 . S
H847 C874 0.950 . S
H848 C877 0.950 . S
H849 C878 0.950 . S
H850 C880 0.950 . S
H851 C881 0.950 . S
C852 H834 0.951 . S
C852 C853 1.366 1_554 S
C852 C854 1.388 1_554 S
C853 C852 1.366 1_556 S
C853 C857 1.385 . S
C854 H835 0.951 1_556 S
C854 C852 1.388 1_556 S
C854 C855 1.366 . S
C855 C854 1.366 . S
C855 C856 1.414 . S
C855 C858 1.499 . S
C856 H836 0.950 . S
C856 C855 1.414 . S
C856 C857 1.374 . S
C857 H837 0.950 . S
C857 C853 1.385 . S
C857 C856 1.374 . S
C858 C855 1.499 . S
C858 C859 1.373 . S
C858 C860 1.389 . S
C859 H838 0.950 . S
C859 C858 1.373 . S
C859 C875 1.377 . S
C860 C858 1.389 . S
C860 C861 1.524 . S
C860 C874 1.377 . S
C861 C860 1.524 . S
C861 C862 1.397 . S
C861 C866 1.363 . S
C862 H839 0.950 . S
C862 C861 1.397 . S
C862 C863 1.334 . S
C863 H840 0.950 . S
C863 C862 1.334 . S
C863 C864 1.287 . S
C864 C863 1.287 . S
C864 C865 1.524 . S
C864 H883 0.913 . S
C865 H841 0.950 1_556 S
C865 C864 1.524 . S
C865 C866 1.415 . S
C866 H842 0.950 . S
C866 C861 1.363 . S
C866 C865 1.415 . S
C867 H843 0.951 . S
C867 C868 1.366 1_545 S
C867 C869 1.388 1_545 S
C868 C867 1.366 1_565 S
C868 C872 1.385 . S
C869 H844 0.946 1_565 S
C869 C867 1.388 1_565 S
C869 C870 1.366 . S
C870 C869 1.366 . S
C870 C871 1.414 . S
C870 C873 1.499 . S
C871 H845 0.950 . S
C871 C870 1.414 . S
C871 C872 1.374 . S
C872 H846 0.950 . S
C872 C868 1.385 . S
C872 C871 1.374 . S
C873 C870 1.499 . S
C873 C874 1.373 . S
C873 C875 1.389 . S
C874 H847 0.950 . S
C874 C860 1.377 . S
C874 C873 1.373 . S
C875 C859 1.377 . S
C875 C873 1.389 . S
C875 C876 1.524 1_565 S
C876 C875 1.524 1_545 S
C876 C877 1.397 . S
C876 C881 1.363 . S
C877 H848 0.950 . S
C877 C876 1.397 . S
C877 C878 1.334 . S
C878 H849 0.950 . S
C878 C877 1.334 . S
C878 C879 1.287 . S
C879 C878 1.287 . S
C879 C880 1.524 . S
C879 H882 0.999 . S
C880 H850 0.950 . S
C880 C879 1.524 . S
C880 C881 1.415 . S
C881 H851 0.950 . S
C881 C876 1.363 . S
C881 C880 1.415 . S
H882 C879 0.999 . S
H883 C864 0.913 . S
H884 C902 0.951 . S
H885 C904 0.951 . S
H886 C906 0.950 . S
H887 C907 0.950 1_556 S
H888 C909 0.950 . S
H889 C912 0.950 . S
H890 C913 0.950 . S
H891 C915 0.950 . S
H892 C916 0.950 . S
H893 C917 0.951 . S
H894 C919 0.951 . S
H895 C921 0.950 . S
H896 C922 0.950 . S
H897 C924 0.950 . S
H898 C927 0.950 . S
H899 C928 0.950 . S
H900 C930 0.950 . S
H901 C931 0.950 . S
C902 H884 0.951 . S
C902 C903 1.366 . S
C902 C904 1.388 . S
C903 C902 1.366 . S
C903 C907 1.385 . S
C904 H885 0.951 . S
C904 C902 1.388 . S
C904 C905 1.366 1_554 S
C905 C904 1.366 1_556 S
C905 C906 1.414 . S
C905 C908 1.499 . S
C906 H886 0.950 . S
C906 C905 1.414 . S
C906 C907 1.374 1_556 S
C907 H887 0.950 1_554 S
C907 C903 1.385 . S
C907 C906 1.374 1_554 S
C908 C905 1.499 . S
C908 C909 1.373 . S
C908 C910 1.389 . S
C909 H888 0.950 . S
C909 C908 1.373 . S
C909 C925 1.377 . S
C910 C908 1.389 . S
C910 C911 1.524 . S
C910 C924 1.377 . S
C911 C910 1.524 . S
C911 C912 1.397 . S
C911 C916 1.363 . S
C912 H889 0.950 . S
C912 C911 1.397 . S
C912 C913 1.334 . S
C913 H890 0.950 . S
C913 C912 1.334 . S
C913 C914 1.287 . S
C914 C913 1.287 . S
C914 C915 1.524 . S
C914 H933 0.913 . S
C915 H891 0.950 . S
C915 C914 1.524 . S
C915 C916 1.415 . S
C916 H892 0.950 . S
C916 C911 1.363 . S
C916 C915 1.415 . S
C917 H893 0.951 . S
C917 C918 1.366 . S
C917 C919 1.388 . S
C918 C917 1.366 . S
C918 C922 1.385 . S
C919 H894 0.951 . S
C919 C917 1.388 . S
C919 C920 1.366 . S
C920 C919 1.366 . S
C920 C921 1.414 . S
C920 C923 1.499 . S
C921 H895 0.950 . S
C921 C920 1.414 . S
C921 C922 1.374 . S
C922 H896 0.950 . S
C922 C918 1.385 . S
C922 C921 1.374 . S
C923 C920 1.499 . S
C923 C924 1.373 . S
C923 C925 1.389 . S
C924 H897 0.950 . S
C924 C910 1.377 . S
C924 C923 1.373 . S
C925 C909 1.377 . S
C925 C923 1.389 . S
C925 C926 1.524 . S
C926 C925 1.524 . S
C926 C927 1.397 . S
C926 C931 1.363 . S
C927 H898 0.950 . S
C927 C926 1.397 . S
C927 C928 1.334 . S
C928 H899 0.950 . S
C928 C927 1.334 . S
C928 C929 1.287 . S
C929 C928 1.287 . S
C929 C930 1.524 . S
C929 H932 0.999 . S
C930 H900 0.950 . S
C930 C929 1.524 . S
C930 C931 1.415 . S
C931 H901 0.950 . S
C931 C926 1.363 . S
C931 C930 1.415 . S
H932 C929 0.999 . S
H933 C914 0.913 . S
H934 C952 0.951 . S
H935 C954 0.951 . S
H936 C956 0.950 . S
H937 C957 0.950 . S
H938 C959 0.950 . S
H939 C962 0.950 . S
H940 C963 0.950 . S
H941 C965 0.950 . S
H942 C966 0.950 . S
H943 C967 0.951 . S
H944 C969 0.951 . S
H945 C971 0.950 . S
H946 C972 0.950 . S
H947 C974 0.950 . S
H948 C977 0.950 . S
H949 C978 0.950 . S
H950 C980 0.950 . S
H951 C981 0.950 . S
C952 H934 0.951 . S
C952 C953 1.366 1_556 S
C952 C954 1.388 . S
C953 C952 1.366 1_554 S
C953 C957 1.385 . S
C954 H935 0.951 . S
C954 C952 1.388 . S
C954 C955 1.366 . S
C955 C954 1.366 . S
C955 C956 1.414 . S
C955 C958 1.499 . S
C956 H936 0.950 . S
C956 C955 1.414 . S
C956 C957 1.374 1_556 S
C957 H937 0.950 . S
C957 C953 1.385 . S
C957 C956 1.374 1_554 S
C958 C955 1.499 . S
C958 C959 1.373 . S
C958 C960 1.389 . S
C959 H938 0.950 . S
C959 C958 1.373 . S
C959 C975 1.377 . S
C960 C958 1.389 . S
C960 C961 1.524 . S
C960 C974 1.377 . S
C961 C960 1.524 . S
C961 C962 1.397 1_556 S
C961 C966 1.363 . S
C962 H939 0.950 . S
C962 C961 1.397 1_554 S
C962 C963 1.334 . S
C963 H940 0.950 . S
C963 C962 1.334 . S
C963 C964 1.287 . S
C964 C963 1.287 . S
C964 C965 1.524 . S
C964 H983 0.913 . S
C965 H941 0.950 . S
C965 C964 1.524 . S
C965 C966 1.415 1_554 S
C966 H942 0.950 . S
C966 C961 1.363 . S
C966 C965 1.415 1_556 S
C967 H943 0.951 . S
C967 C968 1.366 . S
C967 C969 1.388 . S
C968 C967 1.366 . S
C968 C972 1.385 . S
C969 H944 0.951 . S
C969 C967 1.388 . S
C969 C970 1.366 . S
C970 C969 1.366 . S
C970 C971 1.414 . S
C970 C973 1.499 . S
C971 H945 0.950 . S
C971 C970 1.414 . S
C971 C972 1.374 . S
C972 H946 0.950 . S
C972 C968 1.385 . S
C972 C971 1.374 . S
C973 C970 1.499 . S
C973 C974 1.373 . S
C973 C975 1.389 . S
C974 H947 0.950 . S
C974 C960 1.377 . S
C974 C973 1.373 . S
C975 C959 1.377 . S
C975 C973 1.389 . S
C975 C976 1.524 . S
C976 C975 1.524 . S
C976 C977 1.397 . S
C976 C981 1.363 . S
C977 H948 0.950 . S
C977 C976 1.397 . S
C977 C978 1.334 . S
C978 H949 0.950 . S
C978 C977 1.334 . S
C978 C979 1.287 . S
C979 C978 1.287 . S
C979 C980 1.524 . S
C979 H982 0.999 . S
C980 H950 0.950 . S
C980 C979 1.524 . S
C980 C981 1.415 . S
C981 H951 0.950 . S
C981 C976 1.363 . S
C981 C980 1.415 . S
H982 C979 0.999 . S
H983 C964 0.913 . S
H984 C1002 0.951 . S
H985 C1004 0.951 . S
H986 C1006 0.950 . S
H987 C1007 0.950 . S
H988 C1009 0.950 . S
H989 C1012 0.950 . S
H990 C1013 0.950 . S
H991 C1015 0.950 . S
H992 C1016 0.950 . S
H993 C1017 0.951 . S
H994 C1019 0.951 . S
H995 C1021 0.964 . S
H996 C1022 0.950 . S
H997 C1024 0.950 . S
H998 C1027 0.950 . S
H999 C1028 0.950 . S
H1000 C1030 0.950 1_554 S
H1001 C1031 0.950 . S
C1002 H984 0.951 . S
C1002 C1003 1.362 1_656 S
C1002 C1004 1.388 . S
C1003 C1002 1.362 1_454 S
C1003 C1007 1.391 . S
C1004 H985 0.951 . S
C1004 C1002 1.388 . S
C1004 C1005 1.356 1_655 S
C1005 C1004 1.356 1_455 S
C1005 C1006 1.423 1_556 S
C1005 C1008 1.504 . S
C1006 H986 0.950 . S
C1006 C1005 1.423 1_554 S
C1006 C1007 1.374 . S
C1007 H987 0.950 . S
C1007 C1003 1.391 . S
C1007 C1006 1.374 . S
C1008 C1005 1.504 . S
C1008 C1009 1.373 . S
C1008 C1010 1.389 1_455 S
C1009 H988 0.950 . S
C1009 C1008 1.373 . S
C1009 C1025 1.377 . S
C1010 C1008 1.389 1_655 S
C1010 C1011 1.524 . S
C1010 C1024 1.377 . S
C1011 C1010 1.524 . S
C1011 C1012 1.397 . S
C1011 C1016 1.363 . S
C1012 H989 0.950 . S
C1012 C1011 1.397 . S
C1012 C1013 1.334 . S
C1013 H990 0.950 . S
C1013 C1012 1.334 . S
C1013 C1014 1.287 . S
C1014 C1013 1.287 . S
C1014 C1015 1.524 . S
C1014 H1033 0.913 . S
C1015 H991 0.950 . S
C1015 C1014 1.524 . S
C1015 C1016 1.415 . S
C1016 H992 0.950 . S
C1016 C1011 1.363 . S
C1016 C1015 1.415 . S
C1017 H993 0.951 . S
C1017 C1018 1.366 . S
C1017 C1019 1.388 . S
C1018 C1017 1.366 . S
C1018 C1022 1.385 . S
C1019 H994 0.951 . S
C1019 C1017 1.388 . S
C1019 C1020 1.366 . S
C1020 C1019 1.366 . S
C1020 C1021 1.414 . S
C1020 C1023 1.499 . S
C1021 H995 0.964 . S
C1021 C1020 1.414 . S
C1021 C1022 1.374 . S
C1022 H996 0.950 . S
C1022 C1018 1.385 . S
C1022 C1021 1.374 . S
C1023 C1020 1.499 . S
C1023 C1024 1.373 1_455 S
C1023 C1025 1.389 . S
C1024 H997 0.950 . S
C1024 C1010 1.377 . S
C1024 C1023 1.373 1_655 S
C1025 C1009 1.377 . S
C1025 C1023 1.389 . S
C1025 C1026 1.524 . S
C1026 C1025 1.524 . S
C1026 C1027 1.397 . S
C1026 C1031 1.363 . S
C1027 H998 0.950 . S
C1027 C1026 1.397 . S
C1027 C1028 1.334 . S
C1028 H999 0.950 . S
C1028 C1027 1.334 . S
C1028 C1029 1.287 . S
C1029 C1028 1.287 . S
C1029 C1030 1.524 . S
C1029 H1032 0.999 . S
C1030 H1000 0.950 1_556 S
C1030 C1029 1.524 . S
C1030 C1031 1.415 . S
C1031 H1001 0.950 . S
C1031 C1026 1.363 . S
C1031 C1030 1.415 . S
H1032 C1029 0.999 . S
H1033 C1014 0.913 . S
H1034 C1052 0.951 . S
H1035 C1054 0.951 . S
H1036 C1056 0.950 . S
H1037 C1057 0.950 . S
H1038 C1059 0.950 . S
H1039 C1062 0.950 . S
H1040 C1063 0.950 . S
H1041 C1065 0.950 . S
H1042 C1066 0.950 . S
H1043 C1067 0.951 . S
H1044 C1069 0.951 . S
H1045 C1071 0.950 . S
H1046 C1072 0.950 . S
H1047 C1074 0.950 . S
H1048 C1077 0.950 . S
H1049 C1078 0.950 . S
H1050 C1080 0.950 . S
H1051 C1081 0.950 . S
C1052 H1034 0.951 . S
C1052 C1053 1.366 . S
C1052 C1054 1.388 . S
C1053 C1052 1.366 . S
C1053 C1057 1.385 1_554 S
C1054 H1035 0.951 . S
C1054 C1052 1.388 . S
C1054 C1055 1.366 1_554 S
C1055 C1054 1.366 1_556 S
C1055 C1056 1.414 . S
C1055 C1058 1.499 . S
C1056 H1036 0.950 . S
C1056 C1055 1.414 . S
C1056 C1057 1.374 . S
C1057 H1037 0.950 . S
C1057 C1053 1.385 1_556 S
C1057 C1056 1.374 . S
C1058 C1055 1.499 . S
C1058 C1059 1.373 . S
C1058 C1060 1.389 . S
C1059 H1038 0.950 . S
C1059 C1058 1.373 . S
C1059 C1075 1.377 . S
C1060 C1058 1.389 . S
C1060 C1061 1.524 . S
C1060 C1074 1.377 . S
C1061 C1060 1.524 . S
C1061 C1062 1.397 . S
C1061 C1066 1.363 1_556 S
C1062 H1039 0.950 . S
C1062 C1061 1.397 . S
C1062 C1063 1.334 . S
C1063 H1040 0.950 . S
C1063 C1062 1.334 . S
C1063 C1064 1.283 1_556 S
C1064 C1063 1.283 1_554 S
C1064 C1065 1.527 . S
C1064 H1083 0.915 . S
C1065 H1041 0.950 . S
C1065 C1064 1.527 . S
C1065 C1066 1.415 . S
C1066 H1042 0.950 . S
C1066 C1061 1.363 1_554 S
C1066 C1065 1.415 . S
C1067 H1043 0.951 . S
C1067 C1068 1.366 . S
C1067 C1069 1.388 . S
C1068 C1067 1.366 . S
C1068 C1072 1.385 . S
C1069 H1044 0.951 . S
C1069 C1067 1.388 . S
C1069 C1070 1.366 . S
C1070 C1069 1.366 . S
C1070 C1071 1.414 . S
C1070 C1073 1.499 . S
C1071 H1045 0.950 . S
C1071 C1070 1.414 . S
C1071 C1072 1.374 . S
C1072 H1046 0.950 . S
C1072 C1068 1.385 . S
C1072 C1071 1.374 . S
C1073 C1070 1.499 . S
C1073 C1074 1.373 . S
C1073 C1075 1.389 . S
C1074 H1047 0.950 . S
C1074 C1060 1.377 . S
C1074 C1073 1.373 . S
C1075 C1059 1.377 . S
C1075 C1073 1.389 . S
C1075 C1076 1.524 1_545 S
C1076 C1075 1.524 1_565 S
C1076 C1077 1.397 . S
C1076 C1081 1.363 . S
C1077 H1048 0.950 . S
C1077 C1076 1.397 . S
C1077 C1078 1.334 . S
C1078 H1049 0.950 . S
C1078 C1077 1.334 . S
C1078 C1079 1.287 . S
C1079 C1078 1.287 . S
C1079 C1080 1.524 . S
C1079 H1082 0.999 . S
C1080 H1050 0.950 . S
C1080 C1079 1.524 . S
C1080 C1081 1.415 . S
C1081 H1051 0.950 . S
C1081 C1076 1.363 . S
C1081 C1080 1.415 . S
H1082 C1079 0.999 . S
H1083 C1064 0.915 . S
H1084 C1102 0.951 . S
H1085 C1104 0.951 . S
H1086 C1106 0.950 . S
H1087 C1107 0.950 . S
H1088 C1109 0.950 . S
H1089 C1112 0.950 . S
H1090 C1113 0.950 . S
H1091 C1115 0.950 . S
H1092 C1116 0.950 . S
H1093 C1117 0.951 . S
H1094 C1119 0.951 . S
H1095 C1121 0.950 . S
H1096 C1122 0.950 . S
H1097 C1124 0.950 . S
H1098 C1127 0.950 . S
H1099 C1128 0.950 . S
H1100 C1130 0.950 . S
H1101 C1131 0.950 . S
C1102 H1084 0.951 . S
C1102 C1103 1.366 . S
C1102 C1104 1.388 . S
C1103 C1102 1.366 . S
C1103 C1107 1.385 . S
C1104 H1085 0.951 . S
C1104 C1102 1.388 . S
C1104 C1105 1.366 . S
C1105 C1104 1.366 . S
C1105 C1106 1.414 . S
C1105 C1108 1.499 . S
C1106 H1086 0.950 . S
C1106 C1105 1.414 . S
C1106 C1107 1.374 . S
C1107 H1087 0.950 . S
C1107 C1103 1.385 . S
C1107 C1106 1.374 . S
C1108 C1105 1.499 . S
C1108 C1109 1.373 . S
C1108 C1110 1.389 . S
C1109 H1088 0.950 . S
C1109 C1108 1.373 . S
C1109 C1125 1.377 . S
C1110 C1108 1.389 . S
C1110 C1111 1.524 . S
C1110 C1124 1.377 . S
C1111 C1110 1.524 . S
C1111 C1112 1.397 . S
C1111 C1116 1.363 . S
C1112 H1089 0.950 . S
C1112 C1111 1.397 . S
C1112 C1113 1.334 . S
C1113 H1090 0.950 . S
C1113 C1112 1.334 . S
C1113 C1114 1.287 . S
C1114 C1113 1.287 . S
C1114 C1115 1.524 . S
C1114 H1133 0.913 . S
C1115 H1091 0.950 . S
C1115 C1114 1.524 . S
C1115 C1116 1.415 . S
C1116 H1092 0.950 . S
C1116 C1111 1.363 . S
C1116 C1115 1.415 . S
C1117 H1093 0.951 . S
C1117 C1118 1.366 . S
C1117 C1119 1.388 . S
C1118 C1117 1.366 . S
C1118 C1122 1.385 . S
C1119 H1094 0.951 . S
C1119 C1117 1.388 . S
C1119 C1120 1.366 . S
C1120 C1119 1.366 . S
C1120 C1121 1.414 . S
C1120 C1123 1.499 . S
C1121 H1095 0.950 . S
C1121 C1120 1.414 . S
C1121 C1122 1.374 . S
C1122 H1096 0.950 . S
C1122 C1118 1.385 . S
C1122 C1121 1.374 . S
C1123 C1120 1.499 . S
C1123 C1124 1.373 . S
C1123 C1125 1.389 . S
C1124 H1097 0.950 . S
C1124 C1110 1.377 . S
C1124 C1123 1.373 . S
C1125 C1109 1.377 . S
C1125 C1123 1.389 . S
C1125 C1126 1.524 . S
C1126 C1125 1.524 . S
C1126 C1127 1.397 . S
C1126 C1131 1.363 . S
C1127 H1098 0.950 . S
C1127 C1126 1.397 . S
C1127 C1128 1.334 . S
C1128 H1099 0.950 . S
C1128 C1127 1.334 . S
C1128 C1129 1.287 . S
C1129 C1128 1.287 . S
C1129 C1130 1.524 . S
C1129 H1132 0.999 . S
C1130 H1100 0.950 . S
C1130 C1129 1.524 . S
C1130 C1131 1.415 . S
C1131 H1101 0.950 . S
C1131 C1126 1.363 . S
C1131 C1130 1.415 . S
H1132 C1129 0.999 . S
H1133 C1114 0.913 . S
H1134 C1152 0.951 . S
H1135 C1154 0.951 . S
H1136 C1156 0.950 1_554 S
H1137 C1157 0.950 . S
H1138 C1159 0.950 . S
H1139 C1162 0.950 . S
H1140 C1163 0.950 . S
H1141 C1165 0.950 . S
H1142 C1166 0.950 . S
H1143 C1167 0.951 . S
H1144 C1169 0.951 . S
H1145 C1171 0.950 . S
H1146 C1172 0.950 . S
H1147 C1174 0.950 . S
H1148 C1177 0.950 . S
H1149 C1178 0.950 . S
H1150 C1180 0.950 . S
H1151 C1181 0.950 1_554 S
C1152 H1134 0.951 . S
C1152 C1153 1.366 . S
C1152 C1154 1.388 . S
C1153 C1152 1.366 . S
C1153 C1157 1.385 1_556 S
C1154 H1135 0.951 . S
C1154 C1152 1.388 . S
C1154 C1155 1.366 . S
C1155 C1154 1.366 . S
C1155 C1156 1.414 . S
C1155 C1158 1.499 . S
C1156 H1136 0.950 1_556 S
C1156 C1155 1.414 . S
C1156 C1157 1.374 1_556 S
C1157 H1137 0.950 . S
C1157 C1153 1.385 1_554 S
C1157 C1156 1.374 1_554 S
C1158 C1155 1.499 . S
C1158 C1159 1.373 . S
C1158 C1160 1.389 . S
C1159 H1138 0.950 . S
C1159 C1158 1.373 . S
C1159 C1175 1.377 . S
C1160 C1158 1.389 . S
C1160 C1161 1.524 . S
C1160 C1174 1.377 . S
C1161 C1160 1.524 . S
C1161 C1162 1.397 . S
C1161 C1166 1.363 . S
C1162 H1139 0.950 . S
C1162 C1161 1.397 . S
C1162 C1163 1.334 . S
C1163 H1140 0.950 . S
C1163 C1162 1.334 . S
C1163 C1164 1.287 . S
C1164 C1163 1.287 . S
C1164 C1165 1.524 . S
C1164 H1183 0.913 . S
C1165 H1141 0.950 . S
C1165 C1164 1.524 . S
C1165 C1166 1.415 . S
C1166 H1142 0.950 . S
C1166 C1161 1.363 . S
C1166 C1165 1.415 . S
C1167 H1143 0.951 . S
C1167 C1168 1.366 . S
C1167 C1169 1.388 . S
C1168 C1167 1.366 . S
C1168 C1172 1.385 . S
C1169 H1144 0.951 . S
C1169 C1167 1.388 . S
C1169 C1170 1.366 . S
C1170 C1169 1.366 . S
C1170 C1171 1.414 . S
C1170 C1173 1.499 . S
C1171 H1145 0.950 . S
C1171 C1170 1.414 . S
C1171 C1172 1.374 . S
C1172 H1146 0.950 . S
C1172 C1168 1.385 . S
C1172 C1171 1.374 . S
C1173 C1170 1.499 . S
C1173 C1174 1.373 . S
C1173 C1175 1.389 . S
C1174 H1147 0.950 . S
C1174 C1160 1.377 . S
C1174 C1173 1.373 . S
C1175 C1159 1.377 . S
C1175 C1173 1.389 . S
C1175 C1176 1.524 . S
C1176 C1175 1.524 . S
C1176 C1177 1.397 . S
C1176 C1181 1.363 . S
C1177 H1148 0.950 . S
C1177 C1176 1.397 . S
C1177 C1178 1.334 . S
C1178 H1149 0.950 . S
C1178 C1177 1.334 . S
C1178 C1179 1.287 1_556 S
C1179 C1178 1.287 1_554 S
C1179 C1180 1.524 . S
C1179 H1182 0.999 . S
C1180 H1150 0.950 . S
C1180 C1179 1.524 . S
C1180 C1181 1.415 1_554 S
C1181 H1151 0.950 1_556 S
C1181 C1176 1.363 . S
C1181 C1180 1.415 1_556 S
H1182 C1179 0.999 . S
H1183 C1164 0.913 . S
H1184 C1202 0.951 . S
H1185 C1204 0.951 . S
H1186 C1206 0.950 . S
H1187 C1207 0.950 . S
H1188 C1209 0.950 . S
H1189 C1212 0.999 . S
H1190 C1213 0.950 1_556 S
H1191 C1215 0.950 . S
H1192 C1216 0.950 . S
H1193 C1217 0.951 . S
H1194 C1219 0.951 . S
H1195 C1221 0.950 . S
H1196 C1222 0.950 . S
H1197 C1224 0.950 . S
H1198 C1227 0.950 1_655 S
H1199 C1228 0.950 . S
H1200 C1230 0.950 . S
H1201 C1231 0.950 . S
C1202 H1184 0.951 . S
C1202 C1203 1.390 . S
C1202 C1204 1.388 . S
C1203 C1202 1.390 . S
C1203 C1207 1.363 1_655 S
C1204 H1185 0.951 . S
C1204 C1202 1.388 . S
C1204 C1205 1.366 . S
C1205 C1204 1.366 . S
C1205 C1206 1.414 1_655 S
C1205 C1208 1.499 . S
C1206 H1186 0.950 . S
C1206 C1205 1.414 1_455 S
C1206 C1207 1.374 . S
C1207 H1187 0.950 . S
C1207 C1203 1.363 1_455 S
C1207 C1206 1.374 . S
C1208 C1205 1.499 . S
C1208 C1209 1.373 1_655 S
C1208 C1210 1.389 . S
C1209 H1188 0.950 . S
C1209 C1208 1.373 1_455 S
C1209 C1225 1.377 . S
C1210 C1208 1.389 . S
C1210 C1211 1.524 . S
C1210 C1224 1.377 . S
C1211 C1210 1.524 . S
C1211 C1212 1.397 . S
C1211 C1216 1.363 . S
C1212 H1189 0.999 . S
C1212 C1211 1.397 . S
C1212 C1213 1.334 . S
C1213 H1190 0.950 1_554 S
C1213 C1212 1.334 . S
C1213 C1214 1.287 . S
C1214 C1213 1.287 . S
C1214 C1215 1.524 . S
C1214 H1233 0.913 1_554 S
C1215 H1191 0.950 . S
C1215 C1214 1.524 . S
C1215 C1216 1.415 . S
C1216 H1192 0.950 . S
C1216 C1211 1.363 . S
C1216 C1215 1.415 . S
C1217 H1193 0.951 . S
C1217 C1218 1.366 1_455 S
C1217 C1219 1.388 . S
C1218 C1217 1.366 1_655 S
C1218 C1222 1.385 . S
C1219 H1194 0.951 . S
C1219 C1217 1.388 . S
C1219 C1220 1.366 1_455 S
C1220 C1219 1.366 1_655 S
C1220 C1221 1.414 . S
C1220 C1223 1.499 . S
C1221 H1195 0.950 . S
C1221 C1220 1.414 . S
C1221 C1222 1.374 . S
C1222 H1196 0.950 . S
C1222 C1218 1.385 . S
C1222 C1221 1.374 . S
C1223 C1220 1.499 . S
C1223 C1224 1.373 . S
C1223 C1225 1.389 1_655 S
C1224 H1197 0.950 . S
C1224 C1210 1.377 . S
C1224 C1223 1.373 . S
C1225 C1209 1.377 . S
C1225 C1223 1.389 1_455 S
C1225 C1226 1.524 . S
C1226 C1225 1.524 . S
C1226 C1227 1.397 . S
C1226 C1231 1.363 . S
C1227 H1198 0.950 1_455 S
C1227 C1226 1.397 . S
C1227 C1228 1.334 . S
C1228 H1199 0.950 . S
C1228 C1227 1.334 . S
C1228 C1229 1.287 . S
C1229 C1228 1.287 . S
C1229 C1230 1.524 . S
C1229 H1232 0.999 . S
C1230 H1200 0.950 . S
C1230 C1229 1.524 . S
C1230 C1231 1.415 . S
C1231 H1201 0.950 . S
C1231 C1226 1.363 . S
C1231 C1230 1.415 . S
H1232 C1229 0.999 . S
H1233 C1214 0.913 1_556 S
H1234 C1252 0.951 . S
H1235 C1254 0.951 . S
H1236 C1256 0.950 . S
H1237 C1257 0.950 . S
H1238 C1259 0.950 . S
H1239 C1262 0.950 . S
H1240 C1263 0.950 . S
H1241 C1265 0.950 . S
H1242 C1266 0.950 . S
H1243 C1267 0.951 . S
H1244 C1269 0.951 . S
H1245 C1271 0.950 . S
H1246 C1272 0.950 . S
H1247 C1274 0.950 . S
H1248 C1277 0.950 . S
H1249 C1278 0.950 . S
H1250 C1280 0.950 . S
H1251 C1281 0.947 1_565 S
C1252 H1234 0.951 . S
C1252 C1253 1.366 . S
C1252 C1254 1.388 . S
C1253 C1252 1.366 . S
C1253 C1257 1.385 . S
C1254 H1235 0.951 . S
C1254 C1252 1.388 . S
C1254 C1255 1.366 . S
C1255 C1254 1.366 . S
C1255 C1256 1.414 . S
C1255 C1258 1.499 . S
C1256 H1236 0.950 . S
C1256 C1255 1.414 . S
C1256 C1257 1.374 . S
C1257 H1237 0.950 . S
C1257 C1253 1.385 . S
C1257 C1256 1.374 . S
C1258 C1255 1.499 . S
C1258 C1259 1.373 . S
C1258 C1260 1.389 . S
C1259 H1238 0.950 . S
C1259 C1258 1.373 . S
C1259 C1275 1.377 . S
C1260 C1258 1.389 . S
C1260 C1261 1.524 . S
C1260 C1274 1.377 . S
C1261 C1260 1.524 . S
C1261 C1262 1.397 . S
C1261 C1266 1.363 . S
C1262 H1239 0.950 . S
C1262 C1261 1.397 . S
C1262 C1263 1.334 . S
C1263 H1240 0.950 . S
C1263 C1262 1.334 . S
C1263 C1264 1.287 . S
C1264 C1263 1.287 . S
C1264 C1265 1.524 . S
C1264 H1283 0.913 . S
C1265 H1241 0.950 . S
C1265 C1264 1.524 . S
C1265 C1266 1.415 . S
C1266 H1242 0.950 . S
C1266 C1261 1.363 . S
C1266 C1265 1.415 . S
C1267 H1243 0.951 . S
C1267 C1268 1.366 . S
C1267 C1269 1.388 . S
C1268 C1267 1.366 . S
C1268 C1272 1.385 . S
C1269 H1244 0.951 . S
C1269 C1267 1.388 . S
C1269 C1270 1.366 . S
C1270 C1269 1.366 . S
C1270 C1271 1.414 . S
C1270 C1273 1.499 . S
C1271 H1245 0.950 . S
C1271 C1270 1.414 . S
C1271 C1272 1.374 . S
C1272 H1246 0.950 . S
C1272 C1268 1.385 . S
C1272 C1271 1.374 . S
C1273 C1270 1.499 . S
C1273 C1274 1.373 . S
C1273 C1275 1.389 . S
C1274 H1247 0.950 . S
C1274 C1260 1.377 . S
C1274 C1273 1.373 . S
C1275 C1259 1.377 . S
C1275 C1273 1.389 . S
C1275 C1276 1.524 1_565 S
C1276 C1275 1.524 1_545 S
C1276 C1277 1.397 . S
C1276 C1281 1.363 . S
C1277 H1248 0.950 . S
C1277 C1276 1.397 . S
C1277 C1278 1.334 . S
C1278 H1249 0.950 . S
C1278 C1277 1.334 . S
C1278 C1279 1.287 . S
C1279 C1278 1.287 . S
C1279 C1280 1.524 . S
C1279 H1282 0.999 . S
C1280 H1250 0.950 . S
C1280 C1279 1.524 . S
C1280 C1281 1.418 . S
C1281 H1251 0.947 1_545 S
C1281 C1276 1.363 . S
C1281 C1280 1.418 . S
H1282 C1279 0.999 . S
H1283 C1264 0.913 . S
H1284 C1302 0.951 . S
H1285 C1304 0.951 . S
H1286 C1306 0.950 . S
H1287 C1307 0.950 . S
H1288 C1309 0.950 . S
H1289 C1312 0.950 . S
H1290 C1313 0.950 . S
H1291 C1315 0.950 . S
H1292 C1316 0.950 . S
H1293 C1317 0.951 . S
H1294 C1319 0.951 . S
H1295 C1321 0.950 . S
H1296 C1322 0.950 . S
H1297 C1324 0.950 . S
H1298 C1327 0.950 . S
H1299 C1328 0.950 . S
H1300 C1330 0.950 . S
H1301 C1331 0.950 . S
C1302 H1284 0.951 . S
C1302 C1303 1.366 . S
C1302 C1304 1.388 . S
C1303 C1302 1.366 . S
C1303 C1307 1.385 . S
C1304 H1285 0.951 . S
C1304 C1302 1.388 . S
C1304 C1305 1.366 . S
C1305 C1304 1.366 . S
C1305 C1306 1.414 . S
C1305 C1308 1.499 . S
C1306 H1286 0.950 . S
C1306 C1305 1.414 . S
C1306 C1307 1.374 . S
C1307 H1287 0.950 . S
C1307 C1303 1.385 . S
C1307 C1306 1.374 . S
C1308 C1305 1.499 . S
C1308 C1309 1.373 . S
C1308 C1310 1.389 . S
C1309 H1288 0.950 . S
C1309 C1308 1.373 . S
C1309 C1325 1.377 . S
C1310 C1308 1.389 . S
C1310 C1311 1.524 . S
C1310 C1324 1.377 . S
C1311 C1310 1.524 . S
C1311 C1312 1.397 . S
C1311 C1316 1.363 . S
C1312 H1289 0.950 . S
C1312 C1311 1.397 . S
C1312 C1313 1.334 . S
C1313 H1290 0.950 . S
C1313 C1312 1.334 . S
C1313 C1314 1.287 . S
C1314 C1313 1.287 . S
C1314 C1315 1.524 . S
C1314 H1333 0.913 . S
C1315 H1291 0.950 . S
C1315 C1314 1.524 . S
C1315 C1316 1.415 . S
C1316 H1292 0.950 . S
C1316 C1311 1.363 . S
C1316 C1315 1.415 . S
C1317 H1293 0.951 . S
C1317 C1318 1.366 . S
C1317 C1319 1.388 . S
C1318 C1317 1.366 . S
C1318 C1322 1.385 . S
C1319 H1294 0.951 . S
C1319 C1317 1.388 . S
C1319 C1320 1.366 . S
C1320 C1319 1.366 . S
C1320 C1321 1.414 . S
C1320 C1323 1.499 . S
C1321 H1295 0.950 . S
C1321 C1320 1.414 . S
C1321 C1322 1.374 . S
C1322 H1296 0.950 . S
C1322 C1318 1.385 . S
C1322 C1321 1.374 . S
C1323 C1320 1.499 . S
C1323 C1324 1.373 . S
C1323 C1325 1.389 . S
C1324 H1297 0.950 . S
C1324 C1310 1.377 . S
C1324 C1323 1.373 . S
C1325 C1309 1.377 . S
C1325 C1323 1.389 . S
C1325 C1326 1.524 . S
C1326 C1325 1.524 . S
C1326 C1327 1.397 . S
C1326 C1331 1.363 . S
C1327 H1298 0.950 . S
C1327 C1326 1.397 . S
C1327 C1328 1.334 . S
C1328 H1299 0.950 . S
C1328 C1327 1.334 . S
C1328 C1329 1.287 . S
C1329 C1328 1.287 . S
C1329 C1330 1.524 . S
C1329 H1332 0.999 . S
C1330 H1300 0.950 . S
C1330 C1329 1.524 . S
C1330 C1331 1.415 . S
C1331 H1301 0.950 . S
C1331 C1326 1.363 . S
C1331 C1330 1.415 . S
H1332 C1329 0.999 . S
H1333 C1314 0.913 . S
H1334 C1352 0.951 . S
H1335 C1354 0.951 . S
H1336 C1356 0.950 . S
H1337 C1357 0.950 . S
H1338 C1359 0.950 . S
H1339 C1362 0.950 . S
H1340 C1363 0.950 . S
H1341 C1365 0.950 1_556 S
H1342 C1366 0.950 . S
H1343 C1367 0.951 . S
H1344 C1369 0.951 . S
H1345 C1371 0.950 . S
H1346 C1372 0.950 . S
H1347 C1374 0.950 . S
H1348 C1377 0.950 . S
H1349 C1378 0.950 . S
H1350 C1380 0.950 . S
H1351 C1381 0.950 . S
C1352 H1334 0.951 . S
C1352 C1353 1.366 . S
C1352 C1354 1.388 . S
C1353 C1352 1.366 . S
C1353 C1357 1.385 . S
C1354 H1335 0.951 . S
C1354 C1352 1.388 . S
C1354 C1355 1.366 . S
C1355 C1354 1.366 . S
C1355 C1356 1.414 . S
C1355 C1358 1.499 . S
C1356 H1336 0.950 . S
C1356 C1355 1.414 . S
C1356 C1357 1.374 . S
C1357 H1337 0.950 . S
C1357 C1353 1.385 . S
C1357 C1356 1.374 . S
C1358 C1355 1.499 . S
C1358 C1359 1.373 . S
C1358 C1360 1.389 . S
C1359 H1338 0.950 . S
C1359 C1358 1.373 . S
C1359 C1375 1.377 . S
C1360 C1358 1.389 . S
C1360 C1361 1.524 . S
C1360 C1374 1.377 . S
C1361 C1360 1.524 . S
C1361 C1362 1.397 . S
C1361 C1366 1.363 . S
C1362 H1339 0.950 . S
C1362 C1361 1.397 . S
C1362 C1363 1.334 . S
C1363 H1340 0.950 . S
C1363 C1362 1.334 . S
C1363 C1364 1.287 . S
C1364 C1363 1.287 . S
C1364 C1365 1.524 . S
C1364 H1383 0.913 1_554 S
C1365 H1341 0.950 1_554 S
C1365 C1364 1.524 . S
C1365 C1366 1.415 . S
C1366 H1342 0.950 . S
C1366 C1361 1.363 . S
C1366 C1365 1.415 . S
C1367 H1343 0.951 . S
C1367 C1368 1.366 . S
C1367 C1369 1.388 . S
C1368 C1367 1.366 . S
C1368 C1372 1.385 . S
C1369 H1344 0.951 . S
C1369 C1367 1.388 . S
C1369 C1370 1.366 . S
C1370 C1369 1.366 . S
C1370 C1371 1.414 . S
C1370 C1373 1.499 . S
C1371 H1345 0.950 . S
C1371 C1370 1.414 . S
C1371 C1372 1.374 . S
C1372 H1346 0.950 . S
C1372 C1368 1.385 . S
C1372 C1371 1.374 . S
C1373 C1370 1.499 . S
C1373 C1374 1.373 . S
C1373 C1375 1.389 . S
C1374 H1347 0.950 . S
C1374 C1360 1.377 . S
C1374 C1373 1.373 . S
C1375 C1359 1.377 . S
C1375 C1373 1.389 . S
C1375 C1376 1.524 . S
C1376 C1375 1.524 . S
C1376 C1377 1.397 . S
C1376 C1381 1.363 . S
C1377 H1348 0.950 . S
C1377 C1376 1.397 . S
C1377 C1378 1.334 . S
C1378 H1349 0.950 . S
C1378 C1377 1.334 . S
C1378 C1379 1.287 . S
C1379 C1378 1.287 . S
C1379 C1380 1.524 . S
C1379 H1382 0.999 . S
C1380 H1350 0.950 . S
C1380 C1379 1.524 . S
C1380 C1381 1.415 . S
C1381 H1351 0.950 . S
C1381 C1376 1.363 . S
C1381 C1380 1.415 . S
H1382 C1379 0.999 . S
H1383 C1364 0.913 1_556 S
C203 N80 1.696 . S
C218 C112 1.699 . S
C268 C142 1.819 . S
C253 N93 1.803 . S
C318 C152 1.464 . S
C303 N54 1.450 . S
C368 C172 1.335 . S
C353 N67 1.323 1_455 S
C418 C113 1.704 . S
C403 N28 1.709 1_556 S
C453 N41 1.809 . S
C468 C143 1.818 . S
C503 N2 1.452 . S
C518 C153 1.464 . S
C553 N15 1.314 1_556 S
C568 C173 1.337 . S
C618 C105 0.651 . S
C603 N70 0.646 1_455 S
C668 C126 0.295 . S
C653 N83 0.276 . S
C718 C145 0.815 . S
C703 N96 0.815 . S
C753 N57 0.513 . S
C768 C165 0.517 . S
C803 N18 0.647 1_556 S
C818 C106 0.650 . S
C868 C125 0.288 1_565 S
C853 N31 0.260 . S
C918 C146 0.814 . S
C903 N44 0.814 . S
C953 N5 0.511 . S
C968 C166 0.528 . S
C1003 N66 1.532 1_455 S
C1018 C123 1.534 . S
C1053 N79 1.341 . S
C1068 C133 1.363 . S
C1118 C163 1.737 . S
C1103 N92 1.725 . S
C1168 C183 1.758 . S
C1153 N53 1.749 1_556 S
C1203 N14 1.532 . S
C1218 C122 1.535 . S
C1268 C132 1.363 . S
C1253 N27 1.352 . S
C1318 C162 1.738 . S
C1303 N40 1.733 . S
C1353 N1 1.754 . S
C1368 C182 1.763 . S
