# Generated by pormake.
# Topology zzz, (3,6)-cn, num edge types: 1
# Building blocks:
#     Node 0, Type 0, BuildingBlock: INOVEN_clean_linker_0, # of connection points: 3
#     Node 1, Type 0, BuildingBlock: INOVEN_clean_linker_0, # of connection points: 3
#     Node 2, Type 0, BuildingBlock: INOVEN_clean_linker_0, # of connection points: 3
#     Node 3, Type 0, BuildingBlock: INOVEN_clean_linker_0, # of connection points: 3
#     Node 4, Type 0, BuildingBlock: INOVEN_clean_linker_0, # of connection points: 3
#     Node 5, Type 0, BuildingBlock: INOVEN_clean_linker_0, # of connection points: 3
#     Node 6, Type 0, BuildingBlock: INOVEN_clean_linker_0, # of connection points: 3
#     Node 7, Type 0, BuildingBlock: INOVEN_clean_linker_0, # of connection points: 3
#     Node 8, Type 1, BuildingBlock: JUFBIX_clean_sbu_0, # of connection points: 6
#     Node 9, Type 1, BuildingBlock: JUFBIX_clean_sbu_0, # of connection points: 6
#     Node 10, Type 1, BuildingBlock: JUFBIX_clean_sbu_0, # of connection points: 6
#     Node 11, Type 1, BuildingBlock: JUFBIX_clean_sbu_0, # of connection points: 6
#     Edge 12, Type (0, 1), BuildingBlock: KIFKEQ_clean_linker_1, # of connection points: 2
#     Edge 13, Type (0, 1), BuildingBlock: KIFKEQ_clean_linker_1, # of connection points: 2
#     Edge 14, Type (0, 1), BuildingBlock: KIFKEQ_clean_linker_1, # of connection points: 2
#     Edge 15, Type (0, 1), BuildingBlock: KIFKEQ_clean_linker_1, # of connection points: 2
#     Edge 16, Type (0, 1), BuildingBlock: KIFKEQ_clean_linker_1, # of connection points: 2
#     Edge 17, Type (0, 1), BuildingBlock: KIFKEQ_clean_linker_1, # of connection points: 2
#     Edge 18, Type (0, 1), BuildingBlock: KIFKEQ_clean_linker_1, # of connection points: 2
#     Edge 19, Type (0, 1), BuildingBlock: KIFKEQ_clean_linker_1, # of connection points: 2
#     Edge 20, Type (0, 1), BuildingBlock: KIFKEQ_clean_linker_1, # of connection points: 2
#     Edge 21, Type (0, 1), BuildingBlock: KIFKEQ_clean_linker_1, # of connection points: 2
#     Edge 22, Type (0, 1), BuildingBlock: KIFKEQ_clean_linker_1, # of connection points: 2
#     Edge 23, Type (0, 1), BuildingBlock: KIFKEQ_clean_linker_1, # of connection points: 2
#     Edge 24, Type (0, 1), BuildingBlock: KIFKEQ_clean_linker_1, # of connection points: 2
#     Edge 25, Type (0, 1), BuildingBlock: KIFKEQ_clean_linker_1, # of connection points: 2
#     Edge 26, Type (0, 1), BuildingBlock: KIFKEQ_clean_linker_1, # of connection points: 2
#     Edge 27, Type (0, 1), BuildingBlock: KIFKEQ_clean_linker_1, # of connection points: 2
#     Edge 28, Type (0, 1), BuildingBlock: KIFKEQ_clean_linker_1, # of connection points: 2
#     Edge 29, Type (0, 1), BuildingBlock: KIFKEQ_clean_linker_1, # of connection points: 2
#     Edge 30, Type (0, 1), BuildingBlock: KIFKEQ_clean_linker_1, # of connection points: 2
#     Edge 31, Type (0, 1), BuildingBlock: KIFKEQ_clean_linker_1, # of connection points: 2
#     Edge 32, Type (0, 1), BuildingBlock: KIFKEQ_clean_linker_1, # of connection points: 2
#     Edge 33, Type (0, 1), BuildingBlock: KIFKEQ_clean_linker_1, # of connection points: 2
#     Edge 34, Type (0, 1), BuildingBlock: KIFKEQ_clean_linker_1, # of connection points: 2
#     Edge 35, Type (0, 1), BuildingBlock: KIFKEQ_clean_linker_1, # of connection points: 2
# Relax obj value: 0.121
# Max RMSD: 0.177
# Mean RMSD: 0.086
data_MOF--net-zzz--node1-JUFBIX_clean_sbu_0--node2-INOVEN_clean_linker_0--edge1-KIFKEQ_clean_linker_1
_symmetry_space_group_name_H-M    P1
_symmetry_Int_Tables_number       1
_symmetry_cell_setting            triclinic
loop_
_symmetry_equiv_pos_as_xyz
'x, y, z'
_cell_length_a     52.035117
_cell_length_b     51.876654
_cell_length_c     17.950759
_cell_angle_alpha  81.717466
_cell_angle_beta   89.992954
_cell_angle_gamma 91.616341
loop_
_atom_site_label
_atom_site_type_symbol
_atom_site_fract_x
_atom_site_fract_y
_atom_site_fract_z
_atom_type_partial_charge
H0 H 0.79143 0.50908 0.38667 0.0
H1 H 0.86826 0.48633 0.34245 0.0
H2 H 0.81098 0.48709 0.17114 0.0
N3 N 0.77265 0.50404 0.24844 0.0
N4 N 0.76963 0.5106 0.17931 0.0
C5 C 0.80514 0.50193 0.34967 0.0
C6 C 0.83065 0.49734 0.37362 0.0
C7 C 0.79787 0.49831 0.27604 0.0
C8 C 0.81625 0.48982 0.22794 0.0
C9 C 0.84156 0.48539 0.2515 0.0
C10 C 0.84843 0.48877 0.32469 0.0
H11 H 1.00825 0.75272 0.38872 0.0
H12 H 0.0349 0.83278 0.34695 0.0
H13 H 0.03128 0.78779 0.16502 0.0
N14 N 0.01525 0.74277 0.2463 0.0
N15 N 1.01106 0.74288 0.17769 0.0
C16 C 0.01608 0.76916 0.35063 0.0
C17 C 0.0214 0.79313 0.37683 0.0
C18 C 0.02027 0.76687 0.27409 0.0
C19 C 0.02901 0.78899 0.22438 0.0
C20 C 0.03393 0.81288 0.2501 0.0
C21 C 0.03104 0.81435 0.32665 0.0
H22 H 0.77298 1.0058 0.29336 0.0
H23 H 0.69402 0.01369 0.22646 0.0
H24 H 0.75291 0.01872 0.05735 0.0
N25 N 0.79287 0.01229 0.15385 0.0
N26 N 0.80121 0.02322 0.09161 0.0
C27 C 0.75869 1.00918 0.2494 0.0
C28 C 0.73251 1.00988 0.26839 0.0
C29 C 0.76636 0.01315 0.17299 0.0
C30 C 0.74742 0.01673 0.11617 0.0
C31 C 0.72127 0.01617 0.13554 0.0
C32 C 0.71423 0.01357 0.21134 0.0
H33 H 0.51481 0.74468 0.30677 0.0
H34 H 0.51719 0.66589 0.25997 0.0
H35 H 0.51605 0.7287 0.07671 0.0
N36 N 0.51469 0.76755 0.16318 0.0
N37 N 0.51343 0.77613 0.09461 0.0
C38 C 0.51538 0.73103 0.26652 0.0
C39 C 0.516 0.70411 0.29193 0.0
C40 C 0.5152 0.74022 0.18856 0.0
C41 C 0.51588 0.72207 0.13676 0.0
C42 C 0.51708 0.6953 0.16251 0.0
C43 C 0.51685 0.68665 0.23979 0.0
H44 H 0.24662 0.51335 0.18484 0.0
H45 H 0.16853 0.53033 0.23515 0.0
H46 H 0.22785 0.54021 0.39457 0.0
N47 N 0.26682 0.52517 0.31516 0.0
N48 N 0.27491 0.53805 0.36447 0.0
C49 C 0.23274 0.52018 0.22195 0.0
C50 C 0.2066 0.52169 0.20135 0.0
C51 C 0.24072 0.52744 0.29137 0.0
C52 C 0.22221 0.53554 0.33986 0.0
C53 C 0.19623 0.53658 0.31997 0.0
C54 C 0.18873 0.53009 0.25025 0.0
H55 H 0.02664 0.26773 0.17669 0.0
H56 H 0.99817 0.18823 0.21689 0.0
H57 H 1.0031 0.23268 0.39989 0.0
N58 N 0.0201 0.27743 0.31953 0.0
N59 N 0.02489 0.27696 0.38794 0.0
C60 C 0.01846 0.25139 0.21445 0.0
C61 C 0.01254 0.22763 0.18771 0.0
C62 C 0.01445 0.25357 0.29113 0.0
C63 C 1.00524 0.23156 0.34044 0.0
C64 C 0.99971 0.20787 0.3142 0.0
C65 C 1.00246 0.20653 0.23753 0.0
H66 H 0.26307 0.014 0.28247 0.0
H67 H 0.3387 0.99029 0.35403 0.0
H68 H 0.27808 0.98724 0.51719 0.0
N69 N 0.24072 1.00355 0.41881 0.0
N70 N 0.23054 0.99103 0.47653 0.0
C71 C 0.27605 1.00625 0.32674 0.0
C72 C 0.30187 1.00204 0.30953 0.0
C73 C 0.26702 1.00002 0.4015 0.0
C74 C 0.28444 0.99095 0.45905 0.0
C75 C 0.31028 0.98736 0.44204 0.0
C76 C 0.31856 0.99239 0.36722 0.0
H77 H 0.51395 0.27745 0.26353 0.0
H78 H 0.52454 0.35561 0.31347 0.0
H79 H 0.52782 0.29146 0.49217 0.0
N80 N 0.51957 0.25343 0.40484 0.0
N81 N 0.52258 0.24436 0.47251 0.0
C82 C 0.51771 0.29071 0.30391 0.0
C83 C 0.51892 0.31777 0.27999 0.0
C84 C 0.52102 0.28088 0.38071 0.0
C85 C 0.52549 0.29853 0.43284 0.0
C86 C 0.52715 0.32544 0.40843 0.0
C87 C 0.52388 0.33474 0.33227 0.0
Co88 Co 0.02523 0.02434 0.81585 0.0
C89 C 0.9748 0.0111 0.85874 0.0
Co90 Co 1.00696 0.9964 0.74782 0.0
C91 C 0.03169 0.07229 0.88016 0.0
C92 C 0.06424 0.04798 0.90017 0.0
N93 N 0.04069 0.04893 0.86888 0.0
N94 N 0.04872 0.08603 0.91707 0.0
C95 C 0.06919 0.07064 0.9299 0.0
H96 H 0.01296 0.07906 0.86152 0.0
H97 H 0.07719 0.03203 0.90004 0.0
C98 C 0.05738 1.0096 0.70487 0.0
N99 N 0.99156 0.97178 0.69478 0.0
C100 C 1.00071 0.94848 0.68349 0.0
C101 C 0.96801 0.97258 0.66348 0.0
N102 N 0.98378 0.93463 0.64661 0.0
C103 C 0.96321 0.94989 0.63376 0.0
C104 C 0.99991 0.04751 0.68819 0.0
O105 O 0.05603 0.02363 0.75736 0.0
O106 O 0.03776 0.99596 0.69059 0.0
O107 O 0.99485 0.02427 0.67672 0.0
O108 O 0.01311 0.05144 0.74511 0.0
O109 O 0.97624 0.99697 0.80653 0.0
H110 H 0.95496 0.98845 0.66359 0.0
H111 H 0.01949 0.94184 0.7021 0.0
O112 O 0.99432 0.02491 0.87284 0.0
O113 O 0.03721 0.99648 0.88715 0.0
O114 O 0.01921 0.9693 0.81839 0.0
C115 C 0.03228 0.97324 0.87551 0.0
H116 H 0.08681 0.07559 0.95726 0.0
H117 H 0.94563 0.94482 0.60638 0.0
Co118 Co 0.50545 0.01617 0.82928 0.0
C119 C 0.51609 0.96395 0.85436 0.0
Co120 Co 0.52656 1.00397 0.73356 0.0
C121 C 0.46273 0.01851 0.93122 0.0
C122 C 0.49068 0.04918 0.93701 0.0
N123 N 0.48603 0.0277 0.90446 0.0
N124 N 0.45243 0.03357 0.97849 0.0
C125 C 0.47016 0.05282 0.98244 0.0
H126 H 0.45331 1.00135 0.91486 0.0
H127 H 0.50742 0.06201 0.92595 0.0
C128 C 0.51592 0.05619 0.70854 0.0
N129 N 0.54613 0.99249 0.65857 0.0
C130 C 0.56957 1.00169 0.6329 0.0
C131 C 0.54189 0.9708 0.62674 0.0
N132 N 0.58041 0.98637 0.58727 0.0
C133 C 0.56281 0.967 0.58304 0.0
C134 C 0.47424 0.9988 0.71873 0.0
O135 O 0.50581 0.05053 0.77366 0.0
O136 O 0.52642 0.0383 0.67859 0.0
O137 O 0.4953 0.99544 0.68582 0.0
O138 O 0.47479 1.00794 0.78059 0.0
O139 O 0.52654 0.96967 0.78971 0.0
H140 H 0.52523 0.95785 0.63764 0.0
H141 H 0.57876 0.01893 0.64944 0.0
O142 O 0.50526 0.98176 0.88376 0.0
O143 O 0.53665 0.02415 0.8777 0.0
O144 O 0.55726 0.01251 0.78194 0.0
C145 C 0.55773 0.02098 0.84475 0.0
H146 H 0.46812 0.06907 0.01337 0.0
H147 H 0.56523 0.95046 0.55351 0.0
Co148 Co 0.54064 0.51124 0.78709 0.0
C149 C 0.51687 0.47035 0.88309 0.0
Co150 Co 0.49823 0.5097 0.77817 0.0
C151 C 0.58988 0.51092 0.86252 0.0
C152 C 0.59378 0.51591 0.74251 0.0
N153 N 0.57611 0.51266 0.79813 0.0
N154 N 0.6155 0.51286 0.84929 0.0
C155 C 0.61793 0.51603 0.77364 0.0
H156 H 0.58121 0.50803 0.91801 0.0
H157 H 0.58936 0.51818 0.68308 0.0
C158 C 0.52157 0.55077 0.68296 0.0
N159 N 0.46277 0.50832 0.76677 0.0
C160 C 0.44931 0.51151 0.70178 0.0
C161 C 0.44481 0.50429 0.82158 0.0
N162 N 0.42363 0.50981 0.71376 0.0
C163 C 0.42079 0.50522 0.78928 0.0
C164 C 0.51587 0.5417 0.87822 0.0
O165 O 0.5424 0.54115 0.71009 0.0
O166 O 0.50031 0.5393 0.70337 0.0
O167 O 0.49529 0.53275 0.85185 0.0
O168 O 0.53739 0.53379 0.85883 0.0
O169 O 0.49639 0.48 0.8538 0.0
H170 H 0.44894 0.50105 0.8812 0.0
H171 H 0.45825 0.51563 0.64675 0.0
O172 O 0.53841 0.48155 0.86365 0.0
O173 O 0.54369 0.4885 0.71482 0.0
O174 O 0.50168 0.48685 0.70492 0.0
C175 C 0.52359 0.47932 0.6869 0.0
H176 H 0.63587 0.51872 0.74262 0.0
H177 H 0.40266 0.50262 0.81932 0.0
Co178 Co 0.01757 0.52982 0.79128 0.0
C179 C 0.06025 0.50694 0.86469 0.0
Co180 Co 0.02059 0.48782 0.7824 0.0
C181 C 0.01619 0.57595 0.86607 0.0
C182 C 1.01044 0.5846 0.74707 0.0
N183 N 0.01471 0.56477 0.80245 0.0
N184 N 0.01316 0.60203 0.85242 0.0
C185 C 1.00952 0.60744 0.77744 0.0
H186 H 0.01972 0.56517 0.92119 0.0
H187 H 1.00803 0.58255 0.68834 0.0
C188 C 0.9779 0.51066 0.70898 0.0
N189 N 0.02347 0.4529 0.77102 0.0
C190 C 0.02189 0.44189 0.70713 0.0
C191 C 0.02791 0.43298 0.82594 0.0
N192 N 0.02506 0.41582 0.72011 0.0
C193 C 0.02887 0.41025 0.795 0.0
C194 C 0.99154 0.49662 0.9035 0.0
O195 O 0.98675 0.53117 0.7324 0.0
O196 O 0.99021 0.48968 0.72333 0.0
O197 O 0.99999 0.47853 0.8702 0.0
O198 O 0.99756 0.52018 0.87852 0.0
O199 O 0.05123 0.48639 0.84192 0.0
H200 H 0.03044 0.4349 0.88472 0.0
H201 H 0.01822 0.4528 0.65228 0.0
O202 O 0.04813 0.52801 0.84971 0.0
O203 O 0.03794 0.53911 0.70319 0.0
O204 O 0.04091 0.49748 0.69556 0.0
C205 C 0.04676 0.52106 0.67046 0.0
H206 H 1.00601 0.62651 0.74662 0.0
H207 H 0.03255 0.39114 0.82537 0.0
H208 H 0.20306 0.9571 0.5697 0.0
H209 H 0.20037 0.03308 0.43687 0.0
H210 H 0.15977 0.96233 0.61822 0.0
H211 H 0.15717 0.03876 0.4871 0.0
H212 H 0.09833 0.04442 0.69178 0.0
H213 H 0.13942 0.04096 0.62755 0.0
H214 H 0.11302 0.96813 0.5608 0.0
H215 H 0.07178 0.97178 0.62333 0.0
C216 C 0.19299 0.97481 0.55054 0.0
C217 C 0.20481 0.99445 0.49915 0.0
C218 C 0.1683 0.97782 0.57811 0.0
C219 C 0.1551 1.00091 0.55626 0.0
C220 C 0.16694 0.02076 0.50481 0.0
C221 C 0.19153 0.01746 0.47576 0.0
C222 C 0.1012 0.02781 0.66275 0.0
C223 C 0.0818 1.00835 0.66282 0.0
C224 C 0.12466 0.02592 0.62566 0.0
C225 C 0.12939 1.00428 0.58925 0.0
C226 C 0.1099 0.985 0.58857 0.0
C227 C 0.08628 0.98714 0.62424 0.0
H228 H 0.52858 0.22431 0.61418 0.0
H229 H 0.51383 0.20328 0.39422 0.0
H230 H 0.52659 0.1784 0.6689 0.0
H231 H 0.51137 0.15705 0.4488 0.0
H232 H 0.53693 0.07598 0.57078 0.0
H233 H 0.53802 0.12133 0.50973 0.0
H234 H 0.49518 0.14321 0.69585 0.0
H235 H 0.49447 0.09824 0.7572 0.0
C236 C 0.52481 0.20971 0.57779 0.0
C237 C 0.5213 0.21727 0.50055 0.0
C238 C 0.5235 0.18344 0.60897 0.0
C239 C 0.51859 0.16396 0.56343 0.0
C240 C 0.51533 0.17152 0.48544 0.0
C241 C 0.51661 0.19798 0.45418 0.0
C242 C 0.52768 0.09048 0.59851 0.0
C243 C 0.51577 0.08345 0.66921 0.0
C244 C 0.52818 0.11646 0.56327 0.0
C245 C 0.51686 0.136 0.59806 0.0
C246 C 0.5045 0.12879 0.66798 0.0
C247 C 0.50398 0.10291 0.70306 0.0
H248 H 0.309 0.49882 0.36169 0.0
H249 H 0.2954 0.5705 0.44823 0.0
H250 H 0.34707 0.49192 0.4427 0.0
H251 H 0.3334 0.56414 0.52767 0.0
H252 H 0.37571 0.5268 0.73334 0.0
H253 H 0.34171 0.53351 0.64066 0.0
H254 H 0.39138 0.50873 0.47343 0.0
H255 H 0.4255 0.50126 0.56759 0.0
C256 C 0.31459 0.51341 0.39649 0.0
C257 C 0.29943 0.53531 0.39901 0.0
C258 C 0.33631 0.50948 0.44295 0.0
C259 C 0.34302 0.52728 0.49263 0.0
C260 C 0.3285 0.54977 0.49142 0.0
C261 C 0.30694 0.5536 0.44545 0.0
C262 C 0.37942 0.52249 0.67719 0.0
C263 C 0.40343 0.5135 0.65817 0.0
C264 C 0.35997 0.52665 0.6236 0.0
C265 C 0.36389 0.52195 0.54925 0.0
C266 C 0.38773 0.51252 0.53019 0.0
C267 C 0.40735 0.50848 0.58399 0.0
H268 H 0.04506 0.2768 0.52165 0.0
H269 H 1.01172 0.32737 0.33783 0.0
H270 H 0.0462 0.31211 0.59774 0.0
H271 H 0.01208 0.36302 0.41486 0.0
H272 H 0.0369 0.42545 0.57032 0.0
H273 H 0.03845 0.39349 0.48223 0.0
H274 H 0.01342 0.33291 0.66013 0.0
H275 H 0.01197 0.36451 0.7472 0.0
C276 C 0.03831 0.29573 0.49741 0.0
C277 C 0.02845 0.29939 0.42431 0.0
C278 C 0.03865 0.3159 0.54111 0.0
C279 C 0.02873 0.34032 0.51314 0.0
C280 C 0.0199 0.34447 0.43816 0.0
C281 C 0.01971 0.32412 0.39396 0.0
C282 C 0.03152 0.40534 0.59031 0.0
C283 C 0.02467 0.39752 0.66633 0.0
C284 C 0.03242 0.38702 0.53979 0.0
C285 C 0.02651 0.3605 0.56428 0.0
C286 C 0.01884 0.35299 0.63963 0.0
C287 C 0.01798 0.37117 0.68979 0.0
H288 H 0.83542 0.9856 0.14027 0.0
H289 H 0.82517 0.05658 0.98748 0.0
H290 H 0.87877 0.98203 0.08849 0.0
H291 H 0.86873 0.05358 0.93747 0.0
H292 H 0.95866 0.05014 0.93318 0.0
H293 H 0.91726 0.05295 0.99623 0.0
H294 H 0.89454 0.977 0.94413 0.0
H295 H 0.93562 0.97442 0.879 0.0
C296 C 0.84265 1.00066 0.09667 0.0
C297 C 0.82716 0.02159 0.06806 0.0
C298 C 0.86732 0.99855 0.0668 0.0
C299 C 0.87709 0.0176 0.00926 0.0
C300 C 0.86176 0.03876 0.98222 0.0
C301 C 0.83693 0.0405 0.01066 0.0
C302 C 0.94491 0.03396 0.93559 0.0
C303 C 0.95038 0.01208 0.90091 0.0
C304 C 0.92123 0.03562 0.97151 0.0
C305 C 0.90278 0.01516 0.9752 0.0
C306 C 0.90852 0.99295 0.94255 0.0
C307 C 0.93195 0.99155 0.905 0.0
H308 H 0.51765 0.81788 0.17224 0.0
H309 H 0.50903 0.79535 0.95157 0.0
H310 H 0.51876 0.86395 0.11633 0.0
H311 H 0.50953 0.84112 0.89541 0.0
H312 H 0.53947 0.92234 0.80903 0.0
H313 H 0.53919 0.87748 0.87109 0.0
H314 H 0.49255 0.89854 0.05086 0.0
H315 H 0.49331 0.9438 0.98928 0.0
C316 C 0.51583 0.82282 0.11183 0.0
C317 C 0.51332 0.80314 0.06569 0.0
C318 C 0.51635 0.84919 0.07976 0.0
C319 C 0.51444 0.85633 0.00117 0.0
C320 C 0.51157 0.83645 0.95585 0.0
C321 C 0.51108 0.81025 0.98784 0.0
C322 C 0.5292 0.9175 0.8619 0.0
C323 C 0.51632 0.93672 0.8939 0.0
C324 C 0.5289 0.89166 0.89738 0.0
C325 C 0.51564 0.88424 0.96578 0.0
C326 C 0.50312 0.90356 -0.00141 0.0
C327 C 0.50345 0.92949 0.96304 0.0
H328 H 0.72137 0.49587 0.23469 0.0
H329 H 0.76384 0.53293 0.04057 0.0
H330 H 0.6819 0.49672 0.15847 0.0
H331 H 0.72486 0.53429 0.96498 0.0
H332 H 0.66432 0.49828 0.83052 0.0
H333 H 0.69991 0.49925 0.91743 0.0
H334 H 0.64966 0.52581 0.08018 0.0
H335 H 0.61369 0.52505 0.99216 0.0
C336 C 0.72208 0.50478 0.17633 0.0
C337 C 0.74553 0.51444 0.14289 0.0
C338 C 0.69957 0.50522 0.13267 0.0
C339 C 0.70035 0.51515 0.05529 0.0
C340 C 0.72365 0.52599 0.02386 0.0
C341 C 0.7459 0.52549 0.06712 0.0
C342 C 0.66076 0.50455 0.88443 0.0
C343 C 0.63614 0.51198 0.90356 0.0
C344 C 0.68122 0.50506 0.93448 0.0
C345 C 0.67774 0.51303 0.00534 0.0
C346 C 0.65295 0.51956 0.02604 0.0
C347 C 0.63235 0.5191 0.97557 0.0
H348 H 0.99263 0.74243 0.04221 0.0
H349 H 0.0237 0.69255 0.23135 0.0
H350 H 0.99228 0.70663 0.96797 0.0
H351 H 0.02413 0.65637 0.15624 0.0
H352 H 0.02741 0.653 0.82461 0.0
H353 H 0.02566 0.68511 0.91011 0.0
H354 H 0.99821 0.62567 0.08791 0.0
H355 H 1.00013 0.59319 0.00139 0.0
C356 C 0.99908 0.72355 0.06797 0.0
C357 C 1.00806 0.72022 0.14203 0.0
C358 C 0.99918 0.7031 0.02537 0.0
C359 C 1.00868 0.6787 0.05547 0.0
C360 C 0.01666 0.6749 0.1313 0.0
C361 C 0.0164 0.69555 0.17438 0.0
C362 C 0.02084 0.6467 0.88169 0.0
C363 C 0.01354 0.62054 0.90557 0.0
C364 C 0.0198 0.66517 0.93094 0.0
C365 C 1.01131 0.65814 0.00571 0.0
C366 C 1.00486 0.63177 0.03076 0.0
C367 C 1.00596 0.61316 0.98117 0.0
H368 H 0.96847 0.20146 0.43986 0.0
H369 H 0.01826 0.15959 0.30928 0.0
H370 H 0.96163 0.16169 0.53032 0.0
H371 H 1.01081 0.12023 0.39752 0.0
H372 H 0.98362 0.04832 0.54287 0.0
H373 H 0.97704 0.08699 0.4501 0.0
H374 H 0.99187 0.13619 0.62092 0.0
H375 H 0.99827 0.09782 0.7133 0.0
C376 C 0.97771 0.1838 0.43002 0.0
C377 C 0.99376 0.18369 0.36707 0.0
C378 C 0.97366 0.16106 0.4814 0.0
C379 C 0.98544 0.13784 0.47027 0.0
C380 C 1.00094 0.13764 0.40651 0.0
C381 C 1.0052 0.16029 0.35589 0.0
C382 C 0.98492 0.06737 0.5608 0.0
C383 C 0.99189 0.07011 0.63482 0.0
C384 C 0.98121 0.08946 0.50782 0.0
C385 C 0.98415 0.11454 0.52835 0.0
C386 C 0.98929 0.11712 0.60364 0.0
C387 C 0.99321 0.09512 0.65631 0.0
H388 H 0.34638 0.94996 0.4524 0.0
H389 H 0.31906 0.01266 0.56241 0.0
H390 H 0.38527 0.94823 0.52894 0.0
H391 H 0.35806 0.01146 0.63781 0.0
H392 H 0.42715 0.9979 0.7856 0.0
H393 H 0.38544 0.98927 0.73194 0.0
H394 H 0.42256 0.97704 0.52495 0.0
H395 H 0.46445 0.98495 0.57959 0.0
C396 C 0.34847 0.96291 0.49441 0.0
C397 C 0.32985 0.98152 0.50141 0.0
C398 C 0.37082 0.96214 0.5376 0.0
C399 C 0.37504 0.98006 0.58836 0.0
C400 C 0.35541 0.99726 0.59957 0.0
C401 C 0.33298 0.99792 0.55661 0.0
C402 C 0.42646 0.99319 0.72876 0.0
C403 C 0.44913 0.99234 0.6865 0.0
C404 C 0.4025 0.98829 0.698 0.0
C405 C 0.40059 0.98254 0.62409 0.0
C406 C 0.42333 0.98101 0.58251 0.0
C407 C 0.44735 0.98578 0.61349 0.0
H408 H 0.56262 0.36516 0.39829 0.0
H409 H 0.49935 0.32949 0.53487 0.0
H410 H 0.56276 0.4024 0.46698 0.0
H411 H 0.49976 0.36662 0.60522 0.0
H412 H 0.48436 0.45173 0.63096 0.0
H413 H 0.48755 0.41246 0.57187 0.0
H414 H 0.57034 0.41744 0.58765 0.0
H415 H 0.56725 0.45693 0.6455 0.0
C416 C 0.54917 0.36506 0.44444 0.0
C417 C 0.53089 0.3446 0.46122 0.0
C418 C 0.54926 0.38635 0.48382 0.0
C419 C 0.53102 0.38762 0.54074 0.0
C420 C 0.51374 0.36637 0.56063 0.0
C421 C 0.51373 0.34497 0.52129 0.0
C422 C 0.50326 0.44464 0.62098 0.0
C423 C 0.52555 0.45752 0.6427 0.0
C424 C 0.50507 0.42193 0.58811 0.0
C425 C 0.52918 0.41165 0.5761 0.0
C426 C 0.55149 0.42491 0.596 0.0
C427 C 0.5497 0.44759 0.62897 0.0
H428 H 0.19207 0.5136 0.4652 0.0
H429 H 0.15496 0.56838 0.298 0.0
H430 H 0.15487 0.51332 0.54798 0.0
H431 H 0.11753 0.56797 0.38143 0.0
H432 H 0.0667 0.56886 0.60724 0.0
H433 H 0.10408 0.57701 0.52276 0.0
H434 H 0.10875 0.49443 0.51663 0.0
H435 H 0.07157 0.48617 0.59928 0.0
C436 C 0.1763 0.52618 0.44712 0.0
C437 C 0.17628 0.54091 0.37514 0.0
C438 C 0.15496 0.52582 0.49413 0.0
C439 C 0.13335 0.54034 0.47026 0.0
C440 C 0.13402 0.55661 0.40074 0.0
C441 C 0.15532 0.55677 0.3532 0.0
C442 C 0.07545 0.55252 0.58668 0.0
C443 C 0.06634 0.52685 0.61047 0.0
C444 C 0.09681 0.55721 0.53871 0.0
C445 C 0.10944 0.53627 0.51491 0.0
C446 C 0.09956 0.51082 0.53565 0.0
C447 C 0.07816 0.50616 0.58254 0.0
H448 H 0.01441 0.86081 0.25412 0.0
H449 H 0.06519 0.81967 0.12442 0.0
H450 H 0.02137 0.90022 0.16567 0.0
H451 H 0.07149 0.85944 0.03366 0.0
H452 H 0.0342 0.92295 0.85032 0.0
H453 H 0.04081 0.88459 0.94267 0.0
H454 H 0.05513 0.93382 0.11369 0.0
H455 H 0.04837 0.97247 0.02097 0.0
C456 C 0.02757 0.86029 0.20765 0.0
C457 C 0.03946 0.83707 0.19684 0.0
C458 C 0.03154 0.88295 0.15689 0.0
C459 C 0.04719 0.88295 0.09334 0.0
C460 C 0.05935 0.85991 0.08245 0.0
C461 C 0.05561 0.83717 0.134 0.0
C462 C 0.03919 0.92565 0.90735 0.0
C463 C 0.04034 0.95066 0.92891 0.0
C464 C 0.04323 0.90367 0.95999 0.0
C465 C 0.04829 0.90626 0.03531 0.0
C466 C 0.05103 0.93135 0.05594 0.0
C467 C 0.04722 0.95342 0.00299 0.0
H468 H 0.7144 0.05154 0.00771 0.0
H469 H 0.68112 0.98202 0.13732 0.0
H470 H 0.67524 0.05596 0.93001 0.0
H471 H 0.64226 0.98679 0.0618 0.0
H472 H 0.56687 0.02499 0.99238 0.0
H473 H 0.60867 0.02533 0.05438 0.0
H474 H 0.64691 0.0266 0.84053 0.0
H475 H 0.60512 0.02595 0.77813 0.0
C476 C 0.69898 0.03701 0.01849 0.0
C477 C 0.70053 0.01669 0.07903 0.0
C478 C 0.67662 0.03963 0.97465 0.0
C479 C 0.65564 0.02207 0.99159 0.0
C480 C 0.65796 1.00091 0.04896 0.0
C481 C 0.68021 0.99814 0.0918 0.0
C482 C 0.58416 0.02581 0.95838 0.0
C483 C 0.58273 0.02515 0.88064 0.0
C484 C 0.60803 0.02591 0.99383 0.0
C485 C 0.63086 0.02577 0.95203 0.0
C486 C 0.62954 0.02676 0.87373 0.0
C487 C 0.60564 0.02626 0.83833 0.0
H488 H 0.48646 0.68904 0.04145 0.0
H489 H 0.55118 0.65672 0.16926 0.0
H490 H 0.48582 0.652 0.97023 0.0
H491 H 0.54987 0.6195 0.10187 0.0
H492 H 0.55728 0.56744 0.92651 0.0
H493 H 0.55812 0.60657 0.98484 0.0
H494 H 0.47502 0.60543 0.98922 0.0
H495 H 0.47416 0.56643 0.92666 0.0
C496 C 0.50075 0.67423 0.05337 0.0
C497 C 0.51882 0.67563 0.1108 0.0
C498 C 0.50014 0.65285 0.01364 0.0
C499 C 0.51765 0.63264 0.03075 0.0
C500 C 0.53627 0.63475 0.0864 0.0
C501 C 0.53696 0.65604 0.12542 0.0
C502 C 0.53909 0.57529 0.94032 0.0
C503 C 0.51561 0.56364 0.92239 0.0
C504 C 0.5396 0.59782 0.97398 0.0
C505 C 0.51665 0.60917 0.99202 0.0
C506 C 0.49306 0.59738 0.97509 0.0
C507 C 0.49255 0.57484 0.94033 0.0
H508 H 0.8489 0.5114 0.11054 0.0
H509 H 0.88038 0.45034 0.27099 0.0
H510 H 0.88637 0.51044 0.02989 0.0
H511 H 0.91824 0.44961 0.18964 0.0
H512 H 0.97069 0.53138 0.98379 0.0
H513 H 0.93364 0.52439 0.06721 0.0
H514 H 0.9312 0.44262 0.04523 0.0
H515 H 0.96849 0.44952 0.96005 0.0
C516 C 0.86348 0.49727 0.12758 0.0
C517 C 0.86181 0.48102 0.19716 0.0
C518 C 0.88501 0.49692 0.0818 0.0
C519 C 0.9052 0.48022 0.10444 0.0
C520 C 0.90286 0.46266 0.17136 0.0
C521 C 0.88133 0.46317 0.21775 0.0
C522 C 0.96257 0.51179 0.99726 0.0
C523 C 0.97231 0.49105 0.96447 0.0
C524 C 0.94128 0.50787 0.04473 0.0
C525 C 0.9294 0.48311 0.06106 0.0
C526 C 0.94006 0.46191 0.03279 0.0
C527 C 0.96136 0.46588 0.98437 0.0
H528 H 0.06083 0.22442 0.13361 0.0
H529 H 0.98101 0.21463 0.07756 0.0
H530 H 0.0725 0.1941 0.04786 0.0
H531 H 0.99229 0.18375 0.9939 0.0
H532 H 0.01834 0.12479 0.85133 0.0
H533 H 0.01238 0.16731 0.89132 0.0
H534 H 0.06652 0.14783 0.07175 0.0
H535 H 0.07253 0.10576 0.03165 0.0
C536 C 0.04593 0.21692 0.09972 0.0
C537 C 0.02002 0.22182 0.11236 0.0
C538 C 0.05251 0.19902 0.05186 0.0
C539 C 0.03326 0.18567 0.01595 0.0
C540 C 1.00769 0.19346 0.0206 0.0
C541 C 1.00117 0.21143 0.06811 0.0
C542 C 0.02898 0.12962 0.89947 0.0
C543 C 0.04582 0.11167 0.93846 0.0
C544 C 0.02567 0.15409 0.9222 0.0
C545 C 0.03907 0.16125 0.98458 0.0
C546 C 0.05632 0.14346 0.02231 0.0
C547 C 0.05967 0.1191 -0.00046 0.0
H548 H 0.31523 0.05051 0.24033 0.0
H549 H 0.3171 0.96931 0.21446 0.0
H550 H 0.34925 0.06047 0.1455 0.0
H551 H 0.35118 0.97899 0.12032 0.0
H552 H 0.41042 1.00623 0.93718 0.0
H553 H 0.36841 1.00108 -0.00124 0.0
H554 H 0.39485 0.04965 0.16092 0.0
H555 H 0.43677 0.05451 0.10063 0.0
C556 C 0.32201 0.03503 0.21144 0.0
C557 C 0.31335 1.00922 0.23379 0.0
C558 C 0.34182 0.04061 0.15821 0.0
C559 C 0.35331 0.02044 0.12641 0.0
C560 C 0.34275 0.99501 0.14332 0.0
C561 C 0.32305 0.98945 0.1968 0.0
C562 C 0.4074 0.01573 0.98616 0.0
C563 C 0.42726 0.03073 0.01387 0.0
C564 C 0.38319 0.0129 0.02115 0.0
C565 C 0.37812 0.02516 0.08433 0.0
C566 C 0.39782 0.04043 0.11128 0.0
C567 C 0.42202 0.04313 0.07673 0.0
H568 H 0.55336 0.32474 0.16459 0.0
H569 H 0.47585 0.34077 0.22408 0.0
H570 H 0.55191 0.3594 0.05681 0.0
H571 H 0.47445 0.37596 0.11898 0.0
H572 H 0.47585 0.43622 0.91196 0.0
H573 H 0.47467 0.39386 0.9909 0.0
H574 H 0.5543 0.40539 0.04988 0.0
H575 H 0.55569 0.44723 0.96863 0.0
C576 C 0.53561 0.33491 0.15236 0.0
C577 C 0.51458 0.32989 0.20164 0.0
C578 C 0.53492 0.35519 0.09176 0.0
C579 C 0.51329 0.37101 0.08004 0.0
C580 C 0.49141 0.36423 0.12554 0.0
C581 C 0.49207 0.34388 0.18561 0.0
C582 C 0.4931 0.42972 0.94192 0.0
C583 C 0.51582 0.44523 0.93443 0.0
C584 C 0.49243 0.40536 0.98718 0.0
C585 C 0.51441 0.39597 0.02673 0.0
C586 C 0.53713 0.41157 0.01907 0.0
C587 C 0.53786 0.4358 0.97323 0.0
H588 H 0.18298 0.47583 0.18469 0.0
H589 H 0.20403 0.5514 0.06445 0.0
H590 H 0.14988 0.47037 0.09166 0.0
H591 H 0.17137 0.54587 0.96964 0.0
H592 H 0.08461 0.54779 0.91793 0.0
H593 H 0.12547 0.5483 0.983 0.0
H594 H 0.13403 0.46672 0.96644 0.0
H595 H 0.09262 0.46609 0.90203 0.0
C596 C 0.18149 0.4906 0.13573 0.0
C597 C 0.19622 0.51389 0.13109 0.0
C598 C 0.16234 0.48761 0.08264 0.0
C599 C 0.1575 0.50795 0.02399 0.0
C600 C 0.17418 0.53006 0.01506 0.0
C601 C 0.19328 0.53305 0.06837 0.0
C602 C 0.09517 0.52992 0.92791 0.0
C603 C 0.08519 0.50686 0.90508 0.0
C604 C 0.11885 0.5303 0.96448 0.0
C605 C 0.13331 0.50762 0.97929 0.0
C606 C 0.12341 0.48453 0.95614 0.0
C607 C 0.09964 0.48416 0.91932 0.0
H608 H 0.97301 0.79601 0.43053 0.0
H609 H 0.0527 0.8065 0.48695 0.0
H610 H 0.96099 0.82634 0.51587 0.0
H611 H 0.04107 0.83738 0.57027 0.0
H612 H 0.9602 0.91469 0.53199 0.0
H613 H 0.9666 0.87266 0.49195 0.0
H614 H 0.02071 0.85364 0.67272 0.0
H615 H 0.01436 0.8961 0.71262 0.0
C616 C 0.98781 0.80367 0.46445 0.0
C617 C 0.01378 0.79894 0.45207 0.0
C618 C 0.98103 0.82157 0.51206 0.0
C619 C 1.00013 0.83511 0.548 0.0
C620 C 0.02578 0.82752 0.54356 0.0
C621 C 0.0325 0.80954 0.49627 0.0
C622 C 0.97314 0.90145 0.56417 0.0
C623 C 0.98687 0.90901 0.6253 0.0
C624 C 0.97671 0.87712 0.54144 0.0
C625 C 0.99407 0.85948 0.57928 0.0
C626 C 1.00735 0.86674 0.64175 0.0
C627 C 1.0038 0.89119 0.66443 0.0
H628 H 0.71769 0.04614 0.35283 0.0
H629 H 0.72132 0.96333 0.35229 0.0
H630 H 0.68302 0.03908 0.44588 0.0
H631 H 0.68673 0.95605 0.4458 0.0
H632 H 0.59836 0.96271 0.47265 0.0
H633 H 0.64115 0.96653 0.41821 0.0
H634 H 0.66419 0.01994 0.57083 0.0
H635 H 0.62135 0.01574 0.62717 0.0
C636 C 0.71213 0.02634 0.37625 0.0
C637 C 0.72239 1.00526 0.34622 0.0
C638 C 0.69204 0.02227 0.42894 0.0
C639 C 0.68171 0.99703 0.45194 0.0
C640 C 0.69397 0.97576 0.42816 0.0
C641 C 0.71415 0.97985 0.37581 0.0
C642 C 0.6125 0.97495 0.4959 0.0
C643 C 0.60604 0.98888 0.55469 0.0
C644 C 0.63721 0.97706 0.46467 0.0
C645 C 0.65625 0.9933 0.49075 0.0
C646 C 0.64996 1.00726 0.54945 0.0
C647 C 0.62524 1.00497 0.58135 0.0
H648 H 0.47506 0.6819 0.36989 0.0
H649 H 0.55635 0.69732 0.38837 0.0
H650 H 0.47701 0.64664 0.47381 0.0
H651 H 0.55849 0.66273 0.49613 0.0
H652 H 0.55979 0.57491 0.59001 0.0
H653 H 0.55833 0.61727 0.51059 0.0
H654 H 0.48223 0.62809 0.59604 0.0
H655 H 0.48318 0.58528 0.67061 0.0
C656 C 0.49309 0.6787 0.39957 0.0
C657 C 0.51545 0.69253 0.37198 0.0
C658 C 0.49436 0.65824 0.45909 0.0
C659 C 0.51807 0.65126 0.4931 0.0
C660 C 0.54001 0.66699 0.47024 0.0
C661 C 0.53874 0.6873 0.4098 0.0
C662 C 0.54276 0.58638 0.59121 0.0
C663 C 0.52141 0.57653 0.63513 0.0
C664 C 0.54199 0.61088 0.54651 0.0
C665 C 0.52006 0.62633 0.54618 0.0
C666 C 0.49919 0.61669 0.59283 0.0
C667 C 0.49973 0.59205 0.63583 0.0
H668 H 0.83595 0.46429 0.5039 0.0
H669 H 0.85151 0.54334 0.40046 0.0
H670 H 0.86883 0.46905 0.59852 0.0
H671 H 0.88503 0.54807 0.49282 0.0
H672 H 0.94373 0.55036 0.67994 0.0
H673 H 0.90212 0.54925 0.61681 0.0
H674 H 0.91436 0.46965 0.58351 0.0
H675 H 0.95531 0.47057 0.64769 0.0
C676 C 0.84556 0.4831 0.50381 0.0
C677 C 0.84096 0.50357 0.44578 0.0
C678 C 0.86482 0.48571 0.55688 0.0
C679 C 0.88015 0.50872 0.55217 0.0
C680 C 0.87366 0.53009 0.49859 0.0
C681 C 0.85424 0.52751 0.44593 0.0
C682 C 0.93747 0.53263 0.65918 0.0
C683 C 0.95295 0.51059 0.66871 0.0
C684 C 0.91359 0.53198 0.62306 0.0
C685 C 0.90462 0.50926 0.59568 0.0
C686 C 0.92019 0.48728 0.60545 0.0
C687 C 0.94394 0.48792 0.64153 0.0
loop_
_geom_bond_atom_site_label_1
_geom_bond_atom_site_label_2
_geom_bond_distance
_geom_bond_site_symmetry_2
_ccdc_geom_bond_type
H0 C5 0.929 . S
H1 C10 0.931 . S
H2 C8 0.930 . S
N3 N4 1.234 . S
N3 C7 1.453 . S
N4 N3 1.234 . S
C5 H0 0.929 . S
C5 C6 1.373 . S
C5 C7 1.368 . S
C6 C5 1.373 . S
C6 C10 1.397 . S
C7 N3 1.453 . S
C7 C5 1.368 . S
C7 C8 1.373 . S
C8 H2 0.930 . S
C8 C7 1.373 . S
C8 C9 1.371 . S
C9 C8 1.371 . S
C9 C10 1.383 . S
C10 H1 0.931 . S
C10 C6 1.397 . S
C10 C9 1.383 . S
H11 C16 0.929 . S
H12 C21 0.931 . S
H13 C19 0.930 . S
N14 N15 1.234 . S
N14 C18 1.453 . S
N15 N14 1.234 . S
C16 H11 0.929 . S
C16 C17 1.373 . S
C16 C18 1.368 . S
C17 C16 1.373 . S
C17 C21 1.397 . S
C18 N14 1.453 . S
C18 C16 1.368 . S
C18 C19 1.373 . S
C19 H13 0.930 . S
C19 C18 1.373 . S
C19 C20 1.371 . S
C20 C19 1.371 . S
C20 C21 1.383 . S
C21 H12 0.931 . S
C21 C17 1.397 . S
C21 C20 1.383 . S
H22 C27 0.929 . S
H23 C32 0.931 . S
H24 C30 0.930 1_556 S
N25 N26 1.220 1_545 S
N25 C29 1.453 . S
N26 N25 1.220 1_565 S
C27 H22 0.929 . S
C27 C28 1.378 . S
C27 C29 1.368 . S
C28 C27 1.378 . S
C28 C32 1.389 1_545 S
C29 N25 1.453 . S
C29 C27 1.368 . S
C29 C30 1.373 . S
C30 H24 0.930 1_554 S
C30 C29 1.373 . S
C30 C31 1.373 . S
C31 C30 1.373 . S
C31 C32 1.385 1_545 S
C32 H23 0.931 . S
C32 C28 1.389 1_565 S
C32 C31 1.385 1_565 S
H33 C38 0.929 . S
H34 C43 0.931 . S
H35 C41 0.930 . S
N36 N37 1.234 . S
N36 C40 1.453 . S
N37 N36 1.234 . S
C38 H33 0.929 . S
C38 C39 1.373 . S
C38 C40 1.368 . S
C39 C38 1.373 . S
C39 C43 1.397 . S
C40 N36 1.453 . S
C40 C38 1.368 . S
C40 C41 1.373 . S
C41 H35 0.930 . S
C41 C40 1.373 . S
C41 C42 1.371 . S
C42 C41 1.371 . S
C42 C43 1.383 . S
C43 H34 0.931 . S
C43 C39 1.397 . S
C43 C42 1.383 . S
H44 C49 0.929 . S
H45 C54 0.931 . S
H46 C52 0.930 . S
N47 N48 1.234 . S
N47 C51 1.453 . S
N48 N47 1.234 . S
C49 H44 0.929 . S
C49 C50 1.373 . S
C49 C51 1.368 . S
C50 C49 1.373 . S
C50 C54 1.397 . S
C51 N47 1.453 . S
C51 C49 1.368 . S
C51 C52 1.373 . S
C52 H46 0.930 . S
C52 C51 1.373 . S
C52 C53 1.371 . S
C53 C52 1.371 . S
C53 C54 1.383 . S
C54 H45 0.931 . S
C54 C50 1.397 . S
C54 C53 1.383 . S
H55 C60 0.929 . S
H56 C65 0.931 . S
H57 C63 0.930 . S
N58 N59 1.234 . S
N58 C62 1.453 . S
N59 N58 1.234 . S
C60 H55 0.929 . S
C60 C61 1.373 . S
C60 C62 1.368 . S
C61 C60 1.373 . S
C61 C65 1.397 . S
C62 N58 1.453 . S
C62 C60 1.368 . S
C62 C63 1.373 . S
C63 H57 0.930 . S
C63 C62 1.373 . S
C63 C64 1.371 . S
C64 C63 1.371 . S
C64 C65 1.383 . S
C65 H56 0.931 . S
C65 C61 1.397 . S
C65 C64 1.383 . S
H66 C71 0.929 . S
H67 C76 0.931 . S
H68 C74 0.930 . S
N69 N70 1.230 1_545 S
N69 C73 1.453 . S
N70 N69 1.230 1_565 S
C71 H66 0.929 . S
C71 C72 1.373 . S
C71 C73 1.368 . S
C72 C71 1.373 . S
C72 C76 1.397 1_545 S
C73 N69 1.453 . S
C73 C71 1.368 . S
C73 C74 1.373 . S
C74 H68 0.930 . S
C74 C73 1.373 . S
C74 C75 1.376 . S
C75 C74 1.376 . S
C75 C76 1.377 1_545 S
C76 H67 0.931 . S
C76 C72 1.397 1_565 S
C76 C75 1.377 1_565 S
H77 C82 0.929 . S
H78 C87 0.931 . S
H79 C85 0.930 . S
N80 N81 1.234 . S
N80 C84 1.453 . S
N81 N80 1.234 . S
C82 H77 0.929 . S
C82 C83 1.373 . S
C82 C84 1.368 . S
C83 C82 1.373 . S
C83 C87 1.397 . S
C84 N80 1.453 . S
C84 C82 1.368 . S
C84 C85 1.373 . S
C85 H79 0.930 . S
C85 C84 1.373 . S
C85 C86 1.371 . S
C86 C85 1.371 . S
C86 C87 1.383 . S
C87 H78 0.931 . S
C87 C83 1.397 . S
C87 C86 1.383 . S
Co88 N93 2.057 . S
Co88 O105 2.021 . S
Co88 O108 2.062 . S
Co88 O112 2.117 1_455 S
Co88 O113 2.020 1_545 S
C89 O109 1.259 1_545 S
C89 O112 1.258 . S
Co90 N99 2.057 . S
Co90 O106 2.117 1_655 S
Co90 O107 2.020 1_665 S
Co90 O109 2.021 . S
Co90 O114 2.062 . S
C91 N93 1.316 . S
C91 N94 1.347 1_556 S
C91 H96 0.931 . S
C92 N93 1.375 1_655 S
C92 C95 1.350 1_656 S
C92 H97 0.930 . S
N93 Co88 2.057 . S
N93 C91 1.316 . S
N93 C92 1.375 1_455 S
N94 C91 1.347 1_554 S
N94 C95 1.373 . S
C95 C92 1.350 1_454 S
C95 N94 1.373 . S
C95 H116 0.931 1_455 S
H96 C91 0.931 . S
H97 C92 0.930 . S
C98 O105 1.259 1_565 S
C98 O106 1.258 . S
N99 Co90 2.057 . S
N99 C100 1.316 . S
N99 C101 1.375 1_655 S
C100 N99 1.316 . S
C100 N102 1.347 . S
C100 H111 0.931 . S
C101 N99 1.375 1_455 S
C101 C103 1.350 . S
C101 H110 0.930 . S
N102 C100 1.347 . S
N102 C103 1.373 1_655 S
C103 C101 1.350 . S
C103 N102 1.373 1_455 S
C103 H117 0.931 . S
C104 O107 1.256 . S
C104 O108 1.255 . S
O105 Co88 2.021 . S
O105 C98 1.259 1_545 S
O106 Co90 2.117 1_455 S
O106 C98 1.258 . S
O107 Co90 2.020 1_445 S
O107 C104 1.256 . S
O108 Co88 2.062 . S
O108 C104 1.255 . S
O109 C89 1.259 1_565 S
O109 Co90 2.021 . S
H110 C101 0.930 . S
H111 C100 0.931 . S
O112 Co88 2.117 1_655 S
O112 C89 1.258 . S
O113 Co88 2.020 1_565 S
O113 C115 1.256 . S
O114 Co90 2.062 . S
O114 C115 1.255 1_655 S
C115 O113 1.256 . S
C115 O114 1.255 1_455 S
H116 C95 0.931 1_655 S
H117 C103 0.931 . S
Co118 N123 2.057 1_545 S
Co118 O135 2.021 . S
Co118 O138 2.066 . S
Co118 O142 2.117 1_545 S
Co118 O143 2.020 . S
C119 O139 1.259 . S
C119 O142 1.258 . S
Co120 N129 2.057 1_565 S
Co120 O136 2.117 1_565 S
Co120 O137 2.020 . S
Co120 O139 2.021 . S
Co120 O144 2.064 . S
C121 N123 1.282 1_545 S
C121 N124 1.347 1_556 S
C121 H126 0.931 . S
C122 N123 1.411 1_554 S
C122 C125 1.350 . S
C122 H127 0.930 1_554 S
N123 Co118 2.057 1_565 S
N123 C121 1.282 1_565 S
N123 C122 1.411 1_556 S
N124 C121 1.347 1_554 S
N124 C125 1.373 1_545 S
C125 C122 1.350 . S
C125 N124 1.373 1_565 S
C125 H146 0.931 . S
H126 C121 0.931 . S
H127 C122 0.930 1_556 S
C128 O135 1.259 . S
C128 O136 1.258 . S
N129 Co120 2.057 1_545 S
N129 C130 1.316 1_545 S
N129 C131 1.375 . S
C130 N129 1.316 1_565 S
C130 N132 1.347 . S
C130 H141 0.931 . S
C131 N129 1.375 . S
C131 C133 1.350 . S
C131 H140 0.930 . S
N132 C130 1.347 . S
N132 C133 1.373 1_565 S
C133 C131 1.350 . S
C133 N132 1.373 1_545 S
C133 H147 0.931 . S
C134 O137 1.256 . S
C134 O138 1.246 1_565 S
O135 Co118 2.021 . S
O135 C128 1.259 . S
O136 Co120 2.117 1_545 S
O136 C128 1.258 . S
O137 Co120 2.020 . S
O137 C134 1.256 . S
O138 Co118 2.066 . S
O138 C134 1.246 1_545 S
O139 C119 1.259 . S
O139 Co120 2.021 . S
H140 C131 0.930 . S
H141 C130 0.931 . S
O142 Co118 2.117 1_565 S
O142 C119 1.258 . S
O143 Co118 2.020 . S
O143 C145 1.256 . S
O144 Co120 2.064 . S
O144 C145 1.250 1_565 S
C145 O143 1.256 . S
C145 O144 1.250 1_545 S
H146 C125 0.931 . S
H147 C133 0.931 . S
Co148 N153 2.057 . S
Co148 O165 2.021 . S
Co148 O168 2.062 . S
Co148 O172 2.117 . S
Co148 O173 2.020 . S
C149 O169 1.259 . S
C149 O172 1.258 . S
Co150 N159 2.057 . S
Co150 O166 2.117 . S
Co150 O167 2.020 . S
Co150 O169 2.021 . S
Co150 O174 2.062 . S
C151 N153 1.316 . S
C151 N154 1.347 . S
C151 H156 0.931 . S
C152 N153 1.375 . S
C152 C155 1.350 . S
C152 H157 0.930 . S
N153 Co148 2.057 . S
N153 C151 1.316 . S
N153 C152 1.375 . S
N154 C151 1.347 . S
N154 C155 1.373 . S
C155 C152 1.350 . S
C155 N154 1.373 . S
C155 H176 0.931 . S
H156 C151 0.931 . S
H157 C152 0.930 . S
C158 O165 1.259 . S
C158 O166 1.258 . S
N159 Co150 2.057 . S
N159 C160 1.316 . S
N159 C161 1.375 . S
C160 N159 1.316 . S
C160 N162 1.347 . S
C160 H171 0.931 . S
C161 N159 1.375 . S
C161 C163 1.350 . S
C161 H170 0.930 . S
N162 C160 1.347 . S
N162 C163 1.373 . S
C163 C161 1.350 . S
C163 N162 1.373 . S
C163 H177 0.931 . S
C164 O167 1.256 . S
C164 O168 1.255 . S
O165 Co148 2.021 . S
O165 C158 1.259 . S
O166 Co150 2.117 . S
O166 C158 1.258 . S
O167 Co150 2.020 . S
O167 C164 1.256 . S
O168 Co148 2.062 . S
O168 C164 1.255 . S
O169 C149 1.259 . S
O169 Co150 2.021 . S
H170 C161 0.930 . S
H171 C160 0.931 . S
O172 Co148 2.117 . S
O172 C149 1.258 . S
O173 Co148 2.020 . S
O173 C175 1.256 . S
O174 Co150 2.062 . S
O174 C175 1.255 . S
C175 O173 1.256 . S
C175 O174 1.255 . S
H176 C155 0.931 . S
H177 C163 0.931 . S
Co178 N183 2.057 . S
Co178 O195 2.021 1_455 S
Co178 O198 2.062 1_455 S
Co178 O202 2.117 . S
Co178 O203 2.020 . S
C179 O199 1.259 . S
C179 O202 1.258 . S
Co180 N189 2.057 . S
Co180 O196 2.117 1_455 S
Co180 O197 2.020 1_455 S
Co180 O199 2.021 . S
Co180 O204 2.062 . S
C181 N183 1.316 1_655 S
C181 N184 1.346 . S
C181 H186 0.931 . S
C182 N183 1.375 . S
C182 C185 1.350 . S
C182 H187 0.930 . S
N183 Co178 2.057 . S
N183 C181 1.316 1_455 S
N183 C182 1.375 . S
N184 C181 1.346 . S
N184 C185 1.375 1_655 S
C185 C182 1.350 . S
C185 N184 1.375 1_455 S
C185 H206 0.931 . S
H186 C181 0.931 . S
H187 C182 0.930 . S
C188 O195 1.259 . S
C188 O196 1.258 . S
N189 Co180 2.057 . S
N189 C190 1.316 . S
N189 C191 1.375 1_455 S
C190 N189 1.316 . S
C190 N192 1.347 . S
C190 H201 0.931 . S
C191 N189 1.375 1_655 S
C191 C193 1.350 . S
C191 H200 0.930 . S
N192 C190 1.347 . S
N192 C193 1.373 1_455 S
C193 C191 1.350 . S
C193 N192 1.373 1_655 S
C193 H207 0.931 . S
C194 O197 1.256 . S
C194 O198 1.255 . S
O195 Co178 2.021 1_655 S
O195 C188 1.259 . S
O196 Co180 2.117 1_655 S
O196 C188 1.258 . S
O197 Co180 2.020 1_655 S
O197 C194 1.256 . S
O198 Co178 2.062 1_655 S
O198 C194 1.255 . S
O199 C179 1.259 . S
O199 Co180 2.021 . S
H200 C191 0.930 . S
H201 C190 0.931 . S
O202 Co178 2.117 . S
O202 C179 1.258 . S
O203 Co178 2.020 . S
O203 C205 1.256 . S
O204 Co180 2.062 . S
O204 C205 1.255 . S
C205 O203 1.256 . S
C205 O204 1.255 . S
H206 C185 0.931 . S
H207 C193 0.931 . S
H208 C216 0.950 . S
H209 C221 0.950 . S
H210 C218 0.950 . S
H211 C220 0.950 . S
H212 C222 0.950 . S
H213 C224 0.950 . S
H214 C226 0.950 . S
H215 C227 0.950 . S
C216 H208 0.950 . S
C216 C217 1.387 1_565 S
C216 C218 1.391 . S
C217 C216 1.387 1_545 S
C217 C221 1.391 . S
C218 H210 0.950 . S
C218 C216 1.391 . S
C218 C219 1.400 . S
C219 C218 1.400 . S
C219 C220 1.398 1_565 S
C219 C225 1.491 . S
C220 H211 0.950 . S
C220 C219 1.398 1_545 S
C220 C221 1.391 . S
C221 H209 0.950 . S
C221 C217 1.391 . S
C221 C220 1.391 . S
C222 H212 0.950 . S
C222 C223 1.386 1_545 S
C222 C224 1.391 . S
C223 C222 1.386 1_565 S
C223 C227 1.393 . S
C224 H213 0.950 . S
C224 C222 1.391 . S
C224 C225 1.400 1_545 S
C225 C219 1.491 . S
C225 C224 1.400 1_565 S
C225 C226 1.398 . S
C226 H214 0.950 . S
C226 C225 1.398 . S
C226 C227 1.391 . S
C227 H215 0.950 . S
C227 C223 1.393 . S
C227 C226 1.391 . S
H228 C236 0.950 . S
H229 C241 0.950 . S
H230 C238 0.950 . S
H231 C240 0.950 . S
H232 C242 0.950 . S
H233 C244 0.950 . S
H234 C246 0.950 . S
H235 C247 0.950 . S
C236 H228 0.950 . S
C236 C237 1.386 . S
C236 C238 1.391 . S
C237 C236 1.386 . S
C237 C241 1.393 . S
C238 H230 0.950 . S
C238 C236 1.391 . S
C238 C239 1.400 . S
C239 C238 1.400 . S
C239 C240 1.398 . S
C239 C245 1.491 . S
C240 H231 0.950 . S
C240 C239 1.398 . S
C240 C241 1.391 . S
C241 H229 0.950 . S
C241 C237 1.393 . S
C241 C240 1.391 . S
C242 H232 0.950 . S
C242 C243 1.386 . S
C242 C244 1.391 . S
C243 C242 1.386 . S
C243 C247 1.393 . S
C244 H233 0.950 . S
C244 C242 1.391 . S
C244 C245 1.400 . S
C245 C239 1.491 . S
C245 C244 1.400 . S
C245 C246 1.398 . S
C246 H234 0.950 . S
C246 C245 1.398 . S
C246 C247 1.391 . S
C247 H235 0.950 . S
C247 C243 1.393 . S
C247 C246 1.391 . S
H248 C256 0.950 . S
H249 C261 0.950 . S
H250 C258 0.950 . S
H251 C260 0.950 . S
H252 C262 0.950 . S
H253 C264 0.950 . S
H254 C266 0.950 . S
H255 C267 0.950 . S
C256 H248 0.950 . S
C256 C257 1.386 . S
C256 C258 1.391 . S
C257 C256 1.386 . S
C257 C261 1.393 . S
C258 H250 0.950 . S
C258 C256 1.391 . S
C258 C259 1.400 . S
C259 C258 1.400 . S
C259 C260 1.398 . S
C259 C265 1.491 . S
C260 H251 0.950 . S
C260 C259 1.398 . S
C260 C261 1.391 . S
C261 H249 0.950 . S
C261 C257 1.393 . S
C261 C260 1.391 . S
C262 H252 0.950 . S
C262 C263 1.386 . S
C262 C264 1.391 . S
C263 C262 1.386 . S
C263 C267 1.393 . S
C264 H253 0.950 . S
C264 C262 1.391 . S
C264 C265 1.400 . S
C265 C259 1.491 . S
C265 C264 1.400 . S
C265 C266 1.398 . S
C266 H254 0.950 . S
C266 C265 1.398 . S
C266 C267 1.391 . S
C267 H255 0.950 . S
C267 C263 1.393 . S
C267 C266 1.391 . S
H268 C276 0.950 . S
H269 C281 0.950 . S
H270 C278 0.950 . S
H271 C280 0.950 . S
H272 C282 0.950 . S
H273 C284 0.950 . S
H274 C286 0.950 . S
H275 C287 0.925 1_655 S
C276 H268 0.950 . S
C276 C277 1.386 . S
C276 C278 1.391 . S
C277 C276 1.386 . S
C277 C281 1.393 . S
C278 H270 0.950 . S
C278 C276 1.391 . S
C278 C279 1.400 . S
C279 C278 1.400 . S
C279 C280 1.398 . S
C279 C285 1.491 . S
C280 H271 0.950 . S
C280 C279 1.398 . S
C280 C281 1.391 . S
C281 H269 0.950 . S
C281 C277 1.393 . S
C281 C280 1.391 . S
C282 H272 0.950 . S
C282 C283 1.386 . S
C282 C284 1.391 . S
C283 C282 1.386 . S
C283 C287 1.393 . S
C284 H273 0.950 . S
C284 C282 1.391 . S
C284 C285 1.400 . S
C285 C279 1.491 . S
C285 C284 1.400 . S
C285 C286 1.398 . S
C286 H274 0.950 . S
C286 C285 1.398 . S
C286 C287 1.391 . S
C287 H275 0.925 1_455 S
C287 C283 1.393 . S
C287 C286 1.391 . S
H288 C296 0.950 1_554 S
H289 C301 0.950 . S
H290 C298 0.950 . S
H291 C300 0.950 . S
H292 C302 0.950 . S
H293 C304 0.950 . S
H294 C306 0.950 . S
H295 C307 0.950 . S
C296 H288 0.950 1_556 S
C296 C297 1.368 1_565 S
C296 C298 1.391 . S
C297 C296 1.368 1_545 S
C297 C301 1.409 . S
C298 H290 0.950 . S
C298 C296 1.391 . S
C298 C299 1.400 1_565 S
C299 C298 1.400 1_545 S
C299 C300 1.398 . S
C299 C305 1.491 . S
C300 H291 0.950 . S
C300 C299 1.398 . S
C300 C301 1.391 . S
C301 H289 0.950 . S
C301 C297 1.409 . S
C301 C300 1.391 . S
C302 H292 0.950 . S
C302 C303 1.386 . S
C302 C304 1.391 . S
C303 C302 1.386 . S
C303 C307 1.393 1_545 S
C304 H293 0.950 . S
C304 C302 1.391 . S
C304 C305 1.400 . S
C305 C299 1.491 . S
C305 C304 1.400 . S
C305 C306 1.398 1_545 S
C306 H294 0.950 . S
C306 C305 1.398 1_565 S
C306 C307 1.391 . S
C307 H295 0.950 . S
C307 C303 1.393 1_565 S
C307 C306 1.391 . S
H308 C316 0.950 . S
H309 C321 0.950 . S
H310 C318 0.950 . S
H311 C320 0.950 . S
H312 C322 0.950 . S
H313 C324 0.950 . S
H314 C326 0.958 . S
H315 C327 0.950 . S
C316 H308 0.950 . S
C316 C317 1.386 . S
C316 C318 1.391 . S
C317 C316 1.386 . S
C317 C321 1.393 1_554 S
C318 H310 0.950 . S
C318 C316 1.391 . S
C318 C319 1.400 1_554 S
C319 C318 1.400 1_556 S
C319 C320 1.398 . S
C319 C325 1.491 . S
C320 H311 0.950 . S
C320 C319 1.398 . S
C320 C321 1.391 . S
C321 H309 0.950 . S
C321 C317 1.393 1_556 S
C321 C320 1.391 . S
C322 H312 0.950 . S
C322 C323 1.386 . S
C322 C324 1.391 . S
C323 C322 1.386 . S
C323 C327 1.393 . S
C324 H313 0.950 . S
C324 C322 1.391 . S
C324 C325 1.400 . S
C325 C319 1.491 . S
C325 C324 1.400 . S
C325 C326 1.398 . S
C326 H314 0.958 . S
C326 C325 1.398 . S
C326 C327 1.391 . S
C327 H315 0.950 . S
C327 C323 1.393 . S
C327 C326 1.391 . S
H328 C336 0.950 . S
H329 C341 0.950 . S
H330 C338 0.950 . S
H331 C340 0.950 . S
H332 C342 0.950 . S
H333 C344 0.950 . S
H334 C346 0.946 1_554 S
H335 C347 0.950 . S
C336 H328 0.950 . S
C336 C337 1.386 . S
C336 C338 1.391 . S
C337 C336 1.386 . S
C337 C341 1.393 . S
C338 H330 0.950 . S
C338 C336 1.391 . S
C338 C339 1.400 . S
C339 C338 1.400 . S
C339 C340 1.398 1_554 S
C339 C345 1.491 1_554 S
C340 H331 0.950 . S
C340 C339 1.398 1_556 S
C340 C341 1.391 1_556 S
C341 H329 0.950 . S
C341 C337 1.393 . S
C341 C340 1.391 1_554 S
C342 H332 0.950 . S
C342 C343 1.386 . S
C342 C344 1.391 . S
C343 C342 1.386 . S
C343 C347 1.393 . S
C344 H333 0.950 . S
C344 C342 1.391 . S
C344 C345 1.400 . S
C345 C339 1.491 1_556 S
C345 C344 1.400 . S
C345 C346 1.400 . S
C346 H334 0.946 1_556 S
C346 C345 1.400 . S
C346 C347 1.393 . S
C347 H335 0.950 . S
C347 C343 1.393 . S
C347 C346 1.393 . S
H348 C356 0.950 . S
H349 C361 0.950 . S
H350 C358 0.950 . S
H351 C360 0.950 . S
H352 C362 0.950 . S
H353 C364 0.950 1_455 S
H354 C366 0.950 . S
H355 C367 0.950 . S
C356 H348 0.950 . S
C356 C357 1.386 . S
C356 C358 1.391 . S
C357 C356 1.386 . S
C357 C361 1.393 1_554 S
C358 H350 0.950 . S
C358 C356 1.391 . S
C358 C359 1.400 1_554 S
C359 C358 1.400 1_556 S
C359 C360 1.398 . S
C359 C365 1.491 . S
C360 H351 0.950 . S
C360 C359 1.398 . S
C360 C361 1.391 . S
C361 H349 0.950 . S
C361 C357 1.393 1_556 S
C361 C360 1.391 . S
C362 H352 0.950 . S
C362 C363 1.386 1_455 S
C362 C364 1.391 1_455 S
C363 C362 1.386 1_655 S
C363 C367 1.393 . S
C364 H353 0.950 1_655 S
C364 C362 1.391 1_655 S
C364 C365 1.400 . S
C365 C359 1.491 . S
C365 C364 1.400 . S
C365 C366 1.398 . S
C366 H354 0.950 . S
C366 C365 1.398 . S
C366 C367 1.391 . S
C367 H355 0.950 . S
C367 C363 1.393 . S
C367 C366 1.391 . S
H368 C376 0.950 . S
H369 C381 0.950 . S
H370 C378 0.950 . S
H371 C380 0.950 . S
H372 C382 0.950 . S
H373 C384 0.950 . S
H374 C386 0.950 . S
H375 C387 0.950 1_655 S
C376 H368 0.950 . S
C376 C377 1.386 . S
C376 C378 1.391 . S
C377 C376 1.386 . S
C377 C381 1.393 . S
C378 H370 0.950 . S
C378 C376 1.391 . S
C378 C379 1.400 . S
C379 C378 1.400 . S
C379 C380 1.398 . S
C379 C385 1.491 . S
C380 H371 0.950 . S
C380 C379 1.398 . S
C380 C381 1.391 . S
C381 H369 0.950 . S
C381 C377 1.393 . S
C381 C380 1.391 . S
C382 H372 0.950 . S
C382 C383 1.386 . S
C382 C384 1.391 . S
C383 C382 1.386 . S
C383 C387 1.393 . S
C384 H373 0.950 . S
C384 C382 1.391 . S
C384 C385 1.400 . S
C385 C379 1.491 . S
C385 C384 1.400 . S
C385 C386 1.398 . S
C386 H374 0.950 . S
C386 C385 1.398 . S
C386 C387 1.391 . S
C387 H375 0.950 1_455 S
C387 C383 1.393 . S
C387 C386 1.391 . S
H388 C396 0.950 . S
H389 C401 0.950 . S
H390 C398 0.950 . S
H391 C400 0.950 . S
H392 C402 0.950 . S
H393 C404 0.950 . S
H394 C406 0.950 . S
H395 C407 0.950 . S
C396 H388 0.950 . S
C396 C397 1.364 1_565 S
C396 C398 1.391 . S
C397 C396 1.364 1_545 S
C397 C401 1.415 . S
C398 H390 0.950 . S
C398 C396 1.391 . S
C398 C399 1.400 . S
C399 C398 1.400 . S
C399 C400 1.398 1_565 S
C399 C405 1.491 . S
C400 H391 0.950 . S
C400 C399 1.398 1_545 S
C400 C401 1.391 . S
C401 H389 0.950 . S
C401 C397 1.415 . S
C401 C400 1.391 . S
C402 H392 0.950 . S
C402 C403 1.386 1_545 S
C402 C404 1.391 . S
C403 C402 1.386 1_565 S
C403 C407 1.393 . S
C404 H393 0.950 . S
C404 C402 1.391 . S
C404 C405 1.400 1_545 S
C405 C399 1.491 . S
C405 C404 1.400 1_565 S
C405 C406 1.398 . S
C406 H394 0.950 . S
C406 C405 1.398 . S
C406 C407 1.391 . S
C407 H395 0.950 . S
C407 C403 1.393 . S
C407 C406 1.391 . S
H408 C416 0.950 . S
H409 C421 0.950 . S
H410 C418 0.950 . S
H411 C420 0.950 . S
H412 C422 0.950 . S
H413 C424 0.950 . S
H414 C426 0.950 . S
H415 C427 0.950 . S
C416 H408 0.950 . S
C416 C417 1.386 . S
C416 C418 1.391 . S
C417 C416 1.386 . S
C417 C421 1.393 . S
C418 H410 0.950 . S
C418 C416 1.391 . S
C418 C419 1.400 . S
C419 C418 1.400 . S
C419 C420 1.398 . S
C419 C425 1.491 . S
C420 H411 0.950 . S
C420 C419 1.398 . S
C420 C421 1.391 . S
C421 H409 0.950 . S
C421 C417 1.393 . S
C421 C420 1.391 . S
C422 H412 0.950 . S
C422 C423 1.386 . S
C422 C424 1.391 . S
C423 C422 1.386 . S
C423 C427 1.393 . S
C424 H413 0.950 . S
C424 C422 1.391 . S
C424 C425 1.400 . S
C425 C419 1.491 . S
C425 C424 1.400 . S
C425 C426 1.398 . S
C426 H414 0.950 . S
C426 C425 1.398 . S
C426 C427 1.391 . S
C427 H415 0.950 . S
C427 C423 1.393 . S
C427 C426 1.391 . S
H428 C436 0.950 . S
H429 C441 0.950 . S
H430 C438 0.950 . S
H431 C440 0.950 . S
H432 C442 0.950 . S
H433 C444 0.950 . S
H434 C446 0.950 . S
H435 C447 0.950 . S
C436 H428 0.950 . S
C436 C437 1.386 . S
C436 C438 1.391 . S
C437 C436 1.386 . S
C437 C441 1.393 . S
C438 H430 0.950 . S
C438 C436 1.391 . S
C438 C439 1.400 . S
C439 C438 1.400 . S
C439 C440 1.398 . S
C439 C445 1.491 . S
C440 H431 0.950 . S
C440 C439 1.398 . S
C440 C441 1.391 . S
C441 H429 0.950 . S
C441 C437 1.393 . S
C441 C440 1.391 . S
C442 H432 0.950 . S
C442 C443 1.386 . S
C442 C444 1.391 . S
C443 C442 1.386 . S
C443 C447 1.393 . S
C444 H433 0.950 . S
C444 C442 1.391 . S
C444 C445 1.400 . S
C445 C439 1.491 . S
C445 C444 1.400 . S
C445 C446 1.398 . S
C446 H434 0.950 . S
C446 C445 1.398 . S
C446 C447 1.391 . S
C447 H435 0.950 . S
C447 C443 1.393 . S
C447 C446 1.391 . S
H448 C456 0.949 1_556 S
H449 C461 0.950 . S
H450 C458 0.950 . S
H451 C460 0.951 1_455 S
H452 C462 0.950 . S
H453 C464 0.950 . S
H454 C466 0.950 . S
H455 C467 0.950 . S
C456 H448 0.949 1_554 S
C456 C457 1.386 . S
C456 C458 1.391 1_554 S
C457 C456 1.386 . S
C457 C461 1.393 . S
C458 H450 0.950 . S
C458 C456 1.391 1_556 S
C458 C459 1.400 . S
C459 C458 1.400 . S
C459 C460 1.398 1_556 S
C459 C465 1.491 . S
C460 H451 0.951 1_655 S
C460 C459 1.398 1_554 S
C460 C461 1.391 . S
C461 H449 0.950 . S
C461 C457 1.393 . S
C461 C460 1.391 . S
C462 H452 0.950 . S
C462 C463 1.386 . S
C462 C464 1.391 . S
C463 C462 1.386 . S
C463 C467 1.393 1_455 S
C464 H453 0.950 . S
C464 C462 1.391 . S
C464 C465 1.400 1_455 S
C465 C459 1.491 . S
C465 C464 1.400 1_655 S
C465 C466 1.398 . S
C466 H454 0.950 . S
C466 C465 1.398 . S
C466 C467 1.391 . S
C467 H455 0.950 . S
C467 C463 1.393 1_655 S
C467 C466 1.391 . S
H468 C476 0.950 . S
H469 C481 0.950 . S
H470 C478 0.950 . S
H471 C480 0.950 . S
H472 C482 0.950 . S
H473 C484 0.950 1_554 S
H474 C486 0.950 . S
H475 C487 0.950 . S
C476 H468 0.950 . S
C476 C477 1.372 1_545 S
C476 C478 1.391 . S
C477 C476 1.372 1_565 S
C477 C481 1.406 1_556 S
C478 H470 0.950 . S
C478 C476 1.391 . S
C478 C479 1.400 . S
C479 C478 1.400 . S
C479 C480 1.398 1_546 S
C479 C485 1.491 . S
C480 H471 0.950 . S
C480 C479 1.398 1_564 S
C480 C481 1.391 . S
C481 H469 0.950 . S
C481 C477 1.406 1_554 S
C481 C480 1.391 . S
C482 H472 0.950 . S
C482 C483 1.386 1_565 S
C482 C484 1.391 . S
C483 C482 1.386 1_545 S
C483 C487 1.393 . S
C484 H473 0.950 1_556 S
C484 C482 1.391 . S
C484 C485 1.400 1_565 S
C485 C479 1.491 . S
C485 C484 1.400 1_545 S
C485 C486 1.398 . S
C486 H474 0.950 . S
C486 C485 1.398 . S
C486 C487 1.391 . S
C487 H475 0.950 . S
C487 C483 1.393 . S
C487 C486 1.391 . S
H488 C496 0.950 . S
H489 C501 0.950 . S
H490 C498 0.950 . S
H491 C500 0.950 . S
H492 C502 0.950 . S
H493 C504 0.950 . S
H494 C506 0.950 1_554 S
H495 C507 0.950 . S
C496 H488 0.950 . S
C496 C497 1.386 . S
C496 C498 1.391 . S
C497 C496 1.386 . S
C497 C501 1.393 1_554 S
C498 H490 0.950 . S
C498 C496 1.391 . S
C498 C499 1.400 1_554 S
C499 C498 1.400 1_556 S
C499 C500 1.398 . S
C499 C505 1.491 . S
C500 H491 0.950 . S
C500 C499 1.398 . S
C500 C501 1.391 . S
C501 H489 0.950 . S
C501 C497 1.393 1_556 S
C501 C500 1.391 . S
C502 H492 0.950 . S
C502 C503 1.386 . S
C502 C504 1.391 . S
C503 C502 1.386 . S
C503 C507 1.393 . S
C504 H493 0.950 . S
C504 C502 1.391 . S
C504 C505 1.400 . S
C505 C499 1.491 . S
C505 C504 1.400 . S
C505 C506 1.398 . S
C506 H494 0.950 1_556 S
C506 C505 1.398 . S
C506 C507 1.391 . S
C507 H495 0.950 . S
C507 C503 1.393 . S
C507 C506 1.391 . S
H508 C516 0.955 . S
H509 C521 0.950 . S
H510 C518 0.950 . S
H511 C520 0.950 . S
H512 C522 0.950 . S
H513 C524 0.950 . S
H514 C526 0.950 . S
H515 C527 0.950 . S
C516 H508 0.955 . S
C516 C517 1.386 . S
C516 C518 1.391 1_554 S
C517 C516 1.386 . S
C517 C521 1.393 . S
C518 H510 0.950 . S
C518 C516 1.391 1_556 S
C518 C519 1.400 1_556 S
C519 C518 1.400 1_554 S
C519 C520 1.398 . S
C519 C525 1.491 1_554 S
C520 H511 0.950 . S
C520 C519 1.398 . S
C520 C521 1.391 . S
C521 H509 0.950 . S
C521 C517 1.393 . S
C521 C520 1.391 . S
C522 H512 0.950 . S
C522 C523 1.386 . S
C522 C524 1.391 1_556 S
C523 C522 1.386 . S
C523 C527 1.393 . S
C524 H513 0.950 . S
C524 C522 1.391 1_554 S
C524 C525 1.400 1_554 S
C525 C519 1.491 1_556 S
C525 C524 1.400 1_556 S
C525 C526 1.398 . S
C526 H514 0.950 . S
C526 C525 1.398 . S
C526 C527 1.391 . S
C527 H515 0.950 . S
C527 C523 1.393 . S
C527 C526 1.391 . S
H528 C536 0.950 . S
H529 C541 0.950 . S
H530 C538 0.950 . S
H531 C540 0.950 . S
H532 C542 0.950 . S
H533 C544 0.950 . S
H534 C546 0.950 . S
H535 C547 0.950 . S
C536 H528 0.950 . S
C536 C537 1.386 . S
C536 C538 1.391 . S
C537 C536 1.386 . S
C537 C541 1.393 . S
C538 H530 0.950 . S
C538 C536 1.391 . S
C538 C539 1.400 . S
C539 C538 1.400 . S
C539 C540 1.398 . S
C539 C545 1.491 . S
C540 H531 0.950 . S
C540 C539 1.398 . S
C540 C541 1.391 . S
C541 H529 0.950 . S
C541 C537 1.393 . S
C541 C540 1.391 . S
C542 H532 0.950 . S
C542 C543 1.386 . S
C542 C544 1.391 . S
C543 C542 1.386 . S
C543 C547 1.393 . S
C544 H533 0.950 . S
C544 C542 1.391 . S
C544 C545 1.400 . S
C545 C539 1.491 . S
C545 C544 1.400 . S
C545 C546 1.398 . S
C546 H534 0.950 . S
C546 C545 1.398 . S
C546 C547 1.391 . S
C547 H535 0.950 . S
C547 C543 1.393 . S
C547 C546 1.391 . S
H548 C556 0.950 . S
H549 C561 0.950 . S
H550 C558 0.950 . S
H551 C560 0.950 . S
H552 C562 0.950 . S
H553 C564 0.950 . S
H554 C566 0.950 . S
H555 C567 0.950 . S
C556 H548 0.950 . S
C556 C557 1.422 . S
C556 C558 1.391 . S
C557 C556 1.422 . S
C557 C561 1.355 1_545 S
C558 H550 0.950 . S
C558 C556 1.391 . S
C558 C559 1.400 . S
C559 C558 1.400 . S
C559 C560 1.398 1_545 S
C559 C565 1.491 . S
C560 H551 0.950 . S
C560 C559 1.398 1_565 S
C560 C561 1.391 . S
C561 H549 0.950 . S
C561 C557 1.355 1_565 S
C561 C560 1.391 . S
C562 H552 0.950 . S
C562 C563 1.386 1_565 S
C562 C564 1.391 . S
C563 C562 1.386 1_545 S
C563 C567 1.393 . S
C564 H553 0.950 . S
C564 C562 1.391 . S
C564 C565 1.400 1_565 S
C565 C559 1.491 . S
C565 C564 1.400 1_545 S
C565 C566 1.398 . S
C566 H554 0.950 . S
C566 C565 1.398 . S
C566 C567 1.391 . S
C567 H555 0.950 . S
C567 C563 1.393 . S
C567 C566 1.391 . S
H568 C576 0.950 . S
H569 C581 0.950 . S
H570 C578 0.950 . S
H571 C580 0.950 . S
H572 C582 0.950 . S
H573 C584 0.950 . S
H574 C586 0.950 . S
H575 C587 0.950 . S
C576 H568 0.950 . S
C576 C577 1.386 . S
C576 C578 1.391 . S
C577 C576 1.386 . S
C577 C581 1.393 . S
C578 H570 0.950 . S
C578 C576 1.391 . S
C578 C579 1.400 . S
C579 C578 1.400 . S
C579 C580 1.398 . S
C579 C585 1.491 . S
C580 H571 0.950 . S
C580 C579 1.398 . S
C580 C581 1.391 . S
C581 H569 0.950 . S
C581 C577 1.393 . S
C581 C580 1.391 . S
C582 H572 0.950 . S
C582 C583 1.386 . S
C582 C584 1.391 1_556 S
C583 C582 1.386 . S
C583 C587 1.393 1_556 S
C584 H573 0.950 . S
C584 C582 1.391 1_554 S
C584 C585 1.400 . S
C585 C579 1.491 . S
C585 C584 1.400 . S
C585 C586 1.398 . S
C586 H574 0.950 . S
C586 C585 1.398 . S
C586 C587 1.391 . S
C587 H575 0.950 . S
C587 C583 1.393 1_554 S
C587 C586 1.391 . S
H588 C596 0.950 . S
H589 C601 0.950 . S
H590 C598 0.950 . S
H591 C600 0.950 . S
H592 C602 0.950 . S
H593 C604 0.950 . S
H594 C606 0.950 . S
H595 C607 0.950 . S
C596 H588 0.950 . S
C596 C597 1.386 . S
C596 C598 1.391 . S
C597 C596 1.386 . S
C597 C601 1.393 . S
C598 H590 0.950 . S
C598 C596 1.391 . S
C598 C599 1.400 . S
C599 C598 1.400 . S
C599 C600 1.398 . S
C599 C605 1.491 . S
C600 H591 0.950 . S
C600 C599 1.398 . S
C600 C601 1.391 . S
C601 H589 0.950 . S
C601 C597 1.393 . S
C601 C600 1.391 . S
C602 H592 0.950 . S
C602 C603 1.386 1_554 S
C602 C604 1.391 . S
C603 C602 1.386 1_556 S
C603 C607 1.393 . S
C604 H593 0.950 . S
C604 C602 1.391 . S
C604 C605 1.400 . S
C605 C599 1.491 . S
C605 C604 1.400 . S
C605 C606 1.398 . S
C606 H594 0.950 . S
C606 C605 1.398 . S
C606 C607 1.391 1_554 S
C607 H595 0.950 . S
C607 C603 1.393 . S
C607 C606 1.391 1_556 S
H608 C616 0.950 . S
H609 C621 0.950 . S
H610 C618 0.950 . S
H611 C620 0.950 . S
H612 C622 0.950 . S
H613 C624 0.950 . S
H614 C626 0.950 . S
H615 C627 0.950 . S
C616 H608 0.950 . S
C616 C617 1.386 . S
C616 C618 1.391 . S
C617 C616 1.386 . S
C617 C621 1.393 . S
C618 H610 0.950 . S
C618 C616 1.391 . S
C618 C619 1.400 . S
C619 C618 1.400 . S
C619 C620 1.398 . S
C619 C625 1.491 . S
C620 H611 0.950 . S
C620 C619 1.398 . S
C620 C621 1.391 . S
C621 H609 0.950 . S
C621 C617 1.393 . S
C621 C620 1.391 . S
C622 H612 0.950 . S
C622 C623 1.386 . S
C622 C624 1.391 . S
C623 C622 1.386 . S
C623 C627 1.393 . S
C624 H613 0.950 . S
C624 C622 1.391 . S
C624 C625 1.400 . S
C625 C619 1.491 . S
C625 C624 1.400 . S
C625 C626 1.398 . S
C626 H614 0.950 . S
C626 C625 1.398 . S
C626 C627 1.391 . S
C627 H615 0.950 . S
C627 C623 1.393 . S
C627 C626 1.391 . S
H628 C636 0.950 . S
H629 C641 0.950 . S
H630 C638 0.950 . S
H631 C640 0.950 . S
H632 C642 0.950 . S
H633 C644 0.950 . S
H634 C646 0.950 . S
H635 C647 0.950 . S
C636 H628 0.950 . S
C636 C637 1.360 1_545 S
C636 C638 1.391 . S
C637 C636 1.360 1_565 S
C637 C641 1.417 . S
C638 H630 0.950 . S
C638 C636 1.391 . S
C638 C639 1.400 1_545 S
C639 C638 1.400 1_565 S
C639 C640 1.398 . S
C639 C645 1.491 . S
C640 H631 0.950 . S
C640 C639 1.398 . S
C640 C641 1.391 . S
C641 H629 0.950 . S
C641 C637 1.417 . S
C641 C640 1.391 . S
C642 H632 0.950 . S
C642 C643 1.386 . S
C642 C644 1.391 . S
C643 C642 1.386 . S
C643 C647 1.393 1_565 S
C644 H633 0.950 . S
C644 C642 1.391 . S
C644 C645 1.400 . S
C645 C639 1.491 . S
C645 C644 1.400 . S
C645 C646 1.398 1_565 S
C646 H634 0.950 . S
C646 C645 1.398 1_545 S
C646 C647 1.391 . S
C647 H635 0.950 . S
C647 C643 1.393 1_545 S
C647 C646 1.391 . S
H648 C656 0.950 . S
H649 C661 0.950 . S
H650 C658 0.950 . S
H651 C660 0.950 . S
H652 C662 0.950 . S
H653 C664 0.950 . S
H654 C666 0.950 . S
H655 C667 0.950 . S
C656 H648 0.950 . S
C656 C657 1.386 . S
C656 C658 1.391 . S
C657 C656 1.386 . S
C657 C661 1.393 . S
C658 H650 0.950 . S
C658 C656 1.391 . S
C658 C659 1.400 . S
C659 C658 1.400 . S
C659 C660 1.398 . S
C659 C665 1.491 . S
C660 H651 0.950 . S
C660 C659 1.398 . S
C660 C661 1.391 . S
C661 H649 0.950 . S
C661 C657 1.393 . S
C661 C660 1.391 . S
C662 H652 0.950 . S
C662 C663 1.386 . S
C662 C664 1.391 . S
C663 C662 1.386 . S
C663 C667 1.393 . S
C664 H653 0.950 . S
C664 C662 1.391 . S
C664 C665 1.400 . S
C665 C659 1.491 . S
C665 C664 1.400 . S
C665 C666 1.398 . S
C666 H654 0.950 . S
C666 C665 1.398 . S
C666 C667 1.391 . S
C667 H655 0.950 . S
C667 C663 1.393 . S
C667 C666 1.391 . S
H668 C676 0.950 . S
H669 C681 0.950 . S
H670 C678 0.950 . S
H671 C680 0.950 . S
H672 C682 0.950 . S
H673 C684 0.950 . S
H674 C686 0.950 . S
H675 C687 0.950 . S
C676 H668 0.950 . S
C676 C677 1.386 . S
C676 C678 1.391 . S
C677 C676 1.386 . S
C677 C681 1.393 . S
C678 H670 0.950 . S
C678 C676 1.391 . S
C678 C679 1.400 . S
C679 C678 1.400 . S
C679 C680 1.398 . S
C679 C685 1.491 . S
C680 H671 0.950 . S
C680 C679 1.398 . S
C680 C681 1.391 . S
C681 H669 0.950 . S
C681 C677 1.393 . S
C681 C680 1.391 . S
C682 H672 0.950 . S
C682 C683 1.386 . S
C682 C684 1.391 . S
C683 C682 1.386 . S
C683 C687 1.393 . S
C684 H673 0.950 . S
C684 C682 1.391 . S
C684 C685 1.400 . S
C685 C679 1.491 . S
C685 C684 1.400 . S
C685 C686 1.398 . S
C686 H674 0.950 . S
C686 C685 1.398 . S
C686 C687 1.391 . S
C687 H675 0.950 . S
C687 C683 1.393 . S
C687 C686 1.391 . S
C217 N70 1.645 1_545 S
C223 C98 1.669 . S
C243 C128 1.801 . S
C237 N81 1.767 . S
C263 N162 1.375 . S
C257 N48 1.388 . S
C283 N192 1.390 . S
C277 N59 1.395 . S
C303 C89 1.668 . S
C297 N26 1.648 1_546 S
C317 N37 1.782 . S
C323 C119 1.805 . S
C337 N4 1.372 . S
C343 N154 1.348 . S
C357 N15 1.398 . S
C363 N184 1.387 . S
C383 C104 0.384 . S
C377 C64 0.463 . S
C403 C134 0.756 . S
C397 C75 0.740 . S
C423 C175 1.028 . S
C417 C86 1.005 . S
C437 C53 0.601 . S
C443 C205 0.585 . S
C457 C20 0.490 . S
C463 C115 0.413 . S
C483 C145 0.763 . S
C477 C31 0.759 1_566 S
C503 C164 1.039 . S
C497 C42 1.025 . S
C517 C9 0.581 . S
C523 C194 0.585 . S
C537 C61 1.461 . S
C543 N94 1.476 . S
C557 C72 1.424 . S
C563 N124 1.425 . S
C583 C149 1.656 . S
C577 C83 1.633 . S
C603 C179 1.589 . S
C597 C50 1.550 . S
C617 C17 1.451 . S
C623 N102 1.484 . S
C643 N132 1.426 . S
C637 C28 1.429 1_565 S
C663 C158 1.653 . S
C657 C39 1.612 . S
C677 C6 1.561 . S
C683 C188 1.590 . S
