# Generated by pormake.
# Topology pto, (3,4)-cn, num edge types: 1
# Building blocks:
#     Node 0, Type 0, BuildingBlock: WUSLED_clean_sbu_0, # of connection points: 3
#     Node 1, Type 0, BuildingBlock: WUSLED_clean_sbu_0, # of connection points: 3
#     Node 2, Type 0, BuildingBlock: WUSLED_clean_sbu_0, # of connection points: 3
#     Node 3, Type 0, BuildingBlock: WUSLED_clean_sbu_0, # of connection points: 3
#     Node 4, Type 0, BuildingBlock: WUSLED_clean_sbu_0, # of connection points: 3
#     Node 5, Type 0, BuildingBlock: WUSLED_clean_sbu_0, # of connection points: 3
#     Node 6, Type 0, BuildingBlock: WUSLED_clean_sbu_0, # of connection points: 3
#     Node 7, Type 0, BuildingBlock: WUSLED_clean_sbu_0, # of connection points: 3
#     Node 8, Type 1, BuildingBlock: MIFKUJ_clean_linker_1, # of connection points: 4
#     Node 9, Type 1, BuildingBlock: MIFKUJ_clean_linker_1, # of connection points: 4
#     Node 10, Type 1, BuildingBlock: MIFKUJ_clean_linker_1, # of connection points: 4
#     Node 11, Type 1, BuildingBlock: MIFKUJ_clean_linker_1, # of connection points: 4
#     Node 12, Type 1, BuildingBlock: MIFKUJ_clean_linker_1, # of connection points: 4
#     Node 13, Type 1, BuildingBlock: MIFKUJ_clean_linker_1, # of connection points: 4
#     Edge 14, Type (0, 1), BuildingBlock: OJICUG_clean_linker_0, # of connection points: 2
#     Edge 15, Type (0, 1), BuildingBlock: OJICUG_clean_linker_0, # of connection points: 2
#     Edge 16, Type (0, 1), BuildingBlock: OJICUG_clean_linker_0, # of connection points: 2
#     Edge 17, Type (0, 1), BuildingBlock: OJICUG_clean_linker_0, # of connection points: 2
#     Edge 18, Type (0, 1), BuildingBlock: OJICUG_clean_linker_0, # of connection points: 2
#     Edge 19, Type (0, 1), BuildingBlock: OJICUG_clean_linker_0, # of connection points: 2
#     Edge 20, Type (0, 1), BuildingBlock: OJICUG_clean_linker_0, # of connection points: 2
#     Edge 21, Type (0, 1), BuildingBlock: OJICUG_clean_linker_0, # of connection points: 2
#     Edge 22, Type (0, 1), BuildingBlock: OJICUG_clean_linker_0, # of connection points: 2
#     Edge 23, Type (0, 1), BuildingBlock: OJICUG_clean_linker_0, # of connection points: 2
#     Edge 24, Type (0, 1), BuildingBlock: OJICUG_clean_linker_0, # of connection points: 2
#     Edge 25, Type (0, 1), BuildingBlock: OJICUG_clean_linker_0, # of connection points: 2
#     Edge 26, Type (0, 1), BuildingBlock: OJICUG_clean_linker_0, # of connection points: 2
#     Edge 27, Type (0, 1), BuildingBlock: OJICUG_clean_linker_0, # of connection points: 2
#     Edge 28, Type (0, 1), BuildingBlock: OJICUG_clean_linker_0, # of connection points: 2
#     Edge 29, Type (0, 1), BuildingBlock: OJICUG_clean_linker_0, # of connection points: 2
#     Edge 30, Type (0, 1), BuildingBlock: OJICUG_clean_linker_0, # of connection points: 2
#     Edge 31, Type (0, 1), BuildingBlock: OJICUG_clean_linker_0, # of connection points: 2
#     Edge 32, Type (0, 1), BuildingBlock: OJICUG_clean_linker_0, # of connection points: 2
#     Edge 33, Type (0, 1), BuildingBlock: OJICUG_clean_linker_0, # of connection points: 2
#     Edge 34, Type (0, 1), BuildingBlock: OJICUG_clean_linker_0, # of connection points: 2
#     Edge 35, Type (0, 1), BuildingBlock: OJICUG_clean_linker_0, # of connection points: 2
#     Edge 36, Type (0, 1), BuildingBlock: OJICUG_clean_linker_0, # of connection points: 2
#     Edge 37, Type (0, 1), BuildingBlock: OJICUG_clean_linker_0, # of connection points: 2
# Relax obj value: 0.001
# Max RMSD: 0.012
# Mean RMSD: 0.005
data_MOF--net-pto--node1-WUSLED_clean_sbu_0--node2-MIFKUJ_clean_linker_1--edge1-OJICUG_clean_linker_0
_symmetry_space_group_name_H-M    P1
_symmetry_Int_Tables_number       1
_symmetry_cell_setting            triclinic
loop_
_symmetry_equiv_pos_as_xyz
'x, y, z'
_cell_length_a     40.293058
_cell_length_b     59.207406
_cell_length_c     49.942757
_cell_angle_alpha  89.497164
_cell_angle_beta   90.747053
_cell_angle_gamma 90.635002
loop_
_atom_site_label
_atom_site_type_symbol
_atom_site_fract_x
_atom_site_fract_y
_atom_site_fract_z
_atom_type_partial_charge
C0 C 0.23466 0.22948 0.36302 0.0
C1 C 0.26029 0.21425 0.35815 0.0
C2 C 0.23922 0.18879 0.39284 0.0
C3 C 0.26259 0.19412 0.37295 0.0
C4 C 0.21349 0.20414 0.39747 0.0
C5 C 0.21128 0.22427 0.38271 0.0
U6 U 0.25971 0.26711 0.30422 0.0
O7 O 0.22967 0.28876 0.27765 0.0
O8 O 0.26964 0.30374 0.3022 0.0
C9 C 0.24475 0.3074 0.28552 0.0
C10 C 0.23195 0.25073 0.34765 0.0
C11 C 0.22316 0.32644 0.29195 0.0
C12 C 0.17544 0.34228 0.31415 0.0
C13 C 0.19627 0.32396 0.30937 0.0
C14 C 0.20861 0.36571 0.28456 0.0
C15 C 0.18118 0.36333 0.30156 0.0
C16 C 0.22931 0.34745 0.27981 0.0
C17 C 0.32332 0.24574 0.25463 0.0
C18 C 0.33885 0.26717 0.21489 0.0
C19 C 0.36496 0.23132 0.22473 0.0
C20 C 0.34602 0.22905 0.24788 0.0
C21 C 0.36153 0.25035 0.20786 0.0
C22 C 0.31989 0.26487 0.23809 0.0
C23 C 0.30324 0.24282 0.27882 0.0
O24 O 0.2585 0.26384 0.3481 0.0
O25 O 0.21847 0.24889 0.32365 0.0
O26 O 0.27105 0.2411 0.27464 0.0
O27 O 0.3112 0.25611 0.29889 0.0
H28 H 0.27857 0.21798 0.34297 0.0
H29 H 0.28294 0.18288 0.36903 0.0
H30 H 0.19474 0.20047 0.41227 0.0
H31 H 0.19121 0.23577 0.38662 0.0
H32 H 0.15443 0.33981 0.3272 0.0
H33 H 0.19117 0.30783 0.31896 0.0
H34 H 0.21418 0.38174 0.27494 0.0
H35 H 0.25006 0.3497 0.26642 0.0
H36 H 0.33532 0.28191 0.20224 0.0
H37 H 0.38253 0.21823 0.22019 0.0
H38 H 0.34906 0.21422 0.2605 0.0
H39 H 0.30241 0.27792 0.24303 0.0
C40 C 0.23598 0.81311 0.6627 0.0
C41 C 0.25068 0.83234 0.67431 0.0
C42 C 0.24135 0.85384 0.63307 0.0
C43 C 0.25323 0.85254 0.65967 0.0
C44 C 0.22701 0.83441 0.62146 0.0
C45 C 0.22431 0.81426 0.63617 0.0
U46 U 0.2604 0.77549 0.7218 0.0
O47 O 0.22996 0.75431 0.74849 0.0
O48 O 0.26849 0.73878 0.72424 0.0
C49 C 0.24396 0.73549 0.74098 0.0
C50 C 0.23263 0.79185 0.67802 0.0
C51 C 0.22137 0.71643 0.73503 0.0
C52 C 0.17168 0.70049 0.71403 0.0
C53 C 0.19347 0.71882 0.71816 0.0
C54 C 0.20588 0.67725 0.74319 0.0
C55 C 0.17746 0.67954 0.72676 0.0
C56 C 0.22754 0.6955 0.74728 0.0
C57 C 0.32622 0.79634 0.77166 0.0
C58 C 0.33721 0.77753 0.81428 0.0
C59 C 0.37383 0.80755 0.79894 0.0
C60 C 0.3544 0.81 0.77572 0.0
C61 C 0.36537 0.79139 0.81864 0.0
C62 C 0.31785 0.77996 0.79097 0.0
C63 C 0.30582 0.79945 0.74729 0.0
O64 O 0.25863 0.77864 0.67781 0.0
O65 O 0.21958 0.79367 0.70189 0.0
O66 O 0.2738 0.80163 0.75112 0.0
O67 O 0.31263 0.786 0.72736 0.0
H68 H 0.2601 0.83173 0.69472 0.0
H69 H 0.26479 0.86709 0.66909 0.0
H70 H 0.21731 0.83489 0.60114 0.0
H71 H 0.21292 0.79958 0.62687 0.0
H72 H 0.14995 0.70288 0.70138 0.0
H73 H 0.18833 0.73488 0.7085 0.0
H74 H 0.21148 0.66128 0.75288 0.0
H75 H 0.24904 0.69332 0.76027 0.0
H76 H 0.32973 0.7651 0.82911 0.0
H77 H 0.39563 0.81823 0.80137 0.0
H78 H 0.36136 0.82262 0.76092 0.0
H79 H 0.2962 0.76919 0.78812 0.0
C80 C 0.71343 0.79688 0.25676 0.0
C81 C 0.7182 0.77841 0.23988 0.0
C82 C 0.67413 0.79173 0.20994 0.0
C83 C 0.69871 0.77585 0.21666 0.0
C84 C 0.66938 0.8101 0.22714 0.0
C85 C 0.68888 0.81263 0.25031 0.0
U86 U 0.77966 0.77633 0.30619 0.0
O87 O 0.82067 0.79488 0.3258 0.0
O88 O 0.78198 0.7788 0.35016 0.0
C89 C 0.80794 0.79244 0.34977 0.0
C90 C 0.73397 0.79999 0.28103 0.0
C91 C 0.80472 0.8134 0.36514 0.0
C92 C 0.78665 0.85231 0.36854 0.0
C93 C 0.78911 0.83238 0.35387 0.0
C94 C 0.81483 0.83438 0.40609 0.0
C95 C 0.79954 0.85357 0.39483 0.0
C96 C 0.81743 0.8145 0.39134 0.0
C97 C 0.8191 0.71837 0.29256 0.0
C98 C 0.86073 0.69986 0.32053 0.0
C99 C 0.84257 0.68278 0.27885 0.0
C100 C 0.82097 0.70071 0.27421 0.0
C101 C 0.86284 0.68214 0.30199 0.0
C102 C 0.83906 0.7179 0.3158 0.0
C103 C 0.79618 0.73698 0.28673 0.0
O104 O 0.72741 0.78609 0.30097 0.0
O105 O 0.76593 0.80272 0.27697 0.0
O106 O 0.80997 0.75617 0.27917 0.0
O107 O 0.77187 0.73956 0.30369 0.0
H108 H 0.73711 0.76607 0.24459 0.0
H109 H 0.7033 0.76165 0.20375 0.0
H110 H 0.65036 0.82244 0.22284 0.0
H111 H 0.68478 0.82694 0.2632 0.0
H112 H 0.77434 0.86666 0.35941 0.0
H113 H 0.77891 0.83178 0.3337 0.0
H114 H 0.82532 0.83485 0.42616 0.0
H115 H 0.82954 0.80001 0.40037 0.0
H116 H 0.87615 0.69995 0.33845 0.0
H117 H 0.84306 0.66925 0.26441 0.0
H118 H 0.80563 0.70076 0.25622 0.0
H119 H 0.83793 0.73146 0.33017 0.0
C120 C 0.7576 0.20677 0.69286 0.0
C121 C 0.78477 0.20722 0.67554 0.0
C122 C 0.76646 0.17141 0.6561 0.0
C123 C 0.78915 0.18967 0.65726 0.0
C124 C 0.73904 0.17138 0.67328 0.0
C125 C 0.73472 0.18885 0.69145 0.0
U126 U 0.77519 0.26509 0.72445 0.0
O127 O 0.73934 0.28864 0.74159 0.0
O128 O 0.77867 0.2741 0.76698 0.0
C129 C 0.75135 0.28605 0.76601 0.0
C130 C 0.75261 0.22449 0.71284 0.0
C131 C 0.72674 0.28135 0.78707 0.0
C132 C 0.70373 0.25725 0.82211 0.0
C133 C 0.7262 0.26076 0.8013 0.0
C134 C 0.68131 0.29454 0.81424 0.0
C135 C 0.68117 0.27417 0.82893 0.0
C136 C 0.70395 0.29811 0.7936 0.0
C137 C 0.83828 0.30698 0.69651 0.0
C138 C 0.84924 0.34281 0.7185 0.0
C139 C 0.87774 0.33381 0.6776 0.0
C140 C 0.86098 0.313 0.67661 0.0
C141 C 0.8721 0.34898 0.69857 0.0
C142 C 0.83246 0.322 0.71746 0.0
C143 C 0.82087 0.28503 0.69528 0.0
O144 O 0.77746 0.22821 0.72961 0.0
O145 O 0.73866 0.24311 0.70397 0.0
O146 O 0.78898 0.28597 0.68956 0.0
O147 O 0.82778 0.27092 0.71499 0.0
H148 H 0.80268 0.22099 0.67633 0.0
H149 H 0.81062 0.19017 0.64444 0.0
H150 H 0.72073 0.15786 0.6726 0.0
H151 H 0.7135 0.1883 0.70456 0.0
H152 H 0.70396 0.24128 0.83285 0.0
H153 H 0.74332 0.24744 0.79655 0.0
H154 H 0.66448 0.30799 0.81917 0.0
H155 H 0.70397 0.31413 0.78293 0.0
H156 H 0.84399 0.35418 0.73474 0.0
H157 H 0.89547 0.33787 0.66213 0.0
H158 H 0.86583 0.30156 0.66034 0.0
H159 H 0.81489 0.31764 0.73297 0.0
C160 C 0.81426 0.71527 0.74294 0.0
C161 C 0.83496 0.7156 0.72056 0.0
C162 C 0.85707 0.6788 0.73356 0.0
C163 C 0.85618 0.69746 0.71587 0.0
C164 C 0.83604 0.67865 0.75585 0.0
C165 C 0.81491 0.6967 0.76047 0.0
U166 U 0.77594 0.77365 0.72847 0.0
O167 O 0.72398 0.784 0.73279 0.0
O168 O 0.76316 0.8001 0.75708 0.0
C169 C 0.73111 0.79781 0.75256 0.0
C170 C 0.7918 0.734 0.74861 0.0
C171 C 0.71067 0.79504 0.77657 0.0
C172 C 0.69519 0.77412 0.81669 0.0
C173 C 0.71442 0.77627 0.79364 0.0
C174 C 0.66812 0.80941 0.80568 0.0
C175 C 0.67189 0.79074 0.82307 0.0
C176 C 0.68735 0.81152 0.78267 0.0
C177 C 0.80144 0.81048 0.66913 0.0
C178 C 0.77333 0.84559 0.65832 0.0
C179 C 0.82279 0.83543 0.63436 0.0
C180 C 0.82499 0.81549 0.6495 0.0
C181 C 0.79691 0.85075 0.63854 0.0
C182 C 0.77561 0.82566 0.6735 0.0
C183 C 0.8043 0.78954 0.68506 0.0
O184 O 0.80611 0.753 0.75614 0.0
O185 O 0.7672 0.73696 0.73145 0.0
O186 O 0.77809 0.77612 0.68455 0.0
O187 O 0.81714 0.79199 0.7092 0.0
H188 H 0.83477 0.72986 0.70682 0.0
H189 H 0.87221 0.6982 0.69864 0.0
H190 H 0.8356 0.66441 0.76962 0.0
H191 H 0.79898 0.69613 0.77778 0.0
H192 H 0.699 0.75967 0.82976 0.0
H193 H 0.7324 0.76338 0.78922 0.0
H194 H 0.65009 0.82233 0.80972 0.0
H195 H 0.68406 0.82608 0.76964 0.0
H196 H 0.75286 0.85682 0.6619 0.0
H197 H 0.84168 0.83898 0.61964 0.0
H198 H 0.84521 0.80403 0.64597 0.0
H199 H 0.75721 0.82207 0.68863 0.0
C200 C 0.70997 0.24256 0.25781 0.0
C201 C 0.6928 0.26269 0.25257 0.0
C202 C 0.67055 0.24726 0.2108 0.0
C203 C 0.67319 0.26497 0.22937 0.0
C204 C 0.68816 0.22725 0.21603 0.0
C205 C 0.70752 0.22493 0.23931 0.0
U206 U 0.77563 0.26334 0.30818 0.0
O207 O 0.77745 0.26021 0.35216 0.0
O208 O 0.81642 0.2451 0.32807 0.0
C209 C 0.80344 0.24699 0.35196 0.0
C210 C 0.73044 0.23951 0.28232 0.0
C211 C 0.80017 0.22579 0.36741 0.0
C212 C 0.78307 0.18635 0.37074 0.0
C213 C 0.78554 0.20648 0.35594 0.0
C214 C 0.80921 0.20473 0.40882 0.0
C215 C 0.79496 0.18521 0.39735 0.0
C216 C 0.81182 0.22481 0.39395 0.0
C217 C 0.815 0.32224 0.29453 0.0
C218 C 0.85904 0.34021 0.32075 0.0
C219 C 0.83679 0.35897 0.28123 0.0
C220 C 0.81492 0.34086 0.27707 0.0
C221 C 0.85932 0.35884 0.30299 0.0
C222 C 0.83708 0.32199 0.3165 0.0
C223 C 0.79223 0.30326 0.28884 0.0
O224 O 0.76244 0.23727 0.27854 0.0
O225 O 0.72362 0.25258 0.30264 0.0
O226 O 0.76782 0.30006 0.30571 0.0
O227 O 0.80617 0.2844 0.28143 0.0
H228 H 0.69434 0.27664 0.26643 0.0
H229 H 0.65973 0.28052 0.22622 0.0
H230 H 0.6873 0.21341 0.20201 0.0
H231 H 0.7207 0.2093 0.24286 0.0
H232 H 0.77158 0.17173 0.36142 0.0
H233 H 0.77614 0.20697 0.33552 0.0
H234 H 0.81891 0.20438 0.42914 0.0
H235 H 0.82315 0.23956 0.40314 0.0
H236 H 0.87619 0.33953 0.33761 0.0
H237 H 0.83587 0.37319 0.26746 0.0
H238 H 0.79795 0.34136 0.26006 0.0
H239 H 0.83749 0.30768 0.33016 0.0
C240 C 0.23395 0.22731 0.66309 0.0
C241 C 0.24904 0.20836 0.67489 0.0
C242 C 0.23891 0.18667 0.63422 0.0
C243 C 0.25141 0.18819 0.66062 0.0
C244 C 0.22403 0.20581 0.62248 0.0
C245 C 0.22155 0.22591 0.63681 0.0
U246 U 0.25806 0.26537 0.72163 0.0
O247 O 0.26764 0.30208 0.72271 0.0
O248 O 0.22757 0.2871 0.74665 0.0
C249 C 0.24241 0.30575 0.73844 0.0
C250 C 0.23106 0.2486 0.67785 0.0
C251 C 0.22066 0.32462 0.73064 0.0
C252 C 0.16938 0.33934 0.71144 0.0
C253 C 0.19022 0.32108 0.71722 0.0
C254 C 0.20954 0.36485 0.73184 0.0
C255 C 0.17872 0.36144 0.71884 0.0
C256 C 0.23023 0.34662 0.73768 0.0
C257 C 0.3216 0.24478 0.77355 0.0
C258 C 0.33618 0.2663 0.81333 0.0
C259 C 0.36443 0.23134 0.80419 0.0
C260 C 0.34539 0.22872 0.7808 0.0
C261 C 0.35999 0.25011 0.82084 0.0
C262 C 0.31715 0.26366 0.78987 0.0
C263 C 0.30165 0.24155 0.74899 0.0
O264 O 0.21728 0.24693 0.70152 0.0
O265 O 0.2576 0.26171 0.67778 0.0
O266 O 0.30962 0.2547 0.72869 0.0
O267 O 0.26944 0.2397 0.75239 0.0
H268 H 0.25898 0.20917 0.69513 0.0
H269 H 0.26338 0.17388 0.67014 0.0
H270 H 0.21381 0.20516 0.60233 0.0
H271 H 0.20983 0.24037 0.62738 0.0
H272 H 0.14599 0.33616 0.70115 0.0
H273 H 0.18243 0.30422 0.71147 0.0
H274 H 0.21734 0.38156 0.73816 0.0
H275 H 0.25357 0.34969 0.74812 0.0
H276 H 0.33187 0.28083 0.82579 0.0
H277 H 0.38288 0.21875 0.80909 0.0
H278 H 0.34927 0.21411 0.76835 0.0
H279 H 0.29884 0.27624 0.78453 0.0
C280 C 0.19557 0.7329 0.33446 0.0
C281 C 0.20651 0.71583 0.31748 0.0
C282 C 0.16168 0.69088 0.33234 0.0
C283 C 0.18979 0.695 0.31648 0.0
C284 C 0.15075 0.70817 0.34919 0.0
C285 C 0.16758 0.72896 0.35023 0.0
U286 U 0.2581 0.77472 0.30587 0.0
O287 O 0.25659 0.81169 0.30159 0.0
O288 O 0.29607 0.79597 0.32577 0.0
C289 C 0.28208 0.81488 0.31788 0.0
C290 C 0.2131 0.75481 0.33573 0.0
C291 C 0.27794 0.83204 0.3387 0.0
C292 C 0.24709 0.84855 0.37509 0.0
C293 C 0.25057 0.83169 0.35581 0.0
C294 C 0.29847 0.86603 0.36049 0.0
C295 C 0.27104 0.86594 0.37766 0.0
C296 C 0.30184 0.84926 0.34124 0.0
C297 C 0.30296 0.75765 0.24166 0.0
C298 C 0.35127 0.77683 0.22314 0.0
C299 C 0.32287 0.74763 0.1977 0.0
C300 C 0.30021 0.74468 0.21841 0.0
C301 C 0.34887 0.76361 0.19985 0.0
C302 C 0.32848 0.77388 0.24387 0.0
C303 C 0.2792 0.75365 0.26336 0.0
O304 O 0.24514 0.75376 0.34084 0.0
O305 O 0.20571 0.76918 0.31641 0.0
O306 O 0.25292 0.7666 0.26305 0.0
O307 O 0.29211 0.75078 0.28744 0.0
H308 H 0.22809 0.71859 0.30509 0.0
H309 H 0.1992 0.68204 0.30353 0.0
H310 H 0.12892 0.70577 0.36135 0.0
H311 H 0.15866 0.742 0.36333 0.0
H312 H 0.22584 0.84786 0.38814 0.0
H313 H 0.2319 0.81844 0.35419 0.0
H314 H 0.3171 0.87933 0.36158 0.0
H315 H 0.32309 0.84984 0.32815 0.0
H316 H 0.37111 0.78917 0.22556 0.0
H317 H 0.31983 0.73748 0.17989 0.0
H318 H 0.28054 0.73217 0.2163 0.0
H319 H 0.33093 0.7841 0.2617 0.0
H320 H 0.95562 0.48881 0.28417 0.0
H321 H 0.9229 0.45406 0.28026 0.0
H322 H 0.97005 0.42792 0.35212 0.0
H323 H 1.00212 0.46315 0.35638 0.0
H324 H 0.95713 0.52036 0.32039 0.0
H325 H 0.03413 0.46972 0.28437 0.0
H326 H 0.06711 0.43572 0.27971 0.0
H327 H 0.11763 0.45041 0.35452 0.0
H328 H 0.08349 0.48404 0.35957 0.0
H329 H 0.08059 0.55579 0.36444 0.0
H330 H 0.11206 0.59134 0.36561 0.0
H331 H 0.06589 0.61164 0.2907 0.0
H332 H 0.03577 0.57568 0.2891 0.0
H333 H 0.07993 0.52134 0.32878 0.0
H334 H 0.99915 0.57645 0.35939 0.0
H335 H 0.96782 0.6116 0.35494 0.0
H336 H 0.92623 0.58829 0.2798 0.0
H337 H 0.95813 0.55363 0.284 0.0
C338 C 0.98151 0.47859 0.32047 0.0
C339 C 0.95885 0.47565 0.29917 0.0
C340 C 0.94038 0.45565 0.29681 0.0
C341 C 0.94401 0.4381 0.31577 0.0
C342 C 0.96651 0.44114 0.33726 0.0
C343 C 0.98506 0.4612 0.33959 0.0
C344 C 1.00107 0.49999 0.32264 0.0
C345 C 0.98401 0.52055 0.32209 0.0
C346 C 0.03616 0.50026 0.32496 0.0
C347 C 0.05597 0.47932 0.32251 0.0
C348 C 0.05192 0.46545 0.30001 0.0
C349 C 0.07111 0.44612 0.29721 0.0
C350 C 0.09513 0.44031 0.31671 0.0
C351 C 0.09908 0.45419 0.3393 0.0
C352 C 0.07978 0.47354 0.34211 0.0
C353 C 0.05542 0.56317 0.3269 0.0
C354 C 0.07743 0.56786 0.3482 0.0
C355 C 0.09518 0.5883 0.34895 0.0
C356 C 0.09138 0.6045 0.32835 0.0
C357 C 0.06971 0.59954 0.3068 0.0
C358 C 0.05213 0.57906 0.30601 0.0
C359 C 0.03594 0.54168 0.32652 0.0
C360 C 0.05303 0.52109 0.32749 0.0
C361 C 1.00089 0.54138 0.32377 0.0
C362 C 0.98122 0.56247 0.32191 0.0
C363 C 0.98338 0.57899 0.34191 0.0
C364 C 0.9653 0.599 0.33944 0.0
C365 C 0.9447 0.60284 0.31691 0.0
C366 C 0.94228 0.58608 0.29717 0.0
C367 C 0.96026 0.56613 0.29967 0.0
H368 H 0.07665 0.55744 0.67158 0.0
H369 H 0.11037 0.59186 0.67591 0.0
H370 H 0.0631 0.60605 0.75102 0.0
H371 H 0.03043 0.57123 0.74702 0.0
H372 H 0.07591 0.52057 0.70381 0.0
H373 H 0.99519 0.57681 0.6756 0.0
H374 H 0.96313 0.61135 0.68115 0.0
H375 H 0.91956 0.58298 0.75272 0.0
H376 H 0.95225 0.54887 0.74746 0.0
H377 H 0.9514 0.48213 0.74093 0.0
H378 H 0.92042 0.44641 0.73909 0.0
H379 H 0.97044 0.42953 0.66602 0.0
H380 H 1.00043 0.4656 0.6675 0.0
H381 H 0.95307 0.5179 0.70895 0.0
H382 H 0.03138 0.46461 0.74127 0.0
H383 H 0.06543 0.43076 0.74268 0.0
H384 H 0.11406 0.45265 0.67018 0.0
H385 H 0.0799 0.48659 0.66896 0.0
C386 C 0.05077 0.56181 0.70884 0.0
C387 C 0.07352 0.56801 0.68894 0.0
C388 C 0.09258 0.58781 0.69134 0.0
C389 C 0.08945 0.60178 0.7138 0.0
C390 C 0.06642 0.5956 0.73359 0.0
C391 C 0.04743 0.57579 0.7312 0.0
C392 C 0.03151 0.5403 0.70672 0.0
C393 C 0.049 0.52001 0.70439 0.0
C394 C 0.99645 0.53952 0.70859 0.0
C395 C 0.97639 0.56031 0.71126 0.0
C396 C 0.97886 0.57811 0.69256 0.0
C397 C 0.96032 0.59777 0.69564 0.0
C398 C 0.93892 0.6 0.71748 0.0
C399 C 0.9362 0.582 0.73593 0.0
C400 C 0.95465 0.56237 0.73281 0.0
C401 C 0.97847 0.47651 0.70448 0.0
C402 C 0.95553 0.47079 0.72443 0.0
C403 C 0.93806 0.45025 0.72348 0.0
C404 C 0.94302 0.43502 0.70246 0.0
C405 C 0.96575 0.44092 0.68235 0.0
C406 C 0.98318 0.46147 0.68331 0.0
C407 C 0.99746 0.49819 0.70582 0.0
C408 C 0.97995 0.51847 0.70804 0.0
C409 C 0.03255 0.49895 0.70443 0.0
C410 C 0.05279 0.47807 0.70485 0.0
C411 C 0.04906 0.46199 0.72547 0.0
C412 C 0.06853 0.4426 0.72622 0.0
C413 C 0.09243 0.43891 0.70649 0.0
C414 C 0.09614 0.45505 0.68585 0.0
C415 C 0.07657 0.47445 0.68508 0.0
H416 H 0.20248 0.98597 0.56242 0.0
H417 H 0.20114 0.95064 0.58809 0.0
H418 H 0.29356 0.93106 0.55258 0.0
H419 H 0.29494 0.96655 0.52712 0.0
H420 H 0.24503 0.02041 0.56278 0.0
H421 H 0.20868 0.96548 0.49618 0.0
H422 H 0.21281 0.93147 0.46886 0.0
H423 H 0.30514 0.95676 0.43656 0.0
H424 H 0.30132 0.99029 0.4644 0.0
H425 H 0.29458 0.05826 0.46252 0.0
H426 H 0.29246 0.09362 0.43683 0.0
H427 H 0.20097 0.11061 0.47565 0.0
H428 H 0.2031 0.07521 0.50112 0.0
H429 H 0.25506 0.02269 0.46393 0.0
H430 H 0.29251 0.07714 0.52748 0.0
H431 H 0.29091 0.11196 0.55335 0.0
H432 H 0.20094 0.08857 0.59125 0.0
H433 H 0.20257 0.0538 0.56519 0.0
C434 C 0.24859 0.97887 0.54255 0.0
C435 C 0.22254 0.97412 0.56022 0.0
C436 C 0.22184 0.95392 0.57494 0.0
C437 C 0.24721 0.93799 0.57235 0.0
C438 C 0.27339 0.94281 0.55475 0.0
C439 C 0.27419 0.9631 0.54015 0.0
C440 C 0.24911 1.00049 0.52708 0.0
C441 C 0.24677 0.0209 0.54112 0.0
C442 C 0.25257 1.00118 0.49888 0.0
C443 C 0.25486 0.98036 0.48256 0.0
C444 C 0.22997 0.96356 0.48342 0.0
C445 C 0.23223 0.94422 0.46761 0.0
C446 C 0.25938 0.94132 0.45057 0.0
C447 C 0.28417 0.95823 0.44975 0.0
C448 C 0.28188 0.97753 0.4655 0.0
C449 C 0.24923 0.06414 0.48403 0.0
C450 C 0.274 0.06957 0.46544 0.0
C451 C 0.27273 0.08977 0.45072 0.0
C452 C 0.24661 0.105 0.45426 0.0
C453 C 0.22172 0.09946 0.47277 0.0
C454 C 0.22291 0.0792 0.48735 0.0
C455 C 0.25058 0.04258 0.49959 0.0
C456 C 0.25331 0.02221 0.48559 0.0
C457 C 0.24791 0.04194 0.52786 0.0
C458 C 0.24741 0.06292 0.54409 0.0
C459 C 0.27228 0.07956 0.5412 0.0
C460 C 0.27134 0.09949 0.55601 0.0
C461 C 0.24571 0.10311 0.5743 0.0
C462 C 0.22119 0.08623 0.57754 0.0
C463 C 0.22205 0.06636 0.56261 0.0
H464 H 0.45301 0.81064 0.97709 0.0
H465 H 0.42034 0.81292 0.9357 0.0
H466 H 0.47022 0.75413 0.90597 0.0
H467 H 0.50186 0.75139 0.94799 0.0
H468 H 0.45584 0.77947 0.01503 0.0
H469 H 0.5335 0.81221 0.95292 0.0
H470 H 0.56587 0.81457 0.91193 0.0
H471 H 0.61455 0.75221 0.93352 0.0
H472 H 0.5813 0.74961 0.97411 0.0
H473 H 0.5835 0.74972 0.0581 0.0
H474 H 0.61725 0.75265 0.09907 0.0
H475 H 0.56393 0.81254 0.12087 0.0
H476 H 0.531 0.80988 0.07959 0.0
H477 H 0.57889 0.77814 0.01638 0.0
H478 H 0.50404 0.74733 0.08072 0.0
H479 H 0.47027 0.74461 0.1209 0.0
H480 H 0.41554 0.80341 0.09491 0.0
H481 H 0.45035 0.80659 0.05536 0.0
C482 C 0.48016 0.78098 0.96561 0.0
C483 C 0.4568 0.79815 0.96173 0.0
C484 C 0.43835 0.79957 0.9379 0.0
C485 C 0.4428 0.78381 0.91736 0.0
C486 C 0.46596 0.76645 0.92142 0.0
C487 C 0.48435 0.765 0.94533 0.0
C488 C 0.49982 0.77984 0.991 0.0
C489 C 0.48277 0.77947 0.01536 0.0
C490 C 0.53496 0.7791 0.99137 0.0
C491 C 0.55468 0.78059 0.96646 0.0
C492 C 0.5509 0.79893 0.94869 0.0
C493 C 0.56968 0.80037 0.92538 0.0
C494 C 0.59284 0.78358 0.91941 0.0
C495 C 0.59665 0.76528 0.93731 0.0
C496 C 0.57785 0.76385 0.96064 0.0
C497 C 0.55451 0.77946 0.06585 0.0
C498 C 0.57909 0.76347 0.07173 0.0
C499 C 0.59819 0.76507 0.09526 0.0
C500 C 0.59329 0.78283 0.11327 0.0
C501 C 0.56859 0.79879 0.10732 0.0
C502 C 0.54949 0.79715 0.08384 0.0
C503 C 0.53489 0.77817 0.04047 0.0
C504 C 0.55196 0.77805 0.0161 0.0
C505 C 0.49974 0.77854 0.0401 0.0
C506 C 0.47996 0.77728 0.06505 0.0
C507 C 0.48515 0.75987 0.08388 0.0
C508 C 0.46553 0.75819 0.10673 0.0
C509 C 0.44007 0.77376 0.11116 0.0
C510 C 0.43517 0.7913 0.09238 0.0
C511 C 0.45487 0.79301 0.06959 0.0
H512 H 0.74226 0.98082 0.56752 0.0
H513 H 0.74402 0.94551 0.59326 0.0
H514 H 0.83592 0.92838 0.55514 0.0
H515 H 0.83414 0.96376 0.52959 0.0
H516 H 0.78215 0.01616 0.56677 0.0
H517 H 0.74524 0.9621 0.50258 0.0
H518 H 0.74721 0.92743 0.47645 0.0
H519 H 0.83734 0.95124 0.43916 0.0
H520 H 0.83539 0.98584 0.46551 0.0
H521 H 0.83502 0.05355 0.46864 0.0
H522 H 0.83607 0.08886 0.44292 0.0
H523 H 0.74362 0.1082 0.47856 0.0
H524 H 0.74254 0.07274 0.5041 0.0
H525 H 0.79282 0.01913 0.46802 0.0
H526 H 0.828 0.07408 0.53495 0.0
H527 H 0.82463 0.10696 0.56425 0.0
H528 H 0.73269 0.0807 0.59619 0.0
H529 H 0.7362 0.04801 0.567 0.0
C530 C 0.78786 0.97489 0.54637 0.0
C531 C 0.76284 0.96949 0.56474 0.0
C532 C 0.76391 0.94931 0.57949 0.0
C533 C 0.79007 0.93408 0.57621 0.0
C534 C 0.81515 0.93955 0.55784 0.0
C535 C 0.81416 0.9598 0.54321 0.0
C536 C 0.78682 0.99654 0.53096 0.0
C537 C 0.78401 0.01681 0.54512 0.0
C538 C 0.78972 0.99737 0.50272 0.0
C539 C 0.79042 0.9765 0.48632 0.0
C540 C 0.76559 0.9598 0.48895 0.0
C541 C 0.76675 0.93996 0.474 0.0
C542 C 0.79251 0.93651 0.4558 0.0
C543 C 0.81699 0.95345 0.45281 0.0
C544 C 0.81594 0.97323 0.4679 0.0
C545 C 0.78891 0.06053 0.48858 0.0
C546 C 0.81491 0.06535 0.47088 0.0
C547 C 0.81543 0.08553 0.45612 0.0
C548 C 0.78994 0.10137 0.4587 0.0
C549 C 0.76387 0.09651 0.4764 0.0
C550 C 0.76325 0.07624 0.49104 0.0
C551 C 0.78843 0.03883 0.50388 0.0
C552 C 0.79092 0.0185 0.48966 0.0
C553 C 0.78476 0.03794 0.53205 0.0
C554 C 0.78228 0.05857 0.54868 0.0
C555 C 0.80692 0.07556 0.54803 0.0
C556 C 0.80496 0.09435 0.56479 0.0
C557 C 0.77852 0.09638 0.58271 0.0
C558 C 0.7537 0.07948 0.58299 0.0
C559 C 0.75561 0.06081 0.56622 0.0
H560 H 0.45175 0.29244 0.9725 0.0
H561 H 0.41787 0.28984 0.93153 0.0
H562 H 0.46825 0.22853 0.91063 0.0
H563 H 0.50123 0.23087 0.95187 0.0
H564 H 0.45486 0.26415 0.01467 0.0
H565 H 0.53362 0.29402 0.95188 0.0
H566 H 0.56815 0.29619 0.91208 0.0
H567 H 0.61307 0.23263 0.93434 0.0
H568 H 0.57902 0.23093 0.97443 0.0
H569 H 0.57597 0.22694 0.05542 0.0
H570 H 0.60848 0.22409 0.09701 0.0
H571 H 0.56787 0.28721 0.1234 0.0
H572 H 0.53558 0.29008 0.08156 0.0
H573 H 0.57769 0.25918 0.01608 0.0
H574 H 0.49876 0.22852 0.07769 0.0
H575 H 0.46623 0.2263 0.11856 0.0
H576 H 0.42019 0.28981 0.09795 0.0
H577 H 0.4537 0.29227 0.05745 0.0
C578 C 0.47928 0.26198 0.96517 0.0
C579 C 0.45551 0.27847 0.95905 0.0
C580 C 0.43632 0.27704 0.93553 0.0
C581 C 0.44032 0.25896 0.9178 0.0
C582 C 0.46426 0.24254 0.92397 0.0
C583 C 0.48343 0.244 0.94742 0.0
C584 C 0.49883 0.26293 0.99061 0.0
C585 C 0.48177 0.26353 0.01497 0.0
C586 C 0.5339 0.26154 0.99103 0.0
C587 C 0.55367 0.26229 0.96612 0.0
C588 C 0.5507 0.28046 0.94804 0.0
C589 C 0.57042 0.28163 0.92521 0.0
C590 C 0.59353 0.2646 0.91993 0.0
C591 C 0.59602 0.24625 0.93794 0.0
C592 C 0.57644 0.24518 0.96083 0.0
C593 C 0.55321 0.25865 0.06545 0.0
C594 C 0.5741 0.24018 0.07015 0.0
C595 C 0.59248 0.2385 0.09399 0.0
C596 C 0.59064 0.25539 0.11352 0.0
C597 C 0.56995 0.274 0.10867 0.0
C598 C 0.55133 0.27559 0.08487 0.0
C599 C 0.53371 0.26019 0.04006 0.0
C600 C 0.5508 0.26005 0.01574 0.0
C601 C 0.49869 0.26195 0.0397 0.0
C602 C 0.479 0.26071 0.06465 0.0
C603 C 0.48197 0.24211 0.08213 0.0
C604 C 0.46306 0.24075 0.10536 0.0
C605 C 0.44053 0.25787 0.11155 0.0
C606 C 0.43758 0.27647 0.09397 0.0
C607 C 0.45653 0.27782 0.07071 0.0
C608 C 0.1458 0.38746 0.33101 0.0
C609 C 0.1585 0.38271 0.30559 0.0
H610 H 0.11574 0.40922 0.35448 0.0
C611 C 0.14972 0.39683 0.28391 0.0
H612 H 0.15223 0.37703 0.34819 0.0
C613 C 0.12914 0.41536 0.28755 0.0
C614 C 0.11665 0.42028 0.31298 0.0
H615 H 0.15864 0.39352 0.26397 0.0
H616 H 0.12345 0.42605 0.27043 0.0
C617 C 0.12517 0.40606 0.33467 0.0
C618 C 0.13967 0.65512 0.69825 0.0
C619 C 0.15391 0.66015 0.72339 0.0
H620 H 0.10801 0.63293 0.67549 0.0
C621 C 0.14598 0.6462 0.74539 0.0
H622 H 0.14539 0.66542 0.68085 0.0
C623 C 0.12486 0.6275 0.74229 0.0
C624 C 0.111 0.62223 0.7171 0.0
H625 H 0.1561 0.64974 0.76513 0.0
H626 H 0.11995 0.6169 0.7596 0.0
C627 C 0.11852 0.63635 0.69513 0.0
C628 C 0.90348 0.65395 0.28506 0.0
C629 C 0.8858 0.66289 0.30655 0.0
H630 H 0.93623 0.62837 0.27158 0.0
C631 C 0.88923 0.65269 0.33197 0.0
H632 H 0.90202 0.66167 0.26535 0.0
C633 C 0.90895 0.63351 0.33556 0.0
C634 C 0.92565 0.62413 0.31379 0.0
H635 H 0.87578 0.65905 0.3489 0.0
H636 H 0.91022 0.6256 0.35517 0.0
C637 C 0.9231 0.63484 0.28863 0.0
C638 C 0.89511 0.38393 0.67615 0.0
C639 C 0.89002 0.37112 0.69963 0.0
H640 H 0.91519 0.41417 0.65867 0.0
C641 C 0.90234 0.37959 0.72408 0.0
H642 H 0.8855 0.3781 0.65704 0.0
C643 C 0.91942 0.40029 0.72501 0.0
C644 C 0.9246 0.41306 0.70152 0.0
H645 H 0.89931 0.37003 0.74249 0.0
H646 H 0.92908 0.40609 0.74411 0.0
C647 C 0.91216 0.40462 0.67708 0.0
C648 C 0.25092 0.14712 0.39639 0.0
C649 C 0.24156 0.16735 0.40865 0.0
H650 H 0.25951 0.11164 0.40101 0.0
C651 C 0.23423 0.16689 0.43613 0.0
H652 H 0.25625 0.14673 0.37521 0.0
C653 C 0.23595 0.14673 0.45089 0.0
C654 C 0.24517 0.12651 0.43859 0.0
H655 H 0.22752 0.18219 0.44637 0.0
H656 H 0.23046 0.14704 0.47205 0.0
C657 C 0.25276 0.12697 0.41119 0.0
C658 C 0.39835 0.80869 0.8565 0.0
C659 C 0.38555 0.78931 0.84376 0.0
H660 H 0.42676 0.82216 0.88923 0.0
C661 C 0.39202 0.76803 0.85533 0.0
H662 H 0.39357 0.82538 0.84838 0.0
C663 C 0.41069 0.7662 0.87907 0.0
C664 C 0.42336 0.78561 0.89184 0.0
H665 H 0.38286 0.75273 0.84594 0.0
H666 H 0.41478 0.74958 0.88762 0.0
C667 C 0.41705 0.80686 0.88017 0.0
C668 C 0.78902 0.87428 0.43764 0.0
C669 C 0.79731 0.87485 0.41037 0.0
H670 H 0.78113 0.8932 0.47333 0.0
C671 C 0.80376 0.89589 0.39812 0.0
H672 H 0.78361 0.85838 0.44763 0.0
C673 C 0.8022 0.91586 0.41282 0.0
C674 C 0.79395 0.91529 0.44009 0.0
H675 H 0.81051 0.89692 0.37722 0.0
H676 H 0.80719 0.93179 0.40274 0.0
C677 C 0.78727 0.89426 0.4523 0.0
C678 C 0.66995 0.26172 0.87617 0.0
C679 C 0.6583 0.27091 0.85182 0.0
H680 H 0.65909 0.25302 0.91677 0.0
C681 C 0.62496 0.27754 0.84979 0.0
H682 H 0.69563 0.25677 0.8785 0.0
C683 C 0.60383 0.27519 0.87168 0.0
C684 C 0.6156 0.26632 0.89622 0.0
H685 H 0.61514 0.28442 0.83118 0.0
H686 H 0.5782 0.28023 0.86931 0.0
C687 C 0.64892 0.25953 0.89811 0.0
C688 C 0.23584 0.89606 0.62972 0.0
C689 C 0.24349 0.87544 0.61761 0.0
H690 H 0.23117 0.93188 0.62505 0.0
C691 C 0.25279 0.8756 0.59055 0.0
H692 H 0.2283 0.89653 0.65044 0.0
C693 C 0.2543 0.89587 0.57596 0.0
C694 C 0.24632 0.91646 0.58801 0.0
H695 H 0.25914 0.86004 0.58068 0.0
H696 H 0.26122 0.89537 0.55509 0.0
C697 C 0.23715 0.9163 0.61508 0.0
C698 C 0.64184 0.768 0.17677 0.0
C699 C 0.65366 0.78931 0.18504 0.0
H700 H 0.61321 0.74926 0.14793 0.0
C701 C 0.64567 0.80838 0.16936 0.0
H702 H 0.64714 0.75299 0.18854 0.0
C703 C 0.62618 0.80625 0.14614 0.0
C704 C 0.61419 0.78498 0.13795 0.0
H705 H 0.65486 0.82499 0.17482 0.0
H706 H 0.62089 0.82127 0.13438 0.0
C707 C 0.62236 0.76586 0.15349 0.0
C708 C 0.76452 0.12997 0.64589 0.0
C709 C 0.77125 0.15225 0.63742 0.0
H710 H 0.76202 0.09503 0.63553 0.0
C711 C 0.78173 0.15597 0.61096 0.0
H712 H 0.75716 0.12639 0.66628 0.0
C713 C 0.78458 0.13787 0.59324 0.0
C714 C 0.77697 0.11567 0.6016 0.0
H715 H 0.78688 0.17293 0.60372 0.0
H716 H 0.7919 0.14133 0.57281 0.0
C717 C 0.76731 0.11195 0.62823 0.0
C718 C 0.38676 0.23349 0.16692 0.0
C719 C 0.38137 0.25247 0.18297 0.0
H720 H 0.40907 0.22037 0.13176 0.0
C721 C 0.39527 0.27336 0.17513 0.0
H722 H 0.37592 0.21723 0.17206 0.0
C723 C 0.41432 0.27517 0.15194 0.0
C724 C 0.41994 0.25612 0.13605 0.0
H725 H 0.39197 0.28827 0.18719 0.0
H726 H 0.42517 0.29142 0.14675 0.0
C727 C 0.4058 0.23529 0.14379 0.0
C728 C 0.89616 0.64906 0.7507 0.0
C729 C 0.87959 0.65944 0.72899 0.0
H730 H 0.92815 0.62253 0.76405 0.0
C731 C 0.8839 0.65071 0.70318 0.0
H732 H 0.894 0.65561 0.77077 0.0
C733 C 0.90359 0.63168 0.69931 0.0
C734 C 0.91939 0.62094 0.72118 0.0
H735 H 0.87127 0.65816 0.68605 0.0
H736 H 0.90564 0.62498 0.6793 0.0
C737 C 0.91576 0.63007 0.74685 0.0
C738 C 0.88899 0.38728 0.33233 0.0
C739 C 0.88288 0.37815 0.30681 0.0
H740 H 0.91273 0.41351 0.35518 0.0
C741 C 0.89853 0.38815 0.2846 0.0
H742 H 0.87714 0.38008 0.34982 0.0
C743 C 0.91887 0.40724 0.28765 0.0
C744 C 0.92414 0.41686 0.313 0.0
H745 H 0.89498 0.38126 0.26473 0.0
H746 H 0.93043 0.4145 0.27007 0.0
C747 C 0.90939 0.40644 0.33539 0.0
C748 C 0.12195 0.3788 0.71864 0.0
C749 C 0.15618 0.38086 0.71387 0.0
H750 H 0.07499 0.39535 0.71982 0.0
C751 C 0.16895 0.40193 0.70548 0.0
H752 H 0.11132 0.36287 0.72533 0.0
C753 C 0.14818 0.42059 0.70256 0.0
C754 C 0.11411 0.41869 0.70801 0.0
H755 H 0.19512 0.40406 0.70133 0.0
H756 H 0.15906 0.43668 0.69674 0.0
C757 C 0.10118 0.39749 0.71579 0.0
C758 C 0.13104 0.6587 0.35475 0.0
C759 C 0.14385 0.66866 0.33133 0.0
H760 H 0.10422 0.63098 0.37218 0.0
C761 C 0.13945 0.65723 0.30694 0.0
H762 H 0.13428 0.66684 0.37395 0.0
C763 C 0.12266 0.63643 0.30599 0.0
C764 C 0.10971 0.62652 0.3294 0.0
H765 H 0.14863 0.66447 0.28844 0.0
H766 H 0.12007 0.62804 0.28689 0.0
C767 C 0.11416 0.63794 0.35379 0.0
C768 C 0.80237 0.87232 0.59505 0.0
C769 C 0.79471 0.87206 0.62247 0.0
H770 H 0.80653 0.89191 0.55896 0.0
C771 C 0.7852 0.89238 0.63444 0.0
H772 H 0.80922 0.85695 0.58503 0.0
C773 C 0.78352 0.91241 0.61944 0.0
C774 C 0.7914 0.91268 0.59208 0.0
H775 H 0.77965 0.89293 0.65558 0.0
H776 H 0.77666 0.92781 0.62941 0.0
C777 C 0.80079 0.89237 0.58007 0.0
C778 C 0.63125 0.23095 0.17621 0.0
C779 C 0.64951 0.24955 0.18612 0.0
H780 H 0.59826 0.21826 0.14577 0.0
C781 C 0.64762 0.27027 0.17215 0.0
H782 H 0.63148 0.21486 0.18668 0.0
C783 C 0.6282 0.27226 0.14882 0.0
C784 C 0.61042 0.25355 0.13877 0.0
H785 H 0.66167 0.28488 0.1789 0.0
H786 H 0.62771 0.28833 0.13829 0.0
C787 C 0.61209 0.2329 0.15279 0.0
C788 C 0.24967 0.16549 0.59177 0.0
C789 C 0.2412 0.16521 0.619 0.0
H790 H 0.25757 0.14625 0.55634 0.0
C791 C 0.23456 0.14429 0.63149 0.0
H792 H 0.25526 0.18128 0.58159 0.0
C793 C 0.23606 0.12418 0.61704 0.0
C794 C 0.24443 0.12448 0.58979 0.0
H795 H 0.22767 0.14346 0.65237 0.0
H796 H 0.23091 0.10836 0.6273 0.0
C797 C 0.25134 0.14538 0.57736 0.0
C798 C 0.38482 0.74727 0.16425 0.0
C799 C 0.37331 0.76629 0.17786 0.0
H800 H 0.41438 0.73468 0.13255 0.0
C801 C 0.38484 0.78781 0.16992 0.0
H802 H 0.37688 0.73042 0.17005 0.0
C803 C 0.40684 0.79024 0.14858 0.0
C804 C 0.41787 0.77122 0.13467 0.0
H805 H 0.37634 0.80284 0.17982 0.0
H806 H 0.41519 0.80705 0.14298 0.0
C807 C 0.40674 0.7497 0.14293 0.0
C808 C 0.78373 0.16364 0.44004 0.0
C809 C 0.79296 0.16369 0.41296 0.0
H810 H 0.77559 0.14403 0.47567 0.0
C811 C 0.80073 0.14304 0.40099 0.0
H812 H 0.7773 0.17923 0.4498 0.0
C813 C 0.79963 0.12287 0.41578 0.0
C814 C 0.79056 0.12282 0.44289 0.0
H815 H 0.80822 0.14248 0.38026 0.0
H816 H 0.80571 0.10726 0.40592 0.0
C817 C 0.78243 0.14344 0.45479 0.0
C818 C 0.3926 0.27382 0.85387 0.0
C819 C 0.38001 0.25261 0.84597 0.0
H820 H 0.4218 0.29245 0.88247 0.0
C821 C 0.38697 0.23365 0.86216 0.0
H822 H 0.38807 0.28874 0.84172 0.0
C823 C 0.40634 0.23577 0.88544 0.0
C824 C 0.41925 0.25692 0.89319 0.0
H825 H 0.37714 0.21713 0.85701 0.0
H826 H 0.4109 0.22083 0.89755 0.0
C827 C 0.41197 0.27595 0.87722 0.0
C828 C 0.2953 0.89241 0.41203 0.0
C829 C 0.26743 0.8842 0.39775 0.0
H830 H 0.31453 0.91644 0.44015 0.0
C831 C 0.23646 0.8942 0.40208 0.0
H832 H 0.3194 0.88482 0.40961 0.0
C833 C 0.23367 0.91239 0.41964 0.0
C834 C 0.26177 0.92101 0.43328 0.0
H835 H 0.21455 0.88846 0.39123 0.0
H836 H 0.20967 0.92017 0.42183 0.0
C837 C 0.29251 0.91055 0.42955 0.0
C838 C 0.63854 0.76782 0.85614 0.0
C839 C 0.65178 0.78878 0.84784 0.0
H840 H 0.60921 0.74978 0.8849 0.0
C841 C 0.6456 0.80795 0.86337 0.0
H842 H 0.64242 0.75277 0.84447 0.0
C843 C 0.62655 0.80624 0.88651 0.0
C844 C 0.61319 0.78531 0.89476 0.0
H845 H 0.6559 0.82429 0.85787 0.0
H846 H 0.62271 0.8213 0.89818 0.0
C847 C 0.61948 0.76611 0.87932 0.0
loop_
_geom_bond_atom_site_label_1
_geom_bond_atom_site_label_2
_geom_bond_distance
_geom_bond_site_symmetry_2
_ccdc_geom_bond_type
C0 C1 1.264 . S
C0 C5 1.479 . S
C0 C10 1.465 . S
C1 C0 1.264 . S
C1 C3 1.339 . S
C1 H28 0.931 . S
C2 C3 1.395 . S
C2 C4 1.320 . S
C3 C1 1.339 . S
C3 C2 1.395 . S
C3 H29 0.929 . S
C4 C2 1.320 . S
C4 C5 1.405 . S
C4 H30 0.930 . S
C5 C0 1.479 . S
C5 C4 1.405 . S
C5 H31 0.931 . S
U6 O7 2.454 . S
U6 O8 2.458 . S
U6 C9 2.984 . S
U6 C10 2.847 . S
U6 C23 2.882 . S
U6 O24 2.441 . S
U6 O25 2.420 . S
U6 O26 2.455 . S
U6 O27 2.449 . S
O7 U6 2.454 . S
O7 C9 1.353 . S
O8 U6 2.458 . S
O8 C9 1.286 . S
C9 U6 2.984 . S
C9 O7 1.353 . S
C9 O8 1.286 . S
C9 C11 1.363 . S
C10 C0 1.465 . S
C10 U6 2.847 . S
C10 O24 1.249 . S
C10 O25 1.202 . S
C11 C9 1.363 . S
C11 C13 1.408 . S
C11 C16 1.342 . S
C12 C13 1.310 . S
C12 C15 1.461 . S
C12 H32 0.932 . S
C13 C11 1.408 . S
C13 C12 1.310 . S
C13 H33 0.930 . S
C14 C15 1.474 . S
C14 C16 1.285 . S
C14 H34 0.929 . S
C15 C12 1.461 . S
C15 C14 1.474 . S
C16 C11 1.342 . S
C16 C14 1.285 . S
C16 H35 0.930 . S
C17 C20 1.424 . S
C17 C22 1.245 . S
C17 C23 1.428 . S
C18 C21 1.260 . S
C18 C22 1.477 . S
C18 H36 0.932 . S
C19 C20 1.384 . S
C19 C21 1.479 . S
C19 H37 0.929 . S
C20 C17 1.424 . S
C20 C19 1.384 . S
C20 H38 0.928 . S
C21 C18 1.260 . S
C21 C19 1.479 . S
C22 C17 1.245 . S
C22 C18 1.477 . S
C22 H39 0.932 . S
C23 U6 2.882 . S
C23 C17 1.428 . S
C23 O26 1.301 . S
C23 O27 1.282 . S
O24 U6 2.441 . S
O24 C10 1.249 . S
O25 U6 2.420 . S
O25 C10 1.202 . S
O26 U6 2.455 . S
O26 C23 1.301 . S
O27 U6 2.449 . S
O27 C23 1.282 . S
H28 C1 0.931 . S
H29 C3 0.929 . S
H30 C4 0.930 . S
H31 C5 0.931 . S
H32 C12 0.932 . S
H33 C13 0.930 . S
H34 C14 0.929 . S
H35 C16 0.930 . S
H36 C18 0.932 . S
H37 C19 0.929 . S
H38 C20 0.928 . S
H39 C22 0.932 . S
C40 C41 1.264 . S
C40 C45 1.479 . S
C40 C50 1.465 . S
C41 C40 1.264 . S
C41 C43 1.339 . S
C41 H68 0.931 . S
C42 C43 1.395 . S
C42 C44 1.320 . S
C43 C41 1.339 . S
C43 C42 1.395 . S
C43 H69 0.929 . S
C44 C42 1.320 . S
C44 C45 1.405 . S
C44 H70 0.930 . S
C45 C40 1.479 . S
C45 C44 1.405 . S
C45 H71 0.931 . S
U46 O47 2.454 . S
U46 O48 2.458 . S
U46 C49 2.984 . S
U46 C50 2.847 . S
U46 C63 2.882 . S
U46 O64 2.441 . S
U46 O65 2.420 . S
U46 O66 2.455 . S
U46 O67 2.449 . S
O47 U46 2.454 . S
O47 C49 1.353 . S
O48 U46 2.458 . S
O48 C49 1.286 . S
C49 U46 2.984 . S
C49 O47 1.353 . S
C49 O48 1.286 . S
C49 C51 1.363 . S
C50 C40 1.465 . S
C50 U46 2.847 . S
C50 O64 1.249 . S
C50 O65 1.202 . S
C51 C49 1.363 . S
C51 C53 1.408 . S
C51 C56 1.342 . S
C52 C53 1.310 . S
C52 C55 1.461 . S
C52 H72 0.932 . S
C53 C51 1.408 . S
C53 C52 1.310 . S
C53 H73 0.930 . S
C54 C55 1.474 . S
C54 C56 1.285 . S
C54 H74 0.929 . S
C55 C52 1.461 . S
C55 C54 1.474 . S
C56 C51 1.342 . S
C56 C54 1.285 . S
C56 H75 0.930 . S
C57 C60 1.424 . S
C57 C62 1.245 . S
C57 C63 1.428 . S
C58 C61 1.260 . S
C58 C62 1.477 . S
C58 H76 0.932 . S
C59 C60 1.384 . S
C59 C61 1.479 . S
C59 H77 0.929 . S
C60 C57 1.424 . S
C60 C59 1.384 . S
C60 H78 0.928 . S
C61 C58 1.260 . S
C61 C59 1.479 . S
C62 C57 1.245 . S
C62 C58 1.477 . S
C62 H79 0.932 . S
C63 U46 2.882 . S
C63 C57 1.428 . S
C63 O66 1.301 . S
C63 O67 1.282 . S
O64 U46 2.441 . S
O64 C50 1.249 . S
O65 U46 2.420 . S
O65 C50 1.202 . S
O66 U46 2.455 . S
O66 C63 1.301 . S
O67 U46 2.449 . S
O67 C63 1.282 . S
H68 C41 0.931 . S
H69 C43 0.929 . S
H70 C44 0.930 . S
H71 C45 0.931 . S
H72 C52 0.932 . S
H73 C53 0.930 . S
H74 C54 0.929 . S
H75 C56 0.930 . S
H76 C58 0.932 . S
H77 C59 0.929 . S
H78 C60 0.928 . S
H79 C62 0.932 . S
C80 C81 1.264 . S
C80 C85 1.479 . S
C80 C90 1.465 . S
C81 C80 1.264 . S
C81 C83 1.339 . S
C81 H108 0.931 . S
C82 C83 1.395 . S
C82 C84 1.320 . S
C83 C81 1.339 . S
C83 C82 1.395 . S
C83 H109 0.929 . S
C84 C82 1.320 . S
C84 C85 1.405 . S
C84 H110 0.930 . S
C85 C80 1.479 . S
C85 C84 1.405 . S
C85 H111 0.931 . S
U86 O87 2.454 . S
U86 O88 2.458 . S
U86 C89 2.984 . S
U86 C90 2.847 . S
U86 C103 2.882 . S
U86 O104 2.441 . S
U86 O105 2.420 . S
U86 O106 2.455 . S
U86 O107 2.449 . S
O87 U86 2.454 . S
O87 C89 1.353 . S
O88 U86 2.458 . S
O88 C89 1.286 . S
C89 U86 2.984 . S
C89 O87 1.353 . S
C89 O88 1.286 . S
C89 C91 1.363 . S
C90 C80 1.465 . S
C90 U86 2.847 . S
C90 O104 1.249 . S
C90 O105 1.202 . S
C91 C89 1.363 . S
C91 C93 1.408 . S
C91 C96 1.342 . S
C92 C93 1.310 . S
C92 C95 1.461 . S
C92 H112 0.932 . S
C93 C91 1.408 . S
C93 C92 1.310 . S
C93 H113 0.930 . S
C94 C95 1.474 . S
C94 C96 1.285 . S
C94 H114 0.929 . S
C95 C92 1.461 . S
C95 C94 1.474 . S
C96 C91 1.342 . S
C96 C94 1.285 . S
C96 H115 0.930 . S
C97 C100 1.424 . S
C97 C102 1.245 . S
C97 C103 1.428 . S
C98 C101 1.260 . S
C98 C102 1.477 . S
C98 H116 0.932 . S
C99 C100 1.384 . S
C99 C101 1.479 . S
C99 H117 0.929 . S
C100 C97 1.424 . S
C100 C99 1.384 . S
C100 H118 0.928 . S
C101 C98 1.260 . S
C101 C99 1.479 . S
C102 C97 1.245 . S
C102 C98 1.477 . S
C102 H119 0.932 . S
C103 U86 2.882 . S
C103 C97 1.428 . S
C103 O106 1.301 . S
C103 O107 1.282 . S
O104 U86 2.441 . S
O104 C90 1.249 . S
O105 U86 2.420 . S
O105 C90 1.202 . S
O106 U86 2.455 . S
O106 C103 1.301 . S
O107 U86 2.449 . S
O107 C103 1.282 . S
H108 C81 0.931 . S
H109 C83 0.929 . S
H110 C84 0.930 . S
H111 C85 0.931 . S
H112 C92 0.932 . S
H113 C93 0.930 . S
H114 C94 0.929 . S
H115 C96 0.930 . S
H116 C98 0.932 . S
H117 C99 0.929 . S
H118 C100 0.928 . S
H119 C102 0.932 . S
C120 C121 1.264 . S
C120 C125 1.479 . S
C120 C130 1.465 . S
C121 C120 1.264 . S
C121 C123 1.339 . S
C121 H148 0.931 . S
C122 C123 1.395 . S
C122 C124 1.320 . S
C123 C121 1.339 . S
C123 C122 1.395 . S
C123 H149 0.929 . S
C124 C122 1.320 . S
C124 C125 1.405 . S
C124 H150 0.930 . S
C125 C120 1.479 . S
C125 C124 1.405 . S
C125 H151 0.931 . S
U126 O127 2.454 . S
U126 O128 2.458 . S
U126 C129 2.984 . S
U126 C130 2.847 . S
U126 C143 2.882 . S
U126 O144 2.441 . S
U126 O145 2.420 . S
U126 O146 2.455 . S
U126 O147 2.449 . S
O127 U126 2.454 . S
O127 C129 1.353 . S
O128 U126 2.458 . S
O128 C129 1.286 . S
C129 U126 2.984 . S
C129 O127 1.353 . S
C129 O128 1.286 . S
C129 C131 1.363 . S
C130 C120 1.465 . S
C130 U126 2.847 . S
C130 O144 1.249 . S
C130 O145 1.202 . S
C131 C129 1.363 . S
C131 C133 1.408 . S
C131 C136 1.342 . S
C132 C133 1.310 . S
C132 C135 1.461 . S
C132 H152 0.932 . S
C133 C131 1.408 . S
C133 C132 1.310 . S
C133 H153 0.930 . S
C134 C135 1.474 . S
C134 C136 1.285 . S
C134 H154 0.929 . S
C135 C132 1.461 . S
C135 C134 1.474 . S
C136 C131 1.342 . S
C136 C134 1.285 . S
C136 H155 0.930 . S
C137 C140 1.424 . S
C137 C142 1.245 . S
C137 C143 1.428 . S
C138 C141 1.260 . S
C138 C142 1.477 . S
C138 H156 0.932 . S
C139 C140 1.384 . S
C139 C141 1.479 . S
C139 H157 0.929 . S
C140 C137 1.424 . S
C140 C139 1.384 . S
C140 H158 0.928 . S
C141 C138 1.260 . S
C141 C139 1.479 . S
C142 C137 1.245 . S
C142 C138 1.477 . S
C142 H159 0.932 . S
C143 U126 2.882 . S
C143 C137 1.428 . S
C143 O146 1.301 . S
C143 O147 1.282 . S
O144 U126 2.441 . S
O144 C130 1.249 . S
O145 U126 2.420 . S
O145 C130 1.202 . S
O146 U126 2.455 . S
O146 C143 1.301 . S
O147 U126 2.449 . S
O147 C143 1.282 . S
H148 C121 0.931 . S
H149 C123 0.929 . S
H150 C124 0.930 . S
H151 C125 0.931 . S
H152 C132 0.932 . S
H153 C133 0.930 . S
H154 C134 0.929 . S
H155 C136 0.930 . S
H156 C138 0.932 . S
H157 C139 0.929 . S
H158 C140 0.928 . S
H159 C142 0.932 . S
C160 C161 1.264 . S
C160 C165 1.479 . S
C160 C170 1.465 . S
C161 C160 1.264 . S
C161 C163 1.339 . S
C161 H188 0.931 . S
C162 C163 1.395 . S
C162 C164 1.320 . S
C163 C161 1.339 . S
C163 C162 1.395 . S
C163 H189 0.929 . S
C164 C162 1.320 . S
C164 C165 1.405 . S
C164 H190 0.930 . S
C165 C160 1.479 . S
C165 C164 1.405 . S
C165 H191 0.931 . S
U166 O167 2.454 . S
U166 O168 2.458 . S
U166 C169 2.984 . S
U166 C170 2.847 . S
U166 C183 2.882 . S
U166 O184 2.441 . S
U166 O185 2.420 . S
U166 O186 2.455 . S
U166 O187 2.449 . S
O167 U166 2.454 . S
O167 C169 1.353 . S
O168 U166 2.458 . S
O168 C169 1.286 . S
C169 U166 2.984 . S
C169 O167 1.353 . S
C169 O168 1.286 . S
C169 C171 1.363 . S
C170 C160 1.465 . S
C170 U166 2.847 . S
C170 O184 1.249 . S
C170 O185 1.202 . S
C171 C169 1.363 . S
C171 C173 1.408 . S
C171 C176 1.342 . S
C172 C173 1.310 . S
C172 C175 1.461 . S
C172 H192 0.932 . S
C173 C171 1.408 . S
C173 C172 1.310 . S
C173 H193 0.930 . S
C174 C175 1.474 . S
C174 C176 1.285 . S
C174 H194 0.929 . S
C175 C172 1.461 . S
C175 C174 1.474 . S
C176 C171 1.342 . S
C176 C174 1.285 . S
C176 H195 0.930 . S
C177 C180 1.424 . S
C177 C182 1.245 . S
C177 C183 1.428 . S
C178 C181 1.260 . S
C178 C182 1.477 . S
C178 H196 0.932 . S
C179 C180 1.384 . S
C179 C181 1.479 . S
C179 H197 0.929 . S
C180 C177 1.424 . S
C180 C179 1.384 . S
C180 H198 0.928 . S
C181 C178 1.260 . S
C181 C179 1.479 . S
C182 C177 1.245 . S
C182 C178 1.477 . S
C182 H199 0.932 . S
C183 U166 2.882 . S
C183 C177 1.428 . S
C183 O186 1.301 . S
C183 O187 1.282 . S
O184 U166 2.441 . S
O184 C170 1.249 . S
O185 U166 2.420 . S
O185 C170 1.202 . S
O186 U166 2.455 . S
O186 C183 1.301 . S
O187 U166 2.449 . S
O187 C183 1.282 . S
H188 C161 0.931 . S
H189 C163 0.929 . S
H190 C164 0.930 . S
H191 C165 0.931 . S
H192 C172 0.932 . S
H193 C173 0.930 . S
H194 C174 0.929 . S
H195 C176 0.930 . S
H196 C178 0.932 . S
H197 C179 0.929 . S
H198 C180 0.928 . S
H199 C182 0.932 . S
C200 C201 1.264 . S
C200 C205 1.479 . S
C200 C210 1.465 . S
C201 C200 1.264 . S
C201 C203 1.339 . S
C201 H228 0.931 . S
C202 C203 1.395 . S
C202 C204 1.320 . S
C203 C201 1.339 . S
C203 C202 1.395 . S
C203 H229 0.929 . S
C204 C202 1.320 . S
C204 C205 1.405 . S
C204 H230 0.930 . S
C205 C200 1.479 . S
C205 C204 1.405 . S
C205 H231 0.931 . S
U206 O207 2.454 . S
U206 O208 2.458 . S
U206 C209 2.984 . S
U206 C210 2.847 . S
U206 C223 2.882 . S
U206 O224 2.441 . S
U206 O225 2.420 . S
U206 O226 2.455 . S
U206 O227 2.449 . S
O207 U206 2.454 . S
O207 C209 1.353 . S
O208 U206 2.458 . S
O208 C209 1.286 . S
C209 U206 2.984 . S
C209 O207 1.353 . S
C209 O208 1.286 . S
C209 C211 1.363 . S
C210 C200 1.465 . S
C210 U206 2.847 . S
C210 O224 1.249 . S
C210 O225 1.202 . S
C211 C209 1.363 . S
C211 C213 1.408 . S
C211 C216 1.342 . S
C212 C213 1.310 . S
C212 C215 1.461 . S
C212 H232 0.932 . S
C213 C211 1.408 . S
C213 C212 1.310 . S
C213 H233 0.930 . S
C214 C215 1.474 . S
C214 C216 1.285 . S
C214 H234 0.929 . S
C215 C212 1.461 . S
C215 C214 1.474 . S
C216 C211 1.342 . S
C216 C214 1.285 . S
C216 H235 0.930 . S
C217 C220 1.424 . S
C217 C222 1.245 . S
C217 C223 1.428 . S
C218 C221 1.260 . S
C218 C222 1.477 . S
C218 H236 0.932 . S
C219 C220 1.384 . S
C219 C221 1.479 . S
C219 H237 0.929 . S
C220 C217 1.424 . S
C220 C219 1.384 . S
C220 H238 0.928 . S
C221 C218 1.260 . S
C221 C219 1.479 . S
C222 C217 1.245 . S
C222 C218 1.477 . S
C222 H239 0.932 . S
C223 U206 2.882 . S
C223 C217 1.428 . S
C223 O226 1.301 . S
C223 O227 1.282 . S
O224 U206 2.441 . S
O224 C210 1.249 . S
O225 U206 2.420 . S
O225 C210 1.202 . S
O226 U206 2.455 . S
O226 C223 1.301 . S
O227 U206 2.449 . S
O227 C223 1.282 . S
H228 C201 0.931 . S
H229 C203 0.929 . S
H230 C204 0.930 . S
H231 C205 0.931 . S
H232 C212 0.932 . S
H233 C213 0.930 . S
H234 C214 0.929 . S
H235 C216 0.930 . S
H236 C218 0.932 . S
H237 C219 0.929 . S
H238 C220 0.928 . S
H239 C222 0.932 . S
C240 C241 1.264 . S
C240 C245 1.479 . S
C240 C250 1.465 . S
C241 C240 1.264 . S
C241 C243 1.339 . S
C241 H268 0.931 . S
C242 C243 1.395 . S
C242 C244 1.320 . S
C243 C241 1.339 . S
C243 C242 1.395 . S
C243 H269 0.929 . S
C244 C242 1.320 . S
C244 C245 1.405 . S
C244 H270 0.930 . S
C245 C240 1.479 . S
C245 C244 1.405 . S
C245 H271 0.931 . S
U246 O247 2.454 . S
U246 O248 2.458 . S
U246 C249 2.984 . S
U246 C250 2.847 . S
U246 C263 2.882 . S
U246 O264 2.441 . S
U246 O265 2.420 . S
U246 O266 2.455 . S
U246 O267 2.449 . S
O247 U246 2.454 . S
O247 C249 1.353 . S
O248 U246 2.458 . S
O248 C249 1.286 . S
C249 U246 2.984 . S
C249 O247 1.353 . S
C249 O248 1.286 . S
C249 C251 1.363 . S
C250 C240 1.465 . S
C250 U246 2.847 . S
C250 O264 1.249 . S
C250 O265 1.202 . S
C251 C249 1.363 . S
C251 C253 1.408 . S
C251 C256 1.342 . S
C252 C253 1.310 . S
C252 C255 1.461 . S
C252 H272 0.932 . S
C253 C251 1.408 . S
C253 C252 1.310 . S
C253 H273 0.930 . S
C254 C255 1.474 . S
C254 C256 1.285 . S
C254 H274 0.929 . S
C255 C252 1.461 . S
C255 C254 1.474 . S
C256 C251 1.342 . S
C256 C254 1.285 . S
C256 H275 0.930 . S
C257 C260 1.424 . S
C257 C262 1.245 . S
C257 C263 1.428 . S
C258 C261 1.260 . S
C258 C262 1.477 . S
C258 H276 0.932 . S
C259 C260 1.384 . S
C259 C261 1.479 . S
C259 H277 0.929 . S
C260 C257 1.424 . S
C260 C259 1.384 . S
C260 H278 0.928 . S
C261 C258 1.260 . S
C261 C259 1.479 . S
C262 C257 1.245 . S
C262 C258 1.477 . S
C262 H279 0.932 . S
C263 U246 2.882 . S
C263 C257 1.428 . S
C263 O266 1.301 . S
C263 O267 1.282 . S
O264 U246 2.441 . S
O264 C250 1.249 . S
O265 U246 2.420 . S
O265 C250 1.202 . S
O266 U246 2.455 . S
O266 C263 1.301 . S
O267 U246 2.449 . S
O267 C263 1.282 . S
H268 C241 0.931 . S
H269 C243 0.929 . S
H270 C244 0.930 . S
H271 C245 0.931 . S
H272 C252 0.932 . S
H273 C253 0.930 . S
H274 C254 0.929 . S
H275 C256 0.930 . S
H276 C258 0.932 . S
H277 C259 0.929 . S
H278 C260 0.928 . S
H279 C262 0.932 . S
C280 C281 1.264 . S
C280 C285 1.479 . S
C280 C290 1.465 . S
C281 C280 1.264 . S
C281 C283 1.339 . S
C281 H308 0.931 . S
C282 C283 1.395 . S
C282 C284 1.320 . S
C283 C281 1.339 . S
C283 C282 1.395 . S
C283 H309 0.929 . S
C284 C282 1.320 . S
C284 C285 1.405 . S
C284 H310 0.930 . S
C285 C280 1.479 . S
C285 C284 1.405 . S
C285 H311 0.931 . S
U286 O287 2.454 . S
U286 O288 2.458 . S
U286 C289 2.984 . S
U286 C290 2.847 . S
U286 C303 2.882 . S
U286 O304 2.441 . S
U286 O305 2.420 . S
U286 O306 2.455 . S
U286 O307 2.449 . S
O287 U286 2.454 . S
O287 C289 1.353 . S
O288 U286 2.458 . S
O288 C289 1.286 . S
C289 U286 2.984 . S
C289 O287 1.353 . S
C289 O288 1.286 . S
C289 C291 1.363 . S
C290 C280 1.465 . S
C290 U286 2.847 . S
C290 O304 1.249 . S
C290 O305 1.202 . S
C291 C289 1.363 . S
C291 C293 1.408 . S
C291 C296 1.342 . S
C292 C293 1.310 . S
C292 C295 1.461 . S
C292 H312 0.932 . S
C293 C291 1.408 . S
C293 C292 1.310 . S
C293 H313 0.930 . S
C294 C295 1.474 . S
C294 C296 1.285 . S
C294 H314 0.929 . S
C295 C292 1.461 . S
C295 C294 1.474 . S
C296 C291 1.342 . S
C296 C294 1.285 . S
C296 H315 0.930 . S
C297 C300 1.424 . S
C297 C302 1.245 . S
C297 C303 1.428 . S
C298 C301 1.260 . S
C298 C302 1.477 . S
C298 H316 0.932 . S
C299 C300 1.384 . S
C299 C301 1.479 . S
C299 H317 0.929 . S
C300 C297 1.424 . S
C300 C299 1.384 . S
C300 H318 0.928 . S
C301 C298 1.260 . S
C301 C299 1.479 . S
C302 C297 1.245 . S
C302 C298 1.477 . S
C302 H319 0.932 . S
C303 U286 2.882 . S
C303 C297 1.428 . S
C303 O306 1.301 . S
C303 O307 1.282 . S
O304 U286 2.441 . S
O304 C290 1.249 . S
O305 U286 2.420 . S
O305 C290 1.202 . S
O306 U286 2.455 . S
O306 C303 1.301 . S
O307 U286 2.449 . S
O307 C303 1.282 . S
H308 C281 0.931 . S
H309 C283 0.929 . S
H310 C284 0.930 . S
H311 C285 0.931 . S
H312 C292 0.932 . S
H313 C293 0.930 . S
H314 C294 0.929 . S
H315 C296 0.930 . S
H316 C298 0.932 . S
H317 C299 0.929 . S
H318 C300 0.928 . S
H319 C302 0.932 . S
H320 C339 0.949 . S
H321 C340 0.950 . S
H322 C342 0.950 . S
H323 C343 0.950 . S
H324 C345 0.950 . S
H325 C348 0.950 . S
H326 C349 0.950 . S
H327 C351 0.951 . S
H328 C352 0.949 . S
H329 C354 0.949 . S
H330 C355 0.950 . S
H331 C357 0.950 . S
H332 C358 0.950 . S
H333 C360 0.950 . S
H334 C363 0.950 . S
H335 C364 0.950 . S
H336 C366 0.951 . S
H337 C367 0.949 . S
C338 C339 1.376 . S
C338 C343 1.386 . S
C338 C344 1.483 . S
C339 H320 0.949 . S
C339 C338 1.376 . S
C339 C340 1.397 . S
C340 H321 0.950 . S
C340 C339 1.397 . S
C340 C341 1.391 . S
C341 C340 1.391 . S
C341 C342 1.405 . S
C342 H322 0.950 . S
C342 C341 1.405 . S
C342 C343 1.367 . S
C343 H323 0.950 . S
C343 C338 1.386 . S
C343 C342 1.367 . S
C344 C338 1.483 . S
C344 C345 1.382 . S
C344 C346 1.403 1_655 S
C345 H324 0.950 . S
C345 C344 1.382 . S
C345 C361 1.411 . S
C346 C344 1.403 1_455 S
C346 C347 1.489 . S
C346 C360 1.411 . S
C347 C346 1.489 . S
C347 C348 1.383 . S
C347 C352 1.382 . S
C348 H325 0.950 . S
C348 C347 1.383 . S
C348 C349 1.395 . S
C349 H326 0.950 . S
C349 C348 1.395 . S
C349 C350 1.288 . S
C350 C349 1.288 . S
C350 C351 1.392 . S
C351 H327 0.951 . S
C351 C350 1.392 . S
C351 C352 1.392 . S
C352 H328 0.949 . S
C352 C347 1.382 . S
C352 C351 1.392 . S
C353 C354 1.376 . S
C353 C358 1.386 . S
C353 C359 1.483 . S
C354 H329 0.949 . S
C354 C353 1.376 . S
C354 C355 1.397 . S
C355 H330 0.950 . S
C355 C354 1.397 . S
C355 C356 1.391 . S
C356 C355 1.391 . S
C356 C357 1.405 . S
C357 H331 0.950 . S
C357 C356 1.405 . S
C357 C358 1.367 . S
C358 H332 0.950 . S
C358 C353 1.386 . S
C358 C357 1.367 . S
C359 C353 1.483 . S
C359 C360 1.382 . S
C359 C361 1.403 1_455 S
C360 H333 0.950 . S
C360 C346 1.411 . S
C360 C359 1.382 . S
C361 C345 1.411 . S
C361 C359 1.403 1_655 S
C361 C362 1.489 . S
C362 C361 1.489 . S
C362 C363 1.383 . S
C362 C367 1.382 . S
C363 H334 0.950 . S
C363 C362 1.383 . S
C363 C364 1.395 . S
C364 H335 0.950 . S
C364 C363 1.395 . S
C364 C365 1.288 . S
C365 C364 1.288 . S
C365 C366 1.392 . S
C366 H336 0.951 . S
C366 C365 1.392 . S
C366 C367 1.392 . S
C367 H337 0.949 . S
C367 C362 1.382 . S
C367 C366 1.392 . S
H368 C387 0.949 . S
H369 C388 0.950 . S
H370 C390 0.950 . S
H371 C391 0.950 . S
H372 C393 0.950 . S
H373 C396 0.950 . S
H374 C397 0.950 . S
H375 C399 0.951 . S
H376 C400 0.949 . S
H377 C402 0.949 . S
H378 C403 0.950 . S
H379 C405 0.950 . S
H380 C406 0.950 . S
H381 C408 0.950 . S
H382 C411 0.950 . S
H383 C412 0.950 . S
H384 C414 0.951 . S
H385 C415 0.949 . S
C386 C387 1.376 . S
C386 C391 1.386 . S
C386 C392 1.483 . S
C387 H368 0.949 . S
C387 C386 1.376 . S
C387 C388 1.397 . S
C388 H369 0.950 . S
C388 C387 1.397 . S
C388 C389 1.391 . S
C389 C388 1.391 . S
C389 C390 1.405 . S
C390 H370 0.950 . S
C390 C389 1.405 . S
C390 C391 1.367 . S
C391 H371 0.950 . S
C391 C386 1.386 . S
C391 C390 1.367 . S
C392 C386 1.483 . S
C392 C393 1.382 . S
C392 C394 1.403 1_455 S
C393 H372 0.950 . S
C393 C392 1.382 . S
C393 C409 1.411 . S
C394 C392 1.403 1_655 S
C394 C395 1.489 . S
C394 C408 1.411 . S
C395 C394 1.489 . S
C395 C396 1.383 . S
C395 C400 1.382 . S
C396 H373 0.950 . S
C396 C395 1.383 . S
C396 C397 1.395 . S
C397 H374 0.950 . S
C397 C396 1.395 . S
C397 C398 1.288 . S
C398 C397 1.288 . S
C398 C399 1.392 . S
C399 H375 0.951 . S
C399 C398 1.392 . S
C399 C400 1.392 . S
C400 H376 0.949 . S
C400 C395 1.382 . S
C400 C399 1.392 . S
C401 C402 1.376 . S
C401 C406 1.386 . S
C401 C407 1.483 . S
C402 H377 0.949 . S
C402 C401 1.376 . S
C402 C403 1.397 . S
C403 H378 0.950 . S
C403 C402 1.397 . S
C403 C404 1.391 . S
C404 C403 1.391 . S
C404 C405 1.405 . S
C405 H379 0.950 . S
C405 C404 1.405 . S
C405 C406 1.367 . S
C406 H380 0.950 . S
C406 C401 1.386 . S
C406 C405 1.367 . S
C407 C401 1.483 . S
C407 C408 1.382 . S
C407 C409 1.403 1_655 S
C408 H381 0.950 . S
C408 C394 1.411 . S
C408 C407 1.382 . S
C409 C393 1.411 . S
C409 C407 1.403 1_455 S
C409 C410 1.489 . S
C410 C409 1.489 . S
C410 C411 1.383 . S
C410 C415 1.382 . S
C411 H382 0.950 . S
C411 C410 1.383 . S
C411 C412 1.395 . S
C412 H383 0.950 . S
C412 C411 1.395 . S
C412 C413 1.288 . S
C413 C412 1.288 . S
C413 C414 1.392 . S
C414 H384 0.951 . S
C414 C413 1.392 . S
C414 C415 1.392 . S
C415 H385 0.949 . S
C415 C410 1.382 . S
C415 C414 1.392 . S
H416 C435 0.949 . S
H417 C436 0.950 . S
H418 C438 0.950 . S
H419 C439 0.950 . S
H420 C441 0.950 . S
H421 C444 0.950 . S
H422 C445 0.950 . S
H423 C447 0.951 . S
H424 C448 0.949 . S
H425 C450 0.949 . S
H426 C451 0.950 . S
H427 C453 0.950 . S
H428 C454 0.950 . S
H429 C456 0.950 . S
H430 C459 0.950 . S
H431 C460 0.950 . S
H432 C462 0.951 . S
H433 C463 0.949 . S
C434 C435 1.376 . S
C434 C439 1.386 . S
C434 C440 1.483 . S
C435 H416 0.949 . S
C435 C434 1.376 . S
C435 C436 1.397 . S
C436 H417 0.950 . S
C436 C435 1.397 . S
C436 C437 1.391 . S
C437 C436 1.391 . S
C437 C438 1.405 . S
C438 H418 0.950 . S
C438 C437 1.405 . S
C438 C439 1.367 . S
C439 H419 0.950 . S
C439 C434 1.386 . S
C439 C438 1.367 . S
C440 C434 1.483 . S
C440 C441 1.382 1_565 S
C440 C442 1.403 . S
C441 H420 0.950 . S
C441 C440 1.382 1_545 S
C441 C457 1.411 . S
C442 C440 1.403 . S
C442 C443 1.489 . S
C442 C456 1.411 1_565 S
C443 C442 1.489 . S
C443 C444 1.383 . S
C443 C448 1.382 . S
C444 H421 0.950 . S
C444 C443 1.383 . S
C444 C445 1.395 . S
C445 H422 0.950 . S
C445 C444 1.395 . S
C445 C446 1.288 . S
C446 C445 1.288 . S
C446 C447 1.392 . S
C447 H423 0.951 . S
C447 C446 1.392 . S
C447 C448 1.392 . S
C448 H424 0.949 . S
C448 C443 1.382 . S
C448 C447 1.392 . S
C449 C450 1.376 . S
C449 C454 1.386 . S
C449 C455 1.483 . S
C450 H425 0.949 . S
C450 C449 1.376 . S
C450 C451 1.397 . S
C451 H426 0.950 . S
C451 C450 1.397 . S
C451 C452 1.391 . S
C452 C451 1.391 . S
C452 C453 1.405 . S
C453 H427 0.950 . S
C453 C452 1.405 . S
C453 C454 1.367 . S
C454 H428 0.950 . S
C454 C449 1.386 . S
C454 C453 1.367 . S
C455 C449 1.483 . S
C455 C456 1.382 . S
C455 C457 1.403 . S
C456 H429 0.950 . S
C456 C442 1.411 1_545 S
C456 C455 1.382 . S
C457 C441 1.411 . S
C457 C455 1.403 . S
C457 C458 1.489 . S
C458 C457 1.489 . S
C458 C459 1.383 . S
C458 C463 1.382 . S
C459 H430 0.950 . S
C459 C458 1.383 . S
C459 C460 1.395 . S
C460 H431 0.950 . S
C460 C459 1.395 . S
C460 C461 1.288 . S
C461 C460 1.288 . S
C461 C462 1.392 . S
C462 H432 0.951 . S
C462 C461 1.392 . S
C462 C463 1.392 . S
C463 H433 0.949 . S
C463 C458 1.382 . S
C463 C462 1.392 . S
H464 C483 0.949 . S
H465 C484 0.950 . S
H466 C486 0.950 . S
H467 C487 0.950 . S
H468 C489 0.950 . S
H469 C492 0.950 . S
H470 C493 0.950 . S
H471 C495 0.951 . S
H472 C496 0.949 . S
H473 C498 0.949 . S
H474 C499 0.950 . S
H475 C501 0.950 . S
H476 C502 0.950 . S
H477 C504 0.950 . S
H478 C507 0.950 . S
H479 C508 0.950 . S
H480 C510 0.951 . S
H481 C511 0.949 . S
C482 C483 1.376 . S
C482 C487 1.386 . S
C482 C488 1.483 . S
C483 H464 0.949 . S
C483 C482 1.376 . S
C483 C484 1.397 . S
C484 H465 0.950 . S
C484 C483 1.397 . S
C484 C485 1.391 . S
C485 C484 1.391 . S
C485 C486 1.405 . S
C486 H466 0.950 . S
C486 C485 1.405 . S
C486 C487 1.367 . S
C487 H467 0.950 . S
C487 C482 1.386 . S
C487 C486 1.367 . S
C488 C482 1.483 . S
C488 C489 1.382 1_556 S
C488 C490 1.403 . S
C489 H468 0.950 . S
C489 C488 1.382 1_554 S
C489 C505 1.411 . S
C490 C488 1.403 . S
C490 C491 1.489 . S
C490 C504 1.411 1_556 S
C491 C490 1.489 . S
C491 C492 1.383 . S
C491 C496 1.382 . S
C492 H469 0.950 . S
C492 C491 1.383 . S
C492 C493 1.395 . S
C493 H470 0.950 . S
C493 C492 1.395 . S
C493 C494 1.288 . S
C494 C493 1.288 . S
C494 C495 1.392 . S
C495 H471 0.951 . S
C495 C494 1.392 . S
C495 C496 1.392 . S
C496 H472 0.949 . S
C496 C491 1.382 . S
C496 C495 1.392 . S
C497 C498 1.376 . S
C497 C502 1.386 . S
C497 C503 1.483 . S
C498 H473 0.949 . S
C498 C497 1.376 . S
C498 C499 1.397 . S
C499 H474 0.950 . S
C499 C498 1.397 . S
C499 C500 1.391 . S
C500 C499 1.391 . S
C500 C501 1.405 . S
C501 H475 0.950 . S
C501 C500 1.405 . S
C501 C502 1.367 . S
C502 H476 0.950 . S
C502 C497 1.386 . S
C502 C501 1.367 . S
C503 C497 1.483 . S
C503 C504 1.382 . S
C503 C505 1.403 . S
C504 H477 0.950 . S
C504 C490 1.411 1_554 S
C504 C503 1.382 . S
C505 C489 1.411 . S
C505 C503 1.403 . S
C505 C506 1.489 . S
C506 C505 1.489 . S
C506 C507 1.383 . S
C506 C511 1.382 . S
C507 H478 0.950 . S
C507 C506 1.383 . S
C507 C508 1.395 . S
C508 H479 0.950 . S
C508 C507 1.395 . S
C508 C509 1.288 . S
C509 C508 1.288 . S
C509 C510 1.392 . S
C510 H480 0.951 . S
C510 C509 1.392 . S
C510 C511 1.392 . S
C511 H481 0.949 . S
C511 C506 1.382 . S
C511 C510 1.392 . S
H512 C531 0.949 . S
H513 C532 0.950 . S
H514 C534 0.950 . S
H515 C535 0.950 . S
H516 C537 0.950 . S
H517 C540 0.950 . S
H518 C541 0.950 . S
H519 C543 0.951 . S
H520 C544 0.949 . S
H521 C546 0.949 . S
H522 C547 0.950 . S
H523 C549 0.950 . S
H524 C550 0.950 . S
H525 C552 0.950 . S
H526 C555 0.950 . S
H527 C556 0.950 . S
H528 C558 0.951 . S
H529 C559 0.949 . S
C530 C531 1.376 . S
C530 C535 1.386 . S
C530 C536 1.483 . S
C531 H512 0.949 . S
C531 C530 1.376 . S
C531 C532 1.397 . S
C532 H513 0.950 . S
C532 C531 1.397 . S
C532 C533 1.391 . S
C533 C532 1.391 . S
C533 C534 1.405 . S
C534 H514 0.950 . S
C534 C533 1.405 . S
C534 C535 1.367 . S
C535 H515 0.950 . S
C535 C530 1.386 . S
C535 C534 1.367 . S
C536 C530 1.483 . S
C536 C537 1.382 1_565 S
C536 C538 1.403 . S
C537 H516 0.950 . S
C537 C536 1.382 1_545 S
C537 C553 1.411 . S
C538 C536 1.403 . S
C538 C539 1.489 . S
C538 C552 1.411 1_565 S
C539 C538 1.489 . S
C539 C540 1.383 . S
C539 C544 1.382 . S
C540 H517 0.950 . S
C540 C539 1.383 . S
C540 C541 1.395 . S
C541 H518 0.950 . S
C541 C540 1.395 . S
C541 C542 1.288 . S
C542 C541 1.288 . S
C542 C543 1.392 . S
C543 H519 0.951 . S
C543 C542 1.392 . S
C543 C544 1.392 . S
C544 H520 0.949 . S
C544 C539 1.382 . S
C544 C543 1.392 . S
C545 C546 1.376 . S
C545 C550 1.386 . S
C545 C551 1.483 . S
C546 H521 0.949 . S
C546 C545 1.376 . S
C546 C547 1.397 . S
C547 H522 0.950 . S
C547 C546 1.397 . S
C547 C548 1.391 . S
C548 C547 1.391 . S
C548 C549 1.405 . S
C549 H523 0.950 . S
C549 C548 1.405 . S
C549 C550 1.367 . S
C550 H524 0.950 . S
C550 C545 1.386 . S
C550 C549 1.367 . S
C551 C545 1.483 . S
C551 C552 1.382 . S
C551 C553 1.403 . S
C552 H525 0.950 . S
C552 C538 1.411 1_545 S
C552 C551 1.382 . S
C553 C537 1.411 . S
C553 C551 1.403 . S
C553 C554 1.489 . S
C554 C553 1.489 . S
C554 C555 1.383 . S
C554 C559 1.382 . S
C555 H526 0.950 . S
C555 C554 1.383 . S
C555 C556 1.395 . S
C556 H527 0.950 . S
C556 C555 1.395 . S
C556 C557 1.288 . S
C557 C556 1.288 . S
C557 C558 1.392 . S
C558 H528 0.951 . S
C558 C557 1.392 . S
C558 C559 1.392 . S
C559 H529 0.949 . S
C559 C554 1.382 . S
C559 C558 1.392 . S
H560 C579 0.949 . S
H561 C580 0.950 . S
H562 C582 0.950 . S
H563 C583 0.950 . S
H564 C585 0.950 . S
H565 C588 0.950 . S
H566 C589 0.950 . S
H567 C591 0.951 . S
H568 C592 0.949 . S
H569 C594 0.949 . S
H570 C595 0.950 . S
H571 C597 0.950 . S
H572 C598 0.950 . S
H573 C600 0.950 . S
H574 C603 0.950 . S
H575 C604 0.950 . S
H576 C606 0.951 . S
H577 C607 0.949 . S
C578 C579 1.376 . S
C578 C583 1.386 . S
C578 C584 1.483 . S
C579 H560 0.949 . S
C579 C578 1.376 . S
C579 C580 1.397 . S
C580 H561 0.950 . S
C580 C579 1.397 . S
C580 C581 1.391 . S
C581 C580 1.391 . S
C581 C582 1.405 . S
C582 H562 0.950 . S
C582 C581 1.405 . S
C582 C583 1.367 . S
C583 H563 0.950 . S
C583 C578 1.386 . S
C583 C582 1.367 . S
C584 C578 1.483 . S
C584 C585 1.382 1_556 S
C584 C586 1.403 . S
C585 H564 0.950 . S
C585 C584 1.382 1_554 S
C585 C601 1.411 . S
C586 C584 1.403 . S
C586 C587 1.489 . S
C586 C600 1.411 1_556 S
C587 C586 1.489 . S
C587 C588 1.383 . S
C587 C592 1.382 . S
C588 H565 0.950 . S
C588 C587 1.383 . S
C588 C589 1.395 . S
C589 H566 0.950 . S
C589 C588 1.395 . S
C589 C590 1.288 . S
C590 C589 1.288 . S
C590 C591 1.392 . S
C591 H567 0.951 . S
C591 C590 1.392 . S
C591 C592 1.392 . S
C592 H568 0.949 . S
C592 C587 1.382 . S
C592 C591 1.392 . S
C593 C594 1.376 . S
C593 C598 1.386 . S
C593 C599 1.483 . S
C594 H569 0.949 . S
C594 C593 1.376 . S
C594 C595 1.397 . S
C595 H570 0.950 . S
C595 C594 1.397 . S
C595 C596 1.391 . S
C596 C595 1.391 . S
C596 C597 1.405 . S
C597 H571 0.950 . S
C597 C596 1.405 . S
C597 C598 1.367 . S
C598 H572 0.950 . S
C598 C593 1.386 . S
C598 C597 1.367 . S
C599 C593 1.483 . S
C599 C600 1.382 . S
C599 C601 1.403 . S
C600 H573 0.950 . S
C600 C586 1.411 1_554 S
C600 C599 1.382 . S
C601 C585 1.411 . S
C601 C599 1.403 . S
C601 C602 1.489 . S
C602 C601 1.489 . S
C602 C603 1.383 . S
C602 C607 1.382 . S
C603 H574 0.950 . S
C603 C602 1.383 . S
C603 C604 1.395 . S
C604 H575 0.950 . S
C604 C603 1.395 . S
C604 C605 1.288 . S
C605 C604 1.288 . S
C605 C606 1.392 . S
C606 H576 0.951 . S
C606 C605 1.392 . S
C606 C607 1.392 . S
C607 H577 0.949 . S
C607 C602 1.382 . S
C607 C606 1.392 . S
C608 C609 1.387 . S
C608 H612 0.950 . S
C608 C617 1.390 . S
C609 C608 1.387 . S
C609 C611 1.387 . S
H610 C617 0.950 . S
C611 C609 1.387 . S
C611 C613 1.390 . S
C611 H615 0.950 . S
H612 C608 0.950 . S
C613 C611 1.390 . S
C613 C614 1.387 . S
C613 H616 0.950 . S
C614 C613 1.387 . S
C614 C617 1.387 . S
H615 C611 0.950 . S
H616 C613 0.950 . S
C617 C608 1.390 . S
C617 H610 0.950 . S
C617 C614 1.387 . S
C618 C619 1.387 . S
C618 H622 0.950 . S
C618 C627 1.390 . S
C619 C618 1.387 . S
C619 C621 1.387 . S
H620 C627 0.950 . S
C621 C619 1.387 . S
C621 C623 1.390 . S
C621 H625 0.950 . S
H622 C618 0.950 . S
C623 C621 1.390 . S
C623 C624 1.387 . S
C623 H626 0.950 . S
C624 C623 1.387 . S
C624 C627 1.387 . S
H625 C621 0.950 . S
H626 C623 0.950 . S
C627 C618 1.390 . S
C627 H620 0.950 . S
C627 C624 1.387 . S
C628 C629 1.387 . S
C628 H632 0.950 . S
C628 C637 1.390 . S
C629 C628 1.387 . S
C629 C631 1.387 . S
H630 C637 0.950 . S
C631 C629 1.387 . S
C631 C633 1.390 . S
C631 H635 0.950 . S
H632 C628 0.950 . S
C633 C631 1.390 . S
C633 C634 1.387 . S
C633 H636 0.950 . S
C634 C633 1.387 . S
C634 C637 1.387 . S
H635 C631 0.950 . S
H636 C633 0.950 . S
C637 C628 1.390 . S
C637 H630 0.950 . S
C637 C634 1.387 . S
C638 C639 1.387 . S
C638 H642 0.950 . S
C638 C647 1.390 . S
C639 C638 1.387 . S
C639 C641 1.387 . S
H640 C647 0.950 . S
C641 C639 1.387 . S
C641 C643 1.390 . S
C641 H645 0.950 . S
H642 C638 0.950 . S
C643 C641 1.390 . S
C643 C644 1.387 . S
C643 H646 0.950 . S
C644 C643 1.387 . S
C644 C647 1.387 . S
H645 C641 0.950 . S
H646 C643 0.950 . S
C647 C638 1.390 . S
C647 H640 0.950 . S
C647 C644 1.387 . S
C648 C649 1.387 . S
C648 H652 0.950 . S
C648 C657 1.390 . S
C649 C648 1.387 . S
C649 C651 1.387 . S
H650 C657 0.950 . S
C651 C649 1.387 . S
C651 C653 1.390 . S
C651 H655 0.950 . S
H652 C648 0.950 . S
C653 C651 1.390 . S
C653 C654 1.387 . S
C653 H656 0.950 . S
C654 C653 1.387 . S
C654 C657 1.387 . S
H655 C651 0.950 . S
H656 C653 0.950 . S
C657 C648 1.390 . S
C657 H650 0.950 . S
C657 C654 1.387 . S
C658 C659 1.387 . S
C658 H662 0.950 . S
C658 C667 1.390 . S
C659 C658 1.387 . S
C659 C661 1.387 . S
H660 C667 0.950 . S
C661 C659 1.387 . S
C661 C663 1.390 . S
C661 H665 0.950 . S
H662 C658 0.950 . S
C663 C661 1.390 . S
C663 C664 1.387 . S
C663 H666 0.950 . S
C664 C663 1.387 . S
C664 C667 1.387 . S
H665 C661 0.950 . S
H666 C663 0.950 . S
C667 C658 1.390 . S
C667 H660 0.950 . S
C667 C664 1.387 . S
C668 C669 1.387 . S
C668 H672 0.950 . S
C668 C677 1.390 . S
C669 C668 1.387 . S
C669 C671 1.387 . S
H670 C677 0.950 . S
C671 C669 1.387 . S
C671 C673 1.390 . S
C671 H675 0.950 . S
H672 C668 0.950 . S
C673 C671 1.390 . S
C673 C674 1.387 . S
C673 H676 0.950 . S
C674 C673 1.387 . S
C674 C677 1.387 . S
H675 C671 0.950 . S
H676 C673 0.950 . S
C677 C668 1.390 . S
C677 H670 0.950 . S
C677 C674 1.387 . S
C678 C679 1.387 . S
C678 H682 0.950 . S
C678 C687 1.390 . S
C679 C678 1.387 . S
C679 C681 1.387 . S
H680 C687 0.950 . S
C681 C679 1.387 . S
C681 C683 1.390 . S
C681 H685 0.950 . S
H682 C678 0.950 . S
C683 C681 1.390 . S
C683 C684 1.387 . S
C683 H686 0.950 . S
C684 C683 1.387 . S
C684 C687 1.387 . S
H685 C681 0.950 . S
H686 C683 0.950 . S
C687 C678 1.390 . S
C687 H680 0.950 . S
C687 C684 1.387 . S
C688 C689 1.387 . S
C688 H692 0.950 . S
C688 C697 1.390 . S
C689 C688 1.387 . S
C689 C691 1.387 . S
H690 C697 0.950 . S
C691 C689 1.387 . S
C691 C693 1.390 . S
C691 H695 0.950 . S
H692 C688 0.950 . S
C693 C691 1.390 . S
C693 C694 1.387 . S
C693 H696 0.950 . S
C694 C693 1.387 . S
C694 C697 1.387 . S
H695 C691 0.950 . S
H696 C693 0.950 . S
C697 C688 1.390 . S
C697 H690 0.950 . S
C697 C694 1.387 . S
C698 C699 1.387 . S
C698 H702 0.950 . S
C698 C707 1.390 . S
C699 C698 1.387 . S
C699 C701 1.387 . S
H700 C707 0.950 . S
C701 C699 1.387 . S
C701 C703 1.390 . S
C701 H705 0.950 . S
H702 C698 0.950 . S
C703 C701 1.390 . S
C703 C704 1.387 . S
C703 H706 0.950 . S
C704 C703 1.387 . S
C704 C707 1.387 . S
H705 C701 0.950 . S
H706 C703 0.950 . S
C707 C698 1.390 . S
C707 H700 0.950 . S
C707 C704 1.387 . S
C708 C709 1.387 . S
C708 H712 0.950 . S
C708 C717 1.390 . S
C709 C708 1.387 . S
C709 C711 1.387 . S
H710 C717 0.950 . S
C711 C709 1.387 . S
C711 C713 1.390 . S
C711 H715 0.950 . S
H712 C708 0.950 . S
C713 C711 1.390 . S
C713 C714 1.387 . S
C713 H716 0.950 . S
C714 C713 1.387 . S
C714 C717 1.387 . S
H715 C711 0.950 . S
H716 C713 0.950 . S
C717 C708 1.390 . S
C717 H710 0.950 . S
C717 C714 1.387 . S
C718 C719 1.387 . S
C718 H722 0.950 . S
C718 C727 1.390 . S
C719 C718 1.387 . S
C719 C721 1.387 . S
H720 C727 0.950 . S
C721 C719 1.387 . S
C721 C723 1.390 . S
C721 H725 0.950 . S
H722 C718 0.950 . S
C723 C721 1.390 . S
C723 C724 1.387 . S
C723 H726 0.950 . S
C724 C723 1.387 . S
C724 C727 1.387 . S
H725 C721 0.950 . S
H726 C723 0.950 . S
C727 C718 1.390 . S
C727 H720 0.950 . S
C727 C724 1.387 . S
C728 C729 1.387 . S
C728 H732 0.950 . S
C728 C737 1.390 . S
C729 C728 1.387 . S
C729 C731 1.387 . S
H730 C737 0.950 . S
C731 C729 1.387 . S
C731 C733 1.390 . S
C731 H735 0.950 . S
H732 C728 0.950 . S
C733 C731 1.390 . S
C733 C734 1.387 . S
C733 H736 0.950 . S
C734 C733 1.387 . S
C734 C737 1.387 . S
H735 C731 0.950 . S
H736 C733 0.950 . S
C737 C728 1.390 . S
C737 H730 0.950 . S
C737 C734 1.387 . S
C738 C739 1.387 . S
C738 H742 0.950 . S
C738 C747 1.390 . S
C739 C738 1.387 . S
C739 C741 1.387 . S
H740 C747 0.950 . S
C741 C739 1.387 . S
C741 C743 1.390 . S
C741 H745 0.950 . S
H742 C738 0.950 . S
C743 C741 1.390 . S
C743 C744 1.387 . S
C743 H746 0.950 . S
C744 C743 1.387 . S
C744 C747 1.387 . S
H745 C741 0.950 . S
H746 C743 0.950 . S
C747 C738 1.390 . S
C747 H740 0.950 . S
C747 C744 1.387 . S
C748 C749 1.387 . S
C748 H752 0.950 . S
C748 C757 1.390 . S
C749 C748 1.387 . S
C749 C751 1.387 . S
H750 C757 0.950 . S
C751 C749 1.387 . S
C751 C753 1.390 . S
C751 H755 0.950 . S
H752 C748 0.950 . S
C753 C751 1.390 . S
C753 C754 1.387 . S
C753 H756 0.950 . S
C754 C753 1.387 . S
C754 C757 1.387 . S
H755 C751 0.950 . S
H756 C753 0.950 . S
C757 C748 1.390 . S
C757 H750 0.950 . S
C757 C754 1.387 . S
C758 C759 1.387 . S
C758 H762 0.950 . S
C758 C767 1.390 . S
C759 C758 1.387 . S
C759 C761 1.387 . S
H760 C767 0.950 . S
C761 C759 1.387 . S
C761 C763 1.390 . S
C761 H765 0.950 . S
H762 C758 0.950 . S
C763 C761 1.390 . S
C763 C764 1.387 . S
C763 H766 0.950 . S
C764 C763 1.387 . S
C764 C767 1.387 . S
H765 C761 0.950 . S
H766 C763 0.950 . S
C767 C758 1.390 . S
C767 H760 0.950 . S
C767 C764 1.387 . S
C768 C769 1.387 . S
C768 H772 0.950 . S
C768 C777 1.390 . S
C769 C768 1.387 . S
C769 C771 1.387 . S
H770 C777 0.950 . S
C771 C769 1.387 . S
C771 C773 1.390 . S
C771 H775 0.950 . S
H772 C768 0.950 . S
C773 C771 1.390 . S
C773 C774 1.387 . S
C773 H776 0.950 . S
C774 C773 1.387 . S
C774 C777 1.387 . S
H775 C771 0.950 . S
H776 C773 0.950 . S
C777 C768 1.390 . S
C777 H770 0.950 . S
C777 C774 1.387 . S
C778 C779 1.387 . S
C778 H782 0.950 . S
C778 C787 1.390 . S
C779 C778 1.387 . S
C779 C781 1.387 . S
H780 C787 0.950 . S
C781 C779 1.387 . S
C781 C783 1.390 . S
C781 H785 0.950 . S
H782 C778 0.950 . S
C783 C781 1.390 . S
C783 C784 1.387 . S
C783 H786 0.950 . S
C784 C783 1.387 . S
C784 C787 1.387 . S
H785 C781 0.950 . S
H786 C783 0.950 . S
C787 C778 1.390 . S
C787 H780 0.950 . S
C787 C784 1.387 . S
C788 C789 1.387 . S
C788 H792 0.950 . S
C788 C797 1.390 . S
C789 C788 1.387 . S
C789 C791 1.387 . S
H790 C797 0.950 . S
C791 C789 1.387 . S
C791 C793 1.390 . S
C791 H795 0.950 . S
H792 C788 0.950 . S
C793 C791 1.390 . S
C793 C794 1.387 . S
C793 H796 0.950 . S
C794 C793 1.387 . S
C794 C797 1.387 . S
H795 C791 0.950 . S
H796 C793 0.950 . S
C797 C788 1.390 . S
C797 H790 0.950 . S
C797 C794 1.387 . S
C798 C799 1.387 . S
C798 H802 0.950 . S
C798 C807 1.390 . S
C799 C798 1.387 . S
C799 C801 1.387 . S
H800 C807 0.950 . S
C801 C799 1.387 . S
C801 C803 1.390 . S
C801 H805 0.950 . S
H802 C798 0.950 . S
C803 C801 1.390 . S
C803 C804 1.387 . S
C803 H806 0.950 . S
C804 C803 1.387 . S
C804 C807 1.387 . S
H805 C801 0.950 . S
H806 C803 0.950 . S
C807 C798 1.390 . S
C807 H800 0.950 . S
C807 C804 1.387 . S
C808 C809 1.387 . S
C808 H812 0.950 . S
C808 C817 1.390 . S
C809 C808 1.387 . S
C809 C811 1.387 . S
H810 C817 0.950 . S
C811 C809 1.387 . S
C811 C813 1.390 . S
C811 H815 0.950 . S
H812 C808 0.950 . S
C813 C811 1.390 . S
C813 C814 1.387 . S
C813 H816 0.950 . S
C814 C813 1.387 . S
C814 C817 1.387 . S
H815 C811 0.950 . S
H816 C813 0.950 . S
C817 C808 1.390 . S
C817 H810 0.950 . S
C817 C814 1.387 . S
C818 C819 1.387 . S
C818 H822 0.950 . S
C818 C827 1.390 . S
C819 C818 1.387 . S
C819 C821 1.387 . S
H820 C827 0.950 . S
C821 C819 1.387 . S
C821 C823 1.390 . S
C821 H825 0.950 . S
H822 C818 0.950 . S
C823 C821 1.390 . S
C823 C824 1.387 . S
C823 H826 0.950 . S
C824 C823 1.387 . S
C824 C827 1.387 . S
H825 C821 0.950 . S
H826 C823 0.950 . S
C827 C818 1.390 . S
C827 H820 0.950 . S
C827 C824 1.387 . S
C828 C829 1.387 . S
C828 H832 0.950 . S
C828 C837 1.390 . S
C829 C828 1.387 . S
C829 C831 1.387 . S
H830 C837 0.950 . S
C831 C829 1.387 . S
C831 C833 1.390 . S
C831 H835 0.950 . S
H832 C828 0.950 . S
C833 C831 1.390 . S
C833 C834 1.387 . S
C833 H836 0.950 . S
C834 C833 1.387 . S
C834 C837 1.387 . S
H835 C831 0.950 . S
H836 C833 0.950 . S
C837 C828 1.390 . S
C837 H830 0.950 . S
C837 C834 1.387 . S
C838 C839 1.387 . S
C838 H842 0.950 . S
C838 C847 1.390 . S
C839 C838 1.387 . S
C839 C841 1.387 . S
H840 C847 0.950 . S
C841 C839 1.387 . S
C841 C843 1.390 . S
C841 H845 0.950 . S
H842 C838 0.950 . S
C843 C841 1.390 . S
C843 C844 1.387 . S
C843 H846 0.950 . S
C844 C843 1.387 . S
C844 C847 1.387 . S
H845 C841 0.950 . S
H846 C843 0.950 . S
C847 C838 1.390 . S
C847 H840 0.950 . S
C847 C844 1.387 . S
C614 C350 1.581 . S
C609 C15 1.580 . S
C624 C389 1.598 . S
C619 C55 1.606 . S
C634 C365 1.588 . S
C629 C101 1.602 . S
C644 C404 1.628 . S
C639 C141 1.640 . S
C654 C452 1.555 . S
C649 C2 1.529 . S
C664 C485 1.541 . S
C659 C61 1.513 . S
C669 C95 1.694 . S
C674 C542 1.708 . S
C684 C590 1.544 . S
C679 C135 1.538 . S
C694 C437 1.565 . S
C689 C42 1.524 . S
C699 C82 1.520 . S
C704 C500 1.552 . S
C714 C557 1.640 . S
C709 C122 1.718 . S
C724 C605 1.535 . S
C719 C21 1.520 . S
C729 C162 1.642 . S
C734 C398 1.603 . S
C744 C341 1.600 . S
C739 C221 1.612 . S
C749 C255 1.606 . S
C754 C413 1.605 . S
C759 C282 1.558 . S
C764 C356 1.577 . S
C774 C533 1.674 . S
C769 C181 1.732 . S
C784 C596 1.553 . S
C779 C202 1.554 . S
C794 C461 1.581 . S
C789 C242 1.575 . S
C799 C301 1.522 . S
C804 C509 1.554 . S
C814 C548 1.686 . S
C809 C215 1.700 . S
C824 C581 1.537 . S
C819 C261 1.550 . S
C834 C446 1.537 . S
C829 C295 1.565 . S
C839 C175 1.544 . S
C844 C494 1.529 . S
