# Generated by pormake.
# Topology tsx, (6,3)-cn, num edge types: 1
# Building blocks:
#     Node 0, Type 0, BuildingBlock: MIDCAF_clean_sbu_0, # of connection points: 6
#     Node 1, Type 0, BuildingBlock: MIDCAF_clean_sbu_0, # of connection points: 6
#     Node 2, Type 1, BuildingBlock: MIDCAF_clean_linker_0, # of connection points: 3
#     Node 3, Type 1, BuildingBlock: MIDCAF_clean_linker_0, # of connection points: 3
#     Node 4, Type 1, BuildingBlock: MIDCAF_clean_linker_0, # of connection points: 3
#     Node 5, Type 1, BuildingBlock: MIDCAF_clean_linker_0, # of connection points: 3
#     Edge 6, Type (0, 1), BuildingBlock: XUDNAN_clean_linker_2, # of connection points: 2
#     Edge 7, Type (0, 1), BuildingBlock: XUDNAN_clean_linker_2, # of connection points: 2
#     Edge 8, Type (0, 1), BuildingBlock: XUDNAN_clean_linker_2, # of connection points: 2
#     Edge 9, Type (0, 1), BuildingBlock: XUDNAN_clean_linker_2, # of connection points: 2
#     Edge 10, Type (0, 1), BuildingBlock: XUDNAN_clean_linker_2, # of connection points: 2
#     Edge 11, Type (0, 1), BuildingBlock: XUDNAN_clean_linker_2, # of connection points: 2
#     Edge 12, Type (0, 1), BuildingBlock: XUDNAN_clean_linker_2, # of connection points: 2
#     Edge 13, Type (0, 1), BuildingBlock: XUDNAN_clean_linker_2, # of connection points: 2
#     Edge 14, Type (0, 1), BuildingBlock: XUDNAN_clean_linker_2, # of connection points: 2
#     Edge 15, Type (0, 1), BuildingBlock: XUDNAN_clean_linker_2, # of connection points: 2
#     Edge 16, Type (0, 1), BuildingBlock: XUDNAN_clean_linker_2, # of connection points: 2
#     Edge 17, Type (0, 1), BuildingBlock: XUDNAN_clean_linker_2, # of connection points: 2
# Relax obj value: 0.119
# Max RMSD: 0.182
# Mean RMSD: 0.113
data_MOF--net-tsx--node1-MIDCAF_clean_sbu_0--node2-MIDCAF_clean_linker_0--edge1-XUDNAN_clean_linker_2
_symmetry_space_group_name_H-M    P1
_symmetry_Int_Tables_number       1
_symmetry_cell_setting            triclinic
loop_
_symmetry_equiv_pos_as_xyz
'x, y, z'
_cell_length_a     22.985046
_cell_length_b     25.906436
_cell_length_c     47.577602
_cell_angle_alpha  90.747683
_cell_angle_beta   95.834747
_cell_angle_gamma 90.03996
loop_
_atom_site_label
_atom_site_type_symbol
_atom_site_fract_x
_atom_site_fract_y
_atom_site_fract_z
_atom_type_partial_charge
Zn0 Zn 0.9714 -0.02524 0.96791 0.0
Zn1 Zn 0.1394 -0.00112 0.04114 0.0
Zn2 Zn 0.06174 -0.00915 0.00367 0.0
C3 C 0.14028 0.09173 0.01541 0.0
C4 C 0.17151 0.91616 0.00981 0.0
O5 O 0.99303 0.94435 0.023 0.0
O6 O 0.92895 0.92141 0.98724 0.0
C7 C 0.98236 0.08245 0.9792 0.0
O8 O 0.08893 0.07463 0.00629 0.0
O9 O 0.17617 0.06211 0.02893 0.0
O10 O 0.17863 0.93361 0.03477 0.0
O11 O 0.13315 0.93748 -0.00808 0.0
O12 O 0.94548 0.04831 0.97021 0.0
O13 O 0.03352 0.06913 -0.00966 0.0
O14 O 0.09561 0.94965 0.9678 0.0
O15 O 1.01737 0.9522 0.93663 0.0
C16 C 0.07096 0.94203 0.9425 0.0
O17 O 0.02845 0.96934 0.04402 0.0
O18 O 0.09693 0.00231 0.0751 0.0
C19 C 0.94768 0.91775 0.01299 0.0
C20 C 0.04727 -0.01819 0.06968 0.0
Zn21 Zn 0.64207 0.50898 0.53944 0.0
Zn22 Zn 0.46458 0.48804 0.46832 0.0
Zn23 Zn 0.55248 0.50602 0.50212 0.0
C24 C 0.55502 0.46127 0.43843 0.0
C25 C 0.46512 0.59454 0.4829 0.0
O26 O 0.52831 0.47697 0.54321 0.0
O27 O 0.6097 0.48003 0.57245 0.0
C28 C 0.67926 0.45189 0.49573 0.0
O29 O 0.58149 0.4673 0.46353 0.0
O30 O 0.5016 0.47265 0.43379 0.0
O31 O 0.43165 0.55811 0.47357 0.0
O32 O 0.51842 0.58457 0.49235 0.0
O33 O 0.69785 0.46767 0.52018 0.0
O34 O 0.62669 0.46281 0.48525 0.0
O35 O 0.57561 0.59019 0.50713 0.0
O36 O 0.65205 0.5847 0.53923 0.0
C37 C 0.61792 0.61177 0.52303 0.0
O38 O 0.48533 0.45745 0.5221 0.0
O39 O 0.42765 0.42873 0.48528 0.0
C40 C 0.55564 0.47108 0.56806 0.0
C41 C 0.44334 0.42756 0.51141 0.0
C42 C 0.8844 0.14497 0.3992 0.0
C43 C 0.90746 0.16987 0.42425 0.0
C44 C 0.95688 0.14839 0.43977 0.0
C45 C 0.9838 0.10411 0.42992 0.0
H46 H 0.10231 0.87558 0.38331 0.0
H47 H 0.18197 0.8266 0.40725 0.0
H48 H 0.22208 0.95336 0.46575 0.0
H49 H 0.14078 0.00321 0.44166 0.0
H50 H 0.08168 0.95385 0.31467 0.0
H51 H 0.0618 0.94346 0.26401 0.0
H52 H 0.87846 -0.02516 0.27026 0.0
H53 H 0.90005 -0.01076 0.32103 0.0
H54 H 0.8928 0.08365 0.36956 0.0
H55 H 0.84672 0.16056 0.38662 0.0
H56 H 0.9752 0.16616 0.45944 0.0
H57 H 0.02253 0.08936 0.44204 0.0
N58 N 0.03834 0.01177 0.40698 0.0
N59 N 0.05123 0.95995 0.36718 0.0
N60 N 0.97767 0.02243 0.36459 0.0
C61 C 0.06711 0.9728 0.39467 0.0
C62 C 1.00664 -0.01552 0.35207 0.0
C63 C 0.99311 0.03659 0.39194 0.0
C64 C 0.11503 0.94343 0.41054 0.0
C65 C 0.12781 0.89332 0.40128 0.0
C66 C 0.17337 0.86501 0.4151 0.0
C67 C 0.20808 0.88605 0.43843 0.0
C68 C 0.19597 0.9363 0.44776 0.0
C69 C 0.14932 0.9646 0.43411 0.0
C70 C 0.99249 0.97256 0.32173 0.0
C71 C 0.03704 0.958 0.30522 0.0
C72 C 0.02529 0.95156 0.27604 0.0
C73 C 0.96822 0.95804 0.26265 0.0
C74 C 0.92315 0.97054 0.27953 0.0
C75 C 0.93533 -0.02158 0.30869 0.0
C76 C 0.96202 0.08044 0.40424 0.0
C77 C 0.91131 0.10094 0.38932 0.0
C78 C 0.91704 0.86652 0.59515 0.0
C79 C 0.88784 0.88678 0.57033 0.0
C80 C 0.90987 0.93253 0.55955 0.0
C81 C 0.95883 0.95789 0.57376 0.0
H82 H 0.1017 0.07216 0.56773 0.0
H83 H 0.15729 0.14596 0.55227 0.0
H84 H 0.26169 0.14915 0.63293 0.0
H85 H 0.20743 0.07669 0.64831 0.0
H86 H 0.2034 0.97213 0.68991 0.0
H87 H 0.22515 0.95211 0.73976 0.0
H88 H 0.04051 0.92788 0.74601 0.0
H89 H 0.02015 0.94385 0.69589 0.0
H90 H 0.98583 0.87456 0.62842 0.0
H91 H 0.90298 0.83059 0.6037 0.0
H92 H 0.88862 0.94932 0.54047 0.0
H93 H 0.97406 -0.00659 0.56523 0.0
N94 N 0.06834 0.00288 0.60441 0.0
N95 N 0.12806 0.01038 0.64748 0.0
N96 N 0.05088 0.95126 0.64305 0.0
C97 C 0.11448 0.02573 0.62037 0.0
C98 C 0.09649 -0.02648 0.65899 0.0
C99 C 0.03662 0.96503 0.61571 0.0
C100 C 0.14933 0.06845 0.60942 0.0
C101 C 0.13672 0.08846 0.58207 0.0
C102 C 0.16868 0.13062 0.57317 0.0
C103 C 0.21339 0.15388 0.59154 0.0
C104 C 0.22683 0.13289 0.61845 0.0
C105 C 0.19554 0.09092 0.62721 0.0
C106 C 0.1101 0.9595 0.68902 0.0
C107 C 0.16771 0.96189 0.702 0.0
C108 C 0.18003 0.95077 0.73072 0.0
C109 C 0.13478 0.93843 0.74742 0.0
C110 C 0.0771 0.93579 0.73411 0.0
C111 C 0.06511 0.94546 0.70525 0.0
C112 C 0.98664 0.9381 0.59908 0.0
C113 C 0.96525 0.89178 0.60931 0.0
C114 C 0.43559 0.65183 0.91269 0.0
C115 C 0.41959 0.641 0.93977 0.0
C116 C 0.44086 0.59515 0.9529 0.0
C117 C 0.47803 0.562 0.93967 0.0
H118 H 0.62906 0.44809 0.95166 0.0
H119 H 0.7108 0.39563 0.9727 0.0
H120 H 0.79093 0.40147 0.89459 0.0
H121 H 0.7097 0.45297 0.8736 0.0
H122 H 0.62348 0.46861 0.81553 0.0
H123 H 0.59926 0.45778 0.76485 0.0
H124 H 0.41885 0.49537 0.77428 0.0
H125 H 0.44398 0.5088 0.82475 0.0
H126 H 0.48272 0.62742 0.87831 0.0
H127 H 0.42151 0.68696 0.902 0.0
H128 H 0.4285 0.58433 0.97337 0.0
H129 H 0.49356 0.52713 0.95028 0.0
N130 N 0.57637 0.5121 0.91149 0.0
N131 N 0.59795 0.47495 0.86842 0.0
N132 N 0.51743 0.52986 0.86941 0.0
C133 C 0.61103 0.48131 0.89676 0.0
C134 C 0.55087 0.49853 0.8547 0.0
C135 C 0.52988 0.53707 0.89767 0.0
C136 C 0.66268 0.45434 0.91091 0.0
C137 C 0.66458 0.43873 0.93918 0.0
C138 C 0.71117 0.40857 0.95116 0.0
C139 C 0.75729 0.39452 0.93529 0.0
C140 C 0.75644 0.41208 0.90746 0.0
C141 C 0.70957 0.44126 0.89537 0.0
C142 C 0.53577 0.48998 0.82407 0.0
C143 C 0.57863 0.4744 0.80675 0.0
C144 C 0.56452 0.46772 0.77768 0.0
C145 C 0.50694 0.47557 0.76533 0.0
C146 C 0.46383 0.48991 0.78289 0.0
C147 C 0.47819 0.49747 0.81187 0.0
C148 C 0.4933 0.57295 0.91262 0.0
C149 C 0.47135 0.61792 0.89918 0.0
C150 C 0.40191 0.43142 0.05992 0.0
C151 C 0.39067 0.37939 0.06551 0.0
C152 C 0.42698 0.35415 0.0865 0.0
C153 C 0.47316 0.38032 0.10185 0.0
H154 H 0.5758 0.6011 0.08317 0.0
H155 H 0.63655 0.67342 0.0704 0.0
H156 H 0.78871 0.60046 0.11377 0.0
H157 H 0.72787 0.53071 0.12755 0.0
H158 H 0.66996 0.51579 0.19619 0.0
H159 H 0.68844 0.49691 0.24602 0.0
H160 H 0.5758 0.36306 0.23418 0.0
H161 H 0.55538 0.38323 0.18424 0.0
H162 H 0.45719 0.49751 0.07022 0.0
H163 H 0.37448 0.45166 0.0438 0.0
H164 H 0.41906 0.31416 0.09135 0.0
H165 H 0.49993 0.35959 0.11801 0.0
N166 N 0.56418 0.49817 0.10231 0.0
N167 N 0.62563 0.50414 0.14485 0.0
N168 N 0.54982 0.44358 0.14023 0.0
C169 C 0.61075 0.52028 0.11806 0.0
C170 C 0.59529 0.46623 0.15623 0.0
C171 C 0.53389 0.45919 0.11332 0.0
C172 C 0.64701 0.56071 0.10666 0.0
C173 C 0.62234 0.60064 0.08968 0.0
C174 C 0.65726 0.642 0.08238 0.0
C175 C 0.7176 0.64366 0.09159 0.0
C176 C 0.74226 0.60187 0.10717 0.0
C177 C 0.70742 0.56142 0.11485 0.0
C178 C 0.61058 0.4514 0.18614 0.0
C179 C 0.64944 0.482 0.20406 0.0
C180 C 0.66055 0.47084 0.23275 0.0
C181 C 0.63359 0.42846 0.24433 0.0
C182 C 0.5966 0.39655 0.22616 0.0
C183 C 0.58501 0.40802 0.19745 0.0
C184 C 0.48504 0.43222 0.09626 0.0
C185 C 0.44928 0.45746 0.07492 0.0
H186 H 0.24683 0.12178 0.00372 0.0
H187 H 0.07949 0.18203 0.02263 0.0
H188 H 0.12329 0.26954 0.0294 0.0
H189 H 0.32593 0.18256 0.05683 0.0
H190 H 0.38987 0.19452 0.03886 0.0
H191 H 0.34254 0.14133 0.02789 0.0
H192 H 0.32853 0.17618 0.97685 0.0
H193 H 0.37674 0.22938 0.98755 0.0
H194 H 0.30417 0.24162 0.97089 0.0
H195 H 0.19112 0.34681 0.04262 0.0
H196 H 0.27381 0.40339 0.06129 0.0
H197 H 0.39642 0.28913 0.03623 0.0
C198 C 0.21878 0.15391 0.00804 0.0
C199 C 0.15946 0.14557 0.01191 0.0
C200 C 0.12447 0.18803 0.01853 0.0
C201 C 0.14927 0.23774 0.02266 0.0
C202 C 0.20898 0.2441 0.02003 0.0
C203 C 0.243 0.20312 0.01254 0.0
C204 C 0.30725 0.21719 0.015 0.0
C205 C 0.34346 0.18182 0.03589 0.0
C206 C 0.33053 0.21604 0.98583 0.0
C207 C 0.30487 0.27174 0.02642 0.0
C208 C 0.24787 0.28734 0.02854 0.0
C209 C 0.2357 0.33519 0.0405 0.0
C210 C 0.28283 0.36714 0.05101 0.0
C211 C 0.34127 0.35058 0.05 0.0
C212 C 0.35208 0.30283 0.03698 0.0
H213 H 0.18761 0.87081 0.95715 0.0
H214 H 0.23741 0.85802 0.04745 0.0
H215 H 0.30173 0.78608 0.03884 0.0
H216 H 0.18969 0.73138 0.94171 0.0
H217 H 0.22052 0.7386 0.90862 0.0
H218 H 0.17536 0.78895 0.92125 0.0
H219 H 0.25819 0.85512 0.91772 0.0
H220 H 0.30394 0.80518 0.90517 0.0
H221 H 0.32957 0.84336 0.9359 0.0
H222 H 0.36603 0.72096 0.0219 0.0
H223 H 0.42477 0.66066 -0.00321 0.0
H224 H 0.33211 0.70767 0.91684 0.0
C225 C 0.21172 0.85264 0.97502 0.0
C226 C 0.20749 0.87088 0.00295 0.0
C227 C 0.23997 0.84565 0.02578 0.0
C228 C 0.27677 0.80437 0.0212 0.0
C229 C 0.28089 0.78801 -0.00637 0.0
C230 C 0.24921 0.81075 0.97083 0.0
C231 C 0.26358 0.78529 0.94338 0.0
C232 C 0.20903 0.75951 0.92783 0.0
C233 C 0.29043 0.82459 0.92443 0.0
C234 C 0.30852 0.74537 0.95461 0.0
C235 C 0.31759 0.74808 0.98367 0.0
C236 C 0.35864 0.71751 -0.00087 0.0
C237 C 0.39154 0.68282 0.98456 0.0
C238 C 0.38287 0.67804 0.9547 0.0
C239 C 0.3404 0.71001 0.93962 0.0
H240 H 0.84312 0.86743 -0.00024 0.0
H241 H 0.98753 0.88135 0.06549 0.0
H242 H 0.93886 0.82021 0.09472 0.0
H243 H 0.72495 0.84731 0.04436 0.0
H244 H 0.6894 0.79901 0.02096 0.0
H245 H 0.73142 0.84962 0.00694 0.0
H246 H 0.79427 0.78113 0.98388 0.0
H247 H 0.75248 0.73038 -0.00221 0.0
H248 H 0.83087 0.73201 0.00556 0.0
H249 H 0.87575 0.75516 0.11601 0.0
H250 H 0.80868 0.68564 0.12639 0.0
H251 H 0.71133 0.7052 0.04403 0.0
C252 C 0.86414 0.85838 0.02051 0.0
C253 C 0.91803 0.88157 0.03096 0.0
C254 C 0.94475 0.867 0.05779 0.0
C255 C 0.91773 0.83151 0.07436 0.0
C256 C 0.86456 0.80969 0.06345 0.0
C257 C 0.83844 0.82202 0.03698 0.0
C258 C 0.78422 0.78942 0.02906 0.0
C259 C 0.72924 0.82338 0.0251 0.0
C260 C 0.79089 0.75627 0.00251 0.0
C261 C 0.78423 0.75639 0.05512 0.0
C262 C 0.83043 0.76937 0.07485 0.0
C263 C 0.83977 0.74434 0.10059 0.0
C264 C 0.80159 0.7044 0.10614 0.0
C265 C 0.75504 0.68881 0.08584 0.0
C266 C 0.74604 0.71599 0.06013 0.0
H267 H 0.87494 0.12035 0.98588 0.0
H268 H 0.04744 0.16693 0.96674 0.0
H269 H 1.01126 0.25636 0.95851 0.0
H270 H 0.79581 0.18955 0.93354 0.0
H271 H 0.73677 0.20635 0.95411 0.0
H272 H 0.77847 0.14871 0.96194 0.0
H273 H 0.80276 0.18017 0.01375 0.0
H274 H 0.76093 0.23803 0.00609 0.0
H275 H 0.83622 0.24259 0.02079 0.0
H276 H 0.95155 0.3376 0.94637 0.0
H277 H 0.87586 0.40341 0.93319 0.0
H278 H 0.74345 0.30273 0.96141 0.0
C279 C 0.90541 0.14966 0.98048 0.0
C280 C 0.96416 0.13712 0.97726 0.0
C281 C 1.00263 0.17618 0.96991 0.0
C282 C 0.98229 0.2269 0.96508 0.0
C283 C 0.92358 0.23776 0.96797 0.0
C284 C 0.88596 0.20019 0.97584 0.0
C285 C 0.82419 0.22038 0.97592 0.0
C286 C 0.78132 0.18942 0.95514 0.0
C287 C 0.80491 0.22029 0.00592 0.0
C288 C 0.83213 0.27481 0.96586 0.0
C289 C 0.88979 0.28438 0.96156 0.0
C290 C 0.90658 0.33076 0.95017 0.0
C291 C 0.8633 0.36783 0.94266 0.0
C292 C 0.80393 0.3584 0.94661 0.0
C293 C 0.78865 0.3116 0.95885 0.0
H294 H 0.63797 0.67747 0.56734 0.0
H295 H 0.63835 0.66771 0.47658 0.0
H296 H 0.69752 0.74798 0.47764 0.0
H297 H 0.64129 0.82524 0.57375 0.0
H298 H 0.68844 0.82143 0.60633 0.0
H299 H 0.63446 0.77188 0.59715 0.0
H300 H 0.71603 0.70284 0.60292 0.0
H301 H 0.77041 0.75188 0.61137 0.0
H302 H 0.77756 0.70759 0.58239 0.0
H303 H 0.77527 0.81761 0.49052 0.0
H304 H 0.85577 0.8722 0.51308 0.0
H305 H 0.80105 0.83754 0.59539 0.0
C306 C 0.64769 0.694 0.54754 0.0
C307 C 0.63241 0.66727 0.5218 0.0
C308 C 0.64799 0.68857 0.49638 0.0
C309 C 0.68213 0.73391 0.49689 0.0
C310 C 0.69951 0.75776 0.52295 0.0
C311 C 0.68136 0.7391 0.54776 0.0
C312 C 0.71099 0.76752 0.57335 0.0
C313 C 0.66612 0.79836 0.58854 0.0
C314 C 0.7458 0.73023 0.59367 0.0
C315 C 0.75124 0.80307 0.55934 0.0
C316 C 0.74367 0.79763 0.53026 0.0
C317 C 0.78034 0.82308 0.51323 0.0
C318 C 0.82603 0.85418 0.52625 0.0
C319 C 0.83519 0.85932 0.5561 0.0
C320 C 0.79591 0.83432 0.57256 0.0
H321 H 0.65521 0.36484 0.46242 0.0
H322 H 0.79488 0.46849 0.49515 0.0
H323 H 0.86737 0.41079 0.47657 0.0
H324 H 0.72659 0.25152 0.48063 0.0
H325 H 0.70049 0.21441 0.44957 0.0
H326 H 0.65784 0.26747 0.46098 0.0
H327 H 0.65766 0.30994 0.41196 0.0
H328 H 0.69954 0.25646 0.40015 0.0
H329 H 0.72605 0.32158 0.39769 0.0
H330 H 0.92549 0.33813 0.46063 0.0
H331 H 0.96644 0.25576 0.44542 0.0
H332 H 0.79068 0.19658 0.42328 0.0
C333 C 0.70088 0.37599 0.46477 0.0
C334 C 0.71959 0.42123 0.47999 0.0
C335 C 0.77978 0.43407 0.48342 0.0
C336 C 0.82126 0.40162 0.4729 0.0
C337 C 0.80193 0.35638 0.4589 0.0
C338 C 0.7432 0.34367 0.45444 0.0
C339 C 0.73506 0.29064 0.44063 0.0
C340 C 0.70312 0.25386 0.45906 0.0
C341 C 0.70267 0.2949 0.41084 0.0
C342 C 0.79841 0.27472 0.43941 0.0
C343 C 0.83605 0.31367 0.4497 0.0
C344 C 0.89654 0.30748 0.4522 0.0
C345 C 0.91939 0.26027 0.44384 0.0
C346 C 0.88193 0.21949 0.43328 0.0
C347 C 0.82054 0.22717 0.43092 0.0
H348 H 0.40154 0.33094 0.49671 0.0
H349 H 0.40872 0.4453 0.56385 0.0
H350 H 0.35351 0.38712 0.59231 0.0
H351 H 0.25362 0.29285 0.50244 0.0
H352 H 0.2652 0.22571 0.49433 0.0
H353 H 0.30979 0.27453 0.48044 0.0
H354 H 0.40345 0.22947 0.50292 0.0
H355 H 0.35918 0.18025 0.51668 0.0
H356 H 0.41101 0.21634 0.54023 0.0
H357 H 0.29452 0.31718 0.61245 0.0
H358 H 0.23685 0.24106 0.62347 0.0
H359 H 0.26241 0.17297 0.54184 0.0
C360 C 0.39213 0.34337 0.5176 0.0
C361 C 0.41218 0.39181 0.52891 0.0
C362 C 0.39758 0.40719 0.55586 0.0
C363 C 0.36496 0.37471 0.57177 0.0
C364 C 0.34619 0.32711 0.5601 0.0
C365 C 0.35907 0.3115 0.53357 0.0
C366 C 0.33178 0.25928 0.52547 0.0
C367 C 0.28747 0.26336 0.49911 0.0
C368 C 0.37918 0.21895 0.52108 0.0
C369 C 0.30141 0.24792 0.55158 0.0
C370 C 0.31046 0.28757 0.57129 0.0
C371 C 0.2873 0.2859 0.59719 0.0
C372 C 0.2547 0.24239 0.60328 0.0
C373 C 0.24521 0.20089 0.58359 0.0
C374 C 0.26845 0.20418 0.55723 0.0
H375 H 0.35066 0.6189 0.48175 0.0
H376 H 0.522 0.68942 0.48339 0.0
H377 H 0.47515 0.77573 0.47807 0.0
H378 H 0.28227 0.69193 0.42858 0.0
H379 H 0.21301 0.69526 0.4432 0.0
H380 H 0.26087 0.64148 0.4512 0.0
H381 H 0.25962 0.66027 0.50481 0.0
H382 H 0.2115 0.71423 0.49697 0.0
H383 H 0.2796 0.72355 0.51879 0.0
H384 H 0.40585 0.85374 0.46701 0.0
H385 H 0.32412 0.9125 0.45082 0.0
H386 H 0.20081 0.78759 0.45659 0.0
C387 C 0.3787 0.65247 0.48144 0.0
C388 C 0.44013 0.6474 0.48297 0.0
C389 C 0.47495 0.69242 0.48254 0.0
C390 C 0.44857 0.74154 0.47947 0.0
C391 C 0.38747 0.7448 0.47725 0.0
C392 C 0.35327 0.70116 0.47848 0.0
C393 C 0.2888 0.71334 0.4736 0.0
C394 C 0.25957 0.68377 0.4476 0.0
C395 C 0.25809 0.7022 0.50013 0.0
C396 C 0.2915 0.77054 0.46832 0.0
C397 C 0.34853 0.78855 0.47093 0.0
C398 C 0.36115 0.83998 0.46533 0.0
C399 C 0.31453 0.87315 0.45627 0.0
C400 C 0.25627 0.85449 0.45252 0.0
C401 C 0.24492 0.8029 0.45934 0.0
H402 H 0.07695 0.9177 0.11286 0.0
H403 H 0.94264 0.02387 0.07974 0.0
H404 H 0.89596 0.0185 0.12445 0.0
H405 H 0.97616 0.83811 0.15497 0.0
H406 H 0.03493 0.82797 0.18243 0.0
H407 H 0.05041 0.83327 0.14617 0.0
H408 H 0.12381 0.90719 0.1607 0.0
H409 H 0.10814 0.9028 0.19679 0.0
H410 H 0.09915 0.96348 0.17876 0.0
H411 H 0.87963 0.01706 0.17593 0.0
H412 H 0.888 0.01321 0.22775 0.0
H413 H 0.02492 0.89801 0.22562 0.0
C414 C 0.03651 0.93827 0.1148 0.0
C415 C 1.0129 0.97104 0.09322 0.0
C416 C 0.9606 -0.00184 0.09617 0.0
C417 C 0.93396 -0.00476 0.1214 0.0
C418 C 0.95944 0.96375 0.14286 0.0
C419 C 1.00859 0.93449 0.13941 0.0
C420 C 0.03006 0.90669 0.16622 0.0
C421 C 0.02241 0.84802 0.16221 0.0
C422 C 0.09403 0.92094 0.17619 0.0
C423 C 0.98837 0.92817 0.18602 0.0
C424 C 0.94751 0.96054 0.17214 0.0
C425 C 0.9099 -0.00971 0.18685 0.0
C426 C 0.91492 -0.01238 0.21645 0.0
C427 C 0.95708 0.95512 0.23116 0.0
C428 C 0.99255 0.92371 0.21537 0.0
H429 H 0.03598 0.88013 0.8975 0.0
H430 H 0.18038 -0.02495 0.93366 0.0
H431 H 0.22316 0.97238 0.88797 0.0
H432 H 0.12506 0.80256 0.84692 0.0
H433 H 0.06288 0.80079 0.82056 0.0
H434 H 0.05209 0.79983 0.85757 0.0
H435 H 0.98429 0.87934 0.85056 0.0
H436 H 0.99566 0.88153 0.81383 0.0
H437 H 1.01177 0.93752 0.83617 0.0
H438 H 0.2344 -0.02134 0.83612 0.0
H439 H 0.22109 -0.01588 0.78438 0.0
H440 H 0.07464 0.87739 0.78218 0.0
C441 C 0.07805 0.89825 0.8961 0.0
C442 C 0.10518 0.92754 0.919 0.0
C443 C 0.1595 0.95175 0.91643 0.0
C444 C 0.18391 0.95057 0.89051 0.0
C445 C 0.15414 0.92387 0.86772 0.0
C446 C 0.10333 0.89665 0.87057 0.0
C447 C 0.07657 0.87538 0.84236 0.0
C448 C 0.07934 0.81612 0.84182 0.0
C449 C 1.01338 0.89463 0.83534 0.0
C450 C 0.11748 0.89835 0.82286 0.0
C451 C 0.16239 0.92562 0.83786 0.0
C452 C 0.20082 0.95575 0.8242 0.0
C453 C 0.19289 0.95844 0.79458 0.0
C454 C 0.14693 0.93092 0.77868 0.0
C455 C 0.11001 0.89938 0.79331 0.0
H456 H 0.58081 0.40401 0.6111 0.0
H457 H 0.46411 0.52753 0.58199 0.0
H458 H 0.42548 0.53146 0.62851 0.0
H459 H 0.48159 0.34408 0.6621 0.0
H460 H 0.54376 0.331 0.68722 0.0
H461 H 0.55135 0.32888 0.64987 0.0
H462 H 0.63621 0.39502 0.65759 0.0
H463 H 0.62843 0.39811 0.69474 0.0
H464 H 0.62388 0.45635 0.67432 0.0
H465 H 0.41512 0.53476 0.67966 0.0
H466 H 0.43106 0.53556 0.73151 0.0
H467 H 0.5525 0.40769 0.72823 0.0
C468 C 0.54501 0.42992 0.61424 0.0
C469 C 0.52343 0.46394 0.59279 0.0
C470 C 0.47923 0.49973 0.59791 0.0
C471 C 0.45721 0.50228 0.62426 0.0
C472 C 0.48031 0.46903 0.6453 0.0
C473 C 0.52274 0.43299 0.64051 0.0
C474 C 0.54598 0.40686 0.66766 0.0
C475 C 0.52967 0.34928 0.66665 0.0
C476 C 0.61253 0.41459 0.67393 0.0
C477 C 0.51277 0.43615 0.68864 0.0
C478 C 0.47432 0.4711 0.67525 0.0
C479 C 0.44363 0.50641 0.69037 0.0
C480 C 0.45292 0.50644 0.71992 0.0
C481 C 0.49273 0.47139 0.73416 0.0
C482 C 0.52185 0.43508 0.71813 0.0
H483 H 0.50581 0.41267 0.3913 0.0
H484 H 0.67148 0.47221 0.43003 0.0
H485 H 0.71589 0.45446 0.38561 0.0
H486 H 0.56489 0.31454 0.34251 0.0
H487 H 0.50768 0.32899 0.31496 0.0
H488 H 0.49381 0.33415 0.35152 0.0
H489 H 0.46025 0.42884 0.3437 0.0
H490 H 0.4742 0.42419 0.30734 0.0
H491 H 0.50899 0.47428 0.32975 0.0
H492 H 0.73655 0.44432 0.33436 0.0
H493 H 0.73165 0.44389 0.28226 0.0
H494 H 0.54951 0.39715 0.27735 0.0
C495 C 0.55198 0.42047 0.39076 0.0
C496 C 0.58555 0.44288 0.41429 0.0
C497 C 0.64546 0.45349 0.41258 0.0
C498 C 0.67087 0.44381 0.38733 0.0
C499 C 0.63566 0.42358 0.36409 0.0
C500 C 0.5775 0.41168 0.36577 0.0
C501 C 0.54656 0.39713 0.33718 0.0
C502 C 0.5271 0.34032 0.33651 0.0
C503 C 0.49449 0.43328 0.32903 0.0
C504 C 0.59543 0.4053 0.31874 0.0
C505 C 0.64692 0.4193 0.33462 0.0
C506 C 0.69665 0.43269 0.32183 0.0
C507 C 0.69323 0.43282 0.29216 0.0
C508 C 0.64011 0.42054 0.27551 0.0
C509 C 0.59122 0.40546 0.28923 0.0
loop_
_geom_bond_atom_site_label_1
_geom_bond_atom_site_label_2
_geom_bond_distance
_geom_bond_site_symmetry_2
_ccdc_geom_bond_type
Zn0 O6 1.915 1_546 S
Zn0 O12 1.898 . S
Zn0 O15 1.905 1_545 S
Zn1 O9 1.905 . S
Zn1 O10 1.898 1_545 S
Zn1 O18 1.920 1_545 S
Zn2 O5 2.080 1_445 S
Zn2 O8 2.114 . S
Zn2 O11 2.120 1_545 S
Zn2 O13 2.120 1_455 S
Zn2 O14 2.114 1_554 S
Zn2 O17 2.080 . S
C3 O8 1.166 . S
C3 O9 1.182 . S
C4 O10 1.167 . S
C4 O11 1.299 . S
O5 Zn2 2.080 1_665 S
O5 C19 1.305 . S
O6 Zn0 1.915 1_564 S
O6 C19 1.238 . S
C7 O12 1.184 . S
C7 O13 1.285 1_556 S
O8 Zn2 2.114 . S
O8 C3 1.166 . S
O9 Zn1 1.905 . S
O9 C3 1.182 . S
O10 Zn1 1.898 1_565 S
O10 C4 1.167 . S
O11 Zn2 2.120 1_565 S
O11 C4 1.299 . S
O12 Zn0 1.898 . S
O12 C7 1.184 . S
O13 Zn2 2.120 1_655 S
O13 C7 1.285 1_554 S
O14 Zn2 2.114 1_556 S
O14 C16 1.166 1_545 S
O15 Zn0 1.905 1_565 S
O15 C16 1.182 1_655 S
C16 O14 1.166 1_565 S
C16 O15 1.182 1_455 S
O17 Zn2 2.080 . S
O17 C20 1.305 1_545 S
O18 Zn1 1.920 1_565 S
O18 C20 1.234 . S
C19 O5 1.305 . S
C19 O6 1.238 . S
C20 O17 1.305 1_565 S
C20 O18 1.234 . S
Zn21 O27 1.920 . S
Zn21 O33 1.898 . S
Zn21 O36 1.905 . S
Zn22 O30 1.905 . S
Zn22 O31 1.898 . S
Zn22 O39 1.920 . S
Zn23 O26 2.080 . S
Zn23 O29 2.114 . S
Zn23 O32 2.120 . S
Zn23 O34 2.120 . S
Zn23 O35 2.114 . S
Zn23 O38 2.080 . S
C24 O29 1.166 . S
C24 O30 1.182 . S
C25 O31 1.167 . S
C25 O32 1.299 . S
O26 Zn23 2.080 . S
O26 C40 1.305 . S
O27 Zn21 1.920 . S
O27 C40 1.234 . S
C28 O33 1.167 . S
C28 O34 1.299 . S
O29 Zn23 2.114 . S
O29 C24 1.166 . S
O30 Zn22 1.905 . S
O30 C24 1.182 . S
O31 Zn22 1.898 . S
O31 C25 1.167 . S
O32 Zn23 2.120 . S
O32 C25 1.299 . S
O33 Zn21 1.898 . S
O33 C28 1.167 . S
O34 Zn23 2.120 . S
O34 C28 1.299 . S
O35 Zn23 2.114 . S
O35 C37 1.166 . S
O36 Zn21 1.905 . S
O36 C37 1.182 . S
C37 O35 1.166 . S
C37 O36 1.182 . S
O38 Zn23 2.080 . S
O38 C41 1.305 . S
O39 Zn22 1.920 . S
O39 C41 1.234 . S
C40 O26 1.305 . S
C40 O27 1.234 . S
C41 O38 1.305 . S
C41 O39 1.234 . S
C42 C43 1.384 . S
C42 H55 0.947 . S
C42 C77 1.382 . S
C43 C42 1.384 . S
C43 C44 1.378 . S
C44 C43 1.378 . S
C44 C45 1.378 1_655 S
C44 H56 0.952 . S
C45 C44 1.378 1_455 S
C45 H57 0.950 . S
C45 C76 1.383 . S
H46 C65 0.947 . S
H47 C66 0.946 . S
H48 C68 0.953 . S
H49 C69 0.945 . S
H50 C71 0.952 1_565 S
H51 C72 0.944 1_565 S
H52 C74 0.950 . S
H53 C75 0.948 . S
H54 C77 0.951 . S
H55 C42 0.947 . S
H56 C44 0.952 . S
H57 C45 0.950 . S
N58 C61 1.382 . S
N58 C63 1.363 . S
N59 C61 1.371 . S
N59 C62 1.372 . S
N60 C62 1.361 . S
N60 C63 1.377 . S
C61 N58 1.382 . S
C61 N59 1.371 . S
C61 C64 1.480 1_545 S
C62 N59 1.372 . S
C62 N60 1.361 . S
C62 C70 1.457 . S
C63 N58 1.363 . S
C63 N60 1.377 . S
C63 C76 1.479 . S
C64 C61 1.480 1_565 S
C64 C65 1.383 . S
C64 C69 1.385 . S
C65 H46 0.947 . S
C65 C64 1.383 . S
C65 C66 1.388 . S
C66 H47 0.946 . S
C66 C65 1.388 . S
C66 C67 1.384 . S
C67 C66 1.384 . S
C67 C68 1.377 . S
C68 H48 0.953 . S
C68 C67 1.377 . S
C68 C69 1.369 . S
C69 H49 0.945 . S
C69 C64 1.385 . S
C69 C68 1.369 . S
C70 C62 1.457 . S
C70 C71 1.372 . S
C70 C75 1.364 . S
C71 H50 0.952 1_545 S
C71 C70 1.372 . S
C71 C72 1.389 . S
C72 H51 0.944 1_545 S
C72 C71 1.389 . S
C72 C73 1.391 . S
C73 C72 1.391 . S
C73 C74 1.372 . S
C74 H52 0.950 . S
C74 C73 1.372 . S
C74 C75 1.379 . S
C75 H53 0.948 . S
C75 C70 1.364 . S
C75 C74 1.379 . S
C76 C45 1.383 . S
C76 C63 1.479 . S
C76 C77 1.398 1_455 S
C77 C42 1.382 . S
C77 H54 0.951 . S
C77 C76 1.398 1_655 S
C78 C79 1.384 . S
C78 H91 0.947 . S
C78 C113 1.382 . S
C79 C78 1.384 . S
C79 C80 1.378 . S
C80 C79 1.378 . S
C80 C81 1.378 . S
C80 H92 0.952 . S
C81 C80 1.378 . S
C81 H93 0.950 . S
C81 C112 1.383 . S
H82 C101 0.947 . S
H83 C102 0.946 . S
H84 C104 0.953 . S
H85 C105 0.945 . S
H86 C107 0.952 . S
H87 C108 0.949 . S
H88 C110 0.950 . S
H89 C111 0.948 . S
H90 C113 0.951 . S
H91 C78 0.947 . S
H92 C80 0.952 . S
H93 C81 0.950 . S
N94 C97 1.382 . S
N94 C99 1.363 1_445 S
N95 C97 1.371 . S
N95 C98 1.372 . S
N96 C98 1.361 1_665 S
N96 C99 1.377 . S
C97 N94 1.382 . S
C97 N95 1.371 . S
C97 C100 1.480 . S
C98 N95 1.372 . S
C98 N96 1.361 1_445 S
C98 C106 1.457 . S
C99 N94 1.363 1_665 S
C99 N96 1.377 . S
C99 C112 1.479 . S
C100 C97 1.480 . S
C100 C101 1.383 . S
C100 C105 1.385 . S
C101 H82 0.947 . S
C101 C100 1.383 . S
C101 C102 1.388 . S
C102 H83 0.946 . S
C102 C101 1.388 . S
C102 C103 1.384 . S
C103 C102 1.384 . S
C103 C104 1.377 . S
C104 H84 0.953 . S
C104 C103 1.377 . S
C104 C105 1.369 . S
C105 H85 0.945 . S
C105 C100 1.385 . S
C105 C104 1.369 . S
C106 C98 1.457 . S
C106 C107 1.372 . S
C106 C111 1.364 1_445 S
C107 H86 0.952 . S
C107 C106 1.372 . S
C107 C108 1.389 . S
C108 H87 0.949 . S
C108 C107 1.389 . S
C108 C109 1.387 . S
C109 C108 1.387 . S
C109 C110 1.372 1_445 S
C110 H88 0.950 . S
C110 C109 1.372 1_665 S
C110 C111 1.379 . S
C111 H89 0.948 . S
C111 C106 1.364 1_665 S
C111 C110 1.379 . S
C112 C81 1.383 . S
C112 C99 1.479 . S
C112 C113 1.398 . S
C113 C78 1.382 . S
C113 H90 0.951 . S
C113 C112 1.398 . S
C114 C115 1.384 . S
C114 H127 0.947 . S
C114 C149 1.382 . S
C115 C114 1.384 . S
C115 C116 1.378 . S
C116 C115 1.378 . S
C116 C117 1.378 . S
C116 H128 0.952 . S
C117 C116 1.378 . S
C117 H129 0.950 . S
C117 C148 1.383 . S
H118 C137 0.947 . S
H119 C138 0.946 . S
H120 C140 0.953 . S
H121 C141 0.945 . S
H122 C143 0.952 . S
H123 C144 0.949 . S
H124 C146 0.950 . S
H125 C147 0.948 . S
H126 C149 0.951 . S
H127 C114 0.947 . S
H128 C116 0.952 . S
H129 C117 0.950 . S
N130 C133 1.382 . S
N130 C135 1.363 . S
N131 C133 1.371 . S
N131 C134 1.372 . S
N132 C134 1.361 . S
N132 C135 1.377 . S
C133 N130 1.382 . S
C133 N131 1.371 . S
C133 C136 1.480 . S
C134 N131 1.372 . S
C134 N132 1.361 . S
C134 C142 1.457 . S
C135 N130 1.363 . S
C135 N132 1.377 . S
C135 C148 1.479 . S
C136 C133 1.480 . S
C136 C137 1.383 . S
C136 C141 1.385 . S
C137 H118 0.947 . S
C137 C136 1.383 . S
C137 C138 1.388 . S
C138 H119 0.946 . S
C138 C137 1.388 . S
C138 C139 1.384 . S
C139 C138 1.384 . S
C139 C140 1.377 . S
C140 H120 0.953 . S
C140 C139 1.377 . S
C140 C141 1.369 . S
C141 H121 0.945 . S
C141 C136 1.385 . S
C141 C140 1.369 . S
C142 C134 1.457 . S
C142 C143 1.372 . S
C142 C147 1.364 . S
C143 H122 0.952 . S
C143 C142 1.372 . S
C143 C144 1.389 . S
C144 H123 0.949 . S
C144 C143 1.389 . S
C144 C145 1.387 . S
C145 C144 1.387 . S
C145 C146 1.372 . S
C146 H124 0.950 . S
C146 C145 1.372 . S
C146 C147 1.379 . S
C147 H125 0.948 . S
C147 C142 1.364 . S
C147 C146 1.379 . S
C148 C117 1.383 . S
C148 C135 1.479 . S
C148 C149 1.398 . S
C149 C114 1.382 . S
C149 H126 0.951 . S
C149 C148 1.398 . S
C150 C151 1.384 . S
C150 H163 0.947 . S
C150 C185 1.382 . S
C151 C150 1.384 . S
C151 C152 1.378 . S
C152 C151 1.378 . S
C152 C153 1.378 . S
C152 H164 0.952 . S
C153 C152 1.378 . S
C153 H165 0.950 . S
C153 C184 1.383 . S
H154 C173 0.947 . S
H155 C174 0.946 . S
H156 C176 0.953 . S
H157 C177 0.945 . S
H158 C179 0.952 . S
H159 C180 0.949 . S
H160 C182 0.950 . S
H161 C183 0.948 . S
H162 C185 0.951 . S
H163 C150 0.947 . S
H164 C152 0.952 . S
H165 C153 0.950 . S
N166 C169 1.382 . S
N166 C171 1.363 . S
N167 C169 1.371 . S
N167 C170 1.372 . S
N168 C170 1.361 . S
N168 C171 1.377 . S
C169 N166 1.382 . S
C169 N167 1.371 . S
C169 C172 1.480 . S
C170 N167 1.372 . S
C170 N168 1.361 . S
C170 C178 1.457 . S
C171 N166 1.363 . S
C171 N168 1.377 . S
C171 C184 1.479 . S
C172 C169 1.480 . S
C172 C173 1.383 . S
C172 C177 1.385 . S
C173 H154 0.947 . S
C173 C172 1.383 . S
C173 C174 1.388 . S
C174 H155 0.946 . S
C174 C173 1.388 . S
C174 C175 1.384 . S
C175 C174 1.384 . S
C175 C176 1.377 . S
C176 H156 0.953 . S
C176 C175 1.377 . S
C176 C177 1.369 . S
C177 H157 0.945 . S
C177 C172 1.385 . S
C177 C176 1.369 . S
C178 C170 1.457 . S
C178 C179 1.372 . S
C178 C183 1.364 . S
C179 H158 0.952 . S
C179 C178 1.372 . S
C179 C180 1.389 . S
C180 H159 0.949 . S
C180 C179 1.389 . S
C180 C181 1.387 . S
C181 C180 1.387 . S
C181 C182 1.372 . S
C182 H160 0.950 . S
C182 C181 1.372 . S
C182 C183 1.379 . S
C183 H161 0.948 . S
C183 C178 1.364 . S
C183 C182 1.379 . S
C184 C153 1.383 . S
C184 C171 1.479 . S
C184 C185 1.398 . S
C185 C150 1.382 . S
C185 H162 0.951 . S
C185 C184 1.398 . S
H186 C198 0.930 1_556 S
H187 C200 0.930 . S
H188 C201 0.930 . S
H189 C205 0.959 . S
H190 C205 0.959 . S
H191 C205 0.961 . S
H192 C206 0.960 . S
H193 C206 0.961 . S
H194 C206 0.959 1_554 S
H195 C209 0.929 . S
H196 C210 0.931 . S
H197 C212 0.930 . S
C198 H186 0.930 1_554 S
C198 C199 1.399 . S
C198 C203 1.399 . S
C199 C198 1.399 . S
C199 C200 1.376 . S
C200 H187 0.930 . S
C200 C199 1.376 . S
C200 C201 1.388 . S
C201 H188 0.930 . S
C201 C200 1.388 . S
C201 C202 1.390 . S
C202 C201 1.390 . S
C202 C203 1.394 . S
C202 C208 1.465 . S
C203 C198 1.399 . S
C203 C202 1.394 . S
C203 C204 1.516 . S
C204 C203 1.516 . S
C204 C205 1.502 1_554 S
C204 C206 1.561 1_554 S
C204 C207 1.526 . S
C205 H189 0.959 . S
C205 H190 0.959 . S
C205 H191 0.961 . S
C205 C204 1.502 1_556 S
C206 H192 0.960 . S
C206 H193 0.961 . S
C206 H194 0.959 1_556 S
C206 C204 1.561 1_556 S
C207 C204 1.526 . S
C207 C208 1.396 . S
C207 C212 1.390 . S
C208 C202 1.465 . S
C208 C207 1.396 . S
C208 C209 1.399 . S
C209 H195 0.929 . S
C209 C208 1.399 . S
C209 C210 1.385 . S
C210 H196 0.931 . S
C210 C209 1.385 . S
C210 C211 1.389 . S
C211 C210 1.389 . S
C211 C212 1.387 . S
C212 H197 0.930 . S
C212 C207 1.390 . S
C212 C211 1.387 . S
H213 C225 0.930 . S
H214 C227 0.930 . S
H215 C228 0.930 . S
H216 C232 0.959 . S
H217 C232 0.959 . S
H218 C232 0.961 . S
H219 C233 0.960 . S
H220 C233 0.961 . S
H221 C233 0.959 . S
H222 C236 0.929 . S
H223 C237 0.931 . S
H224 C239 0.930 . S
C225 H213 0.930 . S
C225 C226 1.379 1_556 S
C225 C230 1.399 . S
C226 C225 1.379 1_554 S
C226 C227 1.395 . S
C227 H214 0.930 . S
C227 C226 1.395 . S
C227 C228 1.388 . S
C228 H215 0.930 . S
C228 C227 1.388 . S
C228 C229 1.406 . S
C229 C228 1.406 . S
C229 C230 1.378 1_554 S
C229 C235 1.461 1_554 S
C230 C225 1.399 . S
C230 C229 1.378 1_556 S
C230 C231 1.516 . S
C231 C230 1.516 . S
C231 C232 1.502 . S
C231 C233 1.561 . S
C231 C234 1.526 . S
C232 H216 0.959 . S
C232 H217 0.959 . S
C232 H218 0.961 . S
C232 C231 1.502 . S
C233 H219 0.960 . S
C233 H220 0.961 . S
C233 H221 0.959 . S
C233 C231 1.561 . S
C234 C231 1.526 . S
C234 C235 1.396 . S
C234 C239 1.390 . S
C235 C229 1.461 1_556 S
C235 C234 1.396 . S
C235 C236 1.399 1_556 S
C236 H222 0.929 . S
C236 C235 1.399 1_554 S
C236 C237 1.385 . S
C237 H223 0.931 . S
C237 C236 1.385 . S
C237 C238 1.389 1_554 S
C238 C237 1.389 1_556 S
C238 C239 1.387 . S
C239 H224 0.930 . S
C239 C234 1.390 . S
C239 C238 1.387 . S
H240 C252 0.930 1_556 S
H241 C254 0.930 . S
H242 C255 0.930 . S
H243 C259 0.959 . S
H244 C259 0.959 . S
H245 C259 0.961 . S
H246 C260 0.960 1_556 S
H247 C260 0.961 . S
H248 C260 0.959 . S
H249 C263 0.929 . S
H250 C264 0.931 . S
H251 C266 0.930 . S
C252 H240 0.930 1_554 S
C252 C253 1.399 . S
C252 C257 1.399 . S
C253 C252 1.399 . S
C253 C254 1.376 . S
C254 H241 0.930 . S
C254 C253 1.376 . S
C254 C255 1.388 . S
C255 H242 0.930 . S
C255 C254 1.388 . S
C255 C256 1.390 . S
C256 C255 1.390 . S
C256 C257 1.394 . S
C256 C262 1.465 . S
C257 C252 1.399 . S
C257 C256 1.394 . S
C257 C258 1.516 . S
C258 C257 1.516 . S
C258 C259 1.502 1_554 S
C258 C260 1.561 . S
C258 C261 1.526 . S
C259 H243 0.959 . S
C259 H244 0.959 . S
C259 H245 0.961 . S
C259 C258 1.502 1_556 S
C260 H246 0.960 1_554 S
C260 H247 0.961 . S
C260 H248 0.959 . S
C260 C258 1.561 . S
C261 C258 1.526 . S
C261 C262 1.396 . S
C261 C266 1.390 . S
C262 C256 1.465 . S
C262 C261 1.396 . S
C262 C263 1.399 . S
C263 H249 0.929 . S
C263 C262 1.399 . S
C263 C264 1.385 . S
C264 H250 0.931 . S
C264 C263 1.385 . S
C264 C265 1.389 . S
C265 C264 1.389 . S
C265 C266 1.387 . S
C266 H251 0.930 . S
C266 C261 1.390 . S
C266 C265 1.387 . S
H267 C279 0.930 . S
H268 C281 0.930 . S
H269 C282 0.930 . S
H270 C286 0.959 . S
H271 C286 0.959 . S
H272 C286 0.961 . S
H273 C287 0.960 . S
H274 C287 0.961 . S
H275 C287 0.959 . S
H276 C290 0.929 . S
H277 C291 0.931 . S
H278 C293 0.930 1_554 S
C279 H267 0.930 . S
C279 C280 1.402 . S
C279 C284 1.399 . S
C280 C279 1.402 . S
C280 C281 1.372 1_554 S
C281 H268 0.930 . S
C281 C280 1.372 1_556 S
C281 C282 1.388 . S
C282 H269 0.930 . S
C282 C281 1.388 . S
C282 C283 1.390 . S
C283 C282 1.390 . S
C283 C284 1.394 1_556 S
C283 C289 1.465 . S
C284 C279 1.399 . S
C284 C283 1.394 1_554 S
C284 C285 1.516 . S
C285 C284 1.516 . S
C285 C286 1.502 . S
C285 C287 1.561 . S
C285 C288 1.526 1_554 S
C286 H270 0.959 . S
C286 H271 0.959 . S
C286 H272 0.961 . S
C286 C285 1.502 . S
C287 H273 0.960 . S
C287 H274 0.961 . S
C287 H275 0.959 . S
C287 C285 1.561 . S
C288 C285 1.526 1_556 S
C288 C289 1.396 . S
C288 C293 1.390 . S
C289 C283 1.465 . S
C289 C288 1.396 . S
C289 C290 1.399 . S
C290 H276 0.929 . S
C290 C289 1.399 . S
C290 C291 1.385 . S
C291 H277 0.931 . S
C291 C290 1.385 . S
C291 C292 1.389 . S
C292 C291 1.389 . S
C292 C293 1.387 . S
C293 H278 0.930 1_556 S
C293 C288 1.390 . S
C293 C292 1.387 . S
H294 C306 0.930 . S
H295 C308 0.930 . S
H296 C309 0.930 . S
H297 C313 0.959 . S
H298 C313 0.959 . S
H299 C313 0.961 . S
H300 C314 0.960 . S
H301 C314 0.961 . S
H302 C314 0.959 . S
H303 C317 0.929 . S
H304 C318 0.931 . S
H305 C320 0.930 . S
C306 H294 0.930 . S
C306 C307 1.399 . S
C306 C311 1.399 . S
C307 C306 1.399 . S
C307 C308 1.376 . S
C308 H295 0.930 . S
C308 C307 1.376 . S
C308 C309 1.388 . S
C309 H296 0.930 . S
C309 C308 1.388 . S
C309 C310 1.390 . S
C310 C309 1.390 . S
C310 C311 1.394 . S
C310 C316 1.465 . S
C311 C306 1.399 . S
C311 C310 1.394 . S
C311 C312 1.516 . S
C312 C311 1.516 . S
C312 C313 1.502 . S
C312 C314 1.561 . S
C312 C315 1.526 . S
C313 H297 0.959 . S
C313 H298 0.959 . S
C313 H299 0.961 . S
C313 C312 1.502 . S
C314 H300 0.960 . S
C314 H301 0.961 . S
C314 H302 0.959 . S
C314 C312 1.561 . S
C315 C312 1.526 . S
C315 C316 1.396 . S
C315 C320 1.390 . S
C316 C310 1.465 . S
C316 C315 1.396 . S
C316 C317 1.399 . S
C317 H303 0.929 . S
C317 C316 1.399 . S
C317 C318 1.385 . S
C318 H304 0.931 . S
C318 C317 1.385 . S
C318 C319 1.389 . S
C319 C318 1.389 . S
C319 C320 1.387 . S
C320 H305 0.930 . S
C320 C315 1.390 . S
C320 C319 1.387 . S
H321 C333 0.930 . S
H322 C335 0.930 . S
H323 C336 0.930 . S
H324 C340 0.959 . S
H325 C340 0.959 . S
H326 C340 0.961 . S
H327 C341 0.960 . S
H328 C341 0.961 . S
H329 C341 0.959 . S
H330 C344 0.929 . S
H331 C345 0.931 . S
H332 C347 0.930 . S
C333 H321 0.930 . S
C333 C334 1.399 . S
C333 C338 1.399 . S
C334 C333 1.399 . S
C334 C335 1.376 . S
C335 H322 0.930 . S
C335 C334 1.376 . S
C335 C336 1.388 . S
C336 H323 0.930 . S
C336 C335 1.388 . S
C336 C337 1.390 . S
C337 C336 1.390 . S
C337 C338 1.394 . S
C337 C343 1.465 . S
C338 C333 1.399 . S
C338 C337 1.394 . S
C338 C339 1.516 . S
C339 C338 1.516 . S
C339 C340 1.502 . S
C339 C341 1.561 . S
C339 C342 1.526 . S
C340 H324 0.959 . S
C340 H325 0.959 . S
C340 H326 0.961 . S
C340 C339 1.502 . S
C341 H327 0.960 . S
C341 H328 0.961 . S
C341 H329 0.959 . S
C341 C339 1.561 . S
C342 C339 1.526 . S
C342 C343 1.396 . S
C342 C347 1.390 . S
C343 C337 1.465 . S
C343 C342 1.396 . S
C343 C344 1.399 . S
C344 H330 0.929 . S
C344 C343 1.399 . S
C344 C345 1.385 . S
C345 H331 0.931 . S
C345 C344 1.385 . S
C345 C346 1.389 . S
C346 C345 1.389 . S
C346 C347 1.387 . S
C347 H332 0.930 . S
C347 C342 1.390 . S
C347 C346 1.387 . S
H348 C360 0.930 . S
H349 C362 0.930 . S
H350 C363 0.930 . S
H351 C367 0.959 . S
H352 C367 0.959 . S
H353 C367 0.961 . S
H354 C368 0.960 . S
H355 C368 0.961 . S
H356 C368 0.959 . S
H357 C371 0.929 . S
H358 C372 0.931 . S
H359 C374 0.930 . S
C360 H348 0.930 . S
C360 C361 1.399 . S
C360 C365 1.399 . S
C361 C360 1.399 . S
C361 C362 1.376 . S
C362 H349 0.930 . S
C362 C361 1.376 . S
C362 C363 1.388 . S
C363 H350 0.930 . S
C363 C362 1.388 . S
C363 C364 1.390 . S
C364 C363 1.390 . S
C364 C365 1.394 . S
C364 C370 1.465 . S
C365 C360 1.399 . S
C365 C364 1.394 . S
C365 C366 1.516 . S
C366 C365 1.516 . S
C366 C367 1.502 . S
C366 C368 1.561 . S
C366 C369 1.526 . S
C367 H351 0.959 . S
C367 H352 0.959 . S
C367 H353 0.961 . S
C367 C366 1.502 . S
C368 H354 0.960 . S
C368 H355 0.961 . S
C368 H356 0.959 . S
C368 C366 1.561 . S
C369 C366 1.526 . S
C369 C370 1.396 . S
C369 C374 1.390 . S
C370 C364 1.465 . S
C370 C369 1.396 . S
C370 C371 1.399 . S
C371 H357 0.929 . S
C371 C370 1.399 . S
C371 C372 1.385 . S
C372 H358 0.931 . S
C372 C371 1.385 . S
C372 C373 1.389 . S
C373 C372 1.389 . S
C373 C374 1.387 . S
C374 H359 0.930 . S
C374 C369 1.390 . S
C374 C373 1.387 . S
H375 C387 0.930 . S
H376 C389 0.930 . S
H377 C390 0.930 . S
H378 C394 0.959 . S
H379 C394 0.959 . S
H380 C394 0.961 . S
H381 C395 0.960 . S
H382 C395 0.961 . S
H383 C395 0.959 . S
H384 C398 0.929 . S
H385 C399 0.931 . S
H386 C401 0.930 . S
C387 H375 0.930 . S
C387 C388 1.399 . S
C387 C392 1.399 . S
C388 C387 1.399 . S
C388 C389 1.376 . S
C389 H376 0.930 . S
C389 C388 1.376 . S
C389 C390 1.388 . S
C390 H377 0.930 . S
C390 C389 1.388 . S
C390 C391 1.390 . S
C391 C390 1.390 . S
C391 C392 1.394 . S
C391 C397 1.465 . S
C392 C387 1.399 . S
C392 C391 1.394 . S
C392 C393 1.516 . S
C393 C392 1.516 . S
C393 C394 1.502 . S
C393 C395 1.561 . S
C393 C396 1.526 . S
C394 H378 0.959 . S
C394 H379 0.959 . S
C394 H380 0.961 . S
C394 C393 1.502 . S
C395 H381 0.960 . S
C395 H382 0.961 . S
C395 H383 0.959 . S
C395 C393 1.561 . S
C396 C393 1.526 . S
C396 C397 1.396 . S
C396 C401 1.390 . S
C397 C391 1.465 . S
C397 C396 1.396 . S
C397 C398 1.399 . S
C398 H384 0.929 . S
C398 C397 1.399 . S
C398 C399 1.385 . S
C399 H385 0.931 . S
C399 C398 1.385 . S
C399 C400 1.389 . S
C400 C399 1.389 . S
C400 C401 1.387 . S
C401 H386 0.930 . S
C401 C396 1.390 . S
C401 C400 1.387 . S
H402 C414 0.930 . S
H403 C416 0.930 . S
H404 C417 0.930 . S
H405 C421 0.959 . S
H406 C421 0.959 . S
H407 C421 0.961 . S
H408 C422 0.960 . S
H409 C422 0.961 . S
H410 C422 0.959 . S
H411 C425 0.929 . S
H412 C426 0.931 . S
H413 C428 0.930 . S
C414 H402 0.930 . S
C414 C415 1.399 . S
C414 C419 1.399 . S
C415 C414 1.399 . S
C415 C416 1.376 1_565 S
C416 H403 0.930 . S
C416 C415 1.376 1_545 S
C416 C417 1.388 . S
C417 H404 0.930 . S
C417 C416 1.388 . S
C417 C418 1.390 . S
C418 C417 1.390 . S
C418 C419 1.394 1_545 S
C418 C424 1.465 . S
C419 C414 1.399 . S
C419 C418 1.394 1_565 S
C419 C420 1.516 . S
C420 C419 1.516 . S
C420 C421 1.502 1_455 S
C420 C422 1.561 . S
C420 C423 1.526 . S
C421 H405 0.959 . S
C421 H406 0.959 . S
C421 H407 0.961 . S
C421 C420 1.502 1_655 S
C422 H408 0.960 . S
C422 H409 0.961 . S
C422 H410 0.959 . S
C422 C420 1.561 . S
C423 C420 1.526 . S
C423 C424 1.396 1_565 S
C423 C428 1.390 . S
C424 C418 1.465 . S
C424 C423 1.396 1_545 S
C424 C425 1.399 . S
C425 H411 0.929 . S
C425 C424 1.399 . S
C425 C426 1.385 . S
C426 H412 0.931 . S
C426 C425 1.385 . S
C426 C427 1.389 . S
C427 C426 1.389 . S
C427 C428 1.387 1_545 S
C428 H413 0.930 . S
C428 C423 1.390 . S
C428 C427 1.387 1_565 S
H429 C441 0.930 . S
H430 C443 0.930 . S
H431 C444 0.930 . S
H432 C448 0.959 . S
H433 C448 0.959 . S
H434 C448 0.961 . S
H435 C449 0.960 1_455 S
H436 C449 0.961 1_455 S
H437 C449 0.959 . S
H438 C452 0.929 . S
H439 C453 0.931 . S
H440 C455 0.930 . S
C441 H429 0.930 . S
C441 C442 1.399 . S
C441 C446 1.399 . S
C442 C441 1.399 . S
C442 C443 1.376 1_465 S
C443 H430 0.930 . S
C443 C442 1.376 1_645 S
C443 C444 1.388 . S
C444 H431 0.930 . S
C444 C443 1.388 . S
C444 C445 1.390 . S
C445 C444 1.390 . S
C445 C446 1.394 1_645 S
C445 C451 1.465 . S
C446 C441 1.399 . S
C446 C445 1.394 1_465 S
C446 C447 1.516 . S
C447 C446 1.516 . S
C447 C448 1.502 . S
C447 C449 1.561 1_455 S
C447 C450 1.526 . S
C448 H432 0.959 . S
C448 H433 0.959 . S
C448 H434 0.961 . S
C448 C447 1.502 . S
C449 H435 0.960 1_655 S
C449 H436 0.961 1_655 S
C449 H437 0.959 . S
C449 C447 1.561 1_655 S
C450 C447 1.526 . S
C450 C451 1.396 1_465 S
C450 C455 1.390 . S
C451 C445 1.465 . S
C451 C450 1.396 1_645 S
C451 C452 1.399 . S
C452 H438 0.929 . S
C452 C451 1.399 . S
C452 C453 1.385 . S
C453 H439 0.931 . S
C453 C452 1.385 . S
C453 C454 1.389 1_655 S
C454 C453 1.389 1_455 S
C454 C455 1.387 1_545 S
C455 H440 0.930 . S
C455 C450 1.390 . S
C455 C454 1.387 1_565 S
H456 C468 0.930 . S
H457 C470 0.930 . S
H458 C471 0.930 . S
H459 C475 0.959 . S
H460 C475 0.959 . S
H461 C475 0.961 . S
H462 C476 0.960 . S
H463 C476 0.961 . S
H464 C476 0.959 . S
H465 C479 0.929 . S
H466 C480 0.931 . S
H467 C482 0.930 . S
C468 H456 0.930 . S
C468 C469 1.399 . S
C468 C473 1.399 . S
C469 C468 1.399 . S
C469 C470 1.376 . S
C470 H457 0.930 . S
C470 C469 1.376 . S
C470 C471 1.388 . S
C471 H458 0.930 . S
C471 C470 1.388 . S
C471 C472 1.390 . S
C472 C471 1.390 . S
C472 C473 1.394 . S
C472 C478 1.465 . S
C473 C468 1.399 . S
C473 C472 1.394 . S
C473 C474 1.516 . S
C474 C473 1.516 . S
C474 C475 1.502 . S
C474 C476 1.561 . S
C474 C477 1.526 . S
C475 H459 0.959 . S
C475 H460 0.959 . S
C475 H461 0.961 . S
C475 C474 1.502 . S
C476 H462 0.960 . S
C476 H463 0.961 . S
C476 H464 0.959 . S
C476 C474 1.561 . S
C477 C474 1.526 . S
C477 C478 1.396 . S
C477 C482 1.390 . S
C478 C472 1.465 . S
C478 C477 1.396 . S
C478 C479 1.399 . S
C479 H465 0.929 . S
C479 C478 1.399 . S
C479 C480 1.385 . S
C480 H466 0.931 . S
C480 C479 1.385 . S
C480 C481 1.389 . S
C481 C480 1.389 . S
C481 C482 1.387 . S
C482 H467 0.930 . S
C482 C477 1.390 . S
C482 C481 1.387 . S
H483 C495 0.930 . S
H484 C497 0.930 . S
H485 C498 0.930 . S
H486 C502 0.959 . S
H487 C502 0.959 . S
H488 C502 0.961 . S
H489 C503 0.960 . S
H490 C503 0.961 . S
H491 C503 0.959 . S
H492 C506 0.929 . S
H493 C507 0.931 . S
H494 C509 0.930 . S
C495 H483 0.930 . S
C495 C496 1.399 . S
C495 C500 1.399 . S
C496 C495 1.399 . S
C496 C497 1.376 . S
C497 H484 0.930 . S
C497 C496 1.376 . S
C497 C498 1.388 . S
C498 H485 0.930 . S
C498 C497 1.388 . S
C498 C499 1.390 . S
C499 C498 1.390 . S
C499 C500 1.394 . S
C499 C505 1.465 . S
C500 C495 1.399 . S
C500 C499 1.394 . S
C500 C501 1.516 . S
C501 C500 1.516 . S
C501 C502 1.502 . S
C501 C503 1.561 . S
C501 C504 1.526 . S
C502 H486 0.959 . S
C502 H487 0.959 . S
C502 H488 0.961 . S
C502 C501 1.502 . S
C503 H489 0.960 . S
C503 H490 0.961 . S
C503 H491 0.959 . S
C503 C501 1.561 . S
C504 C501 1.526 . S
C504 C505 1.396 . S
C504 C509 1.390 . S
C505 C499 1.465 . S
C505 C504 1.396 . S
C505 C506 1.399 . S
C506 H492 0.929 . S
C506 C505 1.399 . S
C506 C507 1.385 . S
C507 H493 0.931 . S
C507 C506 1.385 . S
C507 C508 1.389 . S
C508 C507 1.389 . S
C508 C509 1.387 . S
C509 H494 0.930 . S
C509 C504 1.390 . S
C509 C508 1.387 . S
C211 C151 1.210 . S
C199 C3 1.121 . S
C226 C4 1.454 . S
C238 C115 1.621 . S
C253 C19 1.565 . S
C265 C175 1.581 . S
C280 C7 1.128 1_554 S
C292 C139 1.190 . S
C307 C37 1.119 . S
C319 C79 1.251 . S
C334 C28 1.463 . S
C346 C43 1.612 . S
C373 C103 1.599 . S
C361 C41 1.536 . S
C400 C67 1.190 . S
C388 C25 1.118 . S
C415 C20 1.223 . S
C427 C73 1.462 . S
C442 C16 1.274 . S
C454 C109 1.509 . S
C481 C145 1.463 . S
C469 C40 1.250 . S
C496 C24 1.341 . S
C508 C181 1.497 . S
