# Generated by pormake.
# Topology anh, (6,3)-cn, num edge types: 1
# Building blocks:
#     Node 0, Type 0, BuildingBlock: NUHQIS_clean_sbu_0, # of connection points: 6
#     Node 1, Type 0, BuildingBlock: NUHQIS_clean_sbu_0, # of connection points: 6
#     Node 2, Type 0, BuildingBlock: NUHQIS_clean_sbu_0, # of connection points: 6
#     Node 3, Type 1, BuildingBlock: CUQRIR_clean_linker_1, # of connection points: 3
#     Node 4, Type 1, BuildingBlock: CUQRIR_clean_linker_1, # of connection points: 3
#     Node 5, Type 1, BuildingBlock: CUQRIR_clean_linker_1, # of connection points: 3
#     Node 6, Type 1, BuildingBlock: CUQRIR_clean_linker_1, # of connection points: 3
#     Node 7, Type 1, BuildingBlock: CUQRIR_clean_linker_1, # of connection points: 3
#     Node 8, Type 1, BuildingBlock: CUQRIR_clean_linker_1, # of connection points: 3
#     Edge 9, Type (0, 1), BuildingBlock: AJUNOK_clean_linker_0, # of connection points: 2
#     Edge 10, Type (0, 1), BuildingBlock: AJUNOK_clean_linker_0, # of connection points: 2
#     Edge 11, Type (0, 1), BuildingBlock: AJUNOK_clean_linker_0, # of connection points: 2
#     Edge 12, Type (0, 1), BuildingBlock: AJUNOK_clean_linker_0, # of connection points: 2
#     Edge 13, Type (0, 1), BuildingBlock: AJUNOK_clean_linker_0, # of connection points: 2
#     Edge 14, Type (0, 1), BuildingBlock: AJUNOK_clean_linker_0, # of connection points: 2
#     Edge 15, Type (0, 1), BuildingBlock: AJUNOK_clean_linker_0, # of connection points: 2
#     Edge 16, Type (0, 1), BuildingBlock: AJUNOK_clean_linker_0, # of connection points: 2
#     Edge 17, Type (0, 1), BuildingBlock: AJUNOK_clean_linker_0, # of connection points: 2
#     Edge 18, Type (0, 1), BuildingBlock: AJUNOK_clean_linker_0, # of connection points: 2
#     Edge 19, Type (0, 1), BuildingBlock: AJUNOK_clean_linker_0, # of connection points: 2
#     Edge 20, Type (0, 1), BuildingBlock: AJUNOK_clean_linker_0, # of connection points: 2
#     Edge 21, Type (0, 1), BuildingBlock: AJUNOK_clean_linker_0, # of connection points: 2
#     Edge 22, Type (0, 1), BuildingBlock: AJUNOK_clean_linker_0, # of connection points: 2
#     Edge 23, Type (0, 1), BuildingBlock: AJUNOK_clean_linker_0, # of connection points: 2
#     Edge 24, Type (0, 1), BuildingBlock: AJUNOK_clean_linker_0, # of connection points: 2
#     Edge 25, Type (0, 1), BuildingBlock: AJUNOK_clean_linker_0, # of connection points: 2
#     Edge 26, Type (0, 1), BuildingBlock: AJUNOK_clean_linker_0, # of connection points: 2
# Relax obj value: 0.450
# Max RMSD: 0.234
# Mean RMSD: 0.169
data_MOF--net-anh--node1-NUHQIS_clean_sbu_0--node2-CUQRIR_clean_linker_1--edge1-AJUNOK_clean_linker_0
_symmetry_space_group_name_H-M    P1
_symmetry_Int_Tables_number       1
_symmetry_cell_setting            triclinic
loop_
_symmetry_equiv_pos_as_xyz
'x, y, z'
_cell_length_a     21.082445
_cell_length_b     20.88076
_cell_length_c     34.210919
_cell_angle_alpha  86.801076
_cell_angle_beta   90.713022
_cell_angle_gamma 119.39836
loop_
_atom_site_label
_atom_site_type_symbol
_atom_site_fract_x
_atom_site_fract_y
_atom_site_fract_z
_atom_type_partial_charge
Tb0 Tb 0.28188 0.65439 0.17995 0.0
Eu1 Eu 0.21438 0.74621 0.15313 0.0
C2 C 0.20607 0.70154 0.24027 0.0
C3 C 1.0991 0.55687 0.17567 0.0
C4 C 0.38413 0.55744 0.22464 0.0
C5 C 0.40008 0.45563 0.24992 0.0
C6 C 0.35708 0.48927 0.24569 0.0
C7 C 0.45814 0.59778 0.21457 0.0
C8 C 0.50082 0.56402 0.21833 0.0
C9 C 0.46986 0.48983 0.23256 0.0
C10 C 0.33175 0.57212 0.20325 0.0
O11 O 0.26369 0.63541 0.11558 0.0
O12 O 0.27026 0.74361 0.09828 0.0
O13 O 0.33256 0.84083 0.17156 0.0
O14 O 0.3869 0.77051 0.17901 0.0
C15 C 0.27189 0.6856 0.08779 0.0
O16 O 0.16628 0.78303 0.10728 0.0
O17 O 0.18871 0.8333 0.16349 0.0
O18 O 0.16623 0.7023 0.21152 0.0
O19 O 0.26707 0.70185 0.23276 0.0
O20 O 0.1625 0.55968 0.18462 0.0
O21 O 1.10646 0.6221 0.16074 0.0
C22 C 0.3947 0.83904 0.17761 0.0
O23 O 0.28265 0.57831 0.22276 0.0
O24 O 0.35331 0.61416 0.17099 0.0
C25 C 1.07907 0.80506 0.13219 0.0
C26 C 0.93738 0.70416 0.11456 0.0
C27 C 0.97688 0.7659 0.08904 0.0
C28 C 1.04804 0.81695 0.09803 0.0
C29 C 1.03499 0.75 0.16051 0.0
C30 C 0.96424 0.69893 0.15144 0.0
C31 C 1.15526 0.82487 0.13014 0.0
H32 H 0.37544 0.39927 0.26189 0.0
H33 H 0.30003 0.45775 0.25422 0.0
H34 H 0.48044 0.6511 0.19888 0.0
H35 H 0.5543 0.59278 0.20456 0.0
H36 H 0.95554 0.77054 0.06069 0.0
H37 H 1.08162 0.85904 0.07591 0.0
H38 H 1.05798 0.73991 0.18709 0.0
H39 H 0.93313 0.65173 0.17155 0.0
Tb40 Tb 0.82655 0.2055 0.50808 0.0
Eu41 Eu 0.66457 0.1318 0.48975 0.0
C42 C 0.71319 0.15341 0.57681 0.0
C43 C 0.7367 1.01968 0.5146 0.0
C44 C 1.01836 0.28146 0.48673 0.0
C45 C 1.11229 0.40001 0.46179 0.0
C46 C 1.08073 0.34831 0.49303 0.0
C47 C 0.99972 0.25956 0.44817 0.0
C48 C 1.03112 0.31151 0.41689 0.0
C49 C 1.08001 0.38477 0.42467 0.0
C50 C 0.96095 0.25182 0.5169 0.0
O51 O 0.82847 0.21326 0.44205 0.0
O52 O 0.71057 0.17995 0.42925 0.0
O53 O 0.69068 0.25427 0.50186 0.0
O54 O 0.81276 0.30926 0.51133 0.0
C55 C 0.77757 0.20615 0.41674 0.0
O56 O 0.56548 1.05398 0.46109 0.0
O57 O 0.56265 0.1298 0.50101 0.0
O58 O 0.66695 1.10671 0.55325 0.0
O59 O 0.77879 0.20249 0.56474 0.0
O60 O 0.79224 1.08367 0.52549 0.0
O61 O 0.6833 1.02623 0.49598 0.0
C62 C 0.75222 0.31605 0.50938 0.0
O63 O 0.92997 0.29177 0.52113 0.0
O64 O 0.91289 0.18275 0.51524 0.0
C65 C 0.45816 1.01336 0.50015 0.0
C66 C 0.32212 0.90285 0.53027 0.0
C67 C 0.36484 0.88555 0.50617 0.0
C68 C 0.43211 0.94001 0.4915 0.0
C69 C 0.41765 1.0306 0.52573 0.0
C70 C 0.35044 0.97568 0.54097 0.0
C71 C 0.52465 1.07248 0.48073 0.0
H72 H 1.15216 0.45556 0.46857 0.0
H73 H 1.09707 0.36538 0.52253 0.0
H74 H 0.95324 0.2067 0.44253 0.0
H75 H 1.00783 0.29765 0.38811 0.0
H76 H 0.3442 0.83087 0.49582 0.0
H77 H 0.46179 0.92495 0.47177 0.0
H78 H 0.43645 1.08706 0.53266 0.0
H79 H 0.31869 0.99087 0.55908 0.0
Tb80 Tb 0.74317 0.73889 0.84602 0.0
Eu81 Eu 0.65555 0.57838 0.83599 0.0
C82 C 0.68717 0.63534 0.91866 0.0
C83 C 0.84463 0.65847 0.85066 0.0
C84 C 0.76721 0.91289 0.82259 0.0
C85 C 0.66544 0.93575 0.81491 0.0
C86 C 0.71842 0.93246 0.83843 0.0
C87 C 0.76814 0.9066 0.78183 0.0
C88 C 0.71453 0.90856 0.75857 0.0
C89 C 0.66039 0.9193 0.7753 0.0
C90 C 0.79622 0.87466 0.84829 0.0
O91 O 0.74179 0.73378 0.78042 0.0
O92 O 0.65527 0.6152 0.77237 0.0
O93 O 0.55536 0.60143 0.83495 0.0
O94 O 0.62304 0.7169 0.85541 0.0
C95 C 0.70027 0.6811 0.75694 0.0
O96 O 0.63209 0.47473 0.81149 0.0
O97 O 0.57872 0.47387 0.86529 0.0
O98 O 0.63346 0.60012 0.89582 0.0
O99 O 0.74814 0.68671 0.90264 0.0
O100 O 0.84235 0.72131 0.85188 0.0
O101 O 0.77916 0.59831 0.84542 0.0
C102 C 0.55557 0.66059 0.84834 0.0
O103 O 0.74992 0.82849 0.87474 0.0
O104 O 0.82879 0.84504 0.83039 0.0
C105 C 0.61894 0.38773 0.86329 0.0
C106 C 0.64648 0.27731 0.8955 0.0
C107 C 0.69097 0.32641 0.86481 0.0
C108 C 0.67671 0.38053 0.84857 0.0
C109 C 0.58305 0.34754 0.898 0.0
C110 C 0.59784 0.29369 0.91451 0.0
C111 C 0.59525 0.43608 0.84274 0.0
H112 H 0.62715 0.94876 0.82813 0.0
H113 H 0.71683 0.93832 0.86962 0.0
H114 H 0.80554 0.89253 0.76831 0.0
H115 H 0.71321 0.89733 0.72796 0.0
H116 H 0.73047 0.31748 0.84967 0.0
H117 H 0.70776 0.4131 0.82289 0.0
H118 H 0.54026 0.35437 0.91097 0.0
H119 H 0.56432 0.25847 0.93892 0.0
C120 C 0.74959 0.19863 0.1865 0.0
N121 N 0.80273 0.25021 0.21151 0.0
N122 N 0.69172 0.13433 0.20556 0.0
C123 C 0.75247 0.21183 0.143 0.0
C124 C 0.71291 0.15006 0.24331 0.0
N125 N 0.77608 0.21656 0.24729 0.0
C126 C 0.6695 1.09985 0.27792 0.0
H127 H 0.78334 0.27162 0.13459 0.0
H128 H 0.69649 0.18755 0.13135 0.0
H129 H 0.77994 0.18432 0.12982 0.0
H130 H 0.62312 1.04725 0.26928 0.0
H131 H 0.64757 0.12797 0.29544 0.0
H132 H 0.70537 1.08745 0.2971 0.0
C133 C 0.7419 0.66805 0.52605 0.0
N134 N 0.73821 0.71762 0.55159 0.0
N135 N 0.74564 0.60769 0.54467 0.0
C136 C 0.7444 0.67946 0.48244 0.0
C137 C 0.74397 0.62362 0.58275 0.0
N138 N 0.73917 0.68662 0.58729 0.0
C139 C 0.74308 0.57406 0.6168 0.0
H140 H 0.68812 0.64957 0.4713 0.0
H141 H 0.77637 0.65661 0.46927 0.0
H142 H 0.76835 0.73879 0.47348 0.0
H143 H 0.77505 0.60696 0.6414 0.0
H144 H 0.76518 0.53819 0.60859 0.0
H145 H 0.68605 0.53833 0.62729 0.0
C146 C 0.20112 0.65451 0.8597 0.0
N147 N 0.25789 0.65926 0.88451 0.0
N148 N 1.14271 0.6569 0.87868 0.0
C149 C 0.20302 0.6488 0.81643 0.0
C150 C 0.16695 0.66211 0.91617 0.0
N151 N 0.23304 0.66353 0.92 0.0
C152 C 1.12465 0.66574 0.95046 0.0
H153 H 0.25995 0.67703 0.8051 0.0
H154 H 0.17162 0.67247 0.80137 0.0
H155 H 0.17757 0.58981 0.81008 0.0
H156 H 1.12547 0.63077 0.97586 0.0
H157 H 1.06711 0.64765 0.94323 0.0
H158 H 1.15059 0.72336 0.95941 0.0
C159 C 1.05063 0.65176 0.44904 0.0
N160 N 1.06222 0.64014 0.41195 0.0
N161 N 1.08947 0.72417 0.45621 0.0
C162 C 1.00414 0.59144 0.47907 0.0
C163 C 1.12192 0.75661 0.42097 0.0
N164 N 1.105 0.70557 0.39441 0.0
C165 C 0.17719 0.83685 0.41385 0.0
H166 H 0.9474 0.56187 0.46862 0.0
H167 H 1.00371 0.61367 0.50772 0.0
H168 H 1.02347 0.55071 0.48269 0.0
H169 H 0.22642 0.84985 0.43129 0.0
H170 H 1.15445 0.87144 0.42337 0.0
H171 H 0.19311 0.85152 0.3825 0.0
C172 C 0.53752 1.02522 0.77894 0.0
N173 N 0.54066 1.03553 0.73946 0.0
N174 N 0.58838 1.08606 0.79574 0.0
C175 C 0.4877 0.95003 0.80036 0.0
C176 C 0.62212 0.13475 0.765 0.0
N177 N 0.59458 1.10359 0.73086 0.0
C178 C 0.67911 0.21418 0.76814 0.0
H179 H 0.42711 0.82031 0.76901 0.0
H180 H 0.51632 0.95435 0.82888 0.0
H181 H 0.44815 0.96657 0.81188 0.0
H182 H 0.73319 0.21816 0.77212 0.0
H183 H 0.66727 0.23729 0.79367 0.0
H184 H 0.6815 0.24757 0.74123 0.0
C185 C 0.64645 0.40302 0.11065 0.0
N186 N 0.67625 0.44725 0.07809 0.0
N187 N 0.57832 0.39076 0.11775 0.0
C188 C 0.68667 0.37626 0.13771 0.0
C189 C 0.56333 0.4183 0.08407 0.0
N190 N 0.62261 0.45201 0.05995 0.0
C191 C 0.49165 0.41523 0.07597 0.0
H192 H 0.7027 0.34198 0.12126 0.0
H193 H 0.65207 0.34271 0.16325 0.0
H194 H 0.73766 0.42302 0.14796 0.0
H195 H 0.48518 0.45326 0.09485 0.0
H196 H 0.44644 0.35883 0.08327 0.0
H197 H 0.48744 0.42994 0.04477 0.0
C198 C 0.45309 0.38262 0.19635 0.0
C199 C 0.4996 0.44447 0.21747 0.0
C200 C 0.48037 0.35946 0.16631 0.0
C201 C 0.5545 0.39823 0.1559 0.0
H202 H 0.39453 0.35704 0.19975 0.0
H203 H 0.44246 0.31538 0.14883 0.0
S204 S 0.7004 0.55073 0.21006 0.0
N205 N 0.62425 0.53046 0.23333 0.0
N206 N 0.67556 0.4939 0.17428 0.0
C207 C 0.60241 0.45385 0.18046 0.0
C208 C 0.57478 0.47471 0.21214 0.0
C209 C 1.13785 0.51457 0.39944 0.0
C210 C 1.07486 0.44536 0.40311 0.0
C211 C 1.13294 0.57867 0.4 0.0
C212 C 1.06498 0.57576 0.40184 0.0
H213 H 0.19116 0.51897 0.40172 0.0
H214 H 0.18265 0.63031 0.40275 0.0
S215 S 0.88396 0.41047 0.40151 0.0
N216 N 0.94176 0.37849 0.40219 0.0
N217 N 0.93428 0.50096 0.39969 0.0
C218 C 1.00187 0.50818 0.39941 0.0
C219 C 1.00638 0.44231 0.40027 0.0
C220 C 0.61465 0.9505 0.71277 0.0
C221 C 0.6008 0.91652 0.75113 0.0
C222 C 0.56532 0.96865 0.69326 0.0
C223 C 0.51157 0.97383 0.71474 0.0
H224 H 0.66604 0.9673 0.69805 0.0
H225 H 0.58004 0.99473 0.66411 0.0
S226 S 0.38754 0.83211 0.81851 0.0
N227 N 0.49392 0.84549 0.8089 0.0
N228 N 0.39322 0.88668 0.76208 0.0
C229 C 0.47028 0.91003 0.73729 0.0
C230 C 0.52971 0.88674 0.76535 0.0
C231 C 0.80659 0.63983 0.1018 0.0
C232 C 0.87293 0.64061 0.10097 0.0
C233 C 0.7432 0.57668 0.0929 0.0
C234 C 0.74445 0.51328 0.08174 0.0
H235 H 0.80335 0.68694 0.1111 0.0
H236 H 0.69209 0.57597 0.09684 0.0
S237 S 0.90614 0.48937 0.07515 0.0
N238 N 0.93825 0.57442 0.08881 0.0
N239 N 0.8174 0.45544 0.07021 0.0
C240 C 0.81095 0.51422 0.07979 0.0
C241 C 0.8758 0.57826 0.0898 0.0
C242 C 0.19339 0.87129 0.52197 0.0
C243 C 0.24345 0.84903 0.53535 0.0
C244 C 1.13168 0.82324 0.50156 0.0
C245 C 1.12064 0.75353 0.49314 0.0
H246 H 0.20733 0.92863 0.52143 0.0
H247 H 1.09953 0.84468 0.48701 0.0
S248 S 0.2176 0.6607 0.53846 0.0
N249 N 0.26105 0.74507 0.55375 0.0
N250 N 1.15132 0.65731 0.51092 0.0
C251 C 0.16097 0.72605 0.51419 0.0
C252 C 0.22088 0.77363 0.53692 0.0
C253 C 0.55739 0.14785 0.88783 0.0
C254 C 0.6304 0.19953 0.89554 0.0
C255 C 0.54164 1.10073 0.85738 0.0
C256 C 0.59821 1.10065 0.83645 0.0
H257 H 0.51291 0.15399 0.89892 0.0
H258 H 0.48663 1.07326 0.84659 0.0
S259 S 0.7921 0.18973 0.86336 0.0
N260 N 0.75522 0.22287 0.89296 0.0
N261 N 0.72493 0.13064 0.83677 0.0
C262 C 0.6682 0.13502 0.85213 0.0
C263 C 0.68436 0.18431 0.88254 0.0
C264 C 0.78386 0.92985 0.55062 0.0
C265 C 0.7352 0.94014 0.52411 0.0
C266 C 0.7838 0.85978 0.55962 0.0
C267 C 0.7361 0.79086 0.54256 0.0
H268 H 0.82356 0.97748 0.56533 0.0
H269 H 0.82356 0.86055 0.58015 0.0
S270 S 0.59436 0.77934 0.47162 0.0
N271 N 0.63505 0.86706 0.48176 0.0
N272 N 0.63583 0.74164 0.49723 0.0
C273 C 0.68702 0.79991 0.516 0.0
C274 C 0.68632 0.87111 0.5074 0.0
C275 C 0.9918 0.72051 0.86201 0.0
C276 C 0.92208 0.65654 0.85567 0.0
C277 C 1.06145 0.72068 0.86737 0.0
C278 C 1.07131 0.65716 0.86607 0.0
H279 H 0.99299 0.7727 0.8636 0.0
H280 H 1.1089 0.77253 0.87335 0.0
S281 S 0.90977 0.47138 0.85281 0.0
N282 N 0.87243 0.525 0.85025 0.0
N283 N 0.99778 0.5255 0.85968 0.0
C284 C 1.00224 0.59248 0.86014 0.0
C285 C 0.93098 0.59223 0.85498 0.0
C286 C 0.4833 0.9896 0.17962 0.0
C287 C 0.47364 0.91579 0.18274 0.0
C288 C 0.55252 1.05867 0.18471 0.0
C289 C 0.62196 1.06337 0.193 0.0
H290 H 0.43546 0.99476 0.17353 0.0
H291 H 0.55068 0.10963 0.18289 0.0
S292 S 0.63434 0.8904 0.20645 0.0
N293 N 0.54734 0.85745 0.19623 0.0
N294 N 0.67115 0.98095 0.20558 0.0
C295 C 0.61325 0.9902 0.1965 0.0
C296 C 0.54275 0.91995 0.19134 0.0
C297 C 0.81353 0.4615 0.52697 0.0
C298 C 0.75161 0.39356 0.51608 0.0
C299 C 0.81212 0.5298 0.53427 0.0
C300 C 0.74893 0.53948 0.53083 0.0
H301 H 0.86486 0.46209 0.53073 0.0
H302 H 0.86216 0.576 0.54355 0.0
S303 S 0.56931 0.38245 0.5042 0.0
N304 N 0.62295 0.34558 0.50319 0.0
N305 N 0.62089 0.46849 0.51615 0.0
C306 C 0.68679 0.47242 0.51995 0.0
C307 C 0.68807 0.40271 0.51279 0.0
C308 C 0.40758 0.60948 0.84363 0.0
C309 C 0.47892 0.66217 0.85707 0.0
C310 C 0.33863 0.60931 0.85169 0.0
C311 C 0.33141 0.66077 0.87523 0.0
H312 H 0.40436 0.5666 0.82598 0.0
H313 H 0.28948 0.56641 0.83947 0.0
S314 S 0.49807 0.81453 0.91778 0.0
N315 N 0.53274 0.77045 0.89525 0.0
N316 N 0.4094 0.76933 0.91056 0.0
C317 C 0.40218 0.71379 0.88891 0.0
C318 C 0.4725 0.71476 0.87996 0.0
C319 C 0.96197 0.46601 0.21028 0.0
C320 C 1.01994 0.47829 0.18325 0.0
C321 C 0.89458 0.39469 0.21942 0.0
C322 C 0.87447 0.32576 0.20189 0.0
H323 H 0.96902 0.51269 0.22577 0.0
H324 H 0.85697 0.39445 0.24072 0.0
S325 S 1.00193 0.31937 0.12858 0.0
N326 N 1.04667 0.40655 0.13971 0.0
N327 N 0.92532 0.2801 0.15465 0.0
C328 C 0.93127 0.33718 0.17448 0.0
C329 C 1.00069 0.40936 0.16606 0.0
C330 C 0.30213 0.74094 0.01787 0.0
C331 C 0.27736 0.67779 0.04391 0.0
C332 C 0.29636 0.7366 0.9767 0.0
C333 C 0.26629 0.66901 0.95854 0.0
H334 H 0.32283 0.79471 0.02947 0.0
H335 H 0.31006 0.78638 0.95893 0.0
S336 S 0.19653 0.4866 0.0119 0.0
N337 N 0.22484 0.5448 0.04731 0.0
N338 N 0.2138 0.53709 0.97035 0.0
C339 C 0.2453 0.60571 0.98389 0.0
C340 C 0.25098 0.60994 0.02615 0.0
C341 C 0.83796 0.20782 0.3508 0.0
C342 C 0.79346 0.22651 0.37276 0.0
C343 C 0.84098 0.21448 0.30889 0.0
C344 C 0.80182 0.24258 0.28658 0.0
H345 H 0.8663 0.18256 0.36586 0.0
H346 H 0.86918 0.19143 0.2937 0.0
S347 S 0.6854 0.30902 0.32939 0.0
N348 N 0.71453 0.28069 0.36808 0.0
N349 N 0.72299 0.29551 0.29091 0.0
C350 C 0.76302 0.26766 0.30854 0.0
C351 C 0.7578 0.2587 0.35084 0.0
C352 C 0.77426 0.74306 0.69278 0.0
C353 C 0.707 0.69436 0.7121 0.0
C354 C 0.78331 0.74706 0.65116 0.0
C355 C 0.72509 0.70478 0.62619 0.0
H356 H 0.82175 0.77496 0.71012 0.0
H357 H 0.83756 0.77985 0.63863 0.0
S358 S 0.53619 0.57412 0.66057 0.0
N359 N 0.58002 0.60635 0.70149 0.0
N360 N 0.59674 0.61593 0.62464 0.0
C361 C 0.65686 0.65991 0.64503 0.0
C362 C 0.64794 0.6542 0.68726 0.0
C363 C 0.73038 0.15896 0.64903 0.0
C364 C 0.6873 0.15309 0.61642 0.0
C365 C 0.70111 0.14753 0.68697 0.0
C366 C 0.62859 0.13113 0.69305 0.0
H367 H 0.78513 0.1679 0.6452 0.0
H368 H 0.73355 0.14669 0.71157 0.0
S369 S 0.49811 0.12177 0.61762 0.0
N370 N 0.57174 0.13844 0.59267 0.0
N371 N 0.51776 0.11787 0.66427 0.0
C372 C 0.58731 0.13102 0.66087 0.0
C373 C 0.61645 0.14169 0.62238 0.0
C374 C 0.69635 0.54036 0.96037 0.0
C375 C 0.68203 0.59936 0.95745 0.0
C376 C 0.67388 0.49122 0.99342 0.0
C377 C 0.63532 0.49841 0.02455 0.0
H378 H 0.72264 0.53043 0.93623 0.0
H379 H 0.68652 0.44676 0.99477 0.0
S380 S 0.58806 0.64708 0.03157 0.0
N381 N 0.62836 0.6637 0.98818 0.0
N382 N 0.58864 0.57334 0.0513 0.0
C383 C 0.62203 0.55847 0.02229 0.0
C384 C 0.64469 0.60832 0.98842 0.0
C385 C 0.23119 0.73596 0.31027 0.0
C386 C 0.18146 0.70386 0.28006 0.0
C387 C 0.20694 0.74164 0.34735 0.0
C388 C 1.13243 0.71492 0.35508 0.0
H389 H 0.28883 0.75685 0.30523 0.0
H390 H 0.24592 0.76392 0.37057 0.0
S391 S 0.98052 0.62502 0.28682 0.0
N392 N 1.05399 0.64443 0.26098 0.0
N393 N 1.00996 0.65554 0.33052 0.0
C394 C 1.08283 0.68358 0.3252 0.0
C395 C 1.10689 0.67775 0.28774 0.0
loop_
_geom_bond_atom_site_label_1
_geom_bond_atom_site_label_2
_geom_bond_distance
_geom_bond_site_symmetry_2
_ccdc_geom_bond_type
Tb0 C10 2.825 . S
Tb0 O11 2.347 . S
Tb0 O14 2.366 . S
Tb0 O19 2.418 . S
Tb0 O20 2.384 1_455 S
Tb0 O23 2.479 . S
Tb0 O24 2.471 . S
Eu1 O12 2.418 . S
Eu1 O13 2.384 1_655 S
Eu1 O16 2.479 . S
Eu1 O17 2.471 . S
Eu1 O18 2.347 . S
Eu1 O21 2.366 . S
Eu1 C31 2.825 . S
C2 O18 1.259 1_455 S
C2 O19 1.265 . S
C3 O20 1.255 . S
C3 O21 1.265 . S
C4 C6 1.380 . S
C4 C7 1.374 . S
C4 C10 1.507 . S
C5 C6 1.384 . S
C5 C9 1.387 . S
C5 H32 0.930 . S
C6 C4 1.380 . S
C6 C5 1.384 . S
C6 H33 0.931 . S
C7 C4 1.374 . S
C7 C8 1.390 . S
C7 H34 0.930 . S
C8 C7 1.390 . S
C8 C9 1.391 . S
C8 H35 0.930 . S
C9 C5 1.387 . S
C9 C8 1.391 . S
C10 Tb0 2.825 . S
C10 C4 1.507 . S
C10 O23 1.238 . S
C10 O24 1.247 . S
O11 Tb0 2.347 . S
O11 C15 1.259 . S
O12 Eu1 2.418 . S
O12 C15 1.265 1_655 S
O13 Eu1 2.384 1_455 S
O13 C22 1.255 . S
O14 Tb0 2.366 . S
O14 C22 1.265 . S
C15 O11 1.259 . S
C15 O12 1.265 1_455 S
O16 Eu1 2.479 . S
O16 C31 1.238 . S
O17 Eu1 2.471 . S
O17 C31 1.247 . S
O18 Eu1 2.347 . S
O18 C2 1.259 1_655 S
O19 Tb0 2.418 . S
O19 C2 1.265 . S
O20 Tb0 2.384 1_655 S
O20 C3 1.255 . S
O21 Eu1 2.366 . S
O21 C3 1.265 . S
C22 O13 1.255 . S
C22 O14 1.265 . S
O23 Tb0 2.479 . S
O23 C10 1.238 . S
O24 Tb0 2.471 . S
O24 C10 1.247 . S
C25 C28 1.380 . S
C25 C29 1.374 . S
C25 C31 1.507 . S
C26 C27 1.387 . S
C26 C30 1.391 . S
C27 C26 1.387 . S
C27 C28 1.384 . S
C27 H36 0.930 . S
C28 C25 1.380 . S
C28 C27 1.384 . S
C28 H37 0.931 . S
C29 C25 1.374 . S
C29 C30 1.390 . S
C29 H38 0.930 . S
C30 C26 1.391 . S
C30 C29 1.390 . S
C30 H39 0.930 . S
C31 Eu1 2.825 . S
C31 O16 1.238 . S
C31 O17 1.247 . S
C31 C25 1.507 . S
H32 C5 0.930 . S
H33 C6 0.931 . S
H34 C7 0.930 . S
H35 C8 0.930 . S
H36 C27 0.930 . S
H37 C28 0.931 . S
H38 C29 0.930 . S
H39 C30 0.930 . S
Tb40 C50 2.825 . S
Tb40 O51 2.347 . S
Tb40 O54 2.366 . S
Tb40 O59 2.418 . S
Tb40 O60 2.384 1_545 S
Tb40 O63 2.479 . S
Tb40 O64 2.471 . S
Eu41 O52 2.418 1_565 S
Eu41 O53 2.384 1_565 S
Eu41 O56 2.479 . S
Eu41 O57 2.471 . S
Eu41 O58 2.347 1_565 S
Eu41 O61 2.366 . S
Eu41 C71 2.825 . S
C42 O58 1.259 . S
C42 O59 1.265 . S
C43 O60 1.255 . S
C43 O61 1.265 . S
C44 C46 1.380 . S
C44 C47 1.374 . S
C44 C50 1.507 . S
C45 C46 1.384 . S
C45 C49 1.387 . S
C45 H72 0.930 . S
C46 C44 1.380 . S
C46 C45 1.384 . S
C46 H73 0.931 . S
C47 C44 1.374 . S
C47 C48 1.390 . S
C47 H74 0.930 . S
C48 C47 1.390 . S
C48 C49 1.391 . S
C48 H75 0.930 . S
C49 C45 1.387 . S
C49 C48 1.391 . S
C50 Tb40 2.825 . S
C50 C44 1.507 . S
C50 O63 1.238 . S
C50 O64 1.247 . S
O51 Tb40 2.347 . S
O51 C55 1.259 . S
O52 Eu41 2.418 1_545 S
O52 C55 1.265 . S
O53 Eu41 2.384 1_545 S
O53 C62 1.255 . S
O54 Tb40 2.366 . S
O54 C62 1.265 . S
C55 O51 1.259 . S
C55 O52 1.265 . S
O56 Eu41 2.479 . S
O56 C71 1.238 . S
O57 Eu41 2.471 . S
O57 C71 1.247 . S
O58 Eu41 2.347 1_545 S
O58 C42 1.259 . S
O59 Tb40 2.418 . S
O59 C42 1.265 . S
O60 Tb40 2.384 1_565 S
O60 C43 1.255 . S
O61 Eu41 2.366 . S
O61 C43 1.265 . S
C62 O53 1.255 . S
C62 O54 1.265 . S
O63 Tb40 2.479 . S
O63 C50 1.238 . S
O64 Tb40 2.471 . S
O64 C50 1.247 . S
C65 C68 1.380 . S
C65 C69 1.374 . S
C65 C71 1.507 . S
C66 C67 1.387 . S
C66 C70 1.391 . S
C67 C66 1.387 . S
C67 C68 1.384 . S
C67 H76 0.930 . S
C68 C65 1.380 . S
C68 C67 1.384 . S
C68 H77 0.931 . S
C69 C65 1.374 . S
C69 C70 1.390 . S
C69 H78 0.930 . S
C70 C66 1.391 . S
C70 C69 1.390 . S
C70 H79 0.930 . S
C71 Eu41 2.825 . S
C71 O56 1.238 . S
C71 O57 1.247 . S
C71 C65 1.507 . S
H72 C45 0.930 . S
H73 C46 0.931 . S
H74 C47 0.930 . S
H75 C48 0.930 . S
H76 C67 0.930 . S
H77 C68 0.931 . S
H78 C69 0.930 . S
H79 C70 0.930 . S
Tb80 C90 2.825 . S
Tb80 O91 2.347 . S
Tb80 O94 2.366 . S
Tb80 O99 2.418 . S
Tb80 O100 2.384 . S
Tb80 O103 2.479 . S
Tb80 O104 2.471 . S
Eu81 O92 2.418 . S
Eu81 O93 2.384 . S
Eu81 O96 2.479 . S
Eu81 O97 2.471 . S
Eu81 O98 2.347 . S
Eu81 O101 2.366 . S
Eu81 C111 2.825 . S
C82 O98 1.259 . S
C82 O99 1.265 . S
C83 O100 1.255 . S
C83 O101 1.265 . S
C84 C86 1.380 . S
C84 C87 1.374 . S
C84 C90 1.507 . S
C85 C86 1.384 . S
C85 C89 1.387 . S
C85 H112 0.930 . S
C86 C84 1.380 . S
C86 C85 1.384 . S
C86 H113 0.931 . S
C87 C84 1.374 . S
C87 C88 1.390 . S
C87 H114 0.930 . S
C88 C87 1.390 . S
C88 C89 1.391 . S
C88 H115 0.930 . S
C89 C85 1.387 . S
C89 C88 1.391 . S
C90 Tb80 2.825 . S
C90 C84 1.507 . S
C90 O103 1.238 . S
C90 O104 1.247 . S
O91 Tb80 2.347 . S
O91 C95 1.259 . S
O92 Eu81 2.418 . S
O92 C95 1.265 . S
O93 Eu81 2.384 . S
O93 C102 1.255 . S
O94 Tb80 2.366 . S
O94 C102 1.265 . S
C95 O91 1.259 . S
C95 O92 1.265 . S
O96 Eu81 2.479 . S
O96 C111 1.238 . S
O97 Eu81 2.471 . S
O97 C111 1.247 . S
O98 Eu81 2.347 . S
O98 C82 1.259 . S
O99 Tb80 2.418 . S
O99 C82 1.265 . S
O100 Tb80 2.384 . S
O100 C83 1.255 . S
O101 Eu81 2.366 . S
O101 C83 1.265 . S
C102 O93 1.255 . S
C102 O94 1.265 . S
O103 Tb80 2.479 . S
O103 C90 1.238 . S
O104 Tb80 2.471 . S
O104 C90 1.247 . S
C105 C108 1.380 . S
C105 C109 1.374 . S
C105 C111 1.507 . S
C106 C107 1.387 . S
C106 C110 1.391 . S
C107 C106 1.387 . S
C107 C108 1.384 . S
C107 H116 0.930 . S
C108 C105 1.380 . S
C108 C107 1.384 . S
C108 H117 0.931 . S
C109 C105 1.374 . S
C109 C110 1.390 . S
C109 H118 0.930 . S
C110 C106 1.391 . S
C110 C109 1.390 . S
C110 H119 0.930 . S
C111 Eu81 2.825 . S
C111 O96 1.238 . S
C111 O97 1.247 . S
C111 C105 1.507 . S
H112 C85 0.930 . S
H113 C86 0.931 . S
H114 C87 0.930 . S
H115 C88 0.930 . S
H116 C107 0.930 . S
H117 C108 0.931 . S
H118 C109 0.930 . S
H119 C110 0.930 . S
C120 N121 1.317 1_565 S
C120 N122 1.348 . S
C120 C123 1.485 1_565 S
N121 C120 1.317 1_545 S
N121 N125 1.370 . S
N122 C120 1.348 . S
N122 C124 1.346 . S
C123 C120 1.485 1_545 S
C123 H127 0.960 . S
C123 H128 0.961 1_545 S
C123 H129 0.960 . S
C124 N122 1.346 . S
C124 N125 1.307 1_565 S
C124 C126 1.486 . S
N125 N121 1.370 . S
N125 C124 1.307 1_545 S
C126 C124 1.486 . S
C126 H130 0.960 . S
C126 H131 0.960 . S
C126 H132 0.959 . S
H127 C123 0.960 . S
H128 C123 0.961 1_565 S
H129 C123 0.960 . S
H130 C126 0.960 . S
H131 C126 0.960 . S
H132 C126 0.959 . S
C133 N134 1.317 . S
C133 N135 1.348 . S
C133 C136 1.485 . S
N134 C133 1.317 . S
N134 N138 1.370 . S
N135 C133 1.348 . S
N135 C137 1.346 . S
C136 C133 1.485 . S
C136 H140 0.960 . S
C136 H141 0.961 . S
C136 H142 0.960 . S
C137 N135 1.346 . S
C137 N138 1.307 . S
C137 C139 1.486 . S
N138 N134 1.370 . S
N138 C137 1.307 . S
C139 C137 1.486 . S
C139 H143 0.960 . S
C139 H144 0.960 . S
C139 H145 0.959 . S
H140 C136 0.960 . S
H141 C136 0.961 . S
H142 C136 0.960 . S
H143 C139 0.960 . S
H144 C139 0.960 . S
H145 C139 0.959 . S
C146 N147 1.317 . S
C146 N148 1.348 1_455 S
C146 C149 1.485 . S
N147 C146 1.317 . S
N147 N151 1.370 . S
N148 C146 1.348 1_655 S
N148 C150 1.346 . S
C149 C146 1.485 . S
C149 H153 0.960 . S
C149 H154 0.961 . S
C149 H155 0.960 . S
C150 N148 1.346 . S
C150 N151 1.307 1_655 S
C150 C152 1.486 . S
N151 N147 1.370 . S
N151 C150 1.307 1_455 S
C152 C150 1.486 . S
C152 H156 0.960 . S
C152 H157 0.960 . S
C152 H158 0.959 . S
H153 C149 0.960 . S
H154 C149 0.961 . S
H155 C149 0.960 . S
H156 C152 0.960 . S
H157 C152 0.960 . S
H158 C152 0.959 . S
C159 N160 1.317 1_455 S
C159 N161 1.348 . S
C159 C162 1.485 . S
N160 C159 1.317 1_655 S
N160 N164 1.370 1_655 S
N161 C159 1.348 . S
N161 C163 1.346 . S
C162 C159 1.485 . S
C162 H166 0.963 . S
C162 H167 0.961 . S
C162 H168 0.960 1_455 S
C163 N161 1.346 . S
C163 N164 1.307 . S
C163 C165 1.486 . S
N164 N160 1.370 1_455 S
N164 C163 1.307 . S
C165 C163 1.486 . S
C165 H169 0.960 . S
C165 H170 0.960 . S
C165 H171 0.959 . S
H166 C162 0.963 . S
H167 C162 0.961 . S
H168 C162 0.960 1_655 S
H169 C165 0.960 . S
H170 C165 0.960 . S
H171 C165 0.959 . S
C172 N173 1.317 1_545 S
C172 N174 1.348 . S
C172 C175 1.485 . S
N173 C172 1.317 1_565 S
N173 N177 1.370 1_565 S
N174 C172 1.348 . S
N174 C176 1.346 . S
C175 C172 1.485 . S
C175 H179 0.960 1_545 S
C175 H180 0.961 . S
C175 H181 0.960 1_545 S
C176 N174 1.346 . S
C176 N177 1.307 . S
C176 C178 1.486 . S
N177 N173 1.370 1_545 S
N177 C176 1.307 . S
C178 C176 1.486 . S
C178 H182 0.960 . S
C178 H183 0.960 . S
C178 H184 0.959 . S
H179 C175 0.960 1_565 S
H180 C175 0.961 . S
H181 C175 0.960 1_565 S
H182 C178 0.960 . S
H183 C178 0.960 . S
H184 C178 0.959 . S
C185 N186 1.317 . S
C185 N187 1.348 . S
C185 C188 1.485 . S
N186 C185 1.317 . S
N186 N190 1.370 . S
N187 C185 1.348 . S
N187 C189 1.346 . S
C188 C185 1.485 . S
C188 H192 0.960 . S
C188 H193 0.961 . S
C188 H194 0.960 . S
C189 N187 1.346 . S
C189 N190 1.307 . S
C189 C191 1.486 . S
N190 N186 1.370 . S
N190 C189 1.307 . S
C191 C189 1.486 . S
C191 H195 0.960 . S
C191 H196 0.960 . S
C191 H197 0.959 . S
H192 C188 0.960 . S
H193 C188 0.961 . S
H194 C188 0.960 . S
H195 C191 0.960 . S
H196 C191 0.960 . S
H197 C191 0.959 . S
C198 C199 1.369 . S
C198 C200 1.419 . S
C198 H202 0.930 . S
C199 C198 1.369 . S
C199 C208 1.429 . S
C200 C198 1.419 . S
C200 C201 1.363 . S
C200 H203 0.929 . S
C201 C200 1.363 . S
C201 C207 1.428 . S
H202 C198 0.930 . S
H203 C200 0.929 . S
S204 N205 1.613 . S
S204 N206 1.610 . S
N205 S204 1.613 . S
N205 C208 1.350 . S
N206 S204 1.610 . S
N206 C207 1.351 . S
C207 C201 1.428 . S
C207 N206 1.351 . S
C207 C208 1.434 . S
C208 C199 1.429 . S
C208 N205 1.350 . S
C208 C207 1.434 . S
C209 C210 1.369 . S
C209 C211 1.419 . S
C209 H213 0.930 . S
C210 C209 1.369 . S
C210 C219 1.429 . S
C211 C209 1.419 . S
C211 C212 1.363 . S
C211 H214 0.929 1_655 S
C212 C211 1.363 . S
C212 C218 1.428 . S
H213 C209 0.930 . S
H214 C211 0.929 1_455 S
S215 N216 1.613 . S
S215 N217 1.610 . S
N216 S215 1.613 . S
N216 C219 1.350 . S
N217 S215 1.610 . S
N217 C218 1.351 . S
C218 C212 1.428 . S
C218 N217 1.351 . S
C218 C219 1.434 . S
C219 C210 1.429 . S
C219 N216 1.350 . S
C219 C218 1.434 . S
C220 C221 1.369 . S
C220 C222 1.419 . S
C220 H224 0.930 . S
C221 C220 1.369 . S
C221 C230 1.429 . S
C222 C220 1.419 . S
C222 C223 1.363 . S
C222 H225 0.929 . S
C223 C222 1.363 . S
C223 C229 1.428 . S
H224 C220 0.930 . S
H225 C222 0.929 . S
S226 N227 1.613 1_545 S
S226 N228 1.610 . S
N227 S226 1.613 1_565 S
N227 C230 1.350 . S
N228 S226 1.610 . S
N228 C229 1.351 1_545 S
C229 C223 1.428 . S
C229 N228 1.351 1_565 S
C229 C230 1.434 . S
C230 C221 1.429 . S
C230 N227 1.350 . S
C230 C229 1.434 . S
C231 C232 1.369 . S
C231 C233 1.419 . S
C231 H235 0.930 . S
C232 C231 1.369 . S
C232 C241 1.429 . S
C233 C231 1.419 . S
C233 C234 1.363 . S
C233 H236 0.929 . S
C234 C233 1.363 . S
C234 C240 1.428 . S
H235 C231 0.930 . S
H236 C233 0.929 . S
S237 N238 1.613 . S
S237 N239 1.610 . S
N238 S237 1.613 . S
N238 C241 1.350 . S
N239 S237 1.610 . S
N239 C240 1.351 . S
C240 C234 1.428 . S
C240 N239 1.351 . S
C240 C241 1.434 . S
C241 C232 1.429 . S
C241 N238 1.350 . S
C241 C240 1.434 . S
C242 C243 1.369 . S
C242 C244 1.419 . S
C242 H246 0.930 . S
C243 C242 1.369 . S
C243 C252 1.429 . S
C244 C242 1.419 . S
C244 C245 1.363 . S
C244 H247 0.929 . S
C245 C244 1.363 . S
C245 C251 1.428 . S
H246 C242 0.930 . S
H247 C244 0.929 . S
S248 N249 1.613 . S
S248 N250 1.610 . S
N249 S248 1.613 . S
N249 C252 1.350 . S
N250 S248 1.610 . S
N250 C251 1.351 . S
C251 C245 1.428 . S
C251 N250 1.351 . S
C251 C252 1.434 . S
C252 C243 1.429 . S
C252 N249 1.350 . S
C252 C251 1.434 . S
C253 C254 1.369 . S
C253 C255 1.419 . S
C253 H257 0.930 . S
C254 C253 1.369 . S
C254 C263 1.429 . S
C255 C253 1.419 . S
C255 C256 1.363 . S
C255 H258 0.929 . S
C256 C255 1.363 . S
C256 C262 1.428 . S
H257 C253 0.930 . S
H258 C255 0.929 . S
S259 N260 1.613 . S
S259 N261 1.610 . S
N260 S259 1.613 . S
N260 C263 1.350 . S
N261 S259 1.610 . S
N261 C262 1.351 . S
C262 C256 1.428 . S
C262 N261 1.351 . S
C262 C263 1.434 . S
C263 C254 1.429 . S
C263 N260 1.350 . S
C263 C262 1.434 . S
C264 C265 1.369 . S
C264 C266 1.419 . S
C264 H268 0.930 . S
C265 C264 1.369 . S
C265 C274 1.429 . S
C266 C264 1.419 . S
C266 C267 1.363 . S
C266 H269 0.929 . S
C267 C266 1.363 . S
C267 C273 1.428 . S
H268 C264 0.930 . S
H269 C266 0.929 . S
S270 N271 1.613 . S
S270 N272 1.610 . S
N271 S270 1.613 . S
N271 C274 1.350 . S
N272 S270 1.610 . S
N272 C273 1.351 . S
C273 C267 1.428 . S
C273 N272 1.351 . S
C273 C274 1.434 . S
C274 C265 1.429 . S
C274 N271 1.350 . S
C274 C273 1.434 . S
C275 C276 1.369 . S
C275 C277 1.419 . S
C275 H279 0.930 . S
C276 C275 1.369 . S
C276 C285 1.429 . S
C277 C275 1.419 . S
C277 C278 1.363 . S
C277 H280 0.929 . S
C278 C277 1.363 . S
C278 C284 1.428 . S
H279 C275 0.930 . S
H280 C277 0.929 . S
S281 N282 1.613 . S
S281 N283 1.610 . S
N282 S281 1.613 . S
N282 C285 1.350 . S
N283 S281 1.610 . S
N283 C284 1.351 . S
C284 C278 1.428 . S
C284 N283 1.351 . S
C284 C285 1.434 . S
C285 C276 1.429 . S
C285 N282 1.350 . S
C285 C284 1.434 . S
C286 C287 1.369 . S
C286 C288 1.419 . S
C286 H290 0.930 . S
C287 C286 1.369 . S
C287 C296 1.429 . S
C288 C286 1.419 . S
C288 C289 1.363 . S
C288 H291 0.929 . S
C289 C288 1.363 . S
C289 C295 1.428 . S
H290 C286 0.930 . S
H291 C288 0.929 . S
S292 N293 1.613 . S
S292 N294 1.610 . S
N293 S292 1.613 . S
N293 C296 1.350 . S
N294 S292 1.610 . S
N294 C295 1.351 . S
C295 C289 1.428 . S
C295 N294 1.351 . S
C295 C296 1.434 . S
C296 C287 1.429 . S
C296 N293 1.350 . S
C296 C295 1.434 . S
C297 C298 1.369 . S
C297 C299 1.419 . S
C297 H301 0.930 . S
C298 C297 1.369 . S
C298 C307 1.429 . S
C299 C297 1.419 . S
C299 C300 1.363 . S
C299 H302 0.929 . S
C300 C299 1.363 . S
C300 C306 1.428 . S
H301 C297 0.930 . S
H302 C299 0.929 . S
S303 N304 1.613 . S
S303 N305 1.610 . S
N304 S303 1.613 . S
N304 C307 1.350 . S
N305 S303 1.610 . S
N305 C306 1.351 . S
C306 C300 1.428 . S
C306 N305 1.351 . S
C306 C307 1.434 . S
C307 C298 1.429 . S
C307 N304 1.350 . S
C307 C306 1.434 . S
C308 C309 1.369 . S
C308 C310 1.419 . S
C308 H312 0.930 . S
C309 C308 1.369 . S
C309 C318 1.429 . S
C310 C308 1.419 . S
C310 C311 1.363 . S
C310 H313 0.929 . S
C311 C310 1.363 . S
C311 C317 1.428 . S
H312 C308 0.930 . S
H313 C310 0.929 . S
S314 N315 1.613 . S
S314 N316 1.610 . S
N315 S314 1.613 . S
N315 C318 1.350 . S
N316 S314 1.610 . S
N316 C317 1.351 . S
C317 C311 1.428 . S
C317 N316 1.351 . S
C317 C318 1.434 . S
C318 C309 1.429 . S
C318 N315 1.350 . S
C318 C317 1.434 . S
C319 C320 1.369 . S
C319 C321 1.419 . S
C319 H323 0.930 . S
C320 C319 1.369 . S
C320 C329 1.429 . S
C321 C319 1.419 . S
C321 C322 1.363 . S
C321 H324 0.929 . S
C322 C321 1.363 . S
C322 C328 1.428 . S
H323 C319 0.930 . S
H324 C321 0.929 . S
S325 N326 1.613 . S
S325 N327 1.610 . S
N326 S325 1.613 . S
N326 C329 1.350 . S
N327 S325 1.610 . S
N327 C328 1.351 . S
C328 C322 1.428 . S
C328 N327 1.351 . S
C328 C329 1.434 . S
C329 C320 1.429 . S
C329 N326 1.350 . S
C329 C328 1.434 . S
C330 C331 1.369 . S
C330 C332 1.419 1_554 S
C330 H334 0.930 . S
C331 C330 1.369 . S
C331 C340 1.429 1_455 S
C332 C330 1.419 1_556 S
C332 C333 1.363 . S
C332 H335 0.929 . S
C333 C332 1.363 . S
C333 C339 1.428 1_455 S
H334 C330 0.930 . S
H335 C332 0.929 . S
S336 N337 1.613 1_556 S
S336 N338 1.610 . S
N337 S336 1.613 1_554 S
N337 C340 1.350 . S
N338 S336 1.610 . S
N338 C339 1.351 . S
C339 C333 1.428 1_655 S
C339 N338 1.351 . S
C339 C340 1.434 1_556 S
C340 C331 1.429 1_655 S
C340 N337 1.350 . S
C340 C339 1.434 1_554 S
C341 C342 1.369 . S
C341 C343 1.419 . S
C341 H345 0.930 . S
C342 C341 1.369 . S
C342 C351 1.429 1_545 S
C343 C341 1.419 . S
C343 C344 1.363 . S
C343 H346 0.929 . S
C344 C343 1.363 . S
C344 C350 1.428 1_545 S
H345 C341 0.930 . S
H346 C343 0.929 . S
S347 N348 1.613 . S
S347 N349 1.610 . S
N348 S347 1.613 . S
N348 C351 1.350 . S
N349 S347 1.610 . S
N349 C350 1.351 . S
C350 C344 1.428 1_565 S
C350 N349 1.351 . S
C350 C351 1.434 . S
C351 C342 1.429 1_565 S
C351 N348 1.350 . S
C351 C350 1.434 . S
C352 C353 1.369 . S
C352 C354 1.419 . S
C352 H356 0.930 . S
C353 C352 1.369 . S
C353 C362 1.429 . S
C354 C352 1.419 . S
C354 C355 1.363 . S
C354 H357 0.929 . S
C355 C354 1.363 . S
C355 C361 1.428 . S
H356 C352 0.930 . S
H357 C354 0.929 . S
S358 N359 1.613 . S
S358 N360 1.610 . S
N359 S358 1.613 . S
N359 C362 1.350 . S
N360 S358 1.610 . S
N360 C361 1.351 . S
C361 C355 1.428 . S
C361 N360 1.351 . S
C361 C362 1.434 . S
C362 C353 1.429 . S
C362 N359 1.350 . S
C362 C361 1.434 . S
C363 C364 1.369 . S
C363 C365 1.419 . S
C363 H367 0.930 . S
C364 C363 1.369 . S
C364 C373 1.429 . S
C365 C363 1.419 . S
C365 C366 1.363 . S
C365 H368 0.929 . S
C366 C365 1.363 . S
C366 C372 1.428 . S
H367 C363 0.930 . S
H368 C365 0.929 . S
S369 N370 1.613 . S
S369 N371 1.610 . S
N370 S369 1.613 . S
N370 C373 1.350 . S
N371 S369 1.610 . S
N371 C372 1.351 . S
C372 C366 1.428 . S
C372 N371 1.351 . S
C372 C373 1.434 . S
C373 C364 1.429 . S
C373 N370 1.350 . S
C373 C372 1.434 . S
C374 C375 1.369 . S
C374 C376 1.419 1_556 S
C374 H378 0.930 . S
C375 C374 1.369 . S
C375 C384 1.429 . S
C376 C374 1.419 1_554 S
C376 C377 1.363 . S
C376 H379 0.929 . S
C377 C376 1.363 . S
C377 C383 1.428 . S
H378 C374 0.930 . S
H379 C376 0.929 . S
S380 N381 1.613 1_554 S
S380 N382 1.610 . S
N381 S380 1.613 1_556 S
N381 C384 1.350 . S
N382 S380 1.610 . S
N382 C383 1.351 . S
C383 C377 1.428 . S
C383 N382 1.351 . S
C383 C384 1.434 1_554 S
C384 C375 1.429 . S
C384 N381 1.350 . S
C384 C383 1.434 1_556 S
C385 C386 1.369 . S
C385 C387 1.419 . S
C385 H389 0.930 . S
C386 C385 1.369 . S
C386 C395 1.429 1_455 S
C387 C385 1.419 . S
C387 C388 1.368 . S
C387 H390 0.929 . S
C388 C387 1.368 . S
C388 C394 1.425 1_455 S
H389 C385 0.930 . S
H390 C387 0.929 . S
S391 N392 1.613 . S
S391 N393 1.610 . S
N392 S391 1.613 . S
N392 C395 1.350 . S
N393 S391 1.610 . S
N393 C394 1.351 . S
C394 C388 1.425 1_655 S
C394 N393 1.351 . S
C394 C395 1.434 . S
C395 C386 1.429 1_655 S
C395 N392 1.350 . S
C395 C394 1.434 . S
C199 C9 0.660 . S
C201 N187 0.576 . S
C210 C49 0.687 . S
C212 N160 0.708 . S
C221 C89 0.667 . S
C223 N173 0.664 . S
C232 C26 0.875 . S
C234 N186 0.914 . S
C245 N161 1.060 . S
C243 C66 0.943 . S
C256 N174 1.072 . S
C254 C106 0.930 . S
C265 C43 2.951 . S
C267 N134 2.952 . S
C276 C83 2.906 . S
C278 N148 2.841 . S
C287 C22 3.158 . S
C289 N122 3.119 . S
C300 N135 3.138 . S
C298 C62 3.168 . S
C311 N147 3.281 . S
C309 C102 3.264 . S
C320 C3 2.958 . S
C322 N121 2.964 . S
C333 N151 1.802 . S
C331 C15 1.799 . S
C342 C55 1.732 . S
C344 N125 1.821 . S
C353 C95 1.731 . S
C355 N138 1.812 . S
C366 N177 1.152 . S
C364 C42 1.179 . S
C377 N190 1.083 . S
C375 C82 1.101 . S
C386 C2 1.147 . S
C388 N164 1.130 . S
