# Generated by pormake.
# Topology zzz, (3,6)-cn, num edge types: 1
# Building blocks:
#     Node 0, Type 0, BuildingBlock: KAKCAD_clean_linker_0, # of connection points: 3
#     Node 1, Type 0, BuildingBlock: KAKCAD_clean_linker_0, # of connection points: 3
#     Node 2, Type 0, BuildingBlock: KAKCAD_clean_linker_0, # of connection points: 3
#     Node 3, Type 0, BuildingBlock: KAKCAD_clean_linker_0, # of connection points: 3
#     Node 4, Type 0, BuildingBlock: KAKCAD_clean_linker_0, # of connection points: 3
#     Node 5, Type 0, BuildingBlock: KAKCAD_clean_linker_0, # of connection points: 3
#     Node 6, Type 0, BuildingBlock: KAKCAD_clean_linker_0, # of connection points: 3
#     Node 7, Type 0, BuildingBlock: KAKCAD_clean_linker_0, # of connection points: 3
#     Node 8, Type 1, BuildingBlock: JUFBIX_clean_sbu_0, # of connection points: 6
#     Node 9, Type 1, BuildingBlock: JUFBIX_clean_sbu_0, # of connection points: 6
#     Node 10, Type 1, BuildingBlock: JUFBIX_clean_sbu_0, # of connection points: 6
#     Node 11, Type 1, BuildingBlock: JUFBIX_clean_sbu_0, # of connection points: 6
#     Edge 12, Type (0, 1), BuildingBlock: OJICUG_clean_linker_0, # of connection points: 2
#     Edge 13, Type (0, 1), BuildingBlock: OJICUG_clean_linker_0, # of connection points: 2
#     Edge 14, Type (0, 1), BuildingBlock: OJICUG_clean_linker_0, # of connection points: 2
#     Edge 15, Type (0, 1), BuildingBlock: OJICUG_clean_linker_0, # of connection points: 2
#     Edge 16, Type (0, 1), BuildingBlock: OJICUG_clean_linker_0, # of connection points: 2
#     Edge 17, Type (0, 1), BuildingBlock: OJICUG_clean_linker_0, # of connection points: 2
#     Edge 18, Type (0, 1), BuildingBlock: OJICUG_clean_linker_0, # of connection points: 2
#     Edge 19, Type (0, 1), BuildingBlock: OJICUG_clean_linker_0, # of connection points: 2
#     Edge 20, Type (0, 1), BuildingBlock: OJICUG_clean_linker_0, # of connection points: 2
#     Edge 21, Type (0, 1), BuildingBlock: OJICUG_clean_linker_0, # of connection points: 2
#     Edge 22, Type (0, 1), BuildingBlock: OJICUG_clean_linker_0, # of connection points: 2
#     Edge 23, Type (0, 1), BuildingBlock: OJICUG_clean_linker_0, # of connection points: 2
#     Edge 24, Type (0, 1), BuildingBlock: OJICUG_clean_linker_0, # of connection points: 2
#     Edge 25, Type (0, 1), BuildingBlock: OJICUG_clean_linker_0, # of connection points: 2
#     Edge 26, Type (0, 1), BuildingBlock: OJICUG_clean_linker_0, # of connection points: 2
#     Edge 27, Type (0, 1), BuildingBlock: OJICUG_clean_linker_0, # of connection points: 2
#     Edge 28, Type (0, 1), BuildingBlock: OJICUG_clean_linker_0, # of connection points: 2
#     Edge 29, Type (0, 1), BuildingBlock: OJICUG_clean_linker_0, # of connection points: 2
#     Edge 30, Type (0, 1), BuildingBlock: OJICUG_clean_linker_0, # of connection points: 2
#     Edge 31, Type (0, 1), BuildingBlock: OJICUG_clean_linker_0, # of connection points: 2
#     Edge 32, Type (0, 1), BuildingBlock: OJICUG_clean_linker_0, # of connection points: 2
#     Edge 33, Type (0, 1), BuildingBlock: OJICUG_clean_linker_0, # of connection points: 2
#     Edge 34, Type (0, 1), BuildingBlock: OJICUG_clean_linker_0, # of connection points: 2
#     Edge 35, Type (0, 1), BuildingBlock: OJICUG_clean_linker_0, # of connection points: 2
# Relax obj value: 0.279
# Max RMSD: 0.229
# Mean RMSD: 0.186
data_MOF--net-zzz--node1-JUFBIX_clean_sbu_0--node2-KAKCAD_clean_linker_0--edge1-OJICUG_clean_linker_0
_symmetry_space_group_name_H-M    P1
_symmetry_Int_Tables_number       1
_symmetry_cell_setting            triclinic
loop_
_symmetry_equiv_pos_as_xyz
'x, y, z'
_cell_length_a     45.597566
_cell_length_b     46.60949
_cell_length_c     18.08079
_cell_angle_alpha  81.183898
_cell_angle_beta   90.393407
_cell_angle_gamma 86.015183
loop_
_atom_site_label
_atom_site_type_symbol
_atom_site_fract_x
_atom_site_fract_y
_atom_site_fract_z
_atom_type_partial_charge
C0 C 0.88224 0.52092 0.17024 0.0
C1 C 0.8888 0.49395 0.14584 0.0
C2 C 0.85754 0.52528 0.21301 0.0
C3 C 0.83851 0.50305 0.23102 0.0
C4 C 0.84468 0.47615 0.20675 0.0
C5 C 0.8698 0.47152 0.16505 0.0
C6 C 0.81254 0.50805 0.27638 0.0
C7 C 0.78431 0.50518 0.24942 0.0
C8 C 0.75944 0.51135 0.29137 0.0
C9 C 0.76319 0.5198 0.36246 0.0
C10 C 0.7918 0.52195 0.39019 0.0
C11 C 0.81611 0.51654 0.34627 0.0
C12 C 0.79832 0.52758 0.46641 0.0
C13 C 0.80593 0.55539 0.47652 0.0
C14 C 0.80758 0.50365 0.5201 0.0
C15 C 0.82712 0.50684 0.57762 0.0
C16 C 0.83753 0.53422 0.58345 0.0
C17 C 0.73014 0.50967 0.25702 0.0
C18 C 0.711 0.53477 0.23928 0.0
C19 C 0.72404 0.48442 0.2279 0.0
C20 C 0.70078 0.48491 0.17705 0.0
C21 C 0.68312 0.5107 0.15397 0.0
C22 C 0.68761 0.53528 0.18812 0.0
C23 C 0.82506 0.55875 0.53512 0.0
H24 H 0.89573 0.53904 0.15483 0.0
H25 H 0.85296 0.54628 0.23086 0.0
H26 H 0.83029 0.45865 0.2209 0.0
H27 H 0.87428 0.4504 0.148 0.0
H28 H 0.78167 0.49911 0.1943 0.0
H29 H 0.83814 0.51826 0.36759 0.0
H30 H 0.74426 0.52413 0.39598 0.0
H31 H 0.79944 0.57412 0.43498 0.0
H32 H 0.80256 0.4819 0.51233 0.0
H33 H 0.83608 0.48723 0.61258 0.0
H34 H 0.71547 0.5546 0.26033 0.0
H35 H 0.73847 0.46478 0.24088 0.0
H36 H 0.83164 0.58034 0.539 0.0
H37 H 0.67439 0.55548 0.17143 0.0
H38 H 0.69749 0.46545 0.15301 0.0
C39 C 0.05119 0.85455 0.02801 0.0
C40 C 0.0676 0.87698 0.0466 0.0
C41 C 0.04767 0.82976 0.07991 0.0
C42 C 0.0604 0.82679 0.15179 0.0
C43 C 0.07859 0.84814 0.16876 0.0
C44 C 0.08218 0.87303 0.11657 0.0
C45 C 0.05121 0.80368 0.21101 0.0
C46 C 0.0475 0.77566 0.1955 0.0
C47 C 0.03381 0.75515 0.24657 0.0
C48 C 0.02365 0.7631 0.31495 0.0
C49 C 0.02866 0.79094 0.33252 0.0
C50 C 0.04237 0.81083 0.28014 0.0
C51 C 0.01847 0.80151 0.40212 0.0
C52 C 0.98834 0.80683 0.41413 0.0
C53 C 0.03878 0.81341 0.4455 0.0
C54 C 0.02929 0.83234 0.49485 0.0
C55 C 0.99914 0.83982 0.50247 0.0
C56 C 0.02942 0.72645 0.22316 0.0
C57 C 0.00102 0.71749 0.21336 0.0
C58 C 0.05342 0.71121 0.19472 0.0
C59 C 0.049 0.68948 0.15135 0.0
C60 C 0.02047 0.68217 0.13601 0.0
C61 C 0.99658 0.69539 0.17027 0.0
C62 C 0.97876 0.82573 0.46399 0.0
H63 H 0.03918 0.85696 0.97529 0.0
H64 H 0.03317 0.81395 0.06537 0.0
H65 H 0.08901 0.84619 0.22349 0.0
H66 H 0.09535 0.8897 0.13215 0.0
H67 H 0.05435 0.77011 0.14181 0.0
H68 H 0.04451 0.83276 0.29171 0.0
H69 H 0.01247 0.74779 0.3542 0.0
H70 H 0.97222 0.79826 0.38072 0.0
H71 H 0.06216 0.80995 0.43659 0.0
H72 H 0.04578 0.84272 0.5226 0.0
H73 H 0.9821 0.72907 0.23382 0.0
H74 H 0.07556 0.71762 0.20148 0.0
H75 H 0.95535 0.83035 0.46959 0.0
H76 H 0.97435 0.6902 0.15917 0.0
H77 H 0.06782 0.67944 0.12638 0.0
C78 C 0.64854 0.02314 0.10198 0.0
C79 C 0.64809 0.04233 0.03417 0.0
C80 C 0.67385 0.01815 0.14671 0.0
C81 C 0.69927 0.03255 0.12537 0.0
C82 C 0.69908 0.05139 0.05674 0.0
C83 C 0.67367 0.05616 0.01128 0.0
C84 C 0.72531 0.02821 0.17653 0.0
C85 C 0.75392 0.02406 0.15027 0.0
C86 C 0.77796 0.01766 0.20074 0.0
C87 C 0.77321 0.01485 0.27848 0.0
C88 C 0.74456 0.01936 0.30476 0.0
C89 C 0.72113 0.02664 0.25351 0.0
C90 C 0.73675 0.01344 0.38448 0.0
C91 C 0.73292 0.98456 0.4161 0.0
C92 C 0.72275 0.03612 0.41703 0.0
C93 C 0.70228 0.0301 0.47353 0.0
C94 C 0.69543 1.00128 0.49822 0.0
C95 C 0.80768 0.01354 0.17035 0.0
C96 C 0.81494 0.98948 0.13435 0.0
C97 C 0.82725 0.03555 0.16774 0.0
C98 C 0.8531 0.03422 0.12661 0.0
C99 C 0.86001 0.01066 0.08777 0.0
C100 C 0.84096 0.98788 0.09421 0.0
C101 C 0.71238 0.9785 0.47252 0.0
H102 H 0.6294 0.01155 0.11989 0.0
H103 H 0.67351 1.00282 0.19816 0.0
H104 H 0.7183 0.06284 0.03897 0.0
H105 H 0.67387 0.07093 0.95886 0.0
H106 H 0.75752 0.0252 0.09071 0.0
H107 H 0.69909 0.03003 0.27436 0.0
H108 H 0.79146 0.00886 0.3178 0.0
H109 H 0.74313 0.96672 0.39119 0.0
H110 H 0.72499 0.05857 0.39262 0.0
H111 H 0.68968 0.04819 0.49192 0.0
H112 H 0.80001 0.97233 0.13547 0.0
H113 H 0.82177 0.05453 0.19421 0.0
H114 H 0.70805 0.95604 0.49157 0.0
H115 H 0.84576 0.96905 0.0668 0.0
H116 H 0.86687 0.05237 0.12244 0.0
C117 C 0.48001 0.70364 0.49303 0.0
C118 C 0.50607 0.68535 0.50623 0.0
C119 C 0.47742 0.7259 0.43135 0.0
C120 C 0.50094 0.7306 0.38247 0.0
C121 C 0.52812 0.71498 0.40127 0.0
C122 C 0.53066 0.69249 0.46239 0.0
C123 C 0.49433 0.74102 0.30241 0.0
C124 C 0.4974 0.76967 0.26688 0.0
C125 C 0.49345 0.77683 0.18819 0.0
C126 C 0.4872 0.75456 0.14654 0.0
C127 C 0.48504 0.72584 0.18204 0.0
C128 C 0.48726 0.71981 0.25996 0.0
C129 C 0.48361 0.7012 0.13912 0.0
C130 C 0.46573 0.70309 0.07465 0.0
C131 C 0.50074 0.67516 0.16359 0.0
C132 C 0.49982 0.65151 0.1256 0.0
C133 C 0.48235 0.65334 0.06066 0.0
C134 C 0.49678 0.80703 0.14832 0.0
C135 C 0.48645 0.83167 0.17929 0.0
C136 C 0.50944 0.8114 0.07703 0.0
C137 C 0.51066 0.83934 0.03667 0.0
C138 C 0.49985 0.86405 0.06673 0.0
C139 C 0.48804 0.8598 0.13915 0.0
C140 C 0.46508 0.6793 0.03572 0.0
H141 H 0.46086 0.69937 0.52694 0.0
H142 H 0.45609 0.73727 0.41734 0.0
H143 H 0.54638 0.71772 0.36338 0.0
H144 H 0.55108 0.679 0.47049 0.0
H145 H 0.50351 0.78591 0.2999 0.0
H146 H 0.48487 0.69782 0.2882 0.0
H147 H 0.48475 0.75931 0.08622 0.0
H148 H 0.45221 0.72281 0.05457 0.0
H149 H 0.5153 0.67305 0.212 0.0
H150 H 0.51307 0.63176 0.14709 0.0
H151 H 0.47648 0.82926 0.23387 0.0
H152 H 0.51835 0.79315 0.05171 0.0
H153 H 0.4516 0.68145 0.98537 0.0
H154 H 0.47993 0.87818 0.16506 0.0
H155 H 0.51956 0.84138 0.98092 0.0
C156 C 0.13173 0.5555 0.43197 0.0
C157 C 0.1114 0.53444 0.45256 0.0
C158 C 0.15671 0.54884 0.39178 0.0
C159 C 0.16154 0.52118 0.37067 0.0
C160 C 0.14121 0.50027 0.39036 0.0
C161 C 0.11656 0.50671 0.43137 0.0
C162 C 0.18742 0.5141 0.32673 0.0
C163 C 0.21569 0.5184 0.35073 0.0
C164 C 0.24041 0.51152 0.30896 0.0
C165 C 0.2364 0.50053 0.24121 0.0
C166 C 0.20778 0.49624 0.21694 0.0
C167 C 0.18366 0.50284 0.2605 0.0
C168 C 0.201 0.48786 0.14339 0.0
C169 C 0.20236 0.50874 0.07908 0.0
C170 C 0.18369 0.46418 0.14127 0.0
C171 C 0.16473 0.46373 0.08042 0.0
C172 C 0.16289 0.48693 0.02049 0.0
C173 C 0.26984 0.51579 0.33933 0.0
C174 C 0.2744 0.54198 0.36553 0.0
C175 C 0.29132 0.49249 0.35483 0.0
C176 C 0.31582 0.49474 0.40055 0.0
C177 C 0.31922 0.52032 0.43163 0.0
C178 C 0.29858 0.54418 0.41134 0.0
C179 C 0.18349 0.50824 0.01792 0.0
H180 H 0.12835 0.57712 0.44677 0.0
H181 H 0.17206 0.56538 0.37632 0.0
H182 H 0.14469 0.4787 0.37517 0.0
H183 H 0.10197 0.4896 0.44805 0.0
H184 H 0.21849 0.52651 0.40327 0.0
H185 H 0.16155 0.50025 0.24115 0.0
H186 H 0.25516 0.49575 0.20755 0.0
H187 H 0.21535 0.52732 0.07953 0.0
H188 H 0.18211 0.44795 0.19058 0.0
H189 H 0.14934 0.44691 0.0845 0.0
H190 H 0.25818 0.56031 0.35431 0.0
H191 H 0.28823 0.47198 0.33563 0.0
H192 H 0.18319 0.52601 0.97162 0.0
H193 H 0.29993 0.56415 0.43443 0.0
H194 H 0.33152 0.47609 0.41359 0.0
C195 C 0.91521 0.18821 0.49956 0.0
C196 C 0.92881 0.16092 0.49147 0.0
C197 C 0.92003 0.21281 0.44731 0.0
C198 C 0.93905 0.21057 0.38709 0.0
C199 C 0.95146 0.18286 0.3778 0.0
C200 C 0.94614 0.15838 0.42879 0.0
C201 C 0.94864 0.23686 0.3383 0.0
C202 C 0.95361 0.26225 0.3678 0.0
C203 C 0.9676 0.28526 0.32582 0.0
C204 C 0.97821 0.28187 0.25401 0.0
C205 C 0.9724 0.25674 0.22313 0.0
C206 C 0.95661 0.23524 0.26446 0.0
C207 C 0.9851 0.2494 0.15258 0.0
C208 C 0.96591 0.24532 0.09455 0.0
C209 C 0.01386 0.23638 0.15469 0.0
C210 C 0.02224 0.21716 0.10477 0.0
C211 C 0.00196 0.21059 0.0517 0.0
C212 C 0.97172 0.31162 0.36133 0.0
C213 C 0.94814 0.32335 0.39967 0.0
C214 C 0.99952 0.32253 0.36703 0.0
C215 C 0.00398 0.34314 0.41462 0.0
C216 C 0.98075 0.35297 0.45746 0.0
C217 C 0.95262 0.34358 0.44737 0.0
C218 C 0.97427 0.22621 0.04452 0.0
H219 H 0.90176 0.19067 0.54766 0.0
H220 H 0.90967 0.23366 0.45562 0.0
H221 H 0.96688 0.18006 0.3338 0.0
H222 H 0.95749 0.13776 0.42204 0.0
H223 H 0.948 0.26364 0.42533 0.0
H224 H 0.95225 0.21607 0.24011 0.0
H225 H 0.99052 0.29855 0.22247 0.0
H226 H 0.94343 0.25466 0.09256 0.0
H227 H 0.02882 0.23853 0.20003 0.0
H228 H 0.04372 0.20556 0.11232 0.0
H229 H 0.92635 0.31572 0.39565 0.0
H230 H 0.01814 0.31382 0.33855 0.0
H231 H 0.95831 0.22226 0.00328 0.0
H232 H 0.93421 0.35111 0.47865 0.0
H233 H 0.02591 0.35005 0.42135 0.0
C234 C 0.32615 0.99073 0.56676 0.0
C235 C 0.35095 1.00621 0.54619 0.0
C236 C 0.30081 0.99515 0.52099 0.0
C237 C 0.29986 0.01539 0.45462 0.0
C238 C 0.32451 0.03142 0.4359 0.0
C239 C 0.34981 0.02667 0.48068 0.0
C240 C 0.27377 0.01987 0.40344 0.0
C241 C 0.245 0.02095 0.43034 0.0
C242 C 0.2208 0.02823 0.38057 0.0
C243 C 0.22556 0.03487 0.30293 0.0
C244 C 0.25432 0.0326 0.2758 0.0
C245 C 0.27795 0.02468 0.32613 0.0
C246 C 0.26185 0.0401 0.19627 0.0
C247 C 0.27446 0.01791 0.15965 0.0
C248 C 0.26712 0.06909 0.16912 0.0
C249 C 0.28767 0.07541 0.11284 0.0
C250 C 0.3033 0.0528 0.08304 0.0
C251 C 0.19086 0.02897 0.41165 0.0
C252 C 0.18111 1.00378 0.45422 0.0
C253 C 0.17326 0.05518 0.40604 0.0
C254 C 0.14679 0.05635 0.44492 0.0
C255 C 0.1373 0.0312 0.48878 0.0
C256 C 0.15449 1.00481 0.49182 0.0
C257 C 0.295 0.02418 0.10344 0.0
H258 H 0.32655 0.97499 0.61755 0.0
H259 H 0.28224 0.98242 0.53686 0.0
H260 H 0.32426 0.0479 0.38659 0.0
H261 H 0.36835 0.03946 0.46477 0.0
H262 H 0.24137 0.01717 0.49013 0.0
H263 H 0.30003 0.02306 0.30443 0.0
H264 H 0.20716 0.0412 0.26426 0.0
H265 H 0.27115 0.99534 0.18069 0.0
H266 H 0.25803 0.08651 0.19731 0.0
H267 H 0.29307 0.09776 0.09713 0.0
H268 H 0.19447 0.98338 0.45973 0.0
H269 H 0.18056 0.07493 0.37415 0.0
H270 H 0.30655 1.0062 0.0819 0.0
H271 H 0.14791 0.98515 0.5257 0.0
H272 H 0.13389 0.07694 0.44139 0.0
C273 C 0.47669 0.35585 0.11398 0.0
C274 C 0.50108 0.3707 0.08526 0.0
C275 C 0.47984 0.33421 0.17733 0.0
C276 C 0.50744 0.32688 0.21268 0.0
C277 C 0.53211 0.33981 0.18029 0.0
C278 C 0.529 0.36149 0.11775 0.0
C279 C 0.5094 0.3135 0.29244 0.0
C280 C 0.50417 0.28423 0.31831 0.0
C281 C 0.505 0.2738 0.39602 0.0
C282 C 0.5107 0.29289 0.44681 0.0
C283 C 0.51641 0.32181 0.42094 0.0
C284 C 0.51576 0.33179 0.34407 0.0
C285 C 0.52102 0.34277 0.47279 0.0
C286 C 0.50024 0.34685 0.52771 0.0
C287 C 0.54379 0.3617 0.46036 0.0
C288 C 0.54463 0.38547 0.49861 0.0
C289 C 0.52256 0.39082 0.54944 0.0
C290 C 0.50035 0.24307 0.4263 0.0
C291 C 0.47753 0.23667 0.47648 0.0
C292 C 0.52094 0.22057 0.41395 0.0
C293 C 0.5196 0.19245 0.45416 0.0
C294 C 0.49742 0.18618 0.50705 0.0
C295 C 0.47587 0.20855 0.51569 0.0
C296 C 0.50094 0.37077 0.56554 0.0
H297 H 0.45493 0.36182 0.08976 0.0
H298 H 0.46039 0.32493 0.20212 0.0
H299 H 0.55352 0.33497 0.20749 0.0
H300 H 0.54836 0.37243 0.09871 0.0
H301 H 0.49935 0.26987 0.27873 0.0
H302 H 0.51911 0.35448 0.32409 0.0
H303 H 0.51116 0.28509 0.50651 0.0
H304 H 0.4824 0.33265 0.53801 0.0
H305 H 0.56016 0.35885 0.41843 0.0
H306 H 0.56155 0.40056 0.48525 0.0
H307 H 0.4614 0.25371 0.48695 0.0
H308 H 0.539 0.22511 0.3763 0.0
H309 H 0.48393 0.37417 0.60549 0.0
H310 H 0.45796 0.20457 0.55404 0.0
H311 H 0.53678 0.17604 0.44618 0.0
Co312 Co 0.00734 0.03884 0.8151 0.0
C313 C 0.95731 0.0168 0.88115 0.0
Co314 Co 0.98772 1.00711 0.75248 0.0
C315 C 0.00942 0.09058 0.88631 0.0
C316 C 0.05187 0.06837 0.88185 0.0
N317 N 0.02334 0.0668 0.86414 0.0
N318 N 0.02815 0.10705 0.91682 0.0
C319 C 0.05489 0.09295 0.91415 0.0
H320 H 0.98603 0.09597 0.87858 0.0
H321 H 0.06943 0.05276 0.87129 0.0
C322 C 0.03775 0.02897 0.68633 0.0
N323 N 0.97177 0.97928 0.70291 0.0
C324 C 0.98577 0.95575 0.67968 0.0
C325 C 0.94341 0.97836 0.68247 0.0
N326 N 0.96728 0.94025 0.64531 0.0
C327 C 0.9406 0.95454 0.64692 0.0
C328 C 0.96544 0.06327 0.70637 0.0
O329 O 0.03733 0.04331 0.74098 0.0
O330 O 0.01771 0.01176 0.68052 0.0
O331 O 0.96393 0.03728 0.69408 0.0
O332 O 0.98315 0.06848 0.75642 0.0
O333 O 0.95771 1.00281 0.82586 0.0
H334 H 0.92586 0.994 0.69283 0.0
H335 H 0.0092 0.95037 0.68681 0.0
O336 O 0.97737 0.03395 0.88774 0.0
O337 O 0.03131 0.00849 0.87374 0.0
O338 O 0.01175 0.97759 0.81073 0.0
C339 C 0.02962 0.98262 0.86056 0.0
H340 H 0.07527 0.09968 0.93465 0.0
H341 H 0.92039 0.94808 0.62473 0.0
Co342 Co 0.48464 0.03562 0.82907 0.0
C343 C 0.49928 0.97745 0.87915 0.0
Co344 Co 0.51374 0.01565 0.75069 0.0
C345 C 0.43183 0.04472 0.91192 0.0
C346 C 0.4604 0.07918 0.91288 0.0
N347 N 0.45843 0.05335 0.88918 0.0
N348 N 0.41692 0.06426 0.94832 0.0
C349 C 0.43501 0.08592 0.9493 0.0
H350 H 0.42347 0.02457 0.90107 0.0
H351 H 0.47873 0.0927 0.90221 0.0
C352 C 0.49915 0.07388 0.70069 0.0
N353 N 0.54007 0.99808 0.69065 0.0
C354 C 0.56634 1.00735 0.66704 0.0
C355 C 0.53894 0.97182 0.66877 0.0
N356 N 0.58191 0.98779 0.63206 0.0
C357 C 0.56454 0.96545 0.6327 0.0
C358 C 0.45555 0.01169 0.71911 0.0
O359 O 0.48547 0.07166 0.76223 0.0
O360 O 0.51325 0.05144 0.68312 0.0
O361 O 0.48122 1.00471 0.69775 0.0
O362 O 0.45259 0.02547 0.77422 0.0
O363 O 0.51402 0.97993 0.81922 0.0
H364 H 0.52112 0.95774 0.68073 0.0
H365 H 0.57403 0.02793 0.67659 0.0
O366 O 0.48403 0.99954 0.89494 0.0
O367 O 0.51727 0.04549 0.88391 0.0
O368 O 0.54572 0.02676 0.80372 0.0
C369 C 0.54289 0.03944 0.86075 0.0
H370 H 0.42997 0.10572 0.97245 0.0
H371 H 0.57026 0.94543 0.61113 0.0
Co372 Co 0.52482 0.52544 0.79943 0.0
C373 C 0.49529 0.48022 0.88212 0.0
Co374 Co 0.47669 0.52723 0.77812 0.0
C375 C 0.57553 0.52069 0.89664 0.0
C376 C 0.58789 0.5243 0.78175 0.0
N377 N 0.56431 0.52332 0.82636 0.0
N378 N 0.60517 0.51999 0.89787 0.0
C379 C 0.61305 0.52215 0.82557 0.0
H380 H 0.56217 0.51897 0.94615 0.0
H381 H 0.58683 0.52658 0.72133 0.0
C382 C 0.50625 0.57239 0.69499 0.0
N383 N 0.43664 0.53038 0.75001 0.0
C384 C 0.42339 0.51752 0.69756 0.0
C385 C 0.41662 0.55167 0.76353 0.0
N386 N 0.39653 0.53036 0.67715 0.0
C387 C 0.39216 0.5518 0.71863 0.0
C388 C 0.49091 0.55894 0.8872 0.0
O389 O 0.52927 0.55986 0.72916 0.0
O390 O 0.48182 0.56104 0.70701 0.0
O391 O 0.46905 0.55151 0.8526 0.0
O392 O 0.51654 0.54907 0.87327 0.0
O393 O 0.47196 0.49315 0.85003 0.0
H394 H 0.42032 0.56786 0.79876 0.0
H395 H 0.43402 0.50083 0.66966 0.0
O396 O 0.51984 0.49121 0.86879 0.0
O397 O 0.53302 0.50158 0.7253 0.0
O398 O 0.48549 0.50292 0.7049 0.0
C399 C 0.51137 0.49341 0.69135 0.0
H400 H 0.63536 0.52262 0.80562 0.0
H401 H 0.37344 0.56763 0.71316 0.0
Co402 Co 0.9999 0.53963 0.81052 0.0
C403 C 0.05107 0.50599 0.86022 0.0
Co404 Co 0.0006 0.49416 0.78648 0.0
C405 C 0.00318 0.58493 0.90407 0.0
C406 C 0.99491 0.60243 0.78868 0.0
N407 N 0.99899 0.57707 0.83584 0.0
N408 N 0.00217 0.61415 0.901 0.0
C409 C 0.99705 0.62519 0.82838 0.0
H410 H 0.00774 0.56952 0.9547 0.0
H411 H 0.99097 0.60427 0.72902 0.0
C412 C 0.94945 0.52779 0.73747 0.0
N413 N 0.00162 0.45675 0.76105 0.0
C414 C 0.99711 0.44893 0.69292 0.0
C415 C 0.00679 0.43137 0.80764 0.0
N416 N 0.99903 0.41972 0.69542 0.0
C417 C 0.00503 0.40863 0.76767 0.0
C418 C 0.97587 0.50002 0.92089 0.0
O419 O 0.96205 0.54811 0.7619 0.0
O420 O 0.96261 0.50261 0.74229 0.0
O421 O 0.9828 0.4813 0.87869 0.0
O422 O 0.98147 0.52639 0.9013 0.0
O423 O 0.03904 0.48609 0.83239 0.0
H424 H 0.01141 0.42951 0.86701 0.0
H425 H 0.99187 0.46437 0.6427 0.0
O426 O 0.03722 0.53078 0.85774 0.0
O427 O 0.01878 0.55223 0.71936 0.0
O428 O 0.01792 0.5076 0.69452 0.0
C429 C 0.02452 0.5337 0.67587 0.0
H430 H 0.99499 0.64813 0.80561 0.0
H431 H 0.00812 0.38569 0.78997 0.0
C432 C 0.08997 0.01113 0.53482 0.0
C433 C 0.11036 0.0324 0.53438 0.0
H434 H 0.05096 0.9936 0.58226 0.0
C435 C 0.10587 0.05356 0.58164 0.0
H436 H 0.09279 0.99466 0.4987 0.0
C437 C 0.08205 0.05281 0.6303 0.0
C438 C 0.062 0.03111 0.63188 0.0
H439 H 0.12139 0.07006 0.58293 0.0
H440 H 0.07957 0.06896 0.66739 0.0
C441 C 0.06597 0.0106 0.5826 0.0
C442 C 0.48832 0.15501 0.63062 0.0
C443 C 0.49755 0.15709 0.55586 0.0
H444 H 0.48146 0.12745 0.7342 0.0
C445 C 0.50744 0.13127 0.52936 0.0
H446 H 0.48127 0.1743 0.65416 0.0
C447 C 0.50815 0.10428 0.57626 0.0
C448 C 0.49867 0.10236 0.65062 0.0
H449 H 0.51441 0.13178 0.47208 0.0
H450 H 0.51586 0.08487 0.55399 0.0
C451 C 0.48867 0.12806 0.67704 0.0
C452 C 0.35428 0.54835 0.49613 0.0
C453 C 0.34239 0.52172 0.48974 0.0
H454 H 0.3804 0.57191 0.56182 0.0
C455 C 0.35076 0.49727 0.54381 0.0
H456 H 0.34922 0.56747 0.45474 0.0
C457 C 0.36941 0.49981 0.60414 0.0
C458 C 0.37949 0.52689 0.61238 0.0
H459 H 0.34192 0.47646 0.54157 0.0
H460 H 0.37496 0.48098 0.64611 0.0
C461 C 0.37224 0.55097 0.55722 0.0
C462 C 0.97623 0.36111 0.59057 0.0
C463 C 0.98592 0.37059 0.51784 0.0
H464 H 0.97288 0.36924 0.70368 0.0
C465 C 0.00011 0.39668 0.50418 0.0
H466 H 0.96542 0.34099 0.60297 0.0
C467 C 0.00402 0.41316 0.56204 0.0
C468 C 0.99447 0.40344 0.63492 0.0
H469 H 0.00776 0.40451 0.44865 0.0
H470 H 0.01493 0.43322 0.55022 0.0
C471 C 0.98065 0.37718 0.64839 0.0
C472 C 0.91184 0.02319 0.05395 0.0
C473 C 0.88581 0.01074 0.03707 0.0
H474 H 0.95471 0.03494 0.01821 0.0
C475 C 0.88412 0.99944 0.96932 0.0
H476 H 0.91426 0.0317 0.10594 0.0
C477 C 0.90756 1.00081 0.91972 0.0
C478 C 0.9332 0.01389 0.93589 0.0
H479 H 0.86434 0.99022 0.95323 0.0
H480 H 0.90524 0.99228 0.86768 0.0
C481 C 0.93515 0.02491 0.00379 0.0
C482 C 0.52312 0.90049 0.97072 0.0
C483 C 0.50041 0.89384 0.02167 0.0
H484 H 0.5404 0.93171 0.88576 0.0
C485 C 0.47778 0.9156 0.02688 0.0
H486 H 0.54139 0.88479 0.96608 0.0
C487 C 0.47767 0.94293 0.98178 0.0
C488 C 0.49991 0.94906 0.92947 0.0
H489 H 0.45964 0.91137 0.06437 0.0
H490 H 0.45972 0.959 0.98656 0.0
C491 C 0.52271 0.92757 0.92479 0.0
C492 C 0.67138 0.5011 0.02484 0.0
C493 C 0.66236 0.51261 0.08923 0.0
H494 H 0.66031 0.49437 0.9139 0.0
C495 C 0.63405 0.52659 0.08969 0.0
H496 H 0.69322 0.4906 0.02213 0.0
C497 C 0.61515 0.52878 0.02727 0.0
C498 C 0.62434 0.5174 0.96275 0.0
H499 H 0.62649 0.5357 0.1384 0.0
H500 H 0.59355 0.53984 0.02899 0.0
C501 C 0.65266 0.50355 0.96238 0.0
C502 C 0.02764 0.67164 0.00571 0.0
C503 C 0.01578 0.66385 0.07694 0.0
H504 H 0.03243 0.66203 0.89415 0.0
C505 C 0.9995 0.63908 0.08989 0.0
H506 H 0.04009 0.69074 0.9939 0.0
C507 C 0.99553 0.62227 0.03274 0.0
C508 C 0.00709 0.63044 0.9612 0.0
H509 H 0.9901 0.63261 0.14425 0.0
H510 H 0.98292 0.60328 0.04382 0.0
C511 C 0.02312 0.65533 0.94846 0.0
C512 C 0.92705 0.10772 0.53737 0.0
C513 C 0.92958 0.13607 0.55303 0.0
H514 H 0.93624 0.06213 0.57449 0.0
C515 C 0.93905 0.13993 0.62462 0.0
H516 H 0.91961 0.10424 0.48261 0.0
C517 C 0.94884 0.11593 0.67685 0.0
C518 C 0.94911 0.08769 0.65843 0.0
H519 H 0.94137 0.16155 0.638 0.0
H520 H 0.9579 0.11965 0.72984 0.0
C521 C 0.93663 0.08367 0.58986 0.0
C522 C 0.37585 1.00615 0.66939 0.0
C523 C 0.37773 1.00254 0.59398 0.0
H524 H 0.39924 0.01196 0.76828 0.0
C525 C 0.40552 0.99879 0.56227 0.0
H526 H 0.35466 0.00925 0.69484 0.0
C527 C 0.43107 1.00012 0.60426 0.0
C528 C 0.42915 1.0057 0.67823 0.0
H529 H 0.40743 0.99582 0.50418 0.0
H530 H 0.45218 0.99827 0.57763 0.0
C531 C 0.40136 0.0079 0.71107 0.0
C532 C 0.49353 0.43465 0.57996 0.0
C533 C 0.52062 0.41833 0.58109 0.0
H534 H 0.46961 0.47167 0.61145 0.0
C535 C 0.54551 0.42865 0.61165 0.0
H536 H 0.47415 0.4276 0.55493 0.0
C537 C 0.54296 0.4541 0.64406 0.0
C538 C 0.51551 0.4697 0.64588 0.0
H539 H 0.5667 0.41653 0.61276 0.0
H540 H 0.56223 0.46087 0.6702 0.0
C541 C 0.49102 0.46008 0.6117 0.0
C542 C 0.0596 0.52693 0.49252 0.0
C543 C 0.08598 0.54025 0.50033 0.0
H544 H 0.01919 0.5144 0.54308 0.0
C545 C 0.08895 0.55629 0.55958 0.0
H546 H 0.05611 0.51525 0.44621 0.0
C547 C 0.06718 0.55671 0.61346 0.0
C548 C 0.04248 0.54066 0.60954 0.0
H549 H 0.10896 0.56673 0.56766 0.0
H550 H 0.07094 0.56739 0.66152 0.0
C551 C 0.03827 0.52673 0.54731 0.0
C552 C 0.06092 0.9315 0.02785 0.0
C553 C 0.06572 0.9056 0.99713 0.0
H554 H 0.04596 0.97672 0.00776 0.0
C555 C 0.06374 0.90693 0.91906 0.0
H556 H 0.06208 0.93128 0.08777 0.0
C557 C 0.0538 0.93274 0.8738 0.0
C558 C 0.0464 0.95788 0.90551 0.0
H559 H 0.06806 0.88757 0.8934 0.0
H560 H 0.05049 0.93267 0.81441 0.0
C561 C 0.05152 0.95754 0.98217 0.0
C562 C 0.62285 0.04309 0.91091 0.0
C563 C 0.62119 0.04643 0.98654 0.0
H564 H 0.5992 0.03831 0.81163 0.0
C565 C 0.59346 0.05078 0.01824 0.0
H566 H 0.64394 0.03957 0.88528 0.0
C567 C 0.56778 0.05016 0.97612 0.0
C568 C 0.56947 0.04487 0.90188 0.0
H569 H 0.59167 0.0537 0.07638 0.0
H570 H 0.54672 0.05241 0.00279 0.0
C571 C 0.59722 0.04218 0.86903 0.0
C572 C 0.4583 0.6198 0.98536 0.0
C573 C 0.48365 0.62852 0.01795 0.0
H574 H 0.44049 0.59044 0.91912 0.0
C575 C 0.5108 0.61321 0.00999 0.0
H576 H 0.43702 0.63101 0.99115 0.0
C577 C 0.51269 0.58986 0.97041 0.0
C578 C 0.48754 0.58136 0.93663 0.0
H579 H 0.53088 0.61964 0.03304 0.0
H580 H 0.53415 0.57897 0.96467 0.0
C581 C 0.46023 0.59637 0.94497 0.0
C582 C 0.93969 0.50518 0.10408 0.0
C583 C 0.91428 0.49028 0.09651 0.0
H584 H 0.97928 0.52008 0.05329 0.0
C585 C 0.91227 0.4744 0.03662 0.0
H586 H 0.94253 0.51681 0.15079 0.0
C587 C 0.93403 0.47534 0.98252 0.0
C588 C 0.95775 0.49264 0.98667 0.0
H589 H 0.89301 0.46284 0.02846 0.0
H590 H 0.93101 0.46452 0.93434 0.0
C591 C 0.96096 0.50677 0.04894 0.0
C592 C 0.9864 0.16604 0.00272 0.0
C593 C 0.00831 0.18526 0.01095 0.0
H594 H 0.97546 0.12621 0.96778 0.0
C595 C 0.03663 0.17872 0.98498 0.0
H596 H 0.96448 0.1699 0.02345 0.0
C597 C 0.04297 0.15345 0.95308 0.0
C598 C 0.02121 0.13389 0.94645 0.0
H599 H 0.05399 0.1931 0.98959 0.0
H600 H 0.06502 0.14928 0.93368 0.0
C601 C 0.99274 0.14078 0.97092 0.0
C602 C 0.35115 0.07627 0.06697 0.0
C603 C 0.33108 0.05813 0.04176 0.0
H604 H 0.39407 0.09196 0.05854 0.0
C605 C 0.33936 0.04289 0.98295 0.0
H606 H 0.3459 0.0878 0.11337 0.0
C607 C 0.36727 0.0452 0.95148 0.0
C608 C 0.38763 0.06273 0.97829 0.0
H609 H 0.3244 0.02886 0.96187 0.0
H610 H 0.37284 0.03317 0.9063 0.0
C611 C 0.37899 0.07853 0.03572 0.0
C612 C 0.52036 0.40443 0.97681 0.0
C613 C 0.49752 0.39731 0.02683 0.0
H614 H 0.53761 0.43619 0.89353 0.0
C615 C 0.47261 0.41723 0.02478 0.0
H616 H 0.53949 0.38949 0.97459 0.0
C617 C 0.47121 0.44389 0.97616 0.0
C618 C 0.49494 0.45146 0.92994 0.0
H619 H 0.45467 0.41285 0.0628 0.0
H620 H 0.45213 0.45905 0.97696 0.0
C621 C 0.51926 0.43124 0.92995 0.0
C622 C 0.12306 0.46848 0.94541 0.0
C623 C 0.13637 0.49179 0.9701 0.0
H624 H 0.08569 0.45456 0.89102 0.0
C625 C 0.122 0.51979 0.95442 0.0
H626 H 0.13353 0.44664 0.95635 0.0
C627 C 0.09471 0.52426 0.91762 0.0
C628 C 0.08089 0.50088 0.89522 0.0
H629 H 0.13111 0.53821 0.97382 0.0
H630 H 0.08413 0.54608 0.90831 0.0
C631 C 0.09564 0.473 0.90806 0.0
C632 C 0.96556 0.88401 0.51667 0.0
C633 C 0.98942 0.8643 0.54384 0.0
H634 H 0.94009 0.92353 0.52682 0.0
C635 C 0.00524 0.8697 0.60697 0.0
H636 H 0.95317 0.88117 0.46734 0.0
C637 C 0.99798 0.89445 0.64036 0.0
C638 C 0.97446 0.91432 0.61219 0.0
H639 H 0.02344 0.85489 0.63051 0.0
H640 H 0.0107 0.89796 0.68853 0.0
C641 C 0.95812 0.90855 0.55055 0.0
C642 C 0.64868 0.976 0.51653 0.0
C643 C 0.66776 0.99552 0.53958 0.0
H644 H 0.60649 0.95873 0.52622 0.0
C645 C 0.65856 0.01161 0.59601 0.0
H646 H 0.65469 0.96375 0.47196 0.0
C647 C 0.63068 0.00874 0.62728 0.0
C648 C 0.61123 0.98986 0.60248 0.0
H649 H 0.67277 0.02671 0.61532 0.0
H650 H 0.62442 0.02145 0.67066 0.0
C651 C 0.62083 0.97323 0.54746 0.0
C652 C 0.48142 0.64047 0.56049 0.0
C653 C 0.50626 0.65691 0.55749 0.0
H654 H 0.46209 0.60115 0.60491 0.0
C655 C 0.5316 0.64483 0.59913 0.0
H656 H 0.46178 0.64848 0.52768 0.0
C657 C 0.53196 0.61714 0.64269 0.0
C658 C 0.50698 0.60093 0.64571 0.0
H659 H 0.55112 0.65682 0.59843 0.0
H660 H 0.55167 0.60861 0.67467 0.0
C661 C 0.48174 0.61299 0.60411 0.0
C662 C 0.8706 0.51549 0.69588 0.0
C663 C 0.86406 0.53619 0.63147 0.0
H664 H 0.90307 0.49633 0.77861 0.0
C665 C 0.8851 0.55643 0.60812 0.0
H666 H 0.85488 0.50011 0.71755 0.0
C667 C 0.91234 0.5549 0.64544 0.0
C668 C 0.91941 0.53268 0.70551 0.0
H669 H 0.88142 0.57248 0.5584 0.0
H670 H 0.92852 0.56994 0.62446 0.0
C671 C 0.89815 0.5134 0.73146 0.0
loop_
_geom_bond_atom_site_label_1
_geom_bond_atom_site_label_2
_geom_bond_distance
_geom_bond_site_symmetry_2
_ccdc_geom_bond_type
C0 C1 1.386 . S
C0 C2 1.397 . S
C0 H24 0.931 . S
C1 C0 1.386 . S
C1 C5 1.397 . S
C2 C0 1.397 . S
C2 C3 1.384 1_556 S
C2 H25 0.930 . S
C3 C2 1.384 1_554 S
C3 C4 1.377 . S
C3 C6 1.481 . S
C4 C3 1.377 . S
C4 C5 1.389 1_554 S
C4 H26 0.929 . S
C5 C1 1.397 . S
C5 C4 1.389 1_556 S
C5 H27 0.931 . S
C6 C3 1.481 . S
C6 C7 1.387 . S
C6 C11 1.390 . S
C7 C6 1.387 . S
C7 C8 1.401 . S
C7 H28 0.930 . S
C8 C7 1.401 . S
C8 C9 1.376 . S
C8 C17 1.511 . S
C9 C8 1.376 . S
C9 C10 1.392 . S
C9 H30 0.931 . S
C10 C9 1.392 . S
C10 C11 1.361 . S
C10 C12 1.500 . S
C11 C6 1.390 . S
C11 C10 1.361 . S
C11 H29 0.931 . S
C12 C10 1.500 . S
C12 C13 1.371 . S
C12 C14 1.365 . S
C13 C12 1.371 . S
C13 C23 1.386 . S
C13 H31 0.931 . S
C14 C12 1.365 . S
C14 C15 1.409 . S
C14 H32 0.929 . S
C15 C14 1.409 . S
C15 C16 1.380 . S
C15 H33 0.930 . S
C16 C15 1.380 . S
C16 C23 1.357 . S
C17 C8 1.511 . S
C17 C18 1.341 . S
C17 C19 1.371 . S
C18 C17 1.341 . S
C18 C22 1.394 . S
C18 H34 0.934 . S
C19 C17 1.371 . S
C19 C20 1.392 . S
C19 H35 0.931 . S
C20 C19 1.392 . S
C20 C21 1.331 . S
C20 H38 0.932 . S
C21 C20 1.331 . S
C21 C22 1.336 . S
C22 C18 1.394 . S
C22 C21 1.336 . S
C22 H37 0.929 1_554 S
C23 C13 1.386 . S
C23 C16 1.357 . S
C23 H36 0.928 . S
H24 C0 0.931 . S
H25 C2 0.930 . S
H26 C4 0.929 . S
H27 C5 0.931 . S
H28 C7 0.930 . S
H29 C11 0.931 . S
H30 C9 0.931 . S
H31 C13 0.931 . S
H32 C14 0.929 . S
H33 C15 0.930 . S
H34 C18 0.934 . S
H35 C19 0.931 . S
H36 C23 0.928 . S
H37 C22 0.929 1_556 S
H38 C20 0.932 . S
C39 C40 1.395 . S
C39 C41 1.397 . S
C39 H63 0.931 . S
C40 C39 1.395 . S
C40 C44 1.389 1_655 S
C41 C39 1.397 . S
C41 C42 1.389 1_556 S
C41 H64 0.930 . S
C42 C41 1.389 1_554 S
C42 C43 1.372 1_655 S
C42 C45 1.479 . S
C43 C42 1.372 1_455 S
C43 C44 1.389 1_554 S
C43 H65 0.929 . S
C44 C40 1.389 1_455 S
C44 C43 1.389 1_556 S
C44 H66 0.931 . S
C45 C42 1.479 . S
C45 C46 1.391 . S
C45 C50 1.390 . S
C46 C45 1.391 . S
C46 C47 1.400 . S
C46 H67 0.930 . S
C47 C46 1.400 . S
C47 C48 1.376 . S
C47 C56 1.515 . S
C48 C47 1.376 . S
C48 C49 1.393 . S
C48 H69 0.931 . S
C49 C48 1.393 . S
C49 C50 1.362 . S
C49 C51 1.499 1_655 S
C50 C45 1.390 . S
C50 C49 1.362 . S
C50 H68 0.930 . S
C51 C49 1.499 1_455 S
C51 C52 1.360 1_455 S
C51 C53 1.377 . S
C52 C51 1.360 1_655 S
C52 C62 1.386 . S
C52 H70 0.931 . S
C53 C51 1.377 . S
C53 C54 1.409 . S
C53 H71 0.929 . S
C54 C53 1.409 . S
C54 C55 1.380 . S
C54 H72 0.930 . S
C55 C54 1.380 . S
C55 C62 1.357 1_455 S
C56 C47 1.515 . S
C56 C57 1.341 . S
C56 C58 1.371 1_655 S
C57 C56 1.341 . S
C57 C61 1.394 . S
C57 H73 0.930 1_554 S
C58 C56 1.371 1_455 S
C58 C59 1.392 . S
C58 H74 0.931 . S
C59 C58 1.392 . S
C59 C60 1.322 1_455 S
C59 H77 0.932 . S
C60 C59 1.322 1_655 S
C60 C61 1.344 . S
C61 C57 1.394 . S
C61 C60 1.344 . S
C61 H76 0.929 1_554 S
C62 C52 1.386 . S
C62 C55 1.357 1_655 S
C62 H75 0.928 . S
H63 C39 0.931 . S
H64 C41 0.930 . S
H65 C43 0.929 . S
H66 C44 0.931 . S
H67 C46 0.930 . S
H68 C50 0.930 . S
H69 C48 0.931 . S
H70 C52 0.931 . S
H71 C53 0.929 . S
H72 C54 0.930 . S
H73 C57 0.930 1_556 S
H74 C58 0.931 . S
H75 C62 0.928 . S
H76 C61 0.929 1_556 S
H77 C59 0.932 . S
C78 C79 1.386 . S
C78 C80 1.397 . S
C78 H102 0.931 . S
C79 C78 1.386 . S
C79 C83 1.397 . S
C80 C78 1.397 . S
C80 C81 1.384 . S
C80 H103 0.930 . S
C81 C80 1.384 . S
C81 C82 1.377 . S
C81 C84 1.481 1_556 S
C82 C81 1.377 . S
C82 C83 1.389 . S
C82 H104 0.929 1_556 S
C83 C79 1.397 . S
C83 C82 1.389 . S
C83 H105 0.931 . S
C84 C81 1.481 1_554 S
C84 C85 1.387 . S
C84 C89 1.390 . S
C85 C84 1.387 . S
C85 C86 1.401 . S
C85 H106 0.930 1_554 S
C86 C85 1.401 . S
C86 C87 1.376 . S
C86 C95 1.511 . S
C87 C86 1.376 . S
C87 C88 1.392 . S
C87 H108 0.931 . S
C88 C87 1.392 . S
C88 C89 1.361 . S
C88 C90 1.500 . S
C89 C84 1.390 . S
C89 C88 1.361 . S
C89 H107 0.931 . S
C90 C88 1.500 . S
C90 C91 1.371 . S
C90 C92 1.365 . S
C91 C90 1.371 . S
C91 C101 1.386 . S
C91 H109 0.931 . S
C92 C90 1.365 . S
C92 C93 1.409 . S
C92 H110 0.929 . S
C93 C92 1.409 . S
C93 C94 1.380 . S
C93 H111 0.930 . S
C94 C93 1.380 . S
C94 C101 1.357 . S
C95 C86 1.511 . S
C95 C96 1.341 . S
C95 C97 1.371 . S
C96 C95 1.341 . S
C96 C100 1.394 1_554 S
C96 H112 0.930 1_554 S
C97 C95 1.371 . S
C97 C98 1.392 . S
C97 H113 0.931 . S
C98 C97 1.392 . S
C98 C99 1.331 . S
C98 H116 0.932 . S
C99 C98 1.331 . S
C99 C100 1.336 1_554 S
C100 C96 1.394 1_556 S
C100 C99 1.336 1_556 S
C100 H115 0.929 . S
C101 C91 1.386 . S
C101 C94 1.357 . S
C101 H114 0.928 . S
H102 C78 0.931 . S
H103 C80 0.930 . S
H104 C82 0.929 1_554 S
H105 C83 0.931 . S
H106 C85 0.930 1_556 S
H107 C89 0.931 . S
H108 C87 0.931 . S
H109 C91 0.931 . S
H110 C92 0.929 . S
H111 C93 0.930 . S
H112 C96 0.930 1_556 S
H113 C97 0.931 . S
H114 C101 0.928 . S
H115 C100 0.929 . S
H116 C98 0.932 . S
C117 C118 1.386 . S
C117 C119 1.397 . S
C117 H141 0.931 . S
C118 C117 1.386 . S
C118 C122 1.397 . S
C119 C117 1.397 . S
C119 C120 1.384 . S
C119 H142 0.930 . S
C120 C119 1.384 . S
C120 C121 1.377 . S
C120 C123 1.481 . S
C121 C120 1.377 . S
C121 C122 1.389 . S
C121 H143 0.929 . S
C122 C118 1.397 . S
C122 C121 1.389 . S
C122 H144 0.931 . S
C123 C120 1.481 . S
C123 C124 1.387 . S
C123 C128 1.390 . S
C124 C123 1.387 . S
C124 C125 1.401 . S
C124 H145 0.930 . S
C125 C124 1.401 . S
C125 C126 1.376 . S
C125 C134 1.511 . S
C126 C125 1.376 . S
C126 C127 1.392 . S
C126 H147 0.931 . S
C127 C126 1.392 . S
C127 C128 1.361 . S
C127 C129 1.500 . S
C128 C123 1.390 . S
C128 C127 1.361 . S
C128 H146 0.931 . S
C129 C127 1.500 . S
C129 C130 1.371 1_554 S
C129 C131 1.365 . S
C130 C129 1.371 1_556 S
C130 C140 1.386 . S
C130 H148 0.931 . S
C131 C129 1.365 . S
C131 C132 1.409 1_554 S
C131 H149 0.929 . S
C132 C131 1.409 1_556 S
C132 C133 1.380 . S
C132 H150 0.930 1_556 S
C133 C132 1.380 . S
C133 C140 1.357 . S
C134 C125 1.511 . S
C134 C135 1.341 . S
C134 C136 1.371 . S
C135 C134 1.341 . S
C135 C139 1.394 . S
C135 H151 0.930 . S
C136 C134 1.371 . S
C136 C137 1.392 1_554 S
C136 H152 0.931 1_554 S
C137 C136 1.392 1_556 S
C137 C138 1.331 1_556 S
C137 H155 0.932 . S
C138 C137 1.331 1_554 S
C138 C139 1.336 . S
C139 C135 1.394 . S
C139 C138 1.336 . S
C139 H154 0.929 . S
C140 C130 1.386 . S
C140 C133 1.357 . S
C140 H153 0.928 . S
H141 C117 0.931 . S
H142 C119 0.930 . S
H143 C121 0.929 . S
H144 C122 0.931 . S
H145 C124 0.930 . S
H146 C128 0.931 . S
H147 C126 0.931 . S
H148 C130 0.931 . S
H149 C131 0.929 . S
H150 C132 0.930 1_554 S
H151 C135 0.930 . S
H152 C136 0.931 1_556 S
H153 C140 0.928 . S
H154 C139 0.929 . S
H155 C137 0.932 . S
C156 C157 1.386 . S
C156 C158 1.397 . S
C156 H180 0.931 . S
C157 C156 1.386 . S
C157 C161 1.397 . S
C158 C156 1.397 . S
C158 C159 1.384 . S
C158 H181 0.930 . S
C159 C158 1.384 . S
C159 C160 1.377 . S
C159 C162 1.481 . S
C160 C159 1.377 . S
C160 C161 1.389 . S
C160 H182 0.929 . S
C161 C157 1.397 . S
C161 C160 1.389 . S
C161 H183 0.931 . S
C162 C159 1.481 . S
C162 C163 1.387 . S
C162 C167 1.390 . S
C163 C162 1.387 . S
C163 C164 1.401 . S
C163 H184 0.930 . S
C164 C163 1.401 . S
C164 C165 1.376 . S
C164 C173 1.511 . S
C165 C164 1.376 . S
C165 C166 1.392 . S
C165 H186 0.931 . S
C166 C165 1.392 . S
C166 C167 1.361 . S
C166 C168 1.500 . S
C167 C162 1.390 . S
C167 C166 1.361 . S
C167 H185 0.931 . S
C168 C166 1.500 . S
C168 C169 1.371 . S
C168 C170 1.365 . S
C169 C168 1.371 . S
C169 C179 1.386 . S
C169 H187 0.931 . S
C170 C168 1.365 . S
C170 C171 1.409 . S
C170 H188 0.929 . S
C171 C170 1.409 . S
C171 C172 1.380 . S
C171 H189 0.930 . S
C172 C171 1.380 . S
C172 C179 1.357 . S
C173 C164 1.511 . S
C173 C174 1.341 . S
C173 C175 1.371 . S
C174 C173 1.341 . S
C174 C178 1.394 . S
C174 H190 0.930 . S
C175 C173 1.371 . S
C175 C176 1.392 . S
C175 H191 0.931 . S
C176 C175 1.392 . S
C176 C177 1.331 . S
C176 H194 0.932 . S
C177 C176 1.331 . S
C177 C178 1.336 . S
C178 C174 1.394 . S
C178 C177 1.336 . S
C178 H193 0.929 . S
C179 C169 1.386 . S
C179 C172 1.357 . S
C179 H192 0.928 . S
H180 C156 0.931 . S
H181 C158 0.930 . S
H182 C160 0.929 . S
H183 C161 0.931 . S
H184 C163 0.930 . S
H185 C167 0.931 . S
H186 C165 0.931 . S
H187 C169 0.931 . S
H188 C170 0.929 . S
H189 C171 0.930 . S
H190 C174 0.930 . S
H191 C175 0.931 . S
H192 C179 0.928 . S
H193 C178 0.929 . S
H194 C176 0.932 . S
C195 C196 1.389 . S
C195 C197 1.397 . S
C195 H219 0.931 . S
C196 C195 1.389 . S
C196 C200 1.394 1_655 S
C197 C195 1.397 . S
C197 C198 1.383 . S
C197 H220 0.930 . S
C198 C197 1.383 . S
C198 C199 1.378 1_655 S
C198 C201 1.482 . S
C199 C198 1.378 1_455 S
C199 C200 1.389 . S
C199 H221 0.929 . S
C200 C196 1.394 1_455 S
C200 C199 1.389 . S
C200 H222 0.931 . S
C201 C198 1.482 . S
C201 C202 1.386 . S
C201 C206 1.390 . S
C202 C201 1.386 . S
C202 C203 1.403 . S
C202 H223 0.930 . S
C203 C202 1.403 . S
C203 C204 1.376 . S
C203 C212 1.511 . S
C204 C203 1.376 . S
C204 C205 1.394 1_655 S
C204 H225 0.931 . S
C205 C204 1.394 1_455 S
C205 C206 1.361 1_455 S
C205 C207 1.499 . S
C206 C201 1.390 . S
C206 C205 1.361 1_655 S
C206 H224 0.931 . S
C207 C205 1.499 . S
C207 C208 1.358 1_455 S
C207 C209 1.379 . S
C208 C207 1.358 1_655 S
C208 C218 1.386 . S
C208 H226 0.931 . S
C209 C207 1.379 . S
C209 C210 1.409 . S
C209 H227 0.929 . S
C210 C209 1.409 . S
C210 C211 1.384 . S
C210 H228 0.930 . S
C211 C210 1.384 . S
C211 C218 1.354 1_455 S
C212 C203 1.511 . S
C212 C213 1.341 . S
C212 C214 1.371 1_655 S
C213 C212 1.341 . S
C213 C217 1.394 . S
C213 H229 0.930 . S
C214 C212 1.371 1_455 S
C214 C215 1.392 . S
C214 H230 0.931 . S
C215 C214 1.392 . S
C215 C216 1.325 1_455 S
C215 H233 0.932 . S
C216 C215 1.325 1_655 S
C216 C217 1.344 . S
C217 C213 1.394 . S
C217 C216 1.344 . S
C217 H232 0.929 . S
C218 C208 1.386 . S
C218 C211 1.354 1_655 S
C218 H231 0.928 . S
H219 C195 0.931 . S
H220 C197 0.930 . S
H221 C199 0.929 . S
H222 C200 0.931 . S
H223 C202 0.930 . S
H224 C206 0.931 . S
H225 C204 0.931 . S
H226 C208 0.931 . S
H227 C209 0.929 . S
H228 C210 0.930 . S
H229 C213 0.930 . S
H230 C214 0.931 . S
H231 C218 0.928 . S
H232 C217 0.929 . S
H233 C215 0.932 . S
C234 C235 1.386 . S
C234 C236 1.397 . S
C234 H258 0.931 . S
C235 C234 1.386 . S
C235 C239 1.397 . S
C236 C234 1.397 . S
C236 C237 1.384 . S
C236 H259 0.930 . S
C237 C236 1.384 . S
C237 C238 1.377 . S
C237 C240 1.481 . S
C238 C237 1.377 . S
C238 C239 1.389 . S
C238 H260 0.929 . S
C239 C235 1.397 . S
C239 C238 1.389 . S
C239 H261 0.931 . S
C240 C237 1.481 . S
C240 C241 1.387 . S
C240 C245 1.390 . S
C241 C240 1.387 . S
C241 C242 1.401 . S
C241 H262 0.930 . S
C242 C241 1.401 . S
C242 C243 1.376 . S
C242 C251 1.511 . S
C243 C242 1.376 . S
C243 C244 1.392 . S
C243 H264 0.931 . S
C244 C243 1.392 . S
C244 C245 1.361 . S
C244 C246 1.500 . S
C245 C240 1.390 . S
C245 C244 1.361 . S
C245 H263 0.931 . S
C246 C244 1.500 . S
C246 C247 1.371 . S
C246 C248 1.365 . S
C247 C246 1.371 . S
C247 C257 1.386 . S
C247 H265 0.931 . S
C248 C246 1.365 . S
C248 C249 1.409 . S
C248 H266 0.929 . S
C249 C248 1.409 . S
C249 C250 1.380 . S
C249 H267 0.930 . S
C250 C249 1.380 . S
C250 C257 1.357 . S
C251 C242 1.511 . S
C251 C252 1.341 . S
C251 C253 1.371 . S
C252 C251 1.341 . S
C252 C256 1.394 . S
C252 H268 0.930 . S
C253 C251 1.371 . S
C253 C254 1.392 . S
C253 H269 0.931 . S
C254 C253 1.392 . S
C254 C255 1.331 . S
C254 H272 0.932 . S
C255 C254 1.331 . S
C255 C256 1.336 . S
C256 C252 1.394 . S
C256 C255 1.336 . S
C256 H271 0.929 . S
C257 C247 1.386 . S
C257 C250 1.357 . S
C257 H270 0.928 . S
H258 C234 0.931 . S
H259 C236 0.930 . S
H260 C238 0.929 . S
H261 C239 0.931 . S
H262 C241 0.930 . S
H263 C245 0.931 . S
H264 C243 0.931 . S
H265 C247 0.931 . S
H266 C248 0.929 . S
H267 C249 0.930 . S
H268 C252 0.930 . S
H269 C253 0.931 . S
H270 C257 0.928 . S
H271 C256 0.929 . S
H272 C254 0.932 . S
C273 C274 1.386 . S
C273 C275 1.397 . S
C273 H297 0.931 . S
C274 C273 1.386 . S
C274 C278 1.397 . S
C275 C273 1.397 . S
C275 C276 1.384 . S
C275 H298 0.930 . S
C276 C275 1.384 . S
C276 C277 1.377 . S
C276 C279 1.481 . S
C277 C276 1.377 . S
C277 C278 1.389 . S
C277 H299 0.929 . S
C278 C274 1.397 . S
C278 C277 1.389 . S
C278 H300 0.931 . S
C279 C276 1.481 . S
C279 C280 1.387 . S
C279 C284 1.390 . S
C280 C279 1.387 . S
C280 C281 1.401 . S
C280 H301 0.930 . S
C281 C280 1.401 . S
C281 C282 1.376 . S
C281 C290 1.511 . S
C282 C281 1.376 . S
C282 C283 1.392 . S
C282 H303 0.931 . S
C283 C282 1.392 . S
C283 C284 1.361 . S
C283 C285 1.500 . S
C284 C279 1.390 . S
C284 C283 1.361 . S
C284 H302 0.931 . S
C285 C283 1.500 . S
C285 C286 1.371 . S
C285 C287 1.365 . S
C286 C285 1.371 . S
C286 C296 1.386 . S
C286 H304 0.931 . S
C287 C285 1.365 . S
C287 C288 1.409 . S
C287 H305 0.929 . S
C288 C287 1.409 . S
C288 C289 1.380 . S
C288 H306 0.930 . S
C289 C288 1.380 . S
C289 C296 1.357 . S
C290 C281 1.511 . S
C290 C291 1.341 . S
C290 C292 1.371 . S
C291 C290 1.341 . S
C291 C295 1.394 . S
C291 H307 0.930 . S
C292 C290 1.371 . S
C292 C293 1.392 . S
C292 H308 0.931 . S
C293 C292 1.392 . S
C293 C294 1.331 . S
C293 H311 0.932 . S
C294 C293 1.331 . S
C294 C295 1.336 . S
C295 C291 1.394 . S
C295 C294 1.336 . S
C295 H310 0.929 . S
C296 C286 1.386 . S
C296 C289 1.357 . S
C296 H309 0.928 . S
H297 C273 0.931 . S
H298 C275 0.930 . S
H299 C277 0.929 . S
H300 C278 0.931 . S
H301 C280 0.930 . S
H302 C284 0.931 . S
H303 C282 0.931 . S
H304 C286 0.931 . S
H305 C287 0.929 . S
H306 C288 0.930 . S
H307 C291 0.930 . S
H308 C292 0.931 . S
H309 C296 0.928 . S
H310 C295 0.929 . S
H311 C293 0.932 . S
Co312 N317 2.057 . S
Co312 O329 2.021 . S
Co312 O332 2.062 1_455 S
Co312 O336 2.117 1_455 S
Co312 O337 2.020 1_545 S
C313 O333 1.259 1_545 S
C313 O336 1.258 . S
Co314 N323 2.046 1_545 S
Co314 O330 2.123 1_655 S
Co314 O331 2.042 . S
Co314 O333 2.018 1_545 S
Co314 O338 2.045 1_645 S
C315 N317 1.316 . S
C315 N318 1.347 1_556 S
C315 H320 0.931 . S
C316 N317 1.375 1_655 S
C316 C319 1.350 1_556 S
C316 H321 0.930 . S
N317 Co312 2.057 . S
N317 C315 1.316 . S
N317 C316 1.375 1_455 S
N318 C315 1.347 1_554 S
N318 C319 1.373 1_455 S
C319 C316 1.350 1_554 S
C319 N318 1.373 1_655 S
C319 H340 0.931 . S
H320 C315 0.931 . S
H321 C316 0.930 . S
C322 O329 1.259 . S
C322 O330 1.258 . S
N323 Co314 2.046 1_565 S
N323 C324 1.342 . S
N323 C325 1.344 1_655 S
C324 N323 1.342 . S
C324 N326 1.347 . S
C324 H335 0.931 . S
C325 N323 1.344 1_455 S
C325 C327 1.350 . S
C325 H334 0.930 . S
N326 C324 1.347 . S
N326 C327 1.373 1_655 S
C327 C325 1.350 . S
C327 N326 1.373 1_455 S
C327 H341 0.931 . S
C328 O331 1.256 . S
C328 O332 1.255 . S
O329 Co312 2.021 . S
O329 C322 1.259 . S
O330 Co314 2.123 1_455 S
O330 C322 1.258 . S
O331 Co314 2.042 . S
O331 C328 1.256 . S
O332 Co312 2.062 1_655 S
O332 C328 1.255 . S
O333 C313 1.259 1_565 S
O333 Co314 2.018 1_565 S
H334 C325 0.930 . S
H335 C324 0.931 . S
O336 Co312 2.117 1_655 S
O336 C313 1.258 . S
O337 Co312 2.020 1_565 S
O337 C339 1.256 . S
O338 Co314 2.045 1_465 S
O338 C339 1.255 . S
C339 O337 1.256 . S
C339 O338 1.255 . S
H340 C319 0.931 . S
H341 C327 0.931 . S
Co342 N347 2.057 . S
Co342 O359 2.021 . S
Co342 O362 2.062 . S
Co342 O366 2.117 1_545 S
Co342 O367 2.020 . S
C343 O363 1.259 . S
C343 O366 1.258 . S
Co344 N353 2.057 . S
Co344 O360 2.117 . S
Co344 O361 2.020 . S
Co344 O363 2.021 1_545 S
Co344 O368 2.062 1_545 S
C345 N347 1.316 . S
C345 N348 1.347 1_556 S
C345 H350 0.931 . S
C346 N347 1.375 . S
C346 C349 1.350 1_556 S
C346 H351 0.930 1_545 S
N347 Co342 2.057 . S
N347 C345 1.316 . S
N347 C346 1.375 . S
N348 C345 1.347 1_554 S
N348 C349 1.373 . S
C349 C346 1.350 1_554 S
C349 N348 1.373 . S
C349 H370 0.931 . S
H350 C345 0.931 . S
H351 C346 0.930 1_565 S
C352 O359 1.259 . S
C352 O360 1.258 . S
N353 Co344 2.057 . S
N353 C354 1.316 1_545 S
N353 C355 1.375 . S
C354 N353 1.316 1_565 S
C354 N356 1.347 . S
C354 H365 0.931 . S
C355 N353 1.375 . S
C355 C357 1.350 . S
C355 H364 0.930 . S
N356 C354 1.347 . S
N356 C357 1.373 1_565 S
C357 C355 1.350 . S
C357 N356 1.373 1_545 S
C357 H371 0.931 . S
C358 O361 1.256 . S
C358 O362 1.255 . S
O359 Co342 2.021 . S
O359 C352 1.259 . S
O360 Co344 2.117 . S
O360 C352 1.258 . S
O361 Co344 2.020 . S
O361 C358 1.256 . S
O362 Co342 2.062 . S
O362 C358 1.255 . S
O363 C343 1.259 . S
O363 Co344 2.021 1_565 S
H364 C355 0.930 . S
H365 C354 0.931 . S
O366 Co342 2.117 1_565 S
O366 C343 1.258 . S
O367 Co342 2.020 . S
O367 C369 1.256 . S
O368 Co344 2.062 1_565 S
O368 C369 1.255 1_565 S
C369 O367 1.256 . S
C369 O368 1.255 1_545 S
H370 C349 0.931 . S
H371 C357 0.931 . S
Co372 N377 2.057 . S
Co372 O389 2.021 . S
Co372 O392 2.062 . S
Co372 O396 2.117 . S
Co372 O397 2.020 . S
C373 O393 1.259 . S
C373 O396 1.258 . S
Co374 N383 2.057 . S
Co374 O390 2.117 . S
Co374 O391 2.020 . S
Co374 O393 2.021 . S
Co374 O398 2.062 . S
C375 N377 1.316 . S
C375 N378 1.347 . S
C375 H380 0.931 . S
C376 N377 1.375 . S
C376 C379 1.350 . S
C376 H381 0.930 . S
N377 Co372 2.057 . S
N377 C375 1.316 . S
N377 C376 1.375 . S
N378 C375 1.347 . S
N378 C379 1.373 . S
C379 C376 1.350 . S
C379 N378 1.373 . S
C379 H400 0.931 . S
H380 C375 0.931 . S
H381 C376 0.930 . S
C382 O389 1.259 . S
C382 O390 1.258 . S
N383 Co374 2.057 . S
N383 C384 1.316 . S
N383 C385 1.375 . S
C384 N383 1.316 . S
C384 N386 1.347 . S
C384 H395 0.931 . S
C385 N383 1.375 . S
C385 C387 1.350 . S
C385 H394 0.930 . S
N386 C384 1.347 . S
N386 C387 1.373 . S
C387 C385 1.350 . S
C387 N386 1.373 . S
C387 H401 0.931 . S
C388 O391 1.256 . S
C388 O392 1.255 . S
O389 Co372 2.021 . S
O389 C382 1.259 . S
O390 Co374 2.117 . S
O390 C382 1.258 . S
O391 Co374 2.020 . S
O391 C388 1.256 . S
O392 Co372 2.062 . S
O392 C388 1.255 . S
O393 C373 1.259 . S
O393 Co374 2.021 . S
H394 C385 0.930 . S
H395 C384 0.931 . S
O396 Co372 2.117 . S
O396 C373 1.258 . S
O397 Co372 2.020 . S
O397 C399 1.256 . S
O398 Co374 2.062 . S
O398 C399 1.255 . S
C399 O397 1.256 . S
C399 O398 1.255 . S
H400 C379 0.931 . S
H401 C387 0.931 . S
Co402 N407 2.057 . S
Co402 O419 2.021 1_455 S
Co402 O422 2.062 1_455 S
Co402 O426 2.117 . S
Co402 O427 2.020 . S
C403 O423 1.259 . S
C403 O426 1.258 . S
Co404 N413 2.057 . S
Co404 O420 2.117 . S
Co404 O421 2.020 . S
Co404 O423 2.021 1_655 S
Co404 O428 2.062 1_655 S
C405 N407 1.316 . S
C405 N408 1.347 . S
C405 H410 0.931 1_455 S
C406 N407 1.375 . S
C406 C409 1.350 . S
C406 H411 0.930 . S
N407 Co402 2.057 . S
N407 C405 1.316 . S
N407 C406 1.375 . S
N408 C405 1.347 . S
N408 C409 1.373 . S
C409 C406 1.350 . S
C409 N408 1.373 . S
C409 H430 0.931 . S
H410 C405 0.931 1_655 S
H411 C406 0.930 . S
C412 O419 1.259 . S
C412 O420 1.258 . S
N413 Co404 2.057 . S
N413 C414 1.316 . S
N413 C415 1.375 . S
C414 N413 1.316 . S
C414 N416 1.347 . S
C414 H425 0.931 1_655 S
C415 N413 1.375 . S
C415 C417 1.350 . S
C415 H424 0.930 . S
N416 C414 1.347 . S
N416 C417 1.373 . S
C417 C415 1.350 . S
C417 N416 1.373 . S
C417 H431 0.931 . S
C418 O421 1.256 . S
C418 O422 1.255 . S
O419 Co402 2.021 1_655 S
O419 C412 1.259 . S
O420 Co404 2.117 . S
O420 C412 1.258 . S
O421 Co404 2.020 . S
O421 C418 1.256 . S
O422 Co402 2.062 1_655 S
O422 C418 1.255 . S
O423 C403 1.259 . S
O423 Co404 2.021 1_455 S
H424 C415 0.930 . S
H425 C414 0.931 1_455 S
O426 Co402 2.117 . S
O426 C403 1.258 . S
O427 Co402 2.020 . S
O427 C429 1.256 . S
O428 Co404 2.062 1_455 S
O428 C429 1.255 . S
C429 O427 1.256 . S
C429 O428 1.255 . S
H430 C409 0.931 . S
H431 C417 0.931 . S
C432 C433 1.387 . S
C432 H436 0.950 . S
C432 C441 1.390 . S
C433 C432 1.387 . S
C433 C435 1.387 . S
H434 C441 0.950 . S
C435 C433 1.387 . S
C435 C437 1.390 . S
C435 H439 0.950 . S
H436 C432 0.950 . S
C437 C435 1.390 . S
C437 C438 1.387 . S
C437 H440 0.950 . S
C438 C437 1.387 . S
C438 C441 1.387 . S
H439 C435 0.950 . S
H440 C437 0.950 . S
C441 C432 1.390 . S
C441 H434 0.950 . S
C441 C438 1.387 . S
C442 C443 1.387 . S
C442 H446 0.950 . S
C442 C451 1.390 . S
C443 C442 1.387 . S
C443 C445 1.387 . S
H444 C451 0.950 . S
C445 C443 1.387 . S
C445 C447 1.390 . S
C445 H449 0.950 . S
H446 C442 0.950 . S
C447 C445 1.390 . S
C447 C448 1.387 . S
C447 H450 0.950 . S
C448 C447 1.387 . S
C448 C451 1.387 . S
H449 C445 0.950 . S
H450 C447 0.950 . S
C451 C442 1.390 . S
C451 H444 0.950 . S
C451 C448 1.387 . S
C452 C453 1.387 . S
C452 H456 0.950 . S
C452 C461 1.390 . S
C453 C452 1.387 . S
C453 C455 1.387 . S
H454 C461 0.950 . S
C455 C453 1.387 . S
C455 C457 1.390 . S
C455 H459 0.950 . S
H456 C452 0.950 . S
C457 C455 1.390 . S
C457 C458 1.387 . S
C457 H460 0.950 . S
C458 C457 1.387 . S
C458 C461 1.387 . S
H459 C455 0.950 . S
H460 C457 0.950 . S
C461 C452 1.390 . S
C461 H454 0.950 . S
C461 C458 1.387 . S
C462 C463 1.387 . S
C462 H466 0.950 . S
C462 C471 1.390 . S
C463 C462 1.387 . S
C463 C465 1.387 . S
H464 C471 0.950 . S
C465 C463 1.387 . S
C465 C467 1.390 . S
C465 H469 0.950 . S
H466 C462 0.950 . S
C467 C465 1.390 . S
C467 C468 1.387 . S
C467 H470 0.950 . S
C468 C467 1.387 . S
C468 C471 1.387 . S
H469 C465 0.950 . S
H470 C467 0.950 . S
C471 C462 1.390 . S
C471 H464 0.950 . S
C471 C468 1.387 . S
C472 C473 1.387 1_554 S
C472 H476 0.950 . S
C472 C481 1.390 1_554 S
C473 C472 1.387 1_556 S
C473 C475 1.387 . S
H474 C481 0.950 . S
C475 C473 1.387 . S
C475 C477 1.390 . S
C475 H479 0.950 . S
H476 C472 0.950 . S
C477 C475 1.390 . S
C477 C478 1.387 . S
C477 H480 0.950 . S
C478 C477 1.387 . S
C478 C481 1.387 . S
H479 C475 0.950 . S
H480 C477 0.950 . S
C481 C472 1.390 1_556 S
C481 H474 0.950 . S
C481 C478 1.387 . S
C482 C483 1.387 . S
C482 H486 0.950 . S
C482 C491 1.390 . S
C483 C482 1.387 . S
C483 C485 1.387 . S
H484 C491 0.950 . S
C485 C483 1.387 . S
C485 C487 1.390 . S
C485 H489 0.950 1_556 S
H486 C482 0.950 . S
C487 C485 1.390 . S
C487 C488 1.387 . S
C487 H490 0.950 . S
C488 C487 1.387 . S
C488 C491 1.387 . S
H489 C485 0.950 1_554 S
H490 C487 0.950 . S
C491 C482 1.390 . S
C491 H484 0.950 . S
C491 C488 1.387 . S
C492 C493 1.387 1_556 S
C492 H496 0.950 . S
C492 C501 1.390 . S
C493 C492 1.387 1_554 S
C493 C495 1.387 . S
H494 C501 0.950 . S
C495 C493 1.387 . S
C495 C497 1.390 1_554 S
C495 H499 0.950 . S
H496 C492 0.950 . S
C497 C495 1.390 1_556 S
C497 C498 1.387 . S
C497 H500 0.950 . S
C498 C497 1.387 . S
C498 C501 1.387 . S
H499 C495 0.950 . S
H500 C497 0.950 . S
C501 C492 1.390 . S
C501 H494 0.950 . S
C501 C498 1.387 . S
C502 C503 1.387 1_556 S
C502 H506 0.950 . S
C502 C511 1.390 . S
C503 C502 1.387 1_554 S
C503 C505 1.387 1_455 S
H504 C511 0.950 . S
C505 C503 1.387 1_655 S
C505 C507 1.390 1_554 S
C505 H509 0.950 . S
H506 C502 0.950 . S
C507 C505 1.390 1_556 S
C507 C508 1.387 1_655 S
C507 H510 0.950 . S
C508 C507 1.387 1_455 S
C508 C511 1.387 . S
H509 C505 0.950 . S
H510 C507 0.950 . S
C511 C502 1.390 . S
C511 H504 0.950 . S
C511 C508 1.387 . S
C512 C513 1.387 1_655 S
C512 H516 0.950 . S
C512 C521 1.390 . S
C513 C512 1.387 1_455 S
C513 C515 1.382 1_455 S
H514 C521 0.950 . S
C515 C513 1.382 1_655 S
C515 C517 1.404 . S
C515 H519 0.943 1_655 S
H516 C512 0.950 . S
C517 C515 1.404 . S
C517 C518 1.387 . S
C517 H520 0.950 . S
C518 C517 1.387 . S
C518 C521 1.387 . S
H519 C515 0.943 1_455 S
H520 C517 0.950 . S
C521 C512 1.390 . S
C521 H514 0.950 . S
C521 C518 1.387 . S
C522 C523 1.387 . S
C522 H526 0.950 . S
C522 C531 1.390 . S
C523 C522 1.387 . S
C523 C525 1.387 . S
H524 C531 0.950 . S
C525 C523 1.387 . S
C525 C527 1.390 . S
C525 H529 0.950 . S
H526 C522 0.950 . S
C527 C525 1.390 . S
C527 C528 1.387 . S
C527 H530 0.950 . S
C528 C527 1.387 . S
C528 C531 1.387 . S
H529 C525 0.950 . S
H530 C527 0.950 . S
C531 C522 1.390 . S
C531 H524 0.950 . S
C531 C528 1.387 . S
C532 C533 1.387 . S
C532 H536 0.950 . S
C532 C541 1.390 . S
C533 C532 1.387 . S
C533 C535 1.387 . S
H534 C541 0.950 . S
C535 C533 1.387 . S
C535 C537 1.390 . S
C535 H539 0.950 . S
H536 C532 0.950 . S
C537 C535 1.390 . S
C537 C538 1.387 . S
C537 H540 0.950 . S
C538 C537 1.387 . S
C538 C541 1.387 . S
H539 C535 0.950 . S
H540 C537 0.950 . S
C541 C532 1.390 . S
C541 H534 0.950 . S
C541 C538 1.387 . S
C542 C543 1.387 . S
C542 H546 0.950 . S
C542 C551 1.390 . S
C543 C542 1.387 . S
C543 C545 1.387 . S
H544 C551 0.950 . S
C545 C543 1.387 . S
C545 C547 1.390 . S
C545 H549 0.950 . S
H546 C542 0.950 . S
C547 C545 1.390 . S
C547 C548 1.387 . S
C547 H550 0.950 . S
C548 C547 1.387 . S
C548 C551 1.387 . S
H549 C545 0.950 . S
H550 C547 0.950 . S
C551 C542 1.390 . S
C551 H544 0.950 . S
C551 C548 1.387 . S
C552 C553 1.387 . S
C552 H556 0.950 . S
C552 C561 1.390 . S
C553 C552 1.387 . S
C553 C555 1.387 1_655 S
H554 C561 0.950 . S
C555 C553 1.387 1_455 S
C555 C557 1.390 . S
C555 H559 0.950 . S
H556 C552 0.950 . S
C557 C555 1.390 . S
C557 C558 1.387 . S
C557 H560 0.950 . S
C558 C557 1.387 . S
C558 C561 1.387 1_455 S
H559 C555 0.950 . S
H560 C557 0.950 . S
C561 C552 1.390 . S
C561 H554 0.950 . S
C561 C558 1.387 1_655 S
C562 C563 1.387 . S
C562 H566 0.950 . S
C562 C571 1.390 . S
C563 C562 1.387 . S
C563 C565 1.387 . S
H564 C571 0.950 1_545 S
C565 C563 1.387 . S
C565 C567 1.390 . S
C565 H569 0.950 . S
H566 C562 0.950 . S
C567 C565 1.390 . S
C567 C568 1.387 . S
C567 H570 0.950 . S
C568 C567 1.387 . S
C568 C571 1.387 . S
H569 C565 0.950 . S
H570 C567 0.950 . S
C571 C562 1.390 . S
C571 H564 0.950 1_565 S
C571 C568 1.387 . S
C572 C573 1.387 . S
C572 H576 0.950 . S
C572 C581 1.390 . S
C573 C572 1.387 . S
C573 C575 1.387 . S
H574 C581 0.950 . S
C575 C573 1.387 . S
C575 C577 1.390 . S
C575 H579 0.950 . S
H576 C572 0.950 . S
C577 C575 1.390 . S
C577 C578 1.387 . S
C577 H580 0.950 . S
C578 C577 1.387 . S
C578 C581 1.387 . S
H579 C575 0.950 . S
H580 C577 0.950 . S
C581 C572 1.390 . S
C581 H574 0.950 . S
C581 C578 1.387 . S
C582 C583 1.387 . S
C582 H586 0.950 1_556 S
C582 C591 1.390 . S
C583 C582 1.387 . S
C583 C585 1.387 . S
H584 C591 0.950 1_554 S
C585 C583 1.387 . S
C585 C587 1.390 . S
C585 H589 0.950 . S
H586 C582 0.950 1_554 S
C587 C585 1.390 . S
C587 C588 1.387 . S
C587 H590 0.950 . S
C588 C587 1.387 . S
C588 C591 1.387 . S
H589 C585 0.950 . S
H590 C587 0.950 . S
C591 C582 1.390 . S
C591 H584 0.950 1_556 S
C591 C588 1.387 . S
C592 C593 1.387 1_655 S
C592 H596 0.950 . S
C592 C601 1.390 . S
C593 C592 1.387 1_455 S
C593 C595 1.387 . S
H594 C601 0.950 1_556 S
C595 C593 1.387 . S
C595 C597 1.390 . S
C595 H599 0.950 . S
H596 C592 0.950 . S
C597 C595 1.390 . S
C597 C598 1.387 . S
C597 H600 0.950 . S
C598 C597 1.387 . S
C598 C601 1.387 1_455 S
H599 C595 0.950 . S
H600 C597 0.950 . S
C601 C592 1.390 . S
C601 H594 0.950 1_554 S
C601 C598 1.387 1_655 S
C602 C603 1.387 . S
C602 H606 0.950 . S
C602 C611 1.390 . S
C603 C602 1.387 . S
C603 C605 1.387 . S
H604 C611 0.950 . S
C605 C603 1.387 . S
C605 C607 1.390 . S
C605 H609 0.950 . S
H606 C602 0.950 . S
C607 C605 1.390 . S
C607 C608 1.387 . S
C607 H610 0.950 1_554 S
C608 C607 1.387 . S
C608 C611 1.387 . S
H609 C605 0.950 . S
H610 C607 0.950 1_556 S
C611 C602 1.390 . S
C611 H604 0.950 . S
C611 C608 1.387 . S
C612 C613 1.387 . S
C612 H616 0.950 . S
C612 C621 1.390 1_554 S
C613 C612 1.387 . S
C613 C615 1.387 . S
H614 C621 0.950 . S
C615 C613 1.387 . S
C615 C617 1.390 . S
C615 H619 0.950 . S
H616 C612 0.950 . S
C617 C615 1.390 . S
C617 C618 1.387 1_554 S
C617 H620 0.950 . S
C618 C617 1.387 1_556 S
C618 C621 1.387 . S
H619 C615 0.950 . S
H620 C617 0.950 . S
C621 C612 1.390 1_556 S
C621 H614 0.950 . S
C621 C618 1.387 . S
C622 C623 1.388 1_556 S
C622 H626 0.950 . S
C622 C631 1.390 . S
C623 C622 1.388 1_554 S
C623 C625 1.387 . S
H624 C631 0.950 . S
C625 C623 1.387 . S
C625 C627 1.390 . S
C625 H629 0.950 . S
H626 C622 0.950 . S
C627 C625 1.390 . S
C627 C628 1.387 1_554 S
C627 H630 0.950 . S
C628 C627 1.387 1_556 S
C628 C631 1.387 . S
H629 C625 0.950 . S
H630 C627 0.950 . S
C631 C622 1.390 . S
C631 H624 0.950 . S
C631 C628 1.387 . S
C632 C633 1.387 . S
C632 H636 0.950 . S
C632 C641 1.390 . S
C633 C632 1.387 . S
C633 C635 1.387 1_655 S
H634 C641 0.950 . S
C635 C633 1.387 1_455 S
C635 C637 1.390 . S
C635 H639 0.950 . S
H636 C632 0.950 . S
C637 C635 1.390 . S
C637 C638 1.387 1_455 S
C637 H640 0.950 . S
C638 C637 1.387 1_655 S
C638 C641 1.387 . S
H639 C635 0.950 . S
H640 C637 0.950 . S
C641 C632 1.390 . S
C641 H634 0.950 . S
C641 C638 1.387 . S
C642 C643 1.387 . S
C642 H646 0.950 . S
C642 C651 1.390 . S
C643 C642 1.387 . S
C643 C645 1.387 . S
H644 C651 0.950 . S
C645 C643 1.387 . S
C645 C647 1.390 . S
C645 H649 0.950 . S
H646 C642 0.950 . S
C647 C645 1.390 . S
C647 C648 1.387 . S
C647 H650 0.950 . S
C648 C647 1.387 . S
C648 C651 1.387 . S
H649 C645 0.950 . S
H650 C647 0.950 . S
C651 C642 1.390 . S
C651 H644 0.950 . S
C651 C648 1.387 . S
C652 C653 1.387 . S
C652 H656 0.950 . S
C652 C661 1.390 . S
C653 C652 1.387 . S
C653 C655 1.387 . S
H654 C661 0.950 . S
C655 C653 1.387 . S
C655 C657 1.390 . S
C655 H659 0.950 . S
H656 C652 0.950 . S
C657 C655 1.390 . S
C657 C658 1.387 . S
C657 H660 0.950 . S
C658 C657 1.387 . S
C658 C661 1.387 . S
H659 C655 0.950 . S
H660 C657 0.950 . S
C661 C652 1.390 . S
C661 H654 0.950 . S
C661 C658 1.387 . S
C662 C663 1.387 . S
C662 H666 0.950 . S
C662 C671 1.390 . S
C663 C662 1.387 . S
C663 C665 1.387 . S
H664 C671 0.950 . S
C665 C663 1.387 . S
C665 C667 1.390 . S
C665 H669 0.950 . S
H666 C662 0.950 . S
C667 C665 1.390 . S
C667 C668 1.387 . S
C667 H670 0.950 . S
C668 C667 1.387 . S
C668 C671 1.387 . S
H669 C665 0.950 . S
H670 C667 0.950 . S
C671 C662 1.390 . S
C671 H664 0.950 . S
C671 C668 1.387 . S
C433 C255 1.920 . S
C438 C322 1.969 . S
C448 C352 1.820 . S
C443 C294 1.779 . S
C458 N386 1.893 . S
C453 C177 1.830 . S
C468 N416 1.499 . S
C463 C216 1.570 . S
C478 C313 1.970 1_565 S
C473 C99 1.943 1_556 S
C483 C138 1.785 1_556 S
C488 C343 1.821 . S
C493 C21 1.850 . S
C498 N378 1.891 . S
C503 C60 1.572 1_455 S
C508 N408 1.498 . S
C518 C328 0.662 . S
C513 C196 0.710 1_455 S
C528 C358 1.220 . S
C523 C235 1.104 . S
C538 C399 0.953 . S
C533 C289 0.938 . S
C543 C157 1.038 . S
C548 C429 1.094 . S
C553 C40 0.714 . S
C558 C339 0.666 . S
C568 C369 1.215 1_565 S
C563 C79 1.111 . S
C578 C388 0.952 . S
C573 C133 0.935 . S
C583 C1 1.058 . S
C588 C418 1.105 . S
C593 C211 1.697 . S
C598 N318 1.820 . S
C603 C250 1.827 . S
C608 N348 1.968 . S
C618 C373 2.014 . S
C613 C274 1.899 . S
C628 C403 2.218 . S
C623 C172 2.065 . S
C633 C55 1.698 1_655 S
C638 N326 1.822 . S
C648 N356 1.968 . S
C643 C94 1.822 . S
C658 C382 2.015 . S
C653 C118 1.906 . S
C663 C16 2.061 . S
C668 C412 2.221 . S
