# Generated by pormake.
# Topology ssa, (4,4)-cn, num edge types: 1
# Building blocks:
#     Node 0, Type 0, BuildingBlock: KOZSID_clean_sbu_0, # of connection points: 4
#     Node 1, Type 0, BuildingBlock: KOZSID_clean_sbu_0, # of connection points: 4
#     Node 2, Type 0, BuildingBlock: KOZSID_clean_sbu_0, # of connection points: 4
#     Node 3, Type 0, BuildingBlock: KOZSID_clean_sbu_0, # of connection points: 4
#     Node 4, Type 0, BuildingBlock: KOZSID_clean_sbu_0, # of connection points: 4
#     Node 5, Type 0, BuildingBlock: KOZSID_clean_sbu_0, # of connection points: 4
#     Node 6, Type 1, BuildingBlock: NAWXER_clean_linker_0, # of connection points: 4
#     Node 7, Type 1, BuildingBlock: NAWXER_clean_linker_0, # of connection points: 4
#     Node 8, Type 1, BuildingBlock: NAWXER_clean_linker_0, # of connection points: 4
#     Node 9, Type 1, BuildingBlock: NAWXER_clean_linker_0, # of connection points: 4
#     Node 10, Type 1, BuildingBlock: NAWXER_clean_linker_0, # of connection points: 4
#     Node 11, Type 1, BuildingBlock: NAWXER_clean_linker_0, # of connection points: 4
#     Edge 12, Type (0, 1), BuildingBlock: UVAHIK_clean_linker_0, # of connection points: 2
#     Edge 13, Type (0, 1), BuildingBlock: UVAHIK_clean_linker_0, # of connection points: 2
#     Edge 14, Type (0, 1), BuildingBlock: UVAHIK_clean_linker_0, # of connection points: 2
#     Edge 15, Type (0, 1), BuildingBlock: UVAHIK_clean_linker_0, # of connection points: 2
#     Edge 16, Type (0, 1), BuildingBlock: UVAHIK_clean_linker_0, # of connection points: 2
#     Edge 17, Type (0, 1), BuildingBlock: UVAHIK_clean_linker_0, # of connection points: 2
#     Edge 18, Type (0, 1), BuildingBlock: UVAHIK_clean_linker_0, # of connection points: 2
#     Edge 19, Type (0, 1), BuildingBlock: UVAHIK_clean_linker_0, # of connection points: 2
#     Edge 20, Type (0, 1), BuildingBlock: UVAHIK_clean_linker_0, # of connection points: 2
#     Edge 21, Type (0, 1), BuildingBlock: UVAHIK_clean_linker_0, # of connection points: 2
#     Edge 22, Type (0, 1), BuildingBlock: UVAHIK_clean_linker_0, # of connection points: 2
#     Edge 23, Type (0, 1), BuildingBlock: UVAHIK_clean_linker_0, # of connection points: 2
#     Edge 24, Type (0, 1), BuildingBlock: UVAHIK_clean_linker_0, # of connection points: 2
#     Edge 25, Type (0, 1), BuildingBlock: UVAHIK_clean_linker_0, # of connection points: 2
#     Edge 26, Type (0, 1), BuildingBlock: UVAHIK_clean_linker_0, # of connection points: 2
#     Edge 27, Type (0, 1), BuildingBlock: UVAHIK_clean_linker_0, # of connection points: 2
#     Edge 28, Type (0, 1), BuildingBlock: UVAHIK_clean_linker_0, # of connection points: 2
#     Edge 29, Type (0, 1), BuildingBlock: UVAHIK_clean_linker_0, # of connection points: 2
#     Edge 30, Type (0, 1), BuildingBlock: UVAHIK_clean_linker_0, # of connection points: 2
#     Edge 31, Type (0, 1), BuildingBlock: UVAHIK_clean_linker_0, # of connection points: 2
#     Edge 32, Type (0, 1), BuildingBlock: UVAHIK_clean_linker_0, # of connection points: 2
#     Edge 33, Type (0, 1), BuildingBlock: UVAHIK_clean_linker_0, # of connection points: 2
#     Edge 34, Type (0, 1), BuildingBlock: UVAHIK_clean_linker_0, # of connection points: 2
#     Edge 35, Type (0, 1), BuildingBlock: UVAHIK_clean_linker_0, # of connection points: 2
# Relax obj value: 0.005
# Max RMSD: 0.020
# Mean RMSD: 0.013
data_MOF--net-ssa--node1-KOZSID_clean_sbu_0--node2-NAWXER_clean_linker_0--edge1-UVAHIK_clean_linker_0
_symmetry_space_group_name_H-M    P1
_symmetry_Int_Tables_number       1
_symmetry_cell_setting            triclinic
loop_
_symmetry_equiv_pos_as_xyz
'x, y, z'
_cell_length_a     76.954674
_cell_length_b     78.312794
_cell_length_c     54.871903
_cell_angle_alpha  88.064093
_cell_angle_beta   89.976671
_cell_angle_gamma 121.77053
loop_
_atom_site_label
_atom_site_type_symbol
_atom_site_fract_x
_atom_site_fract_y
_atom_site_fract_z
_atom_type_partial_charge
C0 C 0.96704 0.51017 0.99325 0.0
C1 C 0.94863 0.50551 0.00402 0.0
C2 C 0.9457 0.49362 0.02425 0.0
C3 C 0.96242 0.49176 0.02473 0.0
N4 N 0.97604 0.50195 0.00622 0.0
Co5 Co 0.00206 0.50267 0.99955 0.0
N6 N 0.9979 0.48549 0.02965 0.0
C7 C 0.98247 0.47846 0.04637 0.0
C8 C 0.98432 0.4682 0.06589 0.0
C9 C 0.00214 0.46892 0.0616 0.0
C10 C 0.01007 0.47947 0.03947 0.0
N11 N 0.02757 0.50263 0.99227 0.0
C12 C 0.03645 0.49421 0.00505 0.0
C13 C 0.05375 0.49715 0.99302 0.0
C14 C 0.05609 0.50812 0.97209 0.0
C15 C 0.04008 0.5111 0.97243 0.0
N16 N 0.00677 0.52069 0.97014 0.0
C17 C 0.02296 0.52888 0.95438 0.0
C18 C 0.02206 0.54065 0.93599 0.0
C19 C 0.00423 0.53994 0.9402 0.0
C20 C 0.99524 0.52774 0.96105 0.0
N21 N 0.01774 0.52686 0.01918 0.0
C22 C 0.04068 0.56045 0.04804 0.0
C23 C 0.049 0.5583 0.02659 0.0
C24 C 0.03733 0.5416 0.01249 0.0
C25 C 0.02057 0.54569 0.05459 0.0
C26 C 0.00948 0.52912 0.04006 0.0
N27 N 0.98637 0.47842 0.97988 0.0
C28 C 0.98012 0.46199 0.94149 0.0
C29 C 0.96364 0.44416 0.95172 0.0
C30 C 0.9589 0.44381 0.97641 0.0
C31 C 0.97021 0.46097 0.98994 0.0
C32 C 0.99126 0.47869 0.95579 0.0
H33 H 0.9655 0.4597 0.00849 0.0
H34 H 0.00367 0.49167 0.94681 0.0
H35 H 0.04454 0.54088 0.99631 0.0
H36 H 0.99434 0.51825 0.04626 0.0
C37 C 0.96627 0.48141 0.04297 0.0
C38 C 0.97523 0.52238 0.97068 0.0
C39 C 0.02948 0.48389 0.0289 0.0
C40 C 0.03758 0.5235 0.95583 0.0
H41 H 0.93838 0.51023 0.9979 0.0
H42 H 0.93298 0.48724 0.03717 0.0
H43 H 0.97401 0.46119 0.08149 0.0
H44 H 0.00862 0.46255 0.07358 0.0
H45 H 0.06385 0.49219 0.999 0.0
H46 H 0.06835 0.51377 0.9586 0.0
H47 H 0.03274 0.54824 0.92083 0.0
H48 H 0.9983 0.54716 0.92877 0.0
H49 H 0.06445 0.56953 0.0206 0.0
H50 H 0.01353 0.54663 0.07118 0.0
H51 H 0.98432 0.46331 0.92238 0.0
H52 H 0.94655 0.43033 0.98547 0.0
C53 C 0.52936 0.00864 0.54261 0.0
C54 C 0.52948 2e-05 0.5651 0.0
C55 C 0.51089 0.98265 0.56808 0.0
C56 C 0.50049 0.98169 0.54741 0.0
N57 N 0.51137 0.9973 0.53123 0.0
Co58 Co 0.50173 0.00238 0.49934 0.0
N59 N 0.47404 0.97728 0.50434 0.0
C60 C 0.46747 0.96401 0.52366 0.0
C61 C 0.44783 0.94804 0.52173 0.0
C62 C 0.44152 0.95114 0.49972 0.0
C63 C 0.45777 0.96887 0.48945 0.0
N64 N 0.49204 0.00757 0.46757 0.0
C65 C 0.47396 0.99637 0.45631 0.0
C66 C 0.47365 0.00526 0.43412 0.0
C67 C 0.49222 0.02266 0.43118 0.0
C68 C 0.50278 0.02338 0.45161 0.0
N69 N 0.52948 0.02737 0.49422 0.0
C70 C 0.53617 0.04042 0.47467 0.0
C71 C 0.55594 0.05618 0.47636 0.0
C72 C 0.56223 0.05315 0.49842 0.0
C73 C 0.54581 0.0357 0.50899 0.0
N74 N 0.51128 0.98667 0.48236 0.0
C75 C 0.52363 0.96369 0.45757 0.0
C76 C 0.52821 0.9824 0.44802 0.0
C77 C 0.52189 0.99351 0.46056 0.0
C78 C 0.51299 0.9568 0.47988 0.0
C79 C 0.50711 0.96845 0.4919 0.0
N80 N 0.49219 0.01809 0.51634 0.0
C81 C 0.49187 0.04863 0.52004 0.0
C82 C 0.48029 0.04118 0.54169 0.0
C83 C 0.47444 0.02184 0.55019 0.0
C84 C 0.48056 0.01069 0.53739 0.0
C85 C 0.49749 0.03689 0.50769 0.0
H86 H 0.47589 0.99623 0.54511 0.0
H87 H 0.50626 0.04343 0.4913 0.0
H88 H 0.52559 0.00748 0.4521 0.0
H89 H 0.4991 0.96234 0.50883 0.0
C90 C 0.48028 0.96672 0.54309 0.0
C91 C 0.54634 0.02803 0.53338 0.0
C92 C 0.45712 0.97683 0.4653 0.0
C93 C 0.52317 0.03805 0.45559 0.0
H94 H 0.54159 0.00584 0.57823 0.0
H95 H 0.50545 0.97219 0.58369 0.0
H96 H 0.43924 0.93551 0.53464 0.0
H97 H 0.4267 0.94135 0.49196 0.0
H98 H 0.46144 0.99956 0.42112 0.0
H99 H 0.49757 0.03325 0.4157 0.0
H100 H 0.5646 0.06859 0.46332 0.0
H101 H 0.57713 0.06286 0.50604 0.0
H102 H 0.53626 0.9883 0.43065 0.0
H103 H 0.50933 0.94249 0.48816 0.0
H104 H 0.49652 0.06345 0.51257 0.0
H105 H 0.4656 0.01549 0.56701 0.0
C106 C 0.53343 0.5275 0.9602 0.0
C107 C 0.53689 0.5402 0.94005 0.0
C108 C 0.51943 0.5404 0.93689 0.0
C109 C 0.50641 0.528 0.95531 0.0
N110 N 0.51454 0.51999 0.9702 0.0
Co111 Co 0.50109 0.5016 0.99965 0.0
N112 N 0.47505 0.50118 0.99425 0.0
C113 C 0.47105 0.51031 0.97564 0.0
C114 C 0.4518 0.5072 0.97674 0.0
C115 C 0.44301 0.49555 0.99742 0.0
C116 C 0.45753 0.49233 0.00786 0.0
N117 N 0.48771 0.48347 0.02934 0.0
C118 C 0.46914 0.47669 0.03993 0.0
C119 C 0.46626 0.46527 0.06118 0.0
C120 C 0.4836 0.46482 0.06415 0.0
C121 C 0.49608 0.47604 0.04475 0.0
N122 N 0.52703 0.50178 0.00481 0.0
C123 C 0.53064 0.49182 0.02277 0.0
C124 C 0.54943 0.49396 0.02097 0.0
C125 C 0.55838 0.50588 0.00052 0.0
C126 C 0.54452 0.51051 0.99109 0.0
N127 N 0.51125 0.52532 0.02021 0.0
C128 C 0.52398 0.55817 0.05033 0.0
C129 C 0.52799 0.54315 0.05647 0.0
C130 C 0.52144 0.52692 0.04134 0.0
C131 C 0.51388 0.5567 0.02866 0.0
C132 C 0.50784 0.54038 0.01393 0.0
N133 N 0.49089 0.47786 0.97908 0.0
C134 C 0.48555 0.44509 0.97211 0.0
C135 C 0.47725 0.44456 0.94928 0.0
C136 C 0.47575 0.46097 0.94179 0.0
C137 C 0.48269 0.47732 0.95675 0.0
C138 C 0.4921 0.46166 0.98661 0.0
H139 H 0.4813 0.48936 0.94976 0.0
H140 H 0.49823 0.46106 0.00376 0.0
H141 H 0.5246 0.51576 0.04726 0.0
H142 H 0.50029 0.54024 0.99765 0.0
C143 C 0.48616 0.52282 0.95834 0.0
C144 C 0.5484 0.5227 0.96868 0.0
C145 C 0.45417 0.48138 0.03112 0.0
C146 C 0.51591 0.48027 0.04086 0.0
H147 H 0.55055 0.54831 0.92862 0.0
H148 H 0.51646 0.54837 0.92264 0.0
H149 H 0.44514 0.51312 0.9643 0.0
H150 H 0.42775 0.49031 0.00432 0.0
H151 H 0.45314 0.45826 0.07353 0.0
H152 H 0.48688 0.45752 0.07896 0.0
H153 H 0.55574 0.48736 0.03288 0.0
H154 H 0.57333 0.51037 0.99326 0.0
H155 H 0.5357 0.54364 0.07319 0.0
H156 H 0.51071 0.56816 0.02299 0.0
H157 H 0.48736 0.43293 0.97871 0.0
H158 H 0.46912 0.46124 0.92449 0.0
C159 C 0.9636 0.45737 0.51068 0.0
C160 C 0.9444 0.44342 0.50217 0.0
C161 C 0.94118 0.45226 0.48232 0.0
C162 C 0.95853 0.47099 0.4798 0.0
N163 N 0.9728 0.47459 0.49662 0.0
Co164 Co -4e-05 0.50012 0.50008 0.0
N165 N 0.99514 0.51313 0.47088 0.0
C166 C 0.97866 0.5047 0.45639 0.0
C167 C 0.97969 0.51719 0.43761 0.0
C168 C 0.99807 0.53459 0.43999 0.0
C169 C 0.00728 0.53164 0.46011 0.0
N170 N 0.02678 0.52593 0.50413 0.0
C171 C 0.03585 0.54334 0.49039 0.0
C172 C 0.05472 0.55747 0.49954 0.0
C173 C 0.05757 0.54879 0.51984 0.0
C174 C 0.04045 0.52989 0.5219 0.0
N175 N 0.00514 0.4868 0.52868 0.0
C176 C 0.02214 0.49483 0.54229 0.0
C177 C 0.02129 0.48219 0.56076 0.0
C178 C 0.0026 0.46504 0.55894 0.0
C179 C 0.9931 0.46821 0.53931 0.0
N180 N 0.01324 0.49039 0.47825 0.0
C181 C 0.03302 0.47826 0.44626 0.0
C182 C 0.04268 0.48875 0.46703 0.0
C183 C 0.03258 0.49452 0.48269 0.0
C184 C 0.0131 0.47352 0.44202 0.0
C185 C 0.00359 0.47976 0.45808 0.0
N186 N 0.98671 0.50991 0.52192 0.0
C187 C 0.98436 0.52233 0.5608 0.0
C188 C 0.96791 0.52371 0.55292 0.0
C189 C 0.96098 0.5181 0.52934 0.0
C190 C 0.97036 0.51107 0.51436 0.0
C191 C 0.99361 0.51566 0.54504 0.0
H192 H 0.96403 0.50658 0.4968 0.0
H193 H 0.00631 0.5153 0.55203 0.0
H194 H 0.04082 0.50244 0.49817 0.0
H195 H 0.98855 0.476 0.45361 0.0
C196 C 0.96207 0.48531 0.46148 0.0
C197 C 0.97225 0.45358 0.53232 0.0
C198 C 0.02761 0.54684 0.4681 0.0
C199 C 0.03776 0.51492 0.53878 0.0
H200 H 0.93379 0.42841 0.50961 0.0
H201 H 0.92779 0.44581 0.47106 0.0
H202 H 0.96837 0.51407 0.42392 0.0
H203 H 0.004 0.54794 0.42821 0.0
H204 H 0.0656 0.57237 0.49207 0.0
H205 H 0.07087 0.55524 0.53125 0.0
H206 H 0.03262 0.48533 0.57445 0.0
H207 H 0.9965 0.45191 0.57112 0.0
H208 H 0.05801 0.49246 0.47126 0.0
H209 H 0.00505 0.46547 0.42607 0.0
H210 H 0.99025 0.52665 0.57896 0.0
H211 H 0.94809 0.51877 0.52265 0.0
C212 C 0.47211 0.99604 0.04282 0.0
C213 C 0.47202 0.0065 0.06271 0.0
C214 C 0.4904 0.02421 0.06226 0.0
C215 C 0.50059 0.02363 0.04216 0.0
N216 N 0.48978 0.00668 0.02954 0.0
Co217 Co 0.49886 0.9997 0.99913 0.0
N218 N 0.52603 0.02574 0.99868 0.0
C219 C 0.53244 0.04064 0.01464 0.0
C220 C 0.55139 0.05708 0.0091 0.0
C221 C 0.55751 0.05251 0.98831 0.0
C222 C 0.54192 0.03334 0.98245 0.0
N223 N 0.50804 0.9926 0.96892 0.0
C224 C 0.52588 0.00304 0.95593 0.0
C225 C 0.52624 0.99226 0.93654 0.0
C226 C 0.50786 0.97456 0.93701 0.0
C227 C 0.49743 0.97543 0.95667 0.0
N228 N 0.47158 0.97379 0.99938 0.0
C229 C 0.46494 0.95915 0.98303 0.0
C230 C 0.44578 0.94291 0.98822 0.0
C231 C 0.43975 0.94736 0.00918 0.0
C232 C 0.45562 0.96624 0.01551 0.0
N233 N 0.48745 0.01279 0.97874 0.0
C234 C 0.47132 0.0315 0.94987 0.0
C235 C 0.46821 0.01289 0.94392 0.0
C236 C 0.47635 0.0039 0.95846 0.0
C237 C 0.48268 0.04056 0.9705 0.0
C238 C 0.49047 0.03103 0.98455 0.0
N239 N 0.51021 0.9866 0.01958 0.0
C240 C 0.51208 0.95745 0.0305 0.0
C241 C 0.52428 0.96707 0.05035 0.0
C242 C 0.52983 0.98683 0.05416 0.0
C243 C 0.52263 0.99621 0.03873 0.0
C244 C 0.5054 0.96744 0.01538 0.0
H245 H 0.52707 0.01113 0.04289 0.0
H246 H 0.49619 0.95927 0.00058 0.0
H247 H 0.47345 0.98975 0.95293 0.0
H248 H 0.49897 0.03879 0.99995 0.0
C249 C 0.52018 0.03887 0.03449 0.0
C250 C 0.45507 0.97603 0.03743 0.0
C251 C 0.5428 0.02318 0.96106 0.0
C252 C 0.47752 0.96056 0.96376 0.0
H253 H 0.45991 0.00182 0.07619 0.0
H254 H 0.49569 0.03611 0.07506 0.0
H255 H 0.55966 0.07086 0.01885 0.0
H256 H 0.57177 0.06234 0.97849 0.0
H257 H 0.53849 0.99674 0.92334 0.0
H258 H 0.50267 0.96251 0.92444 0.0
H259 H 0.43739 0.92926 0.97827 0.0
H260 H 0.42541 0.93759 0.01887 0.0
H261 H 0.45934 0.00515 0.92824 0.0
H262 H 0.48586 0.05515 0.97567 0.0
H263 H 0.50769 0.94222 0.02661 0.0
H264 H 0.5392 0.99485 0.06941 0.0
C265 C 0.51072 0.54437 0.48985 0.0
C266 C 0.5074 0.55872 0.49915 0.0
C267 C 0.49503 0.55002 0.5193 0.0
C268 C 0.49159 0.53099 0.52121 0.0
N269 N 0.50119 0.52703 0.50365 0.0
Co270 Co 0.50032 0.50121 0.49953 0.0
N271 N 0.48148 0.48818 0.52869 0.0
C272 C 0.47396 0.49656 0.54315 0.0
C273 C 0.46204 0.48422 0.56229 0.0
C274 C 0.46208 0.46695 0.56013 0.0
C275 C 0.474 0.46974 0.53961 0.0
N276 N 0.49937 0.47536 0.49532 0.0
C277 C 0.48997 0.45808 0.50923 0.0
C278 C 0.49305 0.44364 0.49976 0.0
C279 C 0.50519 0.45222 0.47941 0.0
C280 C 0.50871 0.47128 0.47755 0.0
N281 N 0.51926 0.51427 0.47045 0.0
C282 C 0.52685 0.5059 0.45605 0.0
C283 C 0.53902 0.51834 0.43712 0.0
C284 C 0.53914 0.53568 0.4394 0.0
C285 C 0.52704 0.53283 0.45978 0.0
N286 N 0.52421 0.5106 0.52098 0.0
C287 C 0.55724 0.52217 0.55235 0.0
C288 C 0.55606 0.51298 0.53056 0.0
C289 C 0.53964 0.50751 0.51519 0.0
C290 C 0.54187 0.52588 0.55799 0.0
C291 C 0.52555 0.5199 0.54225 0.0
N292 N 0.47641 0.49178 0.47807 0.0
C293 C 0.4589 0.4764 0.44105 0.0
C294 C 0.4427 0.47878 0.44722 0.0
C295 C 0.44366 0.48772 0.46922 0.0
C296 C 0.46045 0.49398 0.48425 0.0
C297 C 0.47545 0.48303 0.45651 0.0
H298 H 0.46023 0.50067 0.50071 0.0
H299 H 0.48729 0.4809 0.45053 0.0
H300 H 0.53971 0.50065 0.49883 0.0
H301 H 0.5141 0.52275 0.54784 0.0
C302 C 0.47913 0.51639 0.53898 0.0
C303 C 0.52266 0.54784 0.46758 0.0
C304 C 0.47857 0.45485 0.53189 0.0
C305 C 0.52141 0.48596 0.45997 0.0
H306 H 0.51319 0.57386 0.49198 0.0
H307 H 0.48907 0.5567 0.53101 0.0
H308 H 0.45462 0.48756 0.57648 0.0
H309 H 0.45453 0.45396 0.57258 0.0
H310 H 0.48736 0.42854 0.50703 0.0
H311 H 0.51106 0.44549 0.46764 0.0
H312 H 0.5465 0.51502 0.42299 0.0
H313 H 0.54693 0.54876 0.42711 0.0
H314 H 0.56781 0.51007 0.5253 0.0
H315 H 0.54215 0.53288 0.5748 0.0
H316 H 0.4588 0.46928 0.42443 0.0
H317 H 0.43167 0.4902 0.47473 0.0
C318 C 0.28224 0.45047 0.19785 0.0
C319 C 0.27924 0.43855 0.17779 0.0
C320 C 0.26564 0.44731 0.21197 0.0
C321 C 0.24568 0.43188 0.20669 0.0
C322 C 0.2592 0.42327 0.17234 0.0
C323 C 0.24258 0.42005 0.18659 0.0
C324 C 0.22798 0.42896 0.22107 0.0
C325 C 0.2663 0.41663 0.272 0.0
C326 C 0.27317 0.42885 0.2923 0.0
C327 C 0.25104 0.41586 0.25734 0.0
C328 C 0.24284 0.42776 0.26236 0.0
C329 C 0.26447 0.44019 0.29773 0.0
C330 C 0.24949 0.43966 0.28292 0.0
C331 C 0.22709 0.42785 0.24687 0.0
C332 C 0.14637 0.4213 0.26972 0.0
C333 C 0.15324 0.43479 0.28882 0.0
C334 C 0.16024 0.41892 0.25596 0.0
C335 C 0.18124 0.4302 0.26087 0.0
C336 C 0.17414 0.44539 0.29423 0.0
C337 C 0.18794 0.44312 0.28044 0.0
C338 C 0.19656 0.42879 0.24616 0.0
C339 C 0.16814 0.45266 0.19486 0.0
C340 C 0.15799 0.4403 0.17526 0.0
C341 C 0.18087 0.44921 0.20956 0.0
C342 C 0.18342 0.43307 0.2053 0.0
C343 C 0.16082 0.42432 0.17082 0.0
C344 C 0.17351 0.42081 0.18563 0.0
C345 C 0.19734 0.4297 0.22039 0.0
H346 H 0.29746 0.46225 0.20271 0.0
H347 H 0.2684 0.45706 0.22692 0.0
H348 H 0.2563 0.41405 0.15678 0.0
H349 H 0.22727 0.40832 0.18191 0.0
H350 H 0.2726 0.40754 0.26762 0.0
H351 H 0.2457 0.40601 0.24212 0.0
H352 H 0.2696 0.44987 0.31314 0.0
H353 H 0.24335 0.44888 0.28732 0.0
H354 H 0.13036 0.41286 0.26512 0.0
H355 H 0.15458 0.4084 0.24142 0.0
H356 H 0.1799 0.45549 0.30922 0.0
H357 H 0.204 0.45179 0.28484 0.0
H358 H 0.1662 0.465 0.19895 0.0
H359 H 0.18884 0.45926 0.22417 0.0
H360 H 0.15352 0.41472 0.15563 0.0
H361 H 0.17556 0.4085 0.18176 0.0
N362 N 0.21294 0.4296 0.20886 0.0
N363 N 0.21147 0.42792 0.25828 0.0
C364 C 0.84416 0.26703 0.78588 0.0
C365 C 0.8372 0.27532 0.80289 0.0
C366 C 0.83035 0.25167 0.77103 0.0
C367 C 0.80935 0.24428 0.77302 0.0
C368 C 0.8161 0.26781 0.80464 0.0
C369 C 0.80235 0.25233 0.79009 0.0
C370 C 0.79432 0.22798 0.7578 0.0
C371 C 0.82972 0.28259 0.70784 0.0
C372 C 0.83941 0.28013 0.6877 0.0
C373 C 0.81557 0.26603 0.72238 0.0
C374 C 0.81116 0.24665 0.71755 0.0
C375 C 0.83484 0.26068 0.68277 0.0
C376 C 0.8208 0.24411 0.69751 0.0
C377 C 0.79535 0.22887 0.73206 0.0
C378 C 0.71073 0.16537 0.70592 0.0
C379 C 0.71449 0.1568 0.68605 0.0
C380 C 0.72666 0.17841 0.72078 0.0
C381 C 0.74664 0.18292 0.71633 0.0
C382 C 0.73457 0.16151 0.68147 0.0
C383 C 0.75051 0.17455 0.69639 0.0
C384 C 0.7637 0.1973 0.73147 0.0
C385 C 0.7214 0.14382 0.78061 0.0
C386 C 0.71462 0.14837 0.80176 0.0
C387 C 0.7373 0.15921 0.76617 0.0
C388 C 0.74609 0.17944 0.77218 0.0
C389 C 0.7238 0.16844 0.80819 0.0
C390 C 0.7393 0.18382 0.7935 0.0
C391 C 0.76291 0.19623 0.75728 0.0
H392 H 0.86023 0.2722 0.78424 0.0
H393 H 0.83603 0.24544 0.75818 0.0
H394 H 0.81013 0.27406 0.81704 0.0
H395 H 0.7862 0.24688 0.79184 0.0
H396 H 0.83297 0.29733 0.71235 0.0
H397 H 0.8078 0.26838 0.73712 0.0
H398 H 0.84172 0.25816 0.66718 0.0
H399 H 0.81735 0.22926 0.69315 0.0
H400 H 0.69543 0.16196 0.71006 0.0
H401 H 0.72337 0.18512 0.73564 0.0
H402 H 0.73805 0.15543 0.66608 0.0
H403 H 0.76588 0.1781 0.69239 0.0
H404 H 0.71465 0.12836 0.77553 0.0
H405 H 0.74277 0.15524 0.75048 0.0
H406 H 0.71874 0.17225 0.82443 0.0
H407 H 0.74588 0.19922 0.79875 0.0
N408 N 0.7782 0.21173 0.76932 0.0
N409 N 0.78001 0.21344 0.71991 0.0
C410 C 0.58646 0.73142 0.21984 0.0
C411 C 0.57178 0.72387 0.20143 0.0
C412 C 0.58924 0.74729 0.2338 0.0
C413 C 0.57709 0.75562 0.22997 0.0
C414 C 0.56042 0.73296 0.19692 0.0
C415 C 0.56302 0.74859 0.21103 0.0
C416 C 0.5787 0.77166 0.24526 0.0
C417 C 0.5596 0.71828 0.29609 0.0
C418 C 0.57326 0.72172 0.31498 0.0
C419 C 0.56159 0.73432 0.2818 0.0
C420 C 0.57761 0.75408 0.28568 0.0
C421 C 0.589 0.74154 0.31925 0.0
C422 C 0.59112 0.75758 0.30473 0.0
C423 C 0.57947 0.7712 0.27104 0.0
C424 C 0.5558 0.82885 0.29893 0.0
C425 C 0.57009 0.84016 0.31668 0.0
C426 C 0.55882 0.81643 0.28418 0.0
C427 C 0.57625 0.81513 0.28678 0.0
C428 C 0.58751 0.83879 0.31932 0.0
C429 C 0.59044 0.82621 0.30464 0.0
C430 C 0.57903 0.80144 0.27168 0.0
C431 C 0.58618 0.85188 0.22272 0.0
C432 C 0.57152 0.84559 0.20435 0.0
C433 C 0.58877 0.83786 0.23607 0.0
C434 C 0.57655 0.81728 0.23152 0.0
C435 C 0.5599 0.82507 0.19927 0.0
C436 C 0.56242 0.8111 0.21267 0.0
C437 C 0.57832 0.80194 0.24596 0.0
H438 H 0.59552 0.72482 0.22381 0.0
H439 H 0.60069 0.75285 0.24776 0.0
H440 H 0.54942 0.728 0.18246 0.0
H441 H 0.55367 0.75494 0.20739 0.0
H442 H 0.54705 0.70321 0.29275 0.0
H443 H 0.55045 0.73128 0.26787 0.0
H444 H 0.59973 0.74461 0.33371 0.0
H445 H 0.60338 0.77274 0.30831 0.0
H446 H 0.5423 0.82968 0.29638 0.0
H447 H 0.54744 0.80768 0.27085 0.0
H448 H 0.59865 0.84716 0.33304 0.0
H449 H 0.60384 0.82519 0.30714 0.0
H450 H 0.59538 0.86757 0.22709 0.0
H451 H 0.60024 0.84311 0.25 0.0
H452 H 0.54883 0.81977 0.18486 0.0
H453 H 0.55299 0.79536 0.20857 0.0
N454 N 0.5781 0.787 0.23384 0.0
N455 N 0.57978 0.7862 0.28321 0.0
C456 C 0.85404 0.58375 0.72478 0.0
C457 C 0.84731 0.56788 0.70873 0.0
C458 C 0.84006 0.58493 0.73988 0.0
C459 C 0.81912 0.57033 0.73907 0.0
C460 C 0.82629 0.5532 0.7083 0.0
C461 C 0.81237 0.55457 0.72307 0.0
C462 C 0.80392 0.57149 0.75419 0.0
C463 C 0.83735 0.55353 0.80541 0.0
C464 C 0.84714 0.5664 0.8247 0.0
C465 C 0.82392 0.55584 0.79064 0.0
C466 C 0.82034 0.5714 0.79436 0.0
C467 C 0.84352 0.58197 0.82846 0.0
C468 C 0.83016 0.58437 0.81349 0.0
C469 C 0.80499 0.57296 0.7798 0.0
C470 C 0.72102 0.5509 0.80873 0.0
C471 C 0.72415 0.56627 0.82409 0.0
C472 C 0.73711 0.55286 0.79461 0.0
C473 C 0.75667 0.57022 0.79554 0.0
C474 C 0.74392 0.58352 0.82526 0.0
C475 C 0.76007 0.58537 0.81126 0.0
C476 C 0.7736 0.57227 0.78044 0.0
C477 C 0.73015 0.5774 0.73021 0.0
C478 C 0.72201 0.56296 0.71216 0.0
C479 C 0.74666 0.58017 0.74404 0.0
C480 C 0.7551 0.56828 0.74042 0.0
C481 C 0.73095 0.55156 0.70814 0.0
C482 C 0.74725 0.55418 0.7221 0.0
C483 C 0.77248 0.57064 0.75484 0.0
H484 H 0.87003 0.59549 0.72539 0.0
H485 H 0.84554 0.59739 0.75187 0.0
H486 H 0.82053 0.54049 0.69669 0.0
H487 H 0.79627 0.5431 0.72225 0.0
H488 H 0.8399 0.54149 0.80182 0.0
H489 H 0.81597 0.54509 0.77667 0.0
H490 H 0.85056 0.59196 0.84337 0.0
H491 H 0.82735 0.59624 0.81701 0.0
H492 H 0.70618 0.53719 0.8078 0.0
H493 H 0.73429 0.54077 0.783 0.0
H494 H 0.74688 0.59573 0.83671 0.0
H495 H 0.77513 0.59882 0.81232 0.0
H496 H 0.72366 0.58644 0.73382 0.0
H497 H 0.75284 0.59165 0.75745 0.0
H498 H 0.7255 0.5407 0.69398 0.0
H499 H 0.75364 0.54501 0.71867 0.0
N500 N 0.78769 0.57028 0.74279 0.0
N501 N 0.78985 0.57347 0.79194 0.0
C502 C 0.17499 0.72244 0.2222 0.0
C503 C 0.16442 0.72529 0.20319 0.0
C504 C 0.1879 0.73829 0.23689 0.0
C505 C 0.19039 0.75728 0.23301 0.0
C506 C 0.16691 0.74431 0.19933 0.0
C507 C 0.17995 0.76022 0.21398 0.0
C508 C 0.20495 0.77433 0.24768 0.0
C509 C 0.1533 0.73051 0.29772 0.0
C510 C 0.15905 0.72376 0.31841 0.0
C511 C 0.16808 0.74682 0.28326 0.0
C512 C 0.18895 0.75616 0.28873 0.0
C513 C 0.17975 0.73353 0.32443 0.0
C514 C 0.19455 0.74951 0.30968 0.0
C515 C 0.20508 0.77326 0.27348 0.0
C516 C 0.27889 0.85426 0.29746 0.0
C517 C 0.28758 0.84751 0.3149 0.0
C518 C 0.26226 0.8405 0.28387 0.0
C519 C 0.25411 0.81975 0.28737 0.0
C520 C 0.27903 0.82672 0.31873 0.0
C521 C 0.26244 0.81301 0.30518 0.0
C522 C 0.23679 0.8048 0.27296 0.0
C523 C 0.28887 0.83938 0.21855 0.0
C524 C 0.28578 0.85172 0.20216 0.0
C525 C 0.27286 0.8248 0.23349 0.0
C526 C 0.25341 0.82218 0.23232 0.0
C527 C 0.26621 0.84906 0.20117 0.0
C528 C 0.25013 0.83427 0.21594 0.0
C529 C 0.23627 0.80615 0.24728 0.0
H530 H 0.17329 0.70794 0.2257 0.0
H531 H 0.19618 0.73579 0.25109 0.0
H532 H 0.15915 0.74701 0.18463 0.0
H533 H 0.1819 0.77484 0.21046 0.0
H534 H 0.13735 0.72334 0.29297 0.0
H535 H 0.16313 0.75214 0.26791 0.0
H536 H 0.18451 0.72854 0.3403 0.0
H537 H 0.21047 0.75652 0.31454 0.0
H538 H 0.28513 0.87018 0.29409 0.0
H539 H 0.25577 0.84607 0.27068 0.0
H540 H 0.28509 0.82101 0.33235 0.0
H541 H 0.2563 0.79709 0.3084 0.0
H542 H 0.30354 0.84061 0.21946 0.0
H543 H 0.27558 0.8153 0.24566 0.0
H544 H 0.26328 0.85843 0.18905 0.0
H545 H 0.23516 0.83237 0.21471 0.0
N546 N 0.2204 0.79087 0.23562 0.0
N547 N 0.22114 0.78846 0.28501 0.0
C548 C 0.41142 0.14962 0.78007 0.0
C549 C 0.42372 0.15495 0.80074 0.0
C550 C 0.41088 0.16437 0.76556 0.0
C551 C 0.42306 0.18475 0.77114 0.0
C552 C 0.43547 0.17526 0.80662 0.0
C553 C 0.43513 0.18998 0.79199 0.0
C554 C 0.42305 0.20081 0.75603 0.0
C555 C 0.44728 0.17345 0.706 0.0
C556 C 0.43428 0.16324 0.68671 0.0
C557 C 0.44379 0.18577 0.72035 0.0
C558 C 0.42717 0.18807 0.71576 0.0
C559 C 0.41765 0.16557 0.68214 0.0
C560 C 0.41425 0.17805 0.69641 0.0
C561 C 0.424 0.20182 0.73026 0.0
C562 C 0.44601 0.2857 0.7051 0.0
C563 C 0.43353 0.28269 0.68496 0.0
C564 C 0.44292 0.26942 0.71985 0.0
C565 C 0.42702 0.24981 0.71511 0.0
C566 C 0.41775 0.263 0.6801 0.0
C567 C 0.4146 0.24672 0.69498 0.0
C568 C 0.42416 0.2324 0.73003 0.0
C569 C 0.41359 0.27093 0.77947 0.0
C570 C 0.42636 0.27749 0.79974 0.0
C571 C 0.41213 0.25568 0.76534 0.0
C572 C 0.4239 0.24717 0.77085 0.0
C573 C 0.43753 0.26846 0.80571 0.0
C574 C 0.43632 0.25349 0.79141 0.0
C575 C 0.42333 0.23147 0.75584 0.0
H576 H 0.402 0.13402 0.77534 0.0
H577 H 0.40085 0.15979 0.75012 0.0
H578 H 0.44523 0.17982 0.82233 0.0
H579 H 0.44457 0.20556 0.7968 0.0
H580 H 0.46015 0.17186 0.71004 0.0
H581 H 0.45422 0.19371 0.73486 0.0
H582 H 0.40753 0.15807 0.66722 0.0
H583 H 0.40151 0.17985 0.69239 0.0
H584 H 0.4582 0.30066 0.70949 0.0
H585 H 0.45311 0.27215 0.73484 0.0
H586 H 0.40809 0.26011 0.6645 0.0
H587 H 0.40247 0.23168 0.69073 0.0
H588 H 0.40459 0.27746 0.77469 0.0
H589 H 0.40184 0.25061 0.75014 0.0
H590 H 0.4476 0.27332 0.82113 0.0
H591 H 0.44545 0.2471 0.79621 0.0
N592 N 0.42285 0.21572 0.76771 0.0
N593 N 0.42432 0.21747 0.71828 0.0
C594 C 0.06101 0.49439 0.05263 0.0
C595 C 0.04279 0.47894 0.04306 0.0
C596 C 0.07343 0.48986 0.06641 0.0
C597 C 0.08397 0.44952 0.08008 0.0
H598 H 0.1094 0.48027 0.1373 0.0
C599 C 0.12615 0.42837 0.15093 0.0
C600 C 0.14475 0.44429 0.15939 0.0
C601 C 0.11359 0.43223 0.13636 0.0
C602 C 0.10256 0.47167 0.12125 0.0
H603 H 0.02322 0.44681 0.03977 0.0
H604 H 0.04471 0.43871 0.06434 0.0
H605 H 0.08769 0.48764 0.11258 0.0
H606 H 0.16498 0.47674 0.15849 0.0
H607 H 0.143 0.48344 0.13335 0.0
H608 H 0.09877 0.43343 0.089 0.0
C609 C 0.04961 0.45434 0.06101 0.0
C610 C 0.09014 0.47592 0.10704 0.0
C611 C 0.03724 0.45891 0.04712 0.0
C612 C 0.15057 0.46413 0.15273 0.0
C613 C 0.13799 0.46798 0.13828 0.0
C614 C 0.09634 0.4452 0.09438 0.0
C615 C 0.06781 0.46977 0.07094 0.0
C616 C 0.08079 0.46498 0.08619 0.0
C617 C 0.11933 0.45209 0.13002 0.0
C618 C 0.10585 0.45632 0.11504 0.0
H619 H 0.06556 0.50996 0.04951 0.0
H620 H 0.08751 0.50213 0.07339 0.0
H621 H 0.07722 0.44097 0.06398 0.0
H622 H 0.12108 0.41292 0.15597 0.0
H623 H 0.09919 0.41968 0.13048 0.0
C624 C 0.56581 0.0581 0.5587 0.0
C625 C 0.5637 0.04069 0.54934 0.0
C626 C 0.58242 0.07043 0.57318 0.0
C627 C 0.6217 0.07068 0.61191 0.0
H628 H 0.64929 0.12851 0.60161 0.0
C629 C 0.69608 0.1259 0.66124 0.0
C630 C 0.69758 0.14331 0.66991 0.0
C631 C 0.68009 0.11323 0.64613 0.0
C632 C 0.64163 0.1124 0.6049 0.0
H633 H 0.57698 0.02235 0.54736 0.0
H634 H 0.60619 0.04394 0.57278 0.0
H635 H 0.62065 0.10659 0.57616 0.0
H636 H 0.6836 0.1612 0.66915 0.0
H637 H 0.65553 0.13893 0.6433 0.0
H638 H 0.64261 0.07651 0.64077 0.0
C639 C 0.59495 0.04798 0.5692 0.0
C640 C 0.62521 0.09984 0.5903 0.0
C641 C 0.57834 0.03568 0.55464 0.0
C642 C 0.68277 0.14779 0.66304 0.0
C643 C 0.66681 0.13514 0.64796 0.0
C644 C 0.63812 0.08326 0.62655 0.0
C645 C 0.59722 0.06555 0.57854 0.0
C646 C 0.61498 0.07884 0.59373 0.0
C647 C 0.66527 0.11771 0.63931 0.0
C648 C 0.6482 0.10427 0.62331 0.0
H649 H 0.55461 0.06215 0.55474 0.0
H650 H 0.58358 0.0837 0.58035 0.0
H651 H 0.61399 0.05456 0.61518 0.0
H652 H 0.70714 0.12193 0.66635 0.0
H653 H 0.67946 0.10002 0.6396 0.0
C654 C 0.54946 0.58571 0.07649 0.0
C655 C 0.52986 0.57508 0.06655 0.0
C656 C 0.55504 0.602 0.09123 0.0
C657 C 0.53959 0.63818 0.10646 0.0
H658 H 0.5738 0.64799 0.1626 0.0
C659 C 0.54802 0.69208 0.18022 0.0
C660 C 0.56801 0.70646 0.18708 0.0
C661 C 0.54437 0.67626 0.16574 0.0
C662 C 0.56438 0.6455 0.14684 0.0
H663 H 0.50051 0.57262 0.06494 0.0
H664 H 0.50995 0.60059 0.09107 0.0
H665 H 0.56531 0.61977 0.13696 0.0
H666 H 0.59978 0.71504 0.18447 0.0
H667 H 0.59322 0.68696 0.15957 0.0
H668 H 0.53824 0.66357 0.11675 0.0
C669 C 0.52132 0.59688 0.08692 0.0
C670 C 0.55955 0.62938 0.1321 0.0
C671 C 0.51584 0.58078 0.07201 0.0
C672 C 0.58418 0.70418 0.17972 0.0
C673 C 0.58046 0.68815 0.1654 0.0
C674 C 0.54422 0.65409 0.12132 0.0
C675 C 0.54106 0.60787 0.09653 0.0
C676 C 0.54692 0.6254 0.11183 0.0
C677 C 0.56055 0.67423 0.15798 0.0
C678 C 0.5565 0.65781 0.14177 0.0
H679 H 0.56061 0.5817 0.07243 0.0
H680 H 0.57043 0.61023 0.09806 0.0
H681 H 0.53028 0.63594 0.09068 0.0
H682 H 0.5351 0.69299 0.18608 0.0
H683 H 0.52881 0.66552 0.16066 0.0
C684 C 0.95526 0.54648 0.5617 0.0
C685 C 0.95787 0.5307 0.56928 0.0
C686 C 0.94548 0.55289 0.57704 0.0
C687 C 0.92715 0.54827 0.64157 0.0
H688 H 0.89292 0.56546 0.6118 0.0
C689 C 0.88167 0.57223 0.70012 0.0
C690 C 0.86196 0.56651 0.69237 0.0
C691 C 0.89501 0.57014 0.68497 0.0
C692 C 0.90222 0.5605 0.6205 0.0
H693 H 0.9523 0.50911 0.59858 0.0
H694 H 0.93434 0.51952 0.62498 0.0
H695 H 0.91236 0.55661 0.58612 0.0
H696 H 0.84126 0.55481 0.66203 0.0
H697 H 0.86382 0.55002 0.63645 0.0
H698 H 0.91589 0.55084 0.67597 0.0
C699 C 0.94044 0.52756 0.60763 0.0
C700 C 0.91373 0.55575 0.60569 0.0
C701 C 0.95059 0.52144 0.59246 0.0
C702 C 0.85612 0.55898 0.66892 0.0
C703 C 0.86929 0.55658 0.65397 0.0
C704 C 0.91534 0.55266 0.6564 0.0
C705 C 0.9377 0.54336 0.60013 0.0
C706 C 0.92624 0.54939 0.61599 0.0
C707 C 0.8889 0.56204 0.66179 0.0
C708 C 0.90253 0.55864 0.64607 0.0
H709 H 0.96096 0.55398 0.54396 0.0
H710 H 0.94411 0.56537 0.57078 0.0
H711 H 0.93689 0.54384 0.65026 0.0
H712 H 0.88669 0.57795 0.71811 0.0
H713 H 0.91009 0.57482 0.69152 0.0
C714 C 0.41798 0.96097 0.04805 0.0
C715 C 0.43743 0.96527 0.05482 0.0
C716 C 0.40125 0.95013 0.06411 0.0
C717 C 0.3868 0.93655 0.12857 0.0
H718 H 0.33868 0.88918 0.10486 0.0
C719 C 0.32304 0.8773 0.19371 0.0
C720 C 0.30276 0.86684 0.18572 0.0
C721 C 0.33912 0.89056 0.17785 0.0
C722 C 0.35179 0.90256 0.11174 0.0
H723 H 0.45496 0.96228 0.0836 0.0
H724 H 0.42572 0.94365 0.11206 0.0
H725 H 0.36734 0.91039 0.07699 0.0
H726 H 0.28357 0.86258 0.15467 0.0
H727 H 0.3114 0.88641 0.12748 0.0
H728 H 0.37126 0.92903 0.16321 0.0
C729 C 0.42339 0.94853 0.09431 0.0
C730 C 0.36825 0.91465 0.09574 0.0
C731 C 0.44005 0.95909 0.0781 0.0
C732 C 0.29893 0.87048 0.16162 0.0
C733 C 0.31498 0.88394 0.14585 0.0
C734 C 0.37022 0.92463 0.14452 0.0
C735 C 0.4038 0.94376 0.08736 0.0
C736 C 0.38598 0.93162 0.10407 0.0
C737 C 0.33533 0.89395 0.15363 0.0
C738 C 0.35258 0.90733 0.13639 0.0
H739 H 0.41574 0.96577 0.0302 0.0
H740 H 0.38633 0.94676 0.0584 0.0
H741 H 0.40024 0.9497 0.13537 0.0
H742 H 0.32659 0.87519 0.21224 0.0
H743 H 0.35456 0.89778 0.18449 0.0
C744 C 0.4883 0.43542 0.55953 0.0
C745 C 0.47295 0.43697 0.54791 0.0
C746 C 0.4833 0.41831 0.57388 0.0
C747 C 0.44126 0.37577 0.60894 0.0
H748 H 0.4741 0.35194 0.60174 0.0
C749 C 0.42097 0.3011 0.65923 0.0
C750 C 0.43732 0.29999 0.66877 0.0
C751 C 0.42464 0.31736 0.64393 0.0
C752 C 0.46491 0.35853 0.6042 0.0
H753 H 0.44047 0.42218 0.54186 0.0
H754 H 0.43154 0.39215 0.5673 0.0
H755 H 0.48179 0.38132 0.57636 0.0
H756 H 0.47039 0.31502 0.66935 0.0
H757 H 0.47678 0.34359 0.64336 0.0
H758 H 0.42458 0.35318 0.63707 0.0
C759 C 0.44743 0.40418 0.56545 0.0
C760 C 0.46931 0.37534 0.58961 0.0
C761 C 0.45248 0.42126 0.55091 0.0
C762 C 0.45742 0.31551 0.66261 0.0
C763 C 0.46109 0.33178 0.6474 0.0
C764 C 0.43693 0.359 0.62366 0.0
C765 C 0.46281 0.40248 0.57694 0.0
C766 C 0.45764 0.38423 0.59194 0.0
C767 C 0.44476 0.3329 0.63781 0.0
C768 C 0.44882 0.35027 0.62159 0.0
H769 H 0.50419 0.44742 0.55735 0.0
H770 H 0.49545 0.41753 0.58274 0.0
H771 H 0.43212 0.38243 0.61128 0.0
H772 H 0.4053 0.28949 0.66379 0.0
H773 H 0.41171 0.31765 0.63668 0.0
C774 C 0.51569 0.93057 0.44225 0.0
C775 C 0.52957 0.9513 0.44417 0.0
C776 C 0.5211 0.9189 0.42936 0.0
C777 C 0.55781 0.92277 0.38243 0.0
H778 H 0.53875 0.86823 0.40557 0.0
C779 C 0.58247 0.87282 0.33694 0.0
C780 C 0.5666 0.85309 0.33256 0.0
C781 C 0.57891 0.88512 0.35136 0.0
C782 C 0.54409 0.8834 0.39882 0.0
H783 H 0.56014 0.976 0.43446 0.0
H784 H 0.56973 0.95559 0.41225 0.0
H785 H 0.53095 0.88919 0.42937 0.0
H786 H 0.53472 0.83061 0.34032 0.0
H787 H 0.5285 0.85205 0.36546 0.0
H788 H 0.57105 0.91692 0.35192 0.0
C789 C 0.5545 0.9484 0.42027 0.0
C790 C 0.53957 0.89541 0.41241 0.0
C791 C 0.54903 0.9601 0.43304 0.0
C792 C 0.54719 0.84581 0.34319 0.0
C793 C 0.54369 0.85802 0.35776 0.0
C794 C 0.56246 0.9108 0.36893 0.0
C795 C 0.54058 0.92765 0.41821 0.0
C796 C 0.54618 0.91518 0.40426 0.0
C797 C 0.55947 0.87785 0.3619 0.0
C798 C 0.55546 0.89092 0.37685 0.0
H799 H 0.50047 0.92341 0.45031 0.0
H800 H 0.50983 0.90306 0.42777 0.0
H801 H 0.56291 0.93781 0.3754 0.0
H802 H 0.59754 0.87886 0.32886 0.0
H803 H 0.59139 0.90029 0.35437 0.0
C804 C 0.58649 0.54332 0.96236 0.0
C805 C 0.56712 0.52929 0.95367 0.0
C806 C 0.60407 0.54901 0.94843 0.0
C807 C 0.62243 0.55185 0.88589 0.0
H808 H 0.6664 0.54908 0.9163 0.0
C809 C 0.68707 0.55488 0.82926 0.0
C810 C 0.70683 0.56418 0.83883 0.0
C811 C 0.67062 0.55216 0.84333 0.0
C812 C 0.65447 0.55032 0.90757 0.0
H813 H 0.55065 0.51052 0.92368 0.0
H814 H 0.58141 0.52073 0.899 0.0
H815 H 0.63666 0.54188 0.94076 0.0
H816 H 0.72471 0.57818 0.87077 0.0
H817 H 0.69618 0.57421 0.89493 0.0
H818 H 0.6402 0.56052 0.85279 0.0
C819 C 0.58304 0.52726 0.91658 0.0
C820 C 0.63739 0.54611 0.92161 0.0
C821 C 0.5655 0.52138 0.93065 0.0
C822 C 0.70976 0.57111 0.86269 0.0
C823 C 0.69331 0.56857 0.8767 0.0
C824 C 0.6396 0.5563 0.87191 0.0
C825 C 0.60251 0.54101 0.92542 0.0
C826 C 0.6211 0.54659 0.91083 0.0
C827 C 0.67348 0.55889 0.86728 0.0
C828 C 0.65574 0.55533 0.88249 0.0
H829 H 0.58799 0.5497 0.98002 0.0
H830 H 0.61889 0.55975 0.95557 0.0
H831 H 0.61018 0.55258 0.87721 0.0
H832 H 0.68426 0.54965 0.81082 0.0
H833 H 0.65556 0.54441 0.83551 0.0
C834 C 0.04664 0.56458 0.4293 0.0
C835 C 0.04022 0.56556 0.45287 0.0
C836 C 0.05825 0.58209 0.41475 0.0
C837 C 0.09516 0.63511 0.41756 0.0
H838 H 0.0782 0.63987 0.35244 0.0
C839 C 0.14215 0.70811 0.35878 0.0
C840 C 0.14359 0.70638 0.33361 0.0
C841 C 0.12829 0.69141 0.3734 0.0
C842 C 0.08337 0.63872 0.37042 0.0
H843 H 0.04055 0.5853 0.47977 0.0
H844 H 0.06167 0.6162 0.45458 0.0
H845 H 0.0567 0.60949 0.37774 0.0
H846 H 0.13185 0.68608 0.30384 0.0
H847 H 0.1083 0.65663 0.32938 0.0
H848 H 0.12224 0.66373 0.41014 0.0
C849 C 0.05755 0.60186 0.44736 0.0
C850 C 0.07095 0.62136 0.38493 0.0
C851 C 0.04556 0.58429 0.46171 0.0
C852 C 0.13083 0.68776 0.32322 0.0
C853 C 0.11726 0.67094 0.33789 0.0
C854 C 0.10779 0.6523 0.40291 0.0
C855 C 0.06391 0.60088 0.42374 0.0
C856 C 0.07676 0.61943 0.4086 0.0
C857 C 0.11589 0.67249 0.36325 0.0
C858 C 0.1021 0.65436 0.3791 0.0
H859 H 0.04264 0.55024 0.42218 0.0
H860 H 0.06311 0.58101 0.39664 0.0
H861 H 0.10003 0.63383 0.4357 0.0
H862 H 0.15176 0.72242 0.36712 0.0
H863 H 0.12738 0.69339 0.39269 0.0
C864 C 0.45538 0.05233 0.94551 0.0
C865 C 0.46312 0.04162 0.93459 0.0
C866 C 0.44882 0.06287 0.93119 0.0
C867 C 0.43218 0.06751 0.86968 0.0
H868 H 0.45242 0.12238 0.88707 0.0
C869 C 0.4277 0.12523 0.80543 0.0
C870 C 0.42467 0.13954 0.81609 0.0
C871 C 0.43039 0.11186 0.82007 0.0
C872 C 0.44632 0.10699 0.88216 0.0
H873 H 0.46964 0.0333 0.89998 0.0
H874 H 0.45795 0.05157 0.87499 0.0
H875 H 0.46054 0.1015 0.91232 0.0
H876 H 0.42091 0.15039 0.85029 0.0
H877 H 0.42514 0.12682 0.87585 0.0
H878 H 0.41792 0.07302 0.83949 0.0
C879 C 0.45688 0.05168 0.89467 0.0
C880 C 0.45103 0.09503 0.89662 0.0
C881 C 0.46355 0.0412 0.90899 0.0
C882 C 0.42357 0.13972 0.84161 0.0
C883 C 0.42607 0.12626 0.85623 0.0
C884 C 0.42733 0.07945 0.85526 0.0
C885 C 0.44973 0.06286 0.90563 0.0
C886 C 0.44409 0.0752 0.89051 0.0
C887 C 0.42994 0.11244 0.84566 0.0
C888 C 0.43441 0.09937 0.86129 0.0
H889 H 0.45441 0.05261 0.96516 0.0
H890 H 0.44307 0.07109 0.94015 0.0
H891 H 0.42648 0.05221 0.86467 0.0
H892 H 0.42877 0.12489 0.78579 0.0
H893 H 0.43356 0.10157 0.8113 0.0
C894 C 0.42808 0.47425 0.40529 0.0
C895 C 0.42507 0.4721 0.43077 0.0
C896 C 0.41156 0.46793 0.3898 0.0
C897 C 0.35485 0.43586 0.3885 0.0
H898 H 0.36188 0.46844 0.33016 0.0
C899 C 0.28788 0.42931 0.33312 0.0
C900 C 0.28974 0.43032 0.30756 0.0
C901 C 0.30416 0.43245 0.34759 0.0
C902 C 0.35976 0.45905 0.34622 0.0
H903 H 0.40214 0.46139 0.45984 0.0
H904 H 0.37348 0.45114 0.43288 0.0
H905 H 0.39076 0.47825 0.3567 0.0
H906 H 0.30987 0.43497 0.27707 0.0
H907 H 0.33847 0.44061 0.30243 0.0
H908 H 0.32361 0.41704 0.37825 0.0
C909 C 0.38858 0.45734 0.42484 0.0
C910 C 0.37632 0.46464 0.36144 0.0
C911 C 0.40509 0.46351 0.44034 0.0
C912 C 0.308 0.434 0.29674 0.0
C913 C 0.32439 0.43738 0.31121 0.0
C914 C 0.33824 0.43039 0.37338 0.0
C915 C 0.3916 0.45946 0.39936 0.0
C916 C 0.37406 0.45318 0.38284 0.0
C917 C 0.3227 0.43688 0.33678 0.0
C918 C 0.34052 0.44198 0.35215 0.0
H919 H 0.44326 0.48104 0.39724 0.0
H920 H 0.41445 0.46959 0.37029 0.0
H921 H 0.35263 0.42647 0.40457 0.0
H922 H 0.2739 0.42636 0.34192 0.0
H923 H 0.30247 0.43211 0.36723 0.0
C924 C 0.93021 0.4133 0.94114 0.0
C925 C 0.95135 0.42623 0.93668 0.0
C926 C 0.91861 0.39667 0.92688 0.0
C927 C 0.92315 0.36441 0.88185 0.0
H928 H 0.8672 0.34856 0.86868 0.0
C929 C 0.87118 0.30701 0.80981 0.0
C930 C 0.85169 0.29181 0.81868 0.0
C931 C 0.8842 0.32307 0.82432 0.0
C932 C 0.88278 0.3528 0.87232 0.0
H933 H 0.9768 0.43136 0.91373 0.0
H934 H 0.95641 0.40316 0.88804 0.0
H935 H 0.88817 0.37756 0.8932 0.0
H936 H 0.83119 0.28121 0.85038 0.0
H937 H 0.85356 0.30962 0.8751 0.0
H938 H 0.91769 0.33986 0.86001 0.0
C939 C 0.94884 0.40556 0.90299 0.0
C940 C 0.8948 0.36933 0.88652 0.0
C941 C 0.96053 0.42201 0.91753 0.0
C942 C 0.8458 0.29287 0.84262 0.0
C943 C 0.85865 0.30906 0.85689 0.0
C944 C 0.91119 0.34806 0.86723 0.0
C945 C 0.9277 0.39267 0.90742 0.0
C946 C 0.9151 0.37527 0.89174 0.0
C947 C 0.87786 0.32439 0.84779 0.0
C948 C 0.89085 0.34202 0.86258 0.0
H949 H 0.92246 0.41613 0.95544 0.0
H950 H 0.90247 0.38693 0.93124 0.0
H951 H 0.93857 0.36827 0.88572 0.0
H952 H 0.87619 0.30687 0.79142 0.0
H953 H 0.89895 0.33479 0.8169 0.0
C954 C 0.94465 0.51318 0.94558 0.0
C955 C 0.96243 0.52806 0.95661 0.0
C956 C 0.93234 0.51832 0.93261 0.0
C957 C 0.93322 0.56004 0.89919 0.0
H958 H 0.87438 0.5276 0.90897 0.0
C959 C 0.87869 0.57934 0.84999 0.0
C960 C 0.86049 0.56307 0.84124 0.0
C961 C 0.89124 0.57601 0.86532 0.0
C962 C 0.89076 0.5367 0.9058 0.0
H963 H 0.98141 0.55981 0.96303 0.0
H964 H 0.95997 0.56897 0.93992 0.0
H965 H 0.89618 0.51992 0.93307 0.0
H966 H 0.84102 0.53053 0.84232 0.0
H967 H 0.86313 0.52473 0.86817 0.0
H968 H 0.92782 0.57651 0.87147 0.0
C969 C 0.95558 0.55336 0.94126 0.0
C970 C 0.90324 0.53231 0.91968 0.0
C971 C 0.96779 0.54817 0.95447 0.0
C972 C 0.85508 0.54342 0.84836 0.0
C973 C 0.86763 0.5401 0.86354 0.0
C974 C 0.92072 0.56434 0.88514 0.0
C975 C 0.93768 0.53846 0.93029 0.0
C976 C 0.92458 0.5438 0.91635 0.0
C977 C 0.88588 0.55632 0.87222 0.0
C978 C 0.89931 0.55257 0.88809 0.0
H979 H 0.94032 0.49758 0.94704 0.0
H980 H 0.91876 0.50655 0.92412 0.0
H981 H 0.94962 0.56904 0.8961 0.0
H982 H 0.8834 0.59466 0.84474 0.0
H983 H 0.90508 0.58886 0.87186 0.0
C984 C 0.4384 0.94762 0.43854 0.0
C985 C 0.43983 0.9643 0.44922 0.0
C986 C 0.42198 0.93551 0.42372 0.0
C987 C 0.38155 0.93502 0.38688 0.0
H988 H 0.3563 0.8772 0.39338 0.0
C989 C 0.30652 0.87884 0.33888 0.0
C990 C 0.30547 0.86195 0.32914 0.0
C991 C 0.32301 0.89187 0.35317 0.0
C992 C 0.36332 0.89332 0.39113 0.0
H993 H 0.42556 0.98158 0.45317 0.0
H994 H 0.39658 0.96031 0.42726 0.0
H995 H 0.38478 0.89883 0.41914 0.0
H996 H 0.32134 0.846 0.3259 0.0
H997 H 0.35004 0.86869 0.35074 0.0
H998 H 0.36 0.92944 0.35883 0.0
C999 C 0.40824 0.95669 0.43004 0.0
C1000 C 0.37965 0.90573 0.40591 0.0
C1001 C 0.42469 0.96879 0.4449 0.0
C1002 C 0.32148 0.85864 0.33355 0.0
C1003 C 0.33793 0.87164 0.3478 0.0
C1004 C 0.36518 0.92259 0.37207 0.0
C1005 C 0.40666 0.93985 0.41935 0.0
C1006 C 0.38904 0.92673 0.40387 0.0
C1007 C 0.3388 0.88829 0.358 0.0
C1008 C 0.35596 0.9016 0.37394 0.0
H1009 H 0.45002 0.94399 0.44171 0.0
H1010 H 0.42137 0.92283 0.4155 0.0
H1011 H 0.38859 0.95116 0.38467 0.0
H1012 H 0.29434 0.88169 0.336 0.0
H1013 H 0.32313 0.90446 0.36095 0.0
C1014 C 0.47314 0.43017 0.90784 0.0
C1015 C 0.47041 0.42719 0.93332 0.0
C1016 C 0.46688 0.41392 0.89286 0.0
C1017 C 0.43416 0.35805 0.89257 0.0
H1018 H 0.4679 0.36507 0.83604 0.0
C1019 C 0.4277 0.29219 0.84005 0.0
C1020 C 0.4285 0.294 0.81445 0.0
C1021 C 0.43115 0.30825 0.85399 0.0
C1022 C 0.4582 0.36296 0.85161 0.0
H1023 H 0.45861 0.40453 0.96289 0.0
H1024 H 0.44858 0.37638 0.93693 0.0
H1025 H 0.47755 0.39344 0.86163 0.0
H1026 H 0.43327 0.3139 0.78334 0.0
H1027 H 0.43948 0.34212 0.80776 0.0
H1028 H 0.41522 0.32732 0.88283 0.0
C1029 C 0.45516 0.39126 0.92843 0.0
C1030 C 0.46368 0.37922 0.86627 0.0
C1031 C 0.46124 0.40749 0.9434 0.0
C1032 C 0.43243 0.31206 0.80304 0.0
C1033 C 0.43614 0.32824 0.81699 0.0
C1034 C 0.42882 0.34173 0.87804 0.0
C1035 C 0.45791 0.39425 0.90295 0.0
C1036 C 0.45178 0.37699 0.88701 0.0
C1037 C 0.43571 0.32654 0.8426 0.0
C1038 C 0.44082 0.34401 0.85746 0.0
H1039 H 0.48039 0.44512 0.89939 0.0
H1040 H 0.469 0.41682 0.87332 0.0
H1041 H 0.42439 0.35582 0.9081 0.0
H1042 H 0.42458 0.27838 0.84929 0.0
H1043 H 0.43085 0.30657 0.87369 0.0
C1044 C 0.06426 0.48685 0.42197 0.0
C1045 C 0.04392 0.47274 0.42901 0.0
C1046 C 0.07488 0.48169 0.40627 0.0
C1047 C 0.06812 0.44444 0.36136 0.0
H1048 H 0.1254 0.46581 0.37419 0.0
C1049 C 0.11938 0.42198 0.31039 0.0
C1050 C 0.13891 0.4381 0.3031 0.0
C1051 C 0.1066 0.42519 0.32516 0.0
C1052 C 0.10945 0.45983 0.3703 0.0
H1053 H 0.01863 0.44218 0.42496 0.0
H1054 H 0.03733 0.43297 0.39775 0.0
H1055 H 0.10536 0.47305 0.40144 0.0
H1056 H 0.15977 0.47038 0.30441 0.0
H1057 H 0.13769 0.47585 0.33042 0.0
H1058 H 0.07237 0.431 0.33026 0.0
C1059 C 0.04498 0.44815 0.40409 0.0
C1060 C 0.09796 0.46403 0.38586 0.0
C1061 C 0.03428 0.45339 0.4197 0.0
C1062 C 0.14507 0.45754 0.31022 0.0
C1063 C 0.1324 0.46071 0.32507 0.0
C1064 C 0.07963 0.44008 0.34586 0.0
C1065 C 0.06548 0.46221 0.39737 0.0
C1066 C 0.07724 0.45668 0.38139 0.0
C1067 C 0.11318 0.44455 0.33299 0.0
C1068 C 0.10048 0.44802 0.34999 0.0
H1069 H 0.07195 0.50199 0.42849 0.0
H1070 H 0.09047 0.49306 0.401 0.0
H1071 H 0.05224 0.43866 0.35728 0.0
H1072 H 0.11423 0.4068 0.30534 0.0
H1073 H 0.09185 0.41247 0.33109 0.0
C1074 C 0.55851 0.03908 0.92017 0.0
C1075 C 0.56075 0.03363 0.94405 0.0
C1076 C 0.57547 0.0494 0.90434 0.0
C1077 C 0.62996 0.08468 0.9043 0.0
H1078 H 0.63041 0.068 0.83869 0.0
C1079 C 0.70102 0.13016 0.84197 0.0
C1080 C 0.69788 0.13235 0.81719 0.0
C1081 C 0.68479 0.11623 0.85717 0.0
C1082 C 0.63047 0.07304 0.85683 0.0
H1083 H 0.5821 0.03419 0.97013 0.0
H1084 H 0.61204 0.05291 0.94262 0.0
H1085 H 0.60072 0.04734 0.86564 0.0
H1086 H 0.67562 0.12174 0.78861 0.0
H1087 H 0.64694 0.09799 0.81527 0.0
H1088 H 0.65906 0.11081 0.89546 0.0
C1089 C 0.59716 0.04907 0.93614 0.0
C1090 C 0.6135 0.06112 0.87227 0.0
C1091 C 0.58013 0.03842 0.95181 0.0
C1092 C 0.67836 0.12013 0.80768 0.0
C1093 C 0.66199 0.10647 0.82298 0.0
C1094 C 0.64674 0.09678 0.88877 0.0
C1095 C 0.59497 0.05471 0.9123 0.0
C1096 C 0.61312 0.06687 0.89612 0.0
C1097 C 0.66492 0.10454 0.84804 0.0
C1098 C 0.64725 0.09116 0.86479 0.0
H1099 H 0.54365 0.03552 0.91389 0.0
H1100 H 0.57345 0.05373 0.8861 0.0
H1101 H 0.62988 0.08955 0.92253 0.0
H1102 H 0.71604 0.13937 0.8496 0.0
H1103 H 0.68782 0.11484 0.87616 0.0
C1104 C 0.54971 0.58139 0.44949 0.0
C1105 C 0.52905 0.56608 0.4519 0.0
C1106 C 0.5556 0.59849 0.43457 0.0
C1107 C 0.53714 0.61687 0.38377 0.0
H1108 H 0.58022 0.66942 0.40346 0.0
C1109 C 0.56678 0.68691 0.31995 0.0
C1110 C 0.57066 0.70464 0.33052 0.0
C1111 C 0.56317 0.67038 0.33459 0.0
C1112 C 0.56806 0.65488 0.39777 0.0
H1113 H 0.49826 0.55651 0.44137 0.0
H1114 H 0.50834 0.58657 0.41574 0.0
H1115 H 0.57044 0.63988 0.42975 0.0
H1116 H 0.57402 0.71908 0.36468 0.0
H1117 H 0.56735 0.6901 0.39033 0.0
H1118 H 0.53418 0.63187 0.35228 0.0
C1119 C 0.52013 0.58528 0.42477 0.0
C1120 C 0.56263 0.63789 0.4127 0.0
C1121 C 0.5143 0.56816 0.43954 0.0
C1122 C 0.57128 0.70566 0.35604 0.0
C1123 C 0.5675 0.68906 0.37071 0.0
C1124 C 0.54248 0.63384 0.36893 0.0
C1125 C 0.54087 0.60062 0.42198 0.0
C1126 C 0.54703 0.61869 0.40593 0.0
C1127 C 0.56318 0.67113 0.36017 0.0
C1128 C 0.55797 0.65307 0.37575 0.0
H1129 H 0.56128 0.58002 0.45902 0.0
H1130 H 0.5717 0.60988 0.43265 0.0
H1131 H 0.52526 0.6023 0.37779 0.0
H1132 H 0.56652 0.68582 0.3003 0.0
H1133 H 0.56034 0.65698 0.32583 0.0
C1134 C 0.45507 0.04535 0.56575 0.0
C1135 C 0.47483 0.05367 0.55565 0.0
C1136 C 0.45015 0.05704 0.57944 0.0
C1137 C 0.47367 0.10174 0.61643 0.0
H1138 H 0.42331 0.10081 0.60634 0.0
C1139 C 0.45833 0.15754 0.66266 0.0
C1140 C 0.43837 0.15054 0.67116 0.0
C1141 C 0.46235 0.14558 0.64829 0.0
C1142 C 0.43731 0.10105 0.60964 0.0
H1143 H 0.50495 0.08073 0.55205 0.0
H1144 H 0.49636 0.10114 0.57592 0.0
H1145 H 0.43101 0.08006 0.58183 0.0
H1146 H 0.40697 0.12551 0.67134 0.0
H1147 H 0.41401 0.1044 0.64658 0.0
H1148 H 0.47991 0.12241 0.64445 0.0
C1149 C 0.48469 0.08557 0.57327 0.0
C1150 C 0.44173 0.08919 0.59554 0.0
C1151 C 0.48954 0.07394 0.55942 0.0
C1152 C 0.42248 0.13136 0.66485 0.0
C1153 C 0.42652 0.1193 0.65061 0.0
C1154 C 0.46919 0.11345 0.63065 0.0
C1155 C 0.46497 0.07723 0.58351 0.0
C1156 C 0.46002 0.08952 0.59868 0.0
C1157 C 0.44654 0.12624 0.64222 0.0
C1158 C 0.45102 0.11338 0.62734 0.0
H1159 H 0.44337 0.02981 0.563 0.0
H1160 H 0.43487 0.05018 0.58722 0.0
H1161 H 0.48773 0.10205 0.61956 0.0
H1162 H 0.47084 0.1724 0.6669 0.0
H1163 H 0.47787 0.15162 0.64173 0.0
C1164 C 0.41996 0.45623 0.05004 0.0
C1165 C 0.43611 0.47624 0.04657 0.0
C1166 C 0.4029 0.45156 0.06443 0.0
C1167 C 0.38591 0.47236 0.11216 0.0
H1168 H 0.33156 0.43178 0.09215 0.0
C1169 C 0.31309 0.46207 0.15681 0.0
C1170 C 0.29695 0.4423 0.16246 0.0
C1171 C 0.32993 0.46569 0.14278 0.0
C1172 C 0.34665 0.443 0.0981 0.0
H1173 H 0.44724 0.5071 0.05479 0.0
H1174 H 0.41728 0.49911 0.0796 0.0
H1175 H 0.36127 0.43911 0.06743 0.0
H1176 H 0.28593 0.41082 0.15771 0.0
H1177 H 0.31529 0.41718 0.13295 0.0
H1178 H 0.37127 0.47643 0.14263 0.0
C1179 C 0.41788 0.48692 0.07175 0.0
C1180 C 0.36369 0.44719 0.08397 0.0
C1181 C 0.43494 0.49155 0.05746 0.0
C1182 C 0.29797 0.42623 0.15345 0.0
C1183 C 0.31479 0.42986 0.1393 0.0
C1184 C 0.36889 0.46825 0.12619 0.0
C1185 C 0.40165 0.46686 0.07548 0.0
C1186 C 0.38352 0.462 0.09076 0.0
C1187 C 0.33101 0.44964 0.13394 0.0
C1188 C 0.34907 0.4536 0.11926 0.0
H1189 H 0.42061 0.44425 0.04164 0.0
H1190 H 0.3908 0.43594 0.06712 0.0
H1191 H 0.40097 0.48358 0.1182 0.0
H1192 H 0.31263 0.47482 0.16299 0.0
H1193 H 0.34201 0.4811 0.13859 0.0
C1194 C 0.96299 0.41983 0.55009 0.0
C1195 C 0.9592 0.43548 0.54828 0.0
C1196 C 0.95071 0.4029 0.56533 0.0
C1197 C 0.91392 0.38547 0.6177 0.0
H1198 H 0.89852 0.33236 0.59756 0.0
C1199 C 0.84977 0.31302 0.66607 0.0
C1200 C 0.85375 0.29773 0.67158 0.0
C1201 C 0.86326 0.3297 0.65123 0.0
C1202 C 0.90288 0.34713 0.60351 0.0
H1203 H 0.93965 0.44583 0.56023 0.0
H1204 H 0.91775 0.41606 0.58638 0.0
H1205 H 0.92076 0.36173 0.57103 0.0
H1206 H 0.87514 0.28809 0.66562 0.0
H1207 H 0.89853 0.31713 0.63923 0.0
H1208 H 0.89566 0.37077 0.64991 0.0
C1209 C 0.93047 0.41695 0.57664 0.0
C1210 C 0.91565 0.36397 0.58836 0.0
C1211 C 0.94284 0.43391 0.56157 0.0
C1212 C 0.87146 0.29944 0.66154 0.0
C1213 C 0.88489 0.31609 0.64648 0.0
C1214 C 0.90103 0.36864 0.63271 0.0
C1215 C 0.93431 0.40127 0.57885 0.0
C1216 C 0.92122 0.38334 0.5952 0.0
C1217 C 0.88098 0.33144 0.64133 0.0
C1218 C 0.89527 0.34929 0.6257 0.0
H1219 H 0.97553 0.4208 0.53984 0.0
H1220 H 0.95425 0.39123 0.56677 0.0
H1221 H 0.91825 0.40017 0.62383 0.0
H1222 H 0.83606 0.312 0.67298 0.0
H1223 H 0.85968 0.34114 0.64722 0.0
C1224 C 0.55078 0.96558 0.07545 0.0
C1225 C 0.53056 0.9563 0.06739 0.0
C1226 C 0.55651 0.95529 0.09163 0.0
C1227 C 0.53537 0.91394 0.13789 0.0
H1228 H 0.58337 0.91145 0.12392 0.0
C1229 C 0.54808 0.85497 0.1849 0.0
C1230 C 0.56804 0.86021 0.19068 0.0
C1231 C 0.54464 0.86829 0.1714 0.0
C1232 C 0.57013 0.91227 0.12835 0.0
H1233 H 0.50045 0.92918 0.07019 0.0
H1234 H 0.51044 0.91126 0.09844 0.0
H1235 H 0.57539 0.93199 0.09738 0.0
H1236 H 0.60008 0.88373 0.18701 0.0
H1237 H 0.59403 0.90727 0.1639 0.0
H1238 H 0.53002 0.89431 0.1688 0.0
C1239 C 0.52185 0.92646 0.09227 0.0
C1240 C 0.56554 0.924 0.1131 0.0
C1241 C 0.51618 0.93663 0.07592 0.0
C1242 C 0.5845 0.87928 0.183 0.0
C1243 C 0.58105 0.89268 0.16953 0.0
C1244 C 0.54002 0.90237 0.15322 0.0
C1245 C 0.54206 0.93567 0.10029 0.0
C1246 C 0.54791 0.92462 0.11748 0.0
C1247 C 0.56107 0.88729 0.16346 0.0
C1248 C 0.55723 0.90106 0.14838 0.0
H1249 H 0.56219 0.9807 0.06905 0.0
H1250 H 0.57218 0.96276 0.09761 0.0
H1251 H 0.52187 0.91444 0.14193 0.0
H1252 H 0.53502 0.84053 0.19084 0.0
H1253 H 0.52908 0.86349 0.16679 0.0
C1254 C 0.57965 0.51327 0.57521 0.0
C1255 C 0.57417 0.52737 0.56928 0.0
C1256 C 0.59565 0.51804 0.59101 0.0
C1257 C 0.62778 0.55409 0.63779 0.0
H1258 H 0.66224 0.53277 0.62519 0.0
C1259 C 0.70268 0.57605 0.68926 0.0
C1260 C 0.70442 0.55976 0.69734 0.0
C1261 C 0.68668 0.57296 0.67419 0.0
C1262 C 0.65267 0.53874 0.62898 0.0
H1263 H 0.58109 0.55753 0.57515 0.0
H1264 H 0.6095 0.56615 0.60232 0.0
H1265 H 0.63501 0.52615 0.59727 0.0
H1266 H 0.69 0.52734 0.69683 0.0
H1267 H 0.66257 0.52214 0.67003 0.0
H1268 H 0.64596 0.56703 0.66934 0.0
C1269 C 0.60115 0.55122 0.59519 0.0
C1270 C 0.63699 0.53488 0.61307 0.0
C1271 C 0.58494 0.54634 0.57957 0.0
C1272 C 0.68949 0.5403 0.69047 0.0
C1273 C 0.67371 0.53728 0.6752 0.0
C1274 C 0.64369 0.55817 0.65357 0.0
C1275 C 0.60676 0.53714 0.60105 0.0
C1276 C 0.62412 0.54223 0.61744 0.0
C1277 C 0.67228 0.55359 0.66669 0.0
C1278 C 0.65607 0.55027 0.64948 0.0
H1279 H 0.57136 0.49842 0.56785 0.0
H1280 H 0.59915 0.50663 0.59555 0.0
H1281 H 0.61806 0.55982 0.6419 0.0
H1282 H 0.71399 0.59125 0.69398 0.0
H1283 H 0.68594 0.58579 0.66776 0.0
C1284 C 0.07339 0.58386 0.06882 0.0
C1285 C 0.05306 0.57773 0.06373 0.0
C1286 C 0.08496 0.59984 0.084 0.0
C1287 C 0.08889 0.64491 0.10813 0.0
H1288 H 0.12142 0.63912 0.15787 0.0
C1289 C 0.13183 0.70454 0.18059 0.0
C1290 C 0.15126 0.70856 0.18711 0.0
C1291 C 0.1194 0.68856 0.1657 0.0
C1292 C 0.11264 0.64111 0.14388 0.0
H1293 H 0.02902 0.58374 0.07025 0.0
H1294 H 0.04929 0.61172 0.09685 0.0
H1295 H 0.10072 0.61142 0.13139 0.0
H1296 H 0.17315 0.69941 0.18254 0.0
H1297 H 0.15169 0.6718 0.15632 0.0
H1298 H 0.10104 0.67472 0.12035 0.0
C1299 C 0.05624 0.60415 0.08904 0.0
C1300 C 0.10074 0.6252 0.12875 0.0
C1301 C 0.0446 0.58804 0.074 0.0
C1302 C 0.1581 0.69645 0.17819 0.0
C1303 C 0.14576 0.68059 0.1632 0.0
C1304 C 0.10091 0.66091 0.12318 0.0
C1305 C 0.07651 0.61013 0.09431 0.0
C1306 C 0.08881 0.62695 0.11064 0.0
C1307 C 0.1262 0.67635 0.15687 0.0
C1308 C 0.11302 0.65924 0.14117 0.0
H1309 H 0.08026 0.57609 0.06136 0.0
H1310 H 0.1006 0.60423 0.08755 0.0
H1311 H 0.08 0.64676 0.09416 0.0
H1312 H 0.12608 0.71351 0.18739 0.0
H1313 H 0.10433 0.68558 0.16146 0.0
loop_
_geom_bond_atom_site_label_1
_geom_bond_atom_site_label_2
_geom_bond_distance
_geom_bond_site_symmetry_2
_ccdc_geom_bond_type
C0 C1 1.443 . S
C0 N4 1.376 1_556 S
C0 C38 1.389 . S
C1 C0 1.443 . S
C1 C2 1.340 1_556 S
C1 H41 0.951 . S
C2 C1 1.340 1_554 S
C2 C3 1.439 . S
C2 H42 0.950 . S
C3 C2 1.439 . S
C3 N4 1.374 . S
C3 C37 1.395 . S
N4 C0 1.376 1_554 S
N4 C3 1.374 . S
N4 Co5 1.959 1_655 S
Co5 N4 1.959 1_455 S
Co5 N6 2.024 1_455 S
Co5 N11 2.057 1_554 S
Co5 N16 1.966 1_554 S
Co5 N21 2.302 . S
Co5 N27 2.265 1_454 S
N6 Co5 2.024 1_655 S
N6 C7 1.376 . S
N6 C10 1.383 1_655 S
C7 N6 1.376 . S
C7 C8 1.446 . S
C7 C37 1.391 . S
C8 C7 1.446 . S
C8 C9 1.339 1_655 S
C8 H43 0.949 . S
C9 C8 1.339 1_455 S
C9 C10 1.439 . S
C9 H44 0.950 . S
C10 N6 1.383 1_455 S
C10 C9 1.439 . S
C10 C39 1.392 . S
N11 Co5 2.057 1_556 S
N11 C12 1.376 1_556 S
N11 C15 1.374 . S
C12 N11 1.376 1_554 S
C12 C13 1.443 . S
C12 C39 1.389 . S
C13 C12 1.443 . S
C13 C14 1.340 1_554 S
C13 H45 0.951 . S
C14 C13 1.340 1_556 S
C14 C15 1.439 . S
C14 H46 0.950 . S
C15 N11 1.374 . S
C15 C14 1.439 . S
C15 C40 1.395 . S
N16 Co5 1.966 1_556 S
N16 C17 1.376 . S
N16 C20 1.383 1_455 S
C17 N16 1.376 . S
C17 C18 1.446 . S
C17 C40 1.391 . S
C18 C17 1.446 . S
C18 C19 1.339 1_455 S
C18 H47 0.949 . S
C19 C18 1.339 1_655 S
C19 C20 1.439 . S
C19 H48 0.950 . S
C20 N16 1.383 1_655 S
C20 C19 1.439 . S
C20 C38 1.392 . S
N21 Co5 2.302 . S
N21 C24 1.332 . S
N21 C26 1.332 . S
C22 C23 1.386 . S
C22 C25 1.388 . S
C23 C22 1.386 . S
C23 C24 1.382 . S
C23 H49 0.950 . S
C24 N21 1.332 . S
C24 C23 1.382 . S
C24 H35 0.952 1_554 S
C25 C22 1.388 . S
C25 C26 1.382 . S
C25 H50 0.950 . S
C26 N21 1.332 . S
C26 C25 1.382 . S
C26 H36 0.948 . S
N27 Co5 2.265 1_656 S
N27 C31 1.332 . S
N27 C32 1.332 . S
C28 C29 1.388 . S
C28 C32 1.382 . S
C28 H51 0.950 . S
C29 C28 1.388 . S
C29 C30 1.386 . S
C30 C29 1.386 . S
C30 C31 1.382 . S
C30 H52 0.950 . S
C31 N27 1.332 . S
C31 C30 1.382 . S
C31 H33 0.952 1_556 S
C32 N27 1.332 . S
C32 C28 1.382 . S
C32 H34 0.948 . S
H33 C31 0.952 1_554 S
H34 C32 0.948 . S
H35 C24 0.952 1_556 S
H36 C26 0.948 . S
C37 C3 1.395 . S
C37 C7 1.391 . S
C38 C0 1.389 . S
C38 C20 1.392 . S
C39 C10 1.392 . S
C39 C12 1.389 . S
C40 C15 1.395 . S
C40 C17 1.391 . S
H41 C1 0.951 . S
H42 C2 0.950 . S
H43 C8 0.949 . S
H44 C9 0.950 . S
H45 C13 0.951 . S
H46 C14 0.950 . S
H47 C18 0.949 . S
H48 C19 0.950 . S
H49 C23 0.950 . S
H50 C25 0.950 . S
H51 C28 0.950 . S
H52 C30 0.950 . S
C53 C54 1.443 . S
C53 N57 1.376 1_545 S
C53 C91 1.389 . S
C54 C53 1.443 . S
C54 C55 1.340 1_545 S
C54 H94 0.951 . S
C55 C54 1.340 1_565 S
C55 C56 1.439 . S
C55 H95 0.950 . S
C56 C55 1.439 . S
C56 N57 1.374 . S
C56 C90 1.395 . S
N57 C53 1.376 1_565 S
N57 C56 1.374 . S
N57 Co58 2.008 1_565 S
Co58 N57 2.008 1_545 S
Co58 N59 1.995 1_545 S
Co58 N64 2.008 . S
Co58 N69 1.995 . S
Co58 N74 2.282 1_545 S
Co58 N80 2.282 . S
N59 Co58 1.995 1_565 S
N59 C60 1.376 . S
N59 C63 1.383 . S
C60 N59 1.376 . S
C60 C61 1.446 . S
C60 C90 1.391 . S
C61 C60 1.446 . S
C61 C62 1.339 . S
C61 H96 0.949 . S
C62 C61 1.339 . S
C62 C63 1.439 . S
C62 H97 0.950 . S
C63 N59 1.383 . S
C63 C62 1.439 . S
C63 C92 1.392 . S
N64 Co58 2.008 . S
N64 C65 1.376 1_545 S
N64 C68 1.374 . S
C65 N64 1.376 1_565 S
C65 C66 1.443 . S
C65 C92 1.389 . S
C66 C65 1.443 . S
C66 C67 1.340 1_565 S
C66 H98 0.951 . S
C67 C66 1.340 1_545 S
C67 C68 1.439 . S
C67 H99 0.950 . S
C68 N64 1.374 . S
C68 C67 1.439 . S
C68 C93 1.395 . S
N69 Co58 1.995 . S
N69 C70 1.376 . S
N69 C73 1.383 . S
C70 N69 1.376 . S
C70 C71 1.446 . S
C70 C93 1.391 . S
C71 C70 1.446 . S
C71 C72 1.339 . S
C71 H100 0.949 . S
C72 C71 1.339 . S
C72 C73 1.439 . S
C72 H101 0.950 . S
C73 N69 1.383 . S
C73 C72 1.439 . S
C73 C91 1.392 . S
N74 Co58 2.282 1_565 S
N74 C77 1.332 . S
N74 C79 1.332 . S
C75 C76 1.386 . S
C75 C78 1.388 . S
C76 C75 1.386 . S
C76 C77 1.382 . S
C76 H102 0.950 . S
C77 N74 1.332 . S
C77 C76 1.382 . S
C77 H88 0.952 1_565 S
C78 C75 1.388 . S
C78 C79 1.382 . S
C78 H103 0.950 . S
C79 N74 1.332 . S
C79 C78 1.382 . S
C79 H89 0.948 . S
N80 Co58 2.282 . S
N80 C84 1.332 . S
N80 C85 1.332 . S
C81 C82 1.388 . S
C81 C85 1.382 . S
C81 H104 0.950 . S
C82 C81 1.388 . S
C82 C83 1.386 . S
C83 C82 1.386 . S
C83 C84 1.382 . S
C83 H105 0.950 . S
C84 N80 1.332 . S
C84 C83 1.382 . S
C84 H86 0.952 1_545 S
C85 N80 1.332 . S
C85 C81 1.382 . S
C85 H87 0.948 . S
H86 C84 0.952 1_565 S
H87 C85 0.948 . S
H88 C77 0.952 1_545 S
H89 C79 0.948 . S
C90 C56 1.395 . S
C90 C60 1.391 . S
C91 C53 1.389 . S
C91 C73 1.392 . S
C92 C63 1.392 . S
C92 C65 1.389 . S
C93 C68 1.395 . S
C93 C70 1.391 . S
H94 C54 0.951 . S
H95 C55 0.950 . S
H96 C61 0.949 . S
H97 C62 0.950 . S
H98 C66 0.951 . S
H99 C67 0.950 . S
H100 C71 0.949 . S
H101 C72 0.950 . S
H102 C76 0.950 . S
H103 C78 0.950 . S
H104 C81 0.950 . S
H105 C83 0.950 . S
C106 C107 1.443 . S
C106 N110 1.376 . S
C106 C144 1.389 . S
C107 C106 1.443 . S
C107 C108 1.340 . S
C107 H147 0.951 . S
C108 C107 1.340 . S
C108 C109 1.439 . S
C108 H148 0.950 . S
C109 C108 1.439 . S
C109 N110 1.374 . S
C109 C143 1.395 . S
N110 C106 1.376 . S
N110 C109 1.374 . S
N110 Co111 1.987 1_556 S
Co111 N110 1.987 1_554 S
Co111 N112 1.990 1_554 S
Co111 N117 2.029 . S
Co111 N122 1.999 . S
Co111 N127 2.295 . S
Co111 N133 2.270 1_554 S
N112 Co111 1.990 1_556 S
N112 C113 1.376 . S
N112 C116 1.383 1_556 S
C113 N112 1.376 . S
C113 C114 1.446 . S
C113 C143 1.391 . S
C114 C113 1.446 . S
C114 C115 1.382 . S
C114 H149 0.949 . S
C115 C114 1.382 . S
C115 C116 1.420 1_556 S
C115 H150 0.930 1_556 S
C116 N112 1.383 1_554 S
C116 C115 1.420 1_554 S
C116 C145 1.392 . S
N117 Co111 2.029 . S
N117 C118 1.376 . S
N117 C121 1.374 . S
C118 N117 1.376 . S
C118 C119 1.443 . S
C118 C145 1.389 . S
C119 C118 1.443 . S
C119 C120 1.340 . S
C119 H151 0.951 . S
C120 C119 1.340 . S
C120 C121 1.439 . S
C120 H152 0.950 . S
C121 N117 1.374 . S
C121 C120 1.439 . S
C121 C146 1.395 . S
N122 Co111 1.999 . S
N122 C123 1.376 . S
N122 C126 1.383 1_554 S
C123 N122 1.376 . S
C123 C124 1.446 . S
C123 C146 1.391 . S
C124 C123 1.446 . S
C124 C125 1.339 . S
C124 H153 0.949 . S
C125 C124 1.339 . S
C125 C126 1.439 1_554 S
C125 H154 0.950 1_554 S
C126 N122 1.383 1_556 S
C126 C125 1.439 1_556 S
C126 C144 1.392 . S
N127 Co111 2.295 . S
N127 C130 1.332 . S
N127 C132 1.332 . S
C128 C129 1.386 . S
C128 C131 1.388 . S
C129 C128 1.386 . S
C129 C130 1.382 . S
C129 H155 0.950 . S
C130 N127 1.332 . S
C130 C129 1.382 . S
C130 H141 0.952 . S
C131 C128 1.388 . S
C131 C132 1.382 . S
C131 H156 0.950 . S
C132 N127 1.332 . S
C132 C131 1.382 . S
C132 H142 0.948 . S
N133 Co111 2.270 1_556 S
N133 C137 1.332 . S
N133 C138 1.332 . S
C134 C135 1.388 . S
C134 C138 1.382 . S
C134 H157 0.950 . S
C135 C134 1.388 . S
C135 C136 1.386 . S
C136 C135 1.386 . S
C136 C137 1.382 . S
C136 H158 0.950 . S
C137 N133 1.332 . S
C137 C136 1.382 . S
C137 H139 0.952 . S
C138 N133 1.332 . S
C138 C134 1.382 . S
C138 H140 0.986 . S
H139 C137 0.952 . S
H140 C138 0.986 . S
H141 C130 0.952 . S
H142 C132 0.948 . S
C143 C109 1.395 . S
C143 C113 1.391 . S
C144 C106 1.389 . S
C144 C126 1.392 . S
C145 C116 1.392 . S
C145 C118 1.389 . S
C146 C121 1.395 . S
C146 C123 1.391 . S
H147 C107 0.951 . S
H148 C108 0.950 . S
H149 C114 0.949 . S
H150 C115 0.930 1_554 S
H151 C119 0.951 . S
H152 C120 0.950 . S
H153 C124 0.949 . S
H154 C125 0.950 1_556 S
H155 C129 0.950 . S
H156 C131 0.950 . S
H157 C134 0.950 . S
H158 C136 0.950 . S
C159 C160 1.443 . S
C159 N163 1.376 . S
C159 C197 1.389 . S
C160 C159 1.443 . S
C160 C161 1.340 . S
C160 H200 0.951 . S
C161 C160 1.340 . S
C161 C162 1.439 . S
C161 H201 0.950 . S
C162 C161 1.439 . S
C162 N163 1.374 . S
C162 C196 1.395 . S
N163 C159 1.376 . S
N163 C162 1.374 . S
N163 Co164 1.976 1_655 S
Co164 N163 1.976 1_455 S
Co164 N165 1.974 1_455 S
Co164 N170 2.041 . S
Co164 N175 2.017 . S
Co164 N180 2.323 . S
Co164 N186 2.242 1_455 S
N165 Co164 1.974 1_655 S
N165 C166 1.376 . S
N165 C169 1.383 1_655 S
C166 N165 1.376 . S
C166 C167 1.446 . S
C166 C196 1.391 . S
C167 C166 1.446 . S
C167 C168 1.339 1_655 S
C167 H202 0.949 . S
C168 C167 1.339 1_455 S
C168 C169 1.439 . S
C168 H203 0.950 . S
C169 N165 1.383 1_455 S
C169 C168 1.439 . S
C169 C198 1.392 . S
N170 Co164 2.041 . S
N170 C171 1.376 . S
N170 C174 1.374 . S
C171 N170 1.376 . S
C171 C172 1.443 . S
C171 C198 1.389 . S
C172 C171 1.443 . S
C172 C173 1.340 . S
C172 H204 0.951 . S
C173 C172 1.340 . S
C173 C174 1.439 . S
C173 H205 0.950 . S
C174 N170 1.374 . S
C174 C173 1.439 . S
C174 C199 1.395 . S
N175 Co164 2.017 . S
N175 C176 1.376 . S
N175 C179 1.383 1_455 S
C176 N175 1.376 . S
C176 C177 1.446 . S
C176 C199 1.391 . S
C177 C176 1.446 . S
C177 C178 1.339 1_455 S
C177 H206 0.949 . S
C178 C177 1.339 1_655 S
C178 C179 1.439 . S
C178 H207 0.950 . S
C179 N175 1.383 1_655 S
C179 C178 1.439 . S
C179 C197 1.392 . S
N180 Co164 2.323 . S
N180 C183 1.332 . S
N180 C185 1.332 . S
C181 C182 1.386 . S
C181 C184 1.388 . S
C182 C181 1.386 . S
C182 C183 1.382 . S
C182 H208 0.950 . S
C183 N180 1.332 . S
C183 C182 1.382 . S
C183 H194 0.952 . S
C184 C181 1.388 . S
C184 C185 1.382 . S
C184 H209 0.950 . S
C185 N180 1.332 . S
C185 C184 1.382 . S
C185 H195 0.948 . S
N186 Co164 2.242 1_655 S
N186 C190 1.332 . S
N186 C191 1.332 . S
C187 C188 1.388 . S
C187 C191 1.382 . S
C187 H210 0.950 . S
C188 C187 1.388 . S
C188 C189 1.386 . S
C189 C188 1.386 . S
C189 C190 1.382 . S
C189 H211 0.950 . S
C190 N186 1.332 . S
C190 C189 1.382 . S
C190 H192 0.952 . S
C191 N186 1.332 . S
C191 C187 1.382 . S
C191 H193 0.948 . S
H192 C190 0.952 . S
H193 C191 0.948 . S
H194 C183 0.952 . S
H195 C185 0.948 . S
C196 C162 1.395 . S
C196 C166 1.391 . S
C197 C159 1.389 . S
C197 C179 1.392 . S
C198 C169 1.392 . S
C198 C171 1.389 . S
C199 C174 1.395 . S
C199 C176 1.391 . S
H200 C160 0.951 . S
H201 C161 0.950 . S
H202 C167 0.949 . S
H203 C168 0.950 . S
H204 C172 0.951 . S
H205 C173 0.950 . S
H206 C177 0.949 . S
H207 C178 0.950 . S
H208 C182 0.950 . S
H209 C184 0.950 . S
H210 C187 0.950 . S
H211 C189 0.950 . S
C212 C213 1.443 . S
C212 N216 1.376 1_565 S
C212 C250 1.389 . S
C213 C212 1.443 . S
C213 C214 1.340 1_565 S
C213 H253 0.951 . S
C214 C213 1.340 1_545 S
C214 C215 1.439 . S
C214 H254 0.950 . S
C215 C214 1.439 . S
C215 N216 1.374 . S
C215 C249 1.395 . S
N216 C212 1.376 1_545 S
N216 C215 1.374 . S
N216 Co217 2.028 . S
Co217 N216 2.028 . S
Co217 N218 1.998 . S
Co217 N223 1.988 1_544 S
Co217 N228 1.991 1_544 S
Co217 N233 2.272 1_554 S
Co217 N239 2.293 1_545 S
N218 Co217 1.998 . S
N218 C219 1.376 . S
N218 C222 1.383 1_554 S
C219 N218 1.376 . S
C219 C220 1.446 . S
C219 C249 1.391 . S
C220 C219 1.446 . S
C220 C221 1.339 1_554 S
C220 H255 0.949 . S
C221 C220 1.339 1_556 S
C221 C222 1.439 . S
C221 H256 0.950 . S
C222 N218 1.383 1_556 S
C222 C221 1.439 . S
C222 C251 1.392 . S
N223 Co217 1.988 1_566 S
N223 C224 1.376 1_565 S
N223 C227 1.374 . S
C224 N223 1.376 1_545 S
C224 C225 1.443 . S
C224 C251 1.389 . S
C225 C224 1.443 . S
C225 C226 1.340 1_545 S
C225 H257 0.951 . S
C226 C225 1.340 1_565 S
C226 C227 1.439 . S
C226 H258 0.950 . S
C227 N223 1.374 . S
C227 C226 1.439 . S
C227 C252 1.395 . S
N228 Co217 1.991 1_566 S
N228 C229 1.376 . S
N228 C232 1.383 1_556 S
C229 N228 1.376 . S
C229 C230 1.446 . S
C229 C252 1.391 . S
C230 C229 1.446 . S
C230 C231 1.339 1_556 S
C230 H259 0.949 . S
C231 C230 1.339 1_554 S
C231 C232 1.439 . S
C231 H260 0.950 . S
C232 N228 1.383 1_554 S
C232 C231 1.439 . S
C232 C250 1.392 . S
N233 Co217 2.272 1_556 S
N233 C236 1.332 . S
N233 C238 1.332 . S
C234 C235 1.386 . S
C234 C237 1.388 . S
C235 C234 1.386 . S
C235 C236 1.382 . S
C235 H261 0.950 . S
C236 N233 1.332 . S
C236 C235 1.382 . S
C236 H247 0.952 1_545 S
C237 C234 1.388 . S
C237 C238 1.382 . S
C237 H262 0.950 . S
C238 N233 1.332 . S
C238 C237 1.382 . S
C238 H248 0.948 . S
N239 Co217 2.293 1_565 S
N239 C243 1.332 . S
N239 C244 1.332 . S
C240 C241 1.388 . S
C240 C244 1.382 . S
C240 H263 0.950 . S
C241 C240 1.388 . S
C241 C242 1.386 . S
C242 C241 1.386 . S
C242 C243 1.382 . S
C242 H264 0.950 . S
C243 N239 1.332 . S
C243 C242 1.382 . S
C243 H245 0.952 1_565 S
C244 N239 1.332 . S
C244 C240 1.382 . S
C244 H246 0.948 . S
H245 C243 0.952 1_545 S
H246 C244 0.948 . S
H247 C236 0.952 1_565 S
H248 C238 0.948 . S
C249 C215 1.395 . S
C249 C219 1.391 . S
C250 C212 1.389 . S
C250 C232 1.392 . S
C251 C222 1.392 . S
C251 C224 1.389 . S
C252 C227 1.395 . S
C252 C229 1.391 . S
H253 C213 0.951 . S
H254 C214 0.950 . S
H255 C220 0.949 . S
H256 C221 0.950 . S
H257 C225 0.951 . S
H258 C226 0.950 . S
H259 C230 0.949 . S
H260 C231 0.950 . S
H261 C235 0.950 . S
H262 C237 0.950 . S
H263 C240 0.950 . S
H264 C242 0.950 . S
C265 C266 1.443 . S
C265 N269 1.376 . S
C265 C303 1.389 . S
C266 C265 1.443 . S
C266 C267 1.340 . S
C266 H306 0.951 . S
C267 C266 1.340 . S
C267 C268 1.439 . S
C267 H307 0.950 . S
C268 C267 1.439 . S
C268 N269 1.374 . S
C268 C302 1.395 . S
N269 C265 1.376 . S
N269 C268 1.374 . S
N269 Co270 2.008 . S
Co270 N269 2.008 . S
Co270 N271 1.995 . S
Co270 N276 2.008 . S
Co270 N281 1.995 . S
Co270 N286 2.282 . S
Co270 N292 2.282 . S
N271 Co270 1.995 . S
N271 C272 1.376 . S
N271 C275 1.383 . S
C272 N271 1.376 . S
C272 C273 1.446 . S
C272 C302 1.391 . S
C273 C272 1.446 . S
C273 C274 1.339 . S
C273 H308 0.949 . S
C274 C273 1.339 . S
C274 C275 1.439 . S
C274 H309 0.950 . S
C275 N271 1.383 . S
C275 C274 1.439 . S
C275 C304 1.392 . S
N276 Co270 2.008 . S
N276 C277 1.376 . S
N276 C280 1.374 . S
C277 N276 1.376 . S
C277 C278 1.443 . S
C277 C304 1.389 . S
C278 C277 1.443 . S
C278 C279 1.340 . S
C278 H310 0.951 . S
C279 C278 1.340 . S
C279 C280 1.439 . S
C279 H311 0.950 . S
C280 N276 1.374 . S
C280 C279 1.439 . S
C280 C305 1.395 . S
N281 Co270 1.995 . S
N281 C282 1.376 . S
N281 C285 1.383 . S
C282 N281 1.376 . S
C282 C283 1.446 . S
C282 C305 1.391 . S
C283 C282 1.446 . S
C283 C284 1.339 . S
C283 H312 0.949 . S
C284 C283 1.339 . S
C284 C285 1.439 . S
C284 H313 0.950 . S
C285 N281 1.383 . S
C285 C284 1.439 . S
C285 C303 1.392 . S
N286 Co270 2.282 . S
N286 C289 1.332 . S
N286 C291 1.332 . S
C287 C288 1.386 . S
C287 C290 1.388 . S
C288 C287 1.386 . S
C288 C289 1.382 . S
C288 H314 0.950 . S
C289 N286 1.332 . S
C289 C288 1.382 . S
C289 H300 0.952 . S
C290 C287 1.388 . S
C290 C291 1.382 . S
C290 H315 0.950 . S
C291 N286 1.332 . S
C291 C290 1.382 . S
C291 H301 0.948 . S
N292 Co270 2.282 . S
N292 C296 1.332 . S
N292 C297 1.332 . S
C293 C294 1.388 . S
C293 C297 1.382 . S
C293 H316 0.950 . S
C294 C293 1.388 . S
C294 C295 1.386 . S
C295 C294 1.386 . S
C295 C296 1.382 . S
C295 H317 0.950 . S
C296 N292 1.332 . S
C296 C295 1.382 . S
C296 H298 0.952 . S
C297 N292 1.332 . S
C297 C293 1.382 . S
C297 H299 0.948 . S
H298 C296 0.952 . S
H299 C297 0.948 . S
H300 C289 0.952 . S
H301 C291 0.948 . S
C302 C268 1.395 . S
C302 C272 1.391 . S
C303 C265 1.389 . S
C303 C285 1.392 . S
C304 C275 1.392 . S
C304 C277 1.389 . S
C305 C280 1.395 . S
C305 C282 1.391 . S
H306 C266 0.951 . S
H307 C267 0.950 . S
H308 C273 0.949 . S
H309 C274 0.950 . S
H310 C278 0.951 . S
H311 C279 0.950 . S
H312 C283 0.949 . S
H313 C284 0.950 . S
H314 C288 0.950 . S
H315 C290 0.950 . S
H316 C293 0.950 . S
H317 C295 0.950 . S
C318 C319 1.384 . S
C318 C320 1.384 . S
C318 H346 0.931 . S
C319 C318 1.384 . S
C319 C322 1.382 . S
C320 C318 1.384 . S
C320 C321 1.381 . S
C320 H347 0.930 . S
C321 C320 1.381 . S
C321 C323 1.381 . S
C321 C324 1.487 . S
C322 C319 1.382 . S
C322 C323 1.387 . S
C322 H348 0.930 . S
C323 C321 1.381 . S
C323 C322 1.387 . S
C323 H349 0.931 . S
C324 C321 1.487 . S
C324 C331 1.399 . S
C324 N362 1.343 . S
C325 C326 1.384 . S
C325 C327 1.384 . S
C325 H350 0.931 . S
C326 C325 1.384 . S
C326 C329 1.382 . S
C327 C325 1.384 . S
C327 C328 1.381 . S
C327 H351 0.930 . S
C328 C327 1.381 . S
C328 C330 1.381 . S
C328 C331 1.487 . S
C329 C326 1.382 . S
C329 C330 1.387 . S
C329 H352 0.930 . S
C330 C328 1.381 . S
C330 C329 1.387 . S
C330 H353 0.931 . S
C331 C324 1.399 . S
C331 C328 1.487 . S
C331 N363 1.343 . S
C332 C333 1.384 . S
C332 C334 1.384 . S
C332 H354 0.931 . S
C333 C332 1.384 . S
C333 C336 1.382 . S
C334 C332 1.384 . S
C334 C335 1.381 . S
C334 H355 0.930 . S
C335 C334 1.381 . S
C335 C337 1.381 . S
C335 C338 1.487 . S
C336 C333 1.382 . S
C336 C337 1.387 . S
C336 H356 0.930 . S
C337 C335 1.381 . S
C337 C336 1.387 . S
C337 H357 0.931 . S
C338 C335 1.487 . S
C338 C345 1.399 . S
C338 N363 1.343 . S
C339 C340 1.384 . S
C339 C341 1.384 . S
C339 H358 0.931 . S
C340 C339 1.384 . S
C340 C343 1.382 . S
C341 C339 1.384 . S
C341 C342 1.381 . S
C341 H359 0.930 . S
C342 C341 1.381 . S
C342 C344 1.381 . S
C342 C345 1.487 . S
C343 C340 1.382 . S
C343 C344 1.387 . S
C343 H360 0.930 . S
C344 C342 1.381 . S
C344 C343 1.387 . S
C344 H361 0.931 . S
C345 C338 1.399 . S
C345 C342 1.487 . S
C345 N362 1.343 . S
H346 C318 0.931 . S
H347 C320 0.930 . S
H348 C322 0.930 . S
H349 C323 0.931 . S
H350 C325 0.931 . S
H351 C327 0.930 . S
H352 C329 0.930 . S
H353 C330 0.931 . S
H354 C332 0.931 . S
H355 C334 0.930 . S
H356 C336 0.930 . S
H357 C337 0.931 . S
H358 C339 0.931 . S
H359 C341 0.930 . S
H360 C343 0.930 . S
H361 C344 0.931 . S
N362 C324 1.343 . S
N362 C345 1.343 . S
N363 C331 1.343 . S
N363 C338 1.343 . S
C364 C365 1.384 . S
C364 C366 1.384 . S
C364 H392 0.931 . S
C365 C364 1.384 . S
C365 C368 1.382 . S
C366 C364 1.384 . S
C366 C367 1.381 . S
C366 H393 0.930 . S
C367 C366 1.381 . S
C367 C369 1.381 . S
C367 C370 1.487 . S
C368 C365 1.382 . S
C368 C369 1.387 . S
C368 H394 0.930 . S
C369 C367 1.381 . S
C369 C368 1.387 . S
C369 H395 0.931 . S
C370 C367 1.487 . S
C370 C377 1.399 . S
C370 N408 1.343 . S
C371 C372 1.384 . S
C371 C373 1.384 . S
C371 H396 0.931 . S
C372 C371 1.384 . S
C372 C375 1.382 . S
C373 C371 1.384 . S
C373 C374 1.381 . S
C373 H397 0.930 . S
C374 C373 1.381 . S
C374 C376 1.381 . S
C374 C377 1.487 . S
C375 C372 1.382 . S
C375 C376 1.387 . S
C375 H398 0.930 . S
C376 C374 1.381 . S
C376 C375 1.387 . S
C376 H399 0.931 . S
C377 C370 1.399 . S
C377 C374 1.487 . S
C377 N409 1.343 . S
C378 C379 1.384 . S
C378 C380 1.384 . S
C378 H400 0.931 . S
C379 C378 1.384 . S
C379 C382 1.382 . S
C380 C378 1.384 . S
C380 C381 1.381 . S
C380 H401 0.930 . S
C381 C380 1.381 . S
C381 C383 1.381 . S
C381 C384 1.487 . S
C382 C379 1.382 . S
C382 C383 1.387 . S
C382 H402 0.930 . S
C383 C381 1.381 . S
C383 C382 1.387 . S
C383 H403 0.931 . S
C384 C381 1.487 . S
C384 C391 1.399 . S
C384 N409 1.343 . S
C385 C386 1.384 . S
C385 C387 1.384 . S
C385 H404 0.931 . S
C386 C385 1.384 . S
C386 C389 1.382 . S
C387 C385 1.384 . S
C387 C388 1.381 . S
C387 H405 0.930 . S
C388 C387 1.381 . S
C388 C390 1.381 . S
C388 C391 1.487 . S
C389 C386 1.382 . S
C389 C390 1.387 . S
C389 H406 0.930 . S
C390 C388 1.381 . S
C390 C389 1.387 . S
C390 H407 0.931 . S
C391 C384 1.399 . S
C391 C388 1.487 . S
C391 N408 1.343 . S
H392 C364 0.931 . S
H393 C366 0.930 . S
H394 C368 0.930 . S
H395 C369 0.931 . S
H396 C371 0.931 . S
H397 C373 0.930 . S
H398 C375 0.930 . S
H399 C376 0.931 . S
H400 C378 0.931 . S
H401 C380 0.930 . S
H402 C382 0.930 . S
H403 C383 0.931 . S
H404 C385 0.931 . S
H405 C387 0.930 . S
H406 C389 0.930 . S
H407 C390 0.931 . S
N408 C370 1.343 . S
N408 C391 1.343 . S
N409 C377 1.343 . S
N409 C384 1.343 . S
C410 C411 1.384 . S
C410 C412 1.384 . S
C410 H438 0.931 . S
C411 C410 1.384 . S
C411 C414 1.382 . S
C412 C410 1.384 . S
C412 C413 1.381 . S
C412 H439 0.930 . S
C413 C412 1.381 . S
C413 C415 1.381 . S
C413 C416 1.487 . S
C414 C411 1.382 . S
C414 C415 1.387 . S
C414 H440 0.930 . S
C415 C413 1.381 . S
C415 C414 1.387 . S
C415 H441 0.931 . S
C416 C413 1.487 . S
C416 C423 1.399 . S
C416 N454 1.343 . S
C417 C418 1.384 . S
C417 C419 1.384 . S
C417 H442 0.931 . S
C418 C417 1.384 . S
C418 C421 1.382 . S
C419 C417 1.384 . S
C419 C420 1.381 . S
C419 H443 0.930 . S
C420 C419 1.381 . S
C420 C422 1.381 . S
C420 C423 1.487 . S
C421 C418 1.382 . S
C421 C422 1.387 . S
C421 H444 0.930 . S
C422 C420 1.381 . S
C422 C421 1.387 . S
C422 H445 0.931 . S
C423 C416 1.399 . S
C423 C420 1.487 . S
C423 N455 1.343 . S
C424 C425 1.384 . S
C424 C426 1.384 . S
C424 H446 0.931 . S
C425 C424 1.384 . S
C425 C428 1.382 . S
C426 C424 1.384 . S
C426 C427 1.381 . S
C426 H447 0.930 . S
C427 C426 1.381 . S
C427 C429 1.381 . S
C427 C430 1.487 . S
C428 C425 1.382 . S
C428 C429 1.387 . S
C428 H448 0.930 . S
C429 C427 1.381 . S
C429 C428 1.387 . S
C429 H449 0.931 . S
C430 C427 1.487 . S
C430 C437 1.399 . S
C430 N455 1.343 . S
C431 C432 1.384 . S
C431 C433 1.384 . S
C431 H450 0.931 . S
C432 C431 1.384 . S
C432 C435 1.382 . S
C433 C431 1.384 . S
C433 C434 1.381 . S
C433 H451 0.930 . S
C434 C433 1.381 . S
C434 C436 1.381 . S
C434 C437 1.487 . S
C435 C432 1.382 . S
C435 C436 1.387 . S
C435 H452 0.930 . S
C436 C434 1.381 . S
C436 C435 1.387 . S
C436 H453 0.931 . S
C437 C430 1.399 . S
C437 C434 1.487 . S
C437 N454 1.343 . S
H438 C410 0.931 . S
H439 C412 0.930 . S
H440 C414 0.930 . S
H441 C415 0.931 . S
H442 C417 0.931 . S
H443 C419 0.930 . S
H444 C421 0.930 . S
H445 C422 0.931 . S
H446 C424 0.931 . S
H447 C426 0.930 . S
H448 C428 0.930 . S
H449 C429 0.931 . S
H450 C431 0.931 . S
H451 C433 0.930 . S
H452 C435 0.930 . S
H453 C436 0.931 . S
N454 C416 1.343 . S
N454 C437 1.343 . S
N455 C423 1.343 . S
N455 C430 1.343 . S
C456 C457 1.384 . S
C456 C458 1.384 . S
C456 H484 0.931 . S
C457 C456 1.384 . S
C457 C460 1.382 . S
C458 C456 1.384 . S
C458 C459 1.381 . S
C458 H485 0.930 . S
C459 C458 1.381 . S
C459 C461 1.381 . S
C459 C462 1.487 . S
C460 C457 1.382 . S
C460 C461 1.387 . S
C460 H486 0.930 . S
C461 C459 1.381 . S
C461 C460 1.387 . S
C461 H487 0.931 . S
C462 C459 1.487 . S
C462 C469 1.399 . S
C462 N500 1.343 . S
C463 C464 1.384 . S
C463 C465 1.384 . S
C463 H488 0.931 . S
C464 C463 1.384 . S
C464 C467 1.382 . S
C465 C463 1.384 . S
C465 C466 1.381 . S
C465 H489 0.930 . S
C466 C465 1.381 . S
C466 C468 1.381 . S
C466 C469 1.487 . S
C467 C464 1.382 . S
C467 C468 1.387 . S
C467 H490 0.930 . S
C468 C466 1.381 . S
C468 C467 1.387 . S
C468 H491 0.931 . S
C469 C462 1.399 . S
C469 C466 1.487 . S
C469 N501 1.343 . S
C470 C471 1.384 . S
C470 C472 1.384 . S
C470 H492 0.931 . S
C471 C470 1.384 . S
C471 C474 1.382 . S
C472 C470 1.384 . S
C472 C473 1.381 . S
C472 H493 0.930 . S
C473 C472 1.381 . S
C473 C475 1.381 . S
C473 C476 1.487 . S
C474 C471 1.382 . S
C474 C475 1.387 . S
C474 H494 0.930 . S
C475 C473 1.381 . S
C475 C474 1.387 . S
C475 H495 0.931 . S
C476 C473 1.487 . S
C476 C483 1.399 . S
C476 N501 1.343 . S
C477 C478 1.384 . S
C477 C479 1.384 . S
C477 H496 0.931 . S
C478 C477 1.384 . S
C478 C481 1.382 . S
C479 C477 1.384 . S
C479 C480 1.381 . S
C479 H497 0.930 . S
C480 C479 1.381 . S
C480 C482 1.381 . S
C480 C483 1.487 . S
C481 C478 1.382 . S
C481 C482 1.387 . S
C481 H498 0.930 . S
C482 C480 1.381 . S
C482 C481 1.387 . S
C482 H499 0.931 . S
C483 C476 1.399 . S
C483 C480 1.487 . S
C483 N500 1.343 . S
H484 C456 0.931 . S
H485 C458 0.930 . S
H486 C460 0.930 . S
H487 C461 0.931 . S
H488 C463 0.931 . S
H489 C465 0.930 . S
H490 C467 0.930 . S
H491 C468 0.931 . S
H492 C470 0.931 . S
H493 C472 0.930 . S
H494 C474 0.930 . S
H495 C475 0.931 . S
H496 C477 0.931 . S
H497 C479 0.930 . S
H498 C481 0.930 . S
H499 C482 0.931 . S
N500 C462 1.343 . S
N500 C483 1.343 . S
N501 C469 1.343 . S
N501 C476 1.343 . S
C502 C503 1.384 . S
C502 C504 1.384 . S
C502 H530 0.931 . S
C503 C502 1.384 . S
C503 C506 1.382 . S
C504 C502 1.384 . S
C504 C505 1.381 . S
C504 H531 0.930 . S
C505 C504 1.381 . S
C505 C507 1.381 . S
C505 C508 1.487 . S
C506 C503 1.382 . S
C506 C507 1.387 . S
C506 H532 0.930 . S
C507 C505 1.381 . S
C507 C506 1.387 . S
C507 H533 0.931 . S
C508 C505 1.487 . S
C508 C515 1.399 . S
C508 N546 1.343 . S
C509 C510 1.384 . S
C509 C511 1.384 . S
C509 H534 0.931 . S
C510 C509 1.384 . S
C510 C513 1.382 . S
C511 C509 1.384 . S
C511 C512 1.381 . S
C511 H535 0.930 . S
C512 C511 1.381 . S
C512 C514 1.381 . S
C512 C515 1.487 . S
C513 C510 1.382 . S
C513 C514 1.387 . S
C513 H536 0.930 . S
C514 C512 1.381 . S
C514 C513 1.387 . S
C514 H537 0.931 . S
C515 C508 1.399 . S
C515 C512 1.487 . S
C515 N547 1.343 . S
C516 C517 1.384 . S
C516 C518 1.384 . S
C516 H538 0.931 . S
C517 C516 1.384 . S
C517 C520 1.382 . S
C518 C516 1.384 . S
C518 C519 1.381 . S
C518 H539 0.930 . S
C519 C518 1.381 . S
C519 C521 1.381 . S
C519 C522 1.487 . S
C520 C517 1.382 . S
C520 C521 1.387 . S
C520 H540 0.930 . S
C521 C519 1.381 . S
C521 C520 1.387 . S
C521 H541 0.931 . S
C522 C519 1.487 . S
C522 C529 1.399 . S
C522 N547 1.343 . S
C523 C524 1.384 . S
C523 C525 1.384 . S
C523 H542 0.931 . S
C524 C523 1.384 . S
C524 C527 1.382 . S
C525 C523 1.384 . S
C525 C526 1.381 . S
C525 H543 0.930 . S
C526 C525 1.381 . S
C526 C528 1.381 . S
C526 C529 1.487 . S
C527 C524 1.382 . S
C527 C528 1.387 . S
C527 H544 0.930 . S
C528 C526 1.381 . S
C528 C527 1.387 . S
C528 H545 0.931 . S
C529 C522 1.399 . S
C529 C526 1.487 . S
C529 N546 1.343 . S
H530 C502 0.931 . S
H531 C504 0.930 . S
H532 C506 0.930 . S
H533 C507 0.931 . S
H534 C509 0.931 . S
H535 C511 0.930 . S
H536 C513 0.930 . S
H537 C514 0.931 . S
H538 C516 0.931 . S
H539 C518 0.930 . S
H540 C520 0.930 . S
H541 C521 0.931 . S
H542 C523 0.931 . S
H543 C525 0.930 . S
H544 C527 0.930 . S
H545 C528 0.931 . S
N546 C508 1.343 . S
N546 C529 1.343 . S
N547 C515 1.343 . S
N547 C522 1.343 . S
C548 C549 1.384 . S
C548 C550 1.384 . S
C548 H576 0.931 . S
C549 C548 1.384 . S
C549 C552 1.382 . S
C550 C548 1.384 . S
C550 C551 1.381 . S
C550 H577 0.930 . S
C551 C550 1.381 . S
C551 C553 1.381 . S
C551 C554 1.487 . S
C552 C549 1.382 . S
C552 C553 1.387 . S
C552 H578 0.930 . S
C553 C551 1.381 . S
C553 C552 1.387 . S
C553 H579 0.931 . S
C554 C551 1.487 . S
C554 C561 1.399 . S
C554 N592 1.343 . S
C555 C556 1.384 . S
C555 C557 1.384 . S
C555 H580 0.931 . S
C556 C555 1.384 . S
C556 C559 1.382 . S
C557 C555 1.384 . S
C557 C558 1.381 . S
C557 H581 0.930 . S
C558 C557 1.381 . S
C558 C560 1.381 . S
C558 C561 1.487 . S
C559 C556 1.382 . S
C559 C560 1.387 . S
C559 H582 0.930 . S
C560 C558 1.381 . S
C560 C559 1.387 . S
C560 H583 0.931 . S
C561 C554 1.399 . S
C561 C558 1.487 . S
C561 N593 1.343 . S
C562 C563 1.384 . S
C562 C564 1.384 . S
C562 H584 0.931 . S
C563 C562 1.384 . S
C563 C566 1.382 . S
C564 C562 1.384 . S
C564 C565 1.381 . S
C564 H585 0.930 . S
C565 C564 1.381 . S
C565 C567 1.381 . S
C565 C568 1.487 . S
C566 C563 1.382 . S
C566 C567 1.387 . S
C566 H586 0.930 . S
C567 C565 1.381 . S
C567 C566 1.387 . S
C567 H587 0.931 . S
C568 C565 1.487 . S
C568 C575 1.399 . S
C568 N593 1.343 . S
C569 C570 1.384 . S
C569 C571 1.384 . S
C569 H588 0.931 . S
C570 C569 1.384 . S
C570 C573 1.382 . S
C571 C569 1.384 . S
C571 C572 1.381 . S
C571 H589 0.930 . S
C572 C571 1.381 . S
C572 C574 1.381 . S
C572 C575 1.487 . S
C573 C570 1.382 . S
C573 C574 1.387 . S
C573 H590 0.930 . S
C574 C572 1.381 . S
C574 C573 1.387 . S
C574 H591 0.931 . S
C575 C568 1.399 . S
C575 C572 1.487 . S
C575 N592 1.343 . S
H576 C548 0.931 . S
H577 C550 0.930 . S
H578 C552 0.930 . S
H579 C553 0.931 . S
H580 C555 0.931 . S
H581 C557 0.930 . S
H582 C559 0.930 . S
H583 C560 0.931 . S
H584 C562 0.931 . S
H585 C564 0.930 . S
H586 C566 0.930 . S
H587 C567 0.931 . S
H588 C569 0.931 . S
H589 C571 0.930 . S
H590 C573 0.930 . S
H591 C574 0.931 . S
N592 C554 1.343 . S
N592 C575 1.343 . S
N593 C561 1.343 . S
N593 C568 1.343 . S
C594 C595 1.349 . S
C594 C596 1.327 . S
C594 H619 0.950 . S
C595 C594 1.349 . S
C595 C611 1.349 . S
C596 C594 1.327 . S
C596 C615 1.429 . S
C596 H620 0.950 . S
C597 C614 1.574 . S
C597 C616 1.368 . S
C597 H621 0.949 . S
H598 C602 0.949 . S
C599 C600 1.349 . S
C599 C601 1.327 . S
C599 H622 0.950 . S
C600 C599 1.349 . S
C600 C612 1.349 . S
C601 C599 1.327 . S
C601 C617 1.429 . S
C601 H623 0.950 . S
C602 H598 0.949 . S
C602 C610 1.574 . S
C602 C618 1.368 . S
H603 C611 0.950 . S
H604 C609 0.950 . S
H605 C610 0.949 . S
H606 C612 0.950 . S
H607 C613 0.950 . S
H608 C614 0.949 . S
C609 H604 0.950 . S
C609 C611 1.327 . S
C609 C615 1.429 . S
C610 C602 1.574 . S
C610 H605 0.949 . S
C610 C616 1.368 . S
C611 C595 1.349 . S
C611 H603 0.950 . S
C611 C609 1.327 . S
C612 C600 1.349 . S
C612 H606 0.950 . S
C612 C613 1.327 . S
C613 H607 0.950 . S
C613 C612 1.327 . S
C613 C617 1.429 . S
C614 C597 1.574 . S
C614 H608 0.949 . S
C614 C618 1.368 . S
C615 C596 1.429 . S
C615 C609 1.429 . S
C615 C616 1.523 . S
C616 C597 1.368 . S
C616 C610 1.368 . S
C616 C615 1.523 . S
C617 C601 1.429 . S
C617 C613 1.429 . S
C617 C618 1.523 . S
C618 C602 1.368 . S
C618 C614 1.368 . S
C618 C617 1.523 . S
H619 C594 0.950 . S
H620 C596 0.950 . S
H621 C597 0.949 . S
H622 C599 0.950 . S
H623 C601 0.950 . S
C624 C625 1.349 . S
C624 C626 1.327 . S
C624 H649 0.950 . S
C625 C624 1.349 . S
C625 C641 1.349 . S
C626 C624 1.327 . S
C626 C645 1.429 . S
C626 H650 0.950 . S
C627 C644 1.574 . S
C627 C646 1.368 . S
C627 H651 0.949 . S
H628 C632 0.949 . S
C629 C630 1.349 . S
C629 C631 1.327 . S
C629 H652 0.950 . S
C630 C629 1.349 . S
C630 C642 1.349 . S
C631 C629 1.327 . S
C631 C647 1.429 . S
C631 H653 0.950 . S
C632 H628 0.949 . S
C632 C640 1.574 . S
C632 C648 1.368 . S
H633 C641 0.950 . S
H634 C639 0.950 . S
H635 C640 0.949 . S
H636 C642 0.950 . S
H637 C643 0.950 . S
H638 C644 0.949 . S
C639 H634 0.950 . S
C639 C641 1.327 . S
C639 C645 1.429 . S
C640 C632 1.574 . S
C640 H635 0.949 . S
C640 C646 1.368 . S
C641 C625 1.349 . S
C641 H633 0.950 . S
C641 C639 1.327 . S
C642 C630 1.349 . S
C642 H636 0.950 . S
C642 C643 1.327 . S
C643 H637 0.950 . S
C643 C642 1.327 . S
C643 C647 1.429 . S
C644 C627 1.574 . S
C644 H638 0.949 . S
C644 C648 1.368 . S
C645 C626 1.429 . S
C645 C639 1.429 . S
C645 C646 1.523 . S
C646 C627 1.368 . S
C646 C640 1.368 . S
C646 C645 1.523 . S
C647 C631 1.429 . S
C647 C643 1.429 . S
C647 C648 1.523 . S
C648 C632 1.368 . S
C648 C644 1.368 . S
C648 C647 1.523 . S
H649 C624 0.950 . S
H650 C626 0.950 . S
H651 C627 0.949 . S
H652 C629 0.950 . S
H653 C631 0.950 . S
C654 C655 1.349 . S
C654 C656 1.327 . S
C654 H679 0.950 . S
C655 C654 1.349 . S
C655 C671 1.349 . S
C656 C654 1.327 . S
C656 C675 1.429 . S
C656 H680 0.950 . S
C657 C674 1.574 . S
C657 C676 1.368 . S
C657 H681 0.949 . S
H658 C662 0.949 . S
C659 C660 1.349 . S
C659 C661 1.327 . S
C659 H682 0.950 . S
C660 C659 1.349 . S
C660 C672 1.349 . S
C661 C659 1.327 . S
C661 C677 1.429 . S
C661 H683 0.950 . S
C662 H658 0.949 . S
C662 C670 1.574 . S
C662 C678 1.368 . S
H663 C671 0.950 . S
H664 C669 0.950 . S
H665 C670 0.949 . S
H666 C672 0.950 . S
H667 C673 0.950 . S
H668 C674 0.949 . S
C669 H664 0.950 . S
C669 C671 1.327 . S
C669 C675 1.429 . S
C670 C662 1.574 . S
C670 H665 0.949 . S
C670 C676 1.368 . S
C671 C655 1.349 . S
C671 H663 0.950 . S
C671 C669 1.327 . S
C672 C660 1.349 . S
C672 H666 0.950 . S
C672 C673 1.327 . S
C673 H667 0.950 . S
C673 C672 1.327 . S
C673 C677 1.429 . S
C674 C657 1.574 . S
C674 H668 0.949 . S
C674 C678 1.368 . S
C675 C656 1.429 . S
C675 C669 1.429 . S
C675 C676 1.523 . S
C676 C657 1.368 . S
C676 C670 1.368 . S
C676 C675 1.523 . S
C677 C661 1.429 . S
C677 C673 1.429 . S
C677 C678 1.523 . S
C678 C662 1.368 . S
C678 C674 1.368 . S
C678 C677 1.523 . S
H679 C654 0.950 . S
H680 C656 0.950 . S
H681 C657 0.949 . S
H682 C659 0.950 . S
H683 C661 0.950 . S
C684 C685 1.349 . S
C684 C686 1.327 . S
C684 H709 0.950 . S
C685 C684 1.349 . S
C685 C701 1.349 . S
C686 C684 1.327 . S
C686 C705 1.429 . S
C686 H710 0.950 . S
C687 C704 1.574 . S
C687 C706 1.368 . S
C687 H711 0.949 . S
H688 C692 0.949 . S
C689 C690 1.349 . S
C689 C691 1.327 . S
C689 H712 0.950 . S
C690 C689 1.349 . S
C690 C702 1.349 . S
C691 C689 1.327 . S
C691 C707 1.429 . S
C691 H713 0.950 . S
C692 H688 0.949 . S
C692 C700 1.574 . S
C692 C708 1.368 . S
H693 C701 0.950 . S
H694 C699 0.950 . S
H695 C700 0.949 . S
H696 C702 0.950 . S
H697 C703 0.950 . S
H698 C704 0.949 . S
C699 H694 0.950 . S
C699 C701 1.327 . S
C699 C705 1.429 . S
C700 C692 1.574 . S
C700 H695 0.949 . S
C700 C706 1.368 . S
C701 C685 1.349 . S
C701 H693 0.950 . S
C701 C699 1.327 . S
C702 C690 1.349 . S
C702 H696 0.950 . S
C702 C703 1.327 . S
C703 H697 0.950 . S
C703 C702 1.327 . S
C703 C707 1.429 . S
C704 C687 1.574 . S
C704 H698 0.949 . S
C704 C708 1.368 . S
C705 C686 1.429 . S
C705 C699 1.429 . S
C705 C706 1.523 . S
C706 C687 1.368 . S
C706 C700 1.368 . S
C706 C705 1.523 . S
C707 C691 1.429 . S
C707 C703 1.429 . S
C707 C708 1.523 . S
C708 C692 1.368 . S
C708 C704 1.368 . S
C708 C707 1.523 . S
H709 C684 0.950 . S
H710 C686 0.950 . S
H711 C687 0.949 . S
H712 C689 0.950 . S
H713 C691 0.950 . S
C714 C715 1.349 . S
C714 C716 1.327 . S
C714 H739 0.950 . S
C715 C714 1.349 . S
C715 C731 1.349 . S
C716 C714 1.327 . S
C716 C735 1.429 . S
C716 H740 0.950 . S
C717 C734 1.574 . S
C717 C736 1.368 . S
C717 H741 0.949 . S
H718 C722 0.949 . S
C719 C720 1.349 . S
C719 C721 1.327 . S
C719 H742 0.950 . S
C720 C719 1.349 . S
C720 C732 1.349 . S
C721 C719 1.327 . S
C721 C737 1.429 . S
C721 H743 0.950 . S
C722 H718 0.949 . S
C722 C730 1.574 . S
C722 C738 1.368 . S
H723 C731 0.950 . S
H724 C729 0.950 . S
H725 C730 0.949 . S
H726 C732 0.950 . S
H727 C733 0.950 . S
H728 C734 0.949 . S
C729 H724 0.950 . S
C729 C731 1.327 . S
C729 C735 1.429 . S
C730 C722 1.574 . S
C730 H725 0.949 . S
C730 C736 1.368 . S
C731 C715 1.349 . S
C731 H723 0.950 . S
C731 C729 1.327 . S
C732 C720 1.349 . S
C732 H726 0.950 . S
C732 C733 1.327 . S
C733 H727 0.950 . S
C733 C732 1.327 . S
C733 C737 1.429 . S
C734 C717 1.574 . S
C734 H728 0.949 . S
C734 C738 1.368 . S
C735 C716 1.429 . S
C735 C729 1.429 . S
C735 C736 1.523 . S
C736 C717 1.368 . S
C736 C730 1.368 . S
C736 C735 1.523 . S
C737 C721 1.429 . S
C737 C733 1.429 . S
C737 C738 1.523 . S
C738 C722 1.368 . S
C738 C734 1.368 . S
C738 C737 1.523 . S
H739 C714 0.950 . S
H740 C716 0.950 . S
H741 C717 0.949 . S
H742 C719 0.950 . S
H743 C721 0.950 . S
C744 C745 1.349 . S
C744 C746 1.327 . S
C744 H769 0.950 . S
C745 C744 1.349 . S
C745 C761 1.349 . S
C746 C744 1.327 . S
C746 C765 1.429 . S
C746 H770 0.950 . S
C747 C764 1.574 . S
C747 C766 1.368 . S
C747 H771 0.949 . S
H748 C752 0.949 . S
C749 C750 1.349 . S
C749 C751 1.327 . S
C749 H772 0.950 . S
C750 C749 1.349 . S
C750 C762 1.349 . S
C751 C749 1.327 . S
C751 C767 1.429 . S
C751 H773 0.950 . S
C752 H748 0.949 . S
C752 C760 1.574 . S
C752 C768 1.368 . S
H753 C761 0.950 . S
H754 C759 0.950 . S
H755 C760 0.949 . S
H756 C762 0.950 . S
H757 C763 0.950 . S
H758 C764 0.949 . S
C759 H754 0.950 . S
C759 C761 1.327 . S
C759 C765 1.429 . S
C760 C752 1.574 . S
C760 H755 0.949 . S
C760 C766 1.368 . S
C761 C745 1.349 . S
C761 H753 0.950 . S
C761 C759 1.327 . S
C762 C750 1.349 . S
C762 H756 0.950 . S
C762 C763 1.327 . S
C763 H757 0.950 . S
C763 C762 1.327 . S
C763 C767 1.429 . S
C764 C747 1.574 . S
C764 H758 0.949 . S
C764 C768 1.368 . S
C765 C746 1.429 . S
C765 C759 1.429 . S
C765 C766 1.523 . S
C766 C747 1.368 . S
C766 C760 1.368 . S
C766 C765 1.523 . S
C767 C751 1.429 . S
C767 C763 1.429 . S
C767 C768 1.523 . S
C768 C752 1.368 . S
C768 C764 1.368 . S
C768 C767 1.523 . S
H769 C744 0.950 . S
H770 C746 0.950 . S
H771 C747 0.949 . S
H772 C749 0.950 . S
H773 C751 0.950 . S
C774 C775 1.349 . S
C774 C776 1.327 . S
C774 H799 0.950 . S
C775 C774 1.349 . S
C775 C791 1.349 . S
C776 C774 1.327 . S
C776 C795 1.429 . S
C776 H800 0.950 . S
C777 C794 1.574 . S
C777 C796 1.368 . S
C777 H801 0.949 . S
H778 C782 0.949 . S
C779 C780 1.349 . S
C779 C781 1.327 . S
C779 H802 0.950 . S
C780 C779 1.349 . S
C780 C792 1.349 . S
C781 C779 1.327 . S
C781 C797 1.429 . S
C781 H803 0.950 . S
C782 H778 0.949 . S
C782 C790 1.574 . S
C782 C798 1.368 . S
H783 C791 0.950 . S
H784 C789 0.950 . S
H785 C790 0.949 . S
H786 C792 0.950 . S
H787 C793 0.950 . S
H788 C794 0.949 . S
C789 H784 0.950 . S
C789 C791 1.327 . S
C789 C795 1.429 . S
C790 C782 1.574 . S
C790 H785 0.949 . S
C790 C796 1.368 . S
C791 C775 1.349 . S
C791 H783 0.950 . S
C791 C789 1.327 . S
C792 C780 1.349 . S
C792 H786 0.950 . S
C792 C793 1.327 . S
C793 H787 0.950 . S
C793 C792 1.327 . S
C793 C797 1.429 . S
C794 C777 1.574 . S
C794 H788 0.949 . S
C794 C798 1.368 . S
C795 C776 1.429 . S
C795 C789 1.429 . S
C795 C796 1.523 . S
C796 C777 1.368 . S
C796 C790 1.368 . S
C796 C795 1.523 . S
C797 C781 1.429 . S
C797 C793 1.429 . S
C797 C798 1.523 . S
C798 C782 1.368 . S
C798 C794 1.368 . S
C798 C797 1.523 . S
H799 C774 0.950 . S
H800 C776 0.950 . S
H801 C777 0.949 . S
H802 C779 0.950 . S
H803 C781 0.950 . S
C804 C805 1.349 . S
C804 C806 1.327 . S
C804 H829 0.950 . S
C805 C804 1.349 . S
C805 C821 1.349 . S
C806 C804 1.327 . S
C806 C825 1.429 . S
C806 H830 0.950 . S
C807 C824 1.574 . S
C807 C826 1.368 . S
C807 H831 0.949 . S
H808 C812 0.949 . S
C809 C810 1.349 . S
C809 C811 1.327 . S
C809 H832 0.950 . S
C810 C809 1.349 . S
C810 C822 1.349 . S
C811 C809 1.327 . S
C811 C827 1.429 . S
C811 H833 0.950 . S
C812 H808 0.949 . S
C812 C820 1.574 . S
C812 C828 1.368 . S
H813 C821 0.950 . S
H814 C819 0.950 . S
H815 C820 0.949 . S
H816 C822 0.950 . S
H817 C823 0.950 . S
H818 C824 0.949 . S
C819 H814 0.950 . S
C819 C821 1.327 . S
C819 C825 1.429 . S
C820 C812 1.574 . S
C820 H815 0.949 . S
C820 C826 1.368 . S
C821 C805 1.349 . S
C821 H813 0.950 . S
C821 C819 1.327 . S
C822 C810 1.349 . S
C822 H816 0.950 . S
C822 C823 1.327 . S
C823 H817 0.950 . S
C823 C822 1.327 . S
C823 C827 1.429 . S
C824 C807 1.574 . S
C824 H818 0.949 . S
C824 C828 1.368 . S
C825 C806 1.429 . S
C825 C819 1.429 . S
C825 C826 1.523 . S
C826 C807 1.368 . S
C826 C820 1.368 . S
C826 C825 1.523 . S
C827 C811 1.429 . S
C827 C823 1.429 . S
C827 C828 1.523 . S
C828 C812 1.368 . S
C828 C824 1.368 . S
C828 C827 1.523 . S
H829 C804 0.950 . S
H830 C806 0.950 . S
H831 C807 0.949 . S
H832 C809 0.950 . S
H833 C811 0.950 . S
C834 C835 1.349 . S
C834 C836 1.327 . S
C834 H859 0.950 . S
C835 C834 1.349 . S
C835 C851 1.349 . S
C836 C834 1.327 . S
C836 C855 1.429 . S
C836 H860 0.950 . S
C837 C854 1.574 . S
C837 C856 1.368 . S
C837 H861 0.949 . S
H838 C842 0.949 . S
C839 C840 1.349 . S
C839 C841 1.327 . S
C839 H862 0.950 . S
C840 C839 1.349 . S
C840 C852 1.349 . S
C841 C839 1.327 . S
C841 C857 1.429 . S
C841 H863 0.950 . S
C842 H838 0.949 . S
C842 C850 1.574 . S
C842 C858 1.368 . S
H843 C851 0.950 . S
H844 C849 0.950 . S
H845 C850 0.949 . S
H846 C852 0.950 . S
H847 C853 0.950 . S
H848 C854 0.949 . S
C849 H844 0.950 . S
C849 C851 1.327 . S
C849 C855 1.429 . S
C850 C842 1.574 . S
C850 H845 0.949 . S
C850 C856 1.368 . S
C851 C835 1.349 . S
C851 H843 0.950 . S
C851 C849 1.327 . S
C852 C840 1.349 . S
C852 H846 0.950 . S
C852 C853 1.327 . S
C853 H847 0.950 . S
C853 C852 1.327 . S
C853 C857 1.429 . S
C854 C837 1.574 . S
C854 H848 0.949 . S
C854 C858 1.368 . S
C855 C836 1.429 . S
C855 C849 1.429 . S
C855 C856 1.523 . S
C856 C837 1.368 . S
C856 C850 1.368 . S
C856 C855 1.523 . S
C857 C841 1.429 . S
C857 C853 1.429 . S
C857 C858 1.523 . S
C858 C842 1.368 . S
C858 C854 1.368 . S
C858 C857 1.523 . S
H859 C834 0.950 . S
H860 C836 0.950 . S
H861 C837 0.949 . S
H862 C839 0.950 . S
H863 C841 0.950 . S
C864 C865 1.349 . S
C864 C866 1.327 . S
C864 H889 0.950 . S
C865 C864 1.349 . S
C865 C881 1.349 . S
C866 C864 1.327 . S
C866 C885 1.429 . S
C866 H890 0.950 . S
C867 C884 1.574 . S
C867 C886 1.368 . S
C867 H891 0.949 . S
H868 C872 0.949 . S
C869 C870 1.349 . S
C869 C871 1.327 . S
C869 H892 0.950 . S
C870 C869 1.349 . S
C870 C882 1.349 . S
C871 C869 1.327 . S
C871 C887 1.429 . S
C871 H893 0.950 . S
C872 H868 0.949 . S
C872 C880 1.574 . S
C872 C888 1.368 . S
H873 C881 0.950 . S
H874 C879 0.950 . S
H875 C880 0.949 . S
H876 C882 0.950 . S
H877 C883 0.950 . S
H878 C884 0.949 . S
C879 H874 0.950 . S
C879 C881 1.327 . S
C879 C885 1.429 . S
C880 C872 1.574 . S
C880 H875 0.949 . S
C880 C886 1.368 . S
C881 C865 1.349 . S
C881 H873 0.950 . S
C881 C879 1.327 . S
C882 C870 1.349 . S
C882 H876 0.950 . S
C882 C883 1.327 . S
C883 H877 0.950 . S
C883 C882 1.327 . S
C883 C887 1.429 . S
C884 C867 1.574 . S
C884 H878 0.949 . S
C884 C888 1.368 . S
C885 C866 1.429 . S
C885 C879 1.429 . S
C885 C886 1.523 . S
C886 C867 1.368 . S
C886 C880 1.368 . S
C886 C885 1.523 . S
C887 C871 1.429 . S
C887 C883 1.429 . S
C887 C888 1.523 . S
C888 C872 1.368 . S
C888 C884 1.368 . S
C888 C887 1.523 . S
H889 C864 0.950 . S
H890 C866 0.950 . S
H891 C867 0.949 . S
H892 C869 0.950 . S
H893 C871 0.950 . S
C894 C895 1.349 . S
C894 C896 1.327 . S
C894 H919 0.950 . S
C895 C894 1.349 . S
C895 C911 1.349 . S
C896 C894 1.327 . S
C896 C915 1.429 . S
C896 H920 0.950 . S
C897 C914 1.574 . S
C897 C916 1.368 . S
C897 H921 0.949 . S
H898 C902 0.949 . S
C899 C900 1.349 . S
C899 C901 1.327 . S
C899 H922 0.950 . S
C900 C899 1.349 . S
C900 C912 1.349 . S
C901 C899 1.327 . S
C901 C917 1.429 . S
C901 H923 0.950 . S
C902 H898 0.949 . S
C902 C910 1.574 . S
C902 C918 1.368 . S
H903 C911 0.950 . S
H904 C909 0.950 . S
H905 C910 0.949 . S
H906 C912 0.950 . S
H907 C913 0.950 . S
H908 C914 0.949 . S
C909 H904 0.950 . S
C909 C911 1.327 . S
C909 C915 1.429 . S
C910 C902 1.574 . S
C910 H905 0.949 . S
C910 C916 1.368 . S
C911 C895 1.349 . S
C911 H903 0.950 . S
C911 C909 1.327 . S
C912 C900 1.349 . S
C912 H906 0.950 . S
C912 C913 1.327 . S
C913 H907 0.950 . S
C913 C912 1.327 . S
C913 C917 1.429 . S
C914 C897 1.574 . S
C914 H908 0.949 . S
C914 C918 1.368 . S
C915 C896 1.429 . S
C915 C909 1.429 . S
C915 C916 1.523 . S
C916 C897 1.368 . S
C916 C910 1.368 . S
C916 C915 1.523 . S
C917 C901 1.429 . S
C917 C913 1.429 . S
C917 C918 1.523 . S
C918 C902 1.368 . S
C918 C914 1.368 . S
C918 C917 1.523 . S
H919 C894 0.950 . S
H920 C896 0.950 . S
H921 C897 0.949 . S
H922 C899 0.950 . S
H923 C901 0.950 . S
C924 C925 1.349 . S
C924 C926 1.327 . S
C924 H949 0.950 . S
C925 C924 1.349 . S
C925 C941 1.349 . S
C926 C924 1.327 . S
C926 C945 1.429 . S
C926 H950 0.950 . S
C927 C944 1.574 . S
C927 C946 1.368 . S
C927 H951 0.949 . S
H928 C932 0.949 . S
C929 C930 1.349 . S
C929 C931 1.327 . S
C929 H952 0.950 . S
C930 C929 1.349 . S
C930 C942 1.349 . S
C931 C929 1.327 . S
C931 C947 1.429 . S
C931 H953 0.950 . S
C932 H928 0.949 . S
C932 C940 1.574 . S
C932 C948 1.368 . S
H933 C941 0.950 . S
H934 C939 0.950 . S
H935 C940 0.949 . S
H936 C942 0.950 . S
H937 C943 0.950 . S
H938 C944 0.949 . S
C939 H934 0.950 . S
C939 C941 1.327 . S
C939 C945 1.429 . S
C940 C932 1.574 . S
C940 H935 0.949 . S
C940 C946 1.368 . S
C941 C925 1.349 . S
C941 H933 0.950 . S
C941 C939 1.327 . S
C942 C930 1.349 . S
C942 H936 0.950 . S
C942 C943 1.327 . S
C943 H937 0.950 . S
C943 C942 1.327 . S
C943 C947 1.429 . S
C944 C927 1.574 . S
C944 H938 0.949 . S
C944 C948 1.368 . S
C945 C926 1.429 . S
C945 C939 1.429 . S
C945 C946 1.523 . S
C946 C927 1.368 . S
C946 C940 1.368 . S
C946 C945 1.523 . S
C947 C931 1.429 . S
C947 C943 1.429 . S
C947 C948 1.523 . S
C948 C932 1.368 . S
C948 C944 1.368 . S
C948 C947 1.523 . S
H949 C924 0.950 . S
H950 C926 0.950 . S
H951 C927 0.949 . S
H952 C929 0.950 . S
H953 C931 0.950 . S
C954 C955 1.349 . S
C954 C956 1.327 . S
C954 H979 0.950 . S
C955 C954 1.349 . S
C955 C971 1.349 . S
C956 C954 1.327 . S
C956 C975 1.429 . S
C956 H980 0.950 . S
C957 C974 1.574 . S
C957 C976 1.368 . S
C957 H981 0.949 . S
H958 C962 0.949 . S
C959 C960 1.349 . S
C959 C961 1.327 . S
C959 H982 0.950 . S
C960 C959 1.349 . S
C960 C972 1.349 . S
C961 C959 1.327 . S
C961 C977 1.429 . S
C961 H983 0.950 . S
C962 H958 0.949 . S
C962 C970 1.574 . S
C962 C978 1.368 . S
H963 C971 0.950 . S
H964 C969 0.950 . S
H965 C970 0.949 . S
H966 C972 0.950 . S
H967 C973 0.950 . S
H968 C974 0.949 . S
C969 H964 0.950 . S
C969 C971 1.327 . S
C969 C975 1.429 . S
C970 C962 1.574 . S
C970 H965 0.949 . S
C970 C976 1.368 . S
C971 C955 1.349 . S
C971 H963 0.950 . S
C971 C969 1.327 . S
C972 C960 1.349 . S
C972 H966 0.950 . S
C972 C973 1.327 . S
C973 H967 0.950 . S
C973 C972 1.327 . S
C973 C977 1.429 . S
C974 C957 1.574 . S
C974 H968 0.949 . S
C974 C978 1.368 . S
C975 C956 1.429 . S
C975 C969 1.429 . S
C975 C976 1.523 . S
C976 C957 1.368 . S
C976 C970 1.368 . S
C976 C975 1.523 . S
C977 C961 1.429 . S
C977 C973 1.429 . S
C977 C978 1.523 . S
C978 C962 1.368 . S
C978 C974 1.368 . S
C978 C977 1.523 . S
H979 C954 0.950 . S
H980 C956 0.950 . S
H981 C957 0.949 . S
H982 C959 0.950 . S
H983 C961 0.950 . S
C984 C985 1.349 . S
C984 C986 1.327 . S
C984 H1009 0.950 . S
C985 C984 1.349 . S
C985 C1001 1.349 . S
C986 C984 1.327 . S
C986 C1005 1.429 . S
C986 H1010 0.950 . S
C987 C1004 1.574 . S
C987 C1006 1.368 . S
C987 H1011 0.949 . S
H988 C992 0.949 . S
C989 C990 1.349 . S
C989 C991 1.327 . S
C989 H1012 0.950 . S
C990 C989 1.349 . S
C990 C1002 1.349 . S
C991 C989 1.327 . S
C991 C1007 1.429 . S
C991 H1013 0.950 . S
C992 H988 0.949 . S
C992 C1000 1.574 . S
C992 C1008 1.368 . S
H993 C1001 0.950 . S
H994 C999 0.950 . S
H995 C1000 0.949 . S
H996 C1002 0.950 . S
H997 C1003 0.950 . S
H998 C1004 0.949 . S
C999 H994 0.950 . S
C999 C1001 1.327 . S
C999 C1005 1.429 . S
C1000 C992 1.574 . S
C1000 H995 0.949 . S
C1000 C1006 1.368 . S
C1001 C985 1.349 . S
C1001 H993 0.950 . S
C1001 C999 1.327 . S
C1002 C990 1.349 . S
C1002 H996 0.950 . S
C1002 C1003 1.327 . S
C1003 H997 0.950 . S
C1003 C1002 1.327 . S
C1003 C1007 1.429 . S
C1004 C987 1.574 . S
C1004 H998 0.949 . S
C1004 C1008 1.368 . S
C1005 C986 1.429 . S
C1005 C999 1.429 . S
C1005 C1006 1.523 . S
C1006 C987 1.368 . S
C1006 C1000 1.368 . S
C1006 C1005 1.523 . S
C1007 C991 1.429 . S
C1007 C1003 1.429 . S
C1007 C1008 1.523 . S
C1008 C992 1.368 . S
C1008 C1004 1.368 . S
C1008 C1007 1.523 . S
H1009 C984 0.950 . S
H1010 C986 0.950 . S
H1011 C987 0.949 . S
H1012 C989 0.950 . S
H1013 C991 0.950 . S
C1014 C1015 1.349 . S
C1014 C1016 1.327 . S
C1014 H1039 0.950 . S
C1015 C1014 1.349 . S
C1015 C1031 1.349 . S
C1016 C1014 1.327 . S
C1016 C1035 1.429 . S
C1016 H1040 0.950 . S
C1017 C1034 1.574 . S
C1017 C1036 1.368 . S
C1017 H1041 0.949 . S
H1018 C1022 0.949 . S
C1019 C1020 1.349 . S
C1019 C1021 1.327 . S
C1019 H1042 0.950 . S
C1020 C1019 1.349 . S
C1020 C1032 1.349 . S
C1021 C1019 1.327 . S
C1021 C1037 1.429 . S
C1021 H1043 0.950 . S
C1022 H1018 0.949 . S
C1022 C1030 1.574 . S
C1022 C1038 1.368 . S
H1023 C1031 0.950 . S
H1024 C1029 0.950 . S
H1025 C1030 0.949 . S
H1026 C1032 0.950 . S
H1027 C1033 0.950 . S
H1028 C1034 0.949 . S
C1029 H1024 0.950 . S
C1029 C1031 1.327 . S
C1029 C1035 1.429 . S
C1030 C1022 1.574 . S
C1030 H1025 0.949 . S
C1030 C1036 1.368 . S
C1031 C1015 1.349 . S
C1031 H1023 0.950 . S
C1031 C1029 1.327 . S
C1032 C1020 1.349 . S
C1032 H1026 0.950 . S
C1032 C1033 1.327 . S
C1033 H1027 0.950 . S
C1033 C1032 1.327 . S
C1033 C1037 1.429 . S
C1034 C1017 1.574 . S
C1034 H1028 0.949 . S
C1034 C1038 1.368 . S
C1035 C1016 1.429 . S
C1035 C1029 1.429 . S
C1035 C1036 1.523 . S
C1036 C1017 1.368 . S
C1036 C1030 1.368 . S
C1036 C1035 1.523 . S
C1037 C1021 1.429 . S
C1037 C1033 1.429 . S
C1037 C1038 1.523 . S
C1038 C1022 1.368 . S
C1038 C1034 1.368 . S
C1038 C1037 1.523 . S
H1039 C1014 0.950 . S
H1040 C1016 0.950 . S
H1041 C1017 0.949 . S
H1042 C1019 0.950 . S
H1043 C1021 0.950 . S
C1044 C1045 1.349 . S
C1044 C1046 1.327 . S
C1044 H1069 0.950 . S
C1045 C1044 1.349 . S
C1045 C1061 1.349 . S
C1046 C1044 1.327 . S
C1046 C1065 1.429 . S
C1046 H1070 0.950 . S
C1047 C1064 1.574 . S
C1047 C1066 1.368 . S
C1047 H1071 0.949 . S
H1048 C1052 0.949 . S
C1049 C1050 1.349 . S
C1049 C1051 1.327 . S
C1049 H1072 0.950 . S
C1050 C1049 1.349 . S
C1050 C1062 1.349 . S
C1051 C1049 1.327 . S
C1051 C1067 1.429 . S
C1051 H1073 0.950 . S
C1052 H1048 0.949 . S
C1052 C1060 1.574 . S
C1052 C1068 1.368 . S
H1053 C1061 0.950 . S
H1054 C1059 0.950 . S
H1055 C1060 0.949 . S
H1056 C1062 0.950 . S
H1057 C1063 0.950 . S
H1058 C1064 0.949 . S
C1059 H1054 0.950 . S
C1059 C1061 1.327 . S
C1059 C1065 1.429 . S
C1060 C1052 1.574 . S
C1060 H1055 0.949 . S
C1060 C1066 1.368 . S
C1061 C1045 1.349 . S
C1061 H1053 0.950 . S
C1061 C1059 1.327 . S
C1062 C1050 1.349 . S
C1062 H1056 0.950 . S
C1062 C1063 1.327 . S
C1063 H1057 0.950 . S
C1063 C1062 1.327 . S
C1063 C1067 1.429 . S
C1064 C1047 1.574 . S
C1064 H1058 0.949 . S
C1064 C1068 1.368 . S
C1065 C1046 1.429 . S
C1065 C1059 1.429 . S
C1065 C1066 1.523 . S
C1066 C1047 1.368 . S
C1066 C1060 1.368 . S
C1066 C1065 1.523 . S
C1067 C1051 1.429 . S
C1067 C1063 1.429 . S
C1067 C1068 1.523 . S
C1068 C1052 1.368 . S
C1068 C1064 1.368 . S
C1068 C1067 1.523 . S
H1069 C1044 0.950 . S
H1070 C1046 0.950 . S
H1071 C1047 0.949 . S
H1072 C1049 0.950 . S
H1073 C1051 0.950 . S
C1074 C1075 1.349 . S
C1074 C1076 1.327 . S
C1074 H1099 0.950 . S
C1075 C1074 1.349 . S
C1075 C1091 1.349 . S
C1076 C1074 1.327 . S
C1076 C1095 1.429 . S
C1076 H1100 0.950 . S
C1077 C1094 1.574 . S
C1077 C1096 1.368 . S
C1077 H1101 0.949 . S
H1078 C1082 0.949 . S
C1079 C1080 1.349 . S
C1079 C1081 1.327 . S
C1079 H1102 0.950 . S
C1080 C1079 1.349 . S
C1080 C1092 1.349 . S
C1081 C1079 1.327 . S
C1081 C1097 1.429 . S
C1081 H1103 0.950 . S
C1082 H1078 0.949 . S
C1082 C1090 1.574 . S
C1082 C1098 1.368 . S
H1083 C1091 0.950 . S
H1084 C1089 0.950 . S
H1085 C1090 0.949 . S
H1086 C1092 0.950 . S
H1087 C1093 0.950 . S
H1088 C1094 0.949 . S
C1089 H1084 0.950 . S
C1089 C1091 1.327 . S
C1089 C1095 1.429 . S
C1090 C1082 1.574 . S
C1090 H1085 0.949 . S
C1090 C1096 1.368 . S
C1091 C1075 1.349 . S
C1091 H1083 0.950 . S
C1091 C1089 1.327 . S
C1092 C1080 1.349 . S
C1092 H1086 0.950 . S
C1092 C1093 1.327 . S
C1093 H1087 0.950 . S
C1093 C1092 1.327 . S
C1093 C1097 1.429 . S
C1094 C1077 1.574 . S
C1094 H1088 0.949 . S
C1094 C1098 1.368 . S
C1095 C1076 1.429 . S
C1095 C1089 1.429 . S
C1095 C1096 1.523 . S
C1096 C1077 1.368 . S
C1096 C1090 1.368 . S
C1096 C1095 1.523 . S
C1097 C1081 1.429 . S
C1097 C1093 1.429 . S
C1097 C1098 1.523 . S
C1098 C1082 1.368 . S
C1098 C1094 1.368 . S
C1098 C1097 1.523 . S
H1099 C1074 0.950 . S
H1100 C1076 0.950 . S
H1101 C1077 0.949 . S
H1102 C1079 0.950 . S
H1103 C1081 0.950 . S
C1104 C1105 1.349 . S
C1104 C1106 1.327 . S
C1104 H1129 0.950 . S
C1105 C1104 1.349 . S
C1105 C1121 1.349 . S
C1106 C1104 1.327 . S
C1106 C1125 1.429 . S
C1106 H1130 0.950 . S
C1107 C1124 1.574 . S
C1107 C1126 1.368 . S
C1107 H1131 0.949 . S
H1108 C1112 0.949 . S
C1109 C1110 1.349 . S
C1109 C1111 1.327 . S
C1109 H1132 0.950 . S
C1110 C1109 1.349 . S
C1110 C1122 1.349 . S
C1111 C1109 1.327 . S
C1111 C1127 1.429 . S
C1111 H1133 0.950 . S
C1112 H1108 0.949 . S
C1112 C1120 1.574 . S
C1112 C1128 1.368 . S
H1113 C1121 0.950 . S
H1114 C1119 0.950 . S
H1115 C1120 0.949 . S
H1116 C1122 0.950 . S
H1117 C1123 0.950 . S
H1118 C1124 0.949 . S
C1119 H1114 0.950 . S
C1119 C1121 1.327 . S
C1119 C1125 1.429 . S
C1120 C1112 1.574 . S
C1120 H1115 0.949 . S
C1120 C1126 1.368 . S
C1121 C1105 1.349 . S
C1121 H1113 0.950 . S
C1121 C1119 1.327 . S
C1122 C1110 1.349 . S
C1122 H1116 0.950 . S
C1122 C1123 1.327 . S
C1123 H1117 0.950 . S
C1123 C1122 1.327 . S
C1123 C1127 1.429 . S
C1124 C1107 1.574 . S
C1124 H1118 0.949 . S
C1124 C1128 1.368 . S
C1125 C1106 1.429 . S
C1125 C1119 1.429 . S
C1125 C1126 1.523 . S
C1126 C1107 1.368 . S
C1126 C1120 1.368 . S
C1126 C1125 1.523 . S
C1127 C1111 1.429 . S
C1127 C1123 1.429 . S
C1127 C1128 1.523 . S
C1128 C1112 1.368 . S
C1128 C1124 1.368 . S
C1128 C1127 1.523 . S
H1129 C1104 0.950 . S
H1130 C1106 0.950 . S
H1131 C1107 0.949 . S
H1132 C1109 0.950 . S
H1133 C1111 0.950 . S
C1134 C1135 1.349 . S
C1134 C1136 1.327 . S
C1134 H1159 0.950 . S
C1135 C1134 1.349 . S
C1135 C1151 1.349 . S
C1136 C1134 1.327 . S
C1136 C1155 1.429 . S
C1136 H1160 0.950 . S
C1137 C1154 1.574 . S
C1137 C1156 1.368 . S
C1137 H1161 0.949 . S
H1138 C1142 0.949 . S
C1139 C1140 1.349 . S
C1139 C1141 1.327 . S
C1139 H1162 0.950 . S
C1140 C1139 1.349 . S
C1140 C1152 1.349 . S
C1141 C1139 1.327 . S
C1141 C1157 1.429 . S
C1141 H1163 0.950 . S
C1142 H1138 0.949 . S
C1142 C1150 1.574 . S
C1142 C1158 1.368 . S
H1143 C1151 0.950 . S
H1144 C1149 0.950 . S
H1145 C1150 0.949 . S
H1146 C1152 0.950 . S
H1147 C1153 0.950 . S
H1148 C1154 0.949 . S
C1149 H1144 0.950 . S
C1149 C1151 1.327 . S
C1149 C1155 1.429 . S
C1150 C1142 1.574 . S
C1150 H1145 0.949 . S
C1150 C1156 1.368 . S
C1151 C1135 1.349 . S
C1151 H1143 0.950 . S
C1151 C1149 1.327 . S
C1152 C1140 1.349 . S
C1152 H1146 0.950 . S
C1152 C1153 1.327 . S
C1153 H1147 0.950 . S
C1153 C1152 1.327 . S
C1153 C1157 1.429 . S
C1154 C1137 1.574 . S
C1154 H1148 0.949 . S
C1154 C1158 1.368 . S
C1155 C1136 1.429 . S
C1155 C1149 1.429 . S
C1155 C1156 1.523 . S
C1156 C1137 1.368 . S
C1156 C1150 1.368 . S
C1156 C1155 1.523 . S
C1157 C1141 1.429 . S
C1157 C1153 1.429 . S
C1157 C1158 1.523 . S
C1158 C1142 1.368 . S
C1158 C1154 1.368 . S
C1158 C1157 1.523 . S
H1159 C1134 0.950 . S
H1160 C1136 0.950 . S
H1161 C1137 0.949 . S
H1162 C1139 0.950 . S
H1163 C1141 0.950 . S
C1164 C1165 1.349 . S
C1164 C1166 1.327 . S
C1164 H1189 0.950 . S
C1165 C1164 1.349 . S
C1165 C1181 1.349 . S
C1166 C1164 1.327 . S
C1166 C1185 1.429 . S
C1166 H1190 0.950 . S
C1167 C1184 1.574 . S
C1167 C1186 1.368 . S
C1167 H1191 0.949 . S
H1168 C1172 0.949 . S
C1169 C1170 1.349 . S
C1169 C1171 1.327 . S
C1169 H1192 0.950 . S
C1170 C1169 1.349 . S
C1170 C1182 1.349 . S
C1171 C1169 1.327 . S
C1171 C1187 1.429 . S
C1171 H1193 0.950 . S
C1172 H1168 0.949 . S
C1172 C1180 1.574 . S
C1172 C1188 1.368 . S
H1173 C1181 0.950 . S
H1174 C1179 0.950 . S
H1175 C1180 0.949 . S
H1176 C1182 0.950 . S
H1177 C1183 0.950 . S
H1178 C1184 0.949 . S
C1179 H1174 0.950 . S
C1179 C1181 1.327 . S
C1179 C1185 1.429 . S
C1180 C1172 1.574 . S
C1180 H1175 0.949 . S
C1180 C1186 1.368 . S
C1181 C1165 1.349 . S
C1181 H1173 0.950 . S
C1181 C1179 1.327 . S
C1182 C1170 1.349 . S
C1182 H1176 0.950 . S
C1182 C1183 1.327 . S
C1183 H1177 0.950 . S
C1183 C1182 1.327 . S
C1183 C1187 1.429 . S
C1184 C1167 1.574 . S
C1184 H1178 0.949 . S
C1184 C1188 1.368 . S
C1185 C1166 1.429 . S
C1185 C1179 1.429 . S
C1185 C1186 1.523 . S
C1186 C1167 1.368 . S
C1186 C1180 1.368 . S
C1186 C1185 1.523 . S
C1187 C1171 1.429 . S
C1187 C1183 1.429 . S
C1187 C1188 1.523 . S
C1188 C1172 1.368 . S
C1188 C1184 1.368 . S
C1188 C1187 1.523 . S
H1189 C1164 0.950 . S
H1190 C1166 0.950 . S
H1191 C1167 0.949 . S
H1192 C1169 0.950 . S
H1193 C1171 0.950 . S
C1194 C1195 1.349 . S
C1194 C1196 1.327 . S
C1194 H1219 0.950 . S
C1195 C1194 1.349 . S
C1195 C1211 1.349 . S
C1196 C1194 1.327 . S
C1196 C1215 1.429 . S
C1196 H1220 0.950 . S
C1197 C1214 1.574 . S
C1197 C1216 1.368 . S
C1197 H1221 0.949 . S
H1198 C1202 0.949 . S
C1199 C1200 1.349 . S
C1199 C1201 1.327 . S
C1199 H1222 0.950 . S
C1200 C1199 1.349 . S
C1200 C1212 1.349 . S
C1201 C1199 1.327 . S
C1201 C1217 1.429 . S
C1201 H1223 0.950 . S
C1202 H1198 0.949 . S
C1202 C1210 1.574 . S
C1202 C1218 1.368 . S
H1203 C1211 0.950 . S
H1204 C1209 0.950 . S
H1205 C1210 0.949 . S
H1206 C1212 0.950 . S
H1207 C1213 0.950 . S
H1208 C1214 0.949 . S
C1209 H1204 0.950 . S
C1209 C1211 1.327 . S
C1209 C1215 1.429 . S
C1210 C1202 1.574 . S
C1210 H1205 0.949 . S
C1210 C1216 1.368 . S
C1211 C1195 1.349 . S
C1211 H1203 0.950 . S
C1211 C1209 1.327 . S
C1212 C1200 1.349 . S
C1212 H1206 0.950 . S
C1212 C1213 1.327 . S
C1213 H1207 0.950 . S
C1213 C1212 1.327 . S
C1213 C1217 1.429 . S
C1214 C1197 1.574 . S
C1214 H1208 0.949 . S
C1214 C1218 1.368 . S
C1215 C1196 1.429 . S
C1215 C1209 1.429 . S
C1215 C1216 1.523 . S
C1216 C1197 1.368 . S
C1216 C1210 1.368 . S
C1216 C1215 1.523 . S
C1217 C1201 1.429 . S
C1217 C1213 1.429 . S
C1217 C1218 1.523 . S
C1218 C1202 1.368 . S
C1218 C1214 1.368 . S
C1218 C1217 1.523 . S
H1219 C1194 0.950 . S
H1220 C1196 0.950 . S
H1221 C1197 0.949 . S
H1222 C1199 0.950 . S
H1223 C1201 0.950 . S
C1224 C1225 1.349 . S
C1224 C1226 1.327 . S
C1224 H1249 0.950 . S
C1225 C1224 1.349 . S
C1225 C1241 1.349 . S
C1226 C1224 1.327 . S
C1226 C1245 1.429 . S
C1226 H1250 0.950 . S
C1227 C1244 1.574 . S
C1227 C1246 1.368 . S
C1227 H1251 0.949 . S
H1228 C1232 0.949 . S
C1229 C1230 1.349 . S
C1229 C1231 1.327 . S
C1229 H1252 0.950 . S
C1230 C1229 1.349 . S
C1230 C1242 1.349 . S
C1231 C1229 1.327 . S
C1231 C1247 1.429 . S
C1231 H1253 0.950 . S
C1232 H1228 0.949 . S
C1232 C1240 1.574 . S
C1232 C1248 1.368 . S
H1233 C1241 0.950 . S
H1234 C1239 0.950 . S
H1235 C1240 0.949 . S
H1236 C1242 0.950 . S
H1237 C1243 0.950 . S
H1238 C1244 0.949 . S
C1239 H1234 0.950 . S
C1239 C1241 1.327 . S
C1239 C1245 1.429 . S
C1240 C1232 1.574 . S
C1240 H1235 0.949 . S
C1240 C1246 1.368 . S
C1241 C1225 1.349 . S
C1241 H1233 0.950 . S
C1241 C1239 1.327 . S
C1242 C1230 1.349 . S
C1242 H1236 0.950 . S
C1242 C1243 1.327 . S
C1243 H1237 0.950 . S
C1243 C1242 1.327 . S
C1243 C1247 1.429 . S
C1244 C1227 1.574 . S
C1244 H1238 0.949 . S
C1244 C1248 1.368 . S
C1245 C1226 1.429 . S
C1245 C1239 1.429 . S
C1245 C1246 1.523 . S
C1246 C1227 1.368 . S
C1246 C1240 1.368 . S
C1246 C1245 1.523 . S
C1247 C1231 1.429 . S
C1247 C1243 1.429 . S
C1247 C1248 1.523 . S
C1248 C1232 1.368 . S
C1248 C1244 1.368 . S
C1248 C1247 1.523 . S
H1249 C1224 0.950 . S
H1250 C1226 0.950 . S
H1251 C1227 0.949 . S
H1252 C1229 0.950 . S
H1253 C1231 0.950 . S
C1254 C1255 1.349 . S
C1254 C1256 1.327 . S
C1254 H1279 0.950 . S
C1255 C1254 1.349 . S
C1255 C1271 1.349 . S
C1256 C1254 1.327 . S
C1256 C1275 1.429 . S
C1256 H1280 0.950 . S
C1257 C1274 1.574 . S
C1257 C1276 1.368 . S
C1257 H1281 0.949 . S
H1258 C1262 0.949 . S
C1259 C1260 1.349 . S
C1259 C1261 1.327 . S
C1259 H1282 0.950 . S
C1260 C1259 1.349 . S
C1260 C1272 1.349 . S
C1261 C1259 1.327 . S
C1261 C1277 1.429 . S
C1261 H1283 0.950 . S
C1262 H1258 0.949 . S
C1262 C1270 1.574 . S
C1262 C1278 1.368 . S
H1263 C1271 0.950 . S
H1264 C1269 0.950 . S
H1265 C1270 0.949 . S
H1266 C1272 0.950 . S
H1267 C1273 0.950 . S
H1268 C1274 0.949 . S
C1269 H1264 0.950 . S
C1269 C1271 1.327 . S
C1269 C1275 1.429 . S
C1270 C1262 1.574 . S
C1270 H1265 0.949 . S
C1270 C1276 1.368 . S
C1271 C1255 1.349 . S
C1271 H1263 0.950 . S
C1271 C1269 1.327 . S
C1272 C1260 1.349 . S
C1272 H1266 0.950 . S
C1272 C1273 1.327 . S
C1273 H1267 0.950 . S
C1273 C1272 1.327 . S
C1273 C1277 1.429 . S
C1274 C1257 1.574 . S
C1274 H1268 0.949 . S
C1274 C1278 1.368 . S
C1275 C1256 1.429 . S
C1275 C1269 1.429 . S
C1275 C1276 1.523 . S
C1276 C1257 1.368 . S
C1276 C1270 1.368 . S
C1276 C1275 1.523 . S
C1277 C1261 1.429 . S
C1277 C1273 1.429 . S
C1277 C1278 1.523 . S
C1278 C1262 1.368 . S
C1278 C1274 1.368 . S
C1278 C1277 1.523 . S
H1279 C1254 0.950 . S
H1280 C1256 0.950 . S
H1281 C1257 0.949 . S
H1282 C1259 0.950 . S
H1283 C1261 0.950 . S
C1284 C1285 1.349 . S
C1284 C1286 1.327 . S
C1284 H1309 0.950 . S
C1285 C1284 1.349 . S
C1285 C1301 1.349 . S
C1286 C1284 1.327 . S
C1286 C1305 1.429 . S
C1286 H1310 0.950 . S
C1287 C1304 1.574 . S
C1287 C1306 1.368 . S
C1287 H1311 0.949 . S
H1288 C1292 0.949 . S
C1289 C1290 1.349 . S
C1289 C1291 1.327 . S
C1289 H1312 0.950 . S
C1290 C1289 1.349 . S
C1290 C1302 1.349 . S
C1291 C1289 1.327 . S
C1291 C1307 1.429 . S
C1291 H1313 0.950 . S
C1292 H1288 0.949 . S
C1292 C1300 1.574 . S
C1292 C1308 1.368 . S
H1293 C1301 0.950 . S
H1294 C1299 0.950 . S
H1295 C1300 0.949 . S
H1296 C1302 0.950 . S
H1297 C1303 0.950 . S
H1298 C1304 0.949 . S
C1299 H1294 0.950 . S
C1299 C1301 1.327 . S
C1299 C1305 1.429 . S
C1300 C1292 1.574 . S
C1300 H1295 0.949 . S
C1300 C1306 1.368 . S
C1301 C1285 1.349 . S
C1301 H1293 0.950 . S
C1301 C1299 1.327 . S
C1302 C1290 1.349 . S
C1302 H1296 0.950 . S
C1302 C1303 1.327 . S
C1303 H1297 0.950 . S
C1303 C1302 1.327 . S
C1303 C1307 1.429 . S
C1304 C1287 1.574 . S
C1304 H1298 0.949 . S
C1304 C1308 1.368 . S
C1305 C1286 1.429 . S
C1305 C1299 1.429 . S
C1305 C1306 1.523 . S
C1306 C1287 1.368 . S
C1306 C1300 1.368 . S
C1306 C1305 1.523 . S
C1307 C1291 1.429 . S
C1307 C1303 1.429 . S
C1307 C1308 1.523 . S
C1308 C1292 1.368 . S
C1308 C1304 1.368 . S
C1308 C1307 1.523 . S
H1309 C1284 0.950 . S
H1310 C1286 0.950 . S
H1311 C1287 0.949 . S
H1312 C1289 0.950 . S
H1313 C1291 0.950 . S
C595 C39 1.770 . S
C600 C340 1.755 . S
C625 C91 1.746 . S
C630 C379 1.736 . S
C660 C411 1.581 . S
C655 C128 1.606 . S
C690 C457 1.541 . S
C685 C188 1.562 . S
C720 C524 1.658 . S
C715 C250 1.667 . S
C750 C563 1.719 . S
C745 C304 1.736 . S
C775 C75 1.654 . S
C780 C425 1.637 . S
C805 C144 1.760 . S
C810 C471 1.745 . S
C840 C510 1.688 . S
C835 C198 1.712 . S
C870 C549 1.546 . S
C865 C234 1.572 . S
C895 C294 1.551 . S
C900 C326 1.530 . S
C930 C365 1.565 . S
C925 C29 1.584 . S
C960 C464 1.755 . S
C955 C38 1.770 . S
C985 C92 1.746 . S
C990 C517 1.724 . S
C1020 C570 1.581 . S
C1015 C135 1.606 . S
C1045 C181 1.562 . S
C1050 C333 1.541 . S
C1075 C251 1.667 . S
C1080 C386 1.646 . S
C1105 C303 1.736 . S
C1110 C418 1.719 . S
C1135 C82 1.653 . S
C1140 C556 1.637 . S
C1170 C319 1.745 . S
C1165 C145 1.760 . S
C1195 C197 1.712 . S
C1200 C372 1.700 . S
C1225 C241 1.572 . S
C1230 C432 1.546 . S
C1255 C287 1.551 . S
C1260 C478 1.530 . S
C1285 C22 1.584 . S
C1290 C503 1.576 . S
