# Generated by pormake.
# Topology pto, (3,4)-cn, num edge types: 1
# Building blocks:
#     Node 0, Type 0, BuildingBlock: BELTOD_clean_linker_0, # of connection points: 3
#     Node 1, Type 0, BuildingBlock: BELTOD_clean_linker_0, # of connection points: 3
#     Node 2, Type 0, BuildingBlock: BELTOD_clean_linker_0, # of connection points: 3
#     Node 3, Type 0, BuildingBlock: BELTOD_clean_linker_0, # of connection points: 3
#     Node 4, Type 0, BuildingBlock: BELTOD_clean_linker_0, # of connection points: 3
#     Node 5, Type 0, BuildingBlock: BELTOD_clean_linker_0, # of connection points: 3
#     Node 6, Type 0, BuildingBlock: BELTOD_clean_linker_0, # of connection points: 3
#     Node 7, Type 0, BuildingBlock: BELTOD_clean_linker_0, # of connection points: 3
#     Node 8, Type 1, BuildingBlock: KOZSID_clean_sbu_0, # of connection points: 4
#     Node 9, Type 1, BuildingBlock: KOZSID_clean_sbu_0, # of connection points: 4
#     Node 10, Type 1, BuildingBlock: KOZSID_clean_sbu_0, # of connection points: 4
#     Node 11, Type 1, BuildingBlock: KOZSID_clean_sbu_0, # of connection points: 4
#     Node 12, Type 1, BuildingBlock: KOZSID_clean_sbu_0, # of connection points: 4
#     Node 13, Type 1, BuildingBlock: KOZSID_clean_sbu_0, # of connection points: 4
#     Edge 14, Type (0, 1), BuildingBlock: MIFKUJ_clean_linker_0, # of connection points: 2
#     Edge 15, Type (0, 1), BuildingBlock: MIFKUJ_clean_linker_0, # of connection points: 2
#     Edge 16, Type (0, 1), BuildingBlock: MIFKUJ_clean_linker_0, # of connection points: 2
#     Edge 17, Type (0, 1), BuildingBlock: MIFKUJ_clean_linker_0, # of connection points: 2
#     Edge 18, Type (0, 1), BuildingBlock: MIFKUJ_clean_linker_0, # of connection points: 2
#     Edge 19, Type (0, 1), BuildingBlock: MIFKUJ_clean_linker_0, # of connection points: 2
#     Edge 20, Type (0, 1), BuildingBlock: MIFKUJ_clean_linker_0, # of connection points: 2
#     Edge 21, Type (0, 1), BuildingBlock: MIFKUJ_clean_linker_0, # of connection points: 2
#     Edge 22, Type (0, 1), BuildingBlock: MIFKUJ_clean_linker_0, # of connection points: 2
#     Edge 23, Type (0, 1), BuildingBlock: MIFKUJ_clean_linker_0, # of connection points: 2
#     Edge 24, Type (0, 1), BuildingBlock: MIFKUJ_clean_linker_0, # of connection points: 2
#     Edge 25, Type (0, 1), BuildingBlock: MIFKUJ_clean_linker_0, # of connection points: 2
#     Edge 26, Type (0, 1), BuildingBlock: MIFKUJ_clean_linker_0, # of connection points: 2
#     Edge 27, Type (0, 1), BuildingBlock: MIFKUJ_clean_linker_0, # of connection points: 2
#     Edge 28, Type (0, 1), BuildingBlock: MIFKUJ_clean_linker_0, # of connection points: 2
#     Edge 29, Type (0, 1), BuildingBlock: MIFKUJ_clean_linker_0, # of connection points: 2
#     Edge 30, Type (0, 1), BuildingBlock: MIFKUJ_clean_linker_0, # of connection points: 2
#     Edge 31, Type (0, 1), BuildingBlock: MIFKUJ_clean_linker_0, # of connection points: 2
#     Edge 32, Type (0, 1), BuildingBlock: MIFKUJ_clean_linker_0, # of connection points: 2
#     Edge 33, Type (0, 1), BuildingBlock: MIFKUJ_clean_linker_0, # of connection points: 2
#     Edge 34, Type (0, 1), BuildingBlock: MIFKUJ_clean_linker_0, # of connection points: 2
#     Edge 35, Type (0, 1), BuildingBlock: MIFKUJ_clean_linker_0, # of connection points: 2
#     Edge 36, Type (0, 1), BuildingBlock: MIFKUJ_clean_linker_0, # of connection points: 2
#     Edge 37, Type (0, 1), BuildingBlock: MIFKUJ_clean_linker_0, # of connection points: 2
# Relax obj value: 0.000
# Max RMSD: 0.024
# Mean RMSD: 0.008
data_MOF--net-pto--node1-KOZSID_clean_sbu_0--node2-BELTOD_clean_linker_0--edge1-MIFKUJ_clean_linker_0
_symmetry_space_group_name_H-M    P1
_symmetry_Int_Tables_number       1
_symmetry_cell_setting            triclinic
loop_
_symmetry_equiv_pos_as_xyz
'x, y, z'
_cell_length_a     54.087011
_cell_length_b     73.344637
_cell_length_c     63.667524
_cell_angle_alpha  87.418119
_cell_angle_beta   89.718282
_cell_angle_gamma 94.548756
loop_
_atom_site_label
_atom_site_type_symbol
_atom_site_fract_x
_atom_site_fract_y
_atom_site_fract_z
_atom_type_partial_charge
P0 P 0.31112 0.27991 0.3285 0.0
H1 H 0.33001 0.3061 0.29581 0.0
H2 H 0.34584 0.30287 0.2602 0.0
H3 H 0.32745 0.24449 0.26635 0.0
H4 H 0.31189 0.24774 0.302 0.0
H5 H 0.30606 0.31139 0.35426 0.0
H6 H 0.27488 0.33341 0.35607 0.0
H7 H 0.23217 0.30484 0.3086 0.0
H8 H 0.26449 0.28359 0.30594 0.0
H9 H 0.33229 0.25852 0.36283 0.0
H10 H 0.26721 0.25409 0.32392 0.0
O11 O 0.33652 0.28872 0.34035 0.0
H12 H 0.3186 0.22966 0.38134 0.0
H13 H 0.25316 0.22521 0.34266 0.0
C14 C 0.31967 0.27721 0.30153 0.0
C15 C 0.32913 0.29263 0.2894 0.0
C16 C 0.33828 0.29076 0.26913 0.0
C17 C 0.33797 0.27342 0.26056 0.0
C18 C 0.32773 0.25804 0.2725 0.0
C19 C 0.31883 0.2599 0.29291 0.0
C20 C 0.28764 0.2959 0.3299 0.0
C21 C 0.29007 0.30993 0.34414 0.0
C22 C 0.27199 0.32243 0.34532 0.0
C23 C 0.25079 0.32095 0.33256 0.0
C24 C 0.24835 0.30665 0.31846 0.0
C25 C 0.26669 0.29433 0.31707 0.0
C26 C 0.30067 0.25857 0.34209 0.0
C27 C 0.31495 0.25142 0.35833 0.0
C28 C 0.30703 0.23493 0.369 0.0
C29 C 0.2847 0.2252 0.36357 0.0
C30 C 0.27051 0.23233 0.34714 0.0
C31 C 0.27842 0.24891 0.33653 0.0
P32 P 0.28227 0.7563 0.69846 0.0
H33 H 0.25694 0.73593 0.66572 0.0
H34 H 0.223 0.71169 0.66647 0.0
H35 H 0.21483 0.71659 0.73342 0.0
H36 H 0.24827 0.74114 0.73252 0.0
H37 H 0.30395 0.77936 0.66339 0.0
H38 H 0.29339 0.80833 0.64699 0.0
H39 H 0.23251 0.80964 0.69104 0.0
H40 H 0.24286 0.78017 0.70699 0.0
H41 H 0.29684 0.73021 0.73085 0.0
H42 H 0.29724 0.78891 0.72245 0.0
O43 O 0.30398 0.74791 0.6838 0.0
H44 H 0.31541 0.73355 0.76545 0.0
H45 H 0.31664 0.79243 0.7567 0.0
C46 C 0.25558 0.73996 0.69913 0.0
C47 C 0.24767 0.7319 0.68052 0.0
C48 C 0.22825 0.71813 0.68094 0.0
C49 C 0.21655 0.71214 0.70005 0.0
C50 C 0.22384 0.72077 0.71855 0.0
C51 C 0.243 0.73476 0.71804 0.0
C52 C 0.27406 0.77759 0.6863 0.0
C53 C 0.28824 0.7858 0.66946 0.0
C54 C 0.28229 0.80249 0.6602 0.0
C55 C 0.26215 0.8114 0.66774 0.0
C56 C 0.24794 0.80306 0.68466 0.0
C57 C 0.25388 0.78628 0.69386 0.0
C58 C 0.29517 0.75925 0.72424 0.0
C59 C 0.30085 0.74382 0.73651 0.0
C60 C 0.31171 0.74578 0.75621 0.0
C61 C 0.31758 0.76328 0.76391 0.0
C62 C 0.31199 0.77875 0.75146 0.0
C63 C 0.30094 0.77674 0.73178 0.0
P64 P 0.80814 0.77622 0.28532 0.0
H65 H 0.84279 0.7992 0.30932 0.0
H66 H 0.83748 0.81896 0.33858 0.0
H67 H 0.75934 0.80122 0.34142 0.0
H68 H 0.76482 0.78161 0.31187 0.0
H69 H 0.83345 0.75092 0.26083 0.0
H70 H 0.85095 0.72193 0.2696 0.0
H71 H 0.82632 0.72469 0.33401 0.0
H72 H 0.80813 0.7535 0.32486 0.0
H73 H 0.77635 0.80301 0.26785 0.0
H74 H 0.77834 0.74429 0.26932 0.0
O75 O 0.82933 0.788 0.26986 0.0
H76 H 0.74083 0.8008 0.24425 0.0
H77 H 0.74278 0.74197 0.24582 0.0
C78 C 0.8041 0.78933 0.30813 0.0
C79 C 0.82454 0.79952 0.3163 0.0
C80 C 0.8215 0.81069 0.33316 0.0
C81 C 0.79793 0.81178 0.34225 0.0
C82 C 0.77765 0.80092 0.33453 0.0
C83 C 0.78075 0.78969 0.31767 0.0
C84 C 0.8199 0.75449 0.29225 0.0
C85 C 0.8318 0.74526 0.27683 0.0
C86 C 0.84192 0.72873 0.28192 0.0
C87 C 0.8404 0.72109 0.3026 0.0
C88 C 0.82776 0.73015 0.31792 0.0
C89 C 0.81751 0.7467 0.31275 0.0
C90 C 0.78 0.77385 0.27034 0.0
C91 C 0.76888 0.78962 0.26335 0.0
C92 C 0.74853 0.78832 0.24993 0.0
C93 C 0.73904 0.77121 0.24309 0.0
C94 C 0.74985 0.75537 0.2506 0.0
C95 C 0.77015 0.75668 0.26413 0.0
P96 P 0.80349 0.24091 0.7769 0.0
H97 H 0.78324 0.2148 0.80933 0.0
H98 H 0.74823 0.21477 0.83374 0.0
H99 H 0.7289 0.26623 0.80515 0.0
H100 H 0.76386 0.26601 0.78056 0.0
H101 H 0.83635 0.21958 0.75358 0.0
H102 H 0.82965 0.19875 0.72504 0.0
H103 H 0.75244 0.21013 0.72289 0.0
H104 H 0.75927 0.23062 0.75201 0.0
H105 H 0.83222 0.27001 0.79733 0.0
H106 H 0.79723 0.26251 0.73729 0.0
O107 O 0.82604 0.23267 0.79144 0.0
H108 H 0.84861 0.30075 0.78545 0.0
H109 H 0.81387 0.29327 0.72514 0.0
C110 C 0.77643 0.24059 0.79349 0.0
C111 C 0.77142 0.22604 0.80828 0.0
C112 C 0.75146 0.22609 0.82227 0.0
C113 C 0.736 0.24063 0.82158 0.0
C114 C 0.74045 0.25482 0.80606 0.0
C115 C 0.76052 0.25478 0.79209 0.0
C116 C 0.79819 0.22629 0.75519 0.0
C117 C 0.81796 0.21755 0.747 0.0
C118 C 0.81414 0.20577 0.73051 0.0
C119 C 0.79047 0.20268 0.72167 0.0
C120 C 0.7708 0.21194 0.72956 0.0
C121 C 0.77467 0.22369 0.74616 0.0
C122 C 0.81403 0.26386 0.76804 0.0
C123 C 0.82813 0.27498 0.78155 0.0
C124 C 0.83756 0.29251 0.77471 0.0
C125 C 0.83286 0.29932 0.75423 0.0
C126 C 0.81782 0.28839 0.74099 0.0
C127 C 0.80844 0.27077 0.74786 0.0
P128 P 0.7952 0.77481 0.76781 0.0
H129 H 0.79285 0.75952 0.8107 0.0
H130 H 0.75951 0.75499 0.83685 0.0
H131 H 0.70808 0.77493 0.7911 0.0
H132 H 0.7414 0.77867 0.76481 0.0
H133 H 0.84317 0.76156 0.75836 0.0
H134 H 0.85542 0.73342 0.74391 0.0
H135 H 0.77821 0.7146 0.737 0.0
H136 H 0.7661 0.74282 0.75208 0.0
H137 H 0.77565 0.81044 0.77014 0.0
H138 H 0.80129 0.77711 0.72166 0.0
O139 O 0.81925 0.78363 0.7814 0.0
H140 H 0.76956 0.83493 0.74387 0.0
H141 H 0.79603 0.80173 0.6954 0.0
C142 C 0.76973 0.76991 0.78604 0.0
C143 C 0.77435 0.76279 0.80628 0.0
C144 C 0.75527 0.76032 0.82125 0.0
C145 C 0.73117 0.76493 0.81623 0.0
C146 C 0.72638 0.77121 0.79553 0.0
C147 C 0.74549 0.77354 0.78051 0.0
C148 C 0.80376 0.75407 0.75669 0.0
C149 C 0.82886 0.75136 0.75383 0.0
C150 C 0.83583 0.73532 0.74531 0.0
C151 C 0.8178 0.72171 0.73926 0.0
C152 C 0.79256 0.72468 0.74175 0.0
C153 C 0.78561 0.74079 0.75033 0.0
C154 C 0.78854 0.79185 0.74784 0.0
C155 C 0.77973 0.80833 0.7538 0.0
C156 C 0.7765 0.82239 0.73878 0.0
C157 C 0.78239 0.82035 0.71751 0.0
C158 C 0.79096 0.80368 0.71157 0.0
C159 C 0.79407 0.78958 0.72663 0.0
P160 P 0.81672 0.24238 0.2878 0.0
H161 H 0.85903 0.25271 0.31385 0.0
H162 H 0.87643 0.28205 0.32616 0.0
H163 H 0.81657 0.30888 0.29631 0.0
H164 H 0.79883 0.27943 0.28483 0.0
H165 H 0.80267 0.20369 0.28508 0.0
H166 H 0.79436 0.17868 0.31138 0.0
H167 H 0.80625 0.21693 0.36077 0.0
H168 H 0.81344 0.24196 0.33431 0.0
H169 H 0.81327 0.2516 0.243 0.0
H170 H 0.76291 0.23931 0.29533 0.0
O171 O 0.83987 0.23554 0.27346 0.0
H172 H 0.77823 0.25436 0.21939 0.0
H173 H 0.72758 0.24238 0.27183 0.0
C174 C 0.82766 0.26386 0.29847 0.0
C175 C 0.84949 0.2649 0.31023 0.0
C176 C 0.85952 0.28171 0.3171 0.0
C177 C 0.84805 0.2979 0.31208 0.0
C178 C 0.82577 0.2967 0.30069 0.0
C179 C 0.81566 0.27982 0.29397 0.0
C180 C 0.80904 0.2246 0.30772 0.0
C181 C 0.80332 0.20668 0.30158 0.0
C182 C 0.79876 0.19238 0.31666 0.0
C183 C 0.8 0.19571 0.33824 0.0
C184 C 0.80502 0.21385 0.34431 0.0
C185 C 0.80939 0.22819 0.32916 0.0
C186 C 0.79063 0.24485 0.27078 0.0
C187 C 0.79462 0.24951 0.2494 0.0
C188 C 0.77455 0.25125 0.23595 0.0
C189 C 0.75007 0.24852 0.2437 0.0
C190 C 0.74618 0.24427 0.26531 0.0
C191 C 0.76633 0.24255 0.27876 0.0
P192 P 0.28164 0.28259 0.70871 0.0
H193 H 0.2685 0.27336 0.66604 0.0
H194 H 0.25511 0.24452 0.6502 0.0
H195 H 0.25318 0.21693 0.71169 0.0
H196 H 0.2669 0.24579 0.72736 0.0
H197 H 0.2855 0.32205 0.7117 0.0
H198 H 0.25477 0.34451 0.71425 0.0
H199 H 0.19608 0.30089 0.71482 0.0
H200 H 0.22707 0.2785 0.71186 0.0
H201 H 0.33038 0.2712 0.71966 0.0
H202 H 0.2641 0.28321 0.75248 0.0
O203 O 0.30355 0.29209 0.6922 0.0
H204 H 0.35048 0.26492 0.75321 0.0
H205 H 0.28423 0.27727 0.78619 0.0
C206 C 0.26918 0.26163 0.69777 0.0
C207 C 0.26503 0.26111 0.67611 0.0
C208 C 0.2572 0.24463 0.6671 0.0
C209 C 0.25328 0.22837 0.67966 0.0
C210 C 0.25646 0.22914 0.70154 0.0
C211 C 0.26425 0.24566 0.71053 0.0
C212 C 0.25852 0.2987 0.71116 0.0
C213 C 0.26601 0.31734 0.71232 0.0
C214 C 0.24841 0.33015 0.71397 0.0
C215 C 0.22293 0.32452 0.71467 0.0
C216 C 0.21553 0.30571 0.71397 0.0
C217 C 0.23321 0.29289 0.71233 0.0
C218 C 0.29601 0.27808 0.73363 0.0
C219 C 0.32024 0.27264 0.73412 0.0
C220 C 0.33172 0.2691 0.75331 0.0
C221 C 0.31905 0.27079 0.77239 0.0
C222 C 0.29446 0.27578 0.77179 0.0
C223 C 0.28301 0.27935 0.75254 0.0
P224 P 0.30359 0.75394 0.32693 0.0
H225 H 0.34825 0.77495 0.31151 0.0
H226 H 0.36592 0.78155 0.27631 0.0
H227 H 0.30168 0.75265 0.24953 0.0
H228 H 0.28388 0.74654 0.28475 0.0
H229 H 0.29959 0.76263 0.37079 0.0
H230 H 0.28646 0.78927 0.38826 0.0
H231 H 0.27021 0.81464 0.32784 0.0
H232 H 0.28305 0.78772 0.31048 0.0
H233 H 0.30602 0.71562 0.31851 0.0
H234 H 0.24956 0.75088 0.33507 0.0
O235 O 0.32737 0.74692 0.34091 0.0
H236 H 0.27513 0.68942 0.31934 0.0
H237 H 0.21862 0.72466 0.33649 0.0
C238 C 0.31503 0.75997 0.30074 0.0
C239 C 0.33793 0.77015 0.29802 0.0
C240 C 0.34805 0.77381 0.27791 0.0
C241 C 0.33538 0.7674 0.26011 0.0
C242 C 0.31189 0.75784 0.26288 0.0
C243 C 0.30177 0.75421 0.28305 0.0
C244 C 0.29284 0.77342 0.33936 0.0
C245 C 0.29323 0.77394 0.36131 0.0
C246 C 0.28579 0.7892 0.37126 0.0
C247 C 0.27761 0.80419 0.35942 0.0
C248 C 0.27637 0.80331 0.33741 0.0
C249 C 0.28388 0.788 0.32745 0.0
C250 C 0.28015 0.7351 0.32701 0.0
C251 C 0.28696 0.71768 0.32243 0.0
C252 C 0.2693 0.70271 0.32303 0.0
C253 C 0.24443 0.70489 0.32823 0.0
C254 C 0.23757 0.72252 0.33233 0.0
C255 C 0.2553 0.73751 0.33167 0.0
C256 C 0.06211 0.53652 0.35811 0.0
C257 C 0.07032 0.54241 0.3775 0.0
C258 C 0.0566 0.53216 0.39242 0.0
C259 C 0.04079 0.5207 0.38139 0.0
N260 N 0.04366 0.5229 0.36028 0.0
Co261 Co 0.02377 0.50958 0.33836 0.0
N262 N 0.00245 0.49544 0.36038 0.0
C263 C 0.00367 0.497 0.38145 0.0
C264 C 0.98714 0.48509 0.39257 0.0
C265 C 0.97479 0.47514 0.37775 0.0
C266 C 0.98455 0.48162 0.35838 0.0
N267 N 0.00411 0.49612 0.31644 0.0
C268 C 0.98621 0.48214 0.31868 0.0
C269 C 0.97778 0.47624 0.29938 0.0
C270 C 0.9912 0.48662 0.28437 0.0
C271 C 0.00693 0.49823 0.29531 0.0
N272 N 0.04487 0.52387 0.3163 0.0
C273 C 0.04321 0.52263 0.29518 0.0
C274 C 0.05999 0.53432 0.28406 0.0
C275 C 0.07295 0.54381 0.29891 0.0
C276 C 0.06319 0.53738 0.31831 0.0
N277 N 0.04722 0.49003 0.33933 0.0
C278 C 0.079 0.46121 0.34032 0.0
C279 C 0.07301 0.47011 0.32135 0.0
C280 C 0.05714 0.4842 0.32121 0.0
C281 C 0.06904 0.46727 0.35885 0.0
C282 C 0.0535 0.48165 0.35802 0.0
N283 N 0.00035 0.52918 0.33736 0.0
C284 C 0.9783 0.55137 0.31724 0.0
C285 C 0.97033 0.55892 0.33557 0.0
C286 C 0.97688 0.55095 0.35486 0.0
C287 C 0.99188 0.53625 0.35539 0.0
C288 C 0.99298 0.53657 0.31848 0.0
H289 H 0.99669 0.53105 0.37057 0.0
H290 H 0.99837 0.53152 0.30391 0.0
H291 H 0.0531 0.4901 0.30619 0.0
H292 H 0.04661 0.48563 0.37268 0.0
C293 C 0.02192 0.5087 0.39037 0.0
C294 C 0.07156 0.54489 0.33812 0.0
C295 C 0.97738 0.47348 0.33865 0.0
C296 C 0.02534 0.51059 0.28625 0.0
H297 H 0.08435 0.55328 0.38058 0.0
H298 H 0.05754 0.5333 0.4093 0.0
H299 H 0.98494 0.48341 0.40947 0.0
H300 H 0.96071 0.46402 0.3809 0.0
H301 H 0.96373 0.46531 0.29649 0.0
H302 H 0.99007 0.48553 0.2675 0.0
H303 H 0.06229 0.53592 0.26717 0.0
H304 H 0.08773 0.55444 0.29579 0.0
H305 H 0.08063 0.46635 0.30654 0.0
H306 H 0.07282 0.46079 0.37399 0.0
H307 H 0.97324 0.55687 0.30191 0.0
H308 H 0.97109 0.55638 0.36949 0.0
C309 C 0.03499 0.54423 0.72339 0.0
C310 C 0.04161 0.55172 0.74242 0.0
C311 C 0.02814 0.54174 0.75769 0.0
C312 C 0.0139 0.5289 0.7472 0.0
N313 N 0.01757 0.52993 0.72612 0.0
Co314 Co 0.99877 0.51506 0.70483 0.0
N315 N 0.9791 0.50035 0.72742 0.0
C316 C 0.98094 0.50207 0.74843 0.0
C317 C 0.96569 0.4896 0.76004 0.0
C318 C 0.95376 0.47899 0.74561 0.0
C319 C 0.96253 0.48562 0.72596 0.0
N320 N 0.97931 0.50064 0.68353 0.0
C321 C 0.96233 0.48608 0.68626 0.0
C322 C 0.95365 0.47986 0.66717 0.0
C323 C 0.96568 0.49082 0.65184 0.0
C324 C 0.98098 0.50302 0.66237 0.0
N325 N 0.01917 0.52924 0.68228 0.0
C326 C 0.01795 0.52691 0.66134 0.0
C327 C 0.03493 0.53808 0.64978 0.0
C328 C 0.0477 0.54826 0.66417 0.0
C329 C 0.03751 0.54283 0.68375 0.0
N330 N 0.02362 0.49656 0.70625 0.0
C331 C 0.05651 0.46858 0.70865 0.0
C332 C 0.04671 0.47429 0.68941 0.0
C333 C 0.03052 0.48821 0.68856 0.0
C334 C 0.05001 0.47745 0.72661 0.0
C335 C 0.03368 0.49129 0.72507 0.0
N336 N 0.97377 0.5336 0.70341 0.0
C337 C 0.95196 0.55629 0.6837 0.0
C338 C 0.94 0.56103 0.7019 0.0
C339 C 0.94489 0.55164 0.72078 0.0
C340 C 0.96174 0.53819 0.72119 0.0
C341 C 0.96846 0.54253 0.68476 0.0
H342 H 0.96489 0.53191 0.73619 0.0
H343 H 0.9768 0.53948 0.67029 0.0
H344 H 0.02362 0.49186 0.67343 0.0
H345 H 0.02917 0.49735 0.73936 0.0
C346 C 0.99706 0.51564 0.75674 0.0
C347 C 0.04531 0.55144 0.70314 0.0
C348 C 0.95521 0.47703 0.70649 0.0
C349 C 0.99952 0.51502 0.65292 0.0
H350 H 0.05457 0.56337 0.74509 0.0
H351 H 0.02848 0.54374 0.77443 0.0
H352 H 0.96372 0.48826 0.77698 0.0
H353 H 0.94036 0.46748 0.74915 0.0
H354 H 0.94064 0.46823 0.66453 0.0
H355 H 0.96434 0.48945 0.63501 0.0
H356 H 0.03741 0.53897 0.63287 0.0
H357 H 0.06257 0.55871 0.66059 0.0
H358 H 0.05157 0.46808 0.67498 0.0
H359 H 0.05699 0.47346 0.74191 0.0
H360 H 0.94853 0.5631 0.66866 0.0
H361 H 0.93626 0.555 0.73535 0.0
C362 C 0.25484 0.99031 0.54716 0.0
C363 C 0.27733 0.98548 0.55523 0.0
C364 C 0.2954 0.99659 0.54504 0.0
C365 C 0.28296 0.00754 0.53143 0.0
N366 N 0.25798 0.00434 0.53256 0.0
Co367 Co 0.23284 0.01652 0.5149 0.0
N368 N 0.25951 0.03225 0.49919 0.0
C369 C 0.28431 0.0324 0.50209 0.0
C370 C 0.29788 0.04519 0.4895 0.0
C371 C 0.28074 0.05398 0.47812 0.0
C372 C 0.25761 0.04602 0.48453 0.0
N373 N 0.20775 0.02839 0.49686 0.0
C374 C 0.21086 0.04235 0.48215 0.0
C375 C 0.18842 0.04675 0.4736 0.0
C376 C 0.17044 0.03528 0.48341 0.0
C377 C 0.18286 0.02459 0.49734 0.0
N378 N 0.20615 0.00112 0.531 0.0
C379 C 0.18135 0.00144 0.52852 0.0
C380 C 0.16769 0.98898 0.54144 0.0
C381 C 0.18475 0.98002 0.55273 0.0
C382 C 0.20795 0.9876 0.54603 0.0
N383 N 0.23114 0.03594 0.53552 0.0
C384 C 0.2293 0.06478 0.56323 0.0
C385 C 0.20768 0.05687 0.55434 0.0
C386 C 0.20899 0.04254 0.54071 0.0
C387 C 0.25178 0.0578 0.55825 0.0
C388 C 0.25226 0.04353 0.54452 0.0
N389 N 0.23458 0.99705 0.49432 0.0
C390 C 0.21474 0.97209 0.47535 0.0
C391 C 0.2377 0.96701 0.46852 0.0
C392 C 0.25894 0.97776 0.47406 0.0
C393 C 0.25698 0.99254 0.48684 0.0
C394 C 0.2136 0.9871 0.48802 0.0
H395 H 0.27395 0.99988 0.49073 0.0
H396 H 0.19558 0.99013 0.49287 0.0
H397 H 0.19188 0.03713 0.53443 0.0
H398 H 0.27004 0.03905 0.54122 0.0
C399 C 0.29423 0.02067 0.51713 0.0
C400 C 0.2311 0.98074 0.55341 0.0
C401 C 0.23443 0.05255 0.47681 0.0
C402 C 0.17157 0.01228 0.51251 0.0
H403 H 0.28038 0.97483 0.56704 0.0
H404 H 0.31525 0.99648 0.54705 0.0
H405 H 0.31782 0.04802 0.48895 0.0
H406 H 0.28474 0.0652 0.46668 0.0
H407 H 0.1853 0.0575 0.46195 0.0
H408 H 0.15059 0.03523 0.48126 0.0
H409 H 0.14773 0.98625 0.542 0.0
H410 H 0.18055 0.96879 0.56412 0.0
H411 H 0.18976 0.06166 0.55793 0.0
H412 H 0.2691 0.06359 0.5645 0.0
H413 H 0.19769 0.96422 0.47153 0.0
H414 H 0.27715 0.97473 0.46871 0.0
C415 C 0.46873 0.79289 0.04796 0.0
C416 C 0.46254 0.81016 0.05309 0.0
C417 C 0.47673 0.82246 0.04053 0.0
C418 C 0.49071 0.81204 0.02853 0.0
N419 N 0.48611 0.7938 0.03246 0.0
Co420 Co 0.50287 0.7737 0.01914 0.0
N421 N 0.52585 0.79183 0.00252 0.0
C422 C 0.52673 0.81031 0.00291 0.0
C423 C 0.54415 0.81915 0.98956 0.0
C424 C 0.555 0.80555 0.97996 0.0
C425 C 0.54356 0.7891 0.9881 0.0
N426 N 0.51933 0.75357 0.00558 0.0
C427 C 0.53746 0.75447 0.9907 0.0
C428 C 0.54334 0.73716 0.98538 0.0
C429 C 0.52808 0.72487 0.99703 0.0
C430 C 0.51389 0.73531 0.0088 0.0
N431 N 0.48021 0.75557 0.03605 0.0
C432 C 0.47928 0.73708 0.03577 0.0
C433 C 0.46248 0.7283 0.04974 0.0
C434 C 0.45236 0.74197 0.05984 0.0
C435 C 0.46368 0.75835 0.05142 0.0
N436 N 0.47858 0.7738 0.99577 0.0
C437 C 0.44749 0.77348 0.96029 0.0
C438 C 0.45156 0.7573 0.97171 0.0
C439 C 0.46694 0.75778 0.98925 0.0
C440 C 0.4585 0.78991 0.96741 0.0
C441 C 0.47379 0.78976 0.98504 0.0
N442 N 0.52719 0.77357 0.04241 0.0
C443 C 0.55092 0.75696 0.06787 0.0
C444 C 0.56091 0.77327 0.07602 0.0
C445 C 0.5538 0.78975 0.06703 0.0
C446 C 0.53715 0.78959 0.0503 0.0
C447 C 0.53417 0.75742 0.05128 0.0
H448 H 0.5326 0.8026 0.04402 0.0
H449 H 0.52701 0.7445 0.04599 0.0
H450 H 0.46936 0.74495 0.99707 0.0
H451 H 0.48187 0.8027 0.98942 0.0
C452 C 0.50992 0.81897 0.01499 0.0
C453 C 0.45881 0.77612 0.05915 0.0
C454 C 0.54942 0.7713 0.98095 0.0
C455 C 0.49525 0.72838 0.02292 0.0
H456 H 0.44966 0.81355 0.06509 0.0
H457 H 0.47747 0.83724 0.04071 0.0
H458 H 0.54806 0.83377 0.98676 0.0
H459 H 0.56936 0.80755 0.968 0.0
H460 H 0.55714 0.73376 0.97414 0.0
H461 H 0.52731 0.71009 0.99683 0.0
H462 H 0.45852 0.7137 0.0526 0.0
H463 H 0.43858 0.74012 0.07231 0.0
H464 H 0.44299 0.74425 0.96711 0.0
H465 H 0.45596 0.80282 0.95907 0.0
H466 H 0.55567 0.74384 0.07448 0.0
H467 H 0.56129 0.80275 0.07268 0.0
C468 C 0.80499 0.9834 0.56206 0.0
C469 C 0.82776 0.97849 0.56945 0.0
C470 C 0.8455 0.9893 0.55849 0.0
C471 C 0.83263 1.00006 0.54501 0.0
N472 N 0.8077 0.99696 0.54683 0.0
Co473 Co 0.78204 0.00869 0.52925 0.0
N474 N 0.80825 0.02387 0.51233 0.0
C475 C 0.83311 0.0242 0.51494 0.0
C476 C 0.84638 0.03669 0.5018 0.0
C477 C 0.829 0.04499 0.49019 0.0
C478 C 0.80601 0.03693 0.49683 0.0
N479 N 0.7564 0.02013 0.51143 0.0
C480 C 0.75909 0.03314 0.4956 0.0
C481 C 0.73639 0.03699 0.48711 0.0
C482 C 0.71866 0.02631 0.49823 0.0
C483 C 0.73149 0.01649 0.51272 0.0
N484 N 0.75582 0.99379 0.54641 0.0
C485 C 0.73095 0.99419 0.54462 0.0
C486 C 0.71768 0.98248 0.55864 0.0
C487 C 0.73508 0.97391 0.56995 0.0
C488 C 0.75806 0.98086 0.56203 0.0
N489 N 0.78115 0.02874 0.54919 0.0
C490 C 0.77996 0.05801 0.5764 0.0
C491 C 0.75813 0.04978 0.56821 0.0
C492 C 0.75914 0.03531 0.55479 0.0
C493 C 0.80238 0.05119 0.57088 0.0
C494 C 0.80255 0.03667 0.55742 0.0
N495 N 0.78293 0.98865 0.50935 0.0
C496 C 0.76176 0.96437 0.49022 0.0
C497 C 0.78426 0.95908 0.48261 0.0
C498 C 0.80607 0.96904 0.4884 0.0
C499 C 0.80499 0.98365 0.50165 0.0
C500 C 0.76152 0.97908 0.50338 0.0
H501 H 0.82226 0.99061 0.50551 0.0
H502 H 0.74378 0.9823 0.50871 0.0
H503 H 0.74183 0.02972 0.54911 0.0
H504 H 0.82024 0.03223 0.55378 0.0
C505 C 0.84343 0.01285 0.53013 0.0
C506 C 0.78137 0.97429 0.5694 0.0
C507 C 0.78259 0.04255 0.48842 0.0
C508 C 0.72062 0.00465 0.52855 0.0
H509 H 0.83126 0.96797 0.58127 0.0
H510 H 0.86541 0.98909 0.55989 0.0
H511 H 0.8663 0.03963 0.50102 0.0
H512 H 0.83289 0.05594 0.4784 0.0
H513 H 0.73295 0.04673 0.47437 0.0
H514 H 0.69877 0.02602 0.49629 0.0
H515 H 0.69772 0.98009 0.56008 0.0
H516 H 0.73129 0.96347 0.58237 0.0
H517 H 0.74023 0.05435 0.57228 0.0
H518 H 0.81986 0.0572 0.57663 0.0
H519 H 0.74434 0.957 0.48638 0.0
H520 H 0.82396 0.96571 0.48264 0.0
C521 C 0.47393 0.27197 0.05262 0.0
C522 C 0.4672 0.28929 0.05704 0.0
C523 C 0.48187 0.3015 0.04477 0.0
C524 C 0.49649 0.29099 0.03347 0.0
N525 N 0.49184 0.27278 0.03758 0.0
Co526 Co 0.50846 0.25258 0.02441 0.0
N527 N 0.53195 0.2706 0.00814 0.0
C528 C 0.53348 0.28906 0.00895 0.0
C529 C 0.55155 0.29779 0.99613 0.0
C530 C 0.56215 0.28412 0.98644 0.0
C531 C 0.54976 0.26777 0.99386 0.0
N532 N 0.52467 0.23238 0.01077 0.0
C533 C 0.54275 0.23321 0.99584 0.0
C534 C 0.54774 0.21588 0.98986 0.0
C535 C 0.5322 0.20367 0.00135 0.0
C536 C 0.5186 0.21417 0.01355 0.0
N537 N 0.48543 0.23457 0.04121 0.0
C538 C 0.48464 0.21609 0.04109 0.0
C539 C 0.4683 0.20732 0.05541 0.0
C540 C 0.45825 0.22099 0.06555 0.0
C541 C 0.46894 0.23741 0.05663 0.0
N542 N 0.48441 0.25299 0.00089 0.0
C543 C 0.45329 0.2533 0.96549 0.0
C544 C 0.45574 0.23715 0.9775 0.0
C545 C 0.47131 0.2373 0.99497 0.0
C546 C 0.46599 0.26938 0.9719 0.0
C547 C 0.48117 0.26894 0.98953 0.0
N548 N 0.53252 0.25216 0.04785 0.0
C549 C 0.55616 0.23535 0.07321 0.0
C550 C 0.56583 0.25159 0.08178 0.0
C551 C 0.55859 0.26812 0.07299 0.0
C552 C 0.5421 0.26809 0.05619 0.0
C553 C 0.53969 0.23594 0.05639 0.0
H554 H 0.53724 0.28113 0.05031 0.0
H555 H 0.53299 0.2231 0.0506 0.0
H556 H 0.47272 0.22448 0.00321 0.0
H557 H 0.49031 0.28168 0.99346 0.0
C558 C 0.51632 0.29784 0.02053 0.0
C559 C 0.46371 0.25531 0.06394 0.0
C560 C 0.55514 0.25 0.98641 0.0
C561 C 0.50015 0.20736 0.02787 0.0
H562 H 0.45357 0.29275 0.06839 0.0
H563 H 0.48241 0.31629 0.04464 0.0
H564 H 0.55604 0.31239 0.9937 0.0
H565 H 0.57702 0.28597 0.97491 0.0
H566 H 0.56104 0.21242 0.97821 0.0
H567 H 0.53083 0.1889 0.00074 0.0
H568 H 0.46462 0.19273 0.0585 0.0
H569 H 0.44499 0.21901 0.07837 0.0
H570 H 0.44627 0.22433 0.9731 0.0
H571 H 0.46427 0.2823 0.96332 0.0
H572 H 0.56145 0.22219 0.07926 0.0
H573 H 0.5653 0.28107 0.07923 0.0
H574 H 0.23505 0.33768 0.3675 0.0
H575 H 0.2054 0.36084 0.36921 0.0
H576 H 0.19167 0.35702 0.30279 0.0
H577 H 0.22283 0.33492 0.30058 0.0
H578 H 0.19482 0.39067 0.31105 0.0
H579 H 0.14964 0.33794 0.34286 0.0
H580 H 0.14176 0.31113 0.36742 0.0
H581 H 0.14769 0.34607 0.4198 0.0
H582 H 0.15594 0.37308 0.39554 0.0
H583 H 0.08196 0.43488 0.31124 0.0
H584 H 0.1105 0.41076 0.31069 0.0
H585 H 0.14097 0.42751 0.36984 0.0
H586 H 0.1134 0.45237 0.37011 0.0
H587 H 0.12841 0.38744 0.36546 0.0
H588 H 0.17385 0.44025 0.33133 0.0
H589 H 0.17915 0.46617 0.30523 0.0
H590 H 0.16926 0.4291 0.25509 0.0
H591 H 0.16351 0.40297 0.28092 0.0
C592 C 0.22602 0.34189 0.35315 0.0
C593 C 0.23153 0.33437 0.33387 0.0
C594 C 0.20868 0.35496 0.35424 0.0
C595 C 0.1959 0.36051 0.33621 0.0
C596 C 0.20117 0.35294 0.31697 0.0
C597 C 0.21884 0.34009 0.31578 0.0
C598 C 0.17769 0.37465 0.33724 0.0
C599 C 0.1801 0.38975 0.32278 0.0
C600 C 0.15863 0.37373 0.35274 0.0
C601 C 0.15365 0.35752 0.36738 0.0
C602 C 0.14945 0.3399 0.35962 0.0
C603 C 0.14489 0.32466 0.37349 0.0
C604 C 0.14429 0.32689 0.39516 0.0
C605 C 0.14819 0.34436 0.403 0.0
C606 C 0.15279 0.35964 0.3892 0.0
C607 C 0.09491 0.43368 0.32404 0.0
C608 C 0.09546 0.44581 0.34062 0.0
C609 C 0.11105 0.41974 0.32377 0.0
C610 C 0.12784 0.41744 0.34018 0.0
C611 C 0.12803 0.42907 0.35707 0.0
C612 C 0.11214 0.44322 0.35722 0.0
C613 C 0.1457 0.40321 0.33931 0.0
C614 C 0.14317 0.38819 0.35377 0.0
C615 C 0.16434 0.404 0.3236 0.0
C616 C 0.16799 0.41968 0.30806 0.0
C617 C 0.17258 0.43764 0.31474 0.0
C618 C 0.17571 0.45237 0.3 0.0
C619 C 0.17447 0.44929 0.27852 0.0
C620 C 0.17017 0.43147 0.27173 0.0
C621 C 0.167 0.4167 0.28642 0.0
H622 H 0.1769 0.46071 0.26713 0.0
H623 H 0.14074 0.31508 0.40587 0.0
H624 H 0.17586 0.70655 0.67512 0.0
H625 H 0.14595 0.67952 0.67556 0.0
H626 H 0.18551 0.6548 0.72664 0.0
H627 H 0.21522 0.68186 0.72647 0.0
H628 H 0.1743 0.63195 0.69087 0.0
H629 H 0.13501 0.67036 0.73887 0.0
H630 H 0.11788 0.69891 0.74897 0.0
H631 H 0.06556 0.6947 0.69857 0.0
H632 H 0.08265 0.66625 0.68797 0.0
H633 H 0.09174 0.55546 0.71969 0.0
H634 H 0.12018 0.58317 0.7191 0.0
H635 H 0.06744 0.61219 0.68257 0.0
H636 H 0.03838 0.58474 0.68444 0.0
H637 H 0.08544 0.63354 0.70982 0.0
H638 H 0.12238 0.59609 0.6611 0.0
H639 H 0.13921 0.56829 0.64837 0.0
H640 H 0.19549 0.5714 0.6957 0.0
H641 H 0.17878 0.59909 0.70891 0.0
C642 C 0.17805 0.69537 0.68649 0.0
C643 C 0.19775 0.69629 0.70082 0.0
C644 C 0.16098 0.68 0.68675 0.0
C645 C 0.16358 0.66522 0.70115 0.0
C646 C 0.18324 0.66609 0.71543 0.0
C647 C 0.20005 0.68157 0.71541 0.0
C648 C 0.14603 0.64867 0.70109 0.0
C649 C 0.15492 0.63218 0.69524 0.0
C650 C 0.12063 0.64924 0.70607 0.0
C651 C 0.11029 0.66629 0.71249 0.0
C652 C 0.12001 0.67562 0.72982 0.0
C653 C 0.11028 0.69176 0.73566 0.0
C654 C 0.09069 0.69865 0.72438 0.0
C655 C 0.08076 0.68937 0.70727 0.0
C656 C 0.09045 0.67323 0.70135 0.0
C657 C 0.0863 0.56782 0.71163 0.0
C658 C 0.06297 0.56808 0.70215 0.0
C659 C 0.1026 0.5836 0.7111 0.0
C660 C 0.09621 0.59976 0.70046 0.0
C661 C 0.07286 0.59994 0.69087 0.0
C662 C 0.05634 0.58426 0.69181 0.0
C663 C 0.11363 0.61656 0.69967 0.0
C664 C 0.10477 0.63318 0.70534 0.0
C665 C 0.13899 0.61618 0.69408 0.0
C666 C 0.14918 0.59958 0.68612 0.0
C667 C 0.13824 0.59078 0.66889 0.0
C668 C 0.14778 0.57505 0.66157 0.0
C669 C 0.16837 0.56806 0.67125 0.0
C670 C 0.17952 0.57682 0.68823 0.0
C671 C 0.17004 0.59254 0.69563 0.0
H672 H 0.17573 0.55588 0.66557 0.0
H673 H 0.08317 0.71115 0.72893 0.0
H674 H 0.82294 0.69193 0.32872 0.0
H675 H 0.84281 0.66354 0.33672 0.0
H676 H 0.90475 0.68316 0.29673 0.0
H677 H 0.88537 0.71157 0.289 0.0
H678 H 0.88704 0.64823 0.28848 0.0
H679 H 0.90976 0.68296 0.34943 0.0
H680 H 0.90109 0.70006 0.38076 0.0
H681 H 0.85872 0.65282 0.40806 0.0
H682 H 0.86687 0.6355 0.37675 0.0
H683 H 0.98015 0.59005 0.31117 0.0
H684 H 0.95573 0.6166 0.30786 0.0
H685 H 0.90324 0.59133 0.35374 0.0
H686 H 0.92808 0.56477 0.35744 0.0
H687 H 0.91133 0.62694 0.35997 0.0
H688 H 0.89022 0.59138 0.30096 0.0
H689 H 0.89788 0.57372 0.26987 0.0
H690 H 0.93485 0.62157 0.23887 0.0
H691 H 0.92773 0.63947 0.26991 0.0
C692 C 0.84093 0.69028 0.32184 0.0
C693 C 0.85247 0.70399 0.30809 0.0
C694 C 0.85222 0.67404 0.32639 0.0
C695 C 0.87526 0.67126 0.31732 0.0
C696 C 0.88689 0.68497 0.30378 0.0
C697 C 0.8757 0.70118 0.2993 0.0
C698 C 0.8872 0.65393 0.32136 0.0
C699 C 0.89254 0.64365 0.30409 0.0
C700 C 0.89351 0.64762 0.34181 0.0
C701 C 0.88868 0.65801 0.36065 0.0
C702 C 0.89841 0.67627 0.36203 0.0
C703 C 0.89363 0.68599 0.37981 0.0
C704 C 0.8793 0.67755 0.39636 0.0
C705 C 0.86978 0.65935 0.39521 0.0
C706 C 0.87449 0.64957 0.37746 0.0
C707 C 0.96337 0.59013 0.32051 0.0
C708 C 0.95583 0.57526 0.33436 0.0
C709 C 0.9494 0.6053 0.3186 0.0
C710 C 0.92733 0.60579 0.3302 0.0
C711 C 0.92012 0.5912 0.34455 0.0
C712 C 0.9343 0.57606 0.34665 0.0
C713 C 0.91179 0.62149 0.327 0.0
C714 C 0.90564 0.63141 0.34438 0.0
C715 C 0.90446 0.62741 0.30664 0.0
C716 C 0.90858 0.61674 0.28784 0.0
C717 C 0.90012 0.59812 0.28757 0.0
C718 C 0.90435 0.58806 0.26995 0.0
C719 C 0.91689 0.59651 0.25242 0.0
C720 C 0.92516 0.61504 0.25247 0.0
C721 C 0.921 0.62516 0.27006 0.0
H722 H 0.92015 0.5887 0.23879 0.0
H723 H 0.87562 0.6851 0.41011 0.0
H724 H 0.88044 0.31326 0.75974 0.0
H725 H 0.89903 0.34367 0.74909 0.0
H726 H 0.83002 0.3571 0.72092 0.0
H727 H 0.81122 0.32647 0.73153 0.0
H728 H 0.86959 0.37002 0.69639 0.0
H729 H 0.8454 0.37293 0.76806 0.0
H730 H 0.84198 0.36317 0.8056 0.0
H731 H 0.9212 0.3701 0.8113 0.0
H732 H 0.92513 0.37964 0.7737 0.0
H733 H 0.9072 0.46729 0.69592 0.0
H734 H 0.88464 0.43692 0.70108 0.0
H735 H 0.95094 0.4152 0.72585 0.0
H736 H 0.97349 0.44543 0.7204 0.0
H737 H 0.90909 0.4077 0.75174 0.0
H738 H 0.93233 0.40417 0.67883 0.0
H739 H 0.93438 0.41471 0.6415 0.0
H740 H 0.85485 0.41019 0.63856 0.0
H741 H 0.85231 0.39989 0.676 0.0
C742 C 0.86916 0.3227 0.75136 0.0
C743 C 0.84426 0.31756 0.74674 0.0
C744 C 0.87982 0.34006 0.74524 0.0
C745 C 0.86578 0.35277 0.73454 0.0
C746 C 0.84115 0.34752 0.72923 0.0
C747 C 0.83046 0.33004 0.73529 0.0
C748 C 0.87684 0.37165 0.72954 0.0
C749 C 0.87789 0.37839 0.70852 0.0
C750 C 0.88782 0.38252 0.74535 0.0
C751 C 0.88556 0.37686 0.76801 0.0
C752 C 0.86211 0.37224 0.77728 0.0
C753 C 0.86008 0.36676 0.79857 0.0
C754 C 0.88137 0.36597 0.81081 0.0
C755 C 0.90473 0.3707 0.80179 0.0
C756 C 0.90687 0.37616 0.78049 0.0
C757 C 0.91695 0.45588 0.70207 0.0
C758 C 0.94202 0.45848 0.70762 0.0
C759 C 0.90411 0.43862 0.70504 0.0
C760 C 0.91617 0.42384 0.7138 0.0
C761 C 0.94133 0.42644 0.71907 0.0
C762 C 0.95418 0.44361 0.71591 0.0
C763 C 0.90237 0.40587 0.71858 0.0
C764 C 0.90069 0.39936 0.73962 0.0
C765 C 0.89061 0.39537 0.70282 0.0
C766 C 0.89213 0.40146 0.68029 0.0
C767 C 0.91527 0.40559 0.67029 0.0
C768 C 0.91652 0.41149 0.64909 0.0
C769 C 0.89476 0.41317 0.63768 0.0
C770 C 0.87169 0.40891 0.64743 0.0
C771 C 0.87033 0.40303 0.66864 0.0
H772 H 0.89577 0.41774 0.62127 0.0
H773 H 0.87976 0.36173 0.8273 0.0
H774 H 0.26519 0.19336 0.34708 0.0
H775 H 0.2535 0.16409 0.36592 0.0
H776 H 0.27401 0.18808 0.42462 0.0
H777 H 0.28576 0.21731 0.40589 0.0
H778 H 0.29307 0.15609 0.42169 0.0
H779 H 0.21289 0.17863 0.41106 0.0
H780 H 0.17889 0.19086 0.39049 0.0
H781 H 0.17267 0.14244 0.35479 0.0
H782 H 0.20688 0.13002 0.37497 0.0
H783 H 0.2432 0.08619 0.49227 0.0
H784 H 0.24847 0.11572 0.47241 0.0
H785 H 0.23299 0.08835 0.41476 0.0
H786 H 0.22757 0.05878 0.43477 0.0
H787 H 0.21092 0.12142 0.41632 0.0
H788 H 0.29107 0.09896 0.42716 0.0
H789 H 0.3244 0.08652 0.44836 0.0
H790 H 0.33034 0.135 0.48397 0.0
H791 H 0.29675 0.14762 0.46318 0.0
C792 C 0.26689 0.19245 0.36403 0.0
C793 C 0.27646 0.20764 0.37499 0.0
C794 C 0.26021 0.17571 0.37478 0.0
C795 C 0.26273 0.17391 0.39671 0.0
C796 C 0.272 0.18912 0.40769 0.0
C797 C 0.27877 0.20581 0.39696 0.0
C798 C 0.25659 0.15603 0.4082 0.0
C799 C 0.27498 0.14866 0.42072 0.0
C800 C 0.23322 0.14606 0.40651 0.0
C801 C 0.21262 0.15348 0.39438 0.0
C802 C 0.20441 0.17066 0.39871 0.0
C803 C 0.18507 0.17761 0.38714 0.0
C804 C 0.17367 0.16746 0.3713 0.0
C805 C 0.18154 0.1503 0.36704 0.0
C806 C 0.20089 0.14329 0.37855 0.0
C807 C 0.24061 0.08661 0.4754 0.0
C808 C 0.23499 0.07042 0.46492 0.0
C809 C 0.24367 0.10339 0.46408 0.0
C810 C 0.24138 0.10418 0.44209 0.0
C811 C 0.23481 0.08803 0.43171 0.0
C812 C 0.23176 0.07121 0.44306 0.0
C813 C 0.24729 0.1217 0.42993 0.0
C814 C 0.22896 0.12892 0.41725 0.0
C815 C 0.27072 0.13158 0.43146 0.0
C816 C 0.29125 0.12417 0.44373 0.0
C817 C 0.29938 0.10693 0.43959 0.0
C818 C 0.31833 0.09985 0.45153 0.0
C819 C 0.32944 0.10994 0.46754 0.0
C820 C 0.32169 0.12718 0.47158 0.0
C821 C 0.30271 0.13432 0.45971 0.0
H822 H 0.34409 0.10443 0.47677 0.0
H823 H 0.1587 0.17286 0.36237 0.0
H824 H 0.35383 0.74328 0.7809 0.0
H825 H 0.37325 0.74603 0.81523 0.0
H826 H 0.32947 0.79094 0.8281 0.0
H827 H 0.30938 0.78801 0.79389 0.0
H828 H 0.37932 0.79761 0.83857 0.0
H829 H 0.31351 0.75086 0.85135 0.0
H830 H 0.28817 0.72225 0.84488 0.0
H831 H 0.35185 0.69154 0.85445 0.0
H832 H 0.37768 0.72001 0.86067 0.0
H833 H 0.4132 0.79709 0.94705 0.0
H834 H 0.38927 0.79648 0.9145 0.0
H835 H 0.42418 0.74848 0.89684 0.0
H836 H 0.44812 0.74902 0.92924 0.0
H837 H 0.37556 0.74452 0.88995 0.0
H838 H 0.44191 0.79106 0.87483 0.0
H839 H 0.46788 0.81952 0.88071 0.0
H840 H 0.40387 0.85044 0.87512 0.0
H841 H 0.37745 0.82211 0.8695 0.0
C842 C 0.34804 0.75361 0.79109 0.0
C843 C 0.32984 0.76532 0.78466 0.0
C844 C 0.35927 0.75521 0.81069 0.0
C845 C 0.3526 0.76856 0.82429 0.0
C846 C 0.33486 0.78054 0.81782 0.0
C847 C 0.32348 0.77888 0.79823 0.0
C848 C 0.36424 0.76989 0.84526 0.0
C849 C 0.37817 0.78612 0.84998 0.0
C850 C 0.36308 0.75477 0.85994 0.0
C851 C 0.34758 0.7376 0.8563 0.0
C852 C 0.32216 0.73803 0.85191 0.0
C853 C 0.3077 0.72183 0.84832 0.0
C854 C 0.31841 0.70509 0.84921 0.0
C855 C 0.34359 0.70452 0.85374 0.0
C856 C 0.35815 0.72068 0.85733 0.0
C857 C 0.41587 0.78647 0.93617 0.0
C858 C 0.43255 0.77309 0.94075 0.0
C859 C 0.40218 0.78613 0.91758 0.0
C860 C 0.40508 0.77251 0.90315 0.0
C861 C 0.42156 0.75907 0.90779 0.0
C862 C 0.43517 0.75936 0.92635 0.0
C863 C 0.39102 0.77215 0.88318 0.0
C864 C 0.37658 0.75607 0.87864 0.0
C865 C 0.39181 0.78739 0.86865 0.0
C866 C 0.40766 0.80444 0.87199 0.0
C867 C 0.43334 0.80391 0.87503 0.0
C868 C 0.44815 0.82002 0.87829 0.0
C869 C 0.43752 0.83677 0.87836 0.0
C870 C 0.41207 0.83745 0.87511 0.0
C871 C 0.39717 0.82137 0.87187 0.0
H872 H 0.44902 0.84923 0.88087 0.0
H873 H 0.30718 0.69257 0.84642 0.0
H874 H 0.7603 0.83424 0.34602 0.0
H875 H 0.75651 0.85786 0.37144 0.0
H876 H 0.82426 0.84338 0.40099 0.0
H877 H 0.82782 0.81932 0.37596 0.0
H878 H 0.78922 0.85072 0.42999 0.0
H879 H 0.82552 0.87919 0.36643 0.0
H880 H 0.82794 0.88667 0.32829 0.0
H881 H 0.75912 0.91192 0.33129 0.0
H882 H 0.75611 0.90435 0.36943 0.0
H883 H 0.81761 0.93278 0.48321 0.0
H884 H 0.81877 0.90691 0.46047 0.0
H885 H 0.75321 0.92318 0.42871 0.0
H886 H 0.75251 0.94953 0.4508 0.0
H887 H 0.78671 0.91454 0.40114 0.0
H888 H 0.75088 0.88672 0.46505 0.0
H889 H 0.74863 0.87926 0.5032 0.0
H890 H 0.81652 0.85287 0.49974 0.0
H891 H 0.81936 0.8604 0.4616 0.0
C892 C 0.77414 0.83581 0.35818 0.0
C893 C 0.79445 0.82497 0.35888 0.0
C894 C 0.77206 0.84944 0.37258 0.0
C895 C 0.79031 0.85256 0.38789 0.0
C896 C 0.81004 0.84126 0.38923 0.0
C897 C 0.81214 0.82762 0.37481 0.0
C898 C 0.78942 0.86816 0.40186 0.0
C899 C 0.78894 0.8647 0.42372 0.0
C900 C 0.78861 0.88636 0.39364 0.0
C901 C 0.79047 0.89104 0.37074 0.0
C902 C 0.81081 0.88621 0.35893 0.0
C903 C 0.8123 0.89049 0.33732 0.0
C904 C 0.79366 0.89972 0.32736 0.0
C905 C 0.77352 0.90474 0.33902 0.0
C906 C 0.77192 0.90047 0.36063 0.0
C907 C 0.80357 0.93098 0.47126 0.0
C908 C 0.78494 0.94325 0.46886 0.0
C909 C 0.80408 0.91603 0.45843 0.0
C910 C 0.78586 0.91294 0.44308 0.0
C911 C 0.76738 0.92524 0.44053 0.0
C912 C 0.76689 0.94021 0.45329 0.0
C913 C 0.78636 0.89714 0.42934 0.0
C914 C 0.78687 0.90056 0.40747 0.0
C915 C 0.7872 0.87893 0.43758 0.0
C916 C 0.78545 0.87428 0.4605 0.0
C917 C 0.76543 0.87945 0.47245 0.0
C918 C 0.76403 0.87518 0.49407 0.0
C919 C 0.78245 0.86564 0.5039 0.0
C920 C 0.80228 0.86028 0.49211 0.0
C921 C 0.80378 0.86453 0.47049 0.0
H922 H 0.78133 0.86235 0.52064 0.0
H923 H 0.79485 0.90302 0.31063 0.0
H924 H 0.68827 0.24992 0.81555 0.0
H925 H 0.65573 0.2512 0.84225 0.0
H926 H 0.70618 0.23433 0.89031 0.0
H927 H 0.7386 0.23292 0.86378 0.0
H928 H 0.66208 0.21621 0.89588 0.0
H929 H 0.69226 0.27947 0.88249 0.0
H930 H 0.70234 0.30758 0.86038 0.0
H931 H 0.62619 0.30783 0.84168 0.0
H932 H 0.61572 0.27956 0.86348 0.0
H933 H 0.60279 0.24082 0.98836 0.0
H934 H 0.63198 0.23908 0.95899 0.0
H935 H 0.57597 0.25527 0.91541 0.0
H936 H 0.54696 0.25728 0.94493 0.0
H937 H 0.62024 0.27303 0.90586 0.0
H938 H 0.58945 0.21095 0.92108 0.0
H939 H 0.57917 0.18318 0.94369 0.0
H940 H 0.65611 0.18059 0.95889 0.0
H941 H 0.66681 0.20856 0.93667 0.0
C942 C 0.69242 0.24657 0.83183 0.0
C943 C 0.71599 0.24129 0.83755 0.0
C944 C 0.67382 0.2473 0.84707 0.0
C945 C 0.67857 0.24301 0.86833 0.0
C946 C 0.70203 0.23762 0.87401 0.0
C947 C 0.72054 0.23678 0.85881 0.0
C948 C 0.65925 0.24415 0.8848 0.0
C949 C 0.65312 0.22869 0.89819 0.0
C950 C 0.64701 0.26027 0.88746 0.0
C951 C 0.65327 0.2773 0.87443 0.0
C952 C 0.67771 0.28544 0.87354 0.0
C953 C 0.68348 0.30142 0.86109 0.0
C954 C 0.66493 0.30946 0.84959 0.0
C955 C 0.64055 0.30157 0.85057 0.0
C956 C 0.63468 0.28558 0.86298 0.0
C957 C 0.59686 0.24398 0.97247 0.0
C958 C 0.57279 0.24906 0.96869 0.0
C959 C 0.61342 0.24294 0.95574 0.0
C960 C 0.60604 0.2468 0.93497 0.0
C961 C 0.58203 0.25219 0.93128 0.0
C962 C 0.5655 0.25328 0.94805 0.0
C963 C 0.62341 0.24519 0.91714 0.0
C964 C 0.62911 0.26052 0.90347 0.0
C965 C 0.63524 0.22894 0.9142 0.0
C966 C 0.62891 0.21195 0.92733 0.0
C967 C 0.60417 0.20453 0.92935 0.0
C968 C 0.59826 0.18875 0.94209 0.0
C969 C 0.61697 0.18015 0.95275 0.0
C970 C 0.64164 0.18728 0.95064 0.0
C971 C 0.64763 0.2031 0.93796 0.0
H972 H 0.61237 0.16793 0.96261 0.0
H973 H 0.66943 0.32182 0.83995 0.0
H974 H 0.29464 0.84003 0.65402 0.0
H975 H 0.28515 0.86886 0.63657 0.0
H976 H 0.20688 0.8528 0.64259 0.0
H977 H 0.21627 0.82343 0.65923 0.0
H978 H 0.21658 0.86731 0.60477 0.0
H979 H 0.23528 0.88512 0.67407 0.0
H980 H 0.25927 0.88741 0.7068 0.0
H981 H 0.32008 0.91644 0.67282 0.0
H982 H 0.29659 0.9141 0.63981 0.0
H983 H 0.21776 0.97487 0.59463 0.0
H984 H 0.21823 0.94618 0.61609 0.0
H985 H 0.24516 0.91933 0.56252 0.0
H986 H 0.24414 0.9479 0.54107 0.0
H987 H 0.25501 0.92684 0.6274 0.0
H988 H 0.22319 0.87385 0.56502 0.0
H989 H 0.19522 0.87174 0.5346 0.0
H990 H 0.15378 0.91406 0.55828 0.0
H991 H 0.1809 0.916 0.58921 0.0
C992 C 0.27538 0.84252 0.6515 0.0
C993 C 0.25622 0.82935 0.65798 0.0
C994 C 0.26998 0.85915 0.64174 0.0
C995 C 0.24529 0.86313 0.63849 0.0
C996 C 0.22607 0.85006 0.64499 0.0
C997 C 0.23147 0.83335 0.65468 0.0
C998 C 0.23971 0.88075 0.6278 0.0
C999 C 0.2249 0.88034 0.60974 0.0
C1000 C 0.25003 0.89781 0.6346 0.0
C1001 C 0.26422 0.89931 0.65443 0.0
C1002 C 0.25383 0.89188 0.67355 0.0
C1003 C 0.26733 0.8932 0.69216 0.0
C1004 C 0.2912 0.90203 0.69189 0.0
C1005 C 0.30159 0.90959 0.67301 0.0
C1006 C 0.28818 0.90829 0.65434 0.0
C1007 C 0.22352 0.96273 0.58752 0.0
C1008 C 0.23071 0.96337 0.5663 0.0
C1009 C 0.22389 0.94642 0.59973 0.0
C1010 C 0.23147 0.93054 0.59087 0.0
C1011 C 0.2388 0.93129 0.56962 0.0
C1012 C 0.23834 0.94757 0.55741 0.0
C1013 C 0.23255 0.91335 0.60397 0.0
C1014 C 0.24653 0.91384 0.62248 0.0
C1015 C 0.22095 0.89644 0.59784 0.0
C1016 C 0.20432 0.89522 0.57935 0.0
C1017 C 0.20804 0.88265 0.56381 0.0
C1018 C 0.19232 0.88148 0.54647 0.0
C1019 C 0.17288 0.89286 0.54442 0.0
C1020 C 0.16894 0.90532 0.55982 0.0
C1021 C 0.18446 0.90644 0.57728 0.0
H1022 H 0.16081 0.89198 0.53093 0.0
H1023 H 0.30162 0.90304 0.70631 0.0
H1024 H 0.69686 0.78963 0.24168 0.0
H1025 H 0.66547 0.78934 0.21409 0.0
H1026 H 0.70431 0.74993 0.18124 0.0
H1027 H 0.736 0.75045 0.2085 0.0
H1028 H 0.69247 0.77789 0.15517 0.0
H1029 H 0.65059 0.73704 0.20698 0.0
H1030 H 0.63368 0.72723 0.24207 0.0
H1031 H 0.58597 0.77135 0.23951 0.0
H1032 H 0.60286 0.78159 0.20449 0.0
H1033 H 0.60028 0.75238 0.08099 0.0
H1034 H 0.62941 0.75185 0.11024 0.0
H1035 H 0.591 0.79312 0.14023 0.0
H1036 H 0.56155 0.79356 0.11108 0.0
H1037 H 0.60213 0.76464 0.16799 0.0
H1038 H 0.64407 0.8054 0.11614 0.0
H1039 H 0.66085 0.81504 0.08095 0.0
H1040 H 0.70848 0.77087 0.08366 0.0
H1041 H 0.69171 0.7608 0.11876 0.0
C1042 C 0.69867 0.78087 0.2286 0.0
C1043 C 0.71891 0.77005 0.22729 0.0
C1044 C 0.68063 0.78062 0.21293 0.0
C1045 C 0.68248 0.76953 0.19566 0.0
C1046 C 0.7025 0.75856 0.19445 0.0
C1047 C 0.72048 0.75875 0.21013 0.0
C1048 C 0.66413 0.76992 0.17842 0.0
C1049 C 0.67275 0.77474 0.15793 0.0
C1050 C 0.63834 0.76629 0.18213 0.0
C1051 C 0.62819 0.7602 0.2032 0.0
C1052 C 0.63666 0.74476 0.21397 0.0
C1053 C 0.62705 0.73909 0.23384 0.0
C1054 C 0.60882 0.74869 0.24304 0.0
C1055 C 0.60012 0.76394 0.23237 0.0
C1056 C 0.6097 0.76968 0.21251 0.0
C1057 C 0.59794 0.76126 0.09388 0.0
C1058 C 0.57866 0.77304 0.09373 0.0
C1059 C 0.61469 0.76102 0.1105 0.0
C1060 C 0.61246 0.77254 0.12732 0.0
C1061 C 0.59305 0.78415 0.12737 0.0
C1062 C 0.57639 0.78449 0.11065 0.0
C1063 C 0.63053 0.77249 0.14477 0.0
C1064 C 0.62185 0.76779 0.16526 0.0
C1065 C 0.65629 0.77621 0.14109 0.0
C1066 C 0.66644 0.78224 0.11999 0.0
C1067 C 0.65796 0.79764 0.10916 0.0
C1068 C 0.6675 0.8032 0.08924 0.0
C1069 C 0.68567 0.79354 0.08005 0.0
C1070 C 0.69438 0.77833 0.09079 0.0
C1071 C 0.68488 0.77269 0.1107 0.0
H1072 H 0.69304 0.79787 0.06463 0.0
H1073 H 0.60139 0.74428 0.25842 0.0
H1074 H 0.82112 0.19728 0.68844 0.0
H1075 H 0.81602 0.17363 0.66273 0.0
H1076 H 0.74506 0.15472 0.69034 0.0
H1077 H 0.75058 0.17779 0.71679 0.0
H1078 H 0.77062 0.12679 0.68424 0.0
H1079 H 0.75007 0.17862 0.6419 0.0
H1080 H 0.7556 0.21 0.62608 0.0
H1081 H 0.82228 0.19703 0.59513 0.0
H1082 H 0.81734 0.16563 0.61101 0.0
H1083 H 0.75095 0.08698 0.57315 0.0
H1084 H 0.74932 0.11215 0.59691 0.0
H1085 H 0.80655 0.08987 0.63485 0.0
H1086 H 0.80765 0.06431 0.61164 0.0
H1087 H 0.7827 0.13867 0.6074 0.0
H1088 H 0.79665 0.09766 0.68598 0.0
H1089 H 0.78724 0.06639 0.70135 0.0
H1090 H 0.72615 0.05812 0.6591 0.0
H1091 H 0.73496 0.08943 0.64369 0.0
C1092 C 0.80444 0.18807 0.68911 0.0
C1093 C 0.78632 0.1894 0.70478 0.0
C1094 C 0.80141 0.17467 0.67421 0.0
C1095 C 0.78005 0.16247 0.67446 0.0
C1096 C 0.76169 0.164 0.68981 0.0
C1097 C 0.76476 0.17733 0.7048 0.0
C1098 C 0.77749 0.14754 0.65939 0.0
C1099 C 0.77317 0.12942 0.66744 0.0
C1100 C 0.78041 0.15094 0.63741 0.0
C1101 C 0.78343 0.16981 0.62779 0.0
C1102 C 0.76601 0.18249 0.63185 0.0
C1103 C 0.76903 0.20028 0.62285 0.0
C1104 C 0.78931 0.20551 0.60965 0.0
C1105 C 0.80659 0.19296 0.60538 0.0
C1106 C 0.80367 0.17516 0.61435 0.0
C1107 C 0.763 0.08732 0.58669 0.0
C1108 C 0.77932 0.07355 0.59056 0.0
C1109 C 0.7622 0.10181 0.60014 0.0
C1110 C 0.77762 0.1028 0.61778 0.0
C1111 C 0.79423 0.08925 0.6215 0.0
C1112 C 0.795 0.07474 0.60809 0.0
C1113 C 0.77636 0.11796 0.63233 0.0
C1114 C 0.78002 0.13609 0.6242 0.0
C1115 C 0.77229 0.11461 0.65419 0.0
C1116 C 0.76663 0.09584 0.66356 0.0
C1117 C 0.78114 0.0892 0.68003 0.0
C1118 C 0.77592 0.07146 0.68874 0.0
C1119 C 0.75616 0.06026 0.68116 0.0
C1120 C 0.74151 0.06679 0.66491 0.0
C1121 C 0.74663 0.08452 0.65616 0.0
H1122 H 0.75217 0.04652 0.68791 0.0
H1123 H 0.79161 0.21929 0.60269 0.0
H1124 H 0.3831 0.288 0.24632 0.0
H1125 H 0.40238 0.28458 0.21213 0.0
H1126 H 0.33796 0.25088 0.19329 0.0
H1127 H 0.31886 0.25387 0.22787 0.0
H1128 H 0.3778 0.23666 0.18071 0.0
H1129 H 0.34952 0.29654 0.17511 0.0
H1130 H 0.34403 0.32794 0.18556 0.0
H1131 H 0.42279 0.34099 0.18208 0.0
H1132 H 0.4288 0.30958 0.17189 0.0
H1133 H 0.41464 0.24521 0.07157 0.0
H1134 H 0.39134 0.24788 0.10443 0.0
H1135 H 0.4574 0.27218 0.13306 0.0
H1136 H 0.48078 0.26911 0.10041 0.0
H1137 H 0.41396 0.29117 0.13897 0.0
H1138 H 0.44098 0.22992 0.14536 0.0
H1139 H 0.44482 0.19877 0.13336 0.0
H1140 H 0.36551 0.18875 0.13357 0.0
H1141 H 0.3612 0.21999 0.14522 0.0
C1142 C 0.37297 0.27998 0.23482 0.0
C1143 C 0.34938 0.27135 0.23966 0.0
C1144 C 0.38398 0.27806 0.21526 0.0
C1145 C 0.37144 0.26778 0.19992 0.0
C1146 C 0.34798 0.25893 0.20482 0.0
C1147 C 0.33707 0.26066 0.22455 0.0
C1148 C 0.38305 0.26614 0.17893 0.0
C1149 C 0.38531 0.24861 0.17145 0.0
C1150 C 0.39314 0.28171 0.16686 0.0
C1151 C 0.38962 0.30065 0.1729 0.0
C1152 C 0.36569 0.30607 0.17672 0.0
C1153 C 0.36248 0.32387 0.18258 0.0
C1154 C 0.38305 0.33644 0.18453 0.0
C1155 C 0.40687 0.33124 0.18058 0.0
C1156 C 0.41019 0.31344 0.17474 0.0
C1157 C 0.42411 0.25095 0.085 0.0
C1158 C 0.44946 0.25676 0.08371 0.0
C1159 C 0.41086 0.25252 0.10366 0.0
C1160 C 0.42272 0.26015 0.12116 0.0
C1161 C 0.44795 0.26626 0.11972 0.0
C1162 C 0.46126 0.26447 0.10117 0.0
C1163 C 0.40891 0.26176 0.14104 0.0
C1164 C 0.40624 0.27928 0.14824 0.0
C1165 C 0.39817 0.24622 0.15267 0.0
C1166 C 0.40076 0.22736 0.14594 0.0
C1167 C 0.42436 0.22113 0.14267 0.0
C1168 C 0.42662 0.20345 0.13596 0.0
C1169 C 0.40542 0.1918 0.13264 0.0
C1170 C 0.38192 0.1978 0.1361 0.0
C1171 C 0.37955 0.21549 0.14277 0.0
H1172 H 0.40721 0.17812 0.12745 0.0
H1173 H 0.38053 0.35022 0.18907 0.0
H1174 H 0.79716 0.68683 0.74812 0.0
H1175 H 0.81264 0.65813 0.73766 0.0
H1176 H 0.87196 0.68839 0.70242 0.0
H1177 H 0.856 0.71713 0.71205 0.0
H1178 H 0.85495 0.65852 0.6821 0.0
H1179 H 0.88075 0.67201 0.75273 0.0
H1180 H 0.87401 0.67894 0.78978 0.0
H1181 H 0.82919 0.62824 0.79963 0.0
H1182 H 0.8354 0.62113 0.76254 0.0
H1183 H 0.94788 0.59508 0.68276 0.0
H1184 H 0.9222 0.62088 0.68534 0.0
H1185 H 0.86853 0.58672 0.7228 0.0
H1186 H 0.89446 0.56101 0.72062 0.0
H1187 H 0.879 0.61722 0.74106 0.0
H1188 H 0.85688 0.60218 0.67095 0.0
H1189 H 0.86423 0.59533 0.63398 0.0
H1190 H 0.90237 0.64852 0.62289 0.0
H1191 H 0.89555 0.65561 0.65988 0.0
C1192 C 0.81316 0.6874 0.73774 0.0
C1193 C 0.82553 0.7043 0.73115 0.0
C1194 C 0.82211 0.67097 0.73192 0.0
C1195 C 0.84374 0.67111 0.71958 0.0
C1196 C 0.85534 0.68794 0.71206 0.0
C1197 C 0.84634 0.70436 0.71777 0.0
C1198 C 0.85532 0.65387 0.71573 0.0
C1199 C 0.86035 0.64951 0.69497 0.0
C1200 C 0.86191 0.64193 0.7325 0.0
C1201 C 0.85832 0.64614 0.75483 0.0
C1202 C 0.86932 0.6624 0.76277 0.0
C1203 C 0.86561 0.66635 0.78377 0.0
C1204 C 0.85112 0.65406 0.79703 0.0
C1205 C 0.84037 0.63777 0.78933 0.0
C1206 C 0.84398 0.63376 0.76833 0.0
C1207 C 0.93037 0.593 0.69121 0.0
C1208 C 0.92319 0.57607 0.70155 0.0
C1209 C 0.91566 0.60775 0.69264 0.0
C1210 C 0.89327 0.60573 0.70412 0.0
C1211 C 0.88573 0.58863 0.71389 0.0
C1212 C 0.90055 0.57396 0.71266 0.0
C1213 C 0.87876 0.62178 0.70737 0.0
C1214 C 0.8733 0.626 0.7281 0.0
C1215 C 0.87183 0.63356 0.69054 0.0
C1216 C 0.87586 0.62937 0.66825 0.0
C1217 C 0.86698 0.61237 0.66067 0.0
C1218 C 0.87103 0.60845 0.6397 0.0
C1219 C 0.8838 0.62147 0.62611 0.0
C1220 C 0.89249 0.63845 0.63344 0.0
C1221 C 0.88851 0.64244 0.6544 0.0
H1222 H 0.88692 0.6184 0.60988 0.0
H1223 H 0.84827 0.65715 0.81329 0.0
H1224 H 0.89746 0.30932 0.31113 0.0
H1225 H 0.91697 0.33921 0.31939 0.0
H1226 H 0.8453 0.3578 0.33338 0.0
H1227 H 0.82553 0.32768 0.32558 0.0
H1228 H 0.87355 0.38237 0.30753 0.0
H1229 H 0.88349 0.34931 0.37282 0.0
H1230 H 0.89504 0.32367 0.39615 0.0
H1231 H 0.97093 0.3334 0.37579 0.0
H1232 H 0.95977 0.35894 0.35209 0.0
H1233 H 0.92771 0.46633 0.34551 0.0
H1234 H 0.90351 0.43655 0.34435 0.0
H1235 H 0.97043 0.4108 0.33054 0.0
H1236 H 0.99452 0.44053 0.33197 0.0
H1237 H 0.94149 0.39037 0.35922 0.0
H1238 H 0.93111 0.42157 0.29205 0.0
H1239 H 0.92002 0.44724 0.26854 0.0
H1240 H 0.84519 0.4408 0.29217 0.0
H1241 H 0.85596 0.41528 0.31611 0.0
C1242 C 0.88581 0.3196 0.31636 0.0
C1243 C 0.8599 0.31601 0.3178 0.0
C1244 C 0.89702 0.33674 0.32099 0.0
C1245 C 0.88261 0.35067 0.32719 0.0
C1246 C 0.85675 0.34721 0.32863 0.0
C1247 C 0.8455 0.33001 0.32408 0.0
C1248 C 0.89464 0.369 0.33144 0.0
C1249 C 0.88807 0.38419 0.31912 0.0
C1250 C 0.91393 0.37129 0.34627 0.0
C1251 C 0.92074 0.35595 0.36054 0.0
C1252 C 0.90261 0.34589 0.37319 0.0
C1253 C 0.90909 0.33139 0.3865 0.0
C1254 C 0.93369 0.32688 0.38742 0.0
C1255 C 0.95187 0.3369 0.37505 0.0
C1256 C 0.94549 0.3514 0.36169 0.0
C1257 C 0.93711 0.45422 0.34239 0.0
C1258 C 0.9628 0.4555 0.33884 0.0
C1259 C 0.92337 0.43729 0.34167 0.0
C1260 C 0.93516 0.42149 0.3372 0.0
C1261 C 0.96097 0.4228 0.33406 0.0
C1262 C 0.97468 0.43971 0.33479 0.0
C1263 C 0.92062 0.40366 0.33512 0.0
C1264 C 0.92676 0.38857 0.34781 0.0
C1265 C 0.90099 0.40145 0.3206 0.0
C1266 C 0.89441 0.41665 0.30604 0.0
C1267 C 0.91234 0.42572 0.29235 0.0
C1268 C 0.90611 0.44023 0.27893 0.0
C1269 C 0.88193 0.44567 0.2789 0.0
C1270 C 0.86392 0.43658 0.29224 0.0
C1271 C 0.87008 0.42209 0.30574 0.0
H1272 H 0.87713 0.45691 0.26849 0.0
H1273 H 0.93868 0.31565 0.39775 0.0
H1274 H 0.22461 0.35511 0.73797 0.0
H1275 H 0.19529 0.37879 0.73772 0.0
H1276 H 0.1494 0.34873 0.69376 0.0
H1277 H 0.17913 0.32529 0.69335 0.0
H1278 H 0.15594 0.38411 0.68162 0.0
H1279 H 0.13242 0.35015 0.74566 0.0
H1280 H 0.13911 0.33542 0.78052 0.0
H1281 H 0.16553 0.38733 0.80398 0.0
H1282 H 0.15932 0.40234 0.76916 0.0
H1283 H 0.05169 0.43637 0.68847 0.0
H1284 H 0.0791 0.41144 0.69034 0.0
H1285 H 0.12607 0.44119 0.7338 0.0
H1286 H 0.09871 0.46624 0.73199 0.0
H1287 H 0.11843 0.40563 0.74637 0.0
H1288 H 0.14284 0.43944 0.68231 0.0
H1289 H 0.13641 0.45429 0.64746 0.0
H1290 H 0.1086 0.40267 0.62407 0.0
H1291 H 0.11455 0.38755 0.65889 0.0
C1292 C 0.20832 0.35355 0.7282 0.0
C1293 C 0.20426 0.33831 0.71564 0.0
C1294 C 0.19143 0.36701 0.72824 0.0
C1295 C 0.17001 0.36546 0.71587 0.0
C1296 C 0.16577 0.35019 0.70348 0.0
C1297 C 0.18267 0.33672 0.7034 0.0
C1298 C 0.15254 0.38011 0.71527 0.0
C1299 C 0.14742 0.38861 0.69575 0.0
C1300 C 0.14195 0.38633 0.73376 0.0
C1301 C 0.14562 0.37734 0.75474 0.0
C1302 C 0.13984 0.35841 0.7582 0.0
C1303 C 0.14351 0.35001 0.77797 0.0
C1304 C 0.15279 0.36042 0.79444 0.0
C1305 C 0.15837 0.37927 0.7912 0.0
C1306 C 0.15475 0.38774 0.77146 0.0
C1307 C 0.06798 0.43769 0.69828 0.0
C1308 C 0.07311 0.45336 0.70996 0.0
C1309 C 0.0836 0.42341 0.69937 0.0
C1310 C 0.10481 0.42454 0.71202 0.0
C1311 C 0.1098 0.44002 0.72395 0.0
C1312 C 0.09413 0.45431 0.72292 0.0
C1313 C 0.12183 0.40959 0.71272 0.0
C1314 C 0.12689 0.40107 0.73225 0.0
C1315 C 0.13241 0.40336 0.69424 0.0
C1316 C 0.12891 0.4124 0.67327 0.0
C1317 C 0.13518 0.43128 0.66978 0.0
C1318 C 0.13164 0.43974 0.65003 0.0
C1319 C 0.12204 0.42944 0.63358 0.0
C1320 C 0.116 0.41064 0.63684 0.0
C1321 C 0.11947 0.40212 0.65657 0.0
H1322 H 0.11932 0.43601 0.61829 0.0
H1323 H 0.15562 0.35389 0.80973 0.0
H1324 H 0.25066 0.67063 0.34514 0.0
H1325 H 0.22071 0.64389 0.34673 0.0
H1326 H 0.16616 0.67579 0.31663 0.0
H1327 H 0.19618 0.70265 0.31473 0.0
H1328 H 0.14659 0.65435 0.35007 0.0
H1329 H 0.19589 0.64649 0.28869 0.0
H1330 H 0.23472 0.64462 0.26874 0.0
H1331 H 0.25282 0.59888 0.30862 0.0
H1332 H 0.21424 0.60064 0.32902 0.0
H1333 H 0.06222 0.57936 0.32491 0.0
H1334 H 0.09114 0.60691 0.32329 0.0
H1335 H 0.14878 0.57534 0.34916 0.0
H1336 H 0.11995 0.54769 0.35011 0.0
H1337 H 0.16645 0.59701 0.31748 0.0
H1338 H 0.11766 0.60474 0.37907 0.0
H1339 H 0.07903 0.60645 0.39937 0.0
H1340 H 0.06026 0.65221 0.35982 0.0
H1341 H 0.09862 0.6506 0.33908 0.0
C1342 C 0.23238 0.67195 0.33865 0.0
C1343 C 0.22591 0.68876 0.32963 0.0
C1344 C 0.21525 0.65665 0.33965 0.0
C1345 C 0.19131 0.6578 0.33157 0.0
C1346 C 0.18456 0.67462 0.32295 0.0
C1347 C 0.20171 0.68996 0.32193 0.0
C1348 C 0.17343 0.64136 0.33202 0.0
C1349 C 0.15076 0.64188 0.3427 0.0
C1350 C 0.17914 0.62497 0.32283 0.0
C1351 C 0.20228 0.62381 0.3105 0.0
C1352 C 0.20824 0.63612 0.29331 0.0
C1353 C 0.23019 0.63506 0.2819 0.0
C1354 C 0.24626 0.62167 0.28744 0.0
C1355 C 0.24037 0.60926 0.30437 0.0
C1356 C 0.21845 0.61027 0.31584 0.0
C1357 C 0.08107 0.57842 0.33027 0.0
C1358 C 0.08896 0.5616 0.33779 0.0
C1359 C 0.09753 0.59412 0.32945 0.0
C1360 C 0.12205 0.59326 0.3364 0.0
C1361 C 0.12994 0.57635 0.34378 0.0
C1362 C 0.11352 0.56062 0.34444 0.0
C1363 C 0.13961 0.60992 0.33564 0.0
C1364 C 0.16224 0.60946 0.32487 0.0
C1365 C 0.13388 0.62633 0.34483 0.0
C1366 C 0.11091 0.62744 0.3574 0.0
C1367 C 0.10521 0.61509 0.37461 0.0
C1368 C 0.08338 0.61605 0.38621 0.0
C1369 C 0.06718 0.6294 0.38086 0.0
C1370 C 0.07282 0.64186 0.36393 0.0
C1371 C 0.09461 0.64094 0.35226 0.0
H1372 H 0.05028 0.63012 0.38985 0.0
H1373 H 0.26324 0.62087 0.27859 0.0
H1374 H 0.76592 0.81898 0.67681 0.0
H1375 H 0.76435 0.84447 0.6508 0.0
H1376 H 0.793 0.8821 0.69657 0.0
H1377 H 0.79501 0.85675 0.72251 0.0
H1378 H 0.75416 0.89507 0.67495 0.0
H1379 H 0.83039 0.86829 0.659 0.0
H1380 H 0.85583 0.84323 0.65009 0.0
H1381 H 0.81436 0.83535 0.59343 0.0
H1382 H 0.78843 0.86021 0.60217 0.0
H1383 H 0.79322 0.97327 0.61089 0.0
H1384 H 0.79195 0.94632 0.63528 0.0
H1385 H 0.76656 0.91193 0.58517 0.0
H1386 H 0.76838 0.93892 0.56072 0.0
H1387 H 0.80145 0.89635 0.60784 0.0
H1388 H 0.72654 0.92381 0.62237 0.0
H1389 H 0.70083 0.94885 0.63075 0.0
H1390 H 0.73853 0.9551 0.68949 0.0
H1391 H 0.76479 0.9303 0.6813 0.0
C1392 C 0.77204 0.83266 0.6813 0.0
C1393 C 0.7806 0.8358 0.70177 0.0
C1394 C 0.77106 0.84722 0.66644 0.0
C1395 C 0.77872 0.86516 0.67172 0.0
C1396 C 0.7869 0.86837 0.69219 0.0
C1397 C 0.78793 0.85385 0.70703 0.0
C1398 C 0.77849 0.88065 0.65594 0.0
C1399 C 0.76469 0.89545 0.66037 0.0
C1400 C 0.79167 0.88087 0.63665 0.0
C1401 C 0.8073 0.86597 0.63136 0.0
C1402 C 0.82656 0.86111 0.64473 0.0
C1403 C 0.84109 0.84696 0.6397 0.0
C1404 C 0.83667 0.83766 0.62124 0.0
C1405 C 0.81774 0.84254 0.60774 0.0
C1406 C 0.80313 0.85666 0.61272 0.0
C1407 C 0.78749 0.95991 0.60519 0.0
C1408 C 0.78094 0.958 0.58409 0.0
C1409 C 0.78663 0.94457 0.61907 0.0
C1410 C 0.77887 0.92713 0.6121 0.0
C1411 C 0.77257 0.92524 0.59089 0.0
C1412 C 0.77352 0.94059 0.57699 0.0
C1413 C 0.77736 0.9109 0.62697 0.0
C1414 C 0.79079 0.89595 0.62236 0.0
C1415 C 0.76371 0.91048 0.64604 0.0
C1416 C 0.74778 0.92529 0.65113 0.0
C1417 C 0.72948 0.93061 0.63701 0.0
C1418 C 0.71479 0.94475 0.64173 0.0
C1419 C 0.71808 0.95358 0.66062 0.0
C1420 C 0.73602 0.94826 0.67485 0.0
C1421 C 0.7508 0.93415 0.67019 0.0
H1422 H 0.70669 0.96453 0.66425 0.0
H1423 H 0.84794 0.82672 0.61737 0.0
H1424 H 0.70707 0.22611 0.24323 0.0
H1425 H 0.67331 0.22701 0.21788 0.0
H1426 H 0.71153 0.27401 0.18546 0.0
H1427 H 0.74493 0.2736 0.21115 0.0
H1428 H 0.66255 0.27784 0.18816 0.0
H1429 H 0.71444 0.23109 0.16755 0.0
H1430 H 0.73633 0.20302 0.17287 0.0
H1431 H 0.66708 0.17183 0.18643 0.0
H1432 H 0.64481 0.19978 0.18147 0.0
H1433 H 0.60732 0.27463 0.08771 0.0
H1434 H 0.63596 0.27428 0.11723 0.0
H1435 H 0.59302 0.22753 0.14584 0.0
H1436 H 0.56409 0.22788 0.11642 0.0
H1437 H 0.64203 0.22297 0.14682 0.0
H1438 H 0.58978 0.26948 0.16514 0.0
H1439 H 0.56797 0.29754 0.15955 0.0
H1440 H 0.63767 0.32924 0.15018 0.0
H1441 H 0.65991 0.30131 0.15541 0.0
C1442 C 0.7081 0.23683 0.23091 0.0
C1443 C 0.7288 0.2497 0.22912 0.0
C1444 C 0.6889 0.23722 0.21632 0.0
C1445 C 0.69008 0.25041 0.19958 0.0
C1446 C 0.71028 0.26366 0.19818 0.0
C1447 C 0.72947 0.2633 0.21277 0.0
C1448 C 0.67073 0.2501 0.18312 0.0
C1449 C 0.65822 0.26591 0.17898 0.0
C1450 C 0.66465 0.23438 0.17149 0.0
C1451 C 0.678 0.21755 0.17436 0.0
C1452 C 0.70391 0.21827 0.17183 0.0
C1453 C 0.71638 0.20238 0.17475 0.0
C1454 C 0.70311 0.18566 0.18005 0.0
C1455 C 0.67734 0.18479 0.18237 0.0
C1456 C 0.66478 0.20065 0.17949 0.0
C1457 C 0.60378 0.2644 0.10039 0.0
C1458 C 0.58334 0.25132 0.09972 0.0
C1459 C 0.6202 0.2642 0.11725 0.0
C1460 C 0.61647 0.25101 0.13386 0.0
C1461 C 0.59624 0.23783 0.13318 0.0
C1462 C 0.57979 0.23801 0.11631 0.0
C1463 C 0.63401 0.25078 0.15171 0.0
C1464 C 0.6462 0.23487 0.1561 0.0
C1465 C 0.6398 0.26641 0.16355 0.0
C1466 C 0.6265 0.28326 0.16049 0.0
C1467 C 0.60045 0.28241 0.16173 0.0
C1468 C 0.58801 0.29829 0.15865 0.0
C1469 C 0.60142 0.31515 0.15446 0.0
C1470 C 0.62731 0.31616 0.1534 0.0
C1471 C 0.63984 0.30031 0.15644 0.0
H1472 H 0.59176 0.32744 0.15208 0.0
H1473 H 0.7128 0.17337 0.1823 0.0
H1474 H 0.27231 0.19564 0.68939 0.0
H1475 H 0.26514 0.16699 0.67144 0.0
H1476 H 0.21446 0.19221 0.62919 0.0
H1477 H 0.22102 0.22086 0.64747 0.0
H1478 H 0.19766 0.15688 0.64142 0.0
H1479 H 0.27265 0.18859 0.6136 0.0
H1480 H 0.31441 0.20454 0.61549 0.0
H1481 H 0.34203 0.15635 0.6446 0.0
H1482 H 0.30033 0.14018 0.64317 0.0
H1483 H 0.20205 0.09461 0.55851 0.0
H1484 H 0.20319 0.12132 0.58025 0.0
H1485 H 0.25647 0.09729 0.621 0.0
H1486 H 0.25536 0.07052 0.5994 0.0
H1487 H 0.27127 0.13193 0.60993 0.0
H1488 H 0.19631 0.09983 0.63684 0.0
H1489 H 0.15453 0.08395 0.63479 0.0
H1490 H 0.12675 0.13269 0.60718 0.0
H1491 H 0.16846 0.14879 0.60879 0.0
C1492 C 0.25926 0.19502 0.67655 0.0
C1493 C 0.24732 0.21058 0.6698 0.0
C1494 C 0.25535 0.17867 0.66618 0.0
C1495 C 0.23954 0.17755 0.6488 0.0
C1496 C 0.22682 0.19281 0.64252 0.0
C1497 C 0.23075 0.2092 0.65287 0.0
C1498 C 0.2372 0.16074 0.6366 0.0
C1499 C 0.21369 0.15151 0.63432 0.0
C1500 C 0.25819 0.15358 0.62768 0.0
C1501 C 0.28331 0.16324 0.62847 0.0
C1502 C 0.28759 0.18144 0.62056 0.0
C1503 C 0.31125 0.19051 0.62152 0.0
C1504 C 0.33085 0.18148 0.63021 0.0
C1505 C 0.32683 0.16334 0.63791 0.0
C1506 C 0.30319 0.15421 0.63701 0.0
C1507 C 0.21369 0.09487 0.57231 0.0
C1508 C 0.22867 0.08045 0.57719 0.0
C1509 C 0.21434 0.11015 0.58471 0.0
C1510 C 0.22982 0.11126 0.60233 0.0
C1511 C 0.24445 0.09676 0.60744 0.0
C1512 C 0.24385 0.0815 0.59504 0.0
C1513 C 0.23173 0.12792 0.61484 0.0
C1514 C 0.25521 0.1372 0.6171 0.0
C1515 C 0.21069 0.1351 0.6237 0.0
C1516 C 0.18558 0.12546 0.62274 0.0
C1517 C 0.18134 0.10712 0.63017 0.0
C1518 C 0.15766 0.09809 0.62912 0.0
C1519 C 0.13801 0.10729 0.62081 0.0
C1520 C 0.14199 0.12557 0.61359 0.0
C1521 C 0.16565 0.13466 0.61458 0.0
H1522 H 0.11969 0.10028 0.62002 0.0
H1523 H 0.34916 0.18853 0.63094 0.0
H1524 H 0.38376 0.76393 0.24959 0.0
H1525 H 0.40315 0.76762 0.21485 0.0
H1526 H 0.33318 0.77996 0.18765 0.0
H1527 H 0.31358 0.77639 0.22254 0.0
H1528 H 0.35591 0.75587 0.16481 0.0
H1529 H 0.37881 0.81382 0.19358 0.0
H1530 H 0.39566 0.83484 0.22007 0.0
H1531 H 0.46683 0.81322 0.21504 0.0
H1532 H 0.45032 0.79188 0.18872 0.0
H1533 H 0.41086 0.78374 0.06513 0.0
H1534 H 0.38845 0.78429 0.09878 0.0
H1535 H 0.45444 0.77067 0.13193 0.0
H1536 H 0.47678 0.77034 0.09829 0.0
H1537 H 0.43171 0.79743 0.15082 0.0
H1538 H 0.40826 0.73842 0.12367 0.0
H1539 H 0.3917 0.71741 0.09706 0.0
H1540 H 0.32162 0.74103 0.09912 0.0
H1541 H 0.33792 0.76242 0.12549 0.0
C1542 C 0.37253 0.76771 0.2363 0.0
C1543 C 0.34714 0.77001 0.23889 0.0
C1544 C 0.38365 0.76977 0.21641 0.0
C1545 C 0.3697 0.77431 0.19867 0.0
C1546 C 0.3443 0.77648 0.20113 0.0
C1547 C 0.33313 0.7744 0.22107 0.0
C1548 C 0.38164 0.77635 0.17756 0.0
C1549 C 0.37222 0.7652 0.16163 0.0
C1550 C 0.40321 0.78826 0.17353 0.0
C1551 C 0.41325 0.80114 0.18929 0.0
C1552 C 0.398 0.81345 0.19823 0.0
C1553 C 0.4075 0.82544 0.2132 0.0
C1554 C 0.43229 0.82534 0.21927 0.0
C1555 C 0.44764 0.81328 0.21034 0.0
C1556 C 0.43822 0.80125 0.19537 0.0
C1557 C 0.42045 0.78098 0.07968 0.0
C1558 C 0.44539 0.77703 0.07936 0.0
C1559 C 0.40772 0.78123 0.09882 0.0
C1560 C 0.41974 0.77738 0.11785 0.0
C1561 C 0.44483 0.77371 0.11745 0.0
C1562 C 0.45753 0.77346 0.09833 0.0
C1563 C 0.40613 0.77681 0.13819 0.0
C1564 C 0.41526 0.78823 0.15396 0.0
C1565 C 0.38431 0.76514 0.14207 0.0
C1566 C 0.3744 0.75215 0.12639 0.0
C1567 C 0.38938 0.73923 0.11833 0.0
C1568 C 0.38003 0.72724 0.10331 0.0
C1569 C 0.35564 0.72791 0.09637 0.0
C1570 C 0.34052 0.74055 0.10449 0.0
C1571 C 0.34981 0.7526 0.11948 0.0
H1572 H 0.34843 0.71862 0.08474 0.0
H1573 H 0.43961 0.83463 0.23086 0.0
H1574 H 0.81702 0.16166 0.33633 0.0
H1575 H 0.81154 0.13614 0.36226 0.0
H1576 H 0.77119 0.16912 0.4027 0.0
H1577 H 0.77602 0.19472 0.37654 0.0
H1578 H 0.80702 0.15002 0.42385 0.0
H1579 H 0.73974 0.13739 0.37646 0.0
H1580 H 0.7205 0.13305 0.34183 0.0
H1581 H 0.76478 0.08809 0.33187 0.0
H1582 H 0.78456 0.09233 0.36633 0.0
H1583 H 0.76623 0.076 0.49462 0.0
H1584 H 0.76688 0.1024 0.46946 0.0
H1585 H 0.8002 0.07095 0.42273 0.0
H1586 H 0.79872 0.0444 0.44774 0.0
H1587 H 0.76583 0.09005 0.40534 0.0
H1588 H 0.83454 0.10302 0.45117 0.0
H1589 H 0.85507 0.10713 0.48531 0.0
H1590 H 0.81004 0.15117 0.49765 0.0
H1591 H 0.78896 0.14713 0.4637 0.0
C1592 C 0.80664 0.16347 0.35058 0.0
C1593 C 0.79676 0.18024 0.35423 0.0
C1594 C 0.80365 0.14886 0.36544 0.0
C1595 C 0.79075 0.15069 0.38429 0.0
C1596 C 0.7812 0.16746 0.38822 0.0
C1597 C 0.78406 0.18208 0.37328 0.0
C1598 C 0.78744 0.13505 0.39989 0.0
C1599 C 0.79765 0.13698 0.41995 0.0
C1600 C 0.77577 0.11794 0.39458 0.0
C1601 C 0.76378 0.11528 0.3739 0.0
C1602 C 0.74552 0.12667 0.36682 0.0
C1603 C 0.73449 0.12421 0.34723 0.0
C1604 C 0.74145 0.11033 0.33463 0.0
C1605 C 0.75942 0.09885 0.34163 0.0
C1606 C 0.77053 0.10126 0.3612 0.0
C1607 C 0.77355 0.0748 0.47892 0.0
C1608 C 0.78261 0.05837 0.47302 0.0
C1609 C 0.77406 0.08986 0.46462 0.0
C1610 C 0.78397 0.08875 0.4443 0.0
C1611 C 0.79254 0.07214 0.43832 0.0
C1612 C 0.79182 0.05704 0.45256 0.0
C1613 C 0.7856 0.10493 0.42931 0.0
C1614 C 0.77508 0.1031 0.40933 0.0
C1615 C 0.79719 0.12209 0.43464 0.0
C1616 C 0.81 0.12465 0.45498 0.0
C1617 C 0.82889 0.1135 0.46123 0.0
C1618 C 0.84064 0.11582 0.48054 0.0
C1619 C 0.83382 0.12937 0.49367 0.0
C1620 C 0.81528 0.14066 0.48748 0.0
C1621 C 0.80343 0.13837 0.4682 0.0
H1622 H 0.84294 0.13115 0.50861 0.0
H1623 H 0.73289 0.10846 0.31947 0.0
H1624 H 0.30007 0.25233 0.80809 0.0
H1625 H 0.32114 0.24726 0.84156 0.0
H1626 H 0.38747 0.27696 0.81618 0.0
H1627 H 0.36657 0.28209 0.78278 0.0
H1628 H 0.39847 0.24634 0.83703 0.0
H1629 H 0.34873 0.2964 0.84997 0.0
H1630 H 0.31002 0.31194 0.85161 0.0
H1631 H 0.27927 0.27044 0.89613 0.0
H1632 H 0.3177 0.25451 0.89454 0.0
H1633 H 0.46575 0.27029 0.92754 0.0
H1634 H 0.44106 0.27079 0.89552 0.0
H1635 H 0.38229 0.23687 0.92726 0.0
H1636 H 0.40689 0.23649 0.95957 0.0
H1637 H 0.36533 0.26653 0.90422 0.0
H1638 H 0.41704 0.21792 0.89322 0.0
H1639 H 0.45638 0.20317 0.89186 0.0
H1640 H 0.48396 0.24259 0.84376 0.0
H1641 H 0.44491 0.25776 0.84505 0.0
C1642 C 0.31909 0.25789 0.80971 0.0
C1643 C 0.33165 0.26761 0.79277 0.0
C1644 C 0.33111 0.25496 0.82882 0.0
C1645 C 0.35584 0.26184 0.83143 0.0
C1646 C 0.36843 0.27145 0.81451 0.0
C1647 C 0.35647 0.27433 0.7954 0.0
C1648 C 0.36874 0.25911 0.85172 0.0
C1649 C 0.39132 0.2509 0.85169 0.0
C1650 C 0.35908 0.26459 0.87096 0.0
C1651 C 0.33598 0.27416 0.87195 0.0
C1652 C 0.33363 0.29051 0.85997 0.0
C1653 C 0.31176 0.2994 0.86092 0.0
C1654 C 0.29217 0.29215 0.87391 0.0
C1655 C 0.29444 0.27602 0.88604 0.0
C1656 C 0.31627 0.26706 0.88513 0.0
C1657 C 0.44751 0.26303 0.92775 0.0
C1658 C 0.43822 0.25338 0.94607 0.0
C1659 C 0.43351 0.2632 0.90941 0.0
C1660 C 0.40995 0.25373 0.90898 0.0
C1661 C 0.40048 0.24421 0.92727 0.0
C1662 C 0.41459 0.24391 0.94564 0.0
C1663 C 0.39522 0.25407 0.88941 0.0
C1664 C 0.37232 0.26181 0.88959 0.0
C1665 C 0.40463 0.24822 0.87028 0.0
C1666 C 0.4281 0.23907 0.86936 0.0
C1667 C 0.43156 0.22354 0.88246 0.0
C1668 C 0.4538 0.21508 0.88168 0.0
C1669 C 0.47268 0.22196 0.86776 0.0
C1670 C 0.46933 0.23729 0.85455 0.0
C1671 C 0.44713 0.24581 0.85528 0.0
H1672 H 0.48988 0.2154 0.86718 0.0
H1673 H 0.27525 0.29906 0.87463 0.0
H1674 H 0.23826 0.82493 0.35165 0.0
H1675 H 0.22799 0.85232 0.36948 0.0
H1676 H 0.29219 0.84841 0.40889 0.0
H1677 H 0.30247 0.82112 0.39124 0.0
H1678 H 0.25305 0.85525 0.43175 0.0
H1679 H 0.29149 0.87954 0.36666 0.0
H1680 H 0.29626 0.883 0.32811 0.0
H1681 H 0.2231 0.90155 0.32307 0.0
H1682 H 0.21777 0.89797 0.3616 0.0
H1683 H 0.27285 0.94227 0.47231 0.0
H1684 H 0.27625 0.91478 0.45281 0.0
H1685 H 0.20994 0.92553 0.41858 0.0
H1686 H 0.20704 0.95371 0.43739 0.0
H1687 H 0.24493 0.9146 0.39284 0.0
H1688 H 0.20856 0.89302 0.45896 0.0
H1689 H 0.20545 0.89068 0.49765 0.0
H1690 H 0.27572 0.86731 0.50095 0.0
H1691 H 0.27946 0.8698 0.46229 0.0
C1692 C 0.25024 0.83 0.36403 0.0
C1693 C 0.27115 0.82083 0.37006 0.0
C1694 C 0.24435 0.84563 0.37422 0.0
C1695 C 0.25941 0.85249 0.39045 0.0
C1696 C 0.28021 0.84332 0.39651 0.0
C1697 C 0.28604 0.82768 0.38642 0.0
C1698 C 0.25371 0.86923 0.40124 0.0
C1699 C 0.25145 0.86825 0.42324 0.0
C1700 C 0.25092 0.8861 0.39012 0.0
C1701 C 0.25412 0.88828 0.36697 0.0
C1702 C 0.27634 0.88422 0.35731 0.0
C1703 C 0.27917 0.88623 0.33547 0.0
C1704 C 0.25997 0.89244 0.32314 0.0
C1705 C 0.23794 0.89671 0.33264 0.0
C1706 C 0.23501 0.8947 0.35447 0.0
C1707 C 0.25915 0.939 0.46043 0.0
C1708 C 0.23968 0.95027 0.45642 0.0
C1709 C 0.26095 0.92311 0.44947 0.0
C1710 C 0.24311 0.91791 0.43449 0.0
C1711 C 0.22382 0.92922 0.43019 0.0
C1712 C 0.22208 0.94523 0.44108 0.0
C1713 C 0.24481 0.90068 0.42336 0.0
C1714 C 0.24623 0.90155 0.40132 0.0
C1715 C 0.24691 0.8837 0.43445 0.0
C1716 C 0.24436 0.88172 0.45771 0.0
C1717 C 0.2234 0.88746 0.46793 0.0
C1718 C 0.22153 0.88611 0.48987 0.0
C1719 C 0.24041 0.87889 0.50175 0.0
C1720 C 0.26112 0.87291 0.49172 0.0
C1721 C 0.26312 0.87427 0.4698 0.0
H1722 H 0.23901 0.87792 0.51873 0.0
H1723 H 0.26219 0.89399 0.30624 0.0
H1724 H 0.68157 0.75389 0.8128 0.0
H1725 H 0.6493 0.75375 0.83994 0.0
H1726 H 0.70398 0.77365 0.88424 0.0
H1727 H 0.73616 0.77418 0.85722 0.0
H1728 H 0.67266 0.74577 0.90149 0.0
H1729 H 0.66629 0.80239 0.86078 0.0
H1730 H 0.66098 0.8212 0.82827 0.0
H1731 H 0.5897 0.79277 0.81877 0.0
H1732 H 0.59475 0.7736 0.85109 0.0
H1733 H 0.59952 0.77836 0.98163 0.0
H1734 H 0.62911 0.77606 0.95269 0.0
H1735 H 0.56873 0.75911 0.91204 0.0
H1736 H 0.53914 0.76181 0.94096 0.0
H1737 H 0.60103 0.78352 0.89183 0.0
H1738 H 0.60573 0.72815 0.93328 0.0
H1739 H 0.61043 0.70917 0.96574 0.0
H1740 H 0.68405 0.73432 0.97354 0.0
H1741 H 0.67963 0.75369 0.94129 0.0
C1742 C 0.68671 0.75834 0.82828 0.0
C1743 C 0.71151 0.76404 0.83279 0.0
C1744 C 0.66826 0.75819 0.84379 0.0
C1745 C 0.67423 0.76379 0.86408 0.0
C1746 C 0.69898 0.76918 0.86872 0.0
C1747 C 0.71739 0.76939 0.85325 0.0
C1748 C 0.65476 0.76434 0.88049 0.0
C1749 C 0.65712 0.75415 0.89946 0.0
C1750 C 0.63411 0.77487 0.8776 0.0
C1751 C 0.63102 0.78643 0.85822 0.0
C1752 C 0.64957 0.80005 0.85166 0.0
C1753 C 0.64659 0.81079 0.83329 0.0
C1754 C 0.62504 0.80814 0.82143 0.0
C1755 C 0.6064 0.79478 0.82795 0.0
C1756 C 0.6093 0.78398 0.8463 0.0
C1757 C 0.59271 0.77423 0.96645 0.0
C1758 C 0.56725 0.77024 0.96335 0.0
C1759 C 0.60953 0.77282 0.95 0.0
C1760 C 0.60115 0.76718 0.93027 0.0
C1761 C 0.5756 0.76345 0.92712 0.0
C1762 C 0.55876 0.76493 0.94358 0.0
C1763 C 0.61911 0.76515 0.91298 0.0
C1764 C 0.61647 0.77503 0.89382 0.0
C1765 C 0.63943 0.75425 0.91565 0.0
C1766 C 0.64227 0.74248 0.93495 0.0
C1767 C 0.62286 0.72973 0.94199 0.0
C1768 C 0.62548 0.71889 0.96035 0.0
C1769 C 0.64751 0.72056 0.97172 0.0
C1770 C 0.66699 0.73305 0.96472 0.0
C1771 C 0.66444 0.74395 0.9464 0.0
H1772 H 0.64951 0.71216 0.98593 0.0
H1773 H 0.62277 0.81648 0.80721 0.0
loop_
_geom_bond_atom_site_label_1
_geom_bond_atom_site_label_2
_geom_bond_distance
_geom_bond_site_symmetry_2
_ccdc_geom_bond_type
P0 O11 1.490 . S
P0 C14 1.812 . S
P0 C20 1.803 . S
P0 C26 1.819 . S
H1 C15 0.941 . S
H2 C16 0.939 . S
H3 C18 0.940 . S
H4 C19 0.940 . S
H5 C21 0.939 . S
H6 C22 0.942 . S
H7 C24 0.940 . S
H8 C25 0.939 . S
H9 C27 0.941 . S
H10 C31 0.939 . S
O11 P0 1.490 . S
H12 C28 0.939 . S
H13 C30 0.940 . S
C14 P0 1.812 . S
C14 C15 1.389 . S
C14 C19 1.391 . S
C15 H1 0.941 . S
C15 C14 1.389 . S
C15 C16 1.397 . S
C16 H2 0.939 . S
C16 C15 1.397 . S
C16 C17 1.378 . S
C17 C16 1.378 . S
C17 C18 1.378 . S
C18 H3 0.940 . S
C18 C17 1.378 . S
C18 C19 1.396 . S
C19 H4 0.940 . S
C19 C14 1.391 . S
C19 C18 1.396 . S
C20 P0 1.803 . S
C20 C21 1.378 . S
C20 C25 1.400 . S
C21 H5 0.939 . S
C21 C20 1.378 . S
C21 C22 1.361 . S
C22 H6 0.942 . S
C22 C21 1.361 . S
C22 C23 1.369 . S
C23 C22 1.369 . S
C23 C24 1.404 . S
C24 H7 0.940 . S
C24 C23 1.404 . S
C24 C25 1.389 . S
C25 H8 0.939 . S
C25 C20 1.400 . S
C25 C24 1.389 . S
C26 P0 1.819 . S
C26 C27 1.391 . S
C26 C31 1.391 . S
C27 H9 0.941 . S
C27 C26 1.391 . S
C27 C28 1.396 . S
C28 H12 0.939 . S
C28 C27 1.396 . S
C28 C29 1.397 . S
C29 C28 1.397 . S
C29 C30 1.385 . S
C30 H13 0.940 . S
C30 C29 1.385 . S
C30 C31 1.388 . S
C31 H10 0.939 . S
C31 C26 1.391 . S
C31 C30 1.388 . S
P32 O43 1.490 . S
P32 C46 1.812 . S
P32 C52 1.803 . S
P32 C58 1.819 . S
H33 C47 0.941 . S
H34 C48 0.939 . S
H35 C50 0.940 . S
H36 C51 0.940 . S
H37 C53 0.939 . S
H38 C54 0.942 . S
H39 C56 0.940 . S
H40 C57 0.939 . S
H41 C59 0.941 . S
H42 C63 0.939 . S
O43 P32 1.490 . S
H44 C60 0.939 . S
H45 C62 0.940 . S
C46 P32 1.812 . S
C46 C47 1.389 . S
C46 C51 1.391 . S
C47 H33 0.941 . S
C47 C46 1.389 . S
C47 C48 1.397 . S
C48 H34 0.939 . S
C48 C47 1.397 . S
C48 C49 1.378 . S
C49 C48 1.378 . S
C49 C50 1.378 . S
C50 H35 0.940 . S
C50 C49 1.378 . S
C50 C51 1.396 . S
C51 H36 0.940 . S
C51 C46 1.391 . S
C51 C50 1.396 . S
C52 P32 1.803 . S
C52 C53 1.378 . S
C52 C57 1.400 . S
C53 H37 0.939 . S
C53 C52 1.378 . S
C53 C54 1.361 . S
C54 H38 0.942 . S
C54 C53 1.361 . S
C54 C55 1.369 . S
C55 C54 1.369 . S
C55 C56 1.404 . S
C56 H39 0.940 . S
C56 C55 1.404 . S
C56 C57 1.389 . S
C57 H40 0.939 . S
C57 C52 1.400 . S
C57 C56 1.389 . S
C58 P32 1.819 . S
C58 C59 1.391 . S
C58 C63 1.391 . S
C59 H41 0.941 . S
C59 C58 1.391 . S
C59 C60 1.396 . S
C60 H44 0.939 . S
C60 C59 1.396 . S
C60 C61 1.397 . S
C61 C60 1.397 . S
C61 C62 1.385 . S
C62 H45 0.940 . S
C62 C61 1.385 . S
C62 C63 1.388 . S
C63 H42 0.939 . S
C63 C58 1.391 . S
C63 C62 1.388 . S
P64 O75 1.490 . S
P64 C78 1.812 . S
P64 C84 1.803 . S
P64 C90 1.819 . S
H65 C79 0.941 . S
H66 C80 0.939 . S
H67 C82 0.940 . S
H68 C83 0.940 . S
H69 C85 0.939 . S
H70 C86 0.942 . S
H71 C88 0.940 . S
H72 C89 0.939 . S
H73 C91 0.941 . S
H74 C95 0.939 . S
O75 P64 1.490 . S
H76 C92 0.939 . S
H77 C94 0.940 . S
C78 P64 1.812 . S
C78 C79 1.389 . S
C78 C83 1.391 . S
C79 H65 0.941 . S
C79 C78 1.389 . S
C79 C80 1.397 . S
C80 H66 0.939 . S
C80 C79 1.397 . S
C80 C81 1.378 . S
C81 C80 1.378 . S
C81 C82 1.378 . S
C82 H67 0.940 . S
C82 C81 1.378 . S
C82 C83 1.396 . S
C83 H68 0.940 . S
C83 C78 1.391 . S
C83 C82 1.396 . S
C84 P64 1.803 . S
C84 C85 1.378 . S
C84 C89 1.400 . S
C85 H69 0.939 . S
C85 C84 1.378 . S
C85 C86 1.361 . S
C86 H70 0.942 . S
C86 C85 1.361 . S
C86 C87 1.369 . S
C87 C86 1.369 . S
C87 C88 1.404 . S
C88 H71 0.940 . S
C88 C87 1.404 . S
C88 C89 1.389 . S
C89 H72 0.939 . S
C89 C84 1.400 . S
C89 C88 1.389 . S
C90 P64 1.819 . S
C90 C91 1.391 . S
C90 C95 1.391 . S
C91 H73 0.941 . S
C91 C90 1.391 . S
C91 C92 1.396 . S
C92 H76 0.939 . S
C92 C91 1.396 . S
C92 C93 1.397 . S
C93 C92 1.397 . S
C93 C94 1.385 . S
C94 H77 0.940 . S
C94 C93 1.385 . S
C94 C95 1.388 . S
C95 H74 0.939 . S
C95 C90 1.391 . S
C95 C94 1.388 . S
P96 O107 1.490 . S
P96 C110 1.812 . S
P96 C116 1.803 . S
P96 C122 1.819 . S
H97 C111 0.941 . S
H98 C112 0.939 . S
H99 C114 0.940 . S
H100 C115 0.940 . S
H101 C117 0.939 . S
H102 C118 0.942 . S
H103 C120 0.940 . S
H104 C121 0.939 . S
H105 C123 0.941 . S
H106 C127 0.939 . S
O107 P96 1.490 . S
H108 C124 0.939 . S
H109 C126 0.940 . S
C110 P96 1.812 . S
C110 C111 1.389 . S
C110 C115 1.391 . S
C111 H97 0.941 . S
C111 C110 1.389 . S
C111 C112 1.397 . S
C112 H98 0.939 . S
C112 C111 1.397 . S
C112 C113 1.378 . S
C113 C112 1.378 . S
C113 C114 1.378 . S
C114 H99 0.940 . S
C114 C113 1.378 . S
C114 C115 1.396 . S
C115 H100 0.940 . S
C115 C110 1.391 . S
C115 C114 1.396 . S
C116 P96 1.803 . S
C116 C117 1.378 . S
C116 C121 1.400 . S
C117 H101 0.939 . S
C117 C116 1.378 . S
C117 C118 1.361 . S
C118 H102 0.942 . S
C118 C117 1.361 . S
C118 C119 1.369 . S
C119 C118 1.369 . S
C119 C120 1.404 . S
C120 H103 0.940 . S
C120 C119 1.404 . S
C120 C121 1.389 . S
C121 H104 0.939 . S
C121 C116 1.400 . S
C121 C120 1.389 . S
C122 P96 1.819 . S
C122 C123 1.391 . S
C122 C127 1.391 . S
C123 H105 0.941 . S
C123 C122 1.391 . S
C123 C124 1.396 . S
C124 H108 0.939 . S
C124 C123 1.396 . S
C124 C125 1.397 . S
C125 C124 1.397 . S
C125 C126 1.385 . S
C126 H109 0.940 . S
C126 C125 1.385 . S
C126 C127 1.388 . S
C127 H106 0.939 . S
C127 C122 1.391 . S
C127 C126 1.388 . S
P128 O139 1.490 . S
P128 C142 1.812 . S
P128 C148 1.803 . S
P128 C154 1.819 . S
H129 C143 0.941 . S
H130 C144 0.939 . S
H131 C146 0.940 . S
H132 C147 0.940 . S
H133 C149 0.939 . S
H134 C150 0.942 . S
H135 C152 0.940 . S
H136 C153 0.939 . S
H137 C155 0.941 . S
H138 C159 0.939 . S
O139 P128 1.490 . S
H140 C156 0.939 . S
H141 C158 0.940 . S
C142 P128 1.812 . S
C142 C143 1.389 . S
C142 C147 1.391 . S
C143 H129 0.941 . S
C143 C142 1.389 . S
C143 C144 1.397 . S
C144 H130 0.939 . S
C144 C143 1.397 . S
C144 C145 1.378 . S
C145 C144 1.378 . S
C145 C146 1.378 . S
C146 H131 0.940 . S
C146 C145 1.378 . S
C146 C147 1.396 . S
C147 H132 0.940 . S
C147 C142 1.391 . S
C147 C146 1.396 . S
C148 P128 1.803 . S
C148 C149 1.378 . S
C148 C153 1.400 . S
C149 H133 0.939 . S
C149 C148 1.378 . S
C149 C150 1.361 . S
C150 H134 0.942 . S
C150 C149 1.361 . S
C150 C151 1.369 . S
C151 C150 1.369 . S
C151 C152 1.404 . S
C152 H135 0.940 . S
C152 C151 1.404 . S
C152 C153 1.389 . S
C153 H136 0.939 . S
C153 C148 1.400 . S
C153 C152 1.389 . S
C154 P128 1.819 . S
C154 C155 1.391 . S
C154 C159 1.391 . S
C155 H137 0.941 . S
C155 C154 1.391 . S
C155 C156 1.396 . S
C156 H140 0.939 . S
C156 C155 1.396 . S
C156 C157 1.397 . S
C157 C156 1.397 . S
C157 C158 1.385 . S
C158 H141 0.940 . S
C158 C157 1.385 . S
C158 C159 1.388 . S
C159 H138 0.939 . S
C159 C154 1.391 . S
C159 C158 1.388 . S
P160 O171 1.490 . S
P160 C174 1.812 . S
P160 C180 1.803 . S
P160 C186 1.819 . S
H161 C175 0.941 . S
H162 C176 0.939 . S
H163 C178 0.940 . S
H164 C179 0.940 . S
H165 C181 0.939 . S
H166 C182 0.942 . S
H167 C184 0.940 . S
H168 C185 0.939 . S
H169 C187 0.941 . S
H170 C191 0.939 . S
O171 P160 1.490 . S
H172 C188 0.939 . S
H173 C190 0.940 . S
C174 P160 1.812 . S
C174 C175 1.389 . S
C174 C179 1.391 . S
C175 H161 0.941 . S
C175 C174 1.389 . S
C175 C176 1.397 . S
C176 H162 0.939 . S
C176 C175 1.397 . S
C176 C177 1.378 . S
C177 C176 1.378 . S
C177 C178 1.378 . S
C178 H163 0.940 . S
C178 C177 1.378 . S
C178 C179 1.396 . S
C179 H164 0.940 . S
C179 C174 1.391 . S
C179 C178 1.396 . S
C180 P160 1.803 . S
C180 C181 1.378 . S
C180 C185 1.400 . S
C181 H165 0.939 . S
C181 C180 1.378 . S
C181 C182 1.361 . S
C182 H166 0.942 . S
C182 C181 1.361 . S
C182 C183 1.369 . S
C183 C182 1.369 . S
C183 C184 1.404 . S
C184 H167 0.940 . S
C184 C183 1.404 . S
C184 C185 1.389 . S
C185 H168 0.939 . S
C185 C180 1.400 . S
C185 C184 1.389 . S
C186 P160 1.819 . S
C186 C187 1.391 . S
C186 C191 1.391 . S
C187 H169 0.941 . S
C187 C186 1.391 . S
C187 C188 1.396 . S
C188 H172 0.939 . S
C188 C187 1.396 . S
C188 C189 1.397 . S
C189 C188 1.397 . S
C189 C190 1.385 . S
C190 H173 0.940 . S
C190 C189 1.385 . S
C190 C191 1.388 . S
C191 H170 0.939 . S
C191 C186 1.391 . S
C191 C190 1.388 . S
P192 O203 1.490 . S
P192 C206 1.812 . S
P192 C212 1.803 . S
P192 C218 1.819 . S
H193 C207 0.941 . S
H194 C208 0.939 . S
H195 C210 0.940 . S
H196 C211 0.940 . S
H197 C213 0.939 . S
H198 C214 0.942 . S
H199 C216 0.940 . S
H200 C217 0.939 . S
H201 C219 0.941 . S
H202 C223 0.939 . S
O203 P192 1.490 . S
H204 C220 0.939 . S
H205 C222 0.940 . S
C206 P192 1.812 . S
C206 C207 1.389 . S
C206 C211 1.391 . S
C207 H193 0.941 . S
C207 C206 1.389 . S
C207 C208 1.397 . S
C208 H194 0.939 . S
C208 C207 1.397 . S
C208 C209 1.378 . S
C209 C208 1.378 . S
C209 C210 1.378 . S
C210 H195 0.940 . S
C210 C209 1.378 . S
C210 C211 1.396 . S
C211 H196 0.940 . S
C211 C206 1.391 . S
C211 C210 1.396 . S
C212 P192 1.803 . S
C212 C213 1.378 . S
C212 C217 1.400 . S
C213 H197 0.939 . S
C213 C212 1.378 . S
C213 C214 1.361 . S
C214 H198 0.942 . S
C214 C213 1.361 . S
C214 C215 1.369 . S
C215 C214 1.369 . S
C215 C216 1.404 . S
C216 H199 0.940 . S
C216 C215 1.404 . S
C216 C217 1.389 . S
C217 H200 0.939 . S
C217 C212 1.400 . S
C217 C216 1.389 . S
C218 P192 1.819 . S
C218 C219 1.391 . S
C218 C223 1.391 . S
C219 H201 0.941 . S
C219 C218 1.391 . S
C219 C220 1.396 . S
C220 H204 0.939 . S
C220 C219 1.396 . S
C220 C221 1.397 . S
C221 C220 1.397 . S
C221 C222 1.385 . S
C222 H205 0.940 . S
C222 C221 1.385 . S
C222 C223 1.388 . S
C223 H202 0.939 . S
C223 C218 1.391 . S
C223 C222 1.388 . S
P224 O235 1.490 . S
P224 C238 1.812 . S
P224 C244 1.803 . S
P224 C250 1.819 . S
H225 C239 0.941 . S
H226 C240 0.939 . S
H227 C242 0.940 . S
H228 C243 0.940 . S
H229 C245 0.939 . S
H230 C246 0.942 . S
H231 C248 0.940 . S
H232 C249 0.939 . S
H233 C251 0.941 . S
H234 C255 0.939 . S
O235 P224 1.490 . S
H236 C252 0.939 . S
H237 C254 0.940 . S
C238 P224 1.812 . S
C238 C239 1.389 . S
C238 C243 1.391 . S
C239 H225 0.941 . S
C239 C238 1.389 . S
C239 C240 1.397 . S
C240 H226 0.939 . S
C240 C239 1.397 . S
C240 C241 1.378 . S
C241 C240 1.378 . S
C241 C242 1.378 . S
C242 H227 0.940 . S
C242 C241 1.378 . S
C242 C243 1.396 . S
C243 H228 0.940 . S
C243 C238 1.391 . S
C243 C242 1.396 . S
C244 P224 1.803 . S
C244 C245 1.378 . S
C244 C249 1.400 . S
C245 H229 0.939 . S
C245 C244 1.378 . S
C245 C246 1.361 . S
C246 H230 0.942 . S
C246 C245 1.361 . S
C246 C247 1.369 . S
C247 C246 1.369 . S
C247 C248 1.404 . S
C248 H231 0.940 . S
C248 C247 1.404 . S
C248 C249 1.389 . S
C249 H232 0.939 . S
C249 C244 1.400 . S
C249 C248 1.389 . S
C250 P224 1.819 . S
C250 C251 1.391 . S
C250 C255 1.391 . S
C251 H233 0.941 . S
C251 C250 1.391 . S
C251 C252 1.396 . S
C252 H236 0.939 . S
C252 C251 1.396 . S
C252 C253 1.397 . S
C253 C252 1.397 . S
C253 C254 1.385 . S
C254 H237 0.940 . S
C254 C253 1.385 . S
C254 C255 1.388 . S
C255 H234 0.939 . S
C255 C250 1.391 . S
C255 C254 1.388 . S
C256 C257 1.443 . S
C256 N260 1.376 . S
C256 C294 1.389 . S
C257 C256 1.443 . S
C257 C258 1.340 . S
C257 H297 0.951 . S
C258 C257 1.340 . S
C258 C259 1.439 . S
C258 H298 0.950 . S
C259 C258 1.439 . S
C259 N260 1.374 . S
C259 C293 1.395 . S
N260 C256 1.376 . S
N260 C259 1.374 . S
N260 Co261 2.008 . S
Co261 N260 2.008 . S
Co261 N262 1.995 . S
Co261 N267 2.008 . S
Co261 N272 1.995 . S
Co261 N277 2.282 . S
Co261 N283 2.295 . S
N262 Co261 1.995 . S
N262 C263 1.376 . S
N262 C266 1.383 1_455 S
C263 N262 1.376 . S
C263 C264 1.446 1_455 S
C263 C293 1.391 . S
C264 C263 1.446 1_655 S
C264 C265 1.339 . S
C264 H299 0.949 . S
C265 C264 1.339 . S
C265 C266 1.439 . S
C265 H300 0.950 . S
C266 N262 1.383 1_655 S
C266 C265 1.439 . S
C266 C295 1.392 . S
N267 Co261 2.008 . S
N267 C268 1.376 1_455 S
N267 C271 1.374 . S
C268 N267 1.376 1_655 S
C268 C269 1.443 . S
C268 C295 1.389 . S
C269 C268 1.443 . S
C269 C270 1.340 1_655 S
C269 H301 0.951 . S
C270 C269 1.340 1_455 S
C270 C271 1.439 . S
C270 H302 0.950 . S
C271 N267 1.374 . S
C271 C270 1.439 . S
C271 C296 1.395 . S
N272 Co261 1.995 . S
N272 C273 1.376 . S
N272 C276 1.383 . S
C273 N272 1.376 . S
C273 C274 1.446 . S
C273 C296 1.391 . S
C274 C273 1.446 . S
C274 C275 1.339 . S
C274 H303 0.949 . S
C275 C274 1.339 . S
C275 C276 1.439 . S
C275 H304 0.950 . S
C276 N272 1.383 . S
C276 C275 1.439 . S
C276 C294 1.392 . S
N277 Co261 2.282 . S
N277 C280 1.332 . S
N277 C282 1.332 . S
C278 C279 1.386 . S
C278 C281 1.388 . S
C279 C278 1.386 . S
C279 C280 1.382 . S
C279 H305 0.950 . S
C280 N277 1.332 . S
C280 C279 1.382 . S
C280 H291 0.952 . S
C281 C278 1.388 . S
C281 C282 1.382 . S
C281 H306 0.950 . S
C282 N277 1.332 . S
C282 C281 1.382 . S
C282 H292 0.948 . S
N283 Co261 2.295 . S
N283 C287 1.325 1_455 S
N283 C288 1.329 1_455 S
C284 C285 1.388 . S
C284 C288 1.382 . S
C284 H307 0.950 . S
C285 C284 1.388 . S
C285 C286 1.386 . S
C286 C285 1.386 . S
C286 C287 1.382 . S
C286 H308 0.950 . S
C287 N283 1.325 1_655 S
C287 C286 1.382 . S
C287 H289 0.952 . S
C288 N283 1.329 1_655 S
C288 C284 1.382 . S
C288 H290 0.948 1_655 S
H289 C287 0.952 . S
H290 C288 0.948 1_455 S
H291 C280 0.952 . S
H292 C282 0.948 . S
C293 C259 1.395 . S
C293 C263 1.391 . S
C294 C256 1.389 . S
C294 C276 1.392 . S
C295 C266 1.392 . S
C295 C268 1.389 . S
C296 C271 1.395 . S
C296 C273 1.391 . S
H297 C257 0.951 . S
H298 C258 0.950 . S
H299 C264 0.949 . S
H300 C265 0.950 . S
H301 C269 0.951 . S
H302 C270 0.950 . S
H303 C274 0.949 . S
H304 C275 0.950 . S
H305 C279 0.950 . S
H306 C281 0.950 . S
H307 C284 0.950 . S
H308 C286 0.950 . S
C309 C310 1.443 . S
C309 N313 1.376 . S
C309 C347 1.389 . S
C310 C309 1.443 . S
C310 C311 1.340 . S
C310 H350 0.951 . S
C311 C310 1.340 . S
C311 C312 1.439 . S
C311 H351 0.950 . S
C312 C311 1.439 . S
C312 N313 1.374 . S
C312 C346 1.395 . S
N313 C309 1.376 . S
N313 C312 1.374 . S
N313 Co314 2.008 . S
Co314 N313 2.008 . S
Co314 N315 1.995 1_455 S
Co314 N320 2.008 1_455 S
Co314 N325 1.995 . S
Co314 N330 2.282 . S
Co314 N336 2.282 1_455 S
N315 Co314 1.995 1_655 S
N315 C316 1.376 . S
N315 C319 1.383 . S
C316 N315 1.376 . S
C316 C317 1.446 . S
C316 C346 1.391 1_655 S
C317 C316 1.446 . S
C317 C318 1.339 . S
C317 H352 0.949 . S
C318 C317 1.339 . S
C318 C319 1.439 . S
C318 H353 0.950 . S
C319 N315 1.383 . S
C319 C318 1.439 . S
C319 C348 1.392 . S
N320 Co314 2.008 1_655 S
N320 C321 1.376 . S
N320 C324 1.374 . S
C321 N320 1.376 . S
C321 C322 1.443 . S
C321 C348 1.389 . S
C322 C321 1.443 . S
C322 C323 1.340 . S
C322 H354 0.951 . S
C323 C322 1.340 . S
C323 C324 1.439 . S
C323 H355 0.950 . S
C324 N320 1.374 . S
C324 C323 1.439 . S
C324 C349 1.395 1_655 S
N325 Co314 1.995 . S
N325 C326 1.376 . S
N325 C329 1.383 . S
C326 N325 1.376 . S
C326 C327 1.446 . S
C326 C349 1.391 . S
C327 C326 1.446 . S
C327 C328 1.339 . S
C327 H356 0.949 . S
C328 C327 1.339 . S
C328 C329 1.439 . S
C328 H357 0.950 . S
C329 N325 1.383 . S
C329 C328 1.439 . S
C329 C347 1.392 . S
N330 Co314 2.282 . S
N330 C333 1.332 . S
N330 C335 1.332 . S
C331 C332 1.386 . S
C331 C334 1.388 . S
C332 C331 1.386 . S
C332 C333 1.382 . S
C332 H358 0.950 . S
C333 N330 1.332 . S
C333 C332 1.382 . S
C333 H344 0.952 . S
C334 C331 1.388 . S
C334 C335 1.382 . S
C334 H359 0.950 . S
C335 N330 1.332 . S
C335 C334 1.382 . S
C335 H345 0.948 . S
N336 Co314 2.282 1_655 S
N336 C340 1.332 . S
N336 C341 1.332 . S
C337 C338 1.388 . S
C337 C341 1.382 . S
C337 H360 0.950 . S
C338 C337 1.388 . S
C338 C339 1.386 . S
C339 C338 1.386 . S
C339 C340 1.382 . S
C339 H361 0.950 . S
C340 N336 1.332 . S
C340 C339 1.382 . S
C340 H342 0.952 . S
C341 N336 1.332 . S
C341 C337 1.382 . S
C341 H343 0.948 . S
H342 C340 0.952 . S
H343 C341 0.948 . S
H344 C333 0.952 . S
H345 C335 0.948 . S
C346 C312 1.395 . S
C346 C316 1.391 1_455 S
C347 C309 1.389 . S
C347 C329 1.392 . S
C348 C319 1.392 . S
C348 C321 1.389 . S
C349 C324 1.395 1_455 S
C349 C326 1.391 . S
H350 C310 0.951 . S
H351 C311 0.950 . S
H352 C317 0.949 . S
H353 C318 0.950 . S
H354 C322 0.951 . S
H355 C323 0.950 . S
H356 C327 0.949 . S
H357 C328 0.950 . S
H358 C332 0.950 . S
H359 C334 0.950 . S
H360 C337 0.950 . S
H361 C339 0.950 . S
C362 C363 1.443 . S
C362 N366 1.419 . S
C362 C400 1.389 . S
C363 C362 1.443 . S
C363 C364 1.340 . S
C363 H403 0.951 . S
C364 C363 1.340 . S
C364 C365 1.398 1_565 S
C364 H404 0.950 . S
C365 C364 1.398 1_545 S
C365 N366 1.378 1_545 S
C365 C399 1.430 . S
N366 C362 1.419 . S
N366 C365 1.378 1_565 S
N366 Co367 1.978 1_565 S
Co367 N366 1.978 1_545 S
Co367 N368 1.995 . S
Co367 N373 2.008 . S
Co367 N378 1.995 1_545 S
Co367 N383 2.282 . S
Co367 N389 2.282 1_545 S
N368 Co367 1.995 . S
N368 C369 1.376 . S
N368 C372 1.383 . S
C369 N368 1.376 . S
C369 C370 1.446 . S
C369 C399 1.391 . S
C370 C369 1.446 . S
C370 C371 1.339 . S
C370 H405 0.949 . S
C371 C370 1.339 . S
C371 C372 1.439 . S
C371 H406 0.950 . S
C372 N368 1.383 . S
C372 C371 1.439 . S
C372 C401 1.392 . S
N373 Co367 2.008 . S
N373 C374 1.376 . S
N373 C377 1.374 . S
C374 N373 1.376 . S
C374 C375 1.443 . S
C374 C401 1.389 . S
C375 C374 1.443 . S
C375 C376 1.340 . S
C375 H407 0.951 . S
C376 C375 1.340 . S
C376 C377 1.439 . S
C376 H408 0.950 . S
C377 N373 1.374 . S
C377 C376 1.439 . S
C377 C402 1.395 . S
N378 Co367 1.995 1_565 S
N378 C379 1.375 1_565 S
N378 C382 1.383 . S
C379 N378 1.375 1_545 S
C379 C380 1.440 1_545 S
C379 C402 1.397 . S
C380 C379 1.440 1_565 S
C380 C381 1.339 . S
C380 H409 0.949 . S
C381 C380 1.339 . S
C381 C382 1.439 . S
C381 H410 0.950 . S
C382 N378 1.383 . S
C382 C381 1.439 . S
C382 C400 1.392 . S
N383 Co367 2.282 . S
N383 C386 1.332 . S
N383 C388 1.332 . S
C384 C385 1.386 . S
C384 C387 1.388 . S
C385 C384 1.386 . S
C385 C386 1.382 . S
C385 H411 0.950 . S
C386 N383 1.332 . S
C386 C385 1.382 . S
C386 H397 0.952 . S
C387 C384 1.388 . S
C387 C388 1.382 . S
C387 H412 0.950 . S
C388 N383 1.332 . S
C388 C387 1.382 . S
C388 H398 0.948 . S
N389 Co367 2.282 1_565 S
N389 C393 1.332 . S
N389 C394 1.332 . S
C390 C391 1.388 . S
C390 C394 1.382 . S
C390 H413 0.950 . S
C391 C390 1.388 . S
C391 C392 1.386 . S
C392 C391 1.386 . S
C392 C393 1.382 . S
C392 H414 0.950 . S
C393 N389 1.332 . S
C393 C392 1.382 . S
C393 H395 0.952 . S
C394 N389 1.332 . S
C394 C390 1.382 . S
C394 H396 0.948 . S
H395 C393 0.952 . S
H396 C394 0.948 . S
H397 C386 0.952 . S
H398 C388 0.948 . S
C399 C365 1.430 . S
C399 C369 1.391 . S
C400 C362 1.389 . S
C400 C382 1.392 . S
C401 C372 1.392 . S
C401 C374 1.389 . S
C402 C377 1.395 . S
C402 C379 1.397 . S
H403 C363 0.951 . S
H404 C364 0.950 . S
H405 C370 0.949 . S
H406 C371 0.950 . S
H407 C375 0.951 . S
H408 C376 0.950 . S
H409 C380 0.949 . S
H410 C381 0.950 . S
H411 C385 0.950 . S
H412 C387 0.950 . S
H413 C390 0.950 . S
H414 C392 0.950 . S
C415 C416 1.443 . S
C415 N419 1.376 . S
C415 C453 1.389 . S
C416 C415 1.443 . S
C416 C417 1.340 . S
C416 H456 0.951 . S
C417 C416 1.340 . S
C417 C418 1.439 . S
C417 H457 0.950 . S
C418 C417 1.439 . S
C418 N419 1.374 . S
C418 C452 1.395 . S
N419 C415 1.376 . S
N419 C418 1.374 . S
N419 Co420 2.008 . S
Co420 N419 2.008 . S
Co420 N421 1.995 . S
Co420 N426 2.013 . S
Co420 N431 1.995 . S
Co420 N436 2.282 1_554 S
Co420 N442 2.282 . S
N421 Co420 1.995 . S
N421 C422 1.376 . S
N421 C425 1.383 1_554 S
C422 N421 1.376 . S
C422 C423 1.446 1_554 S
C422 C452 1.391 . S
C423 C422 1.446 1_556 S
C423 C424 1.339 . S
C423 H458 0.949 . S
C424 C423 1.339 . S
C424 C425 1.439 . S
C424 H459 0.950 . S
C425 N421 1.383 1_556 S
C425 C424 1.439 . S
C425 C454 1.392 . S
N426 Co420 2.013 . S
N426 C427 1.369 1_554 S
N426 C430 1.374 . S
C427 N426 1.369 1_556 S
C427 C428 1.443 . S
C427 C454 1.389 . S
C428 C427 1.443 . S
C428 C429 1.340 . S
C428 H460 0.951 . S
C429 C428 1.340 . S
C429 C430 1.439 1_556 S
C429 H461 0.950 . S
C430 N426 1.374 . S
C430 C429 1.439 1_554 S
C430 C455 1.395 . S
N431 Co420 1.995 . S
N431 C432 1.376 . S
N431 C435 1.383 . S
C432 N431 1.376 . S
C432 C433 1.446 . S
C432 C455 1.391 . S
C433 C432 1.446 . S
C433 C434 1.339 . S
C433 H462 0.949 . S
C434 C433 1.339 . S
C434 C435 1.439 . S
C434 H463 0.950 . S
C435 N431 1.383 . S
C435 C434 1.439 . S
C435 C453 1.392 . S
N436 Co420 2.282 1_556 S
N436 C439 1.332 . S
N436 C441 1.332 . S
C437 C438 1.386 . S
C437 C440 1.388 . S
C438 C437 1.386 . S
C438 C439 1.382 . S
C438 H464 0.950 . S
C439 N436 1.332 . S
C439 C438 1.382 . S
C439 H450 0.952 . S
C440 C437 1.388 . S
C440 C441 1.382 . S
C440 H465 0.950 . S
C441 N436 1.332 . S
C441 C440 1.382 . S
C441 H451 0.948 . S
N442 Co420 2.282 . S
N442 C446 1.332 . S
N442 C447 1.332 . S
C443 C444 1.388 . S
C443 C447 1.382 . S
C443 H466 0.950 . S
C444 C443 1.388 . S
C444 C445 1.386 . S
C445 C444 1.386 . S
C445 C446 1.382 . S
C445 H467 0.950 . S
C446 N442 1.332 . S
C446 C445 1.382 . S
C446 H448 0.952 . S
C447 N442 1.332 . S
C447 C443 1.382 . S
C447 H449 0.948 . S
H448 C446 0.952 . S
H449 C447 0.948 . S
H450 C439 0.952 . S
H451 C441 0.948 . S
C452 C418 1.395 . S
C452 C422 1.391 . S
C453 C415 1.389 . S
C453 C435 1.392 . S
C454 C425 1.392 . S
C454 C427 1.389 . S
C455 C430 1.395 . S
C455 C432 1.391 . S
H456 C416 0.951 . S
H457 C417 0.950 . S
H458 C423 0.949 . S
H459 C424 0.950 . S
H460 C428 0.951 . S
H461 C429 0.950 . S
H462 C433 0.949 . S
H463 C434 0.950 . S
H464 C438 0.950 . S
H465 C440 0.950 . S
H466 C443 0.950 . S
H467 C445 0.950 . S
C468 C469 1.443 . S
C468 N472 1.376 . S
C468 C506 1.389 . S
C469 C468 1.443 . S
C469 C470 1.340 . S
C469 H509 0.951 . S
C470 C469 1.340 . S
C470 C471 1.439 . S
C470 H510 0.950 . S
C471 C470 1.439 . S
C471 N472 1.374 . S
C471 C505 1.395 1_565 S
N472 C468 1.376 . S
N472 C471 1.374 . S
N472 Co473 2.008 1_565 S
Co473 N472 2.008 1_545 S
Co473 N474 1.995 . S
Co473 N479 2.008 . S
Co473 N484 1.995 1_545 S
Co473 N489 2.282 . S
Co473 N495 2.282 1_545 S
N474 Co473 1.995 . S
N474 C475 1.376 . S
N474 C478 1.383 . S
C475 N474 1.376 . S
C475 C476 1.446 . S
C475 C505 1.391 . S
C476 C475 1.446 . S
C476 C477 1.339 . S
C476 H511 0.949 . S
C477 C476 1.339 . S
C477 C478 1.439 . S
C477 H512 0.950 . S
C478 N474 1.383 . S
C478 C477 1.439 . S
C478 C507 1.392 . S
N479 Co473 2.008 . S
N479 C480 1.376 . S
N479 C483 1.374 . S
C480 N479 1.376 . S
C480 C481 1.443 . S
C480 C507 1.389 . S
C481 C480 1.443 . S
C481 C482 1.340 . S
C481 H513 0.951 . S
C482 C481 1.340 . S
C482 C483 1.439 . S
C482 H514 0.950 . S
C483 N479 1.374 . S
C483 C482 1.439 . S
C483 C508 1.395 . S
N484 Co473 1.995 1_565 S
N484 C485 1.376 . S
N484 C488 1.383 . S
C485 N484 1.376 . S
C485 C486 1.446 . S
C485 C508 1.391 1_565 S
C486 C485 1.446 . S
C486 C487 1.339 . S
C486 H515 0.949 . S
C487 C486 1.339 . S
C487 C488 1.439 . S
C487 H516 0.950 . S
C488 N484 1.383 . S
C488 C487 1.439 . S
C488 C506 1.392 . S
N489 Co473 2.282 . S
N489 C492 1.332 . S
N489 C494 1.332 . S
C490 C491 1.386 . S
C490 C493 1.388 . S
C491 C490 1.386 . S
C491 C492 1.382 . S
C491 H517 0.950 . S
C492 N489 1.332 . S
C492 C491 1.382 . S
C492 H503 0.952 . S
C493 C490 1.388 . S
C493 C494 1.382 . S
C493 H518 0.950 . S
C494 N489 1.332 . S
C494 C493 1.382 . S
C494 H504 0.948 . S
N495 Co473 2.282 1_565 S
N495 C499 1.332 . S
N495 C500 1.332 . S
C496 C497 1.388 . S
C496 C500 1.382 . S
C496 H519 0.950 . S
C497 C496 1.388 . S
C497 C498 1.386 . S
C498 C497 1.386 . S
C498 C499 1.382 . S
C498 H520 0.950 . S
C499 N495 1.332 . S
C499 C498 1.382 . S
C499 H501 0.952 . S
C500 N495 1.332 . S
C500 C496 1.382 . S
C500 H502 0.948 . S
H501 C499 0.952 . S
H502 C500 0.948 . S
H503 C492 0.952 . S
H504 C494 0.948 . S
C505 C471 1.395 1_545 S
C505 C475 1.391 . S
C506 C468 1.389 . S
C506 C488 1.392 . S
C507 C478 1.392 . S
C507 C480 1.389 . S
C508 C483 1.395 . S
C508 C485 1.391 1_545 S
H509 C469 0.951 . S
H510 C470 0.950 . S
H511 C476 0.949 . S
H512 C477 0.950 . S
H513 C481 0.951 . S
H514 C482 0.950 . S
H515 C486 0.949 . S
H516 C487 0.950 . S
H517 C491 0.950 . S
H518 C493 0.950 . S
H519 C496 0.950 . S
H520 C498 0.950 . S
C521 C522 1.443 . S
C521 N525 1.376 . S
C521 C559 1.389 . S
C522 C521 1.443 . S
C522 C523 1.340 . S
C522 H562 0.951 . S
C523 C522 1.340 . S
C523 C524 1.439 . S
C523 H563 0.950 . S
C524 C523 1.439 . S
C524 N525 1.374 . S
C524 C558 1.395 . S
N525 C521 1.376 . S
N525 C524 1.374 . S
N525 Co526 2.008 . S
Co526 N525 2.008 . S
Co526 N527 1.995 . S
Co526 N532 2.008 . S
Co526 N537 1.995 . S
Co526 N542 2.282 . S
Co526 N548 2.282 . S
N527 Co526 1.995 . S
N527 C528 1.376 . S
N527 C531 1.383 1_554 S
C528 N527 1.376 . S
C528 C529 1.446 1_554 S
C528 C558 1.391 . S
C529 C528 1.446 1_556 S
C529 C530 1.339 . S
C529 H564 0.949 . S
C530 C529 1.339 . S
C530 C531 1.439 . S
C530 H565 0.950 . S
C531 N527 1.383 1_556 S
C531 C530 1.439 . S
C531 C560 1.392 . S
N532 Co526 2.008 . S
N532 C533 1.376 1_554 S
N532 C536 1.374 . S
C533 N532 1.376 1_556 S
C533 C534 1.443 . S
C533 C560 1.389 . S
C534 C533 1.443 . S
C534 C535 1.340 . S
C534 H566 0.951 . S
C535 C534 1.340 . S
C535 C536 1.439 1_556 S
C535 H567 0.950 . S
C536 N532 1.374 . S
C536 C535 1.439 1_554 S
C536 C561 1.395 . S
N537 Co526 1.995 . S
N537 C538 1.376 . S
N537 C541 1.383 . S
C538 N537 1.376 . S
C538 C539 1.446 . S
C538 C561 1.391 . S
C539 C538 1.446 . S
C539 C540 1.339 . S
C539 H568 0.949 . S
C540 C539 1.339 . S
C540 C541 1.439 . S
C540 H569 0.950 . S
C541 N537 1.383 . S
C541 C540 1.439 . S
C541 C559 1.392 . S
N542 Co526 2.282 . S
N542 C545 1.332 1_554 S
N542 C547 1.332 1_554 S
C543 C544 1.386 . S
C543 C546 1.388 . S
C544 C543 1.386 . S
C544 C545 1.382 . S
C544 H570 0.950 . S
C545 N542 1.332 1_556 S
C545 C544 1.382 . S
C545 H556 0.952 1_556 S
C546 C543 1.388 . S
C546 C547 1.382 . S
C546 H571 0.950 . S
C547 N542 1.332 1_556 S
C547 C546 1.382 . S
C547 H557 0.948 . S
N548 Co526 2.282 . S
N548 C552 1.332 . S
N548 C553 1.332 . S
C549 C550 1.388 . S
C549 C553 1.382 . S
C549 H572 0.950 . S
C550 C549 1.388 . S
C550 C551 1.386 . S
C551 C550 1.386 . S
C551 C552 1.382 . S
C551 H573 0.950 . S
C552 N548 1.332 . S
C552 C551 1.382 . S
C552 H554 0.952 . S
C553 N548 1.332 . S
C553 C549 1.382 . S
C553 H555 0.948 . S
H554 C552 0.952 . S
H555 C553 0.948 . S
H556 C545 0.952 1_554 S
H557 C547 0.948 . S
C558 C524 1.395 . S
C558 C528 1.391 . S
C559 C521 1.389 . S
C559 C541 1.392 . S
C560 C531 1.392 . S
C560 C533 1.389 . S
C561 C536 1.395 . S
C561 C538 1.391 . S
H562 C522 0.951 . S
H563 C523 0.950 . S
H564 C529 0.949 . S
H565 C530 0.950 . S
H566 C534 0.951 . S
H567 C535 0.950 . S
H568 C539 0.949 . S
H569 C540 0.950 . S
H570 C544 0.950 . S
H571 C546 0.950 . S
H572 C549 0.950 . S
H573 C551 0.950 . S
H574 C592 0.951 . S
H575 C594 0.951 . S
H576 C596 0.950 . S
H577 C597 0.950 . S
H578 C599 0.950 . S
H579 C602 0.950 . S
H580 C603 0.950 . S
H581 C605 0.950 . S
H582 C606 0.950 . S
H583 C607 0.951 . S
H584 C609 0.951 . S
H585 C611 0.950 . S
H586 C612 0.950 . S
H587 C614 0.950 . S
H588 C617 0.950 . S
H589 C618 0.950 . S
H590 C620 0.950 . S
H591 C621 0.950 . S
C592 H574 0.951 . S
C592 C593 1.366 . S
C592 C594 1.388 . S
C593 C592 1.366 . S
C593 C597 1.385 . S
C594 H575 0.951 . S
C594 C592 1.388 . S
C594 C595 1.366 . S
C595 C594 1.366 . S
C595 C596 1.414 . S
C595 C598 1.499 . S
C596 H576 0.950 . S
C596 C595 1.414 . S
C596 C597 1.374 . S
C597 H577 0.950 . S
C597 C593 1.385 . S
C597 C596 1.374 . S
C598 C595 1.499 . S
C598 C599 1.373 . S
C598 C600 1.389 . S
C599 H578 0.950 . S
C599 C598 1.373 . S
C599 C615 1.377 . S
C600 C598 1.389 . S
C600 C601 1.524 . S
C600 C614 1.377 . S
C601 C600 1.524 . S
C601 C602 1.397 . S
C601 C606 1.363 . S
C602 H579 0.950 . S
C602 C601 1.397 . S
C602 C603 1.334 . S
C603 H580 0.950 . S
C603 C602 1.334 . S
C603 C604 1.287 . S
C604 C603 1.287 . S
C604 C605 1.524 . S
C604 H623 0.913 . S
C605 H581 0.950 . S
C605 C604 1.524 . S
C605 C606 1.415 . S
C606 H582 0.950 . S
C606 C601 1.363 . S
C606 C605 1.415 . S
C607 H583 0.951 . S
C607 C608 1.366 . S
C607 C609 1.388 . S
C608 C607 1.366 . S
C608 C612 1.385 . S
C609 H584 0.951 . S
C609 C607 1.388 . S
C609 C610 1.366 . S
C610 C609 1.366 . S
C610 C611 1.414 . S
C610 C613 1.499 . S
C611 H585 0.950 . S
C611 C610 1.414 . S
C611 C612 1.374 . S
C612 H586 0.950 . S
C612 C608 1.385 . S
C612 C611 1.374 . S
C613 C610 1.499 . S
C613 C614 1.373 . S
C613 C615 1.389 . S
C614 H587 0.950 . S
C614 C600 1.377 . S
C614 C613 1.373 . S
C615 C599 1.377 . S
C615 C613 1.389 . S
C615 C616 1.524 . S
C616 C615 1.524 . S
C616 C617 1.397 . S
C616 C621 1.363 . S
C617 H588 0.950 . S
C617 C616 1.397 . S
C617 C618 1.334 . S
C618 H589 0.950 . S
C618 C617 1.334 . S
C618 C619 1.287 . S
C619 C618 1.287 . S
C619 C620 1.524 . S
C619 H622 0.999 . S
C620 H590 0.950 . S
C620 C619 1.524 . S
C620 C621 1.415 . S
C621 H591 0.950 . S
C621 C616 1.363 . S
C621 C620 1.415 . S
H622 C619 0.999 . S
H623 C604 0.913 . S
H624 C642 0.951 . S
H625 C644 0.951 . S
H626 C646 0.950 . S
H627 C647 0.950 . S
H628 C649 0.950 . S
H629 C652 0.950 . S
H630 C653 0.950 . S
H631 C655 0.950 . S
H632 C656 0.950 . S
H633 C657 0.951 . S
H634 C659 0.951 . S
H635 C661 0.950 . S
H636 C662 0.950 . S
H637 C664 0.950 . S
H638 C667 0.950 . S
H639 C668 0.950 . S
H640 C670 0.950 . S
H641 C671 0.950 . S
C642 H624 0.951 . S
C642 C643 1.366 . S
C642 C644 1.388 . S
C643 C642 1.366 . S
C643 C647 1.385 . S
C644 H625 0.951 . S
C644 C642 1.388 . S
C644 C645 1.366 . S
C645 C644 1.366 . S
C645 C646 1.414 . S
C645 C648 1.499 . S
C646 H626 0.950 . S
C646 C645 1.414 . S
C646 C647 1.374 . S
C647 H627 0.950 . S
C647 C643 1.385 . S
C647 C646 1.374 . S
C648 C645 1.499 . S
C648 C649 1.373 . S
C648 C650 1.389 . S
C649 H628 0.950 . S
C649 C648 1.373 . S
C649 C665 1.377 . S
C650 C648 1.389 . S
C650 C651 1.524 . S
C650 C664 1.377 . S
C651 C650 1.524 . S
C651 C652 1.397 . S
C651 C656 1.363 . S
C652 H629 0.950 . S
C652 C651 1.397 . S
C652 C653 1.334 . S
C653 H630 0.950 . S
C653 C652 1.334 . S
C653 C654 1.287 . S
C654 C653 1.287 . S
C654 C655 1.524 . S
C654 H673 0.913 . S
C655 H631 0.950 . S
C655 C654 1.524 . S
C655 C656 1.415 . S
C656 H632 0.950 . S
C656 C651 1.363 . S
C656 C655 1.415 . S
C657 H633 0.951 . S
C657 C658 1.366 . S
C657 C659 1.388 . S
C658 C657 1.366 . S
C658 C662 1.385 . S
C659 H634 0.951 . S
C659 C657 1.388 . S
C659 C660 1.366 . S
C660 C659 1.366 . S
C660 C661 1.414 . S
C660 C663 1.499 . S
C661 H635 0.950 . S
C661 C660 1.414 . S
C661 C662 1.374 . S
C662 H636 0.950 . S
C662 C658 1.385 . S
C662 C661 1.374 . S
C663 C660 1.499 . S
C663 C664 1.373 . S
C663 C665 1.389 . S
C664 H637 0.950 . S
C664 C650 1.377 . S
C664 C663 1.373 . S
C665 C649 1.377 . S
C665 C663 1.389 . S
C665 C666 1.524 . S
C666 C665 1.524 . S
C666 C667 1.397 . S
C666 C671 1.363 . S
C667 H638 0.950 . S
C667 C666 1.397 . S
C667 C668 1.334 . S
C668 H639 0.950 . S
C668 C667 1.334 . S
C668 C669 1.287 . S
C669 C668 1.287 . S
C669 C670 1.524 . S
C669 H672 0.999 . S
C670 H640 0.950 . S
C670 C669 1.524 . S
C670 C671 1.415 . S
C671 H641 0.950 . S
C671 C666 1.363 . S
C671 C670 1.415 . S
H672 C669 0.999 . S
H673 C654 0.913 . S
H674 C692 0.951 . S
H675 C694 0.951 . S
H676 C696 0.950 . S
H677 C697 0.950 . S
H678 C699 0.950 . S
H679 C702 0.950 . S
H680 C703 0.950 . S
H681 C705 0.950 . S
H682 C706 0.950 . S
H683 C707 0.951 . S
H684 C709 0.951 . S
H685 C711 0.950 . S
H686 C712 0.950 . S
H687 C714 0.950 . S
H688 C717 0.950 . S
H689 C718 0.950 . S
H690 C720 0.950 . S
H691 C721 0.950 . S
C692 H674 0.951 . S
C692 C693 1.366 . S
C692 C694 1.388 . S
C693 C692 1.366 . S
C693 C697 1.385 . S
C694 H675 0.951 . S
C694 C692 1.388 . S
C694 C695 1.366 . S
C695 C694 1.366 . S
C695 C696 1.414 . S
C695 C698 1.499 . S
C696 H676 0.950 . S
C696 C695 1.414 . S
C696 C697 1.374 . S
C697 H677 0.950 . S
C697 C693 1.385 . S
C697 C696 1.374 . S
C698 C695 1.499 . S
C698 C699 1.373 . S
C698 C700 1.389 . S
C699 H678 0.950 . S
C699 C698 1.373 . S
C699 C715 1.377 . S
C700 C698 1.389 . S
C700 C701 1.524 . S
C700 C714 1.377 . S
C701 C700 1.524 . S
C701 C702 1.397 . S
C701 C706 1.363 . S
C702 H679 0.950 . S
C702 C701 1.397 . S
C702 C703 1.334 . S
C703 H680 0.950 . S
C703 C702 1.334 . S
C703 C704 1.287 . S
C704 C703 1.287 . S
C704 C705 1.524 . S
C704 H723 0.913 . S
C705 H681 0.950 . S
C705 C704 1.524 . S
C705 C706 1.415 . S
C706 H682 0.950 . S
C706 C701 1.363 . S
C706 C705 1.415 . S
C707 H683 0.951 . S
C707 C708 1.366 . S
C707 C709 1.388 . S
C708 C707 1.366 . S
C708 C712 1.385 . S
C709 H684 0.951 . S
C709 C707 1.388 . S
C709 C710 1.366 . S
C710 C709 1.366 . S
C710 C711 1.414 . S
C710 C713 1.499 . S
C711 H685 0.950 . S
C711 C710 1.414 . S
C711 C712 1.374 . S
C712 H686 0.950 . S
C712 C708 1.385 . S
C712 C711 1.374 . S
C713 C710 1.499 . S
C713 C714 1.373 . S
C713 C715 1.389 . S
C714 H687 0.950 . S
C714 C700 1.377 . S
C714 C713 1.373 . S
C715 C699 1.377 . S
C715 C713 1.389 . S
C715 C716 1.524 . S
C716 C715 1.524 . S
C716 C717 1.397 . S
C716 C721 1.363 . S
C717 H688 0.950 . S
C717 C716 1.397 . S
C717 C718 1.334 . S
C718 H689 0.950 . S
C718 C717 1.334 . S
C718 C719 1.287 . S
C719 C718 1.287 . S
C719 C720 1.524 . S
C719 H722 0.999 . S
C720 H690 0.950 . S
C720 C719 1.524 . S
C720 C721 1.415 . S
C721 H691 0.950 . S
C721 C716 1.363 . S
C721 C720 1.415 . S
H722 C719 0.999 . S
H723 C704 0.913 . S
H724 C742 0.951 . S
H725 C744 0.951 . S
H726 C746 0.950 . S
H727 C747 0.950 . S
H728 C749 0.950 . S
H729 C752 0.950 . S
H730 C753 0.950 . S
H731 C755 0.950 . S
H732 C756 0.950 . S
H733 C757 0.951 . S
H734 C759 0.951 . S
H735 C761 0.950 . S
H736 C762 0.950 . S
H737 C764 0.950 . S
H738 C767 0.950 . S
H739 C768 0.950 . S
H740 C770 0.950 . S
H741 C771 0.950 . S
C742 H724 0.951 . S
C742 C743 1.366 . S
C742 C744 1.388 . S
C743 C742 1.366 . S
C743 C747 1.385 . S
C744 H725 0.951 . S
C744 C742 1.388 . S
C744 C745 1.366 . S
C745 C744 1.366 . S
C745 C746 1.414 . S
C745 C748 1.499 . S
C746 H726 0.950 . S
C746 C745 1.414 . S
C746 C747 1.374 . S
C747 H727 0.950 . S
C747 C743 1.385 . S
C747 C746 1.374 . S
C748 C745 1.499 . S
C748 C749 1.373 . S
C748 C750 1.389 . S
C749 H728 0.950 . S
C749 C748 1.373 . S
C749 C765 1.377 . S
C750 C748 1.389 . S
C750 C751 1.524 . S
C750 C764 1.377 . S
C751 C750 1.524 . S
C751 C752 1.397 . S
C751 C756 1.363 . S
C752 H729 0.950 . S
C752 C751 1.397 . S
C752 C753 1.334 . S
C753 H730 0.950 . S
C753 C752 1.334 . S
C753 C754 1.287 . S
C754 C753 1.287 . S
C754 C755 1.524 . S
C754 H773 0.913 . S
C755 H731 0.950 . S
C755 C754 1.524 . S
C755 C756 1.415 . S
C756 H732 0.950 . S
C756 C751 1.363 . S
C756 C755 1.415 . S
C757 H733 0.951 . S
C757 C758 1.366 . S
C757 C759 1.388 . S
C758 C757 1.366 . S
C758 C762 1.385 . S
C759 H734 0.951 . S
C759 C757 1.388 . S
C759 C760 1.366 . S
C760 C759 1.366 . S
C760 C761 1.414 . S
C760 C763 1.499 . S
C761 H735 0.950 . S
C761 C760 1.414 . S
C761 C762 1.374 . S
C762 H736 0.950 . S
C762 C758 1.385 . S
C762 C761 1.374 . S
C763 C760 1.499 . S
C763 C764 1.373 . S
C763 C765 1.389 . S
C764 H737 0.950 . S
C764 C750 1.377 . S
C764 C763 1.373 . S
C765 C749 1.377 . S
C765 C763 1.389 . S
C765 C766 1.524 . S
C766 C765 1.524 . S
C766 C767 1.397 . S
C766 C771 1.363 . S
C767 H738 0.950 . S
C767 C766 1.397 . S
C767 C768 1.334 . S
C768 H739 0.950 . S
C768 C767 1.334 . S
C768 C769 1.287 . S
C769 C768 1.287 . S
C769 C770 1.524 . S
C769 H772 0.999 . S
C770 H740 0.950 . S
C770 C769 1.524 . S
C770 C771 1.415 . S
C771 H741 0.950 . S
C771 C766 1.363 . S
C771 C770 1.415 . S
H772 C769 0.999 . S
H773 C754 0.913 . S
H774 C792 0.951 . S
H775 C794 0.951 . S
H776 C796 0.950 . S
H777 C797 0.950 . S
H778 C799 0.950 . S
H779 C802 0.950 . S
H780 C803 0.950 . S
H781 C805 0.950 . S
H782 C806 0.950 . S
H783 C807 0.951 . S
H784 C809 0.951 . S
H785 C811 0.950 . S
H786 C812 0.950 . S
H787 C814 0.950 . S
H788 C817 0.950 . S
H789 C818 0.950 . S
H790 C820 0.950 . S
H791 C821 0.950 . S
C792 H774 0.951 . S
C792 C793 1.366 . S
C792 C794 1.388 . S
C793 C792 1.366 . S
C793 C797 1.385 . S
C794 H775 0.951 . S
C794 C792 1.388 . S
C794 C795 1.366 . S
C795 C794 1.366 . S
C795 C796 1.414 . S
C795 C798 1.499 . S
C796 H776 0.950 . S
C796 C795 1.414 . S
C796 C797 1.374 . S
C797 H777 0.950 . S
C797 C793 1.385 . S
C797 C796 1.374 . S
C798 C795 1.499 . S
C798 C799 1.373 . S
C798 C800 1.389 . S
C799 H778 0.950 . S
C799 C798 1.373 . S
C799 C815 1.377 . S
C800 C798 1.389 . S
C800 C801 1.524 . S
C800 C814 1.377 . S
C801 C800 1.524 . S
C801 C802 1.397 . S
C801 C806 1.363 . S
C802 H779 0.950 . S
C802 C801 1.397 . S
C802 C803 1.334 . S
C803 H780 0.950 . S
C803 C802 1.334 . S
C803 C804 1.287 . S
C804 C803 1.287 . S
C804 C805 1.524 . S
C804 H823 0.913 . S
C805 H781 0.950 . S
C805 C804 1.524 . S
C805 C806 1.415 . S
C806 H782 0.950 . S
C806 C801 1.363 . S
C806 C805 1.415 . S
C807 H783 0.951 . S
C807 C808 1.366 . S
C807 C809 1.388 . S
C808 C807 1.366 . S
C808 C812 1.385 . S
C809 H784 0.951 . S
C809 C807 1.388 . S
C809 C810 1.366 . S
C810 C809 1.366 . S
C810 C811 1.414 . S
C810 C813 1.499 . S
C811 H785 0.950 . S
C811 C810 1.414 . S
C811 C812 1.374 . S
C812 H786 0.950 . S
C812 C808 1.385 . S
C812 C811 1.374 . S
C813 C810 1.499 . S
C813 C814 1.373 . S
C813 C815 1.389 . S
C814 H787 0.950 . S
C814 C800 1.377 . S
C814 C813 1.373 . S
C815 C799 1.377 . S
C815 C813 1.389 . S
C815 C816 1.524 . S
C816 C815 1.524 . S
C816 C817 1.397 . S
C816 C821 1.363 . S
C817 H788 0.950 . S
C817 C816 1.397 . S
C817 C818 1.334 . S
C818 H789 0.950 . S
C818 C817 1.334 . S
C818 C819 1.287 . S
C819 C818 1.287 . S
C819 C820 1.524 . S
C819 H822 0.999 . S
C820 H790 0.950 . S
C820 C819 1.524 . S
C820 C821 1.415 . S
C821 H791 0.950 . S
C821 C816 1.363 . S
C821 C820 1.415 . S
H822 C819 0.999 . S
H823 C804 0.913 . S
H824 C842 0.951 . S
H825 C844 0.951 . S
H826 C846 0.950 . S
H827 C847 0.950 . S
H828 C849 0.950 . S
H829 C852 0.950 . S
H830 C853 0.950 . S
H831 C855 0.950 . S
H832 C856 0.950 . S
H833 C857 0.951 . S
H834 C859 0.951 . S
H835 C861 0.950 . S
H836 C862 0.950 . S
H837 C864 0.950 . S
H838 C867 0.950 . S
H839 C868 0.950 . S
H840 C870 0.950 . S
H841 C871 0.950 . S
C842 H824 0.951 . S
C842 C843 1.366 . S
C842 C844 1.388 . S
C843 C842 1.366 . S
C843 C847 1.385 . S
C844 H825 0.951 . S
C844 C842 1.388 . S
C844 C845 1.366 . S
C845 C844 1.366 . S
C845 C846 1.414 . S
C845 C848 1.499 . S
C846 H826 0.950 . S
C846 C845 1.414 . S
C846 C847 1.374 . S
C847 H827 0.950 . S
C847 C843 1.385 . S
C847 C846 1.374 . S
C848 C845 1.499 . S
C848 C849 1.373 . S
C848 C850 1.389 . S
C849 H828 0.950 . S
C849 C848 1.373 . S
C849 C865 1.377 . S
C850 C848 1.389 . S
C850 C851 1.524 . S
C850 C864 1.377 . S
C851 C850 1.524 . S
C851 C852 1.397 . S
C851 C856 1.363 . S
C852 H829 0.950 . S
C852 C851 1.397 . S
C852 C853 1.334 . S
C853 H830 0.950 . S
C853 C852 1.334 . S
C853 C854 1.287 . S
C854 C853 1.287 . S
C854 C855 1.524 . S
C854 H873 0.913 . S
C855 H831 0.950 . S
C855 C854 1.524 . S
C855 C856 1.415 . S
C856 H832 0.950 . S
C856 C851 1.363 . S
C856 C855 1.415 . S
C857 H833 0.951 . S
C857 C858 1.366 . S
C857 C859 1.388 . S
C858 C857 1.366 . S
C858 C862 1.385 . S
C859 H834 0.951 . S
C859 C857 1.388 . S
C859 C860 1.366 . S
C860 C859 1.366 . S
C860 C861 1.414 . S
C860 C863 1.499 . S
C861 H835 0.950 . S
C861 C860 1.414 . S
C861 C862 1.374 . S
C862 H836 0.950 . S
C862 C858 1.385 . S
C862 C861 1.374 . S
C863 C860 1.499 . S
C863 C864 1.373 . S
C863 C865 1.389 . S
C864 H837 0.950 . S
C864 C850 1.377 . S
C864 C863 1.373 . S
C865 C849 1.377 . S
C865 C863 1.389 . S
C865 C866 1.524 . S
C866 C865 1.524 . S
C866 C867 1.397 . S
C866 C871 1.363 . S
C867 H838 0.950 . S
C867 C866 1.397 . S
C867 C868 1.334 . S
C868 H839 0.950 . S
C868 C867 1.334 . S
C868 C869 1.287 . S
C869 C868 1.287 . S
C869 C870 1.524 . S
C869 H872 0.999 . S
C870 H840 0.950 . S
C870 C869 1.524 . S
C870 C871 1.415 . S
C871 H841 0.950 . S
C871 C866 1.363 . S
C871 C870 1.415 . S
H872 C869 0.999 . S
H873 C854 0.913 . S
H874 C892 0.951 . S
H875 C894 0.951 . S
H876 C896 0.950 . S
H877 C897 0.950 . S
H878 C899 0.950 . S
H879 C902 0.950 . S
H880 C903 0.950 . S
H881 C905 0.950 . S
H882 C906 0.950 . S
H883 C907 0.951 . S
H884 C909 0.951 . S
H885 C911 0.950 . S
H886 C912 0.950 . S
H887 C914 0.950 . S
H888 C917 0.950 . S
H889 C918 0.950 . S
H890 C920 0.950 . S
H891 C921 0.950 . S
C892 H874 0.951 . S
C892 C893 1.366 . S
C892 C894 1.388 . S
C893 C892 1.366 . S
C893 C897 1.385 . S
C894 H875 0.951 . S
C894 C892 1.388 . S
C894 C895 1.366 . S
C895 C894 1.366 . S
C895 C896 1.414 . S
C895 C898 1.499 . S
C896 H876 0.950 . S
C896 C895 1.414 . S
C896 C897 1.374 . S
C897 H877 0.950 . S
C897 C893 1.385 . S
C897 C896 1.374 . S
C898 C895 1.499 . S
C898 C899 1.373 . S
C898 C900 1.389 . S
C899 H878 0.950 . S
C899 C898 1.373 . S
C899 C915 1.377 . S
C900 C898 1.389 . S
C900 C901 1.524 . S
C900 C914 1.377 . S
C901 C900 1.524 . S
C901 C902 1.397 . S
C901 C906 1.363 . S
C902 H879 0.950 . S
C902 C901 1.397 . S
C902 C903 1.334 . S
C903 H880 0.950 . S
C903 C902 1.334 . S
C903 C904 1.287 . S
C904 C903 1.287 . S
C904 C905 1.524 . S
C904 H923 0.913 . S
C905 H881 0.950 . S
C905 C904 1.524 . S
C905 C906 1.415 . S
C906 H882 0.950 . S
C906 C901 1.363 . S
C906 C905 1.415 . S
C907 H883 0.951 . S
C907 C908 1.366 . S
C907 C909 1.388 . S
C908 C907 1.366 . S
C908 C912 1.385 . S
C909 H884 0.951 . S
C909 C907 1.388 . S
C909 C910 1.366 . S
C910 C909 1.366 . S
C910 C911 1.414 . S
C910 C913 1.499 . S
C911 H885 0.950 . S
C911 C910 1.414 . S
C911 C912 1.374 . S
C912 H886 0.950 . S
C912 C908 1.385 . S
C912 C911 1.374 . S
C913 C910 1.499 . S
C913 C914 1.373 . S
C913 C915 1.389 . S
C914 H887 0.950 . S
C914 C900 1.377 . S
C914 C913 1.373 . S
C915 C899 1.377 . S
C915 C913 1.389 . S
C915 C916 1.524 . S
C916 C915 1.524 . S
C916 C917 1.397 . S
C916 C921 1.363 . S
C917 H888 0.950 . S
C917 C916 1.397 . S
C917 C918 1.334 . S
C918 H889 0.950 . S
C918 C917 1.334 . S
C918 C919 1.287 . S
C919 C918 1.287 . S
C919 C920 1.524 . S
C919 H922 0.999 . S
C920 H890 0.950 . S
C920 C919 1.524 . S
C920 C921 1.415 . S
C921 H891 0.950 . S
C921 C916 1.363 . S
C921 C920 1.415 . S
H922 C919 0.999 . S
H923 C904 0.913 . S
H924 C942 0.951 . S
H925 C944 0.951 . S
H926 C946 0.950 . S
H927 C947 0.950 . S
H928 C949 0.950 . S
H929 C952 0.950 . S
H930 C953 0.950 . S
H931 C955 0.950 . S
H932 C956 0.950 . S
H933 C957 0.951 . S
H934 C959 0.951 . S
H935 C961 0.950 . S
H936 C962 0.950 . S
H937 C964 0.950 . S
H938 C967 0.950 . S
H939 C968 0.950 . S
H940 C970 0.950 . S
H941 C971 0.950 . S
C942 H924 0.951 . S
C942 C943 1.366 . S
C942 C944 1.388 . S
C943 C942 1.366 . S
C943 C947 1.385 . S
C944 H925 0.951 . S
C944 C942 1.388 . S
C944 C945 1.366 . S
C945 C944 1.366 . S
C945 C946 1.414 . S
C945 C948 1.499 . S
C946 H926 0.950 . S
C946 C945 1.414 . S
C946 C947 1.374 . S
C947 H927 0.950 . S
C947 C943 1.385 . S
C947 C946 1.374 . S
C948 C945 1.499 . S
C948 C949 1.373 . S
C948 C950 1.389 . S
C949 H928 0.950 . S
C949 C948 1.373 . S
C949 C965 1.377 . S
C950 C948 1.389 . S
C950 C951 1.524 . S
C950 C964 1.377 . S
C951 C950 1.524 . S
C951 C952 1.397 . S
C951 C956 1.363 . S
C952 H929 0.950 . S
C952 C951 1.397 . S
C952 C953 1.334 . S
C953 H930 0.950 . S
C953 C952 1.334 . S
C953 C954 1.287 . S
C954 C953 1.287 . S
C954 C955 1.524 . S
C954 H973 0.913 . S
C955 H931 0.950 . S
C955 C954 1.524 . S
C955 C956 1.415 . S
C956 H932 0.950 . S
C956 C951 1.363 . S
C956 C955 1.415 . S
C957 H933 0.951 . S
C957 C958 1.366 . S
C957 C959 1.388 . S
C958 C957 1.366 . S
C958 C962 1.385 . S
C959 H934 0.951 . S
C959 C957 1.388 . S
C959 C960 1.366 . S
C960 C959 1.366 . S
C960 C961 1.414 . S
C960 C963 1.499 . S
C961 H935 0.950 . S
C961 C960 1.414 . S
C961 C962 1.374 . S
C962 H936 0.950 . S
C962 C958 1.385 . S
C962 C961 1.374 . S
C963 C960 1.499 . S
C963 C964 1.373 . S
C963 C965 1.389 . S
C964 H937 0.950 . S
C964 C950 1.377 . S
C964 C963 1.373 . S
C965 C949 1.377 . S
C965 C963 1.389 . S
C965 C966 1.524 . S
C966 C965 1.524 . S
C966 C967 1.397 . S
C966 C971 1.363 . S
C967 H938 0.950 . S
C967 C966 1.397 . S
C967 C968 1.334 . S
C968 H939 0.950 . S
C968 C967 1.334 . S
C968 C969 1.287 . S
C969 C968 1.287 . S
C969 C970 1.524 . S
C969 H972 0.999 . S
C970 H940 0.950 . S
C970 C969 1.524 . S
C970 C971 1.415 . S
C971 H941 0.950 . S
C971 C966 1.363 . S
C971 C970 1.415 . S
H972 C969 0.999 . S
H973 C954 0.913 . S
H974 C992 0.951 . S
H975 C994 0.951 . S
H976 C996 0.950 . S
H977 C997 0.950 . S
H978 C999 0.950 . S
H979 C1002 0.950 . S
H980 C1003 0.950 . S
H981 C1005 0.950 . S
H982 C1006 0.950 . S
H983 C1007 0.951 . S
H984 C1009 0.951 . S
H985 C1011 0.950 . S
H986 C1012 0.950 . S
H987 C1014 0.950 . S
H988 C1017 0.950 . S
H989 C1018 0.950 . S
H990 C1020 0.950 . S
H991 C1021 0.950 . S
C992 H974 0.951 . S
C992 C993 1.366 . S
C992 C994 1.388 . S
C993 C992 1.366 . S
C993 C997 1.385 . S
C994 H975 0.951 . S
C994 C992 1.388 . S
C994 C995 1.366 . S
C995 C994 1.366 . S
C995 C996 1.414 . S
C995 C998 1.499 . S
C996 H976 0.950 . S
C996 C995 1.414 . S
C996 C997 1.374 . S
C997 H977 0.950 . S
C997 C993 1.385 . S
C997 C996 1.374 . S
C998 C995 1.499 . S
C998 C999 1.373 . S
C998 C1000 1.389 . S
C999 H978 0.950 . S
C999 C998 1.373 . S
C999 C1015 1.377 . S
C1000 C998 1.389 . S
C1000 C1001 1.524 . S
C1000 C1014 1.377 . S
C1001 C1000 1.524 . S
C1001 C1002 1.397 . S
C1001 C1006 1.363 . S
C1002 H979 0.950 . S
C1002 C1001 1.397 . S
C1002 C1003 1.334 . S
C1003 H980 0.950 . S
C1003 C1002 1.334 . S
C1003 C1004 1.287 . S
C1004 C1003 1.287 . S
C1004 C1005 1.524 . S
C1004 H1023 0.913 . S
C1005 H981 0.950 . S
C1005 C1004 1.524 . S
C1005 C1006 1.415 . S
C1006 H982 0.950 . S
C1006 C1001 1.363 . S
C1006 C1005 1.415 . S
C1007 H983 0.951 . S
C1007 C1008 1.366 . S
C1007 C1009 1.388 . S
C1008 C1007 1.366 . S
C1008 C1012 1.385 . S
C1009 H984 0.951 . S
C1009 C1007 1.388 . S
C1009 C1010 1.366 . S
C1010 C1009 1.366 . S
C1010 C1011 1.414 . S
C1010 C1013 1.499 . S
C1011 H985 0.950 . S
C1011 C1010 1.414 . S
C1011 C1012 1.374 . S
C1012 H986 0.950 . S
C1012 C1008 1.385 . S
C1012 C1011 1.374 . S
C1013 C1010 1.499 . S
C1013 C1014 1.373 . S
C1013 C1015 1.389 . S
C1014 H987 0.950 . S
C1014 C1000 1.377 . S
C1014 C1013 1.373 . S
C1015 C999 1.377 . S
C1015 C1013 1.389 . S
C1015 C1016 1.524 . S
C1016 C1015 1.524 . S
C1016 C1017 1.397 . S
C1016 C1021 1.363 . S
C1017 H988 0.950 . S
C1017 C1016 1.397 . S
C1017 C1018 1.334 . S
C1018 H989 0.950 . S
C1018 C1017 1.334 . S
C1018 C1019 1.287 . S
C1019 C1018 1.287 . S
C1019 C1020 1.524 . S
C1019 H1022 0.999 . S
C1020 H990 0.950 . S
C1020 C1019 1.524 . S
C1020 C1021 1.415 . S
C1021 H991 0.950 . S
C1021 C1016 1.363 . S
C1021 C1020 1.415 . S
H1022 C1019 0.999 . S
H1023 C1004 0.913 . S
H1024 C1042 0.951 . S
H1025 C1044 0.951 . S
H1026 C1046 0.950 . S
H1027 C1047 0.950 . S
H1028 C1049 0.950 . S
H1029 C1052 0.950 . S
H1030 C1053 0.950 . S
H1031 C1055 0.950 . S
H1032 C1056 0.950 . S
H1033 C1057 0.951 . S
H1034 C1059 0.951 . S
H1035 C1061 0.950 . S
H1036 C1062 0.950 . S
H1037 C1064 0.950 . S
H1038 C1067 0.950 . S
H1039 C1068 0.950 . S
H1040 C1070 0.950 . S
H1041 C1071 0.950 . S
C1042 H1024 0.951 . S
C1042 C1043 1.366 . S
C1042 C1044 1.388 . S
C1043 C1042 1.366 . S
C1043 C1047 1.385 . S
C1044 H1025 0.951 . S
C1044 C1042 1.388 . S
C1044 C1045 1.366 . S
C1045 C1044 1.366 . S
C1045 C1046 1.414 . S
C1045 C1048 1.499 . S
C1046 H1026 0.950 . S
C1046 C1045 1.414 . S
C1046 C1047 1.374 . S
C1047 H1027 0.950 . S
C1047 C1043 1.385 . S
C1047 C1046 1.374 . S
C1048 C1045 1.499 . S
C1048 C1049 1.373 . S
C1048 C1050 1.389 . S
C1049 H1028 0.950 . S
C1049 C1048 1.373 . S
C1049 C1065 1.377 . S
C1050 C1048 1.389 . S
C1050 C1051 1.524 . S
C1050 C1064 1.377 . S
C1051 C1050 1.524 . S
C1051 C1052 1.397 . S
C1051 C1056 1.363 . S
C1052 H1029 0.950 . S
C1052 C1051 1.397 . S
C1052 C1053 1.334 . S
C1053 H1030 0.950 . S
C1053 C1052 1.334 . S
C1053 C1054 1.287 . S
C1054 C1053 1.287 . S
C1054 C1055 1.524 . S
C1054 H1073 0.913 . S
C1055 H1031 0.950 . S
C1055 C1054 1.524 . S
C1055 C1056 1.415 . S
C1056 H1032 0.950 . S
C1056 C1051 1.363 . S
C1056 C1055 1.415 . S
C1057 H1033 0.951 . S
C1057 C1058 1.366 . S
C1057 C1059 1.388 . S
C1058 C1057 1.366 . S
C1058 C1062 1.385 . S
C1059 H1034 0.951 . S
C1059 C1057 1.388 . S
C1059 C1060 1.366 . S
C1060 C1059 1.366 . S
C1060 C1061 1.414 . S
C1060 C1063 1.499 . S
C1061 H1035 0.950 . S
C1061 C1060 1.414 . S
C1061 C1062 1.374 . S
C1062 H1036 0.950 . S
C1062 C1058 1.385 . S
C1062 C1061 1.374 . S
C1063 C1060 1.499 . S
C1063 C1064 1.373 . S
C1063 C1065 1.389 . S
C1064 H1037 0.950 . S
C1064 C1050 1.377 . S
C1064 C1063 1.373 . S
C1065 C1049 1.377 . S
C1065 C1063 1.389 . S
C1065 C1066 1.524 . S
C1066 C1065 1.524 . S
C1066 C1067 1.397 . S
C1066 C1071 1.363 . S
C1067 H1038 0.950 . S
C1067 C1066 1.397 . S
C1067 C1068 1.334 . S
C1068 H1039 0.950 . S
C1068 C1067 1.334 . S
C1068 C1069 1.287 . S
C1069 C1068 1.287 . S
C1069 C1070 1.524 . S
C1069 H1072 0.999 . S
C1070 H1040 0.950 . S
C1070 C1069 1.524 . S
C1070 C1071 1.415 . S
C1071 H1041 0.950 . S
C1071 C1066 1.363 . S
C1071 C1070 1.415 . S
H1072 C1069 0.999 . S
H1073 C1054 0.913 . S
H1074 C1092 0.951 . S
H1075 C1094 0.951 . S
H1076 C1096 0.950 . S
H1077 C1097 0.950 . S
H1078 C1099 0.950 . S
H1079 C1102 0.950 . S
H1080 C1103 0.950 . S
H1081 C1105 0.950 . S
H1082 C1106 0.950 . S
H1083 C1107 0.951 . S
H1084 C1109 0.951 . S
H1085 C1111 0.950 . S
H1086 C1112 0.950 . S
H1087 C1114 0.950 . S
H1088 C1117 0.950 . S
H1089 C1118 0.950 . S
H1090 C1120 0.950 . S
H1091 C1121 0.950 . S
C1092 H1074 0.951 . S
C1092 C1093 1.366 . S
C1092 C1094 1.388 . S
C1093 C1092 1.366 . S
C1093 C1097 1.385 . S
C1094 H1075 0.951 . S
C1094 C1092 1.388 . S
C1094 C1095 1.366 . S
C1095 C1094 1.366 . S
C1095 C1096 1.414 . S
C1095 C1098 1.499 . S
C1096 H1076 0.950 . S
C1096 C1095 1.414 . S
C1096 C1097 1.374 . S
C1097 H1077 0.950 . S
C1097 C1093 1.385 . S
C1097 C1096 1.374 . S
C1098 C1095 1.499 . S
C1098 C1099 1.373 . S
C1098 C1100 1.389 . S
C1099 H1078 0.950 . S
C1099 C1098 1.373 . S
C1099 C1115 1.377 . S
C1100 C1098 1.389 . S
C1100 C1101 1.524 . S
C1100 C1114 1.377 . S
C1101 C1100 1.524 . S
C1101 C1102 1.397 . S
C1101 C1106 1.363 . S
C1102 H1079 0.950 . S
C1102 C1101 1.397 . S
C1102 C1103 1.334 . S
C1103 H1080 0.950 . S
C1103 C1102 1.334 . S
C1103 C1104 1.287 . S
C1104 C1103 1.287 . S
C1104 C1105 1.524 . S
C1104 H1123 0.913 . S
C1105 H1081 0.950 . S
C1105 C1104 1.524 . S
C1105 C1106 1.415 . S
C1106 H1082 0.950 . S
C1106 C1101 1.363 . S
C1106 C1105 1.415 . S
C1107 H1083 0.951 . S
C1107 C1108 1.366 . S
C1107 C1109 1.388 . S
C1108 C1107 1.366 . S
C1108 C1112 1.385 . S
C1109 H1084 0.951 . S
C1109 C1107 1.388 . S
C1109 C1110 1.366 . S
C1110 C1109 1.366 . S
C1110 C1111 1.414 . S
C1110 C1113 1.499 . S
C1111 H1085 0.950 . S
C1111 C1110 1.414 . S
C1111 C1112 1.374 . S
C1112 H1086 0.950 . S
C1112 C1108 1.385 . S
C1112 C1111 1.374 . S
C1113 C1110 1.499 . S
C1113 C1114 1.373 . S
C1113 C1115 1.389 . S
C1114 H1087 0.950 . S
C1114 C1100 1.377 . S
C1114 C1113 1.373 . S
C1115 C1099 1.377 . S
C1115 C1113 1.389 . S
C1115 C1116 1.524 . S
C1116 C1115 1.524 . S
C1116 C1117 1.397 . S
C1116 C1121 1.363 . S
C1117 H1088 0.950 . S
C1117 C1116 1.397 . S
C1117 C1118 1.334 . S
C1118 H1089 0.950 . S
C1118 C1117 1.334 . S
C1118 C1119 1.287 . S
C1119 C1118 1.287 . S
C1119 C1120 1.524 . S
C1119 H1122 0.999 . S
C1120 H1090 0.950 . S
C1120 C1119 1.524 . S
C1120 C1121 1.415 . S
C1121 H1091 0.950 . S
C1121 C1116 1.363 . S
C1121 C1120 1.415 . S
H1122 C1119 0.999 . S
H1123 C1104 0.913 . S
H1124 C1142 0.951 . S
H1125 C1144 0.951 . S
H1126 C1146 0.950 . S
H1127 C1147 0.950 . S
H1128 C1149 0.950 . S
H1129 C1152 0.950 . S
H1130 C1153 0.950 . S
H1131 C1155 0.950 . S
H1132 C1156 0.950 . S
H1133 C1157 0.951 . S
H1134 C1159 0.951 . S
H1135 C1161 0.950 . S
H1136 C1162 0.950 . S
H1137 C1164 0.950 . S
H1138 C1167 0.950 . S
H1139 C1168 0.950 . S
H1140 C1170 0.950 . S
H1141 C1171 0.950 . S
C1142 H1124 0.951 . S
C1142 C1143 1.366 . S
C1142 C1144 1.388 . S
C1143 C1142 1.366 . S
C1143 C1147 1.385 . S
C1144 H1125 0.951 . S
C1144 C1142 1.388 . S
C1144 C1145 1.366 . S
C1145 C1144 1.366 . S
C1145 C1146 1.414 . S
C1145 C1148 1.499 . S
C1146 H1126 0.950 . S
C1146 C1145 1.414 . S
C1146 C1147 1.374 . S
C1147 H1127 0.950 . S
C1147 C1143 1.385 . S
C1147 C1146 1.374 . S
C1148 C1145 1.499 . S
C1148 C1149 1.373 . S
C1148 C1150 1.389 . S
C1149 H1128 0.950 . S
C1149 C1148 1.373 . S
C1149 C1165 1.377 . S
C1150 C1148 1.389 . S
C1150 C1151 1.524 . S
C1150 C1164 1.377 . S
C1151 C1150 1.524 . S
C1151 C1152 1.397 . S
C1151 C1156 1.363 . S
C1152 H1129 0.950 . S
C1152 C1151 1.397 . S
C1152 C1153 1.334 . S
C1153 H1130 0.950 . S
C1153 C1152 1.334 . S
C1153 C1154 1.287 . S
C1154 C1153 1.287 . S
C1154 C1155 1.524 . S
C1154 H1173 0.913 . S
C1155 H1131 0.950 . S
C1155 C1154 1.524 . S
C1155 C1156 1.415 . S
C1156 H1132 0.950 . S
C1156 C1151 1.363 . S
C1156 C1155 1.415 . S
C1157 H1133 0.951 . S
C1157 C1158 1.366 . S
C1157 C1159 1.388 . S
C1158 C1157 1.366 . S
C1158 C1162 1.385 . S
C1159 H1134 0.951 . S
C1159 C1157 1.388 . S
C1159 C1160 1.366 . S
C1160 C1159 1.366 . S
C1160 C1161 1.414 . S
C1160 C1163 1.499 . S
C1161 H1135 0.950 . S
C1161 C1160 1.414 . S
C1161 C1162 1.374 . S
C1162 H1136 0.950 . S
C1162 C1158 1.385 . S
C1162 C1161 1.374 . S
C1163 C1160 1.499 . S
C1163 C1164 1.373 . S
C1163 C1165 1.389 . S
C1164 H1137 0.950 . S
C1164 C1150 1.377 . S
C1164 C1163 1.373 . S
C1165 C1149 1.377 . S
C1165 C1163 1.389 . S
C1165 C1166 1.524 . S
C1166 C1165 1.524 . S
C1166 C1167 1.397 . S
C1166 C1171 1.363 . S
C1167 H1138 0.950 . S
C1167 C1166 1.397 . S
C1167 C1168 1.334 . S
C1168 H1139 0.950 . S
C1168 C1167 1.334 . S
C1168 C1169 1.287 . S
C1169 C1168 1.287 . S
C1169 C1170 1.524 . S
C1169 H1172 0.999 . S
C1170 H1140 0.950 . S
C1170 C1169 1.524 . S
C1170 C1171 1.415 . S
C1171 H1141 0.950 . S
C1171 C1166 1.363 . S
C1171 C1170 1.415 . S
H1172 C1169 0.999 . S
H1173 C1154 0.913 . S
H1174 C1192 0.951 . S
H1175 C1194 0.951 . S
H1176 C1196 0.950 . S
H1177 C1197 0.950 . S
H1178 C1199 0.950 . S
H1179 C1202 0.950 . S
H1180 C1203 0.950 . S
H1181 C1205 0.950 . S
H1182 C1206 0.950 . S
H1183 C1207 0.951 . S
H1184 C1209 0.951 . S
H1185 C1211 0.950 . S
H1186 C1212 0.950 . S
H1187 C1214 0.950 . S
H1188 C1217 0.950 . S
H1189 C1218 0.950 . S
H1190 C1220 0.950 . S
H1191 C1221 0.950 . S
C1192 H1174 0.951 . S
C1192 C1193 1.366 . S
C1192 C1194 1.388 . S
C1193 C1192 1.366 . S
C1193 C1197 1.385 . S
C1194 H1175 0.951 . S
C1194 C1192 1.388 . S
C1194 C1195 1.366 . S
C1195 C1194 1.366 . S
C1195 C1196 1.414 . S
C1195 C1198 1.499 . S
C1196 H1176 0.950 . S
C1196 C1195 1.414 . S
C1196 C1197 1.374 . S
C1197 H1177 0.950 . S
C1197 C1193 1.385 . S
C1197 C1196 1.374 . S
C1198 C1195 1.499 . S
C1198 C1199 1.373 . S
C1198 C1200 1.389 . S
C1199 H1178 0.950 . S
C1199 C1198 1.373 . S
C1199 C1215 1.377 . S
C1200 C1198 1.389 . S
C1200 C1201 1.524 . S
C1200 C1214 1.377 . S
C1201 C1200 1.524 . S
C1201 C1202 1.397 . S
C1201 C1206 1.363 . S
C1202 H1179 0.950 . S
C1202 C1201 1.397 . S
C1202 C1203 1.334 . S
C1203 H1180 0.950 . S
C1203 C1202 1.334 . S
C1203 C1204 1.287 . S
C1204 C1203 1.287 . S
C1204 C1205 1.524 . S
C1204 H1223 0.913 . S
C1205 H1181 0.950 . S
C1205 C1204 1.524 . S
C1205 C1206 1.415 . S
C1206 H1182 0.950 . S
C1206 C1201 1.363 . S
C1206 C1205 1.415 . S
C1207 H1183 0.951 . S
C1207 C1208 1.366 . S
C1207 C1209 1.388 . S
C1208 C1207 1.366 . S
C1208 C1212 1.385 . S
C1209 H1184 0.951 . S
C1209 C1207 1.388 . S
C1209 C1210 1.366 . S
C1210 C1209 1.366 . S
C1210 C1211 1.414 . S
C1210 C1213 1.499 . S
C1211 H1185 0.950 . S
C1211 C1210 1.414 . S
C1211 C1212 1.374 . S
C1212 H1186 0.950 . S
C1212 C1208 1.385 . S
C1212 C1211 1.374 . S
C1213 C1210 1.499 . S
C1213 C1214 1.373 . S
C1213 C1215 1.389 . S
C1214 H1187 0.950 . S
C1214 C1200 1.377 . S
C1214 C1213 1.373 . S
C1215 C1199 1.377 . S
C1215 C1213 1.389 . S
C1215 C1216 1.524 . S
C1216 C1215 1.524 . S
C1216 C1217 1.397 . S
C1216 C1221 1.363 . S
C1217 H1188 0.950 . S
C1217 C1216 1.397 . S
C1217 C1218 1.334 . S
C1218 H1189 0.950 . S
C1218 C1217 1.334 . S
C1218 C1219 1.287 . S
C1219 C1218 1.287 . S
C1219 C1220 1.524 . S
C1219 H1222 0.999 . S
C1220 H1190 0.950 . S
C1220 C1219 1.524 . S
C1220 C1221 1.415 . S
C1221 H1191 0.950 . S
C1221 C1216 1.363 . S
C1221 C1220 1.415 . S
H1222 C1219 0.999 . S
H1223 C1204 0.913 . S
H1224 C1242 0.951 . S
H1225 C1244 0.951 . S
H1226 C1246 0.950 . S
H1227 C1247 0.950 . S
H1228 C1249 0.950 . S
H1229 C1252 0.950 . S
H1230 C1253 0.950 . S
H1231 C1255 0.950 . S
H1232 C1256 0.950 . S
H1233 C1257 0.951 . S
H1234 C1259 0.951 . S
H1235 C1261 0.950 . S
H1236 C1262 0.936 1_455 S
H1237 C1264 0.950 . S
H1238 C1267 0.950 . S
H1239 C1268 0.950 . S
H1240 C1270 0.950 . S
H1241 C1271 0.950 . S
C1242 H1224 0.951 . S
C1242 C1243 1.366 . S
C1242 C1244 1.388 . S
C1243 C1242 1.366 . S
C1243 C1247 1.385 . S
C1244 H1225 0.951 . S
C1244 C1242 1.388 . S
C1244 C1245 1.366 . S
C1245 C1244 1.366 . S
C1245 C1246 1.414 . S
C1245 C1248 1.499 . S
C1246 H1226 0.950 . S
C1246 C1245 1.414 . S
C1246 C1247 1.374 . S
C1247 H1227 0.950 . S
C1247 C1243 1.385 . S
C1247 C1246 1.374 . S
C1248 C1245 1.499 . S
C1248 C1249 1.373 . S
C1248 C1250 1.389 . S
C1249 H1228 0.950 . S
C1249 C1248 1.373 . S
C1249 C1265 1.377 . S
C1250 C1248 1.389 . S
C1250 C1251 1.524 . S
C1250 C1264 1.377 . S
C1251 C1250 1.524 . S
C1251 C1252 1.397 . S
C1251 C1256 1.363 . S
C1252 H1229 0.950 . S
C1252 C1251 1.397 . S
C1252 C1253 1.334 . S
C1253 H1230 0.950 . S
C1253 C1252 1.334 . S
C1253 C1254 1.287 . S
C1254 C1253 1.287 . S
C1254 C1255 1.524 . S
C1254 H1273 0.913 . S
C1255 H1231 0.950 . S
C1255 C1254 1.524 . S
C1255 C1256 1.415 . S
C1256 H1232 0.950 . S
C1256 C1251 1.363 . S
C1256 C1255 1.415 . S
C1257 H1233 0.951 . S
C1257 C1258 1.366 . S
C1257 C1259 1.388 . S
C1258 C1257 1.366 . S
C1258 C1262 1.385 . S
C1259 H1234 0.951 . S
C1259 C1257 1.388 . S
C1259 C1260 1.366 . S
C1260 C1259 1.366 . S
C1260 C1261 1.414 . S
C1260 C1263 1.499 . S
C1261 H1235 0.950 . S
C1261 C1260 1.414 . S
C1261 C1262 1.374 . S
C1262 H1236 0.936 1_655 S
C1262 C1258 1.385 . S
C1262 C1261 1.374 . S
C1263 C1260 1.499 . S
C1263 C1264 1.373 . S
C1263 C1265 1.389 . S
C1264 H1237 0.950 . S
C1264 C1250 1.377 . S
C1264 C1263 1.373 . S
C1265 C1249 1.377 . S
C1265 C1263 1.389 . S
C1265 C1266 1.524 . S
C1266 C1265 1.524 . S
C1266 C1267 1.397 . S
C1266 C1271 1.363 . S
C1267 H1238 0.950 . S
C1267 C1266 1.397 . S
C1267 C1268 1.334 . S
C1268 H1239 0.950 . S
C1268 C1267 1.334 . S
C1268 C1269 1.287 . S
C1269 C1268 1.287 . S
C1269 C1270 1.524 . S
C1269 H1272 0.999 . S
C1270 H1240 0.950 . S
C1270 C1269 1.524 . S
C1270 C1271 1.415 . S
C1271 H1241 0.950 . S
C1271 C1266 1.363 . S
C1271 C1270 1.415 . S
H1272 C1269 0.999 . S
H1273 C1254 0.913 . S
H1274 C1292 0.951 . S
H1275 C1294 0.951 . S
H1276 C1296 0.950 . S
H1277 C1297 0.950 . S
H1278 C1299 0.950 . S
H1279 C1302 0.950 . S
H1280 C1303 0.950 . S
H1281 C1305 0.950 . S
H1282 C1306 0.950 . S
H1283 C1307 0.951 . S
H1284 C1309 0.951 . S
H1285 C1311 0.950 . S
H1286 C1312 0.950 . S
H1287 C1314 0.950 . S
H1288 C1317 0.950 . S
H1289 C1318 0.950 . S
H1290 C1320 0.950 . S
H1291 C1321 0.950 . S
C1292 H1274 0.951 . S
C1292 C1293 1.366 . S
C1292 C1294 1.388 . S
C1293 C1292 1.366 . S
C1293 C1297 1.385 . S
C1294 H1275 0.951 . S
C1294 C1292 1.388 . S
C1294 C1295 1.366 . S
C1295 C1294 1.366 . S
C1295 C1296 1.414 . S
C1295 C1298 1.499 . S
C1296 H1276 0.950 . S
C1296 C1295 1.414 . S
C1296 C1297 1.374 . S
C1297 H1277 0.950 . S
C1297 C1293 1.385 . S
C1297 C1296 1.374 . S
C1298 C1295 1.499 . S
C1298 C1299 1.373 . S
C1298 C1300 1.389 . S
C1299 H1278 0.950 . S
C1299 C1298 1.373 . S
C1299 C1315 1.377 . S
C1300 C1298 1.389 . S
C1300 C1301 1.524 . S
C1300 C1314 1.377 . S
C1301 C1300 1.524 . S
C1301 C1302 1.397 . S
C1301 C1306 1.363 . S
C1302 H1279 0.950 . S
C1302 C1301 1.397 . S
C1302 C1303 1.334 . S
C1303 H1280 0.950 . S
C1303 C1302 1.334 . S
C1303 C1304 1.287 . S
C1304 C1303 1.287 . S
C1304 C1305 1.524 . S
C1304 H1323 0.913 . S
C1305 H1281 0.950 . S
C1305 C1304 1.524 . S
C1305 C1306 1.415 . S
C1306 H1282 0.950 . S
C1306 C1301 1.363 . S
C1306 C1305 1.415 . S
C1307 H1283 0.951 . S
C1307 C1308 1.366 . S
C1307 C1309 1.388 . S
C1308 C1307 1.366 . S
C1308 C1312 1.385 . S
C1309 H1284 0.951 . S
C1309 C1307 1.388 . S
C1309 C1310 1.366 . S
C1310 C1309 1.366 . S
C1310 C1311 1.414 . S
C1310 C1313 1.499 . S
C1311 H1285 0.950 . S
C1311 C1310 1.414 . S
C1311 C1312 1.374 . S
C1312 H1286 0.950 . S
C1312 C1308 1.385 . S
C1312 C1311 1.374 . S
C1313 C1310 1.499 . S
C1313 C1314 1.373 . S
C1313 C1315 1.389 . S
C1314 H1287 0.950 . S
C1314 C1300 1.377 . S
C1314 C1313 1.373 . S
C1315 C1299 1.377 . S
C1315 C1313 1.389 . S
C1315 C1316 1.524 . S
C1316 C1315 1.524 . S
C1316 C1317 1.397 . S
C1316 C1321 1.363 . S
C1317 H1288 0.950 . S
C1317 C1316 1.397 . S
C1317 C1318 1.334 . S
C1318 H1289 0.950 . S
C1318 C1317 1.334 . S
C1318 C1319 1.287 . S
C1319 C1318 1.287 . S
C1319 C1320 1.524 . S
C1319 H1322 0.999 . S
C1320 H1290 0.950 . S
C1320 C1319 1.524 . S
C1320 C1321 1.415 . S
C1321 H1291 0.950 . S
C1321 C1316 1.363 . S
C1321 C1320 1.415 . S
H1322 C1319 0.999 . S
H1323 C1304 0.913 . S
H1324 C1342 0.951 . S
H1325 C1344 0.951 . S
H1326 C1346 0.950 . S
H1327 C1347 0.950 . S
H1328 C1349 0.950 . S
H1329 C1352 0.950 . S
H1330 C1353 0.950 . S
H1331 C1355 0.950 . S
H1332 C1356 0.950 . S
H1333 C1357 0.951 . S
H1334 C1359 0.951 . S
H1335 C1361 0.950 . S
H1336 C1362 0.950 . S
H1337 C1364 0.950 . S
H1338 C1367 0.950 . S
H1339 C1368 0.950 . S
H1340 C1370 0.950 . S
H1341 C1371 0.950 . S
C1342 H1324 0.951 . S
C1342 C1343 1.366 . S
C1342 C1344 1.388 . S
C1343 C1342 1.366 . S
C1343 C1347 1.385 . S
C1344 H1325 0.951 . S
C1344 C1342 1.388 . S
C1344 C1345 1.366 . S
C1345 C1344 1.366 . S
C1345 C1346 1.414 . S
C1345 C1348 1.499 . S
C1346 H1326 0.950 . S
C1346 C1345 1.414 . S
C1346 C1347 1.374 . S
C1347 H1327 0.950 . S
C1347 C1343 1.385 . S
C1347 C1346 1.374 . S
C1348 C1345 1.499 . S
C1348 C1349 1.373 . S
C1348 C1350 1.389 . S
C1349 H1328 0.950 . S
C1349 C1348 1.373 . S
C1349 C1365 1.377 . S
C1350 C1348 1.389 . S
C1350 C1351 1.524 . S
C1350 C1364 1.377 . S
C1351 C1350 1.524 . S
C1351 C1352 1.397 . S
C1351 C1356 1.363 . S
C1352 H1329 0.950 . S
C1352 C1351 1.397 . S
C1352 C1353 1.334 . S
C1353 H1330 0.950 . S
C1353 C1352 1.334 . S
C1353 C1354 1.287 . S
C1354 C1353 1.287 . S
C1354 C1355 1.524 . S
C1354 H1373 0.913 . S
C1355 H1331 0.950 . S
C1355 C1354 1.524 . S
C1355 C1356 1.415 . S
C1356 H1332 0.950 . S
C1356 C1351 1.363 . S
C1356 C1355 1.415 . S
C1357 H1333 0.951 . S
C1357 C1358 1.366 . S
C1357 C1359 1.388 . S
C1358 C1357 1.366 . S
C1358 C1362 1.385 . S
C1359 H1334 0.951 . S
C1359 C1357 1.388 . S
C1359 C1360 1.366 . S
C1360 C1359 1.366 . S
C1360 C1361 1.414 . S
C1360 C1363 1.499 . S
C1361 H1335 0.950 . S
C1361 C1360 1.414 . S
C1361 C1362 1.374 . S
C1362 H1336 0.950 . S
C1362 C1358 1.385 . S
C1362 C1361 1.374 . S
C1363 C1360 1.499 . S
C1363 C1364 1.373 . S
C1363 C1365 1.389 . S
C1364 H1337 0.950 . S
C1364 C1350 1.377 . S
C1364 C1363 1.373 . S
C1365 C1349 1.377 . S
C1365 C1363 1.389 . S
C1365 C1366 1.524 . S
C1366 C1365 1.524 . S
C1366 C1367 1.397 . S
C1366 C1371 1.363 . S
C1367 H1338 0.950 . S
C1367 C1366 1.397 . S
C1367 C1368 1.334 . S
C1368 H1339 0.950 . S
C1368 C1367 1.334 . S
C1368 C1369 1.287 . S
C1369 C1368 1.287 . S
C1369 C1370 1.524 . S
C1369 H1372 0.999 . S
C1370 H1340 0.950 . S
C1370 C1369 1.524 . S
C1370 C1371 1.415 . S
C1371 H1341 0.950 . S
C1371 C1366 1.363 . S
C1371 C1370 1.415 . S
H1372 C1369 0.999 . S
H1373 C1354 0.913 . S
H1374 C1392 0.951 . S
H1375 C1394 0.951 . S
H1376 C1396 0.950 . S
H1377 C1397 0.950 . S
H1378 C1399 0.950 . S
H1379 C1402 0.950 . S
H1380 C1403 0.950 . S
H1381 C1405 0.950 . S
H1382 C1406 0.950 . S
H1383 C1407 0.951 . S
H1384 C1409 0.951 . S
H1385 C1411 0.950 . S
H1386 C1412 0.950 . S
H1387 C1414 0.950 . S
H1388 C1417 0.950 . S
H1389 C1418 0.950 . S
H1390 C1420 0.950 . S
H1391 C1421 0.950 . S
C1392 H1374 0.951 . S
C1392 C1393 1.366 . S
C1392 C1394 1.388 . S
C1393 C1392 1.366 . S
C1393 C1397 1.385 . S
C1394 H1375 0.951 . S
C1394 C1392 1.388 . S
C1394 C1395 1.366 . S
C1395 C1394 1.366 . S
C1395 C1396 1.414 . S
C1395 C1398 1.499 . S
C1396 H1376 0.950 . S
C1396 C1395 1.414 . S
C1396 C1397 1.374 . S
C1397 H1377 0.950 . S
C1397 C1393 1.385 . S
C1397 C1396 1.374 . S
C1398 C1395 1.499 . S
C1398 C1399 1.373 . S
C1398 C1400 1.389 . S
C1399 H1378 0.950 . S
C1399 C1398 1.373 . S
C1399 C1415 1.377 . S
C1400 C1398 1.389 . S
C1400 C1401 1.524 . S
C1400 C1414 1.377 . S
C1401 C1400 1.524 . S
C1401 C1402 1.397 . S
C1401 C1406 1.363 . S
C1402 H1379 0.950 . S
C1402 C1401 1.397 . S
C1402 C1403 1.334 . S
C1403 H1380 0.950 . S
C1403 C1402 1.334 . S
C1403 C1404 1.287 . S
C1404 C1403 1.287 . S
C1404 C1405 1.524 . S
C1404 H1423 0.913 . S
C1405 H1381 0.950 . S
C1405 C1404 1.524 . S
C1405 C1406 1.415 . S
C1406 H1382 0.950 . S
C1406 C1401 1.363 . S
C1406 C1405 1.415 . S
C1407 H1383 0.951 . S
C1407 C1408 1.366 . S
C1407 C1409 1.388 . S
C1408 C1407 1.366 . S
C1408 C1412 1.385 . S
C1409 H1384 0.951 . S
C1409 C1407 1.388 . S
C1409 C1410 1.366 . S
C1410 C1409 1.366 . S
C1410 C1411 1.414 . S
C1410 C1413 1.499 . S
C1411 H1385 0.950 . S
C1411 C1410 1.414 . S
C1411 C1412 1.374 . S
C1412 H1386 0.950 . S
C1412 C1408 1.385 . S
C1412 C1411 1.374 . S
C1413 C1410 1.499 . S
C1413 C1414 1.373 . S
C1413 C1415 1.389 . S
C1414 H1387 0.950 . S
C1414 C1400 1.377 . S
C1414 C1413 1.373 . S
C1415 C1399 1.377 . S
C1415 C1413 1.389 . S
C1415 C1416 1.524 . S
C1416 C1415 1.524 . S
C1416 C1417 1.397 . S
C1416 C1421 1.363 . S
C1417 H1388 0.950 . S
C1417 C1416 1.397 . S
C1417 C1418 1.334 . S
C1418 H1389 0.950 . S
C1418 C1417 1.334 . S
C1418 C1419 1.287 . S
C1419 C1418 1.287 . S
C1419 C1420 1.524 . S
C1419 H1422 0.999 . S
C1420 H1390 0.950 . S
C1420 C1419 1.524 . S
C1420 C1421 1.415 . S
C1421 H1391 0.950 . S
C1421 C1416 1.363 . S
C1421 C1420 1.415 . S
H1422 C1419 0.999 . S
H1423 C1404 0.913 . S
H1424 C1442 0.951 . S
H1425 C1444 0.951 . S
H1426 C1446 0.950 . S
H1427 C1447 0.950 . S
H1428 C1449 0.950 . S
H1429 C1452 0.950 . S
H1430 C1453 0.950 . S
H1431 C1455 0.950 . S
H1432 C1456 0.950 . S
H1433 C1457 0.951 . S
H1434 C1459 0.951 . S
H1435 C1461 0.950 . S
H1436 C1462 0.950 . S
H1437 C1464 0.950 . S
H1438 C1467 0.950 . S
H1439 C1468 0.950 . S
H1440 C1470 0.950 . S
H1441 C1471 0.950 . S
C1442 H1424 0.951 . S
C1442 C1443 1.366 . S
C1442 C1444 1.388 . S
C1443 C1442 1.366 . S
C1443 C1447 1.385 . S
C1444 H1425 0.951 . S
C1444 C1442 1.388 . S
C1444 C1445 1.366 . S
C1445 C1444 1.366 . S
C1445 C1446 1.414 . S
C1445 C1448 1.499 . S
C1446 H1426 0.950 . S
C1446 C1445 1.414 . S
C1446 C1447 1.374 . S
C1447 H1427 0.950 . S
C1447 C1443 1.385 . S
C1447 C1446 1.374 . S
C1448 C1445 1.499 . S
C1448 C1449 1.373 . S
C1448 C1450 1.389 . S
C1449 H1428 0.950 . S
C1449 C1448 1.373 . S
C1449 C1465 1.377 . S
C1450 C1448 1.389 . S
C1450 C1451 1.524 . S
C1450 C1464 1.377 . S
C1451 C1450 1.524 . S
C1451 C1452 1.397 . S
C1451 C1456 1.363 . S
C1452 H1429 0.950 . S
C1452 C1451 1.397 . S
C1452 C1453 1.334 . S
C1453 H1430 0.950 . S
C1453 C1452 1.334 . S
C1453 C1454 1.287 . S
C1454 C1453 1.287 . S
C1454 C1455 1.524 . S
C1454 H1473 0.913 . S
C1455 H1431 0.950 . S
C1455 C1454 1.524 . S
C1455 C1456 1.415 . S
C1456 H1432 0.950 . S
C1456 C1451 1.363 . S
C1456 C1455 1.415 . S
C1457 H1433 0.951 . S
C1457 C1458 1.366 . S
C1457 C1459 1.388 . S
C1458 C1457 1.366 . S
C1458 C1462 1.385 . S
C1459 H1434 0.951 . S
C1459 C1457 1.388 . S
C1459 C1460 1.366 . S
C1460 C1459 1.366 . S
C1460 C1461 1.414 . S
C1460 C1463 1.499 . S
C1461 H1435 0.950 . S
C1461 C1460 1.414 . S
C1461 C1462 1.374 . S
C1462 H1436 0.950 . S
C1462 C1458 1.385 . S
C1462 C1461 1.374 . S
C1463 C1460 1.499 . S
C1463 C1464 1.373 . S
C1463 C1465 1.389 . S
C1464 H1437 0.950 . S
C1464 C1450 1.377 . S
C1464 C1463 1.373 . S
C1465 C1449 1.377 . S
C1465 C1463 1.389 . S
C1465 C1466 1.524 . S
C1466 C1465 1.524 . S
C1466 C1467 1.397 . S
C1466 C1471 1.363 . S
C1467 H1438 0.950 . S
C1467 C1466 1.397 . S
C1467 C1468 1.334 . S
C1468 H1439 0.950 . S
C1468 C1467 1.334 . S
C1468 C1469 1.287 . S
C1469 C1468 1.287 . S
C1469 C1470 1.524 . S
C1469 H1472 0.999 . S
C1470 H1440 0.950 . S
C1470 C1469 1.524 . S
C1470 C1471 1.415 . S
C1471 H1441 0.950 . S
C1471 C1466 1.363 . S
C1471 C1470 1.415 . S
H1472 C1469 0.999 . S
H1473 C1454 0.913 . S
H1474 C1492 0.951 . S
H1475 C1494 0.951 . S
H1476 C1496 0.950 . S
H1477 C1497 0.950 . S
H1478 C1499 0.950 . S
H1479 C1502 0.950 . S
H1480 C1503 0.950 . S
H1481 C1505 0.950 . S
H1482 C1506 0.950 . S
H1483 C1507 0.951 . S
H1484 C1509 0.951 . S
H1485 C1511 0.950 . S
H1486 C1512 0.950 . S
H1487 C1514 0.950 . S
H1488 C1517 0.950 . S
H1489 C1518 0.950 . S
H1490 C1520 0.950 . S
H1491 C1521 0.950 . S
C1492 H1474 0.951 . S
C1492 C1493 1.366 . S
C1492 C1494 1.388 . S
C1493 C1492 1.366 . S
C1493 C1497 1.385 . S
C1494 H1475 0.951 . S
C1494 C1492 1.388 . S
C1494 C1495 1.366 . S
C1495 C1494 1.366 . S
C1495 C1496 1.414 . S
C1495 C1498 1.499 . S
C1496 H1476 0.950 . S
C1496 C1495 1.414 . S
C1496 C1497 1.374 . S
C1497 H1477 0.950 . S
C1497 C1493 1.385 . S
C1497 C1496 1.374 . S
C1498 C1495 1.499 . S
C1498 C1499 1.373 . S
C1498 C1500 1.389 . S
C1499 H1478 0.950 . S
C1499 C1498 1.373 . S
C1499 C1515 1.377 . S
C1500 C1498 1.389 . S
C1500 C1501 1.524 . S
C1500 C1514 1.377 . S
C1501 C1500 1.524 . S
C1501 C1502 1.397 . S
C1501 C1506 1.363 . S
C1502 H1479 0.950 . S
C1502 C1501 1.397 . S
C1502 C1503 1.334 . S
C1503 H1480 0.950 . S
C1503 C1502 1.334 . S
C1503 C1504 1.287 . S
C1504 C1503 1.287 . S
C1504 C1505 1.524 . S
C1504 H1523 0.913 . S
C1505 H1481 0.950 . S
C1505 C1504 1.524 . S
C1505 C1506 1.415 . S
C1506 H1482 0.950 . S
C1506 C1501 1.363 . S
C1506 C1505 1.415 . S
C1507 H1483 0.951 . S
C1507 C1508 1.366 . S
C1507 C1509 1.388 . S
C1508 C1507 1.366 . S
C1508 C1512 1.385 . S
C1509 H1484 0.951 . S
C1509 C1507 1.388 . S
C1509 C1510 1.366 . S
C1510 C1509 1.366 . S
C1510 C1511 1.414 . S
C1510 C1513 1.499 . S
C1511 H1485 0.950 . S
C1511 C1510 1.414 . S
C1511 C1512 1.374 . S
C1512 H1486 0.950 . S
C1512 C1508 1.385 . S
C1512 C1511 1.374 . S
C1513 C1510 1.499 . S
C1513 C1514 1.373 . S
C1513 C1515 1.389 . S
C1514 H1487 0.950 . S
C1514 C1500 1.377 . S
C1514 C1513 1.373 . S
C1515 C1499 1.377 . S
C1515 C1513 1.389 . S
C1515 C1516 1.524 . S
C1516 C1515 1.524 . S
C1516 C1517 1.397 . S
C1516 C1521 1.363 . S
C1517 H1488 0.950 . S
C1517 C1516 1.397 . S
C1517 C1518 1.334 . S
C1518 H1489 0.950 . S
C1518 C1517 1.334 . S
C1518 C1519 1.287 . S
C1519 C1518 1.287 . S
C1519 C1520 1.524 . S
C1519 H1522 0.999 . S
C1520 H1490 0.950 . S
C1520 C1519 1.524 . S
C1520 C1521 1.415 . S
C1521 H1491 0.950 . S
C1521 C1516 1.363 . S
C1521 C1520 1.415 . S
H1522 C1519 0.999 . S
H1523 C1504 0.913 . S
H1524 C1542 0.951 . S
H1525 C1544 0.951 . S
H1526 C1546 0.950 . S
H1527 C1547 0.950 . S
H1528 C1549 0.950 . S
H1529 C1552 0.950 . S
H1530 C1553 0.950 . S
H1531 C1555 0.950 . S
H1532 C1556 0.950 . S
H1533 C1557 0.951 . S
H1534 C1559 0.951 . S
H1535 C1561 0.950 . S
H1536 C1562 0.950 . S
H1537 C1564 0.950 . S
H1538 C1567 0.950 . S
H1539 C1568 0.950 . S
H1540 C1570 0.950 . S
H1541 C1571 0.950 . S
C1542 H1524 0.951 . S
C1542 C1543 1.366 . S
C1542 C1544 1.388 . S
C1543 C1542 1.366 . S
C1543 C1547 1.385 . S
C1544 H1525 0.951 . S
C1544 C1542 1.388 . S
C1544 C1545 1.366 . S
C1545 C1544 1.366 . S
C1545 C1546 1.414 . S
C1545 C1548 1.499 . S
C1546 H1526 0.950 . S
C1546 C1545 1.414 . S
C1546 C1547 1.374 . S
C1547 H1527 0.950 . S
C1547 C1543 1.385 . S
C1547 C1546 1.374 . S
C1548 C1545 1.499 . S
C1548 C1549 1.373 . S
C1548 C1550 1.389 . S
C1549 H1528 0.950 . S
C1549 C1548 1.373 . S
C1549 C1565 1.377 . S
C1550 C1548 1.389 . S
C1550 C1551 1.524 . S
C1550 C1564 1.377 . S
C1551 C1550 1.524 . S
C1551 C1552 1.397 . S
C1551 C1556 1.363 . S
C1552 H1529 0.950 . S
C1552 C1551 1.397 . S
C1552 C1553 1.334 . S
C1553 H1530 0.950 . S
C1553 C1552 1.334 . S
C1553 C1554 1.287 . S
C1554 C1553 1.287 . S
C1554 C1555 1.524 . S
C1554 H1573 0.913 . S
C1555 H1531 0.950 . S
C1555 C1554 1.524 . S
C1555 C1556 1.415 . S
C1556 H1532 0.950 . S
C1556 C1551 1.363 . S
C1556 C1555 1.415 . S
C1557 H1533 0.951 . S
C1557 C1558 1.366 . S
C1557 C1559 1.388 . S
C1558 C1557 1.366 . S
C1558 C1562 1.385 . S
C1559 H1534 0.951 . S
C1559 C1557 1.388 . S
C1559 C1560 1.366 . S
C1560 C1559 1.366 . S
C1560 C1561 1.414 . S
C1560 C1563 1.499 . S
C1561 H1535 0.950 . S
C1561 C1560 1.414 . S
C1561 C1562 1.374 . S
C1562 H1536 0.950 . S
C1562 C1558 1.385 . S
C1562 C1561 1.374 . S
C1563 C1560 1.499 . S
C1563 C1564 1.373 . S
C1563 C1565 1.389 . S
C1564 H1537 0.950 . S
C1564 C1550 1.377 . S
C1564 C1563 1.373 . S
C1565 C1549 1.377 . S
C1565 C1563 1.389 . S
C1565 C1566 1.524 . S
C1566 C1565 1.524 . S
C1566 C1567 1.397 . S
C1566 C1571 1.363 . S
C1567 H1538 0.950 . S
C1567 C1566 1.397 . S
C1567 C1568 1.334 . S
C1568 H1539 0.950 . S
C1568 C1567 1.334 . S
C1568 C1569 1.287 . S
C1569 C1568 1.287 . S
C1569 C1570 1.524 . S
C1569 H1572 0.999 . S
C1570 H1540 0.950 . S
C1570 C1569 1.524 . S
C1570 C1571 1.415 . S
C1571 H1541 0.950 . S
C1571 C1566 1.363 . S
C1571 C1570 1.415 . S
H1572 C1569 0.999 . S
H1573 C1554 0.913 . S
H1574 C1592 0.951 . S
H1575 C1594 0.951 . S
H1576 C1596 0.950 . S
H1577 C1597 0.950 . S
H1578 C1599 0.950 . S
H1579 C1602 0.950 . S
H1580 C1603 0.950 . S
H1581 C1605 0.950 . S
H1582 C1606 0.950 . S
H1583 C1607 0.951 . S
H1584 C1609 0.951 . S
H1585 C1611 0.950 . S
H1586 C1612 0.950 . S
H1587 C1614 0.950 . S
H1588 C1617 0.950 . S
H1589 C1618 0.950 . S
H1590 C1620 0.950 . S
H1591 C1621 0.950 . S
C1592 H1574 0.951 . S
C1592 C1593 1.366 . S
C1592 C1594 1.388 . S
C1593 C1592 1.366 . S
C1593 C1597 1.385 . S
C1594 H1575 0.951 . S
C1594 C1592 1.388 . S
C1594 C1595 1.366 . S
C1595 C1594 1.366 . S
C1595 C1596 1.414 . S
C1595 C1598 1.499 . S
C1596 H1576 0.950 . S
C1596 C1595 1.414 . S
C1596 C1597 1.374 . S
C1597 H1577 0.950 . S
C1597 C1593 1.385 . S
C1597 C1596 1.374 . S
C1598 C1595 1.499 . S
C1598 C1599 1.373 . S
C1598 C1600 1.389 . S
C1599 H1578 0.950 . S
C1599 C1598 1.373 . S
C1599 C1615 1.377 . S
C1600 C1598 1.389 . S
C1600 C1601 1.524 . S
C1600 C1614 1.377 . S
C1601 C1600 1.524 . S
C1601 C1602 1.397 . S
C1601 C1606 1.363 . S
C1602 H1579 0.950 . S
C1602 C1601 1.397 . S
C1602 C1603 1.334 . S
C1603 H1580 0.950 . S
C1603 C1602 1.334 . S
C1603 C1604 1.287 . S
C1604 C1603 1.287 . S
C1604 C1605 1.524 . S
C1604 H1623 0.913 . S
C1605 H1581 0.950 . S
C1605 C1604 1.524 . S
C1605 C1606 1.415 . S
C1606 H1582 0.950 . S
C1606 C1601 1.363 . S
C1606 C1605 1.415 . S
C1607 H1583 0.951 . S
C1607 C1608 1.366 . S
C1607 C1609 1.388 . S
C1608 C1607 1.366 . S
C1608 C1612 1.385 . S
C1609 H1584 0.951 . S
C1609 C1607 1.388 . S
C1609 C1610 1.366 . S
C1610 C1609 1.366 . S
C1610 C1611 1.414 . S
C1610 C1613 1.499 . S
C1611 H1585 0.950 . S
C1611 C1610 1.414 . S
C1611 C1612 1.374 . S
C1612 H1586 0.950 . S
C1612 C1608 1.385 . S
C1612 C1611 1.374 . S
C1613 C1610 1.499 . S
C1613 C1614 1.373 . S
C1613 C1615 1.389 . S
C1614 H1587 0.950 . S
C1614 C1600 1.377 . S
C1614 C1613 1.373 . S
C1615 C1599 1.377 . S
C1615 C1613 1.389 . S
C1615 C1616 1.524 . S
C1616 C1615 1.524 . S
C1616 C1617 1.397 . S
C1616 C1621 1.363 . S
C1617 H1588 0.950 . S
C1617 C1616 1.397 . S
C1617 C1618 1.334 . S
C1618 H1589 0.950 . S
C1618 C1617 1.334 . S
C1618 C1619 1.287 . S
C1619 C1618 1.287 . S
C1619 C1620 1.524 . S
C1619 H1622 0.999 . S
C1620 H1590 0.950 . S
C1620 C1619 1.524 . S
C1620 C1621 1.415 . S
C1621 H1591 0.950 . S
C1621 C1616 1.363 . S
C1621 C1620 1.415 . S
H1622 C1619 0.999 . S
H1623 C1604 0.913 . S
H1624 C1642 0.951 . S
H1625 C1644 0.951 . S
H1626 C1646 0.950 . S
H1627 C1647 0.950 . S
H1628 C1649 0.950 . S
H1629 C1652 0.950 . S
H1630 C1653 0.950 . S
H1631 C1655 0.950 . S
H1632 C1656 0.950 . S
H1633 C1657 0.951 . S
H1634 C1659 0.951 . S
H1635 C1661 0.950 . S
H1636 C1662 0.950 . S
H1637 C1664 0.950 . S
H1638 C1667 0.950 . S
H1639 C1668 0.950 . S
H1640 C1670 0.950 . S
H1641 C1671 0.950 . S
C1642 H1624 0.951 . S
C1642 C1643 1.366 . S
C1642 C1644 1.388 . S
C1643 C1642 1.366 . S
C1643 C1647 1.385 . S
C1644 H1625 0.951 . S
C1644 C1642 1.388 . S
C1644 C1645 1.366 . S
C1645 C1644 1.366 . S
C1645 C1646 1.414 . S
C1645 C1648 1.499 . S
C1646 H1626 0.950 . S
C1646 C1645 1.414 . S
C1646 C1647 1.374 . S
C1647 H1627 0.950 . S
C1647 C1643 1.385 . S
C1647 C1646 1.374 . S
C1648 C1645 1.499 . S
C1648 C1649 1.373 . S
C1648 C1650 1.389 . S
C1649 H1628 0.950 . S
C1649 C1648 1.373 . S
C1649 C1665 1.377 . S
C1650 C1648 1.389 . S
C1650 C1651 1.524 . S
C1650 C1664 1.377 . S
C1651 C1650 1.524 . S
C1651 C1652 1.397 . S
C1651 C1656 1.363 . S
C1652 H1629 0.950 . S
C1652 C1651 1.397 . S
C1652 C1653 1.334 . S
C1653 H1630 0.950 . S
C1653 C1652 1.334 . S
C1653 C1654 1.287 . S
C1654 C1653 1.287 . S
C1654 C1655 1.524 . S
C1654 H1673 0.913 . S
C1655 H1631 0.950 . S
C1655 C1654 1.524 . S
C1655 C1656 1.415 . S
C1656 H1632 0.950 . S
C1656 C1651 1.363 . S
C1656 C1655 1.415 . S
C1657 H1633 0.951 . S
C1657 C1658 1.366 . S
C1657 C1659 1.388 . S
C1658 C1657 1.366 . S
C1658 C1662 1.385 . S
C1659 H1634 0.951 . S
C1659 C1657 1.388 . S
C1659 C1660 1.366 . S
C1660 C1659 1.366 . S
C1660 C1661 1.414 . S
C1660 C1663 1.499 . S
C1661 H1635 0.950 . S
C1661 C1660 1.414 . S
C1661 C1662 1.374 . S
C1662 H1636 0.950 . S
C1662 C1658 1.385 . S
C1662 C1661 1.374 . S
C1663 C1660 1.499 . S
C1663 C1664 1.373 . S
C1663 C1665 1.389 . S
C1664 H1637 0.950 . S
C1664 C1650 1.377 . S
C1664 C1663 1.373 . S
C1665 C1649 1.377 . S
C1665 C1663 1.389 . S
C1665 C1666 1.524 . S
C1666 C1665 1.524 . S
C1666 C1667 1.397 . S
C1666 C1671 1.363 . S
C1667 H1638 0.950 . S
C1667 C1666 1.397 . S
C1667 C1668 1.334 . S
C1668 H1639 0.950 . S
C1668 C1667 1.334 . S
C1668 C1669 1.287 . S
C1669 C1668 1.287 . S
C1669 C1670 1.524 . S
C1669 H1672 0.999 . S
C1670 H1640 0.950 . S
C1670 C1669 1.524 . S
C1670 C1671 1.415 . S
C1671 H1641 0.950 . S
C1671 C1666 1.363 . S
C1671 C1670 1.415 . S
H1672 C1669 0.999 . S
H1673 C1654 0.913 . S
H1674 C1692 0.951 . S
H1675 C1694 0.951 . S
H1676 C1696 0.950 . S
H1677 C1697 0.950 . S
H1678 C1699 0.950 . S
H1679 C1702 0.950 . S
H1680 C1703 0.950 . S
H1681 C1705 0.950 . S
H1682 C1706 0.950 . S
H1683 C1707 0.951 . S
H1684 C1709 0.951 . S
H1685 C1711 0.950 . S
H1686 C1712 0.950 . S
H1687 C1714 0.950 . S
H1688 C1717 0.950 . S
H1689 C1718 0.950 . S
H1690 C1720 0.950 . S
H1691 C1721 0.950 . S
C1692 H1674 0.951 . S
C1692 C1693 1.366 . S
C1692 C1694 1.388 . S
C1693 C1692 1.366 . S
C1693 C1697 1.385 . S
C1694 H1675 0.951 . S
C1694 C1692 1.388 . S
C1694 C1695 1.366 . S
C1695 C1694 1.366 . S
C1695 C1696 1.414 . S
C1695 C1698 1.499 . S
C1696 H1676 0.950 . S
C1696 C1695 1.414 . S
C1696 C1697 1.374 . S
C1697 H1677 0.950 . S
C1697 C1693 1.385 . S
C1697 C1696 1.374 . S
C1698 C1695 1.499 . S
C1698 C1699 1.373 . S
C1698 C1700 1.389 . S
C1699 H1678 0.950 . S
C1699 C1698 1.373 . S
C1699 C1715 1.377 . S
C1700 C1698 1.389 . S
C1700 C1701 1.524 . S
C1700 C1714 1.377 . S
C1701 C1700 1.524 . S
C1701 C1702 1.397 . S
C1701 C1706 1.363 . S
C1702 H1679 0.950 . S
C1702 C1701 1.397 . S
C1702 C1703 1.334 . S
C1703 H1680 0.950 . S
C1703 C1702 1.334 . S
C1703 C1704 1.287 . S
C1704 C1703 1.287 . S
C1704 C1705 1.524 . S
C1704 H1723 0.913 . S
C1705 H1681 0.950 . S
C1705 C1704 1.524 . S
C1705 C1706 1.415 . S
C1706 H1682 0.950 . S
C1706 C1701 1.363 . S
C1706 C1705 1.415 . S
C1707 H1683 0.951 . S
C1707 C1708 1.366 . S
C1707 C1709 1.388 . S
C1708 C1707 1.366 . S
C1708 C1712 1.385 . S
C1709 H1684 0.951 . S
C1709 C1707 1.388 . S
C1709 C1710 1.366 . S
C1710 C1709 1.366 . S
C1710 C1711 1.414 . S
C1710 C1713 1.499 . S
C1711 H1685 0.950 . S
C1711 C1710 1.414 . S
C1711 C1712 1.374 . S
C1712 H1686 0.950 . S
C1712 C1708 1.385 . S
C1712 C1711 1.374 . S
C1713 C1710 1.499 . S
C1713 C1714 1.373 . S
C1713 C1715 1.389 . S
C1714 H1687 0.950 . S
C1714 C1700 1.377 . S
C1714 C1713 1.373 . S
C1715 C1699 1.377 . S
C1715 C1713 1.389 . S
C1715 C1716 1.524 . S
C1716 C1715 1.524 . S
C1716 C1717 1.397 . S
C1716 C1721 1.363 . S
C1717 H1688 0.950 . S
C1717 C1716 1.397 . S
C1717 C1718 1.334 . S
C1718 H1689 0.950 . S
C1718 C1717 1.334 . S
C1718 C1719 1.287 . S
C1719 C1718 1.287 . S
C1719 C1720 1.524 . S
C1719 H1722 0.999 . S
C1720 H1690 0.950 . S
C1720 C1719 1.524 . S
C1720 C1721 1.415 . S
C1721 H1691 0.950 . S
C1721 C1716 1.363 . S
C1721 C1720 1.415 . S
H1722 C1719 0.999 . S
H1723 C1704 0.913 . S
H1724 C1742 0.951 . S
H1725 C1744 0.951 . S
H1726 C1746 0.950 . S
H1727 C1747 0.950 . S
H1728 C1749 0.950 . S
H1729 C1752 0.950 . S
H1730 C1753 0.950 . S
H1731 C1755 0.950 . S
H1732 C1756 0.950 . S
H1733 C1757 0.951 . S
H1734 C1759 0.951 . S
H1735 C1761 0.950 . S
H1736 C1762 0.950 . S
H1737 C1764 0.950 . S
H1738 C1767 0.950 . S
H1739 C1768 0.950 . S
H1740 C1770 0.950 . S
H1741 C1771 0.950 . S
C1742 H1724 0.951 . S
C1742 C1743 1.366 . S
C1742 C1744 1.388 . S
C1743 C1742 1.366 . S
C1743 C1747 1.385 . S
C1744 H1725 0.951 . S
C1744 C1742 1.388 . S
C1744 C1745 1.366 . S
C1745 C1744 1.366 . S
C1745 C1746 1.414 . S
C1745 C1748 1.499 . S
C1746 H1726 0.950 . S
C1746 C1745 1.414 . S
C1746 C1747 1.374 . S
C1747 H1727 0.950 . S
C1747 C1743 1.385 . S
C1747 C1746 1.374 . S
C1748 C1745 1.499 . S
C1748 C1749 1.373 . S
C1748 C1750 1.389 . S
C1749 H1728 0.950 . S
C1749 C1748 1.373 . S
C1749 C1765 1.377 . S
C1750 C1748 1.389 . S
C1750 C1751 1.524 . S
C1750 C1764 1.377 . S
C1751 C1750 1.524 . S
C1751 C1752 1.397 . S
C1751 C1756 1.363 . S
C1752 H1729 0.950 . S
C1752 C1751 1.397 . S
C1752 C1753 1.334 . S
C1753 H1730 0.950 . S
C1753 C1752 1.334 . S
C1753 C1754 1.287 . S
C1754 C1753 1.287 . S
C1754 C1755 1.524 . S
C1754 H1773 0.913 . S
C1755 H1731 0.950 . S
C1755 C1754 1.524 . S
C1755 C1756 1.415 . S
C1756 H1732 0.950 . S
C1756 C1751 1.363 . S
C1756 C1755 1.415 . S
C1757 H1733 0.951 . S
C1757 C1758 1.366 . S
C1757 C1759 1.388 . S
C1758 C1757 1.366 . S
C1758 C1762 1.385 . S
C1759 H1734 0.951 . S
C1759 C1757 1.388 . S
C1759 C1760 1.366 . S
C1760 C1759 1.366 . S
C1760 C1761 1.414 . S
C1760 C1763 1.499 . S
C1761 H1735 0.950 . S
C1761 C1760 1.414 . S
C1761 C1762 1.374 . S
C1762 H1736 0.950 . S
C1762 C1758 1.385 . S
C1762 C1761 1.374 . S
C1763 C1760 1.499 . S
C1763 C1764 1.373 . S
C1763 C1765 1.389 . S
C1764 H1737 0.950 . S
C1764 C1750 1.377 . S
C1764 C1763 1.373 . S
C1765 C1749 1.377 . S
C1765 C1763 1.389 . S
C1765 C1766 1.524 . S
C1766 C1765 1.524 . S
C1766 C1767 1.397 . S
C1766 C1771 1.363 . S
C1767 H1738 0.950 . S
C1767 C1766 1.397 . S
C1767 C1768 1.334 . S
C1768 H1739 0.950 . S
C1768 C1767 1.334 . S
C1768 C1769 1.287 . S
C1769 C1768 1.287 . S
C1769 C1770 1.524 . S
C1769 H1772 0.999 . S
C1770 H1740 0.950 . S
C1770 C1769 1.524 . S
C1770 C1771 1.415 . S
C1771 H1741 0.950 . S
C1771 C1766 1.363 . S
C1771 C1770 1.415 . S
H1772 C1769 0.999 . S
H1773 C1754 0.913 . S
C608 C278 1.554 . S
C593 C23 1.538 . S
C658 C347 1.534 . S
C643 C49 1.518 . S
C708 C285 1.542 . S
C693 C87 1.512 . S
C758 C348 1.550 . S
C743 C125 1.513 . S
C808 C401 1.557 . S
C793 C29 1.542 . S
C858 C437 1.516 . S
C843 C61 1.492 . S
C893 C81 1.505 . S
C908 C497 1.540 . S
C958 C560 1.518 . S
C943 C113 1.484 . S
C1008 C400 1.524 . S
C993 C55 1.511 . S
C1043 C93 1.483 . S
C1058 C444 1.528 . S
C1108 C490 1.540 . S
C1093 C119 1.502 . S
C1158 C559 1.531 . S
C1143 C17 1.522 . S
C1193 C151 1.521 . S
C1208 C338 1.554 . S
C1258 C295 1.534 . S
C1243 C177 1.509 . S
C1293 C215 1.525 . S
C1308 C331 1.542 . S
C1343 C253 1.525 . S
C1358 C294 1.550 . S
C1408 C506 1.558 . S
C1393 C157 1.506 . S
C1458 C550 1.516 . S
C1443 C189 1.474 . S
C1508 C384 1.540 . S
C1493 C209 1.532 . S
C1543 C241 1.502 . S
C1558 C453 1.518 . S
C1608 C507 1.524 . S
C1593 C183 1.490 . S
C1658 C543 1.528 . S
C1643 C221 1.510 . S
C1708 C391 1.540 . S
C1693 C247 1.527 . S
C1743 C145 1.494 . S
C1758 C454 1.532 . S
