# Generated by pormake.
# Topology rtl, (3,6)-cn, num edge types: 1
# Building blocks:
#     Node 0, Type 0, BuildingBlock: QEWDON_clean_linker_0, # of connection points: 3
#     Node 1, Type 0, BuildingBlock: QEWDON_clean_linker_0, # of connection points: 3
#     Node 2, Type 0, BuildingBlock: QEWDON_clean_linker_0, # of connection points: 3
#     Node 3, Type 0, BuildingBlock: QEWDON_clean_linker_0, # of connection points: 3
#     Node 4, Type 1, BuildingBlock: KUMBOL_clean_sbu_1, # of connection points: 6
#     Node 5, Type 1, BuildingBlock: KUMBOL_clean_sbu_1, # of connection points: 6
#     Edge 6, Type (0, 1), BuildingBlock: XIVTED_clean_linker_0, # of connection points: 2
#     Edge 7, Type (0, 1), BuildingBlock: XIVTED_clean_linker_0, # of connection points: 2
#     Edge 8, Type (0, 1), BuildingBlock: XIVTED_clean_linker_0, # of connection points: 2
#     Edge 9, Type (0, 1), BuildingBlock: XIVTED_clean_linker_0, # of connection points: 2
#     Edge 10, Type (0, 1), BuildingBlock: XIVTED_clean_linker_0, # of connection points: 2
#     Edge 11, Type (0, 1), BuildingBlock: XIVTED_clean_linker_0, # of connection points: 2
#     Edge 12, Type (0, 1), BuildingBlock: XIVTED_clean_linker_0, # of connection points: 2
#     Edge 13, Type (0, 1), BuildingBlock: XIVTED_clean_linker_0, # of connection points: 2
#     Edge 14, Type (0, 1), BuildingBlock: XIVTED_clean_linker_0, # of connection points: 2
#     Edge 15, Type (0, 1), BuildingBlock: XIVTED_clean_linker_0, # of connection points: 2
#     Edge 16, Type (0, 1), BuildingBlock: XIVTED_clean_linker_0, # of connection points: 2
#     Edge 17, Type (0, 1), BuildingBlock: XIVTED_clean_linker_0, # of connection points: 2
# Relax obj value: 0.085
# Max RMSD: 0.274
# Mean RMSD: 0.210
data_MOF--net-rtl--node1-KUMBOL_clean_sbu_1--node2-QEWDON_clean_linker_0--edge1-XIVTED_clean_linker_0
_symmetry_space_group_name_H-M    P1
_symmetry_Int_Tables_number       1
_symmetry_cell_setting            triclinic
loop_
_symmetry_equiv_pos_as_xyz
'x, y, z'
_cell_length_a     37.82723
_cell_length_b     37.607889
_cell_length_c     26.765363
_cell_angle_alpha  78.982773
_cell_angle_beta   100.64756
_cell_angle_gamma 91.341859
loop_
_atom_site_label
_atom_site_type_symbol
_atom_site_fract_x
_atom_site_fract_y
_atom_site_fract_z
_atom_type_partial_charge
H0 H 0.23851 0.84245 0.10971 0.0
C1 C 0.22701 0.85303 0.06955 0.0
C2 C 0.19312 0.87043 0.05681 0.0
C3 C 0.24653 0.8495 0.03071 0.0
H4 H 0.15403 0.8997 0.99405 0.0
C5 C 0.17944 0.88495 1.00458 0.0
C6 C 0.19849 0.8815 0.96551 0.0
C7 C 0.23183 0.8632 0.97854 0.0
C8 C 0.28434 0.83659 0.0458 0.0
H9 H 0.24713 0.86146 0.94859 0.0
C10 C 0.2953 0.80294 0.03729 0.0
C11 C 0.33123 0.79078 0.0557 0.0
C12 C 0.30963 0.85825 0.07101 0.0
H13 H 0.30168 0.88418 0.07775 0.0
C14 C 0.34529 0.84673 0.08783 0.0
H15 H 0.2758 0.78583 0.01853 0.0
C16 C 0.35601 0.81319 0.08057 0.0
H17 H 0.38379 0.80459 0.09468 0.0
H18 H 0.36461 0.86366 0.10717 0.0
H19 H 0.73821 0.70429 0.5976 0.0
C20 C 0.72299 0.69666 0.62848 0.0
C21 C 0.68877 0.68096 0.61833 0.0
C22 C 0.73833 0.70097 0.67908 0.0
H23 H 0.64398 0.65754 0.6526 0.0
C24 C 0.66972 0.6708 0.65921 0.0
C25 C 0.68464 0.67483 0.70968 0.0
C26 C 0.71893 0.68977 0.71943 0.0
C27 C 0.77581 0.71397 0.69152 0.0
H28 H 0.73063 0.69243 0.75868 0.0
C29 C 0.78757 0.74681 0.66439 0.0
C30 C 0.82249 0.75954 0.68034 0.0
C31 C 0.79986 0.69356 0.73289 0.0
H32 H 0.79174 0.66805 0.75387 0.0
C33 C 0.83455 0.70575 0.74779 0.0
H34 H 0.7693 0.763 0.63268 0.0
C35 C 0.84572 0.73863 0.72209 0.0
H36 H 0.87268 0.74778 0.73476 0.0
H37 H 0.85275 0.6898 0.77977 0.0
H38 H 0.80005 0.20083 0.13214 0.0
C39 C 0.8154 0.19788 0.10273 0.0
C40 C 0.85076 0.18405 0.11739 0.0
C41 C 0.79945 0.20651 0.05006 0.0
H42 H 0.89647 0.16634 0.09138 0.0
C43 C 0.86997 0.17882 0.07922 0.0
C44 C 0.85461 0.18716 0.02631 0.0
C45 C 0.81928 0.20137 0.01222 0.0
C46 C 0.76087 0.21709 0.0341 0.0
H47 H 0.80681 0.20817 0.97172 0.0
C48 C 0.747 0.24832 0.04623 0.0
C49 C 0.71069 0.2588 0.0269 0.0
C50 C 0.73783 0.19592 1.00453 0.0
H51 H 0.74783 0.17171 0.99512 0.0
C52 C 0.70176 0.20568 0.98678 0.0
H53 H 0.76464 0.26514 0.06841 0.0
C54 C 0.68831 0.237 0.9975 0.0
H55 H 0.6603 0.24437 0.98254 0.0
H56 H 0.68426 0.18914 0.96406 0.0
H57 H 0.32385 0.30342 0.51671 0.0
C58 C 0.33508 0.31826 0.48451 0.0
C59 C 0.34753 0.35378 0.48552 0.0
C60 C 0.33812 0.30141 0.44285 0.0
H61 H 0.37287 0.39963 0.44479 0.0
C62 C 0.36245 0.37263 0.44372 0.0
C63 C 0.36609 0.35611 0.40206 0.0
C64 C 0.35376 0.3206 0.40194 0.0
C65 C 0.32744 0.26296 0.44313 0.0
H66 H 0.35624 0.30788 0.36964 0.0
C67 C 0.29385 0.24982 0.45444 0.0
C68 C 0.28379 0.21382 0.45088 0.0
C69 C 0.35112 0.23921 0.43051 0.0
H70 H 0.37728 0.24826 0.42262 0.0
C71 C 0.3415 0.20353 0.42807 0.0
H72 H 0.27516 0.26779 0.46387 0.0
C73 C 0.30804 0.19097 0.43775 0.0
H74 H 0.3011 0.16317 0.43521 0.0
H75 H 0.35999 0.18557 0.41828 0.0
C76 C 0.9694 0.12906 0.49107 0.0
C77 C 0.90537 0.12345 0.46014 0.0
C78 C 0.9381 0.10907 0.4909 0.0
C79 C 0.90495 0.15747 0.42741 0.0
C80 C 0.96866 0.16402 0.4602 0.0
C81 C 0.93657 0.17765 0.42728 0.0
N82 N 0.99988 0.11535 0.52397 0.0
C83 C 0.02898 0.13706 0.53252 0.0
C84 C 0.99982 0.18484 0.4649 0.0
C85 C 0.02985 0.1716 0.50208 0.0
Gd86 Gd 0.04126 0.98451 0.50269 0.0
Gd87 Gd 0.99593 0.0557 0.5699 0.0
N88 N 0.93949 0.07581 0.5218 0.0
C89 C 0.87402 0.10327 0.46353 0.0
C90 C 0.90884 0.05675 0.52732 0.0
C91 C 0.8757 0.06998 0.49777 0.0
H92 H 0.91019 0.03108 0.55392 0.0
H93 H 0.85151 0.05451 0.50136 0.0
H94 H 0.10987 0.02904 0.45407 0.0
H95 H 0.05146 0.12815 0.56331 0.0
H96 H 0.17578 0.03271 0.47894 0.0
H97 H 0.84834 0.11338 0.44051 0.0
H98 H 0.8802 0.16871 0.40278 0.0
H99 H 0.01812 0.9035 0.56002 0.0
H100 H 1.00038 0.2118 0.44183 0.0
H101 H 0.05343 0.18823 0.50801 0.0
H102 H 0.2064 0.93317 0.62163 0.0
H103 H 0.93564 0.20424 0.40278 0.0
H104 H 0.11187 0.85084 0.65951 0.0
H105 H 0.04669 0.85041 0.62336 0.0
N106 N 0.06656 0.93327 0.56158 0.0
C107 C 0.10263 0.93309 0.57831 0.0
C108 C 0.04659 0.90359 0.57564 0.0
C109 C 0.09949 0.87399 0.6317 0.0
C110 C 0.06268 0.87362 0.61134 0.0
C111 C 0.12007 0.90376 0.61466 0.0
H112 H 0.17133 0.88265 0.66003 0.0
N113 N 0.10462 0.98723 0.51803 0.0
C114 C 0.12225 0.96139 0.55649 0.0
C115 C 0.17932 0.98827 0.54384 0.0
C116 C 0.16005 0.96131 0.57078 0.0
C117 C 0.12356 1.01124 0.48835 0.0
C118 C 0.16102 0.01287 0.50169 0.0
O119 O 0.97014 0.03961 0.49387 0.0
O120 O 0.0169 0.0361 0.45249 0.0
O121 O 0.06296 0.95991 0.4458 0.0
O122 O 1.00576 0.95702 0.45026 0.0
O123 O 0.97385 0.99881 0.5848 0.0
O124 O 0.98594 0.96873 0.52083 0.0
O125 O 0.04146 0.97465 0.58904 0.0
O126 O 0.0497 0.03054 0.61067 0.0
O127 O 0.98087 0.03939 0.6457 0.0
O128 O 0.98432 0.09599 0.61287 0.0
O129 O 0.05708 0.04387 0.486 0.0
O130 O 0.05437 0.065 0.56079 0.0
C131 C 0.98431 0.04732 0.45202 0.0
C132 C 0.9683 0.97242 0.55794 0.0
C133 C 0.02352 0.9263 0.38727 0.0
C134 C 0.0391 0.90352 0.31415 0.0
C135 C 0.98388 0.88455 0.34555 0.0
C136 C 0.99181 0.90599 0.3831 0.0
C137 C 1.00727 0.88324 0.3114 0.0
C138 C 0.04732 0.92481 0.35285 0.0
C139 C 0.03133 0.94812 0.42838 0.0
C140 C 0.17743 0.93344 0.60964 0.0
C141 C 0.15747 0.90463 0.63145 0.0
H142 H 0.20838 0.98922 0.55365 0.0
C143 C 0.05638 0.99555 0.62092 0.0
C144 C 0.06843 0.06542 0.51908 0.0
C145 C 0.99705 0.08011 0.70324 0.0
C146 C 0.99326 0.10256 0.78227 0.0
C147 C 0.05154 0.08919 0.76264 0.0
C148 C 0.03462 0.07876 0.71689 0.0
C149 C 0.03118 0.10134 0.79481 0.0
C150 C 0.9765 0.09144 0.73616 0.0
C151 C 0.97903 0.07247 0.65298 0.0
H152 H 0.95953 0.86878 0.343 0.0
H153 H 0.97321 0.90633 0.40932 0.0
H154 H 1.00052 0.86596 0.28303 0.0
H155 H 0.07167 0.94064 0.35554 0.0
H156 H 0.08061 0.08851 0.77277 0.0
H157 H 0.05082 0.07033 0.69171 0.0
H158 H 0.04542 0.11047 0.82891 0.0
H159 H 0.94745 0.09172 0.72535 0.0
C160 C 0.62454 0.56176 0.05133 0.0
C161 C 0.62009 0.62567 0.01252 0.0
C162 C 0.60558 0.59423 0.03871 0.0
C163 C 0.65332 0.62349 0.99693 0.0
C164 C 0.6588 0.55988 0.03821 0.0
C165 C 0.67261 0.59062 0.00966 0.0
N166 N 0.61051 0.53268 0.07935 0.0
C167 C 0.63133 0.5025 0.10092 0.0
C168 C 0.67868 0.52757 0.05585 0.0
C169 C 0.6652 0.49902 0.08832 0.0
Gd170 Gd 0.47766 0.49728 0.9918 0.0
Gd171 Gd 0.55172 0.54025 0.0939 0.0
N172 N 0.57313 0.59522 0.05314 0.0
C173 C 0.60093 0.65841 1.00346 0.0
C174 C 0.55528 0.62735 0.04721 0.0
C175 C 0.56864 0.65934 0.02157 0.0
H176 H 0.53022 0.62792 0.06103 0.0
H177 H 0.55401 0.68463 0.01567 0.0
H178 H 0.52004 0.42031 0.9848 0.0
H179 H 0.62204 0.48107 0.12826 0.0
H180 H 0.51928 0.35521 0.02165 0.0
H181 H 0.61116 0.68318 0.98342 0.0
H182 H 0.66467 0.6472 0.97598 0.0
H183 H 0.40019 0.5318 1.00378 0.0
H184 H 0.70508 0.52497 0.04658 0.0
H185 H 0.68108 0.47455 0.10428 0.0
H186 H 0.41636 0.34214 0.10463 0.0
H187 H 0.69865 0.58955 0.99859 0.0
H188 H 0.34191 0.44736 0.08411 0.0
H189 H 0.34647 0.51143 0.04172 0.0
N190 N 0.42539 0.47987 0.02496 0.0
C191 C 0.42266 0.44428 0.04578 0.0
C192 C 0.39812 0.50377 0.02191 0.0
C193 C 0.36533 0.45611 0.06726 0.0
C194 C 0.3678 0.49232 0.04337 0.0
C195 C 0.39281 0.4315 0.06831 0.0
H196 H 0.36866 0.38436 0.10858 0.0
N197 N 0.47724 0.43385 0.01974 0.0
C198 C 0.44972 0.42066 0.04388 0.0
C199 C 0.4735 0.35981 0.05749 0.0
C200 C 0.44736 0.38336 0.06403 0.0
C201 C 0.50082 0.41054 0.00923 0.0
C202 C 0.49993 0.37339 0.02904 0.0
O203 O 0.53583 0.56648 0.00909 0.0
O204 O 0.52876 0.51944 0.96616 0.0
O205 O 0.45791 0.47054 0.92697 0.0
O206 O 0.44782 0.52774 0.91962 0.0
O207 O 0.49495 0.5628 0.07934 0.0
O208 O 0.46567 0.55553 0.99708 0.0
O209 O 0.46913 0.49863 0.07321 0.0
O210 O 0.52486 0.48816 0.12418 0.0
O211 O 0.53762 0.56598 0.15353 0.0
O212 O 0.59119 0.54437 0.16296 0.0
O213 O 0.53598 0.47895 1.00539 0.0
O214 O 0.55871 0.48067 0.09103 0.0
C215 C 0.54149 0.55153 0.97095 0.0
C216 C 0.46974 0.57183 0.03753 0.0
C217 C 0.40584 0.4949 0.86824 0.0
C218 C 0.36805 0.47278 0.79611 0.0
C219 C 0.34134 0.5058 0.85001 0.0
C220 C 0.37519 0.50955 0.87974 0.0
C221 C 0.33773 0.48772 0.80835 0.0
C222 C 0.40207 0.47632 0.82664 0.0
C223 C 0.44213 0.49949 0.89775 0.0
C224 C 0.41841 0.37064 0.08843 0.0
C225 C 0.39118 0.39466 0.09054 0.0
H226 H 0.47266 0.33097 0.07237 0.0
C227 C 0.48986 0.48362 0.11671 0.0
C228 C 0.55848 0.46714 0.04902 0.0
C229 C 0.56861 0.54693 0.23881 0.0
C230 C 0.58301 0.55716 0.32764 0.0
C231 C 0.54856 0.50448 0.30788 0.0
C232 C 0.5505 0.51519 0.25554 0.0
C233 C 0.56447 0.52542 0.34373 0.0
C234 C 0.58517 0.56759 0.27496 0.0
C235 C 0.56888 0.56007 0.18361 0.0
H236 H 0.3178 0.51716 0.85908 0.0
H237 H 0.37738 0.52416 0.91127 0.0
H238 H 0.31117 0.48519 0.78592 0.0
H239 H 0.42579 0.46541 0.81728 0.0
H240 H 0.5344 0.48005 0.32064 0.0
H241 H 0.53755 0.49903 0.22811 0.0
H242 H 0.56251 0.51669 0.3841 0.0
H243 H 0.5988 0.59236 0.26184 0.0
H244 H 0.25212 0.21064 0.53634 0.0
H245 H 0.08586 0.09375 0.42499 0.0
H246 H 0.23472 0.183 0.38478 0.0
H247 H 0.11618 0.09754 0.58731 0.0
H248 H 0.13507 0.13454 0.4071 0.0
H249 H 0.19691 0.17799 0.55293 0.0
C250 C 0.23629 0.1983 0.50628 0.0
C251 C 0.24797 0.19937 0.45921 0.0
C252 C 0.13097 0.12659 0.44666 0.0
C253 C 0.1852 0.16194 0.47783 0.0
C254 C 0.10291 0.10316 0.45693 0.0
C255 C 0.09717 0.09177 0.50783 0.0
C256 C 0.15349 0.1391 0.48748 0.0
C257 C 0.11971 0.10553 0.5475 0.0
C258 C 0.20502 0.17943 0.51587 0.0
C259 C 0.22673 0.18262 0.4217 0.0
N260 N 0.14697 0.12835 0.53655 0.0
N261 N 0.19655 0.16457 0.43185 0.0
H262 H 0.36255 0.73868 0.13481 0.0
H263 H 0.4208 0.61006 0.95604 0.0
H264 H 0.32884 0.76039 0.96899 0.0
H265 H 0.46012 0.60068 0.12012 0.0
H266 H 0.38132 0.66047 0.95908 0.0
H267 H 0.39161 0.68276 0.12952 0.0
C268 C 0.36097 0.73134 0.09723 0.0
C269 C 0.34354 0.75426 0.05226 0.0
C270 C 0.39852 0.64716 0.99433 0.0
C271 C 0.37744 0.6903 0.04555 0.0
C272 C 0.42105 0.61839 0.99266 0.0
C273 C 0.4442 0.60125 0.03777 0.0
C274 C 0.39897 0.65857 0.04153 0.0
C275 C 0.44321 0.61318 0.08413 0.0
C276 C 0.37769 0.69945 0.09413 0.0
C277 C 0.34202 0.74335 1.00456 0.0
N278 N 0.42116 0.64097 0.08469 0.0
N279 N 0.35918 0.71229 1.00231 0.0
H280 H 0.83242 0.78146 0.58001 0.0
H281 H 0.93079 0.96472 0.63794 0.0
H282 H 0.84343 0.8172 0.72566 0.0
H283 H 0.94431 0.91578 0.50913 0.0
H284 H 0.88968 0.91636 0.66282 0.0
H285 H 0.8639 0.83623 0.54558 0.0
C286 C 0.84075 0.80127 0.60424 0.0
C287 C 0.83536 0.79497 0.65563 0.0
C288 C 0.9015 0.9163 0.62895 0.0
C289 C 0.87151 0.85722 0.61702 0.0
C290 C 0.92501 0.94399 0.61461 0.0
C291 C 0.94145 0.94433 0.57154 0.0
C292 C 0.89403 0.88866 0.59999 0.0
C293 C 0.93259 0.91662 0.54285 0.0
C294 C 0.85896 0.83229 0.58483 0.0
C295 C 0.84711 0.82114 0.6858 0.0
N296 N 0.90962 0.88989 0.55767 0.0
N297 N 0.86469 0.85099 0.66616 0.0
H298 H 0.70617 0.28133 0.11777 0.0
H299 H 0.5852 0.45493 0.96628 0.0
H300 H 0.68001 0.31386 0.95182 0.0
H301 H 0.59379 0.41626 0.13053 0.0
H302 H 0.62718 0.40773 0.96334 0.0
H303 H 0.67275 0.33481 0.12629 0.0
C304 C 0.69396 0.3001 0.08327 0.0
C305 C 0.69567 0.29323 0.03402 0.0
C306 C 0.6201 0.40948 1.0002 0.0
C307 C 0.65744 0.35396 0.04328 0.0
C308 C 0.59602 0.43649 1.00189 0.0
C309 C 0.58571 0.43941 0.04867 0.0
C310 C 0.63414 0.38483 0.04561 0.0
C311 C 0.60103 0.41494 0.09364 0.0
C312 C 0.67471 0.33039 0.08808 0.0
C313 C 0.67914 0.3181 0.99047 0.0
N314 N 0.62434 0.38848 0.09099 0.0
N315 N 0.66069 0.34716 0.99613 0.0
H316 H 0.21775 0.88553 0.15436 0.0
H317 H 0.01922 0.90459 0.21046 0.0
H318 H 0.12033 0.86481 0.05203 0.0
H319 H 0.11337 0.89942 0.33062 0.0
H320 H 0.05735 0.89636 0.1496 0.0
H321 H 0.1815 0.89519 0.21791 0.0
C322 C 0.18884 0.8827 0.14534 0.0
C323 C 0.17212 0.87457 0.09743 0.0
C324 C 0.0698 0.897 0.18925 0.0
C325 C 0.13052 0.8863 0.1696 0.0
C326 C 0.04798 0.90164 0.22415 0.0
C327 C 0.06299 0.90212 0.27607 0.0
C328 C 0.10715 0.89299 0.20594 0.0
C329 C 0.10062 0.89924 0.29099 0.0
C330 C 0.16818 0.88848 0.18153 0.0
C331 C 0.13447 0.87175 0.08782 0.0
N332 N 0.12144 0.89461 0.25613 0.0
N333 N 0.11506 0.87775 0.12335 0.0
H334 H 0.61735 0.69345 0.71991 0.0
H335 H 0.5967 0.52382 0.93751 0.0
H336 H 0.70742 0.62283 0.79529 0.0
H337 H 0.5362 0.62223 0.92181 0.0
H338 H 0.63397 0.55622 0.87772 0.0
H339 H 0.5833 0.66492 0.78655 0.0
C340 C 0.63 0.67218 0.75088 0.0
C341 C 0.66521 0.66054 0.75247 0.0
C342 C 0.61252 0.57069 0.88736 0.0
C343 C 0.6263 0.62724 0.82762 0.0
C344 C 0.59111 0.55217 0.92094 0.0
C345 C 0.56331 0.57045 0.934 0.0
C346 C 0.60535 0.60743 0.86564 0.0
C347 C 0.55739 0.60729 0.91236 0.0
C348 C 0.61066 0.65597 0.78878 0.0
C349 C 0.68042 0.63274 0.7931 0.0
N350 N 0.57799 0.62455 0.87871 0.0
N351 N 0.6607 0.61665 0.82872 0.0
H352 H 0.91348 0.207 0.16833 0.0
H353 H 0.01233 0.0986 0.38479 0.0
H354 H 0.82685 0.13271 0.19027 0.0
H355 H 0.91214 0.04915 0.41248 0.0
H356 H 0.98041 0.13754 0.30742 0.0
H357 H 0.94658 0.17931 0.25323 0.0
C358 C 0.90141 0.18491 0.19153 0.0
C359 C 0.86758 0.17195 0.17239 0.0
C360 C 0.9649 0.11895 0.33054 0.0
C361 C 0.90625 0.13817 0.26864 0.0
C362 C 0.98341 0.09619 0.37448 0.0
C363 C 0.96475 0.07088 0.40505 0.0
C364 C 0.92727 0.11632 0.31682 0.0
C365 C 0.92738 0.0687 0.39009 0.0
C366 C 0.92059 0.16854 0.23981 0.0
C367 C 0.85289 0.14349 0.20387 0.0
N368 N 0.90986 0.09106 0.34692 0.0
N369 N 0.87253 0.12722 0.2502 0.0
H370 H 0.32604 0.42255 0.48755 0.0
H371 H 0.39858 0.40833 0.79098 0.0
H372 H 0.36921 0.32356 0.58807 0.0
H373 H 0.32878 0.49491 0.69853 0.0
H374 H 0.39183 0.37845 0.71601 0.0
H375 H 0.33 0.45105 0.56338 0.0
C376 C 0.33622 0.40678 0.52563 0.0
C377 C 0.34726 0.3706 0.53149 0.0
C378 C 0.37789 0.40392 0.7122 0.0
C379 C 0.3522 0.40315 0.61848 0.0
C380 C 0.38193 0.4211 0.75487 0.0
C381 C 0.36419 0.45416 0.75106 0.0
C382 C 0.35636 0.42014 0.66508 0.0
C383 C 0.34266 0.46929 0.70339 0.0
C384 C 0.33838 0.42302 0.56891 0.0
C385 C 0.36005 0.35139 0.58181 0.0
N386 N 0.33952 0.4523 0.66226 0.0
N387 N 0.36245 0.36796 0.62329 0.0
H388 H 0.61874 0.68631 0.56661 0.0
H389 H 0.65121 0.5846 0.342 0.0
H390 H 0.72454 0.65317 0.5532 0.0
H391 H 0.5516 0.58132 0.39917 0.0
H392 H 0.67771 0.62065 0.40687 0.0
H393 H 0.59307 0.65978 0.49166 0.0
C394 C 0.63666 0.67378 0.54764 0.0
C395 C 0.67387 0.67146 0.56698 0.0
C396 C 0.65002 0.61213 0.40498 0.0
C397 C 0.64451 0.64131 0.48059 0.0
C398 C 0.63489 0.5917 0.36798 0.0
C399 C 0.59927 0.57977 0.36556 0.0
C400 C 0.62913 0.62123 0.43907 0.0
C401 C 0.57929 0.58959 0.40018 0.0
C402 C 0.62194 0.65863 0.50484 0.0
C403 C 0.69576 0.6557 0.53976 0.0
N404 N 0.59445 0.6098 0.43538 0.0
N405 N 0.68073 0.64094 0.4982 0.0
H406 H 0.92778 0.19014 0.02784 0.0
H407 H 0.92731 0.13862 0.75512 0.0
H408 H 0.82813 0.16471 0.9339 0.0
H409 H 1.00913 0.09786 0.88846 0.0
H410 H 0.89287 0.16041 0.81222 0.0
H411 H 0.96077 0.16964 0.96821 0.0
C412 C 0.91267 0.18026 0.99489 0.0
C413 C 0.87486 0.1787 0.9868 0.0
C414 C 0.91842 0.14669 0.82864 0.0
C415 C 0.91287 0.15643 0.9172 0.0
C416 C 0.93811 0.13387 0.7962 0.0
C417 C 0.97152 0.11609 0.81653 0.0
C418 C 0.93252 0.14264 0.88165 0.0
C419 C 0.98412 0.112 0.87027 0.0
C420 C 0.93166 0.16875 0.96073 0.0
C421 C 0.8571 0.16684 0.94191 0.0
N422 N 0.9648 0.12541 0.90075 0.0
N423 N 0.87625 0.15621 0.9088 0.0
H424 H 0.35364 0.42536 0.34669 0.0
H425 H 0.51618 0.42612 0.1932 0.0
H426 H 0.41993 0.33083 0.36164 0.0
H427 H 0.42496 0.49888 0.13879 0.0
H428 H 0.48617 0.39468 0.26302 0.0
H429 H 0.38424 0.45669 0.27777 0.0
C430 C 0.37469 0.41125 0.33552 0.0
C431 C 0.38414 0.37539 0.35977 0.0
C432 C 0.47275 0.41751 0.2357 0.0
C433 C 0.41954 0.41117 0.28138 0.0
C434 C 0.48993 0.43553 0.19613 0.0
C435 C 0.4729 0.46495 0.16006 0.0
C436 C 0.43863 0.42948 0.23977 0.0
C437 C 0.43883 0.47603 0.16545 0.0
C438 C 0.39203 0.42906 0.29608 0.0
C439 C 0.41154 0.35834 0.34359 0.0
N440 N 0.4229 0.45843 0.20463 0.0
N441 N 0.42843 0.37643 0.30569 0.0
H442 H 0.18969 0.95352 0.92637 0.0
H443 H 0.05542 0.9258 0.67286 0.0
H444 H 0.17215 0.84888 0.88367 0.0
H445 H 0.10759 0.02784 0.68397 0.0
H446 H 0.09478 0.89757 0.75286 0.0
H447 H 0.15735 0.98208 0.84036 0.0
C448 C 0.17945 0.9367 0.89838 0.0
C449 C 0.18364 0.89893 0.91162 0.0
C450 C 0.09789 0.92606 0.7376 0.0
C451 C 0.14592 0.93111 0.81412 0.0
C452 C 0.07558 0.94214 0.69171 0.0
C453 C 0.07891 0.97895 0.67089 0.0
C454 C 0.12309 0.9472 0.76391 0.0
C455 C 0.10427 0.99928 0.69848 0.0
C456 C 0.16099 0.95293 0.84949 0.0
C457 C 0.16966 0.87813 0.87452 0.0
N458 N 0.12534 0.98316 0.74373 0.0
N459 N 0.15099 0.89447 0.82756 0.0
loop_
_geom_bond_atom_site_label_1
_geom_bond_atom_site_label_2
_geom_bond_distance
_geom_bond_site_symmetry_2
_ccdc_geom_bond_type
H0 C1 0.949 . S
C1 H0 0.949 . S
C1 C2 1.395 . S
C1 C3 1.391 . S
C2 C1 1.395 . S
C2 C5 1.390 . S
C3 C1 1.391 . S
C3 C7 1.387 1_554 S
C3 C8 1.491 . S
H4 C5 0.950 . S
C5 C2 1.390 . S
C5 H4 0.950 . S
C5 C6 1.378 1_554 S
C6 C5 1.378 1_556 S
C6 C7 1.409 . S
C7 C3 1.387 1_556 S
C7 C6 1.409 . S
C7 H9 0.951 . S
C8 C3 1.491 . S
C8 C10 1.382 . S
C8 C12 1.404 1_554 S
H9 C7 0.951 . S
C10 C8 1.382 . S
C10 C11 1.390 . S
C10 H15 0.949 . S
C11 C10 1.390 . S
C11 C16 1.399 . S
C12 C8 1.404 1_556 S
C12 H13 0.950 . S
C12 C14 1.375 . S
H13 C12 0.950 . S
C14 C12 1.375 . S
C14 C16 1.382 1_556 S
C14 H18 0.950 . S
H15 C10 0.949 . S
C16 C11 1.399 . S
C16 C14 1.382 1_554 S
C16 H17 0.952 . S
H17 C16 0.952 . S
H18 C14 0.950 . S
H19 C20 0.949 . S
C20 H19 0.949 . S
C20 C21 1.395 . S
C20 C22 1.391 . S
C21 C20 1.395 . S
C21 C24 1.390 . S
C22 C20 1.391 . S
C22 C26 1.387 . S
C22 C27 1.491 . S
H23 C24 0.950 . S
C24 C21 1.390 . S
C24 H23 0.950 . S
C24 C25 1.378 . S
C25 C24 1.378 . S
C25 C26 1.409 . S
C26 C22 1.387 . S
C26 C25 1.409 . S
C26 H28 0.951 . S
C27 C22 1.491 . S
C27 C29 1.382 . S
C27 C31 1.404 . S
H28 C26 0.951 . S
C29 C27 1.382 . S
C29 C30 1.390 . S
C29 H34 0.949 . S
C30 C29 1.390 . S
C30 C35 1.399 . S
C31 C27 1.404 . S
C31 H32 0.950 . S
C31 C33 1.375 . S
H32 C31 0.950 . S
C33 C31 1.375 . S
C33 C35 1.382 . S
C33 H37 0.950 . S
H34 C29 0.949 . S
C35 C30 1.399 . S
C35 C33 1.382 . S
C35 H36 0.952 . S
H36 C35 0.952 . S
H37 C33 0.950 . S
H38 C39 0.949 . S
C39 H38 0.949 . S
C39 C40 1.395 . S
C39 C41 1.391 . S
C40 C39 1.395 . S
C40 C43 1.390 . S
C41 C39 1.391 . S
C41 C45 1.387 1_554 S
C41 C46 1.491 . S
H42 C43 0.950 . S
C43 C40 1.390 . S
C43 H42 0.950 . S
C43 C44 1.378 . S
C44 C43 1.378 . S
C44 C45 1.409 1_554 S
C45 C41 1.387 1_556 S
C45 C44 1.409 1_556 S
C45 H47 0.951 . S
C46 C41 1.491 . S
C46 C48 1.382 . S
C46 C50 1.404 1_554 S
H47 C45 0.951 . S
C48 C46 1.382 . S
C48 C49 1.390 . S
C48 H53 0.949 . S
C49 C48 1.390 . S
C49 C54 1.399 1_554 S
C50 C46 1.404 1_556 S
C50 H51 0.950 . S
C50 C52 1.375 . S
H51 C50 0.950 . S
C52 C50 1.375 . S
C52 C54 1.382 . S
C52 H56 0.950 . S
H53 C48 0.949 . S
C54 C49 1.399 1_556 S
C54 C52 1.382 . S
C54 H55 0.952 . S
H55 C54 0.952 . S
H56 C52 0.950 . S
H57 C58 0.949 . S
C58 H57 0.949 . S
C58 C59 1.395 . S
C58 C60 1.391 . S
C59 C58 1.395 . S
C59 C62 1.390 . S
C60 C58 1.391 . S
C60 C64 1.387 . S
C60 C65 1.491 . S
H61 C62 0.950 . S
C62 C59 1.390 . S
C62 H61 0.950 . S
C62 C63 1.378 . S
C63 C62 1.378 . S
C63 C64 1.409 . S
C64 C60 1.387 . S
C64 C63 1.409 . S
C64 H66 0.951 . S
C65 C60 1.491 . S
C65 C67 1.382 . S
C65 C69 1.404 . S
H66 C64 0.951 . S
C67 C65 1.382 . S
C67 C68 1.390 . S
C67 H72 0.949 . S
C68 C67 1.390 . S
C68 C73 1.399 . S
C69 C65 1.404 . S
C69 H70 0.950 . S
C69 C71 1.375 . S
H70 C69 0.950 . S
C71 C69 1.375 . S
C71 C73 1.382 . S
C71 H75 0.950 . S
H72 C67 0.949 . S
C73 C68 1.399 . S
C73 C71 1.382 . S
C73 H74 0.952 . S
H74 C73 0.952 . S
H75 C71 0.950 . S
C76 C78 1.422 . S
C76 C80 1.415 . S
C76 N82 1.369 . S
C77 C78 1.421 . S
C77 C79 1.417 . S
C77 C89 1.422 . S
C78 C76 1.422 . S
C78 C77 1.421 . S
C78 N88 1.359 . S
C79 C77 1.417 . S
C79 C81 1.329 . S
C79 H98 0.930 . S
C80 C76 1.415 . S
C80 C81 1.437 . S
C80 C84 1.413 . S
C81 C79 1.329 . S
C81 C80 1.437 . S
C81 H103 0.929 . S
N82 C76 1.369 . S
N82 C83 1.338 1_655 S
N82 Gd87 2.622 . S
C83 N82 1.338 1_455 S
C83 C85 1.378 . S
C83 H95 0.929 . S
C84 C80 1.413 . S
C84 C85 1.348 1_655 S
C84 H100 0.931 . S
C85 C83 1.378 . S
C85 C84 1.348 1_455 S
C85 H101 0.930 . S
Gd86 N106 2.622 . S
Gd86 N113 2.570 . S
Gd86 O120 2.353 1_465 S
Gd86 O121 2.468 . S
Gd86 O122 2.427 . S
Gd86 O124 2.388 1_455 S
Gd86 O125 2.386 . S
Gd86 O129 2.307 1_565 S
Gd86 C139 2.805 . S
Gd87 N82 2.622 . S
Gd87 N88 2.570 . S
Gd87 O119 2.386 . S
Gd87 O123 2.307 1_545 S
Gd87 O126 2.353 1_655 S
Gd87 O127 2.468 . S
Gd87 O128 2.427 . S
Gd87 O130 2.388 1_655 S
Gd87 C151 2.805 . S
N88 C78 1.359 . S
N88 Gd87 2.570 . S
N88 C90 1.343 . S
C89 C77 1.422 . S
C89 C91 1.321 . S
C89 H97 0.931 . S
C90 N88 1.343 . S
C90 C91 1.390 . S
C90 H92 0.931 . S
C91 C89 1.321 . S
C91 C90 1.390 . S
C91 H93 0.930 . S
H92 C90 0.931 . S
H93 C91 0.930 . S
H94 C117 0.931 . S
H95 C83 0.929 . S
H96 C118 0.930 . S
H97 C89 0.931 . S
H98 C79 0.930 . S
H99 C108 0.929 1_655 S
H100 C84 0.931 . S
H101 C85 0.930 . S
H102 C140 0.930 . S
H103 C81 0.929 . S
H104 C109 0.931 . S
H105 C110 0.930 1_655 S
N106 Gd86 2.622 . S
N106 C107 1.369 . S
N106 C108 1.338 . S
C107 N106 1.369 . S
C107 C111 1.415 . S
C107 C114 1.422 . S
C108 H99 0.929 1_455 S
C108 N106 1.338 . S
C108 C110 1.378 . S
C109 H104 0.931 . S
C109 C110 1.348 . S
C109 C111 1.413 . S
C110 H105 0.930 1_455 S
C110 C108 1.378 . S
C110 C109 1.348 . S
C111 C107 1.415 . S
C111 C109 1.413 . S
C111 C141 1.437 . S
H112 C141 0.929 . S
N113 Gd86 2.570 . S
N113 C114 1.359 . S
N113 C117 1.343 . S
C114 C107 1.422 . S
C114 N113 1.359 . S
C114 C116 1.421 . S
C115 C116 1.422 . S
C115 C118 1.321 . S
C115 H142 0.931 . S
C116 C114 1.421 . S
C116 C115 1.422 . S
C116 C140 1.417 . S
C117 H94 0.931 . S
C117 N113 1.343 . S
C117 C118 1.390 . S
C118 H96 0.930 . S
C118 C115 1.321 . S
C118 C117 1.390 . S
O119 Gd87 2.386 . S
O119 C131 1.265 . S
O120 Gd86 2.353 1_645 S
O120 C131 1.242 . S
O121 Gd86 2.468 . S
O121 C139 1.263 . S
O122 Gd86 2.427 . S
O122 C139 1.252 . S
O123 Gd87 2.307 1_565 S
O123 C132 1.261 . S
O124 Gd86 2.388 1_655 S
O124 C132 1.252 . S
O125 Gd86 2.386 . S
O125 C143 1.265 . S
O126 Gd87 2.353 1_455 S
O126 C143 1.242 1_545 S
O127 Gd87 2.468 . S
O127 C151 1.263 . S
O128 Gd87 2.427 . S
O128 C151 1.252 . S
O129 Gd86 2.307 1_545 S
O129 C144 1.261 . S
O130 Gd87 2.388 1_455 S
O130 C144 1.252 . S
C131 O119 1.265 . S
C131 O120 1.242 . S
C132 O123 1.261 . S
C132 O124 1.252 . S
C133 C136 1.394 . S
C133 C138 1.370 . S
C133 C139 1.500 . S
C134 C137 1.383 . S
C134 C138 1.395 . S
C135 C136 1.396 . S
C135 C137 1.365 . S
C135 H152 0.929 . S
C136 C133 1.394 . S
C136 C135 1.396 . S
C136 H153 0.930 . S
C137 C134 1.383 . S
C137 C135 1.365 . S
C137 H154 0.931 . S
C138 C133 1.370 . S
C138 C134 1.395 . S
C138 H155 0.930 . S
C139 Gd86 2.805 . S
C139 O121 1.263 . S
C139 O122 1.252 . S
C139 C133 1.500 . S
C140 H102 0.930 . S
C140 C116 1.417 . S
C140 C141 1.329 . S
C141 C111 1.437 . S
C141 H112 0.929 . S
C141 C140 1.329 . S
H142 C115 0.931 . S
C143 O125 1.265 . S
C143 O126 1.242 1_565 S
C144 O129 1.261 . S
C144 O130 1.252 . S
C145 C148 1.394 . S
C145 C150 1.370 . S
C145 C151 1.500 . S
C146 C149 1.383 . S
C146 C150 1.395 . S
C147 C148 1.396 . S
C147 C149 1.365 . S
C147 H156 0.929 . S
C148 C145 1.394 . S
C148 C147 1.396 . S
C148 H157 0.930 . S
C149 C146 1.383 . S
C149 C147 1.365 . S
C149 H158 0.931 . S
C150 C145 1.370 . S
C150 C146 1.395 . S
C150 H159 0.930 . S
C151 Gd87 2.805 . S
C151 O127 1.263 . S
C151 O128 1.252 . S
C151 C145 1.500 . S
H152 C135 0.929 . S
H153 C136 0.930 . S
H154 C137 0.931 . S
H155 C138 0.930 . S
H156 C147 0.929 . S
H157 C148 0.930 . S
H158 C149 0.931 . S
H159 C150 0.930 . S
C160 C162 1.422 . S
C160 C164 1.415 . S
C160 N166 1.369 . S
C161 C162 1.421 . S
C161 C163 1.417 . S
C161 C173 1.422 . S
C162 C160 1.422 . S
C162 C161 1.421 . S
C162 N172 1.359 . S
C163 C161 1.417 . S
C163 C165 1.329 . S
C163 H182 0.930 . S
C164 C160 1.415 . S
C164 C165 1.437 . S
C164 C168 1.413 . S
C165 C163 1.329 . S
C165 C164 1.437 . S
C165 H187 0.929 . S
N166 C160 1.369 . S
N166 C167 1.338 . S
N166 Gd171 2.622 . S
C167 N166 1.338 . S
C167 C169 1.378 . S
C167 H179 0.929 . S
C168 C164 1.413 . S
C168 C169 1.348 . S
C168 H184 0.931 . S
C169 C167 1.378 . S
C169 C168 1.348 . S
C169 H185 0.930 . S
Gd170 N190 2.618 1_556 S
Gd170 N197 2.570 1_556 S
Gd170 O204 2.353 . S
Gd170 O205 2.468 . S
Gd170 O206 2.427 . S
Gd170 O208 2.388 1_556 S
Gd170 O209 2.386 1_556 S
Gd170 O213 2.307 1_556 S
Gd170 C223 2.805 . S
Gd171 N166 2.622 . S
Gd171 N172 2.570 . S
Gd171 O203 2.386 . S
Gd171 O207 2.307 . S
Gd171 O210 2.353 . S
Gd171 O211 2.468 . S
Gd171 O212 2.427 . S
Gd171 O214 2.388 . S
Gd171 C235 2.805 . S
N172 C162 1.359 . S
N172 Gd171 2.570 . S
N172 C174 1.343 . S
C173 C161 1.422 . S
C173 C175 1.321 . S
C173 H181 0.931 . S
C174 N172 1.343 . S
C174 C175 1.390 . S
C174 H176 0.931 . S
C175 C173 1.321 . S
C175 C174 1.390 . S
C175 H177 0.930 . S
H176 C174 0.931 . S
H177 C175 0.930 . S
H178 C201 0.931 . S
H179 C167 0.929 . S
H180 C202 0.930 . S
H181 C173 0.931 . S
H182 C163 0.930 . S
H183 C192 0.929 . S
H184 C168 0.931 . S
H185 C169 0.930 . S
H186 C224 0.930 . S
H187 C165 0.929 . S
H188 C193 0.931 . S
H189 C194 0.930 . S
N190 Gd170 2.618 1_554 S
N190 C191 1.374 . S
N190 C192 1.339 1_554 S
C191 N190 1.374 . S
C191 C195 1.415 . S
C191 C198 1.422 . S
C192 H183 0.929 . S
C192 N190 1.339 1_556 S
C192 C194 1.378 . S
C193 H188 0.931 . S
C193 C194 1.348 1_554 S
C193 C195 1.413 . S
C194 H189 0.930 . S
C194 C192 1.378 . S
C194 C193 1.348 1_556 S
C195 C191 1.415 . S
C195 C193 1.413 . S
C195 C225 1.437 . S
H196 C225 0.929 . S
N197 Gd170 2.570 1_554 S
N197 C198 1.359 . S
N197 C201 1.343 . S
C198 C191 1.422 . S
C198 N197 1.359 . S
C198 C200 1.421 . S
C199 C200 1.422 . S
C199 C202 1.321 . S
C199 H226 0.931 . S
C200 C198 1.421 . S
C200 C199 1.422 . S
C200 C224 1.417 . S
C201 H178 0.931 . S
C201 N197 1.343 . S
C201 C202 1.390 . S
C202 H180 0.930 . S
C202 C199 1.321 . S
C202 C201 1.390 . S
O203 Gd171 2.386 . S
O203 C215 1.265 1_554 S
O204 Gd170 2.353 . S
O204 C215 1.242 . S
O205 Gd170 2.468 . S
O205 C223 1.263 . S
O206 Gd170 2.427 . S
O206 C223 1.252 . S
O207 Gd171 2.307 . S
O207 C216 1.261 . S
O208 Gd170 2.388 1_554 S
O208 C216 1.252 . S
O209 Gd170 2.386 1_554 S
O209 C227 1.265 . S
O210 Gd171 2.353 . S
O210 C227 1.242 . S
O211 Gd171 2.468 . S
O211 C235 1.263 . S
O212 Gd171 2.427 . S
O212 C235 1.252 . S
O213 Gd170 2.307 1_554 S
O213 C228 1.261 . S
O214 Gd171 2.388 . S
O214 C228 1.252 . S
C215 O203 1.265 1_556 S
C215 O204 1.242 . S
C216 O207 1.261 . S
C216 O208 1.252 . S
C217 C220 1.394 . S
C217 C222 1.370 . S
C217 C223 1.500 . S
C218 C221 1.383 . S
C218 C222 1.395 . S
C219 C220 1.396 . S
C219 C221 1.365 . S
C219 H236 0.929 . S
C220 C217 1.394 . S
C220 C219 1.396 . S
C220 H237 0.930 . S
C221 C218 1.383 . S
C221 C219 1.365 . S
C221 H238 0.931 . S
C222 C217 1.370 . S
C222 C218 1.395 . S
C222 H239 0.930 . S
C223 Gd170 2.805 . S
C223 O205 1.263 . S
C223 O206 1.252 . S
C223 C217 1.500 . S
C224 H186 0.930 . S
C224 C200 1.417 . S
C224 C225 1.329 . S
C225 C195 1.437 . S
C225 H196 0.929 . S
C225 C224 1.329 . S
H226 C199 0.931 . S
C227 O209 1.265 . S
C227 O210 1.242 . S
C228 O213 1.261 . S
C228 O214 1.252 . S
C229 C232 1.394 . S
C229 C234 1.370 . S
C229 C235 1.500 . S
C230 C233 1.383 . S
C230 C234 1.395 . S
C231 C232 1.396 . S
C231 C233 1.365 . S
C231 H240 0.929 . S
C232 C229 1.394 . S
C232 C231 1.396 . S
C232 H241 0.930 . S
C233 C230 1.383 . S
C233 C231 1.365 . S
C233 H242 0.931 . S
C234 C229 1.370 . S
C234 C230 1.395 . S
C234 H243 0.930 . S
C235 Gd171 2.805 . S
C235 O211 1.263 . S
C235 O212 1.252 . S
C235 C229 1.500 . S
H236 C219 0.929 . S
H237 C220 0.930 . S
H238 C221 0.931 . S
H239 C222 0.930 . S
H240 C231 0.929 . S
H241 C232 0.930 . S
H242 C233 0.931 . S
H243 C234 0.930 . S
H244 C250 0.930 . S
H245 C254 0.930 . S
H246 C259 0.929 . S
H247 C257 0.929 . S
H248 C252 0.929 . S
H249 C258 0.929 . S
C250 H244 0.930 . S
C250 C251 1.367 . S
C250 C258 1.378 . S
C251 C250 1.367 . S
C251 C259 1.433 . S
C252 H248 0.929 . S
C252 C254 1.378 . S
C252 C256 1.350 . S
C253 C256 1.463 . S
C253 C258 1.350 . S
C253 N261 1.427 . S
C254 H245 0.930 . S
C254 C252 1.378 . S
C254 C255 1.367 . S
C255 C254 1.367 . S
C255 C257 1.433 . S
C256 C252 1.350 . S
C256 C253 1.463 . S
C256 N260 1.427 . S
C257 H247 0.929 . S
C257 C255 1.433 . S
C257 N260 1.384 . S
C258 H249 0.929 . S
C258 C250 1.378 . S
C258 C253 1.350 . S
C259 H246 0.929 . S
C259 C251 1.433 . S
C259 N261 1.384 . S
N260 C256 1.427 . S
N260 C257 1.384 . S
N261 C253 1.427 . S
N261 C259 1.384 . S
H262 C268 0.930 . S
H263 C272 0.930 1_556 S
H264 C277 0.929 1_556 S
H265 C275 0.929 . S
H266 C270 0.929 1_556 S
H267 C276 0.929 . S
C268 H262 0.930 . S
C268 C269 1.367 . S
C268 C276 1.378 . S
C269 C268 1.367 . S
C269 C277 1.433 . S
C270 H266 0.929 1_554 S
C270 C272 1.378 . S
C270 C274 1.350 . S
C271 C274 1.463 . S
C271 C276 1.350 . S
C271 N279 1.427 . S
C272 H263 0.930 1_554 S
C272 C270 1.378 . S
C272 C273 1.367 . S
C273 C272 1.367 . S
C273 C275 1.433 . S
C274 C270 1.350 . S
C274 C271 1.463 . S
C274 N278 1.427 . S
C275 H265 0.929 . S
C275 C273 1.433 . S
C275 N278 1.384 . S
C276 H267 0.929 . S
C276 C268 1.378 . S
C276 C271 1.350 . S
C277 H264 0.929 1_554 S
C277 C269 1.433 . S
C277 N279 1.384 . S
N278 C274 1.427 . S
N278 C275 1.384 . S
N279 C271 1.427 . S
N279 C277 1.384 . S
H280 C286 0.930 . S
H281 C290 0.930 . S
H282 C295 0.929 . S
H283 C293 0.929 . S
H284 C288 0.929 . S
H285 C294 0.929 . S
C286 H280 0.930 . S
C286 C287 1.367 . S
C286 C294 1.378 . S
C287 C286 1.367 . S
C287 C295 1.433 . S
C288 H284 0.929 . S
C288 C290 1.378 . S
C288 C292 1.350 . S
C289 C292 1.463 . S
C289 C294 1.350 . S
C289 N297 1.427 . S
C290 H281 0.930 . S
C290 C288 1.378 . S
C290 C291 1.367 . S
C291 C290 1.367 . S
C291 C293 1.433 . S
C292 C288 1.350 . S
C292 C289 1.463 . S
C292 N296 1.427 . S
C293 H283 0.929 . S
C293 C291 1.433 . S
C293 N296 1.384 . S
C294 H285 0.929 . S
C294 C286 1.378 . S
C294 C289 1.350 . S
C295 H282 0.929 . S
C295 C287 1.433 . S
C295 N297 1.384 . S
N296 C292 1.427 . S
N296 C293 1.384 . S
N297 C289 1.427 . S
N297 C295 1.384 . S
H298 C304 0.930 . S
H299 C308 0.930 1_556 S
H300 C313 0.929 1_556 S
H301 C311 0.929 . S
H302 C306 0.929 1_556 S
H303 C312 0.929 . S
C304 H298 0.930 . S
C304 C305 1.367 . S
C304 C312 1.378 . S
C305 C304 1.367 . S
C305 C313 1.433 . S
C306 H302 0.929 1_554 S
C306 C308 1.378 . S
C306 C310 1.350 . S
C307 C310 1.463 . S
C307 C312 1.350 . S
C307 N315 1.427 . S
C308 H299 0.930 1_554 S
C308 C306 1.378 . S
C308 C309 1.367 . S
C309 C308 1.367 . S
C309 C311 1.433 . S
C310 C306 1.350 . S
C310 C307 1.463 . S
C310 N314 1.427 . S
C311 H301 0.929 . S
C311 C309 1.433 . S
C311 N314 1.384 . S
C312 H303 0.929 . S
C312 C304 1.378 . S
C312 C307 1.350 . S
C313 H300 0.929 1_554 S
C313 C305 1.433 . S
C313 N315 1.384 . S
N314 C310 1.427 . S
N314 C311 1.384 . S
N315 C307 1.427 . S
N315 C313 1.384 . S
H316 C322 0.930 . S
H317 C326 0.930 . S
H318 C331 0.929 . S
H319 C329 0.929 . S
H320 C324 0.929 . S
H321 C330 0.929 . S
C322 H316 0.930 . S
C322 C323 1.367 . S
C322 C330 1.378 . S
C323 C322 1.367 . S
C323 C331 1.433 . S
C324 H320 0.929 . S
C324 C326 1.378 . S
C324 C328 1.350 . S
C325 C328 1.463 . S
C325 C330 1.350 . S
C325 N333 1.427 . S
C326 H317 0.930 . S
C326 C324 1.378 . S
C326 C327 1.367 . S
C327 C326 1.367 . S
C327 C329 1.433 . S
C328 C324 1.350 . S
C328 C325 1.463 . S
C328 N332 1.427 . S
C329 H319 0.929 . S
C329 C327 1.433 . S
C329 N332 1.384 . S
C330 H321 0.929 . S
C330 C322 1.378 . S
C330 C325 1.350 . S
C331 H318 0.929 . S
C331 C323 1.433 . S
C331 N333 1.384 . S
N332 C328 1.427 . S
N332 C329 1.384 . S
N333 C325 1.427 . S
N333 C331 1.384 . S
H334 C340 0.930 . S
H335 C344 0.930 . S
H336 C349 0.929 . S
H337 C347 0.929 . S
H338 C342 0.929 . S
H339 C348 0.929 . S
C340 H334 0.930 . S
C340 C341 1.367 . S
C340 C348 1.378 . S
C341 C340 1.367 . S
C341 C349 1.433 . S
C342 H338 0.929 . S
C342 C344 1.378 . S
C342 C346 1.350 . S
C343 C346 1.463 . S
C343 C348 1.350 . S
C343 N351 1.427 . S
C344 H335 0.930 . S
C344 C342 1.378 . S
C344 C345 1.367 . S
C345 C344 1.367 . S
C345 C347 1.433 . S
C346 C342 1.350 . S
C346 C343 1.463 . S
C346 N350 1.427 . S
C347 H337 0.929 . S
C347 C345 1.433 . S
C347 N350 1.384 . S
C348 H339 0.929 . S
C348 C340 1.378 . S
C348 C343 1.350 . S
C349 H336 0.929 . S
C349 C341 1.433 . S
C349 N351 1.384 . S
N350 C346 1.427 . S
N350 C347 1.384 . S
N351 C343 1.427 . S
N351 C349 1.384 . S
H352 C358 0.930 . S
H353 C362 0.930 . S
H354 C367 0.929 . S
H355 C365 0.929 . S
H356 C360 0.929 . S
H357 C366 0.929 . S
C358 H352 0.930 . S
C358 C359 1.367 . S
C358 C366 1.378 . S
C359 C358 1.367 . S
C359 C367 1.433 . S
C360 H356 0.929 . S
C360 C362 1.378 . S
C360 C364 1.350 . S
C361 C364 1.463 . S
C361 C366 1.350 . S
C361 N369 1.427 . S
C362 H353 0.930 . S
C362 C360 1.378 . S
C362 C363 1.367 . S
C363 C362 1.367 . S
C363 C365 1.433 . S
C364 C360 1.350 . S
C364 C361 1.463 . S
C364 N368 1.427 . S
C365 H355 0.929 . S
C365 C363 1.433 . S
C365 N368 1.384 . S
C366 H357 0.929 . S
C366 C358 1.378 . S
C366 C361 1.350 . S
C367 H354 0.929 . S
C367 C359 1.433 . S
C367 N369 1.384 . S
N368 C364 1.427 . S
N368 C365 1.384 . S
N369 C361 1.427 . S
N369 C367 1.384 . S
H370 C376 0.930 . S
H371 C380 0.930 . S
H372 C385 0.929 . S
H373 C383 0.929 . S
H374 C378 0.929 . S
H375 C384 0.929 . S
C376 H370 0.930 . S
C376 C377 1.367 . S
C376 C384 1.378 . S
C377 C376 1.367 . S
C377 C385 1.433 . S
C378 H374 0.929 . S
C378 C380 1.378 . S
C378 C382 1.350 . S
C379 C382 1.463 . S
C379 C384 1.350 . S
C379 N387 1.427 . S
C380 H371 0.930 . S
C380 C378 1.378 . S
C380 C381 1.367 . S
C381 C380 1.367 . S
C381 C383 1.433 . S
C382 C378 1.350 . S
C382 C379 1.463 . S
C382 N386 1.427 . S
C383 H373 0.929 . S
C383 C381 1.433 . S
C383 N386 1.384 . S
C384 H375 0.929 . S
C384 C376 1.378 . S
C384 C379 1.350 . S
C385 H372 0.929 . S
C385 C377 1.433 . S
C385 N387 1.384 . S
N386 C382 1.427 . S
N386 C383 1.384 . S
N387 C379 1.427 . S
N387 C385 1.384 . S
H388 C394 0.930 . S
H389 C398 0.930 . S
H390 C403 0.929 . S
H391 C401 0.929 . S
H392 C396 0.929 . S
H393 C402 0.929 . S
C394 H388 0.930 . S
C394 C395 1.367 . S
C394 C402 1.378 . S
C395 C394 1.367 . S
C395 C403 1.433 . S
C396 H392 0.929 . S
C396 C398 1.378 . S
C396 C400 1.350 . S
C397 C400 1.463 . S
C397 C402 1.350 . S
C397 N405 1.427 . S
C398 H389 0.930 . S
C398 C396 1.378 . S
C398 C399 1.367 . S
C399 C398 1.367 . S
C399 C401 1.433 . S
C400 C396 1.350 . S
C400 C397 1.463 . S
C400 N404 1.427 . S
C401 H391 0.929 . S
C401 C399 1.433 . S
C401 N404 1.384 . S
C402 H393 0.929 . S
C402 C394 1.378 . S
C402 C397 1.350 . S
C403 H390 0.929 . S
C403 C395 1.433 . S
C403 N405 1.384 . S
N404 C400 1.427 . S
N404 C401 1.384 . S
N405 C397 1.427 . S
N405 C403 1.384 . S
H406 C412 0.930 1_554 S
H407 C416 0.930 . S
H408 C421 0.929 . S
H409 C419 0.929 . S
H410 C414 0.929 . S
H411 C420 0.929 . S
C412 H406 0.930 1_556 S
C412 C413 1.367 . S
C412 C420 1.378 . S
C413 C412 1.367 . S
C413 C421 1.433 . S
C414 H410 0.929 . S
C414 C416 1.378 . S
C414 C418 1.350 . S
C415 C418 1.463 . S
C415 C420 1.350 . S
C415 N423 1.427 . S
C416 H407 0.930 . S
C416 C414 1.378 . S
C416 C417 1.367 . S
C417 C416 1.367 . S
C417 C419 1.433 . S
C418 C414 1.350 . S
C418 C415 1.463 . S
C418 N422 1.427 . S
C419 H409 0.929 . S
C419 C417 1.433 . S
C419 N422 1.384 . S
C420 H411 0.929 . S
C420 C412 1.378 . S
C420 C415 1.350 . S
C421 H408 0.929 . S
C421 C413 1.433 . S
C421 N423 1.384 . S
N422 C418 1.427 . S
N422 C419 1.384 . S
N423 C415 1.427 . S
N423 C421 1.384 . S
H424 C430 0.930 . S
H425 C434 0.930 . S
H426 C439 0.929 . S
H427 C437 0.929 . S
H428 C432 0.929 . S
H429 C438 0.929 . S
C430 H424 0.930 . S
C430 C431 1.367 . S
C430 C438 1.378 . S
C431 C430 1.367 . S
C431 C439 1.433 . S
C432 H428 0.929 . S
C432 C434 1.378 . S
C432 C436 1.350 . S
C433 C436 1.463 . S
C433 C438 1.350 . S
C433 N441 1.427 . S
C434 H425 0.930 . S
C434 C432 1.378 . S
C434 C435 1.367 . S
C435 C434 1.367 . S
C435 C437 1.433 . S
C436 C432 1.350 . S
C436 C433 1.463 . S
C436 N440 1.427 . S
C437 H427 0.929 . S
C437 C435 1.433 . S
C437 N440 1.384 . S
C438 H429 0.929 . S
C438 C430 1.378 . S
C438 C433 1.350 . S
C439 H426 0.929 . S
C439 C431 1.433 . S
C439 N441 1.384 . S
N440 C436 1.427 . S
N440 C437 1.384 . S
N441 C433 1.427 . S
N441 C439 1.384 . S
H442 C448 0.930 . S
H443 C452 0.930 . S
H444 C457 0.929 . S
H445 C455 0.929 1_545 S
H446 C450 0.929 . S
H447 C456 0.929 . S
C448 H442 0.930 . S
C448 C449 1.367 . S
C448 C456 1.378 . S
C449 C448 1.367 . S
C449 C457 1.433 . S
C450 H446 0.929 . S
C450 C452 1.378 . S
C450 C454 1.350 . S
C451 C454 1.463 . S
C451 C456 1.350 . S
C451 N459 1.427 . S
C452 H443 0.930 . S
C452 C450 1.378 . S
C452 C453 1.367 . S
C453 C452 1.367 . S
C453 C455 1.433 . S
C454 C450 1.350 . S
C454 C451 1.463 . S
C454 N458 1.427 . S
C455 H445 0.929 1_565 S
C455 C453 1.433 . S
C455 N458 1.384 . S
C456 H447 0.929 . S
C456 C448 1.378 . S
C456 C451 1.350 . S
C457 H444 0.929 . S
C457 C449 1.433 . S
C457 N459 1.384 . S
N458 C454 1.427 . S
N458 C455 1.384 . S
N459 C451 1.427 . S
N459 C457 1.384 . S
C255 C144 1.691 . S
C251 C68 1.648 . S
C269 C11 1.579 . S
C273 C216 1.707 . S
C287 C30 1.632 . S
C291 C132 1.721 . S
C305 C49 1.617 . S
C309 C228 1.673 . S
C327 C134 1.502 . S
C323 C2 1.677 . S
C345 C215 1.787 . S
C341 C25 1.786 . S
C359 C40 1.697 . S
C363 C131 1.715 . S
C377 C59 1.667 . S
C381 C218 1.509 . S
C399 C230 1.434 . S
C395 C21 1.601 . S
C417 C146 1.420 . S
C413 C44 1.610 1_556 S
C435 C227 1.682 . S
C431 C63 1.678 . S
C449 C6 1.639 . S
C453 C143 1.642 . S
