# Generated by pormake.
# Topology tbo, (3,4)-cn, num edge types: 1
# Building blocks:
#     Node 0, Type 0, BuildingBlock: OLANEW_clean_sbu_2, # of connection points: 3
#     Node 1, Type 0, BuildingBlock: OLANEW_clean_sbu_2, # of connection points: 3
#     Node 2, Type 0, BuildingBlock: OLANEW_clean_sbu_2, # of connection points: 3
#     Node 3, Type 0, BuildingBlock: OLANEW_clean_sbu_2, # of connection points: 3
#     Node 4, Type 0, BuildingBlock: OLANEW_clean_sbu_2, # of connection points: 3
#     Node 5, Type 0, BuildingBlock: OLANEW_clean_sbu_2, # of connection points: 3
#     Node 6, Type 0, BuildingBlock: OLANEW_clean_sbu_2, # of connection points: 3
#     Node 7, Type 0, BuildingBlock: OLANEW_clean_sbu_2, # of connection points: 3
#     Node 8, Type 0, BuildingBlock: OLANEW_clean_sbu_2, # of connection points: 3
#     Node 9, Type 0, BuildingBlock: OLANEW_clean_sbu_2, # of connection points: 3
#     Node 10, Type 0, BuildingBlock: OLANEW_clean_sbu_2, # of connection points: 3
#     Node 11, Type 0, BuildingBlock: OLANEW_clean_sbu_2, # of connection points: 3
#     Node 12, Type 0, BuildingBlock: OLANEW_clean_sbu_2, # of connection points: 3
#     Node 13, Type 0, BuildingBlock: OLANEW_clean_sbu_2, # of connection points: 3
#     Node 14, Type 0, BuildingBlock: OLANEW_clean_sbu_2, # of connection points: 3
#     Node 15, Type 0, BuildingBlock: OLANEW_clean_sbu_2, # of connection points: 3
#     Node 16, Type 0, BuildingBlock: OLANEW_clean_sbu_2, # of connection points: 3
#     Node 17, Type 0, BuildingBlock: OLANEW_clean_sbu_2, # of connection points: 3
#     Node 18, Type 0, BuildingBlock: OLANEW_clean_sbu_2, # of connection points: 3
#     Node 19, Type 0, BuildingBlock: OLANEW_clean_sbu_2, # of connection points: 3
#     Node 20, Type 0, BuildingBlock: OLANEW_clean_sbu_2, # of connection points: 3
#     Node 21, Type 0, BuildingBlock: OLANEW_clean_sbu_2, # of connection points: 3
#     Node 22, Type 0, BuildingBlock: OLANEW_clean_sbu_2, # of connection points: 3
#     Node 23, Type 0, BuildingBlock: OLANEW_clean_sbu_2, # of connection points: 3
#     Node 24, Type 0, BuildingBlock: OLANEW_clean_sbu_2, # of connection points: 3
#     Node 25, Type 0, BuildingBlock: OLANEW_clean_sbu_2, # of connection points: 3
#     Node 26, Type 0, BuildingBlock: OLANEW_clean_sbu_2, # of connection points: 3
#     Node 27, Type 0, BuildingBlock: OLANEW_clean_sbu_2, # of connection points: 3
#     Node 28, Type 0, BuildingBlock: OLANEW_clean_sbu_2, # of connection points: 3
#     Node 29, Type 0, BuildingBlock: OLANEW_clean_sbu_2, # of connection points: 3
#     Node 30, Type 0, BuildingBlock: OLANEW_clean_sbu_2, # of connection points: 3
#     Node 31, Type 0, BuildingBlock: OLANEW_clean_sbu_2, # of connection points: 3
#     Node 32, Type 1, BuildingBlock: MIFKUJ_clean_linker_1, # of connection points: 4
#     Node 33, Type 1, BuildingBlock: MIFKUJ_clean_linker_1, # of connection points: 4
#     Node 34, Type 1, BuildingBlock: MIFKUJ_clean_linker_1, # of connection points: 4
#     Node 35, Type 1, BuildingBlock: MIFKUJ_clean_linker_1, # of connection points: 4
#     Node 36, Type 1, BuildingBlock: MIFKUJ_clean_linker_1, # of connection points: 4
#     Node 37, Type 1, BuildingBlock: MIFKUJ_clean_linker_1, # of connection points: 4
#     Node 38, Type 1, BuildingBlock: MIFKUJ_clean_linker_1, # of connection points: 4
#     Node 39, Type 1, BuildingBlock: MIFKUJ_clean_linker_1, # of connection points: 4
#     Node 40, Type 1, BuildingBlock: MIFKUJ_clean_linker_1, # of connection points: 4
#     Node 41, Type 1, BuildingBlock: MIFKUJ_clean_linker_1, # of connection points: 4
#     Node 42, Type 1, BuildingBlock: MIFKUJ_clean_linker_1, # of connection points: 4
#     Node 43, Type 1, BuildingBlock: MIFKUJ_clean_linker_1, # of connection points: 4
#     Node 44, Type 1, BuildingBlock: MIFKUJ_clean_linker_1, # of connection points: 4
#     Node 45, Type 1, BuildingBlock: MIFKUJ_clean_linker_1, # of connection points: 4
#     Node 46, Type 1, BuildingBlock: MIFKUJ_clean_linker_1, # of connection points: 4
#     Node 47, Type 1, BuildingBlock: MIFKUJ_clean_linker_1, # of connection points: 4
#     Node 48, Type 1, BuildingBlock: MIFKUJ_clean_linker_1, # of connection points: 4
#     Node 49, Type 1, BuildingBlock: MIFKUJ_clean_linker_1, # of connection points: 4
#     Node 50, Type 1, BuildingBlock: MIFKUJ_clean_linker_1, # of connection points: 4
#     Node 51, Type 1, BuildingBlock: MIFKUJ_clean_linker_1, # of connection points: 4
#     Node 52, Type 1, BuildingBlock: MIFKUJ_clean_linker_1, # of connection points: 4
#     Node 53, Type 1, BuildingBlock: MIFKUJ_clean_linker_1, # of connection points: 4
#     Node 54, Type 1, BuildingBlock: MIFKUJ_clean_linker_1, # of connection points: 4
#     Node 55, Type 1, BuildingBlock: MIFKUJ_clean_linker_1, # of connection points: 4
#     Edge 56, Type (0, 1), BuildingBlock: UVAHIK_clean_linker_0, # of connection points: 2
#     Edge 57, Type (0, 1), BuildingBlock: UVAHIK_clean_linker_0, # of connection points: 2
#     Edge 58, Type (0, 1), BuildingBlock: UVAHIK_clean_linker_0, # of connection points: 2
#     Edge 59, Type (0, 1), BuildingBlock: UVAHIK_clean_linker_0, # of connection points: 2
#     Edge 60, Type (0, 1), BuildingBlock: UVAHIK_clean_linker_0, # of connection points: 2
#     Edge 61, Type (0, 1), BuildingBlock: UVAHIK_clean_linker_0, # of connection points: 2
#     Edge 62, Type (0, 1), BuildingBlock: UVAHIK_clean_linker_0, # of connection points: 2
#     Edge 63, Type (0, 1), BuildingBlock: UVAHIK_clean_linker_0, # of connection points: 2
#     Edge 64, Type (0, 1), BuildingBlock: UVAHIK_clean_linker_0, # of connection points: 2
#     Edge 65, Type (0, 1), BuildingBlock: UVAHIK_clean_linker_0, # of connection points: 2
#     Edge 66, Type (0, 1), BuildingBlock: UVAHIK_clean_linker_0, # of connection points: 2
#     Edge 67, Type (0, 1), BuildingBlock: UVAHIK_clean_linker_0, # of connection points: 2
#     Edge 68, Type (0, 1), BuildingBlock: UVAHIK_clean_linker_0, # of connection points: 2
#     Edge 69, Type (0, 1), BuildingBlock: UVAHIK_clean_linker_0, # of connection points: 2
#     Edge 70, Type (0, 1), BuildingBlock: UVAHIK_clean_linker_0, # of connection points: 2
#     Edge 71, Type (0, 1), BuildingBlock: UVAHIK_clean_linker_0, # of connection points: 2
#     Edge 72, Type (0, 1), BuildingBlock: UVAHIK_clean_linker_0, # of connection points: 2
#     Edge 73, Type (0, 1), BuildingBlock: UVAHIK_clean_linker_0, # of connection points: 2
#     Edge 74, Type (0, 1), BuildingBlock: UVAHIK_clean_linker_0, # of connection points: 2
#     Edge 75, Type (0, 1), BuildingBlock: UVAHIK_clean_linker_0, # of connection points: 2
#     Edge 76, Type (0, 1), BuildingBlock: UVAHIK_clean_linker_0, # of connection points: 2
#     Edge 77, Type (0, 1), BuildingBlock: UVAHIK_clean_linker_0, # of connection points: 2
#     Edge 78, Type (0, 1), BuildingBlock: UVAHIK_clean_linker_0, # of connection points: 2
#     Edge 79, Type (0, 1), BuildingBlock: UVAHIK_clean_linker_0, # of connection points: 2
#     Edge 80, Type (0, 1), BuildingBlock: UVAHIK_clean_linker_0, # of connection points: 2
#     Edge 81, Type (0, 1), BuildingBlock: UVAHIK_clean_linker_0, # of connection points: 2
#     Edge 82, Type (0, 1), BuildingBlock: UVAHIK_clean_linker_0, # of connection points: 2
#     Edge 83, Type (0, 1), BuildingBlock: UVAHIK_clean_linker_0, # of connection points: 2
#     Edge 84, Type (0, 1), BuildingBlock: UVAHIK_clean_linker_0, # of connection points: 2
#     Edge 85, Type (0, 1), BuildingBlock: UVAHIK_clean_linker_0, # of connection points: 2
#     Edge 86, Type (0, 1), BuildingBlock: UVAHIK_clean_linker_0, # of connection points: 2
#     Edge 87, Type (0, 1), BuildingBlock: UVAHIK_clean_linker_0, # of connection points: 2
#     Edge 88, Type (0, 1), BuildingBlock: UVAHIK_clean_linker_0, # of connection points: 2
#     Edge 89, Type (0, 1), BuildingBlock: UVAHIK_clean_linker_0, # of connection points: 2
#     Edge 90, Type (0, 1), BuildingBlock: UVAHIK_clean_linker_0, # of connection points: 2
#     Edge 91, Type (0, 1), BuildingBlock: UVAHIK_clean_linker_0, # of connection points: 2
#     Edge 92, Type (0, 1), BuildingBlock: UVAHIK_clean_linker_0, # of connection points: 2
#     Edge 93, Type (0, 1), BuildingBlock: UVAHIK_clean_linker_0, # of connection points: 2
#     Edge 94, Type (0, 1), BuildingBlock: UVAHIK_clean_linker_0, # of connection points: 2
#     Edge 95, Type (0, 1), BuildingBlock: UVAHIK_clean_linker_0, # of connection points: 2
#     Edge 96, Type (0, 1), BuildingBlock: UVAHIK_clean_linker_0, # of connection points: 2
#     Edge 97, Type (0, 1), BuildingBlock: UVAHIK_clean_linker_0, # of connection points: 2
#     Edge 98, Type (0, 1), BuildingBlock: UVAHIK_clean_linker_0, # of connection points: 2
#     Edge 99, Type (0, 1), BuildingBlock: UVAHIK_clean_linker_0, # of connection points: 2
#     Edge 100, Type (0, 1), BuildingBlock: UVAHIK_clean_linker_0, # of connection points: 2
#     Edge 101, Type (0, 1), BuildingBlock: UVAHIK_clean_linker_0, # of connection points: 2
#     Edge 102, Type (0, 1), BuildingBlock: UVAHIK_clean_linker_0, # of connection points: 2
#     Edge 103, Type (0, 1), BuildingBlock: UVAHIK_clean_linker_0, # of connection points: 2
#     Edge 104, Type (0, 1), BuildingBlock: UVAHIK_clean_linker_0, # of connection points: 2
#     Edge 105, Type (0, 1), BuildingBlock: UVAHIK_clean_linker_0, # of connection points: 2
#     Edge 106, Type (0, 1), BuildingBlock: UVAHIK_clean_linker_0, # of connection points: 2
#     Edge 107, Type (0, 1), BuildingBlock: UVAHIK_clean_linker_0, # of connection points: 2
#     Edge 108, Type (0, 1), BuildingBlock: UVAHIK_clean_linker_0, # of connection points: 2
#     Edge 109, Type (0, 1), BuildingBlock: UVAHIK_clean_linker_0, # of connection points: 2
#     Edge 110, Type (0, 1), BuildingBlock: UVAHIK_clean_linker_0, # of connection points: 2
#     Edge 111, Type (0, 1), BuildingBlock: UVAHIK_clean_linker_0, # of connection points: 2
#     Edge 112, Type (0, 1), BuildingBlock: UVAHIK_clean_linker_0, # of connection points: 2
#     Edge 113, Type (0, 1), BuildingBlock: UVAHIK_clean_linker_0, # of connection points: 2
#     Edge 114, Type (0, 1), BuildingBlock: UVAHIK_clean_linker_0, # of connection points: 2
#     Edge 115, Type (0, 1), BuildingBlock: UVAHIK_clean_linker_0, # of connection points: 2
#     Edge 116, Type (0, 1), BuildingBlock: UVAHIK_clean_linker_0, # of connection points: 2
#     Edge 117, Type (0, 1), BuildingBlock: UVAHIK_clean_linker_0, # of connection points: 2
#     Edge 118, Type (0, 1), BuildingBlock: UVAHIK_clean_linker_0, # of connection points: 2
#     Edge 119, Type (0, 1), BuildingBlock: UVAHIK_clean_linker_0, # of connection points: 2
#     Edge 120, Type (0, 1), BuildingBlock: UVAHIK_clean_linker_0, # of connection points: 2
#     Edge 121, Type (0, 1), BuildingBlock: UVAHIK_clean_linker_0, # of connection points: 2
#     Edge 122, Type (0, 1), BuildingBlock: UVAHIK_clean_linker_0, # of connection points: 2
#     Edge 123, Type (0, 1), BuildingBlock: UVAHIK_clean_linker_0, # of connection points: 2
#     Edge 124, Type (0, 1), BuildingBlock: UVAHIK_clean_linker_0, # of connection points: 2
#     Edge 125, Type (0, 1), BuildingBlock: UVAHIK_clean_linker_0, # of connection points: 2
#     Edge 126, Type (0, 1), BuildingBlock: UVAHIK_clean_linker_0, # of connection points: 2
#     Edge 127, Type (0, 1), BuildingBlock: UVAHIK_clean_linker_0, # of connection points: 2
#     Edge 128, Type (0, 1), BuildingBlock: UVAHIK_clean_linker_0, # of connection points: 2
#     Edge 129, Type (0, 1), BuildingBlock: UVAHIK_clean_linker_0, # of connection points: 2
#     Edge 130, Type (0, 1), BuildingBlock: UVAHIK_clean_linker_0, # of connection points: 2
#     Edge 131, Type (0, 1), BuildingBlock: UVAHIK_clean_linker_0, # of connection points: 2
#     Edge 132, Type (0, 1), BuildingBlock: UVAHIK_clean_linker_0, # of connection points: 2
#     Edge 133, Type (0, 1), BuildingBlock: UVAHIK_clean_linker_0, # of connection points: 2
#     Edge 134, Type (0, 1), BuildingBlock: UVAHIK_clean_linker_0, # of connection points: 2
#     Edge 135, Type (0, 1), BuildingBlock: UVAHIK_clean_linker_0, # of connection points: 2
#     Edge 136, Type (0, 1), BuildingBlock: UVAHIK_clean_linker_0, # of connection points: 2
#     Edge 137, Type (0, 1), BuildingBlock: UVAHIK_clean_linker_0, # of connection points: 2
#     Edge 138, Type (0, 1), BuildingBlock: UVAHIK_clean_linker_0, # of connection points: 2
#     Edge 139, Type (0, 1), BuildingBlock: UVAHIK_clean_linker_0, # of connection points: 2
#     Edge 140, Type (0, 1), BuildingBlock: UVAHIK_clean_linker_0, # of connection points: 2
#     Edge 141, Type (0, 1), BuildingBlock: UVAHIK_clean_linker_0, # of connection points: 2
#     Edge 142, Type (0, 1), BuildingBlock: UVAHIK_clean_linker_0, # of connection points: 2
#     Edge 143, Type (0, 1), BuildingBlock: UVAHIK_clean_linker_0, # of connection points: 2
#     Edge 144, Type (0, 1), BuildingBlock: UVAHIK_clean_linker_0, # of connection points: 2
#     Edge 145, Type (0, 1), BuildingBlock: UVAHIK_clean_linker_0, # of connection points: 2
#     Edge 146, Type (0, 1), BuildingBlock: UVAHIK_clean_linker_0, # of connection points: 2
#     Edge 147, Type (0, 1), BuildingBlock: UVAHIK_clean_linker_0, # of connection points: 2
#     Edge 148, Type (0, 1), BuildingBlock: UVAHIK_clean_linker_0, # of connection points: 2
#     Edge 149, Type (0, 1), BuildingBlock: UVAHIK_clean_linker_0, # of connection points: 2
#     Edge 150, Type (0, 1), BuildingBlock: UVAHIK_clean_linker_0, # of connection points: 2
#     Edge 151, Type (0, 1), BuildingBlock: UVAHIK_clean_linker_0, # of connection points: 2
# Relax obj value: 0.020
# Max RMSD: 0.135
# Mean RMSD: 0.096
data_MOF--net-tbo--node1-OLANEW_clean_sbu_2--node2-MIFKUJ_clean_linker_1--edge1-UVAHIK_clean_linker_0
_symmetry_space_group_name_H-M    P1
_symmetry_Int_Tables_number       1
_symmetry_cell_setting            triclinic
loop_
_symmetry_equiv_pos_as_xyz
'x, y, z'
_cell_length_a     110.89018
_cell_length_b     113.39634
_cell_length_c     110.05451
_cell_angle_alpha  97.088373
_cell_angle_beta   87.413493
_cell_angle_gamma 98.489491
loop_
_atom_site_label
_atom_site_type_symbol
_atom_site_fract_x
_atom_site_fract_y
_atom_site_fract_z
_atom_type_partial_charge
O0 O 0.20624 0.18026 0.18755 0.0
Cd1 Cd 0.19337 0.17185 0.20396 0.0
O2 O 0.19795 0.19687 0.1884 0.0
Cd3 Cd 0.18352 0.19321 0.20224 0.0
O4 O 0.16669 0.19753 0.21188 0.0
C5 C 0.15685 0.19554 0.20599 0.0
O6 O 0.15702 0.19032 0.19466 0.0
C7 C 0.20581 0.19036 0.1838 0.0
C8 C 0.20298 0.15288 0.21225 0.0
O9 O 0.19546 0.15099 0.20347 0.0
O10 O 0.20591 0.16372 0.21714 0.0
O11 O 0.84644 0.19351 0.18084 0.0
Cd12 Cd 0.8277 0.18143 0.17295 0.0
O13 O 0.85835 0.18216 0.16986 0.0
Cd14 Cd 0.84318 0.16783 0.16571 0.0
O15 O 0.83184 0.15187 0.17129 0.0
C16 C 0.83642 0.1473 0.17968 0.0
O17 O 0.84714 0.15231 0.18379 0.0
C18 C 0.85708 0.19153 0.17715 0.0
C19 C 0.82221 0.18875 0.15079 0.0
O20 O 0.8182 0.19359 0.16103 0.0
O21 O 0.82869 0.18031 0.15102 0.0
O22 O 0.87112 0.83886 0.20223 0.0
Cd23 Cd 0.8759 0.85155 0.22153 0.0
O24 O 0.88034 0.85228 0.19083 0.0
Cd25 Cd 0.88145 0.86638 0.20627 0.0
O26 O 0.87155 0.87992 0.21631 0.0
C27 C 0.86024 0.87837 0.21407 0.0
O28 O 0.85581 0.86895 0.20656 0.0
C29 C 0.87475 0.84178 0.19174 0.0
C30 C 0.89758 0.84663 0.23038 0.0
O31 O 0.88726 0.84077 0.23321 0.0
O32 O 0.89764 0.85496 0.22349 0.0
O33 O 0.25352 0.8377 0.20495 0.0
Cd34 Cd 0.25007 0.81588 0.19993 0.0
O35 O 0.2476 0.83648 0.22416 0.0
Cd36 Cd 0.24044 0.81741 0.22184 0.0
O37 O 0.2235 0.8064 0.22665 0.0
C38 C 0.21993 0.80844 0.23775 0.0
O39 O 0.22706 0.81595 0.24531 0.0
C40 C 0.25189 0.84277 0.21574 0.0
C41 C 0.25212 0.8091 0.17479 0.0
O42 O 0.24169 0.81008 0.18 0.0
O43 O 0.26155 0.8113 0.18147 0.0
O44 O 0.20345 0.85799 0.84155 0.0
Cd45 Cd 0.19 0.84031 0.84744 0.0
O46 O 0.20098 0.86971 0.85872 0.0
Cd47 Cd 0.18542 0.85709 0.86392 0.0
O48 O 0.16751 0.84687 0.85994 0.0
C49 C 0.16198 0.85076 0.85174 0.0
O50 O 0.16726 0.86033 0.84692 0.0
C51 C 0.2062 0.86793 0.84826 0.0
C52 C 0.20059 0.8291 0.86464 0.0
O53 O 0.20225 0.82613 0.85314 0.0
O54 O 0.19391 0.83729 0.86797 0.0
O55 O 0.20701 0.18885 0.87403 0.0
Cd56 Cd 0.1939 0.18154 0.8566 0.0
O57 O 0.2004 0.20637 0.87665 0.0
Cd58 Cd 0.18764 0.20299 0.8617 0.0
O59 O 0.17282 0.20855 0.85242 0.0
C60 C 0.16686 0.21577 0.85911 0.0
O61 O 0.16986 0.21878 0.87061 0.0
C62 C 0.20718 0.19926 0.87988 0.0
C63 C 0.20087 0.16079 0.84364 0.0
O64 O 0.20499 0.17118 0.8405 0.0
O65 O 0.19341 0.16022 0.85286 0.0
O66 O 0.83374 0.26088 0.81692 0.0
Cd67 Cd 0.84002 0.26098 0.79538 0.0
O68 O 0.83302 0.2414 0.81349 0.0
Cd69 Cd 0.82917 0.2227 0.8172 0.0
O70 O 0.82555 0.20319 0.81629 0.0
C71 C 0.81757 0.19782 0.82313 0.0
O72 O 0.81142 0.2042 0.8313 0.0
C73 C 0.83186 0.25071 0.82093 0.0
C74 C 0.86537 0.26436 0.793 0.0
O75 O 0.85936 0.27324 0.79337 0.0
O76 O 0.85937 0.25388 0.79362 0.0
O77 O 0.86737 0.85692 0.83857 0.0
Cd78 Cd 0.85373 0.8676 0.8526 0.0
O79 O 0.8645 0.84068 0.84808 0.0
Cd80 Cd 0.85226 0.84629 0.86313 0.0
O81 O 0.84456 0.84182 0.88096 0.0
C82 C 0.85042 0.83496 0.88595 0.0
O83 O 0.86029 0.83165 0.88029 0.0
C84 C 0.86953 0.84635 0.83947 0.0
C85 C 0.84499 0.88605 0.84242 0.0
O86 O 0.85538 0.88779 0.84749 0.0
O87 O 0.83874 0.87557 0.84208 0.0
O88 O 0.19883 0.6737 0.68291 0.0
Cd89 Cd 0.18529 0.6647 0.69854 0.0
O90 O 0.19981 0.69246 0.69139 0.0
Cd91 Cd 0.18518 0.689 0.70508 0.0
O92 O 0.16827 0.69316 0.71465 0.0
C93 C 0.15887 0.69257 0.70828 0.0
O94 O 0.15957 0.68886 0.69651 0.0
C95 C 0.20315 0.68475 0.68302 0.0
C96 C 0.19513 0.64624 0.70756 0.0
O97 O 0.18923 0.64433 0.6976 0.0
O98 O 0.19636 0.65687 0.71332 0.0
O99 O 0.85207 0.69389 0.67788 0.0
Cd100 Cd 0.832 0.68294 0.67241 0.0
O101 O 0.85872 0.67762 0.68227 0.0
Cd102 Cd 0.84147 0.66577 0.67948 0.0
O103 O 0.82747 0.65107 0.68356 0.0
C104 C 0.82078 0.65252 0.69316 0.0
O105 O 0.82202 0.66306 0.69981 0.0
C106 C 0.8606 0.6888 0.6813 0.0
C107 C 0.82446 0.68936 0.65063 0.0
O108 O 0.82186 0.69502 0.661 0.0
O109 O 0.83057 0.68059 0.65056 0.0
O110 O 0.86491 0.32805 0.70233 0.0
Cd111 Cd 0.86802 0.33692 0.72355 0.0
O112 O 0.859 0.34436 0.69707 0.0
Cd113 Cd 0.86051 0.35506 0.71494 0.0
O114 O 0.85195 0.36921 0.72565 0.0
C115 C 0.84098 0.3692 0.72277 0.0
O116 O 0.83608 0.36071 0.71449 0.0
C117 C 0.86112 0.33364 0.69427 0.0
C118 C 0.89162 0.33665 0.73102 0.0
O119 O 0.88347 0.32739 0.73118 0.0
O120 O 0.88863 0.34607 0.7273 0.0
O121 O 0.24696 0.33498 0.70535 0.0
Cd122 Cd 0.243 0.31319 0.70019 0.0
O123 O 0.24216 0.33155 0.72423 0.0
Cd124 Cd 0.23642 0.33719 0.74303 0.0
O125 O 0.22344 0.34119 0.75786 0.0
C126 C 0.21863 0.35073 0.75828 0.0
O127 O 0.2223 0.35829 0.75027 0.0
C128 C 0.24531 0.33897 0.71651 0.0
C129 C 0.24651 0.30579 0.67536 0.0
O130 O 0.23637 0.30903 0.6795 0.0
O131 O 0.25503 0.30614 0.68295 0.0
O132 O 0.23627 0.34082 0.32059 0.0
Cd133 Cd 0.23165 0.31964 0.32365 0.0
O134 O 0.21693 0.34143 0.32481 0.0
Cd135 Cd 0.19942 0.34819 0.32557 0.0
O136 O 0.17973 0.34688 0.32383 0.0
C137 C 0.17518 0.35181 0.31571 0.0
O138 O 0.1825 0.35841 0.30867 0.0
C139 C 0.22733 0.34673 0.32174 0.0
C140 C 0.23904 0.31444 0.346 0.0
O141 O 0.24594 0.31349 0.33637 0.0
O142 O 0.22871 0.31802 0.34509 0.0
O143 O 0.20913 0.69595 0.36778 0.0
Cd144 Cd 0.20031 0.69061 0.34756 0.0
O145 O 0.19336 0.68723 0.37779 0.0
Cd146 Cd 0.18193 0.68475 0.3618 0.0
O147 O 0.16839 0.68957 0.35024 0.0
C148 C 0.17092 0.69936 0.34554 0.0
O149 O 0.18173 0.70573 0.34729 0.0
C150 C 0.20418 0.69279 0.37775 0.0
C151 C 0.20668 0.66859 0.33733 0.0
O152 O 0.21387 0.6784 0.33643 0.0
O153 O 0.19634 0.66919 0.34288 0.0
O154 O 0.82669 0.75669 0.32262 0.0
Cd155 Cd 0.83456 0.75834 0.30175 0.0
O156 O 0.82614 0.73726 0.31843 0.0
Cd157 Cd 0.82175 0.71837 0.32146 0.0
O158 O 0.81735 0.699 0.32172 0.0
C159 C 0.80773 0.69355 0.31659 0.0
O160 O 0.80066 0.6998 0.31153 0.0
C161 C 0.82446 0.74628 0.32607 0.0
C162 C 0.85996 0.76147 0.30114 0.0
O163 O 0.85376 0.75095 0.30027 0.0
O164 O 0.85414 0.77052 0.30219 0.0
O165 O 0.86194 0.35401 0.33628 0.0
Cd166 Cd 0.84641 0.36248 0.34978 0.0
O167 O 0.86047 0.33772 0.3456 0.0
Cd168 Cd 0.84737 0.34212 0.36031 0.0
O169 O 0.83942 0.33767 0.37804 0.0
C170 C 0.8453 0.331 0.38329 0.0
O171 O 0.8553 0.32777 0.37787 0.0
C172 C 0.86515 0.34385 0.33719 0.0
C173 C 0.83767 0.38144 0.34057 0.0
O174 O 0.84685 0.38337 0.34758 0.0
O175 O 0.83266 0.37055 0.33787 0.0
O176 O 0.70618 0.17917 0.6871 0.0
Cd177 Cd 0.69438 0.17083 0.7042 0.0
O178 O 0.69418 0.19268 0.68517 0.0
Cd179 Cd 0.68081 0.1891 0.69998 0.0
O180 O 0.66467 0.19399 0.71052 0.0
C181 C 0.65462 0.1926 0.70502 0.0
O182 O 0.65422 0.1876 0.6936 0.0
C183 C 0.70353 0.18772 0.6817 0.0
C184 C 0.70475 0.15222 0.71233 0.0
O185 O 0.69692 0.15009 0.70382 0.0
O186 O 0.70768 0.16315 0.71699 0.0
O187 O 0.34912 0.20054 0.68565 0.0
Cd188 Cd 0.33002 0.18948 0.67747 0.0
O189 O 0.36031 0.18806 0.67528 0.0
Cd190 Cd 0.34451 0.17459 0.67068 0.0
O191 O 0.33175 0.15873 0.67424 0.0
C192 C 0.32563 0.15924 0.68429 0.0
O193 O 0.32673 0.16939 0.69159 0.0
C194 C 0.35955 0.19772 0.68232 0.0
C195 C 0.32563 0.1969 0.65504 0.0
O196 O 0.3216 0.20204 0.66513 0.0
O197 O 0.33161 0.18814 0.65556 0.0
O198 O 0.37371 0.83656 0.69344 0.0
Cd199 Cd 0.379 0.8494 0.71253 0.0
O200 O 0.37928 0.85132 0.68223 0.0
Cd201 Cd 0.38238 0.86491 0.698 0.0
O202 O 0.37498 0.87914 0.70981 0.0
C203 C 0.36339 0.87789 0.71023 0.0
O204 O 0.35732 0.86827 0.70422 0.0
C205 C 0.37521 0.84034 0.68299 0.0
C206 C 0.40039 0.84455 0.72199 0.0
O207 O 0.38994 0.83933 0.72534 0.0
O208 O 0.40072 0.85209 0.71416 0.0
O209 O 0.7489 0.84024 0.71058 0.0
Cd210 Cd 0.74089 0.81887 0.70671 0.0
O211 O 0.7568 0.83858 0.72816 0.0
Cd212 Cd 0.74649 0.82073 0.72861 0.0
O213 O 0.72785 0.81228 0.73185 0.0
C214 C 0.71984 0.81864 0.72969 0.0
O215 O 0.72345 0.82894 0.72541 0.0
C216 C 0.75523 0.84493 0.71977 0.0
C217 C 0.74438 0.81023 0.68218 0.0
O218 O 0.73428 0.81375 0.68605 0.0
O219 O 0.75278 0.81072 0.68994 0.0
O220 O 0.74148 0.8444 0.32209 0.0
Cd221 Cd 0.74446 0.82375 0.32364 0.0
O222 O 0.72203 0.83824 0.31944 0.0
Cd223 Cd 0.70276 0.8393 0.31696 0.0
O224 O 0.68319 0.83554 0.31381 0.0
C225 C 0.67847 0.83959 0.30515 0.0
O226 O 0.68551 0.84649 0.29817 0.0
C227 C 0.73092 0.84677 0.3202 0.0
C228 C 0.74611 0.81933 0.34782 0.0
O229 O 0.7556 0.8233 0.34165 0.0
O230 O 0.73581 0.81751 0.34255 0.0
O231 O 0.71282 0.19422 0.36619 0.0
Cd232 Cd 0.70484 0.19064 0.34551 0.0
O233 O 0.69612 0.20021 0.37476 0.0
Cd234 Cd 0.6863 0.19953 0.35791 0.0
O235 O 0.67254 0.20662 0.3485 0.0
C236 C 0.66629 0.21332 0.35551 0.0
O237 O 0.66854 0.21509 0.36727 0.0
C238 C 0.70688 0.19788 0.3757 0.0
C239 C 0.71 0.1686 0.33389 0.0
O240 O 0.7178 0.17813 0.3338 0.0
O241 O 0.69967 0.16951 0.33936 0.0
O242 O 0.32963 0.25838 0.31583 0.0
Cd243 Cd 0.33469 0.25822 0.29401 0.0
O244 O 0.32999 0.239 0.31318 0.0
Cd245 Cd 0.32736 0.22072 0.31823 0.0
O246 O 0.32355 0.20154 0.31981 0.0
C247 C 0.31343 0.19586 0.31599 0.0
O248 O 0.30564 0.2018 0.31157 0.0
C249 C 0.32871 0.24848 0.32032 0.0
C250 C 0.35995 0.26097 0.29067 0.0
O251 O 0.35371 0.25053 0.2908 0.0
O252 O 0.3542 0.27007 0.29188 0.0
O253 O 0.36194 0.85398 0.33786 0.0
Cd254 Cd 0.34508 0.86252 0.34917 0.0
O255 O 0.3627 0.84068 0.35073 0.0
Cd256 Cd 0.34806 0.84468 0.36389 0.0
O257 O 0.33879 0.83891 0.38063 0.0
C258 C 0.34158 0.8291 0.38339 0.0
O259 O 0.34925 0.82358 0.37612 0.0
C260 C 0.36669 0.84536 0.34114 0.0
C261 C 0.33827 0.88185 0.33883 0.0
O262 O 0.34653 0.88351 0.34689 0.0
O263 O 0.33328 0.87105 0.3356 0.0
O264 O 0.70548 0.67747 0.18382 0.0
Cd265 Cd 0.69291 0.66849 0.20011 0.0
O266 O 0.69339 0.69091 0.18203 0.0
Cd267 Cd 0.6793 0.68621 0.19588 0.0
O268 O 0.66185 0.68977 0.20467 0.0
C269 C 0.65659 0.69706 0.19962 0.0
O270 O 0.66187 0.7015 0.18991 0.0
C271 C 0.70295 0.68626 0.17873 0.0
C272 C 0.70269 0.64948 0.20809 0.0
O273 O 0.69522 0.64765 0.19928 0.0
O274 O 0.70556 0.66029 0.21311 0.0
O275 O 0.33646 0.73026 0.19498 0.0
Cd276 Cd 0.31705 0.7304 0.18538 0.0
O277 O 0.33252 0.71082 0.19557 0.0
Cd278 Cd 0.33515 0.69365 0.20141 0.0
O279 O 0.33229 0.67614 0.20825 0.0
C280 C 0.32626 0.67521 0.21827 0.0
O281 O 0.32241 0.68481 0.22415 0.0
C282 C 0.33958 0.72068 0.19794 0.0
C283 C 0.31913 0.7307 0.16008 0.0
O284 O 0.32139 0.74038 0.16743 0.0
O285 O 0.31601 0.72081 0.16468 0.0
O286 O 0.36498 0.33719 0.2025 0.0
Cd287 Cd 0.36944 0.35081 0.22136 0.0
O288 O 0.37741 0.34785 0.19052 0.0
Cd289 Cd 0.37986 0.36294 0.20489 0.0
O290 O 0.37225 0.37799 0.21506 0.0
C291 C 0.3613 0.37843 0.2124 0.0
O292 O 0.35591 0.37003 0.20432 0.0
C293 C 0.36996 0.33845 0.19201 0.0
C294 C 0.39139 0.34783 0.23125 0.0
O295 O 0.38141 0.34118 0.23367 0.0
O296 O 0.391 0.35594 0.2242 0.0
O297 O 0.75083 0.33456 0.20608 0.0
Cd298 Cd 0.74657 0.31276 0.20129 0.0
O299 O 0.74329 0.33154 0.22433 0.0
Cd300 Cd 0.73536 0.3374 0.24218 0.0
O301 O 0.7208 0.34018 0.25571 0.0
C302 C 0.71553 0.34944 0.25613 0.0
O303 O 0.71958 0.35764 0.24889 0.0
C304 C 0.74784 0.33878 0.21684 0.0
C305 C 0.74906 0.30509 0.1764 0.0
O306 O 0.73913 0.30855 0.18091 0.0
O307 O 0.75784 0.30533 0.18365 0.0
O308 O 0.74596 0.33956 0.816 0.0
Cd309 Cd 0.74999 0.31943 0.81848 0.0
O310 O 0.72705 0.3353 0.82256 0.0
Cd311 Cd 0.70797 0.33811 0.82512 0.0
O312 O 0.68818 0.33649 0.82409 0.0
C313 C 0.68339 0.34279 0.81739 0.0
O314 O 0.69051 0.35066 0.8115 0.0
C315 C 0.7355 0.34272 0.81841 0.0
C316 C 0.75095 0.3154 0.84284 0.0
O317 O 0.76047 0.31999 0.8371 0.0
O318 O 0.74092 0.31285 0.83708 0.0
O319 O 0.70762 0.69299 0.87628 0.0
Cd320 Cd 0.69604 0.6876 0.85751 0.0
O321 O 0.69097 0.69384 0.88782 0.0
Cd322 Cd 0.67871 0.69076 0.87247 0.0
O323 O 0.66571 0.6948 0.85987 0.0
C324 C 0.66923 0.703 0.85308 0.0
O325 O 0.68065 0.70815 0.85345 0.0
C326 C 0.70252 0.69466 0.88682 0.0
C327 C 0.70015 0.66536 0.84558 0.0
O328 O 0.70646 0.67509 0.84274 0.0
O329 O 0.69188 0.66616 0.85404 0.0
O330 O 0.32803 0.75766 0.81534 0.0
Cd331 Cd 0.33695 0.7621 0.79546 0.0
O332 O 0.32934 0.73858 0.81029 0.0
Cd333 Cd 0.32616 0.71947 0.81262 0.0
O334 O 0.32208 0.70002 0.8125 0.0
C335 C 0.31176 0.69472 0.80878 0.0
O336 O 0.30388 0.70115 0.80535 0.0
C337 C 0.3265 0.74699 0.81815 0.0
C338 C 0.36228 0.76435 0.79604 0.0
O339 O 0.35669 0.77341 0.79918 0.0
O340 O 0.35589 0.75424 0.79249 0.0
O341 O 0.36569 0.35925 0.84 0.0
Cd342 Cd 0.34982 0.36785 0.85291 0.0
O343 O 0.36499 0.34371 0.85037 0.0
Cd344 Cd 0.35149 0.34789 0.86476 0.0
O345 O 0.343 0.34244 0.88195 0.0
C346 C 0.34617 0.33286 0.88489 0.0
O347 O 0.35382 0.32738 0.87756 0.0
C348 C 0.36939 0.34946 0.84158 0.0
C349 C 0.34088 0.38622 0.84278 0.0
O350 O 0.35003 0.38851 0.84983 0.0
O351 O 0.33599 0.37524 0.84046 0.0
H352 H 0.26249 0.25107 0.02105 0.0
H353 H 0.25314 0.24325 0.00139 0.0
H354 H 0.28823 0.2358 0.98625 0.0
H355 H 0.29748 0.24346 0.00597 0.0
H356 H 0.27456 0.2405 0.03676 0.0
H357 H 0.28243 0.27367 0.0139 0.0
H358 H 0.28875 0.28366 0.99575 0.0
H359 H 0.32557 0.27644 0.99911 0.0
H360 H 0.31908 0.2661 0.01709 0.0
H361 H 0.32187 0.26252 0.05379 0.0
H362 H 0.3323 0.27029 0.07286 0.0
H363 H 0.29803 0.27788 0.09003 0.0
H364 H 0.28766 0.27019 0.0709 0.0
H365 H 0.30945 0.27351 0.03922 0.0
H366 H 0.29958 0.24075 0.06444 0.0
H367 H 0.29098 0.2314 0.08244 0.0
H368 H 0.25554 0.24002 0.07512 0.0
H369 H 0.26418 0.24945 0.05727 0.0
C370 C 0.28068 0.24793 0.01493 0.0
C371 C 0.26814 0.24768 0.01351 0.0
C372 C 0.26284 0.2433 0.00226 0.0
C373 C 0.26997 0.23896 0.99228 0.0
C374 C 0.28249 0.23901 0.9938 0.0
C375 C 0.2878 0.24346 0.00503 0.0
C376 C 0.28638 0.25293 0.02674 0.0
C377 C 0.28211 0.2478 0.03736 0.0
C378 C 0.29622 0.26244 0.02745 0.0
C379 C 0.30025 0.26899 0.01675 0.0
C380 C 0.29186 0.27418 0.01069 0.0
C381 C 0.29551 0.28001 0.00039 0.0
C382 C 0.30766 0.28083 0.99595 0.0
C383 C 0.31611 0.27582 0.00219 0.0
C384 C 0.31244 0.26999 0.01252 0.0
C385 C 0.30396 0.26565 0.06095 0.0
C386 C 0.31661 0.26588 0.06166 0.0
C387 C 0.32256 0.27034 0.07255 0.0
C388 C 0.31597 0.27465 0.08295 0.0
C389 C 0.30331 0.27444 0.08222 0.0
C390 C 0.29738 0.27006 0.07129 0.0
C391 C 0.29776 0.26096 0.0493 0.0
C392 C 0.30194 0.26617 0.03866 0.0
C393 C 0.28762 0.25171 0.04867 0.0
C394 C 0.28255 0.24591 0.05956 0.0
C395 C 0.28999 0.24072 0.06678 0.0
C396 C 0.28506 0.23537 0.07705 0.0
C397 C 0.27258 0.23496 0.08018 0.0
C398 C 0.26516 0.24006 0.07286 0.0
C399 C 0.27009 0.24547 0.06267 0.0
H400 H 0.7889 0.2333 0.97125 0.0
H401 H 0.79557 0.2316 0.9496 0.0
H402 H 0.80925 0.26954 0.9535 0.0
H403 H 0.80256 0.27116 0.975 0.0
H404 H 0.80083 0.24306 0.99465 0.0
H405 H 0.76788 0.2496 0.96965 0.0
H406 H 0.76172 0.25835 0.95207 0.0
H407 H 0.77513 0.29383 0.96951 0.0
H408 H 0.78137 0.28499 0.98705 0.0
H409 H 0.77855 0.28055 0.02339 0.0
H410 H 0.77178 0.28545 0.04464 0.0
H411 H 0.76353 0.24767 0.04854 0.0
H412 H 0.76982 0.24276 0.0271 0.0
H413 H 0.76845 0.26918 0.00333 0.0
H414 H 0.80094 0.26302 0.02865 0.0
H415 H 0.80699 0.25455 0.04644 0.0
H416 H 0.79523 0.21879 0.02869 0.0
H417 H 0.78918 0.22734 0.01091 0.0
C418 C 0.79514 0.25237 0.97465 0.0
C419 C 0.79358 0.24117 0.96747 0.0
C420 C 0.79736 0.24023 0.95512 0.0
C421 C 0.80276 0.25048 0.94981 0.0
C422 C 0.8049 0.26154 0.95725 0.0
C423 C 0.80116 0.26246 0.96956 0.0
C424 C 0.78938 0.25391 0.98703 0.0
C425 C 0.79364 0.24862 0.99655 0.0
C426 C 0.78012 0.26127 0.98951 0.0
C427 C 0.77511 0.26666 0.9796 0.0
C428 C 0.76935 0.25927 0.96974 0.0
C429 C 0.76579 0.26428 0.95974 0.0
C430 C 0.76798 0.27677 0.95942 0.0
C431 C 0.77343 0.28418 0.96948 0.0
C432 C 0.7769 0.27916 0.97953 0.0
C433 C 0.7749 0.26129 0.0237 0.0
C434 C 0.77508 0.27331 0.02873 0.0
C435 C 0.77123 0.2761 0.04087 0.0
C436 C 0.76724 0.26692 0.04821 0.0
C437 C 0.76671 0.25489 0.04308 0.0
C438 C 0.77034 0.2521 0.03087 0.0
C439 C 0.77995 0.25845 0.01112 0.0
C440 C 0.77556 0.26353 0.0015 0.0
C441 C 0.78915 0.25094 0.00862 0.0
C442 C 0.79445 0.2458 0.01855 0.0
C443 C 0.79979 0.25335 0.02854 0.0
C444 C 0.80318 0.24851 0.03872 0.0
C445 C 0.80143 0.23601 0.03903 0.0
C446 C 0.79674 0.22845 0.02871 0.0
C447 C 0.79329 0.23331 0.01854 0.0
H448 H 0.80504 0.78641 0.06063 0.0
H449 H 0.81615 0.7947 0.07915 0.0
H450 H 0.8242 0.75936 0.0836 0.0
H451 H 0.81311 0.75111 0.06502 0.0
H452 H 0.8122 0.77626 0.03963 0.0
H453 H 0.78328 0.76475 0.07035 0.0
H454 H 0.77367 0.756 0.0882 0.0
H455 H 0.77965 0.72075 0.07142 0.0
H456 H 0.78966 0.72963 0.05376 0.0
H457 H 0.79029 0.73152 0.01504 0.0
H458 H 0.77948 0.72335 0.99619 0.0
H459 H 0.7656 0.75695 0.99583 0.0
H460 H 0.7764 0.76505 0.01466 0.0
H461 H 0.77999 0.74078 0.03787 0.0
H462 H 0.80897 0.75415 0.00647 0.0
H463 H 0.81498 0.76392 0.98809 0.0
H464 H 0.80578 0.79737 0.00675 0.0
H465 H 0.79945 0.78744 0.02499 0.0
C466 C 0.80816 0.76812 0.06147 0.0
C467 C 0.80922 0.78044 0.06557 0.0
C468 C 0.8156 0.78518 0.07614 0.0
C469 C 0.82107 0.77768 0.08282 0.0
C470 C 0.81995 0.76534 0.07873 0.0
C471 C 0.81361 0.76061 0.06812 0.0
C472 C 0.80165 0.7632 0.05003 0.0
C473 C 0.80506 0.76858 0.03931 0.0
C474 C 0.79241 0.75311 0.04955 0.0
C475 C 0.78731 0.74787 0.06074 0.0
C476 C 0.78275 0.75517 0.07061 0.0
C477 C 0.77713 0.75013 0.08076 0.0
C478 C 0.77583 0.73766 0.08122 0.0
C479 C 0.78061 0.73039 0.07143 0.0
C480 C 0.78626 0.73545 0.06128 0.0
C481 C 0.78418 0.74889 0.01618 0.0
C482 C 0.78492 0.73711 0.01087 0.0
C483 C 0.77882 0.73249 9e-05 0.0
C484 C 0.77172 0.73953 0.99457 0.0
C485 C 0.77094 0.75131 -5e-05 0.0
C486 C 0.77715 0.75596 0.01065 0.0
C487 C 0.79064 0.75377 0.02758 0.0
C488 C 0.78721 0.74839 0.03826 0.0
C489 C 0.79964 0.76403 0.02811 0.0
C490 C 0.80365 0.77003 0.01706 0.0
C491 C 0.80818 0.76357 0.00657 0.0
C492 C 0.81171 0.7692 0.99611 0.0
C493 C 0.81085 0.78143 0.99595 0.0
C494 C 0.80641 0.78791 0.00652 0.0
C495 C 0.80289 0.78227 0.01698 0.0
H496 H 0.28256 0.73428 0.96971 0.0
H497 H 0.28786 0.73008 0.94787 0.0
H498 H 0.29785 0.7681 0.94586 0.0
H499 H 0.29259 0.77222 0.9676 0.0
H500 H 0.29526 0.74644 0.99028 0.0
H501 H 0.26097 0.75087 0.96646 0.0
H502 H 0.25128 0.75871 0.95022 0.0
H503 H 0.26185 0.79486 0.96757 0.0
H504 H 0.27157 0.78698 0.98372 0.0
H505 H 0.27809 0.78551 0.01932 0.0
H506 H 0.27373 0.79178 0.041 0.0
H507 H 0.26115 0.75486 0.04644 0.0
H508 H 0.26559 0.74863 0.02475 0.0
H509 H 0.26311 0.77258 0.00043 0.0
H510 H 0.29865 0.76986 0.02208 0.0
H511 H 0.3073 0.76415 0.04002 0.0
H512 H 0.29605 0.72669 0.02715 0.0
H513 H 0.28673 0.7326 0.00949 0.0
C514 C 0.287 0.75356 0.9702 0.0
C515 C 0.28606 0.74168 0.96458 0.0
C516 C 0.28908 0.73929 0.95212 0.0
C517 C 0.29309 0.74878 0.94512 0.0
C518 C 0.29453 0.76063 0.95094 0.0
C519 C 0.29158 0.76299 0.96337 0.0
C520 C 0.28255 0.75626 0.983 0.0
C521 C 0.28808 0.75196 0.99248 0.0
C522 C 0.27338 0.76371 0.98589 0.0
C523 C 0.26708 0.76835 0.97625 0.0
C524 C 0.26124 0.76049 0.96673 0.0
C525 C 0.25573 0.76498 0.95744 0.0
C526 C 0.25582 0.77741 0.95761 0.0
C527 C 0.2615 0.78524 0.96726 0.0
C528 C 0.26707 0.78075 0.97649 0.0
C529 C 0.2722 0.76662 0.02048 0.0
C530 C 0.27426 0.7788 0.02516 0.0
C531 C 0.27186 0.78234 0.03753 0.0
C532 C 0.26716 0.77378 0.04537 0.0
C533 C 0.26471 0.76163 0.04057 0.0
C534 C 0.26727 0.75807 0.02822 0.0
C535 C 0.27584 0.76283 0.00764 0.0
C536 C 0.27016 0.76691 0.99818 0.0
C537 C 0.28498 0.75536 0.00479 0.0
C538 C 0.29183 0.75166 0.0146 0.0
C539 C 0.29808 0.76041 0.0231 0.0
C540 C 0.30317 0.7571 0.03331 0.0
C541 C 0.30233 0.74493 0.03512 0.0
C542 C 0.29666 0.73615 0.02618 0.0
C543 C 0.29145 0.73949 0.01601 0.0
H544 H 0.03026 0.26539 0.23155 0.0
H545 H 0.04797 0.25507 0.22616 0.0
H546 H 0.05239 0.25213 0.26445 0.0
H547 H 0.03478 0.26258 0.26975 0.0
H548 H 0.00887 0.25857 0.24212 0.0
H549 H 0.04135 0.28971 0.25016 0.0
H550 H 0.06076 0.30016 0.25804 0.0
H551 H 0.04664 0.29812 0.29508 0.0
H552 H 0.02717 0.2876 0.28711 0.0
H553 H 0.98966 0.28359 0.28479 0.0
H554 H 0.97133 0.29214 0.29218 0.0
H555 H 0.96542 0.29979 0.25558 0.0
H556 H 0.98395 0.29139 0.24828 0.0
H557 H 0.01076 0.29401 0.27365 0.0
H558 H 0.97708 0.26208 0.26302 0.0
H559 H 0.95818 0.25315 0.25278 0.0
H560 H 0.97561 0.25918 0.21773 0.0
H561 H 0.99443 0.26817 0.22801 0.0
C562 C 0.03126 0.26487 0.25106 0.0
C563 C 0.03504 0.26251 0.23877 0.0
C564 C 0.04515 0.25656 0.23571 0.0
C565 C 0.05163 0.25278 0.24487 0.0
C566 C 0.04775 0.2551 0.25717 0.0
C567 C 0.03766 0.26105 0.26022 0.0
C568 C 0.02049 0.27114 0.25433 0.0
C569 C 0.00932 0.26642 0.24889 0.0
C570 C 0.02107 0.28139 0.26316 0.0
C571 C 0.03285 0.28771 0.26804 0.0
C572 C 0.04246 0.29138 0.25998 0.0
C573 C 0.05356 0.29736 0.2645 0.0
C574 C 0.05526 0.29991 0.27718 0.0
C575 C 0.04557 0.29637 0.28526 0.0
C576 C 0.03446 0.29034 0.28072 0.0
C577 C 0.98811 0.28676 0.26598 0.0
C578 C 0.98445 0.28716 0.27837 0.0
C579 C 0.97392 0.29196 0.28256 0.0
C580 C 0.96687 0.29656 0.27444 0.0
C581 C 0.97069 0.29637 0.26206 0.0
C582 C 0.98121 0.2915 0.25786 0.0
C583 C 0.99911 0.28128 0.26163 0.0
C584 C 0.01033 0.28617 0.26688 0.0
C585 C 0.99863 0.27139 0.25237 0.0
C586 C 0.98713 0.26592 0.24629 0.0
C587 C 0.97679 0.26159 0.25314 0.0
C588 C 0.966 0.2565 0.24728 0.0
C589 C 0.96541 0.25549 0.23445 0.0
C590 C 0.97582 0.25973 0.22762 0.0
C591 C 0.98657 0.26488 0.23348 0.0
H592 H 0.75984 0.02141 0.23656 0.0
H593 H 0.76814 0.03846 0.22562 0.0
H594 H 0.78194 0.05804 0.25955 0.0
H595 H 0.77393 0.04082 0.27035 0.0
H596 H 0.77339 0.00842 0.24936 0.0
H597 H 0.73916 0.03223 0.25937 0.0
H598 H 0.73254 0.05156 0.26718 0.0
H599 H 0.75101 0.05157 0.30089 0.0
H600 H 0.75747 0.03222 0.29312 0.0
H601 H 0.75336 0.99518 0.29667 0.0
H602 H 0.7462 0.97658 0.30565 0.0
H603 H 0.73767 0.95835 0.26955 0.0
H604 H 0.74444 0.97698 0.26074 0.0
H605 H 0.74319 0.00947 0.28403 0.0
H606 H 0.77604 0.98777 0.27788 0.0
H607 H 0.78781 0.9712 0.27246 0.0
H608 H 0.77785 0.96927 0.23468 0.0
H609 H 0.76584 0.98572 0.24022 0.0
C610 C 0.76618 0.02989 0.25427 0.0
C611 C 0.7646 0.02941 0.24164 0.0
C612 C 0.76927 0.03919 0.23542 0.0
C613 C 0.77569 0.04961 0.24172 0.0
C614 C 0.77712 0.05011 0.25442 0.0
C615 C 0.77245 0.04032 0.26063 0.0
C616 C 0.76181 0.01921 0.26064 0.0
C617 C 0.76659 0.00855 0.25676 0.0
C618 C 0.75353 0.01963 0.27078 0.0
C619 C 0.7488 0.03085 0.27568 0.0
C620 C 0.74167 0.03636 0.26848 0.0
C621 C 0.73788 0.04736 0.27295 0.0
C622 C 0.74133 0.05305 0.2846 0.0
C623 C 0.74832 0.04741 0.29184 0.0
C624 C 0.75194 0.03634 0.28746 0.0
C625 C 0.74955 0.98744 0.27803 0.0
C626 C 0.7498 0.9872 0.29073 0.0
C627 C 0.7458 0.97655 0.29583 0.0
C628 C 0.7414 0.96597 0.28831 0.0
C629 C 0.74087 0.96635 0.27563 0.0
C630 C 0.74486 0.97697 0.27055 0.0
C631 C 0.75442 0.99849 0.27243 0.0
C632 C 0.74984 0.00923 0.2765 0.0
C633 C 0.76327 0.9983 0.26276 0.0
C634 C 0.76996 0.98791 0.25947 0.0
C635 C 0.77624 0.98367 0.26846 0.0
C636 C 0.78307 0.97429 0.26533 0.0
C637 C 0.78377 0.96896 0.25314 0.0
C638 C 0.77737 0.97312 0.24417 0.0
C639 C 0.77058 0.98256 0.2473 0.0
H640 H 0.04966 0.75227 0.28775 0.0
H641 H 0.06461 0.74111 0.29514 0.0
H642 H 0.08538 0.77454 0.31035 0.0
H643 H 0.07029 0.78559 0.30318 0.0
H644 H 0.03483 0.76827 0.29952 0.0
H645 H 0.06673 0.76805 0.2685 0.0
H646 H 0.08825 0.77017 0.26213 0.0
H647 H 0.09267 0.80746 0.27758 0.0
H648 H 0.07104 0.80528 0.28372 0.0
H649 H 0.03277 0.81351 0.28192 0.0
H650 H 0.01702 0.82332 0.27388 0.0
H651 H 0.99938 0.78871 0.2578 0.0
H652 H 0.01528 0.77911 0.26549 0.0
H653 H 0.04935 0.79771 0.27025 0.0
H654 H 0.01658 0.79723 0.30125 0.0
H655 H 0.99461 0.79468 0.30558 0.0
H656 H 0.9917 0.75793 0.28856 0.0
H657 H 0.01374 0.7605 0.28462 0.0
C658 C 0.05892 0.76974 0.29485 0.0
C659 C 0.05736 0.75716 0.29281 0.0
C660 C 0.06596 0.75082 0.29694 0.0
C661 C 0.0762 0.75696 0.30327 0.0
C662 C 0.07754 0.76955 0.30559 0.0
C663 C 0.06897 0.77588 0.30144 0.0
C664 C 0.05039 0.77651 0.28959 0.0
C665 C 0.038 0.77464 0.29308 0.0
C666 C 0.05452 0.78491 0.28127 0.0
C667 C 0.06734 0.78649 0.27666 0.0
C668 C 0.07234 0.77669 0.27045 0.0
C669 C 0.08466 0.77791 0.26689 0.0
C670 C 0.09222 0.78896 0.26944 0.0
C671 C 0.08708 0.79885 0.27536 0.0
C672 C 0.07473 0.79763 0.2789 0.0
C673 C 0.02511 0.79559 0.27436 0.0
C674 C 0.0256 0.8081 0.27648 0.0
C675 C 0.01655 0.81367 0.27199 0.0
C676 C 0.00691 0.8068 0.26524 0.0
C677 C 0.00673 0.7943 0.26282 0.0
C678 C 0.01577 0.78878 0.26728 0.0
C679 C 0.03383 0.78947 0.28019 0.0
C680 C 0.04623 0.79144 0.2768 0.0
C681 C 0.02971 0.7811 0.28854 0.0
C682 C 0.01674 0.77906 0.29257 0.0
C683 C 0.0112 0.78858 0.29864 0.0
C684 C 0.99863 0.78713 0.301 0.0
C685 C 0.99134 0.77614 0.29729 0.0
C686 C 0.99703 0.76647 0.29167 0.0
C687 C 0.00963 0.76791 0.28939 0.0
H688 H 0.24701 0.02946 0.26584 0.0
H689 H 0.23785 0.04531 0.25808 0.0
H690 H 0.27383 0.06385 0.25055 0.0
H691 H 0.2829 0.04778 0.25795 0.0
H692 H 0.26219 0.01397 0.25476 0.0
H693 H 0.26413 0.04583 0.28878 0.0
H694 H 0.26945 0.06695 0.2969 0.0
H695 H 0.30745 0.06466 0.28791 0.0
H696 H 0.30201 0.04364 0.27949 0.0
H697 H 0.30547 0.0077 0.27973 0.0
H698 H 0.31368 0.99135 0.28768 0.0
H699 H 0.27701 0.97356 0.29344 0.0
H700 H 0.26889 0.98989 0.28553 0.0
H701 H 0.29062 0.02361 0.28935 0.0
H702 H 0.28998 0.9936 0.25469 0.0
H703 H 0.28625 0.97267 0.24551 0.0
H704 H 0.24783 0.97161 0.25462 0.0
H705 H 0.25165 0.99258 0.2639 0.0
C706 C 0.26563 0.03749 0.2626 0.0
C707 C 0.25291 0.0369 0.26243 0.0
C708 C 0.24769 0.04602 0.25809 0.0
C709 C 0.2551 0.0559 0.25376 0.0
C710 C 0.26785 0.05634 0.25372 0.0
C711 C 0.27306 0.04721 0.25806 0.0
C712 C 0.27112 0.02803 0.26769 0.0
C713 C 0.26828 0.01608 0.26242 0.0
C714 C 0.27936 0.03078 0.27744 0.0
C715 C 0.28266 0.04323 0.28339 0.0
C716 C 0.27361 0.04988 0.2886 0.0
C717 C 0.27667 0.06192 0.29332 0.0
C718 C 0.28887 0.06749 0.29298 0.0
C719 C 0.29796 0.06067 0.28814 0.0
C720 C 0.29488 0.04864 0.28342 0.0
C721 C 0.28657 0.99995 0.28187 0.0
C722 C 0.29921 0.00031 0.28279 0.0
C723 C 0.30389 0.99097 0.28735 0.0
C724 C 0.296 0.98109 0.2911 0.0
C725 C 0.28334 0.9809 0.29041 0.0
C726 C 0.27868 0.99025 0.2859 0.0
C727 C 0.28158 0.00956 0.27651 0.0
C728 C 0.28451 0.02152 0.28171 0.0
C729 C 0.27358 0.00687 0.26656 0.0
C730 C 0.2711 0.99457 0.26006 0.0
C731 C 0.28074 0.98888 0.25461 0.0
C732 C 0.27859 0.97696 0.24931 0.0
C733 C 0.26676 0.97051 0.2494 0.0
C734 C 0.25705 0.97635 0.25454 0.0
C735 C 0.2592 0.98832 0.25976 0.0
H736 H 0.02482 0.77566 0.79588 0.0
H737 H 0.04268 0.78464 0.80782 0.0
H738 H 0.0619 0.7943 0.77463 0.0
H739 H 0.04393 0.78559 0.76281 0.0
H740 H 0.0109 0.78629 0.78264 0.0
H741 H 0.03484 0.75446 0.77511 0.0
H742 H 0.0526 0.74438 0.76923 0.0
H743 H 0.05225 0.75487 0.73281 0.0
H744 H 0.03442 0.76485 0.73874 0.0
H745 H 0.99728 0.7688 0.73338 0.0
H746 H 0.97927 0.76003 0.72147 0.0
H747 H 0.96199 0.74602 0.7537 0.0
H748 H 0.97997 0.75483 0.76555 0.0
H749 H 0.01201 0.75606 0.7461 0.0
H750 H 0.98719 0.78782 0.75453 0.0
H751 H 0.96877 0.79665 0.76111 0.0
H752 H 0.97067 0.78524 0.79693 0.0
H753 H 0.98886 0.77614 0.79019 0.0
C754 C 0.03307 0.7799 0.77845 0.0
C755 C 0.0329 0.77969 0.79119 0.0
C756 C 0.04314 0.78474 0.79798 0.0
C757 C 0.05369 0.79018 0.79216 0.0
C758 C 0.05386 0.79027 0.77939 0.0
C759 C 0.04364 0.78521 0.77261 0.0
C760 C 0.02203 0.77501 0.77133 0.0
C761 C 0.0111 0.77956 0.77475 0.0
C762 C 0.02238 0.76639 0.7609 0.0
C763 C 0.03335 0.76051 0.7574 0.0
C764 C 0.03867 0.7547 0.76589 0.0
C765 C 0.04884 0.74895 0.76252 0.0
C766 C 0.05388 0.74882 0.75055 0.0
C767 C 0.04852 0.75465 0.74206 0.0
C768 C 0.03835 0.7604 0.74544 0.0
C769 C 0.98991 0.76249 0.75033 0.0
C770 C 0.98958 0.76389 0.73787 0.0
C771 C 0.97928 0.75895 0.73111 0.0
C772 C 0.96928 0.75234 0.73668 0.0
C773 C 0.96963 0.751 0.74918 0.0
C774 C 0.97984 0.75607 0.75596 0.0
C775 C 0.00094 0.76738 0.75741 0.0
C776 C 0.01185 0.76282 0.75397 0.0
C777 C 0.00054 0.77586 0.76792 0.0
C778 C 0.98934 0.7812 0.77183 0.0
C779 C 0.98355 0.7871 0.76376 0.0
C780 C 0.9731 0.79225 0.76756 0.0
C781 C 0.96823 0.79163 0.77953 0.0
C782 C 0.97407 0.78573 0.7876 0.0
C783 C 0.98453 0.78061 0.78379 0.0
H784 H 0.26876 0.02497 0.73859 0.0
H785 H 0.27313 0.04219 0.72696 0.0
H786 H 0.28651 0.06454 0.75966 0.0
H787 H 0.28191 0.04729 0.77127 0.0
H788 H 0.28492 0.01483 0.75126 0.0
H789 H 0.24975 0.03572 0.76044 0.0
H790 H 0.23988 0.0532 0.76825 0.0
H791 H 0.25405 0.05266 0.80406 0.0
H792 H 0.26412 0.0354 0.79618 0.0
H793 H 0.26701 0.00212 0.79985 0.0
H794 H 0.26129 0.98421 0.81015 0.0
H795 H 0.25741 0.96257 0.77491 0.0
H796 H 0.26188 0.98061 0.76479 0.0
H797 H 0.2557 0.01333 0.7867 0.0
H798 H 0.29218 0.99542 0.77915 0.0
H799 H 0.30393 0.97887 0.77304 0.0
H800 H 0.28984 0.97502 0.73658 0.0
H801 H 0.27801 0.99147 0.74277 0.0
C802 C 0.27494 0.03488 0.75579 0.0
C803 C 0.27263 0.0336 0.74324 0.0
C804 C 0.27517 0.04344 0.7366 0.0
C805 C 0.28018 0.05475 0.74237 0.0
C806 C 0.28248 0.056 0.75497 0.0
C807 C 0.2799 0.04615 0.76162 0.0
C808 C 0.27235 0.02433 0.76268 0.0
C809 C 0.27844 0.01444 0.75894 0.0
C810 C 0.26426 0.02404 0.773 0.0
C811 C 0.25783 0.03435 0.77768 0.0
C812 C 0.25083 0.03944 0.76994 0.0
C813 C 0.24517 0.0494 0.77441 0.0
C814 C 0.24622 0.05429 0.78675 0.0
C815 C 0.25299 0.04901 0.79454 0.0
C816 C 0.25876 0.03916 0.79004 0.0
C817 C 0.26508 0.99275 0.78152 0.0
C818 C 0.26481 0.99352 0.79435 0.0
C819 C 0.26169 0.9832 0.80024 0.0
C820 C 0.25893 0.97184 0.79342 0.0
C821 C 0.25927 0.97112 0.78055 0.0
C822 C 0.26208 0.98146 0.77469 0.0
C823 C 0.26822 0.00374 0.77525 0.0
C824 C 0.26224 0.01371 0.77908 0.0
C825 C 0.27669 0.00429 0.76524 0.0
C826 C 0.28415 0.99458 0.76143 0.0
C827 C 0.29163 0.991 0.76984 0.0
C828 C 0.29839 0.98161 0.76633 0.0
C829 C 0.29775 0.97564 0.75435 0.0
C830 C 0.29038 0.97937 0.74591 0.0
C831 C 0.2837 0.98881 0.7494 0.0
H832 H 0.03582 0.3186 0.76911 0.0
H833 H 0.01823 0.3247 0.76002 0.0
H834 H 0.0018 0.33134 0.79604 0.0
H835 H 0.01924 0.32493 0.80508 0.0
H836 H 0.05266 0.32897 0.79014 0.0
H837 H 0.02131 0.29659 0.7761 0.0
H838 H 0.99942 0.28957 0.77465 0.0
H839 H 0.9966 0.28952 0.8139 0.0
H840 H 0.01848 0.29704 0.81537 0.0
H841 H 0.05489 0.29359 0.82357 0.0
H842 H 0.06909 0.28134 0.83029 0.0
H843 H 0.09001 0.28423 0.79641 0.0
H844 H 0.07546 0.29606 0.78954 0.0
H845 H 0.04018 0.28904 0.80457 0.0
H846 H 0.07435 0.31876 0.81721 0.0
H847 H 0.09578 0.32799 0.81713 0.0
H848 H 0.09352 0.3332 0.77913 0.0
H849 H 0.07229 0.32366 0.7791 0.0
C850 C 0.02878 0.32133 0.78773 0.0
C851 C 0.0286 0.32172 0.77506 0.0
C852 C 0.01855 0.3251 0.76989 0.0
C853 C 0.00873 0.32843 0.77737 0.0
C854 C 0.00933 0.32888 0.79013 0.0
C855 C 0.01927 0.32527 0.79528 0.0
C856 C 0.0378 0.315 0.79277 0.0
C857 C 0.05003 0.32022 0.79326 0.0
C858 C 0.03422 0.30364 0.79687 0.0
C859 C 0.02144 0.29759 0.79587 0.0
C860 C 0.01598 0.29507 0.7844 0.0
C861 C 0.00351 0.29105 0.78357 0.0
C862 C 0.99634 0.28914 0.79418 0.0
C863 C 0.00195 0.29092 0.80559 0.0
C864 C 0.01442 0.29518 0.80644 0.0
C865 C 0.06418 0.29585 0.80612 0.0
C866 C 0.06253 0.29157 0.81759 0.0
C867 C 0.07072 0.28465 0.82146 0.0
C868 C 0.08073 0.28185 0.81391 0.0
C869 C 0.08234 0.28613 0.80239 0.0
C870 C 0.07411 0.29301 0.79851 0.0
C871 C 0.05527 0.30296 0.80198 0.0
C872 C 0.04294 0.29784 0.80161 0.0
C873 C 0.05887 0.31436 0.79785 0.0
C874 C 0.07173 0.32036 0.79811 0.0
C875 C 0.07849 0.32179 0.80883 0.0
C876 C 0.09071 0.32711 0.8088 0.0
C877 C 0.09627 0.33133 0.79814 0.0
C878 C 0.08941 0.33016 0.78753 0.0
C879 C 0.07728 0.32469 0.7875 0.0
H880 H 0.74857 0.03001 0.76804 0.0
H881 H 0.73965 0.04555 0.75945 0.0
H882 H 0.77577 0.06455 0.75349 0.0
H883 H 0.78462 0.0488 0.76178 0.0
H884 H 0.7649 0.01471 0.75817 0.0
H885 H 0.76384 0.04769 0.79109 0.0
H886 H 0.76875 0.06906 0.7984 0.0
H887 H 0.80718 0.06636 0.79343 0.0
H888 H 0.80219 0.04515 0.78568 0.0
H889 H 0.80069 0.99913 0.77136 0.0
H890 H 0.8093 0.98305 0.77946 0.0
H891 H 0.78607 0.98686 0.81185 0.0
H892 H 0.77758 0.00301 0.80374 0.0
H893 H 0.79031 0.02566 0.795 0.0
H894 H 0.78159 0.9998 0.74787 0.0
H895 H 0.78003 0.97881 0.73877 0.0
H896 H 0.76279 0.96747 0.77223 0.0
H897 H 0.76433 0.98844 0.78123 0.0
C898 C 0.76724 0.0383 0.76565 0.0
C899 C 0.75456 0.03747 0.76477 0.0
C900 C 0.74947 0.04641 0.75997 0.0
C901 C 0.75699 0.05634 0.75586 0.0
C902 C 0.76972 0.05699 0.75648 0.0
C903 C 0.77479 0.04804 0.76129 0.0
C904 C 0.77253 0.02916 0.77146 0.0
C905 C 0.77041 0.01712 0.76624 0.0
C906 C 0.77977 0.03227 0.78199 0.0
C907 C 0.78264 0.04488 0.78766 0.0
C908 C 0.77332 0.05171 0.7916 0.0
C909 C 0.77614 0.0639 0.79588 0.0
C910 C 0.78836 0.06944 0.79639 0.0
C911 C 0.79768 0.06242 0.79294 0.0
C912 C 0.79484 0.05027 0.78862 0.0
C913 C 0.78852 0.00223 0.78697 0.0
C914 C 0.79756 0.99657 0.78026 0.0
C915 C 0.80247 0.98742 0.78489 0.0
C916 C 0.79831 0.9837 0.79626 0.0
C917 C 0.78936 0.98949 0.80303 0.0
C918 C 0.78458 0.99877 0.79846 0.0
C919 C 0.78269 0.01131 0.78168 0.0
C920 C 0.78471 0.02329 0.78699 0.0
C921 C 0.77544 0.00819 0.7712 0.0
C922 C 0.77321 0.99564 0.76526 0.0
C923 C 0.7773 0.99278 0.75316 0.0
C924 C 0.77641 0.9808 0.74798 0.0
C925 C 0.77142 0.9715 0.75484 0.0
C926 C 0.7669 0.97444 0.7668 0.0
C927 C 0.76773 0.9864 0.77194 0.0
H928 H 0.31358 0.76209 0.51509 0.0
H929 H 0.31986 0.7721 0.49686 0.0
H930 H 0.28308 0.77963 0.49396 0.0
H931 H 0.27698 0.76995 0.51235 0.0
H932 H 0.30464 0.77001 0.53717 0.0
H933 H 0.29157 0.73984 0.50487 0.0
H934 H 0.28187 0.73148 0.4856 0.0
H935 H 0.247 0.73903 0.50132 0.0
H936 H 0.25678 0.74731 0.52063 0.0
H937 H 0.25883 0.7466 0.55597 0.0
H938 H 0.25003 0.73735 0.5739 0.0
H939 H 0.28574 0.73111 0.58321 0.0
H940 H 0.2945 0.73972 0.56486 0.0
H941 H 0.26905 0.73782 0.53642 0.0
H942 H 0.28456 0.77192 0.56761 0.0
H943 H 0.29592 0.781 0.58593 0.0
H944 H 0.3271 0.7644 0.57175 0.0
H945 H 0.31583 0.7556 0.55335 0.0
C946 C 0.29478 0.76515 0.51501 0.0
C947 C 0.3069 0.76596 0.51055 0.0
C948 C 0.31045 0.7716 0.50008 0.0
C949 C 0.30196 0.77662 0.49392 0.0
C950 C 0.28987 0.77596 0.49854 0.0
C951 C 0.28634 0.77031 0.50898 0.0
C952 C 0.29091 0.75895 0.52596 0.0
C953 C 0.29695 0.76287 0.53697 0.0
C954 C 0.28089 0.74963 0.52574 0.0
C955 C 0.27491 0.74431 0.51415 0.0
C956 C 0.28184 0.73974 0.50415 0.0
C957 C 0.27629 0.73499 0.49313 0.0
C958 C 0.26367 0.73464 0.49191 0.0
C959 C 0.25672 0.73905 0.50201 0.0
C960 C 0.26229 0.74381 0.51304 0.0
C961 C 0.27739 0.74406 0.55909 0.0
C962 C 0.2648 0.74321 0.56181 0.0
C963 C 0.25977 0.73795 0.57206 0.0
C964 C 0.26724 0.73359 0.57991 0.0
C965 C 0.27984 0.73455 0.57734 0.0
C966 C 0.28485 0.73957 0.56691 0.0
C967 C 0.28248 0.74919 0.5478 0.0
C968 C 0.27673 0.74498 0.53665 0.0
C969 C 0.29286 0.75813 0.54787 0.0
C970 C 0.29938 0.76309 0.55919 0.0
C971 C 0.29382 0.77021 0.5685 0.0
C972 C 0.3003 0.77538 0.5789 0.0
C973 C 0.31234 0.77334 0.5802 0.0
C974 C 0.31779 0.76601 0.57098 0.0
C975 C 0.3114 0.76105 0.56048 0.0
H976 H 0.77648 0.73415 0.47687 0.0
H977 H 0.78178 0.73035 0.45496 0.0
H978 H 0.79969 0.76693 0.4557 0.0
H979 H 0.79455 0.77061 0.47751 0.0
H980 H 0.78951 0.74214 0.4983 0.0
H981 H 0.75836 0.75494 0.47632 0.0
H982 H 0.75272 0.76442 0.45904 0.0
H983 H 0.77255 0.79828 0.47439 0.0
H984 H 0.7783 0.78866 0.49162 0.0
H985 H 0.78156 0.78373 0.5295 0.0
H986 H 0.77709 0.78978 0.55121 0.0
H987 H 0.75505 0.75537 0.55363 0.0
H988 H 0.75962 0.74933 0.53193 0.0
H989 H 0.76521 0.77556 0.50948 0.0
H990 H 0.79622 0.76206 0.5317 0.0
H991 H 0.80226 0.7519 0.54827 0.0
H992 H 0.78223 0.71847 0.53207 0.0
H993 H 0.77589 0.72883 0.51568 0.0
C994 C 0.78495 0.75271 0.47874 0.0
C995 C 0.78172 0.74126 0.47234 0.0
C996 C 0.78473 0.73912 0.45984 0.0
C997 C 0.79098 0.7484 0.45361 0.0
C998 C 0.79466 0.75968 0.46021 0.0
C999 C 0.79176 0.76178 0.47267 0.0
C1000 C 0.78056 0.75555 0.49154 0.0
C1001 C 0.78404 0.7493 0.50073 0.0
C1002 C 0.77347 0.76494 0.49472 0.0
C1003 C 0.76881 0.77109 0.48518 0.0
C1004 C 0.76135 0.76444 0.47603 0.0
C1005 C 0.7581 0.76988 0.46621 0.0
C1006 C 0.76224 0.78208 0.46535 0.0
C1007 C 0.76933 0.78883 0.47476 0.0
C1008 C 0.77253 0.78339 0.48465 0.0
C1009 C 0.77094 0.76609 0.52916 0.0
C1010 C 0.77569 0.77754 0.5347 0.0
C1011 C 0.77321 0.78094 0.54709 0.0
C1012 C 0.76577 0.77301 0.55407 0.0
C1013 C 0.76076 0.76166 0.54843 0.0
C1014 C 0.76338 0.7582 0.53607 0.0
C1015 C 0.77429 0.76225 0.51627 0.0
C1016 C 0.77058 0.76832 0.50706 0.0
C1017 C 0.78105 0.75261 0.51308 0.0
C1018 C 0.78548 0.74622 0.52257 0.0
C1019 C 0.79313 0.75255 0.53172 0.0
C1020 C 0.79667 0.7467 0.54113 0.0
C1021 C 0.79269 0.73438 0.54151 0.0
C1022 C 0.7853 0.728 0.53212 0.0
C1023 C 0.78176 0.73387 0.52271 0.0
H1024 H 0.79888 0.28212 0.55591 0.0
H1025 H 0.80901 0.29111 0.57468 0.0
H1026 H 0.81554 0.25601 0.582 0.0
H1027 H 0.80619 0.2472 0.5627 0.0
H1028 H 0.80594 0.27156 0.53588 0.0
H1029 H 0.77662 0.26 0.56653 0.0
H1030 H 0.76793 0.25142 0.58483 0.0
H1031 H 0.7755 0.21643 0.56885 0.0
H1032 H 0.78423 0.22509 0.55054 0.0
H1033 H 0.78393 0.2264 0.51175 0.0
H1034 H 0.7734 0.2182 0.49277 0.0
H1035 H 0.76019 0.25204 0.49168 0.0
H1036 H 0.77058 0.2601 0.51071 0.0
H1037 H 0.77402 0.23585 0.53435 0.0
H1038 H 0.80294 0.24953 0.50271 0.0
H1039 H 0.80897 0.25958 0.48448 0.0
H1040 H 0.79911 0.29267 0.50338 0.0
H1041 H 0.79282 0.28248 0.52146 0.0
C1042 C 0.80161 0.26394 0.55793 0.0
C1043 C 0.80261 0.27636 0.56149 0.0
C1044 C 0.80828 0.28148 0.57233 0.0
C1045 C 0.81299 0.27429 0.57998 0.0
C1046 C 0.81213 0.26186 0.57632 0.0
C1047 C 0.80661 0.25677 0.56535 0.0
C1048 C 0.79544 0.25859 0.54641 0.0
C1049 C 0.79887 0.26382 0.53562 0.0
C1050 C 0.78627 0.24842 0.54598 0.0
C1051 C 0.78122 0.24322 0.55721 0.0
C1052 C 0.77656 0.25051 0.56702 0.0
C1053 C 0.7716 0.24559 0.57749 0.0
C1054 C 0.77107 0.23325 0.57832 0.0
C1055 C 0.77568 0.22595 0.56845 0.0
C1056 C 0.7807 0.23089 0.558 0.0
C1057 C 0.7781 0.24387 0.51256 0.0
C1058 C 0.77873 0.23202 0.50742 0.0
C1059 C 0.77279 0.22738 0.49655 0.0
C1060 C 0.76599 0.23449 0.49074 0.0
C1061 C 0.76527 0.24632 0.49601 0.0
C1062 C 0.77127 0.25096 0.50682 0.0
C1063 C 0.78455 0.24884 0.52396 0.0
C1064 C 0.78116 0.24353 0.53469 0.0
C1065 C 0.79348 0.25915 0.52443 0.0
C1066 C 0.79735 0.26524 0.51341 0.0
C1067 C 0.80201 0.25893 0.50289 0.0
C1068 C 0.80554 0.26471 0.49251 0.0
C1069 C 0.8045 0.27692 0.49248 0.0
C1070 C 0.79987 0.28322 0.50305 0.0
C1071 C 0.79638 0.27744 0.51343 0.0
H1072 H 0.29586 0.23461 0.47258 0.0
H1073 H 0.30277 0.23311 0.45104 0.0
H1074 H 0.31199 0.27173 0.45406 0.0
H1075 H 0.30491 0.27314 0.47546 0.0
H1076 H 0.30605 0.24628 0.49619 0.0
H1077 H 0.27424 0.24778 0.46853 0.0
H1078 H 0.26766 0.25507 0.45026 0.0
H1079 H 0.27253 0.29128 0.46869 0.0
H1080 H 0.27938 0.28397 0.4869 0.0
H1081 H 0.27879 0.28091 0.52272 0.0
H1082 H 0.27132 0.28567 0.54376 0.0
H1083 H 0.26668 0.24806 0.54866 0.0
H1084 H 0.27372 0.24326 0.52746 0.0
H1085 H 0.26993 0.26781 0.50253 0.0
H1086 H 0.30318 0.26656 0.52943 0.0
H1087 H 0.30978 0.25954 0.54785 0.0
H1088 H 0.30168 0.22284 0.53108 0.0
H1089 H 0.29516 0.22996 0.51266 0.0
C1090 C 0.29977 0.25399 0.47553 0.0
C1091 C 0.29966 0.2427 0.46866 0.0
C1092 C 0.30359 0.24187 0.45635 0.0
C1093 C 0.30773 0.25232 0.4508 0.0
C1094 C 0.30859 0.26354 0.458 0.0
C1095 C 0.30466 0.26435 0.47024 0.0
C1096 C 0.2934 0.25515 0.48763 0.0
C1097 C 0.29807 0.25083 0.49757 0.0
C1098 C 0.28301 0.26115 0.4894 0.0
C1099 C 0.2775 0.26536 0.47899 0.0
C1100 C 0.27387 0.25729 0.46865 0.0
C1101 C 0.27013 0.26145 0.45822 0.0
C1102 C 0.26972 0.27375 0.45803 0.0
C1103 C 0.27273 0.28175 0.46862 0.0
C1104 C 0.27662 0.27759 0.47901 0.0
C1105 C 0.27702 0.26175 0.52357 0.0
C1106 C 0.27594 0.27366 0.52824 0.0
C1107 C 0.2717 0.27637 0.54025 0.0
C1108 C 0.26854 0.26724 0.54783 0.0
C1109 C 0.26921 0.25528 0.54304 0.0
C1110 C 0.27325 0.25254 0.53095 0.0
C1111 C 0.28268 0.25913 0.51123 0.0
C1112 C 0.27786 0.26317 0.50119 0.0
C1113 C 0.29291 0.25289 0.50939 0.0
C1114 C 0.29855 0.24876 0.51976 0.0
C1115 C 0.30298 0.25702 0.52968 0.0
C1116 C 0.30667 0.25299 0.54022 0.0
C1117 C 0.3061 0.24063 0.54098 0.0
C1118 C 0.30229 0.23242 0.53076 0.0
C1119 C 0.29857 0.23646 0.52022 0.0
H1120 H 0.74169 0.52808 0.80082 0.0
H1121 H 0.73375 0.54661 0.80878 0.0
H1122 H 0.72322 0.55063 0.77238 0.0
H1123 H 0.73093 0.53194 0.76448 0.0
H1124 H 0.73206 0.50662 0.78908 0.0
H1125 H 0.76251 0.54064 0.77826 0.0
H1126 H 0.76969 0.55845 0.76797 0.0
H1127 H 0.75755 0.53881 0.73344 0.0
H1128 H 0.75065 0.52105 0.74375 0.0
H1129 H 0.7582 0.48634 0.74632 0.0
H1130 H 0.76985 0.46963 0.74071 0.0
H1131 H 0.77814 0.46995 0.77875 0.0
H1132 H 0.76674 0.48681 0.78424 0.0
H1133 H 0.76504 0.50901 0.75704 0.0
H1134 H 0.73528 0.47655 0.76428 0.0
H1135 H 0.73011 0.45653 0.77067 0.0
H1136 H 0.7384 0.47107 0.80801 0.0
H1137 H 0.74354 0.49122 0.80151 0.0
C1138 C 0.73709 0.52872 0.78202 0.0
C1139 C 0.7375 0.53285 0.79458 0.0
C1140 C 0.73296 0.54343 0.79912 0.0
C1141 C 0.72796 0.5501 0.79117 0.0
C1142 C 0.72719 0.54576 0.77867 0.0
C1143 C 0.7316 0.53509 0.77415 0.0
C1144 C 0.74291 0.51807 0.77718 0.0
C1145 C 0.73934 0.50721 0.78217 0.0
C1146 C 0.75204 0.51859 0.76774 0.0
C1147 C 0.75603 0.52956 0.76175 0.0
C1148 C 0.76134 0.54023 0.76849 0.0
C1149 C 0.76539 0.5504 0.7626 0.0
C1150 C 0.76423 0.55004 0.74987 0.0
C1151 C 0.75877 0.53935 0.74321 0.0
C1152 C 0.75478 0.5292 0.74909 0.0
C1153 C 0.76153 0.48774 0.7657 0.0
C1154 C 0.76258 0.48284 0.75342 0.0
C1155 C 0.76915 0.47324 0.75025 0.0
C1156 C 0.77487 0.46847 0.7593 0.0
C1157 C 0.77392 0.4735 0.77157 0.0
C1158 C 0.76733 0.48306 0.77473 0.0
C1159 C 0.75441 0.49778 0.76916 0.0
C1160 C 0.75772 0.50846 0.76392 0.0
C1161 C 0.74478 0.49698 0.77801 0.0
C1162 C 0.73995 0.48532 0.7824 0.0
C1163 C 0.73584 0.47546 0.77387 0.0
C1164 C 0.73295 0.46402 0.77752 0.0
C1165 C 0.73405 0.46221 0.7898 0.0
C1166 C 0.73745 0.47221 0.79849 0.0
C1167 C 0.74038 0.48371 0.7948 0.0
H1168 H 0.29487 0.54112 0.77548 0.0
H1169 H 0.30088 0.56262 0.78153 0.0
H1170 H 0.26386 0.56582 0.79403 0.0
H1171 H 0.25802 0.54426 0.7883 0.0
H1172 H 0.28431 0.52256 0.78931 0.0
H1173 H 0.27381 0.53976 0.75201 0.0
H1174 H 0.26446 0.5552 0.74354 0.0
H1175 H 0.2308 0.54464 0.76321 0.0
H1176 H 0.24011 0.52903 0.77143 0.0
H1177 H 0.24408 0.4895 0.76542 0.0
H1178 H 0.24025 0.46803 0.75777 0.0
H1179 H 0.27899 0.46761 0.75248 0.0
H1180 H 0.28278 0.48907 0.75961 0.0
H1181 H 0.25401 0.50939 0.75671 0.0
H1182 H 0.26277 0.48862 0.78949 0.0
H1183 H 0.27168 0.47326 0.79833 0.0
H1184 H 0.30779 0.49095 0.78987 0.0
H1185 H 0.2988 0.50632 0.78105 0.0
C1186 C 0.27598 0.54114 0.78132 0.0
C1187 C 0.28809 0.54645 0.77963 0.0
C1188 C 0.29148 0.55875 0.78299 0.0
C1189 C 0.28283 0.56594 0.78818 0.0
C1190 C 0.27076 0.56052 0.79014 0.0
C1191 C 0.26739 0.54822 0.78677 0.0
C1192 C 0.2723 0.52825 0.77706 0.0
C1193 C 0.27776 0.51966 0.78213 0.0
C1194 C 0.26347 0.52448 0.76799 0.0
C1195 C 0.25762 0.53327 0.7623 0.0
C1196 C 0.26437 0.54069 0.75436 0.0
C1197 C 0.25904 0.54948 0.74954 0.0
C1198 C 0.24694 0.5511 0.75277 0.0
C1199 C 0.24017 0.54359 0.76065 0.0
C1200 C 0.24543 0.53465 0.76527 0.0
C1201 C 0.26373 0.49085 0.76335 0.0
C1202 C 0.25173 0.48482 0.76245 0.0
C1203 C 0.24955 0.47258 0.75811 0.0
C1204 C 0.25934 0.46619 0.75472 0.0
C1205 C 0.2713 0.47231 0.75524 0.0
C1206 C 0.27346 0.48455 0.75935 0.0
C1207 C 0.2662 0.5036 0.76878 0.0
C1208 C 0.26049 0.51221 0.76396 0.0
C1209 C 0.27465 0.50735 0.77828 0.0
C1210 C 0.28011 0.49855 0.78448 0.0
C1211 C 0.27261 0.4892 0.78955 0.0
C1212 C 0.27772 0.48039 0.79456 0.0
C1213 C 0.29045 0.48081 0.79471 0.0
C1214 C 0.29795 0.49041 0.78998 0.0
C1215 C 0.29283 0.49921 0.78493 0.0
H1216 H 0.27449 0.53132 0.2493 0.0
H1217 H 0.2818 0.55081 0.2422 0.0
H1218 H 0.29003 0.56587 0.27943 0.0
H1219 H 0.28268 0.54639 0.28644 0.0
H1220 H 0.28668 0.51689 0.26162 0.0
H1221 H 0.24933 0.53607 0.26917 0.0
H1222 H 0.24034 0.55415 0.27697 0.0
H1223 H 0.25524 0.55365 0.31245 0.0
H1224 H 0.26401 0.53543 0.30467 0.0
H1225 H 0.26183 0.49652 0.30376 0.0
H1226 H 0.25495 0.4764 0.30964 0.0
H1227 H 0.25102 0.46243 0.27148 0.0
H1228 H 0.25772 0.48251 0.26567 0.0
H1229 H 0.25222 0.51188 0.29184 0.0
H1230 H 0.28702 0.49146 0.28586 0.0
H1231 H 0.2984 0.47491 0.27863 0.0
H1232 H 0.29121 0.47897 0.24122 0.0
H1233 H 0.27963 0.49536 0.24852 0.0
C1234 C 0.27789 0.53746 0.26841 0.0
C1235 C 0.2779 0.53883 0.25591 0.0
C1236 C 0.28212 0.54995 0.25187 0.0
C1237 C 0.28646 0.5599 0.26026 0.0
C1238 C 0.28655 0.55845 0.27277 0.0
C1239 C 0.28236 0.54732 0.27679 0.0
C1240 C 0.27333 0.52566 0.27266 0.0
C1241 C 0.27904 0.51574 0.26809 0.0
C1242 C 0.26366 0.52426 0.28141 0.0
C1243 C 0.25731 0.53447 0.28637 0.0
C1244 C 0.25049 0.53977 0.27868 0.0
C1245 C 0.24536 0.55005 0.28313 0.0
C1246 C 0.24716 0.55527 0.29528 0.0
C1247 C 0.25379 0.54981 0.30303 0.0
C1248 C 0.25873 0.5394 0.29864 0.0
C1249 C 0.2605 0.49098 0.28427 0.0
C1250 C 0.25936 0.48914 0.29668 0.0
C1251 C 0.25542 0.47766 0.30003 0.0
C1252 C 0.25258 0.46783 0.29101 0.0
C1253 C 0.25336 0.46979 0.27862 0.0
C1254 C 0.25719 0.48126 0.27529 0.0
C1255 C 0.26543 0.50297 0.28062 0.0
C1256 C 0.25983 0.51296 0.28533 0.0
C1257 C 0.27536 0.50447 0.27212 0.0
C1258 C 0.28239 0.49456 0.26772 0.0
C1259 C 0.28785 0.48873 0.2761 0.0
C1260 C 0.29442 0.47935 0.27197 0.0
C1261 C 0.29568 0.47564 0.25937 0.0
C1262 C 0.29027 0.48154 0.25099 0.0
C1263 C 0.28374 0.49096 0.25513 0.0
H1264 H 0.74239 0.52566 0.26453 0.0
H1265 H 0.73385 0.54126 0.25564 0.0
H1266 H 0.77028 0.5594 0.24932 0.0
H1267 H 0.77874 0.54359 0.25787 0.0
H1268 H 0.7583 0.5098 0.25519 0.0
H1269 H 0.7579 0.54306 0.28764 0.0
H1270 H 0.76275 0.5644 0.29505 0.0
H1271 H 0.80116 0.56206 0.28915 0.0
H1272 H 0.79622 0.54081 0.2814 0.0
H1273 H 0.79966 0.50553 0.2837 0.0
H1274 H 0.80772 0.4896 0.29249 0.0
H1275 H 0.77101 0.47143 0.29722 0.0
H1276 H 0.76304 0.48735 0.28836 0.0
H1277 H 0.7841 0.52134 0.29168 0.0
H1278 H 0.78588 0.489 0.26051 0.0
H1279 H 0.78247 0.46763 0.25289 0.0
H1280 H 0.7436 0.4682 0.25446 0.0
H1281 H 0.747 0.48954 0.26262 0.0
C1282 C 0.76119 0.53352 0.26198 0.0
C1283 C 0.74853 0.53293 0.2611 0.0
C1284 C 0.74366 0.54192 0.25613 0.0
C1285 C 0.75137 0.55164 0.25185 0.0
C1286 C 0.76408 0.55201 0.25244 0.0
C1287 C 0.76893 0.54302 0.25741 0.0
C1288 C 0.76627 0.52443 0.26806 0.0
C1289 C 0.7638 0.51229 0.26326 0.0
C1290 C 0.77377 0.52773 0.27837 0.0
C1291 C 0.77669 0.5404 0.28382 0.0
C1292 C 0.76736 0.54715 0.28796 0.0
C1293 C 0.77015 0.55932 0.29229 0.0
C1294 C 0.78234 0.56495 0.29262 0.0
C1295 C 0.79168 0.55804 0.28883 0.0
C1296 C 0.78888 0.54588 0.28451 0.0
C1297 C 0.78077 0.49756 0.28524 0.0
C1298 C 0.79335 0.49818 0.28677 0.0
C1299 C 0.79794 0.48907 0.29181 0.0
C1300 C 0.79001 0.47918 0.29547 0.0
C1301 C 0.77738 0.47879 0.29428 0.0
C1302 C 0.77281 0.48792 0.28927 0.0
C1303 C 0.77599 0.50669 0.27892 0.0
C1304 C 0.77856 0.51882 0.28364 0.0
C1305 C 0.76876 0.5034 0.26841 0.0
C1306 C 0.76668 0.49082 0.26243 0.0
C1307 C 0.77661 0.48454 0.25929 0.0
C1308 C 0.77467 0.47235 0.25491 0.0
C1309 C 0.76278 0.46629 0.25323 0.0
C1310 C 0.75285 0.47271 0.25569 0.0
C1311 C 0.75479 0.48488 0.26031 0.0
H1312 H 0.53336 0.26917 0.73565 0.0
H1313 H 0.55042 0.25808 0.72967 0.0
H1314 H 0.55506 0.25402 0.76765 0.0
H1315 H 0.53809 0.26521 0.77355 0.0
H1316 H 0.51196 0.26274 0.74645 0.0
H1317 H 0.54523 0.29321 0.75459 0.0
H1318 H 0.56521 0.30218 0.76226 0.0
H1319 H 0.55189 0.29859 0.79933 0.0
H1320 H 0.53181 0.28967 0.79155 0.0
H1321 H 0.49424 0.28825 0.78985 0.0
H1322 H 0.47623 0.29722 0.79754 0.0
H1323 H 0.46996 0.30496 0.76106 0.0
H1324 H 0.48819 0.2962 0.75347 0.0
H1325 H 0.51538 0.29775 0.77859 0.0
H1326 H 0.48069 0.26696 0.76793 0.0
H1327 H 0.4617 0.25809 0.75782 0.0
H1328 H 0.4789 0.2641 0.72267 0.0
H1329 H 0.49781 0.27302 0.73281 0.0
C1330 C 0.53451 0.26812 0.75505 0.0
C1331 C 0.53806 0.26588 0.74268 0.0
C1332 C 0.54779 0.2595 0.73927 0.0
C1333 C 0.55413 0.25515 0.74818 0.0
C1334 C 0.55053 0.2574 0.76057 0.0
C1335 C 0.5408 0.26379 0.76396 0.0
C1336 C 0.52406 0.27475 0.75866 0.0
C1337 C 0.51274 0.27051 0.75334 0.0
C1338 C 0.52507 0.28487 0.76767 0.0
C1339 C 0.53708 0.29062 0.77249 0.0
C1340 C 0.54662 0.29429 0.76436 0.0
C1341 C 0.55805 0.2994 0.76876 0.0
C1342 C 0.56018 0.301 0.7814 0.0
C1343 C 0.55052 0.29756 0.78955 0.0
C1344 C 0.53906 0.29244 0.78513 0.0
C1345 C 0.49249 0.29145 0.77107 0.0
C1346 C 0.48903 0.29195 0.78352 0.0
C1347 C 0.47868 0.29699 0.78788 0.0
C1348 C 0.4716 0.30171 0.77989 0.0
C1349 C 0.47525 0.30145 0.76746 0.0
C1350 C 0.4856 0.29637 0.76309 0.0
C1351 C 0.50322 0.28561 0.7665 0.0
C1352 C 0.5146 0.29001 0.77166 0.0
C1353 C 0.50232 0.27583 0.75709 0.0
C1354 C 0.49064 0.27075 0.75113 0.0
C1355 C 0.48032 0.26652 0.75806 0.0
C1356 C 0.46947 0.26145 0.75228 0.0
C1357 C 0.46882 0.26039 0.73945 0.0
C1358 C 0.47916 0.26467 0.73255 0.0
C1359 C 0.48996 0.26979 0.73834 0.0
H1360 H 0.55218 0.75579 0.78848 0.0
H1361 H 0.56736 0.74489 0.79578 0.0
H1362 H 0.58799 0.77856 0.81055 0.0
H1363 H 0.5728 0.78939 0.80323 0.0
H1364 H 0.53716 0.77062 0.79907 0.0
H1365 H 0.56981 0.77237 0.76971 0.0
H1366 H 0.5912 0.77555 0.76296 0.0
H1367 H 0.59342 0.81321 0.77658 0.0
H1368 H 0.57211 0.80985 0.78373 0.0
H1369 H 0.5205 0.80641 0.79473 0.0
H1370 H 0.50409 0.81568 0.78739 0.0
H1371 H 0.51487 0.80449 0.75002 0.0
H1372 H 0.5312 0.79508 0.75744 0.0
H1373 H 0.55109 0.80202 0.77177 0.0
H1374 H 0.51931 0.78583 0.81054 0.0
H1375 H 0.49712 0.78181 0.81408 0.0
H1376 H 0.4926 0.76946 0.7756 0.0
H1377 H 0.51468 0.77347 0.77216 0.0
C1378 C 0.56143 0.7734 0.79519 0.0
C1379 C 0.55991 0.7608 0.79341 0.0
C1380 C 0.56858 0.75459 0.79759 0.0
C1381 C 0.57892 0.76087 0.80365 0.0
C1382 C 0.58024 0.77348 0.80571 0.0
C1383 C 0.57155 0.77967 0.80157 0.0
C1384 C 0.55268 0.78001 0.79001 0.0
C1385 C 0.54025 0.77751 0.79317 0.0
C1386 C 0.5566 0.78874 0.78196 0.0
C1387 C 0.56942 0.79084 0.77736 0.0
C1388 C 0.57493 0.78129 0.7713 0.0
C1389 C 0.58713 0.78315 0.76735 0.0
C1390 C 0.59403 0.79463 0.76926 0.0
C1391 C 0.58841 0.80422 0.77514 0.0
C1392 C 0.5762 0.80235 0.77912 0.0
C1393 C 0.52694 0.7999 0.77663 0.0
C1394 C 0.51937 0.80602 0.78495 0.0
C1395 C 0.50999 0.81128 0.78076 0.0
C1396 C 0.50812 0.81069 0.76814 0.0
C1397 C 0.51614 0.80513 0.7598 0.0
C1398 C 0.52547 0.79977 0.76401 0.0
C1399 C 0.5357 0.79286 0.78113 0.0
C1400 C 0.54809 0.79522 0.7778 0.0
C1401 C 0.53171 0.78367 0.7886 0.0
C1402 C 0.51857 0.77996 0.79109 0.0
C1403 C 0.51352 0.78207 0.80294 0.0
C1404 C 0.50088 0.77987 0.80492 0.0
C1405 C 0.49316 0.77535 0.7951 0.0
C1406 C 0.49833 0.77283 0.78335 0.0
C1407 C 0.51092 0.77513 0.78136 0.0
H1408 H 0.52237 0.7536 0.23468 0.0
H1409 H 0.53956 0.74321 0.22728 0.0
H1410 H 0.55121 0.74492 0.26449 0.0
H1411 H 0.53371 0.75487 0.27186 0.0
H1412 H 0.50315 0.74828 0.24933 0.0
H1413 H 0.53751 0.77929 0.24986 0.0
H1414 H 0.55806 0.78922 0.25494 0.0
H1415 H 0.54811 0.79081 0.29347 0.0
H1416 H 0.52756 0.78086 0.28832 0.0
H1417 H 0.49116 0.7815 0.29044 0.0
H1418 H 0.47466 0.79262 0.29833 0.0
H1419 H 0.46289 0.79252 0.26142 0.0
H1420 H 0.47952 0.78142 0.25355 0.0
H1421 H 0.51013 0.78735 0.27558 0.0
H1422 H 0.47454 0.75718 0.27403 0.0
H1423 H 0.45385 0.74866 0.26775 0.0
H1424 H 0.46623 0.74586 0.22988 0.0
H1425 H 0.4868 0.75471 0.23614 0.0
C1426 C 0.52682 0.75514 0.25381 0.0
C1427 C 0.52856 0.75162 0.24125 0.0
C1428 C 0.53847 0.74579 0.23702 0.0
C1429 C 0.54684 0.74332 0.24528 0.0
C1430 C 0.5449 0.7466 0.25788 0.0
C1431 C 0.53496 0.7524 0.26211 0.0
C1432 C 0.51662 0.76187 0.25819 0.0
C1433 C 0.50467 0.75689 0.25497 0.0
C1434 C 0.5186 0.77303 0.26566 0.0
C1435 C 0.53104 0.77919 0.26872 0.0
C1436 C 0.53978 0.78169 0.25941 0.0
C1437 C 0.55153 0.78736 0.26232 0.0
C1438 C 0.55473 0.79077 0.27461 0.0
C1439 C 0.54589 0.78842 0.28391 0.0
C1440 C 0.53416 0.7827 0.28099 0.0
C1441 C 0.48652 0.78053 0.27142 0.0
C1442 C 0.48507 0.78392 0.28403 0.0
C1443 C 0.47565 0.79031 0.28853 0.0
C1444 C 0.46747 0.79347 0.2805 0.0
C1445 C 0.46896 0.7901 0.26785 0.0
C1446 C 0.47845 0.78376 0.26334 0.0
C1447 C 0.49662 0.77375 0.2668 0.0
C1448 C 0.50857 0.77873 0.26998 0.0
C1449 C 0.49462 0.76265 0.25918 0.0
C1450 C 0.4822 0.75681 0.25554 0.0
C1451 C 0.47279 0.75483 0.26437 0.0
C1452 C 0.46099 0.74992 0.26079 0.0
C1453 C 0.45845 0.74664 0.24833 0.0
C1454 C 0.46796 0.74822 0.23955 0.0
C1455 C 0.47971 0.75329 0.24312 0.0
H1456 H 0.55329 0.27402 0.29319 0.0
H1457 H 0.56839 0.26279 0.30001 0.0
H1458 H 0.58262 0.29385 0.32473 0.0
H1459 H 0.56723 0.30493 0.31812 0.0
H1460 H 0.53495 0.28402 0.30541 0.0
H1461 H 0.57142 0.29775 0.28255 0.0
H1462 H 0.59281 0.30623 0.27988 0.0
H1463 H 0.58616 0.33873 0.30246 0.0
H1464 H 0.56477 0.33006 0.3053 0.0
H1465 H 0.52591 0.33142 0.2972 0.0
H1466 H 0.50939 0.33948 0.28833 0.0
H1467 H 0.50165 0.30639 0.26412 0.0
H1468 H 0.51841 0.29872 0.2726 0.0
H1469 H 0.5473 0.32214 0.28726 0.0
H1470 H 0.51075 0.30873 0.30968 0.0
H1471 H 0.48883 0.30192 0.30897 0.0
H1472 H 0.49555 0.26958 0.28612 0.0
H1473 H 0.51754 0.27642 0.28704 0.0
C1474 C 0.55918 0.29033 0.30509 0.0
C1475 C 0.55962 0.27838 0.30013 0.0
C1476 C 0.56833 0.27202 0.30395 0.0
C1477 C 0.57675 0.27745 0.31286 0.0
C1478 C 0.5762 0.28939 0.31792 0.0
C1479 C 0.56748 0.29575 0.31409 0.0
C1480 C 0.55009 0.29708 0.30071 0.0
C1481 C 0.53769 0.29231 0.30141 0.0
C1482 C 0.55358 0.30809 0.29578 0.0
C1483 C 0.56655 0.31324 0.29421 0.0
C1484 C 0.57459 0.30666 0.287 0.0
C1485 C 0.58678 0.31155 0.28541 0.0
C1486 C 0.59116 0.32316 0.29095 0.0
C1487 C 0.58308 0.32973 0.29818 0.0
C1488 C 0.57086 0.32483 0.29974 0.0
C1489 C 0.52328 0.31444 0.28564 0.0
C1490 C 0.52078 0.32604 0.28982 0.0
C1491 C 0.51126 0.33057 0.28483 0.0
C1492 C 0.50413 0.32356 0.27556 0.0
C1493 C 0.50702 0.31212 0.27112 0.0
C1494 C 0.51654 0.30766 0.27604 0.0
C1495 C 0.5323 0.30894 0.29179 0.0
C1496 C 0.54462 0.31395 0.29146 0.0
C1497 C 0.52877 0.2982 0.29715 0.0
C1498 C 0.51573 0.29312 0.29832 0.0
C1499 C 0.5075 0.30008 0.30469 0.0
C1500 C 0.49498 0.29622 0.30418 0.0
C1501 C 0.49044 0.2853 0.29732 0.0
C1502 C 0.49875 0.27801 0.29153 0.0
C1503 C 0.51132 0.28189 0.29205 0.0
C1504 C 0.22192 0.18692 0.16743 0.0
C1505 C 0.21427 0.19453 0.17388 0.0
C1506 C 0.2295 0.19079 0.15775 0.0
C1507 C 0.24375 0.21813 0.14447 0.0
H1508 H 0.24424 0.19685 0.11409 0.0
C1509 C 0.27323 0.23154 0.10227 0.0
C1510 C 0.26725 0.22928 0.09105 0.0
C1511 C 0.26786 0.22668 0.11264 0.0
C1512 C 0.2442 0.20289 0.12251 0.0
H1513 H 0.2088 0.21228 0.17534 0.0
H1514 H 0.22198 0.21898 0.15851 0.0
H1515 H 0.23285 0.18975 0.13192 0.0
H1516 H 0.25116 0.2198 0.0818 0.0
H1517 H 0.24176 0.2114 0.09988 0.0
H1518 H 0.25481 0.23138 0.13497 0.0
C1519 C 0.22218 0.21005 0.16097 0.0
C1520 C 0.23777 0.19878 0.13276 0.0
C1521 C 0.21456 0.20616 0.17057 0.0
C1522 C 0.25594 0.22182 0.09035 0.0
C1523 C 0.25061 0.2169 0.10068 0.0
C1524 C 0.25022 0.22221 0.13424 0.0
C1525 C 0.22968 0.20239 0.15438 0.0
C1526 C 0.23732 0.20642 0.1438 0.0
C1527 C 0.25645 0.21936 0.11198 0.0
C1528 C 0.25037 0.2147 0.12309 0.0
H1529 H 0.22194 0.17791 0.16974 0.0
H1530 H 0.23525 0.18472 0.1529 0.0
H1531 H 0.24368 0.22418 0.15288 0.0
H1532 H 0.28192 0.23732 0.10311 0.0
H1533 H 0.27263 0.22866 0.12119 0.0
C1534 C 0.82387 0.18744 0.12787 0.0
C1535 C 0.81965 0.19295 0.13908 0.0
C1536 C 0.82174 0.19164 0.11685 0.0
C1537 C 0.80213 0.21 0.10314 0.0
H1538 H 0.82808 0.21241 0.07834 0.0
C1539 C 0.80011 0.23622 0.06184 0.0
C1540 C 0.80388 0.23094 0.05033 0.0
C1541 C 0.802 0.23128 0.07248 0.0
C1542 C 0.8207 0.21166 0.08512 0.0
H1543 H 0.80983 0.20718 0.1475 0.0
H1544 H 0.80626 0.21461 0.12833 0.0
H1545 H 0.8313 0.20425 0.09725 0.0
H1546 H 0.81272 0.21641 0.04098 0.0
H1547 H 0.81597 0.20772 0.05962 0.0
H1548 H 0.79159 0.21753 0.09106 0.0
C1549 C 0.81106 0.20692 0.12802 0.0
C1550 C 0.82253 0.20697 0.09595 0.0
C1551 C 0.81317 0.2027 0.13902 0.0
C1552 C 0.80966 0.22064 0.04971 0.0
C1553 C 0.8116 0.21573 0.06039 0.0
C1554 C 0.80032 0.21472 0.09234 0.0
C1555 C 0.81535 0.20147 0.1168 0.0
C1556 C 0.81329 0.20614 0.10512 0.0
C1557 C 0.80773 0.22095 0.07188 0.0
C1558 C 0.8096 0.21567 0.08323 0.0
H1559 H 0.82886 0.17989 0.12759 0.0
H1560 H 0.82502 0.18714 0.10837 0.0
H1561 H 0.79475 0.20928 0.10991 0.0
H1562 H 0.79548 0.24406 0.06261 0.0
H1563 H 0.79903 0.23559 0.08121 0.0
C1564 C 0.87436 0.83704 0.1689 0.0
C1565 C 0.87165 0.83335 0.18057 0.0
C1566 C 0.87026 0.8296 0.15838 0.0
C1567 C 0.84588 0.80501 0.14866 0.0
H1568 H 0.86423 0.80397 0.1178 0.0
C1569 C 0.82658 0.77691 0.10457 0.0
C1570 C 0.82798 0.78278 0.09396 0.0
C1571 C 0.83282 0.78193 0.11516 0.0
C1572 C 0.85898 0.80422 0.12634 0.0
H1573 H 0.86302 0.81867 0.1903 0.0
H1574 H 0.856 0.80562 0.17193 0.0
H1575 H 0.87386 0.8146 0.13633 0.0
H1576 H 0.8373 0.79834 0.08604 0.0
H1577 H 0.84805 0.80719 0.10455 0.0
H1578 H 0.83096 0.7948 0.13865 0.0
C1579 C 0.8611 0.81438 0.17093 0.0
C1580 C 0.86449 0.8103 0.13696 0.0
C1581 C 0.86519 0.82184 0.18145 0.0
C1582 C 0.83592 0.79367 0.09411 0.0
C1583 C 0.84219 0.79866 0.10467 0.0
C1584 C 0.84039 0.7989 0.13806 0.0
C1585 C 0.86337 0.81827 0.15929 0.0
C1586 C 0.85794 0.81092 0.14821 0.0
C1587 C 0.84065 0.7929 0.11535 0.0
C1588 C 0.84682 0.79859 0.12675 0.0
H1589 H 0.87932 0.84586 0.16788 0.0
H1590 H 0.87206 0.83294 0.14958 0.0
H1591 H 0.8405 0.80547 0.15712 0.0
H1592 H 0.82047 0.76854 0.10476 0.0
H1593 H 0.83152 0.77723 0.12322 0.0
C1594 C 0.24296 0.80055 0.15461 0.0
C1595 C 0.25328 0.80555 0.16144 0.0
C1596 C 0.24411 0.79712 0.14202 0.0
C1597 C 0.26342 0.8032 0.11511 0.0
H1598 H 0.24921 0.77141 0.10109 0.0
C1599 C 0.27441 0.78496 0.06533 0.0
C1600 C 0.26518 0.7775 0.0586 0.0
C1601 C 0.27267 0.78839 0.07783 0.0
C1602 C 0.25307 0.78039 0.10479 0.0
H1603 H 0.27286 0.81098 0.16042 0.0
H1604 H 0.2748 0.80516 0.13838 0.0
H1605 H 0.24651 0.77751 0.12297 0.0
H1606 H 0.24685 0.76789 0.05957 0.0
H1607 H 0.2436 0.77418 0.08135 0.0
H1608 H 0.26977 0.80627 0.097 0.0
C1609 C 0.26586 0.80387 0.14279 0.0
C1610 C 0.25155 0.78386 0.11734 0.0
C1611 C 0.26474 0.80713 0.15541 0.0
C1612 C 0.25414 0.77357 0.06459 0.0
C1613 C 0.25233 0.77714 0.07708 0.0
C1614 C 0.2648 0.79982 0.10254 0.0
C1615 C 0.25556 0.79879 0.13599 0.0
C1616 C 0.25681 0.79525 0.12263 0.0
C1617 C 0.26158 0.78458 0.08388 0.0
C1618 C 0.25975 0.78832 0.09722 0.0
H1619 H 0.23401 0.79921 0.15901 0.0
H1620 H 0.23602 0.79329 0.13695 0.0
H1621 H 0.26743 0.81211 0.11894 0.0
H1622 H 0.28308 0.78796 0.06095 0.0
H1623 H 0.28011 0.79389 0.08278 0.0
C1624 C 0.21341 0.8142 0.87025 0.0
C1625 C 0.20628 0.82337 0.87386 0.0
C1626 C 0.21889 0.80895 0.87903 0.0
C1627 C 0.22885 0.81474 0.911 0.0
H1628 H 0.22834 0.78025 0.90824 0.0
C1629 C 0.24296 0.79158 0.95064 0.0
C1630 C 0.25001 0.78224 0.94776 0.0
C1631 C 0.23772 0.79635 0.94139 0.0
C1632 C 0.22869 0.78991 0.90907 0.0
H1633 H 0.1992 0.83412 0.8895 0.0
H1634 H 0.20868 0.82493 0.90476 0.0
H1635 H 0.21909 0.78905 0.89244 0.0
H1636 H 0.25713 0.77059 0.93289 0.0
H1637 H 0.248 0.77896 0.9167 0.0
H1638 H 0.23844 0.81564 0.92758 0.0
C1639 C 0.21017 0.8219 0.89516 0.0
C1640 C 0.22338 0.79494 0.90002 0.0
C1641 C 0.20468 0.82712 0.88641 0.0
C1642 C 0.25161 0.77769 0.93541 0.0
C1643 C 0.24639 0.78248 0.92614 0.0
C1644 C 0.23416 0.80971 0.92002 0.0
C1645 C 0.21738 0.81279 0.89157 0.0
C1646 C 0.22332 0.80741 0.90094 0.0
C1647 C 0.23944 0.79192 0.92903 0.0
C1648 C 0.23406 0.79723 0.91922 0.0
H1649 H 0.21483 0.81112 0.86065 0.0
H1650 H 0.22447 0.80202 0.87598 0.0
H1651 H 0.22916 0.8244 0.91186 0.0
H1652 H 0.24139 0.79514 0.96008 0.0
H1653 H 0.23222 0.80345 0.94395 0.0
C1654 C 0.22273 0.1956 0.89441 0.0
C1655 C 0.21497 0.20313 0.89064 0.0
C1656 C 0.22976 0.19924 0.90482 0.0
C1657 C 0.24163 0.22633 0.92572 0.0
H1658 H 0.24362 0.20355 0.94885 0.0
C1659 C 0.2563 0.24108 0.97541 0.0
C1660 C 0.26439 0.23456 0.98026 0.0
C1661 C 0.25113 0.23705 0.96404 0.0
C1662 C 0.24327 0.20998 0.9424 0.0
H1663 H 0.20858 0.22041 0.89485 0.0
H1664 H 0.22062 0.22663 0.91299 0.0
H1665 H 0.23319 0.19684 0.92961 0.0
H1666 H 0.27332 0.21865 0.97708 0.0
H1667 H 0.26425 0.21158 0.95717 0.0
H1668 H 0.25146 0.23952 0.93865 0.0
C1669 C 0.22148 0.21801 0.90782 0.0
C1670 C 0.23732 0.20613 0.93137 0.0
C1671 C 0.21449 0.21439 0.89744 0.0
C1672 C 0.26718 0.2239 0.97352 0.0
C1673 C 0.26192 0.2198 0.96218 0.0
C1674 C 0.2475 0.23018 0.93677 0.0
C1675 C 0.22918 0.21048 0.91167 0.0
C1676 C 0.23628 0.21431 0.92298 0.0
C1677 C 0.25388 0.22636 0.95731 0.0
C1678 C 0.24825 0.22208 0.94529 0.0
H1679 H 0.22334 0.18687 0.88936 0.0
H1680 H 0.2357 0.19328 0.90747 0.0
H1681 H 0.24122 0.23281 0.91936 0.0
H1682 H 0.25407 0.24939 0.98034 0.0
H1683 H 0.24486 0.24222 0.96058 0.0
C1684 C 0.83156 0.24071 0.84007 0.0
C1685 C 0.82833 0.24989 0.83395 0.0
C1686 C 0.8286 0.2403 0.85252 0.0
C1687 C 0.8215 0.25977 0.88044 0.0
H1688 H 0.80904 0.22983 0.89324 0.0
C1689 C 0.80261 0.2588 0.92981 0.0
C1690 C 0.8056 0.24987 0.93646 0.0
C1691 C 0.80534 0.25844 0.91729 0.0
C1692 C 0.81265 0.23824 0.88983 0.0
H1693 H 0.81956 0.26591 0.83606 0.0
H1694 H 0.81435 0.2652 0.85775 0.0
H1695 H 0.81379 0.22985 0.87135 0.0
H1696 H 0.81367 0.23347 0.93516 0.0
H1697 H 0.81855 0.23286 0.9132 0.0
H1698 H 0.82043 0.26817 0.89886 0.0
C1699 C 0.81921 0.25832 0.85296 0.0
C1700 C 0.81535 0.23825 0.87729 0.0
C1701 C 0.82215 0.25871 0.84053 0.0
C1702 C 0.81121 0.24044 0.93025 0.0
C1703 C 0.81398 0.24009 0.91769 0.0
C1704 C 0.81883 0.25975 0.89295 0.0
C1705 C 0.82247 0.24915 0.85912 0.0
C1706 C 0.81973 0.24903 0.87245 0.0
C1707 C 0.81114 0.24914 0.91108 0.0
C1708 C 0.81429 0.24901 0.89779 0.0
H1709 H 0.83677 0.23408 0.83541 0.0
H1710 H 0.83145 0.23326 0.85705 0.0
H1711 H 0.8251 0.26819 0.87704 0.0
H1712 H 0.79802 0.26604 0.93428 0.0
H1713 H 0.80278 0.2654 0.91243 0.0
C1714 C 0.83526 0.83321 0.90362 0.0
C1715 C 0.84607 0.83027 0.89761 0.0
C1716 C 0.83105 0.82829 0.91437 0.0
C1717 C 0.83363 0.80248 0.93106 0.0
H1718 H 0.821 0.82167 0.95903 0.0
C1719 C 0.82518 0.78495 0.97802 0.0
C1720 C 0.81461 0.7874 0.9848 0.0
C1721 C 0.82865 0.7904 0.96744 0.0
C1722 C 0.82436 0.81615 0.95124 0.0
H1723 H 0.86106 0.82005 0.89835 0.0
H1724 H 0.85378 0.8116 0.91703 0.0
H1725 H 0.82763 0.83087 0.94045 0.0
H1726 H 0.79935 0.79748 0.98573 0.0
H1727 H 0.8054 0.80698 0.96722 0.0
H1728 H 0.83039 0.78777 0.94178 0.0
C1729 C 0.84845 0.81755 0.91337 0.0
C1730 C 0.82816 0.82143 0.9406 0.0
C1731 C 0.85266 0.82247 0.90268 0.0
C1732 C 0.80763 0.79551 0.98079 0.0
C1733 C 0.8111 0.80096 0.97019 0.0
C1734 C 0.82982 0.79721 0.94167 0.0
C1735 C 0.83754 0.8203 0.91928 0.0
C1736 C 0.83297 0.81467 0.93044 0.0
C1737 C 0.82162 0.79842 0.96335 0.0
C1738 C 0.82526 0.804 0.95194 0.0
H1739 H 0.82998 0.83919 0.89995 0.0
H1740 H 0.82258 0.83054 0.91868 0.0
H1741 H 0.83705 0.79695 0.92331 0.0
H1742 H 0.83088 0.77892 0.98096 0.0
H1743 H 0.83694 0.78842 0.96253 0.0
C1744 C 0.13477 0.19768 0.20481 0.0
C1745 C 0.14564 0.20004 0.21135 0.0
C1746 C 0.12444 0.20269 0.20934 0.0
C1747 C 0.11552 0.22835 0.22973 0.0
H1748 H 0.08296 0.21053 0.22654 0.0
C1749 C 0.07275 0.24879 0.24888 0.0
C1750 C 0.06235 0.24638 0.24162 0.0
C1751 C 0.0828 0.24277 0.24583 0.0
C1752 C 0.09198 0.21567 0.22738 0.0
H1753 H 0.15404 0.20926 0.22799 0.0
H1754 H 0.13597 0.21797 0.23592 0.0
H1755 H 0.1006 0.20046 0.22028 0.0
H1756 H 0.05435 0.23559 0.22553 0.0
H1757 H 0.07198 0.22534 0.22003 0.0
H1758 H 0.10693 0.24361 0.23664 0.0
C1759 C 0.1355 0.21233 0.22721 0.0
C1760 C 0.10209 0.20989 0.22382 0.0
C1761 C 0.14583 0.20728 0.2227 0.0
C1762 C 0.06226 0.23778 0.23125 0.0
C1763 C 0.07231 0.23177 0.22819 0.0
C1764 C 0.10541 0.23415 0.23326 0.0
C1765 C 0.12473 0.21021 0.22051 0.0
C1766 C 0.11398 0.21618 0.22488 0.0
C1767 C 0.08272 0.23419 0.23543 0.0
C1768 C 0.0935 0.22791 0.23205 0.0
H1769 H 0.1343 0.19215 0.19604 0.0
H1770 H 0.11634 0.20096 0.2039 0.0
H1771 H 0.12455 0.23351 0.23049 0.0
H1772 H 0.07319 0.25544 0.25686 0.0
H1773 H 0.0906 0.24477 0.25169 0.0
C1774 C 0.83521 0.13179 0.19412 0.0
C1775 C 0.82979 0.13674 0.18501 0.0
C1776 C 0.829 0.12201 0.19944 0.0
C1777 C 0.79821 0.10622 0.20515 0.0
H1778 H 0.816 0.08109 0.21251 0.0
C1779 C 0.77506 0.06345 0.22565 0.0
C1780 C 0.78133 0.05969 0.23497 0.0
C1781 C 0.7806 0.07265 0.21902 0.0
C1782 C 0.81093 0.08809 0.21061 0.0
H1783 H 0.81359 0.13522 0.17426 0.0
H1784 H 0.80273 0.11802 0.18354 0.0
H1785 H 0.82634 0.09729 0.2016 0.0
H1786 H 0.79834 0.06263 0.24461 0.0
H1787 H 0.80791 0.0788 0.23323 0.0
H1788 H 0.78281 0.09702 0.21427 0.0
C1789 C 0.81177 0.12181 0.18663 0.0
C1790 C 0.81685 0.09736 0.20435 0.0
C1791 C 0.81802 0.13162 0.18127 0.0
C1792 C 0.79321 0.0654 0.23759 0.0
C1793 C 0.79875 0.07456 0.23095 0.0
C1794 C 0.79227 0.09691 0.21142 0.0
C1795 C 0.81721 0.11691 0.19578 0.0
C1796 C 0.81062 0.10663 0.20169 0.0
C1797 C 0.79255 0.07824 0.22154 0.0
C1798 C 0.79862 0.08783 0.21436 0.0
H1799 H 0.84425 0.13553 0.19725 0.0
H1800 H 0.83338 0.11858 0.2066 0.0
H1801 H 0.79319 0.11329 0.20335 0.0
H1802 H 0.76585 0.05929 0.22348 0.0
H1803 H 0.77561 0.07525 0.21178 0.0
C1804 C 0.90896 0.83365 0.24112 0.0
C1805 C 0.9091 0.8436 0.23464 0.0
C1806 C 0.91985 0.83038 0.2446 0.0
C1807 C 0.9523 0.8416 0.25 0.0
H1808 H 0.95588 0.80784 0.24426 0.0
C1809 C 0.9917 0.82132 0.26898 0.0
C1810 C 0.99677 0.81246 0.26115 0.0
C1811 C 0.98147 0.82587 0.26554 0.0
C1812 C 0.95506 0.81731 0.24584 0.0
H1813 H 0.92078 0.8581 0.22699 0.0
H1814 H 0.93982 0.8524 0.23311 0.0
H1815 H 0.93701 0.81433 0.23891 0.0
H1816 H 0.99545 0.80189 0.24331 0.0
H1817 H 0.97756 0.80976 0.23737 0.0
H1818 H 0.97042 0.84455 0.25689 0.0
C1819 C 0.93126 0.84715 0.23552 0.0
C1820 C 0.9442 0.82101 0.24291 0.0
C1821 C 0.92036 0.85038 0.23196 0.0
C1822 C 0.99163 0.80854 0.24965 0.0
C1823 C 0.98138 0.81305 0.24624 0.0
C1824 C 0.96316 0.83788 0.25302 0.0
C1825 C 0.93112 0.83703 0.24175 0.0
C1826 C 0.94269 0.83319 0.24495 0.0
C1827 C 0.97607 0.82162 0.25422 0.0
C1828 C 0.96465 0.82569 0.25094 0.0
H1829 H 0.90044 0.82825 0.24336 0.0
H1830 H 0.91944 0.82263 0.24954 0.0
H1831 H 0.95137 0.85104 0.25175 0.0
H1832 H 0.99534 0.82443 0.27796 0.0
H1833 H 0.97751 0.8324 0.27192 0.0
C1834 C 0.25969 0.86325 0.20965 0.0
C1835 C 0.25425 0.85601 0.21848 0.0
C1836 C 0.26118 0.87578 0.21213 0.0
C1837 C 0.24816 0.89984 0.23121 0.0
H1838 H 0.2789 0.91971 0.22524 0.0
C1839 C 0.25758 0.94934 0.25156 0.0
C1840 C 0.26467 0.95758 0.24467 0.0
C1841 C 0.25611 0.93707 0.24749 0.0
C1842 C 0.27019 0.91432 0.22677 0.0
H1843 H 0.24633 0.85628 0.23691 0.0
H1844 H 0.24888 0.87805 0.24114 0.0
H1845 H 0.27695 0.898 0.21964 0.0
H1846 H 0.27554 0.95951 0.22798 0.0
H1847 H 0.27278 0.93806 0.22072 0.0
H1848 H 0.24131 0.91605 0.23825 0.0
C1849 C 0.25191 0.87404 0.2323 0.0
C1850 C 0.2691 0.90189 0.2236 0.0
C1851 C 0.25054 0.86156 0.22988 0.0
C1852 C 0.27012 0.95333 0.23353 0.0
C1853 C 0.26856 0.94105 0.2294 0.0
C1854 C 0.2492 0.91225 0.23428 0.0
C1855 C 0.25713 0.88128 0.22342 0.0
C1856 C 0.25813 0.89452 0.22598 0.0
C1857 C 0.26161 0.93276 0.23638 0.0
C1858 C 0.26029 0.91964 0.23229 0.0
H1859 H 0.26266 0.85924 0.20078 0.0
H1860 H 0.26522 0.88117 0.20512 0.0
H1861 H 0.23953 0.89438 0.23295 0.0
H1862 H 0.25345 0.95234 0.26028 0.0
H1863 H 0.25089 0.93095 0.25323 0.0
C1864 C 0.14403 0.84922 0.83844 0.0
C1865 C 0.15005 0.8445 0.84729 0.0
C1866 C 0.13299 0.8432 0.83383 0.0
C1867 C 0.11476 0.81329 0.82929 0.0
H1868 H 0.08927 0.83134 0.82236 0.0
C1869 C 0.06845 0.79067 0.80896 0.0
C1870 C 0.06434 0.79611 0.79942 0.0
C1871 C 0.07844 0.79636 0.81582 0.0
C1872 C 0.09634 0.82618 0.82418 0.0
H1873 H 0.14912 0.82982 0.85836 0.0
H1874 H 0.12973 0.81931 0.85031 0.0
H1875 H 0.10744 0.84172 0.8328 0.0
H1876 H 0.06736 0.81186 0.78973 0.0
H1877 H 0.08485 0.8217 0.80154 0.0
H1878 H 0.10368 0.79777 0.82051 0.0
C1879 C 0.13364 0.82763 0.84688 0.0
C1880 C 0.10674 0.83212 0.83016 0.0
C1881 C 0.14471 0.83368 0.85154 0.0
C1882 C 0.07039 0.80737 0.79692 0.0
C1883 C 0.08032 0.81307 0.8038 0.0
C1884 C 0.10433 0.80733 0.82331 0.0
C1885 C 0.12769 0.83232 0.83794 0.0
C1886 C 0.11617 0.82579 0.83259 0.0
C1887 C 0.08446 0.80765 0.81333 0.0
C1888 C 0.0951 0.81376 0.8205 0.0
H1889 H 0.14789 0.85752 0.83494 0.0
H1890 H 0.12874 0.84697 0.82681 0.0
H1891 H 0.12191 0.80818 0.83093 0.0
H1892 H 0.06402 0.78195 0.81105 0.0
H1893 H 0.08138 0.79199 0.82315 0.0
C1894 C 0.20161 0.13866 0.84149 0.0
C1895 C 0.20471 0.14978 0.83691 0.0
C1896 C 0.2055 0.12831 0.83532 0.0
C1897 C 0.22861 0.11841 0.81244 0.0
H1898 H 0.20789 0.08764 0.81186 0.0
C1899 C 0.24167 0.07503 0.78504 0.0
C1900 C 0.24042 0.06497 0.79152 0.0
C1901 C 0.23675 0.08533 0.78987 0.0
C1902 C 0.21379 0.09617 0.812 0.0
H1903 H 0.21413 0.1587 0.82212 0.0
H1904 H 0.22066 0.14059 0.81119 0.0
H1905 H 0.2003 0.10577 0.82149 0.0
H1906 H 0.23274 0.05764 0.80793 0.0
H1907 H 0.22411 0.07563 0.81636 0.0
H1908 H 0.24206 0.10876 0.80287 0.0
C1909 C 0.21545 0.13991 0.8197 0.0
C1910 C 0.20947 0.10656 0.81755 0.0
C1911 C 0.21165 0.15028 0.82593 0.0
C1912 C 0.23392 0.06531 0.80278 0.0
C1913 C 0.2289 0.07556 0.80755 0.0
C1914 C 0.23288 0.10803 0.80679 0.0
C1915 C 0.21249 0.12879 0.82435 0.0
C1916 C 0.21687 0.1178 0.81796 0.0
C1917 C 0.23037 0.08572 0.80121 0.0
C1918 C 0.22556 0.09679 0.80662 0.0
H1919 H 0.19633 0.13798 0.84996 0.0
H1920 H 0.20321 0.11996 0.83929 0.0
H1921 H 0.23465 0.12686 0.81274 0.0
H1922 H 0.24671 0.07503 0.77637 0.0
H1923 H 0.23794 0.09301 0.78475 0.0
C1924 C 0.88524 0.27696 0.78868 0.0
C1925 C 0.87884 0.2662 0.79217 0.0
C1926 C 0.89799 0.27882 0.78821 0.0
C1927 C 0.92429 0.27046 0.80175 0.0
H1928 H 0.94241 0.28161 0.7734 0.0
C1929 C 0.97687 0.27616 0.79909 0.0
C1930 C 0.98297 0.28582 0.79337 0.0
C1931 C 0.9642 0.2732 0.79844 0.0
C1932 C 0.93751 0.27867 0.78147 0.0
H1933 H 0.88076 0.24895 0.79789 0.0
H1934 H 0.90306 0.25234 0.79731 0.0
H1935 H 0.92018 0.2777 0.77322 0.0
H1936 H 0.98071 0.30011 0.78268 0.0
H1937 H 0.9586 0.29527 0.78188 0.0
H1938 H 0.94145 0.27183 0.81024 0.0
C1939 C 0.89819 0.25927 0.79487 0.0
C1940 C 0.92478 0.27637 0.78132 0.0
C1941 C 0.88544 0.25732 0.79514 0.0
C1942 C 0.97621 0.29251 0.78702 0.0
C1943 C 0.96354 0.28968 0.78653 0.0
C1944 C 0.937 0.27294 0.80199 0.0
C1945 C 0.90457 0.27004 0.79142 0.0
C1946 C 0.91806 0.27225 0.79146 0.0
C1947 C 0.95735 0.27997 0.79222 0.0
C1948 C 0.9438 0.27709 0.79186 0.0
H1949 H 0.88041 0.28396 0.78632 0.0
H1950 H 0.90271 0.28723 0.7856 0.0
H1951 H 0.91929 0.26742 0.80974 0.0
H1952 H 0.98191 0.27082 0.80396 0.0
H1953 H 0.95981 0.26553 0.80273 0.0
C1954 C 0.82792 0.89491 0.83444 0.0
C1955 C 0.84029 0.89591 0.83728 0.0
C1956 C 0.82342 0.90436 0.8299 0.0
C1957 C 0.83112 0.93711 0.82717 0.0
H1958 H 0.80519 0.93039 0.80373 0.0
C1959 C 0.81579 0.97343 0.801 0.0
C1960 C 0.80316 0.97366 0.80094 0.0
C1961 C 0.82035 0.96396 0.80542 0.0
C1962 C 0.81238 0.93239 0.81033 0.0
H1963 H 0.85768 0.90749 0.83732 0.0
H1964 H 0.84997 0.92376 0.82899 0.0
H1965 H 0.81324 0.9138 0.81116 0.0
H1966 H 0.78539 0.96409 0.80522 0.0
H1967 H 0.79336 0.94742 0.81279 0.0
H1968 H 0.83041 0.95574 0.82603 0.0
C1969 C 0.84362 0.91586 0.83061 0.0
C1970 C 0.81698 0.92289 0.81465 0.0
C1971 C 0.84808 0.90648 0.83531 0.0
C1972 C 0.79517 0.96418 0.80527 0.0
C1973 C 0.79972 0.95461 0.8095 0.0
C1974 C 0.82664 0.9466 0.82271 0.0
C1975 C 0.8312 0.91498 0.82792 0.0
C1976 C 0.82639 0.92511 0.82317 0.0
C1977 C 0.81236 0.95443 0.80967 0.0
C1978 C 0.81719 0.94434 0.81429 0.0
H1979 H 0.82166 0.88691 0.83593 0.0
H1980 H 0.81377 0.90338 0.82816 0.0
H1981 H 0.83817 0.93923 0.8339 0.0
H1982 H 0.82215 0.98065 0.79776 0.0
H1983 H 0.83013 0.964 0.80537 0.0
C1984 C 0.2164 0.14502 0.2262 0.0
C1985 C 0.20815 0.14284 0.21658 0.0
C1986 C 0.22134 0.13557 0.23022 0.0
C1987 C 0.22718 0.10447 0.22048 0.0
H1988 H 0.23109 0.1038 0.25522 0.0
C1989 C 0.25435 0.07098 0.23895 0.0
C1990 C 0.24956 0.06574 0.24939 0.0
C1991 C 0.2492 0.0803 0.23492 0.0
C1992 C 0.22998 0.1038 0.24549 0.0
H1993 H 0.19857 0.12898 0.20368 0.0
H1994 H 0.2071 0.1125 0.21077 0.0
H1995 H 0.22207 0.12007 0.2483 0.0
H1996 H 0.23563 0.06631 0.26386 0.0
H1997 H 0.22652 0.08241 0.25671 0.0
H1998 H 0.2349 0.08808 0.21769 0.0
C1999 C 0.20988 0.12154 0.21511 0.0
C2000 C 0.22493 0.11321 0.24151 0.0
C2001 C 0.20493 0.13099 0.21109 0.0
C2002 C 0.23947 0.07005 0.2557 0.0
C2003 C 0.23433 0.07938 0.25169 0.0
C2004 C 0.23225 0.09507 0.22446 0.0
C2005 C 0.21816 0.12371 0.22472 0.0
C2006 C 0.22348 0.11366 0.22896 0.0
C2007 C 0.23914 0.08463 0.24125 0.0
C2008 C 0.23371 0.09462 0.23701 0.0
H2009 H 0.21911 0.15405 0.23061 0.0
H2010 H 0.22781 0.1376 0.23754 0.0
H2011 H 0.22631 0.1046 0.21074 0.0
H2012 H 0.26204 0.06781 0.2338 0.0
H2013 H 0.25321 0.08422 0.22692 0.0
C2014 C 0.21665 0.87772 0.83076 0.0
C2015 C 0.21464 0.87773 0.84345 0.0
C2016 C 0.22345 0.88758 0.82604 0.0
C2017 C 0.23391 0.9201 0.83471 0.0
H2018 H 0.25071 0.91681 0.80306 0.0
C2019 C 0.26053 0.95974 0.81094 0.0
C2020 C 0.25549 0.96081 0.79966 0.0
C2021 C 0.25704 0.9495 0.81687 0.0
C2022 C 0.2461 0.91782 0.81194 0.0
H2023 H 0.21875 0.88778 0.86119 0.0
H2024 H 0.23115 0.90476 0.853 0.0
H2025 H 0.24269 0.89889 0.81267 0.0
H2026 H 0.24268 0.95177 0.78593 0.0
H2027 H 0.23718 0.93373 0.796 0.0
H2028 H 0.23762 0.93912 0.83395 0.0
C2029 C 0.22708 0.89735 0.84663 0.0
C2030 C 0.2414 0.90758 0.81742 0.0
C2031 C 0.22006 0.88757 0.85135 0.0
C2032 C 0.24702 0.95124 0.79441 0.0
C2033 C 0.24378 0.94091 0.80021 0.0
C2034 C 0.23885 0.93035 0.82933 0.0
C2035 C 0.22863 0.89762 0.83389 0.0
C2036 C 0.23495 0.90855 0.82874 0.0
C2037 C 0.24869 0.94 0.8115 0.0
C2038 C 0.24473 0.92926 0.81779 0.0
H2039 H 0.21251 0.87032 0.82442 0.0
H2040 H 0.22419 0.88747 0.81619 0.0
H2041 H 0.22885 0.92129 0.84331 0.0
H2042 H 0.26724 0.96677 0.81518 0.0
H2043 H 0.26096 0.94893 0.82559 0.0
C2044 C 0.15098 0.22944 0.86155 0.0
C2045 C 0.15714 0.22119 0.85402 0.0
C2046 C 0.14217 0.23503 0.85676 0.0
C2047 C 0.13235 0.24319 0.82778 0.0
H2048 H 0.10337 0.24936 0.84716 0.0
C2049 C 0.09399 0.26553 0.80982 0.0
C2050 C 0.08938 0.27442 0.81803 0.0
C2051 C 0.10194 0.2584 0.81379 0.0
C2052 C 0.11146 0.24778 0.84168 0.0
H2053 H 0.15873 0.21218 0.83557 0.0
H2054 H 0.1432 0.22188 0.82721 0.0
H2055 H 0.11754 0.23768 0.85479 0.0
H2056 H 0.08978 0.28296 0.8368 0.0
H2057 H 0.10357 0.27048 0.84373 0.0
H2058 H 0.12626 0.25337 0.8147 0.0
C2059 C 0.14532 0.22413 0.8368 0.0
C2060 C 0.11958 0.24109 0.84605 0.0
C2061 C 0.15416 0.21852 0.84161 0.0
C2062 C 0.09298 0.27606 0.83028 0.0
C2063 C 0.10088 0.2689 0.83426 0.0
C2064 C 0.1242 0.24986 0.8234 0.0
C2065 C 0.13927 0.2325 0.84432 0.0
C2066 C 0.13021 0.23885 0.83924 0.0
C2067 C 0.10541 0.25997 0.82607 0.0
C2068 C 0.11375 0.25237 0.83038 0.0
H2069 H 0.15307 0.23173 0.87115 0.0
H2070 H 0.13783 0.24156 0.86277 0.0
H2071 H 0.14052 0.24176 0.82238 0.0
H2072 H 0.09127 0.26392 0.80036 0.0
H2073 H 0.10519 0.25151 0.8073 0.0
C2074 C 0.80566 0.17846 0.8285 0.0
C2075 C 0.81484 0.18455 0.82141 0.0
C2076 C 0.80273 0.16596 0.82639 0.0
C2077 C 0.80469 0.14074 0.80221 0.0
H2078 H 0.79857 0.1209 0.82875 0.0
C2079 C 0.80055 0.08937 0.79346 0.0
C2080 C 0.79138 0.08258 0.79996 0.0
C2081 C 0.80324 0.10176 0.7965 0.0
C2082 C 0.80011 0.12634 0.82124 0.0
H2083 H 0.82837 0.18224 0.80676 0.0
H2084 H 0.82332 0.16051 0.80316 0.0
H2085 H 0.80367 0.14267 0.8334 0.0
H2086 H 0.77797 0.08351 0.81488 0.0
H2087 H 0.78255 0.10526 0.82007 0.0
H2088 H 0.80112 0.12449 0.79005 0.0
C2089 C 0.81825 0.16539 0.81022 0.0
C2090 C 0.80304 0.1388 0.82391 0.0
C2091 C 0.82119 0.17785 0.81234 0.0
C2092 C 0.78502 0.0885 0.80963 0.0
C2093 C 0.78772 0.10093 0.81269 0.0
C2094 C 0.80175 0.12832 0.79956 0.0
C2095 C 0.8089 0.15931 0.81712 0.0
C2096 C 0.80547 0.14612 0.81441 0.0
C2097 C 0.79681 0.10771 0.80609 0.0
C2098 C 0.79954 0.12096 0.80903 0.0
H2099 H 0.8006 0.18335 0.83556 0.0
H2100 H 0.79542 0.16154 0.83181 0.0
H2101 H 0.80625 0.14615 0.79469 0.0
H2102 H 0.80552 0.08513 0.78585 0.0
H2103 H 0.81041 0.10669 0.79133 0.0
C2104 C 0.88007 0.82877 0.83158 0.0
C2105 C 0.87834 0.84071 0.83093 0.0
C2106 C 0.88896 0.82361 0.82424 0.0
C2107 C 0.91803 0.83167 0.80787 0.0
H2108 H 0.91272 0.79811 0.79446 0.0
C2109 C 0.95581 0.80861 0.78063 0.0
C2110 C 0.9572 0.79721 0.78369 0.0
C2111 C 0.94565 0.81404 0.78497 0.0
C2112 C 0.91437 0.80747 0.7982 0.0
H2113 H 0.88444 0.85649 0.82175 0.0
H2114 H 0.89998 0.84742 0.80886 0.0
H2115 H 0.89577 0.80741 0.80434 0.0
H2116 H 0.94882 0.78244 0.79339 0.0
H2117 H 0.93124 0.79197 0.8011 0.0
H2118 H 0.93668 0.83166 0.80195 0.0
C2119 C 0.89449 0.84211 0.81517 0.0
C2120 C 0.90465 0.81281 0.80386 0.0
C2121 C 0.88554 0.84728 0.8225 0.0
C2122 C 0.94809 0.79128 0.79099 0.0
C2123 C 0.93794 0.79669 0.79528 0.0
C2124 C 0.92775 0.82633 0.80221 0.0
C2125 C 0.89638 0.83025 0.81605 0.0
C2126 C 0.90641 0.82492 0.80895 0.0
C2127 C 0.93663 0.80817 0.7924 0.0
C2128 C 0.92609 0.81411 0.7975 0.0
H2129 H 0.8747 0.82342 0.83795 0.0
H2130 H 0.89027 0.81451 0.82529 0.0
H2131 H 0.91973 0.84097 0.81183 0.0
H2132 H 0.9627 0.81346 0.77511 0.0
H2133 H 0.94487 0.82284 0.78249 0.0
C2134 C 0.85683 0.89749 0.22706 0.0
C2135 C 0.85227 0.88726 0.21915 0.0
C2136 C 0.84933 0.90612 0.23131 0.0
C2137 C 0.82182 0.91766 0.22321 0.0
H2138 H 0.82166 0.93212 0.25702 0.0
C2139 C 0.78716 0.94913 0.24166 0.0
C2140 C 0.79143 0.95931 0.24975 0.0
C2141 C 0.79447 0.94016 0.23831 0.0
C2142 C 0.8217 0.92827 0.24751 0.0
H2143 H 0.83618 0.87795 0.20972 0.0
H2144 H 0.82317 0.89295 0.21714 0.0
H2145 H 0.83478 0.91685 0.25056 0.0
H2146 H 0.80677 0.96813 0.26059 0.0
H2147 H 0.81959 0.95256 0.25465 0.0
H2148 H 0.8089 0.92912 0.22008 0.0
C2149 C 0.83256 0.89438 0.21995 0.0
C2150 C 0.82921 0.91952 0.24383 0.0
C2151 C 0.84001 0.88575 0.21576 0.0
C2152 C 0.80315 0.9603 0.25447 0.0
C2153 C 0.81049 0.95136 0.25108 0.0
C2154 C 0.81437 0.92643 0.22688 0.0
C2155 C 0.83715 0.90471 0.22767 0.0
C2156 C 0.82931 0.91409 0.23164 0.0
C2157 C 0.80626 0.9412 0.24292 0.0
C2158 C 0.81419 0.93183 0.23908 0.0
H2159 H 0.86622 0.89892 0.22985 0.0
H2160 H 0.85315 0.91403 0.23719 0.0
H2161 H 0.82185 0.91379 0.21371 0.0
H2162 H 0.7781 0.94803 0.23801 0.0
H2163 H 0.79084 0.93235 0.23218 0.0
C2164 C 0.20323 0.80715 0.25375 0.0
C2165 C 0.20733 0.80394 0.2417 0.0
C2166 C 0.19095 0.80436 0.25714 0.0
C2167 C 0.16186 0.78561 0.24819 0.0
H2168 H 0.14759 0.8121 0.26606 0.0
C2169 C 0.11219 0.78084 0.26768 0.0
C2170 C 0.10545 0.7901 0.26612 0.0
C2171 C 0.12467 0.78196 0.26473 0.0
C2172 C 0.15143 0.80463 0.26102 0.0
H2173 H 0.20189 0.79468 0.22392 0.0
H2174 H 0.18041 0.78981 0.22986 0.0
H2175 H 0.16938 0.81458 0.26106 0.0
H2176 H 0.10651 0.80771 0.26001 0.0
H2177 H 0.1283 0.80971 0.255 0.0
H2178 H 0.14382 0.77574 0.24802 0.0
C2179 C 0.18671 0.79448 0.23668 0.0
C2180 C 0.16393 0.806 0.25829 0.0
C2181 C 0.19901 0.79731 0.23327 0.0
C2182 C 0.11146 0.80049 0.26151 0.0
C2183 C 0.12395 0.80163 0.25862 0.0
C2184 C 0.14934 0.78421 0.25101 0.0
C2185 C 0.18251 0.79826 0.24856 0.0
C2186 C 0.16928 0.79653 0.25181 0.0
C2187 C 0.13069 0.7924 0.26023 0.0
C2188 C 0.14399 0.79374 0.25739 0.0
H2189 H 0.20941 0.81218 0.2605 0.0
H2190 H 0.18802 0.80719 0.26643 0.0
H2191 H 0.16574 0.77814 0.24324 0.0
H2192 H 0.10789 0.7728 0.27141 0.0
H2193 H 0.12966 0.77477 0.26623 0.0
C2194 C 0.87972 0.19775 0.17761 0.0
C2195 C 0.86796 0.19971 0.18188 0.0
C2196 C 0.89003 0.20488 0.18276 0.0
C2197 C 0.90004 0.22335 0.21122 0.0
H2198 H 0.92851 0.23415 0.19158 0.0
C2199 C 0.94262 0.25265 0.23276 0.0
C2200 C 0.95404 0.24989 0.22818 0.0
C2201 C 0.93194 0.24733 0.22684 0.0
C2202 C 0.92067 0.23111 0.1972 0.0
H2203 H 0.85781 0.21096 0.19467 0.0
H2204 H 0.87582 0.2234 0.20362 0.0
H2205 H 0.91017 0.22359 0.18152 0.0
H2206 H 0.96317 0.23926 0.21389 0.0
H2207 H 0.94455 0.22988 0.20364 0.0
H2208 H 0.91059 0.23061 0.22691 0.0
C2209 C 0.87705 0.21626 0.19637 0.0
C2210 C 0.91016 0.22508 0.19143 0.0
C2211 C 0.86673 0.20917 0.19119 0.0
C2212 C 0.95453 0.2417 0.21754 0.0
C2213 C 0.94385 0.23635 0.21165 0.0
C2214 C 0.91057 0.22932 0.21699 0.0
C2215 C 0.88881 0.21409 0.19232 0.0
C2216 C 0.89976 0.22106 0.19838 0.0
C2217 C 0.93242 0.2391 0.21623 0.0
C2218 C 0.92105 0.23319 0.21006 0.0
H2219 H 0.881 0.19055 0.17046 0.0
H2220 H 0.89897 0.20292 0.17951 0.0
H2221 H 0.89224 0.2202 0.21683 0.0
H2222 H 0.94197 0.25904 0.24085 0.0
H2223 H 0.9233 0.24978 0.23051 0.0
C2224 C 0.21156 0.68164 0.66154 0.0
C2225 C 0.21143 0.68877 0.67293 0.0
C2226 C 0.21843 0.68593 0.65163 0.0
C2227 C 0.24451 0.70682 0.64268 0.0
H2228 H 0.22638 0.70791 0.61364 0.0
C2229 C 0.26574 0.73211 0.60246 0.0
C2230 C 0.26178 0.72782 0.5906 0.0
C2231 C 0.26011 0.72699 0.61259 0.0
C2232 C 0.2317 0.70747 0.62153 0.0
H2233 H 0.21883 0.70577 0.683 0.0
H2234 H 0.23114 0.71311 0.66571 0.0
H2235 H 0.21607 0.6992 0.63109 0.0
H2236 H 0.24926 0.71456 0.57987 0.0
H2237 H 0.23983 0.70517 0.59736 0.0
H2238 H 0.26024 0.71474 0.63308 0.0
C2239 C 0.22579 0.70427 0.66447 0.0
C2240 C 0.22573 0.70253 0.63157 0.0
C2241 C 0.21872 0.70008 0.67433 0.0
C2242 C 0.25235 0.71811 0.58897 0.0
C2243 C 0.2469 0.71281 0.59904 0.0
C2244 C 0.25057 0.71155 0.63253 0.0
C2245 C 0.22551 0.69733 0.65298 0.0
C2246 C 0.23206 0.70222 0.64225 0.0
C2247 C 0.25055 0.71728 0.61103 0.0
C2248 C 0.24423 0.71201 0.62182 0.0
H2249 H 0.20601 0.67291 0.66015 0.0
H2250 H 0.21813 0.6804 0.64286 0.0
H2251 H 0.24959 0.70661 0.65082 0.0
H2252 H 0.27296 0.73966 0.60392 0.0
H2253 H 0.26308 0.73084 0.62164 0.0
C2254 C 0.82367 0.68679 0.62771 0.0
C2255 C 0.82067 0.69295 0.63906 0.0
C2256 C 0.82034 0.69038 0.61678 0.0
C2257 C 0.79921 0.70794 0.60428 0.0
H2258 H 0.82275 0.70925 0.57715 0.0
C2259 C 0.80775 0.73095 0.55662 0.0
C2260 C 0.79597 0.72834 0.55187 0.0
C2261 C 0.81065 0.72577 0.56678 0.0
C2262 C 0.81609 0.70898 0.58466 0.0
H2263 H 0.81174 0.70768 0.64784 0.0
H2264 H 0.80604 0.71402 0.6288 0.0
H2265 H 0.82793 0.70207 0.59598 0.0
H2266 H 0.77802 0.71812 0.55403 0.0
H2267 H 0.78314 0.70889 0.57164 0.0
H2268 H 0.78751 0.71518 0.59311 0.0
C2269 C 0.81083 0.70631 0.62833 0.0
C2270 C 0.81901 0.70474 0.5954 0.0
C2271 C 0.81417 0.70272 0.63925 0.0
C2272 C 0.78722 0.72024 0.55739 0.0
C2273 C 0.79011 0.71506 0.56757 0.0
C2274 C 0.79629 0.71217 0.59354 0.0
C2275 C 0.81392 0.70021 0.61697 0.0
C2276 C 0.81063 0.70426 0.60537 0.0
C2277 C 0.80182 0.71785 0.57245 0.0
C2278 C 0.80474 0.71283 0.58364 0.0
H2279 H 0.82864 0.6792 0.62724 0.0
H2280 H 0.82272 0.68541 0.60818 0.0
H2281 H 0.7925 0.70756 0.61174 0.0
H2282 H 0.81474 0.73706 0.5525 0.0
H2283 H 0.81972 0.7282 0.57038 0.0
C2284 C 0.85095 0.33251 0.6743 0.0
C2285 C 0.85811 0.32743 0.68191 0.0
C2286 C 0.84689 0.32621 0.66321 0.0
C2287 C 0.85233 0.30322 0.63866 0.0
H2288 H 0.81726 0.2989 0.63511 0.0
C2289 C 0.82869 0.2755 0.59616 0.0
C2290 C 0.81859 0.27974 0.5918 0.0
C2291 C 0.83386 0.28067 0.60728 0.0
C2292 C 0.82708 0.30015 0.63583 0.0
H2293 H 0.86711 0.31198 0.68355 0.0
H2294 H 0.86018 0.30105 0.66387 0.0
H2295 H 0.82616 0.30948 0.65391 0.0
H2296 H 0.80595 0.2927 0.59591 0.0
H2297 H 0.8153 0.30207 0.61481 0.0
H2298 H 0.85334 0.29433 0.6204 0.0
C2299 C 0.85765 0.30987 0.66666 0.0
C2300 C 0.83215 0.30614 0.64665 0.0
C2301 C 0.86158 0.31611 0.6779 0.0
C2302 C 0.81383 0.2893 0.59883 0.0
C2303 C 0.81909 0.29455 0.60984 0.0
C2304 C 0.84726 0.29737 0.62771 0.0
C2305 C 0.85004 0.31477 0.65939 0.0
C2306 C 0.84481 0.30784 0.64811 0.0
C2307 C 0.82912 0.29027 0.61427 0.0
C2308 C 0.83457 0.29589 0.62611 0.0
H2309 H 0.84812 0.3412 0.67709 0.0
H2310 H 0.84112 0.3302 0.65768 0.0
H2311 H 0.86213 0.30446 0.6396 0.0
H2312 H 0.83271 0.26826 0.59093 0.0
H2313 H 0.8415 0.27705 0.61044 0.0
C2314 C 0.2401 0.30365 0.65357 0.0
C2315 C 0.24828 0.30163 0.66222 0.0
C2316 C 0.24177 0.29968 0.64115 0.0
C2317 C 0.25543 0.27736 0.62034 0.0
H2318 H 0.25512 0.29945 0.59617 0.0
C2319 C 0.27086 0.26581 0.57007 0.0
C2320 C 0.2651 0.27028 0.56087 0.0
C2321 C 0.26822 0.26928 0.58242 0.0
C2322 C 0.25502 0.29307 0.60275 0.0
H2323 H 0.26457 0.29376 0.66466 0.0
H2324 H 0.26735 0.28665 0.64297 0.0
H2325 H 0.25151 0.30618 0.61775 0.0
H2326 H 0.25182 0.28153 0.55727 0.0
H2327 H 0.24687 0.28729 0.57881 0.0
H2328 H 0.25868 0.26416 0.60542 0.0
C2329 C 0.25968 0.29135 0.64582 0.0
C2330 C 0.253 0.29697 0.61512 0.0
C2331 C 0.25812 0.29548 0.65821 0.0
C2332 C 0.25646 0.27806 0.56422 0.0
C2333 C 0.2537 0.2814 0.57656 0.0
C2334 C 0.25727 0.27339 0.60796 0.0
C2335 C 0.25154 0.29344 0.63718 0.0
C2336 C 0.2533 0.28918 0.62404 0.0
C2337 C 0.25966 0.27718 0.58583 0.0
C2338 C 0.2572 0.28123 0.59899 0.0
H2339 H 0.23244 0.30837 0.65638 0.0
H2340 H 0.23532 0.30134 0.63467 0.0
H2341 H 0.25555 0.27113 0.62704 0.0
H2342 H 0.27768 0.25992 0.56772 0.0
H2343 H 0.27317 0.266 0.58926 0.0
C2344 C 0.23602 0.31382 0.36863 0.0
C2345 C 0.24271 0.31113 0.35773 0.0
C2346 C 0.23922 0.31026 0.37962 0.0
C2347 C 0.25419 0.28761 0.39145 0.0
H2348 H 0.25653 0.30942 0.42156 0.0
C2349 C 0.27201 0.2743 0.43539 0.0
C2350 C 0.2666 0.27824 0.44665 0.0
C2351 C 0.26925 0.27858 0.42464 0.0
C2352 C 0.25574 0.30316 0.41328 0.0
H2353 H 0.25807 0.30271 0.34985 0.0
H2354 H 0.26355 0.29637 0.36904 0.0
H2355 H 0.25141 0.31651 0.40264 0.0
H2356 H 0.25395 0.28964 0.45551 0.0
H2357 H 0.24881 0.29689 0.43669 0.0
H2358 H 0.2582 0.27416 0.40202 0.0
C2359 C 0.25584 0.30123 0.36905 0.0
C2360 C 0.25286 0.30725 0.40244 0.0
C2361 C 0.25274 0.30492 0.35809 0.0
C2362 C 0.25833 0.28654 0.44696 0.0
C2363 C 0.25544 0.29073 0.43617 0.0
C2364 C 0.25693 0.28348 0.40229 0.0
C2365 C 0.24907 0.30381 0.3799 0.0
C2366 C 0.25211 0.29952 0.39142 0.0
C2367 C 0.26087 0.28681 0.42487 0.0
C2368 C 0.2578 0.29121 0.41335 0.0
H2369 H 0.22826 0.31861 0.36865 0.0
H2370 H 0.2338 0.31229 0.38784 0.0
H2371 H 0.25348 0.28142 0.38311 0.0
H2372 H 0.27855 0.26803 0.43492 0.0
H2373 H 0.27381 0.27555 0.41618 0.0
C2374 C 0.22265 0.70256 0.3894 0.0
C2375 C 0.21085 0.69599 0.38933 0.0
C2376 C 0.22868 0.70617 0.4004 0.0
C2377 C 0.22888 0.70019 0.43264 0.0
H2378 H 0.24556 0.73289 0.43777 0.0
C2379 C 0.24641 0.72249 0.47987 0.0
C2380 C 0.25782 0.72981 0.4801 0.0
C2381 C 0.2409 0.71802 0.46875 0.0
C2382 C 0.24108 0.72369 0.43643 0.0
H2383 H 0.19626 0.68786 0.40075 0.0
H2384 H 0.20678 0.69425 0.41995 0.0
H2385 H 0.2357 0.72552 0.41842 0.0
H2386 H 0.27232 0.73824 0.4688 0.0
H2387 H 0.26282 0.73025 0.4494 0.0
H2388 H 0.23425 0.69838 0.45068 0.0
C2389 C 0.21139 0.69651 0.41148 0.0
C2390 C 0.23543 0.71946 0.42533 0.0
C2391 C 0.20534 0.69291 0.40048 0.0
C2392 C 0.26359 0.73252 0.46894 0.0
C2393 C 0.25808 0.72806 0.45782 0.0
C2394 C 0.23456 0.70441 0.44374 0.0
C2395 C 0.22307 0.7033 0.41158 0.0
C2396 C 0.22926 0.70767 0.42331 0.0
C2397 C 0.24665 0.72078 0.4576 0.0
C2398 C 0.24071 0.71622 0.44577 0.0
H2399 H 0.22719 0.70504 0.38098 0.0
H2400 H 0.23775 0.71124 0.40015 0.0
H2401 H 0.22433 0.69101 0.4313 0.0
H2402 H 0.24178 0.72013 0.4883 0.0
H2403 H 0.23203 0.71254 0.4689 0.0
C2404 C 0.8131 0.75336 0.34502 0.0
C2405 C 0.81986 0.74487 0.3387 0.0
C2406 C 0.80912 0.7524 0.35712 0.0
C2407 C 0.81593 0.73917 0.38459 0.0
H2408 H 0.78444 0.74776 0.3961 0.0
C2409 C 0.79802 0.73635 0.4346 0.0
C2410 C 0.79328 0.74658 0.44019 0.0
C2411 C 0.80055 0.73497 0.42197 0.0
C2412 C 0.79328 0.74537 0.39302 0.0
H2413 H 0.82825 0.72907 0.34034 0.0
H2414 H 0.82088 0.72709 0.36129 0.0
H2415 H 0.79014 0.7474 0.37441 0.0
H2416 H 0.78706 0.76314 0.43693 0.0
H2417 H 0.79152 0.76075 0.41495 0.0
H2418 H 0.81907 0.73723 0.40326 0.0
C2419 C 0.81863 0.73448 0.35688 0.0
C2420 C 0.79656 0.74519 0.38061 0.0
C2421 C 0.82264 0.73546 0.34477 0.0
C2422 C 0.79086 0.75524 0.43288 0.0
C2423 C 0.79329 0.75381 0.42028 0.0
C2424 C 0.81261 0.73929 0.39701 0.0
C2425 C 0.81185 0.74297 0.36322 0.0
C2426 C 0.808 0.74228 0.37627 0.0
C2427 C 0.79825 0.74371 0.4147 0.0
C2428 C 0.80134 0.74258 0.40138 0.0
H2429 H 0.81093 0.76078 0.34061 0.0
H2430 H 0.80413 0.75924 0.36179 0.0
H2431 H 0.82487 0.73704 0.3816 0.0
H2432 H 0.79999 0.72956 0.44003 0.0
H2433 H 0.8043 0.72705 0.41789 0.0
C2434 C 0.84761 0.31917 0.40054 0.0
C2435 C 0.84091 0.3266 0.39507 0.0
C2436 C 0.84348 0.31469 0.41147 0.0
C2437 C 0.81571 0.30804 0.43057 0.0
H2438 H 0.839 0.30557 0.45506 0.0
C2439 C 0.80133 0.29116 0.47749 0.0
C2440 C 0.80838 0.28312 0.48151 0.0
C2441 C 0.80507 0.29706 0.46723 0.0
C2442 C 0.83239 0.3061 0.44826 0.0
H2443 H 0.82462 0.33524 0.39687 0.0
H2444 H 0.81743 0.32746 0.41609 0.0
H2445 H 0.84594 0.31509 0.43682 0.0
H2446 H 0.82495 0.27508 0.47795 0.0
H2447 H 0.83139 0.28526 0.45999 0.0
H2448 H 0.80217 0.29898 0.44203 0.0
C2449 C 0.82584 0.32501 0.41181 0.0
C2450 C 0.83637 0.31156 0.43781 0.0
C2451 C 0.82999 0.32952 0.40084 0.0
C2452 C 0.81925 0.28112 0.47503 0.0
C2453 C 0.82301 0.28707 0.46482 0.0
C2454 C 0.81172 0.30259 0.44106 0.0
C2455 C 0.83253 0.31752 0.41724 0.0
C2456 C 0.82811 0.31246 0.42875 0.0
C2457 C 0.81598 0.29512 0.46081 0.0
C2458 C 0.82006 0.30142 0.44995 0.0
H2459 H 0.85604 0.31669 0.39633 0.0
H2460 H 0.84877 0.30879 0.41527 0.0
H2461 H 0.80913 0.30845 0.42371 0.0
H2462 H 0.79285 0.2928 0.48222 0.0
H2463 H 0.79949 0.30327 0.46443 0.0
C2464 C 0.14726 0.70241 0.72588 0.0
C2465 C 0.14762 0.69691 0.71372 0.0
C2466 C 0.13692 0.7073 0.73065 0.0
C2467 C 0.10402 0.70689 0.72551 0.0
H2468 H 0.109 0.73856 0.74394 0.0
C2469 C 0.06515 0.73571 0.73534 0.0
C2470 C 0.06456 0.7425 0.74688 0.0
C2471 C 0.07515 0.72973 0.73189 0.0
C2472 C 0.10743 0.72965 0.73896 0.0
H2473 H 0.13724 0.69198 0.69715 0.0
H2474 H 0.11929 0.70053 0.70544 0.0
H2475 H 0.12656 0.7286 0.73709 0.0
H2476 H 0.07412 0.74838 0.76382 0.0
H2477 H 0.09146 0.73776 0.75789 0.0
H2478 H 0.08491 0.70796 0.7273 0.0
C2479 C 0.12695 0.70099 0.71134 0.0
C2480 C 0.1175 0.72393 0.73504 0.0
C2481 C 0.13729 0.69614 0.70656 0.0
C2482 C 0.07422 0.74314 0.7549 0.0
C2483 C 0.08423 0.73715 0.75145 0.0
C2484 C 0.09395 0.7126 0.72945 0.0
C2485 C 0.12668 0.70676 0.72339 0.0
C2486 C 0.11593 0.71253 0.72817 0.0
C2487 C 0.08482 0.73037 0.73989 0.0
C2488 C 0.09553 0.7241 0.73613 0.0
H2489 H 0.15505 0.70313 0.73166 0.0
H2490 H 0.13695 0.71155 0.74003 0.0
H2491 H 0.10248 0.69803 0.7204 0.0
H2492 H 0.05781 0.7349 0.72898 0.0
H2493 H 0.07537 0.72472 0.72286 0.0
C2494 C 0.80608 0.64358 0.70865 0.0
C2495 C 0.81286 0.64215 0.69759 0.0
C2496 C 0.79966 0.6336 0.71353 0.0
C2497 C 0.80038 0.60136 0.71321 0.0
H2498 H 0.76856 0.6012 0.72939 0.0
C2499 C 0.77507 0.55911 0.732 0.0
C2500 C 0.769 0.56064 0.74346 0.0
C2501 C 0.7797 0.56902 0.72597 0.0
C2502 C 0.7775 0.60116 0.72501 0.0
H2503 H 0.81772 0.62915 0.6827 0.0
H2504 H 0.80647 0.61176 0.69119 0.0
H2505 H 0.77759 0.61858 0.71931 0.0
H2506 H 0.7629 0.5738 0.75748 0.0
H2507 H 0.7713 0.59115 0.74711 0.0
H2508 H 0.80045 0.58409 0.71905 0.0
C2509 C 0.80627 0.62059 0.69617 0.0
C2510 C 0.78265 0.6111 0.71921 0.0
C2511 C 0.81266 0.63057 0.69127 0.0
C2512 C 0.76764 0.57232 0.74873 0.0
C2513 C 0.77231 0.58225 0.74271 0.0
C2514 C 0.79526 0.59147 0.71903 0.0
C2515 C 0.79991 0.62198 0.70748 0.0
C2516 C 0.79415 0.6113 0.71326 0.0
C2517 C 0.77845 0.58071 0.73128 0.0
C2518 C 0.78377 0.59124 0.72501 0.0
H2519 H 0.80602 0.65238 0.71374 0.0
H2520 H 0.79491 0.63496 0.7223 0.0
H2521 H 0.80936 0.60135 0.70892 0.0
H2522 H 0.77641 0.55026 0.72773 0.0
H2523 H 0.78424 0.56749 0.71712 0.0
C2524 C 0.90836 0.32549 0.73565 0.0
C2525 C 0.90409 0.33647 0.73512 0.0
C2526 C 0.92011 0.32528 0.73961 0.0
C2527 C 0.94354 0.34181 0.75932 0.0
H2528 H 0.96571 0.3234 0.73958 0.0
C2529 C 0.99257 0.34103 0.77458 0.0
C2530 C 0.99737 0.33022 0.77184 0.0
C2531 C 0.98157 0.34244 0.76959 0.0
C2532 C 0.95959 0.32844 0.74531 0.0
H2533 H 0.90869 0.35584 0.73841 0.0
H2534 H 0.92917 0.35543 0.74569 0.0
H2535 H 0.94564 0.32443 0.73195 0.0
H2536 H 0.99445 0.3123 0.76212 0.0
H2537 H 0.97503 0.31449 0.75382 0.0
H2538 H 0.95715 0.34541 0.77294 0.0
C2539 C 0.92344 0.34702 0.74289 0.0
C2540 C 0.94813 0.32909 0.74088 0.0
C2541 C 0.91177 0.34724 0.73869 0.0
C2542 C 0.991 0.3208 0.76415 0.0
C2543 C 0.9799 0.32211 0.75936 0.0
C2544 C 0.95492 0.34099 0.76387 0.0
C2545 C 0.92771 0.33603 0.74335 0.0
C2546 C 0.94 0.33573 0.74786 0.0
C2547 C 0.97503 0.33296 0.76197 0.0
C2548 C 0.96308 0.33424 0.75695 0.0
H2549 H 0.90266 0.31705 0.73293 0.0
H2550 H 0.92319 0.3167 0.73997 0.0
H2551 H 0.93736 0.3469 0.76491 0.0
H2552 H 0.99738 0.34839 0.78052 0.0
H2553 H 0.97824 0.35099 0.77167 0.0
C2554 C 0.25151 0.35692 0.73162 0.0
C2555 C 0.24646 0.35201 0.72032 0.0
C2556 C 0.25266 0.36927 0.73522 0.0
C2557 C 0.23999 0.39631 0.73127 0.0
H2558 H 0.27145 0.41319 0.74181 0.0
C2559 C 0.24908 0.44814 0.74166 0.0
C2560 C 0.25721 0.45308 0.75096 0.0
C2561 C 0.24752 0.43579 0.73782 0.0
C2562 C 0.26253 0.40863 0.73911 0.0
H2563 H 0.23866 0.35609 0.7039 0.0
H2564 H 0.24045 0.37775 0.71033 0.0
H2565 H 0.2691 0.39166 0.7355 0.0
H2566 H 0.26972 0.44906 0.7639 0.0
H2567 H 0.26668 0.42751 0.75762 0.0
H2568 H 0.23327 0.41314 0.73522 0.0
C2569 C 0.24352 0.37202 0.71637 0.0
C2570 C 0.26123 0.39629 0.73542 0.0
C2571 C 0.24258 0.35967 0.71266 0.0
C2572 C 0.26353 0.44547 0.75657 0.0
C2573 C 0.26183 0.43312 0.7529 0.0
C2574 C 0.24123 0.40864 0.73516 0.0
C2575 C 0.24863 0.37692 0.72765 0.0
C2576 C 0.24996 0.39002 0.73147 0.0
C2577 C 0.25393 0.42811 0.74336 0.0
C2578 C 0.25253 0.41497 0.73915 0.0
H2579 H 0.25479 0.35123 0.73757 0.0
H2580 H 0.25661 0.37285 0.74397 0.0
H2581 H 0.23117 0.39164 0.72835 0.0
H2582 H 0.24417 0.45386 0.73714 0.0
H2583 H 0.24149 0.43232 0.73034 0.0
C2584 C 0.15442 0.34078 0.31991 0.0
C2585 C 0.16197 0.34898 0.3133 0.0
C2586 C 0.14227 0.33706 0.31677 0.0
C2587 C 0.12262 0.33378 0.2902 0.0
H2588 H 0.09674 0.32595 0.31402 0.0
C2589 C 0.07812 0.3032 0.27646 0.0
C2590 C 0.06711 0.30624 0.28191 0.0
C2591 C 0.08929 0.30933 0.28065 0.0
C2592 C 0.10383 0.3282 0.30725 0.0
H2593 H 0.16249 0.36017 0.29861 0.0
H2594 H 0.14123 0.35379 0.29323 0.0
H2595 H 0.1167 0.33585 0.32101 0.0
H2596 H 0.05921 0.3181 0.29603 0.0
H2597 H 0.07877 0.32883 0.30335 0.0
H2598 H 0.10977 0.32621 0.27645 0.0
C2599 C 0.14478 0.35006 0.3007 0.0
C2600 C 0.1153 0.33377 0.31126 0.0
C2601 C 0.15695 0.35377 0.30383 0.0
C2602 C 0.06754 0.31546 0.29174 0.0
C2603 C 0.07874 0.32161 0.29592 0.0
C2604 C 0.11117 0.32822 0.2862 0.0
C2605 C 0.13737 0.34146 0.30696 0.0
C2606 C 0.12488 0.33649 0.30278 0.0
C2607 C 0.08974 0.31866 0.29037 0.0
C2608 C 0.10169 0.32521 0.29468 0.0
H2609 H 0.15798 0.33692 0.32728 0.0
H2610 H 0.13687 0.33034 0.32171 0.0
H2611 H 0.12981 0.33561 0.28341 0.0
H2612 H 0.0781 0.296 0.26902 0.0
H2613 H 0.0976 0.30664 0.27634 0.0
C2614 C 0.22277 0.65592 0.32993 0.0
C2615 C 0.21039 0.65689 0.33244 0.0
C2616 C 0.22641 0.64479 0.32589 0.0
C2617 C 0.21648 0.61531 0.30982 0.0
H2618 H 0.24134 0.60474 0.32786 0.0
C2619 C 0.23031 0.5679 0.29837 0.0
C2620 C 0.24256 0.56667 0.29972 0.0
C2621 C 0.22605 0.57874 0.30252 0.0
C2622 C 0.23454 0.6076 0.32257 0.0
H2623 H 0.19208 0.64702 0.33238 0.0
H2624 H 0.19846 0.62755 0.32495 0.0
H2625 H 0.2347 0.62413 0.33437 0.0
H2626 H 0.26007 0.57577 0.30611 0.0
H2627 H 0.25285 0.59483 0.31289 0.0
H2628 H 0.21659 0.59907 0.29771 0.0
C2629 C 0.20531 0.63543 0.32627 0.0
C2630 C 0.2307 0.61869 0.32637 0.0
C2631 C 0.20169 0.64654 0.33055 0.0
C2632 C 0.25053 0.57647 0.30515 0.0
C2633 C 0.24635 0.58737 0.30909 0.0
C2634 C 0.22049 0.6043 0.30586 0.0
C2635 C 0.21771 0.63444 0.32405 0.0
C2636 C 0.22165 0.62264 0.32003 0.0
C2637 C 0.23403 0.58865 0.30789 0.0
C2638 C 0.22959 0.6003 0.31218 0.0
H2639 H 0.22969 0.66373 0.33134 0.0
H2640 H 0.23602 0.64425 0.32416 0.0
H2641 H 0.20955 0.61822 0.30474 0.0
H2642 H 0.22399 0.56042 0.29426 0.0
H2643 H 0.21647 0.57928 0.30162 0.0
C2644 C 0.88021 0.77451 0.30016 0.0
C2645 C 0.87345 0.76313 0.30103 0.0
C2646 C 0.89295 0.77607 0.30007 0.0
C2647 C 0.9189 0.76293 0.30936 0.0
H2648 H 0.93716 0.78079 0.285 0.0
C2649 C 0.97095 0.76421 0.3017 0.0
C2650 C 0.97782 0.77495 0.29869 0.0
C2651 C 0.95822 0.76294 0.30239 0.0
C2652 C 0.93223 0.77594 0.29199 0.0
H2653 H 0.87475 0.74447 0.30259 0.0
H2654 H 0.89701 0.74723 0.30253 0.0
H2655 H 0.91495 0.77834 0.28547 0.0
H2656 H 0.97662 0.79281 0.29407 0.0
H2657 H 0.95451 0.79077 0.29577 0.0
H2658 H 0.93613 0.76065 0.31602 0.0
C2659 C 0.89243 0.75494 0.30193 0.0
C2660 C 0.91949 0.77451 0.29222 0.0
C2661 C 0.8797 0.75335 0.30189 0.0
C2662 C 0.97165 0.78446 0.29659 0.0
C2663 C 0.95893 0.78322 0.29737 0.0
C2664 C 0.93164 0.76445 0.30921 0.0
C2665 C 0.89919 0.7663 0.30099 0.0
C2666 C 0.9127 0.76795 0.30087 0.0
C2667 C 0.95204 0.77241 0.30015 0.0
C2668 C 0.93847 0.77095 0.30049 0.0
H2669 H 0.87567 0.78222 0.2995 0.0
H2670 H 0.89793 0.78495 0.29944 0.0
H2671 H 0.91389 0.75795 0.31623 0.0
H2672 H 0.97541 0.75675 0.3035 0.0
H2673 H 0.95322 0.75444 0.30443 0.0
C2674 C 0.82298 0.38927 0.32798 0.0
C2675 C 0.83292 0.3915 0.33583 0.0
C2676 C 0.8184 0.39876 0.32362 0.0
C2677 C 0.82659 0.43078 0.31889 0.0
H2678 H 0.79161 0.42969 0.31698 0.0
C2679 C 0.80472 0.4715 0.30829 0.0
C2680 C 0.79491 0.46917 0.30026 0.0
C2681 C 0.80937 0.46207 0.31267 0.0
C2682 C 0.8014 0.43008 0.31734 0.0
H2683 H 0.84587 0.40548 0.34524 0.0
H2684 H 0.83781 0.42204 0.33776 0.0
H2685 H 0.79971 0.41319 0.32449 0.0
H2686 H 0.78246 0.45505 0.29037 0.0
H2687 H 0.79055 0.43861 0.29805 0.0
H2688 H 0.82827 0.4477 0.31176 0.0
C2689 C 0.83364 0.41294 0.33483 0.0
C2690 C 0.80606 0.42061 0.32164 0.0
C2691 C 0.83822 0.40344 0.33918 0.0
C2692 C 0.78987 0.45718 0.29672 0.0
C2693 C 0.79452 0.44775 0.30111 0.0
C2694 C 0.82194 0.44026 0.31461 0.0
C2695 C 0.82366 0.41072 0.32701 0.0
C2696 C 0.81871 0.42083 0.32245 0.0
C2697 C 0.80433 0.45007 0.30913 0.0
C2698 C 0.80929 0.44002 0.31377 0.0
H2699 H 0.81871 0.38017 0.32518 0.0
H2700 H 0.81082 0.39671 0.31747 0.0
H2701 H 0.83639 0.43116 0.31922 0.0
H2702 H 0.8087 0.48064 0.31132 0.0
H2703 H 0.81682 0.46418 0.31897 0.0
C2704 C 0.20357 0.6374 0.72459 0.0
C2705 C 0.20039 0.63647 0.71225 0.0
C2706 C 0.20845 0.62811 0.72902 0.0
C2707 C 0.22593 0.60364 0.71977 0.0
H2708 H 0.21124 0.58982 0.74838 0.0
C2709 C 0.24178 0.56181 0.73552 0.0
C2710 C 0.24146 0.56076 0.7481 0.0
C2711 C 0.23663 0.57095 0.73113 0.0
C2712 C 0.21563 0.59369 0.74051 0.0
H2713 H 0.19998 0.62515 0.69484 0.0
H2714 H 0.20882 0.60906 0.70253 0.0
H2715 H 0.2028 0.60618 0.74094 0.0
H2716 H 0.23577 0.56853 0.76601 0.0
H2717 H 0.22724 0.58479 0.75849 0.0
H2718 H 0.23904 0.59157 0.7195 0.0
C2719 C 0.20741 0.61694 0.70878 0.0
C2720 C 0.21071 0.60302 0.73622 0.0
C2721 C 0.2023 0.62611 0.70441 0.0
C2722 C 0.23599 0.56907 0.75624 0.0
C2723 C 0.23104 0.57835 0.75189 0.0
C2724 C 0.231 0.59447 0.72418 0.0
C2725 C 0.21047 0.61782 0.72113 0.0
C2726 C 0.21578 0.60804 0.72578 0.0
C2727 C 0.23124 0.57941 0.73926 0.0
C2728 C 0.22589 0.5893 0.73459 0.0
H2729 H 0.20218 0.64526 0.73086 0.0
H2730 H 0.2108 0.62903 0.73857 0.0
H2731 H 0.23008 0.60746 0.71176 0.0
H2732 H 0.24587 0.55544 0.72905 0.0
H2733 H 0.23675 0.57126 0.72133 0.0
C2734 C 0.2218 0.36761 0.32466 0.0
C2735 C 0.22899 0.35925 0.31882 0.0
C2736 C 0.22354 0.37945 0.32182 0.0
C2737 C 0.2358 0.39786 0.29762 0.0
H2738 H 0.23866 0.42449 0.32355 0.0
C2739 C 0.25436 0.44592 0.28798 0.0
C2740 C 0.24917 0.45549 0.29442 0.0
C2741 C 0.25122 0.43427 0.29109 0.0
C2742 C 0.23769 0.41717 0.31619 0.0
H2743 H 0.24373 0.35674 0.30556 0.0
H2744 H 0.24671 0.37736 0.30056 0.0
H2745 H 0.23418 0.40393 0.32872 0.0
H2746 H 0.23656 0.46039 0.30916 0.0
H2747 H 0.23089 0.43997 0.31451 0.0
H2748 H 0.23922 0.41099 0.28507 0.0
C2749 C 0.23966 0.37475 0.30725 0.0
C2750 C 0.23515 0.4054 0.31916 0.0
C2751 C 0.23801 0.36298 0.31017 0.0
C2752 C 0.24079 0.45318 0.3041 0.0
C2753 C 0.23756 0.44149 0.30717 0.0
C2754 C 0.23824 0.40961 0.29464 0.0
C2755 C 0.23244 0.38311 0.31302 0.0
C2756 C 0.23436 0.39563 0.30991 0.0
C2757 C 0.24273 0.43188 0.30068 0.0
C2758 C 0.23941 0.41942 0.30389 0.0
H2759 H 0.215 0.36508 0.33159 0.0
H2760 H 0.21785 0.38572 0.32642 0.0
H2761 H 0.23504 0.3905 0.29029 0.0
H2762 H 0.26102 0.44745 0.28062 0.0
H2763 H 0.2556 0.42716 0.28607 0.0
C2764 C 0.16438 0.71492 0.33402 0.0
C2765 C 0.16147 0.70416 0.3393 0.0
C2766 C 0.15528 0.72009 0.32914 0.0
C2767 C 0.12335 0.71401 0.31875 0.0
H2768 H 0.12481 0.74848 0.32655 0.0
C2769 C 0.08978 0.74097 0.29926 0.0
C2770 C 0.08562 0.75031 0.3072 0.0
C2771 C 0.09899 0.73502 0.30278 0.0
C2772 C 0.12421 0.73883 0.32437 0.0
H2773 H 0.14677 0.69016 0.34324 0.0
H2774 H 0.13086 0.69926 0.33488 0.0
H2775 H 0.14097 0.73853 0.3331 0.0
H2776 H 0.08762 0.76049 0.32518 0.0
H2777 H 0.10362 0.75006 0.33138 0.0
H2778 H 0.10638 0.7143 0.31032 0.0
C2779 C 0.1402 0.70365 0.33438 0.0
C2780 C 0.13357 0.73315 0.32797 0.0
C2781 C 0.14932 0.69845 0.33922 0.0
C2782 C 0.09076 0.75345 0.3188 0.0
C2783 C 0.09994 0.74749 0.32233 0.0
C2784 C 0.11397 0.7197 0.31515 0.0
C2785 C 0.14305 0.71463 0.32947 0.0
C2786 C 0.13325 0.72066 0.32524 0.0
C2787 C 0.10424 0.73826 0.31433 0.0
C2788 C 0.11426 0.73218 0.31798 0.0
H2789 H 0.17367 0.7195 0.33384 0.0
H2790 H 0.15782 0.72843 0.32521 0.0
H2791 H 0.12287 0.70439 0.3164 0.0
H2792 H 0.08611 0.73846 0.2902 0.0
H2793 H 0.1022 0.72807 0.29634 0.0
C2794 C 0.81246 0.67356 0.32099 0.0
C2795 C 0.80481 0.68032 0.3158 0.0
C2796 C 0.80997 0.66103 0.31975 0.0
C2797 C 0.78548 0.63549 0.31212 0.0
H2798 H 0.8125 0.61758 0.30382 0.0
C2799 C 0.7791 0.5836 0.30653 0.0
C2800 C 0.78528 0.57804 0.29649 0.0
C2801 C 0.78165 0.59599 0.30989 0.0
C2802 C 0.80485 0.62245 0.30609 0.0
H2803 H 0.78841 0.6792 0.30544 0.0
H2804 H 0.78415 0.65737 0.30316 0.0
H2805 H 0.8164 0.6394 0.30779 0.0
H2806 H 0.7989 0.58117 0.28203 0.0
H2807 H 0.80333 0.60274 0.28785 0.0
H2808 H 0.77389 0.61856 0.31002 0.0
C2809 C 0.792 0.66175 0.30832 0.0
C2810 C 0.8071 0.63495 0.30851 0.0
C2811 C 0.79449 0.67427 0.30956 0.0
C2812 C 0.79413 0.58513 0.28994 0.0
C2813 C 0.79667 0.59751 0.29329 0.0
C2814 C 0.78323 0.62299 0.3097 0.0
C2815 C 0.79976 0.65497 0.31331 0.0
C2816 C 0.79743 0.64163 0.31143 0.0
C2817 C 0.79043 0.6031 0.30327 0.0
C2818 C 0.79288 0.61633 0.30652 0.0
H2819 H 0.82046 0.67794 0.32591 0.0
H2820 H 0.81604 0.65608 0.32385 0.0
H2821 H 0.77784 0.64036 0.31449 0.0
H2822 H 0.77234 0.57835 0.31185 0.0
H2823 H 0.7768 0.59999 0.31773 0.0
C2824 C 0.87765 0.32766 0.32956 0.0
C2825 C 0.87458 0.33913 0.32872 0.0
C2826 C 0.88684 0.32327 0.32203 0.0
C2827 C 0.91444 0.33314 0.30408 0.0
H2828 H 0.91131 0.29935 0.29158 0.0
C2829 C 0.95292 0.31227 0.27542 0.0
C2830 C 0.95556 0.30145 0.27894 0.0
C2831 C 0.94247 0.31704 0.28008 0.0
C2832 C 0.91235 0.3088 0.29505 0.0
H2833 H 0.87871 0.3549 0.31913 0.0
H2834 H 0.89481 0.34717 0.30589 0.0
H2835 H 0.89397 0.30744 0.3021 0.0
H2836 H 0.94912 0.28696 0.2898 0.0
H2837 H 0.93101 0.29531 0.29801 0.0
H2838 H 0.93291 0.33443 0.29718 0.0
C2839 C 0.89011 0.34164 0.31248 0.0
C2840 C 0.90241 0.31344 0.30108 0.0
C2841 C 0.88085 0.34604 0.32002 0.0
C2842 C 0.94741 0.29538 0.28702 0.0
C2843 C 0.93696 0.3001 0.29161 0.0
C2844 C 0.92439 0.3285 0.29801 0.0
C2845 C 0.89324 0.33021 0.31344 0.0
C2846 C 0.90341 0.32561 0.3059 0.0
C2847 C 0.9344 0.31103 0.28827 0.0
C2848 C 0.92353 0.31622 0.29365 0.0
H2849 H 0.87304 0.32208 0.33615 0.0
H2850 H 0.88914 0.31452 0.32317 0.0
H2851 H 0.91556 0.34253 0.30778 0.0
H2852 H 0.95906 0.31719 0.26926 0.0
H2853 H 0.94071 0.32543 0.27726 0.0
C2854 C 0.83943 0.38865 0.73604 0.0
C2855 C 0.83409 0.37901 0.72781 0.0
C2856 C 0.83309 0.39828 0.74003 0.0
C2857 C 0.80863 0.41353 0.73061 0.0
H2858 H 0.8081 0.42792 0.76443 0.0
C2859 C 0.77708 0.44844 0.74764 0.0
C2860 C 0.7818 0.45825 0.75597 0.0
C2861 C 0.78359 0.4388 0.74451 0.0
C2862 C 0.80828 0.42409 0.75492 0.0
H2863 H 0.81778 0.37176 0.71765 0.0
H2864 H 0.80678 0.38847 0.72466 0.0
H2865 H 0.81929 0.41097 0.7586 0.0
H2866 H 0.79709 0.46571 0.76749 0.0
H2867 H 0.80852 0.44893 0.76195 0.0
H2868 H 0.79773 0.42664 0.72686 0.0
C2869 C 0.81591 0.38868 0.72788 0.0
C2870 C 0.81468 0.41438 0.7516 0.0
C2871 C 0.8222 0.37906 0.72393 0.0
C2872 C 0.79316 0.45821 0.76114 0.0
C2873 C 0.79969 0.44858 0.75799 0.0
C2874 C 0.80228 0.42324 0.73391 0.0
C2875 C 0.82134 0.39847 0.73584 0.0
C2876 C 0.81483 0.40895 0.73942 0.0
C2877 C 0.79499 0.43878 0.74961 0.0
C2878 C 0.80196 0.42859 0.74612 0.0
H2879 H 0.84857 0.38887 0.7392 0.0
H2880 H 0.83753 0.40574 0.74612 0.0
H2881 H 0.80877 0.40969 0.7211 0.0
H2882 H 0.76827 0.44813 0.74366 0.0
H2883 H 0.7796 0.4313 0.73821 0.0
C2884 C 0.20124 0.36188 0.76543 0.0
C2885 C 0.2078 0.35234 0.76634 0.0
C2886 C 0.18998 0.36234 0.77157 0.0
C2887 C 0.16902 0.34913 0.79523 0.0
H2888 H 0.14394 0.35317 0.77329 0.0
C2889 C 0.11818 0.33052 0.80207 0.0
C2890 C 0.10932 0.33655 0.79782 0.0
C2891 C 0.13059 0.33465 0.80038 0.0
C2892 C 0.1508 0.35228 0.77968 0.0
H2893 H 0.2081 0.33628 0.77514 0.0
H2894 H 0.18843 0.33705 0.78576 0.0
H2895 H 0.1652 0.3568 0.76679 0.0
H2896 H 0.10641 0.35207 0.78926 0.0
H2897 H 0.12804 0.35947 0.78656 0.0
H2898 H 0.15452 0.34432 0.80802 0.0
C2899 C 0.192 0.3442 0.78034 0.0
C2900 C 0.16303 0.35436 0.77593 0.0
C2901 C 0.20324 0.34372 0.77418 0.0
C2902 C 0.11307 0.34715 0.79245 0.0
C2903 C 0.12546 0.35135 0.79088 0.0
C2904 C 0.15675 0.3471 0.79902 0.0
C2905 C 0.18506 0.3533 0.77878 0.0
C2906 C 0.17227 0.35258 0.78355 0.0
C2907 C 0.13438 0.34497 0.7945 0.0
C2908 C 0.14747 0.34842 0.79119 0.0
H2909 H 0.20454 0.36874 0.75956 0.0
H2910 H 0.18493 0.36957 0.77035 0.0
H2911 H 0.17595 0.3478 0.80135 0.0
H2912 H 0.11553 0.32228 0.80616 0.0
H2913 H 0.13718 0.32942 0.80316 0.0
C2914 C 0.88138 0.69042 0.68981 0.0
C2915 C 0.87255 0.69587 0.68467 0.0
C2916 C 0.89239 0.69712 0.69369 0.0
C2917 C 0.90643 0.72823 0.70349 0.0
H2918 H 0.93602 0.71354 0.70143 0.0
C2919 C 0.95304 0.75291 0.72168 0.0
C2920 C 0.95866 0.74649 0.72939 0.0
C2921 C 0.94294 0.74732 0.71492 0.0
C2922 C 0.92782 0.71775 0.70206 0.0
H2923 H 0.86854 0.71261 0.67927 0.0
H2924 H 0.88793 0.72429 0.68585 0.0
H2925 H 0.91776 0.70277 0.69144 0.0
H2926 H 0.95836 0.72918 0.73591 0.0
H2927 H 0.94081 0.71938 0.72403 0.0
H2928 H 0.9166 0.74321 0.71415 0.0
C2929 C 0.88621 0.71486 0.68708 0.0
C2930 C 0.91734 0.71158 0.69639 0.0
C2931 C 0.87512 0.70815 0.68324 0.0
C2932 C 0.95412 0.73436 0.73011 0.0
C2933 C 0.94417 0.72873 0.72324 0.0
C2934 C 0.91697 0.73446 0.70907 0.0
C2935 C 0.89493 0.70944 0.69246 0.0
C2936 C 0.90642 0.7166 0.69728 0.0
C2937 C 0.93845 0.73516 0.71561 0.0
C2938 C 0.92767 0.72915 0.70864 0.0
H2939 H 0.87969 0.68099 0.6911 0.0
H2940 H 0.89876 0.69267 0.698 0.0
H2941 H 0.89816 0.73233 0.70448 0.0
H2942 H 0.95634 0.76229 0.72101 0.0
H2943 H 0.9387 0.75245 0.70908 0.0
C2944 C 0.70818 0.20137 0.66535 0.0
C2945 C 0.71129 0.19203 0.67135 0.0
C2946 C 0.71543 0.20557 0.65565 0.0
C2947 C 0.73854 0.19722 0.63224 0.0
H2948 H 0.7438 0.23142 0.62971 0.0
C2949 C 0.75754 0.21705 0.58811 0.0
C2950 C 0.76545 0.22799 0.58933 0.0
C2951 C 0.75181 0.21238 0.59842 0.0
C2952 C 0.74255 0.22186 0.63033 0.0
H2953 H 0.7245 0.17977 0.67179 0.0
H2954 H 0.73724 0.1872 0.65486 0.0
H2955 H 0.73238 0.22392 0.64725 0.0
H2956 H 0.7739 0.24239 0.60239 0.0
H2957 H 0.76396 0.23423 0.62039 0.0
H2958 H 0.74884 0.1952 0.61536 0.0
C2959 C 0.7291 0.19118 0.65763 0.0
C2960 C 0.73587 0.21754 0.64032 0.0
C2961 C 0.72183 0.18696 0.66736 0.0
C2962 C 0.7677 0.23404 0.60112 0.0
C2963 C 0.76199 0.22936 0.61144 0.0
C2964 C 0.74524 0.20155 0.62223 0.0
C2965 C 0.726 0.20057 0.65168 0.0
C2966 C 0.73366 0.20516 0.64134 0.0
C2967 C 0.75387 0.21854 0.6102 0.0
C2968 C 0.74724 0.21392 0.62111 0.0
H2969 H 0.7001 0.20546 0.66811 0.0
H2970 H 0.71264 0.21266 0.65114 0.0
H2971 H 0.73694 0.18763 0.6327 0.0
H2972 H 0.75549 0.21224 0.57914 0.0
H2973 H 0.74548 0.20412 0.59711 0.0
C2974 C 0.3172 0.21086 0.64278 0.0
C2975 C 0.32361 0.20111 0.64319 0.0
C2976 C 0.31557 0.21505 0.63163 0.0
C2977 C 0.31583 0.20623 0.59818 0.0
H2978 H 0.31957 0.24059 0.59681 0.0
C2979 C 0.31544 0.22661 0.55257 0.0
C2980 C 0.30885 0.23631 0.55262 0.0
C2981 C 0.31763 0.22234 0.56353 0.0
C2982 C 0.31838 0.23097 0.59706 0.0
H2983 H 0.33327 0.18807 0.63219 0.0
H2984 H 0.33049 0.19545 0.61274 0.0
H2985 H 0.32247 0.23299 0.61608 0.0
H2986 H 0.29924 0.24898 0.56421 0.0
H2987 H 0.30307 0.24156 0.5833 0.0
H2988 H 0.31169 0.20421 0.57915 0.0
C2989 C 0.32662 0.19977 0.62103 0.0
C2990 C 0.32003 0.22661 0.60811 0.0
C2991 C 0.32826 0.19558 0.63219 0.0
C2992 C 0.30456 0.24166 0.56387 0.0
C2993 C 0.30674 0.23739 0.57482 0.0
C2994 C 0.31417 0.21059 0.58712 0.0
C2995 C 0.3203 0.20959 0.62063 0.0
C2996 C 0.31872 0.21419 0.60882 0.0
C2997 C 0.31327 0.22766 0.57478 0.0
C2998 C 0.31537 0.22301 0.58645 0.0
H2999 H 0.31347 0.21529 0.65108 0.0
H3000 H 0.3105 0.22251 0.63162 0.0
H3001 H 0.3146 0.19661 0.59845 0.0
H3002 H 0.31897 0.22238 0.54406 0.0
H3003 H 0.32283 0.21493 0.56321 0.0
C3004 C 0.36932 0.83721 0.66107 0.0
C3005 C 0.37122 0.83231 0.67182 0.0
C3006 C 0.36426 0.82988 0.6509 0.0
C3007 C 0.34567 0.80021 0.64251 0.0
H3008 H 0.3528 0.80871 0.60961 0.0
C3009 C 0.32531 0.77249 0.59804 0.0
C3010 C 0.31943 0.77925 0.59089 0.0
C3011 C 0.33232 0.77819 0.60791 0.0
C3012 C 0.35075 0.80625 0.61876 0.0
H3013 H 0.36989 0.81578 0.68013 0.0
H3014 H 0.36152 0.80288 0.66218 0.0
H3015 H 0.36471 0.81969 0.62658 0.0
H3016 H 0.3163 0.79716 0.58827 0.0
H3017 H 0.32883 0.80717 0.60537 0.0
H3018 H 0.33185 0.78658 0.63448 0.0
C3019 C 0.36355 0.81246 0.66173 0.0
C3020 C 0.35751 0.81257 0.62851 0.0
C3021 C 0.36844 0.81984 0.672 0.0
C3022 C 0.32069 0.79177 0.59372 0.0
C3023 C 0.3279 0.79748 0.60342 0.0
C3024 C 0.33908 0.79374 0.6327 0.0
C3025 C 0.36116 0.81742 0.65112 0.0
C3026 C 0.35488 0.80983 0.64057 0.0
C3027 C 0.33377 0.79075 0.61058 0.0
C3028 C 0.3414 0.79689 0.6208 0.0
H3029 H 0.37127 0.8468 0.66065 0.0
H3030 H 0.36237 0.83412 0.64303 0.0
H3031 H 0.34323 0.79792 0.65165 0.0
H3032 H 0.32444 0.76282 0.59601 0.0
H3033 H 0.33679 0.77284 0.61332 0.0
C3034 C 0.75821 0.80471 0.66445 0.0
C3035 C 0.74639 0.80591 0.66912 0.0
C3036 C 0.76018 0.80097 0.65204 0.0
C3037 C 0.74538 0.78429 0.62487 0.0
H3038 H 0.77068 0.8029 0.60685 0.0
C3039 C 0.7515 0.77501 0.57229 0.0
C3040 C 0.76341 0.77653 0.56728 0.0
C3041 C 0.7493 0.7785 0.58473 0.0
C3042 C 0.76371 0.79747 0.61176 0.0
H3043 H 0.72733 0.80394 0.66448 0.0
H3044 H 0.73078 0.79721 0.64278 0.0
H3045 H 0.76718 0.80891 0.62859 0.0
H3046 H 0.78241 0.78255 0.57134 0.0
H3047 H 0.77869 0.78831 0.59309 0.0
H3048 H 0.74208 0.77266 0.60817 0.0
C3049 C 0.7385 0.79922 0.64876 0.0
C3050 C 0.76168 0.80097 0.62421 0.0
C3051 C 0.73655 0.80312 0.66115 0.0
C3052 C 0.77311 0.78145 0.57495 0.0
C3053 C 0.77095 0.78479 0.58741 0.0
C3054 C 0.74752 0.78069 0.61244 0.0
C3055 C 0.75035 0.7982 0.64407 0.0
C3056 C 0.75249 0.79443 0.63088 0.0
C3057 C 0.75901 0.78344 0.59246 0.0
C3058 C 0.75671 0.78724 0.60571 0.0
H3059 H 0.76598 0.8068 0.67036 0.0
H3060 H 0.76939 0.80017 0.64867 0.0
H3061 H 0.73831 0.77903 0.62984 0.0
H3062 H 0.74385 0.77133 0.56653 0.0
H3063 H 0.73997 0.77751 0.58822 0.0
C3064 C 0.73677 0.81141 0.36689 0.0
C3065 C 0.74705 0.81672 0.36056 0.0
C3066 C 0.73777 0.80854 0.37876 0.0
C3067 C 0.75718 0.81526 0.40585 0.0
H3068 H 0.74211 0.78378 0.41326 0.0
C3069 C 0.76903 0.79465 0.44843 0.0
C3070 C 0.75967 0.78752 0.45433 0.0
C3071 C 0.7669 0.79901 0.43751 0.0
C3072 C 0.74621 0.79269 0.41143 0.0
H3073 H 0.76638 0.82338 0.3618 0.0
H3074 H 0.76811 0.81835 0.38251 0.0
H3075 H 0.73943 0.78995 0.39325 0.0
H3076 H 0.74061 0.77974 0.45367 0.0
H3077 H 0.73682 0.78749 0.43469 0.0
H3078 H 0.764 0.81798 0.42402 0.0
C3079 C 0.75927 0.81648 0.37832 0.0
C3080 C 0.74469 0.79621 0.39994 0.0
C3081 C 0.75829 0.81929 0.36643 0.0
C3082 C 0.74804 0.7851 0.44925 0.0
C3083 C 0.74589 0.7895 0.43836 0.0
C3084 C 0.75866 0.81176 0.41737 0.0
C3085 C 0.74904 0.81098 0.38458 0.0
C3086 C 0.75023 0.8075 0.39699 0.0
C3087 C 0.75533 0.79637 0.43227 0.0
C3088 C 0.75328 0.80038 0.42026 0.0
H3089 H 0.72797 0.80934 0.36264 0.0
H3090 H 0.7297 0.80443 0.38341 0.0
H3091 H 0.76142 0.82408 0.4039 0.0
H3092 H 0.77814 0.79651 0.45203 0.0
H3093 H 0.77443 0.80411 0.43298 0.0
C3094 C 0.7246 0.19778 0.38914 0.0
C3095 C 0.71261 0.20004 0.38783 0.0
C3096 C 0.73022 0.20062 0.40046 0.0
C3097 C 0.7289 0.22086 0.42905 0.0
H3098 H 0.74846 0.1999 0.44203 0.0
C3099 C 0.7477 0.23168 0.47758 0.0
C3100 C 0.75968 0.22963 0.4792 0.0
C3101 C 0.74186 0.22745 0.46659 0.0
C3102 C 0.74314 0.20591 0.43846 0.0
H3103 H 0.69703 0.2067 0.39752 0.0
H3104 H 0.70682 0.2116 0.4172 0.0
H3105 H 0.73847 0.1935 0.42248 0.0
H3106 H 0.77491 0.2215 0.47062 0.0
H3107 H 0.76477 0.21423 0.45133 0.0
H3108 H 0.73365 0.23335 0.44484 0.0
C3109 C 0.71192 0.20778 0.40944 0.0
C3110 C 0.7374 0.20223 0.42728 0.0
C3111 C 0.70629 0.2049 0.39816 0.0
C3112 C 0.76563 0.22311 0.46967 0.0
C3113 C 0.75981 0.21893 0.45863 0.0
C3114 C 0.73466 0.22456 0.44016 0.0
C3115 C 0.724 0.20583 0.41068 0.0
C3116 C 0.73017 0.20965 0.4225 0.0
C3117 C 0.74788 0.22113 0.45693 0.0
C3118 C 0.74181 0.21712 0.44505 0.0
H3119 H 0.72972 0.19403 0.38136 0.0
H3120 H 0.73957 0.19908 0.40113 0.0
H3121 H 0.72358 0.22688 0.42548 0.0
H3122 H 0.74281 0.2365 0.48484 0.0
H3123 H 0.73258 0.22909 0.46569 0.0
C3124 C 0.33078 0.23981 0.33988 0.0
C3125 C 0.32616 0.24815 0.33358 0.0
C3126 C 0.32881 0.23992 0.35252 0.0
C3127 C 0.32193 0.25993 0.38011 0.0
H3128 H 0.31312 0.23038 0.39483 0.0
C3129 C 0.30622 0.25992 0.4306 0.0
C3130 C 0.31034 0.25166 0.43739 0.0
C3131 C 0.30836 0.25928 0.41796 0.0
C3132 C 0.31573 0.2387 0.39088 0.0
H3133 H 0.31599 0.26322 0.33557 0.0
H3134 H 0.31249 0.26339 0.35764 0.0
H3135 H 0.31627 0.22958 0.37266 0.0
H3136 H 0.31999 0.23626 0.43624 0.0
H3137 H 0.32385 0.23518 0.4141 0.0
H3138 H 0.32144 0.26907 0.39828 0.0
C3139 C 0.31766 0.25678 0.35282 0.0
C3140 C 0.31751 0.23824 0.37818 0.0
C3141 C 0.31962 0.25665 0.34018 0.0
C3142 C 0.31663 0.2427 0.43124 0.0
C3143 C 0.31881 0.24207 0.41857 0.0
C3144 C 0.32018 0.26039 0.39279 0.0
C3145 C 0.32229 0.24845 0.35915 0.0
C3146 C 0.32055 0.24886 0.37265 0.0
C3147 C 0.31471 0.25037 0.41179 0.0
C3148 C 0.31697 0.24979 0.39833 0.0
H3149 H 0.33631 0.23349 0.33515 0.0
H3150 H 0.3327 0.23354 0.35717 0.0
H3151 H 0.3245 0.26827 0.37616 0.0
H3152 H 0.30112 0.26679 0.43501 0.0
H3153 H 0.30485 0.26566 0.413 0.0
C3154 C 0.32871 0.82988 0.40286 0.0
C3155 C 0.33657 0.82397 0.39464 0.0
C3156 C 0.32425 0.82499 0.41355 0.0
C3157 C 0.31946 0.79636 0.42735 0.0
H3158 H 0.31894 0.81689 0.45821 0.0
C3159 C 0.31325 0.77713 0.47364 0.0
C3160 C 0.30563 0.78239 0.48264 0.0
C3161 C 0.3165 0.78239 0.46291 0.0
C3162 C 0.31889 0.81105 0.44964 0.0
H3163 H 0.34586 0.80828 0.39122 0.0
H3164 H 0.33822 0.79987 0.4098 0.0
H3165 H 0.32529 0.82574 0.43939 0.0
H3166 H 0.29564 0.79744 0.48747 0.0
H3167 H 0.30121 0.80655 0.46866 0.0
H3168 H 0.31318 0.78167 0.43757 0.0
C3169 C 0.33535 0.80818 0.40795 0.0
C3170 C 0.32251 0.81613 0.43885 0.0
C3171 C 0.3398 0.81306 0.39731 0.0
C3172 C 0.30142 0.7931 0.48067 0.0
C3173 C 0.30471 0.79838 0.46995 0.0
C3174 C 0.31586 0.7913 0.43811 0.0
C3175 C 0.32752 0.81407 0.41621 0.0
C3176 C 0.32298 0.80882 0.4276 0.0
C3177 C 0.31224 0.79306 0.46091 0.0
C3178 C 0.31565 0.79856 0.44941 0.0
H3179 H 0.32604 0.83829 0.40107 0.0
H3180 H 0.31816 0.82969 0.41968 0.0
H3181 H 0.31948 0.79049 0.4188 0.0
H3182 H 0.31655 0.76883 0.47481 0.0
H3183 H 0.32244 0.77814 0.45621 0.0
C3184 C 0.64472 0.20463 0.72237 0.0
C3185 C 0.64386 0.19757 0.71092 0.0
C3186 C 0.63485 0.21017 0.72737 0.0
C3187 C 0.6015 0.20953 0.72514 0.0
H3188 H 0.60835 0.24307 0.73836 0.0
C3189 C 0.56368 0.23972 0.73406 0.0
C3190 C 0.56438 0.2482 0.74456 0.0
C3191 C 0.57328 0.23317 0.73065 0.0
C3192 C 0.60627 0.23366 0.73488 0.0
H3193 H 0.63179 0.19049 0.69594 0.0
H3194 H 0.61463 0.20014 0.70463 0.0
H3195 H 0.62515 0.23203 0.7315 0.0
H3196 H 0.57582 0.25648 0.75966 0.0
H3197 H 0.59244 0.24487 0.75387 0.0
H3198 H 0.58262 0.21118 0.72844 0.0
C3199 C 0.62291 0.20135 0.70979 0.0
C3200 C 0.61591 0.22733 0.73094 0.0
C3201 C 0.63278 0.19587 0.70477 0.0
C3202 C 0.57492 0.24994 0.75158 0.0
C3203 C 0.58451 0.24337 0.74819 0.0
C3204 C 0.59185 0.21586 0.72911 0.0
C3205 C 0.62388 0.20871 0.72106 0.0
C3206 C 0.61364 0.21522 0.72592 0.0
C3207 C 0.58382 0.23491 0.73767 0.0
C3208 C 0.59411 0.22804 0.73391 0.0
H3209 H 0.65312 0.2061 0.72736 0.0
H3210 H 0.63584 0.21565 0.73614 0.0
H3211 H 0.59944 0.20017 0.72149 0.0
H3212 H 0.55564 0.23805 0.72851 0.0
H3213 H 0.57249 0.22685 0.72241 0.0
C3214 C 0.31195 0.14888 0.69963 0.0
C3215 C 0.3185 0.14827 0.68839 0.0
C3216 C 0.30629 0.13842 0.70419 0.0
C3217 C 0.30914 0.10651 0.70251 0.0
H3218 H 0.27801 0.10433 0.72023 0.0
C3219 C 0.2885 0.06358 0.72335 0.0
C3220 C 0.28325 0.06513 0.73521 0.0
C3221 C 0.29172 0.07337 0.71673 0.0
C3222 C 0.28676 0.10484 0.71539 0.0
H3223 H 0.32376 0.1362 0.67284 0.0
H3224 H 0.31383 0.11793 0.68079 0.0
H3225 H 0.28527 0.12208 0.71001 0.0
H3226 H 0.277 0.07818 0.74926 0.0
H3227 H 0.28294 0.09532 0.73785 0.0
H3228 H 0.31081 0.08945 0.7081 0.0
C3229 C 0.31321 0.12652 0.68615 0.0
C3230 C 0.2909 0.11499 0.70951 0.0
C3231 C 0.31884 0.13699 0.68156 0.0
C3232 C 0.28116 0.0767 0.74022 0.0
C3233 C 0.28442 0.0865 0.7336 0.0
C3234 C 0.30503 0.09639 0.70841 0.0
C3235 C 0.30707 0.12711 0.69762 0.0
C3236 C 0.30219 0.11598 0.7031 0.0
C3237 C 0.28982 0.08497 0.72181 0.0
C3238 C 0.29384 0.09548 0.71502 0.0
H3239 H 0.31147 0.15743 0.70511 0.0
H3240 H 0.30172 0.13918 0.7131 0.0
H3241 H 0.31797 0.10708 0.69782 0.0
H3242 H 0.29036 0.05483 0.71925 0.0
H3243 H 0.29573 0.07185 0.70761 0.0
C3244 C 0.4232 0.84652 0.72217 0.0
C3245 C 0.41174 0.84191 0.72696 0.0
C3246 C 0.43391 0.84387 0.72676 0.0
C3247 C 0.44618 0.83411 0.75377 0.0
H3248 H 0.47141 0.82388 0.73105 0.0
C3249 C 0.48591 0.81262 0.76933 0.0
C3250 C 0.49747 0.81529 0.76374 0.0
C3251 C 0.47574 0.81655 0.76499 0.0
C3252 C 0.46456 0.8269 0.73753 0.0
H3253 H 0.40256 0.83097 0.7404 0.0
H3254 H 0.42126 0.82638 0.74843 0.0
H3255 H 0.45314 0.82957 0.72321 0.0
H3256 H 0.5075 0.82433 0.74938 0.0
H3257 H 0.48976 0.83139 0.74189 0.0
H3258 H 0.45757 0.83152 0.7681 0.0
C3259 C 0.42194 0.83209 0.74116 0.0
C3260 C 0.45407 0.83013 0.73303 0.0
C3261 C 0.41123 0.83467 0.73651 0.0
C3262 C 0.49868 0.82206 0.75378 0.0
C3263 C 0.4885 0.82606 0.74948 0.0
C3264 C 0.4567 0.83096 0.75828 0.0
C3265 C 0.43339 0.83662 0.73631 0.0
C3266 C 0.44473 0.83366 0.7411 0.0
C3267 C 0.47689 0.8233 0.75499 0.0
C3268 C 0.46597 0.8272 0.75021 0.0
H3269 H 0.4239 0.85213 0.71482 0.0
H3270 H 0.44261 0.84757 0.72292 0.0
H3271 H 0.43921 0.83697 0.76021 0.0
H3272 H 0.48466 0.80724 0.77689 0.0
H3273 H 0.46691 0.81405 0.7693 0.0
C3274 C 0.76558 0.86347 0.73199 0.0
C3275 C 0.75982 0.85796 0.72121 0.0
C3276 C 0.76855 0.87594 0.73404 0.0
C3277 C 0.75882 0.90322 0.72524 0.0
H3278 H 0.78726 0.91916 0.74301 0.0
C3279 C 0.76784 0.95476 0.73761 0.0
C3280 C 0.77128 0.95875 0.74973 0.0
C3281 C 0.76759 0.94269 0.73292 0.0
C3282 C 0.77925 0.91482 0.73808 0.0
H3283 H 0.75327 0.86121 0.7038 0.0
H3284 H 0.75861 0.88297 0.70731 0.0
H3285 H 0.78521 0.89758 0.73665 0.0
H3286 H 0.7775 0.9533 0.76631 0.0
H3287 H 0.77689 0.93224 0.7582 0.0
H3288 H 0.75275 0.92042 0.72685 0.0
C3289 C 0.76061 0.87765 0.71429 0.0
C3290 C 0.77808 0.90247 0.73444 0.0
C3291 C 0.75762 0.86517 0.71226 0.0
C3292 C 0.77464 0.95046 0.75699 0.0
C3293 C 0.77445 0.93843 0.75229 0.0
C3294 C 0.76001 0.91558 0.72885 0.0
C3295 C 0.76586 0.8832 0.72533 0.0
C3296 C 0.76775 0.89649 0.72815 0.0
C3297 C 0.77086 0.93439 0.74023 0.0
C3298 C 0.77013 0.92148 0.73549 0.0
H3299 H 0.7674 0.85819 0.73909 0.0
H3300 H 0.77247 0.87992 0.74269 0.0
H3301 H 0.75065 0.89888 0.72058 0.0
H3302 H 0.76515 0.96092 0.73182 0.0
H3303 H 0.76486 0.93986 0.72356 0.0
C3304 C 0.65804 0.82799 0.30958 0.0
C3305 C 0.66537 0.83596 0.30255 0.0
C3306 C 0.64584 0.82405 0.30675 0.0
C3307 C 0.62477 0.82018 0.28113 0.0
H3308 H 0.59997 0.81528 0.30672 0.0
C3309 C 0.57746 0.79258 0.27146 0.0
C3310 C 0.56726 0.79668 0.27771 0.0
C3311 C 0.58926 0.79804 0.27446 0.0
C3312 C 0.60675 0.8167 0.29945 0.0
H3313 H 0.66551 0.8463 0.28721 0.0
H3314 H 0.64417 0.83953 0.28235 0.0
H3315 H 0.6207 0.82407 0.31219 0.0
H3316 H 0.56145 0.80987 0.29188 0.0
H3317 H 0.58205 0.81942 0.2971 0.0
H3318 H 0.61079 0.81295 0.26838 0.0
C3319 C 0.64793 0.83617 0.28995 0.0
C3320 C 0.61867 0.82162 0.3026 0.0
C3321 C 0.66014 0.84011 0.29277 0.0
C3322 C 0.56913 0.80639 0.28701 0.0
C3323 C 0.58093 0.81186 0.29 0.0
C3324 C 0.61285 0.81527 0.27798 0.0
C3325 C 0.64066 0.82801 0.29683 0.0
C3326 C 0.62785 0.82333 0.29348 0.0
C3327 C 0.59114 0.80773 0.28378 0.0
C3328 C 0.60372 0.81338 0.28711 0.0
H3329 H 0.66177 0.8246 0.31717 0.0
H3330 H 0.64056 0.81765 0.31215 0.0
H3331 H 0.63163 0.82126 0.27388 0.0
H3332 H 0.57634 0.785 0.26438 0.0
H3333 H 0.59692 0.79449 0.26963 0.0
C3334 C 0.72512 0.15533 0.32504 0.0
C3335 C 0.71296 0.15686 0.32811 0.0
C3336 C 0.72801 0.14413 0.32004 0.0
C3337 C 0.71577 0.11567 0.30278 0.0
H3338 H 0.74107 0.1028 0.31798 0.0
C3339 C 0.72579 0.0671 0.28884 0.0
C3340 C 0.73792 0.06498 0.28913 0.0
C3341 C 0.72259 0.07832 0.29343 0.0
C3342 C 0.73413 0.10631 0.31346 0.0
H3343 H 0.69427 0.14791 0.32808 0.0
H3344 H 0.69934 0.12835 0.31908 0.0
H3345 H 0.7359 0.12247 0.32597 0.0
H3346 H 0.75628 0.07295 0.294 0.0
H3347 H 0.75085 0.09262 0.30158 0.0
H3348 H 0.71419 0.09971 0.29003 0.0
C3349 C 0.7066 0.13584 0.32064 0.0
C3350 C 0.73114 0.11757 0.31811 0.0
C3351 C 0.70372 0.147 0.32583 0.0
C3352 C 0.74683 0.07432 0.29385 0.0
C3353 C 0.74368 0.08557 0.29826 0.0
C3354 C 0.71889 0.10447 0.29799 0.0
C3355 C 0.71879 0.13427 0.31783 0.0
C3356 C 0.72193 0.12234 0.31282 0.0
C3357 C 0.73149 0.0877 0.29823 0.0
C3358 C 0.72811 0.09963 0.30328 0.0
H3359 H 0.73244 0.16275 0.3267 0.0
H3360 H 0.73747 0.14317 0.31787 0.0
H3361 H 0.7087 0.11921 0.29848 0.0
H3362 H 0.71874 0.06001 0.28532 0.0
H3363 H 0.71309 0.07953 0.29342 0.0
C3364 C 0.38011 0.27395 0.28882 0.0
C3365 C 0.37342 0.26252 0.28958 0.0
C3366 C 0.39284 0.27555 0.28845 0.0
C3367 C 0.41872 0.26219 0.29751 0.0
H3368 H 0.43743 0.28353 0.27639 0.0
C3369 C 0.47152 0.26996 0.29603 0.0
C3370 C 0.47711 0.28189 0.2957 0.0
C3371 C 0.45896 0.26686 0.29442 0.0
C3372 C 0.43234 0.27762 0.28242 0.0
H3373 H 0.37487 0.24375 0.29033 0.0
H3374 H 0.39715 0.24656 0.28969 0.0
H3375 H 0.4153 0.27944 0.27497 0.0
H3376 H 0.47393 0.29983 0.29311 0.0
H3377 H 0.45206 0.2945 0.29066 0.0
H3378 H 0.43571 0.26057 0.30516 0.0
C3379 C 0.39251 0.25429 0.28946 0.0
C3380 C 0.41966 0.27527 0.28158 0.0
C3381 C 0.37976 0.25268 0.28975 0.0
C3382 C 0.46989 0.2906 0.29362 0.0
C3383 C 0.45736 0.2875 0.29203 0.0
C3384 C 0.4314 0.26458 0.29839 0.0
C3385 C 0.39918 0.26576 0.2889 0.0
C3386 C 0.4127 0.26764 0.28922 0.0
C3387 C 0.45174 0.2756 0.29241 0.0
C3388 C 0.43835 0.27245 0.29096 0.0
H3389 H 0.3755 0.28172 0.28867 0.0
H3390 H 0.39773 0.28452 0.28815 0.0
H3391 H 0.41359 0.25639 0.30362 0.0
H3392 H 0.47684 0.26305 0.29766 0.0
H3393 H 0.45493 0.25758 0.29466 0.0
C3394 C 0.34009 0.90391 0.33706 0.0
C3395 C 0.33448 0.8921 0.33353 0.0
C3396 C 0.33636 0.9136 0.33224 0.0
C3397 C 0.31977 0.92122 0.30641 0.0
H3398 H 0.31676 0.95045 0.32797 0.0
C3399 C 0.29569 0.95904 0.29216 0.0
C3400 C 0.30091 0.97098 0.29566 0.0
C3401 C 0.30016 0.94952 0.29656 0.0
C3402 C 0.31769 0.94241 0.32178 0.0
H3403 H 0.32058 0.88124 0.32211 0.0
H3404 H 0.314 0.89813 0.31382 0.0
H3405 H 0.32384 0.93368 0.33602 0.0
H3406 H 0.31496 0.98225 0.30657 0.0
H3407 H 0.32288 0.96562 0.31411 0.0
H3408 H 0.31353 0.92994 0.2922 0.0
C3409 C 0.32139 0.8999 0.32019 0.0
C3410 C 0.32176 0.93279 0.3264 0.0
C3411 C 0.32512 0.89021 0.32501 0.0
C3412 C 0.31078 0.97316 0.30361 0.0
C3413 C 0.31524 0.96363 0.30804 0.0
C3414 C 0.31568 0.93084 0.3018 0.0
C3415 C 0.32694 0.91172 0.32377 0.0
C3416 C 0.32281 0.92205 0.31879 0.0
C3417 C 0.30996 0.95169 0.30459 0.0
C3418 C 0.31456 0.94154 0.30944 0.0
H3419 H 0.34736 0.90569 0.34358 0.0
H3420 H 0.34095 0.92256 0.33507 0.0
H3421 H 0.32066 0.91317 0.30024 0.0
H3422 H 0.28817 0.95703 0.28593 0.0
H3423 H 0.2958 0.94045 0.2938 0.0
C3424 C 0.71849 0.14477 0.72626 0.0
C3425 C 0.71021 0.14237 0.71666 0.0
C3426 C 0.72358 0.13546 0.7304 0.0
C3427 C 0.72983 0.10442 0.72118 0.0
H3428 H 0.73305 0.10406 0.75606 0.0
C3429 C 0.74126 0.07032 0.75708 0.0
C3430 C 0.75156 0.06609 0.75117 0.0
C3431 C 0.73624 0.07959 0.7528 0.0
C3432 C 0.73214 0.10398 0.74629 0.0
H3433 H 0.70082 0.12828 0.70386 0.0
H3434 H 0.70964 0.11206 0.71113 0.0
H3435 H 0.72411 0.12018 0.74875 0.0
H3436 H 0.76457 0.0682 0.73601 0.0
H3437 H 0.7559 0.08449 0.72863 0.0
H3438 H 0.7377 0.08811 0.71874 0.0
C3439 C 0.7123 0.12115 0.71539 0.0
C3440 C 0.72714 0.1133 0.74209 0.0
C3441 C 0.70718 0.13045 0.71126 0.0
C3442 C 0.75669 0.07132 0.74084 0.0
C3443 C 0.75165 0.08057 0.73653 0.0
C3444 C 0.73487 0.09511 0.72538 0.0
C3445 C 0.72054 0.12354 0.72502 0.0
C3446 C 0.72591 0.11363 0.72948 0.0
C3447 C 0.74138 0.08484 0.74248 0.0
C3448 C 0.73607 0.09477 0.73799 0.0
H3449 H 0.72105 0.15384 0.7306 0.0
H3450 H 0.73002 0.13764 0.73774 0.0
H3451 H 0.72912 0.10446 0.7114 0.0
H3452 H 0.73715 0.06659 0.76514 0.0
H3453 H 0.72825 0.08258 0.75753 0.0
C3454 C 0.72032 0.86168 0.31126 0.0
C3455 C 0.72931 0.85924 0.31881 0.0
C3456 C 0.71958 0.87348 0.30923 0.0
C3457 C 0.73027 0.90543 0.32066 0.0
H3458 H 0.72646 0.91059 0.28696 0.0
C3459 C 0.74497 0.95111 0.30241 0.0
C3460 C 0.73783 0.95443 0.29352 0.0
C3461 C 0.74223 0.93982 0.30654 0.0
C3462 C 0.72733 0.90932 0.29645 0.0
H3463 H 0.7445 0.86724 0.33021 0.0
H3464 H 0.74336 0.88778 0.32653 0.0
H3465 H 0.72459 0.89021 0.29232 0.0
H3466 H 0.72183 0.94873 0.28246 0.0
H3467 H 0.71709 0.92901 0.28964 0.0
H3468 H 0.73335 0.92458 0.3247 0.0
C3469 C 0.7367 0.88063 0.32238 0.0
C3470 C 0.72624 0.89761 0.29953 0.0
C3471 C 0.73743 0.86885 0.3244 0.0
C3472 C 0.72765 0.94636 0.28916 0.0
C3473 C 0.72492 0.93507 0.29327 0.0
C3474 C 0.73138 0.91714 0.31757 0.0
C3475 C 0.72787 0.88309 0.31464 0.0
C3476 C 0.72788 0.89552 0.31164 0.0
C3477 C 0.7323 0.93159 0.30186 0.0
C3478 C 0.7301 0.91921 0.3054 0.0
H3479 H 0.71419 0.85447 0.30649 0.0
H3480 H 0.71264 0.87507 0.30325 0.0
H3481 H 0.73139 0.90413 0.33011 0.0
H3482 H 0.75296 0.95704 0.30584 0.0
H3483 H 0.7482 0.93736 0.31304 0.0
C3484 C 0.65453 0.21782 0.33805 0.0
C3485 C 0.65682 0.21925 0.35065 0.0
C3486 C 0.64569 0.22366 0.33357 0.0
C3487 C 0.61849 0.23813 0.34338 0.0
H3488 H 0.62554 0.25389 0.31402 0.0
C3489 C 0.58867 0.27143 0.32936 0.0
C3490 C 0.58601 0.27066 0.3169 0.0
C3491 C 0.59722 0.26486 0.33317 0.0
C3492 C 0.62338 0.24942 0.32215 0.0
H3493 H 0.65159 0.22791 0.36841 0.0
H3494 H 0.63632 0.23812 0.3606 0.0
H3495 H 0.64051 0.24271 0.32112 0.0
H3496 H 0.59042 0.26257 0.29864 0.0
H3497 H 0.60523 0.25097 0.30533 0.0
H3498 H 0.60141 0.24489 0.34446 0.0
C3499 C 0.64122 0.23238 0.35419 0.0
C3500 C 0.63195 0.243 0.32621 0.0
C3501 C 0.65004 0.22657 0.35865 0.0
C3502 C 0.59217 0.26325 0.30833 0.0
C3503 C 0.60075 0.25671 0.31214 0.0
C3504 C 0.60994 0.24454 0.33933 0.0
C3505 C 0.63894 0.23101 0.3416 0.0
C3506 C 0.62964 0.23736 0.33693 0.0
C3507 C 0.60333 0.2574 0.32462 0.0
C3508 C 0.61232 0.25034 0.32872 0.0
H3509 H 0.65959 0.21222 0.33165 0.0
H3510 H 0.64407 0.22233 0.32383 0.0
H3511 H 0.61634 0.23371 0.35155 0.0
H3512 H 0.584 0.27697 0.3362 0.0
H3513 H 0.59911 0.26571 0.34284 0.0
C3514 C 0.2999 0.17634 0.31077 0.0
C3515 C 0.31072 0.18266 0.31585 0.0
C3516 C 0.29763 0.16382 0.30996 0.0
C3517 C 0.31365 0.13749 0.30883 0.0
H3518 H 0.28096 0.12058 0.31297 0.0
C3519 C 0.30027 0.08781 0.29021 0.0
C3520 C 0.29202 0.0805 0.29715 0.0
C3521 C 0.30289 0.10014 0.29378 0.0
C3522 C 0.29018 0.12515 0.31193 0.0
H3523 H 0.32747 0.18083 0.32444 0.0
H3524 H 0.32343 0.15898 0.32316 0.0
H3525 H 0.2847 0.14239 0.31739 0.0
H3526 H 0.28028 0.08037 0.31344 0.0
H3527 H 0.2849 0.10194 0.31971 0.0
H3528 H 0.31915 0.12025 0.30344 0.0
C3529 C 0.3168 0.16369 0.31961 0.0
C3530 C 0.29229 0.13766 0.31432 0.0
C3531 C 0.31908 0.17622 0.3204 0.0
C3532 C 0.28656 0.08579 0.30783 0.0
C3533 C 0.2892 0.09814 0.31141 0.0
C3534 C 0.31154 0.12498 0.30645 0.0
C3535 C 0.30611 0.15734 0.31425 0.0
C3536 C 0.30402 0.14399 0.31263 0.0
C3537 C 0.29734 0.10547 0.30438 0.0
C3538 C 0.29975 0.11868 0.3078 0.0
H3539 H 0.29327 0.18102 0.30717 0.0
H3540 H 0.28938 0.15921 0.30564 0.0
H3541 H 0.32278 0.14208 0.30733 0.0
H3542 H 0.30446 0.08405 0.28182 0.0
H3543 H 0.30902 0.10554 0.28802 0.0
C3544 C 0.38223 0.83129 0.33788 0.0
C3545 C 0.37701 0.84071 0.33397 0.0
C3546 C 0.39209 0.82696 0.33144 0.0
C3547 C 0.40835 0.82524 0.30148 0.0
H3548 H 0.43434 0.81791 0.32047 0.0
C3549 C 0.44556 0.79695 0.28096 0.0
C3550 C 0.45743 0.8002 0.2854 0.0
C3551 C 0.43597 0.80281 0.28616 0.0
C3552 C 0.42725 0.82002 0.315 0.0
H3553 H 0.37803 0.85284 0.32006 0.0
H3554 H 0.39539 0.84525 0.30879 0.0
H3555 H 0.41732 0.82651 0.33091 0.0
H3556 H 0.46865 0.81257 0.29836 0.0
H3557 H 0.45198 0.82281 0.3074 0.0
H3558 H 0.41839 0.81878 0.28555 0.0
C3559 C 0.39174 0.84121 0.31684 0.0
C3560 C 0.4174 0.82483 0.32101 0.0
C3561 C 0.38183 0.84559 0.32333 0.0
C3562 C 0.45956 0.80969 0.29489 0.0
C3563 C 0.45001 0.81556 0.30007 0.0
C3564 C 0.41822 0.82039 0.29546 0.0
C3565 C 0.39704 0.83191 0.3209 0.0
C3566 C 0.40777 0.82738 0.31434 0.0
C3567 C 0.43806 0.81207 0.29592 0.0
C3568 C 0.42775 0.81766 0.30216 0.0
H3569 H 0.37872 0.82725 0.34598 0.0
H3570 H 0.39581 0.81965 0.33469 0.0
H3571 H 0.40105 0.82705 0.2961 0.0
H3572 H 0.4436 0.7896 0.27372 0.0
H3573 H 0.42686 0.79981 0.28283 0.0
C3574 C 0.34408 0.88648 0.71552 0.0
C3575 C 0.35681 0.88751 0.71638 0.0
C3576 C 0.33786 0.89589 0.7204 0.0
C3577 C 0.33972 0.92324 0.74232 0.0
H3578 H 0.31648 0.9322 0.72107 0.0
C3579 C 0.31689 0.96619 0.75377 0.0
C3580 C 0.30462 0.96545 0.75068 0.0
C3581 C 0.32341 0.95666 0.75004 0.0
C3582 C 0.3228 0.92972 0.72721 0.0
H3583 H 0.37294 0.89907 0.72347 0.0
H3584 H 0.362 0.91555 0.73206 0.0
H3585 H 0.3275 0.91549 0.71407 0.0
H3586 H 0.28944 0.95401 0.74164 0.0
H3587 H 0.3007 0.93731 0.7353 0.0
H3588 H 0.33491 0.93741 0.75552 0.0
C3589 C 0.35687 0.90743 0.72759 0.0
C3590 C 0.32914 0.92016 0.72317 0.0
C3591 C 0.36313 0.89801 0.72263 0.0
C3592 C 0.29894 0.95492 0.74397 0.0
C3593 C 0.30542 0.94536 0.74032 0.0
C3594 C 0.3333 0.93278 0.74641 0.0
C3595 C 0.3442 0.90653 0.72631 0.0
C3596 C 0.33762 0.91678 0.73069 0.0
C3597 C 0.31776 0.94615 0.74321 0.0
C3598 C 0.32472 0.9361 0.73891 0.0
H3599 H 0.33891 0.87849 0.71083 0.0
H3600 H 0.32807 0.89487 0.71945 0.0
H3601 H 0.34615 0.92077 0.74834 0.0
H3602 H 0.32152 0.97426 0.75885 0.0
H3603 H 0.33294 0.95763 0.75229 0.0
C3604 C 0.6982 0.82251 0.73065 0.0
C3605 C 0.70679 0.8151 0.7328 0.0
C3606 C 0.68602 0.81975 0.73434 0.0
C3607 C 0.6628 0.79535 0.74324 0.0
H3608 H 0.64697 0.8217 0.75911 0.0
C3609 C 0.61088 0.79095 0.75385 0.0
C3610 C 0.60705 0.79656 0.76518 0.0
C3611 C 0.62312 0.7928 0.75 0.0
C3612 C 0.65128 0.81423 0.75478 0.0
H3613 H 0.70924 0.79877 0.74021 0.0
H3614 H 0.68788 0.79397 0.7467 0.0
H3615 H 0.66817 0.82552 0.75209 0.0
H3616 H 0.61316 0.8083 0.78149 0.0
H3617 H 0.63451 0.81159 0.77474 0.0
H3618 H 0.6459 0.78404 0.74607 0.0
C3619 C 0.69061 0.80189 0.7421 0.0
C3620 C 0.66338 0.81644 0.75063 0.0
C3621 C 0.70284 0.80466 0.73842 0.0
C3622 C 0.61577 0.80402 0.77261 0.0
C3623 C 0.628 0.80588 0.76875 0.0
C3624 C 0.65065 0.79314 0.74735 0.0
C3625 C 0.68211 0.80951 0.74026 0.0
C3626 C 0.66927 0.80704 0.74477 0.0
C3627 C 0.63181 0.80033 0.75739 0.0
C3628 C 0.64476 0.80257 0.75316 0.0
H3629 H 0.70091 0.83057 0.72627 0.0
H3630 H 0.67964 0.82568 0.73258 0.0
H3631 H 0.66707 0.78794 0.73869 0.0
H3632 H 0.60437 0.78528 0.74784 0.0
H3633 H 0.62574 0.78853 0.74112 0.0
C3634 C 0.37007 0.21478 0.6965 0.0
C3635 C 0.37077 0.20526 0.68713 0.0
C3636 C 0.38068 0.22128 0.7017 0.0
C3637 C 0.41301 0.21853 0.70578 0.0
H3638 H 0.41607 0.2528 0.71593 0.0
C3639 C 0.45817 0.24622 0.72271 0.0
C3640 C 0.45751 0.25453 0.73322 0.0
C3641 C 0.44756 0.24054 0.71689 0.0
C3642 C 0.41529 0.24321 0.71323 0.0
H3643 H 0.38319 0.19544 0.67554 0.0
H3644 H 0.40166 0.20694 0.68441 0.0
H3645 H 0.39767 0.24248 0.70575 0.0
H3646 H 0.44523 0.26354 0.74577 0.0
H3647 H 0.42665 0.25355 0.73562 0.0
H3648 H 0.43064 0.21927 0.7132 0.0
C3649 C 0.39291 0.20919 0.68796 0.0
C3650 C 0.40475 0.23729 0.70741 0.0
C3651 C 0.38232 0.20265 0.68281 0.0
C3652 C 0.44601 0.25711 0.73774 0.0
C3653 C 0.43539 0.25148 0.73187 0.0
C3654 C 0.42355 0.22445 0.71153 0.0
C3655 C 0.39222 0.21846 0.6976 0.0
C3656 C 0.40349 0.22487 0.70361 0.0
C3657 C 0.43606 0.24309 0.72142 0.0
C3658 C 0.42481 0.23685 0.71532 0.0
H3659 H 0.36132 0.21701 0.70007 0.0
H3660 H 0.3798 0.22828 0.70919 0.0
H3661 H 0.41224 0.20892 0.70322 0.0
H3662 H 0.46688 0.24395 0.71907 0.0
H3663 H 0.44838 0.2342 0.70879 0.0
C3664 C 0.70801 0.70072 0.16318 0.0
C3665 C 0.71102 0.69112 0.16883 0.0
C3666 C 0.71537 0.70526 0.15372 0.0
C3667 C 0.74641 0.70706 0.13989 0.0
H3668 H 0.73059 0.71548 0.11211 0.0
C3669 C 0.77301 0.72268 0.0966 0.0
C3670 C 0.769 0.7322 0.09158 0.0
C3671 C 0.76628 0.71731 0.10605 0.0
C3672 C 0.73516 0.71329 0.11985 0.0
H3673 H 0.72426 0.67884 0.16901 0.0
H3674 H 0.73713 0.68678 0.15239 0.0
H3675 H 0.71827 0.70664 0.12844 0.0
H3676 H 0.75474 0.74351 0.09258 0.0
H3677 H 0.74318 0.73435 0.10916 0.0
H3678 H 0.76333 0.71379 0.13127 0.0
C3679 C 0.72908 0.69082 0.15537 0.0
C3680 C 0.72809 0.70821 0.12922 0.0
C3681 C 0.72167 0.68624 0.16485 0.0
C3682 C 0.75818 0.7363 0.09632 0.0
C3683 C 0.75146 0.73093 0.10572 0.0
C3684 C 0.75351 0.71215 0.1305 0.0
C3685 C 0.72596 0.70034 0.14965 0.0
C3686 C 0.73361 0.70516 0.13942 0.0
C3687 C 0.75536 0.72132 0.11065 0.0
C3688 C 0.74795 0.71545 0.12043 0.0
H3689 H 0.69991 0.70475 0.16602 0.0
H3690 H 0.71282 0.71274 0.14967 0.0
H3691 H 0.75094 0.7049 0.14768 0.0
H3692 H 0.78136 0.71937 0.09324 0.0
H3693 H 0.7695 0.70988 0.10959 0.0
C3694 C 0.31345 0.7216 0.13884 0.0
C3695 C 0.31969 0.73102 0.14668 0.0
C3696 C 0.3132 0.72235 0.12627 0.0
C3697 C 0.31794 0.74499 0.10413 0.0
H3698 H 0.31512 0.71673 0.0801 0.0
C3699 C 0.31695 0.7483 0.05248 0.0
C3700 C 0.30663 0.7416 0.0467 0.0
C3701 C 0.32002 0.74622 0.06412 0.0
C3702 C 0.31592 0.72468 0.08674 0.0
H3703 H 0.3311 0.74833 0.14744 0.0
H3704 H 0.33116 0.74943 0.12549 0.0
H3705 H 0.31809 0.71471 0.10157 0.0
H3706 H 0.29178 0.72706 0.04852 0.0
H3707 H 0.29743 0.72321 0.06867 0.0
H3708 H 0.31593 0.75494 0.08922 0.0
C3709 C 0.32603 0.74165 0.12905 0.0
C3710 C 0.31754 0.72354 0.09905 0.0
C3711 C 0.32608 0.74099 0.14164 0.0
C3712 C 0.29988 0.7323 0.05258 0.0
C3713 C 0.30307 0.73011 0.06415 0.0
C3714 C 0.31653 0.74614 0.09182 0.0
C3715 C 0.31938 0.73246 0.12121 0.0
C3716 C 0.31843 0.73367 0.10795 0.0
C3717 C 0.31298 0.73726 0.07015 0.0
C3718 C 0.31537 0.73599 0.08303 0.0
H3719 H 0.30839 0.71382 0.14248 0.0
H3720 H 0.30783 0.71517 0.12061 0.0
H3721 H 0.3183 0.75297 0.11069 0.0
H3722 H 0.32254 0.75534 0.04812 0.0
H3723 H 0.32781 0.75175 0.0685 0.0
C3724 C 0.37133 0.33107 0.16961 0.0
C3725 C 0.36625 0.32953 0.18135 0.0
C3726 C 0.36676 0.32351 0.15934 0.0
C3727 C 0.33844 0.30501 0.14882 0.0
H3728 H 0.35856 0.29395 0.12126 0.0
C3729 C 0.31727 0.27663 0.10584 0.0
C3730 C 0.32232 0.27955 0.09447 0.0
C3731 C 0.32312 0.2815 0.1167 0.0
C3732 C 0.35281 0.29706 0.12884 0.0
H3733 H 0.35279 0.31844 0.19155 0.0
H3734 H 0.34487 0.30524 0.17362 0.0
H3735 H 0.3682 0.30446 0.13984 0.0
H3736 H 0.33744 0.28988 0.08556 0.0
H3737 H 0.34756 0.29849 0.10448 0.0
H3738 H 0.32307 0.29795 0.13778 0.0
C3739 C 0.35228 0.3124 0.17236 0.0
C3740 C 0.35834 0.30304 0.13949 0.0
C3741 C 0.35687 0.31992 0.18264 0.0
C3742 C 0.33341 0.28734 0.09417 0.0
C3743 C 0.33923 0.29225 0.10503 0.0
C3744 C 0.33292 0.29909 0.13817 0.0
C3745 C 0.35699 0.31427 0.16057 0.0
C3746 C 0.35121 0.30718 0.14956 0.0
C3747 C 0.33412 0.28944 0.11643 0.0
C3748 C 0.34003 0.29514 0.128 0.0
H3749 H 0.37857 0.33836 0.16829 0.0
H3750 H 0.37053 0.32523 0.15037 0.0
H3751 H 0.33269 0.30826 0.15634 0.0
H3752 H 0.30883 0.27052 0.10634 0.0
H3753 H 0.31904 0.27899 0.12531 0.0
C3754 C 0.74209 0.30335 0.15484 0.0
C3755 C 0.75032 0.30087 0.16321 0.0
C3756 C 0.74332 0.29939 0.14237 0.0
C3757 C 0.75533 0.27654 0.12093 0.0
H3758 H 0.75631 0.29932 0.09725 0.0
C3759 C 0.76945 0.26478 0.07029 0.0
C3760 C 0.7641 0.26995 0.06132 0.0
C3761 C 0.76714 0.2682 0.08272 0.0
C3762 C 0.75583 0.29276 0.10368 0.0
H3763 H 0.76619 0.29219 0.16512 0.0
H3764 H 0.76818 0.28508 0.14333 0.0
H3765 H 0.75329 0.30593 0.11895 0.0
H3766 H 0.75185 0.28238 0.05818 0.0
H3767 H 0.74739 0.28805 0.07984 0.0
H3768 H 0.75758 0.26328 0.10574 0.0
C3769 C 0.76083 0.29014 0.14644 0.0
C3770 C 0.75416 0.29659 0.11613 0.0
C3771 C 0.75973 0.29427 0.15888 0.0
C3772 C 0.75616 0.27836 0.06495 0.0
C3773 C 0.75369 0.28165 0.07737 0.0
C3774 C 0.75681 0.27265 0.10847 0.0
C3775 C 0.75267 0.29271 0.13807 0.0
C3776 C 0.75401 0.28854 0.12486 0.0
C3777 C 0.75928 0.27674 0.08643 0.0
C3778 C 0.75719 0.28074 0.09968 0.0
H3779 H 0.73476 0.30843 0.15791 0.0
H3780 H 0.73688 0.30144 0.13609 0.0
H3781 H 0.7551 0.27012 0.12749 0.0
H3782 H 0.77573 0.25838 0.06771 0.0
H3783 H 0.77179 0.26438 0.08938 0.0
C3784 C 0.74161 0.30626 0.86128 0.0
C3785 C 0.75162 0.31277 0.85561 0.0
C3786 C 0.7425 0.30317 0.87308 0.0
C3787 C 0.76024 0.31087 0.90122 0.0
H3788 H 0.74912 0.27778 0.90644 0.0
C3789 C 0.77368 0.2905 0.94328 0.0
C3790 C 0.76508 0.28196 0.94837 0.0
C3791 C 0.77128 0.29488 0.93246 0.0
C3792 C 0.75208 0.2871 0.90523 0.0
H3793 H 0.77029 0.32143 0.858 0.0
H3794 H 0.77181 0.31607 0.87861 0.0
H3795 H 0.74615 0.28445 0.88673 0.0
H3796 H 0.74709 0.2716 0.94636 0.0
H3797 H 0.74278 0.27941 0.92757 0.0
H3798 H 0.76619 0.31355 0.91971 0.0
C3799 C 0.76328 0.31339 0.87394 0.0
C3800 C 0.7504 0.29091 0.89391 0.0
C3801 C 0.76242 0.31639 0.86211 0.0
C3802 C 0.75394 0.27808 0.94256 0.0
C3803 C 0.75149 0.28253 0.93178 0.0
C3804 C 0.76185 0.30708 0.91258 0.0
C3805 C 0.75337 0.30662 0.8795 0.0
C3806 C 0.75457 0.3028 0.89175 0.0
C3807 C 0.76019 0.29089 0.92652 0.0
C3808 C 0.75791 0.29512 0.91468 0.0
H3809 H 0.73315 0.30335 0.85652 0.0
H3810 H 0.73467 0.29806 0.87719 0.0
H3811 H 0.7634 0.32013 0.89986 0.0
H3812 H 0.78243 0.29351 0.94747 0.0
H3813 H 0.77828 0.30115 0.92857 0.0
C3814 C 0.72263 0.69794 0.89729 0.0
C3815 C 0.70997 0.69818 0.89787 0.0
C3816 C 0.72966 0.70194 0.90764 0.0
C3817 C 0.72988 0.72238 0.93602 0.0
H3818 H 0.75346 0.70417 0.94693 0.0
C3819 C 0.75269 0.73598 0.98248 0.0
C3820 C 0.76497 0.73456 0.98333 0.0
C3821 C 0.74628 0.73133 0.97192 0.0
C3822 C 0.74705 0.70947 0.94391 0.0
H3823 H 0.69476 0.70261 0.90982 0.0
H3824 H 0.70705 0.70967 0.92776 0.0
H3825 H 0.74183 0.69633 0.92861 0.0
H3826 H 0.78023 0.72726 0.97378 0.0
H3827 H 0.76914 0.71936 0.95516 0.0
H3828 H 0.73516 0.73563 0.95107 0.0
C3829 C 0.71152 0.70642 0.91931 0.0
C3830 C 0.74037 0.70494 0.93344 0.0
C3831 C 0.70448 0.70231 0.90904 0.0
C3832 C 0.77073 0.72838 0.9734 0.0
C3833 C 0.76435 0.72383 0.96276 0.0
C3834 C 0.73663 0.72697 0.94638 0.0
C3835 C 0.72419 0.70639 0.91869 0.0
C3836 C 0.73163 0.7113 0.92949 0.0
C3837 C 0.75204 0.72526 0.96188 0.0
C3838 C 0.7452 0.72051 0.95056 0.0
H3839 H 0.72712 0.69479 0.88883 0.0
H3840 H 0.73943 0.70186 0.90691 0.0
H3841 H 0.72334 0.72757 0.93305 0.0
H3842 H 0.74798 0.74055 0.99008 0.0
H3843 H 0.73675 0.73238 0.97169 0.0
C3844 C 0.31346 0.75198 0.83657 0.0
C3845 C 0.32149 0.74463 0.83042 0.0
C3846 C 0.30936 0.75043 0.84853 0.0
C3847 C 0.31821 0.73913 0.87618 0.0
H3848 H 0.28525 0.74327 0.88729 0.0
C3849 C 0.30191 0.73716 0.92674 0.0
C3850 C 0.2954 0.74644 0.93172 0.0
C3851 C 0.30434 0.7353 0.91411 0.0
C3852 C 0.2945 0.74214 0.88433 0.0
H3853 H 0.33181 0.73013 0.83211 0.0
H3854 H 0.3244 0.7272 0.8529 0.0
H3855 H 0.29075 0.74282 0.86554 0.0
H3856 H 0.28593 0.76074 0.92734 0.0
H3857 H 0.29031 0.75763 0.90541 0.0
H3858 H 0.32201 0.7387 0.895 0.0
C3859 C 0.32122 0.73412 0.84844 0.0
C3860 C 0.29765 0.74188 0.87188 0.0
C3861 C 0.3253 0.73565 0.83645 0.0
C3862 C 0.29113 0.75363 0.9238 0.0
C3863 C 0.2935 0.75174 0.91121 0.0
C3864 C 0.31505 0.73938 0.88864 0.0
C3865 C 0.31328 0.74157 0.85466 0.0
C3866 C 0.3096 0.7406 0.86769 0.0
C3867 C 0.30021 0.74262 0.90622 0.0
C3868 C 0.30322 0.74112 0.89288 0.0
H3869 H 0.31046 0.75904 0.83218 0.0
H3870 H 0.30342 0.75646 0.85312 0.0
H3871 H 0.32753 0.73827 0.87327 0.0
H3872 H 0.30534 0.73151 0.93263 0.0
H3873 H 0.30945 0.72814 0.91052 0.0
C3874 C 0.33355 0.33369 0.90451 0.0
C3875 C 0.34151 0.32789 0.89632 0.0
C3876 C 0.32933 0.32889 0.91532 0.0
C3877 C 0.3253 0.30048 0.92942 0.0
H3878 H 0.32432 0.32119 0.96012 0.0
C3879 C 0.31922 0.28152 0.97583 0.0
C3880 C 0.31143 0.28667 0.98473 0.0
C3881 C 0.32249 0.28679 0.96511 0.0
C3882 C 0.3244 0.3153 0.9516 0.0
H3883 H 0.35129 0.31251 0.8931 0.0
H3884 H 0.34403 0.30425 0.91187 0.0
H3885 H 0.3305 0.32996 0.94122 0.0
H3886 H 0.30118 0.30155 0.98941 0.0
H3887 H 0.30676 0.31066 0.9706 0.0
H3888 H 0.31929 0.28582 0.93976 0.0
C3889 C 0.3409 0.31241 0.90991 0.0
C3890 C 0.32793 0.32033 0.94076 0.0
C3891 C 0.34513 0.3172 0.89916 0.0
C3892 C 0.30709 0.29729 0.98269 0.0
C3893 C 0.31039 0.30258 0.97196 0.0
C3894 C 0.32179 0.29546 0.94023 0.0
C3895 C 0.33294 0.31816 0.91812 0.0
C3896 C 0.32855 0.31296 0.92956 0.0
C3897 C 0.31807 0.29734 0.96301 0.0
C3898 C 0.32141 0.30279 0.95147 0.0
H3899 H 0.33059 0.34194 0.90259 0.0
H3900 H 0.32312 0.33349 0.9214 0.0
H3901 H 0.32544 0.29456 0.92091 0.0
H3902 H 0.32263 0.27328 0.97705 0.0
H3903 H 0.32855 0.28261 0.95848 0.0
C3904 C 0.63932 0.70878 0.19868 0.0
C3905 C 0.64485 0.7007 0.20453 0.0
C3906 C 0.62833 0.71241 0.20324 0.0
C3907 C 0.60889 0.7151 0.23123 0.0
H3908 H 0.58458 0.71913 0.20841 0.0
C3909 C 0.56175 0.72888 0.247 0.0
C3910 C 0.55768 0.73757 0.24072 0.0
C3911 C 0.57203 0.72362 0.24274 0.0
C3912 C 0.59131 0.71814 0.2149 0.0
H3913 H 0.64311 0.69007 0.21977 0.0
H3914 H 0.6238 0.69638 0.2277 0.0
H3915 H 0.60305 0.71116 0.20073 0.0
H3916 H 0.56142 0.74768 0.22514 0.0
H3917 H 0.57925 0.73847 0.21769 0.0
H3918 H 0.59713 0.72218 0.2454 0.0
C3919 C 0.62807 0.69998 0.21964 0.0
C3920 C 0.60191 0.71357 0.2105 0.0
C3921 C 0.63909 0.69631 0.21506 0.0
C3922 C 0.56414 0.74085 0.23007 0.0
C3923 C 0.57438 0.73557 0.2258 0.0
C3924 C 0.59826 0.71966 0.23565 0.0
C3925 C 0.62255 0.70807 0.21376 0.0
C3926 C 0.61091 0.71215 0.21859 0.0
C3927 C 0.57845 0.72689 0.23207 0.0
C3928 C 0.58942 0.72139 0.22751 0.0
H3929 H 0.6435 0.71238 0.19059 0.0
H3930 H 0.62446 0.71881 0.1986 0.0
H3931 H 0.61569 0.71423 0.2377 0.0
H3932 H 0.5569 0.72603 0.25514 0.0
H3933 H 0.57485 0.71686 0.2477 0.0
C3934 C 0.32646 0.65294 0.21631 0.0
C3935 C 0.32304 0.6634 0.22292 0.0
C3936 C 0.32289 0.64175 0.22047 0.0
C3937 C 0.29966 0.62614 0.24027 0.0
H3938 H 0.32173 0.6024 0.23832 0.0
C3939 C 0.28788 0.58237 0.26269 0.0
C3940 C 0.29087 0.57176 0.256 0.0
C3941 C 0.292 0.59352 0.25868 0.0
C3942 C 0.31542 0.60889 0.23881 0.0
H3943 H 0.31341 0.67033 0.23924 0.0
H3944 H 0.30731 0.65086 0.24654 0.0
H3945 H 0.32873 0.62194 0.23136 0.0
H3946 H 0.30064 0.56457 0.23991 0.0
H3947 H 0.30765 0.58403 0.2328 0.0
H3948 H 0.28634 0.61311 0.24769 0.0
C3949 C 0.31258 0.65127 0.23804 0.0
C3950 C 0.31943 0.62008 0.23482 0.0
C3951 C 0.31615 0.66245 0.23389 0.0
C3952 C 0.29808 0.57257 0.24521 0.0
C3953 C 0.30221 0.58373 0.24121 0.0
C3954 C 0.29565 0.61496 0.24425 0.0
C3955 C 0.31581 0.64077 0.23133 0.0
C3956 C 0.3116 0.62885 0.23554 0.0
C3957 C 0.2992 0.59434 0.24789 0.0
C3958 C 0.30349 0.6062 0.24359 0.0
H3959 H 0.33175 0.65336 0.20782 0.0
H3960 H 0.32544 0.63382 0.21503 0.0
H3961 H 0.29333 0.6326 0.24074 0.0
H3962 H 0.28224 0.58205 0.27097 0.0
H3963 H 0.28962 0.60153 0.26411 0.0
C3964 C 0.40385 0.33587 0.24208 0.0
C3965 C 0.40306 0.3461 0.23631 0.0
C3966 C 0.41495 0.33404 0.24651 0.0
C3967 C 0.44478 0.3495 0.25686 0.0
H3968 H 0.45522 0.31826 0.2485 0.0
C3969 C 0.48551 0.33396 0.27888 0.0
C3970 C 0.49337 0.32783 0.27086 0.0
C3971 C 0.47481 0.33699 0.27463 0.0
C3972 C 0.45244 0.32704 0.25086 0.0
H3973 H 0.41323 0.36257 0.23089 0.0
H3974 H 0.43262 0.35941 0.23878 0.0
H3975 H 0.43571 0.32188 0.24135 0.0
H3976 H 0.4964 0.32065 0.25193 0.0
H3977 H 0.47761 0.32572 0.24462 0.0
H3978 H 0.46153 0.35461 0.26643 0.0
C3979 C 0.42463 0.35281 0.23984 0.0
C3980 C 0.44124 0.32908 0.24687 0.0
C3981 C 0.41356 0.35458 0.23527 0.0
C3982 C 0.49045 0.32514 0.25842 0.0
C3983 C 0.4797 0.32806 0.25421 0.0
C3984 C 0.45594 0.34741 0.26099 0.0
C3985 C 0.42546 0.34247 0.2454 0.0
C3986 C 0.43731 0.34033 0.2498 0.0
C3987 C 0.47169 0.33386 0.26231 0.0
C3988 C 0.45989 0.33617 0.25797 0.0
H3989 H 0.39592 0.32918 0.24303 0.0
H3990 H 0.41532 0.32604 0.25086 0.0
H3991 H 0.44193 0.35824 0.2593 0.0
H3992 H 0.48738 0.33603 0.28854 0.0
H3993 H 0.46874 0.34138 0.28108 0.0
C3994 C 0.74684 0.35954 0.21193 0.0
C3995 C 0.74912 0.35186 0.22038 0.0
C3996 C 0.74795 0.37194 0.21534 0.0
C3997 C 0.76408 0.396 0.23578 0.0
H3998 H 0.73743 0.4137 0.23182 0.0
C3999 C 0.76615 0.4455 0.25583 0.0
C4000 C 0.76079 0.45321 0.24938 0.0
C4001 C 0.76444 0.43314 0.25222 0.0
C4002 C 0.74505 0.40896 0.2328 0.0
H4003 H 0.75476 0.35108 0.23882 0.0
H4004 H 0.75692 0.3728 0.24472 0.0
H4005 H 0.73514 0.39212 0.22533 0.0
H4006 H 0.74946 0.45417 0.23413 0.0
H4007 H 0.74684 0.43261 0.22745 0.0
H4008 H 0.77421 0.41274 0.24284 0.0
C4009 C 0.75407 0.36919 0.23555 0.0
C4010 C 0.74369 0.39659 0.22915 0.0
C4011 C 0.75273 0.35679 0.23221 0.0
C4012 C 0.75363 0.44837 0.23928 0.0
C4013 C 0.75209 0.436 0.23552 0.0
C4014 C 0.76554 0.40839 0.23924 0.0
C4015 C 0.75164 0.37687 0.22716 0.0
C4016 C 0.75315 0.39 0.23071 0.0
C4017 C 0.7575 0.42822 0.24193 0.0
C4018 C 0.756 0.41504 0.23792 0.0
H4019 H 0.74405 0.35594 0.20275 0.0
H4020 H 0.74612 0.3777 0.2087 0.0
H4021 H 0.77157 0.39112 0.23693 0.0
H4022 H 0.77157 0.44903 0.26377 0.0
H4023 H 0.76849 0.42746 0.25761 0.0
C4024 C 0.66487 0.34672 0.80715 0.0
C4025 C 0.67009 0.34048 0.81535 0.0
C4026 C 0.65253 0.34378 0.80439 0.0
C4027 C 0.62303 0.32747 0.81459 0.0
H4028 H 0.61572 0.3241 0.7801 0.0
C4029 C 0.57387 0.31455 0.79652 0.0
C4030 C 0.57249 0.30614 0.78597 0.0
C4031 C 0.5855 0.31953 0.80059 0.0
C4032 C 0.61762 0.32496 0.78977 0.0
H4033 H 0.6663 0.32657 0.82746 0.0
H4034 H 0.64483 0.32138 0.82255 0.0
H4035 H 0.63641 0.33164 0.78663 0.0
H4036 H 0.58224 0.29609 0.7717 0.0
H4037 H 0.60247 0.30478 0.77877 0.0
H4038 H 0.60427 0.32043 0.81765 0.0
C4039 C 0.65025 0.32861 0.81832 0.0
C4040 C 0.62944 0.32943 0.79353 0.0
C4041 C 0.66259 0.33155 0.82108 0.0
C4042 C 0.58298 0.30272 0.7797 0.0
C4043 C 0.59458 0.30771 0.78376 0.0
C4044 C 0.61117 0.32302 0.81083 0.0
C4045 C 0.64513 0.33454 0.80977 0.0
C4046 C 0.63233 0.33061 0.80597 0.0
C4047 C 0.59599 0.31622 0.7942 0.0
C4048 C 0.60838 0.32157 0.79835 0.0
H4049 H 0.67038 0.35371 0.80264 0.0
H4050 H 0.64882 0.34864 0.79791 0.0
H4051 H 0.62494 0.32838 0.82426 0.0
H4052 H 0.56597 0.31746 0.80148 0.0
H4053 H 0.58629 0.32614 0.80861 0.0
C4054 C 0.69689 0.64289 0.84381 0.0
C4055 C 0.70241 0.65353 0.83934 0.0
C4056 C 0.69921 0.63172 0.83807 0.0
C4057 C 0.72144 0.61758 0.81698 0.0
H4058 H 0.69583 0.59018 0.8149 0.0
C4059 C 0.72766 0.57192 0.7897 0.0
C4060 C 0.72403 0.56179 0.79587 0.0
C4061 C 0.72458 0.58311 0.79449 0.0
C4062 C 0.70308 0.59775 0.81548 0.0
H4063 H 0.71454 0.6608 0.82522 0.0
H4064 H 0.71834 0.64133 0.81502 0.0
H4065 H 0.69128 0.60979 0.8241 0.0
H4066 H 0.71405 0.55535 0.81171 0.0
H4067 H 0.70861 0.57493 0.82007 0.0
H4068 H 0.73318 0.60551 0.80823 0.0
C4069 C 0.71244 0.64159 0.82313 0.0
C4070 C 0.7005 0.60898 0.82078 0.0
C4071 C 0.7102 0.65276 0.82893 0.0
C4072 C 0.71703 0.56302 0.8068 0.0
C4073 C 0.71384 0.57419 0.81153 0.0
C4074 C 0.72398 0.60638 0.81158 0.0
C4075 C 0.70703 0.63092 0.82766 0.0
C4076 C 0.70966 0.61903 0.82168 0.0
C4077 C 0.7177 0.58437 0.80549 0.0
C4078 C 0.71485 0.59633 0.81084 0.0
H4079 H 0.69089 0.64318 0.85185 0.0
H4080 H 0.69504 0.62372 0.84195 0.0
H4081 H 0.72878 0.62505 0.8177 0.0
H4082 H 0.73316 0.57124 0.78131 0.0
H4083 H 0.7276 0.59079 0.7896 0.0
C4084 C 0.38251 0.77625 0.80179 0.0
C4085 C 0.37572 0.76549 0.79661 0.0
C4086 C 0.39518 0.77728 0.80247 0.0
C4087 C 0.42049 0.75905 0.80116 0.0
H4088 H 0.44041 0.78878 0.79455 0.0
C4089 C 0.4725 0.76337 0.79158 0.0
C4090 C 0.47972 0.77378 0.79691 0.0
C4091 C 0.45979 0.76226 0.79252 0.0
C4092 C 0.43496 0.78047 0.79657 0.0
H4093 H 0.37691 0.74742 0.78802 0.0
H4094 H 0.39902 0.74931 0.78895 0.0
H4095 H 0.41827 0.78708 0.79403 0.0
H4096 H 0.47934 0.79116 0.80751 0.0
H4097 H 0.45709 0.78921 0.80919 0.0
H4098 H 0.43725 0.75239 0.80344 0.0
C4099 C 0.39455 0.75687 0.79272 0.0
C4100 C 0.42227 0.77949 0.79628 0.0
C4101 C 0.38187 0.75581 0.7921 0.0
C4102 C 0.47399 0.78298 0.80341 0.0
C4103 C 0.46127 0.78192 0.80426 0.0
C4104 C 0.43319 0.76001 0.80137 0.0
C4105 C 0.40136 0.76761 0.79793 0.0
C4106 C 0.41487 0.76875 0.79852 0.0
C4107 C 0.45404 0.77159 0.79873 0.0
C4108 C 0.44055 0.77072 0.79902 0.0
H4109 H 0.37803 0.78385 0.80542 0.0
H4110 H 0.40011 0.78563 0.8067 0.0
H4111 H 0.41507 0.75072 0.80315 0.0
H4112 H 0.47669 0.75611 0.78657 0.0
H4113 H 0.45446 0.75424 0.78808 0.0
C4114 C 0.3414 0.40798 0.84022 0.0
C4115 C 0.33601 0.39596 0.83758 0.0
C4116 C 0.3367 0.41719 0.83546 0.0
C4117 C 0.31728 0.42291 0.81091 0.0
H4118 H 0.31489 0.45275 0.83167 0.0
C4119 C 0.2907 0.45906 0.79693 0.0
C4120 C 0.29586 0.47115 0.79959 0.0
C4121 C 0.29577 0.44995 0.80146 0.0
C4122 C 0.31563 0.44453 0.8257 0.0
H4123 H 0.32144 0.38421 0.82783 0.0
H4124 H 0.31318 0.40027 0.81963 0.0
H4125 H 0.32343 0.43676 0.83971 0.0
H4126 H 0.31036 0.48314 0.80917 0.0
H4127 H 0.31932 0.46724 0.81693 0.0
H4128 H 0.30945 0.43067 0.79691 0.0
C4129 C 0.32114 0.40257 0.82525 0.0
C4130 C 0.32053 0.43536 0.83031 0.0
C4131 C 0.32584 0.39337 0.83002 0.0
C4132 C 0.30622 0.47392 0.80687 0.0
C4133 C 0.31128 0.46481 0.81143 0.0
C4134 C 0.31238 0.43208 0.8063 0.0
C4135 C 0.3265 0.41461 0.82794 0.0
C4136 C 0.3214 0.42442 0.82298 0.0
C4137 C 0.30612 0.45271 0.80878 0.0
C4138 C 0.31147 0.443 0.81364 0.0
H4139 H 0.34927 0.4103 0.84598 0.0
H4140 H 0.34115 0.42634 0.83758 0.0
H4141 H 0.31799 0.41469 0.80495 0.0
H4142 H 0.28281 0.4566 0.79121 0.0
H4143 H 0.29149 0.44075 0.79934 0.0
C4144 C 0.70459 0.62757 0.20682 0.0
C4145 C 0.7078 0.6394 0.21239 0.0
C4146 C 0.70933 0.61805 0.21094 0.0
C4147 C 0.72334 0.60952 0.23784 0.0
H4148 H 0.73341 0.58407 0.2145 0.0
C4149 C 0.75151 0.56656 0.23669 0.0
C4150 C 0.7462 0.56147 0.24704 0.0
C4151 C 0.74678 0.57597 0.23235 0.0
C4152 C 0.73072 0.59115 0.22113 0.0
H4153 H 0.71857 0.65049 0.22663 0.0
H4154 H 0.72691 0.63391 0.23376 0.0
H4155 H 0.72554 0.60081 0.20714 0.0
H4156 H 0.73179 0.56237 0.26098 0.0
H4157 H 0.72341 0.57862 0.25327 0.0
H4158 H 0.72872 0.59998 0.25183 0.0
C4159 C 0.72061 0.63197 0.22629 0.0
C4160 C 0.72607 0.60067 0.21692 0.0
C4161 C 0.71588 0.64149 0.22216 0.0
C4162 C 0.73602 0.56599 0.2529 0.0
C4163 C 0.7313 0.57541 0.24857 0.0
C4164 C 0.72796 0.59999 0.24205 0.0
C4165 C 0.71738 0.62013 0.22075 0.0
C4166 C 0.72233 0.60998 0.22522 0.0
C4167 C 0.73664 0.58054 0.23826 0.0
C4168 C 0.73171 0.59068 0.23375 0.0
H4169 H 0.69837 0.62564 0.19929 0.0
H4170 H 0.70653 0.60903 0.20657 0.0
H4171 H 0.72043 0.61647 0.24449 0.0
H4172 H 0.75929 0.56323 0.2319 0.0
H4173 H 0.75118 0.57979 0.22445 0.0
C4174 C 0.73945 0.35974 0.80582 0.0
C4175 C 0.73322 0.35461 0.81571 0.0
C4176 C 0.73766 0.37109 0.80328 0.0
C4177 C 0.72928 0.39954 0.81752 0.0
H4178 H 0.72557 0.40524 0.78396 0.0
C4179 C 0.72586 0.44688 0.80396 0.0
C4180 C 0.73243 0.44982 0.79326 0.0
C4181 C 0.72443 0.43511 0.80703 0.0
C4182 C 0.72669 0.40383 0.79337 0.0
H4183 H 0.72051 0.3575 0.83097 0.0
H4184 H 0.71735 0.37747 0.82651 0.0
H4185 H 0.72576 0.38483 0.78868 0.0
H4186 H 0.74302 0.44289 0.77766 0.0
H4187 H 0.74065 0.42253 0.78304 0.0
H4188 H 0.73066 0.4186 0.82216 0.0
C4189 C 0.72351 0.37258 0.82064 0.0
C4190 C 0.72675 0.39213 0.79607 0.0
C4191 C 0.7252 0.36111 0.8231 0.0
C4192 C 0.73766 0.44084 0.78581 0.0
C4193 C 0.73627 0.42915 0.78889 0.0
C4194 C 0.72932 0.41129 0.81481 0.0
C4195 C 0.72971 0.37765 0.81069 0.0
C4196 C 0.72829 0.3899 0.80812 0.0
C4197 C 0.72958 0.4261 0.79948 0.0
C4198 C 0.72829 0.41359 0.80265 0.0
H4199 H 0.74572 0.35494 0.80001 0.0
H4200 H 0.74269 0.37485 0.79566 0.0
H4201 H 0.73057 0.39807 0.82689 0.0
H4202 H 0.7217 0.45362 0.80985 0.0
H4203 H 0.71916 0.43305 0.81522 0.0
C4204 C 0.6479 0.70286 0.84637 0.0
C4205 C 0.66035 0.70758 0.84589 0.0
C4206 C 0.63936 0.70799 0.84055 0.0
C4207 C 0.63513 0.73665 0.83023 0.0
H4208 H 0.60717 0.71784 0.81378 0.0
C4209 C 0.60083 0.75865 0.80596 0.0
C4210 C 0.5884 0.75434 0.80766 0.0
C4211 C 0.60978 0.75258 0.80981 0.0
C4212 C 0.61488 0.72322 0.81844 0.0
H4213 H 0.67365 0.72104 0.83846 0.0
H4214 H 0.65876 0.7299 0.82822 0.0
H4215 H 0.62261 0.70767 0.8216 0.0
H4216 H 0.57561 0.74028 0.81476 0.0
H4217 H 0.59124 0.72971 0.82155 0.0
H4218 H 0.62735 0.75219 0.82724 0.0
C4219 C 0.65558 0.72236 0.83327 0.0
C4220 C 0.62373 0.71739 0.8229 0.0
C4221 C 0.66412 0.71724 0.83908 0.0
C4222 C 0.58511 0.74375 0.8132 0.0
C4223 C 0.59407 0.73769 0.81707 0.0
C4224 C 0.62629 0.74247 0.82579 0.0
C4225 C 0.64308 0.71794 0.83413 0.0
C4226 C 0.63392 0.72405 0.82889 0.0
C4227 C 0.60651 0.74206 0.81546 0.0
C4228 C 0.61603 0.73583 0.81989 0.0
H4229 H 0.64469 0.69542 0.85153 0.0
H4230 H 0.62979 0.70442 0.84147 0.0
H4231 H 0.64275 0.74205 0.83501 0.0
H4232 H 0.60365 0.76666 0.80152 0.0
H4233 H 0.61928 0.75608 0.80825 0.0
C4234 C 0.3173 0.67452 0.81137 0.0
C4235 C 0.30882 0.68148 0.80791 0.0
C4236 C 0.31464 0.66199 0.81015 0.0
C4237 C 0.28905 0.63694 0.8064 0.0
H4238 H 0.31434 0.61829 0.79336 0.0
C4239 C 0.28191 0.5851 0.80215 0.0
C4240 C 0.28631 0.5791 0.79128 0.0
C4241 C 0.28495 0.59753 0.80488 0.0
C4242 C 0.30716 0.62337 0.79696 0.0
H4243 H 0.29086 0.68073 0.80056 0.0
H4244 H 0.28629 0.65891 0.7983 0.0
H4245 H 0.3189 0.64011 0.79678 0.0
H4246 H 0.29725 0.58149 0.77469 0.0
H4247 H 0.30252 0.60315 0.77942 0.0
H4248 H 0.27722 0.62022 0.80624 0.0
C4249 C 0.29493 0.66313 0.80212 0.0
C4250 C 0.30982 0.63587 0.79905 0.0
C4251 C 0.29758 0.67564 0.80334 0.0
C4252 C 0.29388 0.5858 0.78324 0.0
C4253 C 0.2969 0.59822 0.78595 0.0
C4254 C 0.2864 0.62444 0.80431 0.0
C4255 C 0.30345 0.65615 0.80543 0.0
C4256 C 0.30077 0.64282 0.80371 0.0
C4257 C 0.29244 0.60424 0.79678 0.0
C4258 C 0.2954 0.61751 0.79947 0.0
H4259 H 0.32602 0.67873 0.81497 0.0
H4260 H 0.32134 0.65688 0.81294 0.0
H4261 H 0.28191 0.64201 0.81012 0.0
H4262 H 0.2762 0.58017 0.80862 0.0
H4263 H 0.28151 0.60186 0.81338 0.0
C4264 C 0.38238 0.33348 0.83477 0.0
C4265 C 0.37902 0.34472 0.8334 0.0
C4266 C 0.39169 0.32904 0.82745 0.0
C4267 C 0.41908 0.33861 0.80912 0.0
H4268 H 0.41632 0.3046 0.79765 0.0
C4269 C 0.45768 0.31747 0.78087 0.0
C4270 C 0.46039 0.30673 0.78453 0.0
C4271 C 0.44726 0.32229 0.78554 0.0
C4272 C 0.41726 0.31411 0.80084 0.0
H4273 H 0.38277 0.36003 0.8231 0.0
H4274 H 0.39909 0.35222 0.81024 0.0
H4275 H 0.39891 0.31273 0.80797 0.0
H4276 H 0.45409 0.29244 0.7957 0.0
H4277 H 0.43606 0.30089 0.80395 0.0
H4278 H 0.43754 0.33992 0.80216 0.0
C4279 C 0.39452 0.34691 0.81708 0.0
C4280 C 0.40728 0.31877 0.80675 0.0
C4281 C 0.38513 0.35135 0.8244 0.0
C4282 C 0.45235 0.30081 0.79281 0.0
C4283 C 0.44193 0.30558 0.79743 0.0
C4284 C 0.42909 0.33394 0.80319 0.0
C4285 C 0.39792 0.3357 0.81855 0.0
C4286 C 0.40814 0.33103 0.81118 0.0
C4287 C 0.43928 0.3164 0.7939 0.0
C4288 C 0.42836 0.32159 0.7992 0.0
H4289 H 0.3779 0.32811 0.8416 0.0
H4290 H 0.39419 0.32047 0.82897 0.0
H4291 H 0.42009 0.34807 0.81251 0.0
H4292 H 0.46374 0.32228 0.77457 0.0
H4293 H 0.44543 0.33059 0.78257 0.0
C4294 C 0.36025 0.39728 0.22682 0.0
C4295 C 0.3548 0.38838 0.21789 0.0
C4296 C 0.35411 0.40681 0.23167 0.0
C4297 C 0.32991 0.42359 0.22443 0.0
H4298 H 0.32894 0.43403 0.25932 0.0
C4299 C 0.29806 0.45677 0.24557 0.0
C4300 C 0.30261 0.46564 0.25495 0.0
C4301 C 0.30464 0.44743 0.2413 0.0
C4302 C 0.32925 0.43133 0.24954 0.0
H4303 H 0.33858 0.38243 0.20719 0.0
H4304 H 0.32793 0.39898 0.21566 0.0
H4305 H 0.34021 0.41763 0.25144 0.0
H4306 H 0.31765 0.47171 0.26717 0.0
H4307 H 0.32921 0.45545 0.25964 0.0
H4308 H 0.31905 0.43728 0.22246 0.0
C4309 C 0.33698 0.39868 0.21882 0.0
C4310 C 0.3357 0.42193 0.24503 0.0
C4311 C 0.34307 0.38915 0.21402 0.0
C4312 C 0.31385 0.46492 0.26003 0.0
C4313 C 0.32046 0.4556 0.25572 0.0
C4314 C 0.32352 0.43301 0.22891 0.0
C4315 C 0.34245 0.40765 0.22763 0.0
C4316 C 0.336 0.4179 0.23244 0.0
C4317 C 0.31595 0.44676 0.24627 0.0
C4318 C 0.32302 0.43693 0.24153 0.0
H4319 H 0.36928 0.39693 0.22999 0.0
H4320 H 0.35858 0.41364 0.23841 0.0
H4321 H 0.33016 0.42082 0.21465 0.0
H4322 H 0.28933 0.45698 0.24162 0.0
H4323 H 0.30078 0.44065 0.23418 0.0
C4324 C 0.699 0.34064 0.26999 0.0
C4325 C 0.70396 0.35006 0.26326 0.0
C4326 C 0.68726 0.34029 0.27522 0.0
C4327 C 0.65836 0.35042 0.26987 0.0
H4328 H 0.64787 0.33605 0.29948 0.0
C4329 C 0.60959 0.32708 0.27725 0.0
C4330 C 0.60406 0.32841 0.28898 0.0
C4331 C 0.6218 0.33173 0.27537 0.0
C4332 C 0.65066 0.34024 0.29128 0.0
H4333 H 0.7008 0.36695 0.25751 0.0
H4334 H 0.68033 0.36638 0.26674 0.0
H4335 H 0.66963 0.34118 0.29486 0.0
H4336 H 0.60699 0.33574 0.30794 0.0
H4337 H 0.6284 0.34395 0.30462 0.0
H4338 H 0.63943 0.34935 0.2662 0.0
C4339 C 0.68546 0.35915 0.26777 0.0
C4340 C 0.66312 0.34308 0.28858 0.0
C4341 C 0.69721 0.3595 0.26253 0.0
C4342 C 0.61099 0.33464 0.29878 0.0
C4343 C 0.62325 0.33926 0.2969 0.0
C4344 C 0.64593 0.34758 0.27256 0.0
C4345 C 0.68021 0.34936 0.27386 0.0
C4346 C 0.66711 0.34794 0.27769 0.0
C4347 C 0.6288 0.33781 0.28518 0.0
C4348 C 0.64194 0.34218 0.28314 0.0
H4349 H 0.70397 0.33325 0.27079 0.0
H4350 H 0.68348 0.33256 0.27975 0.0
H4351 H 0.6611 0.35405 0.26135 0.0
H4352 H 0.60446 0.32245 0.2695 0.0
H4353 H 0.62583 0.33033 0.26626 0.0
C4354 C 0.35834 0.71205 0.2021 0.0
C4355 C 0.35107 0.72127 0.2044 0.0
C4356 C 0.36962 0.71314 0.20767 0.0
C4357 C 0.38741 0.72893 0.23369 0.0
H4358 H 0.41574 0.72519 0.21239 0.0
C4359 C 0.43609 0.74796 0.24909 0.0
C4360 C 0.44584 0.74199 0.24444 0.0
C4361 C 0.4243 0.74406 0.24488 0.0
C4362 C 0.40794 0.72603 0.21855 0.0
H4363 H 0.34972 0.73873 0.21443 0.0
H4364 H 0.36929 0.74054 0.22432 0.0
H4365 H 0.3954 0.72047 0.20398 0.0
H4366 H 0.45086 0.72699 0.23209 0.0
H4367 H 0.43023 0.71993 0.22497 0.0
H4368 H 0.39984 0.73443 0.24829 0.0
C4369 C 0.3663 0.73248 0.21824 0.0
C4370 C 0.39628 0.72336 0.2137 0.0
C4371 C 0.35515 0.73148 0.21253 0.0
C4372 C 0.44352 0.73184 0.23573 0.0
C4373 C 0.4317 0.72784 0.23161 0.0
C4374 C 0.39905 0.73145 0.23859 0.0
C4375 C 0.37371 0.7234 0.21576 0.0
C4376 C 0.38593 0.725 0.22117 0.0
C4377 C 0.42195 0.73399 0.23601 0.0
C4378 C 0.4095 0.73028 0.23104 0.0
H4379 H 0.35552 0.7042 0.19567 0.0
H4380 H 0.37518 0.70602 0.2056 0.0
H4381 H 0.37955 0.73014 0.23969 0.0
H4382 H 0.43765 0.7559 0.2557 0.0
H4383 H 0.41712 0.74919 0.24832 0.0
loop_
_geom_bond_atom_site_label_1
_geom_bond_atom_site_label_2
_geom_bond_distance
_geom_bond_site_symmetry_2
_ccdc_geom_bond_type
O0 Cd1 2.300 . S
O0 C7 1.275 . S
Cd1 O0 2.300 . S
Cd1 O9 2.381 . S
Cd1 O10 2.378 . S
O2 Cd3 2.385 . S
O2 C7 1.255 . S
Cd3 O2 2.385 . S
Cd3 O4 2.317 . S
O4 Cd3 2.317 . S
O4 C5 1.232 . S
C5 O4 1.232 . S
C5 O6 1.218 . S
O6 C5 1.218 . S
C7 O0 1.275 . S
C7 O2 1.255 . S
C8 O9 1.258 . S
C8 O10 1.256 . S
O9 Cd1 2.381 . S
O9 C8 1.258 . S
O10 Cd1 2.378 . S
O10 C8 1.256 . S
O11 Cd12 2.300 . S
O11 C18 1.275 . S
Cd12 O11 2.300 . S
Cd12 O20 2.381 . S
Cd12 O21 2.378 . S
O13 Cd14 2.385 . S
O13 C18 1.255 . S
Cd14 O13 2.385 . S
Cd14 O15 2.317 . S
O15 Cd14 2.317 . S
O15 C16 1.232 . S
C16 O15 1.232 . S
C16 O17 1.218 . S
O17 C16 1.218 . S
C18 O11 1.275 . S
C18 O13 1.255 . S
C19 O20 1.258 . S
C19 O21 1.256 . S
O20 Cd12 2.381 . S
O20 C19 1.258 . S
O21 Cd12 2.378 . S
O21 C19 1.256 . S
O22 Cd23 2.300 . S
O22 C29 1.275 . S
Cd23 O22 2.300 . S
Cd23 O31 2.381 . S
Cd23 O32 2.378 . S
O24 Cd25 2.385 . S
O24 C29 1.255 . S
Cd25 O24 2.385 . S
Cd25 O26 2.317 . S
O26 Cd25 2.317 . S
O26 C27 1.232 . S
C27 O26 1.232 . S
C27 O28 1.218 . S
O28 C27 1.218 . S
C29 O22 1.275 . S
C29 O24 1.255 . S
C30 O31 1.258 . S
C30 O32 1.256 . S
O31 Cd23 2.381 . S
O31 C30 1.258 . S
O32 Cd23 2.378 . S
O32 C30 1.256 . S
O33 Cd34 2.300 . S
O33 C40 1.275 . S
Cd34 O33 2.300 . S
Cd34 O42 2.381 . S
Cd34 O43 2.378 . S
O35 Cd36 2.385 . S
O35 C40 1.255 . S
Cd36 O35 2.385 . S
Cd36 O37 2.317 . S
O37 Cd36 2.317 . S
O37 C38 1.232 . S
C38 O37 1.232 . S
C38 O39 1.218 . S
O39 C38 1.218 . S
C40 O33 1.275 . S
C40 O35 1.255 . S
C41 O42 1.258 . S
C41 O43 1.256 . S
O42 Cd34 2.381 . S
O42 C41 1.258 . S
O43 Cd34 2.378 . S
O43 C41 1.256 . S
O44 Cd45 2.300 . S
O44 C51 1.275 . S
Cd45 O44 2.300 . S
Cd45 O53 2.381 . S
Cd45 O54 2.378 . S
O46 Cd47 2.385 . S
O46 C51 1.255 . S
Cd47 O46 2.385 . S
Cd47 O48 2.317 . S
O48 Cd47 2.317 . S
O48 C49 1.232 . S
C49 O48 1.232 . S
C49 O50 1.218 . S
O50 C49 1.218 . S
C51 O44 1.275 . S
C51 O46 1.255 . S
C52 O53 1.258 . S
C52 O54 1.256 . S
O53 Cd45 2.381 . S
O53 C52 1.258 . S
O54 Cd45 2.378 . S
O54 C52 1.256 . S
O55 Cd56 2.300 . S
O55 C62 1.275 . S
Cd56 O55 2.300 . S
Cd56 O64 2.381 . S
Cd56 O65 2.378 . S
O57 Cd58 2.385 . S
O57 C62 1.255 . S
Cd58 O57 2.385 . S
Cd58 O59 2.317 . S
O59 Cd58 2.317 . S
O59 C60 1.232 . S
C60 O59 1.232 . S
C60 O61 1.218 . S
O61 C60 1.218 . S
C62 O55 1.275 . S
C62 O57 1.255 . S
C63 O64 1.258 . S
C63 O65 1.256 . S
O64 Cd56 2.381 . S
O64 C63 1.258 . S
O65 Cd56 2.378 . S
O65 C63 1.256 . S
O66 Cd67 2.300 . S
O66 C73 1.275 . S
Cd67 O66 2.300 . S
Cd67 O75 2.381 . S
Cd67 O76 2.378 . S
O68 Cd69 2.385 . S
O68 C73 1.255 . S
Cd69 O68 2.385 . S
Cd69 O70 2.317 . S
O70 Cd69 2.317 . S
O70 C71 1.232 . S
C71 O70 1.232 . S
C71 O72 1.218 . S
O72 C71 1.218 . S
C73 O66 1.275 . S
C73 O68 1.255 . S
C74 O75 1.258 . S
C74 O76 1.256 . S
O75 Cd67 2.381 . S
O75 C74 1.258 . S
O76 Cd67 2.378 . S
O76 C74 1.256 . S
O77 Cd78 2.300 . S
O77 C84 1.275 . S
Cd78 O77 2.300 . S
Cd78 O86 2.381 . S
Cd78 O87 2.378 . S
O79 Cd80 2.385 . S
O79 C84 1.255 . S
Cd80 O79 2.385 . S
Cd80 O81 2.317 . S
O81 Cd80 2.317 . S
O81 C82 1.232 . S
C82 O81 1.232 . S
C82 O83 1.218 . S
O83 C82 1.218 . S
C84 O77 1.275 . S
C84 O79 1.255 . S
C85 O86 1.258 . S
C85 O87 1.256 . S
O86 Cd78 2.381 . S
O86 C85 1.258 . S
O87 Cd78 2.378 . S
O87 C85 1.256 . S
O88 Cd89 2.300 . S
O88 C95 1.275 . S
Cd89 O88 2.300 . S
Cd89 O97 2.381 . S
Cd89 O98 2.378 . S
O90 Cd91 2.385 . S
O90 C95 1.255 . S
Cd91 O90 2.385 . S
Cd91 O92 2.317 . S
O92 Cd91 2.317 . S
O92 C93 1.232 . S
C93 O92 1.232 . S
C93 O94 1.218 . S
O94 C93 1.218 . S
C95 O88 1.275 . S
C95 O90 1.255 . S
C96 O97 1.258 . S
C96 O98 1.256 . S
O97 Cd89 2.381 . S
O97 C96 1.258 . S
O98 Cd89 2.378 . S
O98 C96 1.256 . S
O99 Cd100 2.300 . S
O99 C106 1.275 . S
Cd100 O99 2.300 . S
Cd100 O108 2.381 . S
Cd100 O109 2.378 . S
O101 Cd102 2.385 . S
O101 C106 1.255 . S
Cd102 O101 2.385 . S
Cd102 O103 2.317 . S
O103 Cd102 2.317 . S
O103 C104 1.232 . S
C104 O103 1.232 . S
C104 O105 1.218 . S
O105 C104 1.218 . S
C106 O99 1.275 . S
C106 O101 1.255 . S
C107 O108 1.258 . S
C107 O109 1.256 . S
O108 Cd100 2.381 . S
O108 C107 1.258 . S
O109 Cd100 2.378 . S
O109 C107 1.256 . S
O110 Cd111 2.300 . S
O110 C117 1.275 . S
Cd111 O110 2.300 . S
Cd111 O119 2.381 . S
Cd111 O120 2.378 . S
O112 Cd113 2.385 . S
O112 C117 1.255 . S
Cd113 O112 2.385 . S
Cd113 O114 2.317 . S
O114 Cd113 2.317 . S
O114 C115 1.232 . S
C115 O114 1.232 . S
C115 O116 1.218 . S
O116 C115 1.218 . S
C117 O110 1.275 . S
C117 O112 1.255 . S
C118 O119 1.258 . S
C118 O120 1.256 . S
O119 Cd111 2.381 . S
O119 C118 1.258 . S
O120 Cd111 2.378 . S
O120 C118 1.256 . S
O121 Cd122 2.300 . S
O121 C128 1.275 . S
Cd122 O121 2.300 . S
Cd122 O130 2.381 . S
Cd122 O131 2.378 . S
O123 Cd124 2.385 . S
O123 C128 1.255 . S
Cd124 O123 2.385 . S
Cd124 O125 2.317 . S
O125 Cd124 2.317 . S
O125 C126 1.232 . S
C126 O125 1.232 . S
C126 O127 1.218 . S
O127 C126 1.218 . S
C128 O121 1.275 . S
C128 O123 1.255 . S
C129 O130 1.258 . S
C129 O131 1.256 . S
O130 Cd122 2.381 . S
O130 C129 1.258 . S
O131 Cd122 2.378 . S
O131 C129 1.256 . S
O132 Cd133 2.300 . S
O132 C139 1.275 . S
Cd133 O132 2.300 . S
Cd133 O141 2.381 . S
Cd133 O142 2.378 . S
O134 Cd135 2.385 . S
O134 C139 1.255 . S
Cd135 O134 2.385 . S
Cd135 O136 2.317 . S
O136 Cd135 2.317 . S
O136 C137 1.232 . S
C137 O136 1.232 . S
C137 O138 1.218 . S
O138 C137 1.218 . S
C139 O132 1.275 . S
C139 O134 1.255 . S
C140 O141 1.258 . S
C140 O142 1.256 . S
O141 Cd133 2.381 . S
O141 C140 1.258 . S
O142 Cd133 2.378 . S
O142 C140 1.256 . S
O143 Cd144 2.300 . S
O143 C150 1.275 . S
Cd144 O143 2.300 . S
Cd144 O152 2.381 . S
Cd144 O153 2.378 . S
O145 Cd146 2.385 . S
O145 C150 1.255 . S
Cd146 O145 2.385 . S
Cd146 O147 2.317 . S
O147 Cd146 2.317 . S
O147 C148 1.232 . S
C148 O147 1.232 . S
C148 O149 1.218 . S
O149 C148 1.218 . S
C150 O143 1.275 . S
C150 O145 1.255 . S
C151 O152 1.258 . S
C151 O153 1.256 . S
O152 Cd144 2.381 . S
O152 C151 1.258 . S
O153 Cd144 2.378 . S
O153 C151 1.256 . S
O154 Cd155 2.300 . S
O154 C161 1.275 . S
Cd155 O154 2.300 . S
Cd155 O163 2.381 . S
Cd155 O164 2.378 . S
O156 Cd157 2.385 . S
O156 C161 1.255 . S
Cd157 O156 2.385 . S
Cd157 O158 2.317 . S
O158 Cd157 2.317 . S
O158 C159 1.232 . S
C159 O158 1.232 . S
C159 O160 1.218 . S
O160 C159 1.218 . S
C161 O154 1.275 . S
C161 O156 1.255 . S
C162 O163 1.258 . S
C162 O164 1.256 . S
O163 Cd155 2.381 . S
O163 C162 1.258 . S
O164 Cd155 2.378 . S
O164 C162 1.256 . S
O165 Cd166 2.300 . S
O165 C172 1.275 . S
Cd166 O165 2.300 . S
Cd166 O174 2.381 . S
Cd166 O175 2.378 . S
O167 Cd168 2.385 . S
O167 C172 1.255 . S
Cd168 O167 2.385 . S
Cd168 O169 2.317 . S
O169 Cd168 2.317 . S
O169 C170 1.232 . S
C170 O169 1.232 . S
C170 O171 1.218 . S
O171 C170 1.218 . S
C172 O165 1.275 . S
C172 O167 1.255 . S
C173 O174 1.258 . S
C173 O175 1.256 . S
O174 Cd166 2.381 . S
O174 C173 1.258 . S
O175 Cd166 2.378 . S
O175 C173 1.256 . S
O176 Cd177 2.300 . S
O176 C183 1.275 . S
Cd177 O176 2.300 . S
Cd177 O185 2.381 . S
Cd177 O186 2.378 . S
O178 Cd179 2.385 . S
O178 C183 1.255 . S
Cd179 O178 2.385 . S
Cd179 O180 2.317 . S
O180 Cd179 2.317 . S
O180 C181 1.232 . S
C181 O180 1.232 . S
C181 O182 1.218 . S
O182 C181 1.218 . S
C183 O176 1.275 . S
C183 O178 1.255 . S
C184 O185 1.258 . S
C184 O186 1.256 . S
O185 Cd177 2.381 . S
O185 C184 1.258 . S
O186 Cd177 2.378 . S
O186 C184 1.256 . S
O187 Cd188 2.300 . S
O187 C194 1.275 . S
Cd188 O187 2.300 . S
Cd188 O196 2.381 . S
Cd188 O197 2.378 . S
O189 Cd190 2.385 . S
O189 C194 1.255 . S
Cd190 O189 2.385 . S
Cd190 O191 2.317 . S
O191 Cd190 2.317 . S
O191 C192 1.232 . S
C192 O191 1.232 . S
C192 O193 1.218 . S
O193 C192 1.218 . S
C194 O187 1.275 . S
C194 O189 1.255 . S
C195 O196 1.258 . S
C195 O197 1.256 . S
O196 Cd188 2.381 . S
O196 C195 1.258 . S
O197 Cd188 2.378 . S
O197 C195 1.256 . S
O198 Cd199 2.300 . S
O198 C205 1.275 . S
Cd199 O198 2.300 . S
Cd199 O207 2.381 . S
Cd199 O208 2.378 . S
O200 Cd201 2.385 . S
O200 C205 1.255 . S
Cd201 O200 2.385 . S
Cd201 O202 2.317 . S
O202 Cd201 2.317 . S
O202 C203 1.232 . S
C203 O202 1.232 . S
C203 O204 1.218 . S
O204 C203 1.218 . S
C205 O198 1.275 . S
C205 O200 1.255 . S
C206 O207 1.258 . S
C206 O208 1.256 . S
O207 Cd199 2.381 . S
O207 C206 1.258 . S
O208 Cd199 2.378 . S
O208 C206 1.256 . S
O209 Cd210 2.300 . S
O209 C216 1.275 . S
Cd210 O209 2.300 . S
Cd210 O218 2.381 . S
Cd210 O219 2.378 . S
O211 Cd212 2.385 . S
O211 C216 1.255 . S
Cd212 O211 2.385 . S
Cd212 O213 2.317 . S
O213 Cd212 2.317 . S
O213 C214 1.232 . S
C214 O213 1.232 . S
C214 O215 1.218 . S
O215 C214 1.218 . S
C216 O209 1.275 . S
C216 O211 1.255 . S
C217 O218 1.258 . S
C217 O219 1.256 . S
O218 Cd210 2.381 . S
O218 C217 1.258 . S
O219 Cd210 2.378 . S
O219 C217 1.256 . S
O220 Cd221 2.300 . S
O220 C227 1.275 . S
Cd221 O220 2.300 . S
Cd221 O229 2.381 . S
Cd221 O230 2.378 . S
O222 Cd223 2.385 . S
O222 C227 1.255 . S
Cd223 O222 2.385 . S
Cd223 O224 2.317 . S
O224 Cd223 2.317 . S
O224 C225 1.232 . S
C225 O224 1.232 . S
C225 O226 1.218 . S
O226 C225 1.218 . S
C227 O220 1.275 . S
C227 O222 1.255 . S
C228 O229 1.258 . S
C228 O230 1.256 . S
O229 Cd221 2.381 . S
O229 C228 1.258 . S
O230 Cd221 2.378 . S
O230 C228 1.256 . S
O231 Cd232 2.300 . S
O231 C238 1.275 . S
Cd232 O231 2.300 . S
Cd232 O240 2.381 . S
Cd232 O241 2.378 . S
O233 Cd234 2.385 . S
O233 C238 1.255 . S
Cd234 O233 2.385 . S
Cd234 O235 2.317 . S
O235 Cd234 2.317 . S
O235 C236 1.232 . S
C236 O235 1.232 . S
C236 O237 1.218 . S
O237 C236 1.218 . S
C238 O231 1.275 . S
C238 O233 1.255 . S
C239 O240 1.258 . S
C239 O241 1.256 . S
O240 Cd232 2.381 . S
O240 C239 1.258 . S
O241 Cd232 2.378 . S
O241 C239 1.256 . S
O242 Cd243 2.300 . S
O242 C249 1.275 . S
Cd243 O242 2.300 . S
Cd243 O251 2.381 . S
Cd243 O252 2.378 . S
O244 Cd245 2.385 . S
O244 C249 1.255 . S
Cd245 O244 2.385 . S
Cd245 O246 2.317 . S
O246 Cd245 2.317 . S
O246 C247 1.232 . S
C247 O246 1.232 . S
C247 O248 1.218 . S
O248 C247 1.218 . S
C249 O242 1.275 . S
C249 O244 1.255 . S
C250 O251 1.258 . S
C250 O252 1.256 . S
O251 Cd243 2.381 . S
O251 C250 1.258 . S
O252 Cd243 2.378 . S
O252 C250 1.256 . S
O253 Cd254 2.300 . S
O253 C260 1.275 . S
Cd254 O253 2.300 . S
Cd254 O262 2.381 . S
Cd254 O263 2.378 . S
O255 Cd256 2.385 . S
O255 C260 1.255 . S
Cd256 O255 2.385 . S
Cd256 O257 2.317 . S
O257 Cd256 2.317 . S
O257 C258 1.232 . S
C258 O257 1.232 . S
C258 O259 1.218 . S
O259 C258 1.218 . S
C260 O253 1.275 . S
C260 O255 1.255 . S
C261 O262 1.258 . S
C261 O263 1.256 . S
O262 Cd254 2.381 . S
O262 C261 1.258 . S
O263 Cd254 2.378 . S
O263 C261 1.256 . S
O264 Cd265 2.300 . S
O264 C271 1.275 . S
Cd265 O264 2.300 . S
Cd265 O273 2.381 . S
Cd265 O274 2.378 . S
O266 Cd267 2.385 . S
O266 C271 1.255 . S
Cd267 O266 2.385 . S
Cd267 O268 2.317 . S
O268 Cd267 2.317 . S
O268 C269 1.232 . S
C269 O268 1.232 . S
C269 O270 1.218 . S
O270 C269 1.218 . S
C271 O264 1.275 . S
C271 O266 1.255 . S
C272 O273 1.258 . S
C272 O274 1.256 . S
O273 Cd265 2.381 . S
O273 C272 1.258 . S
O274 Cd265 2.378 . S
O274 C272 1.256 . S
O275 Cd276 2.300 . S
O275 C282 1.275 . S
Cd276 O275 2.300 . S
Cd276 O284 2.381 . S
Cd276 O285 2.378 . S
O277 Cd278 2.385 . S
O277 C282 1.255 . S
Cd278 O277 2.385 . S
Cd278 O279 2.317 . S
O279 Cd278 2.317 . S
O279 C280 1.232 . S
C280 O279 1.232 . S
C280 O281 1.218 . S
O281 C280 1.218 . S
C282 O275 1.275 . S
C282 O277 1.255 . S
C283 O284 1.258 . S
C283 O285 1.256 . S
O284 Cd276 2.381 . S
O284 C283 1.258 . S
O285 Cd276 2.378 . S
O285 C283 1.256 . S
O286 Cd287 2.300 . S
O286 C293 1.275 . S
Cd287 O286 2.300 . S
Cd287 O295 2.381 . S
Cd287 O296 2.378 . S
O288 Cd289 2.385 . S
O288 C293 1.255 . S
Cd289 O288 2.385 . S
Cd289 O290 2.317 . S
O290 Cd289 2.317 . S
O290 C291 1.232 . S
C291 O290 1.232 . S
C291 O292 1.218 . S
O292 C291 1.218 . S
C293 O286 1.275 . S
C293 O288 1.255 . S
C294 O295 1.258 . S
C294 O296 1.256 . S
O295 Cd287 2.381 . S
O295 C294 1.258 . S
O296 Cd287 2.378 . S
O296 C294 1.256 . S
O297 Cd298 2.300 . S
O297 C304 1.275 . S
Cd298 O297 2.300 . S
Cd298 O306 2.381 . S
Cd298 O307 2.378 . S
O299 Cd300 2.385 . S
O299 C304 1.255 . S
Cd300 O299 2.385 . S
Cd300 O301 2.317 . S
O301 Cd300 2.317 . S
O301 C302 1.232 . S
C302 O301 1.232 . S
C302 O303 1.218 . S
O303 C302 1.218 . S
C304 O297 1.275 . S
C304 O299 1.255 . S
C305 O306 1.258 . S
C305 O307 1.256 . S
O306 Cd298 2.381 . S
O306 C305 1.258 . S
O307 Cd298 2.378 . S
O307 C305 1.256 . S
O308 Cd309 2.300 . S
O308 C315 1.275 . S
Cd309 O308 2.300 . S
Cd309 O317 2.381 . S
Cd309 O318 2.378 . S
O310 Cd311 2.385 . S
O310 C315 1.255 . S
Cd311 O310 2.385 . S
Cd311 O312 2.317 . S
O312 Cd311 2.317 . S
O312 C313 1.232 . S
C313 O312 1.232 . S
C313 O314 1.218 . S
O314 C313 1.218 . S
C315 O308 1.275 . S
C315 O310 1.255 . S
C316 O317 1.258 . S
C316 O318 1.256 . S
O317 Cd309 2.381 . S
O317 C316 1.258 . S
O318 Cd309 2.378 . S
O318 C316 1.256 . S
O319 Cd320 2.300 . S
O319 C326 1.275 . S
Cd320 O319 2.300 . S
Cd320 O328 2.381 . S
Cd320 O329 2.378 . S
O321 Cd322 2.385 . S
O321 C326 1.255 . S
Cd322 O321 2.385 . S
Cd322 O323 2.317 . S
O323 Cd322 2.317 . S
O323 C324 1.232 . S
C324 O323 1.232 . S
C324 O325 1.218 . S
O325 C324 1.218 . S
C326 O319 1.275 . S
C326 O321 1.255 . S
C327 O328 1.258 . S
C327 O329 1.256 . S
O328 Cd320 2.381 . S
O328 C327 1.258 . S
O329 Cd320 2.378 . S
O329 C327 1.256 . S
O330 Cd331 2.300 . S
O330 C337 1.275 . S
Cd331 O330 2.300 . S
Cd331 O339 2.381 . S
Cd331 O340 2.378 . S
O332 Cd333 2.385 . S
O332 C337 1.255 . S
Cd333 O332 2.385 . S
Cd333 O334 2.317 . S
O334 Cd333 2.317 . S
O334 C335 1.232 . S
C335 O334 1.232 . S
C335 O336 1.218 . S
O336 C335 1.218 . S
C337 O330 1.275 . S
C337 O332 1.255 . S
C338 O339 1.258 . S
C338 O340 1.256 . S
O339 Cd331 2.381 . S
O339 C338 1.258 . S
O340 Cd331 2.378 . S
O340 C338 1.256 . S
O341 Cd342 2.300 . S
O341 C348 1.275 . S
Cd342 O341 2.300 . S
Cd342 O350 2.381 . S
Cd342 O351 2.378 . S
O343 Cd344 2.385 . S
O343 C348 1.255 . S
Cd344 O343 2.385 . S
Cd344 O345 2.317 . S
O345 Cd344 2.317 . S
O345 C346 1.232 . S
C346 O345 1.232 . S
C346 O347 1.218 . S
O347 C346 1.218 . S
C348 O341 1.275 . S
C348 O343 1.255 . S
C349 O350 1.258 . S
C349 O351 1.256 . S
O350 Cd342 2.381 . S
O350 C349 1.258 . S
O351 Cd342 2.378 . S
O351 C349 1.256 . S
H352 C371 0.949 . S
H353 C372 0.950 1_556 S
H354 C374 0.950 . S
H355 C375 0.950 . S
H356 C377 0.950 . S
H357 C380 0.950 . S
H358 C381 0.950 . S
H359 C383 0.967 . S
H360 C384 0.949 . S
H361 C386 0.949 . S
H362 C387 0.950 . S
H363 C389 0.950 . S
H364 C390 0.950 . S
H365 C392 0.950 . S
H366 C395 0.950 . S
H367 C396 0.950 . S
H368 C398 0.951 . S
H369 C399 0.949 . S
C370 C371 1.376 . S
C370 C375 1.386 . S
C370 C376 1.483 . S
C371 H352 0.949 . S
C371 C370 1.376 . S
C371 C372 1.396 . S
C372 H353 0.950 1_554 S
C372 C371 1.396 . S
C372 C373 1.392 1_554 S
C373 C372 1.392 1_556 S
C373 C374 1.405 . S
C374 H354 0.950 . S
C374 C373 1.405 . S
C374 C375 1.367 1_556 S
C375 H355 0.950 . S
C375 C370 1.386 . S
C375 C374 1.367 1_554 S
C376 C370 1.483 . S
C376 C377 1.382 . S
C376 C378 1.403 . S
C377 H356 0.950 . S
C377 C376 1.382 . S
C377 C393 1.411 . S
C378 C376 1.403 . S
C378 C379 1.489 . S
C378 C392 1.411 . S
C379 C378 1.489 . S
C379 C380 1.383 . S
C379 C384 1.382 . S
C380 H357 0.950 . S
C380 C379 1.383 . S
C380 C381 1.395 1_554 S
C381 H358 0.950 . S
C381 C380 1.395 1_556 S
C381 C382 1.288 . S
C382 C381 1.288 . S
C382 C383 1.392 1_556 S
C383 H359 0.967 . S
C383 C382 1.392 1_554 S
C383 C384 1.392 . S
C384 H360 0.949 . S
C384 C379 1.382 . S
C384 C383 1.392 . S
C385 C386 1.376 . S
C385 C390 1.386 . S
C385 C391 1.483 . S
C386 H361 0.949 . S
C386 C385 1.376 . S
C386 C387 1.397 . S
C387 H362 0.950 . S
C387 C386 1.397 . S
C387 C388 1.391 . S
C388 C387 1.391 . S
C388 C389 1.405 . S
C389 H363 0.950 . S
C389 C388 1.405 . S
C389 C390 1.367 . S
C390 H364 0.950 . S
C390 C385 1.386 . S
C390 C389 1.367 . S
C391 C385 1.483 . S
C391 C392 1.382 . S
C391 C393 1.403 . S
C392 H365 0.950 . S
C392 C378 1.411 . S
C392 C391 1.382 . S
C393 C377 1.411 . S
C393 C391 1.403 . S
C393 C394 1.489 . S
C394 C393 1.489 . S
C394 C395 1.383 . S
C394 C399 1.382 . S
C395 H366 0.950 . S
C395 C394 1.383 . S
C395 C396 1.395 . S
C396 H367 0.950 . S
C396 C395 1.395 . S
C396 C397 1.288 . S
C397 C396 1.288 . S
C397 C398 1.392 . S
C398 H368 0.951 . S
C398 C397 1.392 . S
C398 C399 1.392 . S
C399 H369 0.949 . S
C399 C394 1.382 . S
C399 C398 1.392 . S
H400 C419 0.949 . S
H401 C420 0.950 . S
H402 C422 0.950 . S
H403 C423 0.950 . S
H404 C425 0.950 . S
H405 C428 0.950 . S
H406 C429 0.950 . S
H407 C431 0.951 . S
H408 C432 0.949 . S
H409 C434 0.949 . S
H410 C435 0.950 . S
H411 C437 0.950 . S
H412 C438 0.950 . S
H413 C440 0.950 . S
H414 C443 0.950 . S
H415 C444 0.950 . S
H416 C446 0.951 . S
H417 C447 0.949 . S
C418 C419 1.376 . S
C418 C423 1.386 . S
C418 C424 1.483 . S
C419 H400 0.949 . S
C419 C418 1.376 . S
C419 C420 1.397 . S
C420 H401 0.950 . S
C420 C419 1.397 . S
C420 C421 1.391 . S
C421 C420 1.391 . S
C421 C422 1.405 . S
C422 H402 0.950 . S
C422 C421 1.405 . S
C422 C423 1.367 . S
C423 H403 0.950 . S
C423 C418 1.386 . S
C423 C422 1.367 . S
C424 C418 1.483 . S
C424 C425 1.382 . S
C424 C426 1.403 . S
C425 H404 0.950 . S
C425 C424 1.382 . S
C425 C441 1.411 1_556 S
C426 C424 1.403 . S
C426 C427 1.489 . S
C426 C440 1.411 1_556 S
C427 C426 1.489 . S
C427 C428 1.383 . S
C427 C432 1.382 . S
C428 H405 0.950 . S
C428 C427 1.383 . S
C428 C429 1.395 . S
C429 H406 0.950 . S
C429 C428 1.395 . S
C429 C430 1.288 . S
C430 C429 1.288 . S
C430 C431 1.392 . S
C431 H407 0.951 . S
C431 C430 1.392 . S
C431 C432 1.392 . S
C432 H408 0.949 . S
C432 C427 1.382 . S
C432 C431 1.392 . S
C433 C434 1.376 . S
C433 C438 1.386 . S
C433 C439 1.483 . S
C434 H409 0.949 . S
C434 C433 1.376 . S
C434 C435 1.397 . S
C435 H410 0.950 . S
C435 C434 1.397 . S
C435 C436 1.391 . S
C436 C435 1.391 . S
C436 C437 1.405 . S
C437 H411 0.950 . S
C437 C436 1.405 . S
C437 C438 1.367 . S
C438 H412 0.950 . S
C438 C433 1.386 . S
C438 C437 1.367 . S
C439 C433 1.483 . S
C439 C440 1.382 . S
C439 C441 1.403 . S
C440 H413 0.950 . S
C440 C426 1.411 1_554 S
C440 C439 1.382 . S
C441 C425 1.411 1_554 S
C441 C439 1.403 . S
C441 C442 1.489 . S
C442 C441 1.489 . S
C442 C443 1.383 . S
C442 C447 1.382 . S
C443 H414 0.950 . S
C443 C442 1.383 . S
C443 C444 1.395 . S
C444 H415 0.950 . S
C444 C443 1.395 . S
C444 C445 1.288 . S
C445 C444 1.288 . S
C445 C446 1.392 . S
C446 H416 0.951 . S
C446 C445 1.392 . S
C446 C447 1.392 . S
C447 H417 0.949 . S
C447 C442 1.382 . S
C447 C446 1.392 . S
H448 C467 0.949 . S
H449 C468 0.950 . S
H450 C470 0.950 . S
H451 C471 0.950 . S
H452 C473 0.950 . S
H453 C476 0.950 . S
H454 C477 0.950 . S
H455 C479 0.951 . S
H456 C480 0.949 . S
H457 C482 0.949 . S
H458 C483 0.950 . S
H459 C485 0.950 . S
H460 C486 0.950 . S
H461 C488 0.950 . S
H462 C491 0.950 . S
H463 C492 0.950 . S
H464 C494 0.951 . S
H465 C495 0.949 . S
C466 C467 1.376 . S
C466 C471 1.386 . S
C466 C472 1.483 . S
C467 H448 0.949 . S
C467 C466 1.376 . S
C467 C468 1.397 . S
C468 H449 0.950 . S
C468 C467 1.397 . S
C468 C469 1.391 . S
C469 C468 1.391 . S
C469 C470 1.405 . S
C470 H450 0.950 . S
C470 C469 1.405 . S
C470 C471 1.367 . S
C471 H451 0.950 . S
C471 C466 1.386 . S
C471 C470 1.367 . S
C472 C466 1.483 . S
C472 C473 1.382 . S
C472 C474 1.403 . S
C473 H452 0.950 . S
C473 C472 1.382 . S
C473 C489 1.411 . S
C474 C472 1.403 . S
C474 C475 1.489 . S
C474 C488 1.411 . S
C475 C474 1.489 . S
C475 C476 1.383 . S
C475 C480 1.382 . S
C476 H453 0.950 . S
C476 C475 1.383 . S
C476 C477 1.395 . S
C477 H454 0.950 . S
C477 C476 1.395 . S
C477 C478 1.288 . S
C478 C477 1.288 . S
C478 C479 1.392 . S
C479 H455 0.951 . S
C479 C478 1.392 . S
C479 C480 1.392 . S
C480 H456 0.949 . S
C480 C475 1.382 . S
C480 C479 1.392 . S
C481 C482 1.376 . S
C481 C486 1.386 . S
C481 C487 1.483 . S
C482 H457 0.949 . S
C482 C481 1.376 . S
C482 C483 1.397 1_554 S
C483 H458 0.950 . S
C483 C482 1.397 1_556 S
C483 C484 1.391 . S
C484 C483 1.391 . S
C484 C485 1.405 . S
C485 H459 0.950 . S
C485 C484 1.405 . S
C485 C486 1.367 1_556 S
C486 H460 0.950 . S
C486 C481 1.386 . S
C486 C485 1.367 1_554 S
C487 C481 1.483 . S
C487 C488 1.382 . S
C487 C489 1.403 . S
C488 H461 0.950 . S
C488 C474 1.411 . S
C488 C487 1.382 . S
C489 C473 1.411 . S
C489 C487 1.403 . S
C489 C490 1.489 . S
C490 C489 1.489 . S
C490 C491 1.383 . S
C490 C495 1.382 . S
C491 H462 0.950 . S
C491 C490 1.383 . S
C491 C492 1.395 1_554 S
C492 H463 0.950 . S
C492 C491 1.395 1_556 S
C492 C493 1.288 . S
C493 C492 1.288 . S
C493 C494 1.392 1_556 S
C494 H464 0.951 . S
C494 C493 1.392 1_554 S
C494 C495 1.392 . S
C495 H465 0.949 . S
C495 C490 1.382 . S
C495 C494 1.392 . S
H496 C515 0.949 . S
H497 C516 0.950 . S
H498 C518 0.950 . S
H499 C519 0.950 . S
H500 C521 0.950 . S
H501 C524 0.950 . S
H502 C525 0.950 . S
H503 C527 0.951 . S
H504 C528 0.949 . S
H505 C530 0.949 . S
H506 C531 0.950 . S
H507 C533 0.950 . S
H508 C534 0.950 . S
H509 C536 0.950 . S
H510 C539 0.950 . S
H511 C540 0.950 . S
H512 C542 0.951 . S
H513 C543 0.949 . S
C514 C515 1.376 . S
C514 C519 1.386 . S
C514 C520 1.483 . S
C515 H496 0.949 . S
C515 C514 1.376 . S
C515 C516 1.397 . S
C516 H497 0.950 . S
C516 C515 1.397 . S
C516 C517 1.391 . S
C517 C516 1.391 . S
C517 C518 1.405 . S
C518 H498 0.950 . S
C518 C517 1.405 . S
C518 C519 1.367 . S
C519 H499 0.950 . S
C519 C514 1.386 . S
C519 C518 1.367 . S
C520 C514 1.483 . S
C520 C521 1.382 . S
C520 C522 1.403 . S
C521 H500 0.950 . S
C521 C520 1.382 . S
C521 C537 1.411 1_556 S
C522 C520 1.403 . S
C522 C523 1.489 . S
C522 C536 1.411 1_556 S
C523 C522 1.489 . S
C523 C524 1.383 . S
C523 C528 1.382 . S
C524 H501 0.950 . S
C524 C523 1.383 . S
C524 C525 1.395 . S
C525 H502 0.950 . S
C525 C524 1.395 . S
C525 C526 1.288 . S
C526 C525 1.288 . S
C526 C527 1.392 . S
C527 H503 0.951 . S
C527 C526 1.392 . S
C527 C528 1.392 . S
C528 H504 0.949 . S
C528 C523 1.382 . S
C528 C527 1.392 . S
C529 C530 1.376 . S
C529 C534 1.386 . S
C529 C535 1.483 . S
C530 H505 0.949 . S
C530 C529 1.376 . S
C530 C531 1.397 . S
C531 H506 0.950 . S
C531 C530 1.397 . S
C531 C532 1.391 . S
C532 C531 1.391 . S
C532 C533 1.405 . S
C533 H507 0.950 . S
C533 C532 1.405 . S
C533 C534 1.367 . S
C534 H508 0.950 . S
C534 C529 1.386 . S
C534 C533 1.367 . S
C535 C529 1.483 . S
C535 C536 1.382 . S
C535 C537 1.403 . S
C536 H509 0.950 . S
C536 C522 1.411 1_554 S
C536 C535 1.382 . S
C537 C521 1.411 1_554 S
C537 C535 1.403 . S
C537 C538 1.489 . S
C538 C537 1.489 . S
C538 C539 1.383 . S
C538 C543 1.382 . S
C539 H510 0.950 . S
C539 C538 1.383 . S
C539 C540 1.395 . S
C540 H511 0.950 . S
C540 C539 1.395 . S
C540 C541 1.288 . S
C541 C540 1.288 . S
C541 C542 1.392 . S
C542 H512 0.951 . S
C542 C541 1.392 . S
C542 C543 1.392 . S
C543 H513 0.949 . S
C543 C538 1.382 . S
C543 C542 1.392 . S
H544 C563 0.949 . S
H545 C564 0.950 . S
H546 C566 0.950 . S
H547 C567 0.950 . S
H548 C569 0.950 . S
H549 C572 0.950 . S
H550 C573 0.950 . S
H551 C575 0.951 . S
H552 C576 0.949 . S
H553 C578 0.949 . S
H554 C579 0.950 . S
H555 C581 0.950 . S
H556 C582 0.950 . S
H557 C584 0.950 . S
H558 C587 0.950 . S
H559 C588 0.950 . S
H560 C590 0.951 . S
H561 C591 0.949 . S
C562 C563 1.376 . S
C562 C567 1.386 . S
C562 C568 1.483 . S
C563 H544 0.949 . S
C563 C562 1.376 . S
C563 C564 1.397 . S
C564 H545 0.950 . S
C564 C563 1.397 . S
C564 C565 1.391 . S
C565 C564 1.391 . S
C565 C566 1.405 . S
C566 H546 0.950 . S
C566 C565 1.405 . S
C566 C567 1.367 . S
C567 H547 0.950 . S
C567 C562 1.386 . S
C567 C566 1.367 . S
C568 C562 1.483 . S
C568 C569 1.382 . S
C568 C570 1.403 . S
C569 H548 0.950 . S
C569 C568 1.382 . S
C569 C585 1.411 1_455 S
C570 C568 1.403 . S
C570 C571 1.489 . S
C570 C584 1.411 . S
C571 C570 1.489 . S
C571 C572 1.383 . S
C571 C576 1.382 . S
C572 H549 0.950 . S
C572 C571 1.383 . S
C572 C573 1.395 . S
C573 H550 0.950 . S
C573 C572 1.395 . S
C573 C574 1.288 . S
C574 C573 1.288 . S
C574 C575 1.392 . S
C575 H551 0.951 . S
C575 C574 1.392 . S
C575 C576 1.392 . S
C576 H552 0.949 . S
C576 C571 1.382 . S
C576 C575 1.392 . S
C577 C578 1.376 . S
C577 C582 1.386 . S
C577 C583 1.483 . S
C578 H553 0.949 . S
C578 C577 1.376 . S
C578 C579 1.397 . S
C579 H554 0.950 . S
C579 C578 1.397 . S
C579 C580 1.391 . S
C580 C579 1.391 . S
C580 C581 1.405 . S
C581 H555 0.950 . S
C581 C580 1.405 . S
C581 C582 1.367 . S
C582 H556 0.950 . S
C582 C577 1.386 . S
C582 C581 1.367 . S
C583 C577 1.483 . S
C583 C584 1.382 1_655 S
C583 C585 1.403 . S
C584 H557 0.950 . S
C584 C570 1.411 . S
C584 C583 1.382 1_455 S
C585 C569 1.411 1_655 S
C585 C583 1.403 . S
C585 C586 1.489 . S
C586 C585 1.489 . S
C586 C587 1.383 . S
C586 C591 1.382 . S
C587 H558 0.950 . S
C587 C586 1.383 . S
C587 C588 1.395 . S
C588 H559 0.950 . S
C588 C587 1.395 . S
C588 C589 1.288 . S
C589 C588 1.288 . S
C589 C590 1.392 . S
C590 H560 0.951 . S
C590 C589 1.392 . S
C590 C591 1.392 . S
C591 H561 0.949 . S
C591 C586 1.382 . S
C591 C590 1.392 . S
H592 C611 0.949 . S
H593 C612 0.950 . S
H594 C614 0.950 . S
H595 C615 0.950 . S
H596 C617 0.950 . S
H597 C620 0.950 . S
H598 C621 0.950 . S
H599 C623 0.951 . S
H600 C624 0.949 . S
H601 C626 0.949 . S
H602 C627 0.950 . S
H603 C629 0.950 . S
H604 C630 0.950 . S
H605 C632 0.950 . S
H606 C635 0.950 . S
H607 C636 0.950 . S
H608 C638 0.951 . S
H609 C639 0.949 . S
C610 C611 1.376 . S
C610 C615 1.386 . S
C610 C616 1.483 . S
C611 H592 0.949 . S
C611 C610 1.376 . S
C611 C612 1.397 . S
C612 H593 0.950 . S
C612 C611 1.397 . S
C612 C613 1.391 . S
C613 C612 1.391 . S
C613 C614 1.405 . S
C614 H594 0.950 . S
C614 C613 1.405 . S
C614 C615 1.367 . S
C615 H595 0.950 . S
C615 C610 1.386 . S
C615 C614 1.367 . S
C616 C610 1.483 . S
C616 C617 1.382 . S
C616 C618 1.403 . S
C617 H596 0.950 . S
C617 C616 1.382 . S
C617 C633 1.411 1_545 S
C618 C616 1.403 . S
C618 C619 1.489 . S
C618 C632 1.411 . S
C619 C618 1.489 . S
C619 C620 1.383 . S
C619 C624 1.382 . S
C620 H597 0.950 . S
C620 C619 1.383 . S
C620 C621 1.395 . S
C621 H598 0.950 . S
C621 C620 1.395 . S
C621 C622 1.288 . S
C622 C621 1.288 . S
C622 C623 1.392 . S
C623 H599 0.951 . S
C623 C622 1.392 . S
C623 C624 1.392 . S
C624 H600 0.949 . S
C624 C619 1.382 . S
C624 C623 1.392 . S
C625 C626 1.376 . S
C625 C630 1.386 . S
C625 C631 1.483 . S
C626 H601 0.949 . S
C626 C625 1.376 . S
C626 C627 1.397 . S
C627 H602 0.950 . S
C627 C626 1.397 . S
C627 C628 1.391 . S
C628 C627 1.391 . S
C628 C629 1.405 . S
C629 H603 0.950 . S
C629 C628 1.405 . S
C629 C630 1.367 . S
C630 H604 0.950 . S
C630 C625 1.386 . S
C630 C629 1.367 . S
C631 C625 1.483 . S
C631 C632 1.382 1_565 S
C631 C633 1.403 . S
C632 H605 0.950 . S
C632 C618 1.411 . S
C632 C631 1.382 1_545 S
C633 C617 1.411 1_565 S
C633 C631 1.403 . S
C633 C634 1.489 . S
C634 C633 1.489 . S
C634 C635 1.383 . S
C634 C639 1.382 . S
C635 H606 0.950 . S
C635 C634 1.383 . S
C635 C636 1.395 . S
C636 H607 0.950 . S
C636 C635 1.395 . S
C636 C637 1.288 . S
C637 C636 1.288 . S
C637 C638 1.392 . S
C638 H608 0.951 . S
C638 C637 1.392 . S
C638 C639 1.392 . S
C639 H609 0.949 . S
C639 C634 1.382 . S
C639 C638 1.392 . S
H640 C659 0.949 . S
H641 C660 0.950 . S
H642 C662 0.950 . S
H643 C663 0.950 . S
H644 C665 0.950 . S
H645 C668 0.950 . S
H646 C669 0.950 . S
H647 C671 0.951 . S
H648 C672 0.949 . S
H649 C674 0.949 . S
H650 C675 0.950 . S
H651 C677 0.950 . S
H652 C678 0.950 . S
H653 C680 0.950 . S
H654 C683 0.950 . S
H655 C684 0.950 . S
H656 C686 0.951 . S
H657 C687 0.949 . S
C658 C659 1.376 . S
C658 C663 1.386 . S
C658 C664 1.483 . S
C659 H640 0.949 . S
C659 C658 1.376 . S
C659 C660 1.397 . S
C660 H641 0.950 . S
C660 C659 1.397 . S
C660 C661 1.391 . S
C661 C660 1.391 . S
C661 C662 1.405 . S
C662 H642 0.950 . S
C662 C661 1.405 . S
C662 C663 1.367 . S
C663 H643 0.950 . S
C663 C658 1.386 . S
C663 C662 1.367 . S
C664 C658 1.483 . S
C664 C665 1.382 . S
C664 C666 1.403 . S
C665 H644 0.950 . S
C665 C664 1.382 . S
C665 C681 1.411 . S
C666 C664 1.403 . S
C666 C667 1.489 . S
C666 C680 1.411 . S
C667 C666 1.489 . S
C667 C668 1.383 . S
C667 C672 1.382 . S
C668 H645 0.950 . S
C668 C667 1.383 . S
C668 C669 1.395 . S
C669 H646 0.950 . S
C669 C668 1.395 . S
C669 C670 1.288 . S
C670 C669 1.288 . S
C670 C671 1.392 . S
C671 H647 0.951 . S
C671 C670 1.392 . S
C671 C672 1.392 . S
C672 H648 0.949 . S
C672 C667 1.382 . S
C672 C671 1.392 . S
C673 C674 1.376 . S
C673 C678 1.386 . S
C673 C679 1.483 . S
C674 H649 0.949 . S
C674 C673 1.376 . S
C674 C675 1.397 . S
C675 H650 0.950 . S
C675 C674 1.397 . S
C675 C676 1.391 . S
C676 C675 1.391 . S
C676 C677 1.405 . S
C677 H651 0.950 . S
C677 C676 1.405 . S
C677 C678 1.367 . S
C678 H652 0.950 . S
C678 C673 1.386 . S
C678 C677 1.367 . S
C679 C673 1.483 . S
C679 C680 1.382 . S
C679 C681 1.403 . S
C680 H653 0.950 . S
C680 C666 1.411 . S
C680 C679 1.382 . S
C681 C665 1.411 . S
C681 C679 1.403 . S
C681 C682 1.489 . S
C682 C681 1.489 . S
C682 C683 1.383 . S
C682 C687 1.382 . S
C683 H654 0.950 . S
C683 C682 1.383 . S
C683 C684 1.395 . S
C684 H655 0.950 . S
C684 C683 1.395 . S
C684 C685 1.288 . S
C685 C684 1.288 . S
C685 C686 1.392 . S
C686 H656 0.951 . S
C686 C685 1.392 . S
C686 C687 1.392 . S
C687 H657 0.949 . S
C687 C682 1.382 . S
C687 C686 1.392 . S
H688 C707 0.949 . S
H689 C708 0.950 . S
H690 C710 0.950 . S
H691 C711 0.950 . S
H692 C713 0.950 . S
H693 C716 0.950 . S
H694 C717 0.950 . S
H695 C719 0.951 . S
H696 C720 0.949 . S
H697 C722 0.907 1_545 S
H698 C723 0.950 . S
H699 C725 0.950 . S
H700 C726 0.950 . S
H701 C728 0.950 . S
H702 C731 0.950 . S
H703 C732 0.950 . S
H704 C734 0.951 . S
H705 C735 0.949 . S
C706 C707 1.376 . S
C706 C711 1.386 . S
C706 C712 1.483 . S
C707 H688 0.949 . S
C707 C706 1.376 . S
C707 C708 1.397 . S
C708 H689 0.950 . S
C708 C707 1.397 . S
C708 C709 1.391 . S
C709 C708 1.391 . S
C709 C710 1.405 . S
C710 H690 0.950 . S
C710 C709 1.405 . S
C710 C711 1.367 . S
C711 H691 0.950 . S
C711 C706 1.386 . S
C711 C710 1.367 . S
C712 C706 1.483 . S
C712 C713 1.382 . S
C712 C714 1.403 . S
C713 H692 0.950 . S
C713 C712 1.382 . S
C713 C729 1.411 . S
C714 C712 1.403 . S
C714 C715 1.489 . S
C714 C728 1.411 . S
C715 C714 1.489 . S
C715 C716 1.383 . S
C715 C720 1.382 . S
C716 H693 0.950 . S
C716 C715 1.383 . S
C716 C717 1.395 . S
C717 H694 0.950 . S
C717 C716 1.395 . S
C717 C718 1.288 . S
C718 C717 1.288 . S
C718 C719 1.392 . S
C719 H695 0.951 . S
C719 C718 1.392 . S
C719 C720 1.392 . S
C720 H696 0.949 . S
C720 C715 1.382 . S
C720 C719 1.392 . S
C721 C722 1.366 . S
C721 C726 1.391 . S
C721 C727 1.477 1_565 S
C722 H697 0.907 1_565 S
C722 C721 1.366 . S
C722 C723 1.452 . S
C723 H698 0.950 . S
C723 C722 1.452 . S
C723 C724 1.391 . S
C724 C723 1.391 . S
C724 C725 1.405 . S
C725 H699 0.950 . S
C725 C724 1.405 . S
C725 C726 1.367 . S
C726 H700 0.950 . S
C726 C721 1.391 . S
C726 C725 1.367 . S
C727 C721 1.477 1_545 S
C727 C728 1.382 . S
C727 C729 1.403 . S
C728 H701 0.950 . S
C728 C714 1.411 . S
C728 C727 1.382 . S
C729 C713 1.411 . S
C729 C727 1.403 . S
C729 C730 1.489 1_545 S
C730 C729 1.489 1_565 S
C730 C731 1.383 . S
C730 C735 1.382 . S
C731 H702 0.950 . S
C731 C730 1.383 . S
C731 C732 1.395 . S
C732 H703 0.950 . S
C732 C731 1.395 . S
C732 C733 1.288 . S
C733 C732 1.288 . S
C733 C734 1.392 . S
C734 H704 0.951 . S
C734 C733 1.392 . S
C734 C735 1.392 . S
C735 H705 0.949 . S
C735 C730 1.382 . S
C735 C734 1.392 . S
H736 C755 0.949 . S
H737 C756 0.950 . S
H738 C758 0.950 . S
H739 C759 0.950 . S
H740 C761 0.950 . S
H741 C764 0.950 . S
H742 C765 0.950 . S
H743 C767 0.951 . S
H744 C768 0.949 . S
H745 C770 0.949 . S
H746 C771 0.950 . S
H747 C773 0.950 . S
H748 C774 0.950 . S
H749 C776 0.950 . S
H750 C779 0.950 . S
H751 C780 0.950 . S
H752 C782 0.951 . S
H753 C783 0.949 . S
C754 C755 1.376 . S
C754 C759 1.386 . S
C754 C760 1.483 . S
C755 H736 0.949 . S
C755 C754 1.376 . S
C755 C756 1.397 . S
C756 H737 0.950 . S
C756 C755 1.397 . S
C756 C757 1.391 . S
C757 C756 1.391 . S
C757 C758 1.405 . S
C758 H738 0.950 . S
C758 C757 1.405 . S
C758 C759 1.367 . S
C759 H739 0.950 . S
C759 C754 1.386 . S
C759 C758 1.367 . S
C760 C754 1.483 . S
C760 C761 1.382 . S
C760 C762 1.403 . S
C761 H740 0.950 . S
C761 C760 1.382 . S
C761 C777 1.411 1_455 S
C762 C760 1.403 . S
C762 C763 1.489 . S
C762 C776 1.411 . S
C763 C762 1.489 . S
C763 C764 1.383 . S
C763 C768 1.382 . S
C764 H741 0.950 . S
C764 C763 1.383 . S
C764 C765 1.395 . S
C765 H742 0.950 . S
C765 C764 1.395 . S
C765 C766 1.288 . S
C766 C765 1.288 . S
C766 C767 1.392 . S
C767 H743 0.951 . S
C767 C766 1.392 . S
C767 C768 1.392 . S
C768 H744 0.949 . S
C768 C763 1.382 . S
C768 C767 1.392 . S
C769 C770 1.376 . S
C769 C774 1.386 . S
C769 C775 1.483 . S
C770 H745 0.949 . S
C770 C769 1.376 . S
C770 C771 1.397 . S
C771 H746 0.950 . S
C771 C770 1.397 . S
C771 C772 1.391 . S
C772 C771 1.391 . S
C772 C773 1.405 . S
C773 H747 0.950 . S
C773 C772 1.405 . S
C773 C774 1.367 . S
C774 H748 0.950 . S
C774 C769 1.386 . S
C774 C773 1.367 . S
C775 C769 1.483 . S
C775 C776 1.382 1_655 S
C775 C777 1.403 . S
C776 H749 0.950 . S
C776 C762 1.411 . S
C776 C775 1.382 1_455 S
C777 C761 1.411 1_655 S
C777 C775 1.403 . S
C777 C778 1.489 . S
C778 C777 1.489 . S
C778 C779 1.383 . S
C778 C783 1.382 . S
C779 H750 0.950 . S
C779 C778 1.383 . S
C779 C780 1.395 . S
C780 H751 0.950 . S
C780 C779 1.395 . S
C780 C781 1.288 . S
C781 C780 1.288 . S
C781 C782 1.392 . S
C782 H752 0.951 . S
C782 C781 1.392 . S
C782 C783 1.392 . S
C783 H753 0.949 . S
C783 C778 1.382 . S
C783 C782 1.392 . S
H784 C803 0.949 . S
H785 C804 0.950 . S
H786 C806 0.950 . S
H787 C807 0.950 . S
H788 C809 0.950 . S
H789 C812 0.950 . S
H790 C813 0.950 . S
H791 C815 0.951 . S
H792 C816 0.949 . S
H793 C818 0.949 . S
H794 C819 0.950 . S
H795 C821 0.950 . S
H796 C822 0.950 . S
H797 C824 0.950 . S
H798 C827 0.950 . S
H799 C828 0.950 . S
H800 C830 0.951 . S
H801 C831 0.949 . S
C802 C803 1.376 . S
C802 C807 1.386 . S
C802 C808 1.483 . S
C803 H784 0.949 . S
C803 C802 1.376 . S
C803 C804 1.397 . S
C804 H785 0.950 . S
C804 C803 1.397 . S
C804 C805 1.391 . S
C805 C804 1.391 . S
C805 C806 1.405 . S
C806 H786 0.950 . S
C806 C805 1.405 . S
C806 C807 1.367 . S
C807 H787 0.950 . S
C807 C802 1.386 . S
C807 C806 1.367 . S
C808 C802 1.483 . S
C808 C809 1.382 . S
C808 C810 1.403 . S
C809 H788 0.950 . S
C809 C808 1.382 . S
C809 C825 1.411 1_545 S
C810 C808 1.403 . S
C810 C811 1.489 . S
C810 C824 1.411 . S
C811 C810 1.489 . S
C811 C812 1.383 . S
C811 C816 1.382 . S
C812 H789 0.950 . S
C812 C811 1.383 . S
C812 C813 1.395 . S
C813 H790 0.950 . S
C813 C812 1.395 . S
C813 C814 1.288 . S
C814 C813 1.288 . S
C814 C815 1.392 . S
C815 H791 0.951 . S
C815 C814 1.392 . S
C815 C816 1.392 . S
C816 H792 0.949 . S
C816 C811 1.382 . S
C816 C815 1.392 . S
C817 C818 1.376 . S
C817 C822 1.386 . S
C817 C823 1.483 . S
C818 H793 0.949 . S
C818 C817 1.376 . S
C818 C819 1.397 . S
C819 H794 0.950 . S
C819 C818 1.397 . S
C819 C820 1.391 . S
C820 C819 1.391 . S
C820 C821 1.405 . S
C821 H795 0.950 . S
C821 C820 1.405 . S
C821 C822 1.367 . S
C822 H796 0.950 . S
C822 C817 1.386 . S
C822 C821 1.367 . S
C823 C817 1.483 . S
C823 C824 1.382 1_565 S
C823 C825 1.403 . S
C824 H797 0.950 . S
C824 C810 1.411 . S
C824 C823 1.382 1_545 S
C825 C809 1.411 1_565 S
C825 C823 1.403 . S
C825 C826 1.489 . S
C826 C825 1.489 . S
C826 C827 1.383 . S
C826 C831 1.382 . S
C827 H798 0.950 . S
C827 C826 1.383 . S
C827 C828 1.395 . S
C828 H799 0.950 . S
C828 C827 1.395 . S
C828 C829 1.288 . S
C829 C828 1.288 . S
C829 C830 1.392 . S
C830 H800 0.951 . S
C830 C829 1.392 . S
C830 C831 1.392 . S
C831 H801 0.949 . S
C831 C826 1.382 . S
C831 C830 1.392 . S
H832 C851 0.949 . S
H833 C852 0.950 . S
H834 C854 0.950 . S
H835 C855 0.950 . S
H836 C857 0.950 . S
H837 C860 0.950 . S
H838 C861 0.950 . S
H839 C863 0.951 . S
H840 C864 0.949 . S
H841 C866 0.949 . S
H842 C867 0.950 . S
H843 C869 0.950 . S
H844 C870 0.950 . S
H845 C872 0.950 . S
H846 C875 0.950 . S
H847 C876 0.950 . S
H848 C878 0.951 . S
H849 C879 0.949 . S
C850 C851 1.376 . S
C850 C855 1.386 . S
C850 C856 1.483 . S
C851 H832 0.949 . S
C851 C850 1.376 . S
C851 C852 1.397 . S
C852 H833 0.950 . S
C852 C851 1.397 . S
C852 C853 1.391 . S
C853 C852 1.391 . S
C853 C854 1.405 . S
C854 H834 0.950 . S
C854 C853 1.405 . S
C854 C855 1.367 . S
C855 H835 0.950 . S
C855 C850 1.386 . S
C855 C854 1.367 . S
C856 C850 1.483 . S
C856 C857 1.382 . S
C856 C858 1.403 . S
C857 H836 0.950 . S
C857 C856 1.382 . S
C857 C873 1.411 . S
C858 C856 1.403 . S
C858 C859 1.489 . S
C858 C872 1.411 . S
C859 C858 1.489 . S
C859 C860 1.383 . S
C859 C864 1.382 . S
C860 H837 0.950 . S
C860 C859 1.383 . S
C860 C861 1.395 . S
C861 H838 0.950 . S
C861 C860 1.395 . S
C861 C862 1.288 . S
C862 C861 1.288 . S
C862 C863 1.392 . S
C863 H839 0.951 . S
C863 C862 1.392 . S
C863 C864 1.392 . S
C864 H840 0.949 . S
C864 C859 1.382 . S
C864 C863 1.392 . S
C865 C866 1.376 . S
C865 C870 1.386 . S
C865 C871 1.483 . S
C866 H841 0.949 . S
C866 C865 1.376 . S
C866 C867 1.397 . S
C867 H842 0.950 . S
C867 C866 1.397 . S
C867 C868 1.391 . S
C868 C867 1.391 . S
C868 C869 1.405 . S
C869 H843 0.950 . S
C869 C868 1.405 . S
C869 C870 1.367 . S
C870 H844 0.950 . S
C870 C865 1.386 . S
C870 C869 1.367 . S
C871 C865 1.483 . S
C871 C872 1.382 . S
C871 C873 1.403 . S
C872 H845 0.950 . S
C872 C858 1.411 . S
C872 C871 1.382 . S
C873 C857 1.411 . S
C873 C871 1.403 . S
C873 C874 1.489 . S
C874 C873 1.489 . S
C874 C875 1.383 . S
C874 C879 1.382 . S
C875 H846 0.950 . S
C875 C874 1.383 . S
C875 C876 1.395 . S
C876 H847 0.950 . S
C876 C875 1.395 . S
C876 C877 1.288 . S
C877 C876 1.288 . S
C877 C878 1.392 . S
C878 H848 0.951 . S
C878 C877 1.392 . S
C878 C879 1.392 . S
C879 H849 0.949 . S
C879 C874 1.382 . S
C879 C878 1.392 . S
H880 C899 0.949 . S
H881 C900 0.950 . S
H882 C902 0.950 . S
H883 C903 0.950 . S
H884 C905 0.950 . S
H885 C908 0.950 . S
H886 C909 0.950 . S
H887 C911 0.951 . S
H888 C912 0.949 . S
H889 C914 0.911 1_545 S
H890 C915 0.950 . S
H891 C917 0.950 . S
H892 C918 0.950 . S
H893 C920 0.950 . S
H894 C923 0.950 . S
H895 C924 0.950 . S
H896 C926 0.951 . S
H897 C927 0.949 . S
C898 C899 1.376 . S
C898 C903 1.386 . S
C898 C904 1.483 . S
C899 H880 0.949 . S
C899 C898 1.376 . S
C899 C900 1.397 . S
C900 H881 0.950 . S
C900 C899 1.397 . S
C900 C901 1.391 . S
C901 C900 1.391 . S
C901 C902 1.405 . S
C902 H882 0.950 . S
C902 C901 1.405 . S
C902 C903 1.367 . S
C903 H883 0.950 . S
C903 C898 1.386 . S
C903 C902 1.367 . S
C904 C898 1.483 . S
C904 C905 1.382 . S
C904 C906 1.403 . S
C905 H884 0.950 . S
C905 C904 1.382 . S
C905 C921 1.411 . S
C906 C904 1.403 . S
C906 C907 1.489 . S
C906 C920 1.411 . S
C907 C906 1.489 . S
C907 C908 1.383 . S
C907 C912 1.382 . S
C908 H885 0.950 . S
C908 C907 1.383 . S
C908 C909 1.395 . S
C909 H886 0.950 . S
C909 C908 1.395 . S
C909 C910 1.288 . S
C910 C909 1.288 . S
C910 C911 1.392 . S
C911 H887 0.951 . S
C911 C910 1.392 . S
C911 C912 1.392 . S
C912 H888 0.949 . S
C912 C907 1.382 . S
C912 C911 1.392 . S
C913 C914 1.366 . S
C913 C918 1.387 . S
C913 C919 1.482 1_565 S
C914 H889 0.911 1_565 S
C914 C913 1.366 . S
C914 C915 1.447 . S
C915 H890 0.950 . S
C915 C914 1.447 . S
C915 C916 1.391 . S
C916 C915 1.391 . S
C916 C917 1.405 . S
C917 H891 0.950 . S
C917 C916 1.405 . S
C917 C918 1.367 . S
C918 H892 0.950 . S
C918 C913 1.387 . S
C918 C917 1.367 . S
C919 C913 1.482 1_545 S
C919 C920 1.382 . S
C919 C921 1.403 . S
C920 H893 0.950 . S
C920 C906 1.411 . S
C920 C919 1.382 . S
C921 C905 1.411 . S
C921 C919 1.403 . S
C921 C922 1.489 1_545 S
C922 C921 1.489 1_565 S
C922 C923 1.383 . S
C922 C927 1.382 . S
C923 H894 0.950 . S
C923 C922 1.383 . S
C923 C924 1.395 . S
C924 H895 0.950 . S
C924 C923 1.395 . S
C924 C925 1.288 . S
C925 C924 1.288 . S
C925 C926 1.392 . S
C926 H896 0.951 . S
C926 C925 1.392 . S
C926 C927 1.392 . S
C927 H897 0.949 . S
C927 C922 1.382 . S
C927 C926 1.392 . S
H928 C947 0.949 . S
H929 C948 0.950 . S
H930 C950 0.950 . S
H931 C951 0.950 . S
H932 C953 0.950 . S
H933 C956 0.950 . S
H934 C957 0.950 . S
H935 C959 0.951 . S
H936 C960 0.949 . S
H937 C962 0.949 . S
H938 C963 0.950 . S
H939 C965 0.950 . S
H940 C966 0.950 . S
H941 C968 0.950 . S
H942 C971 0.950 . S
H943 C972 0.950 . S
H944 C974 0.951 . S
H945 C975 0.949 . S
C946 C947 1.376 . S
C946 C951 1.386 . S
C946 C952 1.483 . S
C947 H928 0.949 . S
C947 C946 1.376 . S
C947 C948 1.397 . S
C948 H929 0.950 . S
C948 C947 1.397 . S
C948 C949 1.391 . S
C949 C948 1.391 . S
C949 C950 1.405 . S
C950 H930 0.950 . S
C950 C949 1.405 . S
C950 C951 1.367 . S
C951 H931 0.950 . S
C951 C946 1.386 . S
C951 C950 1.367 . S
C952 C946 1.483 . S
C952 C953 1.382 . S
C952 C954 1.403 . S
C953 H932 0.950 . S
C953 C952 1.382 . S
C953 C969 1.411 . S
C954 C952 1.403 . S
C954 C955 1.489 . S
C954 C968 1.411 . S
C955 C954 1.489 . S
C955 C956 1.383 . S
C955 C960 1.382 . S
C956 H933 0.950 . S
C956 C955 1.383 . S
C956 C957 1.395 . S
C957 H934 0.950 . S
C957 C956 1.395 . S
C957 C958 1.288 . S
C958 C957 1.288 . S
C958 C959 1.392 . S
C959 H935 0.951 . S
C959 C958 1.392 . S
C959 C960 1.392 . S
C960 H936 0.949 . S
C960 C955 1.382 . S
C960 C959 1.392 . S
C961 C962 1.376 . S
C961 C966 1.386 . S
C961 C967 1.483 . S
C962 H937 0.949 . S
C962 C961 1.376 . S
C962 C963 1.397 . S
C963 H938 0.950 . S
C963 C962 1.397 . S
C963 C964 1.391 . S
C964 C963 1.391 . S
C964 C965 1.405 . S
C965 H939 0.950 . S
C965 C964 1.405 . S
C965 C966 1.367 . S
C966 H940 0.950 . S
C966 C961 1.386 . S
C966 C965 1.367 . S
C967 C961 1.483 . S
C967 C968 1.382 . S
C967 C969 1.403 . S
C968 H941 0.950 . S
C968 C954 1.411 . S
C968 C967 1.382 . S
C969 C953 1.411 . S
C969 C967 1.403 . S
C969 C970 1.489 . S
C970 C969 1.489 . S
C970 C971 1.383 . S
C970 C975 1.382 . S
C971 H942 0.950 . S
C971 C970 1.383 . S
C971 C972 1.395 . S
C972 H943 0.950 . S
C972 C971 1.395 . S
C972 C973 1.288 . S
C973 C972 1.288 . S
C973 C974 1.392 . S
C974 H944 0.951 . S
C974 C973 1.392 . S
C974 C975 1.392 . S
C975 H945 0.949 . S
C975 C970 1.382 . S
C975 C974 1.392 . S
H976 C995 0.949 . S
H977 C996 0.950 . S
H978 C998 0.950 . S
H979 C999 0.950 . S
H980 C1001 0.950 . S
H981 C1004 0.950 . S
H982 C1005 0.950 . S
H983 C1007 0.951 . S
H984 C1008 0.949 . S
H985 C1010 0.949 . S
H986 C1011 0.950 . S
H987 C1013 0.950 . S
H988 C1014 0.950 . S
H989 C1016 0.950 . S
H990 C1019 0.950 . S
H991 C1020 0.950 . S
H992 C1022 0.951 . S
H993 C1023 0.949 . S
C994 C995 1.376 . S
C994 C999 1.386 . S
C994 C1000 1.483 . S
C995 H976 0.949 . S
C995 C994 1.376 . S
C995 C996 1.397 . S
C996 H977 0.950 . S
C996 C995 1.397 . S
C996 C997 1.391 . S
C997 C996 1.391 . S
C997 C998 1.405 . S
C998 H978 0.950 . S
C998 C997 1.405 . S
C998 C999 1.367 . S
C999 H979 0.950 . S
C999 C994 1.386 . S
C999 C998 1.367 . S
C1000 C994 1.483 . S
C1000 C1001 1.382 . S
C1000 C1002 1.403 . S
C1001 H980 0.950 . S
C1001 C1000 1.382 . S
C1001 C1017 1.411 . S
C1002 C1000 1.403 . S
C1002 C1003 1.489 . S
C1002 C1016 1.411 . S
C1003 C1002 1.489 . S
C1003 C1004 1.383 . S
C1003 C1008 1.382 . S
C1004 H981 0.950 . S
C1004 C1003 1.383 . S
C1004 C1005 1.395 . S
C1005 H982 0.950 . S
C1005 C1004 1.395 . S
C1005 C1006 1.288 . S
C1006 C1005 1.288 . S
C1006 C1007 1.392 . S
C1007 H983 0.951 . S
C1007 C1006 1.392 . S
C1007 C1008 1.392 . S
C1008 H984 0.949 . S
C1008 C1003 1.382 . S
C1008 C1007 1.392 . S
C1009 C1010 1.376 . S
C1009 C1014 1.386 . S
C1009 C1015 1.483 . S
C1010 H985 0.949 . S
C1010 C1009 1.376 . S
C1010 C1011 1.397 . S
C1011 H986 0.950 . S
C1011 C1010 1.397 . S
C1011 C1012 1.391 . S
C1012 C1011 1.391 . S
C1012 C1013 1.405 . S
C1013 H987 0.950 . S
C1013 C1012 1.405 . S
C1013 C1014 1.367 . S
C1014 H988 0.950 . S
C1014 C1009 1.386 . S
C1014 C1013 1.367 . S
C1015 C1009 1.483 . S
C1015 C1016 1.382 . S
C1015 C1017 1.403 . S
C1016 H989 0.950 . S
C1016 C1002 1.411 . S
C1016 C1015 1.382 . S
C1017 C1001 1.411 . S
C1017 C1015 1.403 . S
C1017 C1018 1.489 . S
C1018 C1017 1.489 . S
C1018 C1019 1.383 . S
C1018 C1023 1.382 . S
C1019 H990 0.950 . S
C1019 C1018 1.383 . S
C1019 C1020 1.395 . S
C1020 H991 0.950 . S
C1020 C1019 1.395 . S
C1020 C1021 1.288 . S
C1021 C1020 1.288 . S
C1021 C1022 1.392 . S
C1022 H992 0.951 . S
C1022 C1021 1.392 . S
C1022 C1023 1.392 . S
C1023 H993 0.949 . S
C1023 C1018 1.382 . S
C1023 C1022 1.392 . S
H1024 C1043 0.949 . S
H1025 C1044 0.950 . S
H1026 C1046 0.950 . S
H1027 C1047 0.950 . S
H1028 C1049 0.950 . S
H1029 C1052 0.950 . S
H1030 C1053 0.950 . S
H1031 C1055 0.951 . S
H1032 C1056 0.949 . S
H1033 C1058 0.949 . S
H1034 C1059 0.950 . S
H1035 C1061 0.950 . S
H1036 C1062 0.950 . S
H1037 C1064 0.950 . S
H1038 C1067 0.950 . S
H1039 C1068 0.950 . S
H1040 C1070 0.951 . S
H1041 C1071 0.949 . S
C1042 C1043 1.376 . S
C1042 C1047 1.386 . S
C1042 C1048 1.483 . S
C1043 H1024 0.949 . S
C1043 C1042 1.376 . S
C1043 C1044 1.397 . S
C1044 H1025 0.950 . S
C1044 C1043 1.397 . S
C1044 C1045 1.391 . S
C1045 C1044 1.391 . S
C1045 C1046 1.405 . S
C1046 H1026 0.950 . S
C1046 C1045 1.405 . S
C1046 C1047 1.367 . S
C1047 H1027 0.950 . S
C1047 C1042 1.386 . S
C1047 C1046 1.367 . S
C1048 C1042 1.483 . S
C1048 C1049 1.382 . S
C1048 C1050 1.403 . S
C1049 H1028 0.950 . S
C1049 C1048 1.382 . S
C1049 C1065 1.411 . S
C1050 C1048 1.403 . S
C1050 C1051 1.489 . S
C1050 C1064 1.411 . S
C1051 C1050 1.489 . S
C1051 C1052 1.383 . S
C1051 C1056 1.382 . S
C1052 H1029 0.950 . S
C1052 C1051 1.383 . S
C1052 C1053 1.395 . S
C1053 H1030 0.950 . S
C1053 C1052 1.395 . S
C1053 C1054 1.288 . S
C1054 C1053 1.288 . S
C1054 C1055 1.392 . S
C1055 H1031 0.951 . S
C1055 C1054 1.392 . S
C1055 C1056 1.392 . S
C1056 H1032 0.949 . S
C1056 C1051 1.382 . S
C1056 C1055 1.392 . S
C1057 C1058 1.376 . S
C1057 C1062 1.386 . S
C1057 C1063 1.483 . S
C1058 H1033 0.949 . S
C1058 C1057 1.376 . S
C1058 C1059 1.397 . S
C1059 H1034 0.950 . S
C1059 C1058 1.397 . S
C1059 C1060 1.391 . S
C1060 C1059 1.391 . S
C1060 C1061 1.405 . S
C1061 H1035 0.950 . S
C1061 C1060 1.405 . S
C1061 C1062 1.367 . S
C1062 H1036 0.950 . S
C1062 C1057 1.386 . S
C1062 C1061 1.367 . S
C1063 C1057 1.483 . S
C1063 C1064 1.382 . S
C1063 C1065 1.403 . S
C1064 H1037 0.950 . S
C1064 C1050 1.411 . S
C1064 C1063 1.382 . S
C1065 C1049 1.411 . S
C1065 C1063 1.403 . S
C1065 C1066 1.489 . S
C1066 C1065 1.489 . S
C1066 C1067 1.383 . S
C1066 C1071 1.382 . S
C1067 H1038 0.950 . S
C1067 C1066 1.383 . S
C1067 C1068 1.395 . S
C1068 H1039 0.950 . S
C1068 C1067 1.395 . S
C1068 C1069 1.288 . S
C1069 C1068 1.288 . S
C1069 C1070 1.392 . S
C1070 H1040 0.951 . S
C1070 C1069 1.392 . S
C1070 C1071 1.392 . S
C1071 H1041 0.949 . S
C1071 C1066 1.382 . S
C1071 C1070 1.392 . S
H1072 C1091 0.949 . S
H1073 C1092 0.950 . S
H1074 C1094 0.950 . S
H1075 C1095 0.950 . S
H1076 C1097 0.950 . S
H1077 C1100 0.950 . S
H1078 C1101 0.950 . S
H1079 C1103 0.951 . S
H1080 C1104 0.949 . S
H1081 C1106 0.949 . S
H1082 C1107 0.950 . S
H1083 C1109 0.950 . S
H1084 C1110 0.950 . S
H1085 C1112 0.950 . S
H1086 C1115 0.950 . S
H1087 C1116 0.950 . S
H1088 C1118 0.951 . S
H1089 C1119 0.949 . S
C1090 C1091 1.376 . S
C1090 C1095 1.386 . S
C1090 C1096 1.483 . S
C1091 H1072 0.949 . S
C1091 C1090 1.376 . S
C1091 C1092 1.397 . S
C1092 H1073 0.950 . S
C1092 C1091 1.397 . S
C1092 C1093 1.391 . S
C1093 C1092 1.391 . S
C1093 C1094 1.405 . S
C1094 H1074 0.950 . S
C1094 C1093 1.405 . S
C1094 C1095 1.367 . S
C1095 H1075 0.950 . S
C1095 C1090 1.386 . S
C1095 C1094 1.367 . S
C1096 C1090 1.483 . S
C1096 C1097 1.382 . S
C1096 C1098 1.403 . S
C1097 H1076 0.950 . S
C1097 C1096 1.382 . S
C1097 C1113 1.411 . S
C1098 C1096 1.403 . S
C1098 C1099 1.489 . S
C1098 C1112 1.411 . S
C1099 C1098 1.489 . S
C1099 C1100 1.383 . S
C1099 C1104 1.382 . S
C1100 H1077 0.950 . S
C1100 C1099 1.383 . S
C1100 C1101 1.395 . S
C1101 H1078 0.950 . S
C1101 C1100 1.395 . S
C1101 C1102 1.288 . S
C1102 C1101 1.288 . S
C1102 C1103 1.392 . S
C1103 H1079 0.951 . S
C1103 C1102 1.392 . S
C1103 C1104 1.392 . S
C1104 H1080 0.949 . S
C1104 C1099 1.382 . S
C1104 C1103 1.392 . S
C1105 C1106 1.376 . S
C1105 C1110 1.386 . S
C1105 C1111 1.483 . S
C1106 H1081 0.949 . S
C1106 C1105 1.376 . S
C1106 C1107 1.397 . S
C1107 H1082 0.950 . S
C1107 C1106 1.397 . S
C1107 C1108 1.391 . S
C1108 C1107 1.391 . S
C1108 C1109 1.405 . S
C1109 H1083 0.950 . S
C1109 C1108 1.405 . S
C1109 C1110 1.367 . S
C1110 H1084 0.950 . S
C1110 C1105 1.386 . S
C1110 C1109 1.367 . S
C1111 C1105 1.483 . S
C1111 C1112 1.382 . S
C1111 C1113 1.403 . S
C1112 H1085 0.950 . S
C1112 C1098 1.411 . S
C1112 C1111 1.382 . S
C1113 C1097 1.411 . S
C1113 C1111 1.403 . S
C1113 C1114 1.489 . S
C1114 C1113 1.489 . S
C1114 C1115 1.383 . S
C1114 C1119 1.382 . S
C1115 H1086 0.950 . S
C1115 C1114 1.383 . S
C1115 C1116 1.395 . S
C1116 H1087 0.950 . S
C1116 C1115 1.395 . S
C1116 C1117 1.288 . S
C1117 C1116 1.288 . S
C1117 C1118 1.392 . S
C1118 H1088 0.951 . S
C1118 C1117 1.392 . S
C1118 C1119 1.392 . S
C1119 H1089 0.949 . S
C1119 C1114 1.382 . S
C1119 C1118 1.392 . S
H1120 C1139 0.949 . S
H1121 C1140 0.950 . S
H1122 C1142 0.950 . S
H1123 C1143 0.950 . S
H1124 C1145 0.950 . S
H1125 C1148 0.950 . S
H1126 C1149 0.950 . S
H1127 C1151 0.951 . S
H1128 C1152 0.949 . S
H1129 C1154 0.949 . S
H1130 C1155 0.950 . S
H1131 C1157 0.950 . S
H1132 C1158 0.950 . S
H1133 C1160 0.950 . S
H1134 C1163 0.950 . S
H1135 C1164 0.950 . S
H1136 C1166 0.951 . S
H1137 C1167 0.949 . S
C1138 C1139 1.376 . S
C1138 C1143 1.386 . S
C1138 C1144 1.483 . S
C1139 H1120 0.949 . S
C1139 C1138 1.376 . S
C1139 C1140 1.397 . S
C1140 H1121 0.950 . S
C1140 C1139 1.397 . S
C1140 C1141 1.391 . S
C1141 C1140 1.391 . S
C1141 C1142 1.405 . S
C1142 H1122 0.950 . S
C1142 C1141 1.405 . S
C1142 C1143 1.367 . S
C1143 H1123 0.950 . S
C1143 C1138 1.386 . S
C1143 C1142 1.367 . S
C1144 C1138 1.483 . S
C1144 C1145 1.382 . S
C1144 C1146 1.403 . S
C1145 H1124 0.950 . S
C1145 C1144 1.382 . S
C1145 C1161 1.411 . S
C1146 C1144 1.403 . S
C1146 C1147 1.489 . S
C1146 C1160 1.411 . S
C1147 C1146 1.489 . S
C1147 C1148 1.383 . S
C1147 C1152 1.382 . S
C1148 H1125 0.950 . S
C1148 C1147 1.383 . S
C1148 C1149 1.395 . S
C1149 H1126 0.950 . S
C1149 C1148 1.395 . S
C1149 C1150 1.288 . S
C1150 C1149 1.288 . S
C1150 C1151 1.392 . S
C1151 H1127 0.951 . S
C1151 C1150 1.392 . S
C1151 C1152 1.392 . S
C1152 H1128 0.949 . S
C1152 C1147 1.382 . S
C1152 C1151 1.392 . S
C1153 C1154 1.376 . S
C1153 C1158 1.386 . S
C1153 C1159 1.483 . S
C1154 H1129 0.949 . S
C1154 C1153 1.376 . S
C1154 C1155 1.397 . S
C1155 H1130 0.950 . S
C1155 C1154 1.397 . S
C1155 C1156 1.391 . S
C1156 C1155 1.391 . S
C1156 C1157 1.405 . S
C1157 H1131 0.950 . S
C1157 C1156 1.405 . S
C1157 C1158 1.367 . S
C1158 H1132 0.950 . S
C1158 C1153 1.386 . S
C1158 C1157 1.367 . S
C1159 C1153 1.483 . S
C1159 C1160 1.382 . S
C1159 C1161 1.403 . S
C1160 H1133 0.950 . S
C1160 C1146 1.411 . S
C1160 C1159 1.382 . S
C1161 C1145 1.411 . S
C1161 C1159 1.403 . S
C1161 C1162 1.489 . S
C1162 C1161 1.489 . S
C1162 C1163 1.383 . S
C1162 C1167 1.382 . S
C1163 H1134 0.950 . S
C1163 C1162 1.383 . S
C1163 C1164 1.395 . S
C1164 H1135 0.950 . S
C1164 C1163 1.395 . S
C1164 C1165 1.288 . S
C1165 C1164 1.288 . S
C1165 C1166 1.392 . S
C1166 H1136 0.951 . S
C1166 C1165 1.392 . S
C1166 C1167 1.392 . S
C1167 H1137 0.949 . S
C1167 C1162 1.382 . S
C1167 C1166 1.392 . S
H1168 C1187 0.949 . S
H1169 C1188 0.950 . S
H1170 C1190 0.950 . S
H1171 C1191 0.950 . S
H1172 C1193 0.950 . S
H1173 C1196 0.950 . S
H1174 C1197 0.950 . S
H1175 C1199 0.951 . S
H1176 C1200 0.949 . S
H1177 C1202 0.949 . S
H1178 C1203 0.950 . S
H1179 C1205 0.950 . S
H1180 C1206 0.950 . S
H1181 C1208 0.950 . S
H1182 C1211 0.950 . S
H1183 C1212 0.950 . S
H1184 C1214 0.951 . S
H1185 C1215 0.949 . S
C1186 C1187 1.376 . S
C1186 C1191 1.386 . S
C1186 C1192 1.483 . S
C1187 H1168 0.949 . S
C1187 C1186 1.376 . S
C1187 C1188 1.397 . S
C1188 H1169 0.950 . S
C1188 C1187 1.397 . S
C1188 C1189 1.391 . S
C1189 C1188 1.391 . S
C1189 C1190 1.405 . S
C1190 H1170 0.950 . S
C1190 C1189 1.405 . S
C1190 C1191 1.367 . S
C1191 H1171 0.950 . S
C1191 C1186 1.386 . S
C1191 C1190 1.367 . S
C1192 C1186 1.483 . S
C1192 C1193 1.382 . S
C1192 C1194 1.403 . S
C1193 H1172 0.950 . S
C1193 C1192 1.382 . S
C1193 C1209 1.411 . S
C1194 C1192 1.403 . S
C1194 C1195 1.489 . S
C1194 C1208 1.411 . S
C1195 C1194 1.489 . S
C1195 C1196 1.383 . S
C1195 C1200 1.382 . S
C1196 H1173 0.950 . S
C1196 C1195 1.383 . S
C1196 C1197 1.395 . S
C1197 H1174 0.950 . S
C1197 C1196 1.395 . S
C1197 C1198 1.288 . S
C1198 C1197 1.288 . S
C1198 C1199 1.392 . S
C1199 H1175 0.951 . S
C1199 C1198 1.392 . S
C1199 C1200 1.392 . S
C1200 H1176 0.949 . S
C1200 C1195 1.382 . S
C1200 C1199 1.392 . S
C1201 C1202 1.376 . S
C1201 C1206 1.386 . S
C1201 C1207 1.483 . S
C1202 H1177 0.949 . S
C1202 C1201 1.376 . S
C1202 C1203 1.397 . S
C1203 H1178 0.950 . S
C1203 C1202 1.397 . S
C1203 C1204 1.391 . S
C1204 C1203 1.391 . S
C1204 C1205 1.405 . S
C1205 H1179 0.950 . S
C1205 C1204 1.405 . S
C1205 C1206 1.367 . S
C1206 H1180 0.950 . S
C1206 C1201 1.386 . S
C1206 C1205 1.367 . S
C1207 C1201 1.483 . S
C1207 C1208 1.382 . S
C1207 C1209 1.403 . S
C1208 H1181 0.950 . S
C1208 C1194 1.411 . S
C1208 C1207 1.382 . S
C1209 C1193 1.411 . S
C1209 C1207 1.403 . S
C1209 C1210 1.489 . S
C1210 C1209 1.489 . S
C1210 C1211 1.383 . S
C1210 C1215 1.382 . S
C1211 H1182 0.950 . S
C1211 C1210 1.383 . S
C1211 C1212 1.395 . S
C1212 H1183 0.950 . S
C1212 C1211 1.395 . S
C1212 C1213 1.288 . S
C1213 C1212 1.288 . S
C1213 C1214 1.392 . S
C1214 H1184 0.951 . S
C1214 C1213 1.392 . S
C1214 C1215 1.392 . S
C1215 H1185 0.949 . S
C1215 C1210 1.382 . S
C1215 C1214 1.392 . S
H1216 C1235 0.949 . S
H1217 C1236 0.950 . S
H1218 C1238 0.950 . S
H1219 C1239 0.950 . S
H1220 C1241 0.950 . S
H1221 C1244 0.950 . S
H1222 C1245 0.950 . S
H1223 C1247 0.951 . S
H1224 C1248 0.949 . S
H1225 C1250 0.949 . S
H1226 C1251 0.950 . S
H1227 C1253 0.950 . S
H1228 C1254 0.950 . S
H1229 C1256 0.950 . S
H1230 C1259 0.950 . S
H1231 C1260 0.950 . S
H1232 C1262 0.951 . S
H1233 C1263 0.949 . S
C1234 C1235 1.376 . S
C1234 C1239 1.386 . S
C1234 C1240 1.483 . S
C1235 H1216 0.949 . S
C1235 C1234 1.376 . S
C1235 C1236 1.397 . S
C1236 H1217 0.950 . S
C1236 C1235 1.397 . S
C1236 C1237 1.391 . S
C1237 C1236 1.391 . S
C1237 C1238 1.405 . S
C1238 H1218 0.950 . S
C1238 C1237 1.405 . S
C1238 C1239 1.367 . S
C1239 H1219 0.950 . S
C1239 C1234 1.386 . S
C1239 C1238 1.367 . S
C1240 C1234 1.483 . S
C1240 C1241 1.382 . S
C1240 C1242 1.403 . S
C1241 H1220 0.950 . S
C1241 C1240 1.382 . S
C1241 C1257 1.411 . S
C1242 C1240 1.403 . S
C1242 C1243 1.489 . S
C1242 C1256 1.411 . S
C1243 C1242 1.489 . S
C1243 C1244 1.383 . S
C1243 C1248 1.382 . S
C1244 H1221 0.950 . S
C1244 C1243 1.383 . S
C1244 C1245 1.395 . S
C1245 H1222 0.950 . S
C1245 C1244 1.395 . S
C1245 C1246 1.288 . S
C1246 C1245 1.288 . S
C1246 C1247 1.392 . S
C1247 H1223 0.951 . S
C1247 C1246 1.392 . S
C1247 C1248 1.392 . S
C1248 H1224 0.949 . S
C1248 C1243 1.382 . S
C1248 C1247 1.392 . S
C1249 C1250 1.376 . S
C1249 C1254 1.386 . S
C1249 C1255 1.483 . S
C1250 H1225 0.949 . S
C1250 C1249 1.376 . S
C1250 C1251 1.397 . S
C1251 H1226 0.950 . S
C1251 C1250 1.397 . S
C1251 C1252 1.391 . S
C1252 C1251 1.391 . S
C1252 C1253 1.405 . S
C1253 H1227 0.950 . S
C1253 C1252 1.405 . S
C1253 C1254 1.367 . S
C1254 H1228 0.950 . S
C1254 C1249 1.386 . S
C1254 C1253 1.367 . S
C1255 C1249 1.483 . S
C1255 C1256 1.382 . S
C1255 C1257 1.403 . S
C1256 H1229 0.950 . S
C1256 C1242 1.411 . S
C1256 C1255 1.382 . S
C1257 C1241 1.411 . S
C1257 C1255 1.403 . S
C1257 C1258 1.489 . S
C1258 C1257 1.489 . S
C1258 C1259 1.383 . S
C1258 C1263 1.382 . S
C1259 H1230 0.950 . S
C1259 C1258 1.383 . S
C1259 C1260 1.395 . S
C1260 H1231 0.950 . S
C1260 C1259 1.395 . S
C1260 C1261 1.288 . S
C1261 C1260 1.288 . S
C1261 C1262 1.392 . S
C1262 H1232 0.951 . S
C1262 C1261 1.392 . S
C1262 C1263 1.392 . S
C1263 H1233 0.949 . S
C1263 C1258 1.382 . S
C1263 C1262 1.392 . S
H1264 C1283 0.949 . S
H1265 C1284 0.950 . S
H1266 C1286 0.950 . S
H1267 C1287 0.950 . S
H1268 C1289 0.950 . S
H1269 C1292 0.950 . S
H1270 C1293 0.950 . S
H1271 C1295 0.951 . S
H1272 C1296 0.949 . S
H1273 C1298 0.949 . S
H1274 C1299 0.950 . S
H1275 C1301 0.950 . S
H1276 C1302 0.950 . S
H1277 C1304 0.950 . S
H1278 C1307 0.950 . S
H1279 C1308 0.950 . S
H1280 C1310 0.951 . S
H1281 C1311 0.949 . S
C1282 C1283 1.376 . S
C1282 C1287 1.386 . S
C1282 C1288 1.483 . S
C1283 H1264 0.949 . S
C1283 C1282 1.376 . S
C1283 C1284 1.397 . S
C1284 H1265 0.950 . S
C1284 C1283 1.397 . S
C1284 C1285 1.391 . S
C1285 C1284 1.391 . S
C1285 C1286 1.405 . S
C1286 H1266 0.950 . S
C1286 C1285 1.405 . S
C1286 C1287 1.367 . S
C1287 H1267 0.950 . S
C1287 C1282 1.386 . S
C1287 C1286 1.367 . S
C1288 C1282 1.483 . S
C1288 C1289 1.382 . S
C1288 C1290 1.403 . S
C1289 H1268 0.950 . S
C1289 C1288 1.382 . S
C1289 C1305 1.411 . S
C1290 C1288 1.403 . S
C1290 C1291 1.489 . S
C1290 C1304 1.411 . S
C1291 C1290 1.489 . S
C1291 C1292 1.383 . S
C1291 C1296 1.382 . S
C1292 H1269 0.950 . S
C1292 C1291 1.383 . S
C1292 C1293 1.395 . S
C1293 H1270 0.950 . S
C1293 C1292 1.395 . S
C1293 C1294 1.288 . S
C1294 C1293 1.288 . S
C1294 C1295 1.392 . S
C1295 H1271 0.951 . S
C1295 C1294 1.392 . S
C1295 C1296 1.392 . S
C1296 H1272 0.949 . S
C1296 C1291 1.382 . S
C1296 C1295 1.392 . S
C1297 C1298 1.376 . S
C1297 C1302 1.386 . S
C1297 C1303 1.483 . S
C1298 H1273 0.949 . S
C1298 C1297 1.376 . S
C1298 C1299 1.397 . S
C1299 H1274 0.950 . S
C1299 C1298 1.397 . S
C1299 C1300 1.391 . S
C1300 C1299 1.391 . S
C1300 C1301 1.405 . S
C1301 H1275 0.950 . S
C1301 C1300 1.405 . S
C1301 C1302 1.367 . S
C1302 H1276 0.950 . S
C1302 C1297 1.386 . S
C1302 C1301 1.367 . S
C1303 C1297 1.483 . S
C1303 C1304 1.382 . S
C1303 C1305 1.403 . S
C1304 H1277 0.950 . S
C1304 C1290 1.411 . S
C1304 C1303 1.382 . S
C1305 C1289 1.411 . S
C1305 C1303 1.403 . S
C1305 C1306 1.489 . S
C1306 C1305 1.489 . S
C1306 C1307 1.383 . S
C1306 C1311 1.382 . S
C1307 H1278 0.950 . S
C1307 C1306 1.383 . S
C1307 C1308 1.395 . S
C1308 H1279 0.950 . S
C1308 C1307 1.395 . S
C1308 C1309 1.288 . S
C1309 C1308 1.288 . S
C1309 C1310 1.392 . S
C1310 H1280 0.951 . S
C1310 C1309 1.392 . S
C1310 C1311 1.392 . S
C1311 H1281 0.949 . S
C1311 C1306 1.382 . S
C1311 C1310 1.392 . S
H1312 C1331 0.949 . S
H1313 C1332 0.950 . S
H1314 C1334 0.950 . S
H1315 C1335 0.950 . S
H1316 C1337 0.950 . S
H1317 C1340 0.950 . S
H1318 C1341 0.950 . S
H1319 C1343 0.951 . S
H1320 C1344 0.949 . S
H1321 C1346 0.949 . S
H1322 C1347 0.950 . S
H1323 C1349 0.950 . S
H1324 C1350 0.950 . S
H1325 C1352 0.950 . S
H1326 C1355 0.950 . S
H1327 C1356 0.950 . S
H1328 C1358 0.951 . S
H1329 C1359 0.949 . S
C1330 C1331 1.376 . S
C1330 C1335 1.386 . S
C1330 C1336 1.483 . S
C1331 H1312 0.949 . S
C1331 C1330 1.376 . S
C1331 C1332 1.397 . S
C1332 H1313 0.950 . S
C1332 C1331 1.397 . S
C1332 C1333 1.391 . S
C1333 C1332 1.391 . S
C1333 C1334 1.405 . S
C1334 H1314 0.950 . S
C1334 C1333 1.405 . S
C1334 C1335 1.367 . S
C1335 H1315 0.950 . S
C1335 C1330 1.386 . S
C1335 C1334 1.367 . S
C1336 C1330 1.483 . S
C1336 C1337 1.382 . S
C1336 C1338 1.403 . S
C1337 H1316 0.950 . S
C1337 C1336 1.382 . S
C1337 C1353 1.411 . S
C1338 C1336 1.403 . S
C1338 C1339 1.489 . S
C1338 C1352 1.411 . S
C1339 C1338 1.489 . S
C1339 C1340 1.383 . S
C1339 C1344 1.382 . S
C1340 H1317 0.950 . S
C1340 C1339 1.383 . S
C1340 C1341 1.395 . S
C1341 H1318 0.950 . S
C1341 C1340 1.395 . S
C1341 C1342 1.288 . S
C1342 C1341 1.288 . S
C1342 C1343 1.392 . S
C1343 H1319 0.951 . S
C1343 C1342 1.392 . S
C1343 C1344 1.392 . S
C1344 H1320 0.949 . S
C1344 C1339 1.382 . S
C1344 C1343 1.392 . S
C1345 C1346 1.376 . S
C1345 C1350 1.386 . S
C1345 C1351 1.483 . S
C1346 H1321 0.949 . S
C1346 C1345 1.376 . S
C1346 C1347 1.397 . S
C1347 H1322 0.950 . S
C1347 C1346 1.397 . S
C1347 C1348 1.391 . S
C1348 C1347 1.391 . S
C1348 C1349 1.405 . S
C1349 H1323 0.950 . S
C1349 C1348 1.405 . S
C1349 C1350 1.367 . S
C1350 H1324 0.950 . S
C1350 C1345 1.386 . S
C1350 C1349 1.367 . S
C1351 C1345 1.483 . S
C1351 C1352 1.382 . S
C1351 C1353 1.403 . S
C1352 H1325 0.950 . S
C1352 C1338 1.411 . S
C1352 C1351 1.382 . S
C1353 C1337 1.411 . S
C1353 C1351 1.403 . S
C1353 C1354 1.489 . S
C1354 C1353 1.489 . S
C1354 C1355 1.383 . S
C1354 C1359 1.382 . S
C1355 H1326 0.950 . S
C1355 C1354 1.383 . S
C1355 C1356 1.395 . S
C1356 H1327 0.950 . S
C1356 C1355 1.395 . S
C1356 C1357 1.288 . S
C1357 C1356 1.288 . S
C1357 C1358 1.392 . S
C1358 H1328 0.951 . S
C1358 C1357 1.392 . S
C1358 C1359 1.392 . S
C1359 H1329 0.949 . S
C1359 C1354 1.382 . S
C1359 C1358 1.392 . S
H1360 C1379 0.949 . S
H1361 C1380 0.950 . S
H1362 C1382 0.950 . S
H1363 C1383 0.950 . S
H1364 C1385 0.950 . S
H1365 C1388 0.950 . S
H1366 C1389 0.950 . S
H1367 C1391 0.951 . S
H1368 C1392 0.949 . S
H1369 C1394 0.949 . S
H1370 C1395 0.950 . S
H1371 C1397 0.950 . S
H1372 C1398 0.950 . S
H1373 C1400 0.950 . S
H1374 C1403 0.950 . S
H1375 C1404 0.950 . S
H1376 C1406 0.951 . S
H1377 C1407 0.949 . S
C1378 C1379 1.376 . S
C1378 C1383 1.386 . S
C1378 C1384 1.483 . S
C1379 H1360 0.949 . S
C1379 C1378 1.376 . S
C1379 C1380 1.397 . S
C1380 H1361 0.950 . S
C1380 C1379 1.397 . S
C1380 C1381 1.391 . S
C1381 C1380 1.391 . S
C1381 C1382 1.405 . S
C1382 H1362 0.950 . S
C1382 C1381 1.405 . S
C1382 C1383 1.367 . S
C1383 H1363 0.950 . S
C1383 C1378 1.386 . S
C1383 C1382 1.367 . S
C1384 C1378 1.483 . S
C1384 C1385 1.382 . S
C1384 C1386 1.403 . S
C1385 H1364 0.950 . S
C1385 C1384 1.382 . S
C1385 C1401 1.411 . S
C1386 C1384 1.403 . S
C1386 C1387 1.489 . S
C1386 C1400 1.411 . S
C1387 C1386 1.489 . S
C1387 C1388 1.383 . S
C1387 C1392 1.382 . S
C1388 H1365 0.950 . S
C1388 C1387 1.383 . S
C1388 C1389 1.395 . S
C1389 H1366 0.950 . S
C1389 C1388 1.395 . S
C1389 C1390 1.288 . S
C1390 C1389 1.288 . S
C1390 C1391 1.392 . S
C1391 H1367 0.951 . S
C1391 C1390 1.392 . S
C1391 C1392 1.392 . S
C1392 H1368 0.949 . S
C1392 C1387 1.382 . S
C1392 C1391 1.392 . S
C1393 C1394 1.376 . S
C1393 C1398 1.386 . S
C1393 C1399 1.483 . S
C1394 H1369 0.949 . S
C1394 C1393 1.376 . S
C1394 C1395 1.397 . S
C1395 H1370 0.950 . S
C1395 C1394 1.397 . S
C1395 C1396 1.391 . S
C1396 C1395 1.391 . S
C1396 C1397 1.405 . S
C1397 H1371 0.950 . S
C1397 C1396 1.405 . S
C1397 C1398 1.367 . S
C1398 H1372 0.950 . S
C1398 C1393 1.386 . S
C1398 C1397 1.367 . S
C1399 C1393 1.483 . S
C1399 C1400 1.382 . S
C1399 C1401 1.403 . S
C1400 H1373 0.950 . S
C1400 C1386 1.411 . S
C1400 C1399 1.382 . S
C1401 C1385 1.411 . S
C1401 C1399 1.403 . S
C1401 C1402 1.489 . S
C1402 C1401 1.489 . S
C1402 C1403 1.383 . S
C1402 C1407 1.382 . S
C1403 H1374 0.950 . S
C1403 C1402 1.383 . S
C1403 C1404 1.395 . S
C1404 H1375 0.950 . S
C1404 C1403 1.395 . S
C1404 C1405 1.288 . S
C1405 C1404 1.288 . S
C1405 C1406 1.392 . S
C1406 H1376 0.951 . S
C1406 C1405 1.392 . S
C1406 C1407 1.392 . S
C1407 H1377 0.949 . S
C1407 C1402 1.382 . S
C1407 C1406 1.392 . S
H1408 C1427 0.949 . S
H1409 C1428 0.950 . S
H1410 C1430 0.950 . S
H1411 C1431 0.950 . S
H1412 C1433 0.950 . S
H1413 C1436 0.950 . S
H1414 C1437 0.950 . S
H1415 C1439 0.951 . S
H1416 C1440 0.949 . S
H1417 C1442 0.949 . S
H1418 C1443 0.950 . S
H1419 C1445 0.950 . S
H1420 C1446 0.950 . S
H1421 C1448 0.950 . S
H1422 C1451 0.950 . S
H1423 C1452 0.950 . S
H1424 C1454 0.951 . S
H1425 C1455 0.949 . S
C1426 C1427 1.376 . S
C1426 C1431 1.386 . S
C1426 C1432 1.483 . S
C1427 H1408 0.949 . S
C1427 C1426 1.376 . S
C1427 C1428 1.397 . S
C1428 H1409 0.950 . S
C1428 C1427 1.397 . S
C1428 C1429 1.391 . S
C1429 C1428 1.391 . S
C1429 C1430 1.405 . S
C1430 H1410 0.950 . S
C1430 C1429 1.405 . S
C1430 C1431 1.367 . S
C1431 H1411 0.950 . S
C1431 C1426 1.386 . S
C1431 C1430 1.367 . S
C1432 C1426 1.483 . S
C1432 C1433 1.382 . S
C1432 C1434 1.403 . S
C1433 H1412 0.950 . S
C1433 C1432 1.382 . S
C1433 C1449 1.411 . S
C1434 C1432 1.403 . S
C1434 C1435 1.489 . S
C1434 C1448 1.411 . S
C1435 C1434 1.489 . S
C1435 C1436 1.383 . S
C1435 C1440 1.382 . S
C1436 H1413 0.950 . S
C1436 C1435 1.383 . S
C1436 C1437 1.395 . S
C1437 H1414 0.950 . S
C1437 C1436 1.395 . S
C1437 C1438 1.288 . S
C1438 C1437 1.288 . S
C1438 C1439 1.392 . S
C1439 H1415 0.951 . S
C1439 C1438 1.392 . S
C1439 C1440 1.392 . S
C1440 H1416 0.949 . S
C1440 C1435 1.382 . S
C1440 C1439 1.392 . S
C1441 C1442 1.376 . S
C1441 C1446 1.386 . S
C1441 C1447 1.483 . S
C1442 H1417 0.949 . S
C1442 C1441 1.376 . S
C1442 C1443 1.397 . S
C1443 H1418 0.950 . S
C1443 C1442 1.397 . S
C1443 C1444 1.391 . S
C1444 C1443 1.391 . S
C1444 C1445 1.405 . S
C1445 H1419 0.950 . S
C1445 C1444 1.405 . S
C1445 C1446 1.367 . S
C1446 H1420 0.950 . S
C1446 C1441 1.386 . S
C1446 C1445 1.367 . S
C1447 C1441 1.483 . S
C1447 C1448 1.382 . S
C1447 C1449 1.403 . S
C1448 H1421 0.950 . S
C1448 C1434 1.411 . S
C1448 C1447 1.382 . S
C1449 C1433 1.411 . S
C1449 C1447 1.403 . S
C1449 C1450 1.489 . S
C1450 C1449 1.489 . S
C1450 C1451 1.383 . S
C1450 C1455 1.382 . S
C1451 H1422 0.950 . S
C1451 C1450 1.383 . S
C1451 C1452 1.395 . S
C1452 H1423 0.950 . S
C1452 C1451 1.395 . S
C1452 C1453 1.288 . S
C1453 C1452 1.288 . S
C1453 C1454 1.392 . S
C1454 H1424 0.951 . S
C1454 C1453 1.392 . S
C1454 C1455 1.392 . S
C1455 H1425 0.949 . S
C1455 C1450 1.382 . S
C1455 C1454 1.392 . S
H1456 C1475 0.949 . S
H1457 C1476 0.950 . S
H1458 C1478 0.950 . S
H1459 C1479 0.950 . S
H1460 C1481 0.950 . S
H1461 C1484 0.950 . S
H1462 C1485 0.950 . S
H1463 C1487 0.951 . S
H1464 C1488 0.949 . S
H1465 C1490 0.949 . S
H1466 C1491 0.950 . S
H1467 C1493 0.950 . S
H1468 C1494 0.950 . S
H1469 C1496 0.950 . S
H1470 C1499 0.950 . S
H1471 C1500 0.950 . S
H1472 C1502 0.951 . S
H1473 C1503 0.949 . S
C1474 C1475 1.376 . S
C1474 C1479 1.386 . S
C1474 C1480 1.483 . S
C1475 H1456 0.949 . S
C1475 C1474 1.376 . S
C1475 C1476 1.397 . S
C1476 H1457 0.950 . S
C1476 C1475 1.397 . S
C1476 C1477 1.391 . S
C1477 C1476 1.391 . S
C1477 C1478 1.405 . S
C1478 H1458 0.950 . S
C1478 C1477 1.405 . S
C1478 C1479 1.367 . S
C1479 H1459 0.950 . S
C1479 C1474 1.386 . S
C1479 C1478 1.367 . S
C1480 C1474 1.483 . S
C1480 C1481 1.382 . S
C1480 C1482 1.403 . S
C1481 H1460 0.950 . S
C1481 C1480 1.382 . S
C1481 C1497 1.411 . S
C1482 C1480 1.403 . S
C1482 C1483 1.489 . S
C1482 C1496 1.411 . S
C1483 C1482 1.489 . S
C1483 C1484 1.383 . S
C1483 C1488 1.382 . S
C1484 H1461 0.950 . S
C1484 C1483 1.383 . S
C1484 C1485 1.395 . S
C1485 H1462 0.950 . S
C1485 C1484 1.395 . S
C1485 C1486 1.288 . S
C1486 C1485 1.288 . S
C1486 C1487 1.392 . S
C1487 H1463 0.951 . S
C1487 C1486 1.392 . S
C1487 C1488 1.392 . S
C1488 H1464 0.949 . S
C1488 C1483 1.382 . S
C1488 C1487 1.392 . S
C1489 C1490 1.376 . S
C1489 C1494 1.386 . S
C1489 C1495 1.483 . S
C1490 H1465 0.949 . S
C1490 C1489 1.376 . S
C1490 C1491 1.397 . S
C1491 H1466 0.950 . S
C1491 C1490 1.397 . S
C1491 C1492 1.391 . S
C1492 C1491 1.391 . S
C1492 C1493 1.405 . S
C1493 H1467 0.950 . S
C1493 C1492 1.405 . S
C1493 C1494 1.367 . S
C1494 H1468 0.950 . S
C1494 C1489 1.386 . S
C1494 C1493 1.367 . S
C1495 C1489 1.483 . S
C1495 C1496 1.382 . S
C1495 C1497 1.403 . S
C1496 H1469 0.950 . S
C1496 C1482 1.411 . S
C1496 C1495 1.382 . S
C1497 C1481 1.411 . S
C1497 C1495 1.403 . S
C1497 C1498 1.489 . S
C1498 C1497 1.489 . S
C1498 C1499 1.383 . S
C1498 C1503 1.382 . S
C1499 H1470 0.950 . S
C1499 C1498 1.383 . S
C1499 C1500 1.395 . S
C1500 H1471 0.950 . S
C1500 C1499 1.395 . S
C1500 C1501 1.288 . S
C1501 C1500 1.288 . S
C1501 C1502 1.392 . S
C1502 H1472 0.951 . S
C1502 C1501 1.392 . S
C1502 C1503 1.392 . S
C1503 H1473 0.949 . S
C1503 C1498 1.382 . S
C1503 C1502 1.392 . S
C1504 C1505 1.349 . S
C1504 C1506 1.327 . S
C1504 H1529 0.950 . S
C1505 C1504 1.349 . S
C1505 C1521 1.349 . S
C1506 C1504 1.327 . S
C1506 C1525 1.429 . S
C1506 H1530 0.950 . S
C1507 C1524 1.574 . S
C1507 C1526 1.368 . S
C1507 H1531 0.949 . S
H1508 C1512 0.949 . S
C1509 C1510 1.349 . S
C1509 C1511 1.327 . S
C1509 H1532 0.950 . S
C1510 C1509 1.349 . S
C1510 C1522 1.349 . S
C1511 C1509 1.327 . S
C1511 C1527 1.429 . S
C1511 H1533 0.950 . S
C1512 H1508 0.949 . S
C1512 C1520 1.574 . S
C1512 C1528 1.368 . S
H1513 C1521 0.950 . S
H1514 C1519 0.950 . S
H1515 C1520 0.949 . S
H1516 C1522 0.950 . S
H1517 C1523 0.950 . S
H1518 C1524 0.949 . S
C1519 H1514 0.950 . S
C1519 C1521 1.327 . S
C1519 C1525 1.429 . S
C1520 C1512 1.574 . S
C1520 H1515 0.949 . S
C1520 C1526 1.368 . S
C1521 C1505 1.349 . S
C1521 H1513 0.950 . S
C1521 C1519 1.327 . S
C1522 C1510 1.349 . S
C1522 H1516 0.950 . S
C1522 C1523 1.327 . S
C1523 H1517 0.950 . S
C1523 C1522 1.327 . S
C1523 C1527 1.429 . S
C1524 C1507 1.574 . S
C1524 H1518 0.949 . S
C1524 C1528 1.368 . S
C1525 C1506 1.429 . S
C1525 C1519 1.429 . S
C1525 C1526 1.523 . S
C1526 C1507 1.368 . S
C1526 C1520 1.368 . S
C1526 C1525 1.523 . S
C1527 C1511 1.429 . S
C1527 C1523 1.429 . S
C1527 C1528 1.523 . S
C1528 C1512 1.368 . S
C1528 C1524 1.368 . S
C1528 C1527 1.523 . S
H1529 C1504 0.950 . S
H1530 C1506 0.950 . S
H1531 C1507 0.949 . S
H1532 C1509 0.950 . S
H1533 C1511 0.950 . S
C1534 C1535 1.349 . S
C1534 C1536 1.327 . S
C1534 H1559 0.950 . S
C1535 C1534 1.349 . S
C1535 C1551 1.349 . S
C1536 C1534 1.327 . S
C1536 C1555 1.429 . S
C1536 H1560 0.950 . S
C1537 C1554 1.574 . S
C1537 C1556 1.368 . S
C1537 H1561 0.949 . S
H1538 C1542 0.949 . S
C1539 C1540 1.349 . S
C1539 C1541 1.327 . S
C1539 H1562 0.950 . S
C1540 C1539 1.349 . S
C1540 C1552 1.349 . S
C1541 C1539 1.327 . S
C1541 C1557 1.429 . S
C1541 H1563 0.950 . S
C1542 H1538 0.949 . S
C1542 C1550 1.574 . S
C1542 C1558 1.368 . S
H1543 C1551 0.950 . S
H1544 C1549 0.950 . S
H1545 C1550 0.949 . S
H1546 C1552 0.950 . S
H1547 C1553 0.950 . S
H1548 C1554 0.949 . S
C1549 H1544 0.950 . S
C1549 C1551 1.327 . S
C1549 C1555 1.429 . S
C1550 C1542 1.574 . S
C1550 H1545 0.949 . S
C1550 C1556 1.368 . S
C1551 C1535 1.349 . S
C1551 H1543 0.950 . S
C1551 C1549 1.327 . S
C1552 C1540 1.349 . S
C1552 H1546 0.950 . S
C1552 C1553 1.327 . S
C1553 H1547 0.950 . S
C1553 C1552 1.327 . S
C1553 C1557 1.429 . S
C1554 C1537 1.574 . S
C1554 H1548 0.949 . S
C1554 C1558 1.368 . S
C1555 C1536 1.429 . S
C1555 C1549 1.429 . S
C1555 C1556 1.523 . S
C1556 C1537 1.368 . S
C1556 C1550 1.368 . S
C1556 C1555 1.523 . S
C1557 C1541 1.429 . S
C1557 C1553 1.429 . S
C1557 C1558 1.523 . S
C1558 C1542 1.368 . S
C1558 C1554 1.368 . S
C1558 C1557 1.523 . S
H1559 C1534 0.950 . S
H1560 C1536 0.950 . S
H1561 C1537 0.949 . S
H1562 C1539 0.950 . S
H1563 C1541 0.950 . S
C1564 C1565 1.349 . S
C1564 C1566 1.327 . S
C1564 H1589 0.950 . S
C1565 C1564 1.349 . S
C1565 C1581 1.349 . S
C1566 C1564 1.327 . S
C1566 C1585 1.429 . S
C1566 H1590 0.950 . S
C1567 C1584 1.574 . S
C1567 C1586 1.368 . S
C1567 H1591 0.949 . S
H1568 C1572 0.949 . S
C1569 C1570 1.349 . S
C1569 C1571 1.327 . S
C1569 H1592 0.950 . S
C1570 C1569 1.349 . S
C1570 C1582 1.349 . S
C1571 C1569 1.327 . S
C1571 C1587 1.429 . S
C1571 H1593 0.950 . S
C1572 H1568 0.949 . S
C1572 C1580 1.574 . S
C1572 C1588 1.368 . S
H1573 C1581 0.950 . S
H1574 C1579 0.950 . S
H1575 C1580 0.949 . S
H1576 C1582 0.950 . S
H1577 C1583 0.950 . S
H1578 C1584 0.949 . S
C1579 H1574 0.950 . S
C1579 C1581 1.327 . S
C1579 C1585 1.429 . S
C1580 C1572 1.574 . S
C1580 H1575 0.949 . S
C1580 C1586 1.368 . S
C1581 C1565 1.349 . S
C1581 H1573 0.950 . S
C1581 C1579 1.327 . S
C1582 C1570 1.349 . S
C1582 H1576 0.950 . S
C1582 C1583 1.327 . S
C1583 H1577 0.950 . S
C1583 C1582 1.327 . S
C1583 C1587 1.429 . S
C1584 C1567 1.574 . S
C1584 H1578 0.949 . S
C1584 C1588 1.368 . S
C1585 C1566 1.429 . S
C1585 C1579 1.429 . S
C1585 C1586 1.523 . S
C1586 C1567 1.368 . S
C1586 C1580 1.368 . S
C1586 C1585 1.523 . S
C1587 C1571 1.429 . S
C1587 C1583 1.429 . S
C1587 C1588 1.523 . S
C1588 C1572 1.368 . S
C1588 C1584 1.368 . S
C1588 C1587 1.523 . S
H1589 C1564 0.950 . S
H1590 C1566 0.950 . S
H1591 C1567 0.949 . S
H1592 C1569 0.950 . S
H1593 C1571 0.950 . S
C1594 C1595 1.349 . S
C1594 C1596 1.327 . S
C1594 H1619 0.950 . S
C1595 C1594 1.349 . S
C1595 C1611 1.349 . S
C1596 C1594 1.327 . S
C1596 C1615 1.429 . S
C1596 H1620 0.950 . S
C1597 C1614 1.574 . S
C1597 C1616 1.368 . S
C1597 H1621 0.949 . S
H1598 C1602 0.949 . S
C1599 C1600 1.349 . S
C1599 C1601 1.327 . S
C1599 H1622 0.950 . S
C1600 C1599 1.349 . S
C1600 C1612 1.349 . S
C1601 C1599 1.327 . S
C1601 C1617 1.429 . S
C1601 H1623 0.950 . S
C1602 H1598 0.949 . S
C1602 C1610 1.574 . S
C1602 C1618 1.368 . S
H1603 C1611 0.950 . S
H1604 C1609 0.950 . S
H1605 C1610 0.949 . S
H1606 C1612 0.950 . S
H1607 C1613 0.950 . S
H1608 C1614 0.949 . S
C1609 H1604 0.950 . S
C1609 C1611 1.327 . S
C1609 C1615 1.429 . S
C1610 C1602 1.574 . S
C1610 H1605 0.949 . S
C1610 C1616 1.368 . S
C1611 C1595 1.349 . S
C1611 H1603 0.950 . S
C1611 C1609 1.327 . S
C1612 C1600 1.349 . S
C1612 H1606 0.950 . S
C1612 C1613 1.327 . S
C1613 H1607 0.950 . S
C1613 C1612 1.327 . S
C1613 C1617 1.429 . S
C1614 C1597 1.574 . S
C1614 H1608 0.949 . S
C1614 C1618 1.368 . S
C1615 C1596 1.429 . S
C1615 C1609 1.429 . S
C1615 C1616 1.523 . S
C1616 C1597 1.368 . S
C1616 C1610 1.368 . S
C1616 C1615 1.523 . S
C1617 C1601 1.429 . S
C1617 C1613 1.429 . S
C1617 C1618 1.523 . S
C1618 C1602 1.368 . S
C1618 C1614 1.368 . S
C1618 C1617 1.523 . S
H1619 C1594 0.950 . S
H1620 C1596 0.950 . S
H1621 C1597 0.949 . S
H1622 C1599 0.950 . S
H1623 C1601 0.950 . S
C1624 C1625 1.349 . S
C1624 C1626 1.327 . S
C1624 H1649 0.950 . S
C1625 C1624 1.349 . S
C1625 C1641 1.349 . S
C1626 C1624 1.327 . S
C1626 C1645 1.429 . S
C1626 H1650 0.950 . S
C1627 C1644 1.574 . S
C1627 C1646 1.368 . S
C1627 H1651 0.949 . S
H1628 C1632 0.949 . S
C1629 C1630 1.349 . S
C1629 C1631 1.327 . S
C1629 H1652 0.950 . S
C1630 C1629 1.349 . S
C1630 C1642 1.349 . S
C1631 C1629 1.327 . S
C1631 C1647 1.429 . S
C1631 H1653 0.950 . S
C1632 H1628 0.949 . S
C1632 C1640 1.574 . S
C1632 C1648 1.368 . S
H1633 C1641 0.950 . S
H1634 C1639 0.950 . S
H1635 C1640 0.949 . S
H1636 C1642 0.950 . S
H1637 C1643 0.950 . S
H1638 C1644 0.949 . S
C1639 H1634 0.950 . S
C1639 C1641 1.327 . S
C1639 C1645 1.429 . S
C1640 C1632 1.574 . S
C1640 H1635 0.949 . S
C1640 C1646 1.368 . S
C1641 C1625 1.349 . S
C1641 H1633 0.950 . S
C1641 C1639 1.327 . S
C1642 C1630 1.349 . S
C1642 H1636 0.950 . S
C1642 C1643 1.327 . S
C1643 H1637 0.950 . S
C1643 C1642 1.327 . S
C1643 C1647 1.429 . S
C1644 C1627 1.574 . S
C1644 H1638 0.949 . S
C1644 C1648 1.368 . S
C1645 C1626 1.429 . S
C1645 C1639 1.429 . S
C1645 C1646 1.523 . S
C1646 C1627 1.368 . S
C1646 C1640 1.368 . S
C1646 C1645 1.523 . S
C1647 C1631 1.429 . S
C1647 C1643 1.429 . S
C1647 C1648 1.523 . S
C1648 C1632 1.368 . S
C1648 C1644 1.368 . S
C1648 C1647 1.523 . S
H1649 C1624 0.950 . S
H1650 C1626 0.950 . S
H1651 C1627 0.949 . S
H1652 C1629 0.950 . S
H1653 C1631 0.950 . S
C1654 C1655 1.349 . S
C1654 C1656 1.327 . S
C1654 H1679 0.950 . S
C1655 C1654 1.349 . S
C1655 C1671 1.349 . S
C1656 C1654 1.327 . S
C1656 C1675 1.429 . S
C1656 H1680 0.950 . S
C1657 C1674 1.574 . S
C1657 C1676 1.368 . S
C1657 H1681 0.949 . S
H1658 C1662 0.949 . S
C1659 C1660 1.349 . S
C1659 C1661 1.327 . S
C1659 H1682 0.950 . S
C1660 C1659 1.349 . S
C1660 C1672 1.349 . S
C1661 C1659 1.327 . S
C1661 C1677 1.429 . S
C1661 H1683 0.950 . S
C1662 H1658 0.949 . S
C1662 C1670 1.574 . S
C1662 C1678 1.368 . S
H1663 C1671 0.950 . S
H1664 C1669 0.950 . S
H1665 C1670 0.949 . S
H1666 C1672 0.950 . S
H1667 C1673 0.950 . S
H1668 C1674 0.949 . S
C1669 H1664 0.950 . S
C1669 C1671 1.327 . S
C1669 C1675 1.429 . S
C1670 C1662 1.574 . S
C1670 H1665 0.949 . S
C1670 C1676 1.368 . S
C1671 C1655 1.349 . S
C1671 H1663 0.950 . S
C1671 C1669 1.327 . S
C1672 C1660 1.349 . S
C1672 H1666 0.950 . S
C1672 C1673 1.327 . S
C1673 H1667 0.950 . S
C1673 C1672 1.327 . S
C1673 C1677 1.429 . S
C1674 C1657 1.574 . S
C1674 H1668 0.949 . S
C1674 C1678 1.368 . S
C1675 C1656 1.429 . S
C1675 C1669 1.429 . S
C1675 C1676 1.523 . S
C1676 C1657 1.368 . S
C1676 C1670 1.368 . S
C1676 C1675 1.523 . S
C1677 C1661 1.429 . S
C1677 C1673 1.429 . S
C1677 C1678 1.523 . S
C1678 C1662 1.368 . S
C1678 C1674 1.368 . S
C1678 C1677 1.523 . S
H1679 C1654 0.950 . S
H1680 C1656 0.950 . S
H1681 C1657 0.949 . S
H1682 C1659 0.950 . S
H1683 C1661 0.950 . S
C1684 C1685 1.349 . S
C1684 C1686 1.327 . S
C1684 H1709 0.950 . S
C1685 C1684 1.349 . S
C1685 C1701 1.349 . S
C1686 C1684 1.327 . S
C1686 C1705 1.429 . S
C1686 H1710 0.950 . S
C1687 C1704 1.574 . S
C1687 C1706 1.368 . S
C1687 H1711 0.949 . S
H1688 C1692 0.949 . S
C1689 C1690 1.349 . S
C1689 C1691 1.327 . S
C1689 H1712 0.950 . S
C1690 C1689 1.349 . S
C1690 C1702 1.349 . S
C1691 C1689 1.327 . S
C1691 C1707 1.429 . S
C1691 H1713 0.950 . S
C1692 H1688 0.949 . S
C1692 C1700 1.574 . S
C1692 C1708 1.368 . S
H1693 C1701 0.950 . S
H1694 C1699 0.950 . S
H1695 C1700 0.949 . S
H1696 C1702 0.950 . S
H1697 C1703 0.950 . S
H1698 C1704 0.949 . S
C1699 H1694 0.950 . S
C1699 C1701 1.327 . S
C1699 C1705 1.429 . S
C1700 C1692 1.574 . S
C1700 H1695 0.949 . S
C1700 C1706 1.368 . S
C1701 C1685 1.349 . S
C1701 H1693 0.950 . S
C1701 C1699 1.327 . S
C1702 C1690 1.349 . S
C1702 H1696 0.950 . S
C1702 C1703 1.327 . S
C1703 H1697 0.950 . S
C1703 C1702 1.327 . S
C1703 C1707 1.429 . S
C1704 C1687 1.574 . S
C1704 H1698 0.949 . S
C1704 C1708 1.368 . S
C1705 C1686 1.429 . S
C1705 C1699 1.429 . S
C1705 C1706 1.523 . S
C1706 C1687 1.368 . S
C1706 C1700 1.368 . S
C1706 C1705 1.523 . S
C1707 C1691 1.429 . S
C1707 C1703 1.429 . S
C1707 C1708 1.523 . S
C1708 C1692 1.368 . S
C1708 C1704 1.368 . S
C1708 C1707 1.523 . S
H1709 C1684 0.950 . S
H1710 C1686 0.950 . S
H1711 C1687 0.949 . S
H1712 C1689 0.950 . S
H1713 C1691 0.950 . S
C1714 C1715 1.349 . S
C1714 C1716 1.327 . S
C1714 H1739 0.950 . S
C1715 C1714 1.349 . S
C1715 C1731 1.349 . S
C1716 C1714 1.327 . S
C1716 C1735 1.429 . S
C1716 H1740 0.950 . S
C1717 C1734 1.574 . S
C1717 C1736 1.368 . S
C1717 H1741 0.949 . S
H1718 C1722 0.949 . S
C1719 C1720 1.349 . S
C1719 C1721 1.327 . S
C1719 H1742 0.950 . S
C1720 C1719 1.349 . S
C1720 C1732 1.349 . S
C1721 C1719 1.327 . S
C1721 C1737 1.429 . S
C1721 H1743 0.950 . S
C1722 H1718 0.949 . S
C1722 C1730 1.574 . S
C1722 C1738 1.368 . S
H1723 C1731 0.950 . S
H1724 C1729 0.950 . S
H1725 C1730 0.949 . S
H1726 C1732 0.950 . S
H1727 C1733 0.950 . S
H1728 C1734 0.949 . S
C1729 H1724 0.950 . S
C1729 C1731 1.327 . S
C1729 C1735 1.429 . S
C1730 C1722 1.574 . S
C1730 H1725 0.949 . S
C1730 C1736 1.368 . S
C1731 C1715 1.349 . S
C1731 H1723 0.950 . S
C1731 C1729 1.327 . S
C1732 C1720 1.349 . S
C1732 H1726 0.950 . S
C1732 C1733 1.327 . S
C1733 H1727 0.950 . S
C1733 C1732 1.327 . S
C1733 C1737 1.429 . S
C1734 C1717 1.574 . S
C1734 H1728 0.949 . S
C1734 C1738 1.368 . S
C1735 C1716 1.429 . S
C1735 C1729 1.429 . S
C1735 C1736 1.523 . S
C1736 C1717 1.368 . S
C1736 C1730 1.368 . S
C1736 C1735 1.523 . S
C1737 C1721 1.429 . S
C1737 C1733 1.429 . S
C1737 C1738 1.523 . S
C1738 C1722 1.368 . S
C1738 C1734 1.368 . S
C1738 C1737 1.523 . S
H1739 C1714 0.950 . S
H1740 C1716 0.950 . S
H1741 C1717 0.949 . S
H1742 C1719 0.950 . S
H1743 C1721 0.950 . S
C1744 C1745 1.349 . S
C1744 C1746 1.327 . S
C1744 H1769 0.950 . S
C1745 C1744 1.349 . S
C1745 C1761 1.349 . S
C1746 C1744 1.327 . S
C1746 C1765 1.429 . S
C1746 H1770 0.950 . S
C1747 C1764 1.574 . S
C1747 C1766 1.368 . S
C1747 H1771 0.949 . S
H1748 C1752 0.949 . S
C1749 C1750 1.349 . S
C1749 C1751 1.327 . S
C1749 H1772 0.950 . S
C1750 C1749 1.349 . S
C1750 C1762 1.349 . S
C1751 C1749 1.327 . S
C1751 C1767 1.429 . S
C1751 H1773 0.950 . S
C1752 H1748 0.949 . S
C1752 C1760 1.574 . S
C1752 C1768 1.368 . S
H1753 C1761 0.950 . S
H1754 C1759 0.950 . S
H1755 C1760 0.949 . S
H1756 C1762 0.950 . S
H1757 C1763 0.950 . S
H1758 C1764 0.949 . S
C1759 H1754 0.950 . S
C1759 C1761 1.327 . S
C1759 C1765 1.429 . S
C1760 C1752 1.574 . S
C1760 H1755 0.949 . S
C1760 C1766 1.368 . S
C1761 C1745 1.349 . S
C1761 H1753 0.950 . S
C1761 C1759 1.327 . S
C1762 C1750 1.349 . S
C1762 H1756 0.950 . S
C1762 C1763 1.327 . S
C1763 H1757 0.950 . S
C1763 C1762 1.327 . S
C1763 C1767 1.429 . S
C1764 C1747 1.574 . S
C1764 H1758 0.949 . S
C1764 C1768 1.368 . S
C1765 C1746 1.429 . S
C1765 C1759 1.429 . S
C1765 C1766 1.523 . S
C1766 C1747 1.368 . S
C1766 C1760 1.368 . S
C1766 C1765 1.523 . S
C1767 C1751 1.429 . S
C1767 C1763 1.429 . S
C1767 C1768 1.523 . S
C1768 C1752 1.368 . S
C1768 C1764 1.368 . S
C1768 C1767 1.523 . S
H1769 C1744 0.950 . S
H1770 C1746 0.950 . S
H1771 C1747 0.949 . S
H1772 C1749 0.950 . S
H1773 C1751 0.950 . S
C1774 C1775 1.349 . S
C1774 C1776 1.327 . S
C1774 H1799 0.950 . S
C1775 C1774 1.349 . S
C1775 C1791 1.349 . S
C1776 C1774 1.327 . S
C1776 C1795 1.429 . S
C1776 H1800 0.950 . S
C1777 C1794 1.574 . S
C1777 C1796 1.368 . S
C1777 H1801 0.949 . S
H1778 C1782 0.949 . S
C1779 C1780 1.349 . S
C1779 C1781 1.327 . S
C1779 H1802 0.950 . S
C1780 C1779 1.349 . S
C1780 C1792 1.349 . S
C1781 C1779 1.327 . S
C1781 C1797 1.429 . S
C1781 H1803 0.950 . S
C1782 H1778 0.949 . S
C1782 C1790 1.574 . S
C1782 C1798 1.368 . S
H1783 C1791 0.950 . S
H1784 C1789 0.950 . S
H1785 C1790 0.949 . S
H1786 C1792 0.950 . S
H1787 C1793 0.950 . S
H1788 C1794 0.949 . S
C1789 H1784 0.950 . S
C1789 C1791 1.327 . S
C1789 C1795 1.429 . S
C1790 C1782 1.574 . S
C1790 H1785 0.949 . S
C1790 C1796 1.368 . S
C1791 C1775 1.349 . S
C1791 H1783 0.950 . S
C1791 C1789 1.327 . S
C1792 C1780 1.349 . S
C1792 H1786 0.950 . S
C1792 C1793 1.327 . S
C1793 H1787 0.950 . S
C1793 C1792 1.327 . S
C1793 C1797 1.429 . S
C1794 C1777 1.574 . S
C1794 H1788 0.949 . S
C1794 C1798 1.368 . S
C1795 C1776 1.429 . S
C1795 C1789 1.429 . S
C1795 C1796 1.523 . S
C1796 C1777 1.368 . S
C1796 C1790 1.368 . S
C1796 C1795 1.523 . S
C1797 C1781 1.429 . S
C1797 C1793 1.429 . S
C1797 C1798 1.523 . S
C1798 C1782 1.368 . S
C1798 C1794 1.368 . S
C1798 C1797 1.523 . S
H1799 C1774 0.950 . S
H1800 C1776 0.950 . S
H1801 C1777 0.949 . S
H1802 C1779 0.950 . S
H1803 C1781 0.950 . S
C1804 C1805 1.349 . S
C1804 C1806 1.327 . S
C1804 H1829 0.950 . S
C1805 C1804 1.349 . S
C1805 C1821 1.349 . S
C1806 C1804 1.327 . S
C1806 C1825 1.429 . S
C1806 H1830 0.950 . S
C1807 C1824 1.574 . S
C1807 C1826 1.368 . S
C1807 H1831 0.949 . S
H1808 C1812 0.949 . S
C1809 C1810 1.349 1_655 S
C1809 C1811 1.327 . S
C1809 H1832 0.952 . S
C1810 C1809 1.349 1_455 S
C1810 C1822 1.349 . S
C1811 C1809 1.327 . S
C1811 C1827 1.429 . S
C1811 H1833 0.950 . S
C1812 H1808 0.949 . S
C1812 C1820 1.574 . S
C1812 C1828 1.368 . S
H1813 C1821 0.950 . S
H1814 C1819 0.950 . S
H1815 C1820 0.949 . S
H1816 C1822 0.950 . S
H1817 C1823 0.950 . S
H1818 C1824 0.949 . S
C1819 H1814 0.950 . S
C1819 C1821 1.327 . S
C1819 C1825 1.429 . S
C1820 C1812 1.574 . S
C1820 H1815 0.949 . S
C1820 C1826 1.368 . S
C1821 C1805 1.349 . S
C1821 H1813 0.950 . S
C1821 C1819 1.327 . S
C1822 C1810 1.349 . S
C1822 H1816 0.950 . S
C1822 C1823 1.327 1_455 S
C1823 H1817 0.950 . S
C1823 C1822 1.327 1_655 S
C1823 C1827 1.429 . S
C1824 C1807 1.574 . S
C1824 H1818 0.949 . S
C1824 C1828 1.368 . S
C1825 C1806 1.429 . S
C1825 C1819 1.429 . S
C1825 C1826 1.523 . S
C1826 C1807 1.368 . S
C1826 C1820 1.368 . S
C1826 C1825 1.523 . S
C1827 C1811 1.429 . S
C1827 C1823 1.429 . S
C1827 C1828 1.523 . S
C1828 C1812 1.368 . S
C1828 C1824 1.368 . S
C1828 C1827 1.523 . S
H1829 C1804 0.950 . S
H1830 C1806 0.950 . S
H1831 C1807 0.949 . S
H1832 C1809 0.952 . S
H1833 C1811 0.950 . S
C1834 C1835 1.349 . S
C1834 C1836 1.327 . S
C1834 H1859 0.950 . S
C1835 C1834 1.349 . S
C1835 C1851 1.349 . S
C1836 C1834 1.327 . S
C1836 C1855 1.429 . S
C1836 H1860 0.950 . S
C1837 C1854 1.574 . S
C1837 C1856 1.368 . S
C1837 H1861 0.949 . S
H1838 C1842 0.949 . S
C1839 C1840 1.349 . S
C1839 C1841 1.327 . S
C1839 H1862 0.950 . S
C1840 C1839 1.349 . S
C1840 C1852 1.349 . S
C1841 C1839 1.327 . S
C1841 C1857 1.429 . S
C1841 H1863 0.950 . S
C1842 H1838 0.949 . S
C1842 C1850 1.574 . S
C1842 C1858 1.368 . S
H1843 C1851 0.950 . S
H1844 C1849 0.950 . S
H1845 C1850 0.949 . S
H1846 C1852 0.950 . S
H1847 C1853 0.950 . S
H1848 C1854 0.949 . S
C1849 H1844 0.950 . S
C1849 C1851 1.327 . S
C1849 C1855 1.429 . S
C1850 C1842 1.574 . S
C1850 H1845 0.949 . S
C1850 C1856 1.368 . S
C1851 C1835 1.349 . S
C1851 H1843 0.950 . S
C1851 C1849 1.327 . S
C1852 C1840 1.349 . S
C1852 H1846 0.950 . S
C1852 C1853 1.327 . S
C1853 H1847 0.950 . S
C1853 C1852 1.327 . S
C1853 C1857 1.429 . S
C1854 C1837 1.574 . S
C1854 H1848 0.949 . S
C1854 C1858 1.368 . S
C1855 C1836 1.429 . S
C1855 C1849 1.429 . S
C1855 C1856 1.523 . S
C1856 C1837 1.368 . S
C1856 C1850 1.368 . S
C1856 C1855 1.523 . S
C1857 C1841 1.429 . S
C1857 C1853 1.429 . S
C1857 C1858 1.523 . S
C1858 C1842 1.368 . S
C1858 C1854 1.368 . S
C1858 C1857 1.523 . S
H1859 C1834 0.950 . S
H1860 C1836 0.950 . S
H1861 C1837 0.949 . S
H1862 C1839 0.950 . S
H1863 C1841 0.950 . S
C1864 C1865 1.349 . S
C1864 C1866 1.327 . S
C1864 H1889 0.950 . S
C1865 C1864 1.349 . S
C1865 C1881 1.349 . S
C1866 C1864 1.327 . S
C1866 C1885 1.429 . S
C1866 H1890 0.950 . S
C1867 C1884 1.574 . S
C1867 C1886 1.368 . S
C1867 H1891 0.949 . S
H1868 C1872 0.949 . S
C1869 C1870 1.349 . S
C1869 C1871 1.327 . S
C1869 H1892 0.950 . S
C1870 C1869 1.349 . S
C1870 C1882 1.349 . S
C1871 C1869 1.327 . S
C1871 C1887 1.429 . S
C1871 H1893 0.950 . S
C1872 H1868 0.949 . S
C1872 C1880 1.574 . S
C1872 C1888 1.368 . S
H1873 C1881 0.950 . S
H1874 C1879 0.950 . S
H1875 C1880 0.949 . S
H1876 C1882 0.950 . S
H1877 C1883 0.950 . S
H1878 C1884 0.949 . S
C1879 H1874 0.950 . S
C1879 C1881 1.327 . S
C1879 C1885 1.429 . S
C1880 C1872 1.574 . S
C1880 H1875 0.949 . S
C1880 C1886 1.368 . S
C1881 C1865 1.349 . S
C1881 H1873 0.950 . S
C1881 C1879 1.327 . S
C1882 C1870 1.349 . S
C1882 H1876 0.950 . S
C1882 C1883 1.327 . S
C1883 H1877 0.950 . S
C1883 C1882 1.327 . S
C1883 C1887 1.429 . S
C1884 C1867 1.574 . S
C1884 H1878 0.949 . S
C1884 C1888 1.368 . S
C1885 C1866 1.429 . S
C1885 C1879 1.429 . S
C1885 C1886 1.523 . S
C1886 C1867 1.368 . S
C1886 C1880 1.368 . S
C1886 C1885 1.523 . S
C1887 C1871 1.429 . S
C1887 C1883 1.429 . S
C1887 C1888 1.523 . S
C1888 C1872 1.368 . S
C1888 C1884 1.368 . S
C1888 C1887 1.523 . S
H1889 C1864 0.950 . S
H1890 C1866 0.950 . S
H1891 C1867 0.949 . S
H1892 C1869 0.950 . S
H1893 C1871 0.950 . S
C1894 C1895 1.349 . S
C1894 C1896 1.327 . S
C1894 H1919 0.950 . S
C1895 C1894 1.349 . S
C1895 C1911 1.349 . S
C1896 C1894 1.327 . S
C1896 C1915 1.429 . S
C1896 H1920 0.950 . S
C1897 C1914 1.574 . S
C1897 C1916 1.368 . S
C1897 H1921 0.949 . S
H1898 C1902 0.949 . S
C1899 C1900 1.349 . S
C1899 C1901 1.327 . S
C1899 H1922 0.950 . S
C1900 C1899 1.349 . S
C1900 C1912 1.349 . S
C1901 C1899 1.327 . S
C1901 C1917 1.429 . S
C1901 H1923 0.950 . S
C1902 H1898 0.949 . S
C1902 C1910 1.574 . S
C1902 C1918 1.368 . S
H1903 C1911 0.950 . S
H1904 C1909 0.950 . S
H1905 C1910 0.949 . S
H1906 C1912 0.950 . S
H1907 C1913 0.950 . S
H1908 C1914 0.949 . S
C1909 H1904 0.950 . S
C1909 C1911 1.327 . S
C1909 C1915 1.429 . S
C1910 C1902 1.574 . S
C1910 H1905 0.949 . S
C1910 C1916 1.368 . S
C1911 C1895 1.349 . S
C1911 H1903 0.950 . S
C1911 C1909 1.327 . S
C1912 C1900 1.349 . S
C1912 H1906 0.950 . S
C1912 C1913 1.327 . S
C1913 H1907 0.950 . S
C1913 C1912 1.327 . S
C1913 C1917 1.429 . S
C1914 C1897 1.574 . S
C1914 H1908 0.949 . S
C1914 C1918 1.368 . S
C1915 C1896 1.429 . S
C1915 C1909 1.429 . S
C1915 C1916 1.523 . S
C1916 C1897 1.368 . S
C1916 C1910 1.368 . S
C1916 C1915 1.523 . S
C1917 C1901 1.429 . S
C1917 C1913 1.429 . S
C1917 C1918 1.523 . S
C1918 C1902 1.368 . S
C1918 C1914 1.368 . S
C1918 C1917 1.523 . S
H1919 C1894 0.950 . S
H1920 C1896 0.950 . S
H1921 C1897 0.949 . S
H1922 C1899 0.950 . S
H1923 C1901 0.950 . S
C1924 C1925 1.349 . S
C1924 C1926 1.327 . S
C1924 H1949 0.950 . S
C1925 C1924 1.349 . S
C1925 C1941 1.349 . S
C1926 C1924 1.327 . S
C1926 C1945 1.429 . S
C1926 H1950 0.950 . S
C1927 C1944 1.574 . S
C1927 C1946 1.368 . S
C1927 H1951 0.949 . S
H1928 C1932 0.949 . S
C1929 C1930 1.349 . S
C1929 C1931 1.327 . S
C1929 H1952 0.983 . S
C1930 C1929 1.349 . S
C1930 C1942 1.349 . S
C1931 C1929 1.327 . S
C1931 C1947 1.429 . S
C1931 H1953 0.950 . S
C1932 H1928 0.949 . S
C1932 C1940 1.574 . S
C1932 C1948 1.368 . S
H1933 C1941 0.950 . S
H1934 C1939 0.950 . S
H1935 C1940 0.949 . S
H1936 C1942 0.950 . S
H1937 C1943 0.950 . S
H1938 C1944 0.949 . S
C1939 H1934 0.950 . S
C1939 C1941 1.327 . S
C1939 C1945 1.429 . S
C1940 C1932 1.574 . S
C1940 H1935 0.949 . S
C1940 C1946 1.368 . S
C1941 C1925 1.349 . S
C1941 H1933 0.950 . S
C1941 C1939 1.327 . S
C1942 C1930 1.349 . S
C1942 H1936 0.950 . S
C1942 C1943 1.327 . S
C1943 H1937 0.950 . S
C1943 C1942 1.327 . S
C1943 C1947 1.429 . S
C1944 C1927 1.574 . S
C1944 H1938 0.949 . S
C1944 C1948 1.368 . S
C1945 C1926 1.429 . S
C1945 C1939 1.429 . S
C1945 C1946 1.523 . S
C1946 C1927 1.368 . S
C1946 C1940 1.368 . S
C1946 C1945 1.523 . S
C1947 C1931 1.429 . S
C1947 C1943 1.429 . S
C1947 C1948 1.523 . S
C1948 C1932 1.368 . S
C1948 C1944 1.368 . S
C1948 C1947 1.523 . S
H1949 C1924 0.950 . S
H1950 C1926 0.950 . S
H1951 C1927 0.949 . S
H1952 C1929 0.983 . S
H1953 C1931 0.950 . S
C1954 C1955 1.349 . S
C1954 C1956 1.327 . S
C1954 H1979 0.950 . S
C1955 C1954 1.349 . S
C1955 C1971 1.349 . S
C1956 C1954 1.327 . S
C1956 C1975 1.429 . S
C1956 H1980 0.950 . S
C1957 C1974 1.574 . S
C1957 C1976 1.368 . S
C1957 H1981 0.949 . S
H1958 C1962 0.949 . S
C1959 C1960 1.349 . S
C1959 C1961 1.327 . S
C1959 H1982 0.950 . S
C1960 C1959 1.349 . S
C1960 C1972 1.349 . S
C1961 C1959 1.327 . S
C1961 C1977 1.429 . S
C1961 H1983 0.950 . S
C1962 H1958 0.949 . S
C1962 C1970 1.574 . S
C1962 C1978 1.368 . S
H1963 C1971 0.950 . S
H1964 C1969 0.950 . S
H1965 C1970 0.949 . S
H1966 C1972 0.950 . S
H1967 C1973 0.950 . S
H1968 C1974 0.949 . S
C1969 H1964 0.950 . S
C1969 C1971 1.327 . S
C1969 C1975 1.429 . S
C1970 C1962 1.574 . S
C1970 H1965 0.949 . S
C1970 C1976 1.368 . S
C1971 C1955 1.349 . S
C1971 H1963 0.950 . S
C1971 C1969 1.327 . S
C1972 C1960 1.349 . S
C1972 H1966 0.950 . S
C1972 C1973 1.327 . S
C1973 H1967 0.950 . S
C1973 C1972 1.327 . S
C1973 C1977 1.429 . S
C1974 C1957 1.574 . S
C1974 H1968 0.949 . S
C1974 C1978 1.368 . S
C1975 C1956 1.429 . S
C1975 C1969 1.429 . S
C1975 C1976 1.523 . S
C1976 C1957 1.368 . S
C1976 C1970 1.368 . S
C1976 C1975 1.523 . S
C1977 C1961 1.429 . S
C1977 C1973 1.429 . S
C1977 C1978 1.523 . S
C1978 C1962 1.368 . S
C1978 C1974 1.368 . S
C1978 C1977 1.523 . S
H1979 C1954 0.950 . S
H1980 C1956 0.950 . S
H1981 C1957 0.949 . S
H1982 C1959 0.950 . S
H1983 C1961 0.950 . S
C1984 C1985 1.349 . S
C1984 C1986 1.327 . S
C1984 H2009 0.950 . S
C1985 C1984 1.349 . S
C1985 C2001 1.349 . S
C1986 C1984 1.327 . S
C1986 C2005 1.429 . S
C1986 H2010 0.950 . S
C1987 C2004 1.574 . S
C1987 C2006 1.368 . S
C1987 H2011 0.949 . S
H1988 C1992 0.949 . S
C1989 C1990 1.349 . S
C1989 C1991 1.327 . S
C1989 H2012 0.950 . S
C1990 C1989 1.349 . S
C1990 C2002 1.349 . S
C1991 C1989 1.327 . S
C1991 C2007 1.429 . S
C1991 H2013 0.950 . S
C1992 H1988 0.949 . S
C1992 C2000 1.574 . S
C1992 C2008 1.368 . S
H1993 C2001 0.950 . S
H1994 C1999 0.950 . S
H1995 C2000 0.949 . S
H1996 C2002 0.950 . S
H1997 C2003 0.950 . S
H1998 C2004 0.949 . S
C1999 H1994 0.950 . S
C1999 C2001 1.327 . S
C1999 C2005 1.429 . S
C2000 C1992 1.574 . S
C2000 H1995 0.949 . S
C2000 C2006 1.368 . S
C2001 C1985 1.349 . S
C2001 H1993 0.950 . S
C2001 C1999 1.327 . S
C2002 C1990 1.349 . S
C2002 H1996 0.950 . S
C2002 C2003 1.327 . S
C2003 H1997 0.950 . S
C2003 C2002 1.327 . S
C2003 C2007 1.429 . S
C2004 C1987 1.574 . S
C2004 H1998 0.949 . S
C2004 C2008 1.368 . S
C2005 C1986 1.429 . S
C2005 C1999 1.429 . S
C2005 C2006 1.523 . S
C2006 C1987 1.368 . S
C2006 C2000 1.368 . S
C2006 C2005 1.523 . S
C2007 C1991 1.429 . S
C2007 C2003 1.429 . S
C2007 C2008 1.523 . S
C2008 C1992 1.368 . S
C2008 C2004 1.368 . S
C2008 C2007 1.523 . S
H2009 C1984 0.950 . S
H2010 C1986 0.950 . S
H2011 C1987 0.949 . S
H2012 C1989 0.950 . S
H2013 C1991 0.950 . S
C2014 C2015 1.349 . S
C2014 C2016 1.327 . S
C2014 H2039 0.950 . S
C2015 C2014 1.349 . S
C2015 C2031 1.349 . S
C2016 C2014 1.327 . S
C2016 C2035 1.429 . S
C2016 H2040 0.950 . S
C2017 C2034 1.574 . S
C2017 C2036 1.368 . S
C2017 H2041 0.949 . S
H2018 C2022 0.949 . S
C2019 C2020 1.349 . S
C2019 C2021 1.327 . S
C2019 H2042 0.950 . S
C2020 C2019 1.349 . S
C2020 C2032 1.349 . S
C2021 C2019 1.327 . S
C2021 C2037 1.429 . S
C2021 H2043 0.950 . S
C2022 H2018 0.949 . S
C2022 C2030 1.574 . S
C2022 C2038 1.368 . S
H2023 C2031 0.950 . S
H2024 C2029 0.950 . S
H2025 C2030 0.949 . S
H2026 C2032 0.950 . S
H2027 C2033 0.950 . S
H2028 C2034 0.949 . S
C2029 H2024 0.950 . S
C2029 C2031 1.327 . S
C2029 C2035 1.429 . S
C2030 C2022 1.574 . S
C2030 H2025 0.949 . S
C2030 C2036 1.368 . S
C2031 C2015 1.349 . S
C2031 H2023 0.950 . S
C2031 C2029 1.327 . S
C2032 C2020 1.349 . S
C2032 H2026 0.950 . S
C2032 C2033 1.327 . S
C2033 H2027 0.950 . S
C2033 C2032 1.327 . S
C2033 C2037 1.429 . S
C2034 C2017 1.574 . S
C2034 H2028 0.949 . S
C2034 C2038 1.368 . S
C2035 C2016 1.429 . S
C2035 C2029 1.429 . S
C2035 C2036 1.523 . S
C2036 C2017 1.368 . S
C2036 C2030 1.368 . S
C2036 C2035 1.523 . S
C2037 C2021 1.429 . S
C2037 C2033 1.429 . S
C2037 C2038 1.523 . S
C2038 C2022 1.368 . S
C2038 C2034 1.368 . S
C2038 C2037 1.523 . S
H2039 C2014 0.950 . S
H2040 C2016 0.950 . S
H2041 C2017 0.949 . S
H2042 C2019 0.950 . S
H2043 C2021 0.950 . S
C2044 C2045 1.349 . S
C2044 C2046 1.327 . S
C2044 H2069 0.950 . S
C2045 C2044 1.349 . S
C2045 C2061 1.349 . S
C2046 C2044 1.327 . S
C2046 C2065 1.429 . S
C2046 H2070 0.950 . S
C2047 C2064 1.574 . S
C2047 C2066 1.368 . S
C2047 H2071 0.949 . S
H2048 C2052 0.949 . S
C2049 C2050 1.349 . S
C2049 C2051 1.327 . S
C2049 H2072 0.950 . S
C2050 C2049 1.349 . S
C2050 C2062 1.349 . S
C2051 C2049 1.327 . S
C2051 C2067 1.429 . S
C2051 H2073 0.950 . S
C2052 H2048 0.949 . S
C2052 C2060 1.574 . S
C2052 C2068 1.368 . S
H2053 C2061 0.950 . S
H2054 C2059 0.950 . S
H2055 C2060 0.949 . S
H2056 C2062 0.950 . S
H2057 C2063 0.950 . S
H2058 C2064 0.949 . S
C2059 H2054 0.950 . S
C2059 C2061 1.327 . S
C2059 C2065 1.429 . S
C2060 C2052 1.574 . S
C2060 H2055 0.949 . S
C2060 C2066 1.368 . S
C2061 C2045 1.349 . S
C2061 H2053 0.950 . S
C2061 C2059 1.327 . S
C2062 C2050 1.349 . S
C2062 H2056 0.950 . S
C2062 C2063 1.327 . S
C2063 H2057 0.950 . S
C2063 C2062 1.327 . S
C2063 C2067 1.429 . S
C2064 C2047 1.574 . S
C2064 H2058 0.949 . S
C2064 C2068 1.368 . S
C2065 C2046 1.429 . S
C2065 C2059 1.429 . S
C2065 C2066 1.523 . S
C2066 C2047 1.368 . S
C2066 C2060 1.368 . S
C2066 C2065 1.523 . S
C2067 C2051 1.429 . S
C2067 C2063 1.429 . S
C2067 C2068 1.523 . S
C2068 C2052 1.368 . S
C2068 C2064 1.368 . S
C2068 C2067 1.523 . S
H2069 C2044 0.950 . S
H2070 C2046 0.950 . S
H2071 C2047 0.949 . S
H2072 C2049 0.950 . S
H2073 C2051 0.950 . S
C2074 C2075 1.349 . S
C2074 C2076 1.327 . S
C2074 H2099 0.950 . S
C2075 C2074 1.349 . S
C2075 C2091 1.349 . S
C2076 C2074 1.327 . S
C2076 C2095 1.429 . S
C2076 H2100 0.950 . S
C2077 C2094 1.574 . S
C2077 C2096 1.368 . S
C2077 H2101 0.949 . S
H2078 C2082 0.949 . S
C2079 C2080 1.349 . S
C2079 C2081 1.327 . S
C2079 H2102 0.950 . S
C2080 C2079 1.349 . S
C2080 C2092 1.349 . S
C2081 C2079 1.327 . S
C2081 C2097 1.429 . S
C2081 H2103 0.950 . S
C2082 H2078 0.949 . S
C2082 C2090 1.574 . S
C2082 C2098 1.368 . S
H2083 C2091 0.950 . S
H2084 C2089 0.950 . S
H2085 C2090 0.949 . S
H2086 C2092 0.950 . S
H2087 C2093 0.950 . S
H2088 C2094 0.949 . S
C2089 H2084 0.950 . S
C2089 C2091 1.327 . S
C2089 C2095 1.429 . S
C2090 C2082 1.574 . S
C2090 H2085 0.949 . S
C2090 C2096 1.368 . S
C2091 C2075 1.349 . S
C2091 H2083 0.950 . S
C2091 C2089 1.327 . S
C2092 C2080 1.349 . S
C2092 H2086 0.950 . S
C2092 C2093 1.327 . S
C2093 H2087 0.950 . S
C2093 C2092 1.327 . S
C2093 C2097 1.429 . S
C2094 C2077 1.574 . S
C2094 H2088 0.949 . S
C2094 C2098 1.368 . S
C2095 C2076 1.429 . S
C2095 C2089 1.429 . S
C2095 C2096 1.523 . S
C2096 C2077 1.368 . S
C2096 C2090 1.368 . S
C2096 C2095 1.523 . S
C2097 C2081 1.429 . S
C2097 C2093 1.429 . S
C2097 C2098 1.523 . S
C2098 C2082 1.368 . S
C2098 C2094 1.368 . S
C2098 C2097 1.523 . S
H2099 C2074 0.950 . S
H2100 C2076 0.950 . S
H2101 C2077 0.949 . S
H2102 C2079 0.950 . S
H2103 C2081 0.950 . S
C2104 C2105 1.349 . S
C2104 C2106 1.327 . S
C2104 H2129 0.950 . S
C2105 C2104 1.349 . S
C2105 C2121 1.349 . S
C2106 C2104 1.327 . S
C2106 C2125 1.429 . S
C2106 H2130 0.950 . S
C2107 C2124 1.574 . S
C2107 C2126 1.368 . S
C2107 H2131 0.949 . S
H2108 C2112 0.949 . S
C2109 C2110 1.349 . S
C2109 C2111 1.327 . S
C2109 H2132 0.950 . S
C2110 C2109 1.349 . S
C2110 C2122 1.349 . S
C2111 C2109 1.327 . S
C2111 C2127 1.429 . S
C2111 H2133 0.950 . S
C2112 H2108 0.949 . S
C2112 C2120 1.574 . S
C2112 C2128 1.368 . S
H2113 C2121 0.950 . S
H2114 C2119 0.950 . S
H2115 C2120 0.949 . S
H2116 C2122 0.950 . S
H2117 C2123 0.950 . S
H2118 C2124 0.949 . S
C2119 H2114 0.950 . S
C2119 C2121 1.327 . S
C2119 C2125 1.429 . S
C2120 C2112 1.574 . S
C2120 H2115 0.949 . S
C2120 C2126 1.368 . S
C2121 C2105 1.349 . S
C2121 H2113 0.950 . S
C2121 C2119 1.327 . S
C2122 C2110 1.349 . S
C2122 H2116 0.950 . S
C2122 C2123 1.327 . S
C2123 H2117 0.950 . S
C2123 C2122 1.327 . S
C2123 C2127 1.429 . S
C2124 C2107 1.574 . S
C2124 H2118 0.949 . S
C2124 C2128 1.368 . S
C2125 C2106 1.429 . S
C2125 C2119 1.429 . S
C2125 C2126 1.523 . S
C2126 C2107 1.368 . S
C2126 C2120 1.368 . S
C2126 C2125 1.523 . S
C2127 C2111 1.429 . S
C2127 C2123 1.429 . S
C2127 C2128 1.523 . S
C2128 C2112 1.368 . S
C2128 C2124 1.368 . S
C2128 C2127 1.523 . S
H2129 C2104 0.950 . S
H2130 C2106 0.950 . S
H2131 C2107 0.949 . S
H2132 C2109 0.950 . S
H2133 C2111 0.950 . S
C2134 C2135 1.349 . S
C2134 C2136 1.327 . S
C2134 H2159 0.950 . S
C2135 C2134 1.349 . S
C2135 C2151 1.349 . S
C2136 C2134 1.327 . S
C2136 C2155 1.429 . S
C2136 H2160 0.950 . S
C2137 C2154 1.574 . S
C2137 C2156 1.368 . S
C2137 H2161 0.949 . S
H2138 C2142 0.949 . S
C2139 C2140 1.349 . S
C2139 C2141 1.327 . S
C2139 H2162 0.950 . S
C2140 C2139 1.349 . S
C2140 C2152 1.349 . S
C2141 C2139 1.327 . S
C2141 C2157 1.429 . S
C2141 H2163 0.950 . S
C2142 H2138 0.949 . S
C2142 C2150 1.574 . S
C2142 C2158 1.368 . S
H2143 C2151 0.950 . S
H2144 C2149 0.950 . S
H2145 C2150 0.949 . S
H2146 C2152 0.950 . S
H2147 C2153 0.950 . S
H2148 C2154 0.949 . S
C2149 H2144 0.950 . S
C2149 C2151 1.327 . S
C2149 C2155 1.429 . S
C2150 C2142 1.574 . S
C2150 H2145 0.949 . S
C2150 C2156 1.368 . S
C2151 C2135 1.349 . S
C2151 H2143 0.950 . S
C2151 C2149 1.327 . S
C2152 C2140 1.349 . S
C2152 H2146 0.950 . S
C2152 C2153 1.327 . S
C2153 H2147 0.950 . S
C2153 C2152 1.327 . S
C2153 C2157 1.429 . S
C2154 C2137 1.574 . S
C2154 H2148 0.949 . S
C2154 C2158 1.368 . S
C2155 C2136 1.429 . S
C2155 C2149 1.429 . S
C2155 C2156 1.523 . S
C2156 C2137 1.368 . S
C2156 C2150 1.368 . S
C2156 C2155 1.523 . S
C2157 C2141 1.429 . S
C2157 C2153 1.429 . S
C2157 C2158 1.523 . S
C2158 C2142 1.368 . S
C2158 C2154 1.368 . S
C2158 C2157 1.523 . S
H2159 C2134 0.950 . S
H2160 C2136 0.950 . S
H2161 C2137 0.949 . S
H2162 C2139 0.950 . S
H2163 C2141 0.950 . S
C2164 C2165 1.349 . S
C2164 C2166 1.327 . S
C2164 H2189 0.950 . S
C2165 C2164 1.349 . S
C2165 C2181 1.349 . S
C2166 C2164 1.327 . S
C2166 C2185 1.429 . S
C2166 H2190 0.950 . S
C2167 C2184 1.574 . S
C2167 C2186 1.368 . S
C2167 H2191 0.949 . S
H2168 C2172 0.949 . S
C2169 C2170 1.349 . S
C2169 C2171 1.327 . S
C2169 H2192 0.950 . S
C2170 C2169 1.349 . S
C2170 C2182 1.349 . S
C2171 C2169 1.327 . S
C2171 C2187 1.429 . S
C2171 H2193 0.950 . S
C2172 H2168 0.949 . S
C2172 C2180 1.574 . S
C2172 C2188 1.368 . S
H2173 C2181 0.950 . S
H2174 C2179 0.950 . S
H2175 C2180 0.949 . S
H2176 C2182 0.950 . S
H2177 C2183 0.950 . S
H2178 C2184 0.949 . S
C2179 H2174 0.950 . S
C2179 C2181 1.327 . S
C2179 C2185 1.429 . S
C2180 C2172 1.574 . S
C2180 H2175 0.949 . S
C2180 C2186 1.368 . S
C2181 C2165 1.349 . S
C2181 H2173 0.950 . S
C2181 C2179 1.327 . S
C2182 C2170 1.349 . S
C2182 H2176 0.950 . S
C2182 C2183 1.327 . S
C2183 H2177 0.950 . S
C2183 C2182 1.327 . S
C2183 C2187 1.429 . S
C2184 C2167 1.574 . S
C2184 H2178 0.949 . S
C2184 C2188 1.368 . S
C2185 C2166 1.429 . S
C2185 C2179 1.429 . S
C2185 C2186 1.523 . S
C2186 C2167 1.368 . S
C2186 C2180 1.368 . S
C2186 C2185 1.523 . S
C2187 C2171 1.429 . S
C2187 C2183 1.429 . S
C2187 C2188 1.523 . S
C2188 C2172 1.368 . S
C2188 C2184 1.368 . S
C2188 C2187 1.523 . S
H2189 C2164 0.950 . S
H2190 C2166 0.950 . S
H2191 C2167 0.949 . S
H2192 C2169 0.950 . S
H2193 C2171 0.950 . S
C2194 C2195 1.349 . S
C2194 C2196 1.327 . S
C2194 H2219 0.950 . S
C2195 C2194 1.349 . S
C2195 C2211 1.349 . S
C2196 C2194 1.327 . S
C2196 C2215 1.429 . S
C2196 H2220 0.950 . S
C2197 C2214 1.574 . S
C2197 C2216 1.368 . S
C2197 H2221 0.949 . S
H2198 C2202 0.949 . S
C2199 C2200 1.349 . S
C2199 C2201 1.327 . S
C2199 H2222 0.950 . S
C2200 C2199 1.349 . S
C2200 C2212 1.349 . S
C2201 C2199 1.327 . S
C2201 C2217 1.429 . S
C2201 H2223 0.950 . S
C2202 H2198 0.949 . S
C2202 C2210 1.574 . S
C2202 C2218 1.368 . S
H2203 C2211 0.950 . S
H2204 C2209 0.950 . S
H2205 C2210 0.949 . S
H2206 C2212 0.950 . S
H2207 C2213 0.950 . S
H2208 C2214 0.949 . S
C2209 H2204 0.950 . S
C2209 C2211 1.327 . S
C2209 C2215 1.429 . S
C2210 C2202 1.574 . S
C2210 H2205 0.949 . S
C2210 C2216 1.368 . S
C2211 C2195 1.349 . S
C2211 H2203 0.950 . S
C2211 C2209 1.327 . S
C2212 C2200 1.349 . S
C2212 H2206 0.950 . S
C2212 C2213 1.327 . S
C2213 H2207 0.950 . S
C2213 C2212 1.327 . S
C2213 C2217 1.429 . S
C2214 C2197 1.574 . S
C2214 H2208 0.949 . S
C2214 C2218 1.368 . S
C2215 C2196 1.429 . S
C2215 C2209 1.429 . S
C2215 C2216 1.523 . S
C2216 C2197 1.368 . S
C2216 C2210 1.368 . S
C2216 C2215 1.523 . S
C2217 C2201 1.429 . S
C2217 C2213 1.429 . S
C2217 C2218 1.523 . S
C2218 C2202 1.368 . S
C2218 C2214 1.368 . S
C2218 C2217 1.523 . S
H2219 C2194 0.950 . S
H2220 C2196 0.950 . S
H2221 C2197 0.949 . S
H2222 C2199 0.950 . S
H2223 C2201 0.950 . S
C2224 C2225 1.349 . S
C2224 C2226 1.327 . S
C2224 H2249 0.950 . S
C2225 C2224 1.349 . S
C2225 C2241 1.349 . S
C2226 C2224 1.327 . S
C2226 C2245 1.429 . S
C2226 H2250 0.950 . S
C2227 C2244 1.574 . S
C2227 C2246 1.368 . S
C2227 H2251 0.949 . S
H2228 C2232 0.949 . S
C2229 C2230 1.349 . S
C2229 C2231 1.327 . S
C2229 H2252 0.950 . S
C2230 C2229 1.349 . S
C2230 C2242 1.349 . S
C2231 C2229 1.327 . S
C2231 C2247 1.429 . S
C2231 H2253 0.950 . S
C2232 H2228 0.949 . S
C2232 C2240 1.574 . S
C2232 C2248 1.368 . S
H2233 C2241 0.950 . S
H2234 C2239 0.950 . S
H2235 C2240 0.949 . S
H2236 C2242 0.950 . S
H2237 C2243 0.950 . S
H2238 C2244 0.949 . S
C2239 H2234 0.950 . S
C2239 C2241 1.327 . S
C2239 C2245 1.429 . S
C2240 C2232 1.574 . S
C2240 H2235 0.949 . S
C2240 C2246 1.368 . S
C2241 C2225 1.349 . S
C2241 H2233 0.950 . S
C2241 C2239 1.327 . S
C2242 C2230 1.349 . S
C2242 H2236 0.950 . S
C2242 C2243 1.327 . S
C2243 H2237 0.950 . S
C2243 C2242 1.327 . S
C2243 C2247 1.429 . S
C2244 C2227 1.574 . S
C2244 H2238 0.949 . S
C2244 C2248 1.368 . S
C2245 C2226 1.429 . S
C2245 C2239 1.429 . S
C2245 C2246 1.523 . S
C2246 C2227 1.368 . S
C2246 C2240 1.368 . S
C2246 C2245 1.523 . S
C2247 C2231 1.429 . S
C2247 C2243 1.429 . S
C2247 C2248 1.523 . S
C2248 C2232 1.368 . S
C2248 C2244 1.368 . S
C2248 C2247 1.523 . S
H2249 C2224 0.950 . S
H2250 C2226 0.950 . S
H2251 C2227 0.949 . S
H2252 C2229 0.950 . S
H2253 C2231 0.950 . S
C2254 C2255 1.349 . S
C2254 C2256 1.327 . S
C2254 H2279 0.950 . S
C2255 C2254 1.349 . S
C2255 C2271 1.349 . S
C2256 C2254 1.327 . S
C2256 C2275 1.429 . S
C2256 H2280 0.950 . S
C2257 C2274 1.574 . S
C2257 C2276 1.368 . S
C2257 H2281 0.949 . S
H2258 C2262 0.949 . S
C2259 C2260 1.349 . S
C2259 C2261 1.327 . S
C2259 H2282 0.950 . S
C2260 C2259 1.349 . S
C2260 C2272 1.349 . S
C2261 C2259 1.327 . S
C2261 C2277 1.429 . S
C2261 H2283 0.950 . S
C2262 H2258 0.949 . S
C2262 C2270 1.574 . S
C2262 C2278 1.368 . S
H2263 C2271 0.950 . S
H2264 C2269 0.950 . S
H2265 C2270 0.949 . S
H2266 C2272 0.950 . S
H2267 C2273 0.950 . S
H2268 C2274 0.949 . S
C2269 H2264 0.950 . S
C2269 C2271 1.327 . S
C2269 C2275 1.429 . S
C2270 C2262 1.574 . S
C2270 H2265 0.949 . S
C2270 C2276 1.368 . S
C2271 C2255 1.349 . S
C2271 H2263 0.950 . S
C2271 C2269 1.327 . S
C2272 C2260 1.349 . S
C2272 H2266 0.950 . S
C2272 C2273 1.327 . S
C2273 H2267 0.950 . S
C2273 C2272 1.327 . S
C2273 C2277 1.429 . S
C2274 C2257 1.574 . S
C2274 H2268 0.949 . S
C2274 C2278 1.368 . S
C2275 C2256 1.429 . S
C2275 C2269 1.429 . S
C2275 C2276 1.523 . S
C2276 C2257 1.368 . S
C2276 C2270 1.368 . S
C2276 C2275 1.523 . S
C2277 C2261 1.429 . S
C2277 C2273 1.429 . S
C2277 C2278 1.523 . S
C2278 C2262 1.368 . S
C2278 C2274 1.368 . S
C2278 C2277 1.523 . S
H2279 C2254 0.950 . S
H2280 C2256 0.950 . S
H2281 C2257 0.949 . S
H2282 C2259 0.950 . S
H2283 C2261 0.950 . S
C2284 C2285 1.349 . S
C2284 C2286 1.327 . S
C2284 H2309 0.950 . S
C2285 C2284 1.349 . S
C2285 C2301 1.349 . S
C2286 C2284 1.327 . S
C2286 C2305 1.429 . S
C2286 H2310 0.950 . S
C2287 C2304 1.574 . S
C2287 C2306 1.368 . S
C2287 H2311 0.949 . S
H2288 C2292 0.949 . S
C2289 C2290 1.349 . S
C2289 C2291 1.327 . S
C2289 H2312 0.950 . S
C2290 C2289 1.349 . S
C2290 C2302 1.349 . S
C2291 C2289 1.327 . S
C2291 C2307 1.429 . S
C2291 H2313 0.950 . S
C2292 H2288 0.949 . S
C2292 C2300 1.574 . S
C2292 C2308 1.368 . S
H2293 C2301 0.950 . S
H2294 C2299 0.950 . S
H2295 C2300 0.949 . S
H2296 C2302 0.950 . S
H2297 C2303 0.950 . S
H2298 C2304 0.949 . S
C2299 H2294 0.950 . S
C2299 C2301 1.327 . S
C2299 C2305 1.429 . S
C2300 C2292 1.574 . S
C2300 H2295 0.949 . S
C2300 C2306 1.368 . S
C2301 C2285 1.349 . S
C2301 H2293 0.950 . S
C2301 C2299 1.327 . S
C2302 C2290 1.349 . S
C2302 H2296 0.950 . S
C2302 C2303 1.327 . S
C2303 H2297 0.950 . S
C2303 C2302 1.327 . S
C2303 C2307 1.429 . S
C2304 C2287 1.574 . S
C2304 H2298 0.949 . S
C2304 C2308 1.368 . S
C2305 C2286 1.429 . S
C2305 C2299 1.429 . S
C2305 C2306 1.523 . S
C2306 C2287 1.368 . S
C2306 C2300 1.368 . S
C2306 C2305 1.523 . S
C2307 C2291 1.429 . S
C2307 C2303 1.429 . S
C2307 C2308 1.523 . S
C2308 C2292 1.368 . S
C2308 C2304 1.368 . S
C2308 C2307 1.523 . S
H2309 C2284 0.950 . S
H2310 C2286 0.950 . S
H2311 C2287 0.949 . S
H2312 C2289 0.950 . S
H2313 C2291 0.950 . S
C2314 C2315 1.349 . S
C2314 C2316 1.327 . S
C2314 H2339 0.950 . S
C2315 C2314 1.349 . S
C2315 C2331 1.349 . S
C2316 C2314 1.327 . S
C2316 C2335 1.429 . S
C2316 H2340 0.950 . S
C2317 C2334 1.574 . S
C2317 C2336 1.368 . S
C2317 H2341 0.949 . S
H2318 C2322 0.949 . S
C2319 C2320 1.349 . S
C2319 C2321 1.327 . S
C2319 H2342 0.950 . S
C2320 C2319 1.349 . S
C2320 C2332 1.349 . S
C2321 C2319 1.327 . S
C2321 C2337 1.429 . S
C2321 H2343 0.950 . S
C2322 H2318 0.949 . S
C2322 C2330 1.574 . S
C2322 C2338 1.368 . S
H2323 C2331 0.950 . S
H2324 C2329 0.950 . S
H2325 C2330 0.949 . S
H2326 C2332 0.950 . S
H2327 C2333 0.950 . S
H2328 C2334 0.949 . S
C2329 H2324 0.950 . S
C2329 C2331 1.327 . S
C2329 C2335 1.429 . S
C2330 C2322 1.574 . S
C2330 H2325 0.949 . S
C2330 C2336 1.368 . S
C2331 C2315 1.349 . S
C2331 H2323 0.950 . S
C2331 C2329 1.327 . S
C2332 C2320 1.349 . S
C2332 H2326 0.950 . S
C2332 C2333 1.327 . S
C2333 H2327 0.950 . S
C2333 C2332 1.327 . S
C2333 C2337 1.429 . S
C2334 C2317 1.574 . S
C2334 H2328 0.949 . S
C2334 C2338 1.368 . S
C2335 C2316 1.429 . S
C2335 C2329 1.429 . S
C2335 C2336 1.523 . S
C2336 C2317 1.368 . S
C2336 C2330 1.368 . S
C2336 C2335 1.523 . S
C2337 C2321 1.429 . S
C2337 C2333 1.429 . S
C2337 C2338 1.523 . S
C2338 C2322 1.368 . S
C2338 C2334 1.368 . S
C2338 C2337 1.523 . S
H2339 C2314 0.950 . S
H2340 C2316 0.950 . S
H2341 C2317 0.949 . S
H2342 C2319 0.950 . S
H2343 C2321 0.950 . S
C2344 C2345 1.349 . S
C2344 C2346 1.327 . S
C2344 H2369 0.950 . S
C2345 C2344 1.349 . S
C2345 C2361 1.349 . S
C2346 C2344 1.327 . S
C2346 C2365 1.429 . S
C2346 H2370 0.950 . S
C2347 C2364 1.574 . S
C2347 C2366 1.368 . S
C2347 H2371 0.949 . S
H2348 C2352 0.949 . S
C2349 C2350 1.349 . S
C2349 C2351 1.327 . S
C2349 H2372 0.950 . S
C2350 C2349 1.349 . S
C2350 C2362 1.349 . S
C2351 C2349 1.327 . S
C2351 C2367 1.429 . S
C2351 H2373 0.950 . S
C2352 H2348 0.949 . S
C2352 C2360 1.574 . S
C2352 C2368 1.368 . S
H2353 C2361 0.950 . S
H2354 C2359 0.950 . S
H2355 C2360 0.949 . S
H2356 C2362 0.950 . S
H2357 C2363 0.950 . S
H2358 C2364 0.949 . S
C2359 H2354 0.950 . S
C2359 C2361 1.327 . S
C2359 C2365 1.429 . S
C2360 C2352 1.574 . S
C2360 H2355 0.949 . S
C2360 C2366 1.368 . S
C2361 C2345 1.349 . S
C2361 H2353 0.950 . S
C2361 C2359 1.327 . S
C2362 C2350 1.349 . S
C2362 H2356 0.950 . S
C2362 C2363 1.327 . S
C2363 H2357 0.950 . S
C2363 C2362 1.327 . S
C2363 C2367 1.429 . S
C2364 C2347 1.574 . S
C2364 H2358 0.949 . S
C2364 C2368 1.368 . S
C2365 C2346 1.429 . S
C2365 C2359 1.429 . S
C2365 C2366 1.523 . S
C2366 C2347 1.368 . S
C2366 C2360 1.368 . S
C2366 C2365 1.523 . S
C2367 C2351 1.429 . S
C2367 C2363 1.429 . S
C2367 C2368 1.523 . S
C2368 C2352 1.368 . S
C2368 C2364 1.368 . S
C2368 C2367 1.523 . S
H2369 C2344 0.950 . S
H2370 C2346 0.950 . S
H2371 C2347 0.949 . S
H2372 C2349 0.950 . S
H2373 C2351 0.950 . S
C2374 C2375 1.349 . S
C2374 C2376 1.327 . S
C2374 H2399 0.950 . S
C2375 C2374 1.349 . S
C2375 C2391 1.349 . S
C2376 C2374 1.327 . S
C2376 C2395 1.429 . S
C2376 H2400 0.950 . S
C2377 C2394 1.574 . S
C2377 C2396 1.368 . S
C2377 H2401 0.949 . S
H2378 C2382 0.949 . S
C2379 C2380 1.349 . S
C2379 C2381 1.327 . S
C2379 H2402 0.950 . S
C2380 C2379 1.349 . S
C2380 C2392 1.349 . S
C2381 C2379 1.327 . S
C2381 C2397 1.429 . S
C2381 H2403 0.950 . S
C2382 H2378 0.949 . S
C2382 C2390 1.574 . S
C2382 C2398 1.368 . S
H2383 C2391 0.950 . S
H2384 C2389 0.950 . S
H2385 C2390 0.949 . S
H2386 C2392 0.950 . S
H2387 C2393 0.950 . S
H2388 C2394 0.949 . S
C2389 H2384 0.950 . S
C2389 C2391 1.327 . S
C2389 C2395 1.429 . S
C2390 C2382 1.574 . S
C2390 H2385 0.949 . S
C2390 C2396 1.368 . S
C2391 C2375 1.349 . S
C2391 H2383 0.950 . S
C2391 C2389 1.327 . S
C2392 C2380 1.349 . S
C2392 H2386 0.950 . S
C2392 C2393 1.327 . S
C2393 H2387 0.950 . S
C2393 C2392 1.327 . S
C2393 C2397 1.429 . S
C2394 C2377 1.574 . S
C2394 H2388 0.949 . S
C2394 C2398 1.368 . S
C2395 C2376 1.429 . S
C2395 C2389 1.429 . S
C2395 C2396 1.523 . S
C2396 C2377 1.368 . S
C2396 C2390 1.368 . S
C2396 C2395 1.523 . S
C2397 C2381 1.429 . S
C2397 C2393 1.429 . S
C2397 C2398 1.523 . S
C2398 C2382 1.368 . S
C2398 C2394 1.368 . S
C2398 C2397 1.523 . S
H2399 C2374 0.950 . S
H2400 C2376 0.950 . S
H2401 C2377 0.949 . S
H2402 C2379 0.950 . S
H2403 C2381 0.950 . S
C2404 C2405 1.349 . S
C2404 C2406 1.327 . S
C2404 H2429 0.950 . S
C2405 C2404 1.349 . S
C2405 C2421 1.349 . S
C2406 C2404 1.327 . S
C2406 C2425 1.429 . S
C2406 H2430 0.950 . S
C2407 C2424 1.574 . S
C2407 C2426 1.368 . S
C2407 H2431 0.949 . S
H2408 C2412 0.949 . S
C2409 C2410 1.349 . S
C2409 C2411 1.327 . S
C2409 H2432 0.950 . S
C2410 C2409 1.349 . S
C2410 C2422 1.349 . S
C2411 C2409 1.327 . S
C2411 C2427 1.429 . S
C2411 H2433 0.950 . S
C2412 H2408 0.949 . S
C2412 C2420 1.574 . S
C2412 C2428 1.368 . S
H2413 C2421 0.950 . S
H2414 C2419 0.950 . S
H2415 C2420 0.949 . S
H2416 C2422 0.950 . S
H2417 C2423 0.950 . S
H2418 C2424 0.949 . S
C2419 H2414 0.950 . S
C2419 C2421 1.327 . S
C2419 C2425 1.429 . S
C2420 C2412 1.574 . S
C2420 H2415 0.949 . S
C2420 C2426 1.368 . S
C2421 C2405 1.349 . S
C2421 H2413 0.950 . S
C2421 C2419 1.327 . S
C2422 C2410 1.349 . S
C2422 H2416 0.950 . S
C2422 C2423 1.327 . S
C2423 H2417 0.950 . S
C2423 C2422 1.327 . S
C2423 C2427 1.429 . S
C2424 C2407 1.574 . S
C2424 H2418 0.949 . S
C2424 C2428 1.368 . S
C2425 C2406 1.429 . S
C2425 C2419 1.429 . S
C2425 C2426 1.523 . S
C2426 C2407 1.368 . S
C2426 C2420 1.368 . S
C2426 C2425 1.523 . S
C2427 C2411 1.429 . S
C2427 C2423 1.429 . S
C2427 C2428 1.523 . S
C2428 C2412 1.368 . S
C2428 C2424 1.368 . S
C2428 C2427 1.523 . S
H2429 C2404 0.950 . S
H2430 C2406 0.950 . S
H2431 C2407 0.949 . S
H2432 C2409 0.950 . S
H2433 C2411 0.950 . S
C2434 C2435 1.349 . S
C2434 C2436 1.327 . S
C2434 H2459 0.950 . S
C2435 C2434 1.349 . S
C2435 C2451 1.349 . S
C2436 C2434 1.327 . S
C2436 C2455 1.429 . S
C2436 H2460 0.950 . S
C2437 C2454 1.574 . S
C2437 C2456 1.368 . S
C2437 H2461 0.949 . S
H2438 C2442 0.949 . S
C2439 C2440 1.349 . S
C2439 C2441 1.327 . S
C2439 H2462 0.950 . S
C2440 C2439 1.349 . S
C2440 C2452 1.349 . S
C2441 C2439 1.327 . S
C2441 C2457 1.429 . S
C2441 H2463 0.950 . S
C2442 H2438 0.949 . S
C2442 C2450 1.574 . S
C2442 C2458 1.368 . S
H2443 C2451 0.950 . S
H2444 C2449 0.950 . S
H2445 C2450 0.949 . S
H2446 C2452 0.950 . S
H2447 C2453 0.950 . S
H2448 C2454 0.949 . S
C2449 H2444 0.950 . S
C2449 C2451 1.327 . S
C2449 C2455 1.429 . S
C2450 C2442 1.574 . S
C2450 H2445 0.949 . S
C2450 C2456 1.368 . S
C2451 C2435 1.349 . S
C2451 H2443 0.950 . S
C2451 C2449 1.327 . S
C2452 C2440 1.349 . S
C2452 H2446 0.950 . S
C2452 C2453 1.327 . S
C2453 H2447 0.950 . S
C2453 C2452 1.327 . S
C2453 C2457 1.429 . S
C2454 C2437 1.574 . S
C2454 H2448 0.949 . S
C2454 C2458 1.368 . S
C2455 C2436 1.429 . S
C2455 C2449 1.429 . S
C2455 C2456 1.523 . S
C2456 C2437 1.368 . S
C2456 C2450 1.368 . S
C2456 C2455 1.523 . S
C2457 C2441 1.429 . S
C2457 C2453 1.429 . S
C2457 C2458 1.523 . S
C2458 C2442 1.368 . S
C2458 C2454 1.368 . S
C2458 C2457 1.523 . S
H2459 C2434 0.950 . S
H2460 C2436 0.950 . S
H2461 C2437 0.949 . S
H2462 C2439 0.950 . S
H2463 C2441 0.950 . S
C2464 C2465 1.349 . S
C2464 C2466 1.327 . S
C2464 H2489 0.950 . S
C2465 C2464 1.349 . S
C2465 C2481 1.349 . S
C2466 C2464 1.327 . S
C2466 C2485 1.429 . S
C2466 H2490 0.950 . S
C2467 C2484 1.574 . S
C2467 C2486 1.368 . S
C2467 H2491 0.949 . S
H2468 C2472 0.949 . S
C2469 C2470 1.349 . S
C2469 C2471 1.327 . S
C2469 H2492 0.950 . S
C2470 C2469 1.349 . S
C2470 C2482 1.349 . S
C2471 C2469 1.327 . S
C2471 C2487 1.429 . S
C2471 H2493 0.950 . S
C2472 H2468 0.949 . S
C2472 C2480 1.574 . S
C2472 C2488 1.368 . S
H2473 C2481 0.950 . S
H2474 C2479 0.950 . S
H2475 C2480 0.949 . S
H2476 C2482 0.950 . S
H2477 C2483 0.950 . S
H2478 C2484 0.949 . S
C2479 H2474 0.950 . S
C2479 C2481 1.327 . S
C2479 C2485 1.429 . S
C2480 C2472 1.574 . S
C2480 H2475 0.949 . S
C2480 C2486 1.368 . S
C2481 C2465 1.349 . S
C2481 H2473 0.950 . S
C2481 C2479 1.327 . S
C2482 C2470 1.349 . S
C2482 H2476 0.950 . S
C2482 C2483 1.327 . S
C2483 H2477 0.950 . S
C2483 C2482 1.327 . S
C2483 C2487 1.429 . S
C2484 C2467 1.574 . S
C2484 H2478 0.949 . S
C2484 C2488 1.368 . S
C2485 C2466 1.429 . S
C2485 C2479 1.429 . S
C2485 C2486 1.523 . S
C2486 C2467 1.368 . S
C2486 C2480 1.368 . S
C2486 C2485 1.523 . S
C2487 C2471 1.429 . S
C2487 C2483 1.429 . S
C2487 C2488 1.523 . S
C2488 C2472 1.368 . S
C2488 C2484 1.368 . S
C2488 C2487 1.523 . S
H2489 C2464 0.950 . S
H2490 C2466 0.950 . S
H2491 C2467 0.949 . S
H2492 C2469 0.950 . S
H2493 C2471 0.950 . S
C2494 C2495 1.349 . S
C2494 C2496 1.327 . S
C2494 H2519 0.950 . S
C2495 C2494 1.349 . S
C2495 C2511 1.349 . S
C2496 C2494 1.327 . S
C2496 C2515 1.429 . S
C2496 H2520 0.950 . S
C2497 C2514 1.574 . S
C2497 C2516 1.368 . S
C2497 H2521 0.949 . S
H2498 C2502 0.949 . S
C2499 C2500 1.349 . S
C2499 C2501 1.327 . S
C2499 H2522 0.950 . S
C2500 C2499 1.349 . S
C2500 C2512 1.349 . S
C2501 C2499 1.327 . S
C2501 C2517 1.429 . S
C2501 H2523 0.950 . S
C2502 H2498 0.949 . S
C2502 C2510 1.574 . S
C2502 C2518 1.368 . S
H2503 C2511 0.950 . S
H2504 C2509 0.950 . S
H2505 C2510 0.949 . S
H2506 C2512 0.950 . S
H2507 C2513 0.950 . S
H2508 C2514 0.949 . S
C2509 H2504 0.950 . S
C2509 C2511 1.327 . S
C2509 C2515 1.429 . S
C2510 C2502 1.574 . S
C2510 H2505 0.949 . S
C2510 C2516 1.368 . S
C2511 C2495 1.349 . S
C2511 H2503 0.950 . S
C2511 C2509 1.327 . S
C2512 C2500 1.349 . S
C2512 H2506 0.950 . S
C2512 C2513 1.327 . S
C2513 H2507 0.950 . S
C2513 C2512 1.327 . S
C2513 C2517 1.429 . S
C2514 C2497 1.574 . S
C2514 H2508 0.949 . S
C2514 C2518 1.368 . S
C2515 C2496 1.429 . S
C2515 C2509 1.429 . S
C2515 C2516 1.523 . S
C2516 C2497 1.368 . S
C2516 C2510 1.368 . S
C2516 C2515 1.523 . S
C2517 C2501 1.429 . S
C2517 C2513 1.429 . S
C2517 C2518 1.523 . S
C2518 C2502 1.368 . S
C2518 C2514 1.368 . S
C2518 C2517 1.523 . S
H2519 C2494 0.950 . S
H2520 C2496 0.950 . S
H2521 C2497 0.949 . S
H2522 C2499 0.950 . S
H2523 C2501 0.950 . S
C2524 C2525 1.349 . S
C2524 C2526 1.327 . S
C2524 H2549 0.950 . S
C2525 C2524 1.349 . S
C2525 C2541 1.349 . S
C2526 C2524 1.327 . S
C2526 C2545 1.429 . S
C2526 H2550 0.950 . S
C2527 C2544 1.574 . S
C2527 C2546 1.368 . S
C2527 H2551 0.949 . S
H2528 C2532 0.949 . S
C2529 C2530 1.296 1_655 S
C2529 C2531 1.408 . S
C2529 H2552 0.929 1_655 S
C2530 C2529 1.296 1_455 S
C2530 C2542 1.374 . S
C2531 C2529 1.408 . S
C2531 C2547 1.429 . S
C2531 H2553 0.950 . S
C2532 H2528 0.949 . S
C2532 C2540 1.574 . S
C2532 C2548 1.368 . S
H2533 C2541 0.950 . S
H2534 C2539 0.950 . S
H2535 C2540 0.949 . S
H2536 C2542 1.004 . S
H2537 C2543 0.950 . S
H2538 C2544 0.949 . S
C2539 H2534 0.950 . S
C2539 C2541 1.327 . S
C2539 C2545 1.429 . S
C2540 C2532 1.574 . S
C2540 H2535 0.949 . S
C2540 C2546 1.368 . S
C2541 C2525 1.349 . S
C2541 H2533 0.950 . S
C2541 C2539 1.327 . S
C2542 C2530 1.374 . S
C2542 H2536 1.004 . S
C2542 C2543 1.254 1_455 S
C2543 H2537 0.950 . S
C2543 C2542 1.254 1_655 S
C2543 C2547 1.429 . S
C2544 C2527 1.574 . S
C2544 H2538 0.949 . S
C2544 C2548 1.368 . S
C2545 C2526 1.429 . S
C2545 C2539 1.429 . S
C2545 C2546 1.523 . S
C2546 C2527 1.368 . S
C2546 C2540 1.368 . S
C2546 C2545 1.523 . S
C2547 C2531 1.429 . S
C2547 C2543 1.429 . S
C2547 C2548 1.523 . S
C2548 C2532 1.368 . S
C2548 C2544 1.368 . S
C2548 C2547 1.523 . S
H2549 C2524 0.950 . S
H2550 C2526 0.950 . S
H2551 C2527 0.949 . S
H2552 C2529 0.929 1_455 S
H2553 C2531 0.950 . S
C2554 C2555 1.349 . S
C2554 C2556 1.327 . S
C2554 H2579 0.950 . S
C2555 C2554 1.349 . S
C2555 C2571 1.349 . S
C2556 C2554 1.327 . S
C2556 C2575 1.429 . S
C2556 H2580 0.950 . S
C2557 C2574 1.574 . S
C2557 C2576 1.368 . S
C2557 H2581 0.949 . S
H2558 C2562 0.949 . S
C2559 C2560 1.349 . S
C2559 C2561 1.327 . S
C2559 H2582 0.950 . S
C2560 C2559 1.349 . S
C2560 C2572 1.349 . S
C2561 C2559 1.327 . S
C2561 C2577 1.429 . S
C2561 H2583 0.950 . S
C2562 H2558 0.949 . S
C2562 C2570 1.574 . S
C2562 C2578 1.368 . S
H2563 C2571 0.950 . S
H2564 C2569 0.950 . S
H2565 C2570 0.949 . S
H2566 C2572 0.950 . S
H2567 C2573 0.950 . S
H2568 C2574 0.949 . S
C2569 H2564 0.950 . S
C2569 C2571 1.327 . S
C2569 C2575 1.429 . S
C2570 C2562 1.574 . S
C2570 H2565 0.949 . S
C2570 C2576 1.368 . S
C2571 C2555 1.349 . S
C2571 H2563 0.950 . S
C2571 C2569 1.327 . S
C2572 C2560 1.349 . S
C2572 H2566 0.950 . S
C2572 C2573 1.327 . S
C2573 H2567 0.950 . S
C2573 C2572 1.327 . S
C2573 C2577 1.429 . S
C2574 C2557 1.574 . S
C2574 H2568 0.949 . S
C2574 C2578 1.368 . S
C2575 C2556 1.429 . S
C2575 C2569 1.429 . S
C2575 C2576 1.523 . S
C2576 C2557 1.368 . S
C2576 C2570 1.368 . S
C2576 C2575 1.523 . S
C2577 C2561 1.429 . S
C2577 C2573 1.429 . S
C2577 C2578 1.523 . S
C2578 C2562 1.368 . S
C2578 C2574 1.368 . S
C2578 C2577 1.523 . S
H2579 C2554 0.950 . S
H2580 C2556 0.950 . S
H2581 C2557 0.949 . S
H2582 C2559 0.950 . S
H2583 C2561 0.950 . S
C2584 C2585 1.349 . S
C2584 C2586 1.327 . S
C2584 H2609 0.950 . S
C2585 C2584 1.349 . S
C2585 C2601 1.349 . S
C2586 C2584 1.327 . S
C2586 C2605 1.429 . S
C2586 H2610 0.950 . S
C2587 C2604 1.574 . S
C2587 C2606 1.368 . S
C2587 H2611 0.949 . S
H2588 C2592 0.949 . S
C2589 C2590 1.349 . S
C2589 C2591 1.327 . S
C2589 H2612 0.950 . S
C2590 C2589 1.349 . S
C2590 C2602 1.349 . S
C2591 C2589 1.327 . S
C2591 C2607 1.429 . S
C2591 H2613 0.950 . S
C2592 H2588 0.949 . S
C2592 C2600 1.574 . S
C2592 C2608 1.368 . S
H2593 C2601 0.950 . S
H2594 C2599 0.950 . S
H2595 C2600 0.949 . S
H2596 C2602 0.950 . S
H2597 C2603 0.950 . S
H2598 C2604 0.949 . S
C2599 H2594 0.950 . S
C2599 C2601 1.327 . S
C2599 C2605 1.429 . S
C2600 C2592 1.574 . S
C2600 H2595 0.949 . S
C2600 C2606 1.368 . S
C2601 C2585 1.349 . S
C2601 H2593 0.950 . S
C2601 C2599 1.327 . S
C2602 C2590 1.349 . S
C2602 H2596 0.950 . S
C2602 C2603 1.327 . S
C2603 H2597 0.950 . S
C2603 C2602 1.327 . S
C2603 C2607 1.429 . S
C2604 C2587 1.574 . S
C2604 H2598 0.949 . S
C2604 C2608 1.368 . S
C2605 C2586 1.429 . S
C2605 C2599 1.429 . S
C2605 C2606 1.523 . S
C2606 C2587 1.368 . S
C2606 C2600 1.368 . S
C2606 C2605 1.523 . S
C2607 C2591 1.429 . S
C2607 C2603 1.429 . S
C2607 C2608 1.523 . S
C2608 C2592 1.368 . S
C2608 C2604 1.368 . S
C2608 C2607 1.523 . S
H2609 C2584 0.950 . S
H2610 C2586 0.950 . S
H2611 C2587 0.949 . S
H2612 C2589 0.950 . S
H2613 C2591 0.950 . S
C2614 C2615 1.349 . S
C2614 C2616 1.327 . S
C2614 H2639 0.950 . S
C2615 C2614 1.349 . S
C2615 C2631 1.349 . S
C2616 C2614 1.327 . S
C2616 C2635 1.429 . S
C2616 H2640 0.950 . S
C2617 C2634 1.574 . S
C2617 C2636 1.368 . S
C2617 H2641 0.949 . S
H2618 C2622 0.949 . S
C2619 C2620 1.349 . S
C2619 C2621 1.327 . S
C2619 H2642 0.950 . S
C2620 C2619 1.349 . S
C2620 C2632 1.349 . S
C2621 C2619 1.327 . S
C2621 C2637 1.429 . S
C2621 H2643 0.950 . S
C2622 H2618 0.949 . S
C2622 C2630 1.574 . S
C2622 C2638 1.368 . S
H2623 C2631 0.950 . S
H2624 C2629 0.950 . S
H2625 C2630 0.949 . S
H2626 C2632 0.950 . S
H2627 C2633 0.950 . S
H2628 C2634 0.949 . S
C2629 H2624 0.950 . S
C2629 C2631 1.327 . S
C2629 C2635 1.429 . S
C2630 C2622 1.574 . S
C2630 H2625 0.949 . S
C2630 C2636 1.368 . S
C2631 C2615 1.349 . S
C2631 H2623 0.950 . S
C2631 C2629 1.327 . S
C2632 C2620 1.349 . S
C2632 H2626 0.950 . S
C2632 C2633 1.327 . S
C2633 H2627 0.950 . S
C2633 C2632 1.327 . S
C2633 C2637 1.429 . S
C2634 C2617 1.574 . S
C2634 H2628 0.949 . S
C2634 C2638 1.368 . S
C2635 C2616 1.429 . S
C2635 C2629 1.429 . S
C2635 C2636 1.523 . S
C2636 C2617 1.368 . S
C2636 C2630 1.368 . S
C2636 C2635 1.523 . S
C2637 C2621 1.429 . S
C2637 C2633 1.429 . S
C2637 C2638 1.523 . S
C2638 C2622 1.368 . S
C2638 C2634 1.368 . S
C2638 C2637 1.523 . S
H2639 C2614 0.950 . S
H2640 C2616 0.950 . S
H2641 C2617 0.949 . S
H2642 C2619 0.950 . S
H2643 C2621 0.950 . S
C2644 C2645 1.349 . S
C2644 C2646 1.327 . S
C2644 H2669 0.950 . S
C2645 C2644 1.349 . S
C2645 C2661 1.349 . S
C2646 C2644 1.327 . S
C2646 C2665 1.429 . S
C2646 H2670 0.950 . S
C2647 C2664 1.574 . S
C2647 C2666 1.368 . S
C2647 H2671 0.949 . S
H2648 C2652 0.949 . S
C2649 C2650 1.349 . S
C2649 C2651 1.327 . S
C2649 H2672 0.948 . S
C2650 C2649 1.349 . S
C2650 C2662 1.349 . S
C2651 C2649 1.327 . S
C2651 C2667 1.429 . S
C2651 H2673 0.950 . S
C2652 H2648 0.949 . S
C2652 C2660 1.574 . S
C2652 C2668 1.368 . S
H2653 C2661 0.950 . S
H2654 C2659 0.950 . S
H2655 C2660 0.949 . S
H2656 C2662 0.950 . S
H2657 C2663 0.950 . S
H2658 C2664 0.949 . S
C2659 H2654 0.950 . S
C2659 C2661 1.327 . S
C2659 C2665 1.429 . S
C2660 C2652 1.574 . S
C2660 H2655 0.949 . S
C2660 C2666 1.368 . S
C2661 C2645 1.349 . S
C2661 H2653 0.950 . S
C2661 C2659 1.327 . S
C2662 C2650 1.349 . S
C2662 H2656 0.950 . S
C2662 C2663 1.327 . S
C2663 H2657 0.950 . S
C2663 C2662 1.327 . S
C2663 C2667 1.429 . S
C2664 C2647 1.574 . S
C2664 H2658 0.949 . S
C2664 C2668 1.368 . S
C2665 C2646 1.429 . S
C2665 C2659 1.429 . S
C2665 C2666 1.523 . S
C2666 C2647 1.368 . S
C2666 C2660 1.368 . S
C2666 C2665 1.523 . S
C2667 C2651 1.429 . S
C2667 C2663 1.429 . S
C2667 C2668 1.523 . S
C2668 C2652 1.368 . S
C2668 C2664 1.368 . S
C2668 C2667 1.523 . S
H2669 C2644 0.950 . S
H2670 C2646 0.950 . S
H2671 C2647 0.949 . S
H2672 C2649 0.948 . S
H2673 C2651 0.950 . S
C2674 C2675 1.349 . S
C2674 C2676 1.327 . S
C2674 H2699 0.950 . S
C2675 C2674 1.349 . S
C2675 C2691 1.349 . S
C2676 C2674 1.327 . S
C2676 C2695 1.429 . S
C2676 H2700 0.950 . S
C2677 C2694 1.574 . S
C2677 C2696 1.368 . S
C2677 H2701 0.949 . S
H2678 C2682 0.949 . S
C2679 C2680 1.349 . S
C2679 C2681 1.327 . S
C2679 H2702 0.950 . S
C2680 C2679 1.349 . S
C2680 C2692 1.349 . S
C2681 C2679 1.327 . S
C2681 C2697 1.429 . S
C2681 H2703 0.950 . S
C2682 H2678 0.949 . S
C2682 C2690 1.574 . S
C2682 C2698 1.368 . S
H2683 C2691 0.950 . S
H2684 C2689 0.950 . S
H2685 C2690 0.949 . S
H2686 C2692 0.950 . S
H2687 C2693 0.950 . S
H2688 C2694 0.949 . S
C2689 H2684 0.950 . S
C2689 C2691 1.327 . S
C2689 C2695 1.429 . S
C2690 C2682 1.574 . S
C2690 H2685 0.949 . S
C2690 C2696 1.368 . S
C2691 C2675 1.349 . S
C2691 H2683 0.950 . S
C2691 C2689 1.327 . S
C2692 C2680 1.349 . S
C2692 H2686 0.950 . S
C2692 C2693 1.327 . S
C2693 H2687 0.950 . S
C2693 C2692 1.327 . S
C2693 C2697 1.429 . S
C2694 C2677 1.574 . S
C2694 H2688 0.949 . S
C2694 C2698 1.368 . S
C2695 C2676 1.429 . S
C2695 C2689 1.429 . S
C2695 C2696 1.523 . S
C2696 C2677 1.368 . S
C2696 C2690 1.368 . S
C2696 C2695 1.523 . S
C2697 C2681 1.429 . S
C2697 C2693 1.429 . S
C2697 C2698 1.523 . S
C2698 C2682 1.368 . S
C2698 C2694 1.368 . S
C2698 C2697 1.523 . S
H2699 C2674 0.950 . S
H2700 C2676 0.950 . S
H2701 C2677 0.949 . S
H2702 C2679 0.950 . S
H2703 C2681 0.950 . S
C2704 C2705 1.349 . S
C2704 C2706 1.327 . S
C2704 H2729 0.950 . S
C2705 C2704 1.349 . S
C2705 C2721 1.349 . S
C2706 C2704 1.327 . S
C2706 C2725 1.429 . S
C2706 H2730 0.950 . S
C2707 C2724 1.574 . S
C2707 C2726 1.368 . S
C2707 H2731 0.949 . S
H2708 C2712 0.949 . S
C2709 C2710 1.349 . S
C2709 C2711 1.327 . S
C2709 H2732 0.950 . S
C2710 C2709 1.349 . S
C2710 C2722 1.349 . S
C2711 C2709 1.327 . S
C2711 C2727 1.429 . S
C2711 H2733 0.950 . S
C2712 H2708 0.949 . S
C2712 C2720 1.574 . S
C2712 C2728 1.368 . S
H2713 C2721 0.950 . S
H2714 C2719 0.950 . S
H2715 C2720 0.949 . S
H2716 C2722 0.950 . S
H2717 C2723 0.950 . S
H2718 C2724 0.949 . S
C2719 H2714 0.950 . S
C2719 C2721 1.327 . S
C2719 C2725 1.429 . S
C2720 C2712 1.574 . S
C2720 H2715 0.949 . S
C2720 C2726 1.368 . S
C2721 C2705 1.349 . S
C2721 H2713 0.950 . S
C2721 C2719 1.327 . S
C2722 C2710 1.349 . S
C2722 H2716 0.950 . S
C2722 C2723 1.327 . S
C2723 H2717 0.950 . S
C2723 C2722 1.327 . S
C2723 C2727 1.429 . S
C2724 C2707 1.574 . S
C2724 H2718 0.949 . S
C2724 C2728 1.368 . S
C2725 C2706 1.429 . S
C2725 C2719 1.429 . S
C2725 C2726 1.523 . S
C2726 C2707 1.368 . S
C2726 C2720 1.368 . S
C2726 C2725 1.523 . S
C2727 C2711 1.429 . S
C2727 C2723 1.429 . S
C2727 C2728 1.523 . S
C2728 C2712 1.368 . S
C2728 C2724 1.368 . S
C2728 C2727 1.523 . S
H2729 C2704 0.950 . S
H2730 C2706 0.950 . S
H2731 C2707 0.949 . S
H2732 C2709 0.950 . S
H2733 C2711 0.950 . S
C2734 C2735 1.349 . S
C2734 C2736 1.327 . S
C2734 H2759 0.950 . S
C2735 C2734 1.349 . S
C2735 C2751 1.349 . S
C2736 C2734 1.327 . S
C2736 C2755 1.429 . S
C2736 H2760 0.950 . S
C2737 C2754 1.574 . S
C2737 C2756 1.368 . S
C2737 H2761 0.949 . S
H2738 C2742 0.949 . S
C2739 C2740 1.349 . S
C2739 C2741 1.327 . S
C2739 H2762 0.950 . S
C2740 C2739 1.349 . S
C2740 C2752 1.349 . S
C2741 C2739 1.327 . S
C2741 C2757 1.429 . S
C2741 H2763 0.950 . S
C2742 H2738 0.949 . S
C2742 C2750 1.574 . S
C2742 C2758 1.368 . S
H2743 C2751 0.950 . S
H2744 C2749 0.950 . S
H2745 C2750 0.949 . S
H2746 C2752 0.950 . S
H2747 C2753 0.950 . S
H2748 C2754 0.949 . S
C2749 H2744 0.950 . S
C2749 C2751 1.327 . S
C2749 C2755 1.429 . S
C2750 C2742 1.574 . S
C2750 H2745 0.949 . S
C2750 C2756 1.368 . S
C2751 C2735 1.349 . S
C2751 H2743 0.950 . S
C2751 C2749 1.327 . S
C2752 C2740 1.349 . S
C2752 H2746 0.950 . S
C2752 C2753 1.327 . S
C2753 H2747 0.950 . S
C2753 C2752 1.327 . S
C2753 C2757 1.429 . S
C2754 C2737 1.574 . S
C2754 H2748 0.949 . S
C2754 C2758 1.368 . S
C2755 C2736 1.429 . S
C2755 C2749 1.429 . S
C2755 C2756 1.523 . S
C2756 C2737 1.368 . S
C2756 C2750 1.368 . S
C2756 C2755 1.523 . S
C2757 C2741 1.429 . S
C2757 C2753 1.429 . S
C2757 C2758 1.523 . S
C2758 C2742 1.368 . S
C2758 C2754 1.368 . S
C2758 C2757 1.523 . S
H2759 C2734 0.950 . S
H2760 C2736 0.950 . S
H2761 C2737 0.949 . S
H2762 C2739 0.950 . S
H2763 C2741 0.950 . S
C2764 C2765 1.349 . S
C2764 C2766 1.327 . S
C2764 H2789 0.950 . S
C2765 C2764 1.349 . S
C2765 C2781 1.349 . S
C2766 C2764 1.327 . S
C2766 C2785 1.429 . S
C2766 H2790 0.950 . S
C2767 C2784 1.574 . S
C2767 C2786 1.368 . S
C2767 H2791 0.949 . S
H2768 C2772 0.949 . S
C2769 C2770 1.349 . S
C2769 C2771 1.327 . S
C2769 H2792 0.950 . S
C2770 C2769 1.349 . S
C2770 C2782 1.349 . S
C2771 C2769 1.327 . S
C2771 C2787 1.429 . S
C2771 H2793 0.950 . S
C2772 H2768 0.949 . S
C2772 C2780 1.574 . S
C2772 C2788 1.368 . S
H2773 C2781 0.950 . S
H2774 C2779 0.950 . S
H2775 C2780 0.949 . S
H2776 C2782 0.950 . S
H2777 C2783 0.950 . S
H2778 C2784 0.949 . S
C2779 H2774 0.950 . S
C2779 C2781 1.327 . S
C2779 C2785 1.429 . S
C2780 C2772 1.574 . S
C2780 H2775 0.949 . S
C2780 C2786 1.368 . S
C2781 C2765 1.349 . S
C2781 H2773 0.950 . S
C2781 C2779 1.327 . S
C2782 C2770 1.349 . S
C2782 H2776 0.950 . S
C2782 C2783 1.327 . S
C2783 H2777 0.950 . S
C2783 C2782 1.327 . S
C2783 C2787 1.429 . S
C2784 C2767 1.574 . S
C2784 H2778 0.949 . S
C2784 C2788 1.368 . S
C2785 C2766 1.429 . S
C2785 C2779 1.429 . S
C2785 C2786 1.523 . S
C2786 C2767 1.368 . S
C2786 C2780 1.368 . S
C2786 C2785 1.523 . S
C2787 C2771 1.429 . S
C2787 C2783 1.429 . S
C2787 C2788 1.523 . S
C2788 C2772 1.368 . S
C2788 C2784 1.368 . S
C2788 C2787 1.523 . S
H2789 C2764 0.950 . S
H2790 C2766 0.950 . S
H2791 C2767 0.949 . S
H2792 C2769 0.950 . S
H2793 C2771 0.950 . S
C2794 C2795 1.349 . S
C2794 C2796 1.327 . S
C2794 H2819 0.950 . S
C2795 C2794 1.349 . S
C2795 C2811 1.349 . S
C2796 C2794 1.327 . S
C2796 C2815 1.429 . S
C2796 H2820 0.950 . S
C2797 C2814 1.574 . S
C2797 C2816 1.368 . S
C2797 H2821 0.949 . S
H2798 C2802 0.949 . S
C2799 C2800 1.349 . S
C2799 C2801 1.327 . S
C2799 H2822 0.950 . S
C2800 C2799 1.349 . S
C2800 C2812 1.349 . S
C2801 C2799 1.327 . S
C2801 C2817 1.429 . S
C2801 H2823 0.950 . S
C2802 H2798 0.949 . S
C2802 C2810 1.574 . S
C2802 C2818 1.368 . S
H2803 C2811 0.950 . S
H2804 C2809 0.950 . S
H2805 C2810 0.949 . S
H2806 C2812 0.950 . S
H2807 C2813 0.950 . S
H2808 C2814 0.949 . S
C2809 H2804 0.950 . S
C2809 C2811 1.327 . S
C2809 C2815 1.429 . S
C2810 C2802 1.574 . S
C2810 H2805 0.949 . S
C2810 C2816 1.368 . S
C2811 C2795 1.349 . S
C2811 H2803 0.950 . S
C2811 C2809 1.327 . S
C2812 C2800 1.349 . S
C2812 H2806 0.950 . S
C2812 C2813 1.327 . S
C2813 H2807 0.950 . S
C2813 C2812 1.327 . S
C2813 C2817 1.429 . S
C2814 C2797 1.574 . S
C2814 H2808 0.949 . S
C2814 C2818 1.368 . S
C2815 C2796 1.429 . S
C2815 C2809 1.429 . S
C2815 C2816 1.523 . S
C2816 C2797 1.368 . S
C2816 C2810 1.368 . S
C2816 C2815 1.523 . S
C2817 C2801 1.429 . S
C2817 C2813 1.429 . S
C2817 C2818 1.523 . S
C2818 C2802 1.368 . S
C2818 C2814 1.368 . S
C2818 C2817 1.523 . S
H2819 C2794 0.950 . S
H2820 C2796 0.950 . S
H2821 C2797 0.949 . S
H2822 C2799 0.950 . S
H2823 C2801 0.950 . S
C2824 C2825 1.349 . S
C2824 C2826 1.327 . S
C2824 H2849 0.950 . S
C2825 C2824 1.349 . S
C2825 C2841 1.349 . S
C2826 C2824 1.327 . S
C2826 C2845 1.429 . S
C2826 H2850 0.950 . S
C2827 C2844 1.574 . S
C2827 C2846 1.368 . S
C2827 H2851 0.949 . S
H2828 C2832 0.949 . S
C2829 C2830 1.349 . S
C2829 C2831 1.327 . S
C2829 H2852 0.950 . S
C2830 C2829 1.349 . S
C2830 C2842 1.349 . S
C2831 C2829 1.327 . S
C2831 C2847 1.429 . S
C2831 H2853 0.950 . S
C2832 H2828 0.949 . S
C2832 C2840 1.574 . S
C2832 C2848 1.368 . S
H2833 C2841 0.950 . S
H2834 C2839 0.950 . S
H2835 C2840 0.949 . S
H2836 C2842 0.950 . S
H2837 C2843 0.950 . S
H2838 C2844 0.949 . S
C2839 H2834 0.950 . S
C2839 C2841 1.327 . S
C2839 C2845 1.429 . S
C2840 C2832 1.574 . S
C2840 H2835 0.949 . S
C2840 C2846 1.368 . S
C2841 C2825 1.349 . S
C2841 H2833 0.950 . S
C2841 C2839 1.327 . S
C2842 C2830 1.349 . S
C2842 H2836 0.950 . S
C2842 C2843 1.327 . S
C2843 H2837 0.950 . S
C2843 C2842 1.327 . S
C2843 C2847 1.429 . S
C2844 C2827 1.574 . S
C2844 H2838 0.949 . S
C2844 C2848 1.368 . S
C2845 C2826 1.429 . S
C2845 C2839 1.429 . S
C2845 C2846 1.523 . S
C2846 C2827 1.368 . S
C2846 C2840 1.368 . S
C2846 C2845 1.523 . S
C2847 C2831 1.429 . S
C2847 C2843 1.429 . S
C2847 C2848 1.523 . S
C2848 C2832 1.368 . S
C2848 C2844 1.368 . S
C2848 C2847 1.523 . S
H2849 C2824 0.950 . S
H2850 C2826 0.950 . S
H2851 C2827 0.949 . S
H2852 C2829 0.950 . S
H2853 C2831 0.950 . S
C2854 C2855 1.349 . S
C2854 C2856 1.327 . S
C2854 H2879 0.950 . S
C2855 C2854 1.349 . S
C2855 C2871 1.349 . S
C2856 C2854 1.327 . S
C2856 C2875 1.429 . S
C2856 H2880 0.950 . S
C2857 C2874 1.574 . S
C2857 C2876 1.368 . S
C2857 H2881 0.949 . S
H2858 C2862 0.949 . S
C2859 C2860 1.349 . S
C2859 C2861 1.327 . S
C2859 H2882 0.950 . S
C2860 C2859 1.349 . S
C2860 C2872 1.349 . S
C2861 C2859 1.327 . S
C2861 C2877 1.429 . S
C2861 H2883 0.950 . S
C2862 H2858 0.949 . S
C2862 C2870 1.574 . S
C2862 C2878 1.368 . S
H2863 C2871 0.950 . S
H2864 C2869 0.950 . S
H2865 C2870 0.949 . S
H2866 C2872 0.950 . S
H2867 C2873 0.950 . S
H2868 C2874 0.949 . S
C2869 H2864 0.950 . S
C2869 C2871 1.327 . S
C2869 C2875 1.429 . S
C2870 C2862 1.574 . S
C2870 H2865 0.949 . S
C2870 C2876 1.368 . S
C2871 C2855 1.349 . S
C2871 H2863 0.950 . S
C2871 C2869 1.327 . S
C2872 C2860 1.349 . S
C2872 H2866 0.950 . S
C2872 C2873 1.327 . S
C2873 H2867 0.950 . S
C2873 C2872 1.327 . S
C2873 C2877 1.429 . S
C2874 C2857 1.574 . S
C2874 H2868 0.949 . S
C2874 C2878 1.368 . S
C2875 C2856 1.429 . S
C2875 C2869 1.429 . S
C2875 C2876 1.523 . S
C2876 C2857 1.368 . S
C2876 C2870 1.368 . S
C2876 C2875 1.523 . S
C2877 C2861 1.429 . S
C2877 C2873 1.429 . S
C2877 C2878 1.523 . S
C2878 C2862 1.368 . S
C2878 C2874 1.368 . S
C2878 C2877 1.523 . S
H2879 C2854 0.950 . S
H2880 C2856 0.950 . S
H2881 C2857 0.949 . S
H2882 C2859 0.950 . S
H2883 C2861 0.950 . S
C2884 C2885 1.349 . S
C2884 C2886 1.327 . S
C2884 H2909 0.950 . S
C2885 C2884 1.349 . S
C2885 C2901 1.349 . S
C2886 C2884 1.327 . S
C2886 C2905 1.429 . S
C2886 H2910 0.950 . S
C2887 C2904 1.574 . S
C2887 C2906 1.368 . S
C2887 H2911 0.949 . S
H2888 C2892 0.949 . S
C2889 C2890 1.349 . S
C2889 C2891 1.327 . S
C2889 H2912 0.950 . S
C2890 C2889 1.349 . S
C2890 C2902 1.349 . S
C2891 C2889 1.327 . S
C2891 C2907 1.429 . S
C2891 H2913 0.950 . S
C2892 H2888 0.949 . S
C2892 C2900 1.574 . S
C2892 C2908 1.368 . S
H2893 C2901 0.950 . S
H2894 C2899 0.950 . S
H2895 C2900 0.949 . S
H2896 C2902 0.950 . S
H2897 C2903 0.950 . S
H2898 C2904 0.949 . S
C2899 H2894 0.950 . S
C2899 C2901 1.327 . S
C2899 C2905 1.429 . S
C2900 C2892 1.574 . S
C2900 H2895 0.949 . S
C2900 C2906 1.368 . S
C2901 C2885 1.349 . S
C2901 H2893 0.950 . S
C2901 C2899 1.327 . S
C2902 C2890 1.349 . S
C2902 H2896 0.950 . S
C2902 C2903 1.327 . S
C2903 H2897 0.950 . S
C2903 C2902 1.327 . S
C2903 C2907 1.429 . S
C2904 C2887 1.574 . S
C2904 H2898 0.949 . S
C2904 C2908 1.368 . S
C2905 C2886 1.429 . S
C2905 C2899 1.429 . S
C2905 C2906 1.523 . S
C2906 C2887 1.368 . S
C2906 C2900 1.368 . S
C2906 C2905 1.523 . S
C2907 C2891 1.429 . S
C2907 C2903 1.429 . S
C2907 C2908 1.523 . S
C2908 C2892 1.368 . S
C2908 C2904 1.368 . S
C2908 C2907 1.523 . S
H2909 C2884 0.950 . S
H2910 C2886 0.950 . S
H2911 C2887 0.949 . S
H2912 C2889 0.950 . S
H2913 C2891 0.950 . S
C2914 C2915 1.349 . S
C2914 C2916 1.327 . S
C2914 H2939 0.950 . S
C2915 C2914 1.349 . S
C2915 C2931 1.349 . S
C2916 C2914 1.327 . S
C2916 C2935 1.429 . S
C2916 H2940 0.950 . S
C2917 C2934 1.574 . S
C2917 C2936 1.368 . S
C2917 H2941 0.949 . S
H2918 C2922 0.949 . S
C2919 C2920 1.349 . S
C2919 C2921 1.327 . S
C2919 H2942 0.950 . S
C2920 C2919 1.349 . S
C2920 C2932 1.349 . S
C2921 C2919 1.327 . S
C2921 C2937 1.429 . S
C2921 H2943 0.950 . S
C2922 H2918 0.949 . S
C2922 C2930 1.574 . S
C2922 C2938 1.368 . S
H2923 C2931 0.950 . S
H2924 C2929 0.950 . S
H2925 C2930 0.949 . S
H2926 C2932 0.950 . S
H2927 C2933 0.950 . S
H2928 C2934 0.949 . S
C2929 H2924 0.950 . S
C2929 C2931 1.327 . S
C2929 C2935 1.429 . S
C2930 C2922 1.574 . S
C2930 H2925 0.949 . S
C2930 C2936 1.368 . S
C2931 C2915 1.349 . S
C2931 H2923 0.950 . S
C2931 C2929 1.327 . S
C2932 C2920 1.349 . S
C2932 H2926 0.950 . S
C2932 C2933 1.327 . S
C2933 H2927 0.950 . S
C2933 C2932 1.327 . S
C2933 C2937 1.429 . S
C2934 C2917 1.574 . S
C2934 H2928 0.949 . S
C2934 C2938 1.368 . S
C2935 C2916 1.429 . S
C2935 C2929 1.429 . S
C2935 C2936 1.523 . S
C2936 C2917 1.368 . S
C2936 C2930 1.368 . S
C2936 C2935 1.523 . S
C2937 C2921 1.429 . S
C2937 C2933 1.429 . S
C2937 C2938 1.523 . S
C2938 C2922 1.368 . S
C2938 C2934 1.368 . S
C2938 C2937 1.523 . S
H2939 C2914 0.950 . S
H2940 C2916 0.950 . S
H2941 C2917 0.949 . S
H2942 C2919 0.950 . S
H2943 C2921 0.950 . S
C2944 C2945 1.349 . S
C2944 C2946 1.327 . S
C2944 H2969 0.950 . S
C2945 C2944 1.349 . S
C2945 C2961 1.349 . S
C2946 C2944 1.327 . S
C2946 C2965 1.429 . S
C2946 H2970 0.950 . S
C2947 C2964 1.574 . S
C2947 C2966 1.368 . S
C2947 H2971 0.949 . S
H2948 C2952 0.949 . S
C2949 C2950 1.349 . S
C2949 C2951 1.327 . S
C2949 H2972 0.950 . S
C2950 C2949 1.349 . S
C2950 C2962 1.349 . S
C2951 C2949 1.327 . S
C2951 C2967 1.429 . S
C2951 H2973 0.950 . S
C2952 H2948 0.949 . S
C2952 C2960 1.574 . S
C2952 C2968 1.368 . S
H2953 C2961 0.950 . S
H2954 C2959 0.950 . S
H2955 C2960 0.949 . S
H2956 C2962 0.950 . S
H2957 C2963 0.950 . S
H2958 C2964 0.949 . S
C2959 H2954 0.950 . S
C2959 C2961 1.327 . S
C2959 C2965 1.429 . S
C2960 C2952 1.574 . S
C2960 H2955 0.949 . S
C2960 C2966 1.368 . S
C2961 C2945 1.349 . S
C2961 H2953 0.950 . S
C2961 C2959 1.327 . S
C2962 C2950 1.349 . S
C2962 H2956 0.950 . S
C2962 C2963 1.327 . S
C2963 H2957 0.950 . S
C2963 C2962 1.327 . S
C2963 C2967 1.429 . S
C2964 C2947 1.574 . S
C2964 H2958 0.949 . S
C2964 C2968 1.368 . S
C2965 C2946 1.429 . S
C2965 C2959 1.429 . S
C2965 C2966 1.523 . S
C2966 C2947 1.368 . S
C2966 C2960 1.368 . S
C2966 C2965 1.523 . S
C2967 C2951 1.429 . S
C2967 C2963 1.429 . S
C2967 C2968 1.523 . S
C2968 C2952 1.368 . S
C2968 C2964 1.368 . S
C2968 C2967 1.523 . S
H2969 C2944 0.950 . S
H2970 C2946 0.950 . S
H2971 C2947 0.949 . S
H2972 C2949 0.950 . S
H2973 C2951 0.950 . S
C2974 C2975 1.349 . S
C2974 C2976 1.327 . S
C2974 H2999 0.950 . S
C2975 C2974 1.349 . S
C2975 C2991 1.349 . S
C2976 C2974 1.327 . S
C2976 C2995 1.429 . S
C2976 H3000 0.950 . S
C2977 C2994 1.574 . S
C2977 C2996 1.368 . S
C2977 H3001 0.949 . S
H2978 C2982 0.949 . S
C2979 C2980 1.349 . S
C2979 C2981 1.327 . S
C2979 H3002 0.950 . S
C2980 C2979 1.349 . S
C2980 C2992 1.349 . S
C2981 C2979 1.327 . S
C2981 C2997 1.429 . S
C2981 H3003 0.950 . S
C2982 H2978 0.949 . S
C2982 C2990 1.574 . S
C2982 C2998 1.368 . S
H2983 C2991 0.950 . S
H2984 C2989 0.950 . S
H2985 C2990 0.949 . S
H2986 C2992 0.950 . S
H2987 C2993 0.950 . S
H2988 C2994 0.949 . S
C2989 H2984 0.950 . S
C2989 C2991 1.327 . S
C2989 C2995 1.429 . S
C2990 C2982 1.574 . S
C2990 H2985 0.949 . S
C2990 C2996 1.368 . S
C2991 C2975 1.349 . S
C2991 H2983 0.950 . S
C2991 C2989 1.327 . S
C2992 C2980 1.349 . S
C2992 H2986 0.950 . S
C2992 C2993 1.327 . S
C2993 H2987 0.950 . S
C2993 C2992 1.327 . S
C2993 C2997 1.429 . S
C2994 C2977 1.574 . S
C2994 H2988 0.949 . S
C2994 C2998 1.368 . S
C2995 C2976 1.429 . S
C2995 C2989 1.429 . S
C2995 C2996 1.523 . S
C2996 C2977 1.368 . S
C2996 C2990 1.368 . S
C2996 C2995 1.523 . S
C2997 C2981 1.429 . S
C2997 C2993 1.429 . S
C2997 C2998 1.523 . S
C2998 C2982 1.368 . S
C2998 C2994 1.368 . S
C2998 C2997 1.523 . S
H2999 C2974 0.950 . S
H3000 C2976 0.950 . S
H3001 C2977 0.949 . S
H3002 C2979 0.950 . S
H3003 C2981 0.950 . S
C3004 C3005 1.349 . S
C3004 C3006 1.327 . S
C3004 H3029 0.950 . S
C3005 C3004 1.349 . S
C3005 C3021 1.349 . S
C3006 C3004 1.327 . S
C3006 C3025 1.429 . S
C3006 H3030 0.950 . S
C3007 C3024 1.574 . S
C3007 C3026 1.368 . S
C3007 H3031 0.949 . S
H3008 C3012 0.949 . S
C3009 C3010 1.349 . S
C3009 C3011 1.327 . S
C3009 H3032 0.950 . S
C3010 C3009 1.349 . S
C3010 C3022 1.349 . S
C3011 C3009 1.327 . S
C3011 C3027 1.429 . S
C3011 H3033 0.950 . S
C3012 H3008 0.949 . S
C3012 C3020 1.574 . S
C3012 C3028 1.368 . S
H3013 C3021 0.950 . S
H3014 C3019 0.950 . S
H3015 C3020 0.949 . S
H3016 C3022 0.950 . S
H3017 C3023 0.950 . S
H3018 C3024 0.949 . S
C3019 H3014 0.950 . S
C3019 C3021 1.327 . S
C3019 C3025 1.429 . S
C3020 C3012 1.574 . S
C3020 H3015 0.949 . S
C3020 C3026 1.368 . S
C3021 C3005 1.349 . S
C3021 H3013 0.950 . S
C3021 C3019 1.327 . S
C3022 C3010 1.349 . S
C3022 H3016 0.950 . S
C3022 C3023 1.327 . S
C3023 H3017 0.950 . S
C3023 C3022 1.327 . S
C3023 C3027 1.429 . S
C3024 C3007 1.574 . S
C3024 H3018 0.949 . S
C3024 C3028 1.368 . S
C3025 C3006 1.429 . S
C3025 C3019 1.429 . S
C3025 C3026 1.523 . S
C3026 C3007 1.368 . S
C3026 C3020 1.368 . S
C3026 C3025 1.523 . S
C3027 C3011 1.429 . S
C3027 C3023 1.429 . S
C3027 C3028 1.523 . S
C3028 C3012 1.368 . S
C3028 C3024 1.368 . S
C3028 C3027 1.523 . S
H3029 C3004 0.950 . S
H3030 C3006 0.950 . S
H3031 C3007 0.949 . S
H3032 C3009 0.950 . S
H3033 C3011 0.950 . S
C3034 C3035 1.349 . S
C3034 C3036 1.327 . S
C3034 H3059 0.950 . S
C3035 C3034 1.349 . S
C3035 C3051 1.349 . S
C3036 C3034 1.327 . S
C3036 C3055 1.429 . S
C3036 H3060 0.950 . S
C3037 C3054 1.574 . S
C3037 C3056 1.368 . S
C3037 H3061 0.949 . S
H3038 C3042 0.949 . S
C3039 C3040 1.349 . S
C3039 C3041 1.327 . S
C3039 H3062 0.950 . S
C3040 C3039 1.349 . S
C3040 C3052 1.349 . S
C3041 C3039 1.327 . S
C3041 C3057 1.429 . S
C3041 H3063 0.950 . S
C3042 H3038 0.949 . S
C3042 C3050 1.574 . S
C3042 C3058 1.368 . S
H3043 C3051 0.950 . S
H3044 C3049 0.950 . S
H3045 C3050 0.949 . S
H3046 C3052 0.950 . S
H3047 C3053 0.950 . S
H3048 C3054 0.949 . S
C3049 H3044 0.950 . S
C3049 C3051 1.327 . S
C3049 C3055 1.429 . S
C3050 C3042 1.574 . S
C3050 H3045 0.949 . S
C3050 C3056 1.368 . S
C3051 C3035 1.349 . S
C3051 H3043 0.950 . S
C3051 C3049 1.327 . S
C3052 C3040 1.349 . S
C3052 H3046 0.950 . S
C3052 C3053 1.327 . S
C3053 H3047 0.950 . S
C3053 C3052 1.327 . S
C3053 C3057 1.429 . S
C3054 C3037 1.574 . S
C3054 H3048 0.949 . S
C3054 C3058 1.368 . S
C3055 C3036 1.429 . S
C3055 C3049 1.429 . S
C3055 C3056 1.523 . S
C3056 C3037 1.368 . S
C3056 C3050 1.368 . S
C3056 C3055 1.523 . S
C3057 C3041 1.429 . S
C3057 C3053 1.429 . S
C3057 C3058 1.523 . S
C3058 C3042 1.368 . S
C3058 C3054 1.368 . S
C3058 C3057 1.523 . S
H3059 C3034 0.950 . S
H3060 C3036 0.950 . S
H3061 C3037 0.949 . S
H3062 C3039 0.950 . S
H3063 C3041 0.950 . S
C3064 C3065 1.349 . S
C3064 C3066 1.327 . S
C3064 H3089 0.950 . S
C3065 C3064 1.349 . S
C3065 C3081 1.349 . S
C3066 C3064 1.327 . S
C3066 C3085 1.429 . S
C3066 H3090 0.950 . S
C3067 C3084 1.574 . S
C3067 C3086 1.368 . S
C3067 H3091 0.949 . S
H3068 C3072 0.949 . S
C3069 C3070 1.349 . S
C3069 C3071 1.327 . S
C3069 H3092 0.950 . S
C3070 C3069 1.349 . S
C3070 C3082 1.349 . S
C3071 C3069 1.327 . S
C3071 C3087 1.429 . S
C3071 H3093 0.950 . S
C3072 H3068 0.949 . S
C3072 C3080 1.574 . S
C3072 C3088 1.368 . S
H3073 C3081 0.950 . S
H3074 C3079 0.950 . S
H3075 C3080 0.949 . S
H3076 C3082 0.950 . S
H3077 C3083 0.950 . S
H3078 C3084 0.949 . S
C3079 H3074 0.950 . S
C3079 C3081 1.327 . S
C3079 C3085 1.429 . S
C3080 C3072 1.574 . S
C3080 H3075 0.949 . S
C3080 C3086 1.368 . S
C3081 C3065 1.349 . S
C3081 H3073 0.950 . S
C3081 C3079 1.327 . S
C3082 C3070 1.349 . S
C3082 H3076 0.950 . S
C3082 C3083 1.327 . S
C3083 H3077 0.950 . S
C3083 C3082 1.327 . S
C3083 C3087 1.429 . S
C3084 C3067 1.574 . S
C3084 H3078 0.949 . S
C3084 C3088 1.368 . S
C3085 C3066 1.429 . S
C3085 C3079 1.429 . S
C3085 C3086 1.523 . S
C3086 C3067 1.368 . S
C3086 C3080 1.368 . S
C3086 C3085 1.523 . S
C3087 C3071 1.429 . S
C3087 C3083 1.429 . S
C3087 C3088 1.523 . S
C3088 C3072 1.368 . S
C3088 C3084 1.368 . S
C3088 C3087 1.523 . S
H3089 C3064 0.950 . S
H3090 C3066 0.950 . S
H3091 C3067 0.949 . S
H3092 C3069 0.950 . S
H3093 C3071 0.950 . S
C3094 C3095 1.349 . S
C3094 C3096 1.327 . S
C3094 H3119 0.950 . S
C3095 C3094 1.349 . S
C3095 C3111 1.349 . S
C3096 C3094 1.327 . S
C3096 C3115 1.429 . S
C3096 H3120 0.950 . S
C3097 C3114 1.574 . S
C3097 C3116 1.368 . S
C3097 H3121 0.949 . S
H3098 C3102 0.949 . S
C3099 C3100 1.349 . S
C3099 C3101 1.327 . S
C3099 H3122 0.950 . S
C3100 C3099 1.349 . S
C3100 C3112 1.349 . S
C3101 C3099 1.327 . S
C3101 C3117 1.429 . S
C3101 H3123 0.950 . S
C3102 H3098 0.949 . S
C3102 C3110 1.574 . S
C3102 C3118 1.368 . S
H3103 C3111 0.950 . S
H3104 C3109 0.950 . S
H3105 C3110 0.949 . S
H3106 C3112 0.950 . S
H3107 C3113 0.950 . S
H3108 C3114 0.949 . S
C3109 H3104 0.950 . S
C3109 C3111 1.327 . S
C3109 C3115 1.429 . S
C3110 C3102 1.574 . S
C3110 H3105 0.949 . S
C3110 C3116 1.368 . S
C3111 C3095 1.349 . S
C3111 H3103 0.950 . S
C3111 C3109 1.327 . S
C3112 C3100 1.349 . S
C3112 H3106 0.950 . S
C3112 C3113 1.327 . S
C3113 H3107 0.950 . S
C3113 C3112 1.327 . S
C3113 C3117 1.429 . S
C3114 C3097 1.574 . S
C3114 H3108 0.949 . S
C3114 C3118 1.368 . S
C3115 C3096 1.429 . S
C3115 C3109 1.429 . S
C3115 C3116 1.523 . S
C3116 C3097 1.368 . S
C3116 C3110 1.368 . S
C3116 C3115 1.523 . S
C3117 C3101 1.429 . S
C3117 C3113 1.429 . S
C3117 C3118 1.523 . S
C3118 C3102 1.368 . S
C3118 C3114 1.368 . S
C3118 C3117 1.523 . S
H3119 C3094 0.950 . S
H3120 C3096 0.950 . S
H3121 C3097 0.949 . S
H3122 C3099 0.950 . S
H3123 C3101 0.950 . S
C3124 C3125 1.349 . S
C3124 C3126 1.327 . S
C3124 H3149 0.950 . S
C3125 C3124 1.349 . S
C3125 C3141 1.349 . S
C3126 C3124 1.327 . S
C3126 C3145 1.429 . S
C3126 H3150 0.950 . S
C3127 C3144 1.574 . S
C3127 C3146 1.368 . S
C3127 H3151 0.949 . S
H3128 C3132 0.949 . S
C3129 C3130 1.349 . S
C3129 C3131 1.327 . S
C3129 H3152 0.950 . S
C3130 C3129 1.349 . S
C3130 C3142 1.349 . S
C3131 C3129 1.327 . S
C3131 C3147 1.429 . S
C3131 H3153 0.950 . S
C3132 H3128 0.949 . S
C3132 C3140 1.574 . S
C3132 C3148 1.368 . S
H3133 C3141 0.950 . S
H3134 C3139 0.950 . S
H3135 C3140 0.949 . S
H3136 C3142 0.950 . S
H3137 C3143 0.950 . S
H3138 C3144 0.949 . S
C3139 H3134 0.950 . S
C3139 C3141 1.327 . S
C3139 C3145 1.429 . S
C3140 C3132 1.574 . S
C3140 H3135 0.949 . S
C3140 C3146 1.368 . S
C3141 C3125 1.349 . S
C3141 H3133 0.950 . S
C3141 C3139 1.327 . S
C3142 C3130 1.349 . S
C3142 H3136 0.950 . S
C3142 C3143 1.327 . S
C3143 H3137 0.950 . S
C3143 C3142 1.327 . S
C3143 C3147 1.429 . S
C3144 C3127 1.574 . S
C3144 H3138 0.949 . S
C3144 C3148 1.368 . S
C3145 C3126 1.429 . S
C3145 C3139 1.429 . S
C3145 C3146 1.523 . S
C3146 C3127 1.368 . S
C3146 C3140 1.368 . S
C3146 C3145 1.523 . S
C3147 C3131 1.429 . S
C3147 C3143 1.429 . S
C3147 C3148 1.523 . S
C3148 C3132 1.368 . S
C3148 C3144 1.368 . S
C3148 C3147 1.523 . S
H3149 C3124 0.950 . S
H3150 C3126 0.950 . S
H3151 C3127 0.949 . S
H3152 C3129 0.950 . S
H3153 C3131 0.950 . S
C3154 C3155 1.349 . S
C3154 C3156 1.327 . S
C3154 H3179 0.950 . S
C3155 C3154 1.349 . S
C3155 C3171 1.349 . S
C3156 C3154 1.327 . S
C3156 C3175 1.429 . S
C3156 H3180 0.950 . S
C3157 C3174 1.574 . S
C3157 C3176 1.368 . S
C3157 H3181 0.949 . S
H3158 C3162 0.949 . S
C3159 C3160 1.349 . S
C3159 C3161 1.327 . S
C3159 H3182 0.950 . S
C3160 C3159 1.349 . S
C3160 C3172 1.349 . S
C3161 C3159 1.327 . S
C3161 C3177 1.429 . S
C3161 H3183 0.950 . S
C3162 H3158 0.949 . S
C3162 C3170 1.574 . S
C3162 C3178 1.368 . S
H3163 C3171 0.950 . S
H3164 C3169 0.950 . S
H3165 C3170 0.949 . S
H3166 C3172 0.950 . S
H3167 C3173 0.950 . S
H3168 C3174 0.949 . S
C3169 H3164 0.950 . S
C3169 C3171 1.327 . S
C3169 C3175 1.429 . S
C3170 C3162 1.574 . S
C3170 H3165 0.949 . S
C3170 C3176 1.368 . S
C3171 C3155 1.349 . S
C3171 H3163 0.950 . S
C3171 C3169 1.327 . S
C3172 C3160 1.349 . S
C3172 H3166 0.950 . S
C3172 C3173 1.327 . S
C3173 H3167 0.950 . S
C3173 C3172 1.327 . S
C3173 C3177 1.429 . S
C3174 C3157 1.574 . S
C3174 H3168 0.949 . S
C3174 C3178 1.368 . S
C3175 C3156 1.429 . S
C3175 C3169 1.429 . S
C3175 C3176 1.523 . S
C3176 C3157 1.368 . S
C3176 C3170 1.368 . S
C3176 C3175 1.523 . S
C3177 C3161 1.429 . S
C3177 C3173 1.429 . S
C3177 C3178 1.523 . S
C3178 C3162 1.368 . S
C3178 C3174 1.368 . S
C3178 C3177 1.523 . S
H3179 C3154 0.950 . S
H3180 C3156 0.950 . S
H3181 C3157 0.949 . S
H3182 C3159 0.950 . S
H3183 C3161 0.950 . S
C3184 C3185 1.349 . S
C3184 C3186 1.327 . S
C3184 H3209 0.950 . S
C3185 C3184 1.349 . S
C3185 C3201 1.349 . S
C3186 C3184 1.327 . S
C3186 C3205 1.429 . S
C3186 H3210 0.950 . S
C3187 C3204 1.574 . S
C3187 C3206 1.368 . S
C3187 H3211 0.949 . S
H3188 C3192 0.949 . S
C3189 C3190 1.349 . S
C3189 C3191 1.327 . S
C3189 H3212 0.950 . S
C3190 C3189 1.349 . S
C3190 C3202 1.349 . S
C3191 C3189 1.327 . S
C3191 C3207 1.429 . S
C3191 H3213 0.950 . S
C3192 H3188 0.949 . S
C3192 C3200 1.574 . S
C3192 C3208 1.368 . S
H3193 C3201 0.950 . S
H3194 C3199 0.950 . S
H3195 C3200 0.949 . S
H3196 C3202 0.950 . S
H3197 C3203 0.950 . S
H3198 C3204 0.949 . S
C3199 H3194 0.950 . S
C3199 C3201 1.327 . S
C3199 C3205 1.429 . S
C3200 C3192 1.574 . S
C3200 H3195 0.949 . S
C3200 C3206 1.368 . S
C3201 C3185 1.349 . S
C3201 H3193 0.950 . S
C3201 C3199 1.327 . S
C3202 C3190 1.349 . S
C3202 H3196 0.950 . S
C3202 C3203 1.327 . S
C3203 H3197 0.950 . S
C3203 C3202 1.327 . S
C3203 C3207 1.429 . S
C3204 C3187 1.574 . S
C3204 H3198 0.949 . S
C3204 C3208 1.368 . S
C3205 C3186 1.429 . S
C3205 C3199 1.429 . S
C3205 C3206 1.523 . S
C3206 C3187 1.368 . S
C3206 C3200 1.368 . S
C3206 C3205 1.523 . S
C3207 C3191 1.429 . S
C3207 C3203 1.429 . S
C3207 C3208 1.523 . S
C3208 C3192 1.368 . S
C3208 C3204 1.368 . S
C3208 C3207 1.523 . S
H3209 C3184 0.950 . S
H3210 C3186 0.950 . S
H3211 C3187 0.949 . S
H3212 C3189 0.950 . S
H3213 C3191 0.950 . S
C3214 C3215 1.349 . S
C3214 C3216 1.327 . S
C3214 H3239 0.950 . S
C3215 C3214 1.349 . S
C3215 C3231 1.349 . S
C3216 C3214 1.327 . S
C3216 C3235 1.429 . S
C3216 H3240 0.950 . S
C3217 C3234 1.574 . S
C3217 C3236 1.368 . S
C3217 H3241 0.949 . S
H3218 C3222 0.949 . S
C3219 C3220 1.349 . S
C3219 C3221 1.327 . S
C3219 H3242 0.950 . S
C3220 C3219 1.349 . S
C3220 C3232 1.349 . S
C3221 C3219 1.327 . S
C3221 C3237 1.429 . S
C3221 H3243 0.950 . S
C3222 H3218 0.949 . S
C3222 C3230 1.574 . S
C3222 C3238 1.368 . S
H3223 C3231 0.950 . S
H3224 C3229 0.950 . S
H3225 C3230 0.949 . S
H3226 C3232 0.950 . S
H3227 C3233 0.950 . S
H3228 C3234 0.949 . S
C3229 H3224 0.950 . S
C3229 C3231 1.327 . S
C3229 C3235 1.429 . S
C3230 C3222 1.574 . S
C3230 H3225 0.949 . S
C3230 C3236 1.368 . S
C3231 C3215 1.349 . S
C3231 H3223 0.950 . S
C3231 C3229 1.327 . S
C3232 C3220 1.349 . S
C3232 H3226 0.950 . S
C3232 C3233 1.327 . S
C3233 H3227 0.950 . S
C3233 C3232 1.327 . S
C3233 C3237 1.429 . S
C3234 C3217 1.574 . S
C3234 H3228 0.949 . S
C3234 C3238 1.368 . S
C3235 C3216 1.429 . S
C3235 C3229 1.429 . S
C3235 C3236 1.523 . S
C3236 C3217 1.368 . S
C3236 C3230 1.368 . S
C3236 C3235 1.523 . S
C3237 C3221 1.429 . S
C3237 C3233 1.429 . S
C3237 C3238 1.523 . S
C3238 C3222 1.368 . S
C3238 C3234 1.368 . S
C3238 C3237 1.523 . S
H3239 C3214 0.950 . S
H3240 C3216 0.950 . S
H3241 C3217 0.949 . S
H3242 C3219 0.950 . S
H3243 C3221 0.950 . S
C3244 C3245 1.349 . S
C3244 C3246 1.327 . S
C3244 H3269 0.950 . S
C3245 C3244 1.349 . S
C3245 C3261 1.349 . S
C3246 C3244 1.327 . S
C3246 C3265 1.429 . S
C3246 H3270 0.950 . S
C3247 C3264 1.574 . S
C3247 C3266 1.368 . S
C3247 H3271 0.949 . S
H3248 C3252 0.949 . S
C3249 C3250 1.349 . S
C3249 C3251 1.327 . S
C3249 H3272 0.950 . S
C3250 C3249 1.349 . S
C3250 C3262 1.349 . S
C3251 C3249 1.327 . S
C3251 C3267 1.429 . S
C3251 H3273 0.950 . S
C3252 H3248 0.949 . S
C3252 C3260 1.574 . S
C3252 C3268 1.368 . S
H3253 C3261 0.950 . S
H3254 C3259 0.950 . S
H3255 C3260 0.949 . S
H3256 C3262 0.950 . S
H3257 C3263 0.950 . S
H3258 C3264 0.949 . S
C3259 H3254 0.950 . S
C3259 C3261 1.327 . S
C3259 C3265 1.429 . S
C3260 C3252 1.574 . S
C3260 H3255 0.949 . S
C3260 C3266 1.368 . S
C3261 C3245 1.349 . S
C3261 H3253 0.950 . S
C3261 C3259 1.327 . S
C3262 C3250 1.349 . S
C3262 H3256 0.950 . S
C3262 C3263 1.327 . S
C3263 H3257 0.950 . S
C3263 C3262 1.327 . S
C3263 C3267 1.429 . S
C3264 C3247 1.574 . S
C3264 H3258 0.949 . S
C3264 C3268 1.368 . S
C3265 C3246 1.429 . S
C3265 C3259 1.429 . S
C3265 C3266 1.523 . S
C3266 C3247 1.368 . S
C3266 C3260 1.368 . S
C3266 C3265 1.523 . S
C3267 C3251 1.429 . S
C3267 C3263 1.429 . S
C3267 C3268 1.523 . S
C3268 C3252 1.368 . S
C3268 C3264 1.368 . S
C3268 C3267 1.523 . S
H3269 C3244 0.950 . S
H3270 C3246 0.950 . S
H3271 C3247 0.949 . S
H3272 C3249 0.950 . S
H3273 C3251 0.950 . S
C3274 C3275 1.349 . S
C3274 C3276 1.327 . S
C3274 H3299 0.950 . S
C3275 C3274 1.349 . S
C3275 C3291 1.349 . S
C3276 C3274 1.327 . S
C3276 C3295 1.429 . S
C3276 H3300 0.950 . S
C3277 C3294 1.574 . S
C3277 C3296 1.368 . S
C3277 H3301 0.949 . S
H3278 C3282 0.949 . S
C3279 C3280 1.349 . S
C3279 C3281 1.327 . S
C3279 H3302 0.950 . S
C3280 C3279 1.349 . S
C3280 C3292 1.349 . S
C3281 C3279 1.327 . S
C3281 C3297 1.429 . S
C3281 H3303 0.950 . S
C3282 H3278 0.949 . S
C3282 C3290 1.574 . S
C3282 C3298 1.368 . S
H3283 C3291 0.950 . S
H3284 C3289 0.950 . S
H3285 C3290 0.949 . S
H3286 C3292 0.950 . S
H3287 C3293 0.950 . S
H3288 C3294 0.949 . S
C3289 H3284 0.950 . S
C3289 C3291 1.327 . S
C3289 C3295 1.429 . S
C3290 C3282 1.574 . S
C3290 H3285 0.949 . S
C3290 C3296 1.368 . S
C3291 C3275 1.349 . S
C3291 H3283 0.950 . S
C3291 C3289 1.327 . S
C3292 C3280 1.349 . S
C3292 H3286 0.950 . S
C3292 C3293 1.327 . S
C3293 H3287 0.950 . S
C3293 C3292 1.327 . S
C3293 C3297 1.429 . S
C3294 C3277 1.574 . S
C3294 H3288 0.949 . S
C3294 C3298 1.368 . S
C3295 C3276 1.429 . S
C3295 C3289 1.429 . S
C3295 C3296 1.523 . S
C3296 C3277 1.368 . S
C3296 C3290 1.368 . S
C3296 C3295 1.523 . S
C3297 C3281 1.429 . S
C3297 C3293 1.429 . S
C3297 C3298 1.523 . S
C3298 C3282 1.368 . S
C3298 C3294 1.368 . S
C3298 C3297 1.523 . S
H3299 C3274 0.950 . S
H3300 C3276 0.950 . S
H3301 C3277 0.949 . S
H3302 C3279 0.950 . S
H3303 C3281 0.950 . S
C3304 C3305 1.349 . S
C3304 C3306 1.327 . S
C3304 H3329 0.950 . S
C3305 C3304 1.349 . S
C3305 C3321 1.349 . S
C3306 C3304 1.327 . S
C3306 C3325 1.429 . S
C3306 H3330 0.950 . S
C3307 C3324 1.574 . S
C3307 C3326 1.368 . S
C3307 H3331 0.949 . S
H3308 C3312 0.949 . S
C3309 C3310 1.349 . S
C3309 C3311 1.327 . S
C3309 H3332 0.950 . S
C3310 C3309 1.349 . S
C3310 C3322 1.349 . S
C3311 C3309 1.327 . S
C3311 C3327 1.429 . S
C3311 H3333 0.950 . S
C3312 H3308 0.949 . S
C3312 C3320 1.574 . S
C3312 C3328 1.368 . S
H3313 C3321 0.950 . S
H3314 C3319 0.950 . S
H3315 C3320 0.949 . S
H3316 C3322 0.950 . S
H3317 C3323 0.950 . S
H3318 C3324 0.949 . S
C3319 H3314 0.950 . S
C3319 C3321 1.327 . S
C3319 C3325 1.429 . S
C3320 C3312 1.574 . S
C3320 H3315 0.949 . S
C3320 C3326 1.368 . S
C3321 C3305 1.349 . S
C3321 H3313 0.950 . S
C3321 C3319 1.327 . S
C3322 C3310 1.349 . S
C3322 H3316 0.950 . S
C3322 C3323 1.327 . S
C3323 H3317 0.950 . S
C3323 C3322 1.327 . S
C3323 C3327 1.429 . S
C3324 C3307 1.574 . S
C3324 H3318 0.949 . S
C3324 C3328 1.368 . S
C3325 C3306 1.429 . S
C3325 C3319 1.429 . S
C3325 C3326 1.523 . S
C3326 C3307 1.368 . S
C3326 C3320 1.368 . S
C3326 C3325 1.523 . S
C3327 C3311 1.429 . S
C3327 C3323 1.429 . S
C3327 C3328 1.523 . S
C3328 C3312 1.368 . S
C3328 C3324 1.368 . S
C3328 C3327 1.523 . S
H3329 C3304 0.950 . S
H3330 C3306 0.950 . S
H3331 C3307 0.949 . S
H3332 C3309 0.950 . S
H3333 C3311 0.950 . S
C3334 C3335 1.349 . S
C3334 C3336 1.327 . S
C3334 H3359 0.950 . S
C3335 C3334 1.349 . S
C3335 C3351 1.349 . S
C3336 C3334 1.327 . S
C3336 C3355 1.429 . S
C3336 H3360 0.950 . S
C3337 C3354 1.574 . S
C3337 C3356 1.368 . S
C3337 H3361 0.949 . S
H3338 C3342 0.949 . S
C3339 C3340 1.349 . S
C3339 C3341 1.327 . S
C3339 H3362 0.950 . S
C3340 C3339 1.349 . S
C3340 C3352 1.349 . S
C3341 C3339 1.327 . S
C3341 C3357 1.429 . S
C3341 H3363 0.950 . S
C3342 H3338 0.949 . S
C3342 C3350 1.574 . S
C3342 C3358 1.368 . S
H3343 C3351 0.950 . S
H3344 C3349 0.950 . S
H3345 C3350 0.949 . S
H3346 C3352 0.950 . S
H3347 C3353 0.950 . S
H3348 C3354 0.949 . S
C3349 H3344 0.950 . S
C3349 C3351 1.327 . S
C3349 C3355 1.429 . S
C3350 C3342 1.574 . S
C3350 H3345 0.949 . S
C3350 C3356 1.368 . S
C3351 C3335 1.349 . S
C3351 H3343 0.950 . S
C3351 C3349 1.327 . S
C3352 C3340 1.349 . S
C3352 H3346 0.950 . S
C3352 C3353 1.327 . S
C3353 H3347 0.950 . S
C3353 C3352 1.327 . S
C3353 C3357 1.429 . S
C3354 C3337 1.574 . S
C3354 H3348 0.949 . S
C3354 C3358 1.368 . S
C3355 C3336 1.429 . S
C3355 C3349 1.429 . S
C3355 C3356 1.523 . S
C3356 C3337 1.368 . S
C3356 C3350 1.368 . S
C3356 C3355 1.523 . S
C3357 C3341 1.429 . S
C3357 C3353 1.429 . S
C3357 C3358 1.523 . S
C3358 C3342 1.368 . S
C3358 C3354 1.368 . S
C3358 C3357 1.523 . S
H3359 C3334 0.950 . S
H3360 C3336 0.950 . S
H3361 C3337 0.949 . S
H3362 C3339 0.950 . S
H3363 C3341 0.950 . S
C3364 C3365 1.349 . S
C3364 C3366 1.327 . S
C3364 H3389 0.950 . S
C3365 C3364 1.349 . S
C3365 C3381 1.349 . S
C3366 C3364 1.327 . S
C3366 C3385 1.429 . S
C3366 H3390 0.950 . S
C3367 C3384 1.574 . S
C3367 C3386 1.368 . S
C3367 H3391 0.949 . S
H3368 C3372 0.949 . S
C3369 C3370 1.349 . S
C3369 C3371 1.327 . S
C3369 H3392 0.950 . S
C3370 C3369 1.349 . S
C3370 C3382 1.349 . S
C3371 C3369 1.327 . S
C3371 C3387 1.429 . S
C3371 H3393 0.950 . S
C3372 H3368 0.949 . S
C3372 C3380 1.574 . S
C3372 C3388 1.368 . S
H3373 C3381 0.950 . S
H3374 C3379 0.950 . S
H3375 C3380 0.949 . S
H3376 C3382 0.950 . S
H3377 C3383 0.950 . S
H3378 C3384 0.949 . S
C3379 H3374 0.950 . S
C3379 C3381 1.327 . S
C3379 C3385 1.429 . S
C3380 C3372 1.574 . S
C3380 H3375 0.949 . S
C3380 C3386 1.368 . S
C3381 C3365 1.349 . S
C3381 H3373 0.950 . S
C3381 C3379 1.327 . S
C3382 C3370 1.349 . S
C3382 H3376 0.950 . S
C3382 C3383 1.327 . S
C3383 H3377 0.950 . S
C3383 C3382 1.327 . S
C3383 C3387 1.429 . S
C3384 C3367 1.574 . S
C3384 H3378 0.949 . S
C3384 C3388 1.368 . S
C3385 C3366 1.429 . S
C3385 C3379 1.429 . S
C3385 C3386 1.523 . S
C3386 C3367 1.368 . S
C3386 C3380 1.368 . S
C3386 C3385 1.523 . S
C3387 C3371 1.429 . S
C3387 C3383 1.429 . S
C3387 C3388 1.523 . S
C3388 C3372 1.368 . S
C3388 C3384 1.368 . S
C3388 C3387 1.523 . S
H3389 C3364 0.950 . S
H3390 C3366 0.950 . S
H3391 C3367 0.949 . S
H3392 C3369 0.950 . S
H3393 C3371 0.950 . S
C3394 C3395 1.349 . S
C3394 C3396 1.327 . S
C3394 H3419 0.950 . S
C3395 C3394 1.349 . S
C3395 C3411 1.349 . S
C3396 C3394 1.327 . S
C3396 C3415 1.429 . S
C3396 H3420 0.950 . S
C3397 C3414 1.574 . S
C3397 C3416 1.368 . S
C3397 H3421 0.949 . S
H3398 C3402 0.949 . S
C3399 C3400 1.349 . S
C3399 C3401 1.327 . S
C3399 H3422 0.950 . S
C3400 C3399 1.349 . S
C3400 C3412 1.349 . S
C3401 C3399 1.327 . S
C3401 C3417 1.429 . S
C3401 H3423 0.950 . S
C3402 H3398 0.949 . S
C3402 C3410 1.574 . S
C3402 C3418 1.368 . S
H3403 C3411 0.950 . S
H3404 C3409 0.950 . S
H3405 C3410 0.949 . S
H3406 C3412 0.950 . S
H3407 C3413 0.950 . S
H3408 C3414 0.949 . S
C3409 H3404 0.950 . S
C3409 C3411 1.327 . S
C3409 C3415 1.429 . S
C3410 C3402 1.574 . S
C3410 H3405 0.949 . S
C3410 C3416 1.368 . S
C3411 C3395 1.349 . S
C3411 H3403 0.950 . S
C3411 C3409 1.327 . S
C3412 C3400 1.349 . S
C3412 H3406 0.950 . S
C3412 C3413 1.327 . S
C3413 H3407 0.950 . S
C3413 C3412 1.327 . S
C3413 C3417 1.429 . S
C3414 C3397 1.574 . S
C3414 H3408 0.949 . S
C3414 C3418 1.368 . S
C3415 C3396 1.429 . S
C3415 C3409 1.429 . S
C3415 C3416 1.523 . S
C3416 C3397 1.368 . S
C3416 C3410 1.368 . S
C3416 C3415 1.523 . S
C3417 C3401 1.429 . S
C3417 C3413 1.429 . S
C3417 C3418 1.523 . S
C3418 C3402 1.368 . S
C3418 C3414 1.368 . S
C3418 C3417 1.523 . S
H3419 C3394 0.950 . S
H3420 C3396 0.950 . S
H3421 C3397 0.949 . S
H3422 C3399 0.950 . S
H3423 C3401 0.950 . S
C3424 C3425 1.349 . S
C3424 C3426 1.327 . S
C3424 H3449 0.950 . S
C3425 C3424 1.349 . S
C3425 C3441 1.349 . S
C3426 C3424 1.327 . S
C3426 C3445 1.429 . S
C3426 H3450 0.950 . S
C3427 C3444 1.574 . S
C3427 C3446 1.368 . S
C3427 H3451 0.949 . S
H3428 C3432 0.949 . S
C3429 C3430 1.349 . S
C3429 C3431 1.327 . S
C3429 H3452 0.950 . S
C3430 C3429 1.349 . S
C3430 C3442 1.349 . S
C3431 C3429 1.327 . S
C3431 C3447 1.429 . S
C3431 H3453 0.950 . S
C3432 H3428 0.949 . S
C3432 C3440 1.574 . S
C3432 C3448 1.368 . S
H3433 C3441 0.950 . S
H3434 C3439 0.950 . S
H3435 C3440 0.949 . S
H3436 C3442 0.950 . S
H3437 C3443 0.950 . S
H3438 C3444 0.949 . S
C3439 H3434 0.950 . S
C3439 C3441 1.327 . S
C3439 C3445 1.429 . S
C3440 C3432 1.574 . S
C3440 H3435 0.949 . S
C3440 C3446 1.368 . S
C3441 C3425 1.349 . S
C3441 H3433 0.950 . S
C3441 C3439 1.327 . S
C3442 C3430 1.349 . S
C3442 H3436 0.950 . S
C3442 C3443 1.327 . S
C3443 H3437 0.950 . S
C3443 C3442 1.327 . S
C3443 C3447 1.429 . S
C3444 C3427 1.574 . S
C3444 H3438 0.949 . S
C3444 C3448 1.368 . S
C3445 C3426 1.429 . S
C3445 C3439 1.429 . S
C3445 C3446 1.523 . S
C3446 C3427 1.368 . S
C3446 C3440 1.368 . S
C3446 C3445 1.523 . S
C3447 C3431 1.429 . S
C3447 C3443 1.429 . S
C3447 C3448 1.523 . S
C3448 C3432 1.368 . S
C3448 C3444 1.368 . S
C3448 C3447 1.523 . S
H3449 C3424 0.950 . S
H3450 C3426 0.950 . S
H3451 C3427 0.949 . S
H3452 C3429 0.950 . S
H3453 C3431 0.950 . S
C3454 C3455 1.349 . S
C3454 C3456 1.327 . S
C3454 H3479 0.950 . S
C3455 C3454 1.349 . S
C3455 C3471 1.349 . S
C3456 C3454 1.327 . S
C3456 C3475 1.429 . S
C3456 H3480 0.950 . S
C3457 C3474 1.574 . S
C3457 C3476 1.368 . S
C3457 H3481 0.949 . S
H3458 C3462 0.949 . S
C3459 C3460 1.349 . S
C3459 C3461 1.327 . S
C3459 H3482 0.950 . S
C3460 C3459 1.349 . S
C3460 C3472 1.349 . S
C3461 C3459 1.327 . S
C3461 C3477 1.429 . S
C3461 H3483 0.950 . S
C3462 H3458 0.949 . S
C3462 C3470 1.574 . S
C3462 C3478 1.368 . S
H3463 C3471 0.950 . S
H3464 C3469 0.950 . S
H3465 C3470 0.949 . S
H3466 C3472 0.950 . S
H3467 C3473 0.950 . S
H3468 C3474 0.949 . S
C3469 H3464 0.950 . S
C3469 C3471 1.327 . S
C3469 C3475 1.429 . S
C3470 C3462 1.574 . S
C3470 H3465 0.949 . S
C3470 C3476 1.368 . S
C3471 C3455 1.349 . S
C3471 H3463 0.950 . S
C3471 C3469 1.327 . S
C3472 C3460 1.349 . S
C3472 H3466 0.950 . S
C3472 C3473 1.327 . S
C3473 H3467 0.950 . S
C3473 C3472 1.327 . S
C3473 C3477 1.429 . S
C3474 C3457 1.574 . S
C3474 H3468 0.949 . S
C3474 C3478 1.368 . S
C3475 C3456 1.429 . S
C3475 C3469 1.429 . S
C3475 C3476 1.523 . S
C3476 C3457 1.368 . S
C3476 C3470 1.368 . S
C3476 C3475 1.523 . S
C3477 C3461 1.429 . S
C3477 C3473 1.429 . S
C3477 C3478 1.523 . S
C3478 C3462 1.368 . S
C3478 C3474 1.368 . S
C3478 C3477 1.523 . S
H3479 C3454 0.950 . S
H3480 C3456 0.950 . S
H3481 C3457 0.949 . S
H3482 C3459 0.950 . S
H3483 C3461 0.950 . S
C3484 C3485 1.349 . S
C3484 C3486 1.327 . S
C3484 H3509 0.950 . S
C3485 C3484 1.349 . S
C3485 C3501 1.349 . S
C3486 C3484 1.327 . S
C3486 C3505 1.429 . S
C3486 H3510 0.950 . S
C3487 C3504 1.574 . S
C3487 C3506 1.368 . S
C3487 H3511 0.949 . S
H3488 C3492 0.949 . S
C3489 C3490 1.349 . S
C3489 C3491 1.327 . S
C3489 H3512 0.950 . S
C3490 C3489 1.349 . S
C3490 C3502 1.349 . S
C3491 C3489 1.327 . S
C3491 C3507 1.429 . S
C3491 H3513 0.950 . S
C3492 H3488 0.949 . S
C3492 C3500 1.574 . S
C3492 C3508 1.368 . S
H3493 C3501 0.950 . S
H3494 C3499 0.950 . S
H3495 C3500 0.949 . S
H3496 C3502 0.950 . S
H3497 C3503 0.950 . S
H3498 C3504 0.949 . S
C3499 H3494 0.950 . S
C3499 C3501 1.327 . S
C3499 C3505 1.429 . S
C3500 C3492 1.574 . S
C3500 H3495 0.949 . S
C3500 C3506 1.368 . S
C3501 C3485 1.349 . S
C3501 H3493 0.950 . S
C3501 C3499 1.327 . S
C3502 C3490 1.349 . S
C3502 H3496 0.950 . S
C3502 C3503 1.327 . S
C3503 H3497 0.950 . S
C3503 C3502 1.327 . S
C3503 C3507 1.429 . S
C3504 C3487 1.574 . S
C3504 H3498 0.949 . S
C3504 C3508 1.368 . S
C3505 C3486 1.429 . S
C3505 C3499 1.429 . S
C3505 C3506 1.523 . S
C3506 C3487 1.368 . S
C3506 C3500 1.368 . S
C3506 C3505 1.523 . S
C3507 C3491 1.429 . S
C3507 C3503 1.429 . S
C3507 C3508 1.523 . S
C3508 C3492 1.368 . S
C3508 C3504 1.368 . S
C3508 C3507 1.523 . S
H3509 C3484 0.950 . S
H3510 C3486 0.950 . S
H3511 C3487 0.949 . S
H3512 C3489 0.950 . S
H3513 C3491 0.950 . S
C3514 C3515 1.349 . S
C3514 C3516 1.327 . S
C3514 H3539 0.950 . S
C3515 C3514 1.349 . S
C3515 C3531 1.349 . S
C3516 C3514 1.327 . S
C3516 C3535 1.429 . S
C3516 H3540 0.950 . S
C3517 C3534 1.574 . S
C3517 C3536 1.368 . S
C3517 H3541 0.949 . S
H3518 C3522 0.949 . S
C3519 C3520 1.349 . S
C3519 C3521 1.327 . S
C3519 H3542 0.950 . S
C3520 C3519 1.349 . S
C3520 C3532 1.349 . S
C3521 C3519 1.327 . S
C3521 C3537 1.429 . S
C3521 H3543 0.950 . S
C3522 H3518 0.949 . S
C3522 C3530 1.574 . S
C3522 C3538 1.368 . S
H3523 C3531 0.950 . S
H3524 C3529 0.950 . S
H3525 C3530 0.949 . S
H3526 C3532 0.950 . S
H3527 C3533 0.950 . S
H3528 C3534 0.949 . S
C3529 H3524 0.950 . S
C3529 C3531 1.327 . S
C3529 C3535 1.429 . S
C3530 C3522 1.574 . S
C3530 H3525 0.949 . S
C3530 C3536 1.368 . S
C3531 C3515 1.349 . S
C3531 H3523 0.950 . S
C3531 C3529 1.327 . S
C3532 C3520 1.349 . S
C3532 H3526 0.950 . S
C3532 C3533 1.327 . S
C3533 H3527 0.950 . S
C3533 C3532 1.327 . S
C3533 C3537 1.429 . S
C3534 C3517 1.574 . S
C3534 H3528 0.949 . S
C3534 C3538 1.368 . S
C3535 C3516 1.429 . S
C3535 C3529 1.429 . S
C3535 C3536 1.523 . S
C3536 C3517 1.368 . S
C3536 C3530 1.368 . S
C3536 C3535 1.523 . S
C3537 C3521 1.429 . S
C3537 C3533 1.429 . S
C3537 C3538 1.523 . S
C3538 C3522 1.368 . S
C3538 C3534 1.368 . S
C3538 C3537 1.523 . S
H3539 C3514 0.950 . S
H3540 C3516 0.950 . S
H3541 C3517 0.949 . S
H3542 C3519 0.950 . S
H3543 C3521 0.950 . S
C3544 C3545 1.349 . S
C3544 C3546 1.327 . S
C3544 H3569 0.950 . S
C3545 C3544 1.349 . S
C3545 C3561 1.349 . S
C3546 C3544 1.327 . S
C3546 C3565 1.429 . S
C3546 H3570 0.950 . S
C3547 C3564 1.574 . S
C3547 C3566 1.368 . S
C3547 H3571 0.949 . S
H3548 C3552 0.949 . S
C3549 C3550 1.349 . S
C3549 C3551 1.327 . S
C3549 H3572 0.950 . S
C3550 C3549 1.349 . S
C3550 C3562 1.349 . S
C3551 C3549 1.327 . S
C3551 C3567 1.429 . S
C3551 H3573 0.950 . S
C3552 H3548 0.949 . S
C3552 C3560 1.574 . S
C3552 C3568 1.368 . S
H3553 C3561 0.950 . S
H3554 C3559 0.950 . S
H3555 C3560 0.949 . S
H3556 C3562 0.950 . S
H3557 C3563 0.950 . S
H3558 C3564 0.949 . S
C3559 H3554 0.950 . S
C3559 C3561 1.327 . S
C3559 C3565 1.429 . S
C3560 C3552 1.574 . S
C3560 H3555 0.949 . S
C3560 C3566 1.368 . S
C3561 C3545 1.349 . S
C3561 H3553 0.950 . S
C3561 C3559 1.327 . S
C3562 C3550 1.349 . S
C3562 H3556 0.950 . S
C3562 C3563 1.327 . S
C3563 H3557 0.950 . S
C3563 C3562 1.327 . S
C3563 C3567 1.429 . S
C3564 C3547 1.574 . S
C3564 H3558 0.949 . S
C3564 C3568 1.368 . S
C3565 C3546 1.429 . S
C3565 C3559 1.429 . S
C3565 C3566 1.523 . S
C3566 C3547 1.368 . S
C3566 C3560 1.368 . S
C3566 C3565 1.523 . S
C3567 C3551 1.429 . S
C3567 C3563 1.429 . S
C3567 C3568 1.523 . S
C3568 C3552 1.368 . S
C3568 C3564 1.368 . S
C3568 C3567 1.523 . S
H3569 C3544 0.950 . S
H3570 C3546 0.950 . S
H3571 C3547 0.949 . S
H3572 C3549 0.950 . S
H3573 C3551 0.950 . S
C3574 C3575 1.349 . S
C3574 C3576 1.327 . S
C3574 H3599 0.950 . S
C3575 C3574 1.349 . S
C3575 C3591 1.349 . S
C3576 C3574 1.327 . S
C3576 C3595 1.429 . S
C3576 H3600 0.950 . S
C3577 C3594 1.574 . S
C3577 C3596 1.368 . S
C3577 H3601 0.949 . S
H3578 C3582 0.949 . S
C3579 C3580 1.349 . S
C3579 C3581 1.327 . S
C3579 H3602 0.950 . S
C3580 C3579 1.349 . S
C3580 C3592 1.349 . S
C3581 C3579 1.327 . S
C3581 C3597 1.429 . S
C3581 H3603 0.950 . S
C3582 H3578 0.949 . S
C3582 C3590 1.574 . S
C3582 C3598 1.368 . S
H3583 C3591 0.950 . S
H3584 C3589 0.950 . S
H3585 C3590 0.949 . S
H3586 C3592 0.950 . S
H3587 C3593 0.950 . S
H3588 C3594 0.949 . S
C3589 H3584 0.950 . S
C3589 C3591 1.327 . S
C3589 C3595 1.429 . S
C3590 C3582 1.574 . S
C3590 H3585 0.949 . S
C3590 C3596 1.368 . S
C3591 C3575 1.349 . S
C3591 H3583 0.950 . S
C3591 C3589 1.327 . S
C3592 C3580 1.349 . S
C3592 H3586 0.950 . S
C3592 C3593 1.327 . S
C3593 H3587 0.950 . S
C3593 C3592 1.327 . S
C3593 C3597 1.429 . S
C3594 C3577 1.574 . S
C3594 H3588 0.949 . S
C3594 C3598 1.368 . S
C3595 C3576 1.429 . S
C3595 C3589 1.429 . S
C3595 C3596 1.523 . S
C3596 C3577 1.368 . S
C3596 C3590 1.368 . S
C3596 C3595 1.523 . S
C3597 C3581 1.429 . S
C3597 C3593 1.429 . S
C3597 C3598 1.523 . S
C3598 C3582 1.368 . S
C3598 C3594 1.368 . S
C3598 C3597 1.523 . S
H3599 C3574 0.950 . S
H3600 C3576 0.950 . S
H3601 C3577 0.949 . S
H3602 C3579 0.950 . S
H3603 C3581 0.950 . S
C3604 C3605 1.349 . S
C3604 C3606 1.327 . S
C3604 H3629 0.950 . S
C3605 C3604 1.349 . S
C3605 C3621 1.349 . S
C3606 C3604 1.327 . S
C3606 C3625 1.429 . S
C3606 H3630 0.950 . S
C3607 C3624 1.574 . S
C3607 C3626 1.368 . S
C3607 H3631 0.949 . S
H3608 C3612 0.949 . S
C3609 C3610 1.349 . S
C3609 C3611 1.327 . S
C3609 H3632 0.950 . S
C3610 C3609 1.349 . S
C3610 C3622 1.349 . S
C3611 C3609 1.327 . S
C3611 C3627 1.429 . S
C3611 H3633 0.950 . S
C3612 H3608 0.949 . S
C3612 C3620 1.574 . S
C3612 C3628 1.368 . S
H3613 C3621 0.950 . S
H3614 C3619 0.950 . S
H3615 C3620 0.949 . S
H3616 C3622 0.950 . S
H3617 C3623 0.950 . S
H3618 C3624 0.949 . S
C3619 H3614 0.950 . S
C3619 C3621 1.327 . S
C3619 C3625 1.429 . S
C3620 C3612 1.574 . S
C3620 H3615 0.949 . S
C3620 C3626 1.368 . S
C3621 C3605 1.349 . S
C3621 H3613 0.950 . S
C3621 C3619 1.327 . S
C3622 C3610 1.349 . S
C3622 H3616 0.950 . S
C3622 C3623 1.327 . S
C3623 H3617 0.950 . S
C3623 C3622 1.327 . S
C3623 C3627 1.429 . S
C3624 C3607 1.574 . S
C3624 H3618 0.949 . S
C3624 C3628 1.368 . S
C3625 C3606 1.429 . S
C3625 C3619 1.429 . S
C3625 C3626 1.523 . S
C3626 C3607 1.368 . S
C3626 C3620 1.368 . S
C3626 C3625 1.523 . S
C3627 C3611 1.429 . S
C3627 C3623 1.429 . S
C3627 C3628 1.523 . S
C3628 C3612 1.368 . S
C3628 C3624 1.368 . S
C3628 C3627 1.523 . S
H3629 C3604 0.950 . S
H3630 C3606 0.950 . S
H3631 C3607 0.949 . S
H3632 C3609 0.950 . S
H3633 C3611 0.950 . S
C3634 C3635 1.349 . S
C3634 C3636 1.327 . S
C3634 H3659 0.950 . S
C3635 C3634 1.349 . S
C3635 C3651 1.349 . S
C3636 C3634 1.327 . S
C3636 C3655 1.429 . S
C3636 H3660 0.950 . S
C3637 C3654 1.574 . S
C3637 C3656 1.368 . S
C3637 H3661 0.949 . S
H3638 C3642 0.949 . S
C3639 C3640 1.349 . S
C3639 C3641 1.327 . S
C3639 H3662 0.950 . S
C3640 C3639 1.349 . S
C3640 C3652 1.349 . S
C3641 C3639 1.327 . S
C3641 C3657 1.429 . S
C3641 H3663 0.950 . S
C3642 H3638 0.949 . S
C3642 C3650 1.574 . S
C3642 C3658 1.368 . S
H3643 C3651 0.950 . S
H3644 C3649 0.950 . S
H3645 C3650 0.949 . S
H3646 C3652 0.950 . S
H3647 C3653 0.950 . S
H3648 C3654 0.949 . S
C3649 H3644 0.950 . S
C3649 C3651 1.327 . S
C3649 C3655 1.429 . S
C3650 C3642 1.574 . S
C3650 H3645 0.949 . S
C3650 C3656 1.368 . S
C3651 C3635 1.349 . S
C3651 H3643 0.950 . S
C3651 C3649 1.327 . S
C3652 C3640 1.349 . S
C3652 H3646 0.950 . S
C3652 C3653 1.327 . S
C3653 H3647 0.950 . S
C3653 C3652 1.327 . S
C3653 C3657 1.429 . S
C3654 C3637 1.574 . S
C3654 H3648 0.949 . S
C3654 C3658 1.368 . S
C3655 C3636 1.429 . S
C3655 C3649 1.429 . S
C3655 C3656 1.523 . S
C3656 C3637 1.368 . S
C3656 C3650 1.368 . S
C3656 C3655 1.523 . S
C3657 C3641 1.429 . S
C3657 C3653 1.429 . S
C3657 C3658 1.523 . S
C3658 C3642 1.368 . S
C3658 C3654 1.368 . S
C3658 C3657 1.523 . S
H3659 C3634 0.950 . S
H3660 C3636 0.950 . S
H3661 C3637 0.949 . S
H3662 C3639 0.950 . S
H3663 C3641 0.950 . S
C3664 C3665 1.349 . S
C3664 C3666 1.327 . S
C3664 H3689 0.950 . S
C3665 C3664 1.349 . S
C3665 C3681 1.349 . S
C3666 C3664 1.327 . S
C3666 C3685 1.429 . S
C3666 H3690 0.950 . S
C3667 C3684 1.574 . S
C3667 C3686 1.368 . S
C3667 H3691 0.949 . S
H3668 C3672 0.949 . S
C3669 C3670 1.349 . S
C3669 C3671 1.327 . S
C3669 H3692 0.950 . S
C3670 C3669 1.349 . S
C3670 C3682 1.349 . S
C3671 C3669 1.327 . S
C3671 C3687 1.429 . S
C3671 H3693 0.950 . S
C3672 H3668 0.949 . S
C3672 C3680 1.574 . S
C3672 C3688 1.368 . S
H3673 C3681 0.950 . S
H3674 C3679 0.950 . S
H3675 C3680 0.949 . S
H3676 C3682 0.950 . S
H3677 C3683 0.950 . S
H3678 C3684 0.949 . S
C3679 H3674 0.950 . S
C3679 C3681 1.327 . S
C3679 C3685 1.429 . S
C3680 C3672 1.574 . S
C3680 H3675 0.949 . S
C3680 C3686 1.368 . S
C3681 C3665 1.349 . S
C3681 H3673 0.950 . S
C3681 C3679 1.327 . S
C3682 C3670 1.349 . S
C3682 H3676 0.950 . S
C3682 C3683 1.327 . S
C3683 H3677 0.950 . S
C3683 C3682 1.327 . S
C3683 C3687 1.429 . S
C3684 C3667 1.574 . S
C3684 H3678 0.949 . S
C3684 C3688 1.368 . S
C3685 C3666 1.429 . S
C3685 C3679 1.429 . S
C3685 C3686 1.523 . S
C3686 C3667 1.368 . S
C3686 C3680 1.368 . S
C3686 C3685 1.523 . S
C3687 C3671 1.429 . S
C3687 C3683 1.429 . S
C3687 C3688 1.523 . S
C3688 C3672 1.368 . S
C3688 C3684 1.368 . S
C3688 C3687 1.523 . S
H3689 C3664 0.950 . S
H3690 C3666 0.950 . S
H3691 C3667 0.949 . S
H3692 C3669 0.950 . S
H3693 C3671 0.950 . S
C3694 C3695 1.349 . S
C3694 C3696 1.327 . S
C3694 H3719 0.950 . S
C3695 C3694 1.349 . S
C3695 C3711 1.349 . S
C3696 C3694 1.327 . S
C3696 C3715 1.429 . S
C3696 H3720 0.950 . S
C3697 C3714 1.574 . S
C3697 C3716 1.368 . S
C3697 H3721 0.949 . S
H3698 C3702 0.949 . S
C3699 C3700 1.349 . S
C3699 C3701 1.327 . S
C3699 H3722 0.950 . S
C3700 C3699 1.349 . S
C3700 C3712 1.349 . S
C3701 C3699 1.327 . S
C3701 C3717 1.429 . S
C3701 H3723 0.950 . S
C3702 H3698 0.949 . S
C3702 C3710 1.574 . S
C3702 C3718 1.368 . S
H3703 C3711 0.950 . S
H3704 C3709 0.950 . S
H3705 C3710 0.949 . S
H3706 C3712 0.950 . S
H3707 C3713 0.950 . S
H3708 C3714 0.949 . S
C3709 H3704 0.950 . S
C3709 C3711 1.327 . S
C3709 C3715 1.429 . S
C3710 C3702 1.574 . S
C3710 H3705 0.949 . S
C3710 C3716 1.368 . S
C3711 C3695 1.349 . S
C3711 H3703 0.950 . S
C3711 C3709 1.327 . S
C3712 C3700 1.349 . S
C3712 H3706 0.950 . S
C3712 C3713 1.327 . S
C3713 H3707 0.950 . S
C3713 C3712 1.327 . S
C3713 C3717 1.429 . S
C3714 C3697 1.574 . S
C3714 H3708 0.949 . S
C3714 C3718 1.368 . S
C3715 C3696 1.429 . S
C3715 C3709 1.429 . S
C3715 C3716 1.523 . S
C3716 C3697 1.368 . S
C3716 C3710 1.368 . S
C3716 C3715 1.523 . S
C3717 C3701 1.429 . S
C3717 C3713 1.429 . S
C3717 C3718 1.523 . S
C3718 C3702 1.368 . S
C3718 C3714 1.368 . S
C3718 C3717 1.523 . S
H3719 C3694 0.950 . S
H3720 C3696 0.950 . S
H3721 C3697 0.949 . S
H3722 C3699 0.950 . S
H3723 C3701 0.950 . S
C3724 C3725 1.349 . S
C3724 C3726 1.327 . S
C3724 H3749 0.950 . S
C3725 C3724 1.349 . S
C3725 C3741 1.349 . S
C3726 C3724 1.327 . S
C3726 C3745 1.429 . S
C3726 H3750 0.950 . S
C3727 C3744 1.574 . S
C3727 C3746 1.368 . S
C3727 H3751 0.949 . S
H3728 C3732 0.949 . S
C3729 C3730 1.349 . S
C3729 C3731 1.327 . S
C3729 H3752 0.950 . S
C3730 C3729 1.349 . S
C3730 C3742 1.349 . S
C3731 C3729 1.327 . S
C3731 C3747 1.429 . S
C3731 H3753 0.950 . S
C3732 H3728 0.949 . S
C3732 C3740 1.574 . S
C3732 C3748 1.368 . S
H3733 C3741 0.950 . S
H3734 C3739 0.950 . S
H3735 C3740 0.949 . S
H3736 C3742 0.950 . S
H3737 C3743 0.950 . S
H3738 C3744 0.949 . S
C3739 H3734 0.950 . S
C3739 C3741 1.327 . S
C3739 C3745 1.429 . S
C3740 C3732 1.574 . S
C3740 H3735 0.949 . S
C3740 C3746 1.368 . S
C3741 C3725 1.349 . S
C3741 H3733 0.950 . S
C3741 C3739 1.327 . S
C3742 C3730 1.349 . S
C3742 H3736 0.950 . S
C3742 C3743 1.327 . S
C3743 H3737 0.950 . S
C3743 C3742 1.327 . S
C3743 C3747 1.429 . S
C3744 C3727 1.574 . S
C3744 H3738 0.949 . S
C3744 C3748 1.368 . S
C3745 C3726 1.429 . S
C3745 C3739 1.429 . S
C3745 C3746 1.523 . S
C3746 C3727 1.368 . S
C3746 C3740 1.368 . S
C3746 C3745 1.523 . S
C3747 C3731 1.429 . S
C3747 C3743 1.429 . S
C3747 C3748 1.523 . S
C3748 C3732 1.368 . S
C3748 C3744 1.368 . S
C3748 C3747 1.523 . S
H3749 C3724 0.950 . S
H3750 C3726 0.950 . S
H3751 C3727 0.949 . S
H3752 C3729 0.950 . S
H3753 C3731 0.950 . S
C3754 C3755 1.349 . S
C3754 C3756 1.327 . S
C3754 H3779 0.950 . S
C3755 C3754 1.349 . S
C3755 C3771 1.349 . S
C3756 C3754 1.327 . S
C3756 C3775 1.429 . S
C3756 H3780 0.950 . S
C3757 C3774 1.574 . S
C3757 C3776 1.368 . S
C3757 H3781 0.949 . S
H3758 C3762 0.949 . S
C3759 C3760 1.349 . S
C3759 C3761 1.327 . S
C3759 H3782 0.950 . S
C3760 C3759 1.349 . S
C3760 C3772 1.349 . S
C3761 C3759 1.327 . S
C3761 C3777 1.429 . S
C3761 H3783 0.950 . S
C3762 H3758 0.949 . S
C3762 C3770 1.574 . S
C3762 C3778 1.368 . S
H3763 C3771 0.950 . S
H3764 C3769 0.950 . S
H3765 C3770 0.949 . S
H3766 C3772 0.950 . S
H3767 C3773 0.950 . S
H3768 C3774 0.949 . S
C3769 H3764 0.950 . S
C3769 C3771 1.327 . S
C3769 C3775 1.429 . S
C3770 C3762 1.574 . S
C3770 H3765 0.949 . S
C3770 C3776 1.368 . S
C3771 C3755 1.349 . S
C3771 H3763 0.950 . S
C3771 C3769 1.327 . S
C3772 C3760 1.349 . S
C3772 H3766 0.950 . S
C3772 C3773 1.327 . S
C3773 H3767 0.950 . S
C3773 C3772 1.327 . S
C3773 C3777 1.429 . S
C3774 C3757 1.574 . S
C3774 H3768 0.949 . S
C3774 C3778 1.368 . S
C3775 C3756 1.429 . S
C3775 C3769 1.429 . S
C3775 C3776 1.523 . S
C3776 C3757 1.368 . S
C3776 C3770 1.368 . S
C3776 C3775 1.523 . S
C3777 C3761 1.429 . S
C3777 C3773 1.429 . S
C3777 C3778 1.523 . S
C3778 C3762 1.368 . S
C3778 C3774 1.368 . S
C3778 C3777 1.523 . S
H3779 C3754 0.950 . S
H3780 C3756 0.950 . S
H3781 C3757 0.949 . S
H3782 C3759 0.950 . S
H3783 C3761 0.950 . S
C3784 C3785 1.349 . S
C3784 C3786 1.327 . S
C3784 H3809 0.950 . S
C3785 C3784 1.349 . S
C3785 C3801 1.349 . S
C3786 C3784 1.327 . S
C3786 C3805 1.429 . S
C3786 H3810 0.950 . S
C3787 C3804 1.574 . S
C3787 C3806 1.368 . S
C3787 H3811 0.949 . S
H3788 C3792 0.949 . S
C3789 C3790 1.349 . S
C3789 C3791 1.327 . S
C3789 H3812 0.950 . S
C3790 C3789 1.349 . S
C3790 C3802 1.349 . S
C3791 C3789 1.327 . S
C3791 C3807 1.429 . S
C3791 H3813 0.950 . S
C3792 H3788 0.949 . S
C3792 C3800 1.574 . S
C3792 C3808 1.368 . S
H3793 C3801 0.950 . S
H3794 C3799 0.950 . S
H3795 C3800 0.949 . S
H3796 C3802 0.950 . S
H3797 C3803 0.950 . S
H3798 C3804 0.949 . S
C3799 H3794 0.950 . S
C3799 C3801 1.327 . S
C3799 C3805 1.429 . S
C3800 C3792 1.574 . S
C3800 H3795 0.949 . S
C3800 C3806 1.368 . S
C3801 C3785 1.349 . S
C3801 H3793 0.950 . S
C3801 C3799 1.327 . S
C3802 C3790 1.349 . S
C3802 H3796 0.950 . S
C3802 C3803 1.327 . S
C3803 H3797 0.950 . S
C3803 C3802 1.327 . S
C3803 C3807 1.429 . S
C3804 C3787 1.574 . S
C3804 H3798 0.949 . S
C3804 C3808 1.368 . S
C3805 C3786 1.429 . S
C3805 C3799 1.429 . S
C3805 C3806 1.523 . S
C3806 C3787 1.368 . S
C3806 C3800 1.368 . S
C3806 C3805 1.523 . S
C3807 C3791 1.429 . S
C3807 C3803 1.429 . S
C3807 C3808 1.523 . S
C3808 C3792 1.368 . S
C3808 C3804 1.368 . S
C3808 C3807 1.523 . S
H3809 C3784 0.950 . S
H3810 C3786 0.950 . S
H3811 C3787 0.949 . S
H3812 C3789 0.950 . S
H3813 C3791 0.950 . S
C3814 C3815 1.349 . S
C3814 C3816 1.327 . S
C3814 H3839 0.950 . S
C3815 C3814 1.349 . S
C3815 C3831 1.349 . S
C3816 C3814 1.327 . S
C3816 C3835 1.429 . S
C3816 H3840 0.950 . S
C3817 C3834 1.574 . S
C3817 C3836 1.368 . S
C3817 H3841 0.949 . S
H3818 C3822 0.949 . S
C3819 C3820 1.349 . S
C3819 C3821 1.327 . S
C3819 H3842 0.950 . S
C3820 C3819 1.349 . S
C3820 C3832 1.349 . S
C3821 C3819 1.327 . S
C3821 C3837 1.429 . S
C3821 H3843 0.950 . S
C3822 H3818 0.949 . S
C3822 C3830 1.574 . S
C3822 C3838 1.368 . S
H3823 C3831 0.950 . S
H3824 C3829 0.950 . S
H3825 C3830 0.949 . S
H3826 C3832 0.950 . S
H3827 C3833 0.950 . S
H3828 C3834 0.949 . S
C3829 H3824 0.950 . S
C3829 C3831 1.327 . S
C3829 C3835 1.429 . S
C3830 C3822 1.574 . S
C3830 H3825 0.949 . S
C3830 C3836 1.368 . S
C3831 C3815 1.349 . S
C3831 H3823 0.950 . S
C3831 C3829 1.327 . S
C3832 C3820 1.349 . S
C3832 H3826 0.950 . S
C3832 C3833 1.327 . S
C3833 H3827 0.950 . S
C3833 C3832 1.327 . S
C3833 C3837 1.429 . S
C3834 C3817 1.574 . S
C3834 H3828 0.949 . S
C3834 C3838 1.368 . S
C3835 C3816 1.429 . S
C3835 C3829 1.429 . S
C3835 C3836 1.523 . S
C3836 C3817 1.368 . S
C3836 C3830 1.368 . S
C3836 C3835 1.523 . S
C3837 C3821 1.429 . S
C3837 C3833 1.429 . S
C3837 C3838 1.523 . S
C3838 C3822 1.368 . S
C3838 C3834 1.368 . S
C3838 C3837 1.523 . S
H3839 C3814 0.950 . S
H3840 C3816 0.950 . S
H3841 C3817 0.949 . S
H3842 C3819 0.950 . S
H3843 C3821 0.950 . S
C3844 C3845 1.349 . S
C3844 C3846 1.327 . S
C3844 H3869 0.950 . S
C3845 C3844 1.349 . S
C3845 C3861 1.349 . S
C3846 C3844 1.327 . S
C3846 C3865 1.429 . S
C3846 H3870 0.950 . S
C3847 C3864 1.574 . S
C3847 C3866 1.368 . S
C3847 H3871 0.949 . S
H3848 C3852 0.949 . S
C3849 C3850 1.349 . S
C3849 C3851 1.327 . S
C3849 H3872 0.950 . S
C3850 C3849 1.349 . S
C3850 C3862 1.349 . S
C3851 C3849 1.327 . S
C3851 C3867 1.429 . S
C3851 H3873 0.950 . S
C3852 H3848 0.949 . S
C3852 C3860 1.574 . S
C3852 C3868 1.368 . S
H3853 C3861 0.950 . S
H3854 C3859 0.950 . S
H3855 C3860 0.949 . S
H3856 C3862 0.950 . S
H3857 C3863 0.950 . S
H3858 C3864 0.949 . S
C3859 H3854 0.950 . S
C3859 C3861 1.327 . S
C3859 C3865 1.429 . S
C3860 C3852 1.574 . S
C3860 H3855 0.949 . S
C3860 C3866 1.368 . S
C3861 C3845 1.349 . S
C3861 H3853 0.950 . S
C3861 C3859 1.327 . S
C3862 C3850 1.349 . S
C3862 H3856 0.950 . S
C3862 C3863 1.327 . S
C3863 H3857 0.950 . S
C3863 C3862 1.327 . S
C3863 C3867 1.429 . S
C3864 C3847 1.574 . S
C3864 H3858 0.949 . S
C3864 C3868 1.368 . S
C3865 C3846 1.429 . S
C3865 C3859 1.429 . S
C3865 C3866 1.523 . S
C3866 C3847 1.368 . S
C3866 C3860 1.368 . S
C3866 C3865 1.523 . S
C3867 C3851 1.429 . S
C3867 C3863 1.429 . S
C3867 C3868 1.523 . S
C3868 C3852 1.368 . S
C3868 C3864 1.368 . S
C3868 C3867 1.523 . S
H3869 C3844 0.950 . S
H3870 C3846 0.950 . S
H3871 C3847 0.949 . S
H3872 C3849 0.950 . S
H3873 C3851 0.950 . S
C3874 C3875 1.349 . S
C3874 C3876 1.327 . S
C3874 H3899 0.950 . S
C3875 C3874 1.349 . S
C3875 C3891 1.349 . S
C3876 C3874 1.327 . S
C3876 C3895 1.429 . S
C3876 H3900 0.950 . S
C3877 C3894 1.574 . S
C3877 C3896 1.368 . S
C3877 H3901 0.949 . S
H3878 C3882 0.949 . S
C3879 C3880 1.349 . S
C3879 C3881 1.327 . S
C3879 H3902 0.950 . S
C3880 C3879 1.349 . S
C3880 C3892 1.349 . S
C3881 C3879 1.327 . S
C3881 C3897 1.429 . S
C3881 H3903 0.950 . S
C3882 H3878 0.949 . S
C3882 C3890 1.574 . S
C3882 C3898 1.368 . S
H3883 C3891 0.950 . S
H3884 C3889 0.950 . S
H3885 C3890 0.949 . S
H3886 C3892 0.950 . S
H3887 C3893 0.950 . S
H3888 C3894 0.949 . S
C3889 H3884 0.950 . S
C3889 C3891 1.327 . S
C3889 C3895 1.429 . S
C3890 C3882 1.574 . S
C3890 H3885 0.949 . S
C3890 C3896 1.368 . S
C3891 C3875 1.349 . S
C3891 H3883 0.950 . S
C3891 C3889 1.327 . S
C3892 C3880 1.349 . S
C3892 H3886 0.950 . S
C3892 C3893 1.327 . S
C3893 H3887 0.950 . S
C3893 C3892 1.327 . S
C3893 C3897 1.429 . S
C3894 C3877 1.574 . S
C3894 H3888 0.949 . S
C3894 C3898 1.368 . S
C3895 C3876 1.429 . S
C3895 C3889 1.429 . S
C3895 C3896 1.523 . S
C3896 C3877 1.368 . S
C3896 C3890 1.368 . S
C3896 C3895 1.523 . S
C3897 C3881 1.429 . S
C3897 C3893 1.429 . S
C3897 C3898 1.523 . S
C3898 C3882 1.368 . S
C3898 C3894 1.368 . S
C3898 C3897 1.523 . S
H3899 C3874 0.950 . S
H3900 C3876 0.950 . S
H3901 C3877 0.949 . S
H3902 C3879 0.950 . S
H3903 C3881 0.950 . S
C3904 C3905 1.349 . S
C3904 C3906 1.327 . S
C3904 H3929 0.950 . S
C3905 C3904 1.349 . S
C3905 C3921 1.349 . S
C3906 C3904 1.327 . S
C3906 C3925 1.429 . S
C3906 H3930 0.950 . S
C3907 C3924 1.574 . S
C3907 C3926 1.368 . S
C3907 H3931 0.949 . S
H3908 C3912 0.949 . S
C3909 C3910 1.349 . S
C3909 C3911 1.327 . S
C3909 H3932 0.950 . S
C3910 C3909 1.349 . S
C3910 C3922 1.349 . S
C3911 C3909 1.327 . S
C3911 C3927 1.429 . S
C3911 H3933 0.950 . S
C3912 H3908 0.949 . S
C3912 C3920 1.574 . S
C3912 C3928 1.368 . S
H3913 C3921 0.950 . S
H3914 C3919 0.950 . S
H3915 C3920 0.949 . S
H3916 C3922 0.950 . S
H3917 C3923 0.950 . S
H3918 C3924 0.949 . S
C3919 H3914 0.950 . S
C3919 C3921 1.327 . S
C3919 C3925 1.429 . S
C3920 C3912 1.574 . S
C3920 H3915 0.949 . S
C3920 C3926 1.368 . S
C3921 C3905 1.349 . S
C3921 H3913 0.950 . S
C3921 C3919 1.327 . S
C3922 C3910 1.349 . S
C3922 H3916 0.950 . S
C3922 C3923 1.327 . S
C3923 H3917 0.950 . S
C3923 C3922 1.327 . S
C3923 C3927 1.429 . S
C3924 C3907 1.574 . S
C3924 H3918 0.949 . S
C3924 C3928 1.368 . S
C3925 C3906 1.429 . S
C3925 C3919 1.429 . S
C3925 C3926 1.523 . S
C3926 C3907 1.368 . S
C3926 C3920 1.368 . S
C3926 C3925 1.523 . S
C3927 C3911 1.429 . S
C3927 C3923 1.429 . S
C3927 C3928 1.523 . S
C3928 C3912 1.368 . S
C3928 C3924 1.368 . S
C3928 C3927 1.523 . S
H3929 C3904 0.950 . S
H3930 C3906 0.950 . S
H3931 C3907 0.949 . S
H3932 C3909 0.950 . S
H3933 C3911 0.950 . S
C3934 C3935 1.349 . S
C3934 C3936 1.327 . S
C3934 H3959 0.950 . S
C3935 C3934 1.349 . S
C3935 C3951 1.349 . S
C3936 C3934 1.327 . S
C3936 C3955 1.429 . S
C3936 H3960 0.950 . S
C3937 C3954 1.574 . S
C3937 C3956 1.368 . S
C3937 H3961 0.949 . S
H3938 C3942 0.949 . S
C3939 C3940 1.349 . S
C3939 C3941 1.327 . S
C3939 H3962 0.950 . S
C3940 C3939 1.349 . S
C3940 C3952 1.349 . S
C3941 C3939 1.327 . S
C3941 C3957 1.429 . S
C3941 H3963 0.950 . S
C3942 H3938 0.949 . S
C3942 C3950 1.574 . S
C3942 C3958 1.368 . S
H3943 C3951 0.950 . S
H3944 C3949 0.950 . S
H3945 C3950 0.949 . S
H3946 C3952 0.950 . S
H3947 C3953 0.950 . S
H3948 C3954 0.949 . S
C3949 H3944 0.950 . S
C3949 C3951 1.327 . S
C3949 C3955 1.429 . S
C3950 C3942 1.574 . S
C3950 H3945 0.949 . S
C3950 C3956 1.368 . S
C3951 C3935 1.349 . S
C3951 H3943 0.950 . S
C3951 C3949 1.327 . S
C3952 C3940 1.349 . S
C3952 H3946 0.950 . S
C3952 C3953 1.327 . S
C3953 H3947 0.950 . S
C3953 C3952 1.327 . S
C3953 C3957 1.429 . S
C3954 C3937 1.574 . S
C3954 H3948 0.949 . S
C3954 C3958 1.368 . S
C3955 C3936 1.429 . S
C3955 C3949 1.429 . S
C3955 C3956 1.523 . S
C3956 C3937 1.368 . S
C3956 C3950 1.368 . S
C3956 C3955 1.523 . S
C3957 C3941 1.429 . S
C3957 C3953 1.429 . S
C3957 C3958 1.523 . S
C3958 C3942 1.368 . S
C3958 C3954 1.368 . S
C3958 C3957 1.523 . S
H3959 C3934 0.950 . S
H3960 C3936 0.950 . S
H3961 C3937 0.949 . S
H3962 C3939 0.950 . S
H3963 C3941 0.950 . S
C3964 C3965 1.349 . S
C3964 C3966 1.327 . S
C3964 H3989 0.950 . S
C3965 C3964 1.349 . S
C3965 C3981 1.349 . S
C3966 C3964 1.327 . S
C3966 C3985 1.429 . S
C3966 H3990 0.950 . S
C3967 C3984 1.574 . S
C3967 C3986 1.368 . S
C3967 H3991 0.949 . S
H3968 C3972 0.949 . S
C3969 C3970 1.349 . S
C3969 C3971 1.327 . S
C3969 H3992 0.950 . S
C3970 C3969 1.349 . S
C3970 C3982 1.349 . S
C3971 C3969 1.327 . S
C3971 C3987 1.429 . S
C3971 H3993 0.950 . S
C3972 H3968 0.949 . S
C3972 C3980 1.574 . S
C3972 C3988 1.368 . S
H3973 C3981 0.950 . S
H3974 C3979 0.950 . S
H3975 C3980 0.949 . S
H3976 C3982 0.950 . S
H3977 C3983 0.950 . S
H3978 C3984 0.949 . S
C3979 H3974 0.950 . S
C3979 C3981 1.327 . S
C3979 C3985 1.429 . S
C3980 C3972 1.574 . S
C3980 H3975 0.949 . S
C3980 C3986 1.368 . S
C3981 C3965 1.349 . S
C3981 H3973 0.950 . S
C3981 C3979 1.327 . S
C3982 C3970 1.349 . S
C3982 H3976 0.950 . S
C3982 C3983 1.327 . S
C3983 H3977 0.950 . S
C3983 C3982 1.327 . S
C3983 C3987 1.429 . S
C3984 C3967 1.574 . S
C3984 H3978 0.949 . S
C3984 C3988 1.368 . S
C3985 C3966 1.429 . S
C3985 C3979 1.429 . S
C3985 C3986 1.523 . S
C3986 C3967 1.368 . S
C3986 C3980 1.368 . S
C3986 C3985 1.523 . S
C3987 C3971 1.429 . S
C3987 C3983 1.429 . S
C3987 C3988 1.523 . S
C3988 C3972 1.368 . S
C3988 C3984 1.368 . S
C3988 C3987 1.523 . S
H3989 C3964 0.950 . S
H3990 C3966 0.950 . S
H3991 C3967 0.949 . S
H3992 C3969 0.950 . S
H3993 C3971 0.950 . S
C3994 C3995 1.349 . S
C3994 C3996 1.327 . S
C3994 H4019 0.950 . S
C3995 C3994 1.349 . S
C3995 C4011 1.349 . S
C3996 C3994 1.327 . S
C3996 C4015 1.429 . S
C3996 H4020 0.950 . S
C3997 C4014 1.574 . S
C3997 C4016 1.368 . S
C3997 H4021 0.949 . S
H3998 C4002 0.949 . S
C3999 C4000 1.349 . S
C3999 C4001 1.327 . S
C3999 H4022 0.950 . S
C4000 C3999 1.349 . S
C4000 C4012 1.349 . S
C4001 C3999 1.327 . S
C4001 C4017 1.429 . S
C4001 H4023 0.950 . S
C4002 H3998 0.949 . S
C4002 C4010 1.574 . S
C4002 C4018 1.368 . S
H4003 C4011 0.950 . S
H4004 C4009 0.950 . S
H4005 C4010 0.949 . S
H4006 C4012 0.950 . S
H4007 C4013 0.950 . S
H4008 C4014 0.949 . S
C4009 H4004 0.950 . S
C4009 C4011 1.327 . S
C4009 C4015 1.429 . S
C4010 C4002 1.574 . S
C4010 H4005 0.949 . S
C4010 C4016 1.368 . S
C4011 C3995 1.349 . S
C4011 H4003 0.950 . S
C4011 C4009 1.327 . S
C4012 C4000 1.349 . S
C4012 H4006 0.950 . S
C4012 C4013 1.327 . S
C4013 H4007 0.950 . S
C4013 C4012 1.327 . S
C4013 C4017 1.429 . S
C4014 C3997 1.574 . S
C4014 H4008 0.949 . S
C4014 C4018 1.368 . S
C4015 C3996 1.429 . S
C4015 C4009 1.429 . S
C4015 C4016 1.523 . S
C4016 C3997 1.368 . S
C4016 C4010 1.368 . S
C4016 C4015 1.523 . S
C4017 C4001 1.429 . S
C4017 C4013 1.429 . S
C4017 C4018 1.523 . S
C4018 C4002 1.368 . S
C4018 C4014 1.368 . S
C4018 C4017 1.523 . S
H4019 C3994 0.950 . S
H4020 C3996 0.950 . S
H4021 C3997 0.949 . S
H4022 C3999 0.950 . S
H4023 C4001 0.950 . S
C4024 C4025 1.349 . S
C4024 C4026 1.327 . S
C4024 H4049 0.950 . S
C4025 C4024 1.349 . S
C4025 C4041 1.349 . S
C4026 C4024 1.327 . S
C4026 C4045 1.429 . S
C4026 H4050 0.950 . S
C4027 C4044 1.574 . S
C4027 C4046 1.368 . S
C4027 H4051 0.949 . S
H4028 C4032 0.949 . S
C4029 C4030 1.349 . S
C4029 C4031 1.327 . S
C4029 H4052 0.950 . S
C4030 C4029 1.349 . S
C4030 C4042 1.349 . S
C4031 C4029 1.327 . S
C4031 C4047 1.429 . S
C4031 H4053 0.950 . S
C4032 H4028 0.949 . S
C4032 C4040 1.574 . S
C4032 C4048 1.368 . S
H4033 C4041 0.950 . S
H4034 C4039 0.950 . S
H4035 C4040 0.949 . S
H4036 C4042 0.950 . S
H4037 C4043 0.950 . S
H4038 C4044 0.949 . S
C4039 H4034 0.950 . S
C4039 C4041 1.327 . S
C4039 C4045 1.429 . S
C4040 C4032 1.574 . S
C4040 H4035 0.949 . S
C4040 C4046 1.368 . S
C4041 C4025 1.349 . S
C4041 H4033 0.950 . S
C4041 C4039 1.327 . S
C4042 C4030 1.349 . S
C4042 H4036 0.950 . S
C4042 C4043 1.327 . S
C4043 H4037 0.950 . S
C4043 C4042 1.327 . S
C4043 C4047 1.429 . S
C4044 C4027 1.574 . S
C4044 H4038 0.949 . S
C4044 C4048 1.368 . S
C4045 C4026 1.429 . S
C4045 C4039 1.429 . S
C4045 C4046 1.523 . S
C4046 C4027 1.368 . S
C4046 C4040 1.368 . S
C4046 C4045 1.523 . S
C4047 C4031 1.429 . S
C4047 C4043 1.429 . S
C4047 C4048 1.523 . S
C4048 C4032 1.368 . S
C4048 C4044 1.368 . S
C4048 C4047 1.523 . S
H4049 C4024 0.950 . S
H4050 C4026 0.950 . S
H4051 C4027 0.949 . S
H4052 C4029 0.950 . S
H4053 C4031 0.950 . S
C4054 C4055 1.349 . S
C4054 C4056 1.327 . S
C4054 H4079 0.950 . S
C4055 C4054 1.349 . S
C4055 C4071 1.349 . S
C4056 C4054 1.327 . S
C4056 C4075 1.429 . S
C4056 H4080 0.950 . S
C4057 C4074 1.574 . S
C4057 C4076 1.368 . S
C4057 H4081 0.949 . S
H4058 C4062 0.949 . S
C4059 C4060 1.349 . S
C4059 C4061 1.327 . S
C4059 H4082 0.950 . S
C4060 C4059 1.349 . S
C4060 C4072 1.349 . S
C4061 C4059 1.327 . S
C4061 C4077 1.429 . S
C4061 H4083 0.950 . S
C4062 H4058 0.949 . S
C4062 C4070 1.574 . S
C4062 C4078 1.368 . S
H4063 C4071 0.950 . S
H4064 C4069 0.950 . S
H4065 C4070 0.949 . S
H4066 C4072 0.950 . S
H4067 C4073 0.950 . S
H4068 C4074 0.949 . S
C4069 H4064 0.950 . S
C4069 C4071 1.327 . S
C4069 C4075 1.429 . S
C4070 C4062 1.574 . S
C4070 H4065 0.949 . S
C4070 C4076 1.368 . S
C4071 C4055 1.349 . S
C4071 H4063 0.950 . S
C4071 C4069 1.327 . S
C4072 C4060 1.349 . S
C4072 H4066 0.950 . S
C4072 C4073 1.327 . S
C4073 H4067 0.950 . S
C4073 C4072 1.327 . S
C4073 C4077 1.429 . S
C4074 C4057 1.574 . S
C4074 H4068 0.949 . S
C4074 C4078 1.368 . S
C4075 C4056 1.429 . S
C4075 C4069 1.429 . S
C4075 C4076 1.523 . S
C4076 C4057 1.368 . S
C4076 C4070 1.368 . S
C4076 C4075 1.523 . S
C4077 C4061 1.429 . S
C4077 C4073 1.429 . S
C4077 C4078 1.523 . S
C4078 C4062 1.368 . S
C4078 C4074 1.368 . S
C4078 C4077 1.523 . S
H4079 C4054 0.950 . S
H4080 C4056 0.950 . S
H4081 C4057 0.949 . S
H4082 C4059 0.950 . S
H4083 C4061 0.950 . S
C4084 C4085 1.349 . S
C4084 C4086 1.327 . S
C4084 H4109 0.950 . S
C4085 C4084 1.349 . S
C4085 C4101 1.349 . S
C4086 C4084 1.327 . S
C4086 C4105 1.429 . S
C4086 H4110 0.950 . S
C4087 C4104 1.574 . S
C4087 C4106 1.368 . S
C4087 H4111 0.949 . S
H4088 C4092 0.949 . S
C4089 C4090 1.349 . S
C4089 C4091 1.327 . S
C4089 H4112 0.950 . S
C4090 C4089 1.349 . S
C4090 C4102 1.349 . S
C4091 C4089 1.327 . S
C4091 C4107 1.429 . S
C4091 H4113 0.950 . S
C4092 H4088 0.949 . S
C4092 C4100 1.574 . S
C4092 C4108 1.368 . S
H4093 C4101 0.950 . S
H4094 C4099 0.950 . S
H4095 C4100 0.949 . S
H4096 C4102 0.950 . S
H4097 C4103 0.950 . S
H4098 C4104 0.949 . S
C4099 H4094 0.950 . S
C4099 C4101 1.327 . S
C4099 C4105 1.429 . S
C4100 C4092 1.574 . S
C4100 H4095 0.949 . S
C4100 C4106 1.368 . S
C4101 C4085 1.349 . S
C4101 H4093 0.950 . S
C4101 C4099 1.327 . S
C4102 C4090 1.349 . S
C4102 H4096 0.950 . S
C4102 C4103 1.327 . S
C4103 H4097 0.950 . S
C4103 C4102 1.327 . S
C4103 C4107 1.429 . S
C4104 C4087 1.574 . S
C4104 H4098 0.949 . S
C4104 C4108 1.368 . S
C4105 C4086 1.429 . S
C4105 C4099 1.429 . S
C4105 C4106 1.523 . S
C4106 C4087 1.368 . S
C4106 C4100 1.368 . S
C4106 C4105 1.523 . S
C4107 C4091 1.429 . S
C4107 C4103 1.429 . S
C4107 C4108 1.523 . S
C4108 C4092 1.368 . S
C4108 C4104 1.368 . S
C4108 C4107 1.523 . S
H4109 C4084 0.950 . S
H4110 C4086 0.950 . S
H4111 C4087 0.949 . S
H4112 C4089 0.950 . S
H4113 C4091 0.950 . S
C4114 C4115 1.349 . S
C4114 C4116 1.327 . S
C4114 H4139 0.950 . S
C4115 C4114 1.349 . S
C4115 C4131 1.349 . S
C4116 C4114 1.327 . S
C4116 C4135 1.429 . S
C4116 H4140 0.950 . S
C4117 C4134 1.574 . S
C4117 C4136 1.368 . S
C4117 H4141 0.949 . S
H4118 C4122 0.949 . S
C4119 C4120 1.349 . S
C4119 C4121 1.327 . S
C4119 H4142 0.950 . S
C4120 C4119 1.349 . S
C4120 C4132 1.349 . S
C4121 C4119 1.327 . S
C4121 C4137 1.429 . S
C4121 H4143 0.950 . S
C4122 H4118 0.949 . S
C4122 C4130 1.574 . S
C4122 C4138 1.368 . S
H4123 C4131 0.950 . S
H4124 C4129 0.950 . S
H4125 C4130 0.949 . S
H4126 C4132 0.950 . S
H4127 C4133 0.950 . S
H4128 C4134 0.949 . S
C4129 H4124 0.950 . S
C4129 C4131 1.327 . S
C4129 C4135 1.429 . S
C4130 C4122 1.574 . S
C4130 H4125 0.949 . S
C4130 C4136 1.368 . S
C4131 C4115 1.349 . S
C4131 H4123 0.950 . S
C4131 C4129 1.327 . S
C4132 C4120 1.349 . S
C4132 H4126 0.950 . S
C4132 C4133 1.327 . S
C4133 H4127 0.950 . S
C4133 C4132 1.327 . S
C4133 C4137 1.429 . S
C4134 C4117 1.574 . S
C4134 H4128 0.949 . S
C4134 C4138 1.368 . S
C4135 C4116 1.429 . S
C4135 C4129 1.429 . S
C4135 C4136 1.523 . S
C4136 C4117 1.368 . S
C4136 C4130 1.368 . S
C4136 C4135 1.523 . S
C4137 C4121 1.429 . S
C4137 C4133 1.429 . S
C4137 C4138 1.523 . S
C4138 C4122 1.368 . S
C4138 C4134 1.368 . S
C4138 C4137 1.523 . S
H4139 C4114 0.950 . S
H4140 C4116 0.950 . S
H4141 C4117 0.949 . S
H4142 C4119 0.950 . S
H4143 C4121 0.950 . S
C4144 C4145 1.349 . S
C4144 C4146 1.327 . S
C4144 H4169 0.950 . S
C4145 C4144 1.349 . S
C4145 C4161 1.349 . S
C4146 C4144 1.327 . S
C4146 C4165 1.429 . S
C4146 H4170 0.950 . S
C4147 C4164 1.574 . S
C4147 C4166 1.368 . S
C4147 H4171 0.949 . S
H4148 C4152 0.949 . S
C4149 C4150 1.349 . S
C4149 C4151 1.327 . S
C4149 H4172 0.950 . S
C4150 C4149 1.349 . S
C4150 C4162 1.349 . S
C4151 C4149 1.327 . S
C4151 C4167 1.429 . S
C4151 H4173 0.950 . S
C4152 H4148 0.949 . S
C4152 C4160 1.574 . S
C4152 C4168 1.368 . S
H4153 C4161 0.950 . S
H4154 C4159 0.950 . S
H4155 C4160 0.949 . S
H4156 C4162 0.950 . S
H4157 C4163 0.950 . S
H4158 C4164 0.949 . S
C4159 H4154 0.950 . S
C4159 C4161 1.327 . S
C4159 C4165 1.429 . S
C4160 C4152 1.574 . S
C4160 H4155 0.949 . S
C4160 C4166 1.368 . S
C4161 C4145 1.349 . S
C4161 H4153 0.950 . S
C4161 C4159 1.327 . S
C4162 C4150 1.349 . S
C4162 H4156 0.950 . S
C4162 C4163 1.327 . S
C4163 H4157 0.950 . S
C4163 C4162 1.327 . S
C4163 C4167 1.429 . S
C4164 C4147 1.574 . S
C4164 H4158 0.949 . S
C4164 C4168 1.368 . S
C4165 C4146 1.429 . S
C4165 C4159 1.429 . S
C4165 C4166 1.523 . S
C4166 C4147 1.368 . S
C4166 C4160 1.368 . S
C4166 C4165 1.523 . S
C4167 C4151 1.429 . S
C4167 C4163 1.429 . S
C4167 C4168 1.523 . S
C4168 C4152 1.368 . S
C4168 C4164 1.368 . S
C4168 C4167 1.523 . S
H4169 C4144 0.950 . S
H4170 C4146 0.950 . S
H4171 C4147 0.949 . S
H4172 C4149 0.950 . S
H4173 C4151 0.950 . S
C4174 C4175 1.349 . S
C4174 C4176 1.327 . S
C4174 H4199 0.950 . S
C4175 C4174 1.349 . S
C4175 C4191 1.349 . S
C4176 C4174 1.327 . S
C4176 C4195 1.429 . S
C4176 H4200 0.950 . S
C4177 C4194 1.574 . S
C4177 C4196 1.368 . S
C4177 H4201 0.949 . S
H4178 C4182 0.949 . S
C4179 C4180 1.349 . S
C4179 C4181 1.327 . S
C4179 H4202 0.950 . S
C4180 C4179 1.349 . S
C4180 C4192 1.349 . S
C4181 C4179 1.327 . S
C4181 C4197 1.429 . S
C4181 H4203 0.950 . S
C4182 H4178 0.949 . S
C4182 C4190 1.574 . S
C4182 C4198 1.368 . S
H4183 C4191 0.950 . S
H4184 C4189 0.950 . S
H4185 C4190 0.949 . S
H4186 C4192 0.950 . S
H4187 C4193 0.950 . S
H4188 C4194 0.949 . S
C4189 H4184 0.950 . S
C4189 C4191 1.327 . S
C4189 C4195 1.429 . S
C4190 C4182 1.574 . S
C4190 H4185 0.949 . S
C4190 C4196 1.368 . S
C4191 C4175 1.349 . S
C4191 H4183 0.950 . S
C4191 C4189 1.327 . S
C4192 C4180 1.349 . S
C4192 H4186 0.950 . S
C4192 C4193 1.327 . S
C4193 H4187 0.950 . S
C4193 C4192 1.327 . S
C4193 C4197 1.429 . S
C4194 C4177 1.574 . S
C4194 H4188 0.949 . S
C4194 C4198 1.368 . S
C4195 C4176 1.429 . S
C4195 C4189 1.429 . S
C4195 C4196 1.523 . S
C4196 C4177 1.368 . S
C4196 C4190 1.368 . S
C4196 C4195 1.523 . S
C4197 C4181 1.429 . S
C4197 C4193 1.429 . S
C4197 C4198 1.523 . S
C4198 C4182 1.368 . S
C4198 C4194 1.368 . S
C4198 C4197 1.523 . S
H4199 C4174 0.950 . S
H4200 C4176 0.950 . S
H4201 C4177 0.949 . S
H4202 C4179 0.950 . S
H4203 C4181 0.950 . S
C4204 C4205 1.349 . S
C4204 C4206 1.327 . S
C4204 H4229 0.950 . S
C4205 C4204 1.349 . S
C4205 C4221 1.349 . S
C4206 C4204 1.327 . S
C4206 C4225 1.429 . S
C4206 H4230 0.950 . S
C4207 C4224 1.574 . S
C4207 C4226 1.368 . S
C4207 H4231 0.949 . S
H4208 C4212 0.949 . S
C4209 C4210 1.349 . S
C4209 C4211 1.327 . S
C4209 H4232 0.950 . S
C4210 C4209 1.349 . S
C4210 C4222 1.349 . S
C4211 C4209 1.327 . S
C4211 C4227 1.429 . S
C4211 H4233 0.950 . S
C4212 H4208 0.949 . S
C4212 C4220 1.574 . S
C4212 C4228 1.368 . S
H4213 C4221 0.950 . S
H4214 C4219 0.950 . S
H4215 C4220 0.949 . S
H4216 C4222 0.950 . S
H4217 C4223 0.950 . S
H4218 C4224 0.949 . S
C4219 H4214 0.950 . S
C4219 C4221 1.327 . S
C4219 C4225 1.429 . S
C4220 C4212 1.574 . S
C4220 H4215 0.949 . S
C4220 C4226 1.368 . S
C4221 C4205 1.349 . S
C4221 H4213 0.950 . S
C4221 C4219 1.327 . S
C4222 C4210 1.349 . S
C4222 H4216 0.950 . S
C4222 C4223 1.327 . S
C4223 H4217 0.950 . S
C4223 C4222 1.327 . S
C4223 C4227 1.429 . S
C4224 C4207 1.574 . S
C4224 H4218 0.949 . S
C4224 C4228 1.368 . S
C4225 C4206 1.429 . S
C4225 C4219 1.429 . S
C4225 C4226 1.523 . S
C4226 C4207 1.368 . S
C4226 C4220 1.368 . S
C4226 C4225 1.523 . S
C4227 C4211 1.429 . S
C4227 C4223 1.429 . S
C4227 C4228 1.523 . S
C4228 C4212 1.368 . S
C4228 C4224 1.368 . S
C4228 C4227 1.523 . S
H4229 C4204 0.950 . S
H4230 C4206 0.950 . S
H4231 C4207 0.949 . S
H4232 C4209 0.950 . S
H4233 C4211 0.950 . S
C4234 C4235 1.349 . S
C4234 C4236 1.327 . S
C4234 H4259 0.950 . S
C4235 C4234 1.349 . S
C4235 C4251 1.349 . S
C4236 C4234 1.327 . S
C4236 C4255 1.429 . S
C4236 H4260 0.950 . S
C4237 C4254 1.574 . S
C4237 C4256 1.368 . S
C4237 H4261 0.949 . S
H4238 C4242 0.949 . S
C4239 C4240 1.349 . S
C4239 C4241 1.327 . S
C4239 H4262 0.950 . S
C4240 C4239 1.349 . S
C4240 C4252 1.349 . S
C4241 C4239 1.327 . S
C4241 C4257 1.429 . S
C4241 H4263 0.950 . S
C4242 H4238 0.949 . S
C4242 C4250 1.574 . S
C4242 C4258 1.368 . S
H4243 C4251 0.950 . S
H4244 C4249 0.950 . S
H4245 C4250 0.949 . S
H4246 C4252 0.950 . S
H4247 C4253 0.950 . S
H4248 C4254 0.949 . S
C4249 H4244 0.950 . S
C4249 C4251 1.327 . S
C4249 C4255 1.429 . S
C4250 C4242 1.574 . S
C4250 H4245 0.949 . S
C4250 C4256 1.368 . S
C4251 C4235 1.349 . S
C4251 H4243 0.950 . S
C4251 C4249 1.327 . S
C4252 C4240 1.349 . S
C4252 H4246 0.950 . S
C4252 C4253 1.327 . S
C4253 H4247 0.950 . S
C4253 C4252 1.327 . S
C4253 C4257 1.429 . S
C4254 C4237 1.574 . S
C4254 H4248 0.949 . S
C4254 C4258 1.368 . S
C4255 C4236 1.429 . S
C4255 C4249 1.429 . S
C4255 C4256 1.523 . S
C4256 C4237 1.368 . S
C4256 C4250 1.368 . S
C4256 C4255 1.523 . S
C4257 C4241 1.429 . S
C4257 C4253 1.429 . S
C4257 C4258 1.523 . S
C4258 C4242 1.368 . S
C4258 C4254 1.368 . S
C4258 C4257 1.523 . S
H4259 C4234 0.950 . S
H4260 C4236 0.950 . S
H4261 C4237 0.949 . S
H4262 C4239 0.950 . S
H4263 C4241 0.950 . S
C4264 C4265 1.349 . S
C4264 C4266 1.327 . S
C4264 H4289 0.950 . S
C4265 C4264 1.349 . S
C4265 C4281 1.349 . S
C4266 C4264 1.327 . S
C4266 C4285 1.429 . S
C4266 H4290 0.950 . S
C4267 C4284 1.574 . S
C4267 C4286 1.368 . S
C4267 H4291 0.949 . S
H4268 C4272 0.949 . S
C4269 C4270 1.349 . S
C4269 C4271 1.327 . S
C4269 H4292 0.950 . S
C4270 C4269 1.349 . S
C4270 C4282 1.349 . S
C4271 C4269 1.327 . S
C4271 C4287 1.429 . S
C4271 H4293 0.950 . S
C4272 H4268 0.949 . S
C4272 C4280 1.574 . S
C4272 C4288 1.368 . S
H4273 C4281 0.950 . S
H4274 C4279 0.950 . S
H4275 C4280 0.949 . S
H4276 C4282 0.950 . S
H4277 C4283 0.950 . S
H4278 C4284 0.949 . S
C4279 H4274 0.950 . S
C4279 C4281 1.327 . S
C4279 C4285 1.429 . S
C4280 C4272 1.574 . S
C4280 H4275 0.949 . S
C4280 C4286 1.368 . S
C4281 C4265 1.349 . S
C4281 H4273 0.950 . S
C4281 C4279 1.327 . S
C4282 C4270 1.349 . S
C4282 H4276 0.950 . S
C4282 C4283 1.327 . S
C4283 H4277 0.950 . S
C4283 C4282 1.327 . S
C4283 C4287 1.429 . S
C4284 C4267 1.574 . S
C4284 H4278 0.949 . S
C4284 C4288 1.368 . S
C4285 C4266 1.429 . S
C4285 C4279 1.429 . S
C4285 C4286 1.523 . S
C4286 C4267 1.368 . S
C4286 C4280 1.368 . S
C4286 C4285 1.523 . S
C4287 C4271 1.429 . S
C4287 C4283 1.429 . S
C4287 C4288 1.523 . S
C4288 C4272 1.368 . S
C4288 C4284 1.368 . S
C4288 C4287 1.523 . S
H4289 C4264 0.950 . S
H4290 C4266 0.950 . S
H4291 C4267 0.949 . S
H4292 C4269 0.950 . S
H4293 C4271 0.950 . S
C4294 C4295 1.349 . S
C4294 C4296 1.327 . S
C4294 H4319 0.950 . S
C4295 C4294 1.349 . S
C4295 C4311 1.349 . S
C4296 C4294 1.327 . S
C4296 C4315 1.429 . S
C4296 H4320 0.950 . S
C4297 C4314 1.574 . S
C4297 C4316 1.368 . S
C4297 H4321 0.949 . S
H4298 C4302 0.949 . S
C4299 C4300 1.349 . S
C4299 C4301 1.327 . S
C4299 H4322 0.950 . S
C4300 C4299 1.349 . S
C4300 C4312 1.349 . S
C4301 C4299 1.327 . S
C4301 C4317 1.429 . S
C4301 H4323 0.950 . S
C4302 H4298 0.949 . S
C4302 C4310 1.574 . S
C4302 C4318 1.368 . S
H4303 C4311 0.950 . S
H4304 C4309 0.950 . S
H4305 C4310 0.949 . S
H4306 C4312 0.950 . S
H4307 C4313 0.950 . S
H4308 C4314 0.949 . S
C4309 H4304 0.950 . S
C4309 C4311 1.327 . S
C4309 C4315 1.429 . S
C4310 C4302 1.574 . S
C4310 H4305 0.949 . S
C4310 C4316 1.368 . S
C4311 C4295 1.349 . S
C4311 H4303 0.950 . S
C4311 C4309 1.327 . S
C4312 C4300 1.349 . S
C4312 H4306 0.950 . S
C4312 C4313 1.327 . S
C4313 H4307 0.950 . S
C4313 C4312 1.327 . S
C4313 C4317 1.429 . S
C4314 C4297 1.574 . S
C4314 H4308 0.949 . S
C4314 C4318 1.368 . S
C4315 C4296 1.429 . S
C4315 C4309 1.429 . S
C4315 C4316 1.523 . S
C4316 C4297 1.368 . S
C4316 C4310 1.368 . S
C4316 C4315 1.523 . S
C4317 C4301 1.429 . S
C4317 C4313 1.429 . S
C4317 C4318 1.523 . S
C4318 C4302 1.368 . S
C4318 C4314 1.368 . S
C4318 C4317 1.523 . S
H4319 C4294 0.950 . S
H4320 C4296 0.950 . S
H4321 C4297 0.949 . S
H4322 C4299 0.950 . S
H4323 C4301 0.950 . S
C4324 C4325 1.349 . S
C4324 C4326 1.327 . S
C4324 H4349 0.950 . S
C4325 C4324 1.349 . S
C4325 C4341 1.349 . S
C4326 C4324 1.327 . S
C4326 C4345 1.429 . S
C4326 H4350 0.950 . S
C4327 C4344 1.574 . S
C4327 C4346 1.368 . S
C4327 H4351 0.949 . S
H4328 C4332 0.949 . S
C4329 C4330 1.349 . S
C4329 C4331 1.327 . S
C4329 H4352 0.950 . S
C4330 C4329 1.349 . S
C4330 C4342 1.349 . S
C4331 C4329 1.327 . S
C4331 C4347 1.429 . S
C4331 H4353 0.950 . S
C4332 H4328 0.949 . S
C4332 C4340 1.574 . S
C4332 C4348 1.368 . S
H4333 C4341 0.950 . S
H4334 C4339 0.950 . S
H4335 C4340 0.949 . S
H4336 C4342 0.950 . S
H4337 C4343 0.950 . S
H4338 C4344 0.949 . S
C4339 H4334 0.950 . S
C4339 C4341 1.327 . S
C4339 C4345 1.429 . S
C4340 C4332 1.574 . S
C4340 H4335 0.949 . S
C4340 C4346 1.368 . S
C4341 C4325 1.349 . S
C4341 H4333 0.950 . S
C4341 C4339 1.327 . S
C4342 C4330 1.349 . S
C4342 H4336 0.950 . S
C4342 C4343 1.327 . S
C4343 H4337 0.950 . S
C4343 C4342 1.327 . S
C4343 C4347 1.429 . S
C4344 C4327 1.574 . S
C4344 H4338 0.949 . S
C4344 C4348 1.368 . S
C4345 C4326 1.429 . S
C4345 C4339 1.429 . S
C4345 C4346 1.523 . S
C4346 C4327 1.368 . S
C4346 C4340 1.368 . S
C4346 C4345 1.523 . S
C4347 C4331 1.429 . S
C4347 C4343 1.429 . S
C4347 C4348 1.523 . S
C4348 C4332 1.368 . S
C4348 C4344 1.368 . S
C4348 C4347 1.523 . S
H4349 C4324 0.950 . S
H4350 C4326 0.950 . S
H4351 C4327 0.949 . S
H4352 C4329 0.950 . S
H4353 C4331 0.950 . S
C4354 C4355 1.349 . S
C4354 C4356 1.327 . S
C4354 H4379 0.950 . S
C4355 C4354 1.349 . S
C4355 C4371 1.349 . S
C4356 C4354 1.327 . S
C4356 C4375 1.429 . S
C4356 H4380 0.950 . S
C4357 C4374 1.574 . S
C4357 C4376 1.368 . S
C4357 H4381 0.949 . S
H4358 C4362 0.949 . S
C4359 C4360 1.349 . S
C4359 C4361 1.327 . S
C4359 H4382 0.950 . S
C4360 C4359 1.349 . S
C4360 C4372 1.349 . S
C4361 C4359 1.327 . S
C4361 C4377 1.429 . S
C4361 H4383 0.950 . S
C4362 H4358 0.949 . S
C4362 C4370 1.574 . S
C4362 C4378 1.368 . S
H4363 C4371 0.950 . S
H4364 C4369 0.950 . S
H4365 C4370 0.949 . S
H4366 C4372 0.950 . S
H4367 C4373 0.950 . S
H4368 C4374 0.949 . S
C4369 H4364 0.950 . S
C4369 C4371 1.327 . S
C4369 C4375 1.429 . S
C4370 C4362 1.574 . S
C4370 H4365 0.949 . S
C4370 C4376 1.368 . S
C4371 C4355 1.349 . S
C4371 H4363 0.950 . S
C4371 C4369 1.327 . S
C4372 C4360 1.349 . S
C4372 H4366 0.950 . S
C4372 C4373 1.327 . S
C4373 H4367 0.950 . S
C4373 C4372 1.327 . S
C4373 C4377 1.429 . S
C4374 C4357 1.574 . S
C4374 H4368 0.949 . S
C4374 C4378 1.368 . S
C4375 C4356 1.429 . S
C4375 C4369 1.429 . S
C4375 C4376 1.523 . S
C4376 C4357 1.368 . S
C4376 C4370 1.368 . S
C4376 C4375 1.523 . S
C4377 C4361 1.429 . S
C4377 C4373 1.429 . S
C4377 C4378 1.523 . S
C4378 C4362 1.368 . S
C4378 C4374 1.368 . S
C4378 C4377 1.523 . S
H4379 C4354 0.950 . S
H4380 C4356 0.950 . S
H4381 C4357 0.949 . S
H4382 C4359 0.950 . S
H4383 C4361 0.950 . S
C1510 C397 2.094 . S
C1505 C7 2.024 . S
C1540 C445 1.257 . S
C1535 C19 1.257 . S
C1565 C29 1.881 . S
C1570 C469 1.914 . S
C1600 C532 1.093 . S
C1595 C41 1.102 . S
C1625 C52 1.375 . S
C1630 C526 1.379 . S
C1655 C62 1.624 . S
C1660 C373 1.680 . S
C1685 C73 1.070 . S
C1690 C421 1.125 . S
C1720 C493 1.871 . S
C1715 C82 1.643 . S
C1750 C565 1.931 . S
C1745 C5 1.691 . S
C1775 C16 1.405 . S
C1780 C613 1.616 . S
C1805 C30 1.778 . S
C1810 C676 1.775 . S
C1840 C733 1.175 . S
C1835 C40 1.172 . S
C1865 C49 1.198 . S
C1870 C757 1.370 . S
C1900 C814 1.470 . S
C1895 C63 1.488 . S
C1925 C74 1.053 . S
C1930 C862 1.079 1_655 S
C1960 C916 1.624 . S
C1955 C85 1.615 . S
C1985 C8 1.672 . S
C1990 C709 1.681 . S
C2015 C51 1.596 . S
C2020 C820 1.648 . S
C2050 C868 1.895 . S
C2045 C60 1.678 . S
C2075 C71 1.071 . S
C2080 C910 1.293 . S
C2110 C781 2.176 . S
C2105 C84 2.107 . S
C2140 C637 1.536 . S
C2135 C27 1.338 . S
C2165 C38 1.158 . S
C2170 C670 1.285 . S
C2200 C589 1.693 . S
C2195 C18 1.632 . S
C2230 C964 2.110 . S
C2225 C95 2.024 . S
C2255 C107 1.256 . S
C2260 C1021 1.257 . S
C2285 C117 1.882 . S
C2290 C1045 1.915 . S
C2320 C1108 1.093 . S
C2315 C129 1.102 . S
C2345 C140 1.375 . S
C2350 C1102 1.380 . S
C2375 C150 1.622 . S
C2380 C958 1.678 . S
C2405 C161 1.070 . S
C2410 C997 1.125 . S
C2435 C170 1.644 . S
C2440 C1069 1.872 . S
C2470 C766 1.932 . S
C2465 C93 1.689 . S
C2495 C104 1.405 . S
C2500 C1150 1.612 . S
C2530 C853 1.760 . S
C2525 C118 1.778 . S
C2555 C128 1.172 . S
C2560 C1204 1.167 . S
C2585 C137 1.197 . S
C2590 C574 1.368 . S
C2620 C1246 1.469 . S
C2615 C151 1.487 . S
C2645 C162 1.052 . S
C2650 C685 1.049 1_655 S
C2680 C1300 1.625 . S
C2675 C173 1.616 . S
C2705 C96 1.669 . S
C2710 C1198 1.675 . S
C2740 C1252 1.648 . S
C2735 C139 1.596 . S
C2765 C148 1.676 . S
C2770 C661 1.882 . S
C2800 C1294 1.294 . S
C2795 C159 1.072 . S
C2825 C172 2.110 . S
C2830 C580 2.196 . S
C2855 C115 1.339 . S
C2860 C1156 1.534 . S
C2885 C126 1.160 . S
C2890 C877 1.251 . S
C2915 C106 1.633 . S
C2920 C772 1.699 . S
C2945 C183 2.024 . S
C2950 C1054 2.110 . S
C2980 C1117 1.257 . S
C2975 C195 1.256 . S
C3005 C205 1.879 . S
C3010 C973 1.897 . S
C3035 C217 1.101 . S
C3040 C1012 1.092 . S
C3065 C228 1.375 . S
C3070 C1006 1.379 . S
C3095 C238 1.624 . S
C3100 C1060 1.679 . S
C3130 C1093 1.125 . S
C3125 C249 1.070 . S
C3155 C258 1.645 . S
C3160 C949 1.880 . S
C3190 C1333 1.930 . S
C3185 C181 1.689 . S
C3215 C192 1.406 . S
C3220 C805 1.617 . S
C3250 C1396 1.775 . S
C3245 C206 1.778 . S
C3275 C216 1.173 . S
C3280 C925 1.176 . S
C3305 C225 1.197 . S
C3310 C1438 1.369 . S
C3335 C239 1.488 . S
C3340 C622 1.470 . S
C3370 C1501 1.050 . S
C3365 C250 1.053 . S
C3395 C261 1.615 . S
C3400 C724 1.624 . S
C3430 C901 1.679 . S
C3425 C184 1.669 . S
C3460 C628 1.648 . S
C3455 C227 1.596 . S
C3485 C236 1.677 . S
C3490 C1477 1.882 . S
C3515 C247 1.072 . S
C3520 C718 1.294 . S
C3550 C1444 2.196 . S
C3545 C260 2.110 . S
C3580 C829 1.536 . S
C3575 C203 1.338 . S
C3610 C1390 1.286 . S
C3605 C214 1.158 . S
C3640 C1357 1.694 . S
C3635 C194 1.633 . S
C3665 C271 2.025 . S
C3670 C478 2.111 . S
C3695 C283 1.257 . S
C3700 C541 1.258 . S
C3730 C388 1.910 . S
C3725 C293 1.881 . S
C3760 C436 1.093 . S
C3755 C305 1.102 . S
C3790 C430 1.378 . S
C3785 C316 1.374 . S
C3820 C484 1.680 . S
C3815 C326 1.625 . S
C3850 C517 1.126 . S
C3845 C337 1.071 . S
C3875 C346 1.643 . S
C3880 C382 1.877 . S
C3905 C269 1.690 . S
C3910 C1429 1.931 . S
C3940 C1237 1.617 . S
C3935 C280 1.406 . S
C3970 C1492 1.776 . S
C3965 C294 1.778 . S
C4000 C1309 1.175 . S
C3995 C304 1.172 . S
C4025 C313 1.197 . S
C4030 C1342 1.369 . S
C4060 C1141 1.480 . S
C4055 C327 1.488 . S
C4090 C1405 1.050 . S
C4085 C338 1.053 . S
C4115 C349 1.613 . S
C4120 C1213 1.622 . S
C4150 C1285 1.681 . S
C4145 C272 1.671 . S
C4180 C1165 1.647 . S
C4175 C315 1.596 . S
C4210 C1381 1.882 . S
C4205 C324 1.677 . S
C4235 C335 1.072 . S
C4240 C1189 1.301 . S
C4265 C348 2.108 . S
C4270 C1348 2.194 . S
C4295 C291 1.337 . S
C4300 C1261 1.535 . S
C4325 C302 1.158 . S
C4330 C1486 1.286 . S
C4360 C1453 1.694 . S
C4355 C282 1.633 . S
