# Generated by pormake.
# Topology ptr, (4,4)-cn, num edge types: 1
# Building blocks:
#     Node 0, Type 0, BuildingBlock: QUQFOY_clean_sbu_1, # of connection points: 4
#     Node 1, Type 0, BuildingBlock: QUQFOY_clean_sbu_1, # of connection points: 4
#     Node 2, Type 0, BuildingBlock: QUQFOY_clean_sbu_1, # of connection points: 4
#     Node 3, Type 0, BuildingBlock: QUQFOY_clean_sbu_1, # of connection points: 4
#     Node 4, Type 0, BuildingBlock: QUQFOY_clean_sbu_1, # of connection points: 4
#     Node 5, Type 0, BuildingBlock: QUQFOY_clean_sbu_1, # of connection points: 4
#     Node 6, Type 0, BuildingBlock: QUQFOY_clean_sbu_1, # of connection points: 4
#     Node 7, Type 0, BuildingBlock: QUQFOY_clean_sbu_1, # of connection points: 4
#     Node 8, Type 0, BuildingBlock: QUQFOY_clean_sbu_1, # of connection points: 4
#     Node 9, Type 0, BuildingBlock: QUQFOY_clean_sbu_1, # of connection points: 4
#     Node 10, Type 0, BuildingBlock: QUQFOY_clean_sbu_1, # of connection points: 4
#     Node 11, Type 0, BuildingBlock: QUQFOY_clean_sbu_1, # of connection points: 4
#     Node 12, Type 0, BuildingBlock: QUQFOY_clean_sbu_1, # of connection points: 4
#     Node 13, Type 0, BuildingBlock: QUQFOY_clean_sbu_1, # of connection points: 4
#     Node 14, Type 0, BuildingBlock: QUQFOY_clean_sbu_1, # of connection points: 4
#     Node 15, Type 0, BuildingBlock: QUQFOY_clean_sbu_1, # of connection points: 4
#     Node 16, Type 0, BuildingBlock: QUQFOY_clean_sbu_1, # of connection points: 4
#     Node 17, Type 0, BuildingBlock: QUQFOY_clean_sbu_1, # of connection points: 4
#     Node 18, Type 1, BuildingBlock: MUDLON_clean_linker_0, # of connection points: 4
#     Node 19, Type 1, BuildingBlock: MUDLON_clean_linker_0, # of connection points: 4
#     Node 20, Type 1, BuildingBlock: MUDLON_clean_linker_0, # of connection points: 4
#     Node 21, Type 1, BuildingBlock: MUDLON_clean_linker_0, # of connection points: 4
#     Node 22, Type 1, BuildingBlock: MUDLON_clean_linker_0, # of connection points: 4
#     Node 23, Type 1, BuildingBlock: MUDLON_clean_linker_0, # of connection points: 4
#     Node 24, Type 1, BuildingBlock: MUDLON_clean_linker_0, # of connection points: 4
#     Node 25, Type 1, BuildingBlock: MUDLON_clean_linker_0, # of connection points: 4
#     Node 26, Type 1, BuildingBlock: MUDLON_clean_linker_0, # of connection points: 4
#     Node 27, Type 1, BuildingBlock: MUDLON_clean_linker_0, # of connection points: 4
#     Node 28, Type 1, BuildingBlock: MUDLON_clean_linker_0, # of connection points: 4
#     Node 29, Type 1, BuildingBlock: MUDLON_clean_linker_0, # of connection points: 4
#     Node 30, Type 1, BuildingBlock: MUDLON_clean_linker_0, # of connection points: 4
#     Node 31, Type 1, BuildingBlock: MUDLON_clean_linker_0, # of connection points: 4
#     Node 32, Type 1, BuildingBlock: MUDLON_clean_linker_0, # of connection points: 4
#     Node 33, Type 1, BuildingBlock: MUDLON_clean_linker_0, # of connection points: 4
#     Node 34, Type 1, BuildingBlock: MUDLON_clean_linker_0, # of connection points: 4
#     Node 35, Type 1, BuildingBlock: MUDLON_clean_linker_0, # of connection points: 4
#     Edge 36, Type (0, 1), BuildingBlock: XIVTED_clean_linker_0, # of connection points: 2
#     Edge 37, Type (0, 1), BuildingBlock: XIVTED_clean_linker_0, # of connection points: 2
#     Edge 38, Type (0, 1), BuildingBlock: XIVTED_clean_linker_0, # of connection points: 2
#     Edge 39, Type (0, 1), BuildingBlock: XIVTED_clean_linker_0, # of connection points: 2
#     Edge 40, Type (0, 1), BuildingBlock: XIVTED_clean_linker_0, # of connection points: 2
#     Edge 41, Type (0, 1), BuildingBlock: XIVTED_clean_linker_0, # of connection points: 2
#     Edge 42, Type (0, 1), BuildingBlock: XIVTED_clean_linker_0, # of connection points: 2
#     Edge 43, Type (0, 1), BuildingBlock: XIVTED_clean_linker_0, # of connection points: 2
#     Edge 44, Type (0, 1), BuildingBlock: XIVTED_clean_linker_0, # of connection points: 2
#     Edge 45, Type (0, 1), BuildingBlock: XIVTED_clean_linker_0, # of connection points: 2
#     Edge 46, Type (0, 1), BuildingBlock: XIVTED_clean_linker_0, # of connection points: 2
#     Edge 47, Type (0, 1), BuildingBlock: XIVTED_clean_linker_0, # of connection points: 2
#     Edge 48, Type (0, 1), BuildingBlock: XIVTED_clean_linker_0, # of connection points: 2
#     Edge 49, Type (0, 1), BuildingBlock: XIVTED_clean_linker_0, # of connection points: 2
#     Edge 50, Type (0, 1), BuildingBlock: XIVTED_clean_linker_0, # of connection points: 2
#     Edge 51, Type (0, 1), BuildingBlock: XIVTED_clean_linker_0, # of connection points: 2
#     Edge 52, Type (0, 1), BuildingBlock: XIVTED_clean_linker_0, # of connection points: 2
#     Edge 53, Type (0, 1), BuildingBlock: XIVTED_clean_linker_0, # of connection points: 2
#     Edge 54, Type (0, 1), BuildingBlock: XIVTED_clean_linker_0, # of connection points: 2
#     Edge 55, Type (0, 1), BuildingBlock: XIVTED_clean_linker_0, # of connection points: 2
#     Edge 56, Type (0, 1), BuildingBlock: XIVTED_clean_linker_0, # of connection points: 2
#     Edge 57, Type (0, 1), BuildingBlock: XIVTED_clean_linker_0, # of connection points: 2
#     Edge 58, Type (0, 1), BuildingBlock: XIVTED_clean_linker_0, # of connection points: 2
#     Edge 59, Type (0, 1), BuildingBlock: XIVTED_clean_linker_0, # of connection points: 2
#     Edge 60, Type (0, 1), BuildingBlock: XIVTED_clean_linker_0, # of connection points: 2
#     Edge 61, Type (0, 1), BuildingBlock: XIVTED_clean_linker_0, # of connection points: 2
#     Edge 62, Type (0, 1), BuildingBlock: XIVTED_clean_linker_0, # of connection points: 2
#     Edge 63, Type (0, 1), BuildingBlock: XIVTED_clean_linker_0, # of connection points: 2
#     Edge 64, Type (0, 1), BuildingBlock: XIVTED_clean_linker_0, # of connection points: 2
#     Edge 65, Type (0, 1), BuildingBlock: XIVTED_clean_linker_0, # of connection points: 2
#     Edge 66, Type (0, 1), BuildingBlock: XIVTED_clean_linker_0, # of connection points: 2
#     Edge 67, Type (0, 1), BuildingBlock: XIVTED_clean_linker_0, # of connection points: 2
#     Edge 68, Type (0, 1), BuildingBlock: XIVTED_clean_linker_0, # of connection points: 2
#     Edge 69, Type (0, 1), BuildingBlock: XIVTED_clean_linker_0, # of connection points: 2
#     Edge 70, Type (0, 1), BuildingBlock: XIVTED_clean_linker_0, # of connection points: 2
#     Edge 71, Type (0, 1), BuildingBlock: XIVTED_clean_linker_0, # of connection points: 2
#     Edge 72, Type (0, 1), BuildingBlock: XIVTED_clean_linker_0, # of connection points: 2
#     Edge 73, Type (0, 1), BuildingBlock: XIVTED_clean_linker_0, # of connection points: 2
#     Edge 74, Type (0, 1), BuildingBlock: XIVTED_clean_linker_0, # of connection points: 2
#     Edge 75, Type (0, 1), BuildingBlock: XIVTED_clean_linker_0, # of connection points: 2
#     Edge 76, Type (0, 1), BuildingBlock: XIVTED_clean_linker_0, # of connection points: 2
#     Edge 77, Type (0, 1), BuildingBlock: XIVTED_clean_linker_0, # of connection points: 2
#     Edge 78, Type (0, 1), BuildingBlock: XIVTED_clean_linker_0, # of connection points: 2
#     Edge 79, Type (0, 1), BuildingBlock: XIVTED_clean_linker_0, # of connection points: 2
#     Edge 80, Type (0, 1), BuildingBlock: XIVTED_clean_linker_0, # of connection points: 2
#     Edge 81, Type (0, 1), BuildingBlock: XIVTED_clean_linker_0, # of connection points: 2
#     Edge 82, Type (0, 1), BuildingBlock: XIVTED_clean_linker_0, # of connection points: 2
#     Edge 83, Type (0, 1), BuildingBlock: XIVTED_clean_linker_0, # of connection points: 2
#     Edge 84, Type (0, 1), BuildingBlock: XIVTED_clean_linker_0, # of connection points: 2
#     Edge 85, Type (0, 1), BuildingBlock: XIVTED_clean_linker_0, # of connection points: 2
#     Edge 86, Type (0, 1), BuildingBlock: XIVTED_clean_linker_0, # of connection points: 2
#     Edge 87, Type (0, 1), BuildingBlock: XIVTED_clean_linker_0, # of connection points: 2
#     Edge 88, Type (0, 1), BuildingBlock: XIVTED_clean_linker_0, # of connection points: 2
#     Edge 89, Type (0, 1), BuildingBlock: XIVTED_clean_linker_0, # of connection points: 2
#     Edge 90, Type (0, 1), BuildingBlock: XIVTED_clean_linker_0, # of connection points: 2
#     Edge 91, Type (0, 1), BuildingBlock: XIVTED_clean_linker_0, # of connection points: 2
#     Edge 92, Type (0, 1), BuildingBlock: XIVTED_clean_linker_0, # of connection points: 2
#     Edge 93, Type (0, 1), BuildingBlock: XIVTED_clean_linker_0, # of connection points: 2
#     Edge 94, Type (0, 1), BuildingBlock: XIVTED_clean_linker_0, # of connection points: 2
#     Edge 95, Type (0, 1), BuildingBlock: XIVTED_clean_linker_0, # of connection points: 2
#     Edge 96, Type (0, 1), BuildingBlock: XIVTED_clean_linker_0, # of connection points: 2
#     Edge 97, Type (0, 1), BuildingBlock: XIVTED_clean_linker_0, # of connection points: 2
#     Edge 98, Type (0, 1), BuildingBlock: XIVTED_clean_linker_0, # of connection points: 2
#     Edge 99, Type (0, 1), BuildingBlock: XIVTED_clean_linker_0, # of connection points: 2
#     Edge 100, Type (0, 1), BuildingBlock: XIVTED_clean_linker_0, # of connection points: 2
#     Edge 101, Type (0, 1), BuildingBlock: XIVTED_clean_linker_0, # of connection points: 2
#     Edge 102, Type (0, 1), BuildingBlock: XIVTED_clean_linker_0, # of connection points: 2
#     Edge 103, Type (0, 1), BuildingBlock: XIVTED_clean_linker_0, # of connection points: 2
#     Edge 104, Type (0, 1), BuildingBlock: XIVTED_clean_linker_0, # of connection points: 2
#     Edge 105, Type (0, 1), BuildingBlock: XIVTED_clean_linker_0, # of connection points: 2
#     Edge 106, Type (0, 1), BuildingBlock: XIVTED_clean_linker_0, # of connection points: 2
#     Edge 107, Type (0, 1), BuildingBlock: XIVTED_clean_linker_0, # of connection points: 2
# Relax obj value: 0.012
# Max RMSD: 0.036
# Mean RMSD: 0.035
data_MOF--net-ptr--node1-QUQFOY_clean_sbu_1--node2-MUDLON_clean_linker_0--edge1-XIVTED_clean_linker_0
_symmetry_space_group_name_H-M    P1
_symmetry_Int_Tables_number       1
_symmetry_cell_setting            triclinic
loop_
_symmetry_equiv_pos_as_xyz
'x, y, z'
_cell_length_a     107.73026
_cell_length_b     107.75949
_cell_length_c     64.741471
_cell_angle_alpha  89.982996
_cell_angle_beta   89.987412
_cell_angle_gamma 120.00725
loop_
_atom_site_label
_atom_site_type_symbol
_atom_site_fract_x
_atom_site_fract_y
_atom_site_fract_z
_atom_type_partial_charge
O0 O 0.01833 0.38952 0.04147 0.0
Cd1 Cd 0.02048 0.37888 0.01639 0.0
Cd2 Cd 0.99161 0.36682 0.0165 0.0
O3 O 0.99482 0.37697 0.04477 0.0
O4 O 0.04064 0.38294 0.01802 0.0
O5 O 0.02196 0.36118 0.02163 0.0
C6 C 0.0357 0.36951 0.0216 0.0
C7 C 0.97436 0.34267 0.01215 0.0
C8 C 0.00698 0.38671 0.05124 0.0
C9 C 0.0076 0.38568 0.98038 0.0
O10 O 0.99586 0.37929 0.9903 0.0
O11 O 0.01872 0.38587 0.9874 0.0
O12 O 0.97083 0.35239 0.01448 0.0
O13 O 0.98781 0.34658 0.01319 0.0
O14 O 0.62354 0.63265 0.04584 0.0
Cd15 Cd 0.63134 0.64597 0.02036 0.0
Cd16 Cd 0.64588 0.6315 0.01498 0.0
O17 O 0.63691 0.62251 0.04322 0.0
O18 O 0.62759 0.66203 0.02579 0.0
O19 O 0.64942 0.66506 0.02336 0.0
C20 C 0.64127 0.67049 0.02665 0.0
C21 C 0.67009 0.63939 0.00821 0.0
C22 C 0.62745 0.62408 0.05274 0.0
C23 C 0.62408 0.62792 0.98247 0.0
O24 O 0.63258 0.624 0.98955 0.0
O25 O 0.62244 0.63735 0.99191 0.0
O26 O 0.66064 0.62596 0.00898 0.0
O27 O 0.6659 0.64849 0.01206 0.0
O28 O 0.3923 0.0184 0.98694 0.0
Cd29 Cd 0.38422 0.02298 0.01302 0.0
Cd30 Cd 0.3677 0.99419 0.01502 0.0
O31 O 0.37657 0.99525 0.9863 0.0
O32 O 0.38771 0.04291 0.00998 0.0
O33 O 0.36604 0.02367 0.00992 0.0
C34 C 0.37402 0.03742 0.0082 0.0
C35 C 0.34317 0.97863 0.02069 0.0
C36 C 0.38714 0.00622 0.97825 0.0
C37 C 0.38946 0.00905 0.04901 0.0
O38 O 0.38065 0.99734 0.04025 0.0
O39 O 0.39191 0.02095 0.04142 0.0
O40 O 0.3519 0.9739 0.01778 0.0
O41 O 0.34828 0.99231 0.01976 0.0
O42 O 0.99624 0.62309 0.99179 0.0
Cd43 Cd 0.99354 0.63345 0.0168 0.0
Cd44 Cd 0.02236 0.64538 0.01738 0.0
O45 O 0.01978 0.63568 0.98893 0.0
O46 O 0.97348 0.62967 0.01388 0.0
O47 O 0.99245 0.65136 0.01168 0.0
C48 C 0.9787 0.64318 0.01067 0.0
C49 C 0.03866 0.66969 0.02259 0.0
C50 C 0.00769 0.62596 0.98223 0.0
C51 C 0.00577 0.62603 0.05283 0.0
O52 O 0.01758 0.63237 0.04306 0.0
O53 O 0.99481 0.6262 0.0459 0.0
O54 O 0.04288 0.66045 0.02071 0.0
O55 O 0.02512 0.66519 0.02071 0.0
O56 O 0.39068 0.37837 0.99073 0.0
Cd57 Cd 0.38042 0.36547 0.01592 0.0
Cd58 Cd 0.36866 0.38241 0.01728 0.0
O59 O 0.37834 0.38962 0.98878 0.0
O60 O 0.38412 0.34917 0.01338 0.0
O61 O 0.36243 0.34646 0.01103 0.0
C62 C 0.37059 0.34085 0.01035 0.0
C63 C 0.34434 0.37432 0.02257 0.0
C64 C 0.38784 0.3871 0.98156 0.0
C65 C 0.38811 0.38495 0.05233 0.0
O66 O 0.38161 0.39045 0.04305 0.0
O67 O 0.38802 0.374 0.04486 0.0
O68 O 0.35356 0.38779 0.02076 0.0
O69 O 0.34887 0.36532 0.02055 0.0
O70 O 0.62204 0.99388 0.04167 0.0
Cd71 Cd 0.62953 0.98772 0.01663 0.0
Cd72 Cd 0.64423 0.01685 0.01021 0.0
O73 O 0.63537 0.01734 0.03839 0.0
O74 O 0.62472 0.96778 0.02357 0.0
O75 O 0.64699 0.98554 0.01965 0.0
C76 C 0.63827 0.97225 0.02411 0.0
C77 C 0.66849 0.03306 0.00377 0.0
C78 C 0.62598 0.00644 0.0482 0.0
C79 C 0.62231 0.99795 0.97808 0.0
O80 O 0.63101 0.01052 0.98454 0.0
O81 O 0.62045 0.98705 0.98824 0.0
O82 O 0.65905 0.03707 0.00396 0.0
O83 O 0.66422 0.01978 0.00783 0.0
O84 O 0.68103 0.71794 0.37744 0.0
Cd85 Cd 0.68618 0.71073 0.35108 0.0
Cd86 Cd 0.65693 0.69854 0.34606 0.0
O87 O 0.65752 0.70754 0.37454 0.0
O88 O 0.70656 0.71641 0.35661 0.0
O89 O 0.6895 0.69385 0.35309 0.0
C90 C 0.70275 0.70303 0.35699 0.0
C91 C 0.64167 0.67415 0.33991 0.0
C92 C 0.66899 0.71549 0.38447 0.0
C93 C 0.67588 0.71981 0.31385 0.0
O94 O 0.66323 0.7119 0.32065 0.0
O95 O 0.68655 0.72048 0.32331 0.0
O96 O 0.63687 0.68297 0.34078 0.0
O97 O 0.6552 0.67916 0.34314 0.0
O98 O 0.2913 0.96512 0.3782 0.0
Cd99 Cd 0.29926 0.97785 0.35213 0.0
Cd100 Cd 0.31537 0.9651 0.35009 0.0
O101 O 0.30678 0.9574 0.37891 0.0
O102 O 0.29472 0.99359 0.35543 0.0
O103 O 0.31686 0.99728 0.3553 0.0
C104 C 0.3083 0.00238 0.35721 0.0
C105 C 0.3399 0.97457 0.34412 0.0
C106 C 0.29632 0.95799 0.38695 0.0
C107 C 0.29367 0.95838 0.31624 0.0
O108 O 0.30223 0.95518 0.32511 0.0
O109 O 0.2916 0.96814 0.32365 0.0
O110 O 0.33144 0.96106 0.34712 0.0
O111 O 0.3345 0.9829 0.3451 0.0
O112 O 0.05903 0.35161 0.32564 0.0
Cd113 Cd 0.04847 0.35375 0.35087 0.0
Cd114 Cd 0.03416 0.32518 0.34827 0.0
O115 O 0.0438 0.3288 0.31956 0.0
O116 O 0.05285 0.37406 0.35041 0.0
O117 O 0.03109 0.35564 0.34528 0.0
C118 C 0.03955 0.36936 0.34607 0.0
C119 C 0.00958 0.30969 0.35287 0.0
C120 C 0.05477 0.34056 0.31436 0.0
C121 C 0.05343 0.3383 0.38498 0.0
O122 O 0.0467 0.32727 0.37365 0.0
O123 O 0.05427 0.35008 0.37973 0.0
O124 O 0.01814 0.3049 0.34872 0.0
O125 O 0.01491 0.32342 0.35356 0.0
O126 O 0.6656 0.95668 0.3199 0.0
Cd127 Cd 0.66022 0.96452 0.34555 0.0
Cd128 Cd 0.689 0.9781 0.35101 0.0
O129 O 0.68913 0.96971 0.32243 0.0
O130 O 0.64024 0.96017 0.33994 0.0
O131 O 0.65851 0.98226 0.34264 0.0
C132 C 0.64502 0.97377 0.33915 0.0
C133 C 0.70435 0.00239 0.35808 0.0
C134 C 0.67802 0.96047 0.31285 0.0
C135 C 0.6707 0.95631 0.38306 0.0
O136 O 0.68321 0.96428 0.37582 0.0
O137 O 0.65984 0.95551 0.37403 0.0
O138 O 0.70902 0.99347 0.35698 0.0
O139 O 0.69089 0.99756 0.35457 0.0
O140 O 0.05483 0.71378 0.31997 0.0
Cd141 Cd 0.04597 0.70096 0.34578 0.0
Cd142 Cd 0.03142 0.7152 0.34694 0.0
O143 O 0.04013 0.72241 0.31801 0.0
O144 O 0.05061 0.68527 0.34298 0.0
O145 O 0.02846 0.68147 0.34209 0.0
C146 C 0.03708 0.67643 0.34078 0.0
C147 C 0.00687 0.70492 0.35322 0.0
C148 C 0.05045 0.72126 0.31063 0.0
C149 C 0.05233 0.72081 0.38132 0.0
O150 O 0.04471 0.72496 0.37187 0.0
O151 O 0.0534 0.71033 0.37443 0.0
O152 O 0.01491 0.71854 0.35043 0.0
O153 O 0.01273 0.69702 0.3517 0.0
O154 O 0.28963 0.32834 0.37702 0.0
Cd155 Cd 0.2985 0.32402 0.35164 0.0
Cd156 Cd 0.31272 0.35293 0.34848 0.0
O157 O 0.30365 0.35184 0.37709 0.0
O158 O 0.29505 0.30413 0.35555 0.0
O159 O 0.31668 0.32336 0.35563 0.0
C160 C 0.30872 0.30963 0.35759 0.0
C161 C 0.3373 0.36764 0.34269 0.0
C162 C 0.29368 0.34048 0.3853 0.0
C163 C 0.29184 0.33619 0.31458 0.0
O164 O 0.29966 0.34837 0.32291 0.0
O165 O 0.29062 0.32493 0.32288 0.0
O166 O 0.32896 0.37294 0.34464 0.0
O167 O 0.33174 0.35394 0.34472 0.0
O168 O 0.34658 0.05377 0.71196 0.0
Cd169 Cd 0.35304 0.04763 0.6857 0.0
Cd170 Cd 0.32372 0.03348 0.67899 0.0
O171 O 0.32316 0.04212 0.7072 0.0
O172 O 0.37338 0.05358 0.69204 0.0
O173 O 0.3567 0.03098 0.68729 0.0
C174 C 0.36982 0.04025 0.6918 0.0
C175 C 0.30833 0.00911 0.67265 0.0
C176 C 0.33405 0.0504 0.71799 0.0
C177 C 0.34257 0.05571 0.64762 0.0
O178 O 0.32994 0.04682 0.65363 0.0
O179 O 0.35338 0.05743 0.65792 0.0
O180 O 0.30371 0.01807 0.67312 0.0
O181 O 0.32179 0.01396 0.67626 0.0
O182 O 0.95402 0.29998 0.70784 0.0
Cd183 Cd 0.96423 0.31219 0.68212 0.0
Cd184 Cd 0.97872 0.29809 0.68519 0.0
O185 O 0.9688 0.29182 0.71374 0.0
O186 O 0.96036 0.32844 0.68306 0.0
O187 O 0.98209 0.33131 0.68623 0.0
C188 C 0.97386 0.33685 0.68631 0.0
C189 C 0.0033 0.30678 0.6811 0.0
C190 C 0.95805 0.29296 0.71906 0.0
C191 C 0.95918 0.29163 0.64837 0.0
O192 O 0.96643 0.28784 0.65953 0.0
O193 O 0.95779 0.30224 0.65368 0.0
O194 O 0.99449 0.29346 0.68501 0.0
O195 O 0.99823 0.3154 0.68036 0.0
O196 O 0.72368 0.67984 0.6557 0.0
Cd197 Cd 0.71564 0.68522 0.68115 0.0
Cd198 Cd 0.70148 0.65608 0.68625 0.0
O199 O 0.71023 0.65631 0.65781 0.0
O200 O 0.72116 0.70566 0.67661 0.0
O201 O 0.69863 0.68806 0.67702 0.0
C202 C 0.70774 0.70155 0.67476 0.0
C203 C 0.67711 0.6406 0.69276 0.0
C204 C 0.71972 0.66742 0.6485 0.0
C205 C 0.72277 0.67387 0.719 0.0
O206 O 0.71491 0.66145 0.71145 0.0
O207 O 0.7238 0.68484 0.71002 0.0
O208 O 0.68606 0.63598 0.69167 0.0
O209 O 0.68194 0.65408 0.68949 0.0
O210 O 0.33035 0.28798 0.65303 0.0
Cd211 Cd 0.32549 0.29629 0.67859 0.0
Cd212 Cd 0.35458 0.31212 0.68064 0.0
O213 O 0.35353 0.30349 0.65175 0.0
O214 O 0.30515 0.29122 0.67453 0.0
O215 O 0.32313 0.31359 0.67519 0.0
C216 C 0.30957 0.30473 0.67287 0.0
C217 C 0.3712 0.33632 0.68695 0.0
C218 C 0.34242 0.29289 0.64408 0.0
C219 C 0.33881 0.2905 0.71467 0.0
O220 O 0.35063 0.29878 0.70573 0.0
O221 O 0.32709 0.28869 0.70723 0.0
O222 O 0.37512 0.32694 0.68428 0.0
O223 O 0.3577 0.33208 0.68532 0.0
O224 O 0.72145 0.04438 0.65465 0.0
Cd225 Cd 0.71265 0.03134 0.68018 0.0
Cd226 Cd 0.69875 0.04633 0.68324 0.0
O227 O 0.7078 0.05427 0.6546 0.0
O228 O 0.7167 0.01533 0.67627 0.0
O229 O 0.69476 0.01212 0.67651 0.0
C230 C 0.70309 0.00678 0.67443 0.0
C231 C 0.67426 0.03703 0.6892 0.0
C232 C 0.71761 0.05262 0.64635 0.0
C233 C 0.71975 0.05039 0.71699 0.0
O234 O 0.71192 0.05476 0.70871 0.0
O235 O 0.72084 0.04026 0.70876 0.0
O236 O 0.68291 0.05062 0.68734 0.0
O237 O 0.67947 0.0286 0.68697 0.0
O238 O 0.95586 0.66205 0.71167 0.0
Cd239 Cd 0.96358 0.65675 0.68594 0.0
Cd240 Cd 0.97803 0.68572 0.68019 0.0
O241 O 0.96892 0.68553 0.70843 0.0
O242 O 0.95885 0.63654 0.69032 0.0
O243 O 0.98111 0.65473 0.68919 0.0
C244 C 0.97241 0.64115 0.6916 0.0
C245 C 1.00244 0.70167 0.67472 0.0
C246 C 0.95971 0.67456 0.71832 0.0
C247 C 0.95652 0.66781 0.64767 0.0
O248 O 0.9651 0.68034 0.65434 0.0
O249 O 0.95478 0.65687 0.65759 0.0
O250 O 0.99329 0.70602 0.67584 0.0
O251 O 0.99779 0.68815 0.67717 0.0
H252 H 0.23796 0.35115 0.14617 0.0
N253 N 0.21455 0.32741 0.13024 0.0
H254 H 0.25008 0.35255 0.1785 0.0
H255 H 0.20625 0.30729 0.1593 0.0
H256 H 0.21813 0.30871 0.19224 0.0
H257 H 0.22439 0.31151 0.1137 0.0
H258 H 0.24436 0.31912 0.08976 0.0
H259 H 0.2279 0.35304 0.1092 0.0
H260 H 0.24735 0.36055 0.08435 0.0
H261 H 0.21541 0.35163 0.14576 0.0
H262 H 0.18922 0.31271 0.11175 0.0
H263 H 0.19606 0.35699 0.14549 0.0
H264 H 0.16992 0.31842 0.11025 0.0
H265 H 0.13937 0.37212 0.15871 0.0
H266 H 0.12632 0.37008 0.19059 0.0
H267 H 0.10375 0.32391 0.18468 0.0
H268 H 0.11639 0.32618 0.15245 0.0
H269 H 0.11363 0.32733 0.11562 0.0
H270 H 0.09702 0.32708 0.0895 0.0
H271 H 0.1217 0.37333 0.08641 0.0
H272 H 0.13819 0.37336 0.11229 0.0
H273 H 0.16336 0.36962 0.12882 0.0
H274 H 0.18291 0.36441 0.12586 0.0
H275 H 0.15222 0.31908 0.1304 0.0
N276 N 0.13563 0.35117 0.13341 0.0
H277 H 0.1328 0.32448 0.13197 0.0
C278 C 0.22116 0.32903 0.15024 0.0
C279 C 0.23346 0.34185 0.15616 0.0
C280 C 0.24037 0.34267 0.17479 0.0
C281 C 0.23513 0.33072 0.188 0.0
C282 C 0.22259 0.31804 0.1823 0.0
C283 C 0.21571 0.31723 0.16361 0.0
C284 C 0.22456 0.3316 0.11325 0.0
C285 C 0.2292 0.32214 0.107 0.0
C286 C 0.24062 0.32653 0.09321 0.0
C287 C 0.24764 0.34053 0.08511 0.0
C288 C 0.24245 0.34979 0.09055 0.0
C289 C 0.23113 0.34543 0.1046 0.0
C290 C 0.20371 0.33157 0.12903 0.0
C291 C 0.20554 0.34425 0.13806 0.0
C292 C 0.19442 0.34741 0.13767 0.0
C293 C 0.18129 0.33813 0.12791 0.0
C294 C 0.17971 0.32569 0.11831 0.0
C295 C 0.19077 0.32245 0.11896 0.0
C296 C 0.12901 0.34936 0.15332 0.0
C297 C 0.13175 0.36158 0.16453 0.0
C298 C 0.12429 0.36035 0.18278 0.0
C299 C 0.11392 0.34681 0.19029 0.0
C300 C 0.11148 0.33453 0.17925 0.0
C301 C 0.11888 0.33579 0.16089 0.0
C302 C 0.12713 0.35041 0.11584 0.0
C303 C 0.11558 0.33736 0.10899 0.0
C304 C 0.10605 0.33725 0.09416 0.0
C305 C 0.10797 0.35019 0.08589 0.0
C306 C 0.11997 0.36315 0.09216 0.0
C307 C 0.12941 0.36322 0.10698 0.0
C308 C 0.14669 0.3475 0.13092 0.0
C309 C 0.16091 0.35857 0.129 0.0
C310 C 0.17207 0.35555 0.12751 0.0
C311 C 0.16926 0.3413 0.12817 0.0
C312 C 0.15487 0.33018 0.12965 0.0
C313 C 0.14369 0.33324 0.13083 0.0
H314 H 0.71219 0.79547 0.14813 0.0
N315 N 0.69365 0.80193 0.13143 0.0
H316 H 0.7096 0.78255 0.18036 0.0
H317 H 0.67239 0.79452 0.16029 0.0
H318 H 0.66991 0.78205 0.19276 0.0
H319 H 0.66568 0.78069 0.12722 0.0
H320 H 0.6568 0.76042 0.10362 0.0
H321 H 0.70759 0.79913 0.09961 0.0
H322 H 0.69871 0.77904 0.07537 0.0
H323 H 0.71574 0.82834 0.1301 0.0
H324 H 0.66959 0.80459 0.12898 0.0
H325 H 0.71541 0.85082 0.12866 0.0
H326 H 0.66905 0.82699 0.12858 0.0
H327 H 0.71207 0.92015 0.14618 0.0
H328 H 0.70977 0.9306 0.17844 0.0
H329 H 0.6696 0.89192 0.1908 0.0
H330 H 0.67193 0.88171 0.15817 0.0
H331 H 0.66473 0.88463 0.12332 0.0
H332 H 0.65419 0.89468 0.10028 0.0
H333 H 0.69666 0.92626 0.07953 0.0
H334 H 0.70688 0.91527 0.10146 0.0
H335 H 0.71084 0.88829 0.14924 0.0
H336 H 0.71035 0.86547 0.14964 0.0
H337 H 0.67374 0.84756 0.10877 0.0
N338 N 0.69338 0.8951 0.12976 0.0
H339 H 0.6739 0.87013 0.10903 0.0
C340 C 0.69259 0.79605 0.1518 0.0
C341 C 0.70306 0.79275 0.15802 0.0
C342 C 0.70156 0.7854 0.17648 0.0
C343 C 0.6895 0.78118 0.18917 0.0
C344 C 0.67922 0.78492 0.18322 0.0
C345 C 0.68071 0.79222 0.16469 0.0
C346 C 0.68737 0.79144 0.1152 0.0
C347 C 0.67288 0.78061 0.11566 0.0
C348 C 0.6678 0.76898 0.10207 0.0
C349 C 0.67708 0.76797 0.08771 0.0
C350 C 0.69134 0.77931 0.08648 0.0
C351 C 0.6964 0.79088 0.10013 0.0
C352 C 0.69276 0.81482 0.12981 0.0
C353 C 0.70553 0.82801 0.12963 0.0
C354 C 0.70528 0.84085 0.12901 0.0
C355 C 0.69219 0.8408 0.12879 0.0
C356 C 0.67934 0.82749 0.12859 0.0
C357 C 0.67962 0.81462 0.129 0.0
C358 C 0.69223 0.90021 0.14984 0.0
C359 C 0.70287 0.9139 0.15602 0.0
C360 C 0.70154 0.91981 0.17449 0.0
C361 C 0.68949 0.91211 0.18726 0.0
C362 C 0.67892 0.89822 0.18122 0.0
C363 C 0.68027 0.89232 0.16266 0.0
C364 C 0.68663 0.89902 0.11379 0.0
C365 C 0.67171 0.89337 0.11324 0.0
C366 C 0.66572 0.89937 0.10027 0.0
C367 C 0.67452 0.91152 0.08812 0.0
C368 C 0.68942 0.91681 0.08826 0.0
C369 C 0.69534 0.91055 0.10085 0.0
C370 C 0.69237 0.88115 0.12942 0.0
C371 C 0.70261 0.87941 0.14049 0.0
C372 C 0.7024 0.86635 0.14053 0.0
C373 C 0.69205 0.85461 0.12913 0.0
C374 C 0.68175 0.85628 0.11798 0.0
C375 C 0.68188 0.86936 0.11812 0.0
H376 H 0.12216 0.77685 0.14503 0.0
N377 N 0.12173 0.80005 0.12847 0.0
H378 H 0.1107 0.76447 0.1769 0.0
H379 H 0.10927 0.80815 0.15676 0.0
H380 H 0.09807 0.79604 0.18927 0.0
H381 H 0.09623 0.7904 0.11126 0.0
H382 H 0.08394 0.77031 0.08755 0.0
H383 H 0.13408 0.78649 0.10819 0.0
H384 H 0.1222 0.76687 0.08356 0.0
H385 H 0.14506 0.79946 0.14477 0.0
H386 H 0.13237 0.82527 0.10966 0.0
H387 H 0.16968 0.819 0.14498 0.0
H388 H 0.1573 0.84474 0.10862 0.0
H389 H 0.24111 0.87649 0.15964 0.0
H390 H 0.25154 0.88952 0.19168 0.0
H391 H 0.22734 0.91142 0.18472 0.0
H392 H 0.21763 0.89884 0.1522 0.0
H393 H 0.22264 0.90184 0.115 0.0
H394 H 0.23939 0.91812 0.08889 0.0
H395 H 0.26075 0.89319 0.08808 0.0
H396 H 0.24386 0.87701 0.11385 0.0
H397 H 0.21515 0.8522 0.12967 0.0
H398 H 0.19055 0.8324 0.12614 0.0
H399 H 0.17524 0.86261 0.12892 0.0
N400 N 0.22397 0.87988 0.13375 0.0
H401 H 0.19994 0.88229 0.13102 0.0
C402 C 0.11652 0.79346 0.14843 0.0
C403 C 0.11706 0.78122 0.15464 0.0
C404 C 0.11054 0.77416 0.17301 0.0
C405 C 0.10337 0.77919 0.18567 0.0
C406 C 0.10328 0.79172 0.17975 0.0
C407 C 0.10978 0.79875 0.16131 0.0
C408 C 0.11605 0.79003 0.11149 0.0
C409 C 0.10203 0.78548 0.10489 0.0
C410 C 0.09504 0.77398 0.09124 0.0
C411 C 0.10199 0.76679 0.08362 0.0
C412 C 0.11637 0.77191 0.08938 0.0
C413 C 0.12329 0.78331 0.10329 0.0
C414 C 0.13671 0.81096 0.12745 0.0
C415 C 0.14755 0.80929 0.13691 0.0
C416 C 0.16178 0.82051 0.13681 0.0
C417 C 0.16562 0.8336 0.1269 0.0
C418 C 0.1548 0.83501 0.11683 0.0
C419 C 0.14053 0.82383 0.1172 0.0
C420 C 0.22849 0.88653 0.15369 0.0
C421 C 0.23795 0.88397 0.16525 0.0
C422 C 0.24383 0.89141 0.18362 0.0
C423 C 0.24029 0.90156 0.19094 0.0
C424 C 0.23049 0.90386 0.17949 0.0
C425 C 0.22473 0.89649 0.16097 0.0
C426 C 0.23206 0.88823 0.11627 0.0
C427 C 0.23076 0.89977 0.10885 0.0
C428 C 0.24041 0.90911 0.09404 0.0
C429 C 0.25148 0.90702 0.0864 0.0
C430 C 0.25227 0.89505 0.09331 0.0
C431 C 0.24266 0.88578 0.10807 0.0
C432 C 0.20936 0.86865 0.13091 0.0
C433 C 0.20644 0.85449 0.12933 0.0
C434 C 0.19234 0.84318 0.12752 0.0
C435 C 0.18076 0.84578 0.12751 0.0
C436 C 0.1838 0.86011 0.12866 0.0
C437 C 0.19797 0.87144 0.13016 0.0
H438 H 0.36836 0.23775 0.87163 0.0
N439 N 0.34758 0.22116 0.89762 0.0
H440 H 0.36615 0.24823 0.83935 0.0
H441 H 0.32252 0.21561 0.87917 0.0
H442 H 0.32004 0.22537 0.84645 0.0
H443 H 0.32434 0.21999 0.9163 0.0
H444 H 0.32494 0.23673 0.94255 0.0
H445 H 0.37039 0.24081 0.91767 0.0
H446 H 0.37121 0.25761 0.94365 0.0
H447 H 0.36626 0.21225 0.90312 0.0
H448 H 0.32106 0.19717 0.89889 0.0
H449 H 0.36131 0.18761 0.90652 0.0
H450 H 0.31592 0.17244 0.9008 0.0
H451 H 0.34887 0.1215 0.88239 0.0
H452 H 0.34931 0.11018 0.8504 0.0
H453 H 0.30328 0.09081 0.84544 0.0
H454 H 0.30309 0.10307 0.87721 0.0
H455 H 0.30771 0.09648 0.92496 0.0
H456 H 0.3144 0.08369 0.94965 0.0
H457 H 0.35908 0.11542 0.9409 0.0
H458 H 0.35213 0.12854 0.91736 0.0
H459 H 0.34945 0.14261 0.88713 0.0
H460 H 0.35444 0.16712 0.88717 0.0
H461 H 0.31517 0.15411 0.92096 0.0
N462 N 0.32509 0.11895 0.90209 0.0
H463 H 0.30981 0.12923 0.91963 0.0
C464 C 0.34565 0.22579 0.87764 0.0
C465 C 0.35779 0.23489 0.866 0.0
C466 C 0.35647 0.24081 0.84751 0.0
C467 C 0.34289 0.23765 0.84015 0.0
C468 C 0.33068 0.22822 0.85171 0.0
C469 C 0.33205 0.22243 0.87034 0.0
C470 C 0.34737 0.22924 0.91511 0.0
C471 C 0.33456 0.22802 0.92252 0.0
C472 C 0.33494 0.23765 0.93742 0.0
C473 C 0.34813 0.24856 0.94519 0.0
C474 C 0.36085 0.24925 0.93831 0.0
C475 C 0.36044 0.23969 0.92342 0.0
C476 C 0.34409 0.20653 0.90043 0.0
C477 C 0.35525 0.20356 0.9028 0.0
C478 C 0.35238 0.18943 0.90452 0.0
C479 C 0.33819 0.17788 0.90362 0.0
C480 C 0.32697 0.18097 0.90174 0.0
C481 C 0.32988 0.19515 0.90036 0.0
C482 C 0.3259 0.11335 0.88217 0.0
C483 C 0.33888 0.11516 0.87429 0.0
C484 C 0.33909 0.10841 0.85602 0.0
C485 C 0.32631 0.09938 0.84535 0.0
C486 C 0.31336 0.09779 0.85305 0.0
C487 C 0.3132 0.10475 0.87123 0.0
C488 C 0.32937 0.11332 0.91913 0.0
C489 C 0.31891 0.10083 0.92885 0.0
C490 C 0.3228 0.09345 0.94274 0.0
C491 C 0.33733 0.09828 0.94698 0.0
C492 C 0.34778 0.11133 0.93815 0.0
C493 C 0.34383 0.11884 0.92448 0.0
C494 C 0.32904 0.13389 0.9031 0.0
C495 C 0.34181 0.14488 0.89446 0.0
C496 C 0.34477 0.15908 0.89473 0.0
C497 C 0.3352 0.16274 0.90401 0.0
C498 C 0.32267 0.15175 0.91325 0.0
C499 C 0.31963 0.13752 0.91269 0.0
H500 H 0.77571 0.1189 0.88386 0.0
N501 N 0.79934 0.11899 0.89975 0.0
H502 H 0.76344 0.10782 0.85182 0.0
H503 H 0.80771 0.10714 0.87076 0.0
H504 H 0.79567 0.09632 0.83804 0.0
H505 H 0.78971 0.09328 0.91638 0.0
H506 H 0.76936 0.08059 0.93961 0.0
H507 H 0.78566 0.13101 0.92053 0.0
H508 H 0.76579 0.11871 0.94467 0.0
H509 H 0.79872 0.14181 0.88136 0.0
H510 H 0.82366 0.13058 0.9212 0.0
H511 H 0.81745 0.16664 0.8821 0.0
H512 H 0.84222 0.15583 0.92336 0.0
H513 H 0.87567 0.24385 0.87771 0.0
H514 H 0.88899 0.25506 0.84606 0.0
H515 H 0.90415 0.22473 0.8445 0.0
H516 H 0.89121 0.21399 0.87647 0.0
H517 H 0.90289 0.22913 0.90899 0.0
H518 H 0.91836 0.24665 0.93456 0.0
H519 H 0.88232 0.2502 0.95655 0.0
H520 H 0.8673 0.23354 0.92972 0.0
H521 H 0.84759 0.21243 0.89845 0.0
H522 H 0.82866 0.18742 0.90075 0.0
H523 H 0.86085 0.17474 0.90588 0.0
N524 N 0.87567 0.22287 0.89924 0.0
H525 H 0.87959 0.19999 0.90532 0.0
C526 C 0.79267 0.11381 0.8798 0.0
C527 C 0.78023 0.1141 0.87395 0.0
C528 C 0.77324 0.10781 0.85546 0.0
C529 C 0.77853 0.10113 0.84231 0.0
C530 C 0.79118 0.10119 0.84793 0.0
C531 C 0.79816 0.10747 0.8665 0.0
C532 C 0.78928 0.11307 0.91669 0.0
C533 C 0.78471 0.09897 0.9229 0.0
C534 C 0.77306 0.09174 0.93627 0.0
C535 C 0.76575 0.09853 0.94397 0.0
C536 C 0.77092 0.113 0.93874 0.0
C537 C 0.78247 0.12016 0.92512 0.0
C538 C 0.80984 0.13412 0.90096 0.0
C539 C 0.80817 0.14463 0.89045 0.0
C540 C 0.81893 0.15903 0.89113 0.0
C541 C 0.83151 0.16344 0.90279 0.0
C542 C 0.83291 0.15293 0.91383 0.0
C543 C 0.82224 0.13847 0.9128 0.0
C544 C 0.88231 0.22803 0.87936 0.0
C545 C 0.88172 0.23953 0.87032 0.0
C546 C 0.88931 0.24588 0.8522 0.0
C547 C 0.89769 0.24082 0.84268 0.0
C548 C 0.89798 0.22904 0.85154 0.0
C549 C 0.89041 0.22274 0.86973 0.0
C550 C 0.88401 0.23034 0.91712 0.0
C551 C 0.8983 0.23359 0.91945 0.0
C552 C 0.90713 0.24357 0.93429 0.0
C553 C 0.90176 0.25023 0.9474 0.0
C554 C 0.88704 0.24577 0.94628 0.0
C555 C 0.87834 0.23607 0.93116 0.0
C556 C 0.86493 0.208 0.90128 0.0
C557 C 0.85048 0.2042 0.90022 0.0
C558 C 0.83969 0.18985 0.90132 0.0
C559 C 0.8431 0.17886 0.9031 0.0
C560 C 0.8577 0.1828 0.90464 0.0
C561 C 0.86849 0.19724 0.90399 0.0
H562 H 0.80066 0.70908 0.88272 0.0
N563 N 0.80189 0.68852 0.90354 0.0
H564 H 0.78868 0.707 0.84985 0.0
H565 H 0.78953 0.66483 0.87887 0.0
H566 H 0.77651 0.66219 0.84675 0.0
H567 H 0.78354 0.66051 0.91406 0.0
H568 H 0.76343 0.65188 0.93769 0.0
H569 H 0.79585 0.70412 0.92889 0.0
H570 H 0.77498 0.69567 0.95134 0.0
H571 H 0.82687 0.70784 0.88773 0.0
H572 H 0.80697 0.66815 0.92194 0.0
H573 H 0.84948 0.70791 0.88793 0.0
H574 H 0.82968 0.66856 0.92321 0.0
H575 H 0.92008 0.71065 0.88464 0.0
H576 H 0.93043 0.70854 0.85211 0.0
H577 H 0.89357 0.66644 0.84282 0.0
H578 H 0.88362 0.66851 0.87556 0.0
H579 H 0.89021 0.66332 0.90957 0.0
H580 H 0.90282 0.65583 0.93328 0.0
H581 H 0.92666 0.69903 0.95712 0.0
H582 H 0.91424 0.70647 0.93277 0.0
H583 H 0.89159 0.7126 0.90671 0.0
H584 H 0.8686 0.71184 0.90857 0.0
H585 H 0.84668 0.66558 0.90453 0.0
N586 N 0.89632 0.69087 0.90294 0.0
H587 H 0.8698 0.66653 0.90417 0.0
C588 C 0.79581 0.68711 0.88329 0.0
C589 C 0.79557 0.69889 0.87469 0.0
C590 C 0.78853 0.69759 0.85603 0.0
C591 C 0.78131 0.68434 0.84569 0.0
C592 C 0.78198 0.6726 0.85409 0.0
C593 C 0.78929 0.67402 0.87262 0.0
C594 C 0.79149 0.68304 0.92005 0.0
C595 C 0.78213 0.66827 0.92277 0.0
C596 C 0.77036 0.66333 0.93604 0.0
C597 C 0.76727 0.67302 0.94631 0.0
C598 C 0.77698 0.6878 0.94407 0.0
C599 C 0.78897 0.6927 0.93118 0.0
C600 C 0.81508 0.68805 0.90471 0.0
C601 C 0.82739 0.69919 0.89545 0.0
C602 C 0.84039 0.69927 0.89578 0.0
C603 C 0.84157 0.6883 0.90578 0.0
C604 C 0.82921 0.67711 0.91512 0.0
C605 C 0.8161 0.67692 0.9145 0.0
C606 C 0.90108 0.68984 0.88252 0.0
C607 C 0.91417 0.70108 0.87537 0.0
C608 C 0.92003 0.69984 0.85675 0.0
C609 C 0.91287 0.68728 0.84482 0.0
C610 C 0.8995 0.67617 0.85175 0.0
C611 C 0.89369 0.67741 0.87044 0.0
C612 C 0.90134 0.68551 0.91939 0.0
C613 C 0.8979 0.67111 0.9202 0.0
C614 C 0.90515 0.66683 0.93385 0.0
C615 C 0.91593 0.67686 0.94698 0.0
C616 C 0.91865 0.69107 0.94696 0.0
C617 C 0.91145 0.69532 0.93326 0.0
C618 C 0.88246 0.68971 0.90496 0.0
C619 C 0.88179 0.70231 0.90641 0.0
C620 C 0.8686 0.70183 0.90724 0.0
C621 C 0.85564 0.68865 0.9063 0.0
C622 C 0.85635 0.67594 0.90539 0.0
C623 C 0.86963 0.67646 0.90491 0.0
H624 H 0.75912 0.63441 0.481 0.0
N625 N 0.78372 0.65289 0.46327 0.0
H626 H 0.74932 0.63719 0.51356 0.0
H627 H 0.79753 0.67499 0.49055 0.0
H628 H 0.78801 0.67781 0.52355 0.0
H629 H 0.79292 0.68115 0.45557 0.0
H630 H 0.78215 0.69045 0.43166 0.0
H631 H 0.76356 0.63814 0.43548 0.0
H632 H 0.75176 0.6471 0.41275 0.0
H633 H 0.79019 0.63439 0.47996 0.0
H634 H 0.80893 0.67358 0.44456 0.0
H635 H 0.81309 0.63503 0.4799 0.0
H636 H 0.83158 0.67388 0.44352 0.0
H637 H 0.88263 0.63426 0.48028 0.0
H638 H 0.89536 0.63645 0.51256 0.0
H639 H 0.89836 0.67739 0.52391 0.0
H640 H 0.88605 0.67527 0.49143 0.0
H641 H 0.89823 0.68141 0.45759 0.0
H642 H 0.91814 0.69 0.43328 0.0
H643 H 0.8996 0.6475 0.40714 0.0
H644 H 0.8799 0.63894 0.43206 0.0
H645 H 0.85105 0.63127 0.46024 0.0
H646 H 0.82845 0.63134 0.45893 0.0
H647 H 0.85181 0.67764 0.46248 0.0
N648 N 0.8773 0.65348 0.46319 0.0
H649 H 0.87435 0.67738 0.46242 0.0
C650 C 0.779 0.65442 0.48345 0.0
C651 C 0.76551 0.64382 0.49038 0.0
C652 C 0.75998 0.64542 0.50904 0.0
C653 C 0.76787 0.65772 0.52125 0.0
C654 C 0.78156 0.66828 0.51442 0.0
C655 C 0.78708 0.66666 0.49566 0.0
C656 C 0.77925 0.65892 0.44696 0.0
C657 C 0.78432 0.67371 0.44567 0.0
C658 C 0.77788 0.67898 0.43222 0.0
C659 C 0.76583 0.66957 0.42034 0.0
C660 C 0.76111 0.65479 0.42125 0.0
C661 C 0.76782 0.64959 0.43431 0.0
C662 C 0.79762 0.65385 0.46236 0.0
C663 C 0.79921 0.64308 0.47203 0.0
C664 C 0.81233 0.64341 0.4718 0.0
C665 C 0.82427 0.65444 0.46152 0.0
C666 C 0.82272 0.6653 0.45182 0.0
C667 C 0.80959 0.66507 0.45232 0.0
C668 C 0.88329 0.6545 0.48344 0.0
C669 C 0.88587 0.64359 0.48993 0.0
C670 C 0.89312 0.64486 0.50841 0.0
C671 C 0.89795 0.65713 0.52085 0.0
C672 C 0.895 0.6679 0.51458 0.0
C673 C 0.88779 0.66663 0.49603 0.0
C674 C 0.88758 0.65948 0.44666 0.0
C675 C 0.89826 0.67401 0.44636 0.0
C676 C 0.90967 0.67892 0.43236 0.0
C677 C 0.91059 0.6694 0.41837 0.0
C678 C 0.8994 0.65506 0.41795 0.0
C679 C 0.88805 0.65017 0.43199 0.0
C680 C 0.86434 0.65423 0.4617 0.0
C681 C 0.85124 0.64141 0.46058 0.0
C682 C 0.83833 0.64151 0.46006 0.0
C683 C 0.83818 0.6545 0.46095 0.0
C684 C 0.85143 0.66742 0.46164 0.0
C685 C 0.86438 0.6673 0.46185 0.0
H686 H 0.37624 0.12796 0.47916 0.0
N687 N 0.35738 0.13368 0.46174 0.0
H688 H 0.37399 0.11585 0.51205 0.0
H689 H 0.33588 0.12606 0.49003 0.0
H690 H 0.33364 0.11426 0.52322 0.0
H691 H 0.32981 0.11156 0.45751 0.0
H692 H 0.32178 0.09127 0.43411 0.0
H693 H 0.37183 0.13156 0.43 0.0
H694 H 0.36379 0.11147 0.40592 0.0
H695 H 0.37859 0.16031 0.46624 0.0
H696 H 0.33328 0.13562 0.45402 0.0
H697 H 0.37751 0.18236 0.46507 0.0
H698 H 0.33212 0.15771 0.45196 0.0
H699 H 0.37745 0.24197 0.4878 0.0
H700 H 0.37572 0.25232 0.52061 0.0
H701 H 0.32967 0.23098 0.51357 0.0
H702 H 0.33151 0.22031 0.48151 0.0
H703 H 0.32945 0.21594 0.4458 0.0
H704 H 0.32216 0.22916 0.42284 0.0
H705 H 0.36658 0.2622 0.41606 0.0
H706 H 0.37351 0.24932 0.4402 0.0
H707 H 0.37548 0.22078 0.44455 0.0
H708 H 0.37493 0.19789 0.44232 0.0
H709 H 0.33343 0.17696 0.4721 0.0
N710 N 0.3563 0.22604 0.46176 0.0
H711 H 0.33383 0.19985 0.47322 0.0
C712 C 0.35631 0.12795 0.48219 0.0
C713 C 0.36703 0.12515 0.48889 0.0
C714 C 0.36572 0.11828 0.50773 0.0
C715 C 0.35361 0.11403 0.52032 0.0
C716 C 0.34302 0.11719 0.5138 0.0
C717 C 0.34433 0.12406 0.49489 0.0
C718 C 0.35149 0.12309 0.44554 0.0
C719 C 0.33721 0.11179 0.44602 0.0
C720 C 0.33261 0.10016 0.43253 0.0
C721 C 0.34218 0.0996 0.41824 0.0
C722 C 0.35621 0.11138 0.41698 0.0
C723 C 0.36079 0.12296 0.43054 0.0
C724 C 0.35612 0.14635 0.46 0.0
C725 C 0.36843 0.1597 0.46301 0.0
C726 C 0.36778 0.17231 0.46218 0.0
C727 C 0.35475 0.17192 0.45815 0.0
C728 C 0.34233 0.15846 0.45521 0.0
C729 C 0.34299 0.14579 0.4562 0.0
C730 C 0.35468 0.23042 0.48216 0.0
C731 C 0.36699 0.23934 0.49363 0.0
C732 C 0.36597 0.24536 0.51224 0.0
C733 C 0.35256 0.24265 0.51969 0.0
C734 C 0.34017 0.23323 0.50851 0.0
C735 C 0.34121 0.22714 0.48999 0.0
C736 C 0.35201 0.23184 0.44499 0.0
C737 C 0.33759 0.22598 0.43924 0.0
C738 C 0.33347 0.23354 0.42592 0.0
C739 C 0.34374 0.24697 0.41784 0.0
C740 C 0.35829 0.25215 0.42243 0.0
C741 C 0.36233 0.24472 0.43599 0.0
C742 C 0.35485 0.21209 0.45929 0.0
C743 C 0.3662 0.2112 0.45034 0.0
C744 C 0.3659 0.1981 0.44929 0.0
C745 C 0.35426 0.18554 0.45742 0.0
C746 C 0.34256 0.18636 0.46563 0.0
C747 C 0.34282 0.1995 0.46644 0.0
H748 H 0.78857 0.10899 0.48026 0.0
N749 N 0.7885 0.13264 0.4649 0.0
H750 H 0.77733 0.09639 0.51216 0.0
H751 H 0.77695 0.14095 0.49427 0.0
H752 H 0.766 0.12864 0.52674 0.0
H753 H 0.7621 0.1222 0.45048 0.0
H754 H 0.74917 0.102 0.42711 0.0
H755 H 0.80064 0.1201 0.441 0.0
H756 H 0.78809 0.10054 0.41692 0.0
H757 H 0.81177 0.12953 0.47343 0.0
H758 H 0.79918 0.16007 0.45507 0.0
H759 H 0.83681 0.14815 0.47249 0.0
H760 H 0.82426 0.17918 0.45554 0.0
H761 H 0.91438 0.21165 0.4889 0.0
H762 H 0.92468 0.22566 0.52026 0.0
H763 H 0.8924 0.23833 0.51951 0.0
H764 H 0.88242 0.22448 0.48767 0.0
H765 H 0.89212 0.23284 0.45205 0.0
H766 H 0.90806 0.24933 0.42561 0.0
H767 H 0.92615 0.22186 0.41617 0.0
H768 H 0.90984 0.2053 0.44212 0.0
H769 H 0.8792 0.18603 0.49031 0.0
H770 H 0.85401 0.16766 0.49001 0.0
H771 H 0.84659 0.18973 0.43991 0.0
N772 N 0.89256 0.2093 0.46692 0.0
H773 H 0.87155 0.20856 0.44137 0.0
C774 C 0.78354 0.12594 0.48484 0.0
C775 C 0.78386 0.11348 0.49043 0.0
C776 C 0.77743 0.10628 0.50878 0.0
C777 C 0.77064 0.11141 0.52202 0.0
C778 C 0.77088 0.12421 0.51675 0.0
C779 C 0.77725 0.13136 0.49833 0.0
C780 C 0.78233 0.12277 0.44776 0.0
C781 C 0.76789 0.11769 0.44285 0.0
C782 C 0.76052 0.10612 0.4294 0.0
C783 C 0.76749 0.09941 0.42024 0.0
C784 C 0.78223 0.10514 0.42407 0.0
C785 C 0.78954 0.11657 0.4378 0.0
C786 C 0.80354 0.14335 0.46397 0.0
C787 C 0.81438 0.14027 0.46917 0.0
C788 C 0.82879 0.15107 0.46891 0.0
C789 C 0.83273 0.16534 0.46407 0.0
C790 C 0.82179 0.16835 0.45897 0.0
C791 C 0.8074 0.15745 0.45881 0.0
C792 C 0.89765 0.21698 0.48611 0.0
C793 C 0.90949 0.21738 0.49565 0.0
C794 C 0.9153 0.22534 0.51362 0.0
C795 C 0.90932 0.23309 0.52253 0.0
C796 C 0.89735 0.23261 0.51296 0.0
C797 C 0.89156 0.22464 0.49487 0.0
C798 C 0.89976 0.21778 0.44894 0.0
C799 C 0.89926 0.23021 0.44387 0.0
C800 C 0.90851 0.23971 0.42888 0.0
C801 C 0.91854 0.23705 0.41881 0.0
C802 C 0.91847 0.22422 0.42329 0.0
C803 C 0.90917 0.21472 0.43816 0.0
C804 C 0.87744 0.19875 0.46597 0.0
C805 C 0.8721 0.18696 0.47937 0.0
C806 C 0.85766 0.17633 0.47897 0.0
C807 C 0.84812 0.17699 0.46475 0.0
C808 C 0.85348 0.18886 0.45129 0.0
C809 C 0.86792 0.19969 0.452 0.0
H810 H 0.01936 0.55933 0.20838 0.0
N811 N 0.99682 0.54735 0.23548 0.0
H812 H 0.02052 0.57186 0.17648 0.0
H813 H 0.97536 0.54829 0.21683 0.0
H814 H 0.97604 0.56001 0.18419 0.0
H815 H 0.98097 0.54785 0.26664 0.0
H816 H 0.98717 0.56744 0.29121 0.0
H817 H 0.02331 0.57141 0.24024 0.0
H818 H 0.02949 0.59084 0.26436 0.0
H819 H 0.02314 0.55003 0.24441 0.0
H820 H 0.97932 0.51966 0.22872 0.0
H821 H 0.02881 0.53089 0.24505 0.0
H822 H 0.98507 0.5004 0.22834 0.0
H823 H 0.04169 0.46772 0.20931 0.0
H824 H 0.0381 0.45404 0.17765 0.0
H825 H 0.99311 0.44127 0.17839 0.0
H826 H 0.99684 0.4547 0.21054 0.0
H827 H 0.99802 0.44537 0.24562 0.0
H828 H 0.9973 0.42867 0.27173 0.0
H829 H 0.04271 0.45629 0.28237 0.0
H830 H 0.0431 0.47315 0.25687 0.0
H831 H 0.03831 0.49665 0.22141 0.0
H832 H 0.03232 0.51569 0.22284 0.0
H833 H 0.99085 0.48572 0.24848 0.0
N834 N 0.02205 0.46938 0.23181 0.0
H835 H 0.99677 0.46666 0.24603 0.0
C836 C 0.99728 0.55301 0.21512 0.0
C837 C 0.00986 0.55941 0.20318 0.0
C838 C 0.01045 0.56648 0.18477 0.0
C839 C 0.99841 0.56714 0.17773 0.0
C840 C 0.98564 0.56009 0.1893 0.0
C841 C 0.98515 0.55321 0.20783 0.0
C842 C 1.00163 0.55798 0.25169 0.0
C843 C 0.99169 0.55707 0.26645 0.0
C844 C 0.9952 0.56833 0.28032 0.0
C845 C 0.00882 0.58075 0.27972 0.0
C846 C 0.01898 0.58137 0.26549 0.0
C847 C 0.01543 0.57017 0.25159 0.0
C848 C 1.00067 0.5363 0.23672 0.0
C849 C 0.01467 0.53927 0.24114 0.0
C850 C 0.01797 0.52824 0.24128 0.0
C851 C 0.00743 0.51401 0.2367 0.0
C852 C 0.99343 0.51112 0.23232 0.0
C853 C 0.99013 0.52213 0.23239 0.0
C854 C 0.01961 0.46231 0.21214 0.0
C855 C 0.03111 0.46209 0.20245 0.0
C856 C 0.02901 0.4543 0.1843 0.0
C857 C 0.01531 0.44656 0.17534 0.0
C858 C 0.00378 0.44697 0.18496 0.0
C859 C 0.0059 0.45475 0.20324 0.0
C860 C 0.02064 0.46062 0.24946 0.0
C861 C 0.0077 0.44806 0.25407 0.0
C862 C 0.00736 0.43839 0.26884 0.0
C863 C 0.01997 0.441 0.27911 0.0
C864 C 0.03273 0.45394 0.27509 0.0
C865 C 0.03301 0.46362 0.26047 0.0
C866 C 0.01811 0.48029 0.23376 0.0
C867 C 0.02795 0.49425 0.22739 0.0
C868 C 0.02452 0.50514 0.22838 0.0
C869 C 0.01111 0.50235 0.23594 0.0
C870 C 1.00122 0.48828 0.24237 0.0
C871 C 0.00464 0.47735 0.24117 0.0
H872 H 0.58615 0.54859 0.21848 0.0
N873 N 0.56131 0.54279 0.23503 0.0
H874 H 0.59664 0.56107 0.18605 0.0
H875 H 0.54787 0.55052 0.20615 0.0
H876 H 0.55809 0.56274 0.17339 0.0
H877 H 0.55578 0.56488 0.23871 0.0
H878 H 0.56767 0.58512 0.26226 0.0
H879 H 0.57747 0.5449 0.26731 0.0
H880 H 0.58914 0.56495 0.29154 0.0
H881 H 0.55575 0.51615 0.23011 0.0
H882 H 0.53527 0.54093 0.24258 0.0
H883 H 0.53258 0.49413 0.23143 0.0
H884 H 0.51202 0.5189 0.2449 0.0
H885 H 0.47261 0.43462 0.20958 0.0
H886 H 0.46057 0.4247 0.17659 0.0
H887 H 0.43616 0.44628 0.1844 0.0
H888 H 0.44858 0.45648 0.21671 0.0
H889 H 0.4508 0.46039 0.25238 0.0
H890 H 0.43048 0.44698 0.2756 0.0
H891 H 0.44248 0.41437 0.28192 0.0
H892 H 0.46206 0.42742 0.25748 0.0
H893 H 0.49227 0.45581 0.25256 0.0
H894 H 0.51468 0.47867 0.25433 0.0
H895 H 0.49382 0.49961 0.22546 0.0
N896 N 0.46766 0.45057 0.23596 0.0
H897 H 0.47129 0.47678 0.22488 0.0
C898 C 0.56627 0.54858 0.21468 0.0
C899 C 0.57991 0.55147 0.2085 0.0
C900 C 0.58585 0.55857 0.18993 0.0
C901 C 0.57823 0.56296 0.17708 0.0
C902 C 0.56434 0.55969 0.18304 0.0
C903 C 0.55842 0.55259 0.20168 0.0
C904 C 0.56579 0.55336 0.25122 0.0
C905 C 0.56279 0.56464 0.25047 0.0
C906 C 0.5696 0.57624 0.26405 0.0
C907 C 0.57953 0.57679 0.2787 0.0
C908 C 0.5818 0.56504 0.28021 0.0
C909 C 0.57501 0.55348 0.26656 0.0
C910 C 0.54732 0.53015 0.23647 0.0
C911 C 0.54623 0.51679 0.2334 0.0
C912 C 0.53295 0.5042 0.23434 0.0
C913 C 0.52035 0.50463 0.23858 0.0
C914 C 0.52144 0.51811 0.2415 0.0
C915 C 0.53479 0.53076 0.24036 0.0
C916 C 0.46153 0.44625 0.21564 0.0
C917 C 0.46484 0.43738 0.20391 0.0
C918 C 0.45782 0.4316 0.1852 0.0
C919 C 0.44726 0.43455 0.17788 0.0
C920 C 0.44432 0.44387 0.18938 0.0
C921 C 0.4514 0.44969 0.20802 0.0
C922 C 0.45772 0.44469 0.2529 0.0
C923 C 0.44906 0.45039 0.25888 0.0
C924 C 0.4375 0.44273 0.27236 0.0
C925 C 0.43456 0.42936 0.28039 0.0
C926 C 0.44405 0.42436 0.27559 0.0
C927 C 0.4554 0.43189 0.26186 0.0
C928 C 0.48019 0.46451 0.23835 0.0
C929 C 0.49253 0.46539 0.24689 0.0
C930 C 0.50536 0.47847 0.24766 0.0
C931 C 0.50622 0.49102 0.23962 0.0
C932 C 0.49362 0.49023 0.23185 0.0
C933 C 0.48069 0.47711 0.23134 0.0
H934 H 0.56092 0.99668 0.21854 0.0
N935 N 0.56142 0.0208 0.23302 0.0
H936 H 0.57087 0.99428 0.18601 0.0
H937 H 0.57243 0.03997 0.20265 0.0
H938 H 0.58209 0.03756 0.16957 0.0
H939 H 0.58817 0.03644 0.24631 0.0
H940 H 0.60108 0.02915 0.2697 0.0
H941 H 0.54913 0.99666 0.25819 0.0
H942 H 0.56172 0.98967 0.28221 0.0
H943 H 0.53789 0.99433 0.22585 0.0
H944 H 0.5511 0.03801 0.24178 0.0
H945 H 0.51297 0.98828 0.22644 0.0
H946 H 0.52612 0.03238 0.24089 0.0
H947 H 0.43617 0.97494 0.20721 0.0
H948 H 0.42589 0.97839 0.17565 0.0
H949 H 0.45781 0.02346 0.17618 0.0
H950 H 0.46775 0.01984 0.20828 0.0
H951 H 0.45757 0.01824 0.244 0.0
H952 H 0.44149 0.01838 0.27058 0.0
H953 H 0.42441 0.97296 0.28006 0.0
H954 H 0.44085 0.97313 0.25399 0.0
H955 H 0.47099 0.98397 0.207 0.0
H956 H 0.4961 0.99051 0.20793 0.0
H957 H 0.50367 0.02126 0.25621 0.0
N958 N 0.45778 0.9946 0.22921 0.0
H959 H 0.47879 0.01539 0.25402 0.0
C960 C 0.56598 0.01858 0.21306 0.0
C961 C 0.56537 0.0056 0.20787 0.0
C962 C 0.57104 0.00424 0.18916 0.0
C963 C 0.57736 0.01576 0.17514 0.0
C964 C 0.57754 0.02856 0.18013 0.0
C965 C 0.57192 0.02993 0.19891 0.0
C966 C 0.56769 0.01719 0.25017 0.0
C967 C 0.58228 0.02633 0.25444 0.0
C968 C 0.58965 0.02213 0.26791 0.0
C969 C 0.58253 0.00868 0.27772 0.0
C970 C 0.56768 0.99993 0.27453 0.0
C971 C 0.56036 0.00405 0.26081 0.0
C972 C 0.54643 0.01664 0.23416 0.0
C973 C 0.53544 0.00265 0.22955 0.0
C974 C 0.5211 0.99926 0.22958 0.0
C975 C 0.51736 0.00984 0.23353 0.0
C976 C 0.52843 0.02383 0.23813 0.0
C977 C 0.54276 0.02713 0.23854 0.0
C978 C 0.45272 0.99706 0.20992 0.0
C979 C 0.44098 0.98552 0.20037 0.0
C980 C 0.43519 0.98753 0.18228 0.0
C981 C 0.44108 1.0012 0.17322 0.0
C982 C 0.45294 0.01282 0.18282 0.0
C983 C 0.4587 0.01077 0.20105 0.0
C984 C 0.45043 0.99564 0.24715 0.0
C985 C 0.45062 0.00842 0.25223 0.0
C986 C 0.4413 0.00844 0.26729 0.0
C987 C 0.43151 0.99565 0.27742 0.0
C988 C 0.43189 0.98306 0.2729 0.0
C989 C 0.44126 0.9831 0.25796 0.0
C990 C 0.47285 0.99907 0.23039 0.0
C991 C 0.47811 0.99221 0.21767 0.0
C992 C 0.4925 0.99586 0.21844 0.0
C993 C 0.50204 0.00631 0.23238 0.0
C994 C 0.49678 0.01328 0.24509 0.0
C995 C 0.48239 0.00982 0.24397 0.0
H996 H 0.42649 0.97171 0.81217 0.0
N997 N 0.4514 0.9897 0.79479 0.0
H998 H 0.41665 0.97489 0.8444 0.0
H999 H 0.46555 0.01162 0.82222 0.0
H1000 H 0.45601 0.0148 0.85498 0.0
H1001 H 0.46111 0.01803 0.78696 0.0
H1002 H 0.45039 0.02758 0.76336 0.0
H1003 H 0.43119 0.97516 0.76695 0.0
H1004 H 0.4195 0.98439 0.74451 0.0
H1005 H 0.45682 0.97027 0.81071 0.0
H1006 H 0.47707 0.01018 0.77706 0.0
H1007 H 0.47928 0.97001 0.81068 0.0
H1008 H 0.49931 0.0096 0.77596 0.0
H1009 H 0.5476 0.96652 0.81129 0.0
H1010 H 0.56016 0.96793 0.84346 0.0
H1011 H 0.56404 0.00909 0.85637 0.0
H1012 H 0.5519 0.00773 0.82403 0.0
H1013 H 0.56482 0.01416 0.7906 0.0
H1014 H 0.58514 0.02247 0.76712 0.0
H1015 H 0.56548 0.98047 0.73906 0.0
H1016 H 0.54539 0.97215 0.76321 0.0
H1017 H 0.51645 0.96496 0.79113 0.0
H1018 H 0.49436 0.96602 0.78974 0.0
H1019 H 0.51913 0.01221 0.79478 0.0
N1020 N 0.54304 0.98646 0.7949 0.0
H1021 H 0.54116 0.01099 0.79476 0.0
C1022 C 0.4467 0.99135 0.81491 0.0
C1023 C 0.43302 0.98104 0.82162 0.0
C1024 C 0.42746 0.98287 0.8401 0.0
C1025 C 0.43553 0.9951 0.85239 0.0
C1026 C 0.44943 0.00535 0.8458 0.0
C1027 C 0.45496 0.00351 0.82719 0.0
C1028 C 0.44715 0.99585 0.77837 0.0
C1029 C 0.45243 0.01068 0.77709 0.0
C1030 C 0.44603 0.0161 0.76384 0.0
C1031 C 0.43383 0.0068 0.75212 0.0
C1032 C 0.42896 0.992 0.75291 0.0
C1033 C 0.43562 0.98664 0.76579 0.0
C1034 C 0.46505 0.99014 0.79392 0.0
C1035 C 0.46608 0.97892 0.80315 0.0
C1036 C 0.47895 0.97874 0.80292 0.0
C1037 C 0.49119 0.98971 0.7931 0.0
C1038 C 0.4902 1.00103 0.78389 0.0
C1039 C 0.47732 1.00132 0.7844 0.0
C1040 C 0.54872 0.98692 0.81523 0.0
C1041 C 0.55097 0.97572 0.82128 0.0
C1042 C 0.55813 0.97655 0.83969 0.0
C1043 C 0.5632 0.98867 0.8525 0.0
C1044 C 0.56049 0.9997 0.84673 0.0
C1045 C 0.55338 0.99887 0.82827 0.0
C1046 C 0.55358 0.99247 0.77869 0.0
C1047 C 0.56471 0.00683 0.77911 0.0
C1048 C 0.57635 0.01158 0.76559 0.0
C1049 C 0.57708 0.00209 0.75132 0.0
C1050 C 0.56545 0.98799 0.75011 0.0
C1051 C 0.55387 0.98325 0.7637 0.0
C1052 C 0.53041 0.98781 0.79334 0.0
C1053 C 0.51706 0.9753 0.79178 0.0
C1054 C 0.50444 0.97595 0.79121 0.0
C1055 C 0.50483 0.9892 0.79251 0.0
C1056 C 0.51832 1.00181 0.79362 0.0
C1057 C 0.531 1.00113 0.79386 0.0
H1058 H 0.97308 0.54417 0.82563 0.0
N1059 N 0.99247 0.54212 0.80307 0.0
H1060 H 0.97697 0.55826 0.85691 0.0
H1061 H 0.01796 0.55742 0.82339 0.0
H1062 H 0.02202 0.57135 0.85523 0.0
H1063 H 0.01604 0.56586 0.78779 0.0
H1064 H 0.01598 0.58212 0.76148 0.0
H1065 H 0.97075 0.53773 0.77901 0.0
H1066 H 0.97036 0.55408 0.7533 0.0
H1067 H 0.98172 0.51806 0.82473 0.0
H1068 H 0.01342 0.54221 0.77825 0.0
H1069 H 0.98826 0.49949 0.82336 0.0
H1070 H 0.01933 0.52325 0.77565 0.0
H1071 H 0.99457 0.44108 0.811 0.0
H1072 H 0.99216 0.42805 0.84295 0.0
H1073 H 0.03558 0.45955 0.85961 0.0
H1074 H 0.03796 0.47236 0.82726 0.0
H1075 H 0.0346 0.45404 0.78349 0.0
H1076 H 0.02777 0.43455 0.75898 0.0
H1077 H 0.98854 0.43483 0.74597 0.0
H1078 H 0.99503 0.45361 0.77125 0.0
H1079 H 0.99225 0.46175 0.80417 0.0
H1080 H 0.98618 0.48062 0.80425 0.0
H1081 H 0.0304 0.51184 0.7909 0.0
N1082 N 0.01879 0.46486 0.79707 0.0
H1083 H 0.03608 0.49255 0.7894 0.0
C1084 C 0.99516 0.54969 0.82236 0.0
C1085 C 0.98375 0.54998 0.83218 0.0
C1086 C 0.98601 0.558 0.85011 0.0
C1087 C 0.99981 0.5659 0.85874 0.0
C1088 C 0.01129 0.5655 0.84892 0.0
C1089 C 0.00899 0.55748 0.83084 0.0
C1090 C 0.99336 0.55052 0.78521 0.0
C1091 C 0.00613 0.56305 0.77987 0.0
C1092 C 0.00603 0.57242 0.76497 0.0
C1093 C 0.99314 0.56954 0.75531 0.0
C1094 C 0.98054 0.55662 0.76008 0.0
C1095 C 0.9807 0.54723 0.77482 0.0
C1096 C 0.99695 0.53154 0.80163 0.0
C1097 C 0.99002 0.51929 0.81409 0.0
C1098 C 0.99369 0.50858 0.81307 0.0
C1099 C 0.00423 0.50966 0.79916 0.0
C1100 C 0.01128 0.52204 0.78673 0.0
C1101 C 0.00779 0.53292 0.78809 0.0
C1102 C 0.01651 0.45772 0.81674 0.0
C1103 C 0.0035 0.4453 0.82164 0.0
C1104 C 1.00213 0.43786 0.83998 0.0
C1105 C 0.01371 0.44269 0.85381 0.0
C1106 C 0.02654 0.45538 0.84915 0.0
C1107 C 0.02789 0.4628 0.83079 0.0
C1108 C 0.01542 0.45537 0.77951 0.0
C1109 C 0.02464 0.45005 0.77505 0.0
C1110 C 0.02071 0.4389 0.76091 0.0
C1111 C 0.00747 0.43288 0.75055 0.0
C1112 C 0.99864 0.43887 0.75403 0.0
C1113 C 1.00246 0.44985 0.76848 0.0
C1114 C 0.01463 0.47569 0.79641 0.0
C1115 C 1.0006 0.4726 0.80089 0.0
C1116 C 0.99718 0.48352 0.80123 0.0
C1117 C 0.00779 0.49791 0.79774 0.0
C1118 C 0.02184 0.50093 0.7933 0.0
C1119 C 0.02516 0.48993 0.79253 0.0
H1120 H 0.46853 0.43583 0.82155 0.0
N1121 N 0.46872 0.45701 0.80035 0.0
H1122 H 0.45554 0.42483 0.85347 0.0
H1123 H 0.45381 0.46633 0.82372 0.0
H1124 H 0.44129 0.45586 0.85604 0.0
H1125 H 0.44122 0.45013 0.7914 0.0
H1126 H 0.42565 0.43235 0.76616 0.0
H1127 H 0.47708 0.44665 0.76945 0.0
H1128 H 0.46195 0.42972 0.74296 0.0
H1129 H 0.49678 0.46728 0.80083 0.0
H1130 H 0.46494 0.47996 0.79413 0.0
H1131 H 0.51581 0.49224 0.79825 0.0
H1132 H 0.4838 0.50517 0.79322 0.0
H1133 H 0.5692 0.56087 0.81467 0.0
H1134 H 0.58117 0.57189 0.84687 0.0
H1135 H 0.5488 0.58333 0.85991 0.0
H1136 H 0.53708 0.57261 0.82697 0.0
H1137 H 0.55593 0.58633 0.7812 0.0
H1138 H 0.57629 0.59834 0.75779 0.0
H1139 H 0.57867 0.55951 0.75386 0.0
H1140 H 0.55884 0.54791 0.77818 0.0
H1141 H 0.54603 0.53789 0.8172 0.0
H1142 H 0.52714 0.5131 0.81682 0.0
H1143 H 0.50247 0.52389 0.77534 0.0
N1144 N 0.54562 0.56067 0.79833 0.0
H1145 H 0.5212 0.54911 0.77709 0.0
C1146 C 0.46229 0.45195 0.82036 0.0
C1147 C 0.46275 0.44034 0.82922 0.0
C1148 C 0.45534 0.43411 0.8475 0.0
C1149 C 0.44733 0.43944 0.85742 0.0
C1150 C 0.44717 0.45134 0.84873 0.0
C1151 C 0.45451 0.45749 0.83033 0.0
C1152 C 0.46025 0.44942 0.78262 0.0
C1153 C 0.44583 0.44583 0.78073 0.0
C1154 C 0.43694 0.43569 0.76609 0.0
C1155 C 0.44239 0.42921 0.75276 0.0
C1156 C 0.45719 0.43401 0.75342 0.0
C1157 C 0.46595 0.44387 0.76834 0.0
C1158 C 0.47952 0.47184 0.79808 0.0
C1159 C 0.49395 0.47555 0.79901 0.0
C1160 C 0.5048 0.48988 0.79775 0.0
C1161 C 0.50146 0.50092 0.79592 0.0
C1162 C 0.48689 0.49706 0.7945 0.0
C1163 C 0.47603 0.48264 0.79533 0.0
C1164 C 0.55221 0.56597 0.81829 0.0
C1165 C 0.5646 0.56568 0.82442 0.0
C1166 C 0.57141 0.57192 0.84302 0.0
C1167 C 0.56598 0.57853 0.85606 0.0
C1168 C 0.5534 0.57851 0.85013 0.0
C1169 C 0.54661 0.57229 0.83143 0.0
C1170 C 0.55578 0.56624 0.78146 0.0
C1171 C 0.56069 0.58035 0.77491 0.0
C1172 C 0.57233 0.58718 0.76144 0.0
C1173 C 0.57931 0.57998 0.75396 0.0
C1174 C 0.57382 0.56553 0.7596 0.0
C1175 C 0.56228 0.55877 0.77334 0.0
C1176 C 0.53498 0.54557 0.79743 0.0
C1177 C 0.53656 0.53507 0.80814 0.0
C1178 C 0.52571 0.5207 0.80767 0.0
C1179 C 0.51313 0.51631 0.79605 0.0
C1180 C 0.51179 0.52679 0.78485 0.0
C1181 C 0.52256 0.54123 0.78565 0.0
H1182 H 0.68181 0.88921 0.5396 0.0
N1183 N 0.65923 0.8776 0.56663 0.0
H1184 H 0.6831 0.90146 0.50738 0.0
H1185 H 0.63788 0.87855 0.54761 0.0
H1186 H 0.63864 0.88986 0.51456 0.0
H1187 H 0.64365 0.87855 0.59785 0.0
H1188 H 0.65034 0.89819 0.62253 0.0
H1189 H 0.68592 0.90144 0.57108 0.0
H1190 H 0.69258 0.92092 0.59528 0.0
H1191 H 0.68513 0.87977 0.57716 0.0
H1192 H 0.64172 0.85007 0.55862 0.0
H1193 H 0.69046 0.86042 0.57819 0.0
H1194 H 0.64718 0.83063 0.55849 0.0
H1195 H 0.70261 0.80192 0.5357 0.0
H1196 H 0.69895 0.78755 0.5047 0.0
H1197 H 0.65342 0.7639 0.51712 0.0
H1198 H 0.65723 0.77881 0.54771 0.0
H1199 H 0.66071 0.7768 0.58397 0.0
H1200 H 0.66245 0.76118 0.6097 0.0
H1201 H 0.70869 0.78679 0.60712 0.0
H1202 H 0.70672 0.8026 0.58198 0.0
H1203 H 0.70028 0.82627 0.55531 0.0
H1204 H 0.6946 0.84553 0.5567 0.0
H1205 H 0.65194 0.81528 0.57834 0.0
N1206 N 0.68313 0.79873 0.56341 0.0
H1207 H 0.65759 0.79602 0.57571 0.0
C1208 C 0.65977 0.88316 0.54617 0.0
C1209 C 0.67236 0.88934 0.53425 0.0
C1210 C 0.67302 0.89623 0.51562 0.0
C1211 C 0.66101 0.89685 0.50829 0.0
C1212 C 0.64823 0.88999 0.51986 0.0
C1213 C 0.64769 0.88335 0.53865 0.0
C1214 C 0.66423 0.88835 0.58269 0.0
C1215 C 0.65444 0.88765 0.59756 0.0
C1216 C 0.65824 0.89893 0.6115 0.0
C1217 C 0.672 0.91115 0.61087 0.0
C1218 C 0.68197 0.91159 0.59644 0.0
C1219 C 0.67813 0.90038 0.58247 0.0
C1220 C 0.66288 0.8664 0.56802 0.0
C1221 C 0.67668 0.86911 0.57332 0.0
C1222 C 0.67979 0.85796 0.57369 0.0
C1223 C 0.66929 0.84386 0.56838 0.0
C1224 C 0.6555 0.84123 0.56307 0.0
C1225 C 0.65237 0.85235 0.56299 0.0
C1226 C 0.68025 0.79134 0.54399 0.0
C1227 C 0.69184 0.7938 0.53146 0.0
C1228 C 0.68971 0.78546 0.51392 0.0
C1229 C 0.67591 0.77435 0.50863 0.0
C1230 C 0.66418 0.77236 0.52071 0.0
C1231 C 0.66633 0.78081 0.53827 0.0
C1232 C 0.68364 0.79099 0.5812 0.0
C1233 C 0.6712 0.77933 0.58943 0.0
C1234 C 0.67223 0.77026 0.60397 0.0
C1235 C 0.68572 0.77259 0.61043 0.0
C1236 C 0.6981 0.78471 0.60284 0.0
C1237 C 0.69704 0.79379 0.58843 0.0
C1238 C 0.67946 0.80979 0.56561 0.0
C1239 C 0.68974 0.82387 0.56044 0.0
C1240 C 0.68647 0.83488 0.56141 0.0
C1241 C 0.67281 0.83208 0.56779 0.0
C1242 C 0.66252 0.81788 0.57312 0.0
C1243 C 0.66577 0.80683 0.57188 0.0
H1244 H 0.25092 0.88304 0.55326 0.0
N1245 N 0.22584 0.87782 0.5683 0.0
H1246 H 0.2626 0.89581 0.52148 0.0
H1247 H 0.2134 0.88563 0.53747 0.0
H1248 H 0.22468 0.89781 0.50552 0.0
H1249 H 0.22294 0.90167 0.56967 0.0
H1250 H 0.23515 0.92178 0.59324 0.0
H1251 H 0.2408 0.87913 0.60171 0.0
H1252 H 0.253 0.89927 0.62577 0.0
H1253 H 0.21693 0.85002 0.57079 0.0
H1254 H 0.2014 0.87989 0.56958 0.0
H1255 H 0.19229 0.83006 0.57247 0.0
H1256 H 0.17688 0.8602 0.56967 0.0
H1257 H 0.12476 0.7758 0.54853 0.0
H1258 H 0.11485 0.76336 0.51599 0.0
H1259 H 0.10017 0.79317 0.50199 0.0
H1260 H 0.11089 0.80597 0.53408 0.0
H1261 H 0.1015 0.80015 0.57936 0.0
H1262 H 0.08434 0.7842 0.60502 0.0
H1263 H 0.10873 0.7625 0.6117 0.0
H1264 H 0.1259 0.77868 0.58575 0.0
H1265 H 0.14714 0.79761 0.55063 0.0
H1266 H 0.17187 0.81673 0.55313 0.0
H1267 H 0.15834 0.84218 0.58793 0.0
N1268 N 0.12336 0.79877 0.56339 0.0
H1269 H 0.13343 0.82331 0.58387 0.0
C1270 C 0.23127 0.88325 0.54787 0.0
C1271 C 0.24506 0.88602 0.54268 0.0
C1272 C 0.2517 0.89331 0.52447 0.0
C1273 C 0.24464 0.89797 0.51095 0.0
C1274 C 0.23056 0.89464 0.51574 0.0
C1275 C 0.22398 0.88745 0.53402 0.0
C1276 C 0.2309 0.88879 0.58398 0.0
C1277 C 0.22914 0.90084 0.58216 0.0
C1278 C 0.23617 0.91239 0.59572 0.0
C1279 C 0.24515 0.9122 0.61137 0.0
C1280 C 0.24634 0.89986 0.61373 0.0
C1281 C 0.23927 0.88829 0.60015 0.0
C1282 C 0.2111 0.86645 0.56983 0.0
C1283 C 0.20818 0.85225 0.57074 0.0
C1284 C 0.19405 0.84085 0.57151 0.0
C1285 C 0.18242 0.84338 0.57104 0.0
C1286 C 0.18543 0.8577 0.57041 0.0
C1287 C 0.19957 0.86909 0.57008 0.0
C1288 C 0.11876 0.79198 0.54352 0.0
C1289 C 0.1197 0.77983 0.53822 0.0
C1290 C 0.11382 0.7726 0.51968 0.0
C1291 C 0.10661 0.77717 0.50625 0.0
C1292 C 0.10586 0.78945 0.51162 0.0
C1293 C 0.11193 0.79678 0.53 0.0
C1294 C 0.11486 0.79055 0.58069 0.0
C1295 C 0.10328 0.79214 0.58672 0.0
C1296 C 0.09352 0.78302 0.60144 0.0
C1297 C 0.09513 0.77203 0.61045 0.0
C1298 C 0.1071 0.77076 0.60491 0.0
C1299 C 0.11694 0.78001 0.59018 0.0
C1300 C 0.1383 0.8091 0.56676 0.0
C1301 C 0.14941 0.80727 0.55877 0.0
C1302 C 0.1637 0.81826 0.56043 0.0
C1303 C 0.16727 0.83121 0.57054 0.0
C1304 C 0.15611 0.83262 0.57948 0.0
C1305 C 0.14183 0.82175 0.57742 0.0
H1306 H 0.22393 0.32664 0.55181 0.0
N1307 N 0.22446 0.35038 0.56807 0.0
H1308 H 0.23489 0.32541 0.51962 0.0
H1309 H 0.23624 0.37058 0.5391 0.0
H1310 H 0.24691 0.36933 0.50627 0.0
H1311 H 0.25041 0.36625 0.584 0.0
H1312 H 0.26308 0.35856 0.60719 0.0
H1313 H 0.21234 0.32479 0.58924 0.0
H1314 H 0.2246 0.31722 0.61337 0.0
H1315 H 0.20096 0.32602 0.55315 0.0
H1316 H 0.21399 0.36518 0.58668 0.0
H1317 H 0.1762 0.32053 0.55419 0.0
H1318 H 0.18897 0.35938 0.58885 0.0
H1319 H 0.10588 0.30571 0.5401 0.0
H1320 H 0.09524 0.30817 0.50813 0.0
H1321 H 0.11624 0.35398 0.51775 0.0
H1322 H 0.12617 0.35123 0.5501 0.0
H1323 H 0.12418 0.34953 0.58726 0.0
H1324 H 0.10767 0.3494 0.61345 0.0
H1325 H 0.0842 0.30308 0.61197 0.0
H1326 H 0.10083 0.30342 0.58607 0.0
H1327 H 0.13107 0.30782 0.57242 0.0
H1328 H 0.15592 0.31321 0.57482 0.0
H1329 H 0.17028 0.3584 0.56886 0.0
N1330 N 0.1216 0.32606 0.56715 0.0
H1331 H 0.1454 0.35285 0.56772 0.0
C1332 C 0.22932 0.34879 0.54794 0.0
C1333 C 0.22878 0.33597 0.54191 0.0
C1334 C 0.23501 0.33526 0.52335 0.0
C1335 C 0.24187 0.3473 0.51032 0.0
C1336 C 0.24194 0.35993 0.51607 0.0
C1337 C 0.23573 0.36064 0.5347 0.0
C1338 C 0.23045 0.34621 0.58486 0.0
C1339 C 0.24466 0.35564 0.59073 0.0
C1340 C 0.25186 0.35119 0.60409 0.0
C1341 C 0.24496 0.33718 0.61214 0.0
C1342 C 0.23041 0.32798 0.60717 0.0
C1343 C 0.22327 0.33238 0.59354 0.0
C1344 C 0.20947 0.34621 0.5696 0.0
C1345 C 0.19852 0.33343 0.56089 0.0
C1346 C 0.18423 0.3302 0.56172 0.0
C1347 C 0.18046 0.33951 0.57156 0.0
C1348 C 0.19142 0.35207 0.58077 0.0
C1349 C 0.20573 0.35536 0.57973 0.0
C1350 C 0.11693 0.32824 0.54735 0.0
C1351 C 0.1083 0.31628 0.53509 0.0
C1352 C 0.10228 0.31774 0.51679 0.0
C1353 C 0.10485 0.3313 0.51026 0.0
C1354 C 0.11383 0.34335 0.52239 0.0
C1355 C 0.11973 0.34183 0.54082 0.0
C1356 C 0.11368 0.32643 0.58478 0.0
C1357 C 0.11564 0.33938 0.5929 0.0
C1358 C 0.10613 0.33928 0.60777 0.0
C1359 C 0.09454 0.32623 0.6148 0.0
C1360 C 0.09309 0.31333 0.60722 0.0
C1361 C 0.10255 0.31346 0.59238 0.0
C1362 C 0.13636 0.32986 0.56965 0.0
C1363 C 0.13963 0.31888 0.57185 0.0
C1364 C 0.15386 0.32201 0.57301 0.0
C1365 C 0.16523 0.33626 0.57176 0.0
C1366 C 0.16188 0.3473 0.57007 0.0
C1367 C 0.14759 0.34414 0.56917 0.0
H1368 H 0.03061 0.41071 0.06571 0.0
H1369 H 0.99245 0.42003 0.16548 0.0
H1370 H 0.98573 0.38246 0.07885 0.0
H1371 H 0.03322 0.45307 0.14193 0.0
H1372 H 0.98995 0.40537 0.13518 0.0
H1373 H 0.03214 0.42533 0.09535 0.0
C1374 C 0.02107 0.40753 0.07487 0.0
C1375 C 0.00801 0.39531 0.06973 0.0
C1376 C 0.9994 0.41586 0.13665 0.0
C1377 C 0.00971 0.4121 0.10382 0.0
C1378 C 1.00081 0.4243 0.15388 0.0
C1379 C 0.01312 0.43782 0.15641 0.0
C1380 C 0.01043 0.42093 0.12189 0.0
C1381 C 0.02368 0.44263 0.14094 0.0
C1382 C 0.02194 0.41594 0.09177 0.0
C1383 C 0.99601 0.39179 0.0822 0.0
N1384 N 0.02213 0.43417 0.12447 0.0
N1385 N 0.99716 0.40013 0.09871 0.0
H1386 H 0.60802 0.62575 0.07825 0.0
H1387 H 0.59554 0.55955 0.14914 0.0
H1388 H 0.6308 0.60262 0.06991 0.0
H1389 H 0.57667 0.5859 0.1617 0.0
H1390 H 0.60777 0.57456 0.11923 0.0
H1391 H 0.59581 0.61073 0.10812 0.0
C1392 C 0.61051 0.61755 0.08272 0.0
C1393 C 0.62048 0.61547 0.0715 0.0
C1394 C 0.60094 0.57704 0.12851 0.0
C1395 C 0.60641 0.59812 0.10571 0.0
C1396 C 0.59397 0.5685 0.14565 0.0
C1397 C 0.58506 0.57146 0.15806 0.0
C1398 C 0.59899 0.58866 0.12364 0.0
C1399 C 0.58326 0.58307 0.15248 0.0
C1400 C 0.6035 0.60896 0.0998 0.0
C1401 C 0.62323 0.60465 0.07808 0.0
N1402 N 0.59018 0.59124 0.13574 0.0
N1403 N 0.6162 0.59637 0.0947 0.0
H1404 H 0.4067 0.03114 0.07535 0.0
H1405 H 0.43048 0.98321 0.1399 0.0
H1406 H 0.39027 0.986 0.06486 0.0
H1407 H 0.43697 0.0237 0.16263 0.0
H1408 H 0.4182 0.98553 0.10986 0.0
H1409 H 0.42009 0.02995 0.10528 0.0
C1410 C 0.40588 0.02099 0.07933 0.0
C1411 C 0.39732 0.00865 0.06757 0.0
C1412 C 0.42231 0.99392 0.1214 0.0
C1413 C 0.41271 0.00728 0.10154 0.0
C1414 C 0.42929 0.99259 0.13864 0.0
C1415 C 0.43462 0.00318 0.15404 0.0
C1416 C 0.42069 0.006 0.11933 0.0
C1417 C 0.43311 0.01529 0.15114 0.0
C1418 C 0.41351 0.02033 0.0964 0.0
C1419 C 0.39667 0.99579 0.07346 0.0
N1420 N 0.42624 0.01636 0.13415 0.0
N1421 N 0.4043 0.99547 0.08993 0.0
H1422 H 0.38143 0.98141 0.9586 0.0
H1423 H 0.4383 0.0202 0.86774 0.0
H1424 H 0.4084 0.02738 0.95463 0.0
H1425 H 0.41816 0.97491 0.88084 0.0
H1426 H 0.42665 0.02315 0.89827 0.0
H1427 H 0.39353 0.9789 0.92838 0.0
C1428 C 0.38984 0.991 0.95132 0.0
C1429 C 0.3939 0.00464 0.95923 0.0
C1430 C 0.42483 0.01258 0.89447 0.0
C1431 C 0.40787 1.0018 0.92455 0.0
C1432 C 0.43156 0.01089 0.87711 0.0
C1433 C 0.4292 0.99727 0.87158 0.0
C1434 C 0.41557 1.00055 0.90635 0.0
C1435 C 0.42012 0.98559 0.8842 0.0
C1436 C 0.39681 0.98954 0.9341 0.0
C1437 C 0.40493 0.01665 0.94912 0.0
N1438 N 0.41361 0.98749 0.90089 0.0
N1439 N 0.41151 0.01495 0.9323 0.0
H1440 H 0.03076 0.40033 0.95471 0.0
H1441 H 0.99074 0.4285 0.88009 0.0
H1442 H 0.98646 0.38896 0.96206 0.0
H1443 H 0.0341 0.43744 0.87036 0.0
H1444 H 0.98902 0.41413 0.91031 0.0
H1445 H 0.03222 0.41406 0.92387 0.0
C1446 C 0.02131 0.40066 0.94981 0.0
C1447 C 0.00847 0.39347 0.96106 0.0
C1448 C 0.99891 0.41924 0.90157 0.0
C1449 C 0.0101 0.40928 0.92575 0.0
C1450 C 0.99989 0.42741 0.88425 0.0
C1451 C 0.0126 0.43423 0.87263 0.0
C1452 C 0.01073 0.41785 0.90738 0.0
C1453 C 0.02416 0.43259 0.87899 0.0
C1454 C 0.02216 0.40853 0.93219 0.0
C1455 C 0.99659 0.39431 0.95391 0.0
N1456 N 0.02294 0.42457 0.8959 0.0
N1457 N 0.99771 0.4021 0.93678 0.0
H1458 H 0.62268 0.6053 0.96136 0.0
H1459 H 0.57012 0.60376 0.87304 0.0
H1460 H 0.60614 0.63446 0.96062 0.0
H1461 H 0.57959 0.56976 0.88332 0.0
H1462 H 0.58399 0.61591 0.90392 0.0
H1463 H 0.60815 0.59323 0.93118 0.0
C1464 C 0.61603 0.60922 0.95482 0.0
C1465 C 0.61565 0.62094 0.96361 0.0
C1466 C 0.58297 0.60577 0.89943 0.0
C1467 C 0.59888 0.60705 0.9289 0.0
C1468 C 0.57497 0.59876 0.88186 0.0
C1469 C 0.57371 0.58571 0.87543 0.0
C1470 C 0.58984 0.59974 0.91059 0.0
C1471 C 0.58046 0.57991 0.88738 0.0
C1472 C 0.60767 0.60226 0.9376 0.0
C1473 C 0.60677 0.62547 0.9544 0.0
N1474 N 0.58827 0.58698 0.90427 0.0
N1475 N 0.59875 0.61853 0.93751 0.0
H1476 H 0.98422 0.6019 0.96764 0.0
H1477 H 0.02253 0.59264 0.86811 0.0
H1478 H 0.02913 0.63035 0.95486 0.0
H1479 H 0.98224 0.55928 0.89252 0.0
H1480 H 0.02502 0.60743 0.8983 0.0
H1481 H 0.98292 0.58728 0.93818 0.0
C1482 C 0.99382 0.60513 0.95859 0.0
C1483 C 0.00682 0.6174 0.96379 0.0
C1484 C 0.01568 0.59684 0.89703 0.0
C1485 C 0.00537 0.60058 0.92989 0.0
C1486 C 0.01428 0.58834 0.87987 0.0
C1487 C 1.00209 0.5747 0.87761 0.0
C1488 C 0.00476 0.59171 0.91196 0.0
C1489 C 0.99167 0.56982 0.89328 0.0
C1490 C 0.99308 0.5967 0.9418 0.0
C1491 C 0.01889 0.62097 0.95145 0.0
N1492 N 0.99321 0.57834 0.90966 0.0
N1493 N 0.01787 0.61262 0.93502 0.0
H1494 H 0.3831 0.4042 0.9549 0.0
H1495 H 0.45447 0.42749 0.88955 0.0
H1496 H 0.41165 0.38762 0.96581 0.0
H1497 H 0.4207 0.43495 0.86852 0.0
H1498 H 0.43984 0.41471 0.91943 0.0
H1499 H 0.39762 0.41732 0.92488 0.0
C1500 C 0.39239 0.40328 0.95098 0.0
C1501 C 0.39614 0.39476 0.96291 0.0
C1502 C 0.43564 0.41915 0.90828 0.0
C1503 C 0.41286 0.40986 0.92872 0.0
C1504 C 0.44397 0.42642 0.89113 0.0
C1505 C 0.43882 0.43228 0.87633 0.0
C1506 C 0.42206 0.41778 0.91083 0.0
C1507 C 0.42523 0.43079 0.87959 0.0
C1508 C 0.40066 0.41077 0.93384 0.0
C1509 C 0.4083 0.394 0.95707 0.0
N1510 N 0.41733 0.42369 0.89647 0.0
N1511 N 0.41624 0.40149 0.94048 0.0
H1512 H 0.60061 0.97303 0.96143 0.0
H1513 H 0.58691 0.01279 0.86704 0.0
H1514 H 0.62471 0.01876 0.95138 0.0
H1515 H 0.55949 0.96783 0.88053 0.0
H1516 H 0.60137 0.01492 0.89721 0.0
H1517 H 0.58618 0.9706 0.93088 0.0
C1518 C 0.60293 0.98255 0.95276 0.0
C1519 C 0.6139 0.99613 0.95905 0.0
C1520 C 0.59217 0.00459 0.89362 0.0
C1521 C 0.59737 0.99341 0.92408 0.0
C1522 C 0.58382 0.00338 0.87645 0.0
C1523 C 0.57187 0.99012 0.87122 0.0
C1524 C 0.58865 0.99244 0.90572 0.0
C1525 C 0.56866 0.97824 0.8838 0.0
C1526 C 0.59464 0.98115 0.93536 0.0
C1527 C 0.61637 0.00807 0.9472 0.0
N1528 N 0.57699 0.97968 0.90044 0.0
N1529 N 0.60817 0.00643 0.93034 0.0
H1530 H 0.63291 0.0313 0.06912 0.0
H1531 H 0.56806 0.99244 0.14949 0.0
H1532 H 0.60341 0.98568 0.0701 0.0
H1533 H 0.60219 0.03624 0.15654 0.0
H1534 H 0.57997 0.99031 0.11877 0.0
H1535 H 0.62095 0.03385 0.09967 0.0
C1536 C 0.62395 0.02182 0.07575 0.0
C1537 C 0.61919 0.00825 0.06701 0.0
C1538 C 0.58486 1.00039 0.12703 0.0
C1539 C 0.60539 0.01111 0.10187 0.0
C1540 C 0.57808 1.00161 0.14465 0.0
C1541 C 0.58413 0.01453 0.15576 0.0
C1542 C 0.59778 0.01219 0.12032 0.0
C1543 C 0.597 0.02612 0.14838 0.0
C1544 C 0.61713 0.02329 0.0932 0.0
C1545 C 0.60751 0.99635 0.0763 0.0
N1546 N 0.6034 0.02467 0.13116 0.0
N1547 N 0.601 0.99807 0.09315 0.0
H1548 H 0.98457 0.61569 0.08228 0.0
H1549 H 0.01381 0.57077 0.14196 0.0
H1550 H 0.02432 0.61741 0.06637 0.0
H1551 H 0.98514 0.58291 0.17037 0.0
H1552 H 0.01581 0.58543 0.11201 0.0
H1553 H 0.9826 0.60125 0.11268 0.0
C1554 C 0.99289 0.61307 0.08519 0.0
C1555 C 0.00464 0.61781 0.07177 0.0
C1556 C 0.00908 0.58486 0.12483 0.0
C1557 C 1.00234 0.60113 0.10632 0.0
C1558 C 0.00797 0.57652 0.14202 0.0
C1559 C 0.99931 0.57555 0.15889 0.0
C1560 C 1.00135 0.59216 0.1243 0.0
C1561 C 0.99175 0.58306 0.15769 0.0
C1562 C 0.99177 0.60485 0.10255 0.0
C1563 C 0.01511 0.61408 0.07633 0.0
N1564 N 0.99292 0.591 0.1407 0.0
N1565 N 0.01366 0.60588 0.09312 0.0
H1566 H 0.40129 0.37501 0.07841 0.0
H1567 H 0.43774 0.4459 0.14786 0.0
H1568 H 0.39396 0.41055 0.06953 0.0
H1569 H 0.43754 0.40699 0.16451 0.0
H1570 H 0.42302 0.43367 0.11776 0.0
H1571 H 0.41584 0.38707 0.1088 0.0
C1572 C 0.40269 0.38532 0.08287 0.0
C1573 C 0.39637 0.39176 0.07137 0.0
C1574 C 0.42621 0.42782 0.128 0.0
C1575 C 0.41314 0.40569 0.10606 0.0
C1576 C 0.43459 0.43478 0.14526 0.0
C1577 C 0.4389 0.42749 0.15886 0.0
C1578 C 0.42215 0.41345 0.12417 0.0
C1579 C 0.43468 0.41315 0.15436 0.0
C1580 C 0.411 0.3922 0.10023 0.0
C1581 C 0.39857 0.40514 0.07793 0.0
N1582 N 0.42655 0.40661 0.13744 0.0
N1583 N 0.40682 0.41168 0.09476 0.0
H1584 H 0.64705 0.71879 0.40026 0.0
H1585 H 0.69312 0.76341 0.49821 0.0
H1586 H 0.69027 0.72835 0.41306 0.0
H1587 H 0.65424 0.76259 0.47957 0.0
H1588 H 0.69058 0.74804 0.46913 0.0
H1589 H 0.64781 0.73217 0.43141 0.0
C1590 C 0.65663 0.72357 0.40969 0.0
C1591 C 0.66864 0.72251 0.40397 0.0
C1592 C 0.68259 0.75121 0.47134 0.0
C1593 C 0.66957 0.73777 0.43952 0.0
C1594 C 0.68408 0.7601 0.4879 0.0
C1595 C 0.67401 0.76454 0.4912 0.0
C1596 C 0.67088 0.7466 0.45789 0.0
C1597 C 0.66227 0.75945 0.47765 0.0
C1598 C 0.65707 0.73126 0.42739 0.0
C1599 C 0.68079 0.72896 0.41674 0.0
N1600 N 0.66105 0.75079 0.46152 0.0
N1601 N 0.68093 0.7363 0.43384 0.0
H1602 H 0.30168 0.93871 0.40694 0.0
H1603 H 0.24318 0.92089 0.4953 0.0
H1604 H 0.2752 0.95828 0.41028 0.0
H1605 H 0.26351 0.89562 0.4847 0.0
H1606 H 0.25595 0.93572 0.4656 0.0
H1607 H 0.28926 0.92418 0.43716 0.0
C1608 C 0.29332 0.94003 0.41409 0.0
C1609 C 0.28947 0.94974 0.40599 0.0
C1610 C 0.25759 0.92691 0.46973 0.0
C1611 C 0.27517 0.93306 0.44061 0.0
C1612 C 0.2502 0.91834 0.48663 0.0
C1613 C 0.25216 0.90688 0.49253 0.0
C1614 C 0.26713 0.92412 0.45864 0.0
C1615 C 0.26174 0.9044 0.48092 0.0
C1616 C 0.28619 0.93167 0.4313 0.0
C1617 C 0.27852 0.95093 0.41591 0.0
N1618 N 0.26887 0.91295 0.46457 0.0
N1619 N 0.27176 0.94269 0.43268 0.0
H1620 H 0.06533 0.35805 0.41629 0.0
H1621 H 0.0992 0.31631 0.47377 0.0
H1622 H 0.05849 0.31682 0.39659 0.0
H1623 H 0.09428 0.34953 0.50334 0.0
H1624 H 0.08653 0.31799 0.44363 0.0
H1625 H 0.07815 0.3567 0.4467 0.0
C1626 C 0.06649 0.34871 0.41836 0.0
C1627 C 0.06079 0.33752 0.40386 0.0
C1628 C 0.08824 0.32491 0.45673 0.0
C1629 C 0.07558 0.336 0.43847 0.0
C1630 C 0.09543 0.32392 0.47402 0.0
C1631 C 0.0978 0.33273 0.4913 0.0
C1632 C 0.08346 0.33487 0.45651 0.0
C1633 C 0.09292 0.34264 0.49036 0.0
C1634 C 0.07379 0.34794 0.43573 0.0
C1635 C 0.06263 0.32567 0.40737 0.0
N1636 N 0.086 0.34344 0.47328 0.0
N1637 N 0.06993 0.32526 0.42423 0.0
H1638 H 0.04737 0.32042 0.28371 0.0
H1639 H 0.1228 0.36316 0.22565 0.0
H1640 H 0.08109 0.36232 0.30236 0.0
H1641 H 0.08542 0.32771 0.19789 0.0
H1642 H 0.10827 0.36171 0.25546 0.0
H1643 H 0.06173 0.32165 0.25363 0.0
C1644 C 0.05777 0.32989 0.28147 0.0
C1645 C 0.06301 0.34129 0.2956 0.0
C1646 C 0.10325 0.35424 0.24284 0.0
C1647 C 0.07955 0.34269 0.26132 0.0
C1648 C 0.11154 0.35509 0.22573 0.0
C1649 C 0.10536 0.34558 0.20908 0.0
C1650 C 0.08868 0.34374 0.24346 0.0
C1651 C 0.09075 0.33515 0.21041 0.0
C1652 C 0.06595 0.33058 0.26429 0.0
C1653 C 0.07657 0.35329 0.29188 0.0
N1654 N 0.08292 0.33451 0.22728 0.0
N1655 N 0.08438 0.35364 0.27518 0.0
H1656 H 0.70141 0.74019 0.29688 0.0
H1657 H 0.66438 0.75869 0.20384 0.0
H1658 H 0.65561 0.71975 0.28822 0.0
H1659 H 0.70966 0.78329 0.21728 0.0
H1660 H 0.6611 0.74379 0.234 0.0
H1661 H 0.70481 0.75528 0.26676 0.0
C1662 C 0.69207 0.73882 0.28862 0.0
C1663 C 0.67819 0.72867 0.29515 0.0
C1664 C 0.67175 0.75247 0.2304 0.0
C1665 C 0.68203 0.74596 0.26064 0.0
C1666 C 0.67363 0.76108 0.21324 0.0
C1667 C 0.68733 0.77234 0.20797 0.0
C1668 C 0.68366 0.75505 0.24243 0.0
C1669 C 0.69893 0.77464 0.22054 0.0
C1670 C 0.69402 0.74748 0.27145 0.0
C1671 C 0.6665 0.72743 0.28382 0.0
N1672 N 0.69683 0.76607 0.23714 0.0
N1673 N 0.66869 0.73595 0.26715 0.0
H1674 H 0.29074 0.93323 0.30198 0.0
H1675 H 0.24872 0.92983 0.19917 0.0
H1676 H 0.27834 0.96475 0.28834 0.0
H1677 H 0.24782 0.89275 0.22633 0.0
H1678 H 0.26116 0.94372 0.22985 0.0
H1679 H 0.27716 0.9194 0.27203 0.0
C1680 C 0.28521 0.93729 0.29264 0.0
C1681 C 0.2857 0.9502 0.29771 0.0
C1682 C 0.25816 0.93252 0.22908 0.0
C1683 C 0.2701 0.93434 0.26327 0.0
C1684 C 0.25096 0.92452 0.21161 0.0
C1685 C 0.24721 0.91003 0.20998 0.0
C1686 C 0.26182 0.92607 0.24495 0.0
C1687 C 0.25072 0.90392 0.22656 0.0
C1688 C 0.27738 0.92933 0.27559 0.0
C1689 C 0.27823 0.95485 0.28504 0.0
N1690 N 0.2579 0.91199 0.24323 0.0
N1691 N 0.27079 0.94696 0.26831 0.0
H1692 H 0.65676 0.94133 0.28726 0.0
H1693 H 0.7102 0.92913 0.21531 0.0
H1694 H 0.7027 0.96381 0.29528 0.0
H1695 H 0.66497 0.91049 0.20282 0.0
H1696 H 0.70747 0.94114 0.24548 0.0
H1697 H 0.6594 0.92931 0.257 0.0
C1698 C 0.66741 0.94379 0.28264 0.0
C1699 C 0.67953 0.95361 0.29388 0.0
C1700 C 0.69814 0.93441 0.23616 0.0
C1701 C 0.68261 0.93977 0.25926 0.0
C1702 C 0.69969 0.92757 0.21886 0.0
C1703 C 0.68781 0.9188 0.20639 0.0
C1704 C 0.68459 0.93247 0.24114 0.0
C1705 C 0.67441 0.917 0.21207 0.0
C1706 C 0.66891 0.9369 0.26534 0.0
C1707 C 0.69305 0.95634 0.28711 0.0
N1708 N 0.67318 0.92379 0.22898 0.0
N1709 N 0.69422 0.94943 0.2703 0.0
H1710 H 0.07439 0.72328 0.29255 0.0
H1711 H 0.0774 0.77433 0.20052 0.0
H1712 H 0.04366 0.73758 0.28553 0.0
H1713 H 0.11138 0.76528 0.21367 0.0
H1714 H 0.06436 0.76018 0.23067 0.0
H1715 H 0.08728 0.73746 0.26237 0.0
C1716 C 0.07029 0.72934 0.28462 0.0
C1717 C 0.05791 0.72923 0.29166 0.0
C1718 C 0.07469 0.76132 0.22698 0.0
C1719 C 0.0727 0.74557 0.25703 0.0
C1720 C 0.08221 0.76951 0.20984 0.0
C1721 C 0.09556 0.77105 0.20448 0.0
C1722 C 0.08048 0.75454 0.23887 0.0
C1723 C 0.10106 0.76425 0.21697 0.0
C1724 C 0.07771 0.73749 0.26741 0.0
C1725 C 0.05316 0.73734 0.28071 0.0
N1726 N 0.09349 0.75629 0.23352 0.0
N1727 N 0.06056 0.74518 0.26396 0.0
H1728 H 0.27525 0.31235 0.2909 0.0
H1729 H 0.24868 0.35316 0.21521 0.0
H1730 H 0.28965 0.35755 0.29501 0.0
H1731 H 0.23971 0.30988 0.20471 0.0
H1732 H 0.26262 0.35449 0.24568 0.0
H1733 H 0.26116 0.31079 0.26037 0.0
C1734 C 0.27549 0.32196 0.28537 0.0
C1735 C 0.28367 0.33511 0.29557 0.0
C1736 C 0.25759 0.34469 0.23672 0.0
C1737 C 0.26747 0.33336 0.26069 0.0
C1738 C 0.24966 0.34394 0.21925 0.0
C1739 C 0.24302 0.33141 0.20726 0.0
C1740 C 0.2589 0.33281 0.24238 0.0
C1741 C 0.24446 0.31971 0.21358 0.0
C1742 C 0.26744 0.32105 0.26793 0.0
C1743 C 0.28355 0.34719 0.28766 0.0
N1744 N 0.25225 0.32071 0.23067 0.0
N1745 N 0.27555 0.34601 0.27077 0.0
H1746 H 0.27019 0.3188 0.40457 0.0
H1747 H 0.26746 0.36839 0.49434 0.0
H1748 H 0.30018 0.36421 0.40881 0.0
H1749 H 0.23363 0.32499 0.48297 0.0
H1750 H 0.28015 0.36692 0.464 0.0
H1751 H 0.2575 0.3206 0.4346 0.0
C1752 C 0.27416 0.32915 0.41185 0.0
C1753 C 0.28629 0.34138 0.40409 0.0
C1754 C 0.26993 0.35774 0.46812 0.0
C1755 C 0.27172 0.34351 0.43856 0.0
C1756 C 0.2626 0.35859 0.48537 0.0
C1757 C 0.24941 0.34679 0.49131 0.0
C1758 C 0.26409 0.34496 0.45671 0.0
C1759 C 0.24384 0.3343 0.47924 0.0
C1760 C 0.26686 0.33018 0.42898 0.0
C1761 C 0.29088 0.3545 0.41421 0.0
N1762 N 0.25122 0.33371 0.46259 0.0
N1763 N 0.2836 0.35522 0.43092 0.0
H1764 H 0.6477 0.94383 0.40953 0.0
H1765 H 0.67684 0.90035 0.47298 0.0
H1766 H 0.68941 0.94859 0.39871 0.0
H1767 H 0.64744 0.91221 0.49965 0.0
H1768 H 0.67911 0.91483 0.44268 0.0
H1769 H 0.64492 0.92895 0.43984 0.0
C1770 C 0.65625 0.94174 0.41351 0.0
C1771 C 0.66883 0.94751 0.40162 0.0
C1772 C 0.67215 0.91421 0.4552 0.0
C1773 C 0.66561 0.93036 0.43597 0.0
C1774 C 0.67088 0.906 0.4726 0.0
C1775 C 0.66197 0.90503 0.48913 0.0
C1776 C 0.66429 0.92136 0.45406 0.0
C1777 C 0.65426 0.91236 0.48728 0.0
C1778 C 0.65467 0.93329 0.43081 0.0
C1779 C 0.67958 0.94446 0.4075 0.0
N1780 N 0.65557 0.92016 0.47007 0.0
N1781 N 0.67768 0.93602 0.42416 0.0
H1782 H 0.06429 0.71197 0.41128 0.0
H1783 H 0.10371 0.78746 0.46867 0.0
H1784 H 0.05899 0.74767 0.39359 0.0
H1785 H 0.09305 0.74794 0.50004 0.0
H1786 H 0.09059 0.77362 0.43843 0.0
H1787 H 0.07808 0.72564 0.44155 0.0
C1788 C 0.06603 0.72266 0.41375 0.0
C1789 C 0.06044 0.72867 0.39993 0.0
C1790 C 0.09117 0.76801 0.45195 0.0
C1791 C 0.07634 0.74438 0.43423 0.0
C1792 C 0.0986 0.7759 0.46931 0.0
C1793 C 0.09944 0.76892 0.48716 0.0
C1794 C 0.08467 0.75303 0.45222 0.0
C1795 C 0.0929 0.75387 0.48665 0.0
C1796 C 0.07386 0.73043 0.43102 0.0
C1797 C 0.06301 0.74257 0.40389 0.0
N1798 N 0.08581 0.74644 0.46948 0.0
N1799 N 0.07084 0.74998 0.42059 0.0
H1800 H 0.35333 0.06248 0.74945 0.0
H1801 H 0.30974 0.09263 0.81008 0.0
H1802 H 0.31089 0.05257 0.73077 0.0
H1803 H 0.34331 0.08753 0.83812 0.0
H1804 H 0.31079 0.0797 0.77964 0.0
H1805 H 0.35084 0.07368 0.78074 0.0
C1806 C 0.34347 0.06263 0.75195 0.0
C1807 C 0.3323 0.05658 0.73745 0.0
C1808 C 0.31788 0.08141 0.79253 0.0
C1809 C 0.32945 0.06954 0.7732 0.0
C1810 C 0.31727 0.08875 0.80996 0.0
C1811 C 0.32654 0.09135 0.82673 0.0
C1812 C 0.32794 0.07676 0.79175 0.0
C1813 C 0.33619 0.08617 0.82545 0.0
C1814 C 0.34204 0.06899 0.76986 0.0
C1815 C 0.31974 0.05705 0.74158 0.0
N1816 N 0.33669 0.07923 0.80825 0.0
N1817 N 0.31869 0.06354 0.759 0.0
H1818 H 0.964 0.27818 0.74838 0.0
H1819 H 0.89055 0.25223 0.80987 0.0
H1820 H 0.93294 0.29077 0.73246 0.0
H1821 H 0.9248 0.24621 0.83287 0.0
H1822 H 0.90544 0.26513 0.78025 0.0
H1823 H 0.94936 0.26527 0.77839 0.0
C1824 C 0.95415 0.27828 0.75121 0.0
C1825 C 0.94972 0.28559 0.73784 0.0
C1826 C 0.9097 0.26098 0.79177 0.0
C1827 C 0.93285 0.27073 0.77206 0.0
C1828 C 0.90121 0.25364 0.80876 0.0
C1829 C 0.90641 0.24813 0.82401 0.0
C1830 C 0.92351 0.26281 0.78986 0.0
C1831 C 0.92024 0.25009 0.82142 0.0
C1832 C 0.94579 0.2709 0.76834 0.0
C1833 C 0.93682 0.28532 0.74231 0.0
N1834 N 0.9283 0.25726 0.8047 0.0
N1835 N 0.92884 0.27798 0.75896 0.0
H1836 H 0.73507 0.6968 0.74548 0.0
H1837 H 0.77693 0.66711 0.81169 0.0
H1838 H 0.72975 0.6548 0.73553 0.0
H1839 H 0.76599 0.69776 0.83608 0.0
H1840 H 0.76242 0.66436 0.78118 0.0
H1841 H 0.74938 0.69939 0.77633 0.0
C1842 C 0.73691 0.68813 0.74978 0.0
C1843 C 0.73117 0.67554 0.73795 0.0
C1844 C 0.76324 0.67169 0.79326 0.0
C1845 C 0.74767 0.67853 0.77298 0.0
C1846 C 0.77147 0.67323 0.81077 0.0
C1847 C 0.77278 0.68271 0.82665 0.0
C1848 C 0.75642 0.67983 0.79139 0.0
C1849 C 0.76563 0.69055 0.82417 0.0
C1850 C 0.74503 0.6896 0.76739 0.0
C1851 C 0.73388 0.66465 0.74426 0.0
N1852 N 0.75783 0.68898 0.80688 0.0
N1853 N 0.74202 0.66643 0.76126 0.0
H1854 H 0.71605 0.6427 0.63078 0.0
H1855 H 0.76969 0.68239 0.53659 0.0
H1856 H 0.73917 0.68866 0.62305 0.0
H1857 H 0.75153 0.63736 0.55018 0.0
H1858 H 0.75817 0.68491 0.56757 0.0
H1859 H 0.72813 0.64048 0.60027 0.0
C1860 C 0.72363 0.65233 0.62264 0.0
C1861 C 0.72659 0.6659 0.62955 0.0
C1862 C 0.75674 0.67449 0.5638 0.0
C1863 C 0.74051 0.66341 0.59454 0.0
C1864 C 0.76341 0.67305 0.54617 0.0
C1865 C 0.76157 0.65962 0.54066 0.0
C1866 C 0.74811 0.66241 0.57601 0.0
C1867 C 0.75308 0.64788 0.55356 0.0
C1868 C 0.73056 0.65105 0.60524 0.0
C1869 C 0.73655 0.67799 0.61834 0.0
N1870 N 0.74665 0.64954 0.57055 0.0
N1871 N 0.74313 0.67646 0.6014 0.0
H1872 H 0.36769 0.07739 0.63132 0.0
H1873 H 0.32896 0.09133 0.53575 0.0
H1874 H 0.32198 0.05382 0.62093 0.0
H1875 H 0.37411 0.11777 0.54894 0.0
H1876 H 0.32633 0.07731 0.56671 0.0
H1877 H 0.37045 0.09188 0.60069 0.0
C1878 C 0.35824 0.07522 0.62259 0.0
C1879 C 0.34458 0.06435 0.62876 0.0
C1880 C 0.33681 0.0862 0.56288 0.0
C1881 C 0.34767 0.08094 0.59369 0.0
C1882 C 0.33831 0.09431 0.54526 0.0
C1883 C 0.35178 0.1058 0.53967 0.0
C1884 C 0.34887 0.08954 0.57507 0.0
C1885 C 0.36354 0.10891 0.55244 0.0
C1886 C 0.35982 0.08353 0.60513 0.0
C1887 C 0.33272 0.06208 0.61683 0.0
N1888 N 0.36182 0.10082 0.56949 0.0
N1889 N 0.33455 0.07028 0.59991 0.0
H1890 H 0.95773 0.2669 0.63494 0.0
H1891 H 0.91327 0.25971 0.53236 0.0
H1892 H 0.94401 0.29711 0.61903 0.0
H1893 H 0.92022 0.22623 0.55612 0.0
H1894 H 0.92514 0.27412 0.563 0.0
H1895 H 0.94517 0.25268 0.60476 0.0
C1896 C 0.95211 0.2706 0.62506 0.0
C1897 C 0.95194 0.28325 0.62959 0.0
C1898 C 0.92401 0.2636 0.5615 0.0
C1899 C 0.93743 0.2669 0.59486 0.0
C1900 C 0.91715 0.25532 0.54407 0.0
C1901 C 0.9158 0.24174 0.54153 0.0
C1902 C 0.92962 0.2583 0.57646 0.0
C1903 C 0.92124 0.23673 0.55714 0.0
C1904 C 0.94488 0.26241 0.60784 0.0
C1905 C 0.94443 0.28743 0.61617 0.0
N1906 N 0.92794 0.24502 0.57383 0.0
N1907 N 0.93749 0.27928 0.59939 0.0
H1908 H 0.32196 0.26767 0.62682 0.0
H1909 H 0.37091 0.27033 0.53222 0.0
H1910 H 0.36567 0.30172 0.61844 0.0
H1911 H 0.33173 0.23219 0.54991 0.0
H1912 H 0.36854 0.28267 0.56225 0.0
H1913 H 0.32452 0.25542 0.59679 0.0
C1914 C 0.33208 0.27263 0.61861 0.0
C1915 C 0.34363 0.28576 0.62522 0.0
C1916 C 0.36049 0.27159 0.55958 0.0
C1917 C 0.34662 0.27172 0.59078 0.0
C1918 C 0.36188 0.26446 0.5425 0.0
C1919 C 0.35152 0.25013 0.53844 0.0
C1920 C 0.34859 0.2644 0.57269 0.0
C1921 C 0.33989 0.24328 0.55216 0.0
C1922 C 0.33355 0.26557 0.60151 0.0
C1923 C 0.35649 0.29161 0.61396 0.0
N1924 N 0.33872 0.25048 0.56859 0.0
N1925 N 0.35763 0.28457 0.59728 0.0
H1926 H 0.74073 0.05374 0.62693 0.0
H1927 H 0.74514 0.10725 0.53781 0.0
H1928 H 0.71167 0.07031 0.6229 0.0
H1929 H 0.77814 0.09646 0.54888 0.0
H1930 H 0.7321 0.09296 0.56785 0.0
H1931 H 0.75364 0.06812 0.59693 0.0
C1932 C 0.737 0.06035 0.6197 0.0
C1933 C 0.72508 0.06081 0.62752 0.0
C1934 C 0.74221 0.09375 0.56374 0.0
C1935 C 0.73991 0.07738 0.59308 0.0
C1936 C 0.74974 0.10201 0.54665 0.0
C1937 C 0.76282 0.10312 0.54074 0.0
C1938 C 0.74772 0.08644 0.575 0.0
C1939 C 0.76803 0.09579 0.55261 0.0
C1940 C 0.74444 0.06861 0.60258 0.0
C1941 C 0.72081 0.06962 0.61746 0.0
N1942 N 0.76046 0.08775 0.56911 0.0
N1943 N 0.72821 0.07755 0.60076 0.0
H1944 H 0.93532 0.64281 0.63065 0.0
H1945 H 0.92127 0.68164 0.53544 0.0
H1946 H 0.95849 0.68862 0.62124 0.0
H1947 H 0.89436 0.63669 0.54947 0.0
H1948 H 0.93557 0.68425 0.56607 0.0
H1949 H 0.92102 0.64016 0.59994 0.0
C1950 C 0.93745 0.65231 0.6221 0.0
C1951 C 0.94813 0.66597 0.6286 0.0
C1952 C 0.92652 0.67382 0.56248 0.0
C1953 C 0.93174 0.663 0.59338 0.0
C1954 C 0.91826 0.67233 0.54505 0.0
C1955 C 0.90652 0.65892 0.53983 0.0
C1956 C 0.9231 0.66181 0.57482 0.0
C1957 C 0.90339 0.6472 0.55269 0.0
C1958 C 0.92924 0.65079 0.60458 0.0
C1959 C 0.95036 0.67788 0.61687 0.0
N1960 N 0.91163 0.64892 0.56955 0.0
N1961 N 0.94225 0.67612 0.59986 0.0
H1962 H 0.94138 0.65374 0.74516 0.0
H1963 H 0.92858 0.70753 0.81529 0.0
H1964 H 0.96278 0.69942 0.73479 0.0
H1965 H 0.91266 0.66311 0.83083 0.0
H1966 H 0.94028 0.70459 0.78485 0.0
H1967 H 0.9299 0.65679 0.77573 0.0
C1968 C 0.9437 0.66442 0.74932 0.0
C1969 C 0.95308 0.67634 0.73734 0.0
C1970 C 0.93422 0.69548 0.79492 0.0
C1971 C 0.93986 0.6799 0.77235 0.0
C1972 C 0.92756 0.69716 0.81237 0.0
C1973 C 0.91959 0.68555 0.82573 0.0
C1974 C 0.93288 0.68209 0.79069 0.0
C1975 C 0.91848 0.67232 0.82087 0.0
C1976 C 0.93713 0.66616 0.7668 0.0
C1977 C 0.95566 0.68992 0.74355 0.0
N1978 N 0.92504 0.67096 0.80379 0.0
N1979 N 0.94906 0.69132 0.76057 0.0
H1980 H 0.31705 0.27596 0.74277 0.0
H1981 H 0.35906 0.24422 0.80469 0.0
H1982 H 0.36053 0.28674 0.72899 0.0
H1983 H 0.32376 0.24691 0.83155 0.0
H1984 H 0.35779 0.25692 0.77432 0.0
H1985 H 0.31745 0.26247 0.7731 0.0
C1986 C 0.32667 0.2755 0.74611 0.0
C1987 C 0.33879 0.28254 0.73335 0.0
C1988 C 0.35032 0.25471 0.78687 0.0
C1989 C 0.33923 0.267 0.76776 0.0
C1990 C 0.35106 0.2475 0.8043 0.0
C1991 C 0.34159 0.24455 0.82092 0.0
C1992 C 0.33992 0.2589 0.78583 0.0
C1993 C 0.3312 0.24877 0.8191 0.0
C1994 C 0.32689 0.26783 0.76342 0.0
C1995 C 0.35096 0.28157 0.73843 0.0
N1996 N 0.33065 0.25573 0.80189 0.0
N1997 N 0.35083 0.2739 0.75514 0.0
H1998 H 0.72192 0.07392 0.73653 0.0
H1999 H 0.77407 0.07567 0.82589 0.0
H2000 H 0.73676 0.04345 0.7403 0.0
H2001 H 0.7646 0.10963 0.81517 0.0
H2002 H 0.75989 0.0632 0.79543 0.0
H2003 H 0.7365 0.08634 0.76658 0.0
C2004 C 0.72819 0.06978 0.74372 0.0
C2005 C 0.7281 0.0576 0.73582 0.0
C2006 C 0.76096 0.07341 0.79973 0.0
C2007 C 0.74491 0.07187 0.77032 0.0
C2008 C 0.76915 0.0806 0.81704 0.0
C2009 C 0.77054 0.09374 0.8232 0.0
C2010 C 0.75403 0.07934 0.78849 0.0
C2011 C 0.76367 0.09943 0.81127 0.0
C2012 C 0.73657 0.07693 0.76086 0.0
C2013 C 0.7365 0.0528 0.74582 0.0
N2014 N 0.75569 0.09219 0.79457 0.0
N2015 N 0.74456 0.05994 0.76255 0.0
H2016 H 0.02949 0.34404 0.03999 0.0
H2017 H 0.11233 0.36719 0.05194 0.0
H2018 H 0.06459 0.38307 0.01536 0.0
H2019 H 0.07861 0.33392 0.08854 0.0
H2020 H 0.09433 0.37002 0.03292 0.0
H2021 H 0.04675 0.33717 0.05237 0.0
C2022 C 0.04079 0.35105 0.0369 0.0
C2023 C 0.04562 0.36421 0.02681 0.0
C2024 C 0.09085 0.36199 0.04497 0.0
C2025 C 0.06538 0.35644 0.04089 0.0
C2026 C 0.10113 0.36039 0.05589 0.0
C2027 C 0.09703 0.35045 0.0721 0.0
C2028 C 0.0763 0.35359 0.05025 0.0
C2029 C 0.0823 0.3417 0.07615 0.0
C2030 C 0.05063 0.34716 0.04405 0.0
C2031 C 0.06039 0.3729 0.02326 0.0
N2032 N 0.07249 0.34358 0.06545 0.0
N2033 N 0.06973 0.36889 0.03038 0.0
H2034 H 0.66937 0.69065 0.03418 0.0
H2035 H 0.65085 0.75095 0.06926 0.0
H2036 H 0.62685 0.68513 0.03223 0.0
H2037 H 0.69217 0.75439 0.07822 0.0
H2038 H 0.64255 0.72796 0.05194 0.0
H2039 H 0.67861 0.71523 0.0464 0.0
C2040 C 0.662 0.69464 0.03613 0.0
C2041 C 0.6473 0.68577 0.0323 0.0
C2042 C 0.65347 0.73381 0.05756 0.0
C2043 C 0.65779 0.71388 0.04636 0.0
C2044 C 0.6582 0.74692 0.06753 0.0
C2045 C 0.67223 0.75465 0.07534 0.0
C2046 C 0.6628 0.72832 0.05537 0.0
C2047 C 0.68133 0.74896 0.07228 0.0
C2048 C 0.66727 0.70866 0.04317 0.0
C2049 C 0.63825 0.69153 0.03511 0.0
N2050 N 0.67644 0.73613 0.06267 0.0
N2051 N 0.64362 0.70518 0.04205 0.0
H2052 H 0.32354 0.98485 0.03773 0.0
H2053 H 0.26457 0.90211 0.05348 0.0
H2054 H 0.32838 0.94953 0.01661 0.0
H2055 H 0.26453 0.93644 0.08779 0.0
H2056 H 0.28552 0.91979 0.03431 0.0
H2057 H 0.29952 0.96764 0.0506 0.0
C2058 C 0.31947 0.9735 0.03552 0.0
C2059 C 0.32802 0.96861 0.02625 0.0
C2060 C 0.28084 0.92347 0.0459 0.0
C2061 C 0.30061 0.94891 0.04088 0.0
C2062 C 0.26889 0.91337 0.05691 0.0
C2063 C 0.26286 0.91774 0.07253 0.0
C2064 C 0.28685 0.9381 0.05044 0.0
C2065 C 0.26876 0.93253 0.07588 0.0
C2066 C 0.3058 0.96369 0.04295 0.0
C2067 C 0.32222 0.95378 0.02383 0.0
N2068 N 0.2805 0.94217 0.06507 0.0
N2069 N 0.30893 0.94448 0.03118 0.0
H2070 H 0.38742 0.06673 0.00814 0.0
H2071 H 0.32437 0.0689 0.94763 0.0
H2072 H 0.34657 0.02901 0.99598 0.0
H2073 H 0.36018 0.10677 0.97379 0.0
H2074 H 0.33225 0.05421 0.96553 0.0
H2075 H 0.37772 0.08165 0.99593 0.0
C2076 C 0.37636 0.06158 0.00308 0.0
C2077 C 0.36782 0.04658 0.00297 0.0
C2078 C 0.33831 0.06573 0.96752 0.0
C2079 C 0.35669 0.06361 0.98875 0.0
C2080 C 0.33376 0.07417 0.9574 0.0
C2081 C 0.34158 0.0892 0.95913 0.0
C2082 C 0.35092 0.07227 0.97932 0.0
C2083 C 0.3539 0.09529 0.97165 0.0
C2084 C 0.37083 0.07012 0.99613 0.0
C2085 C 0.35355 0.04052 0.99631 0.0
N2086 N 0.35824 0.08683 0.98111 0.0
N2087 N 0.34849 0.04905 0.98926 0.0
H2088 H 0.97792 0.31951 0.0041 0.0
H2089 H 0.89973 0.27399 0.95683 0.0
H2090 H 0.9456 0.33194 0.00768 0.0
H2091 H 0.92664 0.25545 0.96764 0.0
H2092 H 0.91657 0.2951 0.97589 0.0
H2093 H 0.95966 0.2959 0.99125 0.0
C2094 C 0.96698 0.31723 0.00244 0.0
C2095 C 0.96333 0.32778 0.00683 0.0
C2096 C 0.91875 0.28637 0.97431 0.0
C2097 C 0.94246 0.3009 0.99195 0.0
C2098 C 0.90902 0.27416 0.96352 0.0
C2099 C 0.91161 0.26272 0.96057 0.0
C2100 C 0.93141 0.28742 0.98204 0.0
C2101 C 0.92422 0.26401 0.96917 0.0
C2102 C 0.95656 0.30376 0.9951 0.0
C2103 C 0.94897 0.32421 0.00439 0.0
N2104 N 0.9337 0.27617 0.97934 0.0
N2105 N 0.93913 0.31117 0.99694 0.0
H2106 H 0.68014 0.623 0.99114 0.0
H2107 H 0.76164 0.68495 0.98053 0.0
H2108 H 0.69396 0.66636 0.01034 0.0
H2109 H 0.74107 0.64912 0.93842 0.0
H2110 H 0.73842 0.67688 0.9972 0.0
H2111 H 0.70418 0.63093 0.97794 0.0
C2112 C 0.68827 0.63418 0.99279 0.0
C2113 C 0.68499 0.64405 0.00177 0.0
C2114 C 0.73911 0.67079 0.98438 0.0
C2115 C 0.71261 0.65316 0.98673 0.0
C2116 C 0.75234 0.67541 0.97473 0.0
C2117 C 0.75349 0.66776 0.95789 0.0
C2118 C 0.72695 0.6583 0.97743 0.0
C2119 C 0.74098 0.65528 0.95154 0.0
C2120 C 0.70197 0.63869 0.98515 0.0
C2121 C 0.696 0.6584 0.00342 0.0
N2122 N 0.72831 0.65095 0.96132 0.0
N2123 N 0.70935 0.66254 0.99597 0.0
H2124 H 0.9494 0.62873 0.00929 0.0
H2125 H 0.9449 0.69271 0.95405 0.0
H2126 H 0.98624 0.67045 0.99822 0.0
H2127 H 0.90785 0.65166 0.96794 0.0
H2128 H 0.95996 0.68534 0.97226 0.0
H2129 H 0.9339 0.63746 0.9963 0.0
C2130 C 0.95424 0.63978 0.00429 0.0
C2131 C 0.96918 0.64884 0.00475 0.0
C2132 C 0.94852 0.67797 0.97147 0.0
C2133 C 0.95142 0.6589 0.98965 0.0
C2134 C 0.93986 0.68221 0.96119 0.0
C2135 C 0.92502 0.6728 0.95939 0.0
C2136 C 0.94237 0.66417 0.98001 0.0
C2137 C 0.91924 0.65922 0.96864 0.0
C2138 C 0.94536 0.64475 0.99684 0.0
C2139 C 0.97479 0.66307 0.99812 0.0
N2140 N 0.92792 0.6553 0.97844 0.0
N2141 N 0.96593 0.66762 0.9907 0.0
H2142 H 0.3446 0.32192 0.99293 0.0
H2143 H 0.36583 0.26101 0.97853 0.0
H2144 H 0.38382 0.32512 0.01531 0.0
H2145 H 0.33231 0.26217 0.94358 0.0
H2146 H 0.36949 0.28206 0.99777 0.0
H2147 H 0.33702 0.29766 0.98037 0.0
C2148 C 0.35151 0.31745 0.99548 0.0
C2149 C 0.36493 0.3256 0.00499 0.0
C2150 C 0.36124 0.27763 0.98603 0.0
C2151 C 0.35633 0.29792 0.99073 0.0
C2152 C 0.35916 0.26562 0.97499 0.0
C2153 C 0.34889 0.25991 0.95916 0.0
C2154 C 0.35299 0.28403 0.98127 0.0
C2155 C 0.34033 0.26615 0.95565 0.0
C2156 C 0.34721 0.30363 0.98824 0.0
C2157 C 0.37346 0.31928 0.00787 0.0
N2158 N 0.34267 0.27797 0.96646 0.0
N2159 N 0.36905 0.30587 0.00068 0.0
H2160 H 0.69173 0.02892 0.00397 0.0
H2161 H 0.74165 0.10116 0.9428 0.0
H2162 H 0.67954 0.06057 0.99018 0.0
H2163 H 0.7584 0.07651 0.97196 0.0
H2164 H 0.71878 0.08616 0.9598 0.0
H2165 H 0.71609 0.04572 0.99187 0.0
C2166 C 0.69419 0.03942 0.99855 0.0
C2167 C 0.68354 0.04331 0.99801 0.0
C2168 C 0.7275 0.0841 0.96264 0.0
C2169 C 0.71131 0.0625 0.984 0.0
C2170 C 0.74067 0.09277 0.95303 0.0
C2171 C 0.75211 0.09017 0.95584 0.0
C2172 C 0.72557 0.07255 0.97498 0.0
C2173 C 0.74988 0.07881 0.96896 0.0
C2174 C 0.70809 0.04901 0.99169 0.0
C2175 C 0.68736 0.05707 0.99085 0.0
N2176 N 0.73685 0.07035 0.97788 0.0
N2177 N 0.70086 0.06609 0.98398 0.0
H2178 H 0.66534 0.97587 0.02017 0.0
H2179 H 0.65108 0.91406 0.09859 0.0
H2180 H 0.62314 0.94664 0.04393 0.0
H2181 H 0.68394 0.92719 0.05177 0.0
H2182 H 0.64192 0.92775 0.08104 0.0
H2183 H 0.67382 0.96014 0.03394 0.0
C2184 C 0.65785 0.96613 0.02815 0.0
C2185 C 0.64352 0.96257 0.03093 0.0
C2186 C 0.65107 0.92753 0.07455 0.0
C2187 C 0.65318 0.94475 0.04694 0.0
C2188 C 0.65629 0.91958 0.08447 0.0
C2189 C 0.66835 0.91929 0.07672 0.0
C2190 C 0.65809 0.93558 0.05695 0.0
C2191 C 0.6748 0.92721 0.05864 0.0
C2192 C 0.66268 0.95715 0.03593 0.0
C2193 C 0.63427 0.9498 0.04138 0.0
N2194 N 0.66968 0.93514 0.0495 0.0
N2195 N 0.63929 0.94145 0.04921 0.0
H2196 H 0.06673 0.68105 0.03374 0.0
H2197 H 0.08049 0.76004 0.05496 0.0
H2198 H 0.03418 0.69267 0.02432 0.0
H2199 H 0.10471 0.74271 0.08389 0.0
H2200 H 0.06567 0.737 0.03783 0.0
H2201 H 0.08308 0.70532 0.04594 0.0
C2202 C 0.06305 0.68874 0.03402 0.0
C2203 C 0.04901 0.68477 0.02811 0.0
C2204 C 0.07431 0.73833 0.04783 0.0
C2205 C 0.06775 0.71264 0.04208 0.0
C2206 C 0.08276 0.75147 0.05772 0.0
C2207 C 0.09388 0.75341 0.07114 0.0
C2208 C 0.07706 0.72706 0.05111 0.0
C2209 C 0.09646 0.74192 0.07355 0.0
C2210 C 0.07239 0.70259 0.04108 0.0
C2211 C 0.04488 0.69524 0.02883 0.0
N2212 N 0.08811 0.72927 0.06371 0.0
N2213 N 0.0542 0.70869 0.03574 0.0
H2214 H 0.33288 0.39097 0.03351 0.0
H2215 H 0.25432 0.3255 0.05686 0.0
H2216 H 0.32148 0.3468 0.02477 0.0
H2217 H 0.27157 0.36743 0.08448 0.0
H2218 H 0.27722 0.33369 0.03927 0.0
H2219 H 0.30866 0.38298 0.04604 0.0
C2220 C 0.32524 0.37958 0.03401 0.0
C2221 C 0.32927 0.36953 0.0282 0.0
C2222 C 0.2759 0.34109 0.04908 0.0
C2223 C 0.30146 0.36033 0.04257 0.0
C2224 C 0.26284 0.33643 0.05923 0.0
C2225 C 0.26092 0.34572 0.07242 0.0
C2226 C 0.28711 0.35521 0.05187 0.0
C2227 C 0.27234 0.35987 0.07434 0.0
C2228 C 0.31142 0.37504 0.04125 0.0
C2229 C 0.31887 0.35492 0.02919 0.0
N2230 N 0.28491 0.36415 0.06426 0.0
N2231 N 0.30545 0.35075 0.03631 0.0
H2232 H 0.72891 0.71949 0.37474 0.0
H2233 H 0.75011 0.65881 0.38425 0.0
H2234 H 0.7002 0.67632 0.35394 0.0
H2235 H 0.76233 0.69264 0.42922 0.0
H2236 H 0.73518 0.6669 0.367 0.0
H2237 H 0.74508 0.71171 0.38816 0.0
C2238 C 0.72607 0.7084 0.37275 0.0
C2239 C 0.71312 0.69851 0.36329 0.0
C2240 C 0.74125 0.67255 0.38058 0.0
C2241 C 0.73169 0.6896 0.37858 0.0
C2242 C 0.74974 0.66792 0.39056 0.0
C2243 C 0.75759 0.67498 0.4084 0.0
C2244 C 0.74082 0.68451 0.38818 0.0
C2245 C 0.75683 0.68696 0.41536 0.0
C2246 C 0.73529 0.70397 0.38053 0.0
C2247 C 0.71003 0.68427 0.36123 0.0
N2248 N 0.74866 0.69134 0.40522 0.0
N2249 N 0.71927 0.68021 0.36882 0.0
H2250 H 0.293 0.0163 0.36076 0.0
H2251 H 0.35841 0.08721 0.40883 0.0
H2252 H 0.33591 0.02315 0.36631 0.0
H2253 H 0.31613 0.08147 0.39994 0.0
H2254 H 0.35079 0.06457 0.39114 0.0
H2255 H 0.30163 0.04071 0.37296 0.0
C2256 C 0.30428 0.02298 0.36436 0.0
C2257 C 0.31373 0.01762 0.3626 0.0
C2258 C 0.3432 0.0683 0.3929 0.0
C2259 C 0.32367 0.04563 0.37678 0.0
C2260 C 0.34758 0.08133 0.40289 0.0
C2261 C 0.33791 0.08633 0.40597 0.0
C2262 C 0.329 0.06009 0.38596 0.0
C2263 C 0.32392 0.07799 0.39824 0.0
C2264 C 0.30919 0.03694 0.37136 0.0
C2265 C 0.32822 0.02681 0.36746 0.0
N2266 N 0.31988 0.06527 0.38871 0.0
N2267 N 0.33272 0.04031 0.37447 0.0
H2268 H 0.99044 0.31565 0.37205 0.0
H2269 H 0.9303 0.23293 0.38345 0.0
H2270 H 0.99428 0.28076 0.34641 0.0
H2271 H 0.93284 0.26639 0.42301 0.0
H2272 H 0.95105 0.25095 0.36423 0.0
H2273 H 0.96656 0.29827 0.38507 0.0
C2274 C 0.98617 0.30437 0.36886 0.0
C2275 C 0.99442 0.29964 0.35829 0.0
C2276 C 0.94696 0.25434 0.377 0.0
C2277 C 0.96715 0.27974 0.37314 0.0
C2278 C 0.93513 0.24405 0.38806 0.0
C2279 C 0.92985 0.24805 0.40512 0.0
C2280 C 0.95355 0.2688 0.38291 0.0
C2281 C 0.9364 0.26273 0.40993 0.0
C2282 C 0.97258 0.29446 0.37639 0.0
C2283 C 0.98836 0.28488 0.35465 0.0
N2284 N 0.94795 0.27254 0.399 0.0
N2285 N 0.97514 0.27546 0.36215 0.0
H2286 H 0.05307 0.39818 0.35333 0.0
H2287 H 0.00501 0.4117 0.27412 0.0
H2288 H 0.01487 0.3637 0.32587 0.0
H2289 H 0.03566 0.44467 0.31457 0.0
H2290 H 0.0077 0.39387 0.29373 0.0
H2291 H 0.04638 0.41526 0.34016 0.0
C2292 C 0.04317 0.39418 0.34473 0.0
C2293 C 0.03456 0.37949 0.34058 0.0
C2294 C 0.01371 0.40499 0.29847 0.0
C2295 C 0.02693 0.39905 0.32517 0.0
C2296 C 0.01211 0.41521 0.28734 0.0
C2297 C 0.02021 0.42983 0.29251 0.0
C2298 C 0.0236 0.40935 0.31477 0.0
C2299 C 0.02942 0.43362 0.30965 0.0
C2300 C 0.03935 0.40395 0.33723 0.0
C2301 C 0.02183 0.37493 0.32942 0.0
N2302 N 0.03099 0.4235 0.31998 0.0
N2303 N 0.0185 0.38469 0.32185 0.0
H2304 H 0.61258 0.66028 0.3347 0.0
H2305 H 0.60802 0.58927 0.28895 0.0
H2306 H 0.64871 0.65337 0.33204 0.0
H2307 H 0.57123 0.59477 0.29643 0.0
H2308 H 0.62275 0.61199 0.30665 0.0
H2309 H 0.59706 0.63582 0.32253 0.0
C2310 C 0.61725 0.65358 0.33171 0.0
C2311 C 0.63201 0.65893 0.33429 0.0
C2312 C 0.61143 0.60818 0.30458 0.0
C2313 C 0.61425 0.63086 0.32017 0.0
C2314 C 0.60295 0.59512 0.29459 0.0
C2315 C 0.5883 0.59003 0.29109 0.0
C2316 C 0.60529 0.61635 0.31108 0.0
C2317 C 0.58249 0.59832 0.29845 0.0
C2318 C 0.60836 0.63959 0.32475 0.0
C2319 C 0.63741 0.64972 0.33023 0.0
N2320 N 0.591 0.61108 0.30796 0.0
N2321 N 0.62855 0.63618 0.32322 0.0
H2322 H 0.35867 1.00017 0.32569 0.0
H2323 H 0.42026 0.97973 0.31286 0.0
H2324 H 0.35557 0.96125 0.34923 0.0
H2325 H 0.41658 0.01009 0.27346 0.0
H2326 H 0.39932 0.97636 0.33221 0.0
H2327 H 0.38271 0.0074 0.31248 0.0
C2328 C 0.36313 0.99326 0.32837 0.0
C2329 C 0.35507 0.98003 0.3384 0.0
C2330 C 0.4032 0.98386 0.31945 0.0
C2331 C 0.3825 0.98823 0.32341 0.0
C2332 C 0.41514 0.98577 0.30832 0.0
C2333 C 0.42014 0.99506 0.29124 0.0
C2334 C 0.39623 0.99137 0.31362 0.0
C2335 C 0.41323 0.00286 0.28653 0.0
C2336 C 0.37681 0.99736 0.32074 0.0
C2337 C 0.36136 0.97148 0.3414 0.0
N2338 N 0.40157 1.00076 0.29754 0.0
N2339 N 0.37466 0.9757 0.33387 0.0
H2340 H 0.65114 1.0018 0.33684 0.0
H2341 H 0.57777 0.98118 0.27994 0.0
H2342 H 0.61691 0.9583 0.32774 0.0
H2343 H 0.60635 0.02392 0.30261 0.0
H2344 H 0.59218 0.97282 0.2974 0.0
H2345 H 0.63529 0.01041 0.32427 0.0
C2346 C 0.64028 0.99406 0.33237 0.0
C2347 C 0.63538 0.9793 0.33326 0.0
C2348 C 0.59525 0.98401 0.29872 0.0
C2349 C 0.61727 0.98907 0.31871 0.0
C2350 C 0.58693 0.98881 0.28886 0.0
C2351 C 0.59076 0.00333 0.28974 0.0
C2352 C 0.60768 0.99378 0.3094 0.0
C2353 C 0.60305 0.01269 0.30116 0.0
C2354 C 0.63124 0.99898 0.32521 0.0
C2355 C 0.62119 0.96977 0.32728 0.0
N2356 N 0.61113 0.00778 0.31039 0.0
N2357 N 0.6127 0.97482 0.32012 0.0
H2358 H 0.00968 0.65545 0.33091 0.0
H2359 H 0.03387 0.59863 0.30014 0.0
H2360 H 0.0526 0.66271 0.33868 0.0
H2361 H 0.99151 0.592 0.28869 0.0
H2362 H 0.04006 0.62097 0.31795 0.0
H2363 H 1.00198 0.63105 0.31915 0.0
C2364 C 0.01745 0.65188 0.33036 0.0
C2365 C 0.03184 0.66119 0.33565 0.0
C2366 C 0.02937 0.61458 0.3117 0.0
C2367 C 0.02311 0.6333 0.32211 0.0
C2368 C 0.02584 0.60183 0.30147 0.0
C2369 C 0.01218 0.59345 0.29273 0.0
C2370 C 0.01921 0.61908 0.31318 0.0
C2371 C 1.00214 0.59803 0.29528 0.0
C2372 C 0.01305 0.63795 0.32359 0.0
C2373 C 0.04143 0.65596 0.33464 0.0
N2374 N 0.00589 0.61059 0.3051 0.0
N2375 N 0.03691 0.64242 0.32788 0.0
H2376 H 0.35292 0.39697 0.34238 0.0
H2377 H 0.4178 0.39999 0.2798 0.0
H2378 H 0.35641 0.35953 0.32964 0.0
H2379 H 0.4203 0.43753 0.30793 0.0
H2380 H 0.39528 0.38512 0.29769 0.0
H2381 H 0.37738 0.4121 0.32962 0.0
C2382 C 0.35887 0.39193 0.33707 0.0
C2383 C 0.35257 0.37694 0.33698 0.0
C2384 C 0.40081 0.3966 0.30011 0.0
C2385 C 0.38054 0.39422 0.32213 0.0
C2386 C 0.4138 0.40516 0.28999 0.0
C2387 C 0.42114 0.42015 0.29232 0.0
C2388 C 0.39489 0.403 0.3125 0.0
C2389 C 0.41501 0.42609 0.30534 0.0
C2390 C 0.37285 0.40059 0.32981 0.0
C2391 C 0.36082 0.37102 0.32998 0.0
N2392 N 0.40221 0.41752 0.3148 0.0
N2393 N 0.37431 0.37966 0.32263 0.0
H2394 H 0.33613 0.31816 0.37017 0.0
H2395 H 0.3212 0.23847 0.39042 0.0
H2396 H 0.29535 0.28032 0.35807 0.0
H2397 H 0.35593 0.27629 0.41852 0.0
H2398 H 0.31328 0.25363 0.3735 0.0
H2399 H 0.34539 0.30287 0.38252 0.0
C2400 C 0.32917 0.30664 0.3699 0.0
C2401 C 0.31491 0.30052 0.36321 0.0
C2402 C 0.32269 0.25857 0.38327 0.0
C2403 C 0.32544 0.28296 0.37734 0.0
C2404 C 0.3272 0.24992 0.39304 0.0
C2405 C 0.33928 0.25603 0.40603 0.0
C2406 C 0.33036 0.27347 0.38636 0.0
C2407 C 0.34673 0.27102 0.40842 0.0
C2408 C 0.33444 0.29792 0.37704 0.0
C2409 C 0.30638 0.2855 0.36322 0.0
N2410 N 0.34214 0.27918 0.39874 0.0
N2411 N 0.31176 0.27724 0.37023 0.0
H2412 H 0.69864 0.02457 0.36031 0.0
H2413 H 0.77151 0.07618 0.41904 0.0
H2414 H 0.73229 0.01455 0.37021 0.0
H2415 H 0.74421 0.09134 0.39439 0.0
H2416 H 0.75695 0.05346 0.40153 0.0
H2417 H 0.71466 0.04891 0.37316 0.0
C2418 C 0.70941 0.02751 0.36503 0.0
C2419 C 0.7141 0.01747 0.36427 0.0
C2420 C 0.7542 0.06179 0.39979 0.0
C2421 C 0.7324 0.04521 0.37913 0.0
C2422 C 0.76261 0.07488 0.40968 0.0
C2423 C 0.75919 0.08585 0.40824 0.0
C2424 C 0.74208 0.05944 0.38853 0.0
C2425 C 0.74719 0.08319 0.39628 0.0
C2426 C 0.71855 0.0414 0.37233 0.0
C2427 C 0.72818 0.02189 0.37056 0.0
N2428 N 0.73901 0.07024 0.38703 0.0
N2429 N 0.73676 0.03536 0.37787 0.0
H2430 H 0.98752 0.67709 0.36359 0.0
H2431 H 0.92684 0.69517 0.39829 0.0
H2432 H 0.99157 0.71883 0.35703 0.0
H2433 H 0.92443 0.65451 0.40939 0.0
H2434 H 0.94945 0.70329 0.37989 0.0
H2435 H 0.96319 0.66784 0.37686 0.0
C2436 C 0.98325 0.68428 0.36474 0.0
C2437 C 0.99165 0.69878 0.35931 0.0
C2438 C 0.94391 0.69255 0.38622 0.0
C2439 C 0.96381 0.68829 0.37462 0.0
C2440 C 0.93101 0.68792 0.39681 0.0
C2441 C 0.92369 0.67414 0.40551 0.0
C2442 C 0.94958 0.68336 0.38432 0.0
C2443 C 0.92955 0.66516 0.40276 0.0
C2444 C 0.96936 0.679 0.37238 0.0
C2445 C 0.98553 0.70759 0.36113 0.0
N2446 N 0.94216 0.66995 0.39254 0.0
N2447 N 0.97204 0.70223 0.36873 0.0
H2448 H 0.39571 0.05662 0.71038 0.0
H2449 H 0.4178 0.99633 0.71624 0.0
H2450 H 0.36781 0.01386 0.68741 0.0
H2451 H 0.43053 0.0299 0.76178 0.0
H2452 H 0.40268 0.00451 0.69984 0.0
H2453 H 0.41216 0.04896 0.72308 0.0
C2454 C 0.3931 0.04564 0.70779 0.0
C2455 C 0.38031 0.03584 0.6979 0.0
C2456 C 0.4089 0.01009 0.71335 0.0
C2457 C 0.39919 0.02705 0.71236 0.0
C2458 C 0.4175 0.00541 0.72284 0.0
C2459 C 0.42554 0.01235 0.7406 0.0
C2460 C 0.40851 0.02198 0.72138 0.0
C2461 C 0.42487 0.0243 0.74796 0.0
C2462 C 0.40248 0.04128 0.71515 0.0
C2463 C 0.37752 0.02174 0.69505 0.0
N2464 N 0.41656 0.02871 0.73832 0.0
N2465 N 0.3869 0.01775 0.70224 0.0
H2466 H 1.00186 0.35809 0.69213 0.0
H2467 H 0.97995 0.4104 0.74587 0.0
H2468 H 0.95848 0.35031 0.69314 0.0
H2469 H 0.02338 0.425 0.72586 0.0
H2470 H 0.97207 0.38822 0.72702 0.0
H2471 H 0.01027 0.38246 0.70488 0.0
C2472 C 0.99413 0.36154 0.6948 0.0
C2473 C 0.97943 0.3521 0.69167 0.0
C2474 C 0.98331 0.39633 0.72657 0.0
C2475 C 0.98895 0.37985 0.7065 0.0
C2476 C 0.98785 0.40913 0.73725 0.0
C2477 C 1.00242 0.41975 0.73758 0.0
C2478 C 0.99339 0.39391 0.71635 0.0
C2479 C 0.01209 0.41709 0.72646 0.0
C2480 C 0.99894 0.37545 0.70206 0.0
C2481 C 0.9699 0.35717 0.69537 0.0
N2482 N 0.00743 0.4044 0.71649 0.0
N2483 N 0.9748 0.37062 0.70281 0.0
H2484 H 0.66508 0.6128 0.70553 0.0
H2485 H 0.58688 0.60168 0.72532 0.0
H2486 H 0.65468 0.64599 0.69381 0.0
H2487 H 0.60296 0.57657 0.7549 0.0
H2488 H 0.61015 0.61595 0.70841 0.0
H2489 H 0.64071 0.59724 0.71799 0.0
C2490 C 0.65764 0.6168 0.7054 0.0
C2491 C 0.66198 0.63078 0.69873 0.0
C2492 C 0.60849 0.60724 0.71851 0.0
C2493 C 0.63398 0.61294 0.713 0.0
C2494 C 0.59523 0.5991 0.72827 0.0
C2495 C 0.59286 0.58788 0.74176 0.0
C2496 C 0.61946 0.60407 0.72203 0.0
C2497 C 0.60407 0.58491 0.74447 0.0
C2498 C 0.64373 0.6079 0.7126 0.0
C2499 C 0.65182 0.63532 0.69891 0.0
N2500 N 0.61684 0.59296 0.73476 0.0
N2501 N 0.63829 0.62643 0.70599 0.0
H2502 H 0.72352 0.73072 0.67678 0.0
H2503 H 0.669 0.74318 0.60972 0.0
H2504 H 0.68169 0.69621 0.6596 0.0
H2505 H 0.70552 0.77742 0.64089 0.0
H2506 H 0.67292 0.72581 0.62849 0.0
H2507 H 0.71684 0.74794 0.66422 0.0
C2508 C 0.71287 0.72676 0.67051 0.0
C2509 C 0.70317 0.71199 0.66913 0.0
C2510 C 0.67998 0.73712 0.63139 0.0
C2511 C 0.6955 0.7317 0.65447 0.0
C2512 C 0.67769 0.74709 0.62076 0.0
C2513 C 0.687 0.76188 0.62354 0.0
C2514 C 0.69175 0.74191 0.64476 0.0
C2515 C 0.69823 0.76618 0.63785 0.0
C2516 C 0.70905 0.73661 0.66338 0.0
C2517 C 0.6895 0.7075 0.66096 0.0
N2518 N 0.70037 0.75627 0.64773 0.0
N2519 N 0.68612 0.71731 0.6537 0.0
H2520 H 0.27933 0.99566 0.66721 0.0
H2521 H 0.27318 0.92346 0.62343 0.0
H2522 H 0.31496 0.98795 0.6653 0.0
H2523 H 0.23744 0.93088 0.62793 0.0
H2524 H 0.28821 0.9461 0.64131 0.0
H2525 H 0.26352 0.97124 0.65527 0.0
C2526 C 0.28383 0.9888 0.66441 0.0
C2527 C 0.29853 0.99391 0.66713 0.0
C2528 C 0.27705 0.94272 0.63855 0.0
C2529 C 0.28043 0.96586 0.65328 0.0
C2530 C 0.26841 0.92972 0.62846 0.0
C2531 C 0.254 0.92525 0.62404 0.0
C2532 C 0.27128 0.95138 0.64424 0.0
C2533 C 0.24853 0.93398 0.63067 0.0
C2534 C 0.27477 0.97482 0.65758 0.0
C2535 C 0.30371 0.98448 0.66336 0.0
N2536 N 0.25718 0.94664 0.6403 0.0
N2537 N 0.29469 0.97094 0.65646 0.0
H2538 H 0.01787 0.29243 0.68741 0.0
H2539 H 0.08284 0.34381 0.61418 0.0
H2540 H 0.02317 0.33201 0.66282 0.0
H2541 H 0.08043 0.30776 0.6469 0.0
H2542 H 0.06224 0.34098 0.63394 0.0
H2543 H 0.04172 0.29897 0.67482 0.0
C2544 C 0.02413 0.30259 0.67956 0.0
C2545 C 0.01846 0.31163 0.67603 0.0
C2546 C 0.06633 0.3338 0.63697 0.0
C2547 C 0.04579 0.31913 0.66126 0.0
C2548 C 0.07817 0.33546 0.62578 0.0
C2549 C 0.08333 0.3259 0.62867 0.0
C2550 C 0.0595 0.32244 0.6511 0.0
C2551 C 0.07667 0.31519 0.64378 0.0
C2552 C 0.03777 0.30633 0.67236 0.0
C2553 C 0.02711 0.32471 0.66585 0.0
N2554 N 0.06504 0.31366 0.65423 0.0
N2555 N 0.04027 0.32798 0.65858 0.0
H2556 H 0.31455 0.33237 0.67109 0.0
H2557 H 0.24179 0.31021 0.612 0.0
H2558 H 0.28153 0.28841 0.66144 0.0
H2559 H 0.26731 0.35204 0.63956 0.0
H2560 H 0.25658 0.30225 0.6294 0.0
H2561 H 0.29798 0.34016 0.65883 0.0
C2562 C 0.3038 0.32436 0.66656 0.0
C2563 C 0.29945 0.30972 0.66722 0.0
C2564 C 0.25887 0.31314 0.63179 0.0
C2565 C 0.28053 0.31856 0.65298 0.0
C2566 C 0.25033 0.3177 0.62196 0.0
C2567 C 0.25322 0.33188 0.62419 0.0
C2568 C 0.2706 0.32285 0.64377 0.0
C2569 C 0.26477 0.3411 0.63698 0.0
C2570 C 0.29435 0.32881 0.6596 0.0
C2571 C 0.28538 0.29981 0.66118 0.0
N2572 N 0.2731 0.33647 0.6461 0.0
N2573 N 0.27649 0.30441 0.65413 0.0
H2574 H 0.6754 0.98644 0.6647 0.0
H2575 H 0.69727 0.92833 0.63121 0.0
H2576 H 0.71792 0.99241 0.67124 0.0
H2577 H 0.65535 0.92304 0.62057 0.0
H2578 H 0.70413 0.95063 0.64959 0.0
H2579 H 0.66698 0.96202 0.65226 0.0
C2580 C 0.68293 0.98258 0.66374 0.0
C2581 C 0.69741 0.99154 0.66888 0.0
C2582 C 0.69339 0.94455 0.64339 0.0
C2583 C 0.68787 0.96364 0.65458 0.0
C2584 C 0.68947 0.93182 0.63283 0.0
C2585 C 0.67575 0.92383 0.62415 0.0
C2586 C 0.68354 0.94942 0.64526 0.0
C2587 C 0.66602 0.92877 0.62709 0.0
C2588 C 0.67812 0.96865 0.65658 0.0
C2589 C 0.70668 0.98594 0.66732 0.0
N2590 N 0.67014 0.94131 0.63723 0.0
N2591 N 0.70178 0.97242 0.66021 0.0
H2592 H 0.01631 0.73079 0.67752 0.0
H2593 H 0.08371 0.74279 0.61172 0.0
H2594 H 0.02306 0.69594 0.66019 0.0
H2595 H 0.08034 0.77705 0.64071 0.0
H2596 H 0.06255 0.7254 0.63103 0.0
H2597 H 0.04044 0.74779 0.66566 0.0
C2598 C 0.02293 0.72671 0.67137 0.0
C2599 C 0.01762 0.71192 0.66969 0.0
C2600 C 0.06656 0.73673 0.63336 0.0
C2601 C 0.0453 0.73139 0.6558 0.0
C2602 C 0.07871 0.74668 0.62243 0.0
C2603 C 0.08373 0.76143 0.62436 0.0
C2604 C 0.05933 0.74155 0.64621 0.0
C2605 C 0.07669 0.7658 0.63835 0.0
C2606 C 0.03675 0.73644 0.66463 0.0
C2607 C 0.02673 0.70726 0.66173 0.0
N2608 N 0.06478 0.75592 0.64851 0.0
N2609 N 0.04007 0.71697 0.65481 0.0
H2610 H 0.99852 0.64747 0.70761 0.0
H2611 H 0.97653 0.56507 0.72068 0.0
H2612 H 0.95798 0.61205 0.68781 0.0
H2613 H 0.00807 0.59893 0.75912 0.0
H2614 H 0.97307 0.58282 0.70202 0.0
H2615 H 0.00554 0.63031 0.71999 0.0
C2616 C 0.9912 0.63611 0.70558 0.0
C2617 C 0.9776 0.63116 0.69685 0.0
C2618 C 0.98085 0.58635 0.71441 0.0
C2619 C 0.98557 0.61155 0.71082 0.0
C2620 C 0.9828 0.57622 0.72516 0.0
C2621 C 0.99246 0.58041 0.74179 0.0
C2622 C 0.9887 0.60084 0.72014 0.0
C2623 C 1.00057 0.59512 0.74639 0.0
C2624 C 0.99518 0.62634 0.71272 0.0
C2625 C 0.96851 0.61632 0.69464 0.0
N2626 N 0.99842 0.60478 0.73574 0.0
N2627 N 0.97264 0.60705 0.70163 0.0
H2628 H 0.3668 0.35887 0.69588 0.0
H2629 H 0.44492 0.40576 0.74324 0.0
H2630 H 0.39995 0.34759 0.69216 0.0
H2631 H 0.41707 0.42331 0.73317 0.0
H2632 H 0.42828 0.38447 0.72439 0.0
H2633 H 0.38458 0.38252 0.70936 0.0
C2634 C 0.37782 0.36141 0.69767 0.0
C2635 C 0.38186 0.35118 0.69302 0.0
C2636 C 0.42583 0.39302 0.72609 0.0
C2637 C 0.40215 0.37809 0.70857 0.0
C2638 C 0.43545 0.40534 0.73676 0.0
C2639 C 0.43256 0.41656 0.73981 0.0
C2640 C 0.41299 0.39164 0.71857 0.0
C2641 C 0.41974 0.41493 0.73151 0.0
C2642 C 0.38795 0.37489 0.70536 0.0
C2643 C 0.39629 0.35506 0.69564 0.0
N2644 N 0.41038 0.40267 0.72142 0.0
N2645 N 0.40584 0.36811 0.70339 0.0
H2646 H 0.66009 0.05205 0.69318 0.0
H2647 H 0.58983 0.9862 0.74199 0.0
H2648 H 0.6538 0.00936 0.69861 0.0
H2649 H 0.5949 0.02819 0.73289 0.0
H2650 H 0.61249 0.99408 0.72414 0.0
H2651 H 0.6357 0.04317 0.70574 0.0
C2652 C 0.65354 0.04077 0.69685 0.0
C2653 C 0.65905 0.03145 0.69494 0.0
C2654 C 0.60861 1.00155 0.72589 0.0
C2655 C 0.63108 0.02122 0.70952 0.0
C2656 C 0.59557 0.99702 0.73597 0.0
C2657 C 0.59037 0.00653 0.73902 0.0
C2658 C 0.61663 0.01574 0.71885 0.0
C2659 C 0.59854 0.02052 0.7312 0.0
C2660 C 0.6396 0.03571 0.70405 0.0
C2661 C 0.65003 0.01694 0.69988 0.0
N2662 N 0.61127 0.02471 0.7216 0.0
N2663 N 0.63653 0.0123 0.70709 0.0
loop_
_geom_bond_atom_site_label_1
_geom_bond_atom_site_label_2
_geom_bond_distance
_geom_bond_site_symmetry_2
_ccdc_geom_bond_type
O0 Cd1 2.223 . S
O0 C8 1.315 . S
Cd1 O0 2.223 . S
Cd1 O4 2.297 . S
Cd1 O5 2.439 . S
Cd1 O11 2.240 1_554 S
Cd2 O3 2.220 1_655 S
Cd2 O10 2.223 1_554 S
Cd2 O12 2.297 1_554 S
Cd2 O13 2.439 . S
O3 Cd2 2.220 1_455 S
O3 C8 1.280 . S
O4 Cd1 2.297 . S
O4 C6 1.247 . S
O5 Cd1 2.439 . S
O5 C6 1.208 . S
C6 O4 1.247 . S
C6 O5 1.208 . S
C7 O12 1.247 . S
C7 O13 1.208 1_556 S
C8 O0 1.315 . S
C8 O3 1.280 . S
C9 O10 1.325 . S
C9 O11 1.269 1_655 S
O10 Cd2 2.223 1_556 S
O10 C9 1.325 . S
O11 Cd1 2.240 1_556 S
O11 C9 1.269 1_455 S
O12 Cd2 2.297 1_556 S
O12 C7 1.247 . S
O13 Cd2 2.439 . S
O13 C7 1.208 1_554 S
O14 Cd15 2.223 . S
O14 C22 1.315 . S
Cd15 O14 2.223 . S
Cd15 O18 2.297 . S
Cd15 O19 2.439 . S
Cd15 O25 2.240 1_554 S
Cd16 O17 2.240 . S
Cd16 O24 2.223 1_554 S
Cd16 O26 2.297 1_554 S
Cd16 O27 2.439 . S
O17 Cd16 2.240 . S
O17 C22 1.279 . S
O18 Cd15 2.297 . S
O18 C20 1.247 . S
O19 Cd15 2.439 . S
O19 C20 1.208 . S
C20 O18 1.247 . S
C20 O19 1.208 . S
C21 O26 1.247 . S
C21 O27 1.208 1_556 S
C22 O14 1.315 . S
C22 O17 1.279 . S
C23 O24 1.315 . S
C23 O25 1.279 . S
O24 Cd16 2.223 1_556 S
O24 C23 1.315 . S
O25 Cd15 2.240 1_556 S
O25 C23 1.279 . S
O26 Cd16 2.297 1_556 S
O26 C21 1.247 . S
O27 Cd16 2.439 . S
O27 C21 1.208 1_554 S
O28 Cd29 2.223 1_556 S
O28 C36 1.315 . S
Cd29 O28 2.223 1_554 S
Cd29 O32 2.297 1_554 S
Cd29 O33 2.439 . S
Cd29 O39 2.240 . S
Cd30 O31 2.228 1_564 S
Cd30 O38 2.223 . S
Cd30 O40 2.297 . S
Cd30 O41 2.439 . S
O31 Cd30 2.228 1_546 S
O31 C36 1.280 . S
O32 Cd29 2.297 1_556 S
O32 C34 1.247 . S
O33 Cd29 2.439 . S
O33 C34 1.208 1_554 S
C34 O32 1.247 . S
C34 O33 1.208 1_556 S
C35 O40 1.247 . S
C35 O41 1.208 . S
C36 O28 1.315 . S
C36 O31 1.280 . S
C37 O38 1.337 . S
C37 O39 1.257 1_565 S
O38 Cd30 2.223 . S
O38 C37 1.337 . S
O39 Cd29 2.240 . S
O39 C37 1.257 1_545 S
O40 Cd30 2.297 . S
O40 C35 1.247 . S
O41 Cd30 2.439 . S
O41 C35 1.208 . S
O42 Cd43 2.223 1_556 S
O42 C50 1.323 . S
Cd43 O42 2.223 1_554 S
Cd43 O46 2.297 1_554 S
Cd43 O47 2.439 . S
Cd43 O53 2.213 1_655 S
Cd44 O45 2.240 1_554 S
Cd44 O52 2.223 . S
Cd44 O54 2.297 . S
Cd44 O55 2.439 . S
O45 Cd44 2.240 1_556 S
O45 C50 1.279 1_455 S
O46 Cd43 2.297 1_556 S
O46 C48 1.247 . S
O47 Cd43 2.439 . S
O47 C48 1.208 1_554 S
C48 O46 1.247 . S
C48 O47 1.208 1_556 S
C49 O54 1.247 . S
C49 O55 1.208 . S
C50 O42 1.323 . S
C50 O45 1.279 1_655 S
C51 O52 1.315 . S
C51 O53 1.310 . S
O52 Cd44 2.223 . S
O52 C51 1.315 . S
O53 Cd43 2.213 1_455 S
O53 C51 1.310 . S
O54 Cd44 2.297 . S
O54 C49 1.247 . S
O55 Cd44 2.439 . S
O55 C49 1.208 . S
O56 Cd57 2.223 1_556 S
O56 C64 1.315 . S
Cd57 O56 2.223 1_554 S
Cd57 O60 2.297 1_554 S
Cd57 O61 2.439 . S
Cd57 O67 2.240 . S
Cd58 O59 2.240 1_554 S
Cd58 O66 2.223 . S
Cd58 O68 2.297 . S
Cd58 O69 2.439 . S
O59 Cd58 2.240 1_556 S
O59 C64 1.279 . S
O60 Cd57 2.297 1_556 S
O60 C62 1.247 . S
O61 Cd57 2.439 . S
O61 C62 1.208 1_554 S
C62 O60 1.247 . S
C62 O61 1.208 1_556 S
C63 O68 1.247 . S
C63 O69 1.208 . S
C64 O56 1.315 . S
C64 O59 1.279 . S
C65 O66 1.315 . S
C65 O67 1.279 . S
O66 Cd58 2.223 . S
O66 C65 1.315 . S
O67 Cd57 2.240 . S
O67 C65 1.279 . S
O68 Cd58 2.297 . S
O68 C63 1.247 . S
O69 Cd58 2.439 . S
O69 C63 1.208 . S
O70 Cd71 2.223 . S
O70 C78 1.333 . S
Cd71 O70 2.223 . S
Cd71 O74 2.297 . S
Cd71 O75 2.439 . S
Cd71 O81 2.224 1_564 S
Cd72 O73 2.240 . S
Cd72 O80 2.223 1_554 S
Cd72 O82 2.297 1_554 S
Cd72 O83 2.439 . S
O73 Cd72 2.240 . S
O73 C78 1.279 1_545 S
O74 Cd71 2.297 . S
O74 C76 1.247 . S
O75 Cd71 2.439 . S
O75 C76 1.208 . S
C76 O74 1.247 . S
C76 O75 1.208 . S
C77 O82 1.247 . S
C77 O83 1.208 1_556 S
C78 O70 1.333 . S
C78 O73 1.279 1_565 S
C79 O80 1.315 . S
C79 O81 1.297 . S
O80 Cd72 2.223 1_556 S
O80 C79 1.315 . S
O81 Cd71 2.224 1_546 S
O81 C79 1.297 . S
O82 Cd72 2.297 1_556 S
O82 C77 1.247 . S
O83 Cd72 2.439 . S
O83 C77 1.208 1_554 S
O84 Cd85 2.223 . S
O84 C92 1.315 . S
Cd85 O84 2.223 . S
Cd85 O88 2.297 . S
Cd85 O89 2.439 . S
Cd85 O95 2.240 . S
Cd86 O87 2.240 . S
Cd86 O94 2.223 . S
Cd86 O96 2.297 . S
Cd86 O97 2.439 . S
O87 Cd86 2.240 . S
O87 C92 1.279 . S
O88 Cd85 2.297 . S
O88 C90 1.247 . S
O89 Cd85 2.439 . S
O89 C90 1.208 . S
C90 O88 1.247 . S
C90 O89 1.208 . S
C91 O96 1.247 . S
C91 O97 1.208 . S
C92 O84 1.315 . S
C92 O87 1.279 . S
C93 O94 1.315 . S
C93 O95 1.279 . S
O94 Cd86 2.223 . S
O94 C93 1.315 . S
O95 Cd85 2.240 . S
O95 C93 1.279 . S
O96 Cd86 2.297 . S
O96 C91 1.247 . S
O97 Cd86 2.439 . S
O97 C91 1.208 . S
O98 Cd99 2.223 . S
O98 C106 1.315 . S
Cd99 O98 2.223 . S
Cd99 O102 2.297 1_565 S
Cd99 O103 2.439 1_565 S
Cd99 O109 2.240 . S
Cd100 O101 2.240 . S
Cd100 O108 2.223 . S
Cd100 O110 2.297 . S
Cd100 O111 2.439 . S
O101 Cd100 2.240 . S
O101 C106 1.279 . S
O102 Cd99 2.297 1_545 S
O102 C104 1.247 . S
O103 Cd99 2.439 1_545 S
O103 C104 1.208 . S
C104 O102 1.247 . S
C104 O103 1.208 . S
C105 O110 1.247 . S
C105 O111 1.208 . S
C106 O98 1.315 . S
C106 O101 1.279 . S
C107 O108 1.315 . S
C107 O109 1.279 . S
O108 Cd100 2.223 . S
O108 C107 1.315 . S
O109 Cd99 2.240 . S
O109 C107 1.279 . S
O110 Cd100 2.297 . S
O110 C105 1.247 . S
O111 Cd100 2.439 . S
O111 C105 1.208 . S
O112 Cd113 2.223 . S
O112 C120 1.315 . S
Cd113 O112 2.223 . S
Cd113 O116 2.297 . S
Cd113 O117 2.439 . S
Cd113 O123 2.240 . S
Cd114 O115 2.240 . S
Cd114 O122 2.223 . S
Cd114 O124 2.297 . S
Cd114 O125 2.439 . S
O115 Cd114 2.240 . S
O115 C120 1.279 . S
O116 Cd113 2.297 . S
O116 C118 1.247 . S
O117 Cd113 2.439 . S
O117 C118 1.208 . S
C118 O116 1.247 . S
C118 O117 1.208 . S
C119 O124 1.247 1_655 S
C119 O125 1.208 1_655 S
C120 O112 1.315 . S
C120 O115 1.279 . S
C121 O122 1.315 . S
C121 O123 1.279 . S
O122 Cd114 2.223 . S
O122 C121 1.315 . S
O123 Cd113 2.240 . S
O123 C121 1.279 . S
O124 Cd114 2.297 . S
O124 C119 1.247 1_455 S
O125 Cd114 2.439 . S
O125 C119 1.208 1_455 S
O126 Cd127 2.223 . S
O126 C134 1.315 . S
Cd127 O126 2.223 . S
Cd127 O130 2.297 . S
Cd127 O131 2.439 . S
Cd127 O137 2.240 . S
Cd128 O129 2.240 . S
Cd128 O136 2.223 . S
Cd128 O138 2.297 1_565 S
Cd128 O139 2.439 1_565 S
O129 Cd128 2.240 . S
O129 C134 1.279 . S
O130 Cd127 2.297 . S
O130 C132 1.247 . S
O131 Cd127 2.439 . S
O131 C132 1.208 . S
C132 O130 1.247 . S
C132 O131 1.208 . S
C133 O138 1.247 . S
C133 O139 1.208 . S
C134 O126 1.315 . S
C134 O129 1.279 . S
C135 O136 1.315 . S
C135 O137 1.279 . S
O136 Cd128 2.223 . S
O136 C135 1.315 . S
O137 Cd127 2.240 . S
O137 C135 1.279 . S
O138 Cd128 2.297 1_545 S
O138 C133 1.247 . S
O139 Cd128 2.439 1_545 S
O139 C133 1.208 . S
O140 Cd141 2.223 . S
O140 C148 1.315 . S
Cd141 O140 2.223 . S
Cd141 O144 2.297 . S
Cd141 O145 2.439 . S
Cd141 O151 2.240 . S
Cd142 O143 2.240 . S
Cd142 O150 2.223 . S
Cd142 O152 2.297 . S
Cd142 O153 2.439 . S
O143 Cd142 2.240 . S
O143 C148 1.279 . S
O144 Cd141 2.297 . S
O144 C146 1.247 . S
O145 Cd141 2.439 . S
O145 C146 1.208 . S
C146 O144 1.247 . S
C146 O145 1.208 . S
C147 O152 1.247 1_655 S
C147 O153 1.208 1_655 S
C148 O140 1.315 . S
C148 O143 1.279 . S
C149 O150 1.315 . S
C149 O151 1.279 . S
O150 Cd142 2.223 . S
O150 C149 1.315 . S
O151 Cd141 2.240 . S
O151 C149 1.279 . S
O152 Cd142 2.297 . S
O152 C147 1.247 1_455 S
O153 Cd142 2.439 . S
O153 C147 1.208 1_455 S
O154 Cd155 2.223 . S
O154 C162 1.315 . S
Cd155 O154 2.223 . S
Cd155 O158 2.297 . S
Cd155 O159 2.439 . S
Cd155 O165 2.240 . S
Cd156 O157 2.240 . S
Cd156 O164 2.223 . S
Cd156 O166 2.297 . S
Cd156 O167 2.439 . S
O157 Cd156 2.240 . S
O157 C162 1.279 . S
O158 Cd155 2.297 . S
O158 C160 1.247 . S
O159 Cd155 2.439 . S
O159 C160 1.208 . S
C160 O158 1.247 . S
C160 O159 1.208 . S
C161 O166 1.247 . S
C161 O167 1.208 . S
C162 O154 1.315 . S
C162 O157 1.279 . S
C163 O164 1.315 . S
C163 O165 1.279 . S
O164 Cd156 2.223 . S
O164 C163 1.315 . S
O165 Cd155 2.240 . S
O165 C163 1.279 . S
O166 Cd156 2.297 . S
O166 C161 1.247 . S
O167 Cd156 2.439 . S
O167 C161 1.208 . S
O168 Cd169 2.223 . S
O168 C176 1.315 . S
Cd169 O168 2.223 . S
Cd169 O172 2.297 . S
Cd169 O173 2.439 . S
Cd169 O179 2.240 . S
Cd170 O171 2.240 . S
Cd170 O178 2.223 . S
Cd170 O180 2.297 . S
Cd170 O181 2.439 . S
O171 Cd170 2.240 . S
O171 C176 1.279 . S
O172 Cd169 2.297 . S
O172 C174 1.247 . S
O173 Cd169 2.439 . S
O173 C174 1.208 . S
C174 O172 1.247 . S
C174 O173 1.208 . S
C175 O180 1.247 1_565 S
C175 O181 1.208 1_565 S
C176 O168 1.315 . S
C176 O171 1.279 . S
C177 O178 1.315 . S
C177 O179 1.279 . S
O178 Cd170 2.223 . S
O178 C177 1.315 . S
O179 Cd169 2.240 . S
O179 C177 1.279 . S
O180 Cd170 2.297 . S
O180 C175 1.247 1_545 S
O181 Cd170 2.439 . S
O181 C175 1.208 1_545 S
O182 Cd183 2.223 . S
O182 C190 1.315 . S
Cd183 O182 2.223 . S
Cd183 O186 2.297 . S
Cd183 O187 2.439 . S
Cd183 O193 2.240 . S
Cd184 O185 2.240 . S
Cd184 O192 2.223 . S
Cd184 O194 2.297 1_655 S
Cd184 O195 2.439 1_655 S
O185 Cd184 2.240 . S
O185 C190 1.279 . S
O186 Cd183 2.297 . S
O186 C188 1.247 . S
O187 Cd183 2.439 . S
O187 C188 1.208 . S
C188 O186 1.247 . S
C188 O187 1.208 . S
C189 O194 1.247 . S
C189 O195 1.208 . S
C190 O182 1.315 . S
C190 O185 1.279 . S
C191 O192 1.315 . S
C191 O193 1.279 . S
O192 Cd184 2.223 . S
O192 C191 1.315 . S
O193 Cd183 2.240 . S
O193 C191 1.279 . S
O194 Cd184 2.297 1_455 S
O194 C189 1.247 . S
O195 Cd184 2.439 1_455 S
O195 C189 1.208 . S
O196 Cd197 2.223 . S
O196 C204 1.315 . S
Cd197 O196 2.223 . S
Cd197 O200 2.297 . S
Cd197 O201 2.439 . S
Cd197 O207 2.240 . S
Cd198 O199 2.240 . S
Cd198 O206 2.223 . S
Cd198 O208 2.297 . S
Cd198 O209 2.439 . S
O199 Cd198 2.240 . S
O199 C204 1.279 . S
O200 Cd197 2.297 . S
O200 C202 1.247 . S
O201 Cd197 2.439 . S
O201 C202 1.208 . S
C202 O200 1.247 . S
C202 O201 1.208 . S
C203 O208 1.247 . S
C203 O209 1.208 . S
C204 O196 1.315 . S
C204 O199 1.279 . S
C205 O206 1.315 . S
C205 O207 1.279 . S
O206 Cd198 2.223 . S
O206 C205 1.315 . S
O207 Cd197 2.240 . S
O207 C205 1.279 . S
O208 Cd198 2.297 . S
O208 C203 1.247 . S
O209 Cd198 2.439 . S
O209 C203 1.208 . S
O210 Cd211 2.223 . S
O210 C218 1.315 . S
Cd211 O210 2.223 . S
Cd211 O214 2.297 . S
Cd211 O215 2.439 . S
Cd211 O221 2.240 . S
Cd212 O213 2.240 . S
Cd212 O220 2.223 . S
Cd212 O222 2.297 . S
Cd212 O223 2.439 . S
O213 Cd212 2.240 . S
O213 C218 1.279 . S
O214 Cd211 2.297 . S
O214 C216 1.247 . S
O215 Cd211 2.439 . S
O215 C216 1.208 . S
C216 O214 1.247 . S
C216 O215 1.208 . S
C217 O222 1.247 . S
C217 O223 1.208 . S
C218 O210 1.315 . S
C218 O213 1.279 . S
C219 O220 1.315 . S
C219 O221 1.279 . S
O220 Cd212 2.223 . S
O220 C219 1.315 . S
O221 Cd211 2.240 . S
O221 C219 1.279 . S
O222 Cd212 2.297 . S
O222 C217 1.247 . S
O223 Cd212 2.439 . S
O223 C217 1.208 . S
O224 Cd225 2.223 . S
O224 C232 1.315 . S
Cd225 O224 2.223 . S
Cd225 O228 2.297 . S
Cd225 O229 2.439 . S
Cd225 O235 2.240 . S
Cd226 O227 2.240 . S
Cd226 O234 2.223 . S
Cd226 O236 2.297 . S
Cd226 O237 2.439 . S
O227 Cd226 2.240 . S
O227 C232 1.279 . S
O228 Cd225 2.297 . S
O228 C230 1.247 1_545 S
O229 Cd225 2.439 . S
O229 C230 1.208 1_545 S
C230 O228 1.247 1_565 S
C230 O229 1.208 1_565 S
C231 O236 1.247 . S
C231 O237 1.208 . S
C232 O224 1.315 . S
C232 O227 1.279 . S
C233 O234 1.315 . S
C233 O235 1.279 . S
O234 Cd226 2.223 . S
O234 C233 1.315 . S
O235 Cd225 2.240 . S
O235 C233 1.279 . S
O236 Cd226 2.297 . S
O236 C231 1.247 . S
O237 Cd226 2.439 . S
O237 C231 1.208 . S
O238 Cd239 2.223 . S
O238 C246 1.315 . S
Cd239 O238 2.223 . S
Cd239 O242 2.297 . S
Cd239 O243 2.439 . S
Cd239 O249 2.240 . S
Cd240 O241 2.240 . S
Cd240 O248 2.223 . S
Cd240 O250 2.297 1_655 S
Cd240 O251 2.439 1_655 S
O241 Cd240 2.240 . S
O241 C246 1.279 . S
O242 Cd239 2.297 . S
O242 C244 1.247 . S
O243 Cd239 2.439 . S
O243 C244 1.208 . S
C244 O242 1.247 . S
C244 O243 1.208 . S
C245 O250 1.247 . S
C245 O251 1.208 . S
C246 O238 1.315 . S
C246 O241 1.279 . S
C247 O248 1.315 . S
C247 O249 1.279 . S
O248 Cd240 2.223 . S
O248 C247 1.315 . S
O249 Cd239 2.240 . S
O249 C247 1.279 . S
O250 Cd240 2.297 1_455 S
O250 C245 1.247 . S
O251 Cd240 2.439 1_455 S
O251 C245 1.208 . S
H252 C279 0.929 . S
N253 C278 1.433 . S
N253 C284 1.435 . S
N253 C290 1.423 . S
H254 C280 0.930 . S
H255 C283 0.931 . S
H256 C282 0.929 . S
H257 C285 0.930 . S
H258 C286 0.932 . S
H259 C289 0.929 . S
H260 C288 0.931 . S
H261 C291 0.929 . S
H262 C295 0.932 . S
H263 C292 0.931 . S
H264 C294 0.929 . S
H265 C297 0.929 . S
H266 C298 0.930 . S
H267 C300 0.929 . S
H268 C301 0.931 . S
H269 C303 0.930 . S
H270 C304 0.932 . S
H271 C306 0.931 . S
H272 C307 0.929 . S
H273 C309 0.929 . S
H274 C310 0.931 . S
H275 C312 0.929 . S
N276 C296 1.433 . S
N276 C302 1.435 . S
N276 C308 1.423 . S
H277 C313 0.932 . S
C278 N253 1.433 . S
C278 C279 1.363 . S
C278 C283 1.370 . S
C279 H252 0.929 . S
C279 C278 1.363 . S
C279 C280 1.385 . S
C280 H254 0.930 . S
C280 C279 1.385 . S
C280 C281 1.357 . S
C281 C280 1.357 . S
C281 C282 1.406 . S
C282 H256 0.929 . S
C282 C281 1.406 . S
C282 C283 1.391 . S
C283 H255 0.931 . S
C283 C278 1.370 . S
C283 C282 1.391 . S
C284 N253 1.435 . S
C284 C285 1.358 . S
C284 C289 1.371 . S
C285 H257 0.930 . S
C285 C284 1.358 . S
C285 C286 1.405 . S
C286 H258 0.932 . S
C286 C285 1.405 . S
C286 C287 1.383 . S
C287 C286 1.383 . S
C287 C288 1.393 . S
C288 H260 0.931 . S
C288 C287 1.393 . S
C288 C289 1.382 . S
C289 H259 0.929 . S
C289 C284 1.371 . S
C289 C288 1.382 . S
C290 N253 1.423 . S
C290 C291 1.362 . S
C290 C295 1.388 . S
C291 H261 0.929 . S
C291 C290 1.362 . S
C291 C292 1.376 . S
C292 H263 0.931 . S
C292 C291 1.376 . S
C292 C293 1.396 . S
C293 C292 1.396 . S
C293 C294 1.348 . S
C293 C311 1.472 . S
C294 H264 0.929 . S
C294 C293 1.348 . S
C294 C295 1.443 . S
C295 H262 0.932 . S
C295 C290 1.388 . S
C295 C294 1.443 . S
C296 N276 1.433 . S
C296 C297 1.363 . S
C296 C301 1.370 . S
C297 H265 0.929 . S
C297 C296 1.363 . S
C297 C298 1.385 . S
C298 H266 0.930 . S
C298 C297 1.385 . S
C298 C299 1.357 . S
C299 C298 1.357 . S
C299 C300 1.406 . S
C300 H267 0.929 . S
C300 C299 1.406 . S
C300 C301 1.391 . S
C301 H268 0.931 . S
C301 C296 1.370 . S
C301 C300 1.391 . S
C302 N276 1.435 . S
C302 C303 1.358 . S
C302 C307 1.371 . S
C303 H269 0.930 . S
C303 C302 1.358 . S
C303 C304 1.405 . S
C304 H270 0.932 . S
C304 C303 1.405 . S
C304 C305 1.383 . S
C305 C304 1.383 . S
C305 C306 1.393 . S
C306 H271 0.931 . S
C306 C305 1.393 . S
C306 C307 1.382 . S
C307 H272 0.929 . S
C307 C302 1.371 . S
C307 C306 1.382 . S
C308 N276 1.423 . S
C308 C309 1.362 . S
C308 C313 1.388 . S
C309 H273 0.929 . S
C309 C308 1.362 . S
C309 C310 1.376 . S
C310 H274 0.931 . S
C310 C309 1.376 . S
C310 C311 1.396 . S
C311 C293 1.472 . S
C311 C310 1.396 . S
C311 C312 1.348 . S
C312 H275 0.929 . S
C312 C311 1.348 . S
C312 C313 1.443 . S
C313 H277 0.932 . S
C313 C308 1.388 . S
C313 C312 1.443 . S
H314 C341 0.929 . S
N315 C340 1.433 . S
N315 C346 1.435 . S
N315 C352 1.423 . S
H316 C342 0.930 . S
H317 C345 0.931 . S
H318 C344 0.929 . S
H319 C347 0.930 . S
H320 C348 0.932 . S
H321 C351 0.929 . S
H322 C350 0.931 . S
H323 C353 0.929 . S
H324 C357 0.932 . S
H325 C354 0.931 . S
H326 C356 0.929 . S
H327 C359 0.929 . S
H328 C360 0.930 . S
H329 C362 0.929 . S
H330 C363 0.931 . S
H331 C365 0.930 . S
H332 C366 0.932 . S
H333 C368 0.931 . S
H334 C369 0.929 . S
H335 C371 0.929 . S
H336 C372 0.931 . S
H337 C374 0.929 . S
N338 C358 1.433 . S
N338 C364 1.435 . S
N338 C370 1.423 . S
H339 C375 0.932 . S
C340 N315 1.433 . S
C340 C341 1.363 . S
C340 C345 1.370 . S
C341 H314 0.929 . S
C341 C340 1.363 . S
C341 C342 1.385 . S
C342 H316 0.930 . S
C342 C341 1.385 . S
C342 C343 1.357 . S
C343 C342 1.357 . S
C343 C344 1.406 . S
C344 H318 0.929 . S
C344 C343 1.406 . S
C344 C345 1.391 . S
C345 H317 0.931 . S
C345 C340 1.370 . S
C345 C344 1.391 . S
C346 N315 1.435 . S
C346 C347 1.358 . S
C346 C351 1.371 . S
C347 H319 0.930 . S
C347 C346 1.358 . S
C347 C348 1.405 . S
C348 H320 0.932 . S
C348 C347 1.405 . S
C348 C349 1.383 . S
C349 C348 1.383 . S
C349 C350 1.393 . S
C350 H322 0.931 . S
C350 C349 1.393 . S
C350 C351 1.382 . S
C351 H321 0.929 . S
C351 C346 1.371 . S
C351 C350 1.382 . S
C352 N315 1.423 . S
C352 C353 1.362 . S
C352 C357 1.388 . S
C353 H323 0.929 . S
C353 C352 1.362 . S
C353 C354 1.376 . S
C354 H325 0.931 . S
C354 C353 1.376 . S
C354 C355 1.396 . S
C355 C354 1.396 . S
C355 C356 1.348 . S
C355 C373 1.472 . S
C356 H326 0.929 . S
C356 C355 1.348 . S
C356 C357 1.443 . S
C357 H324 0.932 . S
C357 C352 1.388 . S
C357 C356 1.443 . S
C358 N338 1.433 . S
C358 C359 1.363 . S
C358 C363 1.370 . S
C359 H327 0.929 . S
C359 C358 1.363 . S
C359 C360 1.385 . S
C360 H328 0.930 . S
C360 C359 1.385 . S
C360 C361 1.357 . S
C361 C360 1.357 . S
C361 C362 1.406 . S
C362 H329 0.929 . S
C362 C361 1.406 . S
C362 C363 1.391 . S
C363 H330 0.931 . S
C363 C358 1.370 . S
C363 C362 1.391 . S
C364 N338 1.435 . S
C364 C365 1.358 . S
C364 C369 1.371 . S
C365 H331 0.930 . S
C365 C364 1.358 . S
C365 C366 1.405 . S
C366 H332 0.932 . S
C366 C365 1.405 . S
C366 C367 1.383 . S
C367 C366 1.383 . S
C367 C368 1.393 . S
C368 H333 0.931 . S
C368 C367 1.393 . S
C368 C369 1.382 . S
C369 H334 0.929 . S
C369 C364 1.371 . S
C369 C368 1.382 . S
C370 N338 1.423 . S
C370 C371 1.362 . S
C370 C375 1.388 . S
C371 H335 0.929 . S
C371 C370 1.362 . S
C371 C372 1.376 . S
C372 H336 0.931 . S
C372 C371 1.376 . S
C372 C373 1.396 . S
C373 C355 1.472 . S
C373 C372 1.396 . S
C373 C374 1.348 . S
C374 H337 0.929 . S
C374 C373 1.348 . S
C374 C375 1.443 . S
C375 H339 0.932 . S
C375 C370 1.388 . S
C375 C374 1.443 . S
H376 C403 0.929 . S
N377 C402 1.433 . S
N377 C408 1.435 . S
N377 C414 1.423 . S
H378 C404 0.930 . S
H379 C407 0.931 . S
H380 C406 0.929 . S
H381 C409 0.930 . S
H382 C410 0.932 . S
H383 C413 0.929 . S
H384 C412 0.931 . S
H385 C415 0.929 . S
H386 C419 0.932 . S
H387 C416 0.931 . S
H388 C418 0.929 . S
H389 C421 0.929 . S
H390 C422 0.930 . S
H391 C424 0.929 . S
H392 C425 0.931 . S
H393 C427 0.930 . S
H394 C428 0.932 . S
H395 C430 0.931 . S
H396 C431 0.929 . S
H397 C433 0.929 . S
H398 C434 0.931 . S
H399 C436 0.929 . S
N400 C420 1.433 . S
N400 C426 1.435 . S
N400 C432 1.423 . S
H401 C437 0.932 . S
C402 N377 1.433 . S
C402 C403 1.363 . S
C402 C407 1.370 . S
C403 H376 0.929 . S
C403 C402 1.363 . S
C403 C404 1.385 . S
C404 H378 0.930 . S
C404 C403 1.385 . S
C404 C405 1.357 . S
C405 C404 1.357 . S
C405 C406 1.406 . S
C406 H380 0.929 . S
C406 C405 1.406 . S
C406 C407 1.391 . S
C407 H379 0.931 . S
C407 C402 1.370 . S
C407 C406 1.391 . S
C408 N377 1.435 . S
C408 C409 1.358 . S
C408 C413 1.371 . S
C409 H381 0.930 . S
C409 C408 1.358 . S
C409 C410 1.405 . S
C410 H382 0.932 . S
C410 C409 1.405 . S
C410 C411 1.383 . S
C411 C410 1.383 . S
C411 C412 1.393 . S
C412 H384 0.931 . S
C412 C411 1.393 . S
C412 C413 1.382 . S
C413 H383 0.929 . S
C413 C408 1.371 . S
C413 C412 1.382 . S
C414 N377 1.423 . S
C414 C415 1.362 . S
C414 C419 1.388 . S
C415 H385 0.929 . S
C415 C414 1.362 . S
C415 C416 1.376 . S
C416 H387 0.931 . S
C416 C415 1.376 . S
C416 C417 1.396 . S
C417 C416 1.396 . S
C417 C418 1.348 . S
C417 C435 1.472 . S
C418 H388 0.929 . S
C418 C417 1.348 . S
C418 C419 1.443 . S
C419 H386 0.932 . S
C419 C414 1.388 . S
C419 C418 1.443 . S
C420 N400 1.433 . S
C420 C421 1.363 . S
C420 C425 1.370 . S
C421 H389 0.929 . S
C421 C420 1.363 . S
C421 C422 1.385 . S
C422 H390 0.930 . S
C422 C421 1.385 . S
C422 C423 1.357 . S
C423 C422 1.357 . S
C423 C424 1.406 . S
C424 H391 0.929 . S
C424 C423 1.406 . S
C424 C425 1.391 . S
C425 H392 0.931 . S
C425 C420 1.370 . S
C425 C424 1.391 . S
C426 N400 1.435 . S
C426 C427 1.358 . S
C426 C431 1.371 . S
C427 H393 0.930 . S
C427 C426 1.358 . S
C427 C428 1.405 . S
C428 H394 0.932 . S
C428 C427 1.405 . S
C428 C429 1.383 . S
C429 C428 1.383 . S
C429 C430 1.393 . S
C430 H395 0.931 . S
C430 C429 1.393 . S
C430 C431 1.382 . S
C431 H396 0.929 . S
C431 C426 1.371 . S
C431 C430 1.382 . S
C432 N400 1.423 . S
C432 C433 1.362 . S
C432 C437 1.388 . S
C433 H397 0.929 . S
C433 C432 1.362 . S
C433 C434 1.376 . S
C434 H398 0.931 . S
C434 C433 1.376 . S
C434 C435 1.396 . S
C435 C417 1.472 . S
C435 C434 1.396 . S
C435 C436 1.348 . S
C436 H399 0.929 . S
C436 C435 1.348 . S
C436 C437 1.443 . S
C437 H401 0.932 . S
C437 C432 1.388 . S
C437 C436 1.443 . S
H438 C465 0.929 . S
N439 C464 1.433 . S
N439 C470 1.435 . S
N439 C476 1.423 . S
H440 C466 0.930 . S
H441 C469 0.931 . S
H442 C468 0.929 . S
H443 C471 0.930 . S
H444 C472 0.932 . S
H445 C475 0.929 . S
H446 C474 0.931 . S
H447 C477 0.929 . S
H448 C481 0.932 . S
H449 C478 0.931 . S
H450 C480 0.929 . S
H451 C483 0.929 . S
H452 C484 0.930 . S
H453 C486 0.929 . S
H454 C487 0.931 . S
H455 C489 0.930 . S
H456 C490 0.932 . S
H457 C492 0.931 . S
H458 C493 0.929 . S
H459 C495 0.929 . S
H460 C496 0.931 . S
H461 C498 0.929 . S
N462 C482 1.433 . S
N462 C488 1.435 . S
N462 C494 1.423 . S
H463 C499 0.932 . S
C464 N439 1.433 . S
C464 C465 1.363 . S
C464 C469 1.370 . S
C465 H438 0.929 . S
C465 C464 1.363 . S
C465 C466 1.385 . S
C466 H440 0.930 . S
C466 C465 1.385 . S
C466 C467 1.357 . S
C467 C466 1.357 . S
C467 C468 1.406 . S
C468 H442 0.929 . S
C468 C467 1.406 . S
C468 C469 1.391 . S
C469 H441 0.931 . S
C469 C464 1.370 . S
C469 C468 1.391 . S
C470 N439 1.435 . S
C470 C471 1.358 . S
C470 C475 1.371 . S
C471 H443 0.930 . S
C471 C470 1.358 . S
C471 C472 1.405 . S
C472 H444 0.932 . S
C472 C471 1.405 . S
C472 C473 1.383 . S
C473 C472 1.383 . S
C473 C474 1.393 . S
C474 H446 0.931 . S
C474 C473 1.393 . S
C474 C475 1.382 . S
C475 H445 0.929 . S
C475 C470 1.371 . S
C475 C474 1.382 . S
C476 N439 1.423 . S
C476 C477 1.362 . S
C476 C481 1.388 . S
C477 H447 0.929 . S
C477 C476 1.362 . S
C477 C478 1.376 . S
C478 H449 0.931 . S
C478 C477 1.376 . S
C478 C479 1.396 . S
C479 C478 1.396 . S
C479 C480 1.348 . S
C479 C497 1.472 . S
C480 H450 0.929 . S
C480 C479 1.348 . S
C480 C481 1.443 . S
C481 H448 0.932 . S
C481 C476 1.388 . S
C481 C480 1.443 . S
C482 N462 1.433 . S
C482 C483 1.363 . S
C482 C487 1.370 . S
C483 H451 0.929 . S
C483 C482 1.363 . S
C483 C484 1.385 . S
C484 H452 0.930 . S
C484 C483 1.385 . S
C484 C485 1.357 . S
C485 C484 1.357 . S
C485 C486 1.406 . S
C486 H453 0.929 . S
C486 C485 1.406 . S
C486 C487 1.391 . S
C487 H454 0.931 . S
C487 C482 1.370 . S
C487 C486 1.391 . S
C488 N462 1.435 . S
C488 C489 1.358 . S
C488 C493 1.371 . S
C489 H455 0.930 . S
C489 C488 1.358 . S
C489 C490 1.405 . S
C490 H456 0.932 . S
C490 C489 1.405 . S
C490 C491 1.383 . S
C491 C490 1.383 . S
C491 C492 1.393 . S
C492 H457 0.931 . S
C492 C491 1.393 . S
C492 C493 1.382 . S
C493 H458 0.929 . S
C493 C488 1.371 . S
C493 C492 1.382 . S
C494 N462 1.423 . S
C494 C495 1.362 . S
C494 C499 1.388 . S
C495 H459 0.929 . S
C495 C494 1.362 . S
C495 C496 1.376 . S
C496 H460 0.931 . S
C496 C495 1.376 . S
C496 C497 1.396 . S
C497 C479 1.472 . S
C497 C496 1.396 . S
C497 C498 1.348 . S
C498 H461 0.929 . S
C498 C497 1.348 . S
C498 C499 1.443 . S
C499 H463 0.932 . S
C499 C494 1.388 . S
C499 C498 1.443 . S
H500 C527 0.929 . S
N501 C526 1.433 . S
N501 C532 1.435 . S
N501 C538 1.423 . S
H502 C528 0.930 . S
H503 C531 0.931 . S
H504 C530 0.929 . S
H505 C533 0.930 . S
H506 C534 0.932 . S
H507 C537 0.929 . S
H508 C536 0.931 . S
H509 C539 0.929 . S
H510 C543 0.932 . S
H511 C540 0.931 . S
H512 C542 0.929 . S
H513 C545 0.929 . S
H514 C546 0.930 . S
H515 C548 0.929 . S
H516 C549 0.931 . S
H517 C551 0.930 . S
H518 C552 0.932 . S
H519 C554 0.931 . S
H520 C555 0.929 . S
H521 C557 0.929 . S
H522 C558 0.931 . S
H523 C560 0.929 . S
N524 C544 1.433 . S
N524 C550 1.435 . S
N524 C556 1.423 . S
H525 C561 0.932 . S
C526 N501 1.433 . S
C526 C527 1.363 . S
C526 C531 1.370 . S
C527 H500 0.929 . S
C527 C526 1.363 . S
C527 C528 1.385 . S
C528 H502 0.930 . S
C528 C527 1.385 . S
C528 C529 1.357 . S
C529 C528 1.357 . S
C529 C530 1.406 . S
C530 H504 0.929 . S
C530 C529 1.406 . S
C530 C531 1.391 . S
C531 H503 0.931 . S
C531 C526 1.370 . S
C531 C530 1.391 . S
C532 N501 1.435 . S
C532 C533 1.358 . S
C532 C537 1.371 . S
C533 H505 0.930 . S
C533 C532 1.358 . S
C533 C534 1.405 . S
C534 H506 0.932 . S
C534 C533 1.405 . S
C534 C535 1.383 . S
C535 C534 1.383 . S
C535 C536 1.393 . S
C536 H508 0.931 . S
C536 C535 1.393 . S
C536 C537 1.382 . S
C537 H507 0.929 . S
C537 C532 1.371 . S
C537 C536 1.382 . S
C538 N501 1.423 . S
C538 C539 1.362 . S
C538 C543 1.388 . S
C539 H509 0.929 . S
C539 C538 1.362 . S
C539 C540 1.376 . S
C540 H511 0.931 . S
C540 C539 1.376 . S
C540 C541 1.396 . S
C541 C540 1.396 . S
C541 C542 1.348 . S
C541 C559 1.472 . S
C542 H512 0.929 . S
C542 C541 1.348 . S
C542 C543 1.443 . S
C543 H510 0.932 . S
C543 C538 1.388 . S
C543 C542 1.443 . S
C544 N524 1.433 . S
C544 C545 1.363 . S
C544 C549 1.370 . S
C545 H513 0.929 . S
C545 C544 1.363 . S
C545 C546 1.385 . S
C546 H514 0.930 . S
C546 C545 1.385 . S
C546 C547 1.357 . S
C547 C546 1.357 . S
C547 C548 1.406 . S
C548 H515 0.929 . S
C548 C547 1.406 . S
C548 C549 1.391 . S
C549 H516 0.931 . S
C549 C544 1.370 . S
C549 C548 1.391 . S
C550 N524 1.435 . S
C550 C551 1.358 . S
C550 C555 1.371 . S
C551 H517 0.930 . S
C551 C550 1.358 . S
C551 C552 1.405 . S
C552 H518 0.932 . S
C552 C551 1.405 . S
C552 C553 1.383 . S
C553 C552 1.383 . S
C553 C554 1.393 . S
C554 H519 0.931 . S
C554 C553 1.393 . S
C554 C555 1.382 . S
C555 H520 0.929 . S
C555 C550 1.371 . S
C555 C554 1.382 . S
C556 N524 1.423 . S
C556 C557 1.362 . S
C556 C561 1.388 . S
C557 H521 0.929 . S
C557 C556 1.362 . S
C557 C558 1.376 . S
C558 H522 0.931 . S
C558 C557 1.376 . S
C558 C559 1.396 . S
C559 C541 1.472 . S
C559 C558 1.396 . S
C559 C560 1.348 . S
C560 H523 0.929 . S
C560 C559 1.348 . S
C560 C561 1.443 . S
C561 H525 0.932 . S
C561 C556 1.388 . S
C561 C560 1.443 . S
H562 C589 0.929 . S
N563 C588 1.433 . S
N563 C594 1.435 . S
N563 C600 1.423 . S
H564 C590 0.930 . S
H565 C593 0.931 . S
H566 C592 0.929 . S
H567 C595 0.930 . S
H568 C596 0.932 . S
H569 C599 0.929 . S
H570 C598 0.931 . S
H571 C601 0.929 . S
H572 C605 0.932 . S
H573 C602 0.931 . S
H574 C604 0.929 . S
H575 C607 0.929 . S
H576 C608 0.930 . S
H577 C610 0.929 . S
H578 C611 0.931 . S
H579 C613 0.930 . S
H580 C614 0.932 . S
H581 C616 0.931 . S
H582 C617 0.929 . S
H583 C619 0.929 . S
H584 C620 0.931 . S
H585 C622 0.929 . S
N586 C606 1.433 . S
N586 C612 1.435 . S
N586 C618 1.423 . S
H587 C623 0.932 . S
C588 N563 1.433 . S
C588 C589 1.363 . S
C588 C593 1.370 . S
C589 H562 0.929 . S
C589 C588 1.363 . S
C589 C590 1.385 . S
C590 H564 0.930 . S
C590 C589 1.385 . S
C590 C591 1.357 . S
C591 C590 1.357 . S
C591 C592 1.406 . S
C592 H566 0.929 . S
C592 C591 1.406 . S
C592 C593 1.391 . S
C593 H565 0.931 . S
C593 C588 1.370 . S
C593 C592 1.391 . S
C594 N563 1.435 . S
C594 C595 1.358 . S
C594 C599 1.371 . S
C595 H567 0.930 . S
C595 C594 1.358 . S
C595 C596 1.405 . S
C596 H568 0.932 . S
C596 C595 1.405 . S
C596 C597 1.383 . S
C597 C596 1.383 . S
C597 C598 1.393 . S
C598 H570 0.931 . S
C598 C597 1.393 . S
C598 C599 1.382 . S
C599 H569 0.929 . S
C599 C594 1.371 . S
C599 C598 1.382 . S
C600 N563 1.423 . S
C600 C601 1.362 . S
C600 C605 1.388 . S
C601 H571 0.929 . S
C601 C600 1.362 . S
C601 C602 1.376 . S
C602 H573 0.931 . S
C602 C601 1.376 . S
C602 C603 1.396 . S
C603 C602 1.396 . S
C603 C604 1.348 . S
C603 C621 1.472 . S
C604 H574 0.929 . S
C604 C603 1.348 . S
C604 C605 1.443 . S
C605 H572 0.932 . S
C605 C600 1.388 . S
C605 C604 1.443 . S
C606 N586 1.433 . S
C606 C607 1.363 . S
C606 C611 1.370 . S
C607 H575 0.929 . S
C607 C606 1.363 . S
C607 C608 1.385 . S
C608 H576 0.930 . S
C608 C607 1.385 . S
C608 C609 1.357 . S
C609 C608 1.357 . S
C609 C610 1.406 . S
C610 H577 0.929 . S
C610 C609 1.406 . S
C610 C611 1.391 . S
C611 H578 0.931 . S
C611 C606 1.370 . S
C611 C610 1.391 . S
C612 N586 1.435 . S
C612 C613 1.358 . S
C612 C617 1.371 . S
C613 H579 0.930 . S
C613 C612 1.358 . S
C613 C614 1.405 . S
C614 H580 0.932 . S
C614 C613 1.405 . S
C614 C615 1.383 . S
C615 C614 1.383 . S
C615 C616 1.393 . S
C616 H581 0.931 . S
C616 C615 1.393 . S
C616 C617 1.382 . S
C617 H582 0.929 . S
C617 C612 1.371 . S
C617 C616 1.382 . S
C618 N586 1.423 . S
C618 C619 1.362 . S
C618 C623 1.388 . S
C619 H583 0.929 . S
C619 C618 1.362 . S
C619 C620 1.376 . S
C620 H584 0.931 . S
C620 C619 1.376 . S
C620 C621 1.396 . S
C621 C603 1.472 . S
C621 C620 1.396 . S
C621 C622 1.348 . S
C622 H585 0.929 . S
C622 C621 1.348 . S
C622 C623 1.443 . S
C623 H587 0.932 . S
C623 C618 1.388 . S
C623 C622 1.443 . S
H624 C651 0.929 . S
N625 C650 1.433 . S
N625 C656 1.435 . S
N625 C662 1.423 . S
H626 C652 0.930 . S
H627 C655 0.931 . S
H628 C654 0.929 . S
H629 C657 0.930 . S
H630 C658 0.932 . S
H631 C661 0.929 . S
H632 C660 0.931 . S
H633 C663 0.929 . S
H634 C667 0.932 . S
H635 C664 0.931 . S
H636 C666 0.929 . S
H637 C669 0.929 . S
H638 C670 0.930 . S
H639 C672 0.929 . S
H640 C673 0.931 . S
H641 C675 0.930 . S
H642 C676 0.932 . S
H643 C678 0.931 . S
H644 C679 0.929 . S
H645 C681 0.929 . S
H646 C682 0.931 . S
H647 C684 0.929 . S
N648 C668 1.433 . S
N648 C674 1.435 . S
N648 C680 1.423 . S
H649 C685 0.932 . S
C650 N625 1.433 . S
C650 C651 1.363 . S
C650 C655 1.370 . S
C651 H624 0.929 . S
C651 C650 1.363 . S
C651 C652 1.385 . S
C652 H626 0.930 . S
C652 C651 1.385 . S
C652 C653 1.357 . S
C653 C652 1.357 . S
C653 C654 1.406 . S
C654 H628 0.929 . S
C654 C653 1.406 . S
C654 C655 1.391 . S
C655 H627 0.931 . S
C655 C650 1.370 . S
C655 C654 1.391 . S
C656 N625 1.435 . S
C656 C657 1.358 . S
C656 C661 1.371 . S
C657 H629 0.930 . S
C657 C656 1.358 . S
C657 C658 1.405 . S
C658 H630 0.932 . S
C658 C657 1.405 . S
C658 C659 1.383 . S
C659 C658 1.383 . S
C659 C660 1.393 . S
C660 H632 0.931 . S
C660 C659 1.393 . S
C660 C661 1.382 . S
C661 H631 0.929 . S
C661 C656 1.371 . S
C661 C660 1.382 . S
C662 N625 1.423 . S
C662 C663 1.362 . S
C662 C667 1.388 . S
C663 H633 0.929 . S
C663 C662 1.362 . S
C663 C664 1.376 . S
C664 H635 0.931 . S
C664 C663 1.376 . S
C664 C665 1.396 . S
C665 C664 1.396 . S
C665 C666 1.348 . S
C665 C683 1.472 . S
C666 H636 0.929 . S
C666 C665 1.348 . S
C666 C667 1.443 . S
C667 H634 0.932 . S
C667 C662 1.388 . S
C667 C666 1.443 . S
C668 N648 1.433 . S
C668 C669 1.363 . S
C668 C673 1.370 . S
C669 H637 0.929 . S
C669 C668 1.363 . S
C669 C670 1.385 . S
C670 H638 0.930 . S
C670 C669 1.385 . S
C670 C671 1.357 . S
C671 C670 1.357 . S
C671 C672 1.406 . S
C672 H639 0.929 . S
C672 C671 1.406 . S
C672 C673 1.391 . S
C673 H640 0.931 . S
C673 C668 1.370 . S
C673 C672 1.391 . S
C674 N648 1.435 . S
C674 C675 1.358 . S
C674 C679 1.371 . S
C675 H641 0.930 . S
C675 C674 1.358 . S
C675 C676 1.405 . S
C676 H642 0.932 . S
C676 C675 1.405 . S
C676 C677 1.383 . S
C677 C676 1.383 . S
C677 C678 1.393 . S
C678 H643 0.931 . S
C678 C677 1.393 . S
C678 C679 1.382 . S
C679 H644 0.929 . S
C679 C674 1.371 . S
C679 C678 1.382 . S
C680 N648 1.423 . S
C680 C681 1.362 . S
C680 C685 1.388 . S
C681 H645 0.929 . S
C681 C680 1.362 . S
C681 C682 1.376 . S
C682 H646 0.931 . S
C682 C681 1.376 . S
C682 C683 1.396 . S
C683 C665 1.472 . S
C683 C682 1.396 . S
C683 C684 1.348 . S
C684 H647 0.929 . S
C684 C683 1.348 . S
C684 C685 1.443 . S
C685 H649 0.932 . S
C685 C680 1.388 . S
C685 C684 1.443 . S
H686 C713 0.929 . S
N687 C712 1.433 . S
N687 C718 1.435 . S
N687 C724 1.423 . S
H688 C714 0.930 . S
H689 C717 0.931 . S
H690 C716 0.929 . S
H691 C719 0.930 . S
H692 C720 0.932 . S
H693 C723 0.929 . S
H694 C722 0.931 . S
H695 C725 0.929 . S
H696 C729 0.932 . S
H697 C726 0.931 . S
H698 C728 0.929 . S
H699 C731 0.929 . S
H700 C732 0.930 . S
H701 C734 0.929 . S
H702 C735 0.931 . S
H703 C737 0.930 . S
H704 C738 0.932 . S
H705 C740 0.931 . S
H706 C741 0.929 . S
H707 C743 0.929 . S
H708 C744 0.931 . S
H709 C746 0.929 . S
N710 C730 1.433 . S
N710 C736 1.435 . S
N710 C742 1.423 . S
H711 C747 0.932 . S
C712 N687 1.433 . S
C712 C713 1.363 . S
C712 C717 1.370 . S
C713 H686 0.929 . S
C713 C712 1.363 . S
C713 C714 1.385 . S
C714 H688 0.930 . S
C714 C713 1.385 . S
C714 C715 1.357 . S
C715 C714 1.357 . S
C715 C716 1.406 . S
C716 H690 0.929 . S
C716 C715 1.406 . S
C716 C717 1.391 . S
C717 H689 0.931 . S
C717 C712 1.370 . S
C717 C716 1.391 . S
C718 N687 1.435 . S
C718 C719 1.358 . S
C718 C723 1.371 . S
C719 H691 0.930 . S
C719 C718 1.358 . S
C719 C720 1.405 . S
C720 H692 0.932 . S
C720 C719 1.405 . S
C720 C721 1.383 . S
C721 C720 1.383 . S
C721 C722 1.393 . S
C722 H694 0.931 . S
C722 C721 1.393 . S
C722 C723 1.382 . S
C723 H693 0.929 . S
C723 C718 1.371 . S
C723 C722 1.382 . S
C724 N687 1.423 . S
C724 C725 1.362 . S
C724 C729 1.388 . S
C725 H695 0.929 . S
C725 C724 1.362 . S
C725 C726 1.376 . S
C726 H697 0.931 . S
C726 C725 1.376 . S
C726 C727 1.396 . S
C727 C726 1.396 . S
C727 C728 1.348 . S
C727 C745 1.472 . S
C728 H698 0.929 . S
C728 C727 1.348 . S
C728 C729 1.443 . S
C729 H696 0.932 . S
C729 C724 1.388 . S
C729 C728 1.443 . S
C730 N710 1.433 . S
C730 C731 1.363 . S
C730 C735 1.370 . S
C731 H699 0.929 . S
C731 C730 1.363 . S
C731 C732 1.385 . S
C732 H700 0.930 . S
C732 C731 1.385 . S
C732 C733 1.357 . S
C733 C732 1.357 . S
C733 C734 1.406 . S
C734 H701 0.929 . S
C734 C733 1.406 . S
C734 C735 1.391 . S
C735 H702 0.931 . S
C735 C730 1.370 . S
C735 C734 1.391 . S
C736 N710 1.435 . S
C736 C737 1.358 . S
C736 C741 1.371 . S
C737 H703 0.930 . S
C737 C736 1.358 . S
C737 C738 1.405 . S
C738 H704 0.932 . S
C738 C737 1.405 . S
C738 C739 1.383 . S
C739 C738 1.383 . S
C739 C740 1.393 . S
C740 H705 0.931 . S
C740 C739 1.393 . S
C740 C741 1.382 . S
C741 H706 0.929 . S
C741 C736 1.371 . S
C741 C740 1.382 . S
C742 N710 1.423 . S
C742 C743 1.362 . S
C742 C747 1.388 . S
C743 H707 0.929 . S
C743 C742 1.362 . S
C743 C744 1.376 . S
C744 H708 0.931 . S
C744 C743 1.376 . S
C744 C745 1.396 . S
C745 C727 1.472 . S
C745 C744 1.396 . S
C745 C746 1.348 . S
C746 H709 0.929 . S
C746 C745 1.348 . S
C746 C747 1.443 . S
C747 H711 0.932 . S
C747 C742 1.388 . S
C747 C746 1.443 . S
H748 C775 0.929 . S
N749 C774 1.433 . S
N749 C780 1.435 . S
N749 C786 1.423 . S
H750 C776 0.930 . S
H751 C779 0.931 . S
H752 C778 0.929 . S
H753 C781 0.930 . S
H754 C782 0.932 . S
H755 C785 0.929 . S
H756 C784 0.931 . S
H757 C787 0.929 . S
H758 C791 0.932 . S
H759 C788 0.931 . S
H760 C790 0.929 . S
H761 C793 0.929 . S
H762 C794 0.930 . S
H763 C796 0.929 . S
H764 C797 0.931 . S
H765 C799 0.930 . S
H766 C800 0.932 . S
H767 C802 0.931 . S
H768 C803 0.929 . S
H769 C805 0.929 . S
H770 C806 0.931 . S
H771 C808 0.929 . S
N772 C792 1.433 . S
N772 C798 1.435 . S
N772 C804 1.423 . S
H773 C809 0.932 . S
C774 N749 1.433 . S
C774 C775 1.363 . S
C774 C779 1.370 . S
C775 H748 0.929 . S
C775 C774 1.363 . S
C775 C776 1.385 . S
C776 H750 0.930 . S
C776 C775 1.385 . S
C776 C777 1.357 . S
C777 C776 1.357 . S
C777 C778 1.406 . S
C778 H752 0.929 . S
C778 C777 1.406 . S
C778 C779 1.391 . S
C779 H751 0.931 . S
C779 C774 1.370 . S
C779 C778 1.391 . S
C780 N749 1.435 . S
C780 C781 1.358 . S
C780 C785 1.371 . S
C781 H753 0.930 . S
C781 C780 1.358 . S
C781 C782 1.405 . S
C782 H754 0.932 . S
C782 C781 1.405 . S
C782 C783 1.383 . S
C783 C782 1.383 . S
C783 C784 1.393 . S
C784 H756 0.931 . S
C784 C783 1.393 . S
C784 C785 1.382 . S
C785 H755 0.929 . S
C785 C780 1.371 . S
C785 C784 1.382 . S
C786 N749 1.423 . S
C786 C787 1.362 . S
C786 C791 1.388 . S
C787 H757 0.929 . S
C787 C786 1.362 . S
C787 C788 1.376 . S
C788 H759 0.931 . S
C788 C787 1.376 . S
C788 C789 1.396 . S
C789 C788 1.396 . S
C789 C790 1.348 . S
C789 C807 1.472 . S
C790 H760 0.929 . S
C790 C789 1.348 . S
C790 C791 1.443 . S
C791 H758 0.932 . S
C791 C786 1.388 . S
C791 C790 1.443 . S
C792 N772 1.433 . S
C792 C793 1.363 . S
C792 C797 1.370 . S
C793 H761 0.929 . S
C793 C792 1.363 . S
C793 C794 1.385 . S
C794 H762 0.930 . S
C794 C793 1.385 . S
C794 C795 1.357 . S
C795 C794 1.357 . S
C795 C796 1.406 . S
C796 H763 0.929 . S
C796 C795 1.406 . S
C796 C797 1.391 . S
C797 H764 0.931 . S
C797 C792 1.370 . S
C797 C796 1.391 . S
C798 N772 1.435 . S
C798 C799 1.358 . S
C798 C803 1.371 . S
C799 H765 0.930 . S
C799 C798 1.358 . S
C799 C800 1.405 . S
C800 H766 0.932 . S
C800 C799 1.405 . S
C800 C801 1.383 . S
C801 C800 1.383 . S
C801 C802 1.393 . S
C802 H767 0.931 . S
C802 C801 1.393 . S
C802 C803 1.382 . S
C803 H768 0.929 . S
C803 C798 1.371 . S
C803 C802 1.382 . S
C804 N772 1.423 . S
C804 C805 1.362 . S
C804 C809 1.388 . S
C805 H769 0.929 . S
C805 C804 1.362 . S
C805 C806 1.376 . S
C806 H770 0.931 . S
C806 C805 1.376 . S
C806 C807 1.396 . S
C807 C789 1.472 . S
C807 C806 1.396 . S
C807 C808 1.348 . S
C808 H771 0.929 . S
C808 C807 1.348 . S
C808 C809 1.443 . S
C809 H773 0.932 . S
C809 C804 1.388 . S
C809 C808 1.443 . S
H810 C837 0.929 . S
N811 C836 1.433 . S
N811 C842 1.435 . S
N811 C848 1.423 . S
H812 C838 0.930 . S
H813 C841 0.931 1_655 S
H814 C840 0.929 . S
H815 C843 0.930 1_655 S
H816 C844 0.932 1_655 S
H817 C847 0.929 . S
H818 C846 0.931 . S
H819 C849 0.929 . S
H820 C853 0.932 . S
H821 C850 0.931 . S
H822 C852 0.929 . S
H823 C855 0.929 . S
H824 C856 0.930 . S
H825 C858 0.929 . S
H826 C859 0.931 1_655 S
H827 C861 0.930 1_655 S
H828 C862 0.932 1_655 S
H829 C864 0.931 . S
H830 C865 0.929 . S
H831 C867 0.929 . S
H832 C868 0.931 . S
H833 C870 0.929 . S
N834 C854 1.433 . S
N834 C860 1.435 . S
N834 C866 1.423 . S
H835 C871 0.932 . S
C836 N811 1.433 . S
C836 C837 1.363 . S
C836 C841 1.370 . S
C837 H810 0.929 . S
C837 C836 1.363 . S
C837 C838 1.385 . S
C838 H812 0.930 . S
C838 C837 1.385 . S
C838 C839 1.357 . S
C839 C838 1.357 . S
C839 C840 1.406 1_455 S
C840 H814 0.929 . S
C840 C839 1.406 1_655 S
C840 C841 1.391 1_655 S
C841 H813 0.931 1_455 S
C841 C836 1.370 . S
C841 C840 1.391 1_455 S
C842 N811 1.435 . S
C842 C843 1.358 . S
C842 C847 1.371 . S
C843 H815 0.930 1_455 S
C843 C842 1.358 . S
C843 C844 1.405 . S
C844 H816 0.932 1_455 S
C844 C843 1.405 . S
C844 C845 1.383 . S
C845 C844 1.383 . S
C845 C846 1.393 . S
C846 H818 0.931 . S
C846 C845 1.393 . S
C846 C847 1.382 . S
C847 H817 0.929 . S
C847 C842 1.371 . S
C847 C846 1.382 . S
C848 N811 1.423 . S
C848 C849 1.362 . S
C848 C853 1.388 . S
C849 H819 0.929 . S
C849 C848 1.362 . S
C849 C850 1.376 . S
C850 H821 0.931 . S
C850 C849 1.376 . S
C850 C851 1.396 . S
C851 C850 1.396 . S
C851 C852 1.348 . S
C851 C869 1.472 . S
C852 H822 0.929 . S
C852 C851 1.348 . S
C852 C853 1.443 . S
C853 H820 0.932 . S
C853 C848 1.388 . S
C853 C852 1.443 . S
C854 N834 1.433 . S
C854 C855 1.363 . S
C854 C859 1.370 . S
C855 H823 0.929 . S
C855 C854 1.363 . S
C855 C856 1.385 . S
C856 H824 0.930 . S
C856 C855 1.385 . S
C856 C857 1.357 . S
C857 C856 1.357 . S
C857 C858 1.406 1_455 S
C858 H825 0.929 . S
C858 C857 1.406 1_655 S
C858 C859 1.391 1_655 S
C859 H826 0.931 1_455 S
C859 C854 1.370 . S
C859 C858 1.391 1_455 S
C860 N834 1.435 . S
C860 C861 1.358 . S
C860 C865 1.371 . S
C861 H827 0.930 1_455 S
C861 C860 1.358 . S
C861 C862 1.405 . S
C862 H828 0.932 1_455 S
C862 C861 1.405 . S
C862 C863 1.383 . S
C863 C862 1.383 . S
C863 C864 1.393 . S
C864 H829 0.931 . S
C864 C863 1.393 . S
C864 C865 1.382 . S
C865 H830 0.929 . S
C865 C860 1.371 . S
C865 C864 1.382 . S
C866 N834 1.423 . S
C866 C867 1.362 . S
C866 C871 1.388 . S
C867 H831 0.929 . S
C867 C866 1.362 . S
C867 C868 1.376 . S
C868 H832 0.931 . S
C868 C867 1.376 . S
C868 C869 1.396 . S
C869 C851 1.472 . S
C869 C868 1.396 . S
C869 C870 1.348 . S
C870 H833 0.929 . S
C870 C869 1.348 . S
C870 C871 1.443 . S
C871 H835 0.932 . S
C871 C866 1.388 . S
C871 C870 1.443 . S
H872 C899 0.929 . S
N873 C898 1.433 . S
N873 C904 1.435 . S
N873 C910 1.423 . S
H874 C900 0.930 . S
H875 C903 0.931 . S
H876 C902 0.929 . S
H877 C905 0.930 . S
H878 C906 0.932 . S
H879 C909 0.929 . S
H880 C908 0.931 . S
H881 C911 0.929 . S
H882 C915 0.932 . S
H883 C912 0.931 . S
H884 C914 0.929 . S
H885 C917 0.929 . S
H886 C918 0.930 . S
H887 C920 0.929 . S
H888 C921 0.931 . S
H889 C923 0.930 . S
H890 C924 0.932 . S
H891 C926 0.931 . S
H892 C927 0.929 . S
H893 C929 0.929 . S
H894 C930 0.931 . S
H895 C932 0.929 . S
N896 C916 1.433 . S
N896 C922 1.435 . S
N896 C928 1.423 . S
H897 C933 0.932 . S
C898 N873 1.433 . S
C898 C899 1.363 . S
C898 C903 1.370 . S
C899 H872 0.929 . S
C899 C898 1.363 . S
C899 C900 1.385 . S
C900 H874 0.930 . S
C900 C899 1.385 . S
C900 C901 1.357 . S
C901 C900 1.357 . S
C901 C902 1.406 . S
C902 H876 0.929 . S
C902 C901 1.406 . S
C902 C903 1.391 . S
C903 H875 0.931 . S
C903 C898 1.370 . S
C903 C902 1.391 . S
C904 N873 1.435 . S
C904 C905 1.358 . S
C904 C909 1.371 . S
C905 H877 0.930 . S
C905 C904 1.358 . S
C905 C906 1.405 . S
C906 H878 0.932 . S
C906 C905 1.405 . S
C906 C907 1.383 . S
C907 C906 1.383 . S
C907 C908 1.393 . S
C908 H880 0.931 . S
C908 C907 1.393 . S
C908 C909 1.382 . S
C909 H879 0.929 . S
C909 C904 1.371 . S
C909 C908 1.382 . S
C910 N873 1.423 . S
C910 C911 1.362 . S
C910 C915 1.388 . S
C911 H881 0.929 . S
C911 C910 1.362 . S
C911 C912 1.376 . S
C912 H883 0.931 . S
C912 C911 1.376 . S
C912 C913 1.396 . S
C913 C912 1.396 . S
C913 C914 1.348 . S
C913 C931 1.472 . S
C914 H884 0.929 . S
C914 C913 1.348 . S
C914 C915 1.443 . S
C915 H882 0.932 . S
C915 C910 1.388 . S
C915 C914 1.443 . S
C916 N896 1.433 . S
C916 C917 1.363 . S
C916 C921 1.370 . S
C917 H885 0.929 . S
C917 C916 1.363 . S
C917 C918 1.385 . S
C918 H886 0.930 . S
C918 C917 1.385 . S
C918 C919 1.357 . S
C919 C918 1.357 . S
C919 C920 1.406 . S
C920 H887 0.929 . S
C920 C919 1.406 . S
C920 C921 1.391 . S
C921 H888 0.931 . S
C921 C916 1.370 . S
C921 C920 1.391 . S
C922 N896 1.435 . S
C922 C923 1.358 . S
C922 C927 1.371 . S
C923 H889 0.930 . S
C923 C922 1.358 . S
C923 C924 1.405 . S
C924 H890 0.932 . S
C924 C923 1.405 . S
C924 C925 1.383 . S
C925 C924 1.383 . S
C925 C926 1.393 . S
C926 H891 0.931 . S
C926 C925 1.393 . S
C926 C927 1.382 . S
C927 H892 0.929 . S
C927 C922 1.371 . S
C927 C926 1.382 . S
C928 N896 1.423 . S
C928 C929 1.362 . S
C928 C933 1.388 . S
C929 H893 0.929 . S
C929 C928 1.362 . S
C929 C930 1.376 . S
C930 H894 0.931 . S
C930 C929 1.376 . S
C930 C931 1.396 . S
C931 C913 1.472 . S
C931 C930 1.396 . S
C931 C932 1.348 . S
C932 H895 0.929 . S
C932 C931 1.348 . S
C932 C933 1.443 . S
C933 H897 0.932 . S
C933 C928 1.388 . S
C933 C932 1.443 . S
H934 C961 0.929 . S
N935 C960 1.433 . S
N935 C966 1.435 . S
N935 C972 1.423 . S
H936 C962 0.930 . S
H937 C965 0.931 . S
H938 C964 0.929 . S
H939 C967 0.930 . S
H940 C968 0.932 . S
H941 C971 0.929 . S
H942 C970 0.931 . S
H943 C973 0.929 . S
H944 C977 0.932 1_545 S
H945 C974 0.931 . S
H946 C976 0.967 . S
H947 C979 0.929 . S
H948 C980 0.930 . S
H949 C982 0.929 . S
H950 C983 0.931 . S
H951 C985 0.930 . S
H952 C986 0.932 . S
H953 C988 0.931 . S
H954 C989 0.929 . S
H955 C991 0.929 . S
H956 C992 0.931 . S
H957 C994 0.937 . S
N958 C978 1.433 . S
N958 C984 1.435 . S
N958 C990 1.423 . S
H959 C995 0.932 1_545 S
C960 N935 1.433 . S
C960 C961 1.363 . S
C960 C965 1.370 1_565 S
C961 H934 0.929 . S
C961 C960 1.363 . S
C961 C962 1.385 . S
C962 H936 0.930 . S
C962 C961 1.385 . S
C962 C963 1.357 1_565 S
C963 C962 1.357 1_545 S
C963 C964 1.406 . S
C964 H938 0.929 . S
C964 C963 1.406 . S
C964 C965 1.391 . S
C965 H937 0.931 . S
C965 C960 1.370 1_545 S
C965 C964 1.391 . S
C966 N935 1.435 . S
C966 C967 1.358 1_565 S
C966 C971 1.371 . S
C967 H939 0.930 . S
C967 C966 1.358 1_545 S
C967 C968 1.405 . S
C968 H940 0.932 . S
C968 C967 1.405 . S
C968 C969 1.383 1_545 S
C969 C968 1.383 1_565 S
C969 C970 1.393 . S
C970 H942 0.931 . S
C970 C969 1.393 . S
C970 C971 1.382 . S
C971 H941 0.929 . S
C971 C966 1.371 . S
C971 C970 1.382 . S
C972 N935 1.423 . S
C972 C973 1.362 . S
C972 C977 1.388 . S
C973 H943 0.929 . S
C973 C972 1.362 . S
C973 C974 1.376 . S
C974 H945 0.931 . S
C974 C973 1.376 . S
C974 C975 1.396 . S
C975 C974 1.396 . S
C975 C976 1.348 . S
C975 C993 1.472 . S
C976 H946 0.967 . S
C976 C975 1.348 . S
C976 C977 1.443 . S
C977 H944 0.932 1_565 S
C977 C972 1.388 . S
C977 C976 1.443 . S
C978 N958 1.433 . S
C978 C979 1.363 . S
C978 C983 1.370 1_565 S
C979 H947 0.929 . S
C979 C978 1.363 . S
C979 C980 1.385 . S
C980 H948 0.930 . S
C980 C979 1.385 . S
C980 C981 1.357 1_565 S
C981 C980 1.357 1_545 S
C981 C982 1.406 . S
C982 H949 0.929 . S
C982 C981 1.406 . S
C982 C983 1.391 . S
C983 H950 0.931 . S
C983 C978 1.370 1_545 S
C983 C982 1.391 . S
C984 N958 1.435 . S
C984 C985 1.358 1_565 S
C984 C989 1.371 . S
C985 H951 0.930 . S
C985 C984 1.358 1_545 S
C985 C986 1.405 . S
C986 H952 0.932 . S
C986 C985 1.405 . S
C986 C987 1.383 1_545 S
C987 C986 1.383 1_565 S
C987 C988 1.393 . S
C988 H953 0.931 . S
C988 C987 1.393 . S
C988 C989 1.382 . S
C989 H954 0.929 . S
C989 C984 1.371 . S
C989 C988 1.382 . S
C990 N958 1.423 . S
C990 C991 1.362 . S
C990 C995 1.388 . S
C991 H955 0.929 . S
C991 C990 1.362 . S
C991 C992 1.376 . S
C992 H956 0.931 . S
C992 C991 1.376 . S
C992 C993 1.396 . S
C993 C975 1.472 . S
C993 C992 1.396 . S
C993 C994 1.348 . S
C994 H957 0.937 . S
C994 C993 1.348 . S
C994 C995 1.443 . S
C995 H959 0.932 1_565 S
C995 C990 1.388 . S
C995 C994 1.443 . S
H996 C1023 0.929 . S
N997 C1022 1.452 . S
N997 C1028 1.477 . S
N997 C1034 1.321 1_545 S
H998 C1024 0.930 . S
H999 C1027 0.931 . S
H1000 C1026 0.929 . S
H1001 C1029 0.930 . S
H1002 C1030 0.932 . S
H1003 C1033 0.929 . S
H1004 C1032 0.918 1_565 S
H1005 C1035 0.929 . S
H1006 C1039 0.932 . S
H1007 C1036 0.931 . S
H1008 C1038 0.929 . S
H1009 C1041 0.929 . S
H1010 C1042 0.930 . S
H1011 C1044 0.929 . S
H1012 C1045 0.931 . S
H1013 C1047 0.930 . S
H1014 C1048 0.932 . S
H1015 C1050 0.921 1_565 S
H1016 C1051 0.929 . S
H1017 C1053 0.929 . S
H1018 C1054 0.931 . S
H1019 C1056 0.929 . S
N1020 C1040 1.422 . S
N1020 C1046 1.425 . S
N1020 C1052 1.504 1_545 S
H1021 C1057 0.932 . S
C1022 N997 1.452 . S
C1022 C1023 1.363 1_545 S
C1022 C1027 1.370 . S
C1023 H996 0.929 . S
C1023 C1022 1.363 1_565 S
C1023 C1024 1.385 . S
C1024 H998 0.930 . S
C1024 C1023 1.385 . S
C1024 C1025 1.357 1_565 S
C1025 C1024 1.357 1_545 S
C1025 C1026 1.406 . S
C1026 H1000 0.929 . S
C1026 C1025 1.406 . S
C1026 C1027 1.391 . S
C1027 H999 0.931 . S
C1027 C1022 1.370 . S
C1027 C1026 1.391 . S
C1028 N997 1.477 . S
C1028 C1029 1.358 . S
C1028 C1033 1.371 1_545 S
C1029 H1001 0.930 . S
C1029 C1028 1.358 . S
C1029 C1030 1.405 . S
C1030 H1002 0.932 . S
C1030 C1029 1.405 . S
C1030 C1031 1.383 . S
C1031 C1030 1.383 . S
C1031 C1032 1.420 . S
C1032 H1004 0.918 1_545 S
C1032 C1031 1.420 . S
C1032 C1033 1.368 1_545 S
C1033 H1003 0.929 . S
C1033 C1028 1.371 1_565 S
C1033 C1032 1.368 1_565 S
C1034 N997 1.321 1_565 S
C1034 C1035 1.443 . S
C1034 C1039 1.365 1_565 S
C1035 H1005 0.929 . S
C1035 C1034 1.443 . S
C1035 C1036 1.376 . S
C1036 H1007 0.931 . S
C1036 C1035 1.376 . S
C1036 C1037 1.396 . S
C1037 C1036 1.396 . S
C1037 C1038 1.348 1_565 S
C1037 C1055 1.472 . S
C1038 H1008 0.929 . S
C1038 C1037 1.348 1_545 S
C1038 C1039 1.443 . S
C1039 H1006 0.932 . S
C1039 C1034 1.365 1_545 S
C1039 C1038 1.443 . S
C1040 N1020 1.422 . S
C1040 C1041 1.363 1_545 S
C1040 C1045 1.370 . S
C1041 H1009 0.929 . S
C1041 C1040 1.363 1_565 S
C1041 C1042 1.385 . S
C1042 H1010 0.930 . S
C1042 C1041 1.385 . S
C1042 C1043 1.357 1_565 S
C1043 C1042 1.357 1_545 S
C1043 C1044 1.406 . S
C1044 H1011 0.929 . S
C1044 C1043 1.406 . S
C1044 C1045 1.391 . S
C1045 H1012 0.931 . S
C1045 C1040 1.370 . S
C1045 C1044 1.391 . S
C1046 N1020 1.425 . S
C1046 C1047 1.358 . S
C1046 C1051 1.371 1_545 S
C1047 H1013 0.930 . S
C1047 C1046 1.358 . S
C1047 C1048 1.405 . S
C1048 H1014 0.932 . S
C1048 C1047 1.405 . S
C1048 C1049 1.383 . S
C1049 C1048 1.383 . S
C1049 C1050 1.400 . S
C1050 H1015 0.921 1_545 S
C1050 C1049 1.400 . S
C1050 C1051 1.386 1_545 S
C1051 H1016 0.929 . S
C1051 C1046 1.371 1_565 S
C1051 C1050 1.386 1_565 S
C1052 N1020 1.504 1_565 S
C1052 C1053 1.395 . S
C1052 C1057 1.317 1_565 S
C1053 H1017 0.929 . S
C1053 C1052 1.395 . S
C1053 C1054 1.376 . S
C1054 H1018 0.931 . S
C1054 C1053 1.376 . S
C1054 C1055 1.396 . S
C1055 C1037 1.472 . S
C1055 C1054 1.396 . S
C1055 C1056 1.348 1_565 S
C1056 H1019 0.929 . S
C1056 C1055 1.348 1_545 S
C1056 C1057 1.443 . S
C1057 H1021 0.932 . S
C1057 C1052 1.317 1_545 S
C1057 C1056 1.443 . S
H1058 C1085 0.929 . S
N1059 C1084 1.433 . S
N1059 C1090 1.435 . S
N1059 C1096 1.423 . S
H1060 C1086 0.930 . S
H1061 C1089 0.931 . S
H1062 C1088 0.929 . S
H1063 C1091 0.930 . S
H1064 C1092 0.932 . S
H1065 C1095 0.929 . S
H1066 C1094 0.931 . S
H1067 C1097 0.929 . S
H1068 C1101 0.932 1_455 S
H1069 C1098 0.931 . S
H1070 C1100 0.967 . S
H1071 C1103 0.929 . S
H1072 C1104 0.930 . S
H1073 C1106 0.929 . S
H1074 C1107 0.931 . S
H1075 C1109 0.930 . S
H1076 C1110 0.932 . S
H1077 C1112 0.931 . S
H1078 C1113 0.929 . S
H1079 C1115 0.929 . S
H1080 C1116 0.931 . S
H1081 C1118 0.937 . S
N1082 C1102 1.433 . S
N1082 C1108 1.435 . S
N1082 C1114 1.423 . S
H1083 C1119 0.932 1_455 S
C1084 N1059 1.433 . S
C1084 C1085 1.363 . S
C1084 C1089 1.370 1_655 S
C1085 H1058 0.929 . S
C1085 C1084 1.363 . S
C1085 C1086 1.385 . S
C1086 H1060 0.930 . S
C1086 C1085 1.385 . S
C1086 C1087 1.357 1_655 S
C1087 C1086 1.357 1_455 S
C1087 C1088 1.406 . S
C1088 H1062 0.929 . S
C1088 C1087 1.406 . S
C1088 C1089 1.391 . S
C1089 H1061 0.931 . S
C1089 C1084 1.370 1_455 S
C1089 C1088 1.391 . S
C1090 N1059 1.435 . S
C1090 C1091 1.358 1_655 S
C1090 C1095 1.371 . S
C1091 H1063 0.930 . S
C1091 C1090 1.358 1_455 S
C1091 C1092 1.405 . S
C1092 H1064 0.932 . S
C1092 C1091 1.405 . S
C1092 C1093 1.383 1_455 S
C1093 C1092 1.383 1_655 S
C1093 C1094 1.393 . S
C1094 H1066 0.931 . S
C1094 C1093 1.393 . S
C1094 C1095 1.382 . S
C1095 H1065 0.929 . S
C1095 C1090 1.371 . S
C1095 C1094 1.382 . S
C1096 N1059 1.423 . S
C1096 C1097 1.362 . S
C1096 C1101 1.388 . S
C1097 H1067 0.929 . S
C1097 C1096 1.362 . S
C1097 C1098 1.376 . S
C1098 H1069 0.931 . S
C1098 C1097 1.376 . S
C1098 C1099 1.396 . S
C1099 C1098 1.396 . S
C1099 C1100 1.348 . S
C1099 C1117 1.472 . S
C1100 H1070 0.967 . S
C1100 C1099 1.348 . S
C1100 C1101 1.443 . S
C1101 H1068 0.932 1_655 S
C1101 C1096 1.388 . S
C1101 C1100 1.443 . S
C1102 N1082 1.433 . S
C1102 C1103 1.363 . S
C1102 C1107 1.370 1_655 S
C1103 H1071 0.929 . S
C1103 C1102 1.363 . S
C1103 C1104 1.385 . S
C1104 H1072 0.930 . S
C1104 C1103 1.385 . S
C1104 C1105 1.357 1_655 S
C1105 C1104 1.357 1_455 S
C1105 C1106 1.406 . S
C1106 H1073 0.929 . S
C1106 C1105 1.406 . S
C1106 C1107 1.391 . S
C1107 H1074 0.931 . S
C1107 C1102 1.370 1_455 S
C1107 C1106 1.391 . S
C1108 N1082 1.435 . S
C1108 C1109 1.358 1_655 S
C1108 C1113 1.371 . S
C1109 H1075 0.930 . S
C1109 C1108 1.358 1_455 S
C1109 C1110 1.405 . S
C1110 H1076 0.932 . S
C1110 C1109 1.405 . S
C1110 C1111 1.383 1_455 S
C1111 C1110 1.383 1_655 S
C1111 C1112 1.393 . S
C1112 H1077 0.931 . S
C1112 C1111 1.393 . S
C1112 C1113 1.382 . S
C1113 H1078 0.929 . S
C1113 C1108 1.371 . S
C1113 C1112 1.382 . S
C1114 N1082 1.423 . S
C1114 C1115 1.362 . S
C1114 C1119 1.388 . S
C1115 H1079 0.929 . S
C1115 C1114 1.362 . S
C1115 C1116 1.376 . S
C1116 H1080 0.931 . S
C1116 C1115 1.376 . S
C1116 C1117 1.396 . S
C1117 C1099 1.472 . S
C1117 C1116 1.396 . S
C1117 C1118 1.348 . S
C1118 H1081 0.937 . S
C1118 C1117 1.348 . S
C1118 C1119 1.443 . S
C1119 H1083 0.932 1_655 S
C1119 C1114 1.388 . S
C1119 C1118 1.443 . S
H1120 C1147 0.929 . S
N1121 C1146 1.433 . S
N1121 C1152 1.435 . S
N1121 C1158 1.423 . S
H1122 C1148 0.930 . S
H1123 C1151 0.931 . S
H1124 C1150 0.929 . S
H1125 C1153 0.930 . S
H1126 C1154 0.932 . S
H1127 C1157 0.929 . S
H1128 C1156 0.931 . S
H1129 C1159 0.929 . S
H1130 C1163 0.932 . S
H1131 C1160 0.931 . S
H1132 C1162 0.929 . S
H1133 C1165 0.929 . S
H1134 C1166 0.930 . S
H1135 C1168 0.929 . S
H1136 C1169 0.931 . S
H1137 C1171 0.930 . S
H1138 C1172 0.932 . S
H1139 C1174 0.931 . S
H1140 C1175 0.929 . S
H1141 C1177 0.929 . S
H1142 C1178 0.931 . S
H1143 C1180 0.929 . S
N1144 C1164 1.433 . S
N1144 C1170 1.435 . S
N1144 C1176 1.423 . S
H1145 C1181 0.932 . S
C1146 N1121 1.433 . S
C1146 C1147 1.363 . S
C1146 C1151 1.370 . S
C1147 H1120 0.929 . S
C1147 C1146 1.363 . S
C1147 C1148 1.385 . S
C1148 H1122 0.930 . S
C1148 C1147 1.385 . S
C1148 C1149 1.357 . S
C1149 C1148 1.357 . S
C1149 C1150 1.406 . S
C1150 H1124 0.929 . S
C1150 C1149 1.406 . S
C1150 C1151 1.391 . S
C1151 H1123 0.931 . S
C1151 C1146 1.370 . S
C1151 C1150 1.391 . S
C1152 N1121 1.435 . S
C1152 C1153 1.358 . S
C1152 C1157 1.371 . S
C1153 H1125 0.930 . S
C1153 C1152 1.358 . S
C1153 C1154 1.405 . S
C1154 H1126 0.932 . S
C1154 C1153 1.405 . S
C1154 C1155 1.383 . S
C1155 C1154 1.383 . S
C1155 C1156 1.393 . S
C1156 H1128 0.931 . S
C1156 C1155 1.393 . S
C1156 C1157 1.382 . S
C1157 H1127 0.929 . S
C1157 C1152 1.371 . S
C1157 C1156 1.382 . S
C1158 N1121 1.423 . S
C1158 C1159 1.362 . S
C1158 C1163 1.388 . S
C1159 H1129 0.929 . S
C1159 C1158 1.362 . S
C1159 C1160 1.376 . S
C1160 H1131 0.931 . S
C1160 C1159 1.376 . S
C1160 C1161 1.396 . S
C1161 C1160 1.396 . S
C1161 C1162 1.348 . S
C1161 C1179 1.472 . S
C1162 H1132 0.929 . S
C1162 C1161 1.348 . S
C1162 C1163 1.443 . S
C1163 H1130 0.932 . S
C1163 C1158 1.388 . S
C1163 C1162 1.443 . S
C1164 N1144 1.433 . S
C1164 C1165 1.363 . S
C1164 C1169 1.370 . S
C1165 H1133 0.929 . S
C1165 C1164 1.363 . S
C1165 C1166 1.385 . S
C1166 H1134 0.930 . S
C1166 C1165 1.385 . S
C1166 C1167 1.357 . S
C1167 C1166 1.357 . S
C1167 C1168 1.406 . S
C1168 H1135 0.929 . S
C1168 C1167 1.406 . S
C1168 C1169 1.391 . S
C1169 H1136 0.931 . S
C1169 C1164 1.370 . S
C1169 C1168 1.391 . S
C1170 N1144 1.435 . S
C1170 C1171 1.358 . S
C1170 C1175 1.371 . S
C1171 H1137 0.930 . S
C1171 C1170 1.358 . S
C1171 C1172 1.405 . S
C1172 H1138 0.932 . S
C1172 C1171 1.405 . S
C1172 C1173 1.383 . S
C1173 C1172 1.383 . S
C1173 C1174 1.393 . S
C1174 H1139 0.931 . S
C1174 C1173 1.393 . S
C1174 C1175 1.382 . S
C1175 H1140 0.929 . S
C1175 C1170 1.371 . S
C1175 C1174 1.382 . S
C1176 N1144 1.423 . S
C1176 C1177 1.362 . S
C1176 C1181 1.388 . S
C1177 H1141 0.929 . S
C1177 C1176 1.362 . S
C1177 C1178 1.376 . S
C1178 H1142 0.931 . S
C1178 C1177 1.376 . S
C1178 C1179 1.396 . S
C1179 C1161 1.472 . S
C1179 C1178 1.396 . S
C1179 C1180 1.348 . S
C1180 H1143 0.929 . S
C1180 C1179 1.348 . S
C1180 C1181 1.443 . S
C1181 H1145 0.932 . S
C1181 C1176 1.388 . S
C1181 C1180 1.443 . S
H1182 C1209 0.929 . S
N1183 C1208 1.433 . S
N1183 C1214 1.435 . S
N1183 C1220 1.423 . S
H1184 C1210 0.930 . S
H1185 C1213 0.931 . S
H1186 C1212 0.929 . S
H1187 C1215 0.930 . S
H1188 C1216 0.932 . S
H1189 C1219 0.929 . S
H1190 C1218 0.931 . S
H1191 C1221 0.929 . S
H1192 C1225 0.932 . S
H1193 C1222 0.931 . S
H1194 C1224 0.929 . S
H1195 C1227 0.929 . S
H1196 C1228 0.930 . S
H1197 C1230 0.929 . S
H1198 C1231 0.931 . S
H1199 C1233 0.930 . S
H1200 C1234 0.932 . S
H1201 C1236 0.931 . S
H1202 C1237 0.929 . S
H1203 C1239 0.929 . S
H1204 C1240 0.931 . S
H1205 C1242 0.929 . S
N1206 C1226 1.433 . S
N1206 C1232 1.435 . S
N1206 C1238 1.423 . S
H1207 C1243 0.932 . S
C1208 N1183 1.433 . S
C1208 C1209 1.363 . S
C1208 C1213 1.370 . S
C1209 H1182 0.929 . S
C1209 C1208 1.363 . S
C1209 C1210 1.385 . S
C1210 H1184 0.930 . S
C1210 C1209 1.385 . S
C1210 C1211 1.357 . S
C1211 C1210 1.357 . S
C1211 C1212 1.406 . S
C1212 H1186 0.929 . S
C1212 C1211 1.406 . S
C1212 C1213 1.391 . S
C1213 H1185 0.931 . S
C1213 C1208 1.370 . S
C1213 C1212 1.391 . S
C1214 N1183 1.435 . S
C1214 C1215 1.358 . S
C1214 C1219 1.371 . S
C1215 H1187 0.930 . S
C1215 C1214 1.358 . S
C1215 C1216 1.405 . S
C1216 H1188 0.932 . S
C1216 C1215 1.405 . S
C1216 C1217 1.383 . S
C1217 C1216 1.383 . S
C1217 C1218 1.393 . S
C1218 H1190 0.931 . S
C1218 C1217 1.393 . S
C1218 C1219 1.382 . S
C1219 H1189 0.929 . S
C1219 C1214 1.371 . S
C1219 C1218 1.382 . S
C1220 N1183 1.423 . S
C1220 C1221 1.362 . S
C1220 C1225 1.388 . S
C1221 H1191 0.929 . S
C1221 C1220 1.362 . S
C1221 C1222 1.376 . S
C1222 H1193 0.931 . S
C1222 C1221 1.376 . S
C1222 C1223 1.396 . S
C1223 C1222 1.396 . S
C1223 C1224 1.348 . S
C1223 C1241 1.472 . S
C1224 H1194 0.929 . S
C1224 C1223 1.348 . S
C1224 C1225 1.443 . S
C1225 H1192 0.932 . S
C1225 C1220 1.388 . S
C1225 C1224 1.443 . S
C1226 N1206 1.433 . S
C1226 C1227 1.363 . S
C1226 C1231 1.370 . S
C1227 H1195 0.929 . S
C1227 C1226 1.363 . S
C1227 C1228 1.385 . S
C1228 H1196 0.930 . S
C1228 C1227 1.385 . S
C1228 C1229 1.357 . S
C1229 C1228 1.357 . S
C1229 C1230 1.406 . S
C1230 H1197 0.929 . S
C1230 C1229 1.406 . S
C1230 C1231 1.391 . S
C1231 H1198 0.931 . S
C1231 C1226 1.370 . S
C1231 C1230 1.391 . S
C1232 N1206 1.435 . S
C1232 C1233 1.358 . S
C1232 C1237 1.371 . S
C1233 H1199 0.930 . S
C1233 C1232 1.358 . S
C1233 C1234 1.405 . S
C1234 H1200 0.932 . S
C1234 C1233 1.405 . S
C1234 C1235 1.383 . S
C1235 C1234 1.383 . S
C1235 C1236 1.393 . S
C1236 H1201 0.931 . S
C1236 C1235 1.393 . S
C1236 C1237 1.382 . S
C1237 H1202 0.929 . S
C1237 C1232 1.371 . S
C1237 C1236 1.382 . S
C1238 N1206 1.423 . S
C1238 C1239 1.362 . S
C1238 C1243 1.388 . S
C1239 H1203 0.929 . S
C1239 C1238 1.362 . S
C1239 C1240 1.376 . S
C1240 H1204 0.931 . S
C1240 C1239 1.376 . S
C1240 C1241 1.396 . S
C1241 C1223 1.472 . S
C1241 C1240 1.396 . S
C1241 C1242 1.348 . S
C1242 H1205 0.929 . S
C1242 C1241 1.348 . S
C1242 C1243 1.443 . S
C1243 H1207 0.932 . S
C1243 C1238 1.388 . S
C1243 C1242 1.443 . S
H1244 C1271 0.929 . S
N1245 C1270 1.433 . S
N1245 C1276 1.435 . S
N1245 C1282 1.423 . S
H1246 C1272 0.930 . S
H1247 C1275 0.931 . S
H1248 C1274 0.929 . S
H1249 C1277 0.930 . S
H1250 C1278 0.932 . S
H1251 C1281 0.929 . S
H1252 C1280 0.931 . S
H1253 C1283 0.929 . S
H1254 C1287 0.932 . S
H1255 C1284 0.931 . S
H1256 C1286 0.929 . S
H1257 C1289 0.929 . S
H1258 C1290 0.930 . S
H1259 C1292 0.929 . S
H1260 C1293 0.931 . S
H1261 C1295 0.930 . S
H1262 C1296 0.932 . S
H1263 C1298 0.931 . S
H1264 C1299 0.929 . S
H1265 C1301 0.929 . S
H1266 C1302 0.931 . S
H1267 C1304 0.929 . S
N1268 C1288 1.433 . S
N1268 C1294 1.435 . S
N1268 C1300 1.423 . S
H1269 C1305 0.932 . S
C1270 N1245 1.433 . S
C1270 C1271 1.363 . S
C1270 C1275 1.370 . S
C1271 H1244 0.929 . S
C1271 C1270 1.363 . S
C1271 C1272 1.385 . S
C1272 H1246 0.930 . S
C1272 C1271 1.385 . S
C1272 C1273 1.357 . S
C1273 C1272 1.357 . S
C1273 C1274 1.406 . S
C1274 H1248 0.929 . S
C1274 C1273 1.406 . S
C1274 C1275 1.391 . S
C1275 H1247 0.931 . S
C1275 C1270 1.370 . S
C1275 C1274 1.391 . S
C1276 N1245 1.435 . S
C1276 C1277 1.358 . S
C1276 C1281 1.371 . S
C1277 H1249 0.930 . S
C1277 C1276 1.358 . S
C1277 C1278 1.405 . S
C1278 H1250 0.932 . S
C1278 C1277 1.405 . S
C1278 C1279 1.383 . S
C1279 C1278 1.383 . S
C1279 C1280 1.393 . S
C1280 H1252 0.931 . S
C1280 C1279 1.393 . S
C1280 C1281 1.382 . S
C1281 H1251 0.929 . S
C1281 C1276 1.371 . S
C1281 C1280 1.382 . S
C1282 N1245 1.423 . S
C1282 C1283 1.362 . S
C1282 C1287 1.388 . S
C1283 H1253 0.929 . S
C1283 C1282 1.362 . S
C1283 C1284 1.376 . S
C1284 H1255 0.931 . S
C1284 C1283 1.376 . S
C1284 C1285 1.396 . S
C1285 C1284 1.396 . S
C1285 C1286 1.348 . S
C1285 C1303 1.472 . S
C1286 H1256 0.929 . S
C1286 C1285 1.348 . S
C1286 C1287 1.443 . S
C1287 H1254 0.932 . S
C1287 C1282 1.388 . S
C1287 C1286 1.443 . S
C1288 N1268 1.433 . S
C1288 C1289 1.363 . S
C1288 C1293 1.370 . S
C1289 H1257 0.929 . S
C1289 C1288 1.363 . S
C1289 C1290 1.385 . S
C1290 H1258 0.930 . S
C1290 C1289 1.385 . S
C1290 C1291 1.357 . S
C1291 C1290 1.357 . S
C1291 C1292 1.406 . S
C1292 H1259 0.929 . S
C1292 C1291 1.406 . S
C1292 C1293 1.391 . S
C1293 H1260 0.931 . S
C1293 C1288 1.370 . S
C1293 C1292 1.391 . S
C1294 N1268 1.435 . S
C1294 C1295 1.358 . S
C1294 C1299 1.371 . S
C1295 H1261 0.930 . S
C1295 C1294 1.358 . S
C1295 C1296 1.405 . S
C1296 H1262 0.932 . S
C1296 C1295 1.405 . S
C1296 C1297 1.383 . S
C1297 C1296 1.383 . S
C1297 C1298 1.393 . S
C1298 H1263 0.931 . S
C1298 C1297 1.393 . S
C1298 C1299 1.382 . S
C1299 H1264 0.929 . S
C1299 C1294 1.371 . S
C1299 C1298 1.382 . S
C1300 N1268 1.423 . S
C1300 C1301 1.362 . S
C1300 C1305 1.388 . S
C1301 H1265 0.929 . S
C1301 C1300 1.362 . S
C1301 C1302 1.376 . S
C1302 H1266 0.931 . S
C1302 C1301 1.376 . S
C1302 C1303 1.396 . S
C1303 C1285 1.472 . S
C1303 C1302 1.396 . S
C1303 C1304 1.348 . S
C1304 H1267 0.929 . S
C1304 C1303 1.348 . S
C1304 C1305 1.443 . S
C1305 H1269 0.932 . S
C1305 C1300 1.388 . S
C1305 C1304 1.443 . S
H1306 C1333 0.929 . S
N1307 C1332 1.433 . S
N1307 C1338 1.435 . S
N1307 C1344 1.423 . S
H1308 C1334 0.930 . S
H1309 C1337 0.931 . S
H1310 C1336 0.929 . S
H1311 C1339 0.930 . S
H1312 C1340 0.932 . S
H1313 C1343 0.929 . S
H1314 C1342 0.931 . S
H1315 C1345 0.929 . S
H1316 C1349 0.932 . S
H1317 C1346 0.931 . S
H1318 C1348 0.929 . S
H1319 C1351 0.929 . S
H1320 C1352 0.930 . S
H1321 C1354 0.929 . S
H1322 C1355 0.931 . S
H1323 C1357 0.930 . S
H1324 C1358 0.932 . S
H1325 C1360 0.931 . S
H1326 C1361 0.929 . S
H1327 C1363 0.929 . S
H1328 C1364 0.931 . S
H1329 C1366 0.929 . S
N1330 C1350 1.433 . S
N1330 C1356 1.435 . S
N1330 C1362 1.423 . S
H1331 C1367 0.932 . S
C1332 N1307 1.433 . S
C1332 C1333 1.363 . S
C1332 C1337 1.370 . S
C1333 H1306 0.929 . S
C1333 C1332 1.363 . S
C1333 C1334 1.385 . S
C1334 H1308 0.930 . S
C1334 C1333 1.385 . S
C1334 C1335 1.357 . S
C1335 C1334 1.357 . S
C1335 C1336 1.406 . S
C1336 H1310 0.929 . S
C1336 C1335 1.406 . S
C1336 C1337 1.391 . S
C1337 H1309 0.931 . S
C1337 C1332 1.370 . S
C1337 C1336 1.391 . S
C1338 N1307 1.435 . S
C1338 C1339 1.358 . S
C1338 C1343 1.371 . S
C1339 H1311 0.930 . S
C1339 C1338 1.358 . S
C1339 C1340 1.405 . S
C1340 H1312 0.932 . S
C1340 C1339 1.405 . S
C1340 C1341 1.383 . S
C1341 C1340 1.383 . S
C1341 C1342 1.393 . S
C1342 H1314 0.931 . S
C1342 C1341 1.393 . S
C1342 C1343 1.382 . S
C1343 H1313 0.929 . S
C1343 C1338 1.371 . S
C1343 C1342 1.382 . S
C1344 N1307 1.423 . S
C1344 C1345 1.362 . S
C1344 C1349 1.388 . S
C1345 H1315 0.929 . S
C1345 C1344 1.362 . S
C1345 C1346 1.376 . S
C1346 H1317 0.931 . S
C1346 C1345 1.376 . S
C1346 C1347 1.396 . S
C1347 C1346 1.396 . S
C1347 C1348 1.348 . S
C1347 C1365 1.472 . S
C1348 H1318 0.929 . S
C1348 C1347 1.348 . S
C1348 C1349 1.443 . S
C1349 H1316 0.932 . S
C1349 C1344 1.388 . S
C1349 C1348 1.443 . S
C1350 N1330 1.433 . S
C1350 C1351 1.363 . S
C1350 C1355 1.370 . S
C1351 H1319 0.929 . S
C1351 C1350 1.363 . S
C1351 C1352 1.385 . S
C1352 H1320 0.930 . S
C1352 C1351 1.385 . S
C1352 C1353 1.357 . S
C1353 C1352 1.357 . S
C1353 C1354 1.406 . S
C1354 H1321 0.929 . S
C1354 C1353 1.406 . S
C1354 C1355 1.391 . S
C1355 H1322 0.931 . S
C1355 C1350 1.370 . S
C1355 C1354 1.391 . S
C1356 N1330 1.435 . S
C1356 C1357 1.358 . S
C1356 C1361 1.371 . S
C1357 H1323 0.930 . S
C1357 C1356 1.358 . S
C1357 C1358 1.405 . S
C1358 H1324 0.932 . S
C1358 C1357 1.405 . S
C1358 C1359 1.383 . S
C1359 C1358 1.383 . S
C1359 C1360 1.393 . S
C1360 H1325 0.931 . S
C1360 C1359 1.393 . S
C1360 C1361 1.382 . S
C1361 H1326 0.929 . S
C1361 C1356 1.371 . S
C1361 C1360 1.382 . S
C1362 N1330 1.423 . S
C1362 C1363 1.362 . S
C1362 C1367 1.388 . S
C1363 H1327 0.929 . S
C1363 C1362 1.362 . S
C1363 C1364 1.376 . S
C1364 H1328 0.931 . S
C1364 C1363 1.376 . S
C1364 C1365 1.396 . S
C1365 C1347 1.472 . S
C1365 C1364 1.396 . S
C1365 C1366 1.348 . S
C1366 H1329 0.929 . S
C1366 C1365 1.348 . S
C1366 C1367 1.443 . S
C1367 H1331 0.932 . S
C1367 C1362 1.388 . S
C1367 C1366 1.443 . S
H1368 C1374 0.930 . S
H1369 C1378 0.930 . S
H1370 C1383 0.929 . S
H1371 C1381 0.929 . S
H1372 C1376 0.929 . S
H1373 C1382 0.929 . S
C1374 H1368 0.930 . S
C1374 C1375 1.367 . S
C1374 C1382 1.378 . S
C1375 C1374 1.367 . S
C1375 C1383 1.433 1_455 S
C1376 H1372 0.929 . S
C1376 C1378 1.378 . S
C1376 C1380 1.350 1_655 S
C1377 C1380 1.463 . S
C1377 C1382 1.350 . S
C1377 N1385 1.427 1_455 S
C1378 H1369 0.930 . S
C1378 C1376 1.378 . S
C1378 C1379 1.367 1_655 S
C1379 C1378 1.367 1_455 S
C1379 C1381 1.433 . S
C1380 C1376 1.350 1_455 S
C1380 C1377 1.463 . S
C1380 N1384 1.427 . S
C1381 H1371 0.929 . S
C1381 C1379 1.433 . S
C1381 N1384 1.384 . S
C1382 H1373 0.929 . S
C1382 C1374 1.378 . S
C1382 C1377 1.350 . S
C1383 H1370 0.929 . S
C1383 C1375 1.433 1_655 S
C1383 N1385 1.384 . S
N1384 C1380 1.427 . S
N1384 C1381 1.384 . S
N1385 C1377 1.427 1_655 S
N1385 C1383 1.384 . S
H1386 C1392 0.930 . S
H1387 C1396 0.930 . S
H1388 C1401 0.929 . S
H1389 C1399 0.929 . S
H1390 C1394 0.929 . S
H1391 C1400 0.929 . S
C1392 H1386 0.930 . S
C1392 C1393 1.367 . S
C1392 C1400 1.378 . S
C1393 C1392 1.367 . S
C1393 C1401 1.433 . S
C1394 H1390 0.929 . S
C1394 C1396 1.378 . S
C1394 C1398 1.350 . S
C1395 C1398 1.463 . S
C1395 C1400 1.350 . S
C1395 N1403 1.427 . S
C1396 H1387 0.930 . S
C1396 C1394 1.378 . S
C1396 C1397 1.367 . S
C1397 C1396 1.367 . S
C1397 C1399 1.433 . S
C1398 C1394 1.350 . S
C1398 C1395 1.463 . S
C1398 N1402 1.427 . S
C1399 H1389 0.929 . S
C1399 C1397 1.433 . S
C1399 N1402 1.384 . S
C1400 H1391 0.929 . S
C1400 C1392 1.378 . S
C1400 C1395 1.350 . S
C1401 H1388 0.929 . S
C1401 C1393 1.433 . S
C1401 N1403 1.384 . S
N1402 C1398 1.427 . S
N1402 C1399 1.384 . S
N1403 C1395 1.427 . S
N1403 C1401 1.384 . S
H1404 C1410 0.930 . S
H1405 C1414 0.930 . S
H1406 C1419 0.929 . S
H1407 C1417 0.929 . S
H1408 C1412 0.929 . S
H1409 C1418 0.929 . S
C1410 H1404 0.930 . S
C1410 C1411 1.367 . S
C1410 C1418 1.378 . S
C1411 C1410 1.367 . S
C1411 C1419 1.433 1_545 S
C1412 H1408 0.929 . S
C1412 C1414 1.378 . S
C1412 C1416 1.350 1_565 S
C1413 C1416 1.463 . S
C1413 C1418 1.350 . S
C1413 N1421 1.427 1_545 S
C1414 H1405 0.930 . S
C1414 C1412 1.378 . S
C1414 C1415 1.367 1_565 S
C1415 C1414 1.367 1_545 S
C1415 C1417 1.433 . S
C1416 C1412 1.350 1_545 S
C1416 C1413 1.463 . S
C1416 N1420 1.427 . S
C1417 H1407 0.929 . S
C1417 C1415 1.433 . S
C1417 N1420 1.384 . S
C1418 H1409 0.929 . S
C1418 C1410 1.378 . S
C1418 C1413 1.350 . S
C1419 H1406 0.929 . S
C1419 C1411 1.433 1_565 S
C1419 N1421 1.384 . S
N1420 C1416 1.427 . S
N1420 C1417 1.384 . S
N1421 C1413 1.427 1_565 S
N1421 C1419 1.384 . S
H1422 C1428 0.930 . S
H1423 C1432 0.930 . S
H1424 C1437 0.929 . S
H1425 C1435 0.929 . S
H1426 C1430 0.929 . S
H1427 C1436 0.929 . S
C1428 H1422 0.930 . S
C1428 C1429 1.367 1_565 S
C1428 C1436 1.378 . S
C1429 C1428 1.367 1_545 S
C1429 C1437 1.433 . S
C1430 H1426 0.929 . S
C1430 C1432 1.378 . S
C1430 C1434 1.350 . S
C1431 C1434 1.463 . S
C1431 C1436 1.350 1_545 S
C1431 N1439 1.427 . S
C1432 H1423 0.930 . S
C1432 C1430 1.378 . S
C1432 C1433 1.367 . S
C1433 C1432 1.367 . S
C1433 C1435 1.433 1_545 S
C1434 C1430 1.350 . S
C1434 C1431 1.463 . S
C1434 N1438 1.427 1_545 S
C1435 H1425 0.929 . S
C1435 C1433 1.433 1_565 S
C1435 N1438 1.384 . S
C1436 H1427 0.929 . S
C1436 C1428 1.378 . S
C1436 C1431 1.350 1_565 S
C1437 H1424 0.929 . S
C1437 C1429 1.433 . S
C1437 N1439 1.384 . S
N1438 C1434 1.427 1_565 S
N1438 C1435 1.384 . S
N1439 C1431 1.427 . S
N1439 C1437 1.384 . S
H1440 C1446 0.930 . S
H1441 C1450 0.899 1_655 S
H1442 C1455 0.963 . S
H1443 C1453 0.929 . S
H1444 C1448 0.926 1_655 S
H1445 C1454 0.929 . S
C1446 H1440 0.930 . S
C1446 C1447 1.367 . S
C1446 C1454 1.378 . S
C1447 C1446 1.367 . S
C1447 C1455 1.371 1_455 S
C1448 H1444 0.926 1_455 S
C1448 C1450 1.392 . S
C1448 C1452 1.355 . S
C1449 C1452 1.463 . S
C1449 C1454 1.350 . S
C1449 N1457 1.411 1_455 S
C1450 H1441 0.899 1_455 S
C1450 C1448 1.392 . S
C1450 C1451 1.383 . S
C1451 C1450 1.383 . S
C1451 C1453 1.433 . S
C1452 C1448 1.355 . S
C1452 C1449 1.463 . S
C1452 N1456 1.427 . S
C1453 H1443 0.929 . S
C1453 C1451 1.433 . S
C1453 N1456 1.384 . S
C1454 H1445 0.929 . S
C1454 C1446 1.378 . S
C1454 C1449 1.350 . S
C1455 H1442 0.963 . S
C1455 C1447 1.371 1_655 S
C1455 N1457 1.400 . S
N1456 C1452 1.427 . S
N1456 C1453 1.384 . S
N1457 C1449 1.411 1_655 S
N1457 C1455 1.400 . S
H1458 C1464 0.930 . S
H1459 C1468 0.930 . S
H1460 C1473 0.929 . S
H1461 C1471 0.929 . S
H1462 C1466 0.929 . S
H1463 C1472 0.929 . S
C1464 H1458 0.930 . S
C1464 C1465 1.367 . S
C1464 C1472 1.378 . S
C1465 C1464 1.367 . S
C1465 C1473 1.433 . S
C1466 H1462 0.929 . S
C1466 C1468 1.378 . S
C1466 C1470 1.350 . S
C1467 C1470 1.463 . S
C1467 C1472 1.350 . S
C1467 N1475 1.427 . S
C1468 H1459 0.930 . S
C1468 C1466 1.378 . S
C1468 C1469 1.367 . S
C1469 C1468 1.367 . S
C1469 C1471 1.433 . S
C1470 C1466 1.350 . S
C1470 C1467 1.463 . S
C1470 N1474 1.427 . S
C1471 H1461 0.929 . S
C1471 C1469 1.433 . S
C1471 N1474 1.384 . S
C1472 H1463 0.929 . S
C1472 C1464 1.378 . S
C1472 C1467 1.350 . S
C1473 H1460 0.929 . S
C1473 C1465 1.433 . S
C1473 N1475 1.384 . S
N1474 C1470 1.427 . S
N1474 C1471 1.384 . S
N1475 C1467 1.427 . S
N1475 C1473 1.384 . S
H1476 C1482 0.930 . S
H1477 C1486 0.930 . S
H1478 C1491 0.929 . S
H1479 C1489 0.929 . S
H1480 C1484 0.929 . S
H1481 C1490 0.929 . S
C1482 H1476 0.930 . S
C1482 C1483 1.367 1_655 S
C1482 C1490 1.378 . S
C1483 C1482 1.367 1_455 S
C1483 C1491 1.433 . S
C1484 H1480 0.929 . S
C1484 C1486 1.378 . S
C1484 C1488 1.350 . S
C1485 C1488 1.463 . S
C1485 C1490 1.350 1_455 S
C1485 N1493 1.427 . S
C1486 H1477 0.930 . S
C1486 C1484 1.378 . S
C1486 C1487 1.367 . S
C1487 C1486 1.367 . S
C1487 C1489 1.433 1_455 S
C1488 C1484 1.350 . S
C1488 C1485 1.463 . S
C1488 N1492 1.427 1_455 S
C1489 H1479 0.929 . S
C1489 C1487 1.433 1_655 S
C1489 N1492 1.384 . S
C1490 H1481 0.929 . S
C1490 C1482 1.378 . S
C1490 C1485 1.350 1_655 S
C1491 H1478 0.929 . S
C1491 C1483 1.433 . S
C1491 N1493 1.384 . S
N1492 C1488 1.427 1_655 S
N1492 C1489 1.384 . S
N1493 C1485 1.427 . S
N1493 C1491 1.384 . S
H1494 C1500 0.930 . S
H1495 C1504 0.930 . S
H1496 C1509 0.929 . S
H1497 C1507 0.929 . S
H1498 C1502 0.929 . S
H1499 C1508 0.929 . S
C1500 H1494 0.930 . S
C1500 C1501 1.367 . S
C1500 C1508 1.378 . S
C1501 C1500 1.367 . S
C1501 C1509 1.433 . S
C1502 H1498 0.929 . S
C1502 C1504 1.378 . S
C1502 C1506 1.350 . S
C1503 C1506 1.463 . S
C1503 C1508 1.350 . S
C1503 N1511 1.427 . S
C1504 H1495 0.930 . S
C1504 C1502 1.378 . S
C1504 C1505 1.367 . S
C1505 C1504 1.367 . S
C1505 C1507 1.433 . S
C1506 C1502 1.350 . S
C1506 C1503 1.463 . S
C1506 N1510 1.427 . S
C1507 H1497 0.929 . S
C1507 C1505 1.433 . S
C1507 N1510 1.384 . S
C1508 H1499 0.929 . S
C1508 C1500 1.378 . S
C1508 C1503 1.350 . S
C1509 H1496 0.929 . S
C1509 C1501 1.433 . S
C1509 N1511 1.384 . S
N1510 C1506 1.427 . S
N1510 C1507 1.384 . S
N1511 C1503 1.427 . S
N1511 C1509 1.384 . S
H1512 C1518 0.930 . S
H1513 C1522 0.930 . S
H1514 C1527 0.929 . S
H1515 C1525 0.929 . S
H1516 C1520 0.929 . S
H1517 C1526 0.929 . S
C1518 H1512 0.930 . S
C1518 C1519 1.367 1_565 S
C1518 C1526 1.378 . S
C1519 C1518 1.367 1_545 S
C1519 C1527 1.433 . S
C1520 H1516 0.929 . S
C1520 C1522 1.378 . S
C1520 C1524 1.350 . S
C1521 C1524 1.463 . S
C1521 C1526 1.350 1_545 S
C1521 N1529 1.427 . S
C1522 H1513 0.930 . S
C1522 C1520 1.378 . S
C1522 C1523 1.367 . S
C1523 C1522 1.367 . S
C1523 C1525 1.433 1_545 S
C1524 C1520 1.350 . S
C1524 C1521 1.463 . S
C1524 N1528 1.427 1_545 S
C1525 H1515 0.929 . S
C1525 C1523 1.433 1_565 S
C1525 N1528 1.384 . S
C1526 H1517 0.929 . S
C1526 C1518 1.378 . S
C1526 C1521 1.350 1_565 S
C1527 H1514 0.929 . S
C1527 C1519 1.433 . S
C1527 N1529 1.384 . S
N1528 C1524 1.427 1_565 S
N1528 C1525 1.384 . S
N1529 C1521 1.427 . S
N1529 C1527 1.384 . S
H1530 C1536 0.930 . S
H1531 C1540 0.930 . S
H1532 C1545 0.929 . S
H1533 C1543 0.929 . S
H1534 C1538 0.929 . S
H1535 C1544 0.929 . S
C1536 H1530 0.930 . S
C1536 C1537 1.367 . S
C1536 C1544 1.378 . S
C1537 C1536 1.367 . S
C1537 C1545 1.433 1_545 S
C1538 H1534 0.929 . S
C1538 C1540 1.378 . S
C1538 C1542 1.350 1_565 S
C1539 C1542 1.463 . S
C1539 C1544 1.350 . S
C1539 N1547 1.427 1_545 S
C1540 H1531 0.930 . S
C1540 C1538 1.378 . S
C1540 C1541 1.367 1_565 S
C1541 C1540 1.367 1_545 S
C1541 C1543 1.433 . S
C1542 C1538 1.350 1_545 S
C1542 C1539 1.463 . S
C1542 N1546 1.427 . S
C1543 H1533 0.929 . S
C1543 C1541 1.433 . S
C1543 N1546 1.384 . S
C1544 H1535 0.929 . S
C1544 C1536 1.378 . S
C1544 C1539 1.350 . S
C1545 H1532 0.929 . S
C1545 C1537 1.433 1_565 S
C1545 N1547 1.384 . S
N1546 C1542 1.427 . S
N1546 C1543 1.384 . S
N1547 C1539 1.427 1_565 S
N1547 C1545 1.384 . S
H1548 C1554 0.930 . S
H1549 C1558 0.930 . S
H1550 C1563 0.929 . S
H1551 C1561 0.933 . S
H1552 C1556 0.929 . S
H1553 C1562 0.929 . S
C1554 H1548 0.930 . S
C1554 C1555 1.367 . S
C1554 C1562 1.378 . S
C1555 C1554 1.367 . S
C1555 C1563 1.433 . S
C1556 H1552 0.929 . S
C1556 C1558 1.378 . S
C1556 C1560 1.350 . S
C1557 C1560 1.463 . S
C1557 C1562 1.350 . S
C1557 N1565 1.427 . S
C1558 H1549 0.930 . S
C1558 C1556 1.378 . S
C1558 C1559 1.367 . S
C1559 C1558 1.367 . S
C1559 C1561 1.433 . S
C1560 C1556 1.350 . S
C1560 C1557 1.463 . S
C1560 N1564 1.427 . S
C1561 H1551 0.933 . S
C1561 C1559 1.433 . S
C1561 N1564 1.384 . S
C1562 H1553 0.929 . S
C1562 C1554 1.378 . S
C1562 C1557 1.350 . S
C1563 H1550 0.929 . S
C1563 C1555 1.433 . S
C1563 N1565 1.384 . S
N1564 C1560 1.427 . S
N1564 C1561 1.384 . S
N1565 C1557 1.427 . S
N1565 C1563 1.384 . S
H1566 C1572 0.930 . S
H1567 C1576 0.930 . S
H1568 C1581 0.929 . S
H1569 C1579 0.929 . S
H1570 C1574 0.929 . S
H1571 C1580 0.929 . S
C1572 H1566 0.930 . S
C1572 C1573 1.367 . S
C1572 C1580 1.378 . S
C1573 C1572 1.367 . S
C1573 C1581 1.433 . S
C1574 H1570 0.929 . S
C1574 C1576 1.378 . S
C1574 C1578 1.350 . S
C1575 C1578 1.463 . S
C1575 C1580 1.350 . S
C1575 N1583 1.427 . S
C1576 H1567 0.930 . S
C1576 C1574 1.378 . S
C1576 C1577 1.367 . S
C1577 C1576 1.367 . S
C1577 C1579 1.433 . S
C1578 C1574 1.350 . S
C1578 C1575 1.463 . S
C1578 N1582 1.427 . S
C1579 H1569 0.929 . S
C1579 C1577 1.433 . S
C1579 N1582 1.384 . S
C1580 H1571 0.929 . S
C1580 C1572 1.378 . S
C1580 C1575 1.350 . S
C1581 H1568 0.929 . S
C1581 C1573 1.433 . S
C1581 N1583 1.384 . S
N1582 C1578 1.427 . S
N1582 C1579 1.384 . S
N1583 C1575 1.427 . S
N1583 C1581 1.384 . S
H1584 C1590 0.930 . S
H1585 C1594 0.930 . S
H1586 C1599 0.929 . S
H1587 C1597 0.929 . S
H1588 C1592 0.929 . S
H1589 C1598 0.929 . S
C1590 H1584 0.930 . S
C1590 C1591 1.367 . S
C1590 C1598 1.378 . S
C1591 C1590 1.367 . S
C1591 C1599 1.433 . S
C1592 H1588 0.929 . S
C1592 C1594 1.378 . S
C1592 C1596 1.350 . S
C1593 C1596 1.463 . S
C1593 C1598 1.350 . S
C1593 N1601 1.427 . S
C1594 H1585 0.930 . S
C1594 C1592 1.378 . S
C1594 C1595 1.367 . S
C1595 C1594 1.367 . S
C1595 C1597 1.433 . S
C1596 C1592 1.350 . S
C1596 C1593 1.463 . S
C1596 N1600 1.427 . S
C1597 H1587 0.929 . S
C1597 C1595 1.433 . S
C1597 N1600 1.384 . S
C1598 H1589 0.929 . S
C1598 C1590 1.378 . S
C1598 C1593 1.350 . S
C1599 H1586 0.929 . S
C1599 C1591 1.433 . S
C1599 N1601 1.384 . S
N1600 C1596 1.427 . S
N1600 C1597 1.384 . S
N1601 C1593 1.427 . S
N1601 C1599 1.384 . S
H1602 C1608 0.930 . S
H1603 C1612 0.930 . S
H1604 C1617 0.929 . S
H1605 C1615 0.929 . S
H1606 C1610 0.929 . S
H1607 C1616 0.929 . S
C1608 H1602 0.930 . S
C1608 C1609 1.367 . S
C1608 C1616 1.378 . S
C1609 C1608 1.367 . S
C1609 C1617 1.433 . S
C1610 H1606 0.929 . S
C1610 C1612 1.378 . S
C1610 C1614 1.350 . S
C1611 C1614 1.463 . S
C1611 C1616 1.350 . S
C1611 N1619 1.427 . S
C1612 H1603 0.930 . S
C1612 C1610 1.378 . S
C1612 C1613 1.367 . S
C1613 C1612 1.367 . S
C1613 C1615 1.433 . S
C1614 C1610 1.350 . S
C1614 C1611 1.463 . S
C1614 N1618 1.427 . S
C1615 H1605 0.929 . S
C1615 C1613 1.433 . S
C1615 N1618 1.384 . S
C1616 H1607 0.929 . S
C1616 C1608 1.378 . S
C1616 C1611 1.350 . S
C1617 H1604 0.929 . S
C1617 C1609 1.433 . S
C1617 N1619 1.384 . S
N1618 C1614 1.427 . S
N1618 C1615 1.384 . S
N1619 C1611 1.427 . S
N1619 C1617 1.384 . S
H1620 C1626 0.930 . S
H1621 C1630 0.930 . S
H1622 C1635 0.929 . S
H1623 C1633 0.929 . S
H1624 C1628 0.929 . S
H1625 C1634 0.929 . S
C1626 H1620 0.930 . S
C1626 C1627 1.367 . S
C1626 C1634 1.378 . S
C1627 C1626 1.367 . S
C1627 C1635 1.433 . S
C1628 H1624 0.929 . S
C1628 C1630 1.378 . S
C1628 C1632 1.350 . S
C1629 C1632 1.463 . S
C1629 C1634 1.350 . S
C1629 N1637 1.427 . S
C1630 H1621 0.930 . S
C1630 C1628 1.378 . S
C1630 C1631 1.367 . S
C1631 C1630 1.367 . S
C1631 C1633 1.433 . S
C1632 C1628 1.350 . S
C1632 C1629 1.463 . S
C1632 N1636 1.427 . S
C1633 H1623 0.929 . S
C1633 C1631 1.433 . S
C1633 N1636 1.384 . S
C1634 H1625 0.929 . S
C1634 C1626 1.378 . S
C1634 C1629 1.350 . S
C1635 H1622 0.929 . S
C1635 C1627 1.433 . S
C1635 N1637 1.384 . S
N1636 C1632 1.427 . S
N1636 C1633 1.384 . S
N1637 C1629 1.427 . S
N1637 C1635 1.384 . S
H1638 C1644 0.930 . S
H1639 C1648 0.930 . S
H1640 C1653 0.929 . S
H1641 C1651 0.929 . S
H1642 C1646 0.929 . S
H1643 C1652 0.929 . S
C1644 H1638 0.930 . S
C1644 C1645 1.367 . S
C1644 C1652 1.378 . S
C1645 C1644 1.367 . S
C1645 C1653 1.433 . S
C1646 H1642 0.929 . S
C1646 C1648 1.378 . S
C1646 C1650 1.350 . S
C1647 C1650 1.463 . S
C1647 C1652 1.350 . S
C1647 N1655 1.427 . S
C1648 H1639 0.930 . S
C1648 C1646 1.378 . S
C1648 C1649 1.367 . S
C1649 C1648 1.367 . S
C1649 C1651 1.433 . S
C1650 C1646 1.350 . S
C1650 C1647 1.463 . S
C1650 N1654 1.427 . S
C1651 H1641 0.929 . S
C1651 C1649 1.433 . S
C1651 N1654 1.384 . S
C1652 H1643 0.929 . S
C1652 C1644 1.378 . S
C1652 C1647 1.350 . S
C1653 H1640 0.929 . S
C1653 C1645 1.433 . S
C1653 N1655 1.384 . S
N1654 C1650 1.427 . S
N1654 C1651 1.384 . S
N1655 C1647 1.427 . S
N1655 C1653 1.384 . S
H1656 C1662 0.930 . S
H1657 C1666 0.930 . S
H1658 C1671 0.929 . S
H1659 C1669 0.929 . S
H1660 C1664 0.929 . S
H1661 C1670 0.929 . S
C1662 H1656 0.930 . S
C1662 C1663 1.367 . S
C1662 C1670 1.378 . S
C1663 C1662 1.367 . S
C1663 C1671 1.433 . S
C1664 H1660 0.929 . S
C1664 C1666 1.378 . S
C1664 C1668 1.350 . S
C1665 C1668 1.463 . S
C1665 C1670 1.350 . S
C1665 N1673 1.427 . S
C1666 H1657 0.930 . S
C1666 C1664 1.378 . S
C1666 C1667 1.367 . S
C1667 C1666 1.367 . S
C1667 C1669 1.433 . S
C1668 C1664 1.350 . S
C1668 C1665 1.463 . S
C1668 N1672 1.427 . S
C1669 H1659 0.929 . S
C1669 C1667 1.433 . S
C1669 N1672 1.384 . S
C1670 H1661 0.929 . S
C1670 C1662 1.378 . S
C1670 C1665 1.350 . S
C1671 H1658 0.929 . S
C1671 C1663 1.433 . S
C1671 N1673 1.384 . S
N1672 C1668 1.427 . S
N1672 C1669 1.384 . S
N1673 C1665 1.427 . S
N1673 C1671 1.384 . S
H1674 C1680 0.930 . S
H1675 C1684 0.930 . S
H1676 C1689 0.929 . S
H1677 C1687 0.929 . S
H1678 C1682 0.929 . S
H1679 C1688 0.929 . S
C1680 H1674 0.930 . S
C1680 C1681 1.367 . S
C1680 C1688 1.378 . S
C1681 C1680 1.367 . S
C1681 C1689 1.433 . S
C1682 H1678 0.929 . S
C1682 C1684 1.378 . S
C1682 C1686 1.350 . S
C1683 C1686 1.463 . S
C1683 C1688 1.350 . S
C1683 N1691 1.427 . S
C1684 H1675 0.930 . S
C1684 C1682 1.378 . S
C1684 C1685 1.367 . S
C1685 C1684 1.367 . S
C1685 C1687 1.433 . S
C1686 C1682 1.350 . S
C1686 C1683 1.463 . S
C1686 N1690 1.427 . S
C1687 H1677 0.929 . S
C1687 C1685 1.433 . S
C1687 N1690 1.384 . S
C1688 H1679 0.929 . S
C1688 C1680 1.378 . S
C1688 C1683 1.350 . S
C1689 H1676 0.929 . S
C1689 C1681 1.433 . S
C1689 N1691 1.384 . S
N1690 C1686 1.427 . S
N1690 C1687 1.384 . S
N1691 C1683 1.427 . S
N1691 C1689 1.384 . S
H1692 C1698 0.930 . S
H1693 C1702 0.930 . S
H1694 C1707 0.929 . S
H1695 C1705 0.929 . S
H1696 C1700 0.929 . S
H1697 C1706 0.929 . S
C1698 H1692 0.930 . S
C1698 C1699 1.367 . S
C1698 C1706 1.378 . S
C1699 C1698 1.367 . S
C1699 C1707 1.433 . S
C1700 H1696 0.929 . S
C1700 C1702 1.378 . S
C1700 C1704 1.350 . S
C1701 C1704 1.463 . S
C1701 C1706 1.350 . S
C1701 N1709 1.427 . S
C1702 H1693 0.930 . S
C1702 C1700 1.378 . S
C1702 C1703 1.367 . S
C1703 C1702 1.367 . S
C1703 C1705 1.433 . S
C1704 C1700 1.350 . S
C1704 C1701 1.463 . S
C1704 N1708 1.427 . S
C1705 H1695 0.929 . S
C1705 C1703 1.433 . S
C1705 N1708 1.384 . S
C1706 H1697 0.929 . S
C1706 C1698 1.378 . S
C1706 C1701 1.350 . S
C1707 H1694 0.929 . S
C1707 C1699 1.433 . S
C1707 N1709 1.384 . S
N1708 C1704 1.427 . S
N1708 C1705 1.384 . S
N1709 C1701 1.427 . S
N1709 C1707 1.384 . S
H1710 C1716 0.930 . S
H1711 C1720 0.930 . S
H1712 C1725 0.929 . S
H1713 C1723 0.929 . S
H1714 C1718 0.929 . S
H1715 C1724 0.929 . S
C1716 H1710 0.930 . S
C1716 C1717 1.367 . S
C1716 C1724 1.378 . S
C1717 C1716 1.367 . S
C1717 C1725 1.433 . S
C1718 H1714 0.929 . S
C1718 C1720 1.378 . S
C1718 C1722 1.350 . S
C1719 C1722 1.463 . S
C1719 C1724 1.350 . S
C1719 N1727 1.427 . S
C1720 H1711 0.930 . S
C1720 C1718 1.378 . S
C1720 C1721 1.367 . S
C1721 C1720 1.367 . S
C1721 C1723 1.433 . S
C1722 C1718 1.350 . S
C1722 C1719 1.463 . S
C1722 N1726 1.427 . S
C1723 H1713 0.929 . S
C1723 C1721 1.433 . S
C1723 N1726 1.384 . S
C1724 H1715 0.929 . S
C1724 C1716 1.378 . S
C1724 C1719 1.350 . S
C1725 H1712 0.929 . S
C1725 C1717 1.433 . S
C1725 N1727 1.384 . S
N1726 C1722 1.427 . S
N1726 C1723 1.384 . S
N1727 C1719 1.427 . S
N1727 C1725 1.384 . S
H1728 C1734 0.930 . S
H1729 C1738 0.930 . S
H1730 C1743 0.929 . S
H1731 C1741 0.929 . S
H1732 C1736 0.929 . S
H1733 C1742 0.929 . S
C1734 H1728 0.930 . S
C1734 C1735 1.367 . S
C1734 C1742 1.378 . S
C1735 C1734 1.367 . S
C1735 C1743 1.433 . S
C1736 H1732 0.929 . S
C1736 C1738 1.378 . S
C1736 C1740 1.350 . S
C1737 C1740 1.463 . S
C1737 C1742 1.350 . S
C1737 N1745 1.427 . S
C1738 H1729 0.930 . S
C1738 C1736 1.378 . S
C1738 C1739 1.367 . S
C1739 C1738 1.367 . S
C1739 C1741 1.433 . S
C1740 C1736 1.350 . S
C1740 C1737 1.463 . S
C1740 N1744 1.427 . S
C1741 H1731 0.929 . S
C1741 C1739 1.433 . S
C1741 N1744 1.384 . S
C1742 H1733 0.929 . S
C1742 C1734 1.378 . S
C1742 C1737 1.350 . S
C1743 H1730 0.929 . S
C1743 C1735 1.433 . S
C1743 N1745 1.384 . S
N1744 C1740 1.427 . S
N1744 C1741 1.384 . S
N1745 C1737 1.427 . S
N1745 C1743 1.384 . S
H1746 C1752 0.930 . S
H1747 C1756 0.930 . S
H1748 C1761 0.929 . S
H1749 C1759 0.929 . S
H1750 C1754 0.929 . S
H1751 C1760 0.929 . S
C1752 H1746 0.930 . S
C1752 C1753 1.367 . S
C1752 C1760 1.378 . S
C1753 C1752 1.367 . S
C1753 C1761 1.433 . S
C1754 H1750 0.929 . S
C1754 C1756 1.378 . S
C1754 C1758 1.350 . S
C1755 C1758 1.463 . S
C1755 C1760 1.350 . S
C1755 N1763 1.427 . S
C1756 H1747 0.930 . S
C1756 C1754 1.378 . S
C1756 C1757 1.367 . S
C1757 C1756 1.367 . S
C1757 C1759 1.433 . S
C1758 C1754 1.350 . S
C1758 C1755 1.463 . S
C1758 N1762 1.427 . S
C1759 H1749 0.929 . S
C1759 C1757 1.433 . S
C1759 N1762 1.384 . S
C1760 H1751 0.929 . S
C1760 C1752 1.378 . S
C1760 C1755 1.350 . S
C1761 H1748 0.929 . S
C1761 C1753 1.433 . S
C1761 N1763 1.384 . S
N1762 C1758 1.427 . S
N1762 C1759 1.384 . S
N1763 C1755 1.427 . S
N1763 C1761 1.384 . S
H1764 C1770 0.930 . S
H1765 C1774 0.930 . S
H1766 C1779 0.929 . S
H1767 C1777 0.929 . S
H1768 C1772 0.929 . S
H1769 C1778 0.929 . S
C1770 H1764 0.930 . S
C1770 C1771 1.367 . S
C1770 C1778 1.378 . S
C1771 C1770 1.367 . S
C1771 C1779 1.433 . S
C1772 H1768 0.929 . S
C1772 C1774 1.378 . S
C1772 C1776 1.350 . S
C1773 C1776 1.463 . S
C1773 C1778 1.350 . S
C1773 N1781 1.427 . S
C1774 H1765 0.930 . S
C1774 C1772 1.378 . S
C1774 C1775 1.367 . S
C1775 C1774 1.367 . S
C1775 C1777 1.433 . S
C1776 C1772 1.350 . S
C1776 C1773 1.463 . S
C1776 N1780 1.427 . S
C1777 H1767 0.929 . S
C1777 C1775 1.433 . S
C1777 N1780 1.384 . S
C1778 H1769 0.929 . S
C1778 C1770 1.378 . S
C1778 C1773 1.350 . S
C1779 H1766 0.929 . S
C1779 C1771 1.433 . S
C1779 N1781 1.384 . S
N1780 C1776 1.427 . S
N1780 C1777 1.384 . S
N1781 C1773 1.427 . S
N1781 C1779 1.384 . S
H1782 C1788 0.930 . S
H1783 C1792 0.930 . S
H1784 C1797 0.929 . S
H1785 C1795 0.929 . S
H1786 C1790 0.929 . S
H1787 C1796 0.929 . S
C1788 H1782 0.930 . S
C1788 C1789 1.367 . S
C1788 C1796 1.378 . S
C1789 C1788 1.367 . S
C1789 C1797 1.433 . S
C1790 H1786 0.929 . S
C1790 C1792 1.378 . S
C1790 C1794 1.350 . S
C1791 C1794 1.463 . S
C1791 C1796 1.350 . S
C1791 N1799 1.427 . S
C1792 H1783 0.930 . S
C1792 C1790 1.378 . S
C1792 C1793 1.367 . S
C1793 C1792 1.367 . S
C1793 C1795 1.433 . S
C1794 C1790 1.350 . S
C1794 C1791 1.463 . S
C1794 N1798 1.427 . S
C1795 H1785 0.929 . S
C1795 C1793 1.433 . S
C1795 N1798 1.384 . S
C1796 H1787 0.929 . S
C1796 C1788 1.378 . S
C1796 C1791 1.350 . S
C1797 H1784 0.929 . S
C1797 C1789 1.433 . S
C1797 N1799 1.384 . S
N1798 C1794 1.427 . S
N1798 C1795 1.384 . S
N1799 C1791 1.427 . S
N1799 C1797 1.384 . S
H1800 C1806 0.930 . S
H1801 C1810 0.930 . S
H1802 C1815 0.929 . S
H1803 C1813 0.929 . S
H1804 C1808 0.929 . S
H1805 C1814 0.929 . S
C1806 H1800 0.930 . S
C1806 C1807 1.367 . S
C1806 C1814 1.378 . S
C1807 C1806 1.367 . S
C1807 C1815 1.433 . S
C1808 H1804 0.929 . S
C1808 C1810 1.378 . S
C1808 C1812 1.350 . S
C1809 C1812 1.463 . S
C1809 C1814 1.350 . S
C1809 N1817 1.427 . S
C1810 H1801 0.930 . S
C1810 C1808 1.378 . S
C1810 C1811 1.367 . S
C1811 C1810 1.367 . S
C1811 C1813 1.433 . S
C1812 C1808 1.350 . S
C1812 C1809 1.463 . S
C1812 N1816 1.427 . S
C1813 H1803 0.929 . S
C1813 C1811 1.433 . S
C1813 N1816 1.384 . S
C1814 H1805 0.929 . S
C1814 C1806 1.378 . S
C1814 C1809 1.350 . S
C1815 H1802 0.929 . S
C1815 C1807 1.433 . S
C1815 N1817 1.384 . S
N1816 C1812 1.427 . S
N1816 C1813 1.384 . S
N1817 C1809 1.427 . S
N1817 C1815 1.384 . S
H1818 C1824 0.930 . S
H1819 C1828 0.930 . S
H1820 C1833 0.929 . S
H1821 C1831 0.929 . S
H1822 C1826 0.929 . S
H1823 C1832 0.929 . S
C1824 H1818 0.930 . S
C1824 C1825 1.367 . S
C1824 C1832 1.378 . S
C1825 C1824 1.367 . S
C1825 C1833 1.433 . S
C1826 H1822 0.929 . S
C1826 C1828 1.378 . S
C1826 C1830 1.350 . S
C1827 C1830 1.463 . S
C1827 C1832 1.350 . S
C1827 N1835 1.427 . S
C1828 H1819 0.930 . S
C1828 C1826 1.378 . S
C1828 C1829 1.367 . S
C1829 C1828 1.367 . S
C1829 C1831 1.433 . S
C1830 C1826 1.350 . S
C1830 C1827 1.463 . S
C1830 N1834 1.427 . S
C1831 H1821 0.929 . S
C1831 C1829 1.433 . S
C1831 N1834 1.384 . S
C1832 H1823 0.929 . S
C1832 C1824 1.378 . S
C1832 C1827 1.350 . S
C1833 H1820 0.929 . S
C1833 C1825 1.433 . S
C1833 N1835 1.384 . S
N1834 C1830 1.427 . S
N1834 C1831 1.384 . S
N1835 C1827 1.427 . S
N1835 C1833 1.384 . S
H1836 C1842 0.930 . S
H1837 C1846 0.930 . S
H1838 C1851 0.929 . S
H1839 C1849 0.929 . S
H1840 C1844 0.929 . S
H1841 C1850 0.929 . S
C1842 H1836 0.930 . S
C1842 C1843 1.367 . S
C1842 C1850 1.378 . S
C1843 C1842 1.367 . S
C1843 C1851 1.433 . S
C1844 H1840 0.929 . S
C1844 C1846 1.378 . S
C1844 C1848 1.350 . S
C1845 C1848 1.463 . S
C1845 C1850 1.350 . S
C1845 N1853 1.427 . S
C1846 H1837 0.930 . S
C1846 C1844 1.378 . S
C1846 C1847 1.367 . S
C1847 C1846 1.367 . S
C1847 C1849 1.433 . S
C1848 C1844 1.350 . S
C1848 C1845 1.463 . S
C1848 N1852 1.427 . S
C1849 H1839 0.929 . S
C1849 C1847 1.433 . S
C1849 N1852 1.384 . S
C1850 H1841 0.929 . S
C1850 C1842 1.378 . S
C1850 C1845 1.350 . S
C1851 H1838 0.929 . S
C1851 C1843 1.433 . S
C1851 N1853 1.384 . S
N1852 C1848 1.427 . S
N1852 C1849 1.384 . S
N1853 C1845 1.427 . S
N1853 C1851 1.384 . S
H1854 C1860 0.930 . S
H1855 C1864 0.930 . S
H1856 C1869 0.929 . S
H1857 C1867 0.929 . S
H1858 C1862 0.929 . S
H1859 C1868 0.929 . S
C1860 H1854 0.930 . S
C1860 C1861 1.367 . S
C1860 C1868 1.378 . S
C1861 C1860 1.367 . S
C1861 C1869 1.433 . S
C1862 H1858 0.929 . S
C1862 C1864 1.378 . S
C1862 C1866 1.350 . S
C1863 C1866 1.463 . S
C1863 C1868 1.350 . S
C1863 N1871 1.427 . S
C1864 H1855 0.930 . S
C1864 C1862 1.378 . S
C1864 C1865 1.367 . S
C1865 C1864 1.367 . S
C1865 C1867 1.433 . S
C1866 C1862 1.350 . S
C1866 C1863 1.463 . S
C1866 N1870 1.427 . S
C1867 H1857 0.929 . S
C1867 C1865 1.433 . S
C1867 N1870 1.384 . S
C1868 H1859 0.929 . S
C1868 C1860 1.378 . S
C1868 C1863 1.350 . S
C1869 H1856 0.929 . S
C1869 C1861 1.433 . S
C1869 N1871 1.384 . S
N1870 C1866 1.427 . S
N1870 C1867 1.384 . S
N1871 C1863 1.427 . S
N1871 C1869 1.384 . S
H1872 C1878 0.930 . S
H1873 C1882 0.930 . S
H1874 C1887 0.929 . S
H1875 C1885 0.929 . S
H1876 C1880 0.929 . S
H1877 C1886 0.929 . S
C1878 H1872 0.930 . S
C1878 C1879 1.367 . S
C1878 C1886 1.378 . S
C1879 C1878 1.367 . S
C1879 C1887 1.433 . S
C1880 H1876 0.929 . S
C1880 C1882 1.378 . S
C1880 C1884 1.350 . S
C1881 C1884 1.463 . S
C1881 C1886 1.350 . S
C1881 N1889 1.427 . S
C1882 H1873 0.930 . S
C1882 C1880 1.378 . S
C1882 C1883 1.367 . S
C1883 C1882 1.367 . S
C1883 C1885 1.433 . S
C1884 C1880 1.350 . S
C1884 C1881 1.463 . S
C1884 N1888 1.427 . S
C1885 H1875 0.929 . S
C1885 C1883 1.433 . S
C1885 N1888 1.384 . S
C1886 H1877 0.929 . S
C1886 C1878 1.378 . S
C1886 C1881 1.350 . S
C1887 H1874 0.929 . S
C1887 C1879 1.433 . S
C1887 N1889 1.384 . S
N1888 C1884 1.427 . S
N1888 C1885 1.384 . S
N1889 C1881 1.427 . S
N1889 C1887 1.384 . S
H1890 C1896 0.930 . S
H1891 C1900 0.930 . S
H1892 C1905 0.929 . S
H1893 C1903 0.929 . S
H1894 C1898 0.929 . S
H1895 C1904 0.929 . S
C1896 H1890 0.930 . S
C1896 C1897 1.367 . S
C1896 C1904 1.378 . S
C1897 C1896 1.367 . S
C1897 C1905 1.433 . S
C1898 H1894 0.929 . S
C1898 C1900 1.378 . S
C1898 C1902 1.350 . S
C1899 C1902 1.463 . S
C1899 C1904 1.350 . S
C1899 N1907 1.427 . S
C1900 H1891 0.930 . S
C1900 C1898 1.378 . S
C1900 C1901 1.367 . S
C1901 C1900 1.367 . S
C1901 C1903 1.433 . S
C1902 C1898 1.350 . S
C1902 C1899 1.463 . S
C1902 N1906 1.427 . S
C1903 H1893 0.929 . S
C1903 C1901 1.433 . S
C1903 N1906 1.384 . S
C1904 H1895 0.929 . S
C1904 C1896 1.378 . S
C1904 C1899 1.350 . S
C1905 H1892 0.929 . S
C1905 C1897 1.433 . S
C1905 N1907 1.384 . S
N1906 C1902 1.427 . S
N1906 C1903 1.384 . S
N1907 C1899 1.427 . S
N1907 C1905 1.384 . S
H1908 C1914 0.930 . S
H1909 C1918 0.930 . S
H1910 C1923 0.929 . S
H1911 C1921 0.929 . S
H1912 C1916 0.929 . S
H1913 C1922 0.929 . S
C1914 H1908 0.930 . S
C1914 C1915 1.367 . S
C1914 C1922 1.378 . S
C1915 C1914 1.367 . S
C1915 C1923 1.433 . S
C1916 H1912 0.929 . S
C1916 C1918 1.378 . S
C1916 C1920 1.350 . S
C1917 C1920 1.463 . S
C1917 C1922 1.350 . S
C1917 N1925 1.427 . S
C1918 H1909 0.930 . S
C1918 C1916 1.378 . S
C1918 C1919 1.367 . S
C1919 C1918 1.367 . S
C1919 C1921 1.433 . S
C1920 C1916 1.350 . S
C1920 C1917 1.463 . S
C1920 N1924 1.427 . S
C1921 H1911 0.929 . S
C1921 C1919 1.433 . S
C1921 N1924 1.384 . S
C1922 H1913 0.929 . S
C1922 C1914 1.378 . S
C1922 C1917 1.350 . S
C1923 H1910 0.929 . S
C1923 C1915 1.433 . S
C1923 N1925 1.384 . S
N1924 C1920 1.427 . S
N1924 C1921 1.384 . S
N1925 C1917 1.427 . S
N1925 C1923 1.384 . S
H1926 C1932 0.930 . S
H1927 C1936 0.930 . S
H1928 C1941 0.929 . S
H1929 C1939 0.929 . S
H1930 C1934 0.929 . S
H1931 C1940 0.929 . S
C1932 H1926 0.930 . S
C1932 C1933 1.367 . S
C1932 C1940 1.378 . S
C1933 C1932 1.367 . S
C1933 C1941 1.433 . S
C1934 H1930 0.929 . S
C1934 C1936 1.378 . S
C1934 C1938 1.350 . S
C1935 C1938 1.463 . S
C1935 C1940 1.350 . S
C1935 N1943 1.427 . S
C1936 H1927 0.930 . S
C1936 C1934 1.378 . S
C1936 C1937 1.367 . S
C1937 C1936 1.367 . S
C1937 C1939 1.433 . S
C1938 C1934 1.350 . S
C1938 C1935 1.463 . S
C1938 N1942 1.427 . S
C1939 H1929 0.929 . S
C1939 C1937 1.433 . S
C1939 N1942 1.384 . S
C1940 H1931 0.929 . S
C1940 C1932 1.378 . S
C1940 C1935 1.350 . S
C1941 H1928 0.929 . S
C1941 C1933 1.433 . S
C1941 N1943 1.384 . S
N1942 C1938 1.427 . S
N1942 C1939 1.384 . S
N1943 C1935 1.427 . S
N1943 C1941 1.384 . S
H1944 C1950 0.930 . S
H1945 C1954 0.930 . S
H1946 C1959 0.929 . S
H1947 C1957 0.929 . S
H1948 C1952 0.929 . S
H1949 C1958 0.929 . S
C1950 H1944 0.930 . S
C1950 C1951 1.367 . S
C1950 C1958 1.378 . S
C1951 C1950 1.367 . S
C1951 C1959 1.433 . S
C1952 H1948 0.929 . S
C1952 C1954 1.378 . S
C1952 C1956 1.350 . S
C1953 C1956 1.463 . S
C1953 C1958 1.350 . S
C1953 N1961 1.427 . S
C1954 H1945 0.930 . S
C1954 C1952 1.378 . S
C1954 C1955 1.367 . S
C1955 C1954 1.367 . S
C1955 C1957 1.433 . S
C1956 C1952 1.350 . S
C1956 C1953 1.463 . S
C1956 N1960 1.427 . S
C1957 H1947 0.929 . S
C1957 C1955 1.433 . S
C1957 N1960 1.384 . S
C1958 H1949 0.929 . S
C1958 C1950 1.378 . S
C1958 C1953 1.350 . S
C1959 H1946 0.929 . S
C1959 C1951 1.433 . S
C1959 N1961 1.384 . S
N1960 C1956 1.427 . S
N1960 C1957 1.384 . S
N1961 C1953 1.427 . S
N1961 C1959 1.384 . S
H1962 C1968 0.930 . S
H1963 C1972 0.930 . S
H1964 C1977 0.929 . S
H1965 C1975 0.929 . S
H1966 C1970 0.929 . S
H1967 C1976 0.929 . S
C1968 H1962 0.930 . S
C1968 C1969 1.367 . S
C1968 C1976 1.378 . S
C1969 C1968 1.367 . S
C1969 C1977 1.433 . S
C1970 H1966 0.929 . S
C1970 C1972 1.378 . S
C1970 C1974 1.350 . S
C1971 C1974 1.463 . S
C1971 C1976 1.350 . S
C1971 N1979 1.427 . S
C1972 H1963 0.930 . S
C1972 C1970 1.378 . S
C1972 C1973 1.367 . S
C1973 C1972 1.367 . S
C1973 C1975 1.433 . S
C1974 C1970 1.350 . S
C1974 C1971 1.463 . S
C1974 N1978 1.427 . S
C1975 H1965 0.929 . S
C1975 C1973 1.433 . S
C1975 N1978 1.384 . S
C1976 H1967 0.929 . S
C1976 C1968 1.378 . S
C1976 C1971 1.350 . S
C1977 H1964 0.929 . S
C1977 C1969 1.433 . S
C1977 N1979 1.384 . S
N1978 C1974 1.427 . S
N1978 C1975 1.384 . S
N1979 C1971 1.427 . S
N1979 C1977 1.384 . S
H1980 C1986 0.930 . S
H1981 C1990 0.930 . S
H1982 C1995 0.929 . S
H1983 C1993 0.929 . S
H1984 C1988 0.929 . S
H1985 C1994 0.929 . S
C1986 H1980 0.930 . S
C1986 C1987 1.367 . S
C1986 C1994 1.378 . S
C1987 C1986 1.367 . S
C1987 C1995 1.433 . S
C1988 H1984 0.929 . S
C1988 C1990 1.378 . S
C1988 C1992 1.350 . S
C1989 C1992 1.463 . S
C1989 C1994 1.350 . S
C1989 N1997 1.427 . S
C1990 H1981 0.930 . S
C1990 C1988 1.378 . S
C1990 C1991 1.367 . S
C1991 C1990 1.367 . S
C1991 C1993 1.433 . S
C1992 C1988 1.350 . S
C1992 C1989 1.463 . S
C1992 N1996 1.427 . S
C1993 H1983 0.929 . S
C1993 C1991 1.433 . S
C1993 N1996 1.384 . S
C1994 H1985 0.929 . S
C1994 C1986 1.378 . S
C1994 C1989 1.350 . S
C1995 H1982 0.929 . S
C1995 C1987 1.433 . S
C1995 N1997 1.384 . S
N1996 C1992 1.427 . S
N1996 C1993 1.384 . S
N1997 C1989 1.427 . S
N1997 C1995 1.384 . S
H1998 C2004 0.930 . S
H1999 C2008 0.930 . S
H2000 C2013 0.929 . S
H2001 C2011 0.929 . S
H2002 C2006 0.929 . S
H2003 C2012 0.929 . S
C2004 H1998 0.930 . S
C2004 C2005 1.367 . S
C2004 C2012 1.378 . S
C2005 C2004 1.367 . S
C2005 C2013 1.433 . S
C2006 H2002 0.929 . S
C2006 C2008 1.378 . S
C2006 C2010 1.350 . S
C2007 C2010 1.463 . S
C2007 C2012 1.350 . S
C2007 N2015 1.427 . S
C2008 H1999 0.930 . S
C2008 C2006 1.378 . S
C2008 C2009 1.367 . S
C2009 C2008 1.367 . S
C2009 C2011 1.433 . S
C2010 C2006 1.350 . S
C2010 C2007 1.463 . S
C2010 N2014 1.427 . S
C2011 H2001 0.929 . S
C2011 C2009 1.433 . S
C2011 N2014 1.384 . S
C2012 H2003 0.929 . S
C2012 C2004 1.378 . S
C2012 C2007 1.350 . S
C2013 H2000 0.929 . S
C2013 C2005 1.433 . S
C2013 N2015 1.384 . S
N2014 C2010 1.427 . S
N2014 C2011 1.384 . S
N2015 C2007 1.427 . S
N2015 C2013 1.384 . S
H2016 C2022 0.930 . S
H2017 C2026 0.930 . S
H2018 C2031 0.929 . S
H2019 C2029 0.929 . S
H2020 C2024 0.929 . S
H2021 C2030 0.929 . S
C2022 H2016 0.930 . S
C2022 C2023 1.367 . S
C2022 C2030 1.378 . S
C2023 C2022 1.367 . S
C2023 C2031 1.433 . S
C2024 H2020 0.929 . S
C2024 C2026 1.378 . S
C2024 C2028 1.350 . S
C2025 C2028 1.463 . S
C2025 C2030 1.350 . S
C2025 N2033 1.427 . S
C2026 H2017 0.930 . S
C2026 C2024 1.378 . S
C2026 C2027 1.367 . S
C2027 C2026 1.367 . S
C2027 C2029 1.433 . S
C2028 C2024 1.350 . S
C2028 C2025 1.463 . S
C2028 N2032 1.427 . S
C2029 H2019 0.929 . S
C2029 C2027 1.433 . S
C2029 N2032 1.384 . S
C2030 H2021 0.929 . S
C2030 C2022 1.378 . S
C2030 C2025 1.350 . S
C2031 H2018 0.929 . S
C2031 C2023 1.433 . S
C2031 N2033 1.384 . S
N2032 C2028 1.427 . S
N2032 C2029 1.384 . S
N2033 C2025 1.427 . S
N2033 C2031 1.384 . S
H2034 C2040 0.930 . S
H2035 C2044 0.930 . S
H2036 C2049 0.929 . S
H2037 C2047 0.929 . S
H2038 C2042 0.929 . S
H2039 C2048 0.929 . S
C2040 H2034 0.930 . S
C2040 C2041 1.367 . S
C2040 C2048 1.378 . S
C2041 C2040 1.367 . S
C2041 C2049 1.433 . S
C2042 H2038 0.929 . S
C2042 C2044 1.378 . S
C2042 C2046 1.350 . S
C2043 C2046 1.463 . S
C2043 C2048 1.350 . S
C2043 N2051 1.427 . S
C2044 H2035 0.930 . S
C2044 C2042 1.378 . S
C2044 C2045 1.367 . S
C2045 C2044 1.367 . S
C2045 C2047 1.433 . S
C2046 C2042 1.350 . S
C2046 C2043 1.463 . S
C2046 N2050 1.427 . S
C2047 H2037 0.929 . S
C2047 C2045 1.433 . S
C2047 N2050 1.384 . S
C2048 H2039 0.929 . S
C2048 C2040 1.378 . S
C2048 C2043 1.350 . S
C2049 H2036 0.929 . S
C2049 C2041 1.433 . S
C2049 N2051 1.384 . S
N2050 C2046 1.427 . S
N2050 C2047 1.384 . S
N2051 C2043 1.427 . S
N2051 C2049 1.384 . S
H2052 C2058 0.930 . S
H2053 C2062 0.930 . S
H2054 C2067 0.929 . S
H2055 C2065 0.929 . S
H2056 C2060 0.929 . S
H2057 C2066 0.929 . S
C2058 H2052 0.930 . S
C2058 C2059 1.367 . S
C2058 C2066 1.378 . S
C2059 C2058 1.367 . S
C2059 C2067 1.433 . S
C2060 H2056 0.929 . S
C2060 C2062 1.378 . S
C2060 C2064 1.350 . S
C2061 C2064 1.463 . S
C2061 C2066 1.350 . S
C2061 N2069 1.427 . S
C2062 H2053 0.930 . S
C2062 C2060 1.378 . S
C2062 C2063 1.367 . S
C2063 C2062 1.367 . S
C2063 C2065 1.433 . S
C2064 C2060 1.350 . S
C2064 C2061 1.463 . S
C2064 N2068 1.427 . S
C2065 H2055 0.929 . S
C2065 C2063 1.433 . S
C2065 N2068 1.384 . S
C2066 H2057 0.929 . S
C2066 C2058 1.378 . S
C2066 C2061 1.350 . S
C2067 H2054 0.929 . S
C2067 C2059 1.433 . S
C2067 N2069 1.384 . S
N2068 C2064 1.427 . S
N2068 C2065 1.384 . S
N2069 C2061 1.427 . S
N2069 C2067 1.384 . S
H2070 C2076 0.930 1_554 S
H2071 C2080 0.930 . S
H2072 C2085 0.929 . S
H2073 C2083 0.929 . S
H2074 C2078 0.929 . S
H2075 C2084 0.929 . S
C2076 H2070 0.930 1_556 S
C2076 C2077 1.367 . S
C2076 C2084 1.378 . S
C2077 C2076 1.367 . S
C2077 C2085 1.433 . S
C2078 H2074 0.929 . S
C2078 C2080 1.378 . S
C2078 C2082 1.350 . S
C2079 C2082 1.463 . S
C2079 C2084 1.350 . S
C2079 N2087 1.427 . S
C2080 H2071 0.930 . S
C2080 C2078 1.378 . S
C2080 C2081 1.367 . S
C2081 C2080 1.367 . S
C2081 C2083 1.433 . S
C2082 C2078 1.350 . S
C2082 C2079 1.463 . S
C2082 N2086 1.427 . S
C2083 H2073 0.929 . S
C2083 C2081 1.433 . S
C2083 N2086 1.384 . S
C2084 H2075 0.929 . S
C2084 C2076 1.378 . S
C2084 C2079 1.350 . S
C2085 H2072 0.929 . S
C2085 C2077 1.433 . S
C2085 N2087 1.384 . S
N2086 C2082 1.427 . S
N2086 C2083 1.384 . S
N2087 C2079 1.427 . S
N2087 C2085 1.384 . S
H2088 C2094 0.930 1_554 S
H2089 C2098 0.930 . S
H2090 C2103 0.929 . S
H2091 C2101 0.929 . S
H2092 C2096 0.929 . S
H2093 C2102 0.929 . S
C2094 H2088 0.930 1_556 S
C2094 C2095 1.367 . S
C2094 C2102 1.378 . S
C2095 C2094 1.367 . S
C2095 C2103 1.433 . S
C2096 H2092 0.929 . S
C2096 C2098 1.378 . S
C2096 C2100 1.350 . S
C2097 C2100 1.463 . S
C2097 C2102 1.350 . S
C2097 N2105 1.427 . S
C2098 H2089 0.930 . S
C2098 C2096 1.378 . S
C2098 C2099 1.367 . S
C2099 C2098 1.367 . S
C2099 C2101 1.433 . S
C2100 C2096 1.350 . S
C2100 C2097 1.463 . S
C2100 N2104 1.427 . S
C2101 H2091 0.929 . S
C2101 C2099 1.433 . S
C2101 N2104 1.384 . S
C2102 H2093 0.929 . S
C2102 C2094 1.378 . S
C2102 C2097 1.350 . S
C2103 H2090 0.929 . S
C2103 C2095 1.433 . S
C2103 N2105 1.384 . S
N2104 C2100 1.427 . S
N2104 C2101 1.384 . S
N2105 C2097 1.427 . S
N2105 C2103 1.384 . S
H2106 C2112 0.930 . S
H2107 C2116 0.930 . S
H2108 C2121 0.929 1_554 S
H2109 C2119 0.929 . S
H2110 C2114 0.929 . S
H2111 C2120 0.929 . S
C2112 H2106 0.930 . S
C2112 C2113 1.367 . S
C2112 C2120 1.378 . S
C2113 C2112 1.367 . S
C2113 C2121 1.433 . S
C2114 H2110 0.929 . S
C2114 C2116 1.378 . S
C2114 C2118 1.350 . S
C2115 C2118 1.463 . S
C2115 C2120 1.350 . S
C2115 N2123 1.427 . S
C2116 H2107 0.930 . S
C2116 C2114 1.378 . S
C2116 C2117 1.367 . S
C2117 C2116 1.367 . S
C2117 C2119 1.433 . S
C2118 C2114 1.350 . S
C2118 C2115 1.463 . S
C2118 N2122 1.427 . S
C2119 H2109 0.929 . S
C2119 C2117 1.433 . S
C2119 N2122 1.384 . S
C2120 H2111 0.929 . S
C2120 C2112 1.378 . S
C2120 C2115 1.350 . S
C2121 H2108 0.929 1_556 S
C2121 C2113 1.433 . S
C2121 N2123 1.384 . S
N2122 C2118 1.427 . S
N2122 C2119 1.384 . S
N2123 C2115 1.427 . S
N2123 C2121 1.384 . S
H2124 C2130 0.930 1_554 S
H2125 C2134 0.930 . S
H2126 C2139 0.929 . S
H2127 C2137 0.929 . S
H2128 C2132 0.929 . S
H2129 C2138 0.929 . S
C2130 H2124 0.930 1_556 S
C2130 C2131 1.367 . S
C2130 C2138 1.378 . S
C2131 C2130 1.367 . S
C2131 C2139 1.433 . S
C2132 H2128 0.929 . S
C2132 C2134 1.378 . S
C2132 C2136 1.350 . S
C2133 C2136 1.463 . S
C2133 C2138 1.350 . S
C2133 N2141 1.427 . S
C2134 H2125 0.930 . S
C2134 C2132 1.378 . S
C2134 C2135 1.367 . S
C2135 C2134 1.367 . S
C2135 C2137 1.433 . S
C2136 C2132 1.350 . S
C2136 C2133 1.463 . S
C2136 N2140 1.427 . S
C2137 H2127 0.929 . S
C2137 C2135 1.433 . S
C2137 N2140 1.384 . S
C2138 H2129 0.929 . S
C2138 C2130 1.378 . S
C2138 C2133 1.350 . S
C2139 H2126 0.929 . S
C2139 C2131 1.433 . S
C2139 N2141 1.384 . S
N2140 C2136 1.427 . S
N2140 C2137 1.384 . S
N2141 C2133 1.427 . S
N2141 C2139 1.384 . S
H2142 C2148 0.930 . S
H2143 C2152 0.930 . S
H2144 C2157 0.929 1_554 S
H2145 C2155 0.929 . S
H2146 C2150 0.929 . S
H2147 C2156 0.929 . S
C2148 H2142 0.930 . S
C2148 C2149 1.367 . S
C2148 C2156 1.378 . S
C2149 C2148 1.367 . S
C2149 C2157 1.433 . S
C2150 H2146 0.929 . S
C2150 C2152 1.378 . S
C2150 C2154 1.350 . S
C2151 C2154 1.463 . S
C2151 C2156 1.350 . S
C2151 N2159 1.427 . S
C2152 H2143 0.930 . S
C2152 C2150 1.378 . S
C2152 C2153 1.367 . S
C2153 C2152 1.367 . S
C2153 C2155 1.433 . S
C2154 C2150 1.350 . S
C2154 C2151 1.463 . S
C2154 N2158 1.427 . S
C2155 H2145 0.929 . S
C2155 C2153 1.433 . S
C2155 N2158 1.384 . S
C2156 H2147 0.929 . S
C2156 C2148 1.378 . S
C2156 C2151 1.350 . S
C2157 H2144 0.929 1_556 S
C2157 C2149 1.433 . S
C2157 N2159 1.384 . S
N2158 C2154 1.427 . S
N2158 C2155 1.384 . S
N2159 C2151 1.427 . S
N2159 C2157 1.384 . S
H2160 C2166 0.930 . S
H2161 C2170 0.930 . S
H2162 C2175 0.929 . S
H2163 C2173 0.929 . S
H2164 C2168 0.929 . S
H2165 C2174 0.929 . S
C2166 H2160 0.930 . S
C2166 C2167 1.367 . S
C2166 C2174 1.378 . S
C2167 C2166 1.367 . S
C2167 C2175 1.433 . S
C2168 H2164 0.929 . S
C2168 C2170 1.378 . S
C2168 C2172 1.350 . S
C2169 C2172 1.463 . S
C2169 C2174 1.350 . S
C2169 N2177 1.427 . S
C2170 H2161 0.930 . S
C2170 C2168 1.378 . S
C2170 C2171 1.367 . S
C2171 C2170 1.367 . S
C2171 C2173 1.433 . S
C2172 C2168 1.350 . S
C2172 C2169 1.463 . S
C2172 N2176 1.427 . S
C2173 H2163 0.929 . S
C2173 C2171 1.433 . S
C2173 N2176 1.384 . S
C2174 H2165 0.929 . S
C2174 C2166 1.378 . S
C2174 C2169 1.350 . S
C2175 H2162 0.929 . S
C2175 C2167 1.433 . S
C2175 N2177 1.384 . S
N2176 C2172 1.427 . S
N2176 C2173 1.384 . S
N2177 C2169 1.427 . S
N2177 C2175 1.384 . S
H2178 C2184 0.930 . S
H2179 C2188 0.930 . S
H2180 C2193 0.929 . S
H2181 C2191 0.929 . S
H2182 C2186 0.929 . S
H2183 C2192 0.929 . S
C2184 H2178 0.930 . S
C2184 C2185 1.367 . S
C2184 C2192 1.378 . S
C2185 C2184 1.367 . S
C2185 C2193 1.433 . S
C2186 H2182 0.929 . S
C2186 C2188 1.378 . S
C2186 C2190 1.350 . S
C2187 C2190 1.463 . S
C2187 C2192 1.350 . S
C2187 N2195 1.427 . S
C2188 H2179 0.930 . S
C2188 C2186 1.378 . S
C2188 C2189 1.367 . S
C2189 C2188 1.367 . S
C2189 C2191 1.433 . S
C2190 C2186 1.350 . S
C2190 C2187 1.463 . S
C2190 N2194 1.427 . S
C2191 H2181 0.929 . S
C2191 C2189 1.433 . S
C2191 N2194 1.384 . S
C2192 H2183 0.929 . S
C2192 C2184 1.378 . S
C2192 C2187 1.350 . S
C2193 H2180 0.929 . S
C2193 C2185 1.433 . S
C2193 N2195 1.384 . S
N2194 C2190 1.427 . S
N2194 C2191 1.384 . S
N2195 C2187 1.427 . S
N2195 C2193 1.384 . S
H2196 C2202 0.930 . S
H2197 C2206 0.930 . S
H2198 C2211 0.929 . S
H2199 C2209 0.929 . S
H2200 C2204 0.929 . S
H2201 C2210 0.929 . S
C2202 H2196 0.930 . S
C2202 C2203 1.367 . S
C2202 C2210 1.378 . S
C2203 C2202 1.367 . S
C2203 C2211 1.433 . S
C2204 H2200 0.929 . S
C2204 C2206 1.378 . S
C2204 C2208 1.350 . S
C2205 C2208 1.463 . S
C2205 C2210 1.350 . S
C2205 N2213 1.427 . S
C2206 H2197 0.930 . S
C2206 C2204 1.378 . S
C2206 C2207 1.367 . S
C2207 C2206 1.367 . S
C2207 C2209 1.433 . S
C2208 C2204 1.350 . S
C2208 C2205 1.463 . S
C2208 N2212 1.427 . S
C2209 H2199 0.929 . S
C2209 C2207 1.433 . S
C2209 N2212 1.384 . S
C2210 H2201 0.929 . S
C2210 C2202 1.378 . S
C2210 C2205 1.350 . S
C2211 H2198 0.929 . S
C2211 C2203 1.433 . S
C2211 N2213 1.384 . S
N2212 C2208 1.427 . S
N2212 C2209 1.384 . S
N2213 C2205 1.427 . S
N2213 C2211 1.384 . S
H2214 C2220 0.930 . S
H2215 C2224 0.930 . S
H2216 C2229 0.929 . S
H2217 C2227 0.929 . S
H2218 C2222 0.929 . S
H2219 C2228 0.929 . S
C2220 H2214 0.930 . S
C2220 C2221 1.367 . S
C2220 C2228 1.378 . S
C2221 C2220 1.367 . S
C2221 C2229 1.433 . S
C2222 H2218 0.929 . S
C2222 C2224 1.378 . S
C2222 C2226 1.350 . S
C2223 C2226 1.463 . S
C2223 C2228 1.350 . S
C2223 N2231 1.427 . S
C2224 H2215 0.930 . S
C2224 C2222 1.378 . S
C2224 C2225 1.367 . S
C2225 C2224 1.367 . S
C2225 C2227 1.433 . S
C2226 C2222 1.350 . S
C2226 C2223 1.463 . S
C2226 N2230 1.427 . S
C2227 H2217 0.929 . S
C2227 C2225 1.433 . S
C2227 N2230 1.384 . S
C2228 H2219 0.929 . S
C2228 C2220 1.378 . S
C2228 C2223 1.350 . S
C2229 H2216 0.929 . S
C2229 C2221 1.433 . S
C2229 N2231 1.384 . S
N2230 C2226 1.427 . S
N2230 C2227 1.384 . S
N2231 C2223 1.427 . S
N2231 C2229 1.384 . S
H2232 C2238 0.930 . S
H2233 C2242 0.930 . S
H2234 C2247 0.929 . S
H2235 C2245 0.929 . S
H2236 C2240 0.929 . S
H2237 C2246 0.929 . S
C2238 H2232 0.930 . S
C2238 C2239 1.367 . S
C2238 C2246 1.378 . S
C2239 C2238 1.367 . S
C2239 C2247 1.433 . S
C2240 H2236 0.929 . S
C2240 C2242 1.378 . S
C2240 C2244 1.350 . S
C2241 C2244 1.463 . S
C2241 C2246 1.350 . S
C2241 N2249 1.427 . S
C2242 H2233 0.930 . S
C2242 C2240 1.378 . S
C2242 C2243 1.367 . S
C2243 C2242 1.367 . S
C2243 C2245 1.433 . S
C2244 C2240 1.350 . S
C2244 C2241 1.463 . S
C2244 N2248 1.427 . S
C2245 H2235 0.929 . S
C2245 C2243 1.433 . S
C2245 N2248 1.384 . S
C2246 H2237 0.929 . S
C2246 C2238 1.378 . S
C2246 C2241 1.350 . S
C2247 H2234 0.929 . S
C2247 C2239 1.433 . S
C2247 N2249 1.384 . S
N2248 C2244 1.427 . S
N2248 C2245 1.384 . S
N2249 C2241 1.427 . S
N2249 C2247 1.384 . S
H2250 C2256 0.930 . S
H2251 C2260 0.930 . S
H2252 C2265 0.929 . S
H2253 C2263 0.929 . S
H2254 C2258 0.929 . S
H2255 C2264 0.929 . S
C2256 H2250 0.930 . S
C2256 C2257 1.367 . S
C2256 C2264 1.378 . S
C2257 C2256 1.367 . S
C2257 C2265 1.433 . S
C2258 H2254 0.929 . S
C2258 C2260 1.378 . S
C2258 C2262 1.350 . S
C2259 C2262 1.463 . S
C2259 C2264 1.350 . S
C2259 N2267 1.427 . S
C2260 H2251 0.930 . S
C2260 C2258 1.378 . S
C2260 C2261 1.367 . S
C2261 C2260 1.367 . S
C2261 C2263 1.433 . S
C2262 C2258 1.350 . S
C2262 C2259 1.463 . S
C2262 N2266 1.427 . S
C2263 H2253 0.929 . S
C2263 C2261 1.433 . S
C2263 N2266 1.384 . S
C2264 H2255 0.929 . S
C2264 C2256 1.378 . S
C2264 C2259 1.350 . S
C2265 H2252 0.929 . S
C2265 C2257 1.433 . S
C2265 N2267 1.384 . S
N2266 C2262 1.427 . S
N2266 C2263 1.384 . S
N2267 C2259 1.427 . S
N2267 C2265 1.384 . S
H2268 C2274 0.930 . S
H2269 C2278 0.930 . S
H2270 C2283 0.929 . S
H2271 C2281 0.929 . S
H2272 C2276 0.929 . S
H2273 C2282 0.929 . S
C2274 H2268 0.930 . S
C2274 C2275 1.367 . S
C2274 C2282 1.378 . S
C2275 C2274 1.367 . S
C2275 C2283 1.433 . S
C2276 H2272 0.929 . S
C2276 C2278 1.378 . S
C2276 C2280 1.350 . S
C2277 C2280 1.463 . S
C2277 C2282 1.350 . S
C2277 N2285 1.427 . S
C2278 H2269 0.930 . S
C2278 C2276 1.378 . S
C2278 C2279 1.367 . S
C2279 C2278 1.367 . S
C2279 C2281 1.433 . S
C2280 C2276 1.350 . S
C2280 C2277 1.463 . S
C2280 N2284 1.427 . S
C2281 H2271 0.929 . S
C2281 C2279 1.433 . S
C2281 N2284 1.384 . S
C2282 H2273 0.929 . S
C2282 C2274 1.378 . S
C2282 C2277 1.350 . S
C2283 H2270 0.929 . S
C2283 C2275 1.433 . S
C2283 N2285 1.384 . S
N2284 C2280 1.427 . S
N2284 C2281 1.384 . S
N2285 C2277 1.427 . S
N2285 C2283 1.384 . S
H2286 C2292 0.930 . S
H2287 C2296 0.930 . S
H2288 C2301 0.929 . S
H2289 C2299 0.929 . S
H2290 C2294 0.929 . S
H2291 C2300 0.929 . S
C2292 H2286 0.930 . S
C2292 C2293 1.367 . S
C2292 C2300 1.378 . S
C2293 C2292 1.367 . S
C2293 C2301 1.433 . S
C2294 H2290 0.929 . S
C2294 C2296 1.378 . S
C2294 C2298 1.350 . S
C2295 C2298 1.463 . S
C2295 C2300 1.350 . S
C2295 N2303 1.427 . S
C2296 H2287 0.930 . S
C2296 C2294 1.378 . S
C2296 C2297 1.367 . S
C2297 C2296 1.367 . S
C2297 C2299 1.433 . S
C2298 C2294 1.350 . S
C2298 C2295 1.463 . S
C2298 N2302 1.427 . S
C2299 H2289 0.929 . S
C2299 C2297 1.433 . S
C2299 N2302 1.384 . S
C2300 H2291 0.929 . S
C2300 C2292 1.378 . S
C2300 C2295 1.350 . S
C2301 H2288 0.929 . S
C2301 C2293 1.433 . S
C2301 N2303 1.384 . S
N2302 C2298 1.427 . S
N2302 C2299 1.384 . S
N2303 C2295 1.427 . S
N2303 C2301 1.384 . S
H2304 C2310 0.930 . S
H2305 C2314 0.930 . S
H2306 C2319 0.929 . S
H2307 C2317 0.929 . S
H2308 C2312 0.929 . S
H2309 C2318 0.929 . S
C2310 H2304 0.930 . S
C2310 C2311 1.367 . S
C2310 C2318 1.378 . S
C2311 C2310 1.367 . S
C2311 C2319 1.433 . S
C2312 H2308 0.929 . S
C2312 C2314 1.378 . S
C2312 C2316 1.350 . S
C2313 C2316 1.463 . S
C2313 C2318 1.350 . S
C2313 N2321 1.427 . S
C2314 H2305 0.930 . S
C2314 C2312 1.378 . S
C2314 C2315 1.367 . S
C2315 C2314 1.367 . S
C2315 C2317 1.433 . S
C2316 C2312 1.350 . S
C2316 C2313 1.463 . S
C2316 N2320 1.427 . S
C2317 H2307 0.929 . S
C2317 C2315 1.433 . S
C2317 N2320 1.384 . S
C2318 H2309 0.929 . S
C2318 C2310 1.378 . S
C2318 C2313 1.350 . S
C2319 H2306 0.929 . S
C2319 C2311 1.433 . S
C2319 N2321 1.384 . S
N2320 C2316 1.427 . S
N2320 C2317 1.384 . S
N2321 C2313 1.427 . S
N2321 C2319 1.384 . S
H2322 C2328 0.930 . S
H2323 C2332 0.930 . S
H2324 C2337 0.929 . S
H2325 C2335 0.929 . S
H2326 C2330 0.929 . S
H2327 C2336 0.929 . S
C2328 H2322 0.930 . S
C2328 C2329 1.367 . S
C2328 C2336 1.378 . S
C2329 C2328 1.367 . S
C2329 C2337 1.433 . S
C2330 H2326 0.929 . S
C2330 C2332 1.378 . S
C2330 C2334 1.350 . S
C2331 C2334 1.463 . S
C2331 C2336 1.350 . S
C2331 N2339 1.427 . S
C2332 H2323 0.930 . S
C2332 C2330 1.378 . S
C2332 C2333 1.367 . S
C2333 C2332 1.367 . S
C2333 C2335 1.433 . S
C2334 C2330 1.350 . S
C2334 C2331 1.463 . S
C2334 N2338 1.427 . S
C2335 H2325 0.929 . S
C2335 C2333 1.433 . S
C2335 N2338 1.384 . S
C2336 H2327 0.929 . S
C2336 C2328 1.378 . S
C2336 C2331 1.350 . S
C2337 H2324 0.929 . S
C2337 C2329 1.433 . S
C2337 N2339 1.384 . S
N2338 C2334 1.427 . S
N2338 C2335 1.384 . S
N2339 C2331 1.427 . S
N2339 C2337 1.384 . S
H2340 C2346 0.930 . S
H2341 C2350 0.930 . S
H2342 C2355 0.929 . S
H2343 C2353 0.928 . S
H2344 C2348 0.929 . S
H2345 C2354 0.933 . S
C2346 H2340 0.930 . S
C2346 C2347 1.367 . S
C2346 C2354 1.378 . S
C2347 C2346 1.367 . S
C2347 C2355 1.433 . S
C2348 H2344 0.929 . S
C2348 C2350 1.378 . S
C2348 C2352 1.350 . S
C2349 C2352 1.463 . S
C2349 C2354 1.350 . S
C2349 N2357 1.427 . S
C2350 H2341 0.930 . S
C2350 C2348 1.378 . S
C2350 C2351 1.367 . S
C2351 C2350 1.367 . S
C2351 C2353 1.434 1_565 S
C2352 C2348 1.350 . S
C2352 C2349 1.463 . S
C2352 N2356 1.427 . S
C2353 H2343 0.928 . S
C2353 C2351 1.434 1_545 S
C2353 N2356 1.384 1_545 S
C2354 H2345 0.933 . S
C2354 C2346 1.378 . S
C2354 C2349 1.350 . S
C2355 H2342 0.929 . S
C2355 C2347 1.433 . S
C2355 N2357 1.384 . S
N2356 C2352 1.427 . S
N2356 C2353 1.384 1_565 S
N2357 C2349 1.427 . S
N2357 C2355 1.384 . S
H2358 C2364 0.930 . S
H2359 C2368 0.930 . S
H2360 C2373 0.929 . S
H2361 C2371 0.929 . S
H2362 C2366 0.929 . S
H2363 C2372 0.929 . S
C2364 H2358 0.930 . S
C2364 C2365 1.367 . S
C2364 C2372 1.378 . S
C2365 C2364 1.367 . S
C2365 C2373 1.433 . S
C2366 H2362 0.929 . S
C2366 C2368 1.378 . S
C2366 C2370 1.350 . S
C2367 C2370 1.463 . S
C2367 C2372 1.350 . S
C2367 N2375 1.427 . S
C2368 H2359 0.930 . S
C2368 C2366 1.378 . S
C2368 C2369 1.367 . S
C2369 C2368 1.367 . S
C2369 C2371 1.433 . S
C2370 C2366 1.350 . S
C2370 C2367 1.463 . S
C2370 N2374 1.427 . S
C2371 H2361 0.929 . S
C2371 C2369 1.433 . S
C2371 N2374 1.384 . S
C2372 H2363 0.929 . S
C2372 C2364 1.378 . S
C2372 C2367 1.350 . S
C2373 H2360 0.929 . S
C2373 C2365 1.433 . S
C2373 N2375 1.384 . S
N2374 C2370 1.427 . S
N2374 C2371 1.384 . S
N2375 C2367 1.427 . S
N2375 C2373 1.384 . S
H2376 C2382 0.930 . S
H2377 C2386 0.930 . S
H2378 C2391 0.929 . S
H2379 C2389 0.929 . S
H2380 C2384 0.929 . S
H2381 C2390 0.929 . S
C2382 H2376 0.930 . S
C2382 C2383 1.367 . S
C2382 C2390 1.378 . S
C2383 C2382 1.367 . S
C2383 C2391 1.433 . S
C2384 H2380 0.929 . S
C2384 C2386 1.378 . S
C2384 C2388 1.350 . S
C2385 C2388 1.463 . S
C2385 C2390 1.350 . S
C2385 N2393 1.427 . S
C2386 H2377 0.930 . S
C2386 C2384 1.378 . S
C2386 C2387 1.367 . S
C2387 C2386 1.367 . S
C2387 C2389 1.433 . S
C2388 C2384 1.350 . S
C2388 C2385 1.463 . S
C2388 N2392 1.427 . S
C2389 H2379 0.929 . S
C2389 C2387 1.433 . S
C2389 N2392 1.384 . S
C2390 H2381 0.929 . S
C2390 C2382 1.378 . S
C2390 C2385 1.350 . S
C2391 H2378 0.929 . S
C2391 C2383 1.433 . S
C2391 N2393 1.384 . S
N2392 C2388 1.427 . S
N2392 C2389 1.384 . S
N2393 C2385 1.427 . S
N2393 C2391 1.384 . S
H2394 C2400 0.930 . S
H2395 C2404 0.930 . S
H2396 C2409 0.929 . S
H2397 C2407 0.929 . S
H2398 C2402 0.929 . S
H2399 C2408 0.929 . S
C2400 H2394 0.930 . S
C2400 C2401 1.367 . S
C2400 C2408 1.378 . S
C2401 C2400 1.367 . S
C2401 C2409 1.433 . S
C2402 H2398 0.929 . S
C2402 C2404 1.378 . S
C2402 C2406 1.350 . S
C2403 C2406 1.463 . S
C2403 C2408 1.350 . S
C2403 N2411 1.427 . S
C2404 H2395 0.930 . S
C2404 C2402 1.378 . S
C2404 C2405 1.367 . S
C2405 C2404 1.367 . S
C2405 C2407 1.433 . S
C2406 C2402 1.350 . S
C2406 C2403 1.463 . S
C2406 N2410 1.427 . S
C2407 H2397 0.929 . S
C2407 C2405 1.433 . S
C2407 N2410 1.384 . S
C2408 H2399 0.929 . S
C2408 C2400 1.378 . S
C2408 C2403 1.350 . S
C2409 H2396 0.929 . S
C2409 C2401 1.433 . S
C2409 N2411 1.384 . S
N2410 C2406 1.427 . S
N2410 C2407 1.384 . S
N2411 C2403 1.427 . S
N2411 C2409 1.384 . S
H2412 C2418 0.930 . S
H2413 C2422 0.930 . S
H2414 C2427 0.929 . S
H2415 C2425 0.929 . S
H2416 C2420 0.929 . S
H2417 C2426 0.929 . S
C2418 H2412 0.930 . S
C2418 C2419 1.367 . S
C2418 C2426 1.378 . S
C2419 C2418 1.367 . S
C2419 C2427 1.433 . S
C2420 H2416 0.929 . S
C2420 C2422 1.378 . S
C2420 C2424 1.350 . S
C2421 C2424 1.463 . S
C2421 C2426 1.350 . S
C2421 N2429 1.427 . S
C2422 H2413 0.930 . S
C2422 C2420 1.378 . S
C2422 C2423 1.367 . S
C2423 C2422 1.367 . S
C2423 C2425 1.433 . S
C2424 C2420 1.350 . S
C2424 C2421 1.463 . S
C2424 N2428 1.427 . S
C2425 H2415 0.929 . S
C2425 C2423 1.433 . S
C2425 N2428 1.384 . S
C2426 H2417 0.929 . S
C2426 C2418 1.378 . S
C2426 C2421 1.350 . S
C2427 H2414 0.929 . S
C2427 C2419 1.433 . S
C2427 N2429 1.384 . S
N2428 C2424 1.427 . S
N2428 C2425 1.384 . S
N2429 C2421 1.427 . S
N2429 C2427 1.384 . S
H2430 C2436 0.930 . S
H2431 C2440 0.930 . S
H2432 C2445 0.929 . S
H2433 C2443 0.929 . S
H2434 C2438 0.929 . S
H2435 C2444 0.929 . S
C2436 H2430 0.930 . S
C2436 C2437 1.367 . S
C2436 C2444 1.378 . S
C2437 C2436 1.367 . S
C2437 C2445 1.433 . S
C2438 H2434 0.929 . S
C2438 C2440 1.378 . S
C2438 C2442 1.350 . S
C2439 C2442 1.463 . S
C2439 C2444 1.350 . S
C2439 N2447 1.427 . S
C2440 H2431 0.930 . S
C2440 C2438 1.378 . S
C2440 C2441 1.367 . S
C2441 C2440 1.367 . S
C2441 C2443 1.433 . S
C2442 C2438 1.350 . S
C2442 C2439 1.463 . S
C2442 N2446 1.427 . S
C2443 H2433 0.929 . S
C2443 C2441 1.433 . S
C2443 N2446 1.384 . S
C2444 H2435 0.929 . S
C2444 C2436 1.378 . S
C2444 C2439 1.350 . S
C2445 H2432 0.929 . S
C2445 C2437 1.433 . S
C2445 N2447 1.384 . S
N2446 C2442 1.427 . S
N2446 C2443 1.384 . S
N2447 C2439 1.427 . S
N2447 C2445 1.384 . S
H2448 C2454 0.930 . S
H2449 C2458 0.930 . S
H2450 C2463 0.929 . S
H2451 C2461 0.929 . S
H2452 C2456 0.929 . S
H2453 C2462 0.929 . S
C2454 H2448 0.930 . S
C2454 C2455 1.367 . S
C2454 C2462 1.378 . S
C2455 C2454 1.367 . S
C2455 C2463 1.433 . S
C2456 H2452 0.929 . S
C2456 C2458 1.378 . S
C2456 C2460 1.350 . S
C2457 C2460 1.463 . S
C2457 C2462 1.350 . S
C2457 N2465 1.427 . S
C2458 H2449 0.930 . S
C2458 C2456 1.378 . S
C2458 C2459 1.367 . S
C2459 C2458 1.367 . S
C2459 C2461 1.433 . S
C2460 C2456 1.350 . S
C2460 C2457 1.463 . S
C2460 N2464 1.427 . S
C2461 H2451 0.929 . S
C2461 C2459 1.433 . S
C2461 N2464 1.384 . S
C2462 H2453 0.929 . S
C2462 C2454 1.378 . S
C2462 C2457 1.350 . S
C2463 H2450 0.929 . S
C2463 C2455 1.433 . S
C2463 N2465 1.384 . S
N2464 C2460 1.427 . S
N2464 C2461 1.384 . S
N2465 C2457 1.427 . S
N2465 C2463 1.384 . S
H2466 C2472 0.930 1_455 S
H2467 C2476 0.930 . S
H2468 C2481 0.929 . S
H2469 C2479 0.929 . S
H2470 C2474 0.929 . S
H2471 C2480 0.897 1_455 S
C2472 H2466 0.930 1_655 S
C2472 C2473 1.367 . S
C2472 C2480 1.359 . S
C2473 C2472 1.367 . S
C2473 C2481 1.433 . S
C2474 H2470 0.929 . S
C2474 C2476 1.378 . S
C2474 C2478 1.350 . S
C2475 C2478 1.463 . S
C2475 C2480 1.403 . S
C2475 N2483 1.427 . S
C2476 H2467 0.930 . S
C2476 C2474 1.378 . S
C2476 C2477 1.367 . S
C2477 C2476 1.367 . S
C2477 C2479 1.433 1_655 S
C2478 C2474 1.350 . S
C2478 C2475 1.463 . S
C2478 N2482 1.427 1_655 S
C2479 H2469 0.929 . S
C2479 C2477 1.433 1_455 S
C2479 N2482 1.384 . S
C2480 H2471 0.897 1_655 S
C2480 C2472 1.359 . S
C2480 C2475 1.403 . S
C2481 H2468 0.929 . S
C2481 C2473 1.433 . S
C2481 N2483 1.384 . S
N2482 C2478 1.427 1_455 S
N2482 C2479 1.384 . S
N2483 C2475 1.427 . S
N2483 C2481 1.384 . S
H2484 C2490 0.930 . S
H2485 C2494 0.930 . S
H2486 C2499 0.929 . S
H2487 C2497 0.929 . S
H2488 C2492 0.929 . S
H2489 C2498 0.929 . S
C2490 H2484 0.930 . S
C2490 C2491 1.367 . S
C2490 C2498 1.378 . S
C2491 C2490 1.367 . S
C2491 C2499 1.433 . S
C2492 H2488 0.929 . S
C2492 C2494 1.378 . S
C2492 C2496 1.350 . S
C2493 C2496 1.463 . S
C2493 C2498 1.350 . S
C2493 N2501 1.427 . S
C2494 H2485 0.930 . S
C2494 C2492 1.378 . S
C2494 C2495 1.367 . S
C2495 C2494 1.367 . S
C2495 C2497 1.433 . S
C2496 C2492 1.350 . S
C2496 C2493 1.463 . S
C2496 N2500 1.427 . S
C2497 H2487 0.929 . S
C2497 C2495 1.433 . S
C2497 N2500 1.384 . S
C2498 H2489 0.929 . S
C2498 C2490 1.378 . S
C2498 C2493 1.350 . S
C2499 H2486 0.929 . S
C2499 C2491 1.433 . S
C2499 N2501 1.384 . S
N2500 C2496 1.427 . S
N2500 C2497 1.384 . S
N2501 C2493 1.427 . S
N2501 C2499 1.384 . S
H2502 C2508 0.930 . S
H2503 C2512 0.930 . S
H2504 C2517 0.929 . S
H2505 C2515 0.929 . S
H2506 C2510 0.929 . S
H2507 C2516 0.929 . S
C2508 H2502 0.930 . S
C2508 C2509 1.367 . S
C2508 C2516 1.378 . S
C2509 C2508 1.367 . S
C2509 C2517 1.433 . S
C2510 H2506 0.929 . S
C2510 C2512 1.378 . S
C2510 C2514 1.350 . S
C2511 C2514 1.463 . S
C2511 C2516 1.350 . S
C2511 N2519 1.427 . S
C2512 H2503 0.930 . S
C2512 C2510 1.378 . S
C2512 C2513 1.367 . S
C2513 C2512 1.367 . S
C2513 C2515 1.433 . S
C2514 C2510 1.350 . S
C2514 C2511 1.463 . S
C2514 N2518 1.427 . S
C2515 H2505 0.929 . S
C2515 C2513 1.433 . S
C2515 N2518 1.384 . S
C2516 H2507 0.929 . S
C2516 C2508 1.378 . S
C2516 C2511 1.350 . S
C2517 H2504 0.929 . S
C2517 C2509 1.433 . S
C2517 N2519 1.384 . S
N2518 C2514 1.427 . S
N2518 C2515 1.384 . S
N2519 C2511 1.427 . S
N2519 C2517 1.384 . S
H2520 C2526 0.930 . S
H2521 C2530 0.930 . S
H2522 C2535 0.929 . S
H2523 C2533 0.929 . S
H2524 C2528 0.929 . S
H2525 C2534 0.929 . S
C2526 H2520 0.930 . S
C2526 C2527 1.367 . S
C2526 C2534 1.378 . S
C2527 C2526 1.367 . S
C2527 C2535 1.433 . S
C2528 H2524 0.929 . S
C2528 C2530 1.378 . S
C2528 C2532 1.350 . S
C2529 C2532 1.463 . S
C2529 C2534 1.350 . S
C2529 N2537 1.427 . S
C2530 H2521 0.930 . S
C2530 C2528 1.378 . S
C2530 C2531 1.367 . S
C2531 C2530 1.367 . S
C2531 C2533 1.433 . S
C2532 C2528 1.350 . S
C2532 C2529 1.463 . S
C2532 N2536 1.427 . S
C2533 H2523 0.929 . S
C2533 C2531 1.433 . S
C2533 N2536 1.384 . S
C2534 H2525 0.929 . S
C2534 C2526 1.378 . S
C2534 C2529 1.350 . S
C2535 H2522 0.929 . S
C2535 C2527 1.433 . S
C2535 N2537 1.384 . S
N2536 C2532 1.427 . S
N2536 C2533 1.384 . S
N2537 C2529 1.427 . S
N2537 C2535 1.384 . S
H2538 C2544 0.930 . S
H2539 C2548 0.930 . S
H2540 C2553 0.929 . S
H2541 C2551 0.929 . S
H2542 C2546 0.929 . S
H2543 C2552 0.929 . S
C2544 H2538 0.930 . S
C2544 C2545 1.367 . S
C2544 C2552 1.378 . S
C2545 C2544 1.367 . S
C2545 C2553 1.433 . S
C2546 H2542 0.929 . S
C2546 C2548 1.378 . S
C2546 C2550 1.350 . S
C2547 C2550 1.463 . S
C2547 C2552 1.350 . S
C2547 N2555 1.427 . S
C2548 H2539 0.930 . S
C2548 C2546 1.378 . S
C2548 C2549 1.367 . S
C2549 C2548 1.367 . S
C2549 C2551 1.433 . S
C2550 C2546 1.350 . S
C2550 C2547 1.463 . S
C2550 N2554 1.427 . S
C2551 H2541 0.929 . S
C2551 C2549 1.433 . S
C2551 N2554 1.384 . S
C2552 H2543 0.929 . S
C2552 C2544 1.378 . S
C2552 C2547 1.350 . S
C2553 H2540 0.929 . S
C2553 C2545 1.433 . S
C2553 N2555 1.384 . S
N2554 C2550 1.427 . S
N2554 C2551 1.384 . S
N2555 C2547 1.427 . S
N2555 C2553 1.384 . S
H2556 C2562 0.930 . S
H2557 C2566 0.930 . S
H2558 C2571 0.929 . S
H2559 C2569 0.929 . S
H2560 C2564 0.929 . S
H2561 C2570 0.929 . S
C2562 H2556 0.930 . S
C2562 C2563 1.367 . S
C2562 C2570 1.378 . S
C2563 C2562 1.367 . S
C2563 C2571 1.433 . S
C2564 H2560 0.929 . S
C2564 C2566 1.378 . S
C2564 C2568 1.350 . S
C2565 C2568 1.463 . S
C2565 C2570 1.350 . S
C2565 N2573 1.427 . S
C2566 H2557 0.930 . S
C2566 C2564 1.378 . S
C2566 C2567 1.367 . S
C2567 C2566 1.367 . S
C2567 C2569 1.433 . S
C2568 C2564 1.350 . S
C2568 C2565 1.463 . S
C2568 N2572 1.427 . S
C2569 H2559 0.929 . S
C2569 C2567 1.433 . S
C2569 N2572 1.384 . S
C2570 H2561 0.929 . S
C2570 C2562 1.378 . S
C2570 C2565 1.350 . S
C2571 H2558 0.929 . S
C2571 C2563 1.433 . S
C2571 N2573 1.384 . S
N2572 C2568 1.427 . S
N2572 C2569 1.384 . S
N2573 C2565 1.427 . S
N2573 C2571 1.384 . S
H2574 C2580 0.930 . S
H2575 C2584 0.930 . S
H2576 C2589 0.929 . S
H2577 C2587 0.929 . S
H2578 C2582 0.929 . S
H2579 C2588 0.929 . S
C2580 H2574 0.930 . S
C2580 C2581 1.367 . S
C2580 C2588 1.378 . S
C2581 C2580 1.367 . S
C2581 C2589 1.433 . S
C2582 H2578 0.929 . S
C2582 C2584 1.378 . S
C2582 C2586 1.350 . S
C2583 C2586 1.463 . S
C2583 C2588 1.350 . S
C2583 N2591 1.427 . S
C2584 H2575 0.930 . S
C2584 C2582 1.378 . S
C2584 C2585 1.367 . S
C2585 C2584 1.367 . S
C2585 C2587 1.433 . S
C2586 C2582 1.350 . S
C2586 C2583 1.463 . S
C2586 N2590 1.427 . S
C2587 H2577 0.929 . S
C2587 C2585 1.433 . S
C2587 N2590 1.384 . S
C2588 H2579 0.929 . S
C2588 C2580 1.378 . S
C2588 C2583 1.350 . S
C2589 H2576 0.929 . S
C2589 C2581 1.433 . S
C2589 N2591 1.384 . S
N2590 C2586 1.427 . S
N2590 C2587 1.384 . S
N2591 C2583 1.427 . S
N2591 C2589 1.384 . S
H2592 C2598 0.930 . S
H2593 C2602 0.930 . S
H2594 C2607 0.929 . S
H2595 C2605 0.929 . S
H2596 C2600 0.929 . S
H2597 C2606 0.929 . S
C2598 H2592 0.930 . S
C2598 C2599 1.367 . S
C2598 C2606 1.378 . S
C2599 C2598 1.367 . S
C2599 C2607 1.433 . S
C2600 H2596 0.929 . S
C2600 C2602 1.378 . S
C2600 C2604 1.350 . S
C2601 C2604 1.463 . S
C2601 C2606 1.350 . S
C2601 N2609 1.427 . S
C2602 H2593 0.930 . S
C2602 C2600 1.378 . S
C2602 C2603 1.367 . S
C2603 C2602 1.367 . S
C2603 C2605 1.433 . S
C2604 C2600 1.350 . S
C2604 C2601 1.463 . S
C2604 N2608 1.427 . S
C2605 H2595 0.929 . S
C2605 C2603 1.433 . S
C2605 N2608 1.384 . S
C2606 H2597 0.929 . S
C2606 C2598 1.378 . S
C2606 C2601 1.350 . S
C2607 H2594 0.929 . S
C2607 C2599 1.433 . S
C2607 N2609 1.384 . S
N2608 C2604 1.427 . S
N2608 C2605 1.384 . S
N2609 C2601 1.427 . S
N2609 C2607 1.384 . S
H2610 C2616 0.930 . S
H2611 C2620 0.930 . S
H2612 C2625 0.929 . S
H2613 C2623 0.929 . S
H2614 C2618 0.929 . S
H2615 C2624 0.929 . S
C2616 H2610 0.930 . S
C2616 C2617 1.367 . S
C2616 C2624 1.378 . S
C2617 C2616 1.367 . S
C2617 C2625 1.433 . S
C2618 H2614 0.929 . S
C2618 C2620 1.378 . S
C2618 C2622 1.350 . S
C2619 C2622 1.463 . S
C2619 C2624 1.350 . S
C2619 N2627 1.427 . S
C2620 H2611 0.930 . S
C2620 C2618 1.378 . S
C2620 C2621 1.367 . S
C2621 C2620 1.367 . S
C2621 C2623 1.433 . S
C2622 C2618 1.350 . S
C2622 C2619 1.463 . S
C2622 N2626 1.427 . S
C2623 H2613 0.929 . S
C2623 C2621 1.433 . S
C2623 N2626 1.384 . S
C2624 H2615 0.929 . S
C2624 C2616 1.378 . S
C2624 C2619 1.350 . S
C2625 H2612 0.929 . S
C2625 C2617 1.433 . S
C2625 N2627 1.384 . S
N2626 C2622 1.427 . S
N2626 C2623 1.384 . S
N2627 C2619 1.427 . S
N2627 C2625 1.384 . S
H2628 C2634 0.930 . S
H2629 C2638 0.930 . S
H2630 C2643 0.929 . S
H2631 C2641 0.929 . S
H2632 C2636 0.929 . S
H2633 C2642 0.929 . S
C2634 H2628 0.930 . S
C2634 C2635 1.367 . S
C2634 C2642 1.378 . S
C2635 C2634 1.367 . S
C2635 C2643 1.433 . S
C2636 H2632 0.929 . S
C2636 C2638 1.378 . S
C2636 C2640 1.350 . S
C2637 C2640 1.463 . S
C2637 C2642 1.350 . S
C2637 N2645 1.427 . S
C2638 H2629 0.930 . S
C2638 C2636 1.378 . S
C2638 C2639 1.367 . S
C2639 C2638 1.367 . S
C2639 C2641 1.433 . S
C2640 C2636 1.350 . S
C2640 C2637 1.463 . S
C2640 N2644 1.427 . S
C2641 H2631 0.929 . S
C2641 C2639 1.433 . S
C2641 N2644 1.384 . S
C2642 H2633 0.929 . S
C2642 C2634 1.378 . S
C2642 C2637 1.350 . S
C2643 H2630 0.929 . S
C2643 C2635 1.433 . S
C2643 N2645 1.384 . S
N2644 C2640 1.427 . S
N2644 C2641 1.384 . S
N2645 C2637 1.427 . S
N2645 C2643 1.384 . S
H2646 C2652 0.930 . S
H2647 C2656 0.929 . S
H2648 C2661 0.929 . S
H2649 C2659 0.929 . S
H2650 C2654 0.929 . S
H2651 C2660 0.929 . S
C2652 H2646 0.930 . S
C2652 C2653 1.367 . S
C2652 C2660 1.378 . S
C2653 C2652 1.367 . S
C2653 C2661 1.433 . S
C2654 H2650 0.929 . S
C2654 C2656 1.378 . S
C2654 C2658 1.350 . S
C2655 C2658 1.463 . S
C2655 C2660 1.350 . S
C2655 N2663 1.427 . S
C2656 H2647 0.929 . S
C2656 C2654 1.378 . S
C2656 C2657 1.367 . S
C2657 C2656 1.367 . S
C2657 C2659 1.433 . S
C2658 C2654 1.350 . S
C2658 C2655 1.463 . S
C2658 N2662 1.427 . S
C2659 H2649 0.929 . S
C2659 C2657 1.433 . S
C2659 N2662 1.384 . S
C2660 H2651 0.929 . S
C2660 C2652 1.378 . S
C2660 C2655 1.350 . S
C2661 H2648 0.929 . S
C2661 C2653 1.433 . S
C2661 N2663 1.384 . S
N2662 C2658 1.427 . S
N2662 C2659 1.384 . S
N2663 C2655 1.427 . S
N2663 C2661 1.384 . S
C1375 C8 1.561 . S
C1379 C857 1.517 . S
C1393 C22 1.562 . S
C1397 C901 1.529 . S
C1415 C981 1.502 . S
C1411 C37 1.572 1_545 S
C1429 C36 1.566 . S
C1433 C1025 1.528 . S
C1447 C9 1.567 1_455 S
C1451 C1105 1.516 . S
C1465 C23 1.563 . S
C1469 C1167 1.502 . S
C1483 C50 1.554 1_455 S
C1487 C1087 1.512 . S
C1505 C1149 1.515 . S
C1501 C64 1.564 . S
C1523 C1043 1.517 . S
C1519 C79 1.566 . S
C1537 C78 1.554 1_545 S
C1541 C963 1.504 . S
C1559 C839 1.516 . S
C1555 C51 1.565 . S
C1573 C65 1.564 . S
C1577 C919 1.530 . S
C1591 C92 1.564 . S
C1595 C1229 1.501 . S
C1609 C106 1.566 . S
C1613 C1273 1.529 . S
C1631 C1353 1.517 . S
C1627 C121 1.564 . S
C1645 C120 1.567 . S
C1649 C299 1.503 . S
C1663 C93 1.566 . S
C1667 C343 1.517 . S
C1681 C107 1.563 . S
C1685 C423 1.503 . S
C1699 C134 1.559 . S
C1703 C361 1.523 . S
C1717 C148 1.564 . S
C1721 C405 1.502 . S
C1739 C281 1.502 . S
C1735 C163 1.566 . S
C1757 C1335 1.514 . S
C1753 C162 1.560 . S
C1775 C1211 1.502 . S
C1771 C135 1.567 . S
C1793 C1291 1.529 . S
C1789 C149 1.566 . S
C1807 C176 1.562 . S
C1811 C485 1.517 . S
C1825 C190 1.568 . S
C1829 C547 1.505 . S
C1843 C205 1.564 . S
C1847 C591 1.530 . S
C1861 C204 1.568 . S
C1865 C653 1.528 . S
C1883 C715 1.519 . S
C1879 C177 1.566 . S
C1901 C795 1.507 . S
C1897 C191 1.560 . S
C1919 C733 1.516 . S
C1915 C218 1.561 . S
C1937 C777 1.502 . S
C1933 C232 1.562 . S
C1951 C247 1.566 . S
C1955 C671 1.518 . S
C1973 C609 1.525 . S
C1969 C246 1.560 . S
C1987 C219 1.566 . S
C1991 C467 1.513 . S
C2009 C529 1.516 . S
C2005 C233 1.560 . S
C2027 C305 1.477 . S
C2023 C6 1.492 . S
C2041 C20 1.496 . S
C2045 C349 1.476 . S
C2063 C429 1.475 . S
C2059 C35 1.496 . S
C2081 C491 1.463 . S
C2077 C34 1.490 . S
C2099 C553 1.463 . S
C2095 C7 1.492 . S
C2117 C597 1.481 . S
C2113 C21 1.491 . S
C2131 C48 1.487 . S
C2135 C615 1.467 . S
C2149 C62 1.492 . S
C2153 C473 1.478 . S
C2167 C77 1.495 . S
C2171 C535 1.466 . S
C2185 C76 1.491 . S
C2189 C367 1.469 . S
C2207 C411 1.477 . S
C2203 C49 1.491 . S
C2221 C63 1.489 . S
C2225 C287 1.476 . S
C2243 C659 1.481 . S
C2239 C90 1.493 . S
C2257 C104 1.489 . S
C2261 C721 1.468 . S
C2275 C119 1.496 . S
C2279 C801 1.474 . S
C2297 C863 1.464 . S
C2293 C118 1.487 . S
C2311 C91 1.488 . S
C2315 C907 1.468 . S
C2329 C105 1.493 . S
C2333 C987 1.478 . S
C2347 C132 1.492 . S
C2351 C969 1.463 . S
C2365 C146 1.492 . S
C2369 C845 1.478 . S
C2387 C925 1.479 . S
C2383 C161 1.489 . S
C2401 C160 1.494 . S
C2405 C739 1.471 . S
C2419 C133 1.497 . S
C2423 C783 1.473 . S
C2441 C677 1.480 . S
C2437 C147 1.497 . S
C2459 C1031 1.481 . S
C2455 C174 1.491 . S
C2473 C188 1.496 . S
C2477 C1111 1.474 . S
C2491 C203 1.489 . S
C2495 C1173 1.476 . S
C2513 C1235 1.464 . S
C2509 C202 1.486 . S
C2531 C1279 1.468 . S
C2527 C175 1.488 . S
C2545 C189 1.487 . S
C2549 C1359 1.465 . S
C2563 C216 1.496 . S
C2567 C1341 1.468 . S
C2581 C230 1.494 . S
C2585 C1217 1.478 . S
C2603 C1297 1.470 . S
C2599 C245 1.486 . S
C2621 C1093 1.477 . S
C2617 C244 1.491 . S
C2639 C1155 1.464 . S
C2635 C217 1.492 . S
C2653 C231 1.486 . S
C2657 C1049 1.469 . S
