# Generated by pormake.
# Topology ptr, (4,4)-cn, num edge types: 1
# Building blocks:
#     Node 0, Type 0, BuildingBlock: AZAVOO_clean_sbu_0, # of connection points: 4
#     Node 1, Type 0, BuildingBlock: AZAVOO_clean_sbu_0, # of connection points: 4
#     Node 2, Type 0, BuildingBlock: AZAVOO_clean_sbu_0, # of connection points: 4
#     Node 3, Type 0, BuildingBlock: AZAVOO_clean_sbu_0, # of connection points: 4
#     Node 4, Type 0, BuildingBlock: AZAVOO_clean_sbu_0, # of connection points: 4
#     Node 5, Type 0, BuildingBlock: AZAVOO_clean_sbu_0, # of connection points: 4
#     Node 6, Type 0, BuildingBlock: AZAVOO_clean_sbu_0, # of connection points: 4
#     Node 7, Type 0, BuildingBlock: AZAVOO_clean_sbu_0, # of connection points: 4
#     Node 8, Type 0, BuildingBlock: AZAVOO_clean_sbu_0, # of connection points: 4
#     Node 9, Type 0, BuildingBlock: AZAVOO_clean_sbu_0, # of connection points: 4
#     Node 10, Type 0, BuildingBlock: AZAVOO_clean_sbu_0, # of connection points: 4
#     Node 11, Type 0, BuildingBlock: AZAVOO_clean_sbu_0, # of connection points: 4
#     Node 12, Type 0, BuildingBlock: AZAVOO_clean_sbu_0, # of connection points: 4
#     Node 13, Type 0, BuildingBlock: AZAVOO_clean_sbu_0, # of connection points: 4
#     Node 14, Type 0, BuildingBlock: AZAVOO_clean_sbu_0, # of connection points: 4
#     Node 15, Type 0, BuildingBlock: AZAVOO_clean_sbu_0, # of connection points: 4
#     Node 16, Type 0, BuildingBlock: AZAVOO_clean_sbu_0, # of connection points: 4
#     Node 17, Type 0, BuildingBlock: AZAVOO_clean_sbu_0, # of connection points: 4
#     Node 18, Type 1, BuildingBlock: MUDLON_clean_linker_0, # of connection points: 4
#     Node 19, Type 1, BuildingBlock: MUDLON_clean_linker_0, # of connection points: 4
#     Node 20, Type 1, BuildingBlock: MUDLON_clean_linker_0, # of connection points: 4
#     Node 21, Type 1, BuildingBlock: MUDLON_clean_linker_0, # of connection points: 4
#     Node 22, Type 1, BuildingBlock: MUDLON_clean_linker_0, # of connection points: 4
#     Node 23, Type 1, BuildingBlock: MUDLON_clean_linker_0, # of connection points: 4
#     Node 24, Type 1, BuildingBlock: MUDLON_clean_linker_0, # of connection points: 4
#     Node 25, Type 1, BuildingBlock: MUDLON_clean_linker_0, # of connection points: 4
#     Node 26, Type 1, BuildingBlock: MUDLON_clean_linker_0, # of connection points: 4
#     Node 27, Type 1, BuildingBlock: MUDLON_clean_linker_0, # of connection points: 4
#     Node 28, Type 1, BuildingBlock: MUDLON_clean_linker_0, # of connection points: 4
#     Node 29, Type 1, BuildingBlock: MUDLON_clean_linker_0, # of connection points: 4
#     Node 30, Type 1, BuildingBlock: MUDLON_clean_linker_0, # of connection points: 4
#     Node 31, Type 1, BuildingBlock: MUDLON_clean_linker_0, # of connection points: 4
#     Node 32, Type 1, BuildingBlock: MUDLON_clean_linker_0, # of connection points: 4
#     Node 33, Type 1, BuildingBlock: MUDLON_clean_linker_0, # of connection points: 4
#     Node 34, Type 1, BuildingBlock: MUDLON_clean_linker_0, # of connection points: 4
#     Node 35, Type 1, BuildingBlock: MUDLON_clean_linker_0, # of connection points: 4
#     Edge 36, Type (0, 1), BuildingBlock: XIVTED_clean_linker_0, # of connection points: 2
#     Edge 37, Type (0, 1), BuildingBlock: XIVTED_clean_linker_0, # of connection points: 2
#     Edge 38, Type (0, 1), BuildingBlock: XIVTED_clean_linker_0, # of connection points: 2
#     Edge 39, Type (0, 1), BuildingBlock: XIVTED_clean_linker_0, # of connection points: 2
#     Edge 40, Type (0, 1), BuildingBlock: XIVTED_clean_linker_0, # of connection points: 2
#     Edge 41, Type (0, 1), BuildingBlock: XIVTED_clean_linker_0, # of connection points: 2
#     Edge 42, Type (0, 1), BuildingBlock: XIVTED_clean_linker_0, # of connection points: 2
#     Edge 43, Type (0, 1), BuildingBlock: XIVTED_clean_linker_0, # of connection points: 2
#     Edge 44, Type (0, 1), BuildingBlock: XIVTED_clean_linker_0, # of connection points: 2
#     Edge 45, Type (0, 1), BuildingBlock: XIVTED_clean_linker_0, # of connection points: 2
#     Edge 46, Type (0, 1), BuildingBlock: XIVTED_clean_linker_0, # of connection points: 2
#     Edge 47, Type (0, 1), BuildingBlock: XIVTED_clean_linker_0, # of connection points: 2
#     Edge 48, Type (0, 1), BuildingBlock: XIVTED_clean_linker_0, # of connection points: 2
#     Edge 49, Type (0, 1), BuildingBlock: XIVTED_clean_linker_0, # of connection points: 2
#     Edge 50, Type (0, 1), BuildingBlock: XIVTED_clean_linker_0, # of connection points: 2
#     Edge 51, Type (0, 1), BuildingBlock: XIVTED_clean_linker_0, # of connection points: 2
#     Edge 52, Type (0, 1), BuildingBlock: XIVTED_clean_linker_0, # of connection points: 2
#     Edge 53, Type (0, 1), BuildingBlock: XIVTED_clean_linker_0, # of connection points: 2
#     Edge 54, Type (0, 1), BuildingBlock: XIVTED_clean_linker_0, # of connection points: 2
#     Edge 55, Type (0, 1), BuildingBlock: XIVTED_clean_linker_0, # of connection points: 2
#     Edge 56, Type (0, 1), BuildingBlock: XIVTED_clean_linker_0, # of connection points: 2
#     Edge 57, Type (0, 1), BuildingBlock: XIVTED_clean_linker_0, # of connection points: 2
#     Edge 58, Type (0, 1), BuildingBlock: XIVTED_clean_linker_0, # of connection points: 2
#     Edge 59, Type (0, 1), BuildingBlock: XIVTED_clean_linker_0, # of connection points: 2
#     Edge 60, Type (0, 1), BuildingBlock: XIVTED_clean_linker_0, # of connection points: 2
#     Edge 61, Type (0, 1), BuildingBlock: XIVTED_clean_linker_0, # of connection points: 2
#     Edge 62, Type (0, 1), BuildingBlock: XIVTED_clean_linker_0, # of connection points: 2
#     Edge 63, Type (0, 1), BuildingBlock: XIVTED_clean_linker_0, # of connection points: 2
#     Edge 64, Type (0, 1), BuildingBlock: XIVTED_clean_linker_0, # of connection points: 2
#     Edge 65, Type (0, 1), BuildingBlock: XIVTED_clean_linker_0, # of connection points: 2
#     Edge 66, Type (0, 1), BuildingBlock: XIVTED_clean_linker_0, # of connection points: 2
#     Edge 67, Type (0, 1), BuildingBlock: XIVTED_clean_linker_0, # of connection points: 2
#     Edge 68, Type (0, 1), BuildingBlock: XIVTED_clean_linker_0, # of connection points: 2
#     Edge 69, Type (0, 1), BuildingBlock: XIVTED_clean_linker_0, # of connection points: 2
#     Edge 70, Type (0, 1), BuildingBlock: XIVTED_clean_linker_0, # of connection points: 2
#     Edge 71, Type (0, 1), BuildingBlock: XIVTED_clean_linker_0, # of connection points: 2
#     Edge 72, Type (0, 1), BuildingBlock: XIVTED_clean_linker_0, # of connection points: 2
#     Edge 73, Type (0, 1), BuildingBlock: XIVTED_clean_linker_0, # of connection points: 2
#     Edge 74, Type (0, 1), BuildingBlock: XIVTED_clean_linker_0, # of connection points: 2
#     Edge 75, Type (0, 1), BuildingBlock: XIVTED_clean_linker_0, # of connection points: 2
#     Edge 76, Type (0, 1), BuildingBlock: XIVTED_clean_linker_0, # of connection points: 2
#     Edge 77, Type (0, 1), BuildingBlock: XIVTED_clean_linker_0, # of connection points: 2
#     Edge 78, Type (0, 1), BuildingBlock: XIVTED_clean_linker_0, # of connection points: 2
#     Edge 79, Type (0, 1), BuildingBlock: XIVTED_clean_linker_0, # of connection points: 2
#     Edge 80, Type (0, 1), BuildingBlock: XIVTED_clean_linker_0, # of connection points: 2
#     Edge 81, Type (0, 1), BuildingBlock: XIVTED_clean_linker_0, # of connection points: 2
#     Edge 82, Type (0, 1), BuildingBlock: XIVTED_clean_linker_0, # of connection points: 2
#     Edge 83, Type (0, 1), BuildingBlock: XIVTED_clean_linker_0, # of connection points: 2
#     Edge 84, Type (0, 1), BuildingBlock: XIVTED_clean_linker_0, # of connection points: 2
#     Edge 85, Type (0, 1), BuildingBlock: XIVTED_clean_linker_0, # of connection points: 2
#     Edge 86, Type (0, 1), BuildingBlock: XIVTED_clean_linker_0, # of connection points: 2
#     Edge 87, Type (0, 1), BuildingBlock: XIVTED_clean_linker_0, # of connection points: 2
#     Edge 88, Type (0, 1), BuildingBlock: XIVTED_clean_linker_0, # of connection points: 2
#     Edge 89, Type (0, 1), BuildingBlock: XIVTED_clean_linker_0, # of connection points: 2
#     Edge 90, Type (0, 1), BuildingBlock: XIVTED_clean_linker_0, # of connection points: 2
#     Edge 91, Type (0, 1), BuildingBlock: XIVTED_clean_linker_0, # of connection points: 2
#     Edge 92, Type (0, 1), BuildingBlock: XIVTED_clean_linker_0, # of connection points: 2
#     Edge 93, Type (0, 1), BuildingBlock: XIVTED_clean_linker_0, # of connection points: 2
#     Edge 94, Type (0, 1), BuildingBlock: XIVTED_clean_linker_0, # of connection points: 2
#     Edge 95, Type (0, 1), BuildingBlock: XIVTED_clean_linker_0, # of connection points: 2
#     Edge 96, Type (0, 1), BuildingBlock: XIVTED_clean_linker_0, # of connection points: 2
#     Edge 97, Type (0, 1), BuildingBlock: XIVTED_clean_linker_0, # of connection points: 2
#     Edge 98, Type (0, 1), BuildingBlock: XIVTED_clean_linker_0, # of connection points: 2
#     Edge 99, Type (0, 1), BuildingBlock: XIVTED_clean_linker_0, # of connection points: 2
#     Edge 100, Type (0, 1), BuildingBlock: XIVTED_clean_linker_0, # of connection points: 2
#     Edge 101, Type (0, 1), BuildingBlock: XIVTED_clean_linker_0, # of connection points: 2
#     Edge 102, Type (0, 1), BuildingBlock: XIVTED_clean_linker_0, # of connection points: 2
#     Edge 103, Type (0, 1), BuildingBlock: XIVTED_clean_linker_0, # of connection points: 2
#     Edge 104, Type (0, 1), BuildingBlock: XIVTED_clean_linker_0, # of connection points: 2
#     Edge 105, Type (0, 1), BuildingBlock: XIVTED_clean_linker_0, # of connection points: 2
#     Edge 106, Type (0, 1), BuildingBlock: XIVTED_clean_linker_0, # of connection points: 2
#     Edge 107, Type (0, 1), BuildingBlock: XIVTED_clean_linker_0, # of connection points: 2
# Relax obj value: 0.069
# Max RMSD: 0.226
# Mean RMSD: 0.110
data_MOF--net-ptr--node1-AZAVOO_clean_sbu_0--node2-MUDLON_clean_linker_0--edge1-XIVTED_clean_linker_0
_symmetry_space_group_name_H-M    P1
_symmetry_Int_Tables_number       1
_symmetry_cell_setting            triclinic
loop_
_symmetry_equiv_pos_as_xyz
'x, y, z'
_cell_length_a     106.63494
_cell_length_b     105.15606
_cell_length_c     59.914622
_cell_angle_alpha  90.969613
_cell_angle_beta   90.996934
_cell_angle_gamma 120.01224
loop_
_atom_site_label
_atom_site_type_symbol
_atom_site_fract_x
_atom_site_fract_y
_atom_site_fract_z
_atom_type_partial_charge
Mg0 Mg 0.00237 0.35837 0.98838 0.0
O1 O 0.99582 0.36729 0.01884 0.0
O2 O 0.97677 0.36925 0.00744 0.0
Mg3 Mg 0.97124 0.36185 0.97088 0.0
C4 C 0.986 0.37061 0.02255 0.0
C5 C 0.02323 0.34756 0.99855 0.0
O6 O 0.02074 0.34555 0.97686 0.0
O7 O 0.98298 0.33566 0.9928 0.0
O8 O 0.96439 0.33813 0.98067 0.0
O9 O 0.01714 0.38106 0.97732 0.0
O10 O 0.99402 0.36786 0.96696 0.0
C11 C 0.96949 0.33032 0.98842 0.0
C12 C 0.00607 0.38016 0.96659 0.0
O13 O 0.01681 0.35289 0.0097 0.0
Mg14 Mg 0.64095 0.63613 0.05465 0.0
O15 O 0.62613 0.62495 0.02392 0.0
O16 O 0.60423 0.62175 0.03107 0.0
Mg17 Mg 0.60487 0.62955 0.06723 0.0
C18 C 0.613 0.62062 0.01805 0.0
C19 C 0.67124 0.64154 0.04092 0.0
O20 O 0.67038 0.63566 0.06042 0.0
O21 O 0.64164 0.65754 0.04753 0.0
O22 O 0.61999 0.6537 0.05766 0.0
O23 O 0.63536 0.61441 0.06766 0.0
O24 O 0.62322 0.6259 0.07503 0.0
C25 C 0.63271 0.66209 0.05054 0.0
C26 C 0.62445 0.61436 0.07691 0.0
O27 O 0.66073 0.64295 0.03376 0.0
Mg28 Mg 0.37078 0.99873 0.98572 0.0
O29 O 0.38383 0.00085 0.01765 0.0
O30 O 0.40652 0.01913 0.01341 0.0
Mg31 Mg 0.40816 0.02752 0.97791 0.0
C32 C 0.39681 0.00907 0.02505 0.0
C33 C 0.34656 0.97466 0.0151 0.0
O34 O 0.3561 0.9703 0.01746 0.0
O35 O 0.37114 0.0199 0.99452 0.0
O36 O 0.39359 0.03728 0.98667 0.0
O37 O 0.37588 0.98223 0.97175 0.0
O38 O 0.38929 0.00618 0.96726 0.0
C39 C 0.38076 0.03337 0.99279 0.0
C40 C 0.38745 0.9932 0.96405 0.0
O41 O 0.34962 0.98578 0.00348 0.0
Mg42 Mg -5e-05 0.64633 0.03918 0.0
O43 O 0.00103 0.63395 0.00772 0.0
O44 O 0.01987 0.63046 0.01324 0.0
Mg45 Mg 0.03068 0.64028 0.04716 0.0
C46 C 0.00917 0.62897 0.00127 0.0
C47 C 0.97128 0.6462 0.02455 0.0
O48 O 0.9655 0.63511 0.03807 0.0
O49 O 0.01951 0.66765 0.02857 0.0
O50 O 0.03785 0.66352 0.03506 0.0
O51 O 0.98587 0.62494 0.05552 0.0
O52 O 0.00975 0.63713 0.05828 0.0
C53 C 0.03301 0.67187 0.02884 0.0
C54 C 0.9977 0.62558 0.06271 0.0
O55 O 0.98479 0.6525 0.02116 0.0
Mg56 Mg 0.37249 0.37083 0.97225 0.0
O57 O 0.38793 0.3811 0.00287 0.0
O58 O 0.40969 0.38516 0.99278 0.0
Mg59 Mg 0.4084 0.37846 0.95596 0.0
C60 C 0.40128 0.38555 0.00734 0.0
C61 C 0.34221 0.36386 0.98398 0.0
O62 O 0.34333 0.36757 0.96296 0.0
O63 O 0.37202 0.34922 0.97686 0.0
O64 O 0.39365 0.35414 0.96472 0.0
O65 O 0.37754 0.39283 0.96108 0.0
O66 O 0.38975 0.38186 0.9511 0.0
C67 C 0.3812 0.34522 0.97225 0.0
C68 C 0.38824 0.39328 0.95051 0.0
O69 O 0.35285 0.36376 0.99369 0.0
Mg70 Mg 0.62407 0.99496 0.02845 0.0
O71 O 0.60875 0.98834 0.99769 0.0
O72 O 0.58759 0.96918 0.00701 0.0
Mg73 Mg 0.58917 0.96404 0.04353 0.0
C74 C 0.59567 0.97849 0.99285 0.0
C75 C 0.65438 0.01945 0.01773 0.0
O76 O 0.65335 0.02188 0.03902 0.0
O77 O 0.62653 0.97497 0.0231 0.0
O78 O 0.60563 0.95664 0.03493 0.0
O79 O 0.61685 0.01033 0.04054 0.0
O80 O 0.60659 0.98697 0.04934 0.0
C81 C 0.61834 0.96147 0.02749 0.0
C82 C 0.60673 0.99928 0.05072 0.0
O83 O 0.64364 0.00876 0.00752 0.0
Mg84 Mg 0.6726 0.69277 0.32221 0.0
O85 O 0.66829 0.70361 0.35262 0.0
O86 O 0.64949 0.70642 0.34291 0.0
Mg87 Mg 0.64207 0.6978 0.30707 0.0
C88 C 0.65925 0.70785 0.35706 0.0
C89 C 0.6913 0.67936 0.33172 0.0
O90 O 0.6871 0.67596 0.31064 0.0
O91 O 0.65273 0.67091 0.32899 0.0
O92 O 0.63436 0.67402 0.31788 0.0
O93 O 0.68768 0.71474 0.30925 0.0
O94 O 0.6642 0.70224 0.3009 0.0
C95 C 0.63921 0.66599 0.32559 0.0
C96 C 0.67651 0.71414 0.29929 0.0
O97 O 0.68694 0.68676 0.34277 0.0
Mg98 Mg 0.30109 0.97091 0.38519 0.0
O99 O 0.28516 0.96224 0.35516 0.0
O100 O 0.26412 0.95994 0.36544 0.0
Mg101 Mg 0.2668 0.96741 0.4022 0.0
C102 C 0.27207 0.9588 0.35077 0.0
C103 C 0.33256 0.98495 0.3675 0.0
O104 O 0.33533 0.99309 0.3858 0.0
O105 O 0.30427 0.9937 0.38086 0.0
O106 O 0.28344 0.9912 0.39283 0.0
O107 O 0.29333 0.94817 0.39581 0.0
O108 O 0.28396 0.96172 0.40705 0.0
C109 C 0.29615 0.99906 0.38531 0.0
C110 C 0.28361 0.94927 0.40698 0.0
O111 O 0.31953 0.97537 0.36238 0.0
Mg112 Mg 0.03704 0.32684 0.31337 0.0
O113 O 0.04955 0.32869 0.34586 0.0
O114 O 0.07246 0.3466 0.34191 0.0
Mg115 Mg 0.07483 0.35481 0.30621 0.0
C116 C 0.0625 0.33676 0.35351 0.0
C117 C 0.01244 0.30316 0.34208 0.0
O118 O 0.02195 0.29878 0.34451 0.0
O119 O 0.03803 0.34842 0.32159 0.0
O120 O 0.06072 0.36527 0.31383 0.0
O121 O 0.04146 0.30975 0.2999 0.0
O122 O 0.05576 0.33361 0.29562 0.0
C123 C 0.04793 0.36177 0.31963 0.0
C124 C 0.05339 0.3204 0.29256 0.0
O125 O 0.01559 0.31434 0.33056 0.0
Mg126 Mg 0.66695 0.9751 0.37221 0.0
O127 O 0.67105 0.96354 0.34228 0.0
O128 O 0.68783 0.95816 0.35419 0.0
Mg129 Mg 0.69507 0.96681 0.3899 0.0
C130 C 0.67912 0.95792 0.33907 0.0
C131 C 0.64285 0.98108 0.36079 0.0
O132 O 0.64066 0.97634 0.3813 0.0
O133 O 0.68802 0.99625 0.3659 0.0
O134 O 0.70451 0.99046 0.37773 0.0
O135 O 0.65044 0.95349 0.38531 0.0
O136 O 0.67373 0.96461 0.39455 0.0
C137 C 0.70116 0.99958 0.36958 0.0
C138 C 0.66098 0.95333 0.39608 0.0
O139 O 0.65366 0.98202 0.35067 0.0
Mg140 Mg 0.03123 0.6974 0.31231 0.0
O141 O 0.04742 0.70836 0.34206 0.0
O142 O 0.06883 0.71176 0.33119 0.0
Mg143 Mg 0.06651 0.70329 0.29522 0.0
C144 C 0.06085 0.71284 0.3459 0.0
C145 C 0.00157 0.69243 0.32657 0.0
O146 O 0.00239 0.69741 0.30636 0.0
O147 O 0.03019 0.6756 0.31888 0.0
O148 O 0.0516 0.6798 0.30679 0.0
O149 O 0.03695 0.71934 0.29891 0.0
O150 O 0.0482 0.7071 0.29063 0.0
C151 C 0.03925 0.67133 0.315 0.0
C152 C 0.04738 0.71885 0.28894 0.0
O153 O 0.01211 0.69133 0.33448 0.0
Mg154 Mg 0.29671 0.34211 0.37483 0.0
O155 O 0.28352 0.33936 0.34282 0.0
O156 O 0.26117 0.32039 0.34691 0.0
Mg157 Mg 0.25975 0.3123 0.38255 0.0
C158 C 0.27066 0.33066 0.33531 0.0
C159 C 0.32459 0.36918 0.3555 0.0
O160 O 0.31951 0.37688 0.36527 0.0
O161 O 0.29714 0.32126 0.36658 0.0
O162 O 0.27496 0.30324 0.37431 0.0
O163 O 0.29082 0.35814 0.38865 0.0
O164 O 0.27806 0.33414 0.39309 0.0
C165 C 0.28793 0.30766 0.36839 0.0
C166 C 0.2794 0.34693 0.3962 0.0
O167 O 0.31763 0.35527 0.35649 0.0
Mg168 Mg 0.33487 0.02718 0.65573 0.0
O169 O 0.32935 0.03632 0.68697 0.0
O170 O 0.30995 0.03821 0.67749 0.0
Mg171 Mg 0.30396 0.03172 0.64063 0.0
C172 C 0.31955 0.03946 0.6918 0.0
C173 C 0.34872 0.00902 0.67074 0.0
O174 O 0.33939 0.00048 0.65505 0.0
O175 O 0.31505 0.0047 0.6605 0.0
O176 O 0.29668 0.0077 0.64898 0.0
O177 O 0.34974 0.04985 0.64467 0.0
O178 O 0.32644 0.03705 0.63532 0.0
C179 C 0.30157 0.99961 0.65625 0.0
C180 C 0.33858 0.04921 0.63461 0.0
O181 O 0.34939 0.02112 0.67594 0.0
Mg182 Mg 0.96459 0.30498 0.71493 0.0
O183 O 0.94922 0.29546 0.68416 0.0
O184 O 0.92733 0.2909 0.69443 0.0
Mg185 Mg 0.92864 0.29716 0.73144 0.0
C186 C 0.93586 0.29094 0.67969 0.0
C187 C 0.99535 0.31344 0.70348 0.0
O188 O 0.99464 0.31055 0.72482 0.0
O189 O 0.96511 0.32669 0.71117 0.0
O190 O 0.94345 0.32157 0.72339 0.0
O191 O 0.95923 0.28261 0.72512 0.0
O192 O 0.94725 0.29368 0.73576 0.0
C193 C 0.95591 0.33061 0.71602 0.0
C194 C 0.94855 0.28213 0.73577 0.0
O195 O 0.98426 0.3124 0.69347 0.0
Mg196 Mg 0.71335 0.67233 0.65625 0.0
O197 O 0.72902 0.67803 0.68647 0.0
O198 O 0.75108 0.69457 0.67543 0.0
Mg199 Mg 0.74968 0.69907 0.63861 0.0
C200 C 0.74258 0.68655 0.69044 0.0
C201 C 0.68246 0.65093 0.66816 0.0
O202 O 0.68302 0.64828 0.6468 0.0
O203 O 0.71424 0.69431 0.66046 0.0
O204 O 0.73612 0.70984 0.64759 0.0
O205 O 0.71741 0.65442 0.64494 0.0
O206 O 0.73004 0.67742 0.63451 0.0
C207 C 0.724 0.70722 0.6554 0.0
C208 C 0.72803 0.66428 0.63382 0.0
O209 O 0.6938 0.66097 0.67819 0.0
Mg210 Mg 0.3382 0.31781 0.7001 0.0
O211 O 0.34383 0.3082 0.66936 0.0
O212 O 0.36474 0.30908 0.67817 0.0
Mg213 Mg 0.37233 0.31877 0.71334 0.0
C214 C 0.3542 0.30591 0.66449 0.0
C215 C 0.31693 0.3282 0.69009 0.0
O216 O 0.32344 0.33492 0.70905 0.0
O217 O 0.35559 0.34111 0.69159 0.0
O218 O 0.37584 0.34085 0.70105 0.0
O219 O 0.32654 0.29552 0.71491 0.0
O220 O 0.34975 0.31153 0.72093 0.0
C221 C 0.36937 0.34746 0.69369 0.0
C222 C 0.3389 0.29864 0.72397 0.0
O223 O 0.32081 0.31988 0.68054 0.0
Mg224 Mg 0.69559 0.02446 0.6431 0.0
O225 O 0.71049 0.03623 0.67344 0.0
O226 O 0.73106 0.03574 0.66981 0.0
Mg227 Mg 0.7295 0.02438 0.63602 0.0
C228 C 0.72305 0.03933 0.68069 0.0
C229 C 0.66699 0.02493 0.65362 0.0
O230 O 0.66816 0.02913 0.63287 0.0
O231 O 0.69092 0.00219 0.65528 0.0
O232 O 0.71148 0.00222 0.6486 0.0
O233 O 0.70517 0.04572 0.62565 0.0
O234 O 0.7134 0.03017 0.62359 0.0
C235 C 0.69842 0.9958 0.65513 0.0
C236 C 0.71477 0.04264 0.61848 0.0
O237 O 0.6766 0.02258 0.6622 0.0
Mg238 Mg 0.96076 0.67861 0.7053 0.0
O239 O 0.94457 0.67315 0.67583 0.0
O240 O 0.92274 0.65636 0.68733 0.0
Mg241 Mg 0.92478 0.6513 0.7236 0.0
C242 C 0.93098 0.66459 0.67226 0.0
C243 C 0.99049 0.70227 0.68948 0.0
O244 O 0.98971 0.70784 0.70886 0.0
O245 O 0.95995 0.65675 0.69945 0.0
O246 O 0.93819 0.64088 0.71237 0.0
O247 O 0.95664 0.69621 0.71847 0.0
O248 O 0.94439 0.67297 0.7278 0.0
C249 C 0.95021 0.64369 0.70391 0.0
C250 C 0.94626 0.68602 0.72954 0.0
O251 O 0.97984 0.69008 0.68254 0.0
H252 H 0.25322 0.37578 0.14545 0.0
N253 N 0.23112 0.35719 0.11902 0.0
H254 H 0.25997 0.37143 0.18245 0.0
H255 H 0.21578 0.33225 0.14323 0.0
H256 H 0.22179 0.32816 0.18071 0.0
H257 H 0.23533 0.33368 0.11323 0.0
H258 H 0.2522 0.33209 0.08786 0.0
H259 H 0.24661 0.37619 0.08823 0.0
H260 H 0.26361 0.37472 0.06277 0.0
H261 H 0.21564 0.36987 0.12838 0.0
H262 H 0.21233 0.33119 0.09648 0.0
H263 H 0.18969 0.35993 0.12192 0.0
H264 H 0.18665 0.32156 0.08888 0.0
H265 H 0.1348 0.33577 0.13893 0.0
H266 H 0.12497 0.3332 0.17582 0.0
H267 H 0.09567 0.28693 0.16127 0.0
H268 H 0.10483 0.29006 0.12347 0.0
H269 H 0.12282 0.34023 0.11004 0.0
H270 H 0.10662 0.34614 0.08981 0.0
H271 H 0.09054 0.30622 0.04965 0.0
H272 H 0.1072 0.30047 0.06986 0.0
H273 H 0.14462 0.34366 0.0961 0.0
H274 H 0.17063 0.35391 0.09573 0.0
H275 H 0.16503 0.31106 0.10859 0.0
N276 N 0.12424 0.31486 0.10514 0.0
H277 H 0.13884 0.30071 0.10789 0.0
C278 C 0.23395 0.35451 0.14162 0.0
C279 C 0.2463 0.36541 0.15319 0.0
C280 C 0.25007 0.3629 0.17443 0.0
C281 C 0.24142 0.34943 0.18477 0.0
C282 C 0.22888 0.33857 0.17323 0.0
C283 C 0.22527 0.34099 0.15181 0.0
C284 C 0.23981 0.35517 0.1027 0.0
C285 C 0.24135 0.34263 0.10215 0.0
C286 C 0.25104 0.34175 0.0877 0.0
C287 C 0.2593 0.35332 0.07345 0.0
C288 C 0.25731 0.36557 0.07342 0.0
C289 C 0.24766 0.36646 0.08795 0.0
C290 C 0.21603 0.35142 0.11287 0.0
C291 C 0.20936 0.35938 0.11955 0.0
C292 C 0.19453 0.35371 0.11568 0.0
C293 C 0.18601 0.33992 0.10482 0.0
C294 C 0.1928 0.33211 0.09756 0.0
C295 C 0.20761 0.33772 0.10171 0.0
C296 C 0.12021 0.31315 0.12821 0.0
C297 C 0.12622 0.32508 0.14364 0.0
C298 C 0.12071 0.32351 0.16499 0.0
C299 C 0.10932 0.30987 0.17164 0.0
C300 C 0.10411 0.29771 0.15663 0.0
C301 C 0.10941 0.2994 0.13508 0.0
C302 C 0.11632 0.31983 0.09145 0.0
C303 C 0.11607 0.33281 0.09669 0.0
C304 C 0.10664 0.33614 0.08519 0.0
C305 C 0.09714 0.32656 0.06831 0.0
C306 C 0.09779 0.31389 0.06247 0.0
C307 C 0.10729 0.31058 0.07397 0.0
C308 C 0.13961 0.32126 0.10199 0.0
C309 C 0.14883 0.33633 0.09843 0.0
C310 C 0.16385 0.34227 0.09842 0.0
C311 C 0.17002 0.33337 0.10233 0.0
C312 C 0.16074 0.31825 0.10518 0.0
C313 C 0.14574 0.3123 0.10489 0.0
H314 H 0.71171 0.79733 0.13904 0.0
N315 N 0.69451 0.80608 0.12085 0.0
H316 H 0.7088 0.78512 0.17454 0.0
H317 H 0.67462 0.80203 0.15237 0.0
H318 H 0.67171 0.78998 0.18802 0.0
H319 H 0.66568 0.78508 0.11956 0.0
H320 H 0.65451 0.76278 0.09648 0.0
H321 H 0.70556 0.80081 0.08473 0.0
H322 H 0.69415 0.77877 0.06033 0.0
H323 H 0.71415 0.83237 0.1369 0.0
H324 H 0.67237 0.80964 0.10267 0.0
H325 H 0.71272 0.85473 0.13865 0.0
H326 H 0.67136 0.83214 0.10279 0.0
H327 H 0.70356 0.9262 0.14348 0.0
H328 H 0.70116 0.93598 0.17964 0.0
H329 H 0.66968 0.89211 0.19843 0.0
H330 H 0.6719 0.88247 0.16252 0.0
H331 H 0.66046 0.89058 0.12873 0.0
H332 H 0.64744 0.89691 0.10147 0.0
H333 H 0.68536 0.91663 0.06079 0.0
H334 H 0.69852 0.91082 0.0889 0.0
H335 H 0.71266 0.8964 0.12361 0.0
H336 H 0.71415 0.87407 0.11942 0.0
H337 H 0.66759 0.84796 0.12491 0.0
N338 N 0.68913 0.89859 0.12803 0.0
H339 H 0.66624 0.87035 0.12716 0.0
C340 C 0.69343 0.80055 0.14305 0.0
C341 C 0.70312 0.79596 0.14987 0.0
C342 C 0.70146 0.78905 0.17018 0.0
C343 C 0.68999 0.78655 0.18407 0.0
C344 C 0.68055 0.79161 0.17757 0.0
C345 C 0.68225 0.79856 0.15726 0.0
C346 C 0.68663 0.79453 0.10417 0.0
C347 C 0.67195 0.78391 0.10652 0.0
C348 C 0.66548 0.77115 0.09302 0.0
C349 C 0.67347 0.76877 0.07668 0.0
C350 C 0.68777 0.78002 0.07311 0.0
C351 C 0.69428 0.79271 0.08685 0.0
C352 C 0.69347 0.81926 0.11972 0.0
C353 C 0.70479 0.83228 0.12939 0.0
C354 C 0.70399 0.84512 0.13018 0.0
C355 C 0.69193 0.84538 0.1208 0.0
C356 C 0.6807 0.83237 0.11062 0.0
C357 C 0.68136 0.81941 0.11031 0.0
C358 C 0.68814 0.90361 0.1502 0.0
C359 C 0.69625 0.9187 0.15552 0.0
C360 C 0.69478 0.92427 0.17605 0.0
C361 C 0.68524 0.91479 0.19182 0.0
C362 C 0.67723 0.89965 0.18667 0.0
C363 C 0.67855 0.89411 0.16602 0.0
C364 C 0.68059 0.90054 0.111 0.0
C365 C 0.66594 0.89616 0.11388 0.0
C366 C 0.65844 0.89966 0.09808 0.0
C367 C 0.66538 0.90743 0.07896 0.0
C368 C 0.67977 0.91094 0.07552 0.0
C369 C 0.68729 0.90757 0.09146 0.0
C370 C 0.68944 0.88507 0.12612 0.0
C371 C 0.70282 0.88581 0.12385 0.0
C372 C 0.70361 0.873 0.12163 0.0
C373 C 0.691 0.85907 0.12208 0.0
C374 C 0.67754 0.8584 0.12417 0.0
C375 C 0.67675 0.87125 0.12583 0.0
H376 H 0.13336 0.77618 0.13757 0.0
N377 N 0.13652 0.79861 0.11393 0.0
H378 H 0.11897 0.76625 0.17076 0.0
H379 H 0.11996 0.80853 0.13358 0.0
H380 H 0.10558 0.79879 0.16706 0.0
H381 H 0.11441 0.80093 0.09425 0.0
H382 H 0.09763 0.78425 0.06504 0.0
H383 H 0.1406 0.78056 0.08781 0.0
H384 H 0.12386 0.76367 0.05903 0.0
H385 H 0.15634 0.81201 0.14642 0.0
H386 H 0.14103 0.82049 0.08433 0.0
H387 H 0.17426 0.83778 0.15089 0.0
H388 H 0.15983 0.8462 0.08778 0.0
H389 H 0.23572 0.90327 0.15229 0.0
H390 H 0.24463 0.91195 0.19028 0.0
H391 H 0.21331 0.92634 0.19705 0.0
H392 H 0.20407 0.91709 0.15897 0.0
H393 H 0.22649 0.9314 0.1131 0.0
H394 H 0.24809 0.94279 0.09044 0.0
H395 H 0.24832 0.90182 0.08785 0.0
H396 H 0.22732 0.89076 0.11081 0.0
H397 H 0.21464 0.88044 0.14386 0.0
H398 H 0.196 0.85512 0.13809 0.0
H399 H 0.16827 0.86898 0.10619 0.0
N400 N 0.21381 0.9048 0.13003 0.0
H401 H 0.18777 0.8946 0.11054 0.0
C402 C 0.12771 0.79301 0.13324 0.0
C403 C 0.1273 0.78112 0.14397 0.0
C404 C 0.11917 0.77557 0.16298 0.0
C405 C 0.11126 0.78185 0.17167 0.0
C406 C 0.11151 0.79369 0.16069 0.0
C407 C 0.1197 0.79926 0.14161 0.0
C408 C 0.12871 0.79187 0.09325 0.0
C409 C 0.11675 0.79312 0.08611 0.0
C410 C 0.10712 0.78351 0.0695 0.0
C411 C 0.10924 0.77243 0.05988 0.0
C412 C 0.1219 0.77211 0.0658 0.0
C413 C 0.13151 0.78174 0.08232 0.0
C414 C 0.14709 0.81414 0.11529 0.0
C415 C 0.15689 0.81942 0.13364 0.0
C416 C 0.16732 0.83421 0.13601 0.0
C417 C 0.16871 0.84418 0.11957 0.0
C418 C 0.15899 0.83893 0.10097 0.0
C419 C 0.14822 0.82409 0.0989 0.0
C420 C 0.21914 0.90951 0.15273 0.0
C421 C 0.23064 0.90815 0.16193 0.0
C422 C 0.23584 0.91327 0.18367 0.0
C423 C 0.22977 0.91995 0.1967 0.0
C424 C 0.21815 0.92112 0.18757 0.0
C425 C 0.2129 0.91592 0.16581 0.0
C426 C 0.22513 0.91024 0.11384 0.0
C427 C 0.23109 0.92484 0.1073 0.0
C428 C 0.24341 0.93131 0.09432 0.0
C429 C 0.25003 0.92325 0.08753 0.0
C430 C 0.24367 0.90843 0.09319 0.0
C431 C 0.23143 0.902 0.10627 0.0
C432 C 0.20269 0.88953 0.12743 0.0
C433 C 0.20465 0.87814 0.13548 0.0
C434 C 0.1938 0.86353 0.13236 0.0
C435 C 0.18045 0.85986 0.12186 0.0
C436 C 0.17844 0.87129 0.11404 0.0
C437 C 0.18951 0.88596 0.11668 0.0
H438 H 0.37637 0.22847 0.85866 0.0
N439 N 0.35659 0.21292 0.88828 0.0
H440 H 0.37349 0.24058 0.82607 0.0
H441 H 0.33108 0.21001 0.87212 0.0
H442 H 0.32819 0.22266 0.84033 0.0
H443 H 0.33411 0.21173 0.91165 0.0
H444 H 0.3358 0.23065 0.93776 0.0
H445 H 0.38052 0.23515 0.90639 0.0
H446 H 0.38237 0.25445 0.93156 0.0
H447 H 0.34767 0.19232 0.85464 0.0
H448 H 0.34796 0.19695 0.92666 0.0
H449 H 0.33665 0.16599 0.85773 0.0
H450 H 0.33685 0.1705 0.92941 0.0
H451 H 0.3387 0.09979 0.88719 0.0
H452 H 0.33832 0.08715 0.85282 0.0
H453 H 0.29641 0.08167 0.83473 0.0
H454 H 0.29646 0.09355 0.8702 0.0
H455 H 0.30552 0.08036 0.92473 0.0
H456 H 0.31761 0.07259 0.95156 0.0
H457 H 0.35609 0.11548 0.94981 0.0
H458 H 0.34438 0.12277 0.92208 0.0
H459 H 0.33951 0.12519 0.87698 0.0
H460 H 0.34701 0.15098 0.87366 0.0
H461 H 0.31354 0.14586 0.91832 0.0
N462 N 0.31729 0.10498 0.90199 0.0
H463 H 0.30577 0.11965 0.92134 0.0
C464 C 0.35405 0.21856 0.86793 0.0
C465 C 0.3658 0.227 0.85446 0.0
C466 C 0.36413 0.23399 0.83599 0.0
C467 C 0.35066 0.2328 0.83077 0.0
C468 C 0.3387 0.22377 0.84376 0.0
C469 C 0.34036 0.21666 0.86212 0.0
C470 C 0.35726 0.22206 0.90707 0.0
C471 C 0.34469 0.22084 0.91641 0.0
C472 C 0.34569 0.23175 0.93123 0.0
C473 C 0.35921 0.24426 0.93662 0.0
C474 C 0.37177 0.24495 0.92819 0.0
C475 C 0.37077 0.23394 0.91368 0.0
C476 C 0.34806 0.19703 0.89027 0.0
C477 C 0.34493 0.18781 0.8711 0.0
C478 C 0.33876 0.17266 0.87283 0.0
C479 C 0.33578 0.16621 0.89378 0.0
C480 C 0.33874 0.17518 0.913 0.0
C481 C 0.34505 0.19041 0.91132 0.0
C482 C 0.31741 0.09742 0.88159 0.0
C483 C 0.32928 0.09567 0.87611 0.0
C484 C 0.32915 0.08858 0.85613 0.0
C485 C 0.31735 0.08336 0.84081 0.0
C486 C 0.30557 0.08526 0.84624 0.0
C487 C 0.3056 0.09214 0.86644 0.0
C488 C 0.32391 0.10205 0.92108 0.0
C489 C 0.31647 0.08816 0.93049 0.0
C490 C 0.32341 0.08378 0.94597 0.0
C491 C 0.33795 0.09334 0.95269 0.0
C492 C 0.34503 0.10768 0.94461 0.0
C493 C 0.33819 0.11194 0.92879 0.0
C494 C 0.3218 0.12031 0.89914 0.0
C495 C 0.33353 0.12941 0.88576 0.0
C496 C 0.33786 0.14423 0.88389 0.0
C497 C 0.33075 0.15036 0.89556 0.0
C498 C 0.31918 0.14137 0.90913 0.0
C499 C 0.31471 0.12644 0.91079 0.0
H500 H 0.74943 0.11552 0.86297 0.0
N501 N 0.77131 0.11928 0.88933 0.0
H502 H 0.74185 0.1028 0.82659 0.0
H503 H 0.7859 0.10839 0.86503 0.0
H504 H 0.779 0.09658 0.82836 0.0
H505 H 0.76709 0.09193 0.89764 0.0
H506 H 0.74966 0.07438 0.92339 0.0
H507 H 0.7558 0.12423 0.91861 0.0
H508 H 0.73841 0.10682 0.94446 0.0
H509 H 0.78348 0.14824 0.89166 0.0
H510 H 0.79234 0.11313 0.90291 0.0
H511 H 0.80855 0.16625 0.90168 0.0
H512 H 0.81777 0.1309 0.91057 0.0
H513 H 0.88067 0.21647 0.89713 0.0
H514 H 0.89061 0.22737 0.86207 0.0
H515 H 0.8969 0.19093 0.8449 0.0
H516 H 0.88701 0.17994 0.88099 0.0
H517 H 0.90023 0.19507 0.937 0.0
H518 H 0.91455 0.21549 0.96334 0.0
H519 H 0.88276 0.22941 0.95651 0.0
H520 H 0.86807 0.20832 0.93193 0.0
H521 H 0.85633 0.19453 0.89115 0.0
H522 H 0.83087 0.17722 0.88759 0.0
H523 H 0.83616 0.14837 0.93267 0.0
N524 N 0.87709 0.19042 0.91292 0.0
H525 H 0.86228 0.16541 0.93433 0.0
C526 C 0.76828 0.11311 0.86682 0.0
C527 C 0.75599 0.11152 0.85535 0.0
C528 C 0.75173 0.10429 0.83447 0.0
C529 C 0.75979 0.09861 0.8244 0.0
C530 C 0.77234 0.10055 0.8357 0.0
C531 C 0.77645 0.10756 0.85675 0.0
C532 C 0.76259 0.10934 0.90614 0.0
C533 C 0.76101 0.09531 0.90803 0.0
C534 C 0.75102 0.08528 0.92266 0.0
C535 C 0.74262 0.08921 0.93583 0.0
C536 C 0.7448 0.10351 0.93469 0.0
C537 C 0.75467 0.11345 0.91992 0.0
C538 C 0.78616 0.12943 0.89583 0.0
C539 C 0.79096 0.14447 0.89596 0.0
C540 C 0.80537 0.15473 0.9015 0.0
C541 C 0.81547 0.15018 0.90645 0.0
C542 C 0.81044 0.13498 0.90704 0.0
C543 C 0.79588 0.12472 0.90222 0.0
C544 C 0.88312 0.19728 0.89199 0.0
C545 C 0.88425 0.21074 0.88619 0.0
C546 C 0.88978 0.21693 0.86579 0.0
C547 C 0.89435 0.20991 0.85056 0.0
C548 C 0.89344 0.19658 0.85634 0.0
C549 C 0.8878 0.19029 0.87687 0.0
C550 C 0.88329 0.20033 0.93209 0.0
C551 C 0.89616 0.20227 0.94189 0.0
C552 C 0.90443 0.21411 0.95669 0.0
C553 C 0.90017 0.22454 0.96154 0.0
C554 C 0.88652 0.22173 0.95333 0.0
C555 C 0.87808 0.20964 0.93902 0.0
C556 C 0.86148 0.18113 0.91256 0.0
C557 C 0.85221 0.18448 0.90017 0.0
C558 C 0.83738 0.17454 0.89844 0.0
C559 C 0.83123 0.16119 0.9097 0.0
C560 C 0.84042 0.15828 0.92318 0.0
C561 C 0.85537 0.16809 0.92439 0.0
H562 H 0.80635 0.72642 0.8829 0.0
N563 N 0.79952 0.70641 0.9139 0.0
H564 H 0.79759 0.72241 0.84392 0.0
H565 H 0.78215 0.67971 0.89257 0.0
H566 H 0.77354 0.6756 0.85374 0.0
H567 H 0.78787 0.67953 0.93339 0.0
H568 H 0.7664 0.66836 0.95621 0.0
H569 H 0.78476 0.71873 0.92883 0.0
H570 H 0.76334 0.70771 0.95193 0.0
H571 H 0.82201 0.72699 0.93757 0.0
H572 H 0.80627 0.68498 0.90385 0.0
H573 H 0.84496 0.72794 0.94663 0.0
H574 H 0.8292 0.68605 0.91203 0.0
H575 H 0.91908 0.72835 0.90844 0.0
H576 H 0.92512 0.7259 0.86997 0.0
H577 H 0.88163 0.68952 0.85799 0.0
H578 H 0.87595 0.69163 0.89648 0.0
H579 H 0.88631 0.68189 0.9255 0.0
H580 H 0.89763 0.67001 0.94531 0.0
H581 H 0.92497 0.7104 0.98283 0.0
H582 H 0.91354 0.72228 0.9628 0.0
H583 H 0.88916 0.73308 0.92659 0.0
H584 H 0.86561 0.73165 0.92634 0.0
H585 H 0.84512 0.68542 0.94029 0.0
N586 N 0.8945 0.71114 0.92878 0.0
H587 H 0.86858 0.68685 0.93988 0.0
C588 C 0.79491 0.70346 0.89069 0.0
C589 C 0.79929 0.71531 0.87652 0.0
C590 C 0.79431 0.71298 0.85427 0.0
C591 C 0.78481 0.69868 0.84576 0.0
C592 C 0.78067 0.68676 0.85987 0.0
C593 C 0.78568 0.6891 0.8821 0.0
C594 C 0.78793 0.70004 0.92942 0.0
C595 C 0.78273 0.68585 0.93761 0.0
C596 C 0.77046 0.67947 0.9507 0.0
C597 C 0.76312 0.68712 0.95571 0.0
C598 C 0.76863 0.70146 0.94807 0.0
C599 C 0.7809 0.70782 0.93506 0.0
C600 C 0.81251 0.70608 0.91982 0.0
C601 C 0.82352 0.71797 0.93218 0.0
C602 C 0.83662 0.71851 0.93724 0.0
C603 C 0.83898 0.70712 0.92994 0.0
C604 C 0.82772 0.69494 0.91816 0.0
C605 C 0.8146 0.69439 0.91322 0.0
C606 C 0.89713 0.71025 0.90541 0.0
C607 C 0.91084 0.71997 0.89736 0.0
C608 C 0.91422 0.71861 0.87534 0.0
C609 C 0.90386 0.70747 0.86089 0.0
C610 C 0.88993 0.69808 0.86876 0.0
C611 C 0.88662 0.69936 0.89081 0.0
C612 C 0.89904 0.70305 0.94277 0.0
C613 C 0.89444 0.68812 0.93839 0.0
C614 C 0.90095 0.68131 0.94974 0.0
C615 C 0.91228 0.6893 0.9655 0.0
C616 C 0.91638 0.70401 0.97058 0.0
C617 C 0.90979 0.71077 0.95933 0.0
C618 C 0.88077 0.71017 0.93317 0.0
C619 C 0.87961 0.72273 0.93011 0.0
C620 C 0.86612 0.72187 0.93002 0.0
C621 C 0.85343 0.70837 0.93309 0.0
C622 C 0.85466 0.69593 0.93746 0.0
C623 C 0.86817 0.69679 0.93745 0.0
H624 H 0.75238 0.61134 0.46474 0.0
N625 N 0.77588 0.62741 0.44139 0.0
H626 H 0.74765 0.61632 0.50277 0.0
H627 H 0.79553 0.64885 0.4706 0.0
H628 H 0.79113 0.65357 0.50872 0.0
H629 H 0.78309 0.65642 0.4415 0.0
H630 H 0.77067 0.66668 0.42044 0.0
H631 H 0.75594 0.61415 0.4089 0.0
H632 H 0.74322 0.62431 0.38793 0.0
H633 H 0.78226 0.6063 0.44588 0.0
H634 H 0.80068 0.65124 0.42595 0.0
H635 H 0.80601 0.60831 0.44383 0.0
H636 H 0.82428 0.65318 0.4231 0.0
H637 H 0.86564 0.61674 0.48348 0.0
H638 H 0.87473 0.62303 0.52226 0.0
H639 H 0.89884 0.66892 0.50606 0.0
H640 H 0.8899 0.66255 0.46748 0.0
H641 H 0.8834 0.66036 0.4265 0.0
H642 H 0.90486 0.67033 0.40365 0.0
H643 H 0.9079 0.63139 0.41413 0.0
H644 H 0.88654 0.62161 0.4373 0.0
H645 H 0.84889 0.61277 0.42933 0.0
H646 H 0.82541 0.61094 0.4216 0.0
H647 H 0.84224 0.65494 0.44924 0.0
N648 N 0.87207 0.63479 0.44967 0.0
H649 H 0.86566 0.65684 0.45593 0.0
C650 C 0.77423 0.62965 0.46476 0.0
C651 C 0.76093 0.62043 0.47444 0.0
C652 C 0.7583 0.62326 0.49621 0.0
C653 C 0.769 0.6354 0.50878 0.0
C654 C 0.78258 0.64426 0.49939 0.0
C655 C 0.78515 0.64149 0.47758 0.0
C656 C 0.77044 0.63443 0.42674 0.0
C657 C 0.77462 0.64937 0.42953 0.0
C658 C 0.7674 0.65522 0.41761 0.0
C659 C 0.75584 0.64628 0.4027 0.0
C660 C 0.75215 0.63154 0.39915 0.0
C661 C 0.75939 0.6257 0.41109 0.0
C662 C 0.78956 0.62852 0.43615 0.0
C663 C 0.79135 0.61646 0.44045 0.0
C664 C 0.80494 0.61764 0.43918 0.0
C665 C 0.81711 0.63096 0.43342 0.0
C666 C 0.81519 0.64284 0.42795 0.0
C667 C 0.80158 0.64168 0.42938 0.0
C668 C 0.8771 0.63908 0.47255 0.0
C669 C 0.87281 0.62815 0.48841 0.0
C670 C 0.87796 0.63178 0.51053 0.0
C671 C 0.88755 0.64648 0.51721 0.0
C672 C 0.89164 0.65748 0.50137 0.0
C673 C 0.88645 0.65383 0.47927 0.0
C674 C 0.88338 0.64018 0.43362 0.0
C675 C 0.88852 0.65385 0.4236 0.0
C676 C 0.90079 0.65954 0.41049 0.0
C677 C 0.90816 0.65171 0.40728 0.0
C678 C 0.90262 0.6378 0.4166 0.0
C679 C 0.89036 0.63213 0.42964 0.0
C680 C 0.85896 0.63479 0.44345 0.0
C681 C 0.84751 0.62207 0.43334 0.0
C682 C 0.8341 0.62103 0.4291 0.0
C683 C 0.83185 0.63273 0.43503 0.0
C684 C 0.84358 0.64576 0.44423 0.0
C685 C 0.85701 0.64682 0.44831 0.0
H686 H 0.3755 0.13563 0.47876 0.0
N687 N 0.35748 0.14303 0.45976 0.0
H688 H 0.37287 0.12371 0.51444 0.0
H689 H 0.3373 0.13855 0.49097 0.0
H690 H 0.33462 0.12674 0.5268 0.0
H691 H 0.32884 0.12154 0.45839 0.0
H692 H 0.318 0.09928 0.43518 0.0
H693 H 0.36911 0.13758 0.42453 0.0
H694 H 0.35811 0.11541 0.40032 0.0
H695 H 0.37737 0.17 0.4727 0.0
H696 H 0.33432 0.14536 0.44298 0.0
H697 H 0.37579 0.1923 0.47206 0.0
H698 H 0.33303 0.16768 0.44083 0.0
H699 H 0.37187 0.26223 0.47169 0.0
H700 H 0.37221 0.27449 0.50705 0.0
H701 H 0.33348 0.23527 0.52614 0.0
H702 H 0.33318 0.22319 0.49095 0.0
H703 H 0.32347 0.22748 0.45728 0.0
H704 H 0.31105 0.2352 0.43125 0.0
H705 H 0.34911 0.25515 0.39089 0.0
H706 H 0.36176 0.24806 0.418 0.0
H707 H 0.37513 0.23263 0.45053 0.0
H708 H 0.37629 0.21004 0.44934 0.0
H709 H 0.33033 0.18505 0.46133 0.0
N710 N 0.3522 0.23553 0.45684 0.0
H711 H 0.32921 0.20762 0.46065 0.0
C712 C 0.35662 0.13791 0.48218 0.0
C713 C 0.36673 0.13396 0.48941 0.0
C714 C 0.36522 0.12722 0.50983 0.0
C715 C 0.35349 0.12423 0.52342 0.0
C716 C 0.34367 0.12874 0.51658 0.0
C717 C 0.34523 0.13556 0.49616 0.0
C718 C 0.34992 0.13122 0.44336 0.0
C719 C 0.33527 0.12045 0.44555 0.0
C720 C 0.32902 0.10771 0.43204 0.0
C721 C 0.33721 0.10543 0.41595 0.0
C722 C 0.35156 0.11667 0.4128 0.0
C723 C 0.35783 0.12941 0.42644 0.0
C724 C 0.35611 0.15597 0.45782 0.0
C725 C 0.36767 0.16945 0.4657 0.0
C726 C 0.36676 0.18222 0.46513 0.0
C727 C 0.35431 0.18191 0.45622 0.0
C728 C 0.34272 0.16837 0.44813 0.0
C729 C 0.34353 0.15552 0.44914 0.0
C730 C 0.35259 0.24183 0.4786 0.0
C731 C 0.36357 0.25627 0.48366 0.0
C732 C 0.36374 0.26322 0.50384 0.0
C733 C 0.35282 0.25586 0.51934 0.0
C734 C 0.34192 0.2413 0.5144 0.0
C735 C 0.34182 0.23432 0.49427 0.0
C736 C 0.34371 0.23755 0.43983 0.0
C737 C 0.32912 0.23338 0.44276 0.0
C738 C 0.32194 0.23769 0.42762 0.0
C739 C 0.32913 0.24604 0.40906 0.0
C740 C 0.34335 0.24909 0.40527 0.0
C741 C 0.35057 0.24496 0.42061 0.0
C742 C 0.35221 0.22186 0.45608 0.0
C743 C 0.36533 0.22223 0.45278 0.0
C744 C 0.36596 0.20929 0.45233 0.0
C745 C 0.35344 0.19563 0.45559 0.0
C746 C 0.34019 0.19529 0.45857 0.0
C747 C 0.33955 0.20825 0.45855 0.0
H748 H 0.81536 0.10812 0.47617 0.0
N749 N 0.81201 0.12648 0.45007 0.0
H750 H 0.80118 0.09536 0.50845 0.0
H751 H 0.79015 0.12949 0.46788 0.0
H752 H 0.7754 0.11625 0.49922 0.0
H753 H 0.79064 0.12952 0.42882 0.0
H754 H 0.77287 0.112 0.40139 0.0
H755 H 0.81401 0.10594 0.42694 0.0
H756 H 0.7963 0.0883 0.39984 0.0
H757 H 0.82361 0.1443 0.48696 0.0
H758 H 0.81983 0.14543 0.41501 0.0
H759 H 0.83886 0.17065 0.48873 0.0
H760 H 0.8355 0.17199 0.41705 0.0
H761 H 0.90403 0.23645 0.48049 0.0
H762 H 0.91328 0.24668 0.5177 0.0
H763 H 0.87961 0.25788 0.52404 0.0
H764 H 0.87012 0.24719 0.48659 0.0
H765 H 0.89226 0.26056 0.43802 0.0
H766 H 0.91345 0.27107 0.4145 0.0
H767 H 0.91487 0.23079 0.4179 0.0
H768 H 0.89425 0.22065 0.44195 0.0
H769 H 0.88152 0.21265 0.48006 0.0
H770 H 0.86368 0.18678 0.47728 0.0
H771 H 0.83767 0.19588 0.43139 0.0
N772 N 0.88053 0.23508 0.45845 0.0
H773 H 0.85585 0.2222 0.43421 0.0
C774 C 0.80372 0.11958 0.46952 0.0
C775 C 0.80671 0.10998 0.48131 0.0
C776 C 0.79852 0.10265 0.49962 0.0
C777 C 0.78704 0.10467 0.50636 0.0
C778 C 0.78423 0.11453 0.49469 0.0
C779 C 0.79253 0.12196 0.47652 0.0
C780 C 0.8036 0.11891 0.43009 0.0
C781 C 0.79212 0.12076 0.42214 0.0
C782 C 0.78194 0.11069 0.4065 0.0
C783 C 0.78301 0.09859 0.39862 0.0
C784 C 0.79516 0.09753 0.40529 0.0
C785 C 0.80532 0.10759 0.42084 0.0
C786 C 0.81961 0.14249 0.45095 0.0
C787 C 0.82556 0.1501 0.47151 0.0
C788 C 0.83456 0.16529 0.47256 0.0
C789 C 0.83835 0.1734 0.45305 0.0
C790 C 0.83252 0.16603 0.43243 0.0
C791 C 0.82344 0.15074 0.43133 0.0
C792 C 0.88632 0.24109 0.4806 0.0
C793 C 0.8986 0.24111 0.48974 0.0
C794 C 0.90396 0.24707 0.51108 0.0
C795 C 0.89726 0.2532 0.52383 0.0
C796 C 0.88495 0.25312 0.51475 0.0
C797 C 0.87955 0.2471 0.49334 0.0
C798 C 0.89155 0.23985 0.44182 0.0
C799 C 0.89701 0.25393 0.43333 0.0
C800 C 0.9091 0.25989 0.41985 0.0
C801 C 0.91595 0.25181 0.41448 0.0
C802 C 0.91003 0.23741 0.42207 0.0
C803 C 0.89804 0.23151 0.43569 0.0
C804 C 0.86996 0.21955 0.45757 0.0
C805 C 0.87197 0.20929 0.46961 0.0
C806 C 0.8617 0.19439 0.468 0.0
C807 C 0.84918 0.18931 0.45432 0.0
C808 C 0.84723 0.19949 0.44205 0.0
C809 C 0.85753 0.21449 0.44373 0.0
H810 H 0.02954 0.56188 0.20891 0.0
N811 N 0.00915 0.53988 0.23112 0.0
H812 H 0.02645 0.57301 0.17537 0.0
H813 H 0.98408 0.52956 0.20595 0.0
H814 H 0.98091 0.5402 0.17191 0.0
H815 H 0.98899 0.54787 0.2406 0.0
H816 H 0.99224 0.56654 0.2682 0.0
H817 H 0.02764 0.54911 0.26598 0.0
H818 H 0.03032 0.56685 0.29516 0.0
H819 H 0.02649 0.52884 0.22733 0.0
H820 H 0.98233 0.51692 0.23944 0.0
H821 H 0.02012 0.50315 0.22911 0.0
H822 H 0.97547 0.49091 0.23979 0.0
H823 H 0.00655 0.43496 0.21445 0.0
H824 H 0.00642 0.42322 0.17914 0.0
H825 H 0.96033 0.40622 0.17106 0.0
H826 H 0.96063 0.41841 0.20649 0.0
H827 H 0.97186 0.41 0.25761 0.0
H828 H 0.98452 0.40212 0.28315 0.0
H829 H 0.02364 0.44415 0.27749 0.0
H830 H 0.01109 0.45161 0.25116 0.0
H831 H 0.00293 0.4564 0.20802 0.0
H832 H 0.00813 0.48149 0.20766 0.0
H833 H 0.97724 0.47241 0.25944 0.0
N834 N 0.9832 0.43431 0.2343 0.0
H835 H 0.97133 0.4467 0.25869 0.0
C836 C 0.00713 0.54488 0.20984 0.0
C837 C 0.01896 0.55699 0.20065 0.0
C838 C 0.01716 0.56327 0.18141 0.0
C839 C 0.00341 0.5575 0.17085 0.0
C840 C 0.99161 0.54503 0.17973 0.0
C841 C 0.99344 0.53881 0.1991 0.0
C842 C 0.00844 0.54755 0.25074 0.0
C843 C 0.99794 0.55183 0.2526 0.0
C844 C -0.00025 0.56245 0.26869 0.0
C845 C 0.01186 0.56866 0.28359 0.0
C846 C 0.02122 0.56283 0.28342 0.0
C847 C 0.01962 0.55254 0.26694 0.0
C848 C 0.00486 0.52466 0.23285 0.0
C849 C 0.01536 0.52056 0.23015 0.0
C850 C 0.01163 0.50586 0.23097 0.0
C851 C 0.9972 0.49485 0.23415 0.0
C852 C 0.98669 0.49906 0.23738 0.0
C853 C 0.99053 0.51388 0.23691 0.0
C854 C 0.98351 0.42755 0.21323 0.0
C855 C 0.99637 0.42868 0.20521 0.0
C856 C 0.99628 0.42187 0.18498 0.0
C857 C 0.98335 0.41369 0.17228 0.0
C858 C 0.97051 0.41257 0.18029 0.0
C859 C 0.97063 0.41946 0.20055 0.0
C860 C 0.99042 0.43131 0.25237 0.0
C861 C 0.98308 0.4176 0.26229 0.0
C862 C 0.99035 0.41317 0.27701 0.0
C863 C 0.00518 0.42245 0.2823 0.0
C864 C 0.0123 0.4366 0.27349 0.0
C865 C 0.00505 0.44096 0.25855 0.0
C866 C 0.98649 0.44942 0.23327 0.0
C867 C 0.99703 0.45956 0.21912 0.0
C868 C 0.00019 0.47412 0.21914 0.0
C869 C 0.99323 0.4791 0.23367 0.0
C870 C 0.9827 0.46897 0.24781 0.0
C871 C 0.97936 0.45429 0.24751 0.0
H872 H 0.56409 0.51592 0.22557 0.0
N873 N 0.55016 0.52379 0.25414 0.0
H874 H 0.57383 0.52665 0.18948 0.0
H875 H 0.54715 0.54531 0.23342 0.0
H876 H 0.5573 0.55644 0.19852 0.0
H877 H 0.53951 0.54114 0.26967 0.0
H878 H 0.55312 0.56332 0.2928 0.0
H879 H 0.57294 0.53014 0.28032 0.0
H880 H 0.58595 0.55139 0.3057 0.0
H881 H 0.54182 0.49789 0.27152 0.0
H882 H 0.52529 0.52282 0.23851 0.0
H883 H 0.51772 0.47604 0.26902 0.0
H884 H 0.50146 0.50097 0.23467 0.0
H885 H 0.44915 0.40924 0.20917 0.0
H886 H 0.44095 0.40229 0.17012 0.0
H887 H 0.44104 0.4431 0.16237 0.0
H888 H 0.44942 0.45004 0.20135 0.0
H889 H 0.43314 0.44144 0.23153 0.0
H890 H 0.41228 0.432 0.2554 0.0
H891 H 0.42716 0.40586 0.28946 0.0
H892 H 0.44798 0.41523 0.26508 0.0
H893 H 0.4802 0.43671 0.23257 0.0
H894 H 0.50319 0.4592 0.24052 0.0
H895 H 0.48016 0.48285 0.25104 0.0
N896 N 0.45389 0.43328 0.23148 0.0
H897 H 0.45736 0.46046 0.2419 0.0
C898 C 0.55504 0.52984 0.23244 0.0
C899 C 0.56246 0.52465 0.21953 0.0
C900 C 0.56808 0.53086 0.199 0.0
C901 C 0.56641 0.54247 0.19106 0.0
C902 C 0.55862 0.54737 0.20381 0.0
C903 C 0.55293 0.54108 0.22414 0.0
C904 C 0.55558 0.53435 0.27252 0.0
C905 C 0.54963 0.54331 0.2775 0.0
C906 C 0.5574 0.55596 0.2911 0.0
C907 C 0.57102 0.55959 0.30063 0.0
C908 C 0.5759 0.54946 0.29786 0.0
C909 C 0.56837 0.53713 0.28365 0.0
C910 C 0.53545 0.51189 0.25494 0.0
C911 C 0.53294 0.49865 0.26388 0.0
C912 C 0.5192 0.48615 0.26217 0.0
C913 C 0.50767 0.48662 0.25116 0.0
C914 C 0.51003 0.50016 0.24331 0.0
C915 C 0.52376 0.51272 0.24534 0.0
C916 C 0.44982 0.43005 0.20816 0.0
C917 C 0.44751 0.41671 0.19894 0.0
C918 C 0.44288 0.41279 0.17668 0.0
C919 C 0.44033 0.42214 0.16324 0.0
C920 C 0.44278 0.43562 0.17243 0.0
C921 C 0.44759 0.4396 0.19467 0.0
C922 C 0.44211 0.42894 0.24647 0.0
C923 C 0.43203 0.4338 0.24422 0.0
C924 C 0.42012 0.42845 0.25801 0.0
C925 C 0.41803 0.41813 0.27425 0.0
C926 C 0.42836 0.41365 0.27689 0.0
C927 C 0.44028 0.41903 0.26311 0.0
C928 C 0.46708 0.44682 0.23681 0.0
C929 C 0.48017 0.44677 0.23664 0.0
C930 C 0.49327 0.45963 0.24142 0.0
C931 C 0.49357 0.47287 0.24671 0.0
C932 C 0.48038 0.4729 0.24688 0.0
C933 C 0.46727 0.46003 0.24181 0.0
H934 H 0.54726 0.99171 0.22778 0.0
N935 N 0.54561 0.01491 0.24573 0.0
H936 H 0.55337 0.98912 0.18972 0.0
H937 H 0.55078 0.03328 0.21258 0.0
H938 H 0.55658 0.03061 0.17396 0.0
H939 H 0.5728 0.03446 0.25698 0.0
H940 H 0.59001 0.03063 0.27932 0.0
H941 H 0.53881 0.99072 0.27165 0.0
H942 H 0.55586 0.98685 0.29348 0.0
H943 H 0.52392 0.98606 0.24109 0.0
H944 H 0.53266 0.02993 0.25692 0.0
H945 H 0.49814 0.97688 0.24291 0.0
H946 H 0.5067 0.02109 0.25674 0.0
H947 H 0.41664 0.96159 0.21013 0.0
H948 H 0.40949 0.96726 0.1745 0.0
H949 H 0.44834 0.01005 0.17737 0.0
H950 H 0.45478 0.00457 0.21377 0.0
H951 H 0.43902 0.00401 0.24799 0.0
H952 H 0.42203 0.00564 0.27315 0.0
H953 H 0.40433 0.95988 0.28841 0.0
H954 H 0.42129 0.95834 0.26295 0.0
H955 H 0.4544 0.96823 0.21673 0.0
H956 H 0.48004 0.97643 0.22134 0.0
H957 H 0.48419 0.00812 0.27222 0.0
N958 N 0.43946 0.97899 0.23625 0.0
H959 H 0.45888 0.00064 0.26626 0.0
C960 C 0.5487 0.01281 0.22307 0.0
C961 C 0.54921 0.00023 0.21617 0.0
C962 C 0.55258 0.9987 0.19427 0.0
C963 C 0.55543 0.00965 0.17874 0.0
C964 C 0.55461 0.02206 0.18557 0.0
C965 C 0.55126 0.0236 0.20754 0.0
C966 C 0.55447 0.01298 0.26236 0.0
C967 C 0.56897 0.02416 0.26534 0.0
C968 C 0.57881 0.0219 0.27789 0.0
C969 C 0.57433 0.00837 0.28793 0.0
C970 C 0.55964 0.99743 0.28603 0.0
C971 C 0.54982 0.99966 0.27334 0.0
C972 C 0.53033 0.00873 0.24946 0.0
C973 C 0.52033 0.99373 0.2454 0.0
C974 C 0.50546 0.98851 0.24596 0.0
C975 C 0.50017 0.99822 0.24965 0.0
C976 C 0.51023 0.01317 0.2542 0.0
C977 C 0.52513 0.0183 0.25425 0.0
C978 C 0.43628 0.98251 0.21445 0.0
C979 C 0.42361 0.97215 0.20293 0.0
C980 C 0.41962 0.97541 0.18246 0.0
C981 C 0.42837 0.98911 0.17279 0.0
C982 C 0.44119 0.99947 0.18433 0.0
C983 C 0.44502 0.99628 0.20507 0.0
C984 C 0.43136 0.98099 0.25363 0.0
C985 C 0.43167 0.99442 0.25708 0.0
C986 C 0.42199 0.99534 0.27152 0.0
C987 C 0.41176 0.98285 0.28258 0.0
C988 C 0.41196 0.96964 0.27987 0.0
C989 C 0.42169 0.96875 0.26553 0.0
C990 C 0.45455 0.9837 0.24097 0.0
C991 C 0.46086 0.97693 0.2289 0.0
C992 C 0.47555 0.98157 0.23179 0.0
C993 C 0.48433 0.99293 0.24732 0.0
C994 C 0.47791 0.99952 0.25984 0.0
C995 C 0.46325 0.9951 0.25654 0.0
H996 H 0.41934 0.94828 0.79606 0.0
N997 N 0.44233 0.96576 0.77272 0.0
H998 H 0.41426 0.95227 0.83438 0.0
H999 H 0.4611 0.98776 0.802 0.0
H1000 H 0.45635 0.99158 0.84041 0.0
H1001 H 0.44681 0.99386 0.7739 0.0
H1002 H 0.43245 0.00222 0.7537 0.0
H1003 H 0.42425 0.95212 0.73821 0.0
H1004 H 0.41042 0.96073 0.71667 0.0
H1005 H 0.44824 0.9442 0.7731 0.0
H1006 H 0.46733 0.99038 0.76066 0.0
H1007 H 0.47179 0.94597 0.76932 0.0
H1008 H 0.49097 0.99225 0.75633 0.0
H1009 H 0.53002 0.94797 0.80092 0.0
H1010 H 0.53915 0.94965 0.83927 0.0
H1011 H 0.56375 0.99696 0.8355 0.0
H1012 H 0.55484 0.99513 0.79714 0.0
H1013 H 0.55021 0.9975 0.75632 0.0
H1014 H 0.57206 0.00851 0.73408 0.0
H1015 H 0.57184 0.96732 0.73312 0.0
H1016 H 0.55006 0.95642 0.75539 0.0
H1017 H 0.51368 0.95019 0.74994 0.0
H1018 H 0.49073 0.94989 0.74456 0.0
H1019 H 0.50875 0.99141 0.78113 0.0
N1020 N 0.53701 0.96975 0.77309 0.0
H1021 H 0.53171 0.99184 0.78564 0.0
C1022 C 0.44053 0.96764 0.79613 0.0
C1023 C 0.42752 0.95762 0.80583 0.0
C1024 C 0.4247 0.95989 0.82776 0.0
C1025 C 0.4349 0.97227 0.84046 0.0
C1026 C 0.4482 0.98203 0.83099 0.0
C1027 C 0.45098 0.97978 0.80902 0.0
C1028 C 0.43637 0.97218 0.75787 0.0
C1029 C 0.439 0.98659 0.7613 0.0
C1030 C 0.4308 0.99143 0.74954 0.0
C1031 C 0.41999 0.98206 0.7338 0.0
C1032 C 0.41829 0.9681 0.72915 0.0
C1033 C 0.42632 0.9632 0.74119 0.0
C1034 C 0.456 0.96707 0.76715 0.0
C1035 C 0.45749 0.95465 0.769 0.0
C1036 C 0.47096 0.95569 0.76674 0.0
C1037 C 0.4833 0.96927 0.76252 0.0
C1038 C 0.48171 0.98166 0.75981 0.0
C1039 C 0.46817 0.98059 0.7621 0.0
C1040 C 0.54171 0.97135 0.79618 0.0
C1041 C 0.53727 0.95869 0.80852 0.0
C1042 C 0.54246 0.95969 0.83043 0.0
C1043 C 0.55223 0.97345 0.84043 0.0
C1044 C 0.55641 0.98619 0.82818 0.0
C1045 C 0.55121 0.98516 0.80627 0.0
C1046 C 0.54853 0.97609 0.75748 0.0
C1047 C 0.55469 0.99076 0.75097 0.0
C1048 C 0.56717 0.99705 0.73824 0.0
C1049 C 0.57371 0.9888 0.73211 0.0
C1050 C 0.56714 0.97399 0.73789 0.0
C1051 C 0.55467 0.96772 0.75042 0.0
C1052 C 0.5243 0.97086 0.76843 0.0
C1053 C 0.5127 0.95931 0.75645 0.0
C1054 C 0.4996 0.95914 0.75353 0.0
C1055 C 0.49783 0.97053 0.76268 0.0
C1056 C 0.50975 0.9825 0.77372 0.0
C1057 C 0.5229 0.9827 0.77652 0.0
H1058 H 0.95708 0.54437 0.82448 0.0
N1059 N 0.97628 0.54369 0.7975 0.0
H1060 H 0.96187 0.5586 0.85957 0.0
H1061 H 0.00294 0.56167 0.81768 0.0
H1062 H 0.00782 0.57606 0.85213 0.0
H1063 H 0.99636 0.57142 0.78493 0.0
H1064 H 0.99274 0.58528 0.75613 0.0
H1065 H 0.95584 0.53299 0.76543 0.0
H1066 H 0.95264 0.5464 0.73506 0.0
H1067 H 0.96138 0.51509 0.80352 0.0
H1068 H 0.00323 0.54983 0.78478 0.0
H1069 H 0.96988 0.4975 0.80083 0.0
H1070 H 0.01236 0.53266 0.78394 0.0
H1071 H 0.98991 0.44773 0.81055 0.0
H1072 H 0.98978 0.43566 0.84461 0.0
H1073 H 0.03386 0.46978 0.86011 0.0
H1074 H 0.0341 0.4816 0.82499 0.0
H1075 H 0.0268 0.46077 0.77372 0.0
H1076 H 0.01633 0.43889 0.74931 0.0
H1077 H 0.97555 0.43844 0.74758 0.0
H1078 H 0.98584 0.45973 0.77295 0.0
H1079 H 0.99207 0.47295 0.82075 0.0
H1080 H 0.98406 0.4906 0.82045 0.0
H1081 H 0.01249 0.51278 0.76623 0.0
N1082 N 0.01281 0.47247 0.79394 0.0
H1083 H 0.02143 0.49545 0.76779 0.0
C1084 C 0.97956 0.55179 0.8185 0.0
C1085 C 0.96816 0.55119 0.83061 0.0
C1086 C 0.97094 0.55942 0.85052 0.0
C1087 C 0.98524 0.56847 0.85869 0.0
C1088 C 0.99666 0.56901 0.84655 0.0
C1089 C 0.99387 0.56076 0.82671 0.0
C1090 C 0.97602 0.5513 0.7779 0.0
C1091 C 0.98681 0.56585 0.77413 0.0
C1092 C 0.9848 0.57374 0.75728 0.0
C1093 C 0.97217 0.56711 0.74349 0.0
C1094 C 0.96223 0.55206 0.74584 0.0
C1095 C 0.96408 0.54431 0.76304 0.0
C1096 C 0.98173 0.53374 0.79491 0.0
C1097 C 0.97248 0.5189 0.79908 0.0
C1098 C 0.97745 0.50893 0.79776 0.0
C1099 C 0.99196 0.51365 0.79269 0.0
C1100 C 0.00113 0.52855 0.78784 0.0
C1101 C 0.996 0.53847 0.78866 0.0
C1102 C 0.01216 0.46556 0.81496 0.0
C1103 C -0.00039 0.45265 0.8211 0.0
C1104 C 0.99947 0.44583 0.84089 0.0
C1105 C 0.01179 0.45175 0.85523 0.0
C1106 C 0.02423 0.46483 0.84934 0.0
C1107 C 0.02439 0.47165 0.82938 0.0
C1108 C 0.00721 0.46191 0.77538 0.0
C1109 C 0.01572 0.45616 0.76757 0.0
C1110 C 0.00969 0.44365 0.75351 0.0
C1111 C 0.99498 0.4367 0.74671 0.0
C1112 C 0.9868 0.44327 0.75292 0.0
C1113 C 0.99278 0.45564 0.76726 0.0
C1114 C 0.00766 0.48289 0.7944 0.0
C1115 C 0.99685 0.48162 0.80891 0.0
C1116 C 0.99202 0.49172 0.8085 0.0
C1117 C 0.99747 0.50313 0.79317 0.0
C1118 C 0.00817 0.50432 0.77853 0.0
C1119 C 0.01325 0.49436 0.77928 0.0
H1120 H 0.47116 0.47222 0.80059 0.0
N1121 N 0.46061 0.48562 0.77334 0.0
H1122 H 0.46071 0.45992 0.8349 0.0
H1123 H 0.4398 0.48656 0.79585 0.0
H1124 H 0.42999 0.47542 0.8315 0.0
H1125 H 0.44308 0.48536 0.74088 0.0
H1126 H 0.42791 0.46501 0.71433 0.0
H1127 H 0.46156 0.46011 0.76684 0.0
H1128 H 0.44691 0.44027 0.74055 0.0
H1129 H 0.48258 0.48073 0.75905 0.0
H1130 H 0.47374 0.51372 0.78585 0.0
H1131 H 0.5083 0.49771 0.76318 0.0
H1132 H 0.49976 0.53081 0.79055 0.0
H1133 H 0.58802 0.555 0.82645 0.0
H1134 H 0.59537 0.56597 0.86395 0.0
H1135 H 0.55902 0.57352 0.86419 0.0
H1136 H 0.55246 0.56352 0.8262 0.0
H1137 H 0.5729 0.58127 0.79606 0.0
H1138 H 0.59063 0.59914 0.77106 0.0
H1139 H 0.59873 0.56559 0.74425 0.0
H1140 H 0.58097 0.5478 0.76935 0.0
H1141 H 0.55096 0.52392 0.80396 0.0
H1142 H 0.52526 0.50785 0.79438 0.0
H1143 H 0.52256 0.5454 0.77252 0.0
N1144 N 0.56655 0.5528 0.80066 0.0
H1145 H 0.54814 0.56139 0.7828 0.0
C1146 C 0.45597 0.47999 0.7953 0.0
C1147 C 0.4621 0.47288 0.8071 0.0
C1148 C 0.45621 0.46602 0.82707 0.0
C1149 C 0.44431 0.46644 0.83607 0.0
C1150 C 0.43884 0.47441 0.82487 0.0
C1151 C 0.44452 0.48095 0.80459 0.0
C1152 C 0.4537 0.47453 0.75569 0.0
C1153 C 0.4442 0.47567 0.74044 0.0
C1154 C 0.4355 0.46404 0.72542 0.0
C1155 C 0.43632 0.45111 0.72523 0.0
C1156 C 0.44623 0.4502 0.73991 0.0
C1157 C 0.45469 0.46166 0.75509 0.0
C1158 C 0.47598 0.49586 0.77225 0.0
C1159 C 0.48601 0.49161 0.76564 0.0
C1160 C 0.50088 0.50138 0.76815 0.0
C1161 C 0.50612 0.51557 0.77747 0.0
C1162 C 0.49613 0.52001 0.78313 0.0
C1163 C 0.48125 0.51026 0.7805 0.0
C1164 C 0.56963 0.55823 0.82355 0.0
C1165 C 0.58162 0.55895 0.83473 0.0
C1166 C 0.58572 0.56515 0.85626 0.0
C1167 C 0.57777 0.57061 0.86733 0.0
C1168 C 0.56558 0.56966 0.85618 0.0
C1169 C 0.56165 0.56371 0.83444 0.0
C1170 C 0.57574 0.56321 0.78463 0.0
C1171 C 0.57838 0.57773 0.78464 0.0
C1172 C 0.58855 0.58794 0.77043 0.0
C1173 C 0.59612 0.58378 0.7558 0.0
C1174 C 0.59298 0.5691 0.75519 0.0
C1175 C 0.5829 0.55894 0.76952 0.0
C1176 C 0.55149 0.54378 0.79403 0.0
C1177 C 0.5448 0.52862 0.797 0.0
C1178 C 0.53016 0.51947 0.79134 0.0
C1179 C 0.52186 0.52532 0.78252 0.0
C1180 C 0.52861 0.54055 0.77941 0.0
C1181 C 0.54329 0.54971 0.78514 0.0
H1182 H 0.65966 0.88445 0.56438 0.0
N1183 N 0.63667 0.85761 0.57432 0.0
H1184 H 0.66306 0.89752 0.53 0.0
H1185 H 0.61924 0.84864 0.53789 0.0
H1186 H 0.62271 0.86167 0.50288 0.0
H1187 H 0.6247 0.87424 0.58275 0.0
H1188 H 0.63282 0.89424 0.61017 0.0
H1189 H 0.65392 0.86166 0.61278 0.0
H1190 H 0.66179 0.88143 0.6403 0.0
H1191 H 0.6657 0.86675 0.57398 0.0
H1192 H 0.62307 0.82837 0.57232 0.0
H1193 H 0.67651 0.85135 0.5698 0.0
H1194 H 0.63382 0.81271 0.5671 0.0
H1195 H 0.70309 0.79699 0.52615 0.0
H1196 H 0.69831 0.78114 0.49298 0.0
H1197 H 0.65236 0.76016 0.50429 0.0
H1198 H 0.65728 0.77629 0.53713 0.0
H1199 H 0.6666 0.76937 0.5708 0.0
H1200 H 0.67338 0.75777 0.59958 0.0
H1201 H 0.71378 0.7984 0.61166 0.0
H1202 H 0.70714 0.80969 0.58174 0.0
H1203 H 0.69129 0.82247 0.53741 0.0
H1204 H 0.67939 0.83696 0.54234 0.0
H1205 H 0.64781 0.80334 0.58388 0.0
N1206 N 0.68405 0.7967 0.55428 0.0
H1207 H 0.65935 0.7886 0.57774 0.0
C1208 C 0.63911 0.86549 0.55377 0.0
C1209 C 0.65159 0.87928 0.55101 0.0
C1210 C 0.65356 0.88674 0.53123 0.0
C1211 C 0.6432 0.88062 0.51359 0.0
C1212 C 0.63083 0.86676 0.51622 0.0
C1213 C 0.62884 0.85928 0.53612 0.0
C1214 C 0.63945 0.86703 0.59414 0.0
C1215 C 0.63273 0.87562 0.59536 0.0
C1216 C 0.6373 0.88702 0.61129 0.0
C1217 C 0.6484 0.88983 0.627 0.0
C1218 C 0.6537 0.88 0.62778 0.0
C1219 C 0.64923 0.86866 0.61168 0.0
C1220 C 0.64349 0.84869 0.57369 0.0
C1221 C 0.65863 0.85498 0.57265 0.0
C1222 C 0.66481 0.84611 0.57008 0.0
C1223 C 0.65605 0.83075 0.56785 0.0
C1224 C 0.64093 0.82447 0.56905 0.0
C1225 C 0.63475 0.83338 0.57198 0.0
C1226 C 0.6806 0.78788 0.534 0.0
C1227 C 0.692 0.78907 0.52126 0.0
C1228 C 0.68923 0.77991 0.50248 0.0
C1229 C 0.67495 0.7693 0.49608 0.0
C1230 C 0.66347 0.7683 0.50864 0.0
C1231 C 0.66626 0.7775 0.52746 0.0
C1232 C 0.68658 0.79034 0.57375 0.0
C1233 C 0.67685 0.77585 0.57974 0.0
C1234 C 0.6807 0.76925 0.59649 0.0
C1235 C 0.69425 0.77706 0.6078 0.0
C1236 C 0.70342 0.79194 0.60294 0.0
C1237 C 0.69963 0.79845 0.58598 0.0
C1238 C 0.6764 0.80462 0.55742 0.0
C1239 C 0.68176 0.81824 0.54749 0.0
C1240 C 0.675 0.82655 0.55052 0.0
C1241 C 0.66276 0.82146 0.56386 0.0
C1242 C 0.65717 0.80759 0.57343 0.0
C1243 C 0.66385 0.79918 0.57011 0.0
H1244 H 0.23985 0.86389 0.56424 0.0
N1245 N 0.21511 0.85627 0.58407 0.0
H1246 H 0.24796 0.87625 0.52877 0.0
H1247 H 0.19853 0.86132 0.55384 0.0
H1248 H 0.20643 0.87345 0.51834 0.0
H1249 H 0.2079 0.87791 0.58702 0.0
H1250 H 0.22015 0.90001 0.6104 0.0
H1251 H 0.23282 0.86094 0.6189 0.0
H1252 H 0.2449 0.883 0.64325 0.0
H1253 H 0.20993 0.82908 0.57846 0.0
H1254 H 0.18878 0.85391 0.59335 0.0
H1255 H 0.18646 0.80643 0.57658 0.0
H1256 H 0.16534 0.83134 0.59199 0.0
H1257 H 0.12651 0.7486 0.53655 0.0
H1258 H 0.11709 0.74159 0.49804 0.0
H1259 H 0.09394 0.76531 0.50549 0.0
H1260 H 0.10314 0.77198 0.54391 0.0
H1261 H 0.1084 0.77904 0.58459 0.0
H1262 H 0.08673 0.76902 0.60687 0.0
H1263 H 0.08414 0.72668 0.60504 0.0
H1264 H 0.10578 0.73677 0.58242 0.0
H1265 H 0.14315 0.76664 0.58938 0.0
H1266 H 0.16605 0.78935 0.59769 0.0
H1267 H 0.14955 0.81395 0.56313 0.0
N1268 N 0.12029 0.76347 0.5663 0.0
H1269 H 0.12669 0.79136 0.55552 0.0
C1270 C 0.21866 0.86168 0.56176 0.0
C1271 C 0.23244 0.86571 0.55405 0.0
C1272 C 0.23701 0.87272 0.53376 0.0
C1273 C 0.22784 0.87588 0.52079 0.0
C1274 C 0.2138 0.87131 0.52809 0.0
C1275 C 0.20923 0.86428 0.54837 0.0
C1276 C 0.21954 0.86774 0.60105 0.0
C1277 C 0.21566 0.87868 0.59959 0.0
C1278 C 0.22269 0.89139 0.61315 0.0
C1279 C 0.2337 0.89344 0.62858 0.0
C1280 C 0.2367 0.88194 0.63124 0.0
C1281 C 0.22971 0.86925 0.61753 0.0
C1282 C 0.2012 0.84318 0.58606 0.0
C1283 C 0.20024 0.82958 0.58179 0.0
C1284 C 0.18682 0.81666 0.5808 0.0
C1285 C 0.174 0.81707 0.58408 0.0
C1286 C 0.17499 0.83067 0.58911 0.0
C1287 C 0.18846 0.84362 0.59007 0.0
C1288 C 0.11556 0.76076 0.54314 0.0
C1289 C 0.11953 0.75239 0.52972 0.0
C1290 C 0.11417 0.74846 0.50773 0.0
C1291 C 0.10469 0.75283 0.49873 0.0
C1292 C 0.10103 0.76158 0.51202 0.0
C1293 C 0.10641 0.76551 0.534 0.0
C1294 C 0.10873 0.7586 0.58186 0.0
C1295 C 0.10335 0.76768 0.58926 0.0
C1296 C 0.09094 0.76194 0.60205 0.0
C1297 C 0.08366 0.74703 0.60754 0.0
C1298 C 0.08938 0.73815 0.60078 0.0
C1299 C 0.10178 0.7439 0.58806 0.0
C1300 C 0.13327 0.77722 0.57167 0.0
C1301 C 0.14449 0.77697 0.5838 0.0
C1302 C 0.15756 0.78994 0.58842 0.0
C1303 C 0.15967 0.80346 0.58095 0.0
C1304 C 0.14824 0.80375 0.56934 0.0
C1305 C 0.13515 0.79077 0.56477 0.0
H1306 H 0.21368 0.33119 0.56414 0.0
N1307 N 0.20998 0.35195 0.5868 0.0
H1308 H 0.22189 0.33253 0.52644 0.0
H1309 H 0.21695 0.37359 0.55832 0.0
H1310 H 0.22518 0.37494 0.51986 0.0
H1311 H 0.23456 0.37136 0.60738 0.0
H1312 H 0.25106 0.3664 0.62944 0.0
H1313 H 0.2037 0.32496 0.60232 0.0
H1314 H 0.22014 0.3199 0.62435 0.0
H1315 H 0.18896 0.32548 0.56795 0.0
H1316 H 0.19577 0.36183 0.6109 0.0
H1317 H 0.16321 0.31615 0.5672 0.0
H1318 H 0.16958 0.35179 0.61195 0.0
H1319 H 0.08023 0.29611 0.54747 0.0
H1320 H 0.07279 0.29973 0.51047 0.0
H1321 H 0.11366 0.34021 0.50596 0.0
H1322 H 0.12052 0.33704 0.54311 0.0
H1323 H 0.10112 0.33864 0.57468 0.0
H1324 H 0.08545 0.34224 0.6003 0.0
H1325 H 0.07347 0.30064 0.62991 0.0
H1326 H 0.08914 0.29712 0.60417 0.0
H1327 H 0.11593 0.29738 0.57431 0.0
H1328 H 0.14118 0.30496 0.58324 0.0
H1329 H 0.15099 0.35012 0.58991 0.0
N1330 N 0.10403 0.31423 0.57121 0.0
H1331 H 0.12558 0.34215 0.5829 0.0
C1332 C 0.21471 0.35237 0.56422 0.0
C1333 C 0.21611 0.34081 0.55478 0.0
C1334 C 0.22068 0.34151 0.533 0.0
C1335 C 0.22403 0.35377 0.52008 0.0
C1336 C 0.22268 0.36536 0.52946 0.0
C1337 C 0.21798 0.3646 0.55133 0.0
C1338 C 0.21795 0.34862 0.60314 0.0
C1339 C 0.2312 0.36014 0.61155 0.0
C1340 C 0.2406 0.35727 0.62413 0.0
C1341 C 0.23695 0.34274 0.62846 0.0
C1342 C 0.22332 0.3312 0.62103 0.0
C1343 C 0.21386 0.3341 0.60858 0.0
C1344 C 0.19445 0.3447 0.58902 0.0
C1345 C 0.18494 0.33139 0.57759 0.0
C1346 C 0.17002 0.32588 0.57745 0.0
C1347 C 0.16413 0.33327 0.58927 0.0
C1348 C 0.17364 0.346 0.60205 0.0
C1349 C 0.18863 0.35169 0.60173 0.0
C1350 C 0.10093 0.31614 0.54829 0.0
C1351 C 0.0876 0.3057 0.53836 0.0
C1352 C 0.08341 0.30777 0.51712 0.0
C1353 C 0.09258 0.32032 0.50511 0.0
C1354 C 0.10614 0.33058 0.51482 0.0
C1355 C 0.1102 0.32863 0.5362 0.0
C1356 C 0.09615 0.31749 0.58746 0.0
C1357 C 0.09525 0.33038 0.58685 0.0
C1358 C 0.08626 0.33241 0.60142 0.0
C1359 C 0.0782 0.32169 0.61702 0.0
C1360 C 0.07965 0.30915 0.61822 0.0
C1361 C 0.08853 0.30708 0.60352 0.0
C1362 C 0.11893 0.31917 0.57745 0.0
C1363 C 0.12357 0.30887 0.57797 0.0
C1364 C 0.13806 0.3133 0.5829 0.0
C1365 C 0.14834 0.32825 0.58694 0.0
C1366 C 0.14349 0.3385 0.58719 0.0
C1367 C 0.12891 0.33398 0.58287 0.0
H1368 H 0.96788 0.38056 0.03555 0.0
H1369 H 0.99843 0.39961 0.16182 0.0
H1370 H 0.00237 0.37397 0.06063 0.0
H1371 H 0.96836 0.41148 0.13332 0.0
H1372 H 0.99902 0.38881 0.1257 0.0
H1373 H 0.96686 0.39041 0.07206 0.0
C1374 C 0.97524 0.38115 0.04873 0.0
C1375 C 0.98526 0.37643 0.04491 0.0
C1376 C 0.99229 0.39376 0.12737 0.0
C1377 C 0.98411 0.38776 0.08699 0.0
C1378 C 0.99198 0.4 0.14797 0.0
C1379 C 0.98337 0.40654 0.15065 0.0
C1380 C 0.98388 0.39401 0.10928 0.0
C1381 C 0.97503 0.40643 0.13217 0.0
C1382 C 0.97466 0.38681 0.06962 0.0
C1383 C 0.9945 0.3775 0.06275 0.0
N1384 N 0.97552 0.40029 0.1123 0.0
N1385 N 0.9937 0.38305 0.08301 0.0
H1386 H 0.5984 0.60886 0.09339 0.0
H1387 H 0.59291 0.54863 0.17545 0.0
H1388 H 0.62711 0.5911 0.09015 0.0
H1389 H 0.55625 0.55411 0.15951 0.0
H1390 H 0.60561 0.56398 0.14422 0.0
H1391 H 0.58282 0.58905 0.11783 0.0
C1392 C 0.60135 0.60072 0.0976 0.0
C1393 C 0.61412 0.60169 0.08981 0.0
C1394 C 0.59471 0.56166 0.14741 0.0
C1395 C 0.59646 0.57912 0.11801 0.0
C1396 C 0.58739 0.55281 0.16519 0.0
C1397 C 0.57351 0.55018 0.17039 0.0
C1398 C 0.58822 0.56812 0.13492 0.0
C1399 C 0.56707 0.55614 0.15657 0.0
C1400 C 0.59243 0.58939 0.11152 0.0
C1401 C 0.61739 0.5908 0.09582 0.0
N1402 N 0.57456 0.565 0.13969 0.0
N1403 N 0.60872 0.58008 0.10982 0.0
H1404 H 0.38351 0.98375 0.04833 0.0
H1405 H 0.43277 0.01584 0.15854 0.0
H1406 H 0.4195 0.02823 0.05262 0.0
H1407 H 0.41385 0.97032 0.13696 0.0
H1408 H 0.42513 0.02103 0.12279 0.0
H1409 H 0.39123 0.97908 0.08448 0.0
C1410 C 0.39296 0.99257 0.05695 0.0
C1411 C 0.40091 0.00639 0.04743 0.0
C1412 C 0.42269 0.00992 0.126 0.0
C1413 C 0.40969 0.00112 0.08877 0.0
C1414 C 0.42713 0.00694 0.14634 0.0
C1415 C 0.42398 0.99258 0.15097 0.0
C1416 C 0.4148 0.99845 0.11032 0.0
C1417 C 0.41629 0.98149 0.13452 0.0
C1418 C 0.3974 0.98986 0.07748 0.0
C1419 C 0.41312 0.01739 0.05931 0.0
N1420 N 0.41189 0.98464 0.11503 0.0
N1421 N 0.41711 0.01455 0.07945 0.0
H1422 H 0.41158 0.01373 0.94319 0.0
H1423 H 0.42006 0.95316 0.87367 0.0
H1424 H 0.38647 0.96718 0.95439 0.0
H1425 H 0.44093 0.99907 0.85779 0.0
H1426 H 0.41113 0.95863 0.90774 0.0
H1427 H 0.42605 0.00907 0.91672 0.0
C1428 C 0.40924 0.00254 0.94036 0.0
C1429 C 0.39767 0.9908 0.95079 0.0
C1430 C 0.41782 0.96753 0.89692 0.0
C1431 C 0.41409 0.98537 0.9203 0.0
C1432 C 0.42287 0.9644 0.87743 0.0
C1433 C 0.43112 0.97563 0.86268 0.0
C1434 C 0.42101 0.98198 0.90169 0.0
C1435 C 0.43468 0.99005 0.86867 0.0
C1436 C 0.41749 -0.00012 0.92517 0.0
C1437 C 0.39519 0.97655 0.94653 0.0
N1438 N 0.42948 0.99278 0.88757 0.0
N1439 N 0.40322 0.97421 0.9314 0.0
H1440 H 0.03083 0.40533 0.95638 0.0
H1441 H 0.98954 0.43703 0.88395 0.0
H1442 H 0.98431 0.38353 0.94771 0.0
H1443 H 0.03379 0.44824 0.87299 0.0
H1444 H 0.98848 0.42117 0.91403 0.0
H1445 H 0.03293 0.42487 0.93238 0.0
C1446 C 0.02104 0.40473 0.94969 0.0
C1447 C 0.00736 0.3927 0.95396 0.0
C1448 C 0.99845 0.42721 0.90514 0.0
C1449 C 0.00971 0.41505 0.92665 0.0
C1450 C 0.99907 0.43623 0.8879 0.0
C1451 C 0.0117 0.4438 0.87558 0.0
C1452 C 0.01059 0.42584 0.91031 0.0
C1453 C 0.02383 0.44266 0.882 0.0
C1454 C 0.02227 0.41586 0.93594 0.0
C1455 C 0.99507 0.39251 0.94481 0.0
N1456 N 0.02294 0.43375 0.89882 0.0
N1457 N 0.99654 0.4035 0.93154 0.0
H1458 H 0.59033 0.61866 0.99298 0.0
H1459 H 0.59057 0.56346 0.90148 0.0
H1460 H 0.62338 0.6064 0.99243 0.0
H1461 H 0.57565 0.59373 0.88552 0.0
H1462 H 0.59929 0.5759 0.93789 0.0
H1463 H 0.58136 0.60632 0.95627 0.0
C1464 C 0.59569 0.61337 0.98515 0.0
C1465 C 0.60764 0.61358 0.99571 0.0
C1466 C 0.59409 0.57977 0.92635 0.0
C1467 C 0.5973 0.5993 0.9541 0.0
C1468 C 0.58916 0.57274 0.90547 0.0
C1469 C 0.58243 0.57758 0.89012 0.0
C1470 C 0.59203 0.59154 0.9322 0.0
C1471 C 0.58055 0.58941 0.89676 0.0
C1472 C 0.59059 0.60639 0.96423 0.0
C1473 C 0.6142 0.60659 0.9848 0.0
N1474 N 0.58528 0.59595 0.91732 0.0
N1475 N 0.60886 0.59961 0.96467 0.0
H1476 H 0.02365 0.61621 0.98293 0.0
H1477 H 0.97206 0.58368 0.87363 0.0
H1478 H 0.98719 0.6226 0.97034 0.0
H1479 H 0.00548 0.57367 0.89174 0.0
H1480 H 0.97775 0.59866 0.90804 0.0
H1481 H 0.01772 0.60167 0.94838 0.0
C1482 C 0.0144 0.61461 0.97288 0.0
C1483 C 0.00589 0.62065 0.97968 0.0
C1484 C 0.98382 0.59317 0.90446 0.0
C1485 C 0.99899 0.60386 0.93986 0.0
C1486 C 0.98052 0.58454 0.88488 0.0
C1487 C 0.98832 0.57741 0.87971 0.0
C1488 C 0.99501 0.59472 0.91896 0.0
C1489 C 0.99932 0.57913 0.8948 0.0
C1490 C 0.011 0.60625 0.95312 0.0
C1491 C 0.99405 0.61816 0.96582 0.0
N1492 N 0.00234 0.58761 0.91367 0.0
N1493 N 0.99094 0.60994 0.94658 0.0
H1494 H 0.38277 0.41435 0.93551 0.0
H1495 H 0.45655 0.45999 0.87215 0.0
H1496 H 0.41532 0.4014 0.9352 0.0
H1497 H 0.4154 0.45295 0.84604 0.0
H1498 H 0.44384 0.44352 0.90246 0.0
H1499 H 0.39733 0.43405 0.91011 0.0
C1500 C 0.39309 0.41578 0.93039 0.0
C1501 C 0.3978 0.40614 0.93731 0.0
C1502 C 0.43771 0.44577 0.89013 0.0
C1503 C 0.41448 0.42869 0.90852 0.0
C1504 C 0.4449 0.45508 0.87269 0.0
C1505 C 0.43709 0.45784 0.85614 0.0
C1506 C 0.42266 0.43944 0.89138 0.0
C1507 C 0.42202 0.45144 0.85839 0.0
C1508 C 0.40132 0.42697 0.91584 0.0
C1509 C 0.41122 0.40849 0.9301 0.0
N1510 N 0.41532 0.44255 0.87564 0.0
N1511 N 0.41913 0.41955 0.91605 0.0
H1512 H 0.60928 0.99582 0.95731 0.0
H1513 H 0.53833 0.95766 0.87703 0.0
H1514 H 0.568 0.96001 0.97677 0.0
H1515 H 0.58018 0.99147 0.8559 0.0
H1516 H 0.54891 0.95888 0.91403 0.0
H1517 H 0.59871 0.9949 0.92039 0.0
C1518 C 0.59801 0.98775 0.95385 0.0
C1519 C 0.58953 0.97797 0.97023 0.0
C1520 C 0.55578 0.96605 0.90132 0.0
C1521 C 0.57735 0.9769 0.92796 0.0
C1522 C 0.54975 0.96532 0.88014 0.0
C1523 C 0.55837 0.97446 0.86328 0.0
C1524 C 0.57055 0.976 0.90573 0.0
C1525 C 0.57307 0.98434 0.86843 0.0
C1526 C 0.59197 0.98724 0.93275 0.0
C1527 C 0.57497 0.96777 0.96472 0.0
N1528 N 0.57869 0.98483 0.88917 0.0
N1529 N 0.56936 0.96751 0.94409 0.0
H1530 H 0.6069 0.02465 0.06233 0.0
H1531 H 0.54502 0.98502 0.15142 0.0
H1532 H 0.58306 0.97779 0.07131 0.0
H1533 H 0.57643 0.03141 0.15412 0.0
H1534 H 0.55509 0.9826 0.11635 0.0
H1535 H 0.59189 0.02755 0.0901 0.0
C1536 C 0.59835 0.01494 0.06982 0.0
C1537 C 0.59634 0.00096 0.06467 0.0
C1538 C 0.55966 0.99334 0.12451 0.0
C1539 C 0.5792 0.00422 0.09642 0.0
C1540 C 0.55397 0.99472 0.14458 0.0
C1541 C 0.56005 0.00839 0.15596 0.0
C1542 C 0.5715 0.00572 0.1157 0.0
C1543 C 0.57137 0.02065 0.14595 0.0
C1544 C 0.58983 0.01662 0.08573 0.0
C1545 C 0.58509 0.98878 0.07487 0.0
N1546 N 0.57684 0.01899 0.12651 0.0
N1547 N 0.57702 0.99071 0.09039 0.0
H1548 H 0.97427 0.60193 0.08046 0.0
H1549 H 0.02176 0.57074 0.13634 0.0
H1550 H 0.02058 0.62189 0.07463 0.0
H1551 H 0.9804 0.56165 0.16128 0.0
H1552 H 0.01952 0.58568 0.10751 0.0
H1553 H 0.97453 0.58328 0.10424 0.0
C1554 C 0.98446 0.6023 0.08391 0.0
C1555 C 0.99744 0.61354 0.07553 0.0
C1556 C 0.01089 0.58031 0.1192 0.0
C1557 C 0.99777 0.59224 0.10252 0.0
C1558 C 0.01218 0.57182 0.13574 0.0
C1559 C 0.00135 0.56507 0.15154 0.0
C1560 C 0.99865 0.58199 0.11827 0.0
C1561 C 0.98899 0.56656 0.14945 0.0
C1562 C 0.98459 0.59169 0.09753 0.0
C1563 C 0.01031 0.6135 0.08063 0.0
N1564 N 0.98802 0.57494 0.13322 0.0
N1565 N 0.01015 0.60304 0.09378 0.0
H1566 H 0.42738 0.39125 0.02548 0.0
H1567 H 0.4182 0.42362 0.14184 0.0
H1568 H 0.38895 0.39312 0.04119 0.0
H1569 H 0.45002 0.41036 0.13154 0.0
H1570 H 0.40876 0.41514 0.1036 0.0
H1571 H 0.43717 0.40077 0.06302 0.0
C1572 C 0.421 0.39369 0.03679 0.0
C1573 C 0.40729 0.39134 0.03013 0.0
C1574 C 0.41781 0.41411 0.10972 0.0
C1575 C 0.41852 0.40232 0.07321 0.0
C1576 C 0.42327 0.41903 0.13145 0.0
C1577 C 0.43488 0.41765 0.13985 0.0
C1578 C 0.42414 0.40791 0.09623 0.0
C1579 C 0.44095 0.41149 0.12579 0.0
C1580 C 0.42659 0.39909 0.05826 0.0
C1581 C 0.39953 0.39468 0.0456 0.0
N1582 N 0.43553 0.40688 0.10466 0.0
N1583 N 0.40527 0.40005 0.06641 0.0
H1584 H 0.64177 0.71799 0.37274 0.0
H1585 H 0.69006 0.75562 0.48387 0.0
H1586 H 0.67965 0.71515 0.39098 0.0
H1587 H 0.65332 0.75992 0.46376 0.0
H1588 H 0.68568 0.73969 0.45105 0.0
H1589 H 0.64495 0.73198 0.40726 0.0
C1590 C 0.65072 0.72022 0.38404 0.0
C1591 C 0.66051 0.71542 0.37881 0.0
C1592 C 0.67855 0.74408 0.45384 0.0
C1593 C 0.66423 0.73157 0.41849 0.0
C1594 C 0.6811 0.75327 0.47251 0.0
C1595 C 0.67211 0.75922 0.47652 0.0
C1596 C 0.66692 0.7408 0.43901 0.0
C1597 C 0.66047 0.7555 0.46146 0.0
C1598 C 0.65253 0.72825 0.40378 0.0
C1599 C 0.67185 0.71864 0.39423 0.0
N1600 N 0.65825 0.74659 0.44334 0.0
N1601 N 0.67344 0.72657 0.41331 0.0
H1602 H 0.28017 0.92179 0.40953 0.0
H1603 H 0.22384 0.89849 0.50795 0.0
H1604 H 0.26276 0.94846 0.43403 0.0
H1605 H 0.24461 0.87403 0.48804 0.0
H1606 H 0.23507 0.91491 0.47706 0.0
H1607 H 0.26438 0.90235 0.43429 0.0
C1608 C 0.27291 0.9235 0.41993 0.0
C1609 C 0.27288 0.93683 0.41985 0.0
C1610 C 0.23707 0.90587 0.47931 0.0
C1611 C 0.25484 0.91464 0.44834 0.0
C1612 C 0.23057 0.89641 0.49685 0.0
C1613 C 0.23336 0.88491 0.50068 0.0
C1614 C 0.24645 0.90384 0.46547 0.0
C1615 C 0.24235 0.88289 0.48592 0.0
C1616 C 0.26391 0.9124 0.4341 0.0
C1617 C 0.26319 0.9384 0.4336 0.0
N1618 N 0.24864 0.89232 0.46906 0.0
N1619 N 0.25464 0.92748 0.44743 0.0
H1620 H 0.04812 0.31213 0.37831 0.0
H1621 H 0.09857 0.34667 0.48727 0.0
H1622 H 0.08543 0.35584 0.38063 0.0
H1623 H 0.07574 0.29997 0.47204 0.0
H1624 H 0.09109 0.35073 0.45066 0.0
H1625 H 0.05515 0.30805 0.41549 0.0
C1626 C 0.05773 0.3209 0.38669 0.0
C1627 C 0.06624 0.33434 0.37633 0.0
C1628 C 0.08776 0.33961 0.45539 0.0
C1629 C 0.07423 0.32975 0.41882 0.0
C1630 C 0.09211 0.33725 0.47625 0.0
C1631 C 0.08792 0.32293 0.48286 0.0
C1632 C 0.07893 0.32758 0.4411 0.0
C1633 C 0.07911 0.31119 0.46793 0.0
C1634 C 0.06176 0.31852 0.40781 0.0
C1635 C 0.07861 0.34528 0.38793 0.0
N1636 N 0.07487 0.31377 0.4478 0.0
N1637 N 0.0822 0.34278 0.40861 0.0
H1638 H 0.08163 0.3396 0.28245 0.0
H1639 H 0.08054 0.29221 0.18095 0.0
H1640 H 0.04773 0.2944 0.27307 0.0
H1641 H 0.1213 0.32508 0.21167 0.0
H1642 H 0.06829 0.29284 0.21435 0.0
H1643 H 0.0965 0.33503 0.25652 0.0
C1644 C 0.07739 0.32868 0.2752 0.0
C1645 C 0.06336 0.31741 0.27973 0.0
C1646 C 0.07995 0.29975 0.21388 0.0
C1647 C 0.0802 0.31219 0.24987 0.0
C1648 C 0.08703 0.29934 0.19481 0.0
C1649 C 0.10206 0.30873 0.19318 0.0
C1650 C 0.08783 0.30984 0.23132 0.0
C1651 C 0.10968 0.31795 0.21175 0.0
C1652 C 0.08591 0.32606 0.26048 0.0
C1653 C 0.05846 0.30342 0.26996 0.0
N1654 N 0.10244 0.31848 0.22987 0.0
N1655 N 0.06676 0.30128 0.25513 0.0
H1656 H 0.70087 0.74076 0.29397 0.0
H1657 H 0.66405 0.76486 0.19902 0.0
H1658 H 0.65557 0.71569 0.27425 0.0
H1659 H 0.70991 0.78806 0.21522 0.0
H1660 H 0.66016 0.74876 0.23019 0.0
H1661 H 0.70375 0.76003 0.26887 0.0
C1662 C 0.69149 0.73937 0.28454 0.0
C1663 C 0.67798 0.72653 0.28608 0.0
C1664 C 0.67106 0.75746 0.22707 0.0
C1665 C 0.68123 0.74853 0.25719 0.0
C1666 C 0.67328 0.76673 0.20936 0.0
C1667 C 0.68735 0.77777 0.20439 0.0
C1668 C 0.68299 0.7592 0.23992 0.0
C1669 C 0.69891 0.77954 0.21821 0.0
C1670 C 0.69315 0.75038 0.27018 0.0
C1671 C 0.6662 0.72537 0.27354 0.0
N1672 N 0.69649 0.77029 0.23524 0.0
N1673 N 0.66812 0.73618 0.25948 0.0
H1674 H 0.28615 0.95725 0.31389 0.0
H1675 H 0.21495 0.91895 0.2344 0.0
H1676 H 0.24397 0.94774 0.33551 0.0
H1677 H 0.25822 0.93453 0.21117 0.0
H1678 H 0.22514 0.92867 0.27183 0.0
H1679 H 0.27584 0.94801 0.2765 0.0
C1680 C 0.27471 0.95322 0.31081 0.0
C1681 C 0.26592 0.95329 0.32794 0.0
C1682 C 0.23239 0.92996 0.25852 0.0
C1683 C 0.25402 0.94264 0.28503 0.0
C1684 C 0.22659 0.92448 0.23711 0.0
C1685 C 0.23573 0.92586 0.21957 0.0
C1686 C 0.24744 0.93685 0.26247 0.0
C1687 C 0.25072 0.93296 0.22421 0.0
C1688 C 0.26883 0.94796 0.2894 0.0
C1689 C 0.25118 0.94794 0.32286 0.0
N1690 N 0.25609 0.93815 0.24518 0.0
N1691 N 0.24569 0.9428 0.30188 0.0
H1692 H 0.66947 0.96192 0.29829 0.0
H1693 H 0.68509 0.90439 0.23335 0.0
H1694 H 0.68777 0.93804 0.32993 0.0
H1695 H 0.68152 0.93844 0.19971 0.0
H1696 H 0.68246 0.91424 0.26913 0.0
H1697 H 0.67021 0.95102 0.26207 0.0
C1698 C 0.67354 0.95432 0.29765 0.0
C1699 C 0.67864 0.95095 0.31714 0.0
C1700 C 0.68225 0.91956 0.25392 0.0
C1701 C 0.67943 0.93844 0.27595 0.0
C1702 C 0.68368 0.9139 0.23351 0.0
C1703 C 0.68358 0.92065 0.21358 0.0
C1704 C 0.68052 0.93196 0.25442 0.0
C1705 C 0.68182 0.93302 0.21475 0.0
C1706 C 0.67402 0.94818 0.277 0.0
C1707 C 0.68384 0.94107 0.31533 0.0
N1708 N 0.68031 0.93826 0.23484 0.0
N1709 N 0.68407 0.93515 0.29514 0.0
H1710 H 0.07607 0.72821 0.28452 0.0
H1711 H 0.08383 0.77664 0.17992 0.0
H1712 H 0.0427 0.73761 0.26385 0.0
H1713 H 0.11921 0.77333 0.20966 0.0
H1714 H 0.06908 0.76412 0.2119 0.0
H1715 H 0.09252 0.74624 0.25877 0.0
C1716 C 0.07221 0.7341 0.27455 0.0
C1717 C 0.05794 0.7312 0.27592 0.0
C1718 C 0.08013 0.7663 0.21154 0.0
C1719 C 0.0767 0.75191 0.2463 0.0
C1720 C 0.08857 0.77348 0.19333 0.0
C1721 C 0.10269 0.77581 0.19195 0.0
C1722 C 0.08585 0.76137 0.22839 0.0
C1723 C 0.10825 0.77143 0.20975 0.0
C1724 C 0.08165 0.7445 0.25994 0.0
C1725 C 0.05364 0.7395 0.26314 0.0
N1726 N 0.09978 0.76429 0.22708 0.0
N1727 N 0.06292 0.74933 0.24854 0.0
H1728 H 0.2486 0.31068 0.30761 0.0
H1729 H 0.25492 0.36913 0.22006 0.0
H1730 H 0.28306 0.35592 0.31181 0.0
H1731 H 0.23756 0.32338 0.20107 0.0
H1732 H 0.26243 0.36446 0.25624 0.0
H1733 H 0.24141 0.31509 0.27074 0.0
C1734 C 0.25465 0.32152 0.30077 0.0
C1735 C 0.26646 0.33295 0.31275 0.0
C1736 C 0.25698 0.35548 0.24408 0.0
C1737 C 0.25815 0.33808 0.27092 0.0
C1738 C 0.25274 0.35812 0.22334 0.0
C1739 C 0.24562 0.34666 0.20725 0.0
C1740 C 0.25386 0.34122 0.24903 0.0
C1741 C 0.24277 0.33254 0.21293 0.0
C1742 C 0.25057 0.32401 0.27976 0.0
C1743 C 0.27394 0.34678 0.30309 0.0
N1744 N 0.24684 0.33022 0.23338 0.0
N1745 N 0.26958 0.349 0.28281 0.0
H1746 H 0.25259 0.32565 0.40881 0.0
H1747 H 0.24691 0.37716 0.50082 0.0
H1748 H 0.282 0.37246 0.41329 0.0
H1749 H 0.21384 0.33202 0.48768 0.0
H1750 H 0.25833 0.37666 0.466 0.0
H1751 H 0.23678 0.32852 0.43464 0.0
C1752 C 0.25564 0.33657 0.41498 0.0
C1753 C 0.26873 0.3488 0.40908 0.0
C1754 C 0.24844 0.36694 0.47055 0.0
C1755 C 0.25075 0.35217 0.43906 0.0
C1756 C 0.24188 0.36725 0.49037 0.0
C1757 C 0.22957 0.35453 0.49734 0.0
C1758 C 0.24268 0.35379 0.45775 0.0
C1759 C 0.22354 0.34197 0.4832 0.0
C1760 C 0.24658 0.33822 0.42976 0.0
C1761 C 0.27204 0.36271 0.41752 0.0
N1762 N 0.23027 0.34185 0.46426 0.0
N1763 N 0.26323 0.364 0.4324 0.0
H1764 H 0.68107 0.94912 0.41883 0.0
H1765 H 0.62264 0.88315 0.48885 0.0
H1766 H 0.63503 0.9292 0.40565 0.0
H1767 H 0.66829 0.89738 0.49135 0.0
H1768 H 0.62668 0.89908 0.45731 0.0
H1769 H 0.67647 0.92964 0.44447 0.0
C1770 C 0.66999 0.94056 0.42108 0.0
C1771 C 0.65842 0.94083 0.41005 0.0
C1772 C 0.63578 0.8986 0.46463 0.0
C1773 C 0.65305 0.91855 0.43981 0.0
C1774 C 0.63347 0.88944 0.48258 0.0
C1775 C 0.64517 0.88904 0.49298 0.0
C1776 C 0.6499 0.90749 0.45711 0.0
C1777 C 0.659 0.89758 0.48423 0.0
C1778 C 0.66737 0.92942 0.4358 0.0
C1779 C 0.64428 0.92944 0.41382 0.0
N1780 N 0.66099 0.90655 0.46698 0.0
N1781 N 0.64198 0.91884 0.42857 0.0
H1782 H 0.08915 0.72423 0.35981 0.0
H1783 H 0.07671 0.74324 0.48445 0.0
H1784 H 0.0478 0.71656 0.38271 0.0
H1785 H 0.11789 0.75091 0.46092 0.0
H1786 H 0.06608 0.73426 0.44706 0.0
H1787 H 0.09991 0.73464 0.39651 0.0
C1788 C 0.0823 0.72474 0.37253 0.0
C1789 C 0.0675 0.71944 0.36811 0.0
C1790 C 0.07745 0.73795 0.45005 0.0
C1791 C 0.07985 0.73142 0.41035 0.0
C1792 C 0.08357 0.74318 0.47137 0.0
C1793 C 0.09824 0.74784 0.47586 0.0
C1794 C 0.08606 0.73736 0.43304 0.0
C1795 C 0.1065 0.74725 0.45832 0.0
C1796 C 0.08849 0.73071 0.39353 0.0
C1797 C 0.05924 0.72047 0.38532 0.0
N1798 N 0.1003 0.74209 0.43772 0.0
N1799 N 0.06552 0.72631 0.4057 0.0
H1800 H 0.34191 0.05262 0.72294 0.0
H1801 H 0.29434 0.06056 0.81751 0.0
H1802 H 0.29669 0.03893 0.71251 0.0
H1803 H 0.34062 0.08962 0.81457 0.0
H1804 H 0.29481 0.04929 0.78179 0.0
H1805 H 0.34139 0.06279 0.75984 0.0
C1806 C 0.33186 0.05165 0.72847 0.0
C1807 C 0.31934 0.04499 0.71459 0.0
C1808 C 0.30485 0.05812 0.78905 0.0
C1809 C 0.31866 0.05647 0.75671 0.0
C1810 C 0.30459 0.06465 0.80939 0.0
C1811 C 0.31745 0.07615 0.8192 0.0
C1812 C 0.31806 0.06294 0.77852 0.0
C1813 C 0.33045 0.08066 0.80799 0.0
C1814 C 0.33159 0.05752 0.74944 0.0
C1815 C 0.30662 0.04408 0.72258 0.0
N1816 N 0.33042 0.07402 0.78831 0.0
N1817 N 0.30659 0.04972 0.74313 0.0
H1818 H 0.92259 0.27567 0.75352 0.0
H1819 H 0.91859 0.21323 0.82991 0.0
H1820 H 0.95182 0.25875 0.74657 0.0
H1821 H 0.88381 0.22272 0.82239 0.0
H1822 H 0.93027 0.22847 0.7978 0.0
H1823 H 0.90765 0.25537 0.77735 0.0
C1824 C 0.9258 0.26761 0.75678 0.0
C1825 C 0.93854 0.26899 0.74814 0.0
C1826 C 0.91997 0.22702 0.80299 0.0
C1827 C 0.92155 0.24574 0.7758 0.0
C1828 C 0.91328 0.21828 0.82125 0.0
C1829 C 0.90036 0.21694 0.82908 0.0
C1830 C 0.91372 0.23453 0.79268 0.0
C1831 C 0.89396 0.22377 0.81727 0.0
C1832 C 0.91723 0.25596 0.7704 0.0
C1833 C 0.9421 0.25813 0.75294 0.0
N1834 N 0.9008 0.23242 0.79989 0.0
N1835 N 0.93376 0.24706 0.76674 0.0
H1836 H 0.72835 0.67164 0.72757 0.0
H1837 H 0.79914 0.71209 0.80797 0.0
H1838 H 0.77076 0.70354 0.70536 0.0
H1839 H 0.75701 0.67983 0.83048 0.0
H1840 H 0.78897 0.70863 0.77004 0.0
H1841 H 0.73869 0.67394 0.76516 0.0
C1842 C 0.73983 0.6791 0.73054 0.0
C1843 C 0.74867 0.68744 0.71322 0.0
C1844 C 0.78195 0.70226 0.78325 0.0
C1845 C 0.76058 0.69013 0.75627 0.0
C1846 C 0.78774 0.70429 0.80494 0.0
C1847 C 0.77892 0.69627 0.82246 0.0
C1848 C 0.76718 0.69217 0.779 0.0
C1849 C 0.76426 0.68614 0.81746 0.0
C1850 C 0.74573 0.6804 0.75203 0.0
C1851 C 0.76349 0.6969 0.71813 0.0
N1852 N 0.75884 0.68443 0.79623 0.0
N1853 N 0.76895 0.698 0.73917 0.0
H1854 H 0.75119 0.68271 0.60916 0.0
H1855 H 0.75287 0.61733 0.54234 0.0
H1856 H 0.72503 0.63713 0.62585 0.0
H1857 H 0.77709 0.66298 0.52505 0.0
H1858 H 0.7451 0.62448 0.57617 0.0
H1859 H 0.76357 0.67584 0.58197 0.0
C1860 C 0.74818 0.67127 0.60738 0.0
C1861 C 0.73696 0.66047 0.61971 0.0
C1862 C 0.75226 0.63293 0.56509 0.0
C1863 C 0.75097 0.65246 0.58818 0.0
C1864 C 0.75664 0.62885 0.54572 0.0
C1865 C 0.76557 0.63955 0.5307 0.0
C1866 C 0.75679 0.6478 0.56943 0.0
C1867 C 0.77033 0.65434 0.53617 0.0
C1868 C 0.75524 0.66733 0.59174 0.0
C1869 C 0.73356 0.64581 0.6166 0.0
N1870 N 0.76578 0.658 0.55495 0.0
N1871 N 0.74042 0.6422 0.60094 0.0
H1872 H 0.3174 0.05098 0.61064 0.0
H1873 H 0.37338 0.12634 0.55518 0.0
H1874 H 0.36278 0.07608 0.62982 0.0
H1875 H 0.32776 0.1017 0.53744 0.0
H1876 H 0.36926 0.1095 0.58546 0.0
H1877 H 0.32046 0.07087 0.58682 0.0
C1878 C 0.32797 0.06075 0.61009 0.0
C1879 C 0.33987 0.06181 0.62214 0.0
C1880 C 0.36012 0.10787 0.57511 0.0
C1881 C 0.34351 0.08459 0.59464 0.0
C1882 C 0.36248 0.11746 0.55778 0.0
C1883 C 0.35092 0.11536 0.54363 0.0
C1884 C 0.34611 0.09602 0.57824 0.0
C1885 C 0.33698 0.1038 0.548 0.0
C1886 C 0.32973 0.07211 0.59642 0.0
C1887 C 0.35332 0.07475 0.62071 0.0
N1888 N 0.335 0.09449 0.56475 0.0
N1889 N 0.3548 0.08557 0.60704 0.0
H1890 H 0.90764 0.2783 0.6644 0.0
H1891 H 0.92571 0.2698 0.53786 0.0
H1892 H 0.95072 0.29146 0.64241 0.0
H1893 H 0.88217 0.25111 0.56162 0.0
H1894 H 0.93514 0.27916 0.57561 0.0
H1895 H 0.89823 0.26964 0.62642 0.0
C1896 C 0.91514 0.27939 0.65161 0.0
C1897 C 0.93002 0.28562 0.65668 0.0
C1898 C 0.92352 0.27303 0.57257 0.0
C1899 C 0.91926 0.27573 0.61305 0.0
C1900 C 0.91812 0.26761 0.55102 0.0
C1901 C 0.9031 0.25955 0.54654 0.0
C1902 C 0.91387 0.27043 0.58984 0.0
C1903 C 0.89382 0.25737 0.56422 0.0
C1904 C 0.90974 0.27442 0.62991 0.0
C1905 C 0.93917 0.28671 0.63934 0.0
N1906 N 0.89935 0.26274 0.58509 0.0
N1907 N 0.93365 0.28183 0.61832 0.0
H1908 H 0.37627 0.30375 0.64585 0.0
H1909 H 0.32967 0.25559 0.53909 0.0
H1910 H 0.33191 0.29263 0.63295 0.0
H1911 H 0.37578 0.27334 0.54766 0.0
H1912 H 0.32984 0.26813 0.57401 0.0
H1913 H 0.37588 0.29188 0.61045 0.0
C1914 C 0.36642 0.29883 0.63557 0.0
C1915 C 0.35408 0.29917 0.64249 0.0
C1916 C 0.33992 0.2693 0.56821 0.0
C1917 C 0.35357 0.28546 0.60173 0.0
C1918 C 0.33982 0.26207 0.54837 0.0
C1919 C 0.35273 0.2634 0.54047 0.0
C1920 C 0.35301 0.27784 0.58033 0.0
C1921 C 0.3656 0.27212 0.553 0.0
C1922 C 0.36623 0.29207 0.61528 0.0
C1923 C 0.34168 0.29266 0.6283 0.0
N1924 N 0.36539 0.27895 0.57233 0.0
N1925 N 0.34172 0.28599 0.60864 0.0
H1926 H 0.72252 0.07092 0.60816 0.0
H1927 H 0.77782 0.07603 0.51637 0.0
H1928 H 0.73423 0.03757 0.59691 0.0
H1929 H 0.77471 0.11365 0.53848 0.0
H1930 H 0.76166 0.06179 0.54571 0.0
H1931 H 0.74132 0.08681 0.58257 0.0
C1932 C 0.72912 0.06699 0.60046 0.0
C1933 C 0.72678 0.05289 0.60461 0.0
C1934 C 0.76459 0.07319 0.54426 0.0
C1935 C 0.74815 0.07091 0.57525 0.0
C1936 C 0.77391 0.08138 0.52755 0.0
C1937 C 0.77768 0.0961 0.52487 0.0
C1938 C 0.75881 0.07967 0.55832 0.0
C1939 C 0.77194 0.10228 0.53964 0.0
C1940 C 0.73984 0.07607 0.58589 0.0
C1941 C 0.73565 0.04836 0.59423 0.0
N1942 N 0.76272 0.094 0.55564 0.0
N1943 N 0.74585 0.05729 0.5799 0.0
H1944 H 0.94481 0.67872 0.63439 0.0
H1945 H 0.87333 0.63553 0.55608 0.0
H1946 H 0.90252 0.64805 0.65854 0.0
H1947 H 0.91544 0.66601 0.5313 0.0
H1948 H 0.8837 0.64104 0.59406 0.0
H1949 H 0.93407 0.67542 0.59684 0.0
C1950 C 0.93326 0.67137 0.63187 0.0
C1951 C 0.92459 0.66358 0.64969 0.0
C1952 C 0.89067 0.64658 0.58033 0.0
C1953 C 0.91225 0.65972 0.6067 0.0
C1954 C 0.88476 0.64338 0.55863 0.0
C1955 C 0.89354 0.65026 0.54046 0.0
C1956 C 0.90548 0.6567 0.58395 0.0
C1957 C 0.90824 0.66053 0.54482 0.0
C1958 C 0.92714 0.66948 0.6104 0.0
C1959 C 0.90968 0.65424 0.64535 0.0
N1960 N 0.91376 0.66338 0.5661 0.0
N1961 N 0.90402 0.65252 0.62432 0.0
H1962 H 0.92249 0.66651 0.75201 0.0
H1963 H 0.92141 0.72785 0.83066 0.0
H1964 H 0.94998 0.71295 0.74218 0.0
H1965 H 0.89579 0.68109 0.83992 0.0
H1966 H 0.92979 0.72295 0.79545 0.0
H1967 H 0.91008 0.67197 0.78082 0.0
C1968 C 0.9258 0.67788 0.75564 0.0
C1969 C 0.93738 0.68928 0.74471 0.0
C1970 C 0.9222 0.71379 0.8051 0.0
C1971 C 0.92334 0.69568 0.77828 0.0
C1972 C 0.91747 0.71657 0.82525 0.0
C1973 C 0.90793 0.70487 0.83839 0.0
C1974 C 0.91738 0.69921 0.79809 0.0
C1975 C 0.903 0.69048 0.83032 0.0
C1976 C 0.91872 0.68101 0.77225 0.0
C1977 C 0.94114 0.70382 0.75026 0.0
N1978 N 0.90786 0.68808 0.81083 0.0
N1979 N 0.93426 0.70662 0.7669 0.0
H1980 H 0.31884 0.26976 0.73114 0.0
H1981 H 0.37035 0.26104 0.82048 0.0
H1982 H 0.36293 0.30321 0.74764 0.0
H1983 H 0.32795 0.22526 0.80066 0.0
H1984 H 0.36784 0.27618 0.79264 0.0
H1985 H 0.32186 0.25288 0.75546 0.0
C1986 C 0.32918 0.27352 0.73971 0.0
C1987 C 0.34066 0.28791 0.73732 0.0
C1988 C 0.3591 0.26499 0.79422 0.0
C1989 C 0.34416 0.26875 0.76517 0.0
C1990 C 0.36057 0.25626 0.81005 0.0
C1991 C 0.34937 0.24178 0.81292 0.0
C1992 C 0.34626 0.25932 0.78117 0.0
C1993 C 0.3368 0.2364 0.79923 0.0
C1994 C 0.3309 0.26388 0.75357 0.0
C1995 C 0.35381 0.2922 0.74882 0.0
N1996 N 0.33556 0.24519 0.784 0.0
N1997 N 0.35516 0.2827 0.76229 0.0
H1998 H 0.74507 0.04176 0.70813 0.0
H1999 H 0.74622 0.10334 0.78859 0.0
H2000 H 0.71397 0.05646 0.70163 0.0
H2001 H 0.76205 0.07478 0.81023 0.0
H2002 H 0.73726 0.08881 0.75379 0.0
H2003 H 0.75443 0.05644 0.74298 0.0
C2004 C 0.74022 0.04807 0.71402 0.0
C2005 C 0.72869 0.04785 0.702 0.0
C2006 C 0.74271 0.08577 0.7662 0.0
C2007 C 0.73947 0.06476 0.74156 0.0
C2008 C 0.74779 0.09401 0.78616 0.0
C2009 C 0.75487 0.0903 0.80259 0.0
C2010 C 0.74491 0.07384 0.76241 0.0
C2011 C 0.75688 0.07827 0.79804 0.0
C2012 C 0.74554 0.05639 0.7339 0.0
C2013 C 0.7228 0.05622 0.71043 0.0
N2014 N 0.75196 0.0705 0.77837 0.0
N2015 N 0.72832 0.06441 0.72961 0.0
H2016 H 0.03166 0.3509 0.04286 0.0
H2017 H 0.0883 0.32288 0.02412 0.0
H2018 H 0.03871 0.33636 0.9789 0.0
H2019 H 0.08081 0.33673 0.08831 0.0
H2020 H 0.06998 0.32755 0.00728 0.0
H2021 H 0.04951 0.34561 0.05993 0.0
C2022 C 0.03693 0.34656 0.03242 0.0
C2023 C 0.03369 0.34409 0.00941 0.0
C2024 C 0.07236 0.32958 0.02505 0.0
C2025 C 0.05416 0.33804 0.0288 0.0
C2026 C 0.08278 0.32686 0.03468 0.0
C2027 C 0.08617 0.32948 0.05765 0.0
C2028 C 0.06522 0.33493 0.03848 0.0
C2029 C 0.07875 0.33479 0.07047 0.0
C2030 C 0.04713 0.34355 0.04216 0.0
C2031 C 0.04086 0.33846 0.99669 0.0
N2032 N 0.06865 0.33733 0.06072 0.0
N2033 N 0.05076 0.33565 0.00655 0.0
H2034 H 0.61722 0.67646 0.05467 0.0
H2035 H 0.68808 0.7544 0.06516 0.0
H2036 H 0.65986 0.6839 0.04005 0.0
H2037 H 0.64517 0.74907 0.06323 0.0
H2038 H 0.67778 0.72894 0.05277 0.0
H2039 H 0.62684 0.70301 0.0551 0.0
C2040 C 0.62855 0.68363 0.05126 0.0
C2041 C 0.63778 0.6779 0.04766 0.0
C2042 C 0.67062 0.73338 0.05473 0.0
C2043 C 0.64887 0.70832 0.04831 0.0
C2044 C 0.67652 0.74803 0.06166 0.0
C2045 C 0.6675 0.75399 0.06555 0.0
C2046 C 0.65554 0.72444 0.05198 0.0
C2047 C 0.65255 0.74492 0.06105 0.0
C2048 C 0.63403 0.69881 0.05148 0.0
C2049 C 0.65234 0.68777 0.04316 0.0
N2050 N 0.64701 0.73055 0.05485 0.0
N2051 N 0.65747 0.70248 0.04393 0.0
H2052 H 0.33675 0.95147 0.04318 0.0
H2053 H 0.25843 0.94356 0.05454 0.0
H2054 H 0.32383 0.97966 0.01075 0.0
H2055 H 0.27345 0.91949 0.09386 0.0
H2056 H 0.28184 0.9559 0.03656 0.0
H2057 H 0.31303 0.93852 0.06016 0.0
C2058 C 0.32894 0.95493 0.03961 0.0
C2059 C 0.3323 0.96668 0.02555 0.0
C2060 C 0.27999 0.94788 0.04909 0.0
C2061 C 0.30513 0.9519 0.04487 0.0
C2062 C 0.26664 0.94088 0.05941 0.0
C2063 C 0.26394 0.93045 0.07572 0.0
C2064 C 0.29072 0.94444 0.05509 0.0
C2065 C 0.27494 0.92727 0.08113 0.0
C2066 C 0.3154 0.94754 0.04932 0.0
C2067 C 0.32174 0.97069 0.02152 0.0
N2068 N 0.28783 0.93425 0.07086 0.0
N2069 N 0.30864 0.9633 0.03112 0.0
H2070 H 0.35527 0.02989 0.00859 0.0
H2071 H 0.36633 0.10055 0.9485 0.0
H2072 H 0.39605 0.06244 0.98223 0.0
H2073 H 0.32839 0.07319 0.98632 0.0
H2074 H 0.37848 0.08868 0.96532 0.0
H2075 H 0.34634 0.04711 0.0053 0.0
C2076 C 0.36245 0.04074 0.00246 0.0
C2077 C 0.37634 0.0446 0.99522 0.0
C2078 C 0.36758 0.08541 0.97025 0.0
C2079 C 0.3661 0.06431 0.9912 0.0
C2080 C 0.36061 0.0923 0.96075 0.0
C2081 C 0.34617 0.08779 0.96572 0.0
C2082 C 0.36002 0.0737 0.98457 0.0
C2083 C 0.33937 0.07678 0.98147 0.0
C2084 C 0.35734 0.05059 0.00061 0.0
C2085 C 0.3852 0.05889 0.98773 0.0
N2086 N 0.34627 0.06995 0.99004 0.0
N2087 N 0.37984 0.06812 0.98553 0.0
H2088 H 0.97649 0.30866 0.99162 0.0
H2089 H 0.89449 0.24271 0.98841 0.0
H2090 H 0.93985 0.31559 0.99047 0.0
H2091 H 0.92988 0.23997 0.95913 0.0
H2092 H 0.91152 0.26823 -0.00018 0.0
H2093 H 0.95978 0.28212 0.99075 0.0
C2094 C 0.96495 0.30462 0.99155 0.0
C2095 C 0.95956 0.31436 0.9908 0.0
C2096 C 0.9155 0.26188 0.99119 0.0
C2097 C 0.94043 0.28404 0.98997 0.0
C2098 C 0.90579 0.24732 0.98453 0.0
C2099 C 0.91059 0.23907 0.97239 0.0
C2100 C 0.93017 0.26817 0.98606 0.0
C2101 C 0.92553 0.24566 0.96859 0.0
C2102 C 0.95543 0.28948 0.99098 0.0
C2103 C 0.94447 0.30847 0.99074 0.0
N2104 N 0.93473 0.25981 0.97526 0.0
N2105 N 0.93542 0.29367 0.9902 0.0
H2106 H 0.6959 0.64051 0.0511 0.0
H2107 H 0.73827 0.6877 0.94636 0.0
H2108 H 0.67701 0.65562 0.00126 0.0
H2109 H 0.75669 0.67012 0.99276 0.0
H2110 H 0.71578 0.67604 0.96663 0.0
H2111 H 0.71822 0.65107 0.03012 0.0
C2112 C 0.69642 0.64599 0.03571 0.0
C2113 C 0.68458 0.64722 0.02797 0.0
C2114 C 0.72472 0.6747 0.97241 0.0
C2115 C 0.71009 0.65937 0.00396 0.0
C2116 C 0.73761 0.68146 0.96093 0.0
C2117 C 0.74942 0.67997 0.96799 0.0
C2118 C 0.72359 0.66641 0.99117 0.0
C2119 C 0.74783 0.67148 0.98669 0.0
C2120 C 0.70917 0.65202 0.02375 0.0
C2121 C 0.68586 0.65442 0.00791 0.0
N2122 N 0.73516 0.66506 0.9977 0.0
N2123 N 0.6984 0.66027 0.99667 0.0
H2124 H 0.98056 0.6712 0.0008 0.0
H2125 H 0.90177 0.66165 0.98203 0.0
H2126 H 0.94186 0.63475 0.02623 0.0
H2127 H 0.94164 0.70179 0.97049 0.0
H2128 H 0.91591 0.65069 0.99587 0.0
H2129 H 0.96607 0.68154 0.98671 0.0
C2130 C 0.969 0.66531 0.00332 0.0
C2131 C 0.96243 0.65209 0.01479 0.0
C2132 C 0.92154 0.66192 0.99041 0.0
C2133 C 0.94574 0.66393 0.99871 0.0
C2134 C 0.91349 0.66816 0.98247 0.0
C2135 C 0.92054 0.68268 0.9752 0.0
C2136 C 0.93675 0.6702 0.99083 0.0
C2137 C 0.93574 0.69064 0.97623 0.0
C2138 C 0.96073 0.67127 0.99535 0.0
C2139 C 0.94738 0.64499 0.01756 0.0
N2140 N 0.94333 0.68428 0.98378 0.0
N2141 N 0.93954 0.65099 0.00957 0.0
H2142 H 0.35399 0.3217 0.97801 0.0
H2143 H 0.34011 0.25458 0.93422 0.0
H2144 H 0.39849 0.33284 0.97004 0.0
H2145 H 0.38072 0.26407 0.9659 0.0
H2146 H 0.34381 0.27795 0.94858 0.0
H2147 H 0.3467 0.29567 0.97526 0.0
C2148 C 0.36226 0.31869 0.97588 0.0
C2149 C 0.37686 0.3295 0.97379 0.0
C2150 C 0.35172 0.27476 0.95297 0.0
C2151 C 0.36852 0.29973 0.97026 0.0
C2152 C 0.34961 0.26132 0.94475 0.0
C2153 C 0.36017 0.25727 0.94863 0.0
C2154 C 0.36457 0.28436 0.96498 0.0
C2155 C 0.37243 0.26682 0.96198 0.0
C2156 C 0.35805 0.30382 0.97411 0.0
C2157 C 0.38708 0.32491 0.97132 0.0
N2158 N 0.37443 0.28003 0.96927 0.0
N2159 N 0.38271 0.31037 0.96949 0.0
H2160 H 0.66128 0.01615 0.97495 0.0
H2161 H 0.73585 0.0926 0.9786 0.0
H2162 H 0.6782 0.04458 0.03378 0.0
H2163 H 0.72247 0.06089 0.92388 0.0
H2164 H 0.71484 0.07509 -0.00078 0.0
H2165 H 0.68358 0.03242 0.95586 0.0
C2166 C 0.66968 0.0258 0.98386 0.0
C2167 C 0.66785 0.02904 0.00596 0.0
C2168 C 0.71656 0.0719 0.98278 0.0
C2169 C 0.69339 0.04769 0.98423 0.0
C2170 C 0.72853 0.08191 0.971 0.0
C2171 C 0.73087 0.0782 0.94949 0.0
C2172 C 0.70678 0.05814 0.97288 0.0
C2173 C 0.72114 0.06414 0.94051 0.0
C2174 C 0.68244 0.03505 0.97298 0.0
C2175 C 0.67913 0.04166 0.01672 0.0
N2176 N 0.70944 0.05467 0.95216 0.0
N2177 N 0.69138 0.05056 0.00572 0.0
H2178 H 0.64575 0.96812 0.01624 0.0
H2179 H 0.63659 0.89402 0.06548 0.0
H2180 H 0.60496 0.93218 0.03709 0.0
H2181 H 0.67756 0.93396 0.05854 0.0
H2182 H 0.62449 0.90544 0.04623 0.0
H2183 H 0.65691 0.95306 0.02217 0.0
C2184 C 0.63905 0.95698 0.0217 0.0
C2185 C 0.62445 0.95154 0.02666 0.0
C2186 C 0.63615 0.91159 0.04864 0.0
C2187 C 0.63724 0.93428 0.03361 0.0
C2188 C 0.64307 0.90511 0.05973 0.0
C2189 C 0.65812 0.9131 0.06402 0.0
C2190 C 0.64433 0.92613 0.04172 0.0
C2191 C 0.66597 0.9273 0.0556 0.0
C2192 C 0.64547 0.9484 0.02514 0.0
C2193 C 0.61632 0.93694 0.03341 0.0
N2194 N 0.65897 0.9334 0.04511 0.0
N2195 N 0.62287 0.92889 0.03701 0.0
H2196 H 0.06136 0.68349 0.01776 0.0
H2197 H 0.11147 0.75731 0.0235 0.0
H2198 H 0.02894 0.69564 0.03034 0.0
H2199 H 0.07998 0.7588 0.06618 0.0
H2200 H 0.09252 0.7336 0.00799 0.0
H2201 H 0.07976 0.70939 0.01772 0.0
C2202 C 0.05806 0.69163 0.01998 0.0
C2203 C 0.04361 0.68738 0.02431 0.0
C2204 C 0.08976 0.73916 0.02068 0.0
C2205 C 0.06466 0.71718 0.02414 0.0
C2206 C 0.10056 0.75274 0.02947 0.0
C2207 C 0.09744 0.75995 0.0466 0.0
C2208 C 0.07575 0.7327 0.02917 0.0
C2209 C 0.08298 0.7537 0.0531 0.0
C2210 C 0.06858 0.70648 0.01974 0.0
C2211 C 0.03995 0.69841 0.027 0.0
N2212 N 0.07274 0.74036 0.0446 0.0
N2213 N 0.05047 0.71281 0.0274 0.0
H2214 H 0.31861 0.36514 0.96862 0.0
H2215 H 0.27887 0.34487 0.08548 0.0
H2216 H 0.33592 0.35532 0.02732 0.0
H2217 H 0.26538 0.36123 0.02988 0.0
H2218 H 0.29827 0.34588 0.0631 0.0
H2219 H 0.29758 0.3611 0.9896 0.0
C2220 C 0.31796 0.36206 0.9859 0.0
C2221 C 0.3291 0.36066 0.99627 0.0
C2222 C 0.29103 0.34918 0.05576 0.0
C2223 C 0.30502 0.35602 0.0204 0.0
C2224 C 0.27988 0.34851 0.06846 0.0
C2225 C 0.27051 0.35301 0.05953 0.0
C2226 C 0.2928 0.35434 0.03393 0.0
C2227 C 0.27247 0.35783 0.0375 0.0
C2228 C 0.30595 0.35978 0.99788 0.0
C2229 C 0.32763 0.3566 0.01869 0.0
N2230 N 0.28341 0.35839 0.02547 0.0
N2231 N 0.31583 0.35446 0.03003 0.0
H2232 H 0.70202 0.66324 0.31225 0.0
H2233 H 0.74676 0.66413 0.42149 0.0
H2234 H 0.70286 0.68495 0.37454 0.0
H2235 H 0.74473 0.6414 0.35966 0.0
H2236 H 0.73149 0.67266 0.40423 0.0
H2237 H 0.71818 0.65574 0.32911 0.0
C2238 C 0.7056 0.66644 0.3295 0.0
C2239 C 0.70105 0.67473 0.34201 0.0
C2240 C 0.73442 0.66585 0.39441 0.0
C2241 C 0.71964 0.66617 0.36145 0.0
C2242 C 0.74324 0.66106 0.40419 0.0
C2243 C 0.74708 0.65205 0.39199 0.0
C2244 C 0.72936 0.66161 0.37222 0.0
C2245 C 0.74193 0.6482 0.36977 0.0
C2246 C 0.71485 0.66215 0.33912 0.0
C2247 C 0.70607 0.67855 0.36428 0.0
N2248 N 0.73334 0.65299 0.36062 0.0
N2249 N 0.71509 0.67423 0.37329 0.0
H2250 H 0.32409 0.02028 0.37721 0.0
H2251 H 0.30929 0.08669 0.40026 0.0
H2252 H 0.28173 0.01446 0.38919 0.0
H2253 H 0.3515 0.09054 0.40582 0.0
H2254 H 0.29909 0.06109 0.38762 0.0
H2255 H 0.33417 0.04687 0.37893 0.0
C2256 C 0.31686 0.02456 0.37991 0.0
C2257 C 0.30205 0.01509 0.3834 0.0
C2258 C 0.31062 0.06762 0.39134 0.0
C2259 C 0.31357 0.04555 0.38539 0.0
C2260 C 0.31645 0.08223 0.39862 0.0
C2261 C 0.33126 0.09079 0.40448 0.0
C2262 C 0.31966 0.06152 0.38977 0.0
C2263 C 0.34005 0.08447 0.40144 0.0
C2264 C 0.32264 0.03976 0.38095 0.0
C2265 C 0.29323 0.02133 0.38671 0.0
N2266 N 0.33409 0.07019 0.39452 0.0
N2267 N 0.29915 0.03616 0.3878 0.0
H2268 H 0.00281 0.28028 0.37067 0.0
H2269 H 0.92361 0.27049 0.37927 0.0
H2270 H 0.9894 0.3076 0.33669 0.0
H2271 H 0.93983 0.249 0.42215 0.0
H2272 H 0.94695 0.28271 0.36108 0.0
H2273 H 0.979 0.26714 0.38734 0.0
C2274 C 0.99486 0.28351 0.36669 0.0
C2275 C 0.99811 0.29508 0.35231 0.0
C2276 C 0.94537 0.27527 0.37442 0.0
C2277 C 0.97085 0.28007 0.37125 0.0
C2278 C 0.93206 0.26833 0.38486 0.0
C2279 C 0.92972 0.25869 0.40228 0.0
C2280 C 0.95642 0.27254 0.38141 0.0
C2281 C 0.94102 0.25615 0.40857 0.0
C2282 C 0.98128 0.27602 0.37623 0.0
C2283 C 0.98739 0.29879 0.34775 0.0
N2284 N 0.95387 0.26304 0.39818 0.0
N2285 N 0.97423 0.29129 0.35717 0.0
H2286 H 0.06385 0.39065 0.30818 0.0
H2287 H 0.99644 0.40363 0.31756 0.0
H2288 H 0.02282 0.35932 0.33534 0.0
H2289 H 0.03277 0.42795 0.27513 0.0
H2290 H 0.00863 0.39105 0.33272 0.0
H2291 H 0.05522 0.40815 0.30508 0.0
C2292 C 0.05313 0.38752 0.31389 0.0
C2293 C 0.04394 0.37336 0.32162 0.0
C2294 C 0.014 0.39932 0.32034 0.0
C2295 C 0.03401 0.39335 0.31801 0.0
C2296 C 0.00703 0.40647 0.3116 0.0
C2297 C 0.01344 0.41672 0.29472 0.0
C2298 C 0.02751 0.40249 0.31225 0.0
C2299 C 0.02737 0.42021 0.28814 0.0
C2300 C 0.0482 0.39751 0.31202 0.0
C2301 C 0.03019 0.37001 0.32891 0.0
N2302 N 0.03385 0.41299 0.29672 0.0
N2303 N 0.02558 0.37986 0.32667 0.0
H2304 H 0.64574 0.64428 0.33273 0.0
H2305 H 0.5639 0.5782 0.32365 0.0
H2306 H 0.60941 0.65146 0.32516 0.0
H2307 H 0.6008 0.5756 0.3006 0.0
H2308 H 0.58027 0.60398 0.33462 0.0
H2309 H 0.62892 0.61784 0.33222 0.0
C2310 C 0.63422 0.64034 0.33131 0.0
C2311 C 0.62901 0.65014 0.32862 0.0
C2312 C 0.5847 0.5976 0.32746 0.0
C2313 C 0.60971 0.61984 0.32811 0.0
C2314 C 0.57538 0.58288 0.32103 0.0
C2315 C 0.58083 0.57453 0.31087 0.0
C2316 C 0.59961 0.60394 0.32411 0.0
C2317 C 0.59593 0.58128 0.30861 0.0
C2318 C 0.62464 0.62523 0.33095 0.0
C2319 C 0.61393 0.64432 0.32697 0.0
N2320 N 0.60473 0.59555 0.31507 0.0
N2321 N 0.6048 0.62952 0.32656 0.0
H2322 H 0.36175 0.00429 0.37298 0.0
H2323 H 0.38291 0.96263 0.28143 0.0
H2324 H 0.33057 0.9675 0.33173 0.0
H2325 H 0.41426 0.00414 0.31258 0.0
H2326 H 0.36377 0.9637 0.30152 0.0
H2327 H 0.3813 0.00419 0.35227 0.0
C2328 C 0.35901 0.99625 0.3595 0.0
C2329 C 0.3445 0.98585 0.35415 0.0
C2330 C 0.37483 0.97259 0.304 0.0
C2331 C 0.36679 0.9856 0.33058 0.0
C2332 C 0.38579 0.97191 0.29269 0.0
C2333 C 0.40022 0.98327 0.29546 0.0
C2334 C 0.37828 0.98468 0.31831 0.0
C2335 C 0.40326 0.99519 0.30991 0.0
C2336 C 0.37017 0.9962 0.3477 0.0
C2337 C 0.34159 0.97571 0.33649 0.0
N2338 N 0.39238 0.99556 0.32088 0.0
N2339 N 0.35263 0.97579 0.32546 0.0
H2340 H 0.61792 0.97818 0.37736 0.0
H2341 H 0.60129 0.01526 0.27401 0.0
H2342 H 0.64508 0.9937 0.32007 0.0
H2343 H 0.57168 0.99433 0.32725 0.0
H2344 H 0.61829 0.00905 0.29174 0.0
H2345 H 0.60162 0.98537 0.36015 0.0
C2346 C 0.62047 0.98311 0.36113 0.0
C2347 C 0.6329 0.98533 0.35013 0.0
C2348 C 0.60809 0.00585 0.29957 0.0
C2349 C 0.61422 0.99365 0.33031 0.0
C2350 C 0.59843 0.0095 0.28957 0.0
C2351 C 0.58504 0.00533 0.29919 0.0
C2352 C 0.60439 0.99802 0.31941 0.0
C2353 C 0.58182 0.99764 0.31914 0.0
C2354 C 0.61113 0.9872 0.3513 0.0
C2355 C 0.63561 0.99176 0.32912 0.0
N2356 N 0.59142 0.99425 0.32858 0.0
N2357 N 0.62635 0.99572 0.3199 0.0
H2358 H 0.01209 0.64772 0.32154 0.0
H2359 H 0.03916 0.59162 0.29363 0.0
H2360 H 0.0569 0.65947 0.31588 0.0
H2361 H 0.99402 0.57779 0.30266 0.0
H2362 H 0.04578 0.61572 0.3085 0.0
H2363 H 0.00527 0.62173 0.32081 0.0
C2364 C 0.02052 0.64486 0.32053 0.0
C2365 C 0.03507 0.65579 0.31832 0.0
C2366 C 0.03441 0.60739 0.30753 0.0
C2367 C 0.02734 0.62613 0.31741 0.0
C2368 C 0.03058 0.59344 0.29923 0.0
C2369 C 0.01592 0.58251 0.29654 0.0
C2370 C 0.02357 0.61068 0.31287 0.0
C2371 C 0.00543 0.58592 0.30379 0.0
C2372 C 0.01661 0.63002 0.32008 0.0
C2373 C 0.04552 0.65144 0.31719 0.0
N2374 N 0.00944 0.59977 0.31126 0.0
N2375 N 0.04144 0.63698 0.31649 0.0
H2376 H 0.33846 0.35636 0.33544 0.0
H2377 H 0.40447 0.4317 0.29376 0.0
H2378 H 0.34237 0.39869 0.34898 0.0
H2379 H 0.40112 0.38929 0.28462 0.0
H2380 H 0.38179 0.42004 0.31392 0.0
H2381 H 0.36142 0.36846 0.31655 0.0
C2382 C 0.34414 0.36822 0.33443 0.0
C2383 C 0.33846 0.37652 0.34382 0.0
C2384 C 0.38606 0.41331 0.30758 0.0
C2385 C 0.36486 0.39048 0.32214 0.0
C2386 C 0.39897 0.41994 0.29601 0.0
C2387 C 0.40471 0.41146 0.28751 0.0
C2388 C 0.3788 0.39807 0.31055 0.0
C2389 C 0.39722 0.3963 0.29113 0.0
C2390 C 0.35729 0.37513 0.32366 0.0
C2391 C 0.34635 0.39185 0.34199 0.0
N2392 N 0.38465 0.3901 0.30229 0.0
N2393 N 0.35915 0.39835 0.33133 0.0
H2394 H 0.31466 0.31277 0.3561 0.0
H2395 H 0.30037 0.23478 0.39634 0.0
H2396 H 0.27283 0.27799 0.37574 0.0
H2397 H 0.34264 0.27335 0.39099 0.0
H2398 H 0.2895 0.2483 0.37991 0.0
H2399 H 0.32415 0.29606 0.35928 0.0
C2400 C 0.30739 0.30156 0.36076 0.0
C2401 C 0.29298 0.2969 0.36613 0.0
C2402 C 0.30117 0.25368 0.38203 0.0
C2403 C 0.30387 0.27771 0.36995 0.0
C2404 C 0.3074 0.246 0.39151 0.0
C2405 C 0.32246 0.25296 0.39544 0.0
C2406 C 0.31007 0.26839 0.37634 0.0
C2407 C 0.331 0.26741 0.38824 0.0
C2408 C 0.31284 0.29202 0.36261 0.0
C2409 C 0.28406 0.28215 0.37175 0.0
N2410 N 0.32468 0.27467 0.37929 0.0
N2411 N 0.28971 0.27314 0.37384 0.0
H2412 H 0.72963 0.00884 0.36249 0.0
H2413 H 0.78389 0.08128 0.36431 0.0
H2414 H 0.69967 0.02487 0.36924 0.0
H2415 H 0.75392 0.08707 0.40483 0.0
H2416 H 0.76384 0.05775 0.35023 0.0
H2417 H 0.74961 0.0341 0.36262 0.0
C2418 C 0.72724 0.0177 0.36354 0.0
C2419 C 0.71297 0.01475 0.36602 0.0
C2420 C 0.76167 0.06421 0.36214 0.0
C2421 C 0.73584 0.04379 0.36601 0.0
C2422 C 0.77309 0.07769 0.37011 0.0
C2423 C 0.77069 0.08605 0.3862 0.0
C2424 C 0.74773 0.05904 0.37039 0.0
C2425 C 0.75636 0.08103 0.39252 0.0
C2426 C 0.73866 0.03216 0.36337 0.0
C2427 C 0.7105 0.02666 0.36728 0.0
N2428 N 0.74546 0.06778 0.38481 0.0
N2429 N 0.72186 0.04067 0.36776 0.0
H2430 H 0.99568 0.68017 0.36776 0.0
H2431 H 0.91494 0.66712 0.36852 0.0
H2432 H 0.97705 0.69315 0.31446 0.0
H2433 H 0.93292 0.65147 0.41892 0.0
H2434 H 0.93799 0.67794 0.34936 0.0
H2435 H 0.97313 0.67084 0.38773 0.0
C2436 C 0.98687 0.68112 0.36029 0.0
C2437 C 0.98824 0.6874 0.33935 0.0
C2438 C 0.93687 0.67212 0.3646 0.0
C2439 C 0.96235 0.67668 0.36212 0.0
C2440 C 0.92374 0.666 0.37558 0.0
C2441 C 0.92197 0.65829 0.39525 0.0
C2442 C 0.94833 0.6706 0.37345 0.0
C2443 C 0.93371 0.65708 0.40358 0.0
C2444 C 0.97398 0.67576 0.37168 0.0
C2445 C 0.97646 0.68835 0.33052 0.0
N2446 N 0.94637 0.66317 0.39265 0.0
N2447 N 0.96399 0.68301 0.34193 0.0
H2448 H 0.3462 0.98191 0.67091 0.0
H2449 H 0.42556 0.0096 0.72144 0.0
H2450 H 0.37448 0.02684 0.69344 0.0
H2451 H 0.39102 0.96441 0.72324 0.0
H2452 H 0.40813 0.01634 0.70703 0.0
H2453 H 0.36368 0.97546 0.68592 0.0
C2454 C 0.35607 0.99042 0.67908 0.0
C2455 C 0.35888 0.00493 0.68097 0.0
C2456 C 0.40443 0.00495 0.71057 0.0
C2457 C 0.37902 0.99765 0.6979 0.0
C2458 C 0.41436 0.00108 0.71886 0.0
C2459 C 0.40984 0.98637 0.72359 0.0
C2460 C 0.38991 0.99405 0.70671 0.0
C2461 C 0.39518 0.97583 0.71945 0.0
C2462 C 0.36603 0.98672 0.68767 0.0
C2463 C 0.37185 0.0155 0.69176 0.0
N2464 N 0.38578 0.97986 0.71121 0.0
N2465 N 0.38152 0.01167 0.69968 0.0
H2466 H 0.93988 0.34351 0.72683 0.0
H2467 H 0.00595 0.4254 0.71563 0.0
H2468 H 0.98162 0.35361 0.70221 0.0
H2469 H 0.96772 0.41367 0.75347 0.0
H2470 H 0.99532 0.39965 0.70333 0.0
H2471 H 0.94809 0.3697 0.72901 0.0
C2472 C 0.95073 0.3512 0.72164 0.0
C2473 C 0.96015 0.34632 0.71467 0.0
C2474 C 0.98921 0.40281 0.71407 0.0
C2475 C 0.96962 0.37639 0.71721 0.0
C2476 C 0.99528 0.41749 0.72117 0.0
C2477 C 0.98783 0.42178 0.73585 0.0
C2478 C 0.97557 0.39233 0.72161 0.0
C2479 C 0.97388 0.41104 0.74202 0.0
C2480 C 0.95541 0.36618 0.72293 0.0
C2481 C 0.97403 0.35686 0.70796 0.0
N2482 N 0.96829 0.39684 0.73505 0.0
N2483 N 0.9784 0.37141 0.70961 0.0
H2484 H 0.65726 0.6274 0.65198 0.0
H2485 H 0.6175 0.61144 0.76873 0.0
H2486 H 0.67695 0.65391 0.71197 0.0
H2487 H 0.60158 0.58117 0.71194 0.0
H2488 H 0.63792 0.62875 0.74687 0.0
H2489 H 0.63547 0.61192 0.67252 0.0
C2490 C 0.65699 0.63002 0.66946 0.0
C2491 C 0.669 0.64192 0.68031 0.0
C2492 C 0.62991 0.61836 0.73915 0.0
C2493 C 0.64402 0.62422 0.70393 0.0
C2494 C 0.6182 0.60852 0.75155 0.0
C2495 C 0.60786 0.59483 0.74214 0.0
C2496 C 0.63126 0.6145 0.71714 0.0
C2497 C 0.6094 0.59154 0.71992 0.0
C2498 C 0.64453 0.62115 0.68119 0.0
C2499 C 0.66798 0.6448 0.70298 0.0
N2500 N 0.6209 0.60129 0.70819 0.0
N2501 N 0.65572 0.63598 0.71406 0.0
H2502 H 0.74255 0.73648 0.64931 0.0
H2503 H 0.67868 0.75476 0.63687 0.0
H2504 H 0.69795 0.70566 0.66349 0.0
H2505 H 0.7217 0.78122 0.61173 0.0
H2506 H 0.68669 0.73923 0.65494 0.0
H2507 H 0.73616 0.7555 0.64437 0.0
C2508 C 0.73144 0.73373 0.65168 0.0
C2509 C 0.72072 0.71934 0.65636 0.0
C2510 C 0.69441 0.7486 0.64576 0.0
C2511 C 0.71331 0.74112 0.65053 0.0
C2512 C 0.68984 0.75744 0.63535 0.0
C2513 C 0.69944 0.76922 0.6224 0.0
C2514 C 0.70869 0.75159 0.64327 0.0
C2515 C 0.71387 0.77235 0.62156 0.0
C2516 C 0.7278 0.74462 0.64883 0.0
C2517 C 0.70655 0.71655 0.6596 0.0
N2518 N 0.71799 0.7635 0.6316 0.0
N2519 N 0.7032 0.72729 0.65628 0.0
H2520 H 0.30805 0.97778 0.66328 0.0
H2521 H 0.22591 0.91308 0.64507 0.0
H2522 H 0.27187 0.985 0.65384 0.0
H2523 H 0.26307 0.90753 0.63686 0.0
H2524 H 0.24221 0.9387 0.65679 0.0
H2525 H 0.29119 0.9513 0.66218 0.0
C2526 C 0.29656 0.97383 0.66125 0.0
C2527 C 0.2914 0.98366 0.65832 0.0
C2528 C 0.24675 0.93179 0.6527 0.0
C2529 C 0.27205 0.95333 0.65709 0.0
C2530 C 0.23746 0.91717 0.64594 0.0
C2531 C 0.24309 0.90812 0.63962 0.0
C2532 C 0.26179 0.93742 0.65326 0.0
C2533 C 0.25816 0.91398 0.64165 0.0
C2534 C 0.28695 0.9587 0.66058 0.0
C2535 C 0.27637 0.97785 0.65587 0.0
N2536 N 0.26698 0.92828 0.64807 0.0
N2537 N 0.26724 0.96308 0.65515 0.0
H2538 H 0.00096 0.32078 0.65957 0.0
H2539 H 0.07358 0.3164 0.66157 0.0
H2540 H 0.01977 0.31395 0.71934 0.0
H2541 H 0.05849 0.32977 0.60419 0.0
H2542 H 0.05432 0.31623 0.68334 0.0
H2543 H 0.0223 0.3249 0.63919 0.0
C2544 C 0.00961 0.32023 0.66844 0.0
C2545 C 0.00853 0.31691 0.69116 0.0
C2546 C 0.05529 0.31934 0.66604 0.0
C2547 C 0.03293 0.32155 0.66794 0.0
C2548 C 0.06625 0.31939 0.65361 0.0
C2549 C 0.06758 0.32304 0.63103 0.0
C2550 C 0.04548 0.32281 0.65576 0.0
C2551 C 0.05791 0.32699 0.6216 0.0
C2552 C 0.0218 0.32261 0.65681 0.0
C2553 C 0.0201 0.3164 0.70182 0.0
N2554 N 0.04717 0.32663 0.63395 0.0
N2555 N 0.03175 0.31858 0.69008 0.0
H2556 H 0.29917 0.31406 0.65337 0.0
H2557 H 0.25505 0.357 0.66464 0.0
H2558 H 0.30731 0.34626 0.70566 0.0
H2559 H 0.24379 0.32175 0.61633 0.0
H2560 H 0.27433 0.35321 0.67979 0.0
H2561 H 0.27904 0.31687 0.63913 0.0
C2562 C 0.29676 0.32174 0.66182 0.0
C2563 C 0.30495 0.32995 0.68073 0.0
C2564 C 0.26759 0.34623 0.66596 0.0
C2565 C 0.28192 0.33318 0.66458 0.0
C2566 C 0.2566 0.34842 0.65729 0.0
C2567 C 0.2478 0.33969 0.63918 0.0
C2568 C 0.2699 0.33531 0.65638 0.0
C2569 C 0.25021 0.32863 0.63046 0.0
C2570 C 0.28523 0.3233 0.65373 0.0
C2571 C 0.3013 0.3397 0.69104 0.0
N2572 N 0.26108 0.32682 0.63904 0.0
N2573 N 0.29009 0.34105 0.68282 0.0
H2574 H 0.66986 0.97708 0.66446 0.0
H2575 H 0.67733 0.90713 0.63756 0.0
H2576 H 0.71059 0.97822 0.65667 0.0
H2577 H 0.63624 0.9051 0.64616 0.0
H2578 H 0.68967 0.93225 0.6523 0.0
H2579 H 0.65759 0.9503 0.66522 0.0
C2580 C 0.67628 0.97174 0.6633 0.0
C2581 C 0.69127 0.97994 0.66001 0.0
C2582 C 0.67794 0.92626 0.6513 0.0
C2583 C 0.67723 0.94924 0.66071 0.0
C2584 C 0.67083 0.91179 0.64306 0.0
C2585 C 0.65567 0.90396 0.64022 0.0
C2586 C 0.66989 0.9331 0.65653 0.0
C2587 C 0.64795 0.9108 0.64744 0.0
C2588 C 0.66924 0.95642 0.6637 0.0
C2589 C 0.699 0.97238 0.65885 0.0
N2590 N 0.65515 0.92505 0.65491 0.0
N2591 N 0.69187 0.95747 0.65886 0.0
H2592 H 0.01501 0.7286 0.69927 0.0
H2593 H 0.05904 0.72077 0.59833 0.0
H2594 H 0.99666 0.69259 0.65073 0.0
H2595 H 0.07656 0.75862 0.64333 0.0
H2596 H 0.03619 0.71022 0.61765 0.0
H2597 H 0.0376 0.73986 0.67907 0.0
C2598 C 0.0157 0.72308 0.68431 0.0
C2599 C 0.00393 0.7096 0.67672 0.0
C2600 C 0.04501 0.72084 0.62332 0.0
C2601 C 0.0298 0.7224 0.65359 0.0
C2602 C 0.05811 0.72682 0.6124 0.0
C2603 C 0.06977 0.74056 0.61933 0.0
C2604 C 0.04352 0.72861 0.64139 0.0
C2605 C 0.06783 0.74804 0.63736 0.0
C2606 C 0.02861 0.72952 0.67279 0.0
C2607 C 0.00545 0.70298 0.65721 0.0
N2608 N 0.05497 0.74194 0.64782 0.0
N2609 N 0.01817 0.70942 0.64639 0.0
H2610 H 0.97636 0.64526 0.69669 0.0
H2611 H 0.94525 0.56347 0.73428 0.0
H2612 H 0.93099 0.61427 0.70502 0.0
H2613 H 0.99044 0.59198 0.72026 0.0
H2614 H 0.93958 0.58061 0.71689 0.0
H2615 H 0.98148 0.62506 0.69898 0.0
C2616 C 0.96744 0.63419 0.69859 0.0
C2617 C 0.95326 0.6315 0.70117 0.0
C2618 C 0.95073 0.58307 0.7173 0.0
C2619 C 0.95905 0.6084 0.70389 0.0
C2620 C 0.95401 0.57314 0.72709 0.0
C2621 C 0.96844 0.57628 0.72915 0.0
C2622 C 0.96196 0.59646 0.70984 0.0
C2623 C 0.97922 0.58924 0.71971 0.0
C2624 C 0.97038 0.62266 0.69992 0.0
C2625 C 0.94213 0.61692 0.70342 0.0
N2626 N 0.9758 0.59899 0.71085 0.0
N2627 N 0.94529 0.60598 0.70503 0.0
H2628 H 0.39771 0.36239 0.68242 0.0
H2629 H 0.40694 0.43918 0.71986 0.0
H2630 H 0.36148 0.36864 0.69565 0.0
H2631 H 0.44216 0.43276 0.70027 0.0
H2632 H 0.38971 0.41464 0.70459 0.0
H2633 H 0.41356 0.38893 0.68238 0.0
C2634 C 0.39305 0.36938 0.68501 0.0
C2635 C 0.37831 0.36331 0.68942 0.0
C2636 C 0.40121 0.41871 0.70322 0.0
C2637 C 0.39648 0.3938 0.68981 0.0
C2638 C 0.41105 0.43277 0.7118 0.0
C2639 C 0.426 0.43791 0.71166 0.0
C2640 C 0.40637 0.40974 0.69457 0.0
C2641 C 0.43071 0.42909 0.70114 0.0
C2642 C 0.40212 0.38456 0.68496 0.0
C2643 C 0.37282 0.37288 0.69233 0.0
N2644 N 0.42095 0.41537 0.69334 0.0
N2645 N 0.38197 0.38768 0.69292 0.0
H2646 H 0.66098 0.01511 0.69614 0.0
H2647 H 0.58213 0.00679 0.69602 0.0
H2648 H 0.64346 0.02734 0.64034 0.0
H2649 H 0.59743 0.98674 0.7433 0.0
H2650 H 0.60555 0.01741 0.67763 0.0
H2651 H 0.63881 0.00788 0.71604 0.0
C2652 C 0.6525 0.01636 0.68809 0.0
C2653 C 0.65404 0.02171 0.66642 0.0
C2654 C 0.60375 0.01071 0.69205 0.0
C2655 C 0.62852 0.01337 0.68919 0.0
C2656 C 0.59044 0.0047 0.70256 0.0
C2657 C 0.58782 0.99574 0.72101 0.0
C2658 C 0.6145 0.00786 0.70028 0.0
C2659 C 0.59891 0.99336 0.72887 0.0
C2660 C 0.63981 0.01219 0.69947 0.0
C2661 C 0.6427 0.02318 0.65696 0.0
N2662 N 0.61174 0.99936 0.71846 0.0
N2663 N 0.63036 0.01895 0.66837 0.0
loop_
_geom_bond_atom_site_label_1
_geom_bond_atom_site_label_2
_geom_bond_distance
_geom_bond_site_symmetry_2
_ccdc_geom_bond_type
Mg0 O1 2.011 1_556 S
Mg0 O7 1.984 1_456 S
Mg0 O9 2.122 . S
Mg0 O10 2.261 1_455 S
Mg0 O13 2.005 1_556 S
O1 Mg0 2.011 1_554 S
O1 C4 1.250 1_455 S
O2 Mg3 2.028 1_554 S
O2 C4 1.248 . S
Mg3 O2 2.028 1_556 S
Mg3 O8 2.032 . S
Mg3 O10 2.079 . S
C4 O1 1.250 1_655 S
C4 O2 1.248 . S
C5 O6 1.264 . S
C5 O13 1.249 . S
O6 C5 1.264 . S
O7 Mg0 1.984 1_654 S
O7 C11 1.246 1_554 S
O8 Mg3 2.032 . S
O8 C11 1.259 . S
O9 Mg0 2.122 . S
O9 C12 1.252 . S
O10 Mg0 2.261 1_655 S
O10 Mg3 2.079 . S
O10 C12 1.273 1_655 S
C11 O7 1.246 1_556 S
C11 O8 1.259 . S
C12 O9 1.252 . S
C12 O10 1.273 1_455 S
O13 Mg0 2.005 1_554 S
O13 C5 1.249 . S
Mg14 O15 2.028 1_554 S
Mg14 O21 1.986 . S
Mg14 O23 2.114 . S
Mg14 O24 2.251 . S
Mg14 O27 2.010 . S
O15 Mg14 2.028 1_556 S
O15 C18 1.250 . S
O16 Mg17 2.029 1_556 S
O16 C18 1.247 . S
Mg17 O16 2.029 1_554 S
Mg17 O22 2.032 . S
Mg17 O24 2.079 . S
C18 O15 1.250 . S
C18 O16 1.247 . S
C19 O20 1.264 . S
C19 O27 1.249 . S
O20 C19 1.264 . S
O21 Mg14 1.986 . S
O21 C25 1.246 . S
O22 Mg17 2.032 . S
O22 C25 1.259 . S
O23 Mg14 2.114 . S
O23 C26 1.252 . S
O24 Mg14 2.251 . S
O24 Mg17 2.079 . S
O24 C26 1.273 . S
C25 O21 1.246 . S
C25 O22 1.259 . S
C26 O23 1.252 . S
C26 O24 1.273 . S
O27 Mg14 2.010 . S
O27 C19 1.249 . S
Mg28 O29 2.046 . S
Mg28 O35 1.989 1_565 S
Mg28 O37 2.102 1_554 S
Mg28 O38 2.237 1_564 S
Mg28 O41 2.018 . S
O29 Mg28 2.046 . S
O29 C32 1.242 1_565 S
O30 Mg31 2.028 1_554 S
O30 C32 1.248 . S
Mg31 O30 2.028 1_556 S
Mg31 O36 2.031 1_556 S
Mg31 O38 2.079 . S
C32 O29 1.242 1_545 S
C32 O30 1.248 . S
C33 O34 1.264 . S
C33 O41 1.249 . S
O34 C33 1.264 . S
O35 Mg28 1.989 1_545 S
O35 C39 1.246 . S
O36 Mg31 2.031 1_554 S
O36 C39 1.261 . S
O37 Mg28 2.102 1_556 S
O37 C40 1.252 . S
O38 Mg28 2.237 1_546 S
O38 Mg31 2.079 . S
O38 C40 1.273 1_545 S
C39 O35 1.246 . S
C39 O36 1.261 . S
C40 O37 1.252 . S
C40 O38 1.273 1_565 S
O41 Mg28 2.018 . S
O41 C33 1.249 . S
Mg42 O43 2.059 1_554 S
Mg42 O49 1.986 1_655 S
Mg42 O51 2.114 . S
Mg42 O52 2.251 1_655 S
Mg42 O55 2.010 . S
O43 Mg42 2.059 1_556 S
O43 C46 1.167 1_655 S
O44 Mg45 2.043 . S
O44 C46 1.240 1_554 S
Mg45 O44 2.043 . S
Mg45 O50 2.032 . S
Mg45 O52 2.079 . S
C46 O43 1.167 1_455 S
C46 O44 1.240 1_556 S
C47 O48 1.264 . S
C47 O55 1.249 . S
O48 C47 1.264 . S
O49 Mg42 1.986 1_455 S
O49 C53 1.246 . S
O50 Mg45 2.032 . S
O50 C53 1.259 . S
O51 Mg42 2.114 . S
O51 C54 1.252 . S
O52 Mg42 2.251 1_455 S
O52 Mg45 2.079 . S
O52 C54 1.273 1_455 S
C53 O49 1.246 . S
C53 O50 1.259 . S
C54 O51 1.252 . S
C54 O52 1.273 1_655 S
O55 Mg42 2.010 . S
O55 C47 1.249 . S
Mg56 O57 2.028 . S
Mg56 O63 1.986 . S
Mg56 O65 2.114 1_554 S
Mg56 O66 2.251 1_554 S
Mg56 O69 2.010 . S
O57 Mg56 2.028 . S
O57 C60 1.250 . S
O58 Mg59 2.028 1_554 S
O58 C60 1.248 . S
Mg59 O58 2.028 1_556 S
Mg59 O64 2.033 . S
Mg59 O66 2.079 . S
C60 O57 1.250 . S
C60 O58 1.248 . S
C61 O62 1.264 . S
C61 O69 1.249 . S
O62 C61 1.264 . S
O63 Mg56 1.986 . S
O63 C67 1.256 . S
O64 Mg59 2.033 . S
O64 C67 1.256 1_556 S
O65 Mg56 2.114 1_556 S
O65 C68 1.252 . S
O66 Mg56 2.251 1_556 S
O66 Mg59 2.079 . S
O66 C68 1.273 . S
C67 O63 1.256 . S
C67 O64 1.256 1_554 S
C68 O65 1.252 . S
C68 O66 1.273 . S
O69 Mg56 2.010 . S
O69 C61 1.249 . S
Mg70 O71 2.028 1_554 S
Mg70 O77 1.986 1_545 S
Mg70 O79 2.114 . S
Mg70 O80 2.251 1_545 S
Mg70 O83 2.010 . S
O71 Mg70 2.028 1_556 S
O71 C74 1.250 1_545 S
O72 Mg73 2.028 . S
O72 C74 1.248 1_554 S
Mg73 O72 2.028 . S
Mg73 O78 2.032 . S
Mg73 O80 2.079 . S
C74 O71 1.250 1_565 S
C74 O72 1.248 1_556 S
C75 O76 1.264 . S
C75 O83 1.249 . S
O76 C75 1.264 . S
O77 Mg70 1.986 1_565 S
O77 C81 1.246 . S
O78 Mg73 2.032 . S
O78 C81 1.259 . S
O79 Mg70 2.114 . S
O79 C82 1.252 . S
O80 Mg70 2.251 1_565 S
O80 Mg73 2.079 . S
O80 C82 1.273 1_565 S
C81 O77 1.246 . S
C81 O78 1.259 . S
C82 O79 1.252 . S
C82 O80 1.273 1_545 S
O83 Mg70 2.010 . S
O83 C75 1.249 . S
Mg84 O85 2.028 . S
Mg84 O91 1.986 . S
Mg84 O93 2.114 . S
Mg84 O94 2.251 . S
Mg84 O97 2.010 . S
O85 Mg84 2.028 . S
O85 C88 1.250 . S
O86 Mg87 2.028 . S
O86 C88 1.248 . S
Mg87 O86 2.028 . S
Mg87 O92 2.032 . S
Mg87 O94 2.079 . S
C88 O85 1.250 . S
C88 O86 1.248 . S
C89 O90 1.264 . S
C89 O97 1.249 . S
O90 C89 1.264 . S
O91 Mg84 1.986 . S
O91 C95 1.246 . S
O92 Mg87 2.032 . S
O92 C95 1.259 . S
O93 Mg84 2.114 . S
O93 C96 1.252 . S
O94 Mg84 2.251 . S
O94 Mg87 2.079 . S
O94 C96 1.273 . S
C95 O91 1.246 . S
C95 O92 1.259 . S
C96 O93 1.252 . S
C96 O94 1.273 . S
O97 Mg84 2.010 . S
O97 C89 1.249 . S
Mg98 O99 2.028 . S
Mg98 O105 1.986 . S
Mg98 O107 2.114 . S
Mg98 O108 2.251 . S
Mg98 O111 2.010 . S
O99 Mg98 2.028 . S
O99 C102 1.250 . S
O100 Mg101 2.028 . S
O100 C102 1.248 . S
Mg101 O100 2.028 . S
Mg101 O106 2.032 . S
Mg101 O108 2.079 . S
C102 O99 1.250 . S
C102 O100 1.248 . S
C103 O104 1.264 . S
C103 O111 1.249 . S
O104 C103 1.264 . S
O105 Mg98 1.986 . S
O105 C109 1.246 1_565 S
O106 Mg101 2.032 . S
O106 C109 1.259 1_565 S
O107 Mg98 2.114 . S
O107 C110 1.252 . S
O108 Mg98 2.251 . S
O108 Mg101 2.079 . S
O108 C110 1.273 . S
C109 O105 1.246 1_545 S
C109 O106 1.259 1_545 S
C110 O107 1.252 . S
C110 O108 1.273 . S
O111 Mg98 2.010 . S
O111 C103 1.249 . S
Mg112 O113 2.028 . S
Mg112 O119 1.986 . S
Mg112 O121 2.114 . S
Mg112 O122 2.251 . S
Mg112 O125 2.010 . S
O113 Mg112 2.028 . S
O113 C116 1.250 . S
O114 Mg115 2.028 . S
O114 C116 1.248 . S
Mg115 O114 2.028 . S
Mg115 O120 2.032 . S
Mg115 O122 2.079 . S
C116 O113 1.250 . S
C116 O114 1.248 . S
C117 O118 1.264 . S
C117 O125 1.249 1_655 S
O118 C117 1.264 . S
O119 Mg112 1.986 . S
O119 C123 1.246 . S
O120 Mg115 2.032 . S
O120 C123 1.259 . S
O121 Mg112 2.114 . S
O121 C124 1.252 . S
O122 Mg112 2.251 . S
O122 Mg115 2.079 . S
O122 C124 1.273 . S
C123 O119 1.246 . S
C123 O120 1.259 . S
C124 O121 1.252 . S
C124 O122 1.273 . S
O125 Mg112 2.010 . S
O125 C117 1.249 1_455 S
Mg126 O127 2.028 . S
Mg126 O133 1.986 . S
Mg126 O135 2.114 . S
Mg126 O136 2.251 . S
Mg126 O139 2.010 . S
O127 Mg126 2.028 . S
O127 C130 1.250 . S
O128 Mg129 2.028 . S
O128 C130 1.248 . S
Mg129 O128 2.028 . S
Mg129 O134 2.032 . S
Mg129 O136 2.079 . S
C130 O127 1.250 . S
C130 O128 1.248 . S
C131 O132 1.264 . S
C131 O139 1.249 . S
O132 C131 1.264 . S
O133 Mg126 1.986 . S
O133 C137 1.241 . S
O134 Mg129 2.032 . S
O134 C137 1.289 . S
O135 Mg126 2.114 . S
O135 C138 1.252 . S
O136 Mg126 2.251 . S
O136 Mg129 2.079 . S
O136 C138 1.273 . S
C137 O133 1.241 . S
C137 O134 1.289 . S
C138 O135 1.252 . S
C138 O136 1.273 . S
O139 Mg126 2.010 . S
O139 C131 1.249 . S
Mg140 O141 2.028 . S
Mg140 O147 1.986 . S
Mg140 O149 2.114 . S
Mg140 O150 2.251 . S
Mg140 O153 2.010 . S
O141 Mg140 2.028 . S
O141 C144 1.250 . S
O142 Mg143 2.028 . S
O142 C144 1.248 . S
Mg143 O142 2.028 . S
Mg143 O148 2.032 . S
Mg143 O150 2.079 . S
C144 O141 1.250 . S
C144 O142 1.248 . S
C145 O146 1.264 . S
C145 O153 1.249 1_655 S
O146 C145 1.264 . S
O147 Mg140 1.986 . S
O147 C151 1.246 . S
O148 Mg143 2.032 . S
O148 C151 1.259 . S
O149 Mg140 2.114 . S
O149 C152 1.252 . S
O150 Mg140 2.251 . S
O150 Mg143 2.079 . S
O150 C152 1.273 . S
C151 O147 1.246 . S
C151 O148 1.259 . S
C152 O149 1.252 . S
C152 O150 1.273 . S
O153 Mg140 2.010 . S
O153 C145 1.249 1_455 S
Mg154 O155 2.028 . S
Mg154 O161 1.986 . S
Mg154 O163 2.114 . S
Mg154 O164 2.251 . S
Mg154 O167 2.010 . S
O155 Mg154 2.028 . S
O155 C158 1.250 . S
O156 Mg157 2.028 . S
O156 C158 1.248 . S
Mg157 O156 2.028 . S
Mg157 O162 2.032 . S
Mg157 O164 2.079 . S
C158 O155 1.250 . S
C158 O156 1.248 . S
C159 O160 1.264 . S
C159 O167 1.249 . S
O160 C159 1.264 . S
O161 Mg154 1.986 . S
O161 C165 1.246 . S
O162 Mg157 2.032 . S
O162 C165 1.259 . S
O163 Mg154 2.114 . S
O163 C166 1.252 . S
O164 Mg154 2.251 . S
O164 Mg157 2.079 . S
O164 C166 1.273 . S
C165 O161 1.246 . S
C165 O162 1.259 . S
C166 O163 1.252 . S
C166 O164 1.273 . S
O167 Mg154 2.010 . S
O167 C159 1.249 . S
Mg168 O169 2.028 . S
Mg168 O175 1.986 . S
Mg168 O177 2.114 . S
Mg168 O178 2.251 . S
Mg168 O181 2.010 . S
O169 Mg168 2.028 . S
O169 C172 1.250 . S
O170 Mg171 2.028 . S
O170 C172 1.248 . S
Mg171 O170 2.028 . S
Mg171 O176 2.032 . S
Mg171 O178 2.079 . S
C172 O169 1.250 . S
C172 O170 1.248 . S
C173 O174 1.264 . S
C173 O181 1.249 . S
O174 C173 1.264 . S
O175 Mg168 1.986 . S
O175 C179 1.246 . S
O176 Mg171 2.032 . S
O176 C179 1.259 . S
O177 Mg168 2.114 . S
O177 C180 1.252 . S
O178 Mg168 2.251 . S
O178 Mg171 2.079 . S
O178 C180 1.273 . S
C179 O175 1.246 . S
C179 O176 1.259 . S
C180 O177 1.252 . S
C180 O178 1.273 . S
O181 Mg168 2.010 . S
O181 C173 1.249 . S
Mg182 O183 2.028 . S
Mg182 O189 1.986 . S
Mg182 O191 2.114 . S
Mg182 O192 2.251 . S
Mg182 O195 2.080 . S
O183 Mg182 2.028 . S
O183 C186 1.250 . S
O184 Mg185 2.028 . S
O184 C186 1.248 . S
Mg185 O184 2.028 . S
Mg185 O190 2.032 . S
Mg185 O192 2.079 . S
C186 O183 1.250 . S
C186 O184 1.248 . S
C187 O188 1.264 . S
C187 O195 1.178 1_455 S
O188 C187 1.264 . S
O189 Mg182 1.986 . S
O189 C193 1.246 . S
O190 Mg185 2.032 . S
O190 C193 1.259 . S
O191 Mg182 2.114 . S
O191 C194 1.252 . S
O192 Mg182 2.251 . S
O192 Mg185 2.079 . S
O192 C194 1.273 . S
C193 O189 1.246 . S
C193 O190 1.259 . S
C194 O191 1.252 . S
C194 O192 1.273 . S
O195 Mg182 2.080 . S
O195 C187 1.178 1_655 S
Mg196 O197 2.028 . S
Mg196 O203 1.986 . S
Mg196 O205 2.114 . S
Mg196 O206 2.251 . S
Mg196 O209 2.010 . S
O197 Mg196 2.028 . S
O197 C200 1.250 . S
O198 Mg199 2.028 . S
O198 C200 1.248 . S
Mg199 O198 2.028 . S
Mg199 O204 2.032 . S
Mg199 O206 2.079 . S
C200 O197 1.250 . S
C200 O198 1.248 . S
C201 O202 1.264 . S
C201 O209 1.249 . S
O202 C201 1.264 . S
O203 Mg196 1.986 . S
O203 C207 1.246 . S
O204 Mg199 2.032 . S
O204 C207 1.259 . S
O205 Mg196 2.114 . S
O205 C208 1.252 . S
O206 Mg196 2.251 . S
O206 Mg199 2.079 . S
O206 C208 1.273 . S
C207 O203 1.246 . S
C207 O204 1.259 . S
C208 O205 1.252 . S
C208 O206 1.273 . S
O209 Mg196 2.010 . S
O209 C201 1.249 . S
Mg210 O211 2.028 . S
Mg210 O217 1.986 . S
Mg210 O219 2.114 . S
Mg210 O220 2.251 . S
Mg210 O223 2.010 . S
O211 Mg210 2.028 . S
O211 C214 1.250 . S
O212 Mg213 2.028 . S
O212 C214 1.248 . S
Mg213 O212 2.028 . S
Mg213 O218 2.032 . S
Mg213 O220 2.079 . S
C214 O211 1.250 . S
C214 O212 1.248 . S
C215 O216 1.264 . S
C215 O223 1.249 . S
O216 C215 1.264 . S
O217 Mg210 1.986 . S
O217 C221 1.246 . S
O218 Mg213 2.032 . S
O218 C221 1.259 . S
O219 Mg210 2.114 . S
O219 C222 1.252 . S
O220 Mg210 2.251 . S
O220 Mg213 2.079 . S
O220 C222 1.273 . S
C221 O217 1.246 . S
C221 O218 1.259 . S
C222 O219 1.252 . S
C222 O220 1.273 . S
O223 Mg210 2.010 . S
O223 C215 1.249 . S
Mg224 O225 2.028 . S
Mg224 O231 1.986 . S
Mg224 O233 2.114 . S
Mg224 O234 2.251 . S
Mg224 O237 2.010 . S
O225 Mg224 2.028 . S
O225 C228 1.250 . S
O226 Mg227 2.028 . S
O226 C228 1.248 . S
Mg227 O226 2.028 . S
Mg227 O232 2.032 . S
Mg227 O234 2.079 . S
C228 O225 1.250 . S
C228 O226 1.248 . S
C229 O230 1.264 . S
C229 O237 1.249 . S
O230 C229 1.264 . S
O231 Mg224 1.986 . S
O231 C235 1.277 . S
O232 Mg227 2.032 . S
O232 C235 1.263 . S
O233 Mg224 2.114 . S
O233 C236 1.252 . S
O234 Mg224 2.251 . S
O234 Mg227 2.079 . S
O234 C236 1.273 . S
C235 O231 1.277 . S
C235 O232 1.263 . S
C236 O233 1.252 . S
C236 O234 1.273 . S
O237 Mg224 2.010 . S
O237 C229 1.249 . S
Mg238 O239 2.028 . S
Mg238 O245 1.986 . S
Mg238 O247 2.114 . S
Mg238 O248 2.251 . S
Mg238 O251 2.010 1_655 S
O239 Mg238 2.028 . S
O239 C242 1.250 . S
O240 Mg241 2.028 . S
O240 C242 1.248 . S
Mg241 O240 2.028 . S
Mg241 O246 2.032 . S
Mg241 O248 2.079 . S
C242 O239 1.250 . S
C242 O240 1.248 . S
C243 O244 1.264 . S
C243 O251 1.249 . S
O244 C243 1.264 . S
O245 Mg238 1.986 . S
O245 C249 1.246 . S
O246 Mg241 2.032 . S
O246 C249 1.259 . S
O247 Mg238 2.114 . S
O247 C250 1.252 . S
O248 Mg238 2.251 . S
O248 Mg241 2.079 . S
O248 C250 1.273 . S
C249 O245 1.246 . S
C249 O246 1.259 . S
C250 O247 1.252 . S
C250 O248 1.273 . S
O251 Mg238 2.010 1_455 S
O251 C243 1.249 . S
H252 C279 0.929 . S
N253 C278 1.433 . S
N253 C284 1.435 . S
N253 C290 1.423 . S
H254 C280 0.930 . S
H255 C283 0.931 . S
H256 C282 0.929 . S
H257 C285 0.930 . S
H258 C286 0.932 . S
H259 C289 0.929 . S
H260 C288 0.931 . S
H261 C291 0.929 . S
H262 C295 0.932 . S
H263 C292 0.931 . S
H264 C294 0.929 . S
H265 C297 0.929 . S
H266 C298 0.930 . S
H267 C300 0.929 . S
H268 C301 0.931 . S
H269 C303 0.930 . S
H270 C304 0.932 . S
H271 C306 0.931 . S
H272 C307 0.929 . S
H273 C309 0.929 . S
H274 C310 0.931 . S
H275 C312 0.929 . S
N276 C296 1.433 . S
N276 C302 1.435 . S
N276 C308 1.423 . S
H277 C313 0.932 . S
C278 N253 1.433 . S
C278 C279 1.363 . S
C278 C283 1.370 . S
C279 H252 0.929 . S
C279 C278 1.363 . S
C279 C280 1.385 . S
C280 H254 0.930 . S
C280 C279 1.385 . S
C280 C281 1.357 . S
C281 C280 1.357 . S
C281 C282 1.406 . S
C282 H256 0.929 . S
C282 C281 1.406 . S
C282 C283 1.391 . S
C283 H255 0.931 . S
C283 C278 1.370 . S
C283 C282 1.391 . S
C284 N253 1.435 . S
C284 C285 1.358 . S
C284 C289 1.371 . S
C285 H257 0.930 . S
C285 C284 1.358 . S
C285 C286 1.405 . S
C286 H258 0.932 . S
C286 C285 1.405 . S
C286 C287 1.383 . S
C287 C286 1.383 . S
C287 C288 1.393 . S
C288 H260 0.931 . S
C288 C287 1.393 . S
C288 C289 1.382 . S
C289 H259 0.929 . S
C289 C284 1.371 . S
C289 C288 1.382 . S
C290 N253 1.423 . S
C290 C291 1.362 . S
C290 C295 1.388 . S
C291 H261 0.929 . S
C291 C290 1.362 . S
C291 C292 1.376 . S
C292 H263 0.931 . S
C292 C291 1.376 . S
C292 C293 1.396 . S
C293 C292 1.396 . S
C293 C294 1.348 . S
C293 C311 1.472 . S
C294 H264 0.929 . S
C294 C293 1.348 . S
C294 C295 1.443 . S
C295 H262 0.932 . S
C295 C290 1.388 . S
C295 C294 1.443 . S
C296 N276 1.433 . S
C296 C297 1.363 . S
C296 C301 1.370 . S
C297 H265 0.929 . S
C297 C296 1.363 . S
C297 C298 1.385 . S
C298 H266 0.930 . S
C298 C297 1.385 . S
C298 C299 1.357 . S
C299 C298 1.357 . S
C299 C300 1.406 . S
C300 H267 0.929 . S
C300 C299 1.406 . S
C300 C301 1.391 . S
C301 H268 0.931 . S
C301 C296 1.370 . S
C301 C300 1.391 . S
C302 N276 1.435 . S
C302 C303 1.358 . S
C302 C307 1.371 . S
C303 H269 0.930 . S
C303 C302 1.358 . S
C303 C304 1.405 . S
C304 H270 0.932 . S
C304 C303 1.405 . S
C304 C305 1.383 . S
C305 C304 1.383 . S
C305 C306 1.393 . S
C306 H271 0.931 . S
C306 C305 1.393 . S
C306 C307 1.382 . S
C307 H272 0.929 . S
C307 C302 1.371 . S
C307 C306 1.382 . S
C308 N276 1.423 . S
C308 C309 1.362 . S
C308 C313 1.388 . S
C309 H273 0.929 . S
C309 C308 1.362 . S
C309 C310 1.376 . S
C310 H274 0.931 . S
C310 C309 1.376 . S
C310 C311 1.396 . S
C311 C293 1.472 . S
C311 C310 1.396 . S
C311 C312 1.348 . S
C312 H275 0.929 . S
C312 C311 1.348 . S
C312 C313 1.443 . S
C313 H277 0.932 . S
C313 C308 1.388 . S
C313 C312 1.443 . S
H314 C341 0.929 . S
N315 C340 1.433 . S
N315 C346 1.435 . S
N315 C352 1.423 . S
H316 C342 0.930 . S
H317 C345 0.931 . S
H318 C344 0.929 . S
H319 C347 0.930 . S
H320 C348 0.932 . S
H321 C351 0.929 . S
H322 C350 0.931 . S
H323 C353 0.929 . S
H324 C357 0.932 . S
H325 C354 0.931 . S
H326 C356 0.929 . S
H327 C359 0.929 . S
H328 C360 0.930 . S
H329 C362 0.929 . S
H330 C363 0.931 . S
H331 C365 0.930 . S
H332 C366 0.932 . S
H333 C368 0.931 . S
H334 C369 0.929 . S
H335 C371 0.929 . S
H336 C372 0.931 . S
H337 C374 0.929 . S
N338 C358 1.433 . S
N338 C364 1.435 . S
N338 C370 1.423 . S
H339 C375 0.932 . S
C340 N315 1.433 . S
C340 C341 1.363 . S
C340 C345 1.370 . S
C341 H314 0.929 . S
C341 C340 1.363 . S
C341 C342 1.385 . S
C342 H316 0.930 . S
C342 C341 1.385 . S
C342 C343 1.357 . S
C343 C342 1.357 . S
C343 C344 1.406 . S
C344 H318 0.929 . S
C344 C343 1.406 . S
C344 C345 1.391 . S
C345 H317 0.931 . S
C345 C340 1.370 . S
C345 C344 1.391 . S
C346 N315 1.435 . S
C346 C347 1.358 . S
C346 C351 1.371 . S
C347 H319 0.930 . S
C347 C346 1.358 . S
C347 C348 1.405 . S
C348 H320 0.932 . S
C348 C347 1.405 . S
C348 C349 1.383 . S
C349 C348 1.383 . S
C349 C350 1.393 . S
C350 H322 0.931 . S
C350 C349 1.393 . S
C350 C351 1.382 . S
C351 H321 0.929 . S
C351 C346 1.371 . S
C351 C350 1.382 . S
C352 N315 1.423 . S
C352 C353 1.362 . S
C352 C357 1.388 . S
C353 H323 0.929 . S
C353 C352 1.362 . S
C353 C354 1.376 . S
C354 H325 0.931 . S
C354 C353 1.376 . S
C354 C355 1.396 . S
C355 C354 1.396 . S
C355 C356 1.348 . S
C355 C373 1.472 . S
C356 H326 0.929 . S
C356 C355 1.348 . S
C356 C357 1.443 . S
C357 H324 0.932 . S
C357 C352 1.388 . S
C357 C356 1.443 . S
C358 N338 1.433 . S
C358 C359 1.363 . S
C358 C363 1.370 . S
C359 H327 0.929 . S
C359 C358 1.363 . S
C359 C360 1.385 . S
C360 H328 0.930 . S
C360 C359 1.385 . S
C360 C361 1.357 . S
C361 C360 1.357 . S
C361 C362 1.406 . S
C362 H329 0.929 . S
C362 C361 1.406 . S
C362 C363 1.391 . S
C363 H330 0.931 . S
C363 C358 1.370 . S
C363 C362 1.391 . S
C364 N338 1.435 . S
C364 C365 1.358 . S
C364 C369 1.371 . S
C365 H331 0.930 . S
C365 C364 1.358 . S
C365 C366 1.405 . S
C366 H332 0.932 . S
C366 C365 1.405 . S
C366 C367 1.383 . S
C367 C366 1.383 . S
C367 C368 1.393 . S
C368 H333 0.931 . S
C368 C367 1.393 . S
C368 C369 1.382 . S
C369 H334 0.929 . S
C369 C364 1.371 . S
C369 C368 1.382 . S
C370 N338 1.423 . S
C370 C371 1.362 . S
C370 C375 1.388 . S
C371 H335 0.929 . S
C371 C370 1.362 . S
C371 C372 1.376 . S
C372 H336 0.931 . S
C372 C371 1.376 . S
C372 C373 1.396 . S
C373 C355 1.472 . S
C373 C372 1.396 . S
C373 C374 1.348 . S
C374 H337 0.929 . S
C374 C373 1.348 . S
C374 C375 1.443 . S
C375 H339 0.932 . S
C375 C370 1.388 . S
C375 C374 1.443 . S
H376 C403 0.929 . S
N377 C402 1.433 . S
N377 C408 1.435 . S
N377 C414 1.423 . S
H378 C404 0.930 . S
H379 C407 0.931 . S
H380 C406 0.929 . S
H381 C409 0.930 . S
H382 C410 0.932 . S
H383 C413 0.929 . S
H384 C412 0.931 . S
H385 C415 0.929 . S
H386 C419 0.932 . S
H387 C416 0.931 . S
H388 C418 0.929 . S
H389 C421 0.929 . S
H390 C422 0.930 . S
H391 C424 0.929 . S
H392 C425 0.931 . S
H393 C427 0.930 . S
H394 C428 0.932 . S
H395 C430 0.931 . S
H396 C431 0.929 . S
H397 C433 0.929 . S
H398 C434 0.931 . S
H399 C436 0.929 . S
N400 C420 1.433 . S
N400 C426 1.435 . S
N400 C432 1.423 . S
H401 C437 0.932 . S
C402 N377 1.433 . S
C402 C403 1.363 . S
C402 C407 1.370 . S
C403 H376 0.929 . S
C403 C402 1.363 . S
C403 C404 1.385 . S
C404 H378 0.930 . S
C404 C403 1.385 . S
C404 C405 1.357 . S
C405 C404 1.357 . S
C405 C406 1.406 . S
C406 H380 0.929 . S
C406 C405 1.406 . S
C406 C407 1.391 . S
C407 H379 0.931 . S
C407 C402 1.370 . S
C407 C406 1.391 . S
C408 N377 1.435 . S
C408 C409 1.358 . S
C408 C413 1.371 . S
C409 H381 0.930 . S
C409 C408 1.358 . S
C409 C410 1.405 . S
C410 H382 0.932 . S
C410 C409 1.405 . S
C410 C411 1.383 . S
C411 C410 1.383 . S
C411 C412 1.393 . S
C412 H384 0.931 . S
C412 C411 1.393 . S
C412 C413 1.382 . S
C413 H383 0.929 . S
C413 C408 1.371 . S
C413 C412 1.382 . S
C414 N377 1.423 . S
C414 C415 1.362 . S
C414 C419 1.388 . S
C415 H385 0.929 . S
C415 C414 1.362 . S
C415 C416 1.376 . S
C416 H387 0.931 . S
C416 C415 1.376 . S
C416 C417 1.396 . S
C417 C416 1.396 . S
C417 C418 1.348 . S
C417 C435 1.472 . S
C418 H388 0.929 . S
C418 C417 1.348 . S
C418 C419 1.443 . S
C419 H386 0.932 . S
C419 C414 1.388 . S
C419 C418 1.443 . S
C420 N400 1.433 . S
C420 C421 1.363 . S
C420 C425 1.370 . S
C421 H389 0.929 . S
C421 C420 1.363 . S
C421 C422 1.385 . S
C422 H390 0.930 . S
C422 C421 1.385 . S
C422 C423 1.357 . S
C423 C422 1.357 . S
C423 C424 1.406 . S
C424 H391 0.929 . S
C424 C423 1.406 . S
C424 C425 1.391 . S
C425 H392 0.931 . S
C425 C420 1.370 . S
C425 C424 1.391 . S
C426 N400 1.435 . S
C426 C427 1.358 . S
C426 C431 1.371 . S
C427 H393 0.930 . S
C427 C426 1.358 . S
C427 C428 1.405 . S
C428 H394 0.932 . S
C428 C427 1.405 . S
C428 C429 1.383 . S
C429 C428 1.383 . S
C429 C430 1.393 . S
C430 H395 0.931 . S
C430 C429 1.393 . S
C430 C431 1.382 . S
C431 H396 0.929 . S
C431 C426 1.371 . S
C431 C430 1.382 . S
C432 N400 1.423 . S
C432 C433 1.362 . S
C432 C437 1.388 . S
C433 H397 0.929 . S
C433 C432 1.362 . S
C433 C434 1.376 . S
C434 H398 0.931 . S
C434 C433 1.376 . S
C434 C435 1.396 . S
C435 C417 1.472 . S
C435 C434 1.396 . S
C435 C436 1.348 . S
C436 H399 0.929 . S
C436 C435 1.348 . S
C436 C437 1.443 . S
C437 H401 0.932 . S
C437 C432 1.388 . S
C437 C436 1.443 . S
H438 C465 0.929 . S
N439 C464 1.433 . S
N439 C470 1.435 . S
N439 C476 1.423 . S
H440 C466 0.930 . S
H441 C469 0.931 . S
H442 C468 0.929 . S
H443 C471 0.930 . S
H444 C472 0.932 . S
H445 C475 0.929 . S
H446 C474 0.931 . S
H447 C477 0.929 . S
H448 C481 0.932 . S
H449 C478 0.931 . S
H450 C480 0.929 . S
H451 C483 0.929 . S
H452 C484 0.930 . S
H453 C486 0.929 . S
H454 C487 0.931 . S
H455 C489 0.930 . S
H456 C490 0.932 . S
H457 C492 0.931 . S
H458 C493 0.929 . S
H459 C495 0.929 . S
H460 C496 0.931 . S
H461 C498 0.929 . S
N462 C482 1.433 . S
N462 C488 1.435 . S
N462 C494 1.423 . S
H463 C499 0.932 . S
C464 N439 1.433 . S
C464 C465 1.363 . S
C464 C469 1.370 . S
C465 H438 0.929 . S
C465 C464 1.363 . S
C465 C466 1.385 . S
C466 H440 0.930 . S
C466 C465 1.385 . S
C466 C467 1.357 . S
C467 C466 1.357 . S
C467 C468 1.406 . S
C468 H442 0.929 . S
C468 C467 1.406 . S
C468 C469 1.391 . S
C469 H441 0.931 . S
C469 C464 1.370 . S
C469 C468 1.391 . S
C470 N439 1.435 . S
C470 C471 1.358 . S
C470 C475 1.371 . S
C471 H443 0.930 . S
C471 C470 1.358 . S
C471 C472 1.405 . S
C472 H444 0.932 . S
C472 C471 1.405 . S
C472 C473 1.383 . S
C473 C472 1.383 . S
C473 C474 1.393 . S
C474 H446 0.931 . S
C474 C473 1.393 . S
C474 C475 1.382 . S
C475 H445 0.929 . S
C475 C470 1.371 . S
C475 C474 1.382 . S
C476 N439 1.423 . S
C476 C477 1.362 . S
C476 C481 1.388 . S
C477 H447 0.929 . S
C477 C476 1.362 . S
C477 C478 1.376 . S
C478 H449 0.931 . S
C478 C477 1.376 . S
C478 C479 1.396 . S
C479 C478 1.396 . S
C479 C480 1.348 . S
C479 C497 1.472 . S
C480 H450 0.929 . S
C480 C479 1.348 . S
C480 C481 1.443 . S
C481 H448 0.932 . S
C481 C476 1.388 . S
C481 C480 1.443 . S
C482 N462 1.433 . S
C482 C483 1.363 . S
C482 C487 1.370 . S
C483 H451 0.929 . S
C483 C482 1.363 . S
C483 C484 1.385 . S
C484 H452 0.930 . S
C484 C483 1.385 . S
C484 C485 1.357 . S
C485 C484 1.357 . S
C485 C486 1.406 . S
C486 H453 0.929 . S
C486 C485 1.406 . S
C486 C487 1.391 . S
C487 H454 0.931 . S
C487 C482 1.370 . S
C487 C486 1.391 . S
C488 N462 1.435 . S
C488 C489 1.358 . S
C488 C493 1.371 . S
C489 H455 0.930 . S
C489 C488 1.358 . S
C489 C490 1.405 . S
C490 H456 0.932 . S
C490 C489 1.405 . S
C490 C491 1.383 . S
C491 C490 1.383 . S
C491 C492 1.393 . S
C492 H457 0.931 . S
C492 C491 1.393 . S
C492 C493 1.382 . S
C493 H458 0.929 . S
C493 C488 1.371 . S
C493 C492 1.382 . S
C494 N462 1.423 . S
C494 C495 1.362 . S
C494 C499 1.388 . S
C495 H459 0.929 . S
C495 C494 1.362 . S
C495 C496 1.376 . S
C496 H460 0.931 . S
C496 C495 1.376 . S
C496 C497 1.396 . S
C497 C479 1.472 . S
C497 C496 1.396 . S
C497 C498 1.348 . S
C498 H461 0.929 . S
C498 C497 1.348 . S
C498 C499 1.443 . S
C499 H463 0.932 . S
C499 C494 1.388 . S
C499 C498 1.443 . S
H500 C527 0.929 . S
N501 C526 1.433 . S
N501 C532 1.435 . S
N501 C538 1.423 . S
H502 C528 0.930 . S
H503 C531 0.931 . S
H504 C530 0.929 . S
H505 C533 0.930 . S
H506 C534 0.932 . S
H507 C537 0.929 . S
H508 C536 0.931 . S
H509 C539 0.929 . S
H510 C543 0.932 . S
H511 C540 0.931 . S
H512 C542 0.929 . S
H513 C545 0.929 . S
H514 C546 0.930 . S
H515 C548 0.929 . S
H516 C549 0.931 . S
H517 C551 0.930 . S
H518 C552 0.932 . S
H519 C554 0.931 . S
H520 C555 0.929 . S
H521 C557 0.929 . S
H522 C558 0.931 . S
H523 C560 0.929 . S
N524 C544 1.433 . S
N524 C550 1.435 . S
N524 C556 1.423 . S
H525 C561 0.932 . S
C526 N501 1.433 . S
C526 C527 1.363 . S
C526 C531 1.370 . S
C527 H500 0.929 . S
C527 C526 1.363 . S
C527 C528 1.385 . S
C528 H502 0.930 . S
C528 C527 1.385 . S
C528 C529 1.357 . S
C529 C528 1.357 . S
C529 C530 1.406 . S
C530 H504 0.929 . S
C530 C529 1.406 . S
C530 C531 1.391 . S
C531 H503 0.931 . S
C531 C526 1.370 . S
C531 C530 1.391 . S
C532 N501 1.435 . S
C532 C533 1.358 . S
C532 C537 1.371 . S
C533 H505 0.930 . S
C533 C532 1.358 . S
C533 C534 1.405 . S
C534 H506 0.932 . S
C534 C533 1.405 . S
C534 C535 1.383 . S
C535 C534 1.383 . S
C535 C536 1.393 . S
C536 H508 0.931 . S
C536 C535 1.393 . S
C536 C537 1.382 . S
C537 H507 0.929 . S
C537 C532 1.371 . S
C537 C536 1.382 . S
C538 N501 1.423 . S
C538 C539 1.362 . S
C538 C543 1.388 . S
C539 H509 0.929 . S
C539 C538 1.362 . S
C539 C540 1.376 . S
C540 H511 0.931 . S
C540 C539 1.376 . S
C540 C541 1.396 . S
C541 C540 1.396 . S
C541 C542 1.348 . S
C541 C559 1.472 . S
C542 H512 0.929 . S
C542 C541 1.348 . S
C542 C543 1.443 . S
C543 H510 0.932 . S
C543 C538 1.388 . S
C543 C542 1.443 . S
C544 N524 1.433 . S
C544 C545 1.363 . S
C544 C549 1.370 . S
C545 H513 0.929 . S
C545 C544 1.363 . S
C545 C546 1.385 . S
C546 H514 0.930 . S
C546 C545 1.385 . S
C546 C547 1.357 . S
C547 C546 1.357 . S
C547 C548 1.406 . S
C548 H515 0.929 . S
C548 C547 1.406 . S
C548 C549 1.391 . S
C549 H516 0.931 . S
C549 C544 1.370 . S
C549 C548 1.391 . S
C550 N524 1.435 . S
C550 C551 1.358 . S
C550 C555 1.371 . S
C551 H517 0.930 . S
C551 C550 1.358 . S
C551 C552 1.405 . S
C552 H518 0.932 . S
C552 C551 1.405 . S
C552 C553 1.383 . S
C553 C552 1.383 . S
C553 C554 1.393 . S
C554 H519 0.931 . S
C554 C553 1.393 . S
C554 C555 1.382 . S
C555 H520 0.929 . S
C555 C550 1.371 . S
C555 C554 1.382 . S
C556 N524 1.423 . S
C556 C557 1.362 . S
C556 C561 1.388 . S
C557 H521 0.929 . S
C557 C556 1.362 . S
C557 C558 1.376 . S
C558 H522 0.931 . S
C558 C557 1.376 . S
C558 C559 1.396 . S
C559 C541 1.472 . S
C559 C558 1.396 . S
C559 C560 1.348 . S
C560 H523 0.929 . S
C560 C559 1.348 . S
C560 C561 1.443 . S
C561 H525 0.932 . S
C561 C556 1.388 . S
C561 C560 1.443 . S
H562 C589 0.929 . S
N563 C588 1.433 . S
N563 C594 1.435 . S
N563 C600 1.423 . S
H564 C590 0.930 . S
H565 C593 0.931 . S
H566 C592 0.929 . S
H567 C595 0.930 . S
H568 C596 0.932 . S
H569 C599 0.929 . S
H570 C598 0.931 . S
H571 C601 0.929 . S
H572 C605 0.932 . S
H573 C602 0.931 . S
H574 C604 0.929 . S
H575 C607 0.929 . S
H576 C608 0.930 . S
H577 C610 0.929 . S
H578 C611 0.931 . S
H579 C613 0.930 . S
H580 C614 0.932 . S
H581 C616 0.931 . S
H582 C617 0.929 . S
H583 C619 0.929 . S
H584 C620 0.931 . S
H585 C622 0.929 . S
N586 C606 1.433 . S
N586 C612 1.435 . S
N586 C618 1.423 . S
H587 C623 0.932 . S
C588 N563 1.433 . S
C588 C589 1.363 . S
C588 C593 1.370 . S
C589 H562 0.929 . S
C589 C588 1.363 . S
C589 C590 1.385 . S
C590 H564 0.930 . S
C590 C589 1.385 . S
C590 C591 1.357 . S
C591 C590 1.357 . S
C591 C592 1.406 . S
C592 H566 0.929 . S
C592 C591 1.406 . S
C592 C593 1.391 . S
C593 H565 0.931 . S
C593 C588 1.370 . S
C593 C592 1.391 . S
C594 N563 1.435 . S
C594 C595 1.358 . S
C594 C599 1.371 . S
C595 H567 0.930 . S
C595 C594 1.358 . S
C595 C596 1.405 . S
C596 H568 0.932 . S
C596 C595 1.405 . S
C596 C597 1.383 . S
C597 C596 1.383 . S
C597 C598 1.393 . S
C598 H570 0.931 . S
C598 C597 1.393 . S
C598 C599 1.382 . S
C599 H569 0.929 . S
C599 C594 1.371 . S
C599 C598 1.382 . S
C600 N563 1.423 . S
C600 C601 1.362 . S
C600 C605 1.388 . S
C601 H571 0.929 . S
C601 C600 1.362 . S
C601 C602 1.376 . S
C602 H573 0.931 . S
C602 C601 1.376 . S
C602 C603 1.396 . S
C603 C602 1.396 . S
C603 C604 1.348 . S
C603 C621 1.472 . S
C604 H574 0.929 . S
C604 C603 1.348 . S
C604 C605 1.443 . S
C605 H572 0.932 . S
C605 C600 1.388 . S
C605 C604 1.443 . S
C606 N586 1.433 . S
C606 C607 1.363 . S
C606 C611 1.370 . S
C607 H575 0.929 . S
C607 C606 1.363 . S
C607 C608 1.385 . S
C608 H576 0.930 . S
C608 C607 1.385 . S
C608 C609 1.357 . S
C609 C608 1.357 . S
C609 C610 1.406 . S
C610 H577 0.929 . S
C610 C609 1.406 . S
C610 C611 1.391 . S
C611 H578 0.931 . S
C611 C606 1.370 . S
C611 C610 1.391 . S
C612 N586 1.435 . S
C612 C613 1.358 . S
C612 C617 1.371 . S
C613 H579 0.930 . S
C613 C612 1.358 . S
C613 C614 1.405 . S
C614 H580 0.932 . S
C614 C613 1.405 . S
C614 C615 1.383 . S
C615 C614 1.383 . S
C615 C616 1.393 . S
C616 H581 0.931 . S
C616 C615 1.393 . S
C616 C617 1.382 . S
C617 H582 0.929 . S
C617 C612 1.371 . S
C617 C616 1.382 . S
C618 N586 1.423 . S
C618 C619 1.362 . S
C618 C623 1.388 . S
C619 H583 0.929 . S
C619 C618 1.362 . S
C619 C620 1.376 . S
C620 H584 0.931 . S
C620 C619 1.376 . S
C620 C621 1.396 . S
C621 C603 1.472 . S
C621 C620 1.396 . S
C621 C622 1.348 . S
C622 H585 0.929 . S
C622 C621 1.348 . S
C622 C623 1.443 . S
C623 H587 0.932 . S
C623 C618 1.388 . S
C623 C622 1.443 . S
H624 C651 0.929 . S
N625 C650 1.433 . S
N625 C656 1.435 . S
N625 C662 1.423 . S
H626 C652 0.930 . S
H627 C655 0.931 . S
H628 C654 0.929 . S
H629 C657 0.930 . S
H630 C658 0.932 . S
H631 C661 0.929 . S
H632 C660 0.931 . S
H633 C663 0.929 . S
H634 C667 0.932 . S
H635 C664 0.931 . S
H636 C666 0.929 . S
H637 C669 0.929 . S
H638 C670 0.930 . S
H639 C672 0.929 . S
H640 C673 0.931 . S
H641 C675 0.930 . S
H642 C676 0.932 . S
H643 C678 0.931 . S
H644 C679 0.929 . S
H645 C681 0.929 . S
H646 C682 0.931 . S
H647 C684 0.929 . S
N648 C668 1.433 . S
N648 C674 1.435 . S
N648 C680 1.423 . S
H649 C685 0.932 . S
C650 N625 1.433 . S
C650 C651 1.363 . S
C650 C655 1.370 . S
C651 H624 0.929 . S
C651 C650 1.363 . S
C651 C652 1.385 . S
C652 H626 0.930 . S
C652 C651 1.385 . S
C652 C653 1.357 . S
C653 C652 1.357 . S
C653 C654 1.406 . S
C654 H628 0.929 . S
C654 C653 1.406 . S
C654 C655 1.391 . S
C655 H627 0.931 . S
C655 C650 1.370 . S
C655 C654 1.391 . S
C656 N625 1.435 . S
C656 C657 1.358 . S
C656 C661 1.371 . S
C657 H629 0.930 . S
C657 C656 1.358 . S
C657 C658 1.405 . S
C658 H630 0.932 . S
C658 C657 1.405 . S
C658 C659 1.383 . S
C659 C658 1.383 . S
C659 C660 1.393 . S
C660 H632 0.931 . S
C660 C659 1.393 . S
C660 C661 1.382 . S
C661 H631 0.929 . S
C661 C656 1.371 . S
C661 C660 1.382 . S
C662 N625 1.423 . S
C662 C663 1.362 . S
C662 C667 1.388 . S
C663 H633 0.929 . S
C663 C662 1.362 . S
C663 C664 1.376 . S
C664 H635 0.931 . S
C664 C663 1.376 . S
C664 C665 1.396 . S
C665 C664 1.396 . S
C665 C666 1.348 . S
C665 C683 1.472 . S
C666 H636 0.929 . S
C666 C665 1.348 . S
C666 C667 1.443 . S
C667 H634 0.932 . S
C667 C662 1.388 . S
C667 C666 1.443 . S
C668 N648 1.433 . S
C668 C669 1.363 . S
C668 C673 1.370 . S
C669 H637 0.929 . S
C669 C668 1.363 . S
C669 C670 1.385 . S
C670 H638 0.930 . S
C670 C669 1.385 . S
C670 C671 1.357 . S
C671 C670 1.357 . S
C671 C672 1.406 . S
C672 H639 0.929 . S
C672 C671 1.406 . S
C672 C673 1.391 . S
C673 H640 0.931 . S
C673 C668 1.370 . S
C673 C672 1.391 . S
C674 N648 1.435 . S
C674 C675 1.358 . S
C674 C679 1.371 . S
C675 H641 0.930 . S
C675 C674 1.358 . S
C675 C676 1.405 . S
C676 H642 0.932 . S
C676 C675 1.405 . S
C676 C677 1.383 . S
C677 C676 1.383 . S
C677 C678 1.393 . S
C678 H643 0.931 . S
C678 C677 1.393 . S
C678 C679 1.382 . S
C679 H644 0.929 . S
C679 C674 1.371 . S
C679 C678 1.382 . S
C680 N648 1.423 . S
C680 C681 1.362 . S
C680 C685 1.388 . S
C681 H645 0.929 . S
C681 C680 1.362 . S
C681 C682 1.376 . S
C682 H646 0.931 . S
C682 C681 1.376 . S
C682 C683 1.396 . S
C683 C665 1.472 . S
C683 C682 1.396 . S
C683 C684 1.348 . S
C684 H647 0.929 . S
C684 C683 1.348 . S
C684 C685 1.443 . S
C685 H649 0.932 . S
C685 C680 1.388 . S
C685 C684 1.443 . S
H686 C713 0.929 . S
N687 C712 1.433 . S
N687 C718 1.435 . S
N687 C724 1.423 . S
H688 C714 0.930 . S
H689 C717 0.931 . S
H690 C716 0.929 . S
H691 C719 0.930 . S
H692 C720 0.932 . S
H693 C723 0.929 . S
H694 C722 0.931 . S
H695 C725 0.929 . S
H696 C729 0.932 . S
H697 C726 0.931 . S
H698 C728 0.929 . S
H699 C731 0.929 . S
H700 C732 0.930 . S
H701 C734 0.929 . S
H702 C735 0.931 . S
H703 C737 0.930 . S
H704 C738 0.932 . S
H705 C740 0.931 . S
H706 C741 0.929 . S
H707 C743 0.929 . S
H708 C744 0.931 . S
H709 C746 0.929 . S
N710 C730 1.433 . S
N710 C736 1.435 . S
N710 C742 1.423 . S
H711 C747 0.932 . S
C712 N687 1.433 . S
C712 C713 1.363 . S
C712 C717 1.370 . S
C713 H686 0.929 . S
C713 C712 1.363 . S
C713 C714 1.385 . S
C714 H688 0.930 . S
C714 C713 1.385 . S
C714 C715 1.357 . S
C715 C714 1.357 . S
C715 C716 1.406 . S
C716 H690 0.929 . S
C716 C715 1.406 . S
C716 C717 1.391 . S
C717 H689 0.931 . S
C717 C712 1.370 . S
C717 C716 1.391 . S
C718 N687 1.435 . S
C718 C719 1.358 . S
C718 C723 1.371 . S
C719 H691 0.930 . S
C719 C718 1.358 . S
C719 C720 1.405 . S
C720 H692 0.932 . S
C720 C719 1.405 . S
C720 C721 1.383 . S
C721 C720 1.383 . S
C721 C722 1.393 . S
C722 H694 0.931 . S
C722 C721 1.393 . S
C722 C723 1.382 . S
C723 H693 0.929 . S
C723 C718 1.371 . S
C723 C722 1.382 . S
C724 N687 1.423 . S
C724 C725 1.362 . S
C724 C729 1.388 . S
C725 H695 0.929 . S
C725 C724 1.362 . S
C725 C726 1.376 . S
C726 H697 0.931 . S
C726 C725 1.376 . S
C726 C727 1.396 . S
C727 C726 1.396 . S
C727 C728 1.348 . S
C727 C745 1.472 . S
C728 H698 0.929 . S
C728 C727 1.348 . S
C728 C729 1.443 . S
C729 H696 0.932 . S
C729 C724 1.388 . S
C729 C728 1.443 . S
C730 N710 1.433 . S
C730 C731 1.363 . S
C730 C735 1.370 . S
C731 H699 0.929 . S
C731 C730 1.363 . S
C731 C732 1.385 . S
C732 H700 0.930 . S
C732 C731 1.385 . S
C732 C733 1.357 . S
C733 C732 1.357 . S
C733 C734 1.406 . S
C734 H701 0.929 . S
C734 C733 1.406 . S
C734 C735 1.391 . S
C735 H702 0.931 . S
C735 C730 1.370 . S
C735 C734 1.391 . S
C736 N710 1.435 . S
C736 C737 1.358 . S
C736 C741 1.371 . S
C737 H703 0.930 . S
C737 C736 1.358 . S
C737 C738 1.405 . S
C738 H704 0.932 . S
C738 C737 1.405 . S
C738 C739 1.383 . S
C739 C738 1.383 . S
C739 C740 1.393 . S
C740 H705 0.931 . S
C740 C739 1.393 . S
C740 C741 1.382 . S
C741 H706 0.929 . S
C741 C736 1.371 . S
C741 C740 1.382 . S
C742 N710 1.423 . S
C742 C743 1.362 . S
C742 C747 1.388 . S
C743 H707 0.929 . S
C743 C742 1.362 . S
C743 C744 1.376 . S
C744 H708 0.931 . S
C744 C743 1.376 . S
C744 C745 1.396 . S
C745 C727 1.472 . S
C745 C744 1.396 . S
C745 C746 1.348 . S
C746 H709 0.929 . S
C746 C745 1.348 . S
C746 C747 1.443 . S
C747 H711 0.932 . S
C747 C742 1.388 . S
C747 C746 1.443 . S
H748 C775 0.929 . S
N749 C774 1.433 . S
N749 C780 1.435 . S
N749 C786 1.423 . S
H750 C776 0.930 . S
H751 C779 0.931 . S
H752 C778 0.929 . S
H753 C781 0.930 . S
H754 C782 0.932 . S
H755 C785 0.929 . S
H756 C784 0.931 . S
H757 C787 0.929 . S
H758 C791 0.932 . S
H759 C788 0.931 . S
H760 C790 0.929 . S
H761 C793 0.929 . S
H762 C794 0.930 . S
H763 C796 0.929 . S
H764 C797 0.931 . S
H765 C799 0.930 . S
H766 C800 0.932 . S
H767 C802 0.931 . S
H768 C803 0.929 . S
H769 C805 0.929 . S
H770 C806 0.931 . S
H771 C808 0.929 . S
N772 C792 1.433 . S
N772 C798 1.435 . S
N772 C804 1.423 . S
H773 C809 0.932 . S
C774 N749 1.433 . S
C774 C775 1.363 . S
C774 C779 1.370 . S
C775 H748 0.929 . S
C775 C774 1.363 . S
C775 C776 1.385 . S
C776 H750 0.930 . S
C776 C775 1.385 . S
C776 C777 1.357 . S
C777 C776 1.357 . S
C777 C778 1.406 . S
C778 H752 0.929 . S
C778 C777 1.406 . S
C778 C779 1.391 . S
C779 H751 0.931 . S
C779 C774 1.370 . S
C779 C778 1.391 . S
C780 N749 1.435 . S
C780 C781 1.358 . S
C780 C785 1.371 . S
C781 H753 0.930 . S
C781 C780 1.358 . S
C781 C782 1.405 . S
C782 H754 0.932 . S
C782 C781 1.405 . S
C782 C783 1.383 . S
C783 C782 1.383 . S
C783 C784 1.393 . S
C784 H756 0.931 . S
C784 C783 1.393 . S
C784 C785 1.382 . S
C785 H755 0.929 . S
C785 C780 1.371 . S
C785 C784 1.382 . S
C786 N749 1.423 . S
C786 C787 1.362 . S
C786 C791 1.388 . S
C787 H757 0.929 . S
C787 C786 1.362 . S
C787 C788 1.376 . S
C788 H759 0.931 . S
C788 C787 1.376 . S
C788 C789 1.396 . S
C789 C788 1.396 . S
C789 C790 1.348 . S
C789 C807 1.472 . S
C790 H760 0.929 . S
C790 C789 1.348 . S
C790 C791 1.443 . S
C791 H758 0.932 . S
C791 C786 1.388 . S
C791 C790 1.443 . S
C792 N772 1.433 . S
C792 C793 1.363 . S
C792 C797 1.370 . S
C793 H761 0.929 . S
C793 C792 1.363 . S
C793 C794 1.385 . S
C794 H762 0.930 . S
C794 C793 1.385 . S
C794 C795 1.357 . S
C795 C794 1.357 . S
C795 C796 1.406 . S
C796 H763 0.929 . S
C796 C795 1.406 . S
C796 C797 1.391 . S
C797 H764 0.931 . S
C797 C792 1.370 . S
C797 C796 1.391 . S
C798 N772 1.435 . S
C798 C799 1.358 . S
C798 C803 1.371 . S
C799 H765 0.930 . S
C799 C798 1.358 . S
C799 C800 1.405 . S
C800 H766 0.932 . S
C800 C799 1.405 . S
C800 C801 1.383 . S
C801 C800 1.383 . S
C801 C802 1.393 . S
C802 H767 0.931 . S
C802 C801 1.393 . S
C802 C803 1.382 . S
C803 H768 0.929 . S
C803 C798 1.371 . S
C803 C802 1.382 . S
C804 N772 1.423 . S
C804 C805 1.362 . S
C804 C809 1.388 . S
C805 H769 0.929 . S
C805 C804 1.362 . S
C805 C806 1.376 . S
C806 H770 0.931 . S
C806 C805 1.376 . S
C806 C807 1.396 . S
C807 C789 1.472 . S
C807 C806 1.396 . S
C807 C808 1.348 . S
C808 H771 0.929 . S
C808 C807 1.348 . S
C808 C809 1.443 . S
C809 H773 0.932 . S
C809 C804 1.388 . S
C809 C808 1.443 . S
H810 C837 0.929 . S
N811 C836 1.433 . S
N811 C842 1.435 . S
N811 C848 1.423 . S
H812 C838 0.930 . S
H813 C841 0.931 . S
H814 C840 0.929 . S
H815 C843 0.930 . S
H816 C844 0.932 . S
H817 C847 0.929 . S
H818 C846 0.931 . S
H819 C849 0.929 . S
H820 C853 0.932 1_655 S
H821 C850 0.931 . S
H822 C852 0.942 . S
H823 C855 0.929 . S
H824 C856 0.930 . S
H825 C858 0.929 . S
H826 C859 0.931 . S
H827 C861 0.930 . S
H828 C862 0.932 . S
H829 C864 0.931 . S
H830 C865 0.929 . S
H831 C867 0.929 . S
H832 C868 0.931 . S
H833 C870 0.929 . S
N834 C854 1.433 . S
N834 C860 1.435 . S
N834 C866 1.423 . S
H835 C871 0.932 1_655 S
C836 N811 1.433 . S
C836 C837 1.363 . S
C836 C841 1.370 1_455 S
C837 H810 0.929 . S
C837 C836 1.363 . S
C837 C838 1.385 . S
C838 H812 0.930 . S
C838 C837 1.385 . S
C838 C839 1.357 1_455 S
C839 C838 1.357 1_655 S
C839 C840 1.406 . S
C840 H814 0.929 . S
C840 C839 1.406 . S
C840 C841 1.391 . S
C841 H813 0.931 . S
C841 C836 1.370 1_655 S
C841 C840 1.391 . S
C842 N811 1.435 . S
C842 C843 1.358 1_455 S
C842 C847 1.371 . S
C843 H815 0.930 . S
C843 C842 1.358 1_655 S
C843 C844 1.405 . S
C844 H816 0.932 . S
C844 C843 1.405 . S
C844 C845 1.383 1_655 S
C845 C844 1.383 1_455 S
C845 C846 1.393 . S
C846 H818 0.931 . S
C846 C845 1.393 . S
C846 C847 1.382 . S
C847 H817 0.929 . S
C847 C842 1.371 . S
C847 C846 1.382 . S
C848 N811 1.423 . S
C848 C849 1.362 . S
C848 C853 1.388 . S
C849 H819 0.929 . S
C849 C848 1.362 . S
C849 C850 1.376 . S
C850 H821 0.931 . S
C850 C849 1.376 . S
C850 C851 1.396 . S
C851 C850 1.396 . S
C851 C852 1.348 . S
C851 C869 1.472 . S
C852 H822 0.942 . S
C852 C851 1.348 . S
C852 C853 1.443 . S
C853 H820 0.932 1_455 S
C853 C848 1.388 . S
C853 C852 1.443 . S
C854 N834 1.433 . S
C854 C855 1.363 . S
C854 C859 1.370 1_455 S
C855 H823 0.929 . S
C855 C854 1.363 . S
C855 C856 1.385 . S
C856 H824 0.930 . S
C856 C855 1.385 . S
C856 C857 1.357 1_455 S
C857 C856 1.357 1_655 S
C857 C858 1.406 . S
C858 H825 0.929 . S
C858 C857 1.406 . S
C858 C859 1.391 . S
C859 H826 0.931 . S
C859 C854 1.370 1_655 S
C859 C858 1.391 . S
C860 N834 1.435 . S
C860 C861 1.358 1_455 S
C860 C865 1.371 . S
C861 H827 0.930 . S
C861 C860 1.358 1_655 S
C861 C862 1.405 . S
C862 H828 0.932 . S
C862 C861 1.405 . S
C862 C863 1.383 1_655 S
C863 C862 1.383 1_455 S
C863 C864 1.393 . S
C864 H829 0.931 . S
C864 C863 1.393 . S
C864 C865 1.382 . S
C865 H830 0.929 . S
C865 C860 1.371 . S
C865 C864 1.382 . S
C866 N834 1.423 . S
C866 C867 1.362 . S
C866 C871 1.388 . S
C867 H831 0.929 . S
C867 C866 1.362 . S
C867 C868 1.376 . S
C868 H832 0.931 . S
C868 C867 1.376 . S
C868 C869 1.396 . S
C869 C851 1.472 . S
C869 C868 1.396 . S
C869 C870 1.348 . S
C870 H833 0.929 . S
C870 C869 1.348 . S
C870 C871 1.443 . S
C871 H835 0.932 1_455 S
C871 C866 1.388 . S
C871 C870 1.443 . S
H872 C899 0.929 . S
N873 C898 1.433 . S
N873 C904 1.435 . S
N873 C910 1.423 . S
H874 C900 0.930 . S
H875 C903 0.931 . S
H876 C902 0.929 . S
H877 C905 0.930 . S
H878 C906 0.932 . S
H879 C909 0.929 . S
H880 C908 0.931 . S
H881 C911 0.929 . S
H882 C915 0.932 . S
H883 C912 0.931 . S
H884 C914 0.929 . S
H885 C917 0.929 . S
H886 C918 0.930 . S
H887 C920 0.929 . S
H888 C921 0.931 . S
H889 C923 0.930 . S
H890 C924 0.932 . S
H891 C926 0.931 . S
H892 C927 0.929 . S
H893 C929 0.929 . S
H894 C930 0.931 . S
H895 C932 0.929 . S
N896 C916 1.433 . S
N896 C922 1.435 . S
N896 C928 1.423 . S
H897 C933 0.932 . S
C898 N873 1.433 . S
C898 C899 1.363 . S
C898 C903 1.370 . S
C899 H872 0.929 . S
C899 C898 1.363 . S
C899 C900 1.385 . S
C900 H874 0.930 . S
C900 C899 1.385 . S
C900 C901 1.357 . S
C901 C900 1.357 . S
C901 C902 1.406 . S
C902 H876 0.929 . S
C902 C901 1.406 . S
C902 C903 1.391 . S
C903 H875 0.931 . S
C903 C898 1.370 . S
C903 C902 1.391 . S
C904 N873 1.435 . S
C904 C905 1.358 . S
C904 C909 1.371 . S
C905 H877 0.930 . S
C905 C904 1.358 . S
C905 C906 1.405 . S
C906 H878 0.932 . S
C906 C905 1.405 . S
C906 C907 1.383 . S
C907 C906 1.383 . S
C907 C908 1.393 . S
C908 H880 0.931 . S
C908 C907 1.393 . S
C908 C909 1.382 . S
C909 H879 0.929 . S
C909 C904 1.371 . S
C909 C908 1.382 . S
C910 N873 1.423 . S
C910 C911 1.362 . S
C910 C915 1.388 . S
C911 H881 0.929 . S
C911 C910 1.362 . S
C911 C912 1.376 . S
C912 H883 0.931 . S
C912 C911 1.376 . S
C912 C913 1.396 . S
C913 C912 1.396 . S
C913 C914 1.348 . S
C913 C931 1.472 . S
C914 H884 0.929 . S
C914 C913 1.348 . S
C914 C915 1.443 . S
C915 H882 0.932 . S
C915 C910 1.388 . S
C915 C914 1.443 . S
C916 N896 1.433 . S
C916 C917 1.363 . S
C916 C921 1.370 . S
C917 H885 0.929 . S
C917 C916 1.363 . S
C917 C918 1.385 . S
C918 H886 0.930 . S
C918 C917 1.385 . S
C918 C919 1.357 . S
C919 C918 1.357 . S
C919 C920 1.406 . S
C920 H887 0.929 . S
C920 C919 1.406 . S
C920 C921 1.391 . S
C921 H888 0.931 . S
C921 C916 1.370 . S
C921 C920 1.391 . S
C922 N896 1.435 . S
C922 C923 1.358 . S
C922 C927 1.371 . S
C923 H889 0.930 . S
C923 C922 1.358 . S
C923 C924 1.405 . S
C924 H890 0.932 . S
C924 C923 1.405 . S
C924 C925 1.383 . S
C925 C924 1.383 . S
C925 C926 1.393 . S
C926 H891 0.931 . S
C926 C925 1.393 . S
C926 C927 1.382 . S
C927 H892 0.929 . S
C927 C922 1.371 . S
C927 C926 1.382 . S
C928 N896 1.423 . S
C928 C929 1.362 . S
C928 C933 1.388 . S
C929 H893 0.929 . S
C929 C928 1.362 . S
C929 C930 1.376 . S
C930 H894 0.931 . S
C930 C929 1.376 . S
C930 C931 1.396 . S
C931 C913 1.472 . S
C931 C930 1.396 . S
C931 C932 1.348 . S
C932 H895 0.929 . S
C932 C931 1.348 . S
C932 C933 1.443 . S
C933 H897 0.932 . S
C933 C928 1.388 . S
C933 C932 1.443 . S
H934 C961 0.929 . S
N935 C960 1.433 . S
N935 C966 1.435 . S
N935 C972 1.423 . S
H936 C962 0.930 . S
H937 C965 0.931 . S
H938 C964 0.929 . S
H939 C967 0.930 . S
H940 C968 0.932 . S
H941 C971 0.929 . S
H942 C970 0.931 . S
H943 C973 0.929 . S
H944 C977 0.932 1_545 S
H945 C974 0.931 . S
H946 C976 0.929 . S
H947 C979 0.929 . S
H948 C980 0.930 . S
H949 C982 0.929 . S
H950 C983 0.931 . S
H951 C985 0.930 . S
H952 C986 0.932 . S
H953 C988 0.931 . S
H954 C989 0.929 . S
H955 C991 0.929 . S
H956 C992 0.931 . S
H957 C994 0.929 . S
N958 C978 1.433 . S
N958 C984 1.435 . S
N958 C990 1.423 . S
H959 C995 0.932 1_545 S
C960 N935 1.433 . S
C960 C961 1.363 . S
C960 C965 1.370 1_565 S
C961 H934 0.929 . S
C961 C960 1.363 . S
C961 C962 1.385 . S
C962 H936 0.930 . S
C962 C961 1.385 . S
C962 C963 1.357 1_565 S
C963 C962 1.357 1_545 S
C963 C964 1.406 . S
C964 H938 0.929 . S
C964 C963 1.406 . S
C964 C965 1.391 . S
C965 H937 0.931 . S
C965 C960 1.370 1_545 S
C965 C964 1.391 . S
C966 N935 1.435 . S
C966 C967 1.358 1_565 S
C966 C971 1.371 . S
C967 H939 0.930 . S
C967 C966 1.358 1_545 S
C967 C968 1.405 . S
C968 H940 0.932 . S
C968 C967 1.405 . S
C968 C969 1.383 1_545 S
C969 C968 1.383 1_565 S
C969 C970 1.393 . S
C970 H942 0.931 . S
C970 C969 1.393 . S
C970 C971 1.382 . S
C971 H941 0.929 . S
C971 C966 1.371 . S
C971 C970 1.382 . S
C972 N935 1.423 . S
C972 C973 1.362 . S
C972 C977 1.388 . S
C973 H943 0.929 . S
C973 C972 1.362 . S
C973 C974 1.376 . S
C974 H945 0.931 . S
C974 C973 1.376 . S
C974 C975 1.396 . S
C975 C974 1.396 . S
C975 C976 1.348 . S
C975 C993 1.472 . S
C976 H946 0.929 . S
C976 C975 1.348 . S
C976 C977 1.443 . S
C977 H944 0.932 1_565 S
C977 C972 1.388 . S
C977 C976 1.443 . S
C978 N958 1.433 . S
C978 C979 1.363 . S
C978 C983 1.370 1_565 S
C979 H947 0.929 . S
C979 C978 1.363 . S
C979 C980 1.385 . S
C980 H948 0.930 . S
C980 C979 1.385 . S
C980 C981 1.357 1_565 S
C981 C980 1.357 1_545 S
C981 C982 1.406 . S
C982 H949 0.929 . S
C982 C981 1.406 . S
C982 C983 1.391 . S
C983 H950 0.931 . S
C983 C978 1.370 1_545 S
C983 C982 1.391 . S
C984 N958 1.435 . S
C984 C985 1.358 1_565 S
C984 C989 1.371 . S
C985 H951 0.930 . S
C985 C984 1.358 1_545 S
C985 C986 1.405 . S
C986 H952 0.932 . S
C986 C985 1.405 . S
C986 C987 1.383 1_545 S
C987 C986 1.383 1_565 S
C987 C988 1.393 . S
C988 H953 0.931 . S
C988 C987 1.393 . S
C988 C989 1.382 . S
C989 H954 0.929 . S
C989 C984 1.371 . S
C989 C988 1.382 . S
C990 N958 1.423 . S
C990 C991 1.362 . S
C990 C995 1.388 . S
C991 H955 0.929 . S
C991 C990 1.362 . S
C991 C992 1.376 . S
C992 H956 0.931 . S
C992 C991 1.376 . S
C992 C993 1.396 . S
C993 C975 1.472 . S
C993 C992 1.396 . S
C993 C994 1.348 . S
C994 H957 0.929 . S
C994 C993 1.348 . S
C994 C995 1.443 . S
C995 H959 0.932 1_565 S
C995 C990 1.388 . S
C995 C994 1.443 . S
H996 C1023 0.929 . S
N997 C1022 1.433 . S
N997 C1028 1.435 . S
N997 C1034 1.423 . S
H998 C1024 0.930 . S
H999 C1027 0.930 . S
H1000 C1026 0.945 . S
H1001 C1029 0.930 . S
H1002 C1030 0.932 . S
H1003 C1033 0.929 . S
H1004 C1032 0.931 . S
H1005 C1035 0.929 . S
H1006 C1039 1.009 . S
H1007 C1036 0.931 . S
H1008 C1038 0.918 1_545 S
H1009 C1041 0.929 . S
H1010 C1042 0.930 . S
H1011 C1044 0.929 . S
H1012 C1045 1.004 . S
H1013 C1047 0.930 . S
H1014 C1048 0.932 . S
H1015 C1050 0.931 . S
H1016 C1051 0.929 . S
H1017 C1053 0.929 . S
H1018 C1054 0.931 . S
H1019 C1056 0.897 1_545 S
N1020 C1040 1.433 . S
N1020 C1046 1.435 . S
N1020 C1052 1.423 . S
H1021 C1057 0.932 . S
C1022 N997 1.433 . S
C1022 C1023 1.363 . S
C1022 C1027 1.364 1_565 S
C1023 H996 0.929 . S
C1023 C1022 1.363 . S
C1023 C1024 1.385 . S
C1024 H998 0.930 . S
C1024 C1023 1.385 . S
C1024 C1025 1.357 . S
C1025 C1024 1.357 . S
C1025 C1026 1.412 1_565 S
C1026 H1000 0.945 . S
C1026 C1025 1.412 1_545 S
C1026 C1027 1.387 . S
C1027 H999 0.930 . S
C1027 C1022 1.364 1_545 S
C1027 C1026 1.387 . S
C1028 N997 1.435 . S
C1028 C1029 1.358 1_565 S
C1028 C1033 1.371 . S
C1029 H1001 0.930 . S
C1029 C1028 1.358 1_545 S
C1029 C1030 1.405 . S
C1030 H1002 0.932 . S
C1030 C1029 1.405 . S
C1030 C1031 1.383 . S
C1031 C1030 1.383 . S
C1031 C1032 1.393 1_545 S
C1032 H1004 0.931 . S
C1032 C1031 1.393 1_565 S
C1032 C1033 1.382 . S
C1033 H1003 0.929 . S
C1033 C1028 1.371 . S
C1033 C1032 1.382 . S
C1034 N997 1.423 . S
C1034 C1035 1.362 . S
C1034 C1039 1.365 1_565 S
C1035 H1005 0.929 . S
C1035 C1034 1.362 . S
C1035 C1036 1.376 . S
C1036 H1007 0.931 . S
C1036 C1035 1.376 . S
C1036 C1037 1.396 . S
C1037 C1036 1.396 . S
C1037 C1038 1.392 . S
C1037 C1055 1.472 . S
C1038 H1008 0.918 1_565 S
C1038 C1037 1.392 . S
C1038 C1039 1.364 1_565 S
C1039 H1006 1.009 . S
C1039 C1034 1.365 1_545 S
C1039 C1038 1.364 1_545 S
C1040 N1020 1.433 . S
C1040 C1041 1.363 . S
C1040 C1045 1.315 1_565 S
C1041 H1009 0.929 . S
C1041 C1040 1.363 . S
C1041 C1042 1.385 . S
C1042 H1010 0.930 . S
C1042 C1041 1.385 . S
C1042 C1043 1.357 . S
C1043 C1042 1.357 . S
C1043 C1044 1.406 1_565 S
C1044 H1011 0.929 . S
C1044 C1043 1.406 1_545 S
C1044 C1045 1.379 . S
C1045 H1012 1.004 . S
C1045 C1040 1.315 1_545 S
C1045 C1044 1.379 . S
C1046 N1020 1.435 . S
C1046 C1047 1.358 1_565 S
C1046 C1051 1.371 . S
C1047 H1013 0.930 . S
C1047 C1046 1.358 1_545 S
C1047 C1048 1.405 . S
C1048 H1014 0.932 . S
C1048 C1047 1.405 . S
C1048 C1049 1.383 . S
C1049 C1048 1.383 . S
C1049 C1050 1.393 1_545 S
C1050 H1015 0.931 . S
C1050 C1049 1.393 1_565 S
C1050 C1051 1.382 . S
C1051 H1016 0.929 . S
C1051 C1046 1.371 . S
C1051 C1050 1.382 . S
C1052 N1020 1.423 . S
C1052 C1053 1.362 . S
C1052 C1057 1.388 1_565 S
C1053 H1017 0.929 . S
C1053 C1052 1.362 . S
C1053 C1054 1.376 . S
C1054 H1018 0.931 . S
C1054 C1053 1.376 . S
C1054 C1055 1.396 . S
C1055 C1037 1.472 . S
C1055 C1054 1.396 . S
C1055 C1056 1.361 . S
C1056 H1019 0.897 1_565 S
C1056 C1055 1.361 . S
C1056 C1057 1.462 1_565 S
C1057 H1021 0.932 . S
C1057 C1052 1.388 1_545 S
C1057 C1056 1.462 1_545 S
H1058 C1085 0.929 . S
N1059 C1084 1.433 . S
N1059 C1090 1.435 . S
N1059 C1096 1.423 . S
H1060 C1086 0.930 . S
H1061 C1089 0.931 . S
H1062 C1088 0.929 . S
H1063 C1091 0.930 . S
H1064 C1092 0.932 . S
H1065 C1095 0.929 . S
H1066 C1094 0.931 . S
H1067 C1097 0.929 . S
H1068 C1101 0.932 1_455 S
H1069 C1098 0.931 . S
H1070 C1100 0.929 . S
H1071 C1103 0.929 . S
H1072 C1104 0.930 . S
H1073 C1106 0.929 . S
H1074 C1107 0.931 . S
H1075 C1109 0.930 . S
H1076 C1110 0.932 . S
H1077 C1112 0.931 . S
H1078 C1113 0.929 . S
H1079 C1115 0.929 . S
H1080 C1116 0.931 . S
H1081 C1118 0.929 . S
N1082 C1102 1.433 . S
N1082 C1108 1.435 . S
N1082 C1114 1.423 . S
H1083 C1119 0.932 1_455 S
C1084 N1059 1.433 . S
C1084 C1085 1.363 . S
C1084 C1089 1.370 1_655 S
C1085 H1058 0.929 . S
C1085 C1084 1.363 . S
C1085 C1086 1.385 . S
C1086 H1060 0.930 . S
C1086 C1085 1.385 . S
C1086 C1087 1.357 1_655 S
C1087 C1086 1.357 1_455 S
C1087 C1088 1.406 . S
C1088 H1062 0.929 . S
C1088 C1087 1.406 . S
C1088 C1089 1.391 . S
C1089 H1061 0.931 . S
C1089 C1084 1.370 1_455 S
C1089 C1088 1.391 . S
C1090 N1059 1.435 . S
C1090 C1091 1.358 1_655 S
C1090 C1095 1.371 . S
C1091 H1063 0.930 . S
C1091 C1090 1.358 1_455 S
C1091 C1092 1.405 . S
C1092 H1064 0.932 . S
C1092 C1091 1.405 . S
C1092 C1093 1.383 1_455 S
C1093 C1092 1.383 1_655 S
C1093 C1094 1.393 . S
C1094 H1066 0.931 . S
C1094 C1093 1.393 . S
C1094 C1095 1.382 . S
C1095 H1065 0.929 . S
C1095 C1090 1.371 . S
C1095 C1094 1.382 . S
C1096 N1059 1.423 . S
C1096 C1097 1.362 . S
C1096 C1101 1.388 . S
C1097 H1067 0.929 . S
C1097 C1096 1.362 . S
C1097 C1098 1.376 . S
C1098 H1069 0.931 . S
C1098 C1097 1.376 . S
C1098 C1099 1.396 . S
C1099 C1098 1.396 . S
C1099 C1100 1.348 . S
C1099 C1117 1.472 . S
C1100 H1070 0.929 . S
C1100 C1099 1.348 . S
C1100 C1101 1.443 . S
C1101 H1068 0.932 1_655 S
C1101 C1096 1.388 . S
C1101 C1100 1.443 . S
C1102 N1082 1.433 . S
C1102 C1103 1.363 . S
C1102 C1107 1.370 1_655 S
C1103 H1071 0.929 . S
C1103 C1102 1.363 . S
C1103 C1104 1.385 . S
C1104 H1072 0.930 . S
C1104 C1103 1.385 . S
C1104 C1105 1.357 1_655 S
C1105 C1104 1.357 1_455 S
C1105 C1106 1.406 . S
C1106 H1073 0.929 . S
C1106 C1105 1.406 . S
C1106 C1107 1.391 . S
C1107 H1074 0.931 . S
C1107 C1102 1.370 1_455 S
C1107 C1106 1.391 . S
C1108 N1082 1.435 . S
C1108 C1109 1.358 1_655 S
C1108 C1113 1.371 . S
C1109 H1075 0.930 . S
C1109 C1108 1.358 1_455 S
C1109 C1110 1.405 . S
C1110 H1076 0.932 . S
C1110 C1109 1.405 . S
C1110 C1111 1.383 1_455 S
C1111 C1110 1.383 1_655 S
C1111 C1112 1.393 . S
C1112 H1077 0.931 . S
C1112 C1111 1.393 . S
C1112 C1113 1.382 . S
C1113 H1078 0.929 . S
C1113 C1108 1.371 . S
C1113 C1112 1.382 . S
C1114 N1082 1.423 . S
C1114 C1115 1.362 . S
C1114 C1119 1.388 . S
C1115 H1079 0.929 . S
C1115 C1114 1.362 . S
C1115 C1116 1.376 . S
C1116 H1080 0.931 . S
C1116 C1115 1.376 . S
C1116 C1117 1.396 . S
C1117 C1099 1.472 . S
C1117 C1116 1.396 . S
C1117 C1118 1.348 . S
C1118 H1081 0.929 . S
C1118 C1117 1.348 . S
C1118 C1119 1.443 . S
C1119 H1083 0.932 1_655 S
C1119 C1114 1.388 . S
C1119 C1118 1.443 . S
H1120 C1147 0.929 . S
N1121 C1146 1.433 . S
N1121 C1152 1.435 . S
N1121 C1158 1.423 . S
H1122 C1148 0.930 . S
H1123 C1151 0.931 . S
H1124 C1150 0.929 . S
H1125 C1153 0.930 . S
H1126 C1154 0.932 . S
H1127 C1157 0.929 . S
H1128 C1156 0.931 . S
H1129 C1159 0.929 . S
H1130 C1163 0.932 . S
H1131 C1160 0.931 . S
H1132 C1162 0.929 . S
H1133 C1165 0.929 . S
H1134 C1166 0.930 . S
H1135 C1168 0.929 . S
H1136 C1169 0.931 . S
H1137 C1171 0.930 . S
H1138 C1172 0.932 . S
H1139 C1174 0.931 . S
H1140 C1175 0.929 . S
H1141 C1177 0.929 . S
H1142 C1178 0.931 . S
H1143 C1180 0.929 . S
N1144 C1164 1.433 . S
N1144 C1170 1.435 . S
N1144 C1176 1.423 . S
H1145 C1181 0.932 . S
C1146 N1121 1.433 . S
C1146 C1147 1.363 . S
C1146 C1151 1.370 . S
C1147 H1120 0.929 . S
C1147 C1146 1.363 . S
C1147 C1148 1.385 . S
C1148 H1122 0.930 . S
C1148 C1147 1.385 . S
C1148 C1149 1.357 . S
C1149 C1148 1.357 . S
C1149 C1150 1.406 . S
C1150 H1124 0.929 . S
C1150 C1149 1.406 . S
C1150 C1151 1.391 . S
C1151 H1123 0.931 . S
C1151 C1146 1.370 . S
C1151 C1150 1.391 . S
C1152 N1121 1.435 . S
C1152 C1153 1.358 . S
C1152 C1157 1.371 . S
C1153 H1125 0.930 . S
C1153 C1152 1.358 . S
C1153 C1154 1.405 . S
C1154 H1126 0.932 . S
C1154 C1153 1.405 . S
C1154 C1155 1.383 . S
C1155 C1154 1.383 . S
C1155 C1156 1.393 . S
C1156 H1128 0.931 . S
C1156 C1155 1.393 . S
C1156 C1157 1.382 . S
C1157 H1127 0.929 . S
C1157 C1152 1.371 . S
C1157 C1156 1.382 . S
C1158 N1121 1.423 . S
C1158 C1159 1.362 . S
C1158 C1163 1.388 . S
C1159 H1129 0.929 . S
C1159 C1158 1.362 . S
C1159 C1160 1.376 . S
C1160 H1131 0.931 . S
C1160 C1159 1.376 . S
C1160 C1161 1.396 . S
C1161 C1160 1.396 . S
C1161 C1162 1.348 . S
C1161 C1179 1.472 . S
C1162 H1132 0.929 . S
C1162 C1161 1.348 . S
C1162 C1163 1.443 . S
C1163 H1130 0.932 . S
C1163 C1158 1.388 . S
C1163 C1162 1.443 . S
C1164 N1144 1.433 . S
C1164 C1165 1.363 . S
C1164 C1169 1.370 . S
C1165 H1133 0.929 . S
C1165 C1164 1.363 . S
C1165 C1166 1.385 . S
C1166 H1134 0.930 . S
C1166 C1165 1.385 . S
C1166 C1167 1.357 . S
C1167 C1166 1.357 . S
C1167 C1168 1.406 . S
C1168 H1135 0.929 . S
C1168 C1167 1.406 . S
C1168 C1169 1.391 . S
C1169 H1136 0.931 . S
C1169 C1164 1.370 . S
C1169 C1168 1.391 . S
C1170 N1144 1.435 . S
C1170 C1171 1.358 . S
C1170 C1175 1.371 . S
C1171 H1137 0.930 . S
C1171 C1170 1.358 . S
C1171 C1172 1.405 . S
C1172 H1138 0.932 . S
C1172 C1171 1.405 . S
C1172 C1173 1.383 . S
C1173 C1172 1.383 . S
C1173 C1174 1.393 . S
C1174 H1139 0.931 . S
C1174 C1173 1.393 . S
C1174 C1175 1.382 . S
C1175 H1140 0.929 . S
C1175 C1170 1.371 . S
C1175 C1174 1.382 . S
C1176 N1144 1.423 . S
C1176 C1177 1.362 . S
C1176 C1181 1.388 . S
C1177 H1141 0.929 . S
C1177 C1176 1.362 . S
C1177 C1178 1.376 . S
C1178 H1142 0.931 . S
C1178 C1177 1.376 . S
C1178 C1179 1.396 . S
C1179 C1161 1.472 . S
C1179 C1178 1.396 . S
C1179 C1180 1.348 . S
C1180 H1143 0.929 . S
C1180 C1179 1.348 . S
C1180 C1181 1.443 . S
C1181 H1145 0.932 . S
C1181 C1176 1.388 . S
C1181 C1180 1.443 . S
H1182 C1209 0.929 . S
N1183 C1208 1.433 . S
N1183 C1214 1.435 . S
N1183 C1220 1.423 . S
H1184 C1210 0.930 . S
H1185 C1213 0.931 . S
H1186 C1212 0.929 . S
H1187 C1215 0.930 . S
H1188 C1216 0.932 . S
H1189 C1219 0.929 . S
H1190 C1218 0.931 . S
H1191 C1221 0.929 . S
H1192 C1225 0.932 . S
H1193 C1222 0.931 . S
H1194 C1224 0.929 . S
H1195 C1227 0.929 . S
H1196 C1228 0.930 . S
H1197 C1230 0.929 . S
H1198 C1231 0.931 . S
H1199 C1233 0.930 . S
H1200 C1234 0.932 . S
H1201 C1236 0.931 . S
H1202 C1237 0.929 . S
H1203 C1239 0.929 . S
H1204 C1240 0.931 . S
H1205 C1242 0.929 . S
N1206 C1226 1.433 . S
N1206 C1232 1.435 . S
N1206 C1238 1.423 . S
H1207 C1243 0.932 . S
C1208 N1183 1.433 . S
C1208 C1209 1.363 . S
C1208 C1213 1.370 . S
C1209 H1182 0.929 . S
C1209 C1208 1.363 . S
C1209 C1210 1.385 . S
C1210 H1184 0.930 . S
C1210 C1209 1.385 . S
C1210 C1211 1.357 . S
C1211 C1210 1.357 . S
C1211 C1212 1.406 . S
C1212 H1186 0.929 . S
C1212 C1211 1.406 . S
C1212 C1213 1.391 . S
C1213 H1185 0.931 . S
C1213 C1208 1.370 . S
C1213 C1212 1.391 . S
C1214 N1183 1.435 . S
C1214 C1215 1.358 . S
C1214 C1219 1.371 . S
C1215 H1187 0.930 . S
C1215 C1214 1.358 . S
C1215 C1216 1.405 . S
C1216 H1188 0.932 . S
C1216 C1215 1.405 . S
C1216 C1217 1.383 . S
C1217 C1216 1.383 . S
C1217 C1218 1.393 . S
C1218 H1190 0.931 . S
C1218 C1217 1.393 . S
C1218 C1219 1.382 . S
C1219 H1189 0.929 . S
C1219 C1214 1.371 . S
C1219 C1218 1.382 . S
C1220 N1183 1.423 . S
C1220 C1221 1.362 . S
C1220 C1225 1.388 . S
C1221 H1191 0.929 . S
C1221 C1220 1.362 . S
C1221 C1222 1.376 . S
C1222 H1193 0.931 . S
C1222 C1221 1.376 . S
C1222 C1223 1.396 . S
C1223 C1222 1.396 . S
C1223 C1224 1.348 . S
C1223 C1241 1.472 . S
C1224 H1194 0.929 . S
C1224 C1223 1.348 . S
C1224 C1225 1.443 . S
C1225 H1192 0.932 . S
C1225 C1220 1.388 . S
C1225 C1224 1.443 . S
C1226 N1206 1.433 . S
C1226 C1227 1.363 . S
C1226 C1231 1.370 . S
C1227 H1195 0.929 . S
C1227 C1226 1.363 . S
C1227 C1228 1.385 . S
C1228 H1196 0.930 . S
C1228 C1227 1.385 . S
C1228 C1229 1.357 . S
C1229 C1228 1.357 . S
C1229 C1230 1.406 . S
C1230 H1197 0.929 . S
C1230 C1229 1.406 . S
C1230 C1231 1.391 . S
C1231 H1198 0.931 . S
C1231 C1226 1.370 . S
C1231 C1230 1.391 . S
C1232 N1206 1.435 . S
C1232 C1233 1.358 . S
C1232 C1237 1.371 . S
C1233 H1199 0.930 . S
C1233 C1232 1.358 . S
C1233 C1234 1.405 . S
C1234 H1200 0.932 . S
C1234 C1233 1.405 . S
C1234 C1235 1.383 . S
C1235 C1234 1.383 . S
C1235 C1236 1.393 . S
C1236 H1201 0.931 . S
C1236 C1235 1.393 . S
C1236 C1237 1.382 . S
C1237 H1202 0.929 . S
C1237 C1232 1.371 . S
C1237 C1236 1.382 . S
C1238 N1206 1.423 . S
C1238 C1239 1.362 . S
C1238 C1243 1.388 . S
C1239 H1203 0.929 . S
C1239 C1238 1.362 . S
C1239 C1240 1.376 . S
C1240 H1204 0.931 . S
C1240 C1239 1.376 . S
C1240 C1241 1.396 . S
C1241 C1223 1.472 . S
C1241 C1240 1.396 . S
C1241 C1242 1.348 . S
C1242 H1205 0.929 . S
C1242 C1241 1.348 . S
C1242 C1243 1.443 . S
C1243 H1207 0.932 . S
C1243 C1238 1.388 . S
C1243 C1242 1.443 . S
H1244 C1271 0.929 . S
N1245 C1270 1.433 . S
N1245 C1276 1.435 . S
N1245 C1282 1.423 . S
H1246 C1272 0.930 . S
H1247 C1275 0.931 . S
H1248 C1274 0.929 . S
H1249 C1277 0.930 . S
H1250 C1278 0.932 . S
H1251 C1281 0.929 . S
H1252 C1280 0.931 . S
H1253 C1283 0.929 . S
H1254 C1287 0.932 . S
H1255 C1284 0.931 . S
H1256 C1286 0.929 . S
H1257 C1289 0.929 . S
H1258 C1290 0.930 . S
H1259 C1292 0.929 . S
H1260 C1293 0.931 . S
H1261 C1295 0.930 . S
H1262 C1296 0.932 . S
H1263 C1298 0.931 . S
H1264 C1299 0.929 . S
H1265 C1301 0.929 . S
H1266 C1302 0.931 . S
H1267 C1304 0.929 . S
N1268 C1288 1.433 . S
N1268 C1294 1.435 . S
N1268 C1300 1.423 . S
H1269 C1305 0.932 . S
C1270 N1245 1.433 . S
C1270 C1271 1.363 . S
C1270 C1275 1.370 . S
C1271 H1244 0.929 . S
C1271 C1270 1.363 . S
C1271 C1272 1.385 . S
C1272 H1246 0.930 . S
C1272 C1271 1.385 . S
C1272 C1273 1.357 . S
C1273 C1272 1.357 . S
C1273 C1274 1.406 . S
C1274 H1248 0.929 . S
C1274 C1273 1.406 . S
C1274 C1275 1.391 . S
C1275 H1247 0.931 . S
C1275 C1270 1.370 . S
C1275 C1274 1.391 . S
C1276 N1245 1.435 . S
C1276 C1277 1.358 . S
C1276 C1281 1.371 . S
C1277 H1249 0.930 . S
C1277 C1276 1.358 . S
C1277 C1278 1.405 . S
C1278 H1250 0.932 . S
C1278 C1277 1.405 . S
C1278 C1279 1.383 . S
C1279 C1278 1.383 . S
C1279 C1280 1.393 . S
C1280 H1252 0.931 . S
C1280 C1279 1.393 . S
C1280 C1281 1.382 . S
C1281 H1251 0.929 . S
C1281 C1276 1.371 . S
C1281 C1280 1.382 . S
C1282 N1245 1.423 . S
C1282 C1283 1.362 . S
C1282 C1287 1.388 . S
C1283 H1253 0.929 . S
C1283 C1282 1.362 . S
C1283 C1284 1.376 . S
C1284 H1255 0.931 . S
C1284 C1283 1.376 . S
C1284 C1285 1.396 . S
C1285 C1284 1.396 . S
C1285 C1286 1.348 . S
C1285 C1303 1.472 . S
C1286 H1256 0.929 . S
C1286 C1285 1.348 . S
C1286 C1287 1.443 . S
C1287 H1254 0.932 . S
C1287 C1282 1.388 . S
C1287 C1286 1.443 . S
C1288 N1268 1.433 . S
C1288 C1289 1.363 . S
C1288 C1293 1.370 . S
C1289 H1257 0.929 . S
C1289 C1288 1.363 . S
C1289 C1290 1.385 . S
C1290 H1258 0.930 . S
C1290 C1289 1.385 . S
C1290 C1291 1.357 . S
C1291 C1290 1.357 . S
C1291 C1292 1.406 . S
C1292 H1259 0.929 . S
C1292 C1291 1.406 . S
C1292 C1293 1.391 . S
C1293 H1260 0.931 . S
C1293 C1288 1.370 . S
C1293 C1292 1.391 . S
C1294 N1268 1.435 . S
C1294 C1295 1.358 . S
C1294 C1299 1.371 . S
C1295 H1261 0.930 . S
C1295 C1294 1.358 . S
C1295 C1296 1.405 . S
C1296 H1262 0.932 . S
C1296 C1295 1.405 . S
C1296 C1297 1.383 . S
C1297 C1296 1.383 . S
C1297 C1298 1.393 . S
C1298 H1263 0.931 . S
C1298 C1297 1.393 . S
C1298 C1299 1.382 . S
C1299 H1264 0.929 . S
C1299 C1294 1.371 . S
C1299 C1298 1.382 . S
C1300 N1268 1.423 . S
C1300 C1301 1.362 . S
C1300 C1305 1.388 . S
C1301 H1265 0.929 . S
C1301 C1300 1.362 . S
C1301 C1302 1.376 . S
C1302 H1266 0.931 . S
C1302 C1301 1.376 . S
C1302 C1303 1.396 . S
C1303 C1285 1.472 . S
C1303 C1302 1.396 . S
C1303 C1304 1.348 . S
C1304 H1267 0.929 . S
C1304 C1303 1.348 . S
C1304 C1305 1.443 . S
C1305 H1269 0.932 . S
C1305 C1300 1.388 . S
C1305 C1304 1.443 . S
H1306 C1333 0.929 . S
N1307 C1332 1.433 . S
N1307 C1338 1.435 . S
N1307 C1344 1.423 . S
H1308 C1334 0.930 . S
H1309 C1337 0.931 . S
H1310 C1336 0.929 . S
H1311 C1339 0.930 . S
H1312 C1340 0.932 . S
H1313 C1343 0.929 . S
H1314 C1342 0.931 . S
H1315 C1345 0.929 . S
H1316 C1349 0.932 . S
H1317 C1346 0.931 . S
H1318 C1348 0.929 . S
H1319 C1351 0.929 . S
H1320 C1352 0.930 . S
H1321 C1354 0.929 . S
H1322 C1355 0.931 . S
H1323 C1357 0.930 . S
H1324 C1358 0.932 . S
H1325 C1360 0.931 . S
H1326 C1361 0.929 . S
H1327 C1363 0.929 . S
H1328 C1364 0.931 . S
H1329 C1366 0.929 . S
N1330 C1350 1.433 . S
N1330 C1356 1.435 . S
N1330 C1362 1.423 . S
H1331 C1367 0.932 . S
C1332 N1307 1.433 . S
C1332 C1333 1.363 . S
C1332 C1337 1.370 . S
C1333 H1306 0.929 . S
C1333 C1332 1.363 . S
C1333 C1334 1.385 . S
C1334 H1308 0.930 . S
C1334 C1333 1.385 . S
C1334 C1335 1.357 . S
C1335 C1334 1.357 . S
C1335 C1336 1.406 . S
C1336 H1310 0.929 . S
C1336 C1335 1.406 . S
C1336 C1337 1.391 . S
C1337 H1309 0.931 . S
C1337 C1332 1.370 . S
C1337 C1336 1.391 . S
C1338 N1307 1.435 . S
C1338 C1339 1.358 . S
C1338 C1343 1.371 . S
C1339 H1311 0.930 . S
C1339 C1338 1.358 . S
C1339 C1340 1.405 . S
C1340 H1312 0.932 . S
C1340 C1339 1.405 . S
C1340 C1341 1.383 . S
C1341 C1340 1.383 . S
C1341 C1342 1.393 . S
C1342 H1314 0.931 . S
C1342 C1341 1.393 . S
C1342 C1343 1.382 . S
C1343 H1313 0.929 . S
C1343 C1338 1.371 . S
C1343 C1342 1.382 . S
C1344 N1307 1.423 . S
C1344 C1345 1.362 . S
C1344 C1349 1.388 . S
C1345 H1315 0.929 . S
C1345 C1344 1.362 . S
C1345 C1346 1.376 . S
C1346 H1317 0.931 . S
C1346 C1345 1.376 . S
C1346 C1347 1.396 . S
C1347 C1346 1.396 . S
C1347 C1348 1.348 . S
C1347 C1365 1.472 . S
C1348 H1318 0.929 . S
C1348 C1347 1.348 . S
C1348 C1349 1.443 . S
C1349 H1316 0.932 . S
C1349 C1344 1.388 . S
C1349 C1348 1.443 . S
C1350 N1330 1.433 . S
C1350 C1351 1.363 . S
C1350 C1355 1.370 . S
C1351 H1319 0.929 . S
C1351 C1350 1.363 . S
C1351 C1352 1.385 . S
C1352 H1320 0.930 . S
C1352 C1351 1.385 . S
C1352 C1353 1.357 . S
C1353 C1352 1.357 . S
C1353 C1354 1.406 . S
C1354 H1321 0.929 . S
C1354 C1353 1.406 . S
C1354 C1355 1.391 . S
C1355 H1322 0.931 . S
C1355 C1350 1.370 . S
C1355 C1354 1.391 . S
C1356 N1330 1.435 . S
C1356 C1357 1.358 . S
C1356 C1361 1.371 . S
C1357 H1323 0.930 . S
C1357 C1356 1.358 . S
C1357 C1358 1.405 . S
C1358 H1324 0.932 . S
C1358 C1357 1.405 . S
C1358 C1359 1.383 . S
C1359 C1358 1.383 . S
C1359 C1360 1.393 . S
C1360 H1325 0.931 . S
C1360 C1359 1.393 . S
C1360 C1361 1.382 . S
C1361 H1326 0.929 . S
C1361 C1356 1.371 . S
C1361 C1360 1.382 . S
C1362 N1330 1.423 . S
C1362 C1363 1.362 . S
C1362 C1367 1.388 . S
C1363 H1327 0.929 . S
C1363 C1362 1.362 . S
C1363 C1364 1.376 . S
C1364 H1328 0.931 . S
C1364 C1363 1.376 . S
C1364 C1365 1.396 . S
C1365 C1347 1.472 . S
C1365 C1364 1.396 . S
C1365 C1366 1.348 . S
C1366 H1329 0.929 . S
C1366 C1365 1.348 . S
C1366 C1367 1.443 . S
C1367 H1331 0.932 . S
C1367 C1362 1.388 . S
C1367 C1366 1.443 . S
H1368 C1374 0.930 . S
H1369 C1378 0.930 . S
H1370 C1383 0.929 . S
H1371 C1381 0.929 . S
H1372 C1376 0.929 . S
H1373 C1382 0.929 . S
C1374 H1368 0.930 . S
C1374 C1375 1.367 . S
C1374 C1382 1.378 . S
C1375 C1374 1.367 . S
C1375 C1383 1.433 1_655 S
C1376 H1372 0.929 . S
C1376 C1378 1.378 . S
C1376 C1380 1.350 1_455 S
C1377 C1380 1.463 . S
C1377 C1382 1.350 . S
C1377 N1385 1.427 1_655 S
C1378 H1369 0.930 . S
C1378 C1376 1.378 . S
C1378 C1379 1.367 1_455 S
C1379 C1378 1.367 1_655 S
C1379 C1381 1.433 . S
C1380 C1376 1.350 1_655 S
C1380 C1377 1.463 . S
C1380 N1384 1.427 . S
C1381 H1371 0.929 . S
C1381 C1379 1.433 . S
C1381 N1384 1.384 . S
C1382 H1373 0.929 . S
C1382 C1374 1.378 . S
C1382 C1377 1.350 . S
C1383 H1370 0.929 . S
C1383 C1375 1.433 1_455 S
C1383 N1385 1.384 . S
N1384 C1380 1.427 . S
N1384 C1381 1.384 . S
N1385 C1377 1.427 1_455 S
N1385 C1383 1.384 . S
H1386 C1392 0.930 . S
H1387 C1396 0.930 . S
H1388 C1401 0.929 . S
H1389 C1399 0.929 . S
H1390 C1394 0.929 . S
H1391 C1400 0.929 . S
C1392 H1386 0.930 . S
C1392 C1393 1.367 . S
C1392 C1400 1.378 . S
C1393 C1392 1.367 . S
C1393 C1401 1.433 . S
C1394 H1390 0.929 . S
C1394 C1396 1.378 . S
C1394 C1398 1.350 . S
C1395 C1398 1.463 . S
C1395 C1400 1.350 . S
C1395 N1403 1.427 . S
C1396 H1387 0.930 . S
C1396 C1394 1.378 . S
C1396 C1397 1.367 . S
C1397 C1396 1.367 . S
C1397 C1399 1.433 . S
C1398 C1394 1.350 . S
C1398 C1395 1.463 . S
C1398 N1402 1.427 . S
C1399 H1389 0.929 . S
C1399 C1397 1.433 . S
C1399 N1402 1.384 . S
C1400 H1391 0.929 . S
C1400 C1392 1.378 . S
C1400 C1395 1.350 . S
C1401 H1388 0.929 . S
C1401 C1393 1.433 . S
C1401 N1403 1.384 . S
N1402 C1398 1.427 . S
N1402 C1399 1.384 . S
N1403 C1395 1.427 . S
N1403 C1401 1.384 . S
H1404 C1410 0.930 . S
H1405 C1414 0.930 . S
H1406 C1419 0.929 . S
H1407 C1417 0.929 . S
H1408 C1412 0.929 . S
H1409 C1418 0.929 . S
C1410 H1404 0.930 . S
C1410 C1411 1.367 1_565 S
C1410 C1418 1.378 . S
C1411 C1410 1.367 1_545 S
C1411 C1419 1.433 . S
C1412 H1408 0.929 . S
C1412 C1414 1.378 . S
C1412 C1416 1.350 . S
C1413 C1416 1.463 . S
C1413 C1418 1.350 1_545 S
C1413 N1421 1.427 . S
C1414 H1405 0.930 . S
C1414 C1412 1.378 . S
C1414 C1415 1.367 . S
C1415 C1414 1.367 . S
C1415 C1417 1.433 1_545 S
C1416 C1412 1.350 . S
C1416 C1413 1.463 . S
C1416 N1420 1.427 1_545 S
C1417 H1407 0.929 . S
C1417 C1415 1.433 1_565 S
C1417 N1420 1.384 . S
C1418 H1409 0.929 . S
C1418 C1410 1.378 . S
C1418 C1413 1.350 1_565 S
C1419 H1406 0.929 . S
C1419 C1411 1.433 . S
C1419 N1421 1.384 . S
N1420 C1416 1.427 1_565 S
N1420 C1417 1.384 . S
N1421 C1413 1.427 . S
N1421 C1419 1.384 . S
H1422 C1428 0.930 . S
H1423 C1432 0.930 . S
H1424 C1437 0.929 . S
H1425 C1435 0.929 . S
H1426 C1430 0.929 . S
H1427 C1436 0.929 . S
C1428 H1422 0.930 . S
C1428 C1429 1.367 1_545 S
C1428 C1436 1.378 . S
C1429 C1428 1.367 1_565 S
C1429 C1437 1.433 . S
C1430 H1426 0.929 . S
C1430 C1432 1.378 . S
C1430 C1434 1.350 . S
C1431 C1434 1.463 . S
C1431 C1436 1.350 1_565 S
C1431 N1439 1.427 . S
C1432 H1423 0.930 . S
C1432 C1430 1.378 . S
C1432 C1433 1.367 . S
C1433 C1432 1.367 . S
C1433 C1435 1.433 1_565 S
C1434 C1430 1.350 . S
C1434 C1431 1.463 . S
C1434 N1438 1.427 1_565 S
C1435 H1425 0.929 . S
C1435 C1433 1.433 1_545 S
C1435 N1438 1.384 . S
C1436 H1427 0.929 . S
C1436 C1428 1.378 . S
C1436 C1431 1.350 1_545 S
C1437 H1424 0.929 . S
C1437 C1429 1.433 . S
C1437 N1439 1.384 . S
N1438 C1434 1.427 1_545 S
N1438 C1435 1.384 . S
N1439 C1431 1.427 . S
N1439 C1437 1.384 . S
H1440 C1446 0.930 . S
H1441 C1450 0.930 . S
H1442 C1455 0.929 . S
H1443 C1453 0.929 . S
H1444 C1448 0.929 . S
H1445 C1454 0.929 . S
C1446 H1440 0.930 . S
C1446 C1447 1.367 . S
C1446 C1454 1.378 . S
C1447 C1446 1.367 . S
C1447 C1455 1.433 1_455 S
C1448 H1444 0.929 . S
C1448 C1450 1.378 . S
C1448 C1452 1.350 1_655 S
C1449 C1452 1.463 . S
C1449 C1454 1.350 . S
C1449 N1457 1.427 1_455 S
C1450 H1441 0.930 . S
C1450 C1448 1.378 . S
C1450 C1451 1.367 1_655 S
C1451 C1450 1.367 1_455 S
C1451 C1453 1.433 . S
C1452 C1448 1.350 1_455 S
C1452 C1449 1.463 . S
C1452 N1456 1.427 . S
C1453 H1443 0.929 . S
C1453 C1451 1.433 . S
C1453 N1456 1.384 . S
C1454 H1445 0.929 . S
C1454 C1446 1.378 . S
C1454 C1449 1.350 . S
C1455 H1442 0.929 . S
C1455 C1447 1.433 1_655 S
C1455 N1457 1.384 . S
N1456 C1452 1.427 . S
N1456 C1453 1.384 . S
N1457 C1449 1.427 1_655 S
N1457 C1455 1.384 . S
H1458 C1464 0.930 . S
H1459 C1468 0.930 . S
H1460 C1473 0.929 . S
H1461 C1471 0.929 . S
H1462 C1466 0.929 . S
H1463 C1472 0.929 . S
C1464 H1458 0.930 . S
C1464 C1465 1.367 . S
C1464 C1472 1.378 . S
C1465 C1464 1.367 . S
C1465 C1473 1.433 . S
C1466 H1462 0.929 . S
C1466 C1468 1.378 . S
C1466 C1470 1.350 . S
C1467 C1470 1.463 . S
C1467 C1472 1.350 . S
C1467 N1475 1.427 . S
C1468 H1459 0.930 . S
C1468 C1466 1.378 . S
C1468 C1469 1.367 . S
C1469 C1468 1.367 . S
C1469 C1471 1.433 . S
C1470 C1466 1.350 . S
C1470 C1467 1.463 . S
C1470 N1474 1.427 . S
C1471 H1461 0.929 . S
C1471 C1469 1.433 . S
C1471 N1474 1.384 . S
C1472 H1463 0.929 . S
C1472 C1464 1.378 . S
C1472 C1467 1.350 . S
C1473 H1460 0.929 . S
C1473 C1465 1.433 . S
C1473 N1475 1.384 . S
N1474 C1470 1.427 . S
N1474 C1471 1.384 . S
N1475 C1467 1.427 . S
N1475 C1473 1.384 . S
H1476 C1482 0.930 . S
H1477 C1486 0.930 . S
H1478 C1491 0.929 . S
H1479 C1489 0.929 . S
H1480 C1484 0.929 . S
H1481 C1490 0.929 . S
C1482 H1476 0.930 . S
C1482 C1483 1.367 . S
C1482 C1490 1.378 . S
C1483 C1482 1.367 . S
C1483 C1491 1.433 . S
C1484 H1480 0.929 . S
C1484 C1486 1.378 . S
C1484 C1488 1.350 . S
C1485 C1488 1.463 . S
C1485 C1490 1.350 . S
C1485 N1493 1.427 . S
C1486 H1477 0.930 . S
C1486 C1484 1.378 . S
C1486 C1487 1.367 . S
C1487 C1486 1.367 . S
C1487 C1489 1.433 . S
C1488 C1484 1.350 . S
C1488 C1485 1.463 . S
C1488 N1492 1.427 . S
C1489 H1479 0.929 . S
C1489 C1487 1.433 . S
C1489 N1492 1.384 . S
C1490 H1481 0.929 . S
C1490 C1482 1.378 . S
C1490 C1485 1.350 . S
C1491 H1478 0.929 . S
C1491 C1483 1.433 . S
C1491 N1493 1.384 . S
N1492 C1488 1.427 . S
N1492 C1489 1.384 . S
N1493 C1485 1.427 . S
N1493 C1491 1.384 . S
H1494 C1500 0.930 . S
H1495 C1504 0.930 . S
H1496 C1509 0.929 . S
H1497 C1507 0.929 . S
H1498 C1502 0.929 . S
H1499 C1508 0.929 . S
C1500 H1494 0.930 . S
C1500 C1501 1.367 . S
C1500 C1508 1.378 . S
C1501 C1500 1.367 . S
C1501 C1509 1.433 . S
C1502 H1498 0.929 . S
C1502 C1504 1.378 . S
C1502 C1506 1.350 . S
C1503 C1506 1.463 . S
C1503 C1508 1.350 . S
C1503 N1511 1.427 . S
C1504 H1495 0.930 . S
C1504 C1502 1.378 . S
C1504 C1505 1.367 . S
C1505 C1504 1.367 . S
C1505 C1507 1.433 . S
C1506 C1502 1.350 . S
C1506 C1503 1.463 . S
C1506 N1510 1.427 . S
C1507 H1497 0.929 . S
C1507 C1505 1.433 . S
C1507 N1510 1.384 . S
C1508 H1499 0.929 . S
C1508 C1500 1.378 . S
C1508 C1503 1.350 . S
C1509 H1496 0.929 . S
C1509 C1501 1.433 . S
C1509 N1511 1.384 . S
N1510 C1506 1.427 . S
N1510 C1507 1.384 . S
N1511 C1503 1.427 . S
N1511 C1509 1.384 . S
H1512 C1518 0.930 . S
H1513 C1522 0.930 . S
H1514 C1527 0.929 . S
H1515 C1525 0.929 . S
H1516 C1520 0.929 . S
H1517 C1526 0.929 . S
C1518 H1512 0.930 . S
C1518 C1519 1.367 1_545 S
C1518 C1526 1.378 . S
C1519 C1518 1.367 1_565 S
C1519 C1527 1.433 . S
C1520 H1516 0.929 . S
C1520 C1522 1.378 . S
C1520 C1524 1.350 . S
C1521 C1524 1.463 . S
C1521 C1526 1.350 1_565 S
C1521 N1529 1.427 . S
C1522 H1513 0.930 . S
C1522 C1520 1.378 . S
C1522 C1523 1.367 . S
C1523 C1522 1.367 . S
C1523 C1525 1.433 1_565 S
C1524 C1520 1.350 . S
C1524 C1521 1.463 . S
C1524 N1528 1.427 1_565 S
C1525 H1515 0.929 . S
C1525 C1523 1.433 1_545 S
C1525 N1528 1.384 . S
C1526 H1517 0.929 . S
C1526 C1518 1.378 . S
C1526 C1521 1.350 1_545 S
C1527 H1514 0.929 . S
C1527 C1519 1.433 . S
C1527 N1529 1.384 . S
N1528 C1524 1.427 1_545 S
N1528 C1525 1.384 . S
N1529 C1521 1.427 . S
N1529 C1527 1.384 . S
H1530 C1536 0.930 . S
H1531 C1540 0.930 . S
H1532 C1545 0.929 1_565 S
H1533 C1543 0.929 . S
H1534 C1538 0.945 . S
H1535 C1544 0.929 . S
C1536 H1530 0.930 . S
C1536 C1537 1.367 . S
C1536 C1544 1.378 . S
C1537 C1536 1.367 . S
C1537 C1545 1.433 . S
C1538 H1534 0.945 . S
C1538 C1540 1.365 . S
C1538 C1542 1.348 1_565 S
C1539 C1542 1.463 . S
C1539 C1544 1.350 . S
C1539 N1547 1.427 . S
C1540 H1531 0.930 . S
C1540 C1538 1.365 . S
C1540 C1541 1.367 1_565 S
C1541 C1540 1.367 1_545 S
C1541 C1543 1.433 . S
C1542 C1538 1.348 1_545 S
C1542 C1539 1.463 . S
C1542 N1546 1.427 . S
C1543 H1533 0.929 . S
C1543 C1541 1.433 . S
C1543 N1546 1.384 . S
C1544 H1535 0.929 . S
C1544 C1536 1.378 . S
C1544 C1539 1.350 . S
C1545 H1532 0.929 1_545 S
C1545 C1537 1.433 . S
C1545 N1547 1.384 . S
N1546 C1542 1.427 . S
N1546 C1543 1.384 . S
N1547 C1539 1.427 . S
N1547 C1545 1.384 . S
H1548 C1554 0.930 . S
H1549 C1558 0.930 . S
H1550 C1563 0.929 . S
H1551 C1561 0.929 . S
H1552 C1556 0.929 . S
H1553 C1562 0.929 . S
C1554 H1548 0.930 . S
C1554 C1555 1.367 . S
C1554 C1562 1.378 . S
C1555 C1554 1.367 . S
C1555 C1563 1.433 1_655 S
C1556 H1552 0.929 . S
C1556 C1558 1.378 . S
C1556 C1560 1.350 1_455 S
C1557 C1560 1.463 . S
C1557 C1562 1.350 . S
C1557 N1565 1.427 1_655 S
C1558 H1549 0.930 . S
C1558 C1556 1.378 . S
C1558 C1559 1.367 1_455 S
C1559 C1558 1.367 1_655 S
C1559 C1561 1.433 . S
C1560 C1556 1.350 1_655 S
C1560 C1557 1.463 . S
C1560 N1564 1.427 . S
C1561 H1551 0.929 . S
C1561 C1559 1.433 . S
C1561 N1564 1.384 . S
C1562 H1553 0.929 . S
C1562 C1554 1.378 . S
C1562 C1557 1.350 . S
C1563 H1550 0.929 . S
C1563 C1555 1.433 1_455 S
C1563 N1565 1.384 . S
N1564 C1560 1.427 . S
N1564 C1561 1.384 . S
N1565 C1557 1.427 1_455 S
N1565 C1563 1.384 . S
H1566 C1572 0.930 . S
H1567 C1576 0.930 . S
H1568 C1581 0.929 . S
H1569 C1579 0.929 . S
H1570 C1574 0.929 . S
H1571 C1580 0.929 . S
C1572 H1566 0.930 . S
C1572 C1573 1.367 . S
C1572 C1580 1.378 . S
C1573 C1572 1.367 . S
C1573 C1581 1.433 . S
C1574 H1570 0.929 . S
C1574 C1576 1.378 . S
C1574 C1578 1.350 . S
C1575 C1578 1.463 . S
C1575 C1580 1.350 . S
C1575 N1583 1.427 . S
C1576 H1567 0.930 . S
C1576 C1574 1.378 . S
C1576 C1577 1.367 . S
C1577 C1576 1.367 . S
C1577 C1579 1.433 . S
C1578 C1574 1.350 . S
C1578 C1575 1.463 . S
C1578 N1582 1.427 . S
C1579 H1569 0.929 . S
C1579 C1577 1.433 . S
C1579 N1582 1.384 . S
C1580 H1571 0.929 . S
C1580 C1572 1.378 . S
C1580 C1575 1.350 . S
C1581 H1568 0.929 . S
C1581 C1573 1.433 . S
C1581 N1583 1.384 . S
N1582 C1578 1.427 . S
N1582 C1579 1.384 . S
N1583 C1575 1.427 . S
N1583 C1581 1.384 . S
H1584 C1590 0.930 . S
H1585 C1594 0.930 . S
H1586 C1599 0.929 . S
H1587 C1597 0.929 . S
H1588 C1592 0.929 . S
H1589 C1598 0.929 . S
C1590 H1584 0.930 . S
C1590 C1591 1.367 . S
C1590 C1598 1.378 . S
C1591 C1590 1.367 . S
C1591 C1599 1.433 . S
C1592 H1588 0.929 . S
C1592 C1594 1.378 . S
C1592 C1596 1.350 . S
C1593 C1596 1.463 . S
C1593 C1598 1.350 . S
C1593 N1601 1.427 . S
C1594 H1585 0.930 . S
C1594 C1592 1.378 . S
C1594 C1595 1.367 . S
C1595 C1594 1.367 . S
C1595 C1597 1.433 . S
C1596 C1592 1.350 . S
C1596 C1593 1.463 . S
C1596 N1600 1.427 . S
C1597 H1587 0.929 . S
C1597 C1595 1.433 . S
C1597 N1600 1.384 . S
C1598 H1589 0.929 . S
C1598 C1590 1.378 . S
C1598 C1593 1.350 . S
C1599 H1586 0.929 . S
C1599 C1591 1.433 . S
C1599 N1601 1.384 . S
N1600 C1596 1.427 . S
N1600 C1597 1.384 . S
N1601 C1593 1.427 . S
N1601 C1599 1.384 . S
H1602 C1608 0.930 . S
H1603 C1612 0.930 . S
H1604 C1617 0.929 . S
H1605 C1615 0.929 . S
H1606 C1610 0.929 . S
H1607 C1616 0.929 . S
C1608 H1602 0.930 . S
C1608 C1609 1.367 . S
C1608 C1616 1.378 . S
C1609 C1608 1.367 . S
C1609 C1617 1.433 . S
C1610 H1606 0.929 . S
C1610 C1612 1.378 . S
C1610 C1614 1.350 . S
C1611 C1614 1.463 . S
C1611 C1616 1.350 . S
C1611 N1619 1.427 . S
C1612 H1603 0.930 . S
C1612 C1610 1.378 . S
C1612 C1613 1.367 . S
C1613 C1612 1.367 . S
C1613 C1615 1.433 . S
C1614 C1610 1.350 . S
C1614 C1611 1.463 . S
C1614 N1618 1.427 . S
C1615 H1605 0.929 . S
C1615 C1613 1.433 . S
C1615 N1618 1.384 . S
C1616 H1607 0.929 . S
C1616 C1608 1.378 . S
C1616 C1611 1.350 . S
C1617 H1604 0.929 . S
C1617 C1609 1.433 . S
C1617 N1619 1.384 . S
N1618 C1614 1.427 . S
N1618 C1615 1.384 . S
N1619 C1611 1.427 . S
N1619 C1617 1.384 . S
H1620 C1626 0.930 . S
H1621 C1630 0.930 . S
H1622 C1635 0.929 . S
H1623 C1633 0.929 . S
H1624 C1628 0.929 . S
H1625 C1634 0.929 . S
C1626 H1620 0.930 . S
C1626 C1627 1.367 . S
C1626 C1634 1.378 . S
C1627 C1626 1.367 . S
C1627 C1635 1.433 . S
C1628 H1624 0.929 . S
C1628 C1630 1.378 . S
C1628 C1632 1.350 . S
C1629 C1632 1.463 . S
C1629 C1634 1.350 . S
C1629 N1637 1.427 . S
C1630 H1621 0.930 . S
C1630 C1628 1.378 . S
C1630 C1631 1.367 . S
C1631 C1630 1.367 . S
C1631 C1633 1.433 . S
C1632 C1628 1.350 . S
C1632 C1629 1.463 . S
C1632 N1636 1.427 . S
C1633 H1623 0.929 . S
C1633 C1631 1.433 . S
C1633 N1636 1.384 . S
C1634 H1625 0.929 . S
C1634 C1626 1.378 . S
C1634 C1629 1.350 . S
C1635 H1622 0.929 . S
C1635 C1627 1.433 . S
C1635 N1637 1.384 . S
N1636 C1632 1.427 . S
N1636 C1633 1.384 . S
N1637 C1629 1.427 . S
N1637 C1635 1.384 . S
H1638 C1644 0.930 . S
H1639 C1648 0.930 . S
H1640 C1653 0.929 . S
H1641 C1651 0.929 . S
H1642 C1646 0.929 . S
H1643 C1652 0.929 . S
C1644 H1638 0.930 . S
C1644 C1645 1.367 . S
C1644 C1652 1.378 . S
C1645 C1644 1.367 . S
C1645 C1653 1.433 . S
C1646 H1642 0.929 . S
C1646 C1648 1.378 . S
C1646 C1650 1.350 . S
C1647 C1650 1.463 . S
C1647 C1652 1.350 . S
C1647 N1655 1.427 . S
C1648 H1639 0.930 . S
C1648 C1646 1.378 . S
C1648 C1649 1.367 . S
C1649 C1648 1.367 . S
C1649 C1651 1.433 . S
C1650 C1646 1.350 . S
C1650 C1647 1.463 . S
C1650 N1654 1.427 . S
C1651 H1641 0.929 . S
C1651 C1649 1.433 . S
C1651 N1654 1.384 . S
C1652 H1643 0.929 . S
C1652 C1644 1.378 . S
C1652 C1647 1.350 . S
C1653 H1640 0.929 . S
C1653 C1645 1.433 . S
C1653 N1655 1.384 . S
N1654 C1650 1.427 . S
N1654 C1651 1.384 . S
N1655 C1647 1.427 . S
N1655 C1653 1.384 . S
H1656 C1662 0.930 . S
H1657 C1666 0.930 . S
H1658 C1671 0.929 . S
H1659 C1669 0.929 . S
H1660 C1664 0.929 . S
H1661 C1670 0.929 . S
C1662 H1656 0.930 . S
C1662 C1663 1.367 . S
C1662 C1670 1.378 . S
C1663 C1662 1.367 . S
C1663 C1671 1.433 . S
C1664 H1660 0.929 . S
C1664 C1666 1.378 . S
C1664 C1668 1.350 . S
C1665 C1668 1.463 . S
C1665 C1670 1.350 . S
C1665 N1673 1.427 . S
C1666 H1657 0.930 . S
C1666 C1664 1.378 . S
C1666 C1667 1.367 . S
C1667 C1666 1.367 . S
C1667 C1669 1.433 . S
C1668 C1664 1.350 . S
C1668 C1665 1.463 . S
C1668 N1672 1.427 . S
C1669 H1659 0.929 . S
C1669 C1667 1.433 . S
C1669 N1672 1.384 . S
C1670 H1661 0.929 . S
C1670 C1662 1.378 . S
C1670 C1665 1.350 . S
C1671 H1658 0.929 . S
C1671 C1663 1.433 . S
C1671 N1673 1.384 . S
N1672 C1668 1.427 . S
N1672 C1669 1.384 . S
N1673 C1665 1.427 . S
N1673 C1671 1.384 . S
H1674 C1680 0.930 . S
H1675 C1684 0.930 . S
H1676 C1689 0.929 . S
H1677 C1687 0.929 . S
H1678 C1682 0.929 . S
H1679 C1688 0.929 . S
C1680 H1674 0.930 . S
C1680 C1681 1.367 . S
C1680 C1688 1.378 . S
C1681 C1680 1.367 . S
C1681 C1689 1.433 . S
C1682 H1678 0.929 . S
C1682 C1684 1.378 . S
C1682 C1686 1.350 . S
C1683 C1686 1.463 . S
C1683 C1688 1.350 . S
C1683 N1691 1.427 . S
C1684 H1675 0.930 . S
C1684 C1682 1.378 . S
C1684 C1685 1.367 . S
C1685 C1684 1.367 . S
C1685 C1687 1.433 . S
C1686 C1682 1.350 . S
C1686 C1683 1.463 . S
C1686 N1690 1.427 . S
C1687 H1677 0.929 . S
C1687 C1685 1.433 . S
C1687 N1690 1.384 . S
C1688 H1679 0.929 . S
C1688 C1680 1.378 . S
C1688 C1683 1.350 . S
C1689 H1676 0.929 . S
C1689 C1681 1.433 . S
C1689 N1691 1.384 . S
N1690 C1686 1.427 . S
N1690 C1687 1.384 . S
N1691 C1683 1.427 . S
N1691 C1689 1.384 . S
H1692 C1698 0.930 . S
H1693 C1702 0.930 . S
H1694 C1707 0.929 . S
H1695 C1705 0.929 . S
H1696 C1700 0.929 . S
H1697 C1706 0.929 . S
C1698 H1692 0.930 . S
C1698 C1699 1.367 . S
C1698 C1706 1.378 . S
C1699 C1698 1.367 . S
C1699 C1707 1.433 . S
C1700 H1696 0.929 . S
C1700 C1702 1.378 . S
C1700 C1704 1.350 . S
C1701 C1704 1.463 . S
C1701 C1706 1.350 . S
C1701 N1709 1.427 . S
C1702 H1693 0.930 . S
C1702 C1700 1.378 . S
C1702 C1703 1.367 . S
C1703 C1702 1.367 . S
C1703 C1705 1.433 . S
C1704 C1700 1.350 . S
C1704 C1701 1.463 . S
C1704 N1708 1.427 . S
C1705 H1695 0.929 . S
C1705 C1703 1.433 . S
C1705 N1708 1.384 . S
C1706 H1697 0.929 . S
C1706 C1698 1.378 . S
C1706 C1701 1.350 . S
C1707 H1694 0.929 . S
C1707 C1699 1.433 . S
C1707 N1709 1.384 . S
N1708 C1704 1.427 . S
N1708 C1705 1.384 . S
N1709 C1701 1.427 . S
N1709 C1707 1.384 . S
H1710 C1716 0.930 . S
H1711 C1720 0.930 . S
H1712 C1725 0.929 . S
H1713 C1723 0.929 . S
H1714 C1718 0.929 . S
H1715 C1724 0.929 . S
C1716 H1710 0.930 . S
C1716 C1717 1.367 . S
C1716 C1724 1.378 . S
C1717 C1716 1.367 . S
C1717 C1725 1.433 . S
C1718 H1714 0.929 . S
C1718 C1720 1.378 . S
C1718 C1722 1.350 . S
C1719 C1722 1.463 . S
C1719 C1724 1.350 . S
C1719 N1727 1.427 . S
C1720 H1711 0.930 . S
C1720 C1718 1.378 . S
C1720 C1721 1.367 . S
C1721 C1720 1.367 . S
C1721 C1723 1.433 . S
C1722 C1718 1.350 . S
C1722 C1719 1.463 . S
C1722 N1726 1.427 . S
C1723 H1713 0.929 . S
C1723 C1721 1.433 . S
C1723 N1726 1.384 . S
C1724 H1715 0.929 . S
C1724 C1716 1.378 . S
C1724 C1719 1.350 . S
C1725 H1712 0.929 . S
C1725 C1717 1.433 . S
C1725 N1727 1.384 . S
N1726 C1722 1.427 . S
N1726 C1723 1.384 . S
N1727 C1719 1.427 . S
N1727 C1725 1.384 . S
H1728 C1734 0.930 . S
H1729 C1738 0.930 . S
H1730 C1743 0.929 . S
H1731 C1741 0.929 . S
H1732 C1736 0.929 . S
H1733 C1742 0.929 . S
C1734 H1728 0.930 . S
C1734 C1735 1.367 . S
C1734 C1742 1.378 . S
C1735 C1734 1.367 . S
C1735 C1743 1.433 . S
C1736 H1732 0.929 . S
C1736 C1738 1.378 . S
C1736 C1740 1.350 . S
C1737 C1740 1.463 . S
C1737 C1742 1.350 . S
C1737 N1745 1.427 . S
C1738 H1729 0.930 . S
C1738 C1736 1.378 . S
C1738 C1739 1.367 . S
C1739 C1738 1.367 . S
C1739 C1741 1.433 . S
C1740 C1736 1.350 . S
C1740 C1737 1.463 . S
C1740 N1744 1.427 . S
C1741 H1731 0.929 . S
C1741 C1739 1.433 . S
C1741 N1744 1.384 . S
C1742 H1733 0.929 . S
C1742 C1734 1.378 . S
C1742 C1737 1.350 . S
C1743 H1730 0.929 . S
C1743 C1735 1.433 . S
C1743 N1745 1.384 . S
N1744 C1740 1.427 . S
N1744 C1741 1.384 . S
N1745 C1737 1.427 . S
N1745 C1743 1.384 . S
H1746 C1752 0.930 . S
H1747 C1756 0.930 . S
H1748 C1761 0.929 . S
H1749 C1759 0.929 . S
H1750 C1754 0.929 . S
H1751 C1760 0.929 . S
C1752 H1746 0.930 . S
C1752 C1753 1.367 . S
C1752 C1760 1.378 . S
C1753 C1752 1.367 . S
C1753 C1761 1.433 . S
C1754 H1750 0.929 . S
C1754 C1756 1.378 . S
C1754 C1758 1.350 . S
C1755 C1758 1.463 . S
C1755 C1760 1.350 . S
C1755 N1763 1.427 . S
C1756 H1747 0.930 . S
C1756 C1754 1.378 . S
C1756 C1757 1.367 . S
C1757 C1756 1.367 . S
C1757 C1759 1.433 . S
C1758 C1754 1.350 . S
C1758 C1755 1.463 . S
C1758 N1762 1.427 . S
C1759 H1749 0.929 . S
C1759 C1757 1.433 . S
C1759 N1762 1.384 . S
C1760 H1751 0.929 . S
C1760 C1752 1.378 . S
C1760 C1755 1.350 . S
C1761 H1748 0.929 . S
C1761 C1753 1.433 . S
C1761 N1763 1.384 . S
N1762 C1758 1.427 . S
N1762 C1759 1.384 . S
N1763 C1755 1.427 . S
N1763 C1761 1.384 . S
H1764 C1770 0.930 . S
H1765 C1774 0.930 . S
H1766 C1779 0.929 . S
H1767 C1777 0.929 . S
H1768 C1772 0.929 . S
H1769 C1778 0.929 . S
C1770 H1764 0.930 . S
C1770 C1771 1.367 . S
C1770 C1778 1.378 . S
C1771 C1770 1.367 . S
C1771 C1779 1.433 . S
C1772 H1768 0.929 . S
C1772 C1774 1.378 . S
C1772 C1776 1.350 . S
C1773 C1776 1.463 . S
C1773 C1778 1.350 . S
C1773 N1781 1.427 . S
C1774 H1765 0.930 . S
C1774 C1772 1.378 . S
C1774 C1775 1.367 . S
C1775 C1774 1.367 . S
C1775 C1777 1.433 . S
C1776 C1772 1.350 . S
C1776 C1773 1.463 . S
C1776 N1780 1.427 . S
C1777 H1767 0.929 . S
C1777 C1775 1.433 . S
C1777 N1780 1.384 . S
C1778 H1769 0.929 . S
C1778 C1770 1.378 . S
C1778 C1773 1.350 . S
C1779 H1766 0.929 . S
C1779 C1771 1.433 . S
C1779 N1781 1.384 . S
N1780 C1776 1.427 . S
N1780 C1777 1.384 . S
N1781 C1773 1.427 . S
N1781 C1779 1.384 . S
H1782 C1788 0.930 . S
H1783 C1792 0.930 . S
H1784 C1797 0.929 . S
H1785 C1795 0.929 . S
H1786 C1790 0.929 . S
H1787 C1796 0.929 . S
C1788 H1782 0.930 . S
C1788 C1789 1.367 . S
C1788 C1796 1.378 . S
C1789 C1788 1.367 . S
C1789 C1797 1.433 . S
C1790 H1786 0.929 . S
C1790 C1792 1.378 . S
C1790 C1794 1.350 . S
C1791 C1794 1.463 . S
C1791 C1796 1.350 . S
C1791 N1799 1.427 . S
C1792 H1783 0.930 . S
C1792 C1790 1.378 . S
C1792 C1793 1.367 . S
C1793 C1792 1.367 . S
C1793 C1795 1.433 . S
C1794 C1790 1.350 . S
C1794 C1791 1.463 . S
C1794 N1798 1.427 . S
C1795 H1785 0.929 . S
C1795 C1793 1.433 . S
C1795 N1798 1.384 . S
C1796 H1787 0.929 . S
C1796 C1788 1.378 . S
C1796 C1791 1.350 . S
C1797 H1784 0.929 . S
C1797 C1789 1.433 . S
C1797 N1799 1.384 . S
N1798 C1794 1.427 . S
N1798 C1795 1.384 . S
N1799 C1791 1.427 . S
N1799 C1797 1.384 . S
H1800 C1806 0.930 . S
H1801 C1810 0.930 . S
H1802 C1815 0.929 . S
H1803 C1813 0.929 . S
H1804 C1808 0.929 . S
H1805 C1814 0.929 . S
C1806 H1800 0.930 . S
C1806 C1807 1.367 . S
C1806 C1814 1.378 . S
C1807 C1806 1.367 . S
C1807 C1815 1.433 . S
C1808 H1804 0.929 . S
C1808 C1810 1.378 . S
C1808 C1812 1.350 . S
C1809 C1812 1.463 . S
C1809 C1814 1.350 . S
C1809 N1817 1.427 . S
C1810 H1801 0.930 . S
C1810 C1808 1.378 . S
C1810 C1811 1.367 . S
C1811 C1810 1.367 . S
C1811 C1813 1.433 . S
C1812 C1808 1.350 . S
C1812 C1809 1.463 . S
C1812 N1816 1.427 . S
C1813 H1803 0.929 . S
C1813 C1811 1.433 . S
C1813 N1816 1.384 . S
C1814 H1805 0.929 . S
C1814 C1806 1.378 . S
C1814 C1809 1.350 . S
C1815 H1802 0.929 . S
C1815 C1807 1.433 . S
C1815 N1817 1.384 . S
N1816 C1812 1.427 . S
N1816 C1813 1.384 . S
N1817 C1809 1.427 . S
N1817 C1815 1.384 . S
H1818 C1824 0.930 . S
H1819 C1828 0.930 . S
H1820 C1833 0.929 . S
H1821 C1831 0.929 . S
H1822 C1826 0.929 . S
H1823 C1832 0.929 . S
C1824 H1818 0.930 . S
C1824 C1825 1.367 . S
C1824 C1832 1.378 . S
C1825 C1824 1.367 . S
C1825 C1833 1.433 . S
C1826 H1822 0.929 . S
C1826 C1828 1.378 . S
C1826 C1830 1.350 . S
C1827 C1830 1.463 . S
C1827 C1832 1.350 . S
C1827 N1835 1.427 . S
C1828 H1819 0.930 . S
C1828 C1826 1.378 . S
C1828 C1829 1.367 . S
C1829 C1828 1.367 . S
C1829 C1831 1.433 . S
C1830 C1826 1.350 . S
C1830 C1827 1.463 . S
C1830 N1834 1.427 . S
C1831 H1821 0.929 . S
C1831 C1829 1.433 . S
C1831 N1834 1.384 . S
C1832 H1823 0.929 . S
C1832 C1824 1.378 . S
C1832 C1827 1.350 . S
C1833 H1820 0.929 . S
C1833 C1825 1.433 . S
C1833 N1835 1.384 . S
N1834 C1830 1.427 . S
N1834 C1831 1.384 . S
N1835 C1827 1.427 . S
N1835 C1833 1.384 . S
H1836 C1842 0.930 . S
H1837 C1846 0.930 . S
H1838 C1851 0.929 . S
H1839 C1849 0.929 . S
H1840 C1844 0.929 . S
H1841 C1850 0.929 . S
C1842 H1836 0.930 . S
C1842 C1843 1.367 . S
C1842 C1850 1.378 . S
C1843 C1842 1.367 . S
C1843 C1851 1.433 . S
C1844 H1840 0.929 . S
C1844 C1846 1.378 . S
C1844 C1848 1.350 . S
C1845 C1848 1.463 . S
C1845 C1850 1.350 . S
C1845 N1853 1.427 . S
C1846 H1837 0.930 . S
C1846 C1844 1.378 . S
C1846 C1847 1.367 . S
C1847 C1846 1.367 . S
C1847 C1849 1.433 . S
C1848 C1844 1.350 . S
C1848 C1845 1.463 . S
C1848 N1852 1.427 . S
C1849 H1839 0.929 . S
C1849 C1847 1.433 . S
C1849 N1852 1.384 . S
C1850 H1841 0.929 . S
C1850 C1842 1.378 . S
C1850 C1845 1.350 . S
C1851 H1838 0.929 . S
C1851 C1843 1.433 . S
C1851 N1853 1.384 . S
N1852 C1848 1.427 . S
N1852 C1849 1.384 . S
N1853 C1845 1.427 . S
N1853 C1851 1.384 . S
H1854 C1860 0.930 . S
H1855 C1864 0.930 . S
H1856 C1869 0.929 . S
H1857 C1867 0.929 . S
H1858 C1862 0.929 . S
H1859 C1868 0.929 . S
C1860 H1854 0.930 . S
C1860 C1861 1.367 . S
C1860 C1868 1.378 . S
C1861 C1860 1.367 . S
C1861 C1869 1.433 . S
C1862 H1858 0.929 . S
C1862 C1864 1.378 . S
C1862 C1866 1.350 . S
C1863 C1866 1.463 . S
C1863 C1868 1.350 . S
C1863 N1871 1.427 . S
C1864 H1855 0.930 . S
C1864 C1862 1.378 . S
C1864 C1865 1.367 . S
C1865 C1864 1.367 . S
C1865 C1867 1.433 . S
C1866 C1862 1.350 . S
C1866 C1863 1.463 . S
C1866 N1870 1.427 . S
C1867 H1857 0.929 . S
C1867 C1865 1.433 . S
C1867 N1870 1.384 . S
C1868 H1859 0.929 . S
C1868 C1860 1.378 . S
C1868 C1863 1.350 . S
C1869 H1856 0.929 . S
C1869 C1861 1.433 . S
C1869 N1871 1.384 . S
N1870 C1866 1.427 . S
N1870 C1867 1.384 . S
N1871 C1863 1.427 . S
N1871 C1869 1.384 . S
H1872 C1878 0.930 . S
H1873 C1882 0.930 . S
H1874 C1887 0.929 . S
H1875 C1885 0.929 . S
H1876 C1880 0.929 . S
H1877 C1886 0.929 . S
C1878 H1872 0.930 . S
C1878 C1879 1.367 . S
C1878 C1886 1.378 . S
C1879 C1878 1.367 . S
C1879 C1887 1.433 . S
C1880 H1876 0.929 . S
C1880 C1882 1.378 . S
C1880 C1884 1.350 . S
C1881 C1884 1.463 . S
C1881 C1886 1.350 . S
C1881 N1889 1.427 . S
C1882 H1873 0.930 . S
C1882 C1880 1.378 . S
C1882 C1883 1.367 . S
C1883 C1882 1.367 . S
C1883 C1885 1.433 . S
C1884 C1880 1.350 . S
C1884 C1881 1.463 . S
C1884 N1888 1.427 . S
C1885 H1875 0.929 . S
C1885 C1883 1.433 . S
C1885 N1888 1.384 . S
C1886 H1877 0.929 . S
C1886 C1878 1.378 . S
C1886 C1881 1.350 . S
C1887 H1874 0.929 . S
C1887 C1879 1.433 . S
C1887 N1889 1.384 . S
N1888 C1884 1.427 . S
N1888 C1885 1.384 . S
N1889 C1881 1.427 . S
N1889 C1887 1.384 . S
H1890 C1896 0.930 . S
H1891 C1900 0.930 . S
H1892 C1905 0.929 . S
H1893 C1903 0.929 . S
H1894 C1898 0.929 . S
H1895 C1904 0.929 . S
C1896 H1890 0.930 . S
C1896 C1897 1.367 . S
C1896 C1904 1.378 . S
C1897 C1896 1.367 . S
C1897 C1905 1.433 . S
C1898 H1894 0.929 . S
C1898 C1900 1.378 . S
C1898 C1902 1.350 . S
C1899 C1902 1.463 . S
C1899 C1904 1.350 . S
C1899 N1907 1.427 . S
C1900 H1891 0.930 . S
C1900 C1898 1.378 . S
C1900 C1901 1.367 . S
C1901 C1900 1.367 . S
C1901 C1903 1.433 . S
C1902 C1898 1.350 . S
C1902 C1899 1.463 . S
C1902 N1906 1.427 . S
C1903 H1893 0.929 . S
C1903 C1901 1.433 . S
C1903 N1906 1.384 . S
C1904 H1895 0.929 . S
C1904 C1896 1.378 . S
C1904 C1899 1.350 . S
C1905 H1892 0.929 . S
C1905 C1897 1.433 . S
C1905 N1907 1.384 . S
N1906 C1902 1.427 . S
N1906 C1903 1.384 . S
N1907 C1899 1.427 . S
N1907 C1905 1.384 . S
H1908 C1914 0.930 . S
H1909 C1918 0.930 . S
H1910 C1923 0.929 . S
H1911 C1921 0.929 . S
H1912 C1916 0.929 . S
H1913 C1922 0.929 . S
C1914 H1908 0.930 . S
C1914 C1915 1.367 . S
C1914 C1922 1.378 . S
C1915 C1914 1.367 . S
C1915 C1923 1.433 . S
C1916 H1912 0.929 . S
C1916 C1918 1.378 . S
C1916 C1920 1.350 . S
C1917 C1920 1.463 . S
C1917 C1922 1.350 . S
C1917 N1925 1.427 . S
C1918 H1909 0.930 . S
C1918 C1916 1.378 . S
C1918 C1919 1.367 . S
C1919 C1918 1.367 . S
C1919 C1921 1.433 . S
C1920 C1916 1.350 . S
C1920 C1917 1.463 . S
C1920 N1924 1.427 . S
C1921 H1911 0.929 . S
C1921 C1919 1.433 . S
C1921 N1924 1.384 . S
C1922 H1913 0.929 . S
C1922 C1914 1.378 . S
C1922 C1917 1.350 . S
C1923 H1910 0.929 . S
C1923 C1915 1.433 . S
C1923 N1925 1.384 . S
N1924 C1920 1.427 . S
N1924 C1921 1.384 . S
N1925 C1917 1.427 . S
N1925 C1923 1.384 . S
H1926 C1932 0.930 . S
H1927 C1936 0.930 . S
H1928 C1941 0.929 . S
H1929 C1939 0.929 . S
H1930 C1934 0.929 . S
H1931 C1940 0.929 . S
C1932 H1926 0.930 . S
C1932 C1933 1.367 . S
C1932 C1940 1.378 . S
C1933 C1932 1.367 . S
C1933 C1941 1.433 . S
C1934 H1930 0.929 . S
C1934 C1936 1.378 . S
C1934 C1938 1.350 . S
C1935 C1938 1.463 . S
C1935 C1940 1.350 . S
C1935 N1943 1.427 . S
C1936 H1927 0.930 . S
C1936 C1934 1.378 . S
C1936 C1937 1.367 . S
C1937 C1936 1.367 . S
C1937 C1939 1.433 . S
C1938 C1934 1.350 . S
C1938 C1935 1.463 . S
C1938 N1942 1.427 . S
C1939 H1929 0.929 . S
C1939 C1937 1.433 . S
C1939 N1942 1.384 . S
C1940 H1931 0.929 . S
C1940 C1932 1.378 . S
C1940 C1935 1.350 . S
C1941 H1928 0.929 . S
C1941 C1933 1.433 . S
C1941 N1943 1.384 . S
N1942 C1938 1.427 . S
N1942 C1939 1.384 . S
N1943 C1935 1.427 . S
N1943 C1941 1.384 . S
H1944 C1950 0.930 . S
H1945 C1954 0.930 . S
H1946 C1959 0.929 . S
H1947 C1957 0.929 . S
H1948 C1952 0.929 . S
H1949 C1958 0.929 . S
C1950 H1944 0.930 . S
C1950 C1951 1.367 . S
C1950 C1958 1.378 . S
C1951 C1950 1.367 . S
C1951 C1959 1.433 . S
C1952 H1948 0.929 . S
C1952 C1954 1.378 . S
C1952 C1956 1.350 . S
C1953 C1956 1.463 . S
C1953 C1958 1.350 . S
C1953 N1961 1.427 . S
C1954 H1945 0.930 . S
C1954 C1952 1.378 . S
C1954 C1955 1.367 . S
C1955 C1954 1.367 . S
C1955 C1957 1.433 . S
C1956 C1952 1.350 . S
C1956 C1953 1.463 . S
C1956 N1960 1.427 . S
C1957 H1947 0.929 . S
C1957 C1955 1.433 . S
C1957 N1960 1.384 . S
C1958 H1949 0.929 . S
C1958 C1950 1.378 . S
C1958 C1953 1.350 . S
C1959 H1946 0.929 . S
C1959 C1951 1.433 . S
C1959 N1961 1.384 . S
N1960 C1956 1.427 . S
N1960 C1957 1.384 . S
N1961 C1953 1.427 . S
N1961 C1959 1.384 . S
H1962 C1968 0.930 . S
H1963 C1972 0.930 . S
H1964 C1977 0.929 . S
H1965 C1975 0.929 . S
H1966 C1970 0.929 . S
H1967 C1976 0.929 . S
C1968 H1962 0.930 . S
C1968 C1969 1.367 . S
C1968 C1976 1.378 . S
C1969 C1968 1.367 . S
C1969 C1977 1.433 . S
C1970 H1966 0.929 . S
C1970 C1972 1.378 . S
C1970 C1974 1.350 . S
C1971 C1974 1.463 . S
C1971 C1976 1.350 . S
C1971 N1979 1.427 . S
C1972 H1963 0.930 . S
C1972 C1970 1.378 . S
C1972 C1973 1.367 . S
C1973 C1972 1.367 . S
C1973 C1975 1.433 . S
C1974 C1970 1.350 . S
C1974 C1971 1.463 . S
C1974 N1978 1.427 . S
C1975 H1965 0.929 . S
C1975 C1973 1.433 . S
C1975 N1978 1.384 . S
C1976 H1967 0.929 . S
C1976 C1968 1.378 . S
C1976 C1971 1.350 . S
C1977 H1964 0.929 . S
C1977 C1969 1.433 . S
C1977 N1979 1.384 . S
N1978 C1974 1.427 . S
N1978 C1975 1.384 . S
N1979 C1971 1.427 . S
N1979 C1977 1.384 . S
H1980 C1986 0.930 . S
H1981 C1990 0.930 . S
H1982 C1995 0.929 . S
H1983 C1993 0.929 . S
H1984 C1988 0.929 . S
H1985 C1994 0.929 . S
C1986 H1980 0.930 . S
C1986 C1987 1.367 . S
C1986 C1994 1.378 . S
C1987 C1986 1.367 . S
C1987 C1995 1.433 . S
C1988 H1984 0.929 . S
C1988 C1990 1.378 . S
C1988 C1992 1.350 . S
C1989 C1992 1.463 . S
C1989 C1994 1.350 . S
C1989 N1997 1.427 . S
C1990 H1981 0.930 . S
C1990 C1988 1.378 . S
C1990 C1991 1.367 . S
C1991 C1990 1.367 . S
C1991 C1993 1.433 . S
C1992 C1988 1.350 . S
C1992 C1989 1.463 . S
C1992 N1996 1.427 . S
C1993 H1983 0.929 . S
C1993 C1991 1.433 . S
C1993 N1996 1.384 . S
C1994 H1985 0.929 . S
C1994 C1986 1.378 . S
C1994 C1989 1.350 . S
C1995 H1982 0.929 . S
C1995 C1987 1.433 . S
C1995 N1997 1.384 . S
N1996 C1992 1.427 . S
N1996 C1993 1.384 . S
N1997 C1989 1.427 . S
N1997 C1995 1.384 . S
H1998 C2004 0.930 . S
H1999 C2008 0.930 . S
H2000 C2013 0.929 . S
H2001 C2011 0.929 . S
H2002 C2006 0.929 . S
H2003 C2012 0.929 . S
C2004 H1998 0.930 . S
C2004 C2005 1.367 . S
C2004 C2012 1.378 . S
C2005 C2004 1.367 . S
C2005 C2013 1.433 . S
C2006 H2002 0.929 . S
C2006 C2008 1.378 . S
C2006 C2010 1.350 . S
C2007 C2010 1.463 . S
C2007 C2012 1.350 . S
C2007 N2015 1.427 . S
C2008 H1999 0.930 . S
C2008 C2006 1.378 . S
C2008 C2009 1.367 . S
C2009 C2008 1.367 . S
C2009 C2011 1.433 . S
C2010 C2006 1.350 . S
C2010 C2007 1.463 . S
C2010 N2014 1.427 . S
C2011 H2001 0.929 . S
C2011 C2009 1.433 . S
C2011 N2014 1.384 . S
C2012 H2003 0.929 . S
C2012 C2004 1.378 . S
C2012 C2007 1.350 . S
C2013 H2000 0.929 . S
C2013 C2005 1.433 . S
C2013 N2015 1.384 . S
N2014 C2010 1.427 . S
N2014 C2011 1.384 . S
N2015 C2007 1.427 . S
N2015 C2013 1.384 . S
H2016 C2022 0.930 . S
H2017 C2026 0.930 . S
H2018 C2031 0.929 . S
H2019 C2029 0.929 . S
H2020 C2024 0.929 . S
H2021 C2030 0.929 . S
C2022 H2016 0.930 . S
C2022 C2023 1.367 . S
C2022 C2030 1.378 . S
C2023 C2022 1.367 . S
C2023 C2031 1.433 . S
C2024 H2020 0.929 . S
C2024 C2026 1.378 . S
C2024 C2028 1.350 . S
C2025 C2028 1.463 . S
C2025 C2030 1.350 . S
C2025 N2033 1.427 . S
C2026 H2017 0.930 . S
C2026 C2024 1.378 . S
C2026 C2027 1.367 . S
C2027 C2026 1.367 . S
C2027 C2029 1.433 . S
C2028 C2024 1.350 . S
C2028 C2025 1.463 . S
C2028 N2032 1.427 . S
C2029 H2019 0.929 . S
C2029 C2027 1.433 . S
C2029 N2032 1.384 . S
C2030 H2021 0.929 . S
C2030 C2022 1.378 . S
C2030 C2025 1.350 . S
C2031 H2018 0.929 . S
C2031 C2023 1.433 . S
C2031 N2033 1.384 . S
N2032 C2028 1.427 . S
N2032 C2029 1.384 . S
N2033 C2025 1.427 . S
N2033 C2031 1.384 . S
H2034 C2040 0.955 . S
H2035 C2044 0.930 . S
H2036 C2049 0.929 . S
H2037 C2047 0.929 . S
H2038 C2042 0.929 . S
H2039 C2048 0.929 . S
C2040 H2034 0.955 . S
C2040 C2041 1.367 . S
C2040 C2048 1.378 . S
C2041 C2040 1.367 . S
C2041 C2049 1.433 . S
C2042 H2038 0.929 . S
C2042 C2044 1.378 . S
C2042 C2046 1.350 . S
C2043 C2046 1.463 . S
C2043 C2048 1.350 . S
C2043 N2051 1.427 . S
C2044 H2035 0.930 . S
C2044 C2042 1.378 . S
C2044 C2045 1.367 . S
C2045 C2044 1.367 . S
C2045 C2047 1.433 . S
C2046 C2042 1.350 . S
C2046 C2043 1.463 . S
C2046 N2050 1.427 . S
C2047 H2037 0.929 . S
C2047 C2045 1.433 . S
C2047 N2050 1.384 . S
C2048 H2039 0.929 . S
C2048 C2040 1.378 . S
C2048 C2043 1.350 . S
C2049 H2036 0.929 . S
C2049 C2041 1.433 . S
C2049 N2051 1.384 . S
N2050 C2046 1.427 . S
N2050 C2047 1.384 . S
N2051 C2043 1.427 . S
N2051 C2049 1.384 . S
H2052 C2058 0.930 . S
H2053 C2062 0.930 . S
H2054 C2067 0.929 . S
H2055 C2065 0.929 . S
H2056 C2060 0.929 . S
H2057 C2066 0.929 . S
C2058 H2052 0.930 . S
C2058 C2059 1.367 . S
C2058 C2066 1.378 . S
C2059 C2058 1.367 . S
C2059 C2067 1.433 . S
C2060 H2056 0.929 . S
C2060 C2062 1.378 . S
C2060 C2064 1.350 . S
C2061 C2064 1.463 . S
C2061 C2066 1.350 . S
C2061 N2069 1.427 . S
C2062 H2053 0.930 . S
C2062 C2060 1.378 . S
C2062 C2063 1.367 . S
C2063 C2062 1.367 . S
C2063 C2065 1.433 . S
C2064 C2060 1.350 . S
C2064 C2061 1.463 . S
C2064 N2068 1.427 . S
C2065 H2055 0.929 . S
C2065 C2063 1.433 . S
C2065 N2068 1.384 . S
C2066 H2057 0.929 . S
C2066 C2058 1.378 . S
C2066 C2061 1.350 . S
C2067 H2054 0.929 . S
C2067 C2059 1.433 . S
C2067 N2069 1.384 . S
N2068 C2064 1.427 . S
N2068 C2065 1.384 . S
N2069 C2061 1.427 . S
N2069 C2067 1.384 . S
H2070 C2076 0.930 . S
H2071 C2080 0.930 . S
H2072 C2085 0.929 . S
H2073 C2083 0.929 . S
H2074 C2078 0.929 . S
H2075 C2084 0.936 . S
C2076 H2070 0.930 . S
C2076 C2077 1.367 1_554 S
C2076 C2084 1.378 1_554 S
C2077 C2076 1.367 1_556 S
C2077 C2085 1.433 . S
C2078 H2074 0.929 . S
C2078 C2080 1.378 . S
C2078 C2082 1.350 . S
C2079 C2082 1.463 . S
C2079 C2084 1.350 . S
C2079 N2087 1.427 . S
C2080 H2071 0.930 . S
C2080 C2078 1.378 . S
C2080 C2081 1.367 . S
C2081 C2080 1.367 . S
C2081 C2083 1.433 . S
C2082 C2078 1.350 . S
C2082 C2079 1.463 . S
C2082 N2086 1.427 . S
C2083 H2073 0.929 . S
C2083 C2081 1.433 . S
C2083 N2086 1.384 . S
C2084 H2075 0.936 . S
C2084 C2076 1.378 1_556 S
C2084 C2079 1.350 . S
C2085 H2072 0.929 . S
C2085 C2077 1.433 . S
C2085 N2087 1.384 . S
N2086 C2082 1.427 . S
N2086 C2083 1.384 . S
N2087 C2079 1.427 . S
N2087 C2085 1.384 . S
H2088 C2094 0.930 . S
H2089 C2098 0.930 . S
H2090 C2103 0.929 . S
H2091 C2101 0.929 . S
H2092 C2096 0.929 1_554 S
H2093 C2102 0.929 . S
C2094 H2088 0.930 . S
C2094 C2095 1.367 . S
C2094 C2102 1.378 . S
C2095 C2094 1.367 . S
C2095 C2103 1.433 1_556 S
C2096 H2092 0.929 1_556 S
C2096 C2098 1.378 . S
C2096 C2100 1.350 . S
C2097 C2100 1.463 . S
C2097 C2102 1.350 . S
C2097 N2105 1.427 1_556 S
C2098 H2089 0.930 . S
C2098 C2096 1.378 . S
C2098 C2099 1.367 . S
C2099 C2098 1.367 . S
C2099 C2101 1.433 . S
C2100 C2096 1.350 . S
C2100 C2097 1.463 . S
C2100 N2104 1.427 . S
C2101 H2091 0.929 . S
C2101 C2099 1.433 . S
C2101 N2104 1.384 . S
C2102 H2093 0.929 . S
C2102 C2094 1.378 . S
C2102 C2097 1.350 . S
C2103 H2090 0.929 . S
C2103 C2095 1.433 1_554 S
C2103 N2105 1.384 . S
N2104 C2100 1.427 . S
N2104 C2101 1.384 . S
N2105 C2097 1.427 1_554 S
N2105 C2103 1.384 . S
H2106 C2112 0.930 . S
H2107 C2116 0.930 . S
H2108 C2121 0.931 . S
H2109 C2119 0.929 . S
H2110 C2114 0.929 . S
H2111 C2120 0.929 . S
C2112 H2106 0.930 . S
C2112 C2113 1.367 . S
C2112 C2120 1.378 . S
C2113 C2112 1.367 . S
C2113 C2121 1.433 1_556 S
C2114 H2110 0.929 . S
C2114 C2116 1.378 . S
C2114 C2118 1.350 . S
C2115 C2118 1.463 . S
C2115 C2120 1.350 . S
C2115 N2123 1.427 . S
C2116 H2107 0.930 . S
C2116 C2114 1.378 . S
C2116 C2117 1.367 . S
C2117 C2116 1.367 . S
C2117 C2119 1.433 . S
C2118 C2114 1.350 . S
C2118 C2115 1.463 . S
C2118 N2122 1.427 . S
C2119 H2109 0.929 . S
C2119 C2117 1.433 . S
C2119 N2122 1.384 . S
C2120 H2111 0.929 . S
C2120 C2112 1.378 . S
C2120 C2115 1.350 . S
C2121 H2108 0.931 . S
C2121 C2113 1.433 1_554 S
C2121 N2123 1.382 1_554 S
N2122 C2118 1.427 . S
N2122 C2119 1.384 . S
N2123 C2115 1.427 . S
N2123 C2121 1.382 1_556 S
H2124 C2130 0.930 . S
H2125 C2134 0.930 . S
H2126 C2139 0.929 . S
H2127 C2137 0.929 . S
H2128 C2132 0.929 . S
H2129 C2138 0.929 . S
C2130 H2124 0.930 . S
C2130 C2131 1.367 . S
C2130 C2138 1.378 . S
C2131 C2130 1.367 . S
C2131 C2139 1.433 1_556 S
C2132 H2128 0.929 . S
C2132 C2134 1.378 . S
C2132 C2136 1.350 . S
C2133 C2136 1.463 . S
C2133 C2138 1.350 . S
C2133 N2141 1.405 1_556 S
C2134 H2125 0.930 . S
C2134 C2132 1.378 . S
C2134 C2135 1.367 . S
C2135 C2134 1.367 . S
C2135 C2137 1.433 . S
C2136 C2132 1.350 . S
C2136 C2133 1.463 . S
C2136 N2140 1.427 . S
C2137 H2127 0.929 . S
C2137 C2135 1.433 . S
C2137 N2140 1.384 . S
C2138 H2129 0.929 . S
C2138 C2130 1.378 . S
C2138 C2133 1.350 . S
C2139 H2126 0.929 . S
C2139 C2131 1.433 1_554 S
C2139 N2141 1.392 . S
N2140 C2136 1.427 . S
N2140 C2137 1.384 . S
N2141 C2133 1.405 1_554 S
N2141 C2139 1.392 . S
H2142 C2148 0.930 . S
H2143 C2152 0.930 . S
H2144 C2157 0.929 . S
H2145 C2155 0.929 1_554 S
H2146 C2150 0.929 . S
H2147 C2156 0.929 . S
C2148 H2142 0.930 . S
C2148 C2149 1.367 1_554 S
C2148 C2156 1.378 . S
C2149 C2148 1.367 1_556 S
C2149 C2157 1.433 . S
C2150 H2146 0.929 . S
C2150 C2152 1.378 . S
C2150 C2154 1.350 . S
C2151 C2154 1.463 . S
C2151 C2156 1.350 1_556 S
C2151 N2159 1.427 . S
C2152 H2143 0.930 . S
C2152 C2150 1.378 . S
C2152 C2153 1.367 . S
C2153 C2152 1.367 . S
C2153 C2155 1.433 . S
C2154 C2150 1.350 . S
C2154 C2151 1.463 . S
C2154 N2158 1.427 . S
C2155 H2145 0.929 1_556 S
C2155 C2153 1.433 . S
C2155 N2158 1.384 . S
C2156 H2147 0.929 . S
C2156 C2148 1.378 . S
C2156 C2151 1.350 1_554 S
C2157 H2144 0.929 . S
C2157 C2149 1.433 . S
C2157 N2159 1.384 . S
N2158 C2154 1.427 . S
N2158 C2155 1.384 . S
N2159 C2151 1.427 . S
N2159 C2157 1.384 . S
H2160 C2166 0.930 . S
H2161 C2170 0.930 . S
H2162 C2175 0.929 . S
H2163 C2173 0.929 . S
H2164 C2168 0.929 1_554 S
H2165 C2174 0.929 . S
C2166 H2160 0.930 . S
C2166 C2167 1.398 . S
C2166 C2174 1.378 . S
C2167 C2166 1.398 . S
C2167 C2175 1.412 1_556 S
C2168 H2164 0.929 1_556 S
C2168 C2170 1.378 . S
C2168 C2172 1.350 . S
C2169 C2172 1.463 . S
C2169 C2174 1.350 . S
C2169 N2177 1.427 1_556 S
C2170 H2161 0.930 . S
C2170 C2168 1.378 . S
C2170 C2171 1.367 . S
C2171 C2170 1.367 . S
C2171 C2173 1.433 . S
C2172 C2168 1.350 . S
C2172 C2169 1.463 . S
C2172 N2176 1.427 . S
C2173 H2163 0.929 . S
C2173 C2171 1.433 . S
C2173 N2176 1.384 . S
C2174 H2165 0.929 . S
C2174 C2166 1.378 . S
C2174 C2169 1.350 . S
C2175 H2162 0.929 . S
C2175 C2167 1.412 1_554 S
C2175 N2177 1.384 . S
N2176 C2172 1.427 . S
N2176 C2173 1.384 . S
N2177 C2169 1.427 1_554 S
N2177 C2175 1.384 . S
H2178 C2184 0.930 . S
H2179 C2188 0.930 . S
H2180 C2193 0.929 . S
H2181 C2191 0.929 . S
H2182 C2186 0.929 . S
H2183 C2192 0.929 . S
C2184 H2178 0.930 . S
C2184 C2185 1.367 . S
C2184 C2192 1.378 . S
C2185 C2184 1.367 . S
C2185 C2193 1.433 . S
C2186 H2182 0.929 . S
C2186 C2188 1.378 . S
C2186 C2190 1.350 . S
C2187 C2190 1.463 . S
C2187 C2192 1.350 . S
C2187 N2195 1.427 . S
C2188 H2179 0.930 . S
C2188 C2186 1.378 . S
C2188 C2189 1.367 . S
C2189 C2188 1.367 . S
C2189 C2191 1.433 . S
C2190 C2186 1.350 . S
C2190 C2187 1.463 . S
C2190 N2194 1.427 . S
C2191 H2181 0.929 . S
C2191 C2189 1.433 . S
C2191 N2194 1.384 . S
C2192 H2183 0.929 . S
C2192 C2184 1.378 . S
C2192 C2187 1.350 . S
C2193 H2180 0.929 . S
C2193 C2185 1.433 . S
C2193 N2195 1.384 . S
N2194 C2190 1.427 . S
N2194 C2191 1.384 . S
N2195 C2187 1.427 . S
N2195 C2193 1.384 . S
H2196 C2202 0.930 . S
H2197 C2206 0.930 . S
H2198 C2211 0.931 . S
H2199 C2209 0.929 . S
H2200 C2204 0.929 . S
H2201 C2210 0.929 . S
C2202 H2196 0.930 . S
C2202 C2203 1.367 . S
C2202 C2210 1.378 . S
C2203 C2202 1.367 . S
C2203 C2211 1.433 . S
C2204 H2200 0.929 . S
C2204 C2206 1.378 . S
C2204 C2208 1.350 . S
C2205 C2208 1.463 . S
C2205 C2210 1.350 . S
C2205 N2213 1.427 . S
C2206 H2197 0.930 . S
C2206 C2204 1.378 . S
C2206 C2207 1.367 . S
C2207 C2206 1.367 . S
C2207 C2209 1.433 . S
C2208 C2204 1.350 . S
C2208 C2205 1.463 . S
C2208 N2212 1.427 . S
C2209 H2199 0.929 . S
C2209 C2207 1.433 . S
C2209 N2212 1.384 . S
C2210 H2201 0.929 . S
C2210 C2202 1.378 . S
C2210 C2205 1.350 . S
C2211 H2198 0.931 . S
C2211 C2203 1.433 . S
C2211 N2213 1.384 . S
N2212 C2208 1.427 . S
N2212 C2209 1.384 . S
N2213 C2205 1.427 . S
N2213 C2211 1.384 . S
H2214 C2220 0.930 . S
H2215 C2224 0.930 . S
H2216 C2229 0.929 . S
H2217 C2227 0.929 . S
H2218 C2222 0.929 . S
H2219 C2228 0.929 . S
C2220 H2214 0.930 . S
C2220 C2221 1.367 . S
C2220 C2228 1.378 . S
C2221 C2220 1.367 . S
C2221 C2229 1.433 . S
C2222 H2218 0.929 . S
C2222 C2224 1.378 . S
C2222 C2226 1.350 . S
C2223 C2226 1.463 . S
C2223 C2228 1.350 . S
C2223 N2231 1.427 . S
C2224 H2215 0.930 . S
C2224 C2222 1.378 . S
C2224 C2225 1.367 . S
C2225 C2224 1.367 . S
C2225 C2227 1.433 . S
C2226 C2222 1.350 . S
C2226 C2223 1.463 . S
C2226 N2230 1.427 . S
C2227 H2217 0.929 . S
C2227 C2225 1.433 . S
C2227 N2230 1.384 . S
C2228 H2219 0.929 . S
C2228 C2220 1.378 . S
C2228 C2223 1.350 . S
C2229 H2216 0.929 . S
C2229 C2221 1.433 . S
C2229 N2231 1.384 . S
N2230 C2226 1.427 . S
N2230 C2227 1.384 . S
N2231 C2223 1.427 . S
N2231 C2229 1.384 . S
H2232 C2238 0.930 . S
H2233 C2242 0.930 . S
H2234 C2247 0.929 . S
H2235 C2245 0.929 . S
H2236 C2240 0.929 . S
H2237 C2246 0.929 . S
C2238 H2232 0.930 . S
C2238 C2239 1.367 . S
C2238 C2246 1.378 . S
C2239 C2238 1.367 . S
C2239 C2247 1.433 . S
C2240 H2236 0.929 . S
C2240 C2242 1.378 . S
C2240 C2244 1.350 . S
C2241 C2244 1.463 . S
C2241 C2246 1.350 . S
C2241 N2249 1.427 . S
C2242 H2233 0.930 . S
C2242 C2240 1.378 . S
C2242 C2243 1.367 . S
C2243 C2242 1.367 . S
C2243 C2245 1.433 . S
C2244 C2240 1.350 . S
C2244 C2241 1.463 . S
C2244 N2248 1.427 . S
C2245 H2235 0.929 . S
C2245 C2243 1.433 . S
C2245 N2248 1.384 . S
C2246 H2237 0.929 . S
C2246 C2238 1.378 . S
C2246 C2241 1.350 . S
C2247 H2234 0.929 . S
C2247 C2239 1.433 . S
C2247 N2249 1.384 . S
N2248 C2244 1.427 . S
N2248 C2245 1.384 . S
N2249 C2241 1.427 . S
N2249 C2247 1.384 . S
H2250 C2256 0.930 . S
H2251 C2260 0.930 . S
H2252 C2265 0.929 . S
H2253 C2263 0.929 . S
H2254 C2258 0.929 . S
H2255 C2264 0.929 . S
C2256 H2250 0.930 . S
C2256 C2257 1.367 . S
C2256 C2264 1.378 . S
C2257 C2256 1.367 . S
C2257 C2265 1.433 . S
C2258 H2254 0.929 . S
C2258 C2260 1.378 . S
C2258 C2262 1.350 . S
C2259 C2262 1.463 . S
C2259 C2264 1.350 . S
C2259 N2267 1.427 . S
C2260 H2251 0.930 . S
C2260 C2258 1.378 . S
C2260 C2261 1.367 . S
C2261 C2260 1.367 . S
C2261 C2263 1.433 . S
C2262 C2258 1.350 . S
C2262 C2259 1.463 . S
C2262 N2266 1.427 . S
C2263 H2253 0.929 . S
C2263 C2261 1.433 . S
C2263 N2266 1.384 . S
C2264 H2255 0.929 . S
C2264 C2256 1.378 . S
C2264 C2259 1.350 . S
C2265 H2252 0.929 . S
C2265 C2257 1.433 . S
C2265 N2267 1.384 . S
N2266 C2262 1.427 . S
N2266 C2263 1.384 . S
N2267 C2259 1.427 . S
N2267 C2265 1.384 . S
H2268 C2274 0.930 . S
H2269 C2278 0.930 . S
H2270 C2283 0.929 . S
H2271 C2281 0.929 . S
H2272 C2276 0.929 . S
H2273 C2282 0.929 . S
C2274 H2268 0.930 . S
C2274 C2275 1.367 . S
C2274 C2282 1.378 . S
C2275 C2274 1.367 . S
C2275 C2283 1.433 . S
C2276 H2272 0.929 . S
C2276 C2278 1.378 . S
C2276 C2280 1.350 . S
C2277 C2280 1.463 . S
C2277 C2282 1.350 . S
C2277 N2285 1.427 . S
C2278 H2269 0.930 . S
C2278 C2276 1.378 . S
C2278 C2279 1.367 . S
C2279 C2278 1.367 . S
C2279 C2281 1.433 . S
C2280 C2276 1.350 . S
C2280 C2277 1.463 . S
C2280 N2284 1.427 . S
C2281 H2271 0.929 . S
C2281 C2279 1.433 . S
C2281 N2284 1.384 . S
C2282 H2273 0.929 . S
C2282 C2274 1.378 . S
C2282 C2277 1.350 . S
C2283 H2270 0.929 . S
C2283 C2275 1.433 . S
C2283 N2285 1.384 . S
N2284 C2280 1.427 . S
N2284 C2281 1.384 . S
N2285 C2277 1.427 . S
N2285 C2283 1.384 . S
H2286 C2292 0.930 . S
H2287 C2296 0.936 1_655 S
H2288 C2301 0.929 . S
H2289 C2299 0.929 . S
H2290 C2294 0.929 1_655 S
H2291 C2300 0.929 . S
C2292 H2286 0.930 . S
C2292 C2293 1.367 . S
C2292 C2300 1.378 . S
C2293 C2292 1.367 . S
C2293 C2301 1.433 . S
C2294 H2290 0.929 1_455 S
C2294 C2296 1.373 . S
C2294 C2298 1.350 . S
C2295 C2298 1.463 . S
C2295 C2300 1.350 . S
C2295 N2303 1.427 . S
C2296 H2287 0.936 1_455 S
C2296 C2294 1.373 . S
C2296 C2297 1.365 . S
C2297 C2296 1.365 . S
C2297 C2299 1.433 . S
C2298 C2294 1.350 . S
C2298 C2295 1.463 . S
C2298 N2302 1.427 . S
C2299 H2289 0.929 . S
C2299 C2297 1.433 . S
C2299 N2302 1.384 . S
C2300 H2291 0.929 . S
C2300 C2292 1.378 . S
C2300 C2295 1.350 . S
C2301 H2288 0.929 . S
C2301 C2293 1.433 . S
C2301 N2303 1.384 . S
N2302 C2298 1.427 . S
N2302 C2299 1.384 . S
N2303 C2295 1.427 . S
N2303 C2301 1.384 . S
H2304 C2310 0.930 . S
H2305 C2314 0.930 . S
H2306 C2319 0.929 . S
H2307 C2317 0.929 . S
H2308 C2312 0.929 . S
H2309 C2318 0.929 . S
C2310 H2304 0.930 . S
C2310 C2311 1.367 . S
C2310 C2318 1.378 . S
C2311 C2310 1.367 . S
C2311 C2319 1.433 . S
C2312 H2308 0.929 . S
C2312 C2314 1.378 . S
C2312 C2316 1.350 . S
C2313 C2316 1.463 . S
C2313 C2318 1.350 . S
C2313 N2321 1.427 . S
C2314 H2305 0.930 . S
C2314 C2312 1.378 . S
C2314 C2315 1.367 . S
C2315 C2314 1.367 . S
C2315 C2317 1.433 . S
C2316 C2312 1.350 . S
C2316 C2313 1.463 . S
C2316 N2320 1.427 . S
C2317 H2307 0.929 . S
C2317 C2315 1.433 . S
C2317 N2320 1.384 . S
C2318 H2309 0.929 . S
C2318 C2310 1.378 . S
C2318 C2313 1.350 . S
C2319 H2306 0.929 . S
C2319 C2311 1.433 . S
C2319 N2321 1.384 . S
N2320 C2316 1.427 . S
N2320 C2317 1.384 . S
N2321 C2313 1.427 . S
N2321 C2319 1.384 . S
H2322 C2328 0.930 . S
H2323 C2332 0.930 . S
H2324 C2337 0.929 . S
H2325 C2335 0.951 . S
H2326 C2330 0.929 . S
H2327 C2336 0.961 . S
C2328 H2322 0.930 . S
C2328 C2329 1.367 . S
C2328 C2336 1.378 . S
C2329 C2328 1.367 . S
C2329 C2337 1.433 . S
C2330 H2326 0.929 . S
C2330 C2332 1.378 . S
C2330 C2334 1.350 . S
C2331 C2334 1.463 . S
C2331 C2336 1.350 . S
C2331 N2339 1.427 . S
C2332 H2323 0.930 . S
C2332 C2330 1.378 . S
C2332 C2333 1.367 . S
C2333 C2332 1.367 . S
C2333 C2335 1.394 1_565 S
C2334 C2330 1.350 . S
C2334 C2331 1.463 . S
C2334 N2338 1.427 . S
C2335 H2325 0.951 . S
C2335 C2333 1.394 1_545 S
C2335 N2338 1.405 1_545 S
C2336 H2327 0.961 . S
C2336 C2328 1.378 . S
C2336 C2331 1.350 . S
C2337 H2324 0.929 . S
C2337 C2329 1.433 . S
C2337 N2339 1.384 . S
N2338 C2334 1.427 . S
N2338 C2335 1.405 1_565 S
N2339 C2331 1.427 . S
N2339 C2337 1.384 . S
H2340 C2346 0.930 . S
H2341 C2350 0.930 . S
H2342 C2355 0.929 . S
H2343 C2353 0.929 . S
H2344 C2348 0.929 . S
H2345 C2354 0.929 . S
C2346 H2340 0.930 . S
C2346 C2347 1.367 . S
C2346 C2354 1.378 . S
C2347 C2346 1.367 . S
C2347 C2355 1.433 . S
C2348 H2344 0.929 . S
C2348 C2350 1.378 . S
C2348 C2352 1.350 . S
C2349 C2352 1.463 . S
C2349 C2354 1.350 . S
C2349 N2357 1.427 . S
C2350 H2341 0.930 . S
C2350 C2348 1.378 . S
C2350 C2351 1.367 . S
C2351 C2350 1.367 . S
C2351 C2353 1.433 . S
C2352 C2348 1.350 . S
C2352 C2349 1.463 . S
C2352 N2356 1.427 . S
C2353 H2343 0.929 . S
C2353 C2351 1.433 . S
C2353 N2356 1.384 . S
C2354 H2345 0.929 . S
C2354 C2346 1.378 . S
C2354 C2349 1.350 . S
C2355 H2342 0.929 . S
C2355 C2347 1.433 . S
C2355 N2357 1.384 . S
N2356 C2352 1.427 . S
N2356 C2353 1.384 . S
N2357 C2349 1.427 . S
N2357 C2355 1.384 . S
H2358 C2364 0.930 . S
H2359 C2368 0.930 . S
H2360 C2373 0.929 . S
H2361 C2371 0.931 1_655 S
H2362 C2366 0.929 . S
H2363 C2372 0.929 . S
C2364 H2358 0.930 . S
C2364 C2365 1.367 . S
C2364 C2372 1.378 . S
C2365 C2364 1.367 . S
C2365 C2373 1.433 . S
C2366 H2362 0.929 . S
C2366 C2368 1.378 . S
C2366 C2370 1.350 . S
C2367 C2370 1.463 . S
C2367 C2372 1.350 . S
C2367 N2375 1.427 . S
C2368 H2359 0.930 . S
C2368 C2366 1.378 . S
C2368 C2369 1.367 . S
C2369 C2368 1.367 . S
C2369 C2371 1.430 . S
C2370 C2366 1.350 . S
C2370 C2367 1.463 . S
C2370 N2374 1.427 . S
C2371 H2361 0.931 1_455 S
C2371 C2369 1.430 . S
C2371 N2374 1.385 . S
C2372 H2363 0.929 . S
C2372 C2364 1.378 . S
C2372 C2367 1.350 . S
C2373 H2360 0.929 . S
C2373 C2365 1.433 . S
C2373 N2375 1.384 . S
N2374 C2370 1.427 . S
N2374 C2371 1.385 . S
N2375 C2367 1.427 . S
N2375 C2373 1.384 . S
H2376 C2382 0.930 . S
H2377 C2386 0.930 . S
H2378 C2391 0.929 . S
H2379 C2389 0.929 . S
H2380 C2384 0.929 . S
H2381 C2390 0.929 . S
C2382 H2376 0.930 . S
C2382 C2383 1.367 . S
C2382 C2390 1.378 . S
C2383 C2382 1.367 . S
C2383 C2391 1.433 . S
C2384 H2380 0.929 . S
C2384 C2386 1.378 . S
C2384 C2388 1.350 . S
C2385 C2388 1.463 . S
C2385 C2390 1.350 . S
C2385 N2393 1.427 . S
C2386 H2377 0.930 . S
C2386 C2384 1.378 . S
C2386 C2387 1.367 . S
C2387 C2386 1.367 . S
C2387 C2389 1.433 . S
C2388 C2384 1.350 . S
C2388 C2385 1.463 . S
C2388 N2392 1.427 . S
C2389 H2379 0.929 . S
C2389 C2387 1.433 . S
C2389 N2392 1.384 . S
C2390 H2381 0.929 . S
C2390 C2382 1.378 . S
C2390 C2385 1.350 . S
C2391 H2378 0.929 . S
C2391 C2383 1.433 . S
C2391 N2393 1.384 . S
N2392 C2388 1.427 . S
N2392 C2389 1.384 . S
N2393 C2385 1.427 . S
N2393 C2391 1.384 . S
H2394 C2400 0.930 . S
H2395 C2404 0.930 . S
H2396 C2409 0.929 . S
H2397 C2407 0.929 . S
H2398 C2402 0.929 . S
H2399 C2408 0.929 . S
C2400 H2394 0.930 . S
C2400 C2401 1.367 . S
C2400 C2408 1.378 . S
C2401 C2400 1.367 . S
C2401 C2409 1.433 . S
C2402 H2398 0.929 . S
C2402 C2404 1.378 . S
C2402 C2406 1.350 . S
C2403 C2406 1.463 . S
C2403 C2408 1.350 . S
C2403 N2411 1.427 . S
C2404 H2395 0.930 . S
C2404 C2402 1.378 . S
C2404 C2405 1.367 . S
C2405 C2404 1.367 . S
C2405 C2407 1.433 . S
C2406 C2402 1.350 . S
C2406 C2403 1.463 . S
C2406 N2410 1.427 . S
C2407 H2397 0.929 . S
C2407 C2405 1.433 . S
C2407 N2410 1.384 . S
C2408 H2399 0.929 . S
C2408 C2400 1.378 . S
C2408 C2403 1.350 . S
C2409 H2396 0.929 . S
C2409 C2401 1.433 . S
C2409 N2411 1.384 . S
N2410 C2406 1.427 . S
N2410 C2407 1.384 . S
N2411 C2403 1.427 . S
N2411 C2409 1.384 . S
H2412 C2418 0.930 . S
H2413 C2422 0.930 . S
H2414 C2427 0.929 . S
H2415 C2425 0.929 . S
H2416 C2420 0.929 . S
H2417 C2426 0.929 . S
C2418 H2412 0.930 . S
C2418 C2419 1.367 . S
C2418 C2426 1.378 . S
C2419 C2418 1.367 . S
C2419 C2427 1.433 . S
C2420 H2416 0.929 . S
C2420 C2422 1.378 . S
C2420 C2424 1.350 . S
C2421 C2424 1.463 . S
C2421 C2426 1.350 . S
C2421 N2429 1.427 . S
C2422 H2413 0.930 . S
C2422 C2420 1.378 . S
C2422 C2423 1.367 . S
C2423 C2422 1.367 . S
C2423 C2425 1.433 . S
C2424 C2420 1.350 . S
C2424 C2421 1.463 . S
C2424 N2428 1.427 . S
C2425 H2415 0.929 . S
C2425 C2423 1.433 . S
C2425 N2428 1.384 . S
C2426 H2417 0.929 . S
C2426 C2418 1.378 . S
C2426 C2421 1.350 . S
C2427 H2414 0.929 . S
C2427 C2419 1.433 . S
C2427 N2429 1.384 . S
N2428 C2424 1.427 . S
N2428 C2425 1.384 . S
N2429 C2421 1.427 . S
N2429 C2427 1.384 . S
H2430 C2436 0.930 . S
H2431 C2440 0.930 . S
H2432 C2445 0.929 . S
H2433 C2443 0.929 . S
H2434 C2438 0.929 . S
H2435 C2444 0.929 . S
C2436 H2430 0.930 . S
C2436 C2437 1.367 . S
C2436 C2444 1.378 . S
C2437 C2436 1.367 . S
C2437 C2445 1.433 . S
C2438 H2434 0.929 . S
C2438 C2440 1.378 . S
C2438 C2442 1.350 . S
C2439 C2442 1.463 . S
C2439 C2444 1.350 . S
C2439 N2447 1.427 . S
C2440 H2431 0.930 . S
C2440 C2438 1.378 . S
C2440 C2441 1.367 . S
C2441 C2440 1.367 . S
C2441 C2443 1.433 . S
C2442 C2438 1.350 . S
C2442 C2439 1.463 . S
C2442 N2446 1.427 . S
C2443 H2433 0.929 . S
C2443 C2441 1.433 . S
C2443 N2446 1.384 . S
C2444 H2435 0.929 . S
C2444 C2436 1.378 . S
C2444 C2439 1.350 . S
C2445 H2432 0.929 . S
C2445 C2437 1.433 . S
C2445 N2447 1.384 . S
N2446 C2442 1.427 . S
N2446 C2443 1.384 . S
N2447 C2439 1.427 . S
N2447 C2445 1.384 . S
H2448 C2454 0.930 . S
H2449 C2458 0.930 . S
H2450 C2463 0.929 . S
H2451 C2461 0.928 1_565 S
H2452 C2456 0.929 . S
H2453 C2462 0.929 . S
C2454 H2448 0.930 . S
C2454 C2455 1.367 . S
C2454 C2462 1.378 . S
C2455 C2454 1.367 . S
C2455 C2463 1.433 . S
C2456 H2452 0.929 . S
C2456 C2458 1.378 . S
C2456 C2460 1.350 . S
C2457 C2460 1.463 . S
C2457 C2462 1.350 . S
C2457 N2465 1.427 . S
C2458 H2449 0.930 . S
C2458 C2456 1.378 . S
C2458 C2459 1.367 . S
C2459 C2458 1.367 . S
C2459 C2461 1.434 . S
C2460 C2456 1.350 . S
C2460 C2457 1.463 . S
C2460 N2464 1.427 . S
C2461 H2451 0.928 1_545 S
C2461 C2459 1.434 . S
C2461 N2464 1.385 . S
C2462 H2453 0.929 . S
C2462 C2454 1.378 . S
C2462 C2457 1.350 . S
C2463 H2450 0.929 . S
C2463 C2455 1.433 . S
C2463 N2465 1.384 . S
N2464 C2460 1.427 . S
N2464 C2461 1.385 . S
N2465 C2457 1.427 . S
N2465 C2463 1.384 . S
H2466 C2472 0.930 . S
H2467 C2476 0.930 . S
H2468 C2481 1.019 . S
H2469 C2479 0.929 . S
H2470 C2474 0.929 . S
H2471 C2480 0.929 . S
C2472 H2466 0.930 . S
C2472 C2473 1.367 . S
C2472 C2480 1.378 . S
C2473 C2472 1.367 . S
C2473 C2481 1.433 . S
C2474 H2470 0.929 . S
C2474 C2476 1.378 . S
C2474 C2478 1.350 1_455 S
C2475 C2478 1.463 . S
C2475 C2480 1.350 . S
C2475 N2483 1.427 . S
C2476 H2467 0.930 . S
C2476 C2474 1.378 . S
C2476 C2477 1.367 1_455 S
C2477 C2476 1.367 1_655 S
C2477 C2479 1.433 . S
C2478 C2474 1.350 1_655 S
C2478 C2475 1.463 . S
C2478 N2482 1.427 . S
C2479 H2469 0.929 . S
C2479 C2477 1.433 . S
C2479 N2482 1.384 . S
C2480 H2471 0.929 . S
C2480 C2472 1.378 . S
C2480 C2475 1.350 . S
C2481 H2468 1.019 . S
C2481 C2473 1.433 . S
C2481 N2483 1.384 . S
N2482 C2478 1.427 . S
N2482 C2479 1.384 . S
N2483 C2475 1.427 . S
N2483 C2481 1.384 . S
H2484 C2490 0.930 . S
H2485 C2494 0.930 . S
H2486 C2499 0.929 . S
H2487 C2497 0.929 . S
H2488 C2492 0.929 . S
H2489 C2498 0.929 . S
C2490 H2484 0.930 . S
C2490 C2491 1.367 . S
C2490 C2498 1.378 . S
C2491 C2490 1.367 . S
C2491 C2499 1.433 . S
C2492 H2488 0.929 . S
C2492 C2494 1.378 . S
C2492 C2496 1.350 . S
C2493 C2496 1.463 . S
C2493 C2498 1.350 . S
C2493 N2501 1.427 . S
C2494 H2485 0.930 . S
C2494 C2492 1.378 . S
C2494 C2495 1.367 . S
C2495 C2494 1.367 . S
C2495 C2497 1.433 . S
C2496 C2492 1.350 . S
C2496 C2493 1.463 . S
C2496 N2500 1.427 . S
C2497 H2487 0.929 . S
C2497 C2495 1.433 . S
C2497 N2500 1.384 . S
C2498 H2489 0.929 . S
C2498 C2490 1.378 . S
C2498 C2493 1.350 . S
C2499 H2486 0.929 . S
C2499 C2491 1.433 . S
C2499 N2501 1.384 . S
N2500 C2496 1.427 . S
N2500 C2497 1.384 . S
N2501 C2493 1.427 . S
N2501 C2499 1.384 . S
H2502 C2508 0.930 . S
H2503 C2512 0.930 . S
H2504 C2517 0.929 . S
H2505 C2515 0.929 . S
H2506 C2510 0.929 . S
H2507 C2516 0.929 . S
C2508 H2502 0.930 . S
C2508 C2509 1.367 . S
C2508 C2516 1.378 . S
C2509 C2508 1.367 . S
C2509 C2517 1.433 . S
C2510 H2506 0.929 . S
C2510 C2512 1.378 . S
C2510 C2514 1.350 . S
C2511 C2514 1.463 . S
C2511 C2516 1.350 . S
C2511 N2519 1.427 . S
C2512 H2503 0.930 . S
C2512 C2510 1.378 . S
C2512 C2513 1.367 . S
C2513 C2512 1.367 . S
C2513 C2515 1.433 . S
C2514 C2510 1.350 . S
C2514 C2511 1.463 . S
C2514 N2518 1.427 . S
C2515 H2505 0.929 . S
C2515 C2513 1.433 . S
C2515 N2518 1.384 . S
C2516 H2507 0.929 . S
C2516 C2508 1.378 . S
C2516 C2511 1.350 . S
C2517 H2504 0.929 . S
C2517 C2509 1.433 . S
C2517 N2519 1.384 . S
N2518 C2514 1.427 . S
N2518 C2515 1.384 . S
N2519 C2511 1.427 . S
N2519 C2517 1.384 . S
H2520 C2526 0.930 . S
H2521 C2530 0.930 . S
H2522 C2535 0.929 . S
H2523 C2533 0.929 . S
H2524 C2528 0.929 . S
H2525 C2534 0.929 . S
C2526 H2520 0.930 . S
C2526 C2527 1.367 . S
C2526 C2534 1.378 . S
C2527 C2526 1.367 . S
C2527 C2535 1.433 . S
C2528 H2524 0.929 . S
C2528 C2530 1.378 . S
C2528 C2532 1.350 . S
C2529 C2532 1.463 . S
C2529 C2534 1.350 . S
C2529 N2537 1.427 . S
C2530 H2521 0.930 . S
C2530 C2528 1.378 . S
C2530 C2531 1.367 . S
C2531 C2530 1.367 . S
C2531 C2533 1.433 . S
C2532 C2528 1.350 . S
C2532 C2529 1.463 . S
C2532 N2536 1.427 . S
C2533 H2523 0.929 . S
C2533 C2531 1.433 . S
C2533 N2536 1.384 . S
C2534 H2525 0.929 . S
C2534 C2526 1.378 . S
C2534 C2529 1.350 . S
C2535 H2522 0.929 . S
C2535 C2527 1.433 . S
C2535 N2537 1.384 . S
N2536 C2532 1.427 . S
N2536 C2533 1.384 . S
N2537 C2529 1.427 . S
N2537 C2535 1.384 . S
H2538 C2544 0.930 . S
H2539 C2548 0.930 . S
H2540 C2553 0.929 . S
H2541 C2551 0.929 . S
H2542 C2546 0.929 . S
H2543 C2552 0.929 . S
C2544 H2538 0.930 . S
C2544 C2545 1.367 . S
C2544 C2552 1.378 . S
C2545 C2544 1.367 . S
C2545 C2553 1.433 . S
C2546 H2542 0.929 . S
C2546 C2548 1.378 . S
C2546 C2550 1.350 . S
C2547 C2550 1.463 . S
C2547 C2552 1.350 . S
C2547 N2555 1.427 . S
C2548 H2539 0.930 . S
C2548 C2546 1.378 . S
C2548 C2549 1.367 . S
C2549 C2548 1.367 . S
C2549 C2551 1.433 . S
C2550 C2546 1.350 . S
C2550 C2547 1.463 . S
C2550 N2554 1.427 . S
C2551 H2541 0.929 . S
C2551 C2549 1.433 . S
C2551 N2554 1.384 . S
C2552 H2543 0.929 . S
C2552 C2544 1.378 . S
C2552 C2547 1.350 . S
C2553 H2540 0.929 . S
C2553 C2545 1.433 . S
C2553 N2555 1.384 . S
N2554 C2550 1.427 . S
N2554 C2551 1.384 . S
N2555 C2547 1.427 . S
N2555 C2553 1.384 . S
H2556 C2562 0.930 . S
H2557 C2566 0.930 . S
H2558 C2571 0.929 . S
H2559 C2569 0.929 . S
H2560 C2564 0.929 . S
H2561 C2570 0.929 . S
C2562 H2556 0.930 . S
C2562 C2563 1.367 . S
C2562 C2570 1.378 . S
C2563 C2562 1.367 . S
C2563 C2571 1.433 . S
C2564 H2560 0.929 . S
C2564 C2566 1.378 . S
C2564 C2568 1.350 . S
C2565 C2568 1.463 . S
C2565 C2570 1.350 . S
C2565 N2573 1.427 . S
C2566 H2557 0.930 . S
C2566 C2564 1.378 . S
C2566 C2567 1.367 . S
C2567 C2566 1.367 . S
C2567 C2569 1.433 . S
C2568 C2564 1.350 . S
C2568 C2565 1.463 . S
C2568 N2572 1.427 . S
C2569 H2559 0.929 . S
C2569 C2567 1.433 . S
C2569 N2572 1.384 . S
C2570 H2561 0.929 . S
C2570 C2562 1.378 . S
C2570 C2565 1.350 . S
C2571 H2558 0.929 . S
C2571 C2563 1.433 . S
C2571 N2573 1.384 . S
N2572 C2568 1.427 . S
N2572 C2569 1.384 . S
N2573 C2565 1.427 . S
N2573 C2571 1.384 . S
H2574 C2580 0.930 . S
H2575 C2584 0.930 . S
H2576 C2589 0.929 . S
H2577 C2587 0.929 . S
H2578 C2582 0.929 . S
H2579 C2588 0.929 . S
C2580 H2574 0.930 . S
C2580 C2581 1.367 . S
C2580 C2588 1.378 . S
C2581 C2580 1.367 . S
C2581 C2589 1.433 . S
C2582 H2578 0.929 . S
C2582 C2584 1.378 . S
C2582 C2586 1.350 . S
C2583 C2586 1.463 . S
C2583 C2588 1.350 . S
C2583 N2591 1.427 . S
C2584 H2575 0.930 . S
C2584 C2582 1.378 . S
C2584 C2585 1.367 . S
C2585 C2584 1.367 . S
C2585 C2587 1.433 . S
C2586 C2582 1.350 . S
C2586 C2583 1.463 . S
C2586 N2590 1.427 . S
C2587 H2577 0.929 . S
C2587 C2585 1.433 . S
C2587 N2590 1.384 . S
C2588 H2579 0.929 . S
C2588 C2580 1.378 . S
C2588 C2583 1.350 . S
C2589 H2576 0.929 . S
C2589 C2581 1.433 . S
C2589 N2591 1.384 . S
N2590 C2586 1.427 . S
N2590 C2587 1.384 . S
N2591 C2583 1.427 . S
N2591 C2589 1.384 . S
H2592 C2598 0.930 . S
H2593 C2602 0.930 . S
H2594 C2607 0.929 . S
H2595 C2605 0.929 . S
H2596 C2600 0.929 . S
H2597 C2606 0.929 . S
C2598 H2592 0.930 . S
C2598 C2599 1.367 . S
C2598 C2606 1.378 . S
C2599 C2598 1.367 . S
C2599 C2607 1.433 . S
C2600 H2596 0.929 . S
C2600 C2602 1.378 . S
C2600 C2604 1.350 . S
C2601 C2604 1.463 . S
C2601 C2606 1.350 . S
C2601 N2609 1.427 . S
C2602 H2593 0.930 . S
C2602 C2600 1.378 . S
C2602 C2603 1.367 . S
C2603 C2602 1.367 . S
C2603 C2605 1.433 . S
C2604 C2600 1.350 . S
C2604 C2601 1.463 . S
C2604 N2608 1.427 . S
C2605 H2595 0.929 . S
C2605 C2603 1.433 . S
C2605 N2608 1.384 . S
C2606 H2597 0.929 . S
C2606 C2598 1.378 . S
C2606 C2601 1.350 . S
C2607 H2594 0.929 . S
C2607 C2599 1.433 . S
C2607 N2609 1.384 . S
N2608 C2604 1.427 . S
N2608 C2605 1.384 . S
N2609 C2601 1.427 . S
N2609 C2607 1.384 . S
H2610 C2616 0.909 1_455 S
H2611 C2620 0.930 . S
H2612 C2625 0.929 . S
H2613 C2623 0.929 . S
H2614 C2618 0.929 . S
H2615 C2624 0.929 1_455 S
C2616 H2610 0.909 1_655 S
C2616 C2617 1.367 . S
C2616 C2624 1.378 . S
C2617 C2616 1.367 . S
C2617 C2625 1.433 . S
C2618 H2614 0.929 . S
C2618 C2620 1.378 . S
C2618 C2622 1.350 . S
C2619 C2622 1.463 . S
C2619 C2624 1.350 . S
C2619 N2627 1.427 . S
C2620 H2611 0.930 . S
C2620 C2618 1.378 . S
C2620 C2621 1.367 . S
C2621 C2620 1.367 . S
C2621 C2623 1.433 1_655 S
C2622 C2618 1.350 . S
C2622 C2619 1.463 . S
C2622 N2626 1.427 1_655 S
C2623 H2613 0.929 . S
C2623 C2621 1.433 1_455 S
C2623 N2626 1.384 . S
C2624 H2615 0.929 1_655 S
C2624 C2616 1.378 . S
C2624 C2619 1.350 . S
C2625 H2612 0.929 . S
C2625 C2617 1.433 . S
C2625 N2627 1.384 . S
N2626 C2622 1.427 1_455 S
N2626 C2623 1.384 . S
N2627 C2619 1.427 . S
N2627 C2625 1.384 . S
H2628 C2634 0.930 . S
H2629 C2638 0.930 . S
H2630 C2643 0.929 . S
H2631 C2641 0.929 . S
H2632 C2636 0.929 . S
H2633 C2642 0.929 . S
C2634 H2628 0.930 . S
C2634 C2635 1.367 . S
C2634 C2642 1.378 . S
C2635 C2634 1.367 . S
C2635 C2643 1.433 . S
C2636 H2632 0.929 . S
C2636 C2638 1.378 . S
C2636 C2640 1.350 . S
C2637 C2640 1.463 . S
C2637 C2642 1.350 . S
C2637 N2645 1.427 . S
C2638 H2629 0.930 . S
C2638 C2636 1.378 . S
C2638 C2639 1.367 . S
C2639 C2638 1.367 . S
C2639 C2641 1.433 . S
C2640 C2636 1.350 . S
C2640 C2637 1.463 . S
C2640 N2644 1.427 . S
C2641 H2631 0.929 . S
C2641 C2639 1.433 . S
C2641 N2644 1.384 . S
C2642 H2633 0.929 . S
C2642 C2634 1.378 . S
C2642 C2637 1.350 . S
C2643 H2630 0.929 . S
C2643 C2635 1.433 . S
C2643 N2645 1.384 . S
N2644 C2640 1.427 . S
N2644 C2641 1.384 . S
N2645 C2637 1.427 . S
N2645 C2643 1.384 . S
H2646 C2652 0.930 . S
H2647 C2656 0.930 . S
H2648 C2661 0.929 . S
H2649 C2659 0.929 . S
H2650 C2654 0.929 . S
H2651 C2660 0.929 1_565 S
C2652 H2646 0.930 . S
C2652 C2653 1.367 . S
C2652 C2660 1.378 . S
C2653 C2652 1.367 . S
C2653 C2661 1.433 . S
C2654 H2650 0.929 . S
C2654 C2656 1.378 . S
C2654 C2658 1.350 . S
C2655 C2658 1.463 . S
C2655 C2660 1.350 . S
C2655 N2663 1.427 . S
C2656 H2647 0.930 . S
C2656 C2654 1.378 . S
C2656 C2657 1.367 . S
C2657 C2656 1.367 . S
C2657 C2659 1.433 1_545 S
C2658 C2654 1.350 . S
C2658 C2655 1.463 . S
C2658 N2662 1.427 1_545 S
C2659 H2649 0.929 . S
C2659 C2657 1.433 1_565 S
C2659 N2662 1.384 . S
C2660 H2651 0.929 1_545 S
C2660 C2652 1.378 . S
C2660 C2655 1.350 . S
C2661 H2648 0.929 . S
C2661 C2653 1.433 . S
C2661 N2663 1.384 . S
N2662 C2658 1.427 1_565 S
N2662 C2659 1.384 . S
N2663 C2655 1.427 . S
N2663 C2661 1.384 . S
C1375 C4 1.581 . S
C1379 C857 1.559 . S
C1393 C26 1.593 . S
C1397 C901 1.533 . S
C1415 C981 1.497 . S
C1411 C32 1.521 . S
C1429 C40 1.520 . S
C1433 C1025 1.471 . S
C1447 C12 1.563 . S
C1451 C1105 1.504 . S
C1465 C18 1.553 . S
C1469 C1167 1.532 . S
C1483 C46 1.565 . S
C1487 C1087 1.544 . S
C1505 C1149 1.518 . S
C1501 C68 1.593 . S
C1523 C1043 1.529 . S
C1519 C74 1.540 . S
C1537 C82 1.508 . S
C1541 C963 1.452 . S
C1559 C839 1.520 . S
C1555 C54 1.582 . S
C1573 C60 1.544 . S
C1577 C919 1.547 . S
C1591 C88 1.621 . S
C1595 C1229 1.597 . S
C1609 C110 1.617 . S
C1613 C1273 1.562 . S
C1631 C1353 1.567 . S
C1627 C116 1.592 . S
C1645 C124 1.538 . S
C1649 C299 1.472 . S
C1663 C96 1.582 . S
C1667 C343 1.528 . S
C1681 C102 1.562 . S
C1685 C423 1.538 . S
C1699 C130 1.613 . S
C1703 C361 1.615 . S
C1717 C152 1.630 . S
C1721 C405 1.558 . S
C1739 C281 1.554 . S
C1735 C158 1.583 . S
C1757 C1335 1.490 . S
C1753 C166 1.557 . S
C1775 C1211 1.501 . S
C1771 C138 1.573 . S
C1793 C1291 1.586 . S
C1789 C144 1.581 . S
C1807 C172 1.624 . S
C1811 C485 1.601 . S
C1825 C194 1.622 . S
C1829 C547 1.551 . S
C1843 C200 1.588 . S
C1847 C591 1.587 . S
C1861 C208 1.550 . S
C1865 C653 1.502 . S
C1883 C715 1.540 . S
C1879 C180 1.586 . S
C1901 C795 1.548 . S
C1897 C186 1.569 . S
C1919 C733 1.639 . S
C1915 C214 1.634 . S
C1937 C777 1.533 . S
C1933 C236 1.619 . S
C1951 C242 1.581 . S
C1955 C671 1.581 . S
C1973 C609 1.482 . S
C1969 C250 1.530 . S
C1987 C222 1.583 . S
C1991 C467 1.509 . S
C2009 C529 1.543 . S
C2005 C228 1.568 . S
C2027 C305 1.355 . S
C2023 C5 1.187 . S
C2041 C25 1.388 . S
C2045 C349 1.300 . S
C2063 C429 1.357 . S
C2059 C33 1.203 . S
C2081 C491 1.232 . S
C2077 C39 1.302 1_556 S
C2099 C553 1.305 . S
C2095 C11 1.382 . S
C2117 C597 1.323 . S
C2113 C19 1.150 1_556 S
C2131 C47 1.212 1_556 S
C2135 C615 1.410 . S
C2149 C67 1.377 1_556 S
C2153 C473 1.278 . S
C2167 C75 1.171 1_556 S
C2171 C535 1.350 . S
C2185 C81 1.335 . S
C2189 C367 1.267 . S
C2207 C411 1.288 . S
C2203 C53 1.359 . S
C2221 C61 1.132 . S
C2225 C287 1.296 . S
C2243 C659 1.353 . S
C2239 C89 1.156 . S
C2257 C109 1.425 . S
C2261 C721 1.356 . S
C2275 C117 1.190 . S
C2279 C801 1.352 . S
C2297 C863 1.243 . S
C2293 C123 1.290 . S
C2311 C95 1.367 . S
C2315 C907 1.291 . S
C2329 C103 1.075 . S
C2333 C987 1.230 . S
C2347 C131 1.091 . S
C2351 C969 1.240 . S
C2365 C151 1.349 . S
C2369 C845 1.257 . S
C2387 C925 1.340 . S
C2383 C159 1.164 . S
C2401 C165 1.347 . S
C2405 C739 1.276 . S
C2419 C137 1.382 1_545 S
C2423 C783 1.331 . S
C2441 C677 1.339 . S
C2437 C145 1.148 . S
C2459 C1031 1.287 . S
C2455 C173 1.107 . S
C2473 C193 1.315 . S
C2477 C1111 1.249 . S
C2491 C201 1.144 . S
C2495 C1173 1.306 . S
C2513 C1235 1.258 . S
C2509 C207 1.325 . S
C2531 C1279 1.358 . S
C2527 C179 1.421 1_565 S
C2545 C187 1.179 . S
C2549 C1359 1.340 . S
C2563 C215 1.202 . S
C2567 C1341 1.367 . S
C2581 C235 1.385 1_565 S
C2585 C1217 1.319 . S
C2603 C1297 1.348 . S
C2599 C243 1.164 . S
C2621 C1093 1.205 . S
C2617 C249 1.266 . S
C2639 C1155 1.277 . S
C2635 C221 1.372 . S
C2653 C229 1.095 . S
C2657 C1049 1.264 . S
