# Generated by pormake.
# Topology nom, (4,4)-cn, num edge types: 1
# Building blocks:
#     Node 0, Type 0, BuildingBlock: KUFVIS_clean_linker_0, # of connection points: 4
#     Node 1, Type 0, BuildingBlock: KUFVIS_clean_linker_0, # of connection points: 4
#     Node 2, Type 0, BuildingBlock: KUFVIS_clean_linker_0, # of connection points: 4
#     Node 3, Type 0, BuildingBlock: KUFVIS_clean_linker_0, # of connection points: 4
#     Node 4, Type 0, BuildingBlock: KUFVIS_clean_linker_0, # of connection points: 4
#     Node 5, Type 0, BuildingBlock: KUFVIS_clean_linker_0, # of connection points: 4
#     Node 6, Type 1, BuildingBlock: QUQFOY_clean_sbu_3, # of connection points: 4
#     Node 7, Type 1, BuildingBlock: QUQFOY_clean_sbu_3, # of connection points: 4
#     Node 8, Type 1, BuildingBlock: QUQFOY_clean_sbu_3, # of connection points: 4
#     Node 9, Type 1, BuildingBlock: QUQFOY_clean_sbu_3, # of connection points: 4
#     Node 10, Type 1, BuildingBlock: QUQFOY_clean_sbu_3, # of connection points: 4
#     Node 11, Type 1, BuildingBlock: QUQFOY_clean_sbu_3, # of connection points: 4
#     Edge 12, Type (0, 1), BuildingBlock: UVAHIK_clean_linker_0, # of connection points: 2
#     Edge 13, Type (0, 1), BuildingBlock: UVAHIK_clean_linker_0, # of connection points: 2
#     Edge 14, Type (0, 1), BuildingBlock: UVAHIK_clean_linker_0, # of connection points: 2
#     Edge 15, Type (0, 1), BuildingBlock: UVAHIK_clean_linker_0, # of connection points: 2
#     Edge 16, Type (0, 1), BuildingBlock: UVAHIK_clean_linker_0, # of connection points: 2
#     Edge 17, Type (0, 1), BuildingBlock: UVAHIK_clean_linker_0, # of connection points: 2
#     Edge 18, Type (0, 1), BuildingBlock: UVAHIK_clean_linker_0, # of connection points: 2
#     Edge 19, Type (0, 1), BuildingBlock: UVAHIK_clean_linker_0, # of connection points: 2
#     Edge 20, Type (0, 1), BuildingBlock: UVAHIK_clean_linker_0, # of connection points: 2
#     Edge 21, Type (0, 1), BuildingBlock: UVAHIK_clean_linker_0, # of connection points: 2
#     Edge 22, Type (0, 1), BuildingBlock: UVAHIK_clean_linker_0, # of connection points: 2
#     Edge 23, Type (0, 1), BuildingBlock: UVAHIK_clean_linker_0, # of connection points: 2
#     Edge 24, Type (0, 1), BuildingBlock: UVAHIK_clean_linker_0, # of connection points: 2
#     Edge 25, Type (0, 1), BuildingBlock: UVAHIK_clean_linker_0, # of connection points: 2
#     Edge 26, Type (0, 1), BuildingBlock: UVAHIK_clean_linker_0, # of connection points: 2
#     Edge 27, Type (0, 1), BuildingBlock: UVAHIK_clean_linker_0, # of connection points: 2
#     Edge 28, Type (0, 1), BuildingBlock: UVAHIK_clean_linker_0, # of connection points: 2
#     Edge 29, Type (0, 1), BuildingBlock: UVAHIK_clean_linker_0, # of connection points: 2
#     Edge 30, Type (0, 1), BuildingBlock: UVAHIK_clean_linker_0, # of connection points: 2
#     Edge 31, Type (0, 1), BuildingBlock: UVAHIK_clean_linker_0, # of connection points: 2
#     Edge 32, Type (0, 1), BuildingBlock: UVAHIK_clean_linker_0, # of connection points: 2
#     Edge 33, Type (0, 1), BuildingBlock: UVAHIK_clean_linker_0, # of connection points: 2
#     Edge 34, Type (0, 1), BuildingBlock: UVAHIK_clean_linker_0, # of connection points: 2
#     Edge 35, Type (0, 1), BuildingBlock: UVAHIK_clean_linker_0, # of connection points: 2
# Relax obj value: 0.003
# Max RMSD: 0.046
# Mean RMSD: 0.035
data_MOF--net-nom--node1-QUQFOY_clean_sbu_3--node2-KUFVIS_clean_linker_0--edge1-UVAHIK_clean_linker_0
_symmetry_space_group_name_H-M    P1
_symmetry_Int_Tables_number       1
_symmetry_cell_setting            triclinic
loop_
_symmetry_equiv_pos_as_xyz
'x, y, z'
_cell_length_a     59.400726
_cell_length_b     60.759599
_cell_length_c     59.790509
_cell_angle_alpha  89.992165
_cell_angle_beta   89.993632
_cell_angle_gamma 120.02088
loop_
_atom_site_label
_atom_site_type_symbol
_atom_site_fract_x
_atom_site_fract_y
_atom_site_fract_z
_atom_type_partial_charge
H0 H 0.08796 0.5737 0.3357 0.0
H1 H 0.02909 0.54118 0.28502 0.0
H2 H 0.01366 0.51015 0.35216 0.0
H3 H 0.97373 0.50607 0.34354 0.0
H4 H 0.91861 0.4565 0.29499 0.0
H5 H 0.99931 0.49928 0.27745 0.0
C6 C 0.06828 0.55993 0.33069 0.0
C7 C 0.05142 0.5424 0.34635 0.0
C8 C 0.06055 0.55927 0.3085 0.0
C9 C 0.03515 0.54108 0.30208 0.0
C10 C 0.01757 0.52344 0.31783 0.0
C11 C 0.02629 0.52398 0.33991 0.0
C12 C 0.99018 0.50468 0.31148 0.0
C13 C 0.96975 0.49755 0.32705 0.0
C14 C 0.94399 0.4797 0.32137 0.0
C15 C 0.93862 0.4693 0.29984 0.0
C16 C 0.95836 0.47656 0.28391 0.0
C17 C 0.98412 0.4941 0.28979 0.0
H18 H 0.54211 0.09018 0.49273 0.0
H19 H 0.49789 0.0295 0.44702 0.0
H20 H 0.51034 0.01358 0.51536 0.0
H21 H 0.47519 0.97639 0.50927 0.0
H22 H 0.45758 0.91706 0.46215 0.0
H23 H 0.49857 0.99432 0.43983 0.0
C24 C 0.53091 0.06993 0.48933 0.0
C25 C 0.52649 0.05264 0.50646 0.0
C26 C 0.52091 0.06159 0.46795 0.0
C27 C 0.50598 0.03545 0.4636 0.0
C28 C 0.50208 0.01739 0.48044 0.0
C29 C 0.51237 0.02649 0.50204 0.0
C30 C 0.48863 0.98942 0.47526 0.0
C31 C 0.47645 0.97092 0.49231 0.0
C32 C 0.46608 0.94499 0.48761 0.0
C33 C 0.46647 0.93722 0.46572 0.0
C34 C 0.47753 0.9549 0.44839 0.0
C35 C 0.48891 0.98091 0.45326 0.0
H36 H 0.54577 0.45407 0.64694 0.0
H37 H 0.51132 0.48016 0.69534 0.0
H38 H 0.51537 0.50121 0.62544 0.0
H39 H 0.48062 0.50434 0.63449 0.0
H40 H 0.47435 0.55582 0.67941 0.0
H41 H 0.51574 0.51858 0.70037 0.0
C42 C 0.53618 0.46483 0.65086 0.0
C43 C 0.53062 0.47699 0.63374 0.0
C44 C 0.52947 0.46616 0.67297 0.0
C45 C 0.51675 0.47974 0.67813 0.0
C46 C 0.51144 0.49281 0.66114 0.0
C47 C 0.51842 0.49103 0.63885 0.0
C48 C 0.49998 0.50929 0.66659 0.0
C49 C 0.48532 0.51393 0.6505 0.0
C50 C 0.47686 0.53135 0.65484 0.0
C51 C 0.48186 0.5432 0.67572 0.0
C52 C 0.49523 0.53812 0.69228 0.0
C53 C 0.50451 0.52143 0.68764 0.0
H54 H 0.10334 0.56184 0.79306 0.0
H55 H 0.04518 0.51933 0.84221 0.0
H56 H 0.02301 0.52616 0.77461 0.0
H57 H 0.98812 0.4884 0.7831 0.0
H58 H 0.92852 0.4714 0.83159 0.0
H59 H 0.0081 0.51932 0.8502 0.0
C60 C 0.08296 0.55084 0.79763 0.0
C61 C 0.06388 0.54461 0.78128 0.0
C62 C 0.0763 0.5421 0.81959 0.0
C63 C 0.05 0.52659 0.8253 0.0
C64 C 0.0302 0.52077 0.80931 0.0
C65 C 0.03757 0.52991 0.78722 0.0
C66 C 0.00201 0.50607 0.8157 0.0
C67 C 0.98272 0.49089 0.7998 0.0
C68 C 0.95619 0.47901 0.80531 0.0
C69 C 0.94894 0.48135 0.82702 0.0
C70 C 0.96759 0.49532 0.84326 0.0
C71 C 0.99403 0.50781 0.83759 0.0
H72 H 0.48386 0.93045 -0.00443 0.0
H73 H 0.52424 0.99069 0.94852 0.0
H74 H 0.51329 0.00713 0.01713 0.0
H75 H 0.54749 0.04494 0.00998 0.0
H76 H 0.56124 0.10256 0.96205 0.0
H77 H 0.52162 0.02477 0.94131 0.0
C78 C 0.49432 0.95066 0.99185 0.0
C79 C 0.49853 0.96809 0.00877 0.0
C80 C 0.50324 0.95879 0.97018 0.0
C81 C 0.51698 0.98488 0.96535 0.0
C82 C 0.52075 0.00304 0.98205 0.0
C83 C 0.51146 0.99416 0.00393 0.0
C84 C 0.53292 0.03083 0.97643 0.0
C85 C 0.54526 0.04984 0.99305 0.0
C86 C 0.55457 0.07554 0.98796 0.0
C87 C 0.55299 0.08256 0.96603 0.0
C88 C 0.5418 0.06438 0.94909 0.0
C89 C 0.5314 0.03859 0.95442 0.0
H90 H 0.47355 0.56386 0.14543 0.0
H91 H 0.50915 0.53923 0.19402 0.0
H92 H 0.50595 0.51835 0.12417 0.0
H93 H 0.54111 0.51592 0.13346 0.0
H94 H 0.54779 0.46478 0.17856 0.0
H95 H 0.50525 0.50102 0.19908 0.0
C96 C 0.48359 0.55355 0.14942 0.0
C97 C 0.48969 0.54175 0.13235 0.0
C98 C 0.49036 0.55246 0.17156 0.0
C99 C 0.5037 0.53949 0.17679 0.0
C100 C 0.5095 0.52672 0.15986 0.0
C101 C 0.50248 0.52829 0.13754 0.0
C102 C 0.52139 0.51063 0.16544 0.0
C103 C 0.53641 0.50631 0.14947 0.0
C104 C 0.54517 0.48914 0.15393 0.0
C105 C 0.5401 0.47724 0.17479 0.0
C106 C 0.52635 0.482 0.19122 0.0
C107 C 0.51679 0.49844 0.18647 0.0
C108 C 0.69382 0.41491 0.4079 0.0
O109 O 0.69038 0.432 0.41678 0.0
Cd110 Cd 0.6501 0.42719 0.42968 0.0
O111 O 0.67467 0.39244 0.40497 0.0
Cd112 Cd 0.62656 0.36835 0.41255 0.0
C113 C 0.61428 0.40781 0.38094 0.0
O114 O 0.62977 0.38764 0.44878 0.0
O115 O 0.59085 0.36422 0.43676 0.0
O116 O 0.63134 0.33115 0.41956 0.0
C117 C 0.60569 0.37851 0.45206 0.0
O118 O 0.62495 0.42425 0.39642 0.0
C119 C 0.61121 0.31559 0.40871 0.0
O120 O 0.6139 0.38664 0.38176 0.0
O121 O 0.59842 0.3246 0.39927 0.0
C122 C 0.29375 0.59271 0.56155 0.0
O123 O 0.27281 0.57499 0.5532 0.0
Cd124 Cd 0.23658 0.57816 0.53958 0.0
O125 O 0.29726 0.61515 0.56365 0.0
Cd126 Cd 0.27341 0.63861 0.55555 0.0
C127 C 0.22063 0.59917 0.58747 0.0
O128 O 0.25585 0.61738 0.5202 0.0
O129 O 0.2428 0.64294 0.53057 0.0
O130 O 0.31565 0.67608 0.54735 0.0
C131 C 0.24161 0.62696 0.51635 0.0
O132 O 0.21478 0.58226 0.57247 0.0
C133 C 0.31146 0.69161 0.55827 0.0
O134 O 0.24167 0.62054 0.58629 0.0
O135 O 0.28986 0.68241 0.56846 0.0
C136 C 0.71019 0.28822 0.72288 0.0
O137 O 0.7072 0.26781 0.71426 0.0
Cd138 Cd 0.66691 0.23209 0.70273 0.0
O139 O 0.69061 0.29116 0.72629 0.0
Cd140 Cd 0.64219 0.26677 0.72037 0.0
C141 C 0.633 0.2166 0.75254 0.0
O142 O 0.64473 0.25021 0.68411 0.0
O143 O 0.60606 0.23514 0.69693 0.0
O144 O 0.64581 0.30821 0.71344 0.0
C145 C 0.62062 0.23536 0.68136 0.0
O146 O 0.64352 0.21079 0.73678 0.0
C147 C 0.62593 0.30383 0.7248 0.0
O148 O 0.63168 0.23691 0.75165 0.0
O149 O 0.61372 0.28234 0.73439 0.0
C150 C 0.32497 0.60566 0.90748 0.0
O151 O 0.32778 0.58804 0.91603 0.0
Cd152 Cd 0.36777 0.5919 0.9288 0.0
O153 O 0.34453 0.62794 0.90488 0.0
Cd154 Cd 0.39258 0.65111 0.91249 0.0
C155 C 0.40409 0.61151 0.88033 0.0
O156 O 0.38907 0.6311 0.94851 0.0
O157 O 0.428 0.65433 0.93638 0.0
O158 O 0.38861 0.68865 0.92022 0.0
C159 C 0.41314 0.63992 0.95162 0.0
O160 O 0.39299 0.59487 0.8956 0.0
C161 C 0.40879 0.70414 0.90939 0.0
O162 O 0.40495 0.63289 0.8814 0.0
O163 O 0.42124 0.69495 0.89962 0.0
C164 C 0.73034 0.42862 0.06387 0.0
O165 O 0.75169 0.44663 0.05646 0.0
Cd166 Cd 0.78803 0.44321 0.0438 0.0
O167 O 0.72664 0.40606 0.06529 0.0
Cd168 Cd 0.75121 0.38331 0.05673 0.0
C169 C 0.80194 0.42011 0.09123 0.0
O170 O 0.77019 0.40558 0.02182 0.0
O171 O 0.78475 0.38172 0.03365 0.0
O172 O 0.70981 0.34602 0.04603 0.0
C173 C 0.78541 0.39692 0.01884 0.0
O174 O 0.80879 0.43783 0.07688 0.0
C175 C 0.71332 0.33007 0.05699 0.0
O176 O 0.78079 0.39904 0.08893 0.0
O177 O 0.73423 0.3389 0.06819 0.0
C178 C 0.30993 0.73219 0.22013 0.0
O179 O 0.31424 0.75266 0.21066 0.0
Cd180 Cd 0.35544 0.78776 0.20048 0.0
O181 O 0.32869 0.72841 0.22502 0.0
Cd182 Cd 0.37746 0.75132 0.2201 0.0
C183 C 0.38686 0.80196 0.25163 0.0
O184 O 0.37699 0.7682 0.18354 0.0
O185 O 0.41502 0.7827 0.19754 0.0
O186 O 0.37316 0.70953 0.21342 0.0
C187 C 0.40123 0.78273 0.1814 0.0
O188 O 0.3774 0.80823 0.23533 0.0
C189 C 0.39255 0.71345 0.22531 0.0
O190 O 0.38759 0.78133 0.25116 0.0
O191 O 0.40462 0.73476 0.23522 0.0
C192 C 0.08717 0.56812 0.27365 0.0
C193 C 0.08003 0.5772 0.29237 0.0
C194 C 0.1097 0.58436 0.26156 0.0
C195 C 0.16805 0.61701 0.25295 0.0
H196 H 0.19216 0.68868 0.24462 0.0
C197 C 0.27671 0.69198 0.23937 0.0
C198 C 0.28263 0.71269 0.22526 0.0
C199 C 0.25081 0.67439 0.24471 0.0
C200 C 0.18569 0.66866 0.24651 0.0
H201 H 0.0896 0.61055 0.31221 0.0
H202 H 0.12866 0.63883 0.29127 0.0
H203 H 0.1478 0.66039 0.25691 0.0
H204 H 0.26583 0.7305 0.20498 0.0
H205 H 0.22102 0.69974 0.21386 0.0
H206 H 0.20599 0.62532 0.24243 0.0
C207 C 0.11705 0.61932 0.28574 0.0
C208 C 0.16027 0.65246 0.25379 0.0
C209 C 0.09469 0.60312 0.29781 0.0
C210 C 0.26206 0.71499 0.21615 0.0
C211 C 0.23628 0.69736 0.22133 0.0
C212 C 0.19351 0.63323 0.24558 0.0
C213 C 0.12534 0.60998 0.26792 0.0
C214 C 0.15125 0.62652 0.25748 0.0
C215 C 0.23027 0.67703 0.23593 0.0
C216 C 0.20278 0.65934 0.24258 0.0
H217 H 0.07628 0.54816 0.26924 0.0
H218 H 0.11535 0.57667 0.24772 0.0
H219 H 0.16187 0.59719 0.25585 0.0
H220 H 0.29208 0.68966 0.24667 0.0
H221 H 0.24695 0.65912 0.2562 0.0
C222 C 0.55356 0.09565 0.44374 0.0
C223 C 0.52754 0.08111 0.45054 0.0
C224 C 0.56238 0.11905 0.43322 0.0
C225 C 0.54459 0.16299 0.40658 0.0
H226 H 0.60211 0.21386 0.44154 0.0
C227 C 0.57637 0.27015 0.4036 0.0
C228 C 0.60248 0.28813 0.40805 0.0
C229 C 0.56762 0.2441 0.4051 0.0
C230 C 0.58649 0.20006 0.43115 0.0
H231 H 0.48991 0.07857 0.45049 0.0
H232 H 0.50528 0.1196 0.43166 0.0
H233 H 0.58592 0.16921 0.44878 0.0
H234 H 0.64022 0.293 0.41622 0.0
H235 H 0.6254 0.24775 0.41775 0.0
H236 H 0.54527 0.19394 0.38881 0.0
C237 C 0.51879 0.11279 0.43434 0.0
C238 C 0.57712 0.17436 0.43542 0.0
C239 C 0.50995 0.08931 0.44499 0.0
C240 C 0.61991 0.27957 0.41299 0.0
C241 C 0.6113 0.25357 0.41404 0.0
C242 C 0.55426 0.18885 0.40203 0.0
C243 C 0.54535 0.1284 0.42936 0.0
C244 C 0.55599 0.15553 0.42331 0.0
C245 C 0.58489 0.23542 0.41071 0.0
C246 C 0.57525 0.20777 0.41441 0.0
H247 H 0.56748 0.08978 0.44812 0.0
H248 H 0.58288 0.13057 0.42933 0.0
H249 H 0.52827 0.14884 0.397 0.0
H250 H 0.56246 0.27621 0.39982 0.0
H251 H 0.54711 0.23086 0.40267 0.0
C252 C 0.43863 0.51815 0.62933 0.0
C253 C 0.46223 0.53734 0.63819 0.0
C254 C 0.42227 0.52452 0.61754 0.0
C255 C 0.4076 0.5764 0.61569 0.0
H256 H 0.36477 0.54066 0.56456 0.0
C257 C 0.33889 0.60659 0.57542 0.0
C258 C 0.31427 0.58706 0.56863 0.0
C259 C 0.35817 0.60105 0.5819 0.0
C260 C 0.37644 0.55069 0.57898 0.0
H261 H 0.48834 0.57801 0.64016 0.0
H262 H 0.46013 0.58911 0.61934 0.0
H263 H 0.39663 0.52965 0.57838 0.0
H264 H 0.29066 0.54633 0.56339 0.0
H265 H 0.32396 0.5367 0.57513 0.0
H266 H 0.38716 0.597 0.61677 0.0
C267 C 0.45386 0.56921 0.6219 0.0
C268 C 0.39472 0.5444 0.58684 0.0
C269 C 0.47008 0.56287 0.63367 0.0
C270 C 0.30942 0.56189 0.56844 0.0
C271 C 0.32862 0.55636 0.57502 0.0
C272 C 0.38929 0.58259 0.60793 0.0
C273 C 0.42934 0.55016 0.61445 0.0
C274 C 0.41049 0.55719 0.60531 0.0
C275 C 0.35324 0.57584 0.58186 0.0
C276 C 0.37339 0.56977 0.58953 0.0
H277 H 0.43209 0.49834 0.63273 0.0
H278 H 0.40347 0.5094 0.61203 0.0
H279 H 0.41905 0.58627 0.63027 0.0
H280 H 0.34336 0.62619 0.57561 0.0
H281 H 0.37702 0.61659 0.58678 0.0
C282 C 0.914 0.46715 0.78681 0.0
C283 C 0.9354 0.46342 0.78905 0.0
C284 C 0.89178 0.44959 0.7753 0.0
C285 C 0.85677 0.38167 0.76165 0.0
H286 H 0.81104 0.39905 0.72956 0.0
C287 C 0.75822 0.30513 0.72541 0.0
C288 C 0.73685 0.30883 0.7285 0.0
C289 C 0.78344 0.32446 0.73035 0.0
C290 C 0.82353 0.39391 0.73862 0.0
H291 H 0.95107 0.43932 0.77977 0.0
H292 H 0.91222 0.40861 0.75919 0.0
H293 H 0.85441 0.43258 0.74045 0.0
H294 H 0.72541 0.33595 0.73918 0.0
H295 H 0.76952 0.36968 0.74798 0.0
H296 H 0.82578 0.34307 0.76013 0.0
C297 C 0.91251 0.42497 0.76669 0.0
C298 C 0.84842 0.41311 0.7448 0.0
C299 C 0.93486 0.44267 0.77822 0.0
C300 C 0.74139 0.33243 0.73661 0.0
C301 C 0.76669 0.35183 0.74149 0.0
C302 C 0.83193 0.36249 0.75541 0.0
C303 C 0.8904 0.42783 0.76572 0.0
C304 C 0.86521 0.40728 0.7567 0.0
C305 C 0.78801 0.34805 0.73845 0.0
C306 C 0.81487 0.3684 0.7441 0.0
H307 H 0.91398 0.48308 0.79495 0.0
H308 H 0.87514 0.45237 0.77508 0.0
H309 H 0.86895 0.3765 0.77115 0.0
H310 H 0.75553 0.28725 0.71912 0.0
H311 H 0.79943 0.32101 0.72758 0.0
C312 C 0.4702 0.92496 0.94608 0.0
C313 C 0.49625 0.9391 0.95288 0.0
C314 C 0.46095 0.90148 0.93559 0.0
C315 C 0.47766 0.85695 0.90866 0.0
H316 H 0.4197 0.80636 0.94344 0.0
C317 C 0.44414 0.74944 0.90465 0.0
C318 C 0.41796 0.7317 0.90909 0.0
C319 C 0.4533 0.77555 0.90643 0.0
C320 C 0.43545 0.82008 0.9331 0.0
H321 H 0.53347 0.94079 0.95298 0.0
H322 H 0.51739 0.89968 0.93413 0.0
H323 H 0.43659 0.85107 0.95099 0.0
H324 H 0.3805 0.72735 0.91756 0.0
H325 H 0.39602 0.77272 0.91959 0.0
H326 H 0.47638 0.82589 0.8906 0.0
C327 C 0.50418 0.90685 0.93679 0.0
C328 C 0.44522 0.84582 0.93754 0.0
C329 C 0.51343 0.93038 0.94745 0.0
C330 C 0.40087 0.74058 0.91434 0.0
C331 C 0.40988 0.76665 0.91567 0.0
C332 C 0.46757 0.83107 0.90392 0.0
C333 C 0.47759 0.89168 0.93173 0.0
C334 C 0.46651 0.86454 0.92551 0.0
C335 C 0.43637 0.78455 0.91232 0.0
C336 C 0.44643 0.81224 0.91624 0.0
H337 H 0.45657 0.93122 0.95042 0.0
H338 H 0.44043 0.89029 0.93167 0.0
H339 H 0.49409 0.87101 0.89912 0.0
H340 H 0.4578 0.74313 0.90064 0.0
H341 H 0.47386 0.78857 0.90399 0.0
C342 C 0.55222 0.45787 0.13266 0.0
C343 C 0.56008 0.48335 0.13741 0.0
C344 C 0.56868 0.45161 0.12117 0.0
C345 C 0.62894 0.47684 0.08743 0.0
H346 H 0.63494 0.42316 0.117 0.0
C347 C 0.71454 0.45933 0.07087 0.0
C348 C 0.7096 0.43413 0.07063 0.0
C349 C 0.69516 0.46477 0.07707 0.0
C350 C 0.63326 0.43788 0.10826 0.0
H351 H 0.59054 0.52237 0.1327 0.0
H352 H 0.61958 0.51145 0.11251 0.0
H353 H 0.6028 0.43385 0.12991 0.0
H354 H 0.68015 0.39484 0.07649 0.0
H355 H 0.64619 0.40429 0.08704 0.0
H356 H 0.65962 0.48097 0.06587 0.0
C357 C 0.60058 0.49631 0.11758 0.0
C358 C 0.6148 0.44404 0.11568 0.0
C359 C 0.58398 0.5026 0.12907 0.0
C360 C 0.68469 0.41447 0.07663 0.0
C361 C 0.66524 0.41991 0.08276 0.0
C362 C 0.64738 0.4706 0.07992 0.0
C363 C 0.59347 0.47068 0.11425 0.0
C364 C 0.61246 0.46366 0.10544 0.0
C365 C 0.67026 0.44516 0.08312 0.0
C366 C 0.64989 0.45114 0.09035 0.0
H367 H 0.53376 0.4427 0.13877 0.0
H368 H 0.56236 0.43173 0.11841 0.0
H369 H 0.62748 0.4919 0.07908 0.0
H370 H 0.73351 0.475 0.06642 0.0
H371 H 0.6999 0.48444 0.07752 0.0
C372 C 0.46757 0.91115 0.50953 0.0
C373 C 0.45521 0.92522 0.50514 0.0
C374 C 0.45448 0.88803 0.52089 0.0
C375 C 0.39641 0.84453 0.55396 0.0
H376 H 0.39922 0.7928 0.51808 0.0
C377 C 0.32209 0.73679 0.56316 0.0
C378 C 0.33019 0.71927 0.55792 0.0
C379 C 0.33903 0.76292 0.56038 0.0
C380 C 0.39855 0.8069 0.52869 0.0
H381 H 0.42025 0.92724 0.51028 0.0
H382 H 0.39716 0.8866 0.53043 0.0
H383 H 0.42621 0.83716 0.50818 0.0
H384 H 0.36282 0.71541 0.54704 0.0
H385 H 0.39268 0.76085 0.54312 0.0
H386 H 0.36865 0.8141 0.57451 0.0
C387 C 0.41707 0.89357 0.52524 0.0
C388 C 0.41403 0.83243 0.52292 0.0
C389 C 0.43025 0.91682 0.5138 0.0
C390 C 0.35593 0.72844 0.55094 0.0
C391 C 0.37298 0.75453 0.54854 0.0
C392 C 0.38106 0.81886 0.55995 0.0
C393 C 0.42867 0.87844 0.52797 0.0
C394 C 0.41309 0.85155 0.53538 0.0
C395 C 0.36457 0.77213 0.55259 0.0
C396 C 0.38181 0.79966 0.54728 0.0
H397 H 0.48677 0.91724 0.50284 0.0
H398 H 0.46405 0.87698 0.52306 0.0
H399 H 0.39532 0.85888 0.56388 0.0
H400 H 0.30232 0.73028 0.56852 0.0
H401 H 0.33168 0.77574 0.56348 0.0
C402 C 0.52051 0.42839 0.69592 0.0
C403 C 0.53731 0.4539 0.69016 0.0
C404 C 0.53036 0.41408 0.70593 0.0
C405 C 0.58943 0.4111 0.70232 0.0
H406 H 0.55987 0.35979 0.7487 0.0
C407 C 0.63393 0.34819 0.72091 0.0
C408 C 0.6169 0.32253 0.72601 0.0
C409 C 0.62508 0.3656 0.72064 0.0
C410 C 0.56823 0.37384 0.73553 0.0
H411 H 0.57699 0.48498 0.69137 0.0
H412 H 0.59421 0.46016 0.70904 0.0
H413 H 0.54206 0.38787 0.74212 0.0
H414 H 0.57732 0.29503 0.73526 0.0
H415 H 0.56149 0.32506 0.73376 0.0
H416 H 0.61454 0.39655 0.69464 0.0
C417 C 0.57351 0.45116 0.70589 0.0
C418 C 0.5581 0.39003 0.73191 0.0
C419 C 0.56365 0.46543 0.69604 0.0
C420 C 0.59094 0.31473 0.73134 0.0
C421 C 0.58191 0.33206 0.73062 0.0
C422 C 0.59925 0.39475 0.70566 0.0
C423 C 0.55719 0.42506 0.70999 0.0
C424 C 0.56863 0.40882 0.71525 0.0
C425 C 0.59878 0.35771 0.72494 0.0
C426 C 0.5888 0.37581 0.72227 0.0
H427 H 0.50023 0.41902 0.69105 0.0
H428 H 0.51736 0.39398 0.70877 0.0
H429 H 0.59757 0.425 0.68899 0.0
H430 H 0.65414 0.35482 0.71701 0.0
H431 H 0.6389 0.38526 0.71682 0.0
C432 C 0.10137 0.53062 0.84628 0.0
C433 C 0.09757 0.54924 0.83593 0.0
C434 C 0.12471 0.53755 0.85753 0.0
C435 C 0.19309 0.58844 0.85545 0.0
H436 H 0.20099 0.55627 0.90849 0.0
C437 C 0.29412 0.61951 0.89323 0.0
C438 C 0.29855 0.60011 0.90087 0.0
C439 C 0.26907 0.61408 0.88727 0.0
C440 C 0.1991 0.56529 0.89354 0.0
H441 H 0.11395 0.58966 0.83066 0.0
H442 H 0.15429 0.60184 0.85067 0.0
H443 H 0.15746 0.54522 0.89576 0.0
H444 H 0.27995 0.55974 0.90818 0.0
H445 H 0.23656 0.55029 0.89741 0.0
H446 H 0.23452 0.60808 0.85283 0.0
C447 C 0.13971 0.58188 0.84968 0.0
C448 C 0.17416 0.55898 0.8863 0.0
C449 C 0.11655 0.57495 0.83841 0.0
C450 C 0.27731 0.5752 0.90243 0.0
C451 C 0.25232 0.56978 0.89642 0.0
C452 C 0.21795 0.59468 0.86263 0.0
C453 C 0.14452 0.56322 0.8586 0.0
C454 C 0.17087 0.57046 0.86713 0.0
C455 C 0.24785 0.58913 0.88873 0.0
C456 C 0.22131 0.58312 0.8817 0.0
H457 H 0.08709 0.51065 0.84441 0.0
H458 H 0.12783 0.52271 0.86418 0.0
H459 H 0.19127 0.59725 0.84033 0.0
H460 H 0.30998 0.63893 0.89195 0.0
H461 H 0.2663 0.62952 0.88168 0.0
C462 C 0.55459 0.11097 0.00853 0.0
C463 C 0.56601 0.09588 0.00499 0.0
C464 C 0.56835 0.13436 0.01935 0.0
C465 C 0.62633 0.1772 0.0526 0.0
H466 H 0.62664 0.22908 0.0146 0.0
C467 C 0.70204 0.28467 0.06183 0.0
C468 C 0.69454 0.30245 0.05585 0.0
C469 C 0.68499 0.2586 0.05881 0.0
C470 C 0.62645 0.21497 0.02576 0.0
H471 H 0.59993 0.09235 0.01127 0.0
H472 H 0.62419 0.13349 0.0305 0.0
H473 H 0.59883 0.18465 0.00528 0.0
H474 H 0.66282 0.30684 0.04324 0.0
H475 H 0.63274 0.26152 0.03885 0.0
H476 H 0.65396 0.20767 0.07318 0.0
C477 C 0.60451 0.12711 0.02498 0.0
C478 C 0.61051 0.1894 0.02033 0.0
C479 C 0.59064 0.10357 0.01408 0.0
C480 C 0.66928 0.29361 0.04773 0.0
C481 C 0.6521 0.26758 0.04507 0.0
C482 C 0.64213 0.20292 0.05824 0.0
C483 C 0.5939 0.14321 0.02678 0.0
C484 C 0.61027 0.17021 0.03362 0.0
C485 C 0.6599 0.24971 0.05002 0.0
C486 C 0.64246 0.22218 0.04482 0.0
H487 H 0.53562 0.1054 0.00158 0.0
H488 H 0.55952 0.14616 0.02083 0.0
H489 H 0.6265 0.16279 0.06314 0.0
H490 H 0.72143 0.29092 0.06808 0.0
H491 H 0.69187 0.24555 0.0626 0.0
C492 C 0.45538 0.55276 0.1938 0.0
C493 C 0.48195 0.56431 0.18869 0.0
C494 C 0.4453 0.56679 0.20374 0.0
C495 C 0.46006 0.62689 0.23145 0.0
H496 H 0.40487 0.62199 0.19342 0.0
C497 C 0.42714 0.70216 0.23246 0.0
C498 C 0.40139 0.69461 0.22655 0.0
C499 C 0.43618 0.68485 0.23149 0.0
C500 C 0.4198 0.62332 0.20464 0.0
H501 H 0.51912 0.59894 0.19106 0.0
H502 H 0.50155 0.62356 0.20891 0.0
H503 H 0.42205 0.59381 0.18716 0.0
H504 H 0.36447 0.6627 0.21629 0.0
H505 H 0.37971 0.63225 0.21566 0.0
H506 H 0.45769 0.65638 0.24905 0.0
C507 C 0.48856 0.60361 0.20539 0.0
C508 C 0.42974 0.60713 0.20095 0.0
C509 C 0.49865 0.58954 0.1953 0.0
C510 C 0.38453 0.66915 0.22067 0.0
C511 C 0.39339 0.65174 0.22014 0.0
C512 C 0.44979 0.64291 0.23541 0.0
C513 C 0.4616 0.59267 0.2087 0.0
C514 C 0.45009 0.60883 0.21417 0.0
C515 C 0.41954 0.65946 0.22496 0.0
C516 C 0.42965 0.64151 0.22189 0.0
H517 H 0.44213 0.53343 0.1885 0.0
H518 H 0.42449 0.5578 0.20631 0.0
H519 H 0.47574 0.62858 0.24191 0.0
H520 H 0.44063 0.7217 0.23697 0.0
H521 H 0.45649 0.69172 0.23507 0.0
C522 C 0.9018 0.44756 0.33872 0.0
C523 C 0.92198 0.47294 0.33695 0.0
C524 C 0.8788 0.44149 0.34995 0.0
C525 C 0.83956 0.47078 0.36433 0.0
H526 H 0.79733 0.40769 0.3964 0.0
C527 C 0.74135 0.44633 0.40405 0.0
C528 C 0.72054 0.42136 0.40131 0.0
C529 C 0.76663 0.45268 0.39813 0.0
C530 C 0.80882 0.42528 0.38733 0.0
H531 H 0.9345 0.5117 0.34679 0.0
H532 H 0.89449 0.50107 0.36692 0.0
H533 H 0.84118 0.41909 0.38447 0.0
H534 H 0.71015 0.38343 0.39026 0.0
H535 H 0.75439 0.39462 0.37971 0.0
H536 H 0.80718 0.47687 0.36694 0.0
C537 C 0.89628 0.48589 0.35921 0.0
C538 C 0.83397 0.43186 0.38054 0.0
C539 C 0.91934 0.49196 0.34794 0.0
C540 C 0.7257 0.40284 0.39257 0.0
C541 C 0.75108 0.40921 0.38668 0.0
C542 C 0.81448 0.46425 0.37116 0.0
C543 C 0.87543 0.46068 0.35974 0.0
C544 C 0.84957 0.4546 0.36877 0.0
C545 C 0.77182 0.43424 0.38932 0.0
C546 C 0.79872 0.44133 0.38258 0.0
H547 H 0.9034 0.43246 0.33059 0.0
H548 H 0.86317 0.42191 0.34989 0.0
H549 H 0.85076 0.48817 0.3549 0.0
H550 H 0.73819 0.4611 0.41082 0.0
H551 H 0.78218 0.47204 0.40065 0.0
C552 C 0.06793 0.52548 0.37612 0.0
C553 C 0.0612 0.54348 0.36917 0.0
C554 C 0.08343 0.53007 0.3951 0.0
C555 C 0.11109 0.57127 0.44491 0.0
H556 H 0.17299 0.56781 0.43086 0.0
C557 C 0.20553 0.62743 0.49528 0.0
C558 C 0.22063 0.61603 0.49949 0.0
C559 C 0.18431 0.61601 0.48075 0.0
C560 C 0.15568 0.5685 0.43529 0.0
H561 H 0.06374 0.57942 0.37695 0.0
H562 H 0.09033 0.58726 0.41038 0.0
H563 H 0.13661 0.55018 0.40484 0.0
H564 H 0.22554 0.58383 0.49163 0.0
H565 H 0.18827 0.56367 0.46655 0.0
H566 H 0.13022 0.58984 0.47526 0.0
C567 C 0.0837 0.56962 0.40134 0.0
C568 C 0.13479 0.55833 0.42038 0.0
C569 C 0.06851 0.56518 0.38226 0.0
C570 C 0.21437 0.59318 0.48858 0.0
C571 C 0.19301 0.58164 0.47419 0.0
C572 C 0.1319 0.58127 0.45993 0.0
C573 C 0.09218 0.55261 0.40744 0.0
C574 C 0.11249 0.56005 0.42483 0.0
C575 C 0.17757 0.5928 0.47024 0.0
C576 C 0.15468 0.58049 0.45508 0.0
H577 H 0.06274 0.5088 0.36603 0.0
H578 H 0.08955 0.51657 0.39955 0.0
H579 H 0.09405 0.57268 0.44883 0.0
H580 H 0.20995 0.64511 0.50337 0.0
H581 H 0.17324 0.62546 0.4777 0.0
C582 C 0.56369 0.07889 0.53159 0.0
C583 C 0.53683 0.06287 0.52885 0.0
C584 C 0.57337 0.09454 0.55034 0.0
C585 C 0.55651 0.11001 0.60582 0.0
H586 H 0.60675 0.17897 0.58826 0.0
C587 C 0.58425 0.19704 0.66278 0.0
C588 C 0.61074 0.21564 0.66373 0.0
C589 C 0.57535 0.17731 0.64715 0.0
C590 C 0.59299 0.15979 0.59355 0.0
H591 H 0.49906 0.0493 0.54392 0.0
H592 H 0.5159 0.07686 0.57681 0.0
H593 H 0.59176 0.14493 0.56095 0.0
H594 H 0.64858 0.2283 0.64886 0.0
H595 H 0.6331 0.19393 0.62169 0.0
H596 H 0.5576 0.12515 0.63844 0.0
C597 C 0.52956 0.07713 0.56467 0.0
C598 C 0.58445 0.14021 0.5779 0.0
C599 C 0.51989 0.06128 0.54592 0.0
C600 C 0.62803 0.21435 0.64849 0.0
C601 C 0.61914 0.19466 0.63287 0.0
C602 C 0.5651 0.12967 0.62154 0.0
C603 C 0.55632 0.09474 0.56656 0.0
C604 C 0.56613 0.11507 0.58382 0.0
C605 C 0.59273 0.17581 0.6321 0.0
C606 C 0.58344 0.1548 0.61555 0.0
H607 H 0.57705 0.08044 0.51851 0.0
H608 H 0.59413 0.10745 0.55156 0.0
H609 H 0.54247 0.09084 0.61093 0.0
H610 H 0.57044 0.19752 0.67431 0.0
H611 H 0.55482 0.1633 0.64676 0.0
C612 C 0.48706 0.53348 0.73345 0.0
C613 C 0.4976 0.54933 0.71472 0.0
C614 C 0.48283 0.54305 0.75331 0.0
C615 C 0.4684 0.59266 0.76986 0.0
H616 H 0.46999 0.56988 0.83008 0.0
C617 C 0.43209 0.625 0.84587 0.0
C618 C 0.41713 0.60617 0.8617 0.0
C619 C 0.44527 0.62012 0.82894 0.0
C620 C 0.46929 0.57629 0.81333 0.0
H621 H 0.5144 0.58797 0.70259 0.0
H622 H 0.5076 0.60485 0.73738 0.0
H623 H 0.48929 0.55828 0.79946 0.0
H624 H 0.40414 0.56733 0.87196 0.0
H625 H 0.42664 0.55875 0.84227 0.0
H626 H 0.44781 0.61005 0.78348 0.0
C627 C 0.50193 0.58493 0.73662 0.0
C628 C 0.48042 0.56971 0.79582 0.0
C629 C 0.50602 0.57534 0.71679 0.0
C630 C 0.41553 0.58233 0.8601 0.0
C631 C 0.42865 0.57746 0.84318 0.0
C632 C 0.45726 0.59919 0.78732 0.0
C633 C 0.48918 0.56865 0.75474 0.0
C634 C 0.47983 0.57758 0.77384 0.0
C635 C 0.44376 0.59631 0.82745 0.0
C636 C 0.45724 0.5908 0.80921 0.0
H637 H 0.48022 0.51331 0.73218 0.0
H638 H 0.47289 0.52998 0.76693 0.0
H639 H 0.4671 0.59861 0.75307 0.0
H640 H 0.43389 0.64362 0.84668 0.0
H641 H 0.45692 0.63513 0.81719 0.0
C642 C 0.93954 0.5019 0.87017 0.0
C643 C 0.95867 0.49522 0.86633 0.0
C644 C 0.92589 0.49559 0.89033 0.0
C645 C 0.90287 0.44512 0.93146 0.0
H646 H 0.87541 0.48352 0.96096 0.0
C647 C 0.82662 0.40226 0.00238 0.0
C648 C 0.80667 0.40831 0.00222 0.0
C649 C 0.84786 0.41461 0.98794 0.0
C650 C 0.88276 0.47249 0.95278 0.0
H651 H 0.9799 0.47839 0.88087 0.0
H652 H 0.95598 0.46733 0.91635 0.0
H653 H 0.91007 0.50439 0.93334 0.0
H654 H 0.79301 0.43158 0.9864 0.0
H655 H 0.82967 0.45264 0.96078 0.0
H656 H 0.87498 0.41298 0.95016 0.0
C657 C 0.95149 0.47734 0.90372 0.0
C658 C 0.90273 0.4845 0.93709 0.0
C659 C 0.96535 0.4839 0.88358 0.0
C660 C 0.80811 0.42655 0.98697 0.0
C661 C 0.82928 0.43882 0.97246 0.0
C662 C 0.88283 0.43307 0.94706 0.0
C663 C 0.93094 0.48226 0.90693 0.0
C664 C 0.91267 0.47082 0.92597 0.0
C665 C 0.84955 0.4332 0.97292 0.0
C666 C 0.87217 0.44648 0.95758 0.0
H667 H 0.93403 0.51054 0.85701 0.0
H668 H 0.91008 0.49949 0.89219 0.0
H669 H 0.9098 0.43393 0.92289 0.0
H670 H 0.82615 0.38837 0.01403 0.0
H671 H 0.86321 0.40996 0.98887 0.0
C672 C 0.50581 0.95865 0.04775 0.0
C673 C 0.48868 0.95803 0.03129 0.0
C674 C 0.49619 0.94259 0.06638 0.0
C675 C 0.44068 0.8801 0.07929 0.0
H676 H 0.46766 0.89336 0.13981 0.0
C677 C 0.39524 0.80467 0.14853 0.0
C678 C 0.41195 0.80269 0.16398 0.0
C679 C 0.40482 0.82465 0.13319 0.0
C680 C 0.46014 0.88932 0.1229 0.0
H681 H 0.44831 0.94187 0.02188 0.0
H682 H 0.43138 0.91441 0.0547 0.0
H683 H 0.48347 0.92832 0.11286 0.0
H684 H 0.45196 0.81986 0.17516 0.0
H685 H 0.46884 0.85457 0.148 0.0
H686 H 0.41776 0.84118 0.08899 0.0
C687 C 0.45219 0.92684 0.05313 0.0
C688 C 0.46911 0.90936 0.10752 0.0
C689 C 0.4618 0.94275 0.03453 0.0
C690 C 0.43859 0.82088 0.16347 0.0
C691 C 0.44821 0.84089 0.14805 0.0
C692 C 0.43182 0.86014 0.09457 0.0
C693 C 0.46932 0.92568 0.06869 0.0
C694 C 0.45936 0.90496 0.08557 0.0
C695 C 0.43139 0.8431 0.13283 0.0
C696 C 0.44135 0.86447 0.11658 0.0
H697 H 0.52664 0.97002 0.04531 0.0
H698 H 0.50989 0.94209 0.07803 0.0
H699 H 0.43329 0.8759 0.06234 0.0
H700 H 0.37459 0.79106 0.14858 0.0
H701 H 0.39126 0.82593 0.12192 0.0
C702 C 0.53367 0.48633 0.2325 0.0
C703 C 0.52373 0.47064 0.21362 0.0
C704 C 0.53756 0.47667 0.25247 0.0
C705 C 0.55228 0.4274 0.26945 0.0
H706 H 0.54852 0.44911 0.32959 0.0
C707 C 0.58696 0.39453 0.3461 0.0
C708 C 0.60134 0.41317 0.36224 0.0
C709 C 0.57406 0.39946 0.32897 0.0
C710 C 0.54983 0.443 0.31287 0.0
H711 H 0.50764 0.43217 0.20127 0.0
H712 H 0.51385 0.41513 0.23622 0.0
H713 H 0.52992 0.46087 0.29853 0.0
H714 H 0.61353 0.45171 0.3729 0.0
H715 H 0.59152 0.46041 0.34286 0.0
H716 H 0.57279 0.41017 0.28354 0.0
C717 C 0.51932 0.435 0.23552 0.0
C718 C 0.5391 0.44968 0.29511 0.0
C719 C 0.51557 0.44468 0.21559 0.0
C720 C 0.60259 0.43686 0.36079 0.0
C721 C 0.58975 0.4418 0.34367 0.0
C722 C 0.56302 0.42078 0.28716 0.0
C723 C 0.53146 0.45114 0.25384 0.0
C724 C 0.54046 0.44217 0.27316 0.0
C725 C 0.57529 0.42316 0.32757 0.0
C726 C 0.56224 0.42877 0.30904 0.0
H727 H 0.54029 0.50646 0.23133 0.0
H728 H 0.54703 0.48963 0.26625 0.0
H729 H 0.55417 0.42174 0.25269 0.0
H730 H 0.58544 0.37602 0.34679 0.0
H731 H 0.56288 0.3846 0.31696 0.0
C732 C 0.4811 0.92568 0.42093 0.0
C733 C 0.4761 0.94559 0.4252 0.0
C734 C 0.47516 0.91357 0.40018 0.0
C735 C 0.42993 0.90001 0.3536 0.0
H736 H 0.46815 0.87055 0.32656 0.0
C737 C 0.39659 0.84194 0.27178 0.0
C738 C 0.39799 0.81951 0.27093 0.0
C739 C 0.40785 0.85905 0.28945 0.0
C740 C 0.45718 0.87851 0.33402 0.0
H741 H 0.46265 0.96958 0.4106 0.0
H742 H 0.45273 0.94873 0.37405 0.0
H743 H 0.48674 0.89923 0.35843 0.0
H744 H 0.41229 0.7975 0.28816 0.0
H745 H 0.43175 0.82732 0.31915 0.0
H746 H 0.40024 0.87905 0.32943 0.0
C747 C 0.46076 0.94216 0.38695 0.0
C748 C 0.46785 0.89499 0.35223 0.0
C749 C 0.46673 0.95431 0.40777 0.0
C750 C 0.41083 0.81456 0.28828 0.0
C751 C 0.42217 0.83176 0.30595 0.0
C752 C 0.41931 0.88359 0.33538 0.0
C753 C 0.46415 0.92113 0.38316 0.0
C754 C 0.45421 0.9057 0.36241 0.0
C755 C 0.42084 0.85422 0.3067 0.0
C756 C 0.43266 0.87241 0.32554 0.0
H757 H 0.48861 0.91876 0.434 0.0
H758 H 0.47791 0.89738 0.39793 0.0
H759 H 0.41864 0.90749 0.36128 0.0
H760 H 0.38694 0.84644 0.25868 0.0
H761 H 0.4067 0.87629 0.28942 0.0
C762 C 0.5634 0.48072 0.60583 0.0
C763 C 0.53777 0.47453 0.61061 0.0
C764 C 0.56943 0.47366 0.5855 0.0
C765 C 0.53906 0.42311 0.54444 0.0
H766 H 0.60437 0.4624 0.5129 0.0
C767 C 0.56982 0.3824 0.47026 0.0
C768 C 0.59606 0.38879 0.46969 0.0
C769 C 0.56132 0.39403 0.48563 0.0
C770 C 0.58613 0.45113 0.52163 0.0
H771 H 0.49857 0.45742 0.59766 0.0
H772 H 0.50908 0.44491 0.56185 0.0
H773 H 0.59196 0.48272 0.54174 0.0
H774 H 0.63379 0.41179 0.48521 0.0
H775 H 0.61888 0.43162 0.5123 0.0
H776 H 0.5336 0.3913 0.5249 0.0
C777 C 0.52448 0.45518 0.57388 0.0
C778 C 0.57897 0.46281 0.53804 0.0
C779 C 0.5185 0.46252 0.59421 0.0
C780 C 0.61346 0.40652 0.48517 0.0
C781 C 0.60497 0.41809 0.50054 0.0
C782 C 0.54626 0.41139 0.52806 0.0
C783 C 0.54986 0.46004 0.56962 0.0
C784 C 0.55562 0.4488 0.54995 0.0
C785 C 0.57888 0.41225 0.50076 0.0
C786 C 0.57015 0.42513 0.51683 0.0
H787 H 0.57853 0.48994 0.61831 0.0
H788 H 0.5891 0.47749 0.58283 0.0
H789 H 0.52112 0.41172 0.55354 0.0
H790 H 0.55595 0.36887 0.45848 0.0
H791 H 0.54112 0.3892 0.48528 0.0
C792 C 0.09265 0.57688 0.75305 0.0
C793 C 0.07211 0.55232 0.75781 0.0
C794 C 0.10452 0.58259 0.73207 0.0
C795 C 0.11708 0.54967 0.68691 0.0
H796 H 0.14964 0.61579 0.65826 0.0
C797 C 0.1786 0.57064 0.60699 0.0
C798 C 0.20204 0.594 0.606 0.0
C799 C 0.16056 0.56581 0.62394 0.0
C800 C 0.1408 0.59729 0.66617 0.0
H801 H 0.04645 0.51508 0.74381 0.0
H802 H 0.06687 0.52519 0.70688 0.0
H803 H 0.11984 0.60704 0.68954 0.0
H804 H 0.22481 0.63064 0.62217 0.0
H805 H 0.19339 0.62201 0.65202 0.0
H806 H 0.13838 0.54005 0.66396 0.0
C807 C 0.07414 0.53989 0.71956 0.0
C808 C 0.12365 0.59224 0.68402 0.0
C809 C 0.06224 0.53418 0.74059 0.0
C810 C 0.20699 0.61244 0.62243 0.0
C811 C 0.18888 0.60758 0.63943 0.0
C812 C 0.13416 0.5547 0.6691 0.0
C813 C 0.09607 0.56385 0.71536 0.0
C814 C 0.11185 0.56846 0.69478 0.0
C815 C 0.16547 0.58419 0.64037 0.0
C816 C 0.14647 0.57866 0.65869 0.0
H817 H 0.10045 0.59131 0.76598 0.0
H818 H 0.12139 0.6012 0.72948 0.0
H819 H 0.10879 0.53135 0.6951 0.0
H820 H 0.17402 0.55603 0.59455 0.0
H821 H 0.14259 0.54772 0.62402 0.0
C822 C 0.53694 0.0925 0.92123 0.0
C823 C 0.54249 0.07301 0.92576 0.0
C824 C 0.54262 0.10434 0.90034 0.0
C825 C 0.58847 0.11832 0.85427 0.0
H826 H 0.55003 0.14707 0.8264 0.0
C827 C 0.623 0.1766 0.77274 0.0
C828 C 0.62136 0.19889 0.77166 0.0
C829 C 0.61138 0.15936 0.79027 0.0
C830 C 0.56105 0.1393 0.8341 0.0
H831 H 0.55649 0.04931 0.91146 0.0
H832 H 0.56591 0.06964 0.8747 0.0
H833 H 0.5312 0.11831 0.85822 0.0
H834 H 0.60618 0.22048 0.78829 0.0
H835 H 0.58612 0.19045 0.81909 0.0
H836 H 0.61849 0.13957 0.83044 0.0
C837 C 0.55767 0.07613 0.88749 0.0
C838 C 0.55024 0.12277 0.85227 0.0
C839 C 0.55199 0.06427 0.90844 0.0
C840 C 0.60785 0.20353 0.78861 0.0
C841 C 0.59616 0.18622 0.80616 0.0
C842 C 0.59924 0.13478 0.83611 0.0
C843 C 0.55391 0.09689 0.88348 0.0
C844 C 0.56396 0.11231 0.86274 0.0
C845 C 0.5978 0.16393 0.80717 0.0
C846 C 0.5858 0.14569 0.82596 0.0
H847 H 0.52932 0.09941 0.93421 0.0
H848 H 0.53955 0.12031 0.8979 0.0
H849 H 0.59984 0.11105 0.8622 0.0
H850 H 0.63314 0.17231 0.75995 0.0
H851 H 0.61276 0.14225 0.79043 0.0
C852 C 0.45669 0.53725 0.10434 0.0
C853 C 0.48247 0.54399 0.10918 0.0
C854 C 0.4505 0.54422 0.08404 0.0
C855 C 0.48031 0.5953 0.04337 0.0
H856 H 0.4152 0.55561 0.01168 0.0
C857 C 0.44907 0.63602 0.96964 0.0
C858 C 0.42276 0.62941 0.96905 0.0
C859 C 0.45767 0.62436 0.98486 0.0
C860 C 0.43338 0.56699 0.02046 0.0
H861 H 0.52177 0.56191 0.09634 0.0
H862 H 0.51096 0.57423 0.06057 0.0
H863 H 0.42799 0.53537 0.0403 0.0
H864 H 0.38499 0.6059 0.98435 0.0
H865 H 0.40008 0.58597 0.01121 0.0
H866 H 0.48532 0.62712 0.0241 0.0
C867 C 0.49558 0.56363 0.07254 0.0
C868 C 0.44076 0.55535 0.03674 0.0
C869 C 0.50173 0.5564 0.09284 0.0
C870 C 0.40537 0.61135 0.98434 0.0
C871 C 0.41397 0.59973 -0.00043 0.0
C872 C 0.47289 0.60697 0.02712 0.0
C873 C 0.47003 0.55827 0.06825 0.0
C874 C 0.46405 0.5695 0.04869 0.0
C875 C 0.44016 0.60586 -0.00016 0.0
C876 C 0.44907 0.59307 0.01582 0.0
H877 H 0.44156 0.52771 0.11677 0.0
H878 H 0.4307 0.53999 0.08135 0.0
H879 H 0.49818 0.60681 0.05252 0.0
H880 H 0.46293 0.64981 0.958 0.0
H881 H 0.47793 0.62941 0.98454 0.0
C882 C 0.95729 0.48493 0.24314 0.0
C883 C 0.95091 0.46741 0.26067 0.0
C884 C 0.94449 0.47707 0.22256 0.0
C885 C 0.88063 0.42863 0.2024 0.0
H886 H 0.90818 0.45728 0.14407 0.0
C887 C 0.81461 0.40355 0.12459 0.0
C888 C 0.81958 0.42378 0.11017 0.0
C889 C 0.83205 0.40685 0.14172 0.0
C890 C 0.90018 0.44924 0.16029 0.0
H891 H 0.92834 0.42767 0.26984 0.0
H892 H 0.90637 0.41381 0.23379 0.0
H893 H 0.93795 0.46612 0.17538 0.0
H894 H 0.8467 0.46342 0.10268 0.0
H895 H 0.87669 0.46926 0.13278 0.0
H896 H 0.84289 0.41241 0.18764 0.0
C897 C 0.9207 0.4337 0.23607 0.0
C898 C 0.91725 0.45423 0.17818 0.0
C899 C 0.93339 0.44157 0.25662 0.0
C900 C 0.84227 0.4474 0.11342 0.0
C901 C 0.85963 0.4507 0.13057 0.0
C902 C 0.8636 0.42371 0.18457 0.0
C903 C 0.92518 0.45155 0.2192 0.0
C904 C 0.90763 0.44423 0.19951 0.0
C905 C 0.85481 0.43045 0.14487 0.0
C906 C 0.87312 0.43424 0.16338 0.0
H907 H 0.97057 0.50499 0.24591 0.0
H908 H 0.94834 0.49131 0.20994 0.0
H909 H 0.87251 0.42105 0.21871 0.0
H910 H 0.79743 0.38506 0.12246 0.0
H911 H 0.82786 0.39079 0.15233 0.0
loop_
_geom_bond_atom_site_label_1
_geom_bond_atom_site_label_2
_geom_bond_distance
_geom_bond_site_symmetry_2
_ccdc_geom_bond_type
H0 C6 0.930 . S
H1 C9 0.931 . S
H2 C11 0.931 . S
H3 C13 0.930 . S
H4 C15 0.930 . S
H5 C17 0.931 1_455 S
C6 H0 0.930 . S
C6 C7 1.380 . S
C6 C8 1.394 . S
C7 C6 1.380 . S
C7 C11 1.382 . S
C8 C6 1.394 . S
C8 C9 1.400 . S
C9 H1 0.931 . S
C9 C8 1.400 . S
C9 C10 1.375 . S
C10 C9 1.375 . S
C10 C11 1.415 . S
C10 C12 1.501 1_455 S
C11 H2 0.931 . S
C11 C7 1.382 . S
C11 C10 1.415 . S
C12 C10 1.501 1_655 S
C12 C13 1.384 . S
C12 C17 1.408 . S
C13 H3 0.930 . S
C13 C12 1.384 . S
C13 C14 1.389 . S
C14 C13 1.389 . S
C14 C15 1.405 . S
C15 H4 0.930 . S
C15 C14 1.405 . S
C15 C16 1.364 . S
C16 C15 1.364 . S
C16 C17 1.400 . S
C17 H5 0.931 1_655 S
C17 C12 1.408 . S
C17 C16 1.400 . S
H18 C24 0.930 . S
H19 C27 0.931 . S
H20 C29 0.931 . S
H21 C31 0.930 . S
H22 C33 0.930 . S
H23 C35 0.931 1_545 S
C24 H18 0.930 . S
C24 C25 1.380 . S
C24 C26 1.394 . S
C25 C24 1.380 . S
C25 C29 1.382 . S
C26 C24 1.394 . S
C26 C27 1.400 . S
C27 H19 0.931 . S
C27 C26 1.400 . S
C27 C28 1.375 . S
C28 C27 1.375 . S
C28 C29 1.415 . S
C28 C30 1.501 1_545 S
C29 H20 0.931 . S
C29 C25 1.382 . S
C29 C28 1.415 . S
C30 C28 1.501 1_565 S
C30 C31 1.384 . S
C30 C35 1.408 . S
C31 H21 0.930 . S
C31 C30 1.384 . S
C31 C32 1.389 . S
C32 C31 1.389 . S
C32 C33 1.405 . S
C33 H22 0.930 . S
C33 C32 1.405 . S
C33 C34 1.364 . S
C34 C33 1.364 . S
C34 C35 1.400 . S
C35 H23 0.931 1_565 S
C35 C30 1.408 . S
C35 C34 1.400 . S
H36 C42 0.930 . S
H37 C45 0.931 . S
H38 C47 0.931 . S
H39 C49 0.930 . S
H40 C51 0.930 . S
H41 C53 0.931 . S
C42 H36 0.930 . S
C42 C43 1.380 . S
C42 C44 1.394 . S
C43 C42 1.380 . S
C43 C47 1.382 . S
C44 C42 1.394 . S
C44 C45 1.400 . S
C45 H37 0.931 . S
C45 C44 1.400 . S
C45 C46 1.375 . S
C46 C45 1.375 . S
C46 C47 1.415 . S
C46 C48 1.501 . S
C47 H38 0.931 . S
C47 C43 1.382 . S
C47 C46 1.415 . S
C48 C46 1.501 . S
C48 C49 1.384 . S
C48 C53 1.408 . S
C49 H39 0.930 . S
C49 C48 1.384 . S
C49 C50 1.389 . S
C50 C49 1.389 . S
C50 C51 1.405 . S
C51 H40 0.930 . S
C51 C50 1.405 . S
C51 C52 1.364 . S
C52 C51 1.364 . S
C52 C53 1.400 . S
C53 H41 0.931 . S
C53 C48 1.408 . S
C53 C52 1.400 . S
H54 C60 0.930 . S
H55 C63 0.931 . S
H56 C65 0.931 . S
H57 C67 0.930 . S
H58 C69 0.930 . S
H59 C71 0.935 . S
C60 H54 0.930 . S
C60 C61 1.380 . S
C60 C62 1.394 . S
C61 C60 1.380 . S
C61 C65 1.382 . S
C62 C60 1.394 . S
C62 C63 1.400 . S
C63 H55 0.931 . S
C63 C62 1.400 . S
C63 C64 1.375 . S
C64 C63 1.375 . S
C64 C65 1.415 . S
C64 C66 1.501 1_455 S
C65 H56 0.931 . S
C65 C61 1.382 . S
C65 C64 1.415 . S
C66 C64 1.501 1_655 S
C66 C67 1.384 . S
C66 C71 1.408 . S
C67 H57 0.930 . S
C67 C66 1.384 . S
C67 C68 1.389 . S
C68 C67 1.389 . S
C68 C69 1.405 . S
C69 H58 0.930 . S
C69 C68 1.405 . S
C69 C70 1.364 . S
C70 C69 1.364 . S
C70 C71 1.400 . S
C71 H59 0.935 . S
C71 C66 1.408 . S
C71 C70 1.400 . S
H72 C78 0.930 . S
H73 C81 0.931 . S
H74 C83 0.933 1_545 S
H75 C85 0.930 . S
H76 C87 0.930 . S
H77 C89 0.931 . S
C78 H72 0.930 . S
C78 C79 1.380 . S
C78 C80 1.394 1_554 S
C79 C78 1.380 . S
C79 C83 1.382 . S
C80 C78 1.394 1_556 S
C80 C81 1.400 . S
C81 H73 0.931 . S
C81 C80 1.400 . S
C81 C82 1.375 . S
C82 C81 1.375 . S
C82 C83 1.415 1_556 S
C82 C84 1.501 1_565 S
C83 H74 0.933 1_565 S
C83 C79 1.382 . S
C83 C82 1.415 1_554 S
C84 C82 1.501 1_545 S
C84 C85 1.384 1_556 S
C84 C89 1.408 . S
C85 H75 0.930 . S
C85 C84 1.384 1_554 S
C85 C86 1.389 1_554 S
C86 C85 1.389 1_556 S
C86 C87 1.405 . S
C87 H76 0.930 . S
C87 C86 1.405 . S
C87 C88 1.364 . S
C88 C87 1.364 . S
C88 C89 1.400 . S
C89 H77 0.931 . S
C89 C84 1.408 . S
C89 C88 1.400 . S
H90 C96 0.930 . S
H91 C99 0.931 . S
H92 C101 0.931 . S
H93 C103 0.930 . S
H94 C105 0.930 . S
H95 C107 0.931 . S
C96 H90 0.930 . S
C96 C97 1.380 . S
C96 C98 1.394 . S
C97 C96 1.380 . S
C97 C101 1.382 . S
C98 C96 1.394 . S
C98 C99 1.400 . S
C99 H91 0.931 . S
C99 C98 1.400 . S
C99 C100 1.375 . S
C100 C99 1.375 . S
C100 C101 1.415 . S
C100 C102 1.501 . S
C101 H92 0.931 . S
C101 C97 1.382 . S
C101 C100 1.415 . S
C102 C100 1.501 . S
C102 C103 1.384 . S
C102 C107 1.408 . S
C103 H93 0.930 . S
C103 C102 1.384 . S
C103 C104 1.389 . S
C104 C103 1.389 . S
C104 C105 1.405 . S
C105 H94 0.930 . S
C105 C104 1.405 . S
C105 C106 1.364 . S
C106 C105 1.364 . S
C106 C107 1.400 . S
C107 H95 0.931 . S
C107 C102 1.408 . S
C107 C106 1.400 . S
C108 O109 1.306 . S
C108 O111 1.160 . S
O109 C108 1.306 . S
O109 Cd110 2.228 . S
Cd110 O109 2.228 . S
Cd110 O114 2.273 . S
Cd110 O118 2.277 . S
O111 C108 1.160 . S
O111 Cd112 2.203 . S
Cd112 O111 2.203 . S
Cd112 O114 2.411 . S
Cd112 O115 2.333 . S
Cd112 O116 2.352 . S
Cd112 O120 2.277 . S
Cd112 O121 2.356 . S
C113 O118 1.209 . S
C113 O120 1.226 . S
O114 Cd110 2.273 . S
O114 Cd112 2.411 . S
O114 C117 1.320 . S
O115 Cd112 2.333 . S
O115 C117 1.214 . S
O116 Cd112 2.352 . S
O116 C119 1.258 . S
C117 O114 1.320 . S
C117 O115 1.214 . S
O118 Cd110 2.277 . S
O118 C113 1.209 . S
C119 O116 1.258 . S
C119 O121 1.282 . S
O120 Cd112 2.277 . S
O120 C113 1.226 . S
O121 Cd112 2.356 . S
O121 C119 1.282 . S
C122 O123 1.306 . S
C122 O125 1.160 . S
O123 C122 1.306 . S
O123 Cd124 2.228 . S
Cd124 O123 2.228 . S
Cd124 O128 2.273 . S
Cd124 O132 2.277 . S
O125 C122 1.160 . S
O125 Cd126 2.203 . S
Cd126 O125 2.203 . S
Cd126 O128 2.411 . S
Cd126 O129 2.333 . S
Cd126 O130 2.352 . S
Cd126 O134 2.277 . S
Cd126 O135 2.356 . S
C127 O132 1.209 . S
C127 O134 1.226 . S
O128 Cd124 2.273 . S
O128 Cd126 2.411 . S
O128 C131 1.320 . S
O129 Cd126 2.333 . S
O129 C131 1.214 . S
O130 Cd126 2.352 . S
O130 C133 1.258 . S
C131 O128 1.320 . S
C131 O129 1.214 . S
O132 Cd124 2.277 . S
O132 C127 1.209 . S
C133 O130 1.258 . S
C133 O135 1.282 . S
O134 Cd126 2.277 . S
O134 C127 1.226 . S
O135 Cd126 2.356 . S
O135 C133 1.282 . S
C136 O137 1.306 . S
C136 O139 1.160 . S
O137 C136 1.306 . S
O137 Cd138 2.228 . S
Cd138 O137 2.228 . S
Cd138 O142 2.273 . S
Cd138 O146 2.277 . S
O139 C136 1.160 . S
O139 Cd140 2.203 . S
Cd140 O139 2.203 . S
Cd140 O142 2.411 . S
Cd140 O143 2.333 . S
Cd140 O144 2.352 . S
Cd140 O148 2.277 . S
Cd140 O149 2.356 . S
C141 O146 1.209 . S
C141 O148 1.226 . S
O142 Cd138 2.273 . S
O142 Cd140 2.411 . S
O142 C145 1.320 . S
O143 Cd140 2.333 . S
O143 C145 1.214 . S
O144 Cd140 2.352 . S
O144 C147 1.258 . S
C145 O142 1.320 . S
C145 O143 1.214 . S
O146 Cd138 2.277 . S
O146 C141 1.209 . S
C147 O144 1.258 . S
C147 O149 1.282 . S
O148 Cd140 2.277 . S
O148 C141 1.226 . S
O149 Cd140 2.356 . S
O149 C147 1.282 . S
C150 O151 1.306 . S
C150 O153 1.160 . S
O151 C150 1.306 . S
O151 Cd152 2.228 . S
Cd152 O151 2.228 . S
Cd152 O156 2.273 . S
Cd152 O160 2.277 . S
O153 C150 1.160 . S
O153 Cd154 2.203 . S
Cd154 O153 2.203 . S
Cd154 O156 2.411 . S
Cd154 O157 2.333 . S
Cd154 O158 2.352 . S
Cd154 O162 2.277 . S
Cd154 O163 2.356 . S
C155 O160 1.209 . S
C155 O162 1.226 . S
O156 Cd152 2.273 . S
O156 Cd154 2.411 . S
O156 C159 1.320 . S
O157 Cd154 2.333 . S
O157 C159 1.214 . S
O158 Cd154 2.352 . S
O158 C161 1.258 . S
C159 O156 1.320 . S
C159 O157 1.214 . S
O160 Cd152 2.277 . S
O160 C155 1.209 . S
C161 O158 1.258 . S
C161 O163 1.282 . S
O162 Cd154 2.277 . S
O162 C155 1.226 . S
O163 Cd154 2.356 . S
O163 C161 1.282 . S
C164 O165 1.306 . S
C164 O167 1.160 . S
O165 C164 1.306 . S
O165 Cd166 2.228 . S
Cd166 O165 2.228 . S
Cd166 O170 2.273 . S
Cd166 O174 2.277 . S
O167 C164 1.160 . S
O167 Cd168 2.203 . S
Cd168 O167 2.203 . S
Cd168 O170 2.411 . S
Cd168 O171 2.333 . S
Cd168 O172 2.352 . S
Cd168 O176 2.277 . S
Cd168 O177 2.356 . S
C169 O174 1.209 . S
C169 O176 1.226 . S
O170 Cd166 2.273 . S
O170 Cd168 2.411 . S
O170 C173 1.320 . S
O171 Cd168 2.333 . S
O171 C173 1.214 . S
O172 Cd168 2.352 . S
O172 C175 1.258 . S
C173 O170 1.320 . S
C173 O171 1.214 . S
O174 Cd166 2.277 . S
O174 C169 1.209 . S
C175 O172 1.258 . S
C175 O177 1.282 . S
O176 Cd168 2.277 . S
O176 C169 1.226 . S
O177 Cd168 2.356 . S
O177 C175 1.282 . S
C178 O179 1.306 . S
C178 O181 1.160 . S
O179 C178 1.306 . S
O179 Cd180 2.228 . S
Cd180 O179 2.228 . S
Cd180 O184 2.273 . S
Cd180 O188 2.277 . S
O181 C178 1.160 . S
O181 Cd182 2.203 . S
Cd182 O181 2.203 . S
Cd182 O184 2.411 . S
Cd182 O185 2.333 . S
Cd182 O186 2.352 . S
Cd182 O190 2.277 . S
Cd182 O191 2.356 . S
C183 O188 1.209 . S
C183 O190 1.226 . S
O184 Cd180 2.273 . S
O184 Cd182 2.411 . S
O184 C187 1.320 . S
O185 Cd182 2.333 . S
O185 C187 1.214 . S
O186 Cd182 2.352 . S
O186 C189 1.258 . S
C187 O184 1.320 . S
C187 O185 1.214 . S
O188 Cd180 2.277 . S
O188 C183 1.209 . S
C189 O186 1.258 . S
C189 O191 1.282 . S
O190 Cd182 2.277 . S
O190 C183 1.226 . S
O191 Cd182 2.356 . S
O191 C189 1.282 . S
C192 C193 1.349 . S
C192 C194 1.327 . S
C192 H217 0.950 . S
C193 C192 1.349 . S
C193 C209 1.349 . S
C194 C192 1.327 . S
C194 C213 1.429 . S
C194 H218 0.950 . S
C195 C212 1.574 . S
C195 C214 1.368 . S
C195 H219 0.949 . S
H196 C200 0.949 . S
C197 C198 1.349 . S
C197 C199 1.327 . S
C197 H220 0.950 . S
C198 C197 1.349 . S
C198 C210 1.349 . S
C199 C197 1.327 . S
C199 C215 1.429 . S
C199 H221 0.950 . S
C200 H196 0.949 . S
C200 C208 1.574 . S
C200 C216 1.368 . S
H201 C209 0.950 . S
H202 C207 0.950 . S
H203 C208 0.949 . S
H204 C210 0.950 . S
H205 C211 0.950 . S
H206 C212 0.949 . S
C207 H202 0.950 . S
C207 C209 1.327 . S
C207 C213 1.429 . S
C208 C200 1.574 . S
C208 H203 0.949 . S
C208 C214 1.368 . S
C209 C193 1.349 . S
C209 H201 0.950 . S
C209 C207 1.327 . S
C210 C198 1.349 . S
C210 H204 0.950 . S
C210 C211 1.327 . S
C211 H205 0.950 . S
C211 C210 1.327 . S
C211 C215 1.429 . S
C212 C195 1.574 . S
C212 H206 0.949 . S
C212 C216 1.368 . S
C213 C194 1.429 . S
C213 C207 1.429 . S
C213 C214 1.523 . S
C214 C195 1.368 . S
C214 C208 1.368 . S
C214 C213 1.523 . S
C215 C199 1.429 . S
C215 C211 1.429 . S
C215 C216 1.523 . S
C216 C200 1.368 . S
C216 C212 1.368 . S
C216 C215 1.523 . S
H217 C192 0.950 . S
H218 C194 0.950 . S
H219 C195 0.949 . S
H220 C197 0.950 . S
H221 C199 0.950 . S
C222 C223 1.349 . S
C222 C224 1.327 . S
C222 H247 0.950 . S
C223 C222 1.349 . S
C223 C239 1.349 . S
C224 C222 1.327 . S
C224 C243 1.429 . S
C224 H248 0.950 . S
C225 C242 1.574 . S
C225 C244 1.368 . S
C225 H249 0.949 . S
H226 C230 0.949 . S
C227 C228 1.349 . S
C227 C229 1.327 . S
C227 H250 0.950 . S
C228 C227 1.349 . S
C228 C240 1.349 . S
C229 C227 1.327 . S
C229 C245 1.429 . S
C229 H251 0.950 . S
C230 H226 0.949 . S
C230 C238 1.574 . S
C230 C246 1.368 . S
H231 C239 0.950 . S
H232 C237 0.950 . S
H233 C238 0.949 . S
H234 C240 0.950 . S
H235 C241 0.950 . S
H236 C242 0.949 . S
C237 H232 0.950 . S
C237 C239 1.327 . S
C237 C243 1.429 . S
C238 C230 1.574 . S
C238 H233 0.949 . S
C238 C244 1.368 . S
C239 C223 1.349 . S
C239 H231 0.950 . S
C239 C237 1.327 . S
C240 C228 1.349 . S
C240 H234 0.950 . S
C240 C241 1.327 . S
C241 H235 0.950 . S
C241 C240 1.327 . S
C241 C245 1.429 . S
C242 C225 1.574 . S
C242 H236 0.949 . S
C242 C246 1.368 . S
C243 C224 1.429 . S
C243 C237 1.429 . S
C243 C244 1.523 . S
C244 C225 1.368 . S
C244 C238 1.368 . S
C244 C243 1.523 . S
C245 C229 1.429 . S
C245 C241 1.429 . S
C245 C246 1.523 . S
C246 C230 1.368 . S
C246 C242 1.368 . S
C246 C245 1.523 . S
H247 C222 0.950 . S
H248 C224 0.950 . S
H249 C225 0.949 . S
H250 C227 0.950 . S
H251 C229 0.950 . S
C252 C253 1.349 . S
C252 C254 1.327 . S
C252 H277 0.950 . S
C253 C252 1.349 . S
C253 C269 1.349 . S
C254 C252 1.327 . S
C254 C273 1.429 . S
C254 H278 0.950 . S
C255 C272 1.574 . S
C255 C274 1.368 . S
C255 H279 0.949 . S
H256 C260 0.949 . S
C257 C258 1.349 . S
C257 C259 1.327 . S
C257 H280 0.950 . S
C258 C257 1.349 . S
C258 C270 1.349 . S
C259 C257 1.327 . S
C259 C275 1.429 . S
C259 H281 0.950 . S
C260 H256 0.949 . S
C260 C268 1.574 . S
C260 C276 1.368 . S
H261 C269 0.950 . S
H262 C267 0.950 . S
H263 C268 0.949 . S
H264 C270 0.950 . S
H265 C271 0.950 . S
H266 C272 0.949 . S
C267 H262 0.950 . S
C267 C269 1.327 . S
C267 C273 1.429 . S
C268 C260 1.574 . S
C268 H263 0.949 . S
C268 C274 1.368 . S
C269 C253 1.349 . S
C269 H261 0.950 . S
C269 C267 1.327 . S
C270 C258 1.349 . S
C270 H264 0.950 . S
C270 C271 1.327 . S
C271 H265 0.950 . S
C271 C270 1.327 . S
C271 C275 1.429 . S
C272 C255 1.574 . S
C272 H266 0.949 . S
C272 C276 1.368 . S
C273 C254 1.429 . S
C273 C267 1.429 . S
C273 C274 1.523 . S
C274 C255 1.368 . S
C274 C268 1.368 . S
C274 C273 1.523 . S
C275 C259 1.429 . S
C275 C271 1.429 . S
C275 C276 1.523 . S
C276 C260 1.368 . S
C276 C272 1.368 . S
C276 C275 1.523 . S
H277 C252 0.950 . S
H278 C254 0.950 . S
H279 C255 0.949 . S
H280 C257 0.950 . S
H281 C259 0.950 . S
C282 C283 1.349 . S
C282 C284 1.327 . S
C282 H307 0.950 . S
C283 C282 1.349 . S
C283 C299 1.349 . S
C284 C282 1.327 . S
C284 C303 1.429 . S
C284 H308 0.950 . S
C285 C302 1.574 . S
C285 C304 1.368 . S
C285 H309 0.949 . S
H286 C290 0.949 . S
C287 C288 1.349 . S
C287 C289 1.327 . S
C287 H310 0.950 . S
C288 C287 1.349 . S
C288 C300 1.349 . S
C289 C287 1.327 . S
C289 C305 1.429 . S
C289 H311 0.950 . S
C290 H286 0.949 . S
C290 C298 1.574 . S
C290 C306 1.368 . S
H291 C299 0.950 . S
H292 C297 0.950 . S
H293 C298 0.949 . S
H294 C300 0.950 . S
H295 C301 0.950 . S
H296 C302 0.949 . S
C297 H292 0.950 . S
C297 C299 1.327 . S
C297 C303 1.429 . S
C298 C290 1.574 . S
C298 H293 0.949 . S
C298 C304 1.368 . S
C299 C283 1.349 . S
C299 H291 0.950 . S
C299 C297 1.327 . S
C300 C288 1.349 . S
C300 H294 0.950 . S
C300 C301 1.327 . S
C301 H295 0.950 . S
C301 C300 1.327 . S
C301 C305 1.429 . S
C302 C285 1.574 . S
C302 H296 0.949 . S
C302 C306 1.368 . S
C303 C284 1.429 . S
C303 C297 1.429 . S
C303 C304 1.523 . S
C304 C285 1.368 . S
C304 C298 1.368 . S
C304 C303 1.523 . S
C305 C289 1.429 . S
C305 C301 1.429 . S
C305 C306 1.523 . S
C306 C290 1.368 . S
C306 C302 1.368 . S
C306 C305 1.523 . S
H307 C282 0.950 . S
H308 C284 0.950 . S
H309 C285 0.949 . S
H310 C287 0.950 . S
H311 C289 0.950 . S
C312 C313 1.349 . S
C312 C314 1.327 . S
C312 H337 0.950 . S
C313 C312 1.349 . S
C313 C329 1.349 . S
C314 C312 1.327 . S
C314 C333 1.429 . S
C314 H338 0.950 . S
C315 C332 1.574 . S
C315 C334 1.368 . S
C315 H339 0.949 . S
H316 C320 0.949 . S
C317 C318 1.349 . S
C317 C319 1.327 . S
C317 H340 0.950 . S
C318 C317 1.349 . S
C318 C330 1.349 . S
C319 C317 1.327 . S
C319 C335 1.429 . S
C319 H341 0.950 . S
C320 H316 0.949 . S
C320 C328 1.574 . S
C320 C336 1.368 . S
H321 C329 0.950 . S
H322 C327 0.950 . S
H323 C328 0.949 . S
H324 C330 0.950 . S
H325 C331 0.950 . S
H326 C332 0.949 . S
C327 H322 0.950 . S
C327 C329 1.327 . S
C327 C333 1.429 . S
C328 C320 1.574 . S
C328 H323 0.949 . S
C328 C334 1.368 . S
C329 C313 1.349 . S
C329 H321 0.950 . S
C329 C327 1.327 . S
C330 C318 1.349 . S
C330 H324 0.950 . S
C330 C331 1.327 . S
C331 H325 0.950 . S
C331 C330 1.327 . S
C331 C335 1.429 . S
C332 C315 1.574 . S
C332 H326 0.949 . S
C332 C336 1.368 . S
C333 C314 1.429 . S
C333 C327 1.429 . S
C333 C334 1.523 . S
C334 C315 1.368 . S
C334 C328 1.368 . S
C334 C333 1.523 . S
C335 C319 1.429 . S
C335 C331 1.429 . S
C335 C336 1.523 . S
C336 C320 1.368 . S
C336 C332 1.368 . S
C336 C335 1.523 . S
H337 C312 0.950 . S
H338 C314 0.950 . S
H339 C315 0.949 . S
H340 C317 0.950 . S
H341 C319 0.950 . S
C342 C343 1.349 . S
C342 C344 1.327 . S
C342 H367 0.950 . S
C343 C342 1.349 . S
C343 C359 1.349 . S
C344 C342 1.327 . S
C344 C363 1.429 . S
C344 H368 0.950 . S
C345 C362 1.574 . S
C345 C364 1.368 . S
C345 H369 0.949 . S
H346 C350 0.949 . S
C347 C348 1.349 . S
C347 C349 1.327 . S
C347 H370 0.950 . S
C348 C347 1.349 . S
C348 C360 1.349 . S
C349 C347 1.327 . S
C349 C365 1.429 . S
C349 H371 0.950 . S
C350 H346 0.949 . S
C350 C358 1.574 . S
C350 C366 1.368 . S
H351 C359 0.950 . S
H352 C357 0.950 . S
H353 C358 0.949 . S
H354 C360 0.950 . S
H355 C361 0.950 . S
H356 C362 0.949 . S
C357 H352 0.950 . S
C357 C359 1.327 . S
C357 C363 1.429 . S
C358 C350 1.574 . S
C358 H353 0.949 . S
C358 C364 1.368 . S
C359 C343 1.349 . S
C359 H351 0.950 . S
C359 C357 1.327 . S
C360 C348 1.349 . S
C360 H354 0.950 . S
C360 C361 1.327 . S
C361 H355 0.950 . S
C361 C360 1.327 . S
C361 C365 1.429 . S
C362 C345 1.574 . S
C362 H356 0.949 . S
C362 C366 1.368 . S
C363 C344 1.429 . S
C363 C357 1.429 . S
C363 C364 1.523 . S
C364 C345 1.368 . S
C364 C358 1.368 . S
C364 C363 1.523 . S
C365 C349 1.429 . S
C365 C361 1.429 . S
C365 C366 1.523 . S
C366 C350 1.368 . S
C366 C362 1.368 . S
C366 C365 1.523 . S
H367 C342 0.950 . S
H368 C344 0.950 . S
H369 C345 0.949 . S
H370 C347 0.950 . S
H371 C349 0.950 . S
C372 C373 1.349 . S
C372 C374 1.327 . S
C372 H397 0.950 . S
C373 C372 1.349 . S
C373 C389 1.349 . S
C374 C372 1.327 . S
C374 C393 1.429 . S
C374 H398 0.950 . S
C375 C392 1.574 . S
C375 C394 1.368 . S
C375 H399 0.949 . S
H376 C380 0.949 . S
C377 C378 1.349 . S
C377 C379 1.327 . S
C377 H400 0.950 . S
C378 C377 1.349 . S
C378 C390 1.349 . S
C379 C377 1.327 . S
C379 C395 1.429 . S
C379 H401 0.950 . S
C380 H376 0.949 . S
C380 C388 1.574 . S
C380 C396 1.368 . S
H381 C389 0.950 . S
H382 C387 0.950 . S
H383 C388 0.949 . S
H384 C390 0.950 . S
H385 C391 0.950 . S
H386 C392 0.949 . S
C387 H382 0.950 . S
C387 C389 1.327 . S
C387 C393 1.429 . S
C388 C380 1.574 . S
C388 H383 0.949 . S
C388 C394 1.368 . S
C389 C373 1.349 . S
C389 H381 0.950 . S
C389 C387 1.327 . S
C390 C378 1.349 . S
C390 H384 0.950 . S
C390 C391 1.327 . S
C391 H385 0.950 . S
C391 C390 1.327 . S
C391 C395 1.429 . S
C392 C375 1.574 . S
C392 H386 0.949 . S
C392 C396 1.368 . S
C393 C374 1.429 . S
C393 C387 1.429 . S
C393 C394 1.523 . S
C394 C375 1.368 . S
C394 C388 1.368 . S
C394 C393 1.523 . S
C395 C379 1.429 . S
C395 C391 1.429 . S
C395 C396 1.523 . S
C396 C380 1.368 . S
C396 C392 1.368 . S
C396 C395 1.523 . S
H397 C372 0.950 . S
H398 C374 0.950 . S
H399 C375 0.949 . S
H400 C377 0.950 . S
H401 C379 0.950 . S
C402 C403 1.349 . S
C402 C404 1.327 . S
C402 H427 0.950 . S
C403 C402 1.349 . S
C403 C419 1.349 . S
C404 C402 1.327 . S
C404 C423 1.429 . S
C404 H428 0.950 . S
C405 C422 1.574 . S
C405 C424 1.368 . S
C405 H429 0.949 . S
H406 C410 0.949 . S
C407 C408 1.349 . S
C407 C409 1.327 . S
C407 H430 0.950 . S
C408 C407 1.349 . S
C408 C420 1.349 . S
C409 C407 1.327 . S
C409 C425 1.429 . S
C409 H431 0.950 . S
C410 H406 0.949 . S
C410 C418 1.574 . S
C410 C426 1.368 . S
H411 C419 0.950 . S
H412 C417 0.950 . S
H413 C418 0.949 . S
H414 C420 0.950 . S
H415 C421 0.950 . S
H416 C422 0.949 . S
C417 H412 0.950 . S
C417 C419 1.327 . S
C417 C423 1.429 . S
C418 C410 1.574 . S
C418 H413 0.949 . S
C418 C424 1.368 . S
C419 C403 1.349 . S
C419 H411 0.950 . S
C419 C417 1.327 . S
C420 C408 1.349 . S
C420 H414 0.950 . S
C420 C421 1.327 . S
C421 H415 0.950 . S
C421 C420 1.327 . S
C421 C425 1.429 . S
C422 C405 1.574 . S
C422 H416 0.949 . S
C422 C426 1.368 . S
C423 C404 1.429 . S
C423 C417 1.429 . S
C423 C424 1.523 . S
C424 C405 1.368 . S
C424 C418 1.368 . S
C424 C423 1.523 . S
C425 C409 1.429 . S
C425 C421 1.429 . S
C425 C426 1.523 . S
C426 C410 1.368 . S
C426 C422 1.368 . S
C426 C425 1.523 . S
H427 C402 0.950 . S
H428 C404 0.950 . S
H429 C405 0.949 . S
H430 C407 0.950 . S
H431 C409 0.950 . S
C432 C433 1.349 . S
C432 C434 1.327 . S
C432 H457 0.950 . S
C433 C432 1.349 . S
C433 C449 1.349 . S
C434 C432 1.327 . S
C434 C453 1.429 . S
C434 H458 0.950 . S
C435 C452 1.574 . S
C435 C454 1.368 . S
C435 H459 0.949 . S
H436 C440 0.949 . S
C437 C438 1.349 . S
C437 C439 1.327 . S
C437 H460 0.950 . S
C438 C437 1.349 . S
C438 C450 1.349 . S
C439 C437 1.327 . S
C439 C455 1.429 . S
C439 H461 0.950 . S
C440 H436 0.949 . S
C440 C448 1.574 . S
C440 C456 1.368 . S
H441 C449 0.950 . S
H442 C447 0.950 . S
H443 C448 0.949 . S
H444 C450 0.950 . S
H445 C451 0.950 . S
H446 C452 0.949 . S
C447 H442 0.950 . S
C447 C449 1.327 . S
C447 C453 1.429 . S
C448 C440 1.574 . S
C448 H443 0.949 . S
C448 C454 1.368 . S
C449 C433 1.349 . S
C449 H441 0.950 . S
C449 C447 1.327 . S
C450 C438 1.349 . S
C450 H444 0.950 . S
C450 C451 1.327 . S
C451 H445 0.950 . S
C451 C450 1.327 . S
C451 C455 1.429 . S
C452 C435 1.574 . S
C452 H446 0.949 . S
C452 C456 1.368 . S
C453 C434 1.429 . S
C453 C447 1.429 . S
C453 C454 1.523 . S
C454 C435 1.368 . S
C454 C448 1.368 . S
C454 C453 1.523 . S
C455 C439 1.429 . S
C455 C451 1.429 . S
C455 C456 1.523 . S
C456 C440 1.368 . S
C456 C452 1.368 . S
C456 C455 1.523 . S
H457 C432 0.950 . S
H458 C434 0.950 . S
H459 C435 0.949 . S
H460 C437 0.950 . S
H461 C439 0.950 . S
C462 C463 1.349 1_556 S
C462 C464 1.327 1_556 S
C462 H487 0.950 . S
C463 C462 1.349 1_554 S
C463 C479 1.349 . S
C464 C462 1.327 1_554 S
C464 C483 1.429 . S
C464 H488 0.950 1_554 S
C465 C482 1.574 . S
C465 C484 1.368 . S
C465 H489 0.949 . S
H466 C470 0.949 . S
C467 C468 1.349 . S
C467 C469 1.327 . S
C467 H490 0.950 . S
C468 C467 1.349 . S
C468 C480 1.349 . S
C469 C467 1.327 . S
C469 C485 1.429 . S
C469 H491 0.950 . S
C470 H466 0.949 . S
C470 C478 1.574 . S
C470 C486 1.368 . S
H471 C479 0.950 . S
H472 C477 0.950 . S
H473 C478 0.949 . S
H474 C480 0.950 . S
H475 C481 0.950 . S
H476 C482 0.949 . S
C477 H472 0.950 . S
C477 C479 1.327 . S
C477 C483 1.429 . S
C478 C470 1.574 . S
C478 H473 0.949 . S
C478 C484 1.368 . S
C479 C463 1.349 . S
C479 H471 0.950 . S
C479 C477 1.327 . S
C480 C468 1.349 . S
C480 H474 0.950 . S
C480 C481 1.327 . S
C481 H475 0.950 . S
C481 C480 1.327 . S
C481 C485 1.429 . S
C482 C465 1.574 . S
C482 H476 0.949 . S
C482 C486 1.368 . S
C483 C464 1.429 . S
C483 C477 1.429 . S
C483 C484 1.523 . S
C484 C465 1.368 . S
C484 C478 1.368 . S
C484 C483 1.523 . S
C485 C469 1.429 . S
C485 C481 1.429 . S
C485 C486 1.523 . S
C486 C470 1.368 . S
C486 C482 1.368 . S
C486 C485 1.523 . S
H487 C462 0.950 . S
H488 C464 0.950 1_556 S
H489 C465 0.949 . S
H490 C467 0.950 . S
H491 C469 0.950 . S
C492 C493 1.349 . S
C492 C494 1.327 . S
C492 H517 0.950 . S
C493 C492 1.349 . S
C493 C509 1.349 . S
C494 C492 1.327 . S
C494 C513 1.429 . S
C494 H518 0.950 . S
C495 C512 1.574 . S
C495 C514 1.368 . S
C495 H519 0.949 . S
H496 C500 0.949 . S
C497 C498 1.349 . S
C497 C499 1.327 . S
C497 H520 0.950 . S
C498 C497 1.349 . S
C498 C510 1.349 . S
C499 C497 1.327 . S
C499 C515 1.429 . S
C499 H521 0.950 . S
C500 H496 0.949 . S
C500 C508 1.574 . S
C500 C516 1.368 . S
H501 C509 0.950 . S
H502 C507 0.950 . S
H503 C508 0.949 . S
H504 C510 0.950 . S
H505 C511 0.950 . S
H506 C512 0.949 . S
C507 H502 0.950 . S
C507 C509 1.327 . S
C507 C513 1.429 . S
C508 C500 1.574 . S
C508 H503 0.949 . S
C508 C514 1.368 . S
C509 C493 1.349 . S
C509 H501 0.950 . S
C509 C507 1.327 . S
C510 C498 1.349 . S
C510 H504 0.950 . S
C510 C511 1.327 . S
C511 H505 0.950 . S
C511 C510 1.327 . S
C511 C515 1.429 . S
C512 C495 1.574 . S
C512 H506 0.949 . S
C512 C516 1.368 . S
C513 C494 1.429 . S
C513 C507 1.429 . S
C513 C514 1.523 . S
C514 C495 1.368 . S
C514 C508 1.368 . S
C514 C513 1.523 . S
C515 C499 1.429 . S
C515 C511 1.429 . S
C515 C516 1.523 . S
C516 C500 1.368 . S
C516 C512 1.368 . S
C516 C515 1.523 . S
H517 C492 0.950 . S
H518 C494 0.950 . S
H519 C495 0.949 . S
H520 C497 0.950 . S
H521 C499 0.950 . S
C522 C523 1.349 . S
C522 C524 1.327 . S
C522 H547 0.950 . S
C523 C522 1.349 . S
C523 C539 1.349 . S
C524 C522 1.327 . S
C524 C543 1.429 . S
C524 H548 0.950 . S
C525 C542 1.574 . S
C525 C544 1.368 . S
C525 H549 0.949 . S
H526 C530 0.949 . S
C527 C528 1.349 . S
C527 C529 1.327 . S
C527 H550 0.950 . S
C528 C527 1.349 . S
C528 C540 1.349 . S
C529 C527 1.327 . S
C529 C545 1.429 . S
C529 H551 0.950 . S
C530 H526 0.949 . S
C530 C538 1.574 . S
C530 C546 1.368 . S
H531 C539 0.950 . S
H532 C537 0.950 . S
H533 C538 0.949 . S
H534 C540 0.950 . S
H535 C541 0.950 . S
H536 C542 0.949 . S
C537 H532 0.950 . S
C537 C539 1.327 . S
C537 C543 1.429 . S
C538 C530 1.574 . S
C538 H533 0.949 . S
C538 C544 1.368 . S
C539 C523 1.349 . S
C539 H531 0.950 . S
C539 C537 1.327 . S
C540 C528 1.349 . S
C540 H534 0.950 . S
C540 C541 1.327 . S
C541 H535 0.950 . S
C541 C540 1.327 . S
C541 C545 1.429 . S
C542 C525 1.574 . S
C542 H536 0.949 . S
C542 C546 1.368 . S
C543 C524 1.429 . S
C543 C537 1.429 . S
C543 C544 1.523 . S
C544 C525 1.368 . S
C544 C538 1.368 . S
C544 C543 1.523 . S
C545 C529 1.429 . S
C545 C541 1.429 . S
C545 C546 1.523 . S
C546 C530 1.368 . S
C546 C542 1.368 . S
C546 C545 1.523 . S
H547 C522 0.950 . S
H548 C524 0.950 . S
H549 C525 0.949 . S
H550 C527 0.950 . S
H551 C529 0.950 . S
C552 C553 1.349 . S
C552 C554 1.327 . S
C552 H577 0.950 . S
C553 C552 1.349 . S
C553 C569 1.349 . S
C554 C552 1.327 . S
C554 C573 1.429 . S
C554 H578 0.950 . S
C555 C572 1.574 . S
C555 C574 1.368 . S
C555 H579 0.949 . S
H556 C560 0.949 . S
C557 C558 1.349 . S
C557 C559 1.327 . S
C557 H580 0.950 . S
C558 C557 1.349 . S
C558 C570 1.349 . S
C559 C557 1.327 . S
C559 C575 1.429 . S
C559 H581 0.950 . S
C560 H556 0.949 . S
C560 C568 1.574 . S
C560 C576 1.368 . S
H561 C569 0.950 . S
H562 C567 0.950 . S
H563 C568 0.949 . S
H564 C570 0.950 . S
H565 C571 0.950 . S
H566 C572 0.949 . S
C567 H562 0.950 . S
C567 C569 1.327 . S
C567 C573 1.429 . S
C568 C560 1.574 . S
C568 H563 0.949 . S
C568 C574 1.368 . S
C569 C553 1.349 . S
C569 H561 0.950 . S
C569 C567 1.327 . S
C570 C558 1.349 . S
C570 H564 0.950 . S
C570 C571 1.327 . S
C571 H565 0.950 . S
C571 C570 1.327 . S
C571 C575 1.429 . S
C572 C555 1.574 . S
C572 H566 0.949 . S
C572 C576 1.368 . S
C573 C554 1.429 . S
C573 C567 1.429 . S
C573 C574 1.523 . S
C574 C555 1.368 . S
C574 C568 1.368 . S
C574 C573 1.523 . S
C575 C559 1.429 . S
C575 C571 1.429 . S
C575 C576 1.523 . S
C576 C560 1.368 . S
C576 C572 1.368 . S
C576 C575 1.523 . S
H577 C552 0.950 . S
H578 C554 0.950 . S
H579 C555 0.949 . S
H580 C557 0.950 . S
H581 C559 0.950 . S
C582 C583 1.349 . S
C582 C584 1.327 . S
C582 H607 0.950 . S
C583 C582 1.349 . S
C583 C599 1.349 . S
C584 C582 1.327 . S
C584 C603 1.429 . S
C584 H608 0.950 . S
C585 C602 1.574 . S
C585 C604 1.368 . S
C585 H609 0.949 . S
H586 C590 0.949 . S
C587 C588 1.349 . S
C587 C589 1.327 . S
C587 H610 0.950 . S
C588 C587 1.349 . S
C588 C600 1.349 . S
C589 C587 1.327 . S
C589 C605 1.429 . S
C589 H611 0.950 . S
C590 H586 0.949 . S
C590 C598 1.574 . S
C590 C606 1.368 . S
H591 C599 0.950 . S
H592 C597 0.950 . S
H593 C598 0.949 . S
H594 C600 0.950 . S
H595 C601 0.950 . S
H596 C602 0.949 . S
C597 H592 0.950 . S
C597 C599 1.327 . S
C597 C603 1.429 . S
C598 C590 1.574 . S
C598 H593 0.949 . S
C598 C604 1.368 . S
C599 C583 1.349 . S
C599 H591 0.950 . S
C599 C597 1.327 . S
C600 C588 1.349 . S
C600 H594 0.950 . S
C600 C601 1.327 . S
C601 H595 0.950 . S
C601 C600 1.327 . S
C601 C605 1.429 . S
C602 C585 1.574 . S
C602 H596 0.949 . S
C602 C606 1.368 . S
C603 C584 1.429 . S
C603 C597 1.429 . S
C603 C604 1.523 . S
C604 C585 1.368 . S
C604 C598 1.368 . S
C604 C603 1.523 . S
C605 C589 1.429 . S
C605 C601 1.429 . S
C605 C606 1.523 . S
C606 C590 1.368 . S
C606 C602 1.368 . S
C606 C605 1.523 . S
H607 C582 0.950 . S
H608 C584 0.950 . S
H609 C585 0.949 . S
H610 C587 0.950 . S
H611 C589 0.950 . S
C612 C613 1.349 . S
C612 C614 1.327 . S
C612 H637 0.950 . S
C613 C612 1.349 . S
C613 C629 1.349 . S
C614 C612 1.327 . S
C614 C633 1.429 . S
C614 H638 0.950 . S
C615 C632 1.574 . S
C615 C634 1.368 . S
C615 H639 0.949 . S
H616 C620 0.949 . S
C617 C618 1.349 . S
C617 C619 1.327 . S
C617 H640 0.950 . S
C618 C617 1.349 . S
C618 C630 1.349 . S
C619 C617 1.327 . S
C619 C635 1.429 . S
C619 H641 0.950 . S
C620 H616 0.949 . S
C620 C628 1.574 . S
C620 C636 1.368 . S
H621 C629 0.950 . S
H622 C627 0.950 . S
H623 C628 0.949 . S
H624 C630 0.950 . S
H625 C631 0.950 . S
H626 C632 0.949 . S
C627 H622 0.950 . S
C627 C629 1.327 . S
C627 C633 1.429 . S
C628 C620 1.574 . S
C628 H623 0.949 . S
C628 C634 1.368 . S
C629 C613 1.349 . S
C629 H621 0.950 . S
C629 C627 1.327 . S
C630 C618 1.349 . S
C630 H624 0.950 . S
C630 C631 1.327 . S
C631 H625 0.950 . S
C631 C630 1.327 . S
C631 C635 1.429 . S
C632 C615 1.574 . S
C632 H626 0.949 . S
C632 C636 1.368 . S
C633 C614 1.429 . S
C633 C627 1.429 . S
C633 C634 1.523 . S
C634 C615 1.368 . S
C634 C628 1.368 . S
C634 C633 1.523 . S
C635 C619 1.429 . S
C635 C631 1.429 . S
C635 C636 1.523 . S
C636 C620 1.368 . S
C636 C632 1.368 . S
C636 C635 1.523 . S
H637 C612 0.950 . S
H638 C614 0.950 . S
H639 C615 0.949 . S
H640 C617 0.950 . S
H641 C619 0.950 . S
C642 C643 1.349 . S
C642 C644 1.327 . S
C642 H667 0.950 . S
C643 C642 1.349 . S
C643 C659 1.349 . S
C644 C642 1.327 . S
C644 C663 1.429 . S
C644 H668 0.950 . S
C645 C662 1.574 . S
C645 C664 1.368 . S
C645 H669 0.949 . S
H646 C650 0.949 . S
C647 C648 1.349 . S
C647 C649 1.327 1_554 S
C647 H670 0.950 . S
C648 C647 1.349 . S
C648 C660 1.349 . S
C649 C647 1.327 1_556 S
C649 C665 1.429 . S
C649 H671 0.950 . S
C650 H646 0.949 . S
C650 C658 1.574 . S
C650 C666 1.368 . S
H651 C659 0.950 . S
H652 C657 0.950 . S
H653 C658 0.949 . S
H654 C660 0.950 . S
H655 C661 0.950 . S
H656 C662 0.949 . S
C657 H652 0.950 . S
C657 C659 1.327 . S
C657 C663 1.429 . S
C658 C650 1.574 . S
C658 H653 0.949 . S
C658 C664 1.368 . S
C659 C643 1.349 . S
C659 H651 0.950 . S
C659 C657 1.327 . S
C660 C648 1.349 . S
C660 H654 0.950 . S
C660 C661 1.327 1_554 S
C661 H655 0.950 . S
C661 C660 1.327 1_556 S
C661 C665 1.429 . S
C662 C645 1.574 . S
C662 H656 0.949 . S
C662 C666 1.368 . S
C663 C644 1.429 . S
C663 C657 1.429 . S
C663 C664 1.523 . S
C664 C645 1.368 . S
C664 C658 1.368 . S
C664 C663 1.523 . S
C665 C649 1.429 . S
C665 C661 1.429 . S
C665 C666 1.523 . S
C666 C650 1.368 . S
C666 C662 1.368 . S
C666 C665 1.523 . S
H667 C642 0.950 . S
H668 C644 0.950 . S
H669 C645 0.949 . S
H670 C647 0.950 . S
H671 C649 0.950 . S
C672 C673 1.349 . S
C672 C674 1.327 . S
C672 H697 0.950 . S
C673 C672 1.349 . S
C673 C689 1.349 . S
C674 C672 1.327 . S
C674 C693 1.429 . S
C674 H698 0.950 . S
C675 C692 1.574 . S
C675 C694 1.368 . S
C675 H699 0.949 . S
H676 C680 0.949 . S
C677 C678 1.349 . S
C677 C679 1.327 . S
C677 H700 0.950 . S
C678 C677 1.349 . S
C678 C690 1.349 . S
C679 C677 1.327 . S
C679 C695 1.429 . S
C679 H701 0.950 . S
C680 H676 0.949 . S
C680 C688 1.574 . S
C680 C696 1.368 . S
H681 C689 0.950 . S
H682 C687 0.950 . S
H683 C688 0.949 . S
H684 C690 0.950 . S
H685 C691 0.950 . S
H686 C692 0.949 . S
C687 H682 0.950 . S
C687 C689 1.327 . S
C687 C693 1.429 . S
C688 C680 1.574 . S
C688 H683 0.949 . S
C688 C694 1.368 . S
C689 C673 1.349 . S
C689 H681 0.950 . S
C689 C687 1.327 . S
C690 C678 1.349 . S
C690 H684 0.950 . S
C690 C691 1.327 . S
C691 H685 0.950 . S
C691 C690 1.327 . S
C691 C695 1.429 . S
C692 C675 1.574 . S
C692 H686 0.949 . S
C692 C696 1.368 . S
C693 C674 1.429 . S
C693 C687 1.429 . S
C693 C694 1.523 . S
C694 C675 1.368 . S
C694 C688 1.368 . S
C694 C693 1.523 . S
C695 C679 1.429 . S
C695 C691 1.429 . S
C695 C696 1.523 . S
C696 C680 1.368 . S
C696 C692 1.368 . S
C696 C695 1.523 . S
H697 C672 0.950 . S
H698 C674 0.950 . S
H699 C675 0.949 . S
H700 C677 0.950 . S
H701 C679 0.950 . S
C702 C703 1.349 . S
C702 C704 1.327 . S
C702 H727 0.950 . S
C703 C702 1.349 . S
C703 C719 1.349 . S
C704 C702 1.327 . S
C704 C723 1.429 . S
C704 H728 0.950 . S
C705 C722 1.574 . S
C705 C724 1.368 . S
C705 H729 0.949 . S
H706 C710 0.949 . S
C707 C708 1.349 . S
C707 C709 1.327 . S
C707 H730 0.950 . S
C708 C707 1.349 . S
C708 C720 1.349 . S
C709 C707 1.327 . S
C709 C725 1.429 . S
C709 H731 0.950 . S
C710 H706 0.949 . S
C710 C718 1.574 . S
C710 C726 1.368 . S
H711 C719 0.950 . S
H712 C717 0.950 . S
H713 C718 0.949 . S
H714 C720 0.950 . S
H715 C721 0.950 . S
H716 C722 0.949 . S
C717 H712 0.950 . S
C717 C719 1.327 . S
C717 C723 1.429 . S
C718 C710 1.574 . S
C718 H713 0.949 . S
C718 C724 1.368 . S
C719 C703 1.349 . S
C719 H711 0.950 . S
C719 C717 1.327 . S
C720 C708 1.349 . S
C720 H714 0.950 . S
C720 C721 1.327 . S
C721 H715 0.950 . S
C721 C720 1.327 . S
C721 C725 1.429 . S
C722 C705 1.574 . S
C722 H716 0.949 . S
C722 C726 1.368 . S
C723 C704 1.429 . S
C723 C717 1.429 . S
C723 C724 1.523 . S
C724 C705 1.368 . S
C724 C718 1.368 . S
C724 C723 1.523 . S
C725 C709 1.429 . S
C725 C721 1.429 . S
C725 C726 1.523 . S
C726 C710 1.368 . S
C726 C722 1.368 . S
C726 C725 1.523 . S
H727 C702 0.950 . S
H728 C704 0.950 . S
H729 C705 0.949 . S
H730 C707 0.950 . S
H731 C709 0.950 . S
C732 C733 1.349 . S
C732 C734 1.327 . S
C732 H757 0.950 . S
C733 C732 1.349 . S
C733 C749 1.349 . S
C734 C732 1.327 . S
C734 C753 1.429 . S
C734 H758 0.950 . S
C735 C752 1.574 . S
C735 C754 1.368 . S
C735 H759 0.949 . S
H736 C740 0.949 . S
C737 C738 1.349 . S
C737 C739 1.327 . S
C737 H760 0.950 . S
C738 C737 1.349 . S
C738 C750 1.349 . S
C739 C737 1.327 . S
C739 C755 1.429 . S
C739 H761 0.950 . S
C740 H736 0.949 . S
C740 C748 1.574 . S
C740 C756 1.368 . S
H741 C749 0.950 . S
H742 C747 0.950 . S
H743 C748 0.949 . S
H744 C750 0.950 . S
H745 C751 0.950 . S
H746 C752 0.949 . S
C747 H742 0.950 . S
C747 C749 1.327 . S
C747 C753 1.429 . S
C748 C740 1.574 . S
C748 H743 0.949 . S
C748 C754 1.368 . S
C749 C733 1.349 . S
C749 H741 0.950 . S
C749 C747 1.327 . S
C750 C738 1.349 . S
C750 H744 0.950 . S
C750 C751 1.327 . S
C751 H745 0.950 . S
C751 C750 1.327 . S
C751 C755 1.429 . S
C752 C735 1.574 . S
C752 H746 0.949 . S
C752 C756 1.368 . S
C753 C734 1.429 . S
C753 C747 1.429 . S
C753 C754 1.523 . S
C754 C735 1.368 . S
C754 C748 1.368 . S
C754 C753 1.523 . S
C755 C739 1.429 . S
C755 C751 1.429 . S
C755 C756 1.523 . S
C756 C740 1.368 . S
C756 C752 1.368 . S
C756 C755 1.523 . S
H757 C732 0.950 . S
H758 C734 0.950 . S
H759 C735 0.949 . S
H760 C737 0.950 . S
H761 C739 0.950 . S
C762 C763 1.349 . S
C762 C764 1.327 . S
C762 H787 0.950 . S
C763 C762 1.349 . S
C763 C779 1.349 . S
C764 C762 1.327 . S
C764 C783 1.429 . S
C764 H788 0.950 . S
C765 C782 1.574 . S
C765 C784 1.368 . S
C765 H789 0.949 . S
H766 C770 0.949 . S
C767 C768 1.349 . S
C767 C769 1.327 . S
C767 H790 0.950 . S
C768 C767 1.349 . S
C768 C780 1.349 . S
C769 C767 1.327 . S
C769 C785 1.429 . S
C769 H791 0.950 . S
C770 H766 0.949 . S
C770 C778 1.574 . S
C770 C786 1.368 . S
H771 C779 0.950 . S
H772 C777 0.950 . S
H773 C778 0.949 . S
H774 C780 0.950 . S
H775 C781 0.950 . S
H776 C782 0.949 . S
C777 H772 0.950 . S
C777 C779 1.327 . S
C777 C783 1.429 . S
C778 C770 1.574 . S
C778 H773 0.949 . S
C778 C784 1.368 . S
C779 C763 1.349 . S
C779 H771 0.950 . S
C779 C777 1.327 . S
C780 C768 1.349 . S
C780 H774 0.950 . S
C780 C781 1.327 . S
C781 H775 0.950 . S
C781 C780 1.327 . S
C781 C785 1.429 . S
C782 C765 1.574 . S
C782 H776 0.949 . S
C782 C786 1.368 . S
C783 C764 1.429 . S
C783 C777 1.429 . S
C783 C784 1.523 . S
C784 C765 1.368 . S
C784 C778 1.368 . S
C784 C783 1.523 . S
C785 C769 1.429 . S
C785 C781 1.429 . S
C785 C786 1.523 . S
C786 C770 1.368 . S
C786 C782 1.368 . S
C786 C785 1.523 . S
H787 C762 0.950 . S
H788 C764 0.950 . S
H789 C765 0.949 . S
H790 C767 0.950 . S
H791 C769 0.950 . S
C792 C793 1.349 . S
C792 C794 1.327 . S
C792 H817 0.950 . S
C793 C792 1.349 . S
C793 C809 1.349 . S
C794 C792 1.327 . S
C794 C813 1.429 . S
C794 H818 0.950 . S
C795 C812 1.574 . S
C795 C814 1.368 . S
C795 H819 0.949 . S
H796 C800 0.949 . S
C797 C798 1.349 . S
C797 C799 1.327 . S
C797 H820 0.950 . S
C798 C797 1.349 . S
C798 C810 1.349 . S
C799 C797 1.327 . S
C799 C815 1.429 . S
C799 H821 0.950 . S
C800 H796 0.949 . S
C800 C808 1.574 . S
C800 C816 1.368 . S
H801 C809 0.950 . S
H802 C807 0.950 . S
H803 C808 0.949 . S
H804 C810 0.950 . S
H805 C811 0.950 . S
H806 C812 0.949 . S
C807 H802 0.950 . S
C807 C809 1.327 . S
C807 C813 1.429 . S
C808 C800 1.574 . S
C808 H803 0.949 . S
C808 C814 1.368 . S
C809 C793 1.349 . S
C809 H801 0.950 . S
C809 C807 1.327 . S
C810 C798 1.349 . S
C810 H804 0.950 . S
C810 C811 1.327 . S
C811 H805 0.950 . S
C811 C810 1.327 . S
C811 C815 1.429 . S
C812 C795 1.574 . S
C812 H806 0.949 . S
C812 C816 1.368 . S
C813 C794 1.429 . S
C813 C807 1.429 . S
C813 C814 1.523 . S
C814 C795 1.368 . S
C814 C808 1.368 . S
C814 C813 1.523 . S
C815 C799 1.429 . S
C815 C811 1.429 . S
C815 C816 1.523 . S
C816 C800 1.368 . S
C816 C812 1.368 . S
C816 C815 1.523 . S
H817 C792 0.950 . S
H818 C794 0.950 . S
H819 C795 0.949 . S
H820 C797 0.950 . S
H821 C799 0.950 . S
C822 C823 1.349 . S
C822 C824 1.327 . S
C822 H847 0.950 . S
C823 C822 1.349 . S
C823 C839 1.349 . S
C824 C822 1.327 . S
C824 C843 1.429 . S
C824 H848 0.950 . S
C825 C842 1.574 . S
C825 C844 1.368 . S
C825 H849 0.949 . S
H826 C830 0.949 . S
C827 C828 1.349 . S
C827 C829 1.327 . S
C827 H850 0.950 . S
C828 C827 1.349 . S
C828 C840 1.349 . S
C829 C827 1.327 . S
C829 C845 1.429 . S
C829 H851 0.950 . S
C830 H826 0.949 . S
C830 C838 1.574 . S
C830 C846 1.368 . S
H831 C839 0.950 . S
H832 C837 0.950 . S
H833 C838 0.949 . S
H834 C840 0.950 . S
H835 C841 0.950 . S
H836 C842 0.949 . S
C837 H832 0.950 . S
C837 C839 1.327 . S
C837 C843 1.429 . S
C838 C830 1.574 . S
C838 H833 0.949 . S
C838 C844 1.368 . S
C839 C823 1.349 . S
C839 H831 0.950 . S
C839 C837 1.327 . S
C840 C828 1.349 . S
C840 H834 0.950 . S
C840 C841 1.327 . S
C841 H835 0.950 . S
C841 C840 1.327 . S
C841 C845 1.429 . S
C842 C825 1.574 . S
C842 H836 0.949 . S
C842 C846 1.368 . S
C843 C824 1.429 . S
C843 C837 1.429 . S
C843 C844 1.523 . S
C844 C825 1.368 . S
C844 C838 1.368 . S
C844 C843 1.523 . S
C845 C829 1.429 . S
C845 C841 1.429 . S
C845 C846 1.523 . S
C846 C830 1.368 . S
C846 C842 1.368 . S
C846 C845 1.523 . S
H847 C822 0.950 . S
H848 C824 0.950 . S
H849 C825 0.949 . S
H850 C827 0.950 . S
H851 C829 0.950 . S
C852 C853 1.349 . S
C852 C854 1.327 . S
C852 H877 0.950 . S
C853 C852 1.349 . S
C853 C869 1.349 . S
C854 C852 1.327 . S
C854 C873 1.429 . S
C854 H878 0.950 . S
C855 C872 1.574 . S
C855 C874 1.368 . S
C855 H879 0.949 . S
H856 C860 0.949 . S
C857 C858 1.349 . S
C857 C859 1.327 . S
C857 H880 0.950 . S
C858 C857 1.349 . S
C858 C870 1.349 . S
C859 C857 1.327 . S
C859 C875 1.429 . S
C859 H881 0.950 . S
C860 H856 0.949 . S
C860 C868 1.574 . S
C860 C876 1.368 . S
H861 C869 0.950 . S
H862 C867 0.950 . S
H863 C868 0.949 . S
H864 C870 0.950 . S
H865 C871 0.950 . S
H866 C872 0.949 . S
C867 H862 0.950 . S
C867 C869 1.327 . S
C867 C873 1.429 . S
C868 C860 1.574 . S
C868 H863 0.949 . S
C868 C874 1.368 . S
C869 C853 1.349 . S
C869 H861 0.950 . S
C869 C867 1.327 . S
C870 C858 1.349 . S
C870 H864 0.950 . S
C870 C871 1.327 . S
C871 H865 0.950 . S
C871 C870 1.327 . S
C871 C875 1.429 . S
C872 C855 1.574 . S
C872 H866 0.949 . S
C872 C876 1.368 . S
C873 C854 1.429 . S
C873 C867 1.429 . S
C873 C874 1.523 . S
C874 C855 1.368 . S
C874 C868 1.368 . S
C874 C873 1.523 . S
C875 C859 1.429 . S
C875 C871 1.429 . S
C875 C876 1.523 1_556 S
C876 C860 1.368 . S
C876 C872 1.368 . S
C876 C875 1.523 1_554 S
H877 C852 0.950 . S
H878 C854 0.950 . S
H879 C855 0.949 . S
H880 C857 0.950 . S
H881 C859 0.950 . S
C882 C883 1.349 . S
C882 C884 1.327 . S
C882 H907 0.950 . S
C883 C882 1.349 . S
C883 C899 1.349 . S
C884 C882 1.327 . S
C884 C903 1.429 . S
C884 H908 0.950 . S
C885 C902 1.574 . S
C885 C904 1.368 . S
C885 H909 0.949 . S
H886 C890 0.949 . S
C887 C888 1.349 . S
C887 C889 1.327 . S
C887 H910 0.950 . S
C888 C887 1.349 . S
C888 C900 1.349 . S
C889 C887 1.327 . S
C889 C905 1.429 . S
C889 H911 0.950 . S
C890 H886 0.949 . S
C890 C898 1.574 . S
C890 C906 1.368 . S
H891 C899 0.950 . S
H892 C897 0.950 . S
H893 C898 0.949 . S
H894 C900 0.950 . S
H895 C901 0.950 . S
H896 C902 0.949 . S
C897 H892 0.950 . S
C897 C899 1.327 . S
C897 C903 1.429 . S
C898 C890 1.574 . S
C898 H893 0.949 . S
C898 C904 1.368 . S
C899 C883 1.349 . S
C899 H891 0.950 . S
C899 C897 1.327 . S
C900 C888 1.349 . S
C900 H894 0.950 . S
C900 C901 1.327 . S
C901 H895 0.950 . S
C901 C900 1.327 . S
C901 C905 1.429 . S
C902 C885 1.574 . S
C902 H896 0.949 . S
C902 C906 1.368 . S
C903 C884 1.429 . S
C903 C897 1.429 . S
C903 C904 1.523 . S
C904 C885 1.368 . S
C904 C898 1.368 . S
C904 C903 1.523 . S
C905 C889 1.429 . S
C905 C901 1.429 . S
C905 C906 1.523 . S
C906 C890 1.368 . S
C906 C902 1.368 . S
C906 C905 1.523 . S
H907 C882 0.950 . S
H908 C884 0.950 . S
H909 C885 0.949 . S
H910 C887 0.950 . S
H911 C889 0.950 . S
C198 C178 1.606 . S
C193 C8 1.563 . S
C223 C26 1.553 . S
C228 C119 1.602 . S
C253 C50 1.546 . S
C258 C122 1.596 . S
C283 C68 1.563 . S
C288 C136 1.610 . S
C318 C161 1.601 . S
C313 C80 1.552 . S
C343 C104 1.540 . S
C348 C164 1.590 . S
C373 C32 1.528 . S
C378 C133 1.581 . S
C403 C44 1.544 . S
C408 C147 1.590 . S
C433 C62 1.530 . S
C438 C150 1.574 . S
C468 C175 1.575 . S
C463 C86 1.522 1_554 S
C498 C189 1.589 . S
C493 C98 1.542 . S
C528 C108 1.578 . S
C523 C14 1.531 . S
C553 C7 1.453 . S
C558 C131 1.500 . S
C583 C25 1.466 . S
C588 C145 1.516 . S
C618 C155 1.516 . S
C613 C52 1.466 . S
C643 C70 1.455 . S
C648 C173 1.500 . S
C678 C187 1.515 . S
C673 C79 1.465 . S
C708 C113 1.517 . S
C703 C106 1.467 . S
C738 C183 1.545 . S
C733 C34 1.491 . S
C763 C43 1.473 . S
C768 C117 1.525 . S
C798 C127 1.532 . S
C793 C61 1.479 . S
C823 C88 1.492 . S
C828 C141 1.546 . S
C853 C97 1.472 . S
C858 C159 1.524 . S
C883 C16 1.481 . S
C888 C169 1.532 . S
