# Generated by pormake.
# Topology cml, (3,6)-cn, num edge types: 1
# Building blocks:
#     Node 0, Type 0, BuildingBlock: KAKCAD_clean_linker_0, # of connection points: 3
#     Node 1, Type 0, BuildingBlock: KAKCAD_clean_linker_0, # of connection points: 3
#     Node 2, Type 0, BuildingBlock: KAKCAD_clean_linker_0, # of connection points: 3
#     Node 3, Type 0, BuildingBlock: KAKCAD_clean_linker_0, # of connection points: 3
#     Node 4, Type 0, BuildingBlock: KAKCAD_clean_linker_0, # of connection points: 3
#     Node 5, Type 0, BuildingBlock: KAKCAD_clean_linker_0, # of connection points: 3
#     Node 6, Type 0, BuildingBlock: KAKCAD_clean_linker_0, # of connection points: 3
#     Node 7, Type 0, BuildingBlock: KAKCAD_clean_linker_0, # of connection points: 3
#     Node 8, Type 1, BuildingBlock: OJICUG_clean_sbu_0, # of connection points: 6
#     Node 9, Type 1, BuildingBlock: OJICUG_clean_sbu_0, # of connection points: 6
#     Node 10, Type 1, BuildingBlock: OJICUG_clean_sbu_0, # of connection points: 6
#     Node 11, Type 1, BuildingBlock: OJICUG_clean_sbu_0, # of connection points: 6
#     Edge 12, Type (0, 1), None
#     Edge 13, Type (0, 1), None
#     Edge 14, Type (0, 1), None
#     Edge 15, Type (0, 1), None
#     Edge 16, Type (0, 1), None
#     Edge 17, Type (0, 1), None
#     Edge 18, Type (0, 1), None
#     Edge 19, Type (0, 1), None
#     Edge 20, Type (0, 1), None
#     Edge 21, Type (0, 1), None
#     Edge 22, Type (0, 1), None
#     Edge 23, Type (0, 1), None
#     Edge 24, Type (0, 1), None
#     Edge 25, Type (0, 1), None
#     Edge 26, Type (0, 1), None
#     Edge 27, Type (0, 1), None
#     Edge 28, Type (0, 1), None
#     Edge 29, Type (0, 1), None
#     Edge 30, Type (0, 1), None
#     Edge 31, Type (0, 1), None
#     Edge 32, Type (0, 1), None
#     Edge 33, Type (0, 1), None
#     Edge 34, Type (0, 1), None
#     Edge 35, Type (0, 1), None
# Relax obj value: 0.071
# Max RMSD: 0.085
# Mean RMSD: 0.080
data_MOF--net-cml--node1-OJICUG_clean_sbu_0--node2-KAKCAD_clean_linker_0--edge1-none
_symmetry_space_group_name_H-M    P1
_symmetry_Int_Tables_number       1
_symmetry_cell_setting            triclinic
loop_
_symmetry_equiv_pos_as_xyz
'x, y, z'
_cell_length_a     26.751378
_cell_length_b     27.098304
_cell_length_c     25.425154
_cell_angle_alpha  89.721752
_cell_angle_beta   90.117862
_cell_angle_gamma 90.215383
loop_
_atom_site_label
_atom_site_type_symbol
_atom_site_fract_x
_atom_site_fract_y
_atom_site_fract_z
_atom_type_partial_charge
C0 C 0.36128 0.54204 0.95804 0.0
C1 C 0.3819 0.53463 0.9079 0.0
C2 C 0.32962 0.50671 0.98024 0.0
C3 C 0.31786 0.46336 0.95273 0.0
C4 C 0.33565 0.45742 0.90129 0.0
C5 C 0.36741 0.49273 0.87905 0.0
C6 C 0.2924 0.42206 0.97992 0.0
C7 C 0.25453 0.3948 0.9552 0.0
C8 C 0.2333 0.35329 0.9802 0.0
C9 C 0.25123 0.33887 0.03015 0.0
C10 C 0.28928 0.3658 0.0548 0.0
C11 C 0.30926 0.40747 0.02972 0.0
C12 C 0.3113 0.34981 0.10529 0.0
C13 C 0.31756 0.38447 0.1455 0.0
C14 C 0.33375 0.3032 0.1102 0.0
C15 C 0.3659 0.29321 0.15249 0.0
C16 C 0.37589 0.3299 0.18998 0.0
C17 C 0.19305 0.32468 0.95391 0.0
C18 C 0.15599 0.34861 0.92384 0.0
C19 C 0.19106 0.27308 0.95923 0.0
C20 C 0.15204 0.24628 0.93682 0.0
C21 C 0.11461 0.2703 0.9077 0.0
C22 C 0.11735 0.32157 0.90051 0.0
C23 C 0.34949 0.37462 0.18744 0.0
H24 H 0.37108 0.57417 0.9811 0.0
H25 H 0.31578 0.51239 0.01976 0.0
H26 H 0.32737 0.4242 0.87935 0.0
H27 H 0.38218 0.4861 0.8401 0.0
H28 H 0.24227 0.40554 0.91616 0.0
H29 H 0.33997 0.42726 0.04805 0.0
H30 H 0.2354 0.30716 0.0503 0.0
H31 H 0.30017 0.42045 0.14272 0.0
H32 H 0.3295 0.27602 0.07939 0.0
H33 H 0.3856 0.25838 0.15367 0.0
H34 H 0.156 0.38837 0.91942 0.0
H35 H 0.21964 0.25323 0.98079 0.0
H36 H 0.35561 0.40322 0.21641 0.0
H37 H 0.08871 0.34093 0.87852 0.0
H38 H 0.15113 0.20661 0.94235 0.0
C39 C 0.63091 0.43374 0.46069 0.0
C40 C 0.61357 0.43948 0.4088 0.0
C41 C 0.6625 0.46905 0.48285 0.0
C42 C 0.67743 0.51057 0.45351 0.0
C43 C 0.66384 0.51406 0.40032 0.0
C44 C 0.63216 0.47881 0.37812 0.0
C45 C 0.69964 0.55362 0.48035 0.0
C46 C 0.73965 0.58002 0.45838 0.0
C47 C 0.75694 0.6239 0.48183 0.0
C48 C 0.73302 0.64123 0.52759 0.0
C49 C 0.69161 0.61608 0.54823 0.0
C50 C 0.67615 0.57176 0.52531 0.0
C51 C 0.66102 0.6372 0.59081 0.0
C52 C 0.68205 0.65 0.63959 0.0
C53 C 0.60901 0.64006 0.58389 0.0
C54 C 0.57819 0.65156 0.62597 0.0
C55 C 0.59881 0.66108 0.67551 0.0
C56 C 0.79776 0.65298 0.45671 0.0
C57 C 0.83727 0.62935 0.4304 0.0
C58 C 0.79703 0.70487 0.45801 0.0
C59 C 0.83549 0.73228 0.4352 0.0
C60 C 0.87484 0.70858 0.4093 0.0
C61 C 0.87514 0.65696 0.40633 0.0
C62 C 0.65092 0.66179 0.682 0.0
H63 H 0.61798 0.40351 0.4852 0.0
H64 H 0.67305 0.46533 0.52384 0.0
H65 H 0.67468 0.54585 0.37692 0.0
H66 H 0.62015 0.48397 0.33776 0.0
H67 H 0.75615 0.56698 0.42217 0.0
H68 H 0.64387 0.55248 0.54118 0.0
H69 H 0.74528 0.67504 0.54623 0.0
H70 H 0.72208 0.64801 0.64569 0.0
H71 H 0.592 0.6311 0.54639 0.0
H72 H 0.53799 0.6507 0.62047 0.0
H73 H 0.83956 0.5895 0.42915 0.0
H74 H 0.7666 0.72457 0.47632 0.0
H75 H 0.66725 0.66855 0.72033 0.0
H76 H 0.90555 0.63795 0.38708 0.0
H77 H 0.83435 0.77219 0.43758 0.0
C78 C 0.62387 0.49142 0.86983 0.0
C79 C 0.60808 0.5316 0.9004 0.0
C80 C 0.65389 0.45459 0.89195 0.0
C81 C 0.66853 0.45741 0.94491 0.0
C82 C 0.65594 0.49935 0.97415 0.0
C83 C 0.62605 0.53606 0.95217 0.0
C84 C 0.69139 0.41443 0.97155 0.0
C85 C 0.73166 0.38902 0.94936 0.0
C86 C 0.75169 0.34711 0.97464 0.0
C87 C 0.7301 0.33036 0.02208 0.0
C88 C 0.69048 0.35618 0.04472 0.0
C89 C 0.67133 0.39789 0.01929 0.0
C90 C 0.66858 0.34126 0.09548 0.0
C91 C 0.64183 0.29683 0.1006 0.0
C92 C 0.6679 0.37549 0.13655 0.0
C93 C 0.63779 0.36743 0.18029 0.0
C94 C 0.60743 0.32507 0.1837 0.0
C95 C 0.79583 0.32168 0.95232 0.0
C96 C 0.80113 0.31611 0.89763 0.0
C97 C 0.83335 0.30315 0.9857 0.0
C98 C 0.87458 0.27871 0.96504 0.0
C99 C 0.87966 0.27283 0.91046 0.0
C100 C 0.8428 0.29222 0.87689 0.0
C101 C 0.61136 0.2887 0.14463 0.0
H102 H 0.61098 0.48703 0.82971 0.0
H103 H 0.66307 0.42254 0.86862 0.0
H104 H 0.66754 0.50277 0.01483 0.0
H105 H 0.61539 0.56692 0.97657 0.0
H106 H 0.74806 0.40278 0.9132 0.0
H107 H 0.63974 0.41697 0.03641 0.0
H108 H 0.7443 0.29774 0.04179 0.0
H109 H 0.6418 0.27012 0.06904 0.0
H110 H 0.68857 0.40985 0.13338 0.0
H111 H 0.63637 0.39575 0.21018 0.0
H112 H 0.77265 0.32938 0.8708 0.0
H113 H 0.83113 0.30781 0.02791 0.0
H114 H 0.58851 0.25565 0.1463 0.0
H115 H 0.84545 0.28781 0.83466 0.0
H116 H 0.90261 0.26453 0.9919 0.0
C117 C 0.34479 0.61572 0.68523 0.0
C118 C 0.37659 0.65712 0.68678 0.0
C119 C 0.3147 0.6071 0.64153 0.0
C120 C 0.31549 0.63988 0.59881 0.0
C121 C 0.34348 0.68366 0.60212 0.0
C122 C 0.3739 0.69234 0.64605 0.0
C123 C 0.29473 0.62349 0.54821 0.0
C124 C 0.25473 0.64778 0.52413 0.0
C125 C 0.23455 0.62995 0.47656 0.0
C126 C 0.25642 0.58859 0.45257 0.0
C127 C 0.29711 0.56467 0.4763 0.0
C128 C 0.31569 0.5822 0.52422 0.0
C129 C 0.32217 0.52255 0.45087 0.0
C130 C 0.33656 0.48142 0.48103 0.0
C131 C 0.33676 0.52556 0.39797 0.0
C132 C 0.36796 0.48965 0.37662 0.0
C133 C 0.38504 0.4501 0.40785 0.0
C134 C 0.19006 0.65391 0.45288 0.0
C135 C 0.15145 0.67095 0.48535 0.0
C136 C 0.18584 0.66032 0.39807 0.0
C137 C 0.14445 0.68448 0.37645 0.0
C138 C 0.10694 0.70311 0.40932 0.0
C139 C 0.11058 0.69552 0.46387 0.0
C140 C 0.36766 0.44556 0.45978 0.0
H141 H 0.34537 0.58832 0.7164 0.0
H142 H 0.29317 0.57319 0.63962 0.0
H143 H 0.34469 0.70917 0.56921 0.0
H144 H 0.39794 0.72459 0.64625 0.0
H145 H 0.23918 0.68015 0.54278 0.0
H146 H 0.34761 0.5644 0.54251 0.0
H147 H 0.24117 0.57421 0.4162 0.0
H148 H 0.32512 0.47787 0.52174 0.0
H149 H 0.32631 0.55702 0.37395 0.0
H150 H 0.38025 0.49404 0.3363 0.0
H151 H 0.15279 0.66542 0.52754 0.0
H152 H 0.21511 0.6479 0.37199 0.0
H153 H 0.37941 0.41522 0.48473 0.0
H154 H 0.08189 0.70889 0.49018 0.0
H155 H 0.14272 0.69008 0.33427 0.0
C156 C 0.86128 0.04204 0.95804 0.0
C157 C 0.8819 0.03463 0.9079 0.0
C158 C 0.82962 0.00671 0.98023 0.0
C159 C 0.81786 0.96336 0.95273 0.0
C160 C 0.83565 0.95742 0.90129 0.0
C161 C 0.86741 -0.00727 0.87905 0.0
C162 C 0.79241 0.92206 0.97992 0.0
C163 C 0.75453 0.89479 0.9552 0.0
C164 C 0.7333 0.85329 0.9802 0.0
C165 C 0.75123 0.83887 0.03015 0.0
C166 C 0.78928 0.8658 0.0548 0.0
C167 C 0.80926 0.90747 0.02972 0.0
C168 C 0.8113 0.84981 0.10529 0.0
C169 C 0.81756 0.88447 0.1455 0.0
C170 C 0.83375 0.8032 0.1102 0.0
C171 C 0.8659 0.79321 0.15249 0.0
C172 C 0.87589 0.8299 0.18998 0.0
C173 C 0.69305 0.82467 0.95391 0.0
C174 C 0.65599 0.84861 0.92384 0.0
C175 C 0.69106 0.77308 0.95923 0.0
C176 C 0.65204 0.74628 0.93682 0.0
C177 C 0.61461 0.7703 0.9077 0.0
C178 C 0.61735 0.82157 0.90051 0.0
C179 C 0.84949 0.87462 0.18744 0.0
H180 H 0.87108 0.07417 0.9811 0.0
H181 H 0.81578 0.01239 0.01976 0.0
H182 H 0.82737 0.9242 0.87935 0.0
H183 H 0.88218 0.98609 0.8401 0.0
H184 H 0.74227 0.90554 0.91616 0.0
H185 H 0.83997 0.92726 0.04805 0.0
H186 H 0.7354 0.80716 0.0503 0.0
H187 H 0.80017 0.92045 0.14272 0.0
H188 H 0.8295 0.77602 0.07939 0.0
H189 H 0.8856 0.75838 0.15367 0.0
H190 H 0.656 0.88837 0.91942 0.0
H191 H 0.71964 0.75323 0.98079 0.0
H192 H 0.85561 0.90322 0.21641 0.0
H193 H 0.58871 0.84093 0.87852 0.0
H194 H 0.65113 0.70661 0.94235 0.0
C195 C 0.13091 0.93374 0.46069 0.0
C196 C 0.11357 0.93948 0.4088 0.0
C197 C 0.1625 0.96905 0.48285 0.0
C198 C 0.17743 0.01057 0.45351 0.0
C199 C 0.16384 0.01406 0.40032 0.0
C200 C 0.13216 0.97881 0.37812 0.0
C201 C 0.19964 0.05362 0.48035 0.0
C202 C 0.23965 0.08002 0.45838 0.0
C203 C 0.25694 0.1239 0.48183 0.0
C204 C 0.23302 0.14123 0.52759 0.0
C205 C 0.19161 0.11608 0.54824 0.0
C206 C 0.17615 0.07176 0.52531 0.0
C207 C 0.16102 0.1372 0.59081 0.0
C208 C 0.18205 0.15 0.63959 0.0
C209 C 0.10901 0.14006 0.58389 0.0
C210 C 0.07819 0.15156 0.62597 0.0
C211 C 0.09881 0.16108 0.67551 0.0
C212 C 0.29776 0.15298 0.45671 0.0
C213 C 0.33727 0.12935 0.4304 0.0
C214 C 0.29703 0.20487 0.45801 0.0
C215 C 0.33549 0.23228 0.4352 0.0
C216 C 0.37484 0.20858 0.4093 0.0
C217 C 0.37514 0.15696 0.40633 0.0
C218 C 0.15092 0.16178 0.682 0.0
H219 H 0.11798 0.90351 0.4852 0.0
H220 H 0.17305 0.96533 0.52384 0.0
H221 H 0.17467 0.04585 0.37692 0.0
H222 H 0.12015 0.98397 0.33776 0.0
H223 H 0.25615 0.06698 0.42216 0.0
H224 H 0.14387 0.05248 0.54118 0.0
H225 H 0.24528 0.17504 0.54623 0.0
H226 H 0.22208 0.14801 0.64569 0.0
H227 H 0.092 0.1311 0.54639 0.0
H228 H 0.03799 0.1507 0.62047 0.0
H229 H 0.33956 0.0895 0.42915 0.0
H230 H 0.2666 0.22457 0.47632 0.0
H231 H 0.16725 0.16855 0.72033 0.0
H232 H 0.40555 0.13795 0.38708 0.0
H233 H 0.33435 0.27219 0.43758 0.0
C234 C 0.12387 -0.00858 0.86983 0.0
C235 C 0.10809 0.0316 0.90041 0.0
C236 C 0.15389 0.95459 0.89195 0.0
C237 C 0.16853 0.95741 0.94491 0.0
C238 C 0.15594 -0.00064 0.97415 0.0
C239 C 0.12605 0.03606 0.95217 0.0
C240 C 0.1914 0.91443 0.97156 0.0
C241 C 0.23166 0.88903 0.94936 0.0
C242 C 0.25169 0.84711 0.97465 0.0
C243 C 0.2301 0.83037 0.02208 0.0
C244 C 0.19048 0.85619 0.04472 0.0
C245 C 0.17133 0.89789 0.0193 0.0
C246 C 0.16858 0.84126 0.09549 0.0
C247 C 0.14183 0.79683 0.1006 0.0
C248 C 0.1679 0.87549 0.13655 0.0
C249 C 0.13779 0.86743 0.18029 0.0
C250 C 0.10743 0.82507 0.1837 0.0
C251 C 0.29583 0.82168 0.95232 0.0
C252 C 0.30113 0.81611 0.89763 0.0
C253 C 0.33335 0.80315 0.9857 0.0
C254 C 0.37459 0.77871 0.96504 0.0
C255 C 0.37966 0.77283 0.91046 0.0
C256 C 0.3428 0.79222 0.87689 0.0
C257 C 0.11136 0.7887 0.14463 0.0
H258 H 0.11099 0.98704 0.82971 0.0
H259 H 0.16307 0.92254 0.86863 0.0
H260 H 0.16754 0.00278 0.01483 0.0
H261 H 0.11539 0.06692 0.97657 0.0
H262 H 0.24806 0.90278 0.9132 0.0
H263 H 0.13975 0.91697 0.03641 0.0
H264 H 0.2443 0.79774 0.04179 0.0
H265 H 0.1418 0.77012 0.06904 0.0
H266 H 0.18857 0.90985 0.13339 0.0
H267 H 0.13637 0.89575 0.21019 0.0
H268 H 0.27265 0.82938 0.8708 0.0
H269 H 0.33113 0.80781 0.02791 0.0
H270 H 0.08851 0.75565 0.1463 0.0
H271 H 0.34545 0.78781 0.83467 0.0
H272 H 0.40261 0.76453 0.9919 0.0
C273 C 0.84479 0.11572 0.68523 0.0
C274 C 0.87659 0.15712 0.68678 0.0
C275 C 0.8147 0.1071 0.64154 0.0
C276 C 0.81549 0.13987 0.59882 0.0
C277 C 0.84348 0.18366 0.60213 0.0
C278 C 0.8739 0.19234 0.64606 0.0
C279 C 0.79473 0.12349 0.54821 0.0
C280 C 0.75473 0.14778 0.52413 0.0
C281 C 0.73455 0.12995 0.47657 0.0
C282 C 0.75642 0.08859 0.45257 0.0
C283 C 0.79711 0.06467 0.4763 0.0
C284 C 0.81569 0.08219 0.52422 0.0
C285 C 0.82217 0.02255 0.45087 0.0
C286 C 0.83655 0.98141 0.48103 0.0
C287 C 0.83676 0.02556 0.39797 0.0
C288 C 0.86796 0.98965 0.37662 0.0
C289 C 0.88504 0.9501 0.40785 0.0
C290 C 0.69006 0.15391 0.45288 0.0
C291 C 0.65145 0.17095 0.48535 0.0
C292 C 0.68584 0.16032 0.39807 0.0
C293 C 0.64445 0.18448 0.37645 0.0
C294 C 0.60694 0.20311 0.40932 0.0
C295 C 0.61058 0.19552 0.46387 0.0
C296 C 0.86766 0.94555 0.45978 0.0
H297 H 0.84537 0.08832 0.7164 0.0
H298 H 0.79317 0.07319 0.63962 0.0
H299 H 0.84468 0.20917 0.56921 0.0
H300 H 0.89794 0.22459 0.64625 0.0
H301 H 0.73918 0.18015 0.54278 0.0
H302 H 0.84761 0.06439 0.54251 0.0
H303 H 0.74117 0.07421 0.4162 0.0
H304 H 0.82512 0.97787 0.52174 0.0
H305 H 0.82631 0.05702 0.37395 0.0
H306 H 0.88024 -0.00596 0.3363 0.0
H307 H 0.65279 0.16542 0.52754 0.0
H308 H 0.71511 0.1479 0.37199 0.0
H309 H 0.87941 0.91522 0.48473 0.0
H310 H 0.58189 0.20889 0.49018 0.0
H311 H 0.64272 0.19008 0.33427 0.0
Sc312 Sc -0.0075 0.75808 0.29347 0.0
Sc313 Sc -0.00369 0.8883 0.2946 0.0
Sc314 Sc -0.00663 0.82359 0.41346 0.0
O315 O -0.00595 0.82319 0.33376 0.0
C316 C 0.91679 0.73794 0.3888 0.0
C317 C 0.9176 0.82518 0.22771 0.0
C318 C 0.92309 0.91559 0.38764 0.0
C319 C 0.06812 0.82271 0.22439 0.0
C320 C 0.06565 0.73303 0.3879 0.0
C321 C 0.07289 0.90773 0.38854 0.0
O322 O 0.93714 0.72568 0.34559 0.0
O323 O 0.93874 0.86503 0.24185 0.0
O324 O 0.94063 0.88305 0.41858 0.0
O325 O 0.04793 0.78159 0.23631 0.0
O326 O 0.04544 0.76387 0.41863 0.0
O327 O 0.05407 0.91816 0.34395 0.0
O328 O 0.05288 0.72809 0.33997 0.0
O329 O 0.05406 0.86337 0.24373 0.0
O330 O 0.0558 0.8736 0.41799 0.0
O331 O 0.93196 0.78268 0.243 0.0
O332 O 0.93117 0.77431 0.41619 0.0
O333 O 0.93864 0.92126 0.34093 0.0
Sc334 Sc -0.00572 0.22371 0.79348 0.0
Sc335 Sc -0.00679 0.09378 0.79108 0.0
Sc336 Sc -0.00356 0.15487 0.91135 0.0
O337 O -0.00515 0.15757 0.83187 0.0
C338 C 0.07184 0.24173 0.88766 0.0
C339 C 0.06516 0.16184 0.72068 0.0
C340 C 0.06968 0.06618 0.88056 0.0
C341 C 0.91675 0.15899 0.72664 0.0
C342 C 0.92201 0.24459 0.88907 0.0
C343 C 0.92083 0.06843 0.88742 0.0
O344 O 0.04987 0.25564 0.84565 0.0
O345 O 0.04395 0.1213 0.73253 0.0
O346 O 0.04925 0.09513 0.91327 0.0
O347 O 0.93869 0.19973 0.73651 0.0
O348 O 0.94392 0.2142 0.91946 0.0
O349 O 0.94134 0.0583 0.84378 0.0
O350 O 0.9338 0.25039 0.84104 0.0
O351 O 0.93036 0.11811 0.74646 0.0
O352 O 0.93435 0.10475 0.91549 0.0
O353 O 0.05431 0.20284 0.74169 0.0
O354 O 0.05855 0.20413 0.91408 0.0
O355 O 0.05602 0.06347 0.83278 0.0
Sc356 Sc 0.4925 0.25808 0.29347 0.0
Sc357 Sc 0.49631 0.3883 0.2946 0.0
Sc358 Sc 0.49337 0.32359 0.41346 0.0
O359 O 0.49405 0.32319 0.33376 0.0
C360 C 0.41678 0.23794 0.3888 0.0
C361 C 0.4176 0.32518 0.22771 0.0
C362 C 0.42309 0.41559 0.38764 0.0
C363 C 0.56812 0.3227 0.22439 0.0
C364 C 0.56565 0.23302 0.3879 0.0
C365 C 0.57289 0.40773 0.38854 0.0
O366 O 0.43714 0.22568 0.34559 0.0
O367 O 0.43874 0.36503 0.24185 0.0
O368 O 0.44063 0.38305 0.41858 0.0
O369 O 0.54793 0.28159 0.23631 0.0
O370 O 0.54544 0.26387 0.41863 0.0
O371 O 0.55407 0.41816 0.34395 0.0
O372 O 0.55288 0.22809 0.33997 0.0
O373 O 0.55406 0.36337 0.24373 0.0
O374 O 0.5558 0.3736 0.41799 0.0
O375 O 0.43196 0.28268 0.243 0.0
O376 O 0.43117 0.27431 0.41619 0.0
O377 O 0.43864 0.42126 0.34093 0.0
Sc378 Sc 0.49428 0.72371 0.79348 0.0
Sc379 Sc 0.49321 0.59378 0.79107 0.0
Sc380 Sc 0.49644 0.65487 0.91135 0.0
O381 O 0.49485 0.65757 0.83187 0.0
C382 C 0.57184 0.74173 0.88766 0.0
C383 C 0.56516 0.66184 0.72068 0.0
C384 C 0.56968 0.56618 0.88056 0.0
C385 C 0.41675 0.65899 0.72664 0.0
C386 C 0.42201 0.74459 0.88907 0.0
C387 C 0.42083 0.56843 0.88742 0.0
O388 O 0.54987 0.75564 0.84565 0.0
O389 O 0.54395 0.6213 0.73253 0.0
O390 O 0.54925 0.59513 0.91326 0.0
O391 O 0.43869 0.69973 0.73651 0.0
O392 O 0.44393 0.71421 0.91946 0.0
O393 O 0.44134 0.5583 0.84378 0.0
O394 O 0.4338 0.75039 0.84104 0.0
O395 O 0.43036 0.61811 0.74646 0.0
O396 O 0.43435 0.60475 0.91549 0.0
O397 O 0.55431 0.70284 0.74169 0.0
O398 O 0.55855 0.70413 0.91408 0.0
O399 O 0.55602 0.56347 0.83278 0.0
loop_
_geom_bond_atom_site_label_1
_geom_bond_atom_site_label_2
_geom_bond_distance
_geom_bond_site_symmetry_2
_ccdc_geom_bond_type
C0 C1 1.386 . S
C0 C2 1.397 . S
C0 H24 0.931 . S
C1 C0 1.386 . S
C1 C5 1.397 . S
C2 C0 1.397 . S
C2 C3 1.384 . S
C2 H25 0.930 . S
C3 C2 1.384 . S
C3 C4 1.377 . S
C3 C6 1.481 . S
C4 C3 1.377 . S
C4 C5 1.389 . S
C4 H26 0.929 . S
C5 C1 1.397 . S
C5 C4 1.389 . S
C5 H27 0.931 . S
C6 C3 1.481 . S
C6 C7 1.387 . S
C6 C11 1.390 1_556 S
C7 C6 1.387 . S
C7 C8 1.401 . S
C7 H28 0.930 . S
C8 C7 1.401 . S
C8 C9 1.376 1_556 S
C8 C17 1.511 . S
C9 C8 1.376 1_554 S
C9 C10 1.392 . S
C9 H30 0.931 . S
C10 C9 1.392 . S
C10 C11 1.361 . S
C10 C12 1.500 . S
C11 C6 1.390 1_554 S
C11 C10 1.361 . S
C11 H29 0.931 . S
C12 C10 1.500 . S
C12 C13 1.371 . S
C12 C14 1.365 . S
C13 C12 1.371 . S
C13 C23 1.386 . S
C13 H31 0.931 . S
C14 C12 1.365 . S
C14 C15 1.409 . S
C14 H32 0.929 . S
C15 C14 1.409 . S
C15 C16 1.380 . S
C15 H33 0.930 . S
C16 C15 1.380 . S
C16 C23 1.357 . S
C17 C8 1.511 . S
C17 C18 1.341 . S
C17 C19 1.371 . S
C18 C17 1.341 . S
C18 C22 1.394 . S
C18 H34 0.930 . S
C19 C17 1.371 . S
C19 C20 1.392 . S
C19 H35 0.931 1_556 S
C20 C19 1.392 . S
C20 C21 1.331 . S
C20 H38 0.932 . S
C21 C20 1.331 . S
C21 C22 1.336 . S
C22 C18 1.394 . S
C22 C21 1.336 . S
C22 H37 0.929 . S
C23 C13 1.386 . S
C23 C16 1.357 . S
C23 H36 0.928 . S
H24 C0 0.931 . S
H25 C2 0.930 . S
H26 C4 0.929 . S
H27 C5 0.931 . S
H28 C7 0.930 . S
H29 C11 0.931 . S
H30 C9 0.931 . S
H31 C13 0.931 . S
H32 C14 0.929 . S
H33 C15 0.930 . S
H34 C18 0.930 . S
H35 C19 0.931 1_554 S
H36 C23 0.928 . S
H37 C22 0.929 . S
H38 C20 0.932 . S
C39 C40 1.386 . S
C39 C41 1.397 . S
C39 H63 0.931 . S
C40 C39 1.386 . S
C40 C44 1.397 . S
C41 C39 1.397 . S
C41 C42 1.384 . S
C41 H64 0.930 . S
C42 C41 1.384 . S
C42 C43 1.377 . S
C42 C45 1.481 . S
C43 C42 1.377 . S
C43 C44 1.389 . S
C43 H65 0.929 . S
C44 C40 1.397 . S
C44 C43 1.389 . S
C44 H66 0.931 . S
C45 C42 1.481 . S
C45 C46 1.387 . S
C45 C50 1.390 . S
C46 C45 1.387 . S
C46 C47 1.401 . S
C46 H67 0.930 . S
C47 C46 1.401 . S
C47 C48 1.376 . S
C47 C56 1.511 . S
C48 C47 1.376 . S
C48 C49 1.392 . S
C48 H69 0.931 . S
C49 C48 1.392 . S
C49 C50 1.361 . S
C49 C51 1.500 . S
C50 C45 1.390 . S
C50 C49 1.361 . S
C50 H68 0.931 . S
C51 C49 1.500 . S
C51 C52 1.371 . S
C51 C53 1.365 . S
C52 C51 1.371 . S
C52 C62 1.386 . S
C52 H70 0.931 . S
C53 C51 1.365 . S
C53 C54 1.409 . S
C53 H71 0.929 . S
C54 C53 1.409 . S
C54 C55 1.380 . S
C54 H72 0.930 . S
C55 C54 1.380 . S
C55 C62 1.357 . S
C56 C47 1.511 . S
C56 C57 1.341 . S
C56 C58 1.371 . S
C57 C56 1.341 . S
C57 C61 1.394 . S
C57 H73 0.930 . S
C58 C56 1.371 . S
C58 C59 1.392 . S
C58 H74 0.931 . S
C59 C58 1.392 . S
C59 C60 1.331 . S
C59 H77 0.932 . S
C60 C59 1.331 . S
C60 C61 1.336 . S
C61 C57 1.394 . S
C61 C60 1.336 . S
C61 H76 0.929 . S
C62 C52 1.386 . S
C62 C55 1.357 . S
C62 H75 0.928 . S
H63 C39 0.931 . S
H64 C41 0.930 . S
H65 C43 0.929 . S
H66 C44 0.931 . S
H67 C46 0.930 . S
H68 C50 0.931 . S
H69 C48 0.931 . S
H70 C52 0.931 . S
H71 C53 0.929 . S
H72 C54 0.930 . S
H73 C57 0.930 . S
H74 C58 0.931 . S
H75 C62 0.928 . S
H76 C61 0.929 . S
H77 C59 0.932 . S
C78 C79 1.386 . S
C78 C80 1.397 . S
C78 H102 0.931 . S
C79 C78 1.386 . S
C79 C83 1.397 . S
C80 C78 1.397 . S
C80 C81 1.384 . S
C80 H103 0.930 . S
C81 C80 1.384 . S
C81 C82 1.377 . S
C81 C84 1.481 . S
C82 C81 1.377 . S
C82 C83 1.389 . S
C82 H104 0.929 1_556 S
C83 C79 1.397 . S
C83 C82 1.389 . S
C83 H105 0.931 . S
C84 C81 1.481 . S
C84 C85 1.387 . S
C84 C89 1.390 1_556 S
C85 C84 1.387 . S
C85 C86 1.401 . S
C85 H106 0.930 . S
C86 C85 1.401 . S
C86 C87 1.376 1_556 S
C86 C95 1.511 . S
C87 C86 1.376 1_554 S
C87 C88 1.392 . S
C87 H108 0.931 . S
C88 C87 1.392 . S
C88 C89 1.361 . S
C88 C90 1.500 . S
C89 C84 1.390 1_554 S
C89 C88 1.361 . S
C89 H107 0.931 . S
C90 C88 1.500 . S
C90 C91 1.371 . S
C90 C92 1.365 . S
C91 C90 1.371 . S
C91 C101 1.386 . S
C91 H109 0.931 . S
C92 C90 1.365 . S
C92 C93 1.409 . S
C92 H110 0.929 . S
C93 C92 1.409 . S
C93 C94 1.380 . S
C93 H111 0.930 . S
C94 C93 1.380 . S
C94 C101 1.357 . S
C95 C86 1.511 . S
C95 C96 1.341 . S
C95 C97 1.371 . S
C96 C95 1.341 . S
C96 C100 1.394 . S
C96 H112 0.930 . S
C97 C95 1.371 . S
C97 C98 1.392 . S
C97 H113 0.931 1_556 S
C98 C97 1.392 . S
C98 C99 1.331 . S
C98 H116 0.925 1_556 S
C99 C98 1.331 . S
C99 C100 1.336 . S
C100 C96 1.394 . S
C100 C99 1.336 . S
C100 H115 0.929 . S
C101 C91 1.386 . S
C101 C94 1.357 . S
C101 H114 0.928 . S
H102 C78 0.931 . S
H103 C80 0.930 . S
H104 C82 0.929 1_554 S
H105 C83 0.931 . S
H106 C85 0.930 . S
H107 C89 0.931 . S
H108 C87 0.931 . S
H109 C91 0.931 . S
H110 C92 0.929 . S
H111 C93 0.930 . S
H112 C96 0.930 . S
H113 C97 0.931 1_554 S
H114 C101 0.928 . S
H115 C100 0.929 . S
H116 C98 0.925 1_554 S
C117 C118 1.386 . S
C117 C119 1.397 . S
C117 H141 0.931 . S
C118 C117 1.386 . S
C118 C122 1.397 . S
C119 C117 1.397 . S
C119 C120 1.384 . S
C119 H142 0.930 . S
C120 C119 1.384 . S
C120 C121 1.377 . S
C120 C123 1.481 . S
C121 C120 1.377 . S
C121 C122 1.389 . S
C121 H143 0.929 . S
C122 C118 1.397 . S
C122 C121 1.389 . S
C122 H144 0.931 . S
C123 C120 1.481 . S
C123 C124 1.387 . S
C123 C128 1.390 . S
C124 C123 1.387 . S
C124 C125 1.401 . S
C124 H145 0.930 . S
C125 C124 1.401 . S
C125 C126 1.376 . S
C125 C134 1.511 . S
C126 C125 1.376 . S
C126 C127 1.392 . S
C126 H147 0.931 . S
C127 C126 1.392 . S
C127 C128 1.361 . S
C127 C129 1.500 . S
C128 C123 1.390 . S
C128 C127 1.361 . S
C128 H146 0.931 . S
C129 C127 1.500 . S
C129 C130 1.371 . S
C129 C131 1.365 . S
C130 C129 1.371 . S
C130 C140 1.386 . S
C130 H148 0.931 . S
C131 C129 1.365 . S
C131 C132 1.409 . S
C131 H149 0.929 . S
C132 C131 1.409 . S
C132 C133 1.380 . S
C132 H150 0.930 . S
C133 C132 1.380 . S
C133 C140 1.357 . S
C134 C125 1.511 . S
C134 C135 1.341 . S
C134 C136 1.371 . S
C135 C134 1.341 . S
C135 C139 1.394 . S
C135 H151 0.930 . S
C136 C134 1.371 . S
C136 C137 1.392 . S
C136 H152 0.931 . S
C137 C136 1.392 . S
C137 C138 1.331 . S
C137 H155 0.932 . S
C138 C137 1.331 . S
C138 C139 1.336 . S
C139 C135 1.394 . S
C139 C138 1.336 . S
C139 H154 0.929 . S
C140 C130 1.386 . S
C140 C133 1.357 . S
C140 H153 0.928 . S
H141 C117 0.931 . S
H142 C119 0.930 . S
H143 C121 0.929 . S
H144 C122 0.931 . S
H145 C124 0.930 . S
H146 C128 0.931 . S
H147 C126 0.931 . S
H148 C130 0.931 . S
H149 C131 0.929 . S
H150 C132 0.930 . S
H151 C135 0.930 . S
H152 C136 0.931 . S
H153 C140 0.928 . S
H154 C139 0.929 . S
H155 C137 0.932 . S
C156 C157 1.386 . S
C156 C158 1.397 . S
C156 H180 0.931 . S
C157 C156 1.386 . S
C157 C161 1.397 . S
C158 C156 1.397 . S
C158 C159 1.384 1_545 S
C158 H181 0.930 . S
C159 C158 1.384 1_565 S
C159 C160 1.377 . S
C159 C162 1.481 . S
C160 C159 1.377 . S
C160 C161 1.389 1_565 S
C160 H182 0.929 . S
C161 C157 1.397 . S
C161 C160 1.389 1_545 S
C161 H183 0.931 . S
C162 C159 1.481 . S
C162 C163 1.387 . S
C162 C167 1.390 1_556 S
C163 C162 1.387 . S
C163 C164 1.401 . S
C163 H184 0.930 . S
C164 C163 1.401 . S
C164 C165 1.376 1_556 S
C164 C173 1.511 . S
C165 C164 1.376 1_554 S
C165 C166 1.392 . S
C165 H186 0.931 . S
C166 C165 1.392 . S
C166 C167 1.361 . S
C166 C168 1.500 . S
C167 C162 1.390 1_554 S
C167 C166 1.361 . S
C167 H185 0.931 . S
C168 C166 1.500 . S
C168 C169 1.371 . S
C168 C170 1.365 . S
C169 C168 1.371 . S
C169 C179 1.386 . S
C169 H187 0.931 . S
C170 C168 1.365 . S
C170 C171 1.409 . S
C170 H188 0.929 . S
C171 C170 1.409 . S
C171 C172 1.380 . S
C171 H189 0.930 . S
C172 C171 1.380 . S
C172 C179 1.357 . S
C173 C164 1.511 . S
C173 C174 1.341 . S
C173 C175 1.371 . S
C174 C173 1.341 . S
C174 C178 1.394 . S
C174 H190 0.930 . S
C175 C173 1.371 . S
C175 C176 1.392 . S
C175 H191 0.931 1_556 S
C176 C175 1.392 . S
C176 C177 1.331 . S
C176 H194 0.932 . S
C177 C176 1.331 . S
C177 C178 1.336 . S
C178 C174 1.394 . S
C178 C177 1.336 . S
C178 H193 0.929 . S
C179 C169 1.386 . S
C179 C172 1.357 . S
C179 H192 0.928 . S
H180 C156 0.931 . S
H181 C158 0.930 . S
H182 C160 0.929 . S
H183 C161 0.931 . S
H184 C163 0.930 . S
H185 C167 0.931 . S
H186 C165 0.931 . S
H187 C169 0.931 . S
H188 C170 0.929 . S
H189 C171 0.930 . S
H190 C174 0.930 . S
H191 C175 0.931 1_554 S
H192 C179 0.928 . S
H193 C178 0.929 . S
H194 C176 0.932 . S
C195 C196 1.386 . S
C195 C197 1.397 . S
C195 H219 0.931 . S
C196 C195 1.386 . S
C196 C200 1.397 . S
C197 C195 1.397 . S
C197 C198 1.384 1_565 S
C197 H220 0.930 . S
C198 C197 1.384 1_545 S
C198 C199 1.377 . S
C198 C201 1.481 . S
C199 C198 1.377 . S
C199 C200 1.389 1_545 S
C199 H221 0.929 . S
C200 C196 1.397 . S
C200 C199 1.389 1_565 S
C200 H222 0.931 . S
C201 C198 1.481 . S
C201 C202 1.387 . S
C201 C206 1.390 . S
C202 C201 1.387 . S
C202 C203 1.401 . S
C202 H223 0.930 . S
C203 C202 1.401 . S
C203 C204 1.376 . S
C203 C212 1.511 . S
C204 C203 1.376 . S
C204 C205 1.392 . S
C204 H225 0.931 . S
C205 C204 1.392 . S
C205 C206 1.361 . S
C205 C207 1.500 . S
C206 C201 1.390 . S
C206 C205 1.361 . S
C206 H224 0.931 . S
C207 C205 1.500 . S
C207 C208 1.371 . S
C207 C209 1.365 . S
C208 C207 1.371 . S
C208 C218 1.386 . S
C208 H226 0.931 . S
C209 C207 1.365 . S
C209 C210 1.409 . S
C209 H227 0.929 . S
C210 C209 1.409 . S
C210 C211 1.380 . S
C210 H228 0.930 . S
C211 C210 1.380 . S
C211 C218 1.357 . S
C212 C203 1.511 . S
C212 C213 1.341 . S
C212 C214 1.371 . S
C213 C212 1.341 . S
C213 C217 1.394 . S
C213 H229 0.930 . S
C214 C212 1.371 . S
C214 C215 1.392 . S
C214 H230 0.931 . S
C215 C214 1.392 . S
C215 C216 1.331 . S
C215 H233 0.932 . S
C216 C215 1.331 . S
C216 C217 1.336 . S
C217 C213 1.394 . S
C217 C216 1.336 . S
C217 H232 0.929 . S
C218 C208 1.386 . S
C218 C211 1.357 . S
C218 H231 0.928 . S
H219 C195 0.931 . S
H220 C197 0.930 . S
H221 C199 0.929 . S
H222 C200 0.931 . S
H223 C202 0.930 . S
H224 C206 0.931 . S
H225 C204 0.931 . S
H226 C208 0.931 . S
H227 C209 0.929 . S
H228 C210 0.930 . S
H229 C213 0.930 . S
H230 C214 0.931 . S
H231 C218 0.928 . S
H232 C217 0.929 . S
H233 C215 0.932 . S
C234 C235 1.386 . S
C234 C236 1.397 1_545 S
C234 H258 0.931 . S
C235 C234 1.386 . S
C235 C239 1.397 . S
C236 C234 1.397 1_565 S
C236 C237 1.384 . S
C236 H259 0.930 . S
C237 C236 1.384 . S
C237 C238 1.377 1_565 S
C237 C240 1.481 . S
C238 C237 1.377 1_545 S
C238 C239 1.389 . S
C238 H260 0.929 1_556 S
C239 C235 1.397 . S
C239 C238 1.389 . S
C239 H261 0.931 . S
C240 C237 1.481 . S
C240 C241 1.387 . S
C240 C245 1.390 1_556 S
C241 C240 1.387 . S
C241 C242 1.401 . S
C241 H262 0.930 . S
C242 C241 1.401 . S
C242 C243 1.376 1_556 S
C242 C251 1.511 . S
C243 C242 1.376 1_554 S
C243 C244 1.392 . S
C243 H264 0.931 . S
C244 C243 1.392 . S
C244 C245 1.361 . S
C244 C246 1.500 . S
C245 C240 1.390 1_554 S
C245 C244 1.361 . S
C245 H263 0.931 . S
C246 C244 1.500 . S
C246 C247 1.371 . S
C246 C248 1.365 . S
C247 C246 1.371 . S
C247 C257 1.386 . S
C247 H265 0.931 . S
C248 C246 1.365 . S
C248 C249 1.409 . S
C248 H266 0.929 . S
C249 C248 1.409 . S
C249 C250 1.380 . S
C249 H267 0.930 . S
C250 C249 1.380 . S
C250 C257 1.357 . S
C251 C242 1.511 . S
C251 C252 1.341 . S
C251 C253 1.371 . S
C252 C251 1.341 . S
C252 C256 1.394 . S
C252 H268 0.930 . S
C253 C251 1.371 . S
C253 C254 1.392 . S
C253 H269 0.931 1_556 S
C254 C253 1.392 . S
C254 C255 1.331 . S
C254 H272 0.925 1_556 S
C255 C254 1.331 . S
C255 C256 1.336 . S
C256 C252 1.394 . S
C256 C255 1.336 . S
C256 H271 0.929 . S
C257 C247 1.386 . S
C257 C250 1.357 . S
C257 H270 0.928 . S
H258 C234 0.931 . S
H259 C236 0.930 . S
H260 C238 0.929 1_554 S
H261 C239 0.931 . S
H262 C241 0.930 . S
H263 C245 0.931 . S
H264 C243 0.931 . S
H265 C247 0.931 . S
H266 C248 0.929 . S
H267 C249 0.930 . S
H268 C252 0.930 . S
H269 C253 0.931 1_554 S
H270 C257 0.928 . S
H271 C256 0.929 . S
H272 C254 0.925 1_554 S
C273 C274 1.386 . S
C273 C275 1.397 . S
C273 H297 0.931 . S
C274 C273 1.386 . S
C274 C278 1.397 . S
C275 C273 1.397 . S
C275 C276 1.384 . S
C275 H298 0.930 . S
C276 C275 1.384 . S
C276 C277 1.377 . S
C276 C279 1.481 . S
C277 C276 1.377 . S
C277 C278 1.389 . S
C277 H299 0.929 . S
C278 C274 1.397 . S
C278 C277 1.389 . S
C278 H300 0.931 . S
C279 C276 1.481 . S
C279 C280 1.387 . S
C279 C284 1.390 . S
C280 C279 1.387 . S
C280 C281 1.401 . S
C280 H301 0.930 . S
C281 C280 1.401 . S
C281 C282 1.376 . S
C281 C290 1.511 . S
C282 C281 1.376 . S
C282 C283 1.392 . S
C282 H303 0.931 . S
C283 C282 1.392 . S
C283 C284 1.361 . S
C283 C285 1.500 . S
C284 C279 1.390 . S
C284 C283 1.361 . S
C284 H302 0.931 . S
C285 C283 1.500 . S
C285 C286 1.371 1_545 S
C285 C287 1.368 . S
C286 C285 1.371 1_565 S
C286 C296 1.386 . S
C286 H304 0.931 . S
C287 C285 1.368 . S
C287 C288 1.397 1_545 S
C287 H305 0.939 . S
C288 C287 1.397 1_565 S
C288 C289 1.380 . S
C288 H306 0.930 . S
C289 C288 1.380 . S
C289 C296 1.357 . S
C290 C281 1.511 . S
C290 C291 1.341 . S
C290 C292 1.371 . S
C291 C290 1.341 . S
C291 C295 1.394 . S
C291 H307 0.930 . S
C292 C290 1.371 . S
C292 C293 1.392 . S
C292 H308 0.931 . S
C293 C292 1.392 . S
C293 C294 1.331 . S
C293 H311 0.932 . S
C294 C293 1.331 . S
C294 C295 1.336 . S
C295 C291 1.394 . S
C295 C294 1.336 . S
C295 H310 0.929 . S
C296 C286 1.386 . S
C296 C289 1.357 . S
C296 H309 0.928 . S
H297 C273 0.931 . S
H298 C275 0.930 . S
H299 C277 0.929 . S
H300 C278 0.931 . S
H301 C280 0.930 . S
H302 C284 0.931 . S
H303 C282 0.931 . S
H304 C286 0.931 . S
H305 C287 0.939 . S
H306 C288 0.930 . S
H307 C291 0.930 . S
H308 C292 0.931 . S
H309 C296 0.928 . S
H310 C295 0.929 . S
H311 C293 0.932 . S
Sc312 O315 2.025 . S
Sc312 O322 2.105 1_455 S
Sc312 O325 2.105 . S
Sc312 O328 2.105 . S
Sc312 O331 2.105 1_455 S
Sc313 O315 2.025 . S
Sc313 O323 2.105 1_455 S
Sc313 O327 2.105 . S
Sc313 O329 2.105 . S
Sc313 O333 2.105 1_455 S
Sc314 O315 2.025 . S
Sc314 O324 2.105 1_455 S
Sc314 O326 2.105 . S
Sc314 O330 2.105 . S
Sc314 O332 2.105 1_455 S
O315 Sc312 2.025 . S
O315 Sc313 2.025 . S
O315 Sc314 2.025 . S
C316 O322 1.268 . S
C316 O332 1.268 . S
C317 O323 1.268 . S
C317 O331 1.268 . S
C318 O324 1.268 . S
C318 O333 1.268 . S
C319 O325 1.268 . S
C319 O329 1.268 . S
C320 O326 1.268 . S
C320 O328 1.268 . S
C321 O327 1.268 . S
C321 O330 1.268 . S
O322 Sc312 2.105 1_655 S
O322 C316 1.268 . S
O323 Sc313 2.105 1_655 S
O323 C317 1.268 . S
O324 Sc314 2.105 1_655 S
O324 C318 1.268 . S
O325 Sc312 2.105 . S
O325 C319 1.268 . S
O326 Sc314 2.105 . S
O326 C320 1.268 . S
O327 Sc313 2.105 . S
O327 C321 1.268 . S
O328 Sc312 2.105 . S
O328 C320 1.268 . S
O329 Sc313 2.105 . S
O329 C319 1.268 . S
O330 Sc314 2.105 . S
O330 C321 1.268 . S
O331 Sc312 2.105 1_655 S
O331 C317 1.268 . S
O332 Sc314 2.105 1_655 S
O332 C316 1.268 . S
O333 Sc313 2.105 1_655 S
O333 C318 1.268 . S
Sc334 O337 2.025 . S
Sc334 O344 2.105 . S
Sc334 O347 2.105 1_455 S
Sc334 O350 2.105 1_455 S
Sc334 O353 2.105 . S
Sc335 O337 2.025 . S
Sc335 O345 2.105 . S
Sc335 O349 2.105 1_455 S
Sc335 O351 2.105 1_455 S
Sc335 O355 2.105 . S
Sc336 O337 2.025 . S
Sc336 O346 2.105 . S
Sc336 O348 2.105 1_455 S
Sc336 O352 2.105 1_455 S
Sc336 O354 2.105 . S
O337 Sc334 2.025 . S
O337 Sc335 2.025 . S
O337 Sc336 2.025 . S
C338 O344 1.268 . S
C338 O354 1.268 . S
C339 O345 1.268 . S
C339 O353 1.268 . S
C340 O346 1.268 . S
C340 O355 1.268 . S
C341 O347 1.268 . S
C341 O351 1.268 . S
C342 O348 1.268 . S
C342 O350 1.268 . S
C343 O349 1.268 . S
C343 O352 1.268 . S
O344 Sc334 2.105 . S
O344 C338 1.268 . S
O345 Sc335 2.105 . S
O345 C339 1.268 . S
O346 Sc336 2.105 . S
O346 C340 1.268 . S
O347 Sc334 2.105 1_655 S
O347 C341 1.268 . S
O348 Sc336 2.105 1_655 S
O348 C342 1.268 . S
O349 Sc335 2.105 1_655 S
O349 C343 1.268 . S
O350 Sc334 2.105 1_655 S
O350 C342 1.268 . S
O351 Sc335 2.105 1_655 S
O351 C341 1.268 . S
O352 Sc336 2.105 1_655 S
O352 C343 1.268 . S
O353 Sc334 2.105 . S
O353 C339 1.268 . S
O354 Sc336 2.105 . S
O354 C338 1.268 . S
O355 Sc335 2.105 . S
O355 C340 1.268 . S
Sc356 O359 2.025 . S
Sc356 O366 2.105 . S
Sc356 O369 2.105 . S
Sc356 O372 2.105 . S
Sc356 O375 2.105 . S
Sc357 O359 2.025 . S
Sc357 O367 2.105 . S
Sc357 O371 2.105 . S
Sc357 O373 2.105 . S
Sc357 O377 2.105 . S
Sc358 O359 2.025 . S
Sc358 O368 2.105 . S
Sc358 O370 2.105 . S
Sc358 O374 2.105 . S
Sc358 O376 2.105 . S
O359 Sc356 2.025 . S
O359 Sc357 2.025 . S
O359 Sc358 2.025 . S
C360 O366 1.268 . S
C360 O376 1.268 . S
C361 O367 1.268 . S
C361 O375 1.268 . S
C362 O368 1.268 . S
C362 O377 1.268 . S
C363 O369 1.268 . S
C363 O373 1.268 . S
C364 O370 1.268 . S
C364 O372 1.268 . S
C365 O371 1.268 . S
C365 O374 1.268 . S
O366 Sc356 2.105 . S
O366 C360 1.268 . S
O367 Sc357 2.105 . S
O367 C361 1.268 . S
O368 Sc358 2.105 . S
O368 C362 1.268 . S
O369 Sc356 2.105 . S
O369 C363 1.268 . S
O370 Sc358 2.105 . S
O370 C364 1.268 . S
O371 Sc357 2.105 . S
O371 C365 1.268 . S
O372 Sc356 2.105 . S
O372 C364 1.268 . S
O373 Sc357 2.105 . S
O373 C363 1.268 . S
O374 Sc358 2.105 . S
O374 C365 1.268 . S
O375 Sc356 2.105 . S
O375 C361 1.268 . S
O376 Sc358 2.105 . S
O376 C360 1.268 . S
O377 Sc357 2.105 . S
O377 C362 1.268 . S
Sc378 O381 2.025 . S
Sc378 O388 2.105 . S
Sc378 O391 2.105 . S
Sc378 O394 2.105 . S
Sc378 O397 2.105 . S
Sc379 O381 2.025 . S
Sc379 O389 2.105 . S
Sc379 O393 2.105 . S
Sc379 O395 2.105 . S
Sc379 O399 2.105 . S
Sc380 O381 2.025 . S
Sc380 O390 2.105 . S
Sc380 O392 2.105 . S
Sc380 O396 2.105 . S
Sc380 O398 2.105 . S
O381 Sc378 2.025 . S
O381 Sc379 2.025 . S
O381 Sc380 2.025 . S
C382 O388 1.268 . S
C382 O398 1.268 . S
C383 O389 1.268 . S
C383 O397 1.268 . S
C384 O390 1.268 . S
C384 O399 1.268 . S
C385 O391 1.268 . S
C385 O395 1.268 . S
C386 O392 1.268 . S
C386 O394 1.268 . S
C387 O393 1.268 . S
C387 O396 1.268 . S
O388 Sc378 2.105 . S
O388 C382 1.268 . S
O389 Sc379 2.105 . S
O389 C383 1.268 . S
O390 Sc380 2.105 . S
O390 C384 1.268 . S
O391 Sc378 2.105 . S
O391 C385 1.268 . S
O392 Sc380 2.105 . S
O392 C386 1.268 . S
O393 Sc379 2.105 . S
O393 C387 1.268 . S
O394 Sc378 2.105 . S
O394 C386 1.268 . S
O395 Sc379 2.105 . S
O395 C385 1.268 . S
O396 Sc380 2.105 . S
O396 C387 1.268 . S
O397 Sc378 2.105 . S
O397 C383 1.268 . S
O398 Sc380 2.105 . S
O398 C382 1.268 . S
O399 Sc379 2.105 . S
O399 C384 1.268 . S
C21 C338 1.748 . S
C316 C60 1.746 . S
C342 C99 1.722 . S
C320 C138 1.736 . S
C382 C177 1.748 . S
C360 C216 1.746 . S
C255 C386 1.722 . S
C364 C294 1.737 . S
C1 C387 2.057 . S
C365 C40 2.055 . S
C79 C384 2.049 . S
C133 C362 2.028 . S
C343 C157 2.057 . S
C196 C321 2.054 . S
C340 C235 2.049 . S
C318 C289 2.029 . S
C361 C16 2.052 . S
C383 C55 2.055 . S
C94 C363 2.062 . S
C385 C118 2.075 . S
C317 C172 2.052 . S
C211 C339 2.055 . S
C250 C319 2.062 . S
C274 C341 2.075 . S
