# Generated by pormake.
# Topology pth, (4,4)-cn, num edge types: 1
# Building blocks:
#     Node 0, Type 0, BuildingBlock: UXUYUI_clean_sbu_0, # of connection points: 4
#     Node 1, Type 0, BuildingBlock: UXUYUI_clean_sbu_0, # of connection points: 4
#     Node 2, Type 0, BuildingBlock: UXUYUI_clean_sbu_0, # of connection points: 4
#     Node 3, Type 1, BuildingBlock: MIFKUJ_clean_linker_1, # of connection points: 4
#     Node 4, Type 1, BuildingBlock: MIFKUJ_clean_linker_1, # of connection points: 4
#     Node 5, Type 1, BuildingBlock: MIFKUJ_clean_linker_1, # of connection points: 4
#     Edge 6, Type (0, 1), BuildingBlock: UVAHIK_clean_linker_0, # of connection points: 2
#     Edge 7, Type (0, 1), BuildingBlock: UVAHIK_clean_linker_0, # of connection points: 2
#     Edge 8, Type (0, 1), BuildingBlock: UVAHIK_clean_linker_0, # of connection points: 2
#     Edge 9, Type (0, 1), BuildingBlock: UVAHIK_clean_linker_0, # of connection points: 2
#     Edge 10, Type (0, 1), BuildingBlock: UVAHIK_clean_linker_0, # of connection points: 2
#     Edge 11, Type (0, 1), BuildingBlock: UVAHIK_clean_linker_0, # of connection points: 2
#     Edge 12, Type (0, 1), BuildingBlock: UVAHIK_clean_linker_0, # of connection points: 2
#     Edge 13, Type (0, 1), BuildingBlock: UVAHIK_clean_linker_0, # of connection points: 2
#     Edge 14, Type (0, 1), BuildingBlock: UVAHIK_clean_linker_0, # of connection points: 2
#     Edge 15, Type (0, 1), BuildingBlock: UVAHIK_clean_linker_0, # of connection points: 2
#     Edge 16, Type (0, 1), BuildingBlock: UVAHIK_clean_linker_0, # of connection points: 2
#     Edge 17, Type (0, 1), BuildingBlock: UVAHIK_clean_linker_0, # of connection points: 2
# Relax obj value: 0.075
# Max RMSD: 0.209
# Mean RMSD: 0.121
data_MOF--net-pth--node1-UXUYUI_clean_sbu_0--node2-MIFKUJ_clean_linker_1--edge1-UVAHIK_clean_linker_0
_symmetry_space_group_name_H-M    P1
_symmetry_Int_Tables_number       1
_symmetry_cell_setting            triclinic
loop_
_symmetry_equiv_pos_as_xyz
'x, y, z'
_cell_length_a     42.402922
_cell_length_b     42.356724
_cell_length_c     91.588971
_cell_angle_alpha  90.058986
_cell_angle_beta   89.907793
_cell_angle_gamma 120.04718
loop_
_atom_site_label
_atom_site_type_symbol
_atom_site_fract_x
_atom_site_fract_y
_atom_site_fract_z
_atom_type_partial_charge
Li0 Li 0.03197 0.02186 0.03144 0.0
Li1 Li 0.98657 0.02206 0.04746 0.0
Li2 Li 0.00566 0.9766 0.05119 0.0
Li3 Li 0.96772 0.97212 0.03079 0.0
C4 C 0.06954 0.04012 0.0579 0.0
N5 N 0.1377 0.05881 0.06846 0.0
C6 C 0.08425 0.06408 0.0697 0.0
C7 C 0.08951 0.0257 0.05145 0.0
C8 C 0.11876 0.07319 0.07488 0.0
C9 C 0.12391 0.03546 0.05696 0.0
C10 C 0.97785 0.04893 0.02242 0.0
C11 C 0.93114 0.06363 0.01675 0.0
N12 N 0.95692 0.09956 0.01603 0.0
C13 C 0.00393 0.08594 0.0214 0.0
C14 C 0.9412 0.03761 0.01989 0.0
C15 C 0.99279 0.11114 0.01826 0.0
C16 C 0.08059 0.04094 0.00756 0.0
N17 N 0.07372 0.05288 0.02028 0.0
C18 C 0.12392 0.1128 0.01631 0.0
C19 C 0.0949 0.08784 0.02487 0.0
C20 C 0.13137 0.10161 0.00291 0.0
C21 C 0.10959 0.06492 -0.00131 0.0
H22 H 0.06303 0.01303 0.00415 0.0
H23 H 0.08845 0.09663 0.03498 0.0
C24 C 0.9449 0.04478 0.06478 0.0
N25 N 0.97634 0.0553 0.0573 0.0
C26 C 0.94023 0.07042 0.07266 0.0
C27 C 0.00029 0.11704 0.06493 0.0
C28 C 0.00387 0.09052 0.05732 0.0
C29 C 0.96825 0.10707 0.07283 0.0
H30 H 0.92381 0.01647 0.06494 0.0
H31 H 0.02899 0.09786 0.05162 0.0
C32 C 0.00439 0.9332 0.02715 0.0
N33 N 0.98683 0.86256 0.02054 0.0
C34 C 0.97917 0.90415 0.03569 0.0
C35 C 0.02076 0.92632 0.01526 0.0
C36 C 0.97063 0.86865 0.03218 0.0
C37 C 0.01151 0.89042 0.01209 0.0
C38 C 0.91958 0.94566 0.05363 0.0
C39 C 0.90771 0.91265 0.06098 0.0
C40 C 0.89394 0.95376 0.04789 0.0
C41 C 0.87037 0.88815 0.06229 0.0
C42 C 0.85685 0.92854 0.04942 0.0
N43 N 0.84593 0.89651 0.05651 0.0
C44 C -0.00265 0.94538 0.07863 0.0
C45 C 0.03763 0.93693 0.06327 0.0
C46 C 2e-05 0.92366 0.08942 0.0
N47 N 0.01531 0.9508 0.06576 0.0
C48 C 0.04139 0.91529 0.07384 0.0
C49 C 0.02178 0.90783 0.08698 0.0
H50 H 0.98011 0.95713 0.08032 0.0
H51 H 0.05168 0.94179 0.05294 0.0
C52 C 0.92985 0.95253 0.00422 0.0
N53 N 0.93064 0.93948 0.01769 0.0
C54 C 0.90405 0.93001 0.99394 0.0
C55 C 0.88058 0.8809 0.01152 0.0
C56 C 0.90688 0.9043 0.02142 0.0
C57 C 0.87891 0.89369 -0.00243 0.0
H58 H 0.94941 0.98046 0.00144 0.0
H59 H 0.90843 0.89409 0.03201 0.0
O60 O 0.03576 0.03099 0.05276 0.0
O61 O 0.98821 0.02389 0.02567 0.0
O62 O 0.01316 0.96823 0.03037 0.0
O63 O 0.95607 0.96987 0.05211 0.0
H64 H 0.06911 0.0755 0.07478 0.0
H65 H 0.07863 0.00718 0.0423 0.0
H66 H 0.13048 0.0917 0.08401 0.0
H67 H 0.13964 0.02448 0.05208 0.0
H68 H 0.90284 0.05524 0.01484 0.0
H69 H 0.03243 0.09519 0.02318 0.0
H70 H 0.92074 0.00902 0.02023 0.0
H71 H 0.01267 0.13991 0.01759 0.0
H72 H 0.13942 0.14087 0.01992 0.0
H73 H 0.11456 0.05491 0.98857 0.0
H74 H 0.91514 0.06166 0.07865 0.0
H75 H 0.02286 0.14483 0.06503 0.0
H76 H 0.96622 0.90894 0.04491 0.0
H77 H 0.04043 0.94846 0.00854 0.0
H78 H 0.95109 0.84593 0.0387 0.0
H79 H 0.02396 0.88471 0.0029 0.0
H80 H 0.92704 0.90581 0.06552 0.0
H81 H 0.90259 0.97926 0.04233 0.0
H82 H 0.86084 0.86244 0.06787 0.0
H83 H 0.83676 0.93445 0.04496 0.0
H84 H 0.98486 0.9189 0.09949 0.0
H85 H 0.05827 0.90338 0.07153 0.0
H86 H 0.9036 0.94099 0.98331 0.0
H87 H 0.86219 0.85288 0.01467 0.0
Li88 Li 0.98484 0.96368 0.36184 0.0
Li89 Li 0.02989 0.00492 0.37944 0.0
Li90 Li 0.96579 0.99248 0.37968 0.0
Li91 Li 0.0077 0.03115 0.36067 0.0
C92 C 0.97257 0.9225 0.38573 0.0
N93 N 0.94966 0.84949 0.38971 0.0
C94 C -0.00352 0.91196 0.3914 0.0
C95 C 0.93687 0.89594 0.38226 0.0
C96 C 0.98442 0.8749 0.3933 0.0
C97 C 0.92585 0.85916 0.3843 0.0
C98 C 0.06827 0.0173 0.35174 0.0
C99 C 0.12557 0.06719 0.34328 0.0
N100 N 0.13574 0.04296 0.33881 0.0
C101 C 0.07909 0.99289 0.34683 0.0
C102 C 0.09151 0.05475 0.34977 0.0
C103 C 0.11338 0.00639 0.34042 0.0
C104 C 0.9476 0.91266 0.33924 0.0
N105 N 0.97223 0.92193 0.35022 0.0
C106 C 0.98331 0.87373 0.34374 0.0
C107 C 0.99004 0.90322 0.35259 0.0
C108 C 0.95848 0.86383 0.33217 0.0
C109 C 0.94034 0.88355 0.32998 0.0
H110 H 0.93421 0.92836 0.3375 0.0
H111 H 0.01017 0.91176 0.36116 0.0
C112 C 0.07475 0.02744 0.4045 0.0
N113 N 0.06955 0.01139 0.39118 0.0
C114 C 0.10199 0.02984 0.41376 0.0
C115 C 0.11774 -0.00113 0.39546 0.0
C116 C 0.09033 0.9972 0.38655 0.0
C117 C 0.12364 0.01506 0.40933 0.0
H118 H 0.05717 0.03763 0.40807 0.0
H119 H 0.08483 0.98349 0.37615 0.0
C120 C 0.92383 0.98624 0.35715 0.0
N121 N 0.85606 0.98042 0.35559 0.0
C122 C 0.9209 0.01714 0.35443 0.0
C123 C 0.89232 0.95233 0.35889 0.0
C124 C 0.88638 0.01364 0.35373 0.0
C125 C 0.8583 0.94997 0.35813 0.0
C126 C 0.03492 0.075 0.38652 0.0
C127 C 0.02148 0.0946 0.394 0.0
C128 C 0.07226 0.0913 0.38374 0.0
C129 C 0.04558 0.13041 0.39836 0.0
C130 C 0.09549 0.12714 0.38829 0.0
N131 N 0.08177 0.14582 0.39542 0.0
C132 C 0.90886 0.95863 0.40073 0.0
C133 C 0.92006 0.01561 0.39151 0.0
C134 C 0.88158 0.95658 0.40993 0.0
N135 N 0.92741 0.98788 0.3918 0.0
C136 C 0.89304 0.01468 0.40049 0.0
C137 C 0.87357 0.98502 0.40996 0.0
H138 H 0.91562 0.93721 0.40089 0.0
H139 H 0.9354 0.03861 0.38435 0.0
C140 C 0.01492 0.06037 0.33304 0.0
N141 N 0.01846 0.06966 0.34739 0.0
C142 C 0.01824 0.08533 0.32236 0.0
C143 C 0.03005 0.12943 0.34142 0.0
C144 C 0.02613 0.10348 0.35174 0.0
C145 C 0.02545 0.12022 0.32654 0.0
H146 H 0.00847 0.03313 0.32994 0.0
H147 H 0.02801 0.11009 0.36318 0.0
O148 O 0.98404 0.95865 0.38363 0.0
O149 O 0.03452 0.00444 0.35787 0.0
O150 O 0.95739 0.9892 0.3581 0.0
O151 O 0.01159 0.03992 0.38217 0.0
H152 H 0.02409 0.93214 0.39427 0.0
H153 H 0.91799 0.90363 0.37793 0.0
H154 H 0.00269 0.86634 0.39761 0.0
H155 H 0.89838 0.83831 0.38156 0.0
H156 H 0.14384 0.09611 0.34175 0.0
H157 H 0.06133 0.96382 0.34806 0.0
H158 H 0.08331 0.07409 0.35304 0.0
H159 H 0.12218 0.98779 0.33669 0.0
H160 H -0.00165 0.85965 0.34561 0.0
H161 H 0.92099 0.87668 0.32116 0.0
H162 H 0.10524 0.04201 0.42446 0.0
H163 H 0.1339 0.98725 0.3916 0.0
H164 H 0.945 0.0436 0.35305 0.0
H165 H 0.8941 0.9281 0.36084 0.0
H166 H 0.8837 0.03736 0.35173 0.0
H167 H 0.83368 0.92392 0.35954 0.0
H168 H 0.99273 0.08234 0.39639 0.0
H169 H 0.0833 0.0763 0.37833 0.0
H170 H 0.03551 0.14594 0.40409 0.0
H171 H 0.12444 0.14005 0.3862 0.0
H172 H 0.86755 0.93344 0.41719 0.0
H173 H 0.88744 0.03695 0.39999 0.0
H174 H 0.01469 0.07729 0.31098 0.0
H175 H 0.03506 0.15587 0.34509 0.0
Li176 Li 0.02416 0.99495 0.69975 0.0
Li177 Li 0.01612 0.03231 0.71825 0.0
Li178 Li 0.97454 0.96501 0.71712 0.0
Li179 Li 0.96978 0.00418 0.69885 0.0
C180 C 0.05745 0.99003 0.72447 0.0
N181 N 0.11864 0.98525 0.73076 0.0
C182 C 0.08966 0.02104 0.72885 0.0
C183 C 0.05629 0.95655 0.72342 0.0
C184 C 0.12032 0.01806 0.73195 0.0
C185 C 0.08754 0.95471 0.7266 0.0
C186 C 0.04254 0.07665 0.69279 0.0
C187 C 0.04633 0.13358 0.68614 0.0
N188 N 0.08304 0.14908 0.68462 0.0
C189 C 0.08029 0.09314 0.69111 0.0
C190 C 0.02539 0.09701 0.69024 0.0
C191 C 0.10029 0.12978 0.68699 0.0
C192 C 0.04658 0.96752 0.6763 0.0
N193 N 0.05877 0.99048 0.68795 0.0
C194 C 0.12053 0.00952 0.68181 0.0
C195 C 0.09495 0.01129 0.69082 0.0
C196 C 0.10885 0.98641 0.66958 0.0
C197 C 0.07126 0.96496 0.66694 0.0
H198 H 0.0177 0.95172 0.67409 0.0
H199 H 0.10412 0.02983 0.69996 0.0
C200 C 0.04033 0.05912 0.74583 0.0
N201 N 0.04097 0.07091 0.73198 0.0
C202 C 0.06132 0.08372 0.75672 0.0
C203 C 0.08166 0.13256 0.73912 0.0
C204 C 0.06033 0.10697 0.72855 0.0
C205 C 0.08306 0.12088 0.75333 0.0
H206 H 0.02456 0.03029 0.74826 0.0
H207 H 0.06024 0.116 0.71758 0.0
C208 C 0.95112 0.92229 0.69365 0.0
N209 N 0.90793 0.84768 0.69045 0.0
C210 C 0.91496 0.90719 0.6891 0.0
C211 C 0.96548 0.89952 0.69635 0.0
C212 C 0.89351 0.86938 0.68761 0.0
C213 C 0.94317 0.86185 0.69473 0.0
C214 C 0.94274 0.02041 0.72393 0.0
C215 C 0.90796 0.0 0.73 0.0
C216 C 0.95752 0.05781 0.72169 0.0
C217 C 0.88832 0.01735 0.73357 0.0
C218 C 0.93706 0.07418 0.72541 0.0
N219 N 0.90315 0.05377 0.73121 0.0
C220 C 0.96046 0.91301 0.73945 0.0
C221 C 0.90886 0.90579 0.72651 0.0
C222 C 0.93819 0.88395 0.74866 0.0
N223 N 0.94545 0.92325 0.72867 0.0
C224 C 0.88566 0.87638 0.73531 0.0
C225 C 0.90026 0.86538 0.74665 0.0
H226 H 0.98958 0.92796 0.74115 0.0
H227 H 0.89764 0.91535 0.71817 0.0
C228 C 0.94725 0.02628 0.6736 0.0
N229 N 0.93611 0.00812 0.6865 0.0
C230 C 0.92201 0.02755 0.6642 0.0
C231 C 0.87424 0.9904 0.68135 0.0
C232 C 0.90044 0.99025 0.69048 0.0
C233 C 0.88495 0.00917 0.66801 0.0
H234 H 0.97566 0.03929 0.6705 0.0
H235 H 0.89222 0.97509 0.70059 0.0
O236 O 0.02709 0.99236 0.72143 0.0
O237 O 0.02248 0.04067 0.69667 0.0
O238 O 0.97239 0.9592 0.6954 0.0
O239 O 0.96215 0.00372 0.72027 0.0
H240 H 0.09124 0.04726 0.72962 0.0
H241 H 0.03152 0.9322 0.72023 0.0
H242 H 0.14548 0.04187 0.73526 0.0
H243 H 0.08704 0.92898 0.72579 0.0
H244 H 0.0334 0.14964 0.68418 0.0
H245 H 0.09407 0.07794 0.69303 0.0
H246 H -0.00376 0.08485 0.69149 0.0
H247 H 0.12953 0.14288 0.6857 0.0
H248 H 0.1492 0.02625 0.68438 0.0
H249 H 0.06103 0.94717 0.65752 0.0
H250 H 0.06118 0.07363 0.7676 0.0
H251 H 0.09815 0.16093 0.73601 0.0
H252 H 0.90348 0.92443 0.68686 0.0
H253 H 0.99356 0.91083 0.69965 0.0
H254 H 0.8654 0.85729 0.6842 0.0
H255 H 0.95388 0.84388 0.69686 0.0
H256 H 0.89619 0.97102 0.73185 0.0
H257 H 0.98451 0.07404 0.71717 0.0
H258 H 0.8613 0.00187 0.7382 0.0
H259 H 0.94815 0.10311 0.7237 0.0
H260 H 0.95042 0.87629 0.75731 0.0
H261 H 0.85651 0.86325 0.73361 0.0
H262 H 0.93119 0.04181 0.65388 0.0
H263 H 0.8459 0.97591 0.68466 0.0
H264 H 0.04539 0.47703 0.17591 0.0
H265 H 0.04149 0.42919 0.15973 0.0
H266 H 0.94001 0.35139 0.18025 0.0
H267 H 0.94436 0.39916 0.19645 0.0
H268 H 0.00064 0.50402 0.1785 0.0
H269 H 0.04967 0.45263 0.21102 0.0
H270 H 0.05464 0.40486 0.22406 0.0
H271 H 0.94934 0.36829 0.24379 0.0
H272 H 0.94451 0.41622 0.23072 0.0
H273 H 0.93811 0.51018 0.23304 0.0
H274 H 0.93067 0.55387 0.24799 0.0
H275 H 0.03196 0.64145 0.23102 0.0
H276 H 0.03969 0.59751 0.21627 0.0
H277 H 0.98938 0.49081 0.23237 0.0
H278 H 0.94805 0.55291 0.19942 0.0
H279 H 0.95355 0.60688 0.18741 0.0
H280 H 0.05448 0.6271 0.16741 0.0
H281 H 0.04992 0.57454 0.18019 0.0
C282 C -0.00463 0.44157 0.18747 0.0
C283 C 0.02242 0.44961 0.17694 0.0
C284 C 0.02005 0.42228 0.16767 0.0
C285 C 0.99042 0.38646 0.1687 0.0
C286 C 0.96349 0.37852 0.17932 0.0
C287 C 0.96591 0.40582 0.18859 0.0
C288 C -0.00311 0.47074 0.1969 0.0
C289 C -0.00126 0.50146 0.1903 0.0
C290 C 0.99427 0.46731 0.21225 0.0
C291 C -0.00335 0.43779 0.21988 0.0
C292 C 0.02757 0.43417 0.21809 0.0
C293 C 0.03048 0.40707 0.22559 0.0
C294 C 0.00237 0.38295 0.23491 0.0
C295 C 0.97124 0.38636 0.23657 0.0
C296 C 0.96855 0.41379 0.2292 0.0
C297 C 0.98921 0.55062 0.2234 0.0
C298 C 0.95891 0.53874 0.23264 0.0
C299 C 0.95467 0.56369 0.24117 0.0
C300 C 0.98063 0.60104 0.24059 0.0
C301 C 0.01129 0.61287 0.23151 0.0
C302 C 0.01572 0.58782 0.2231 0.0
C303 C 0.99249 0.52394 0.21397 0.0
C304 C 0.99142 0.49354 0.22058 0.0
C305 C -0.00326 0.52824 0.19862 0.0
C306 C -0.00111 0.56003 0.1909 0.0
C307 C 0.97158 0.56927 0.19259 0.0
C308 C 0.97458 0.59994 0.18557 0.0
C309 C 0.00459 0.62155 0.17648 0.0
C310 C 0.03142 0.61164 0.17457 0.0
C311 C 0.02863 0.58128 0.18173 0.0
H312 H 0.56891 0.04642 0.511 0.0
H313 H 0.61459 0.04346 0.49568 0.0
H314 H 0.58956 0.94151 0.51607 0.0
H315 H 0.54404 0.94476 0.53143 0.0
H316 H 0.49783 0.00203 0.51207 0.0
H317 H 0.59616 0.04311 0.54515 0.0
H318 H 0.64473 0.04476 0.56009 0.0
H319 H 0.56543 0.94822 0.58297 0.0
H320 H 0.51699 0.946 0.56777 0.0
H321 H 0.42106 0.94124 0.56578 0.0
H322 H 0.3724 0.9391 0.5808 0.0
H323 H 0.39292 0.04142 0.56215 0.0
H324 H 0.44259 0.04411 0.54761 0.0
H325 H 0.49244 0.99011 0.566 0.0
H326 H 0.39496 0.9481 0.53022 0.0
H327 H 0.34808 0.95128 0.51578 0.0
H328 H 0.42951 0.05597 0.49876 0.0
H329 H 0.47604 0.05295 0.51345 0.0
C330 C 0.55324 0.99595 0.52242 0.0
C331 C 0.57333 0.02347 0.51219 0.0
C332 C 0.59931 0.02166 0.5034 0.0
C333 C 0.6056 0.99217 0.50463 0.0
C334 C 0.58569 0.9648 0.51499 0.0
C335 C 0.55966 0.96662 0.52377 0.0
C336 C 0.52451 0.99715 0.53123 0.0
C337 C 0.49696 -0.00011 0.52389 0.0
C338 C 0.52312 0.99396 0.54663 0.0
C339 C 0.5529 0.99418 0.55521 0.0
C340 C 0.58927 0.02184 0.55317 0.0
C341 C 0.617 0.02286 0.56174 0.0
C342 C 0.60877 0.99666 0.57269 0.0
C343 C 0.57244 0.96895 0.57469 0.0
C344 C 0.54479 0.96766 0.56601 0.0
C345 C 0.43527 0.99267 0.55549 0.0
C346 C 0.41508 0.96322 0.56494 0.0
C347 C 0.38703 0.96187 0.57341 0.0
C348 C 0.37866 0.99002 0.57263 0.0
C349 C 0.39888 0.01946 0.56311 0.0
C350 C 0.42703 0.02085 0.55467 0.0
C351 C 0.46552 0.99418 0.5468 0.0
C352 C 0.49339 0.99212 0.55418 0.0
C353 C 0.46752 -0.00155 0.53147 0.0
C354 C 0.43889 0.00041 0.52297 0.0
C355 C 0.40258 0.97187 0.52348 0.0
C356 C 0.37592 0.97361 0.51516 0.0
C357 C 0.38513 0.00391 0.50615 0.0
C358 C 0.42149 0.03251 0.50573 0.0
C359 C 0.44814 0.03069 0.51402 0.0
H360 H 0.46517 0.42183 0.84567 0.0
H361 H 0.41242 0.37481 0.83236 0.0
H362 H 0.34314 0.40782 0.85418 0.0
H363 H 0.39601 0.45504 0.86732 0.0
H364 H 0.49604 0.49486 0.84587 0.0
H365 H 0.44269 0.39922 0.87933 0.0
H366 H 0.3975 0.35043 0.89473 0.0
H367 H 0.38299 0.42934 0.91927 0.0
H368 H 0.42751 0.47815 0.90355 0.0
H369 H 0.51802 0.57657 0.89768 0.0
H370 H 0.56562 0.62767 0.91138 0.0
H371 H 0.64545 0.60178 0.89473 0.0
H372 H 0.59754 0.55063 0.88096 0.0
H373 H 0.4958 0.50365 0.89987 0.0
H374 H 0.55453 0.60005 0.86335 0.0
H375 H 0.60699 0.64381 0.84892 0.0
H376 H 0.61796 0.5554 0.83103 0.0
H377 H 0.56604 0.51184 0.84567 0.0
C378 C 0.43443 0.44173 0.85754 0.0
C379 C 0.43862 0.41896 0.84754 0.0
C380 C 0.40846 0.39198 0.84004 0.0
C381 C 0.37369 0.38763 0.84227 0.0
C382 C 0.36965 0.41073 0.85217 0.0
C383 C 0.39976 0.43751 0.85975 0.0
C384 C 0.46628 0.47012 0.86562 0.0
C385 C 0.49617 0.49658 0.85769 0.0
C386 C 0.46653 0.4721 0.88104 0.0
C387 C 0.43815 0.44237 0.89012 0.0
C388 C 0.42925 0.40602 0.88781 0.0
C389 C 0.40353 0.37815 0.89664 0.0
C390 C 0.38676 0.38616 0.90815 0.0
C391 C 0.39573 0.4225 0.91052 0.0
C392 C 0.42111 0.45035 0.90155 0.0
C393 C 0.55429 0.55997 0.88825 0.0
C394 C 0.54577 0.58187 0.89701 0.0
C395 C 0.57298 0.61099 0.90485 0.0
C396 C 0.60928 0.6187 0.90415 0.0
C397 C 0.61781 0.59678 0.89534 0.0
C398 C 0.59049 0.56752 0.8875 0.0
C399 C 0.52491 0.52905 0.8801 0.0
C400 C 0.49551 0.50197 0.88805 0.0
C401 C 0.52567 0.52593 0.86473 0.0
C402 C 0.55666 0.5527 0.85573 0.0
C403 C 0.56845 0.59013 0.85643 0.0
C404 C 0.59839 0.61509 0.84819 0.0
C405 C 0.61658 0.60297 0.8389 0.0
C406 C 0.60428 0.56546 0.83801 0.0
C407 C 0.57464 0.54058 0.84637 0.0
C408 C 0.95221 0.12647 0.09622 0.0
C409 C 0.96521 0.13456 0.08181 0.0
C410 C 0.95249 0.15339 0.10513 0.0
C411 C -0.00079 0.25342 0.10895 0.0
H412 H 0.92274 0.23228 0.13711 0.0
C413 C -0.00414 0.36548 0.14366 0.0
C414 C 0.9871 0.35763 0.15852 0.0
C415 C 0.99205 0.33821 0.13403 0.0
C416 C 0.94443 0.23849 0.12937 0.0
H417 H 0.98699 0.17662 0.06518 0.0
H418 H 0.98704 0.22354 0.08066 0.0
H419 H 0.91672 0.1845 0.12047 0.0
H420 H 0.96804 0.31507 0.17495 0.0
H421 H 0.96121 0.26744 0.15809 0.0
H422 H 0.02691 0.30736 0.11786 0.0
C423 C 0.97744 0.19664 0.0852 0.0
C424 C 0.941 0.21115 0.11985 0.0
C425 C 0.97732 0.16977 0.07632 0.0
C426 C 0.97451 0.3219 0.16353 0.0
C427 C 0.97057 0.2946 0.15387 0.0
C428 C 0.00257 0.28076 0.11843 0.0
C429 C 0.96563 0.18895 0.09979 0.0
C430 C 0.96844 0.21825 0.10957 0.0
C431 C 0.97928 0.30247 0.13902 0.0
C432 C 0.97531 0.27355 0.12879 0.0
H433 H 0.94314 0.0997 0.1008 0.0
H434 H 0.94362 0.14666 0.11636 0.0
H435 H 0.02118 0.25965 0.10136 0.0
H436 H 0.00503 0.39256 0.1394 0.0
H437 H -0.00147 0.34498 0.1226 0.0
C438 C 0.85204 0.01632 0.42717 0.0
C439 C 0.8457 0.98431 0.42 0.0
C440 C 0.82574 0.01605 0.43642 0.0
C441 C 0.74464 0.95546 0.4583 0.0
H442 H 0.72617 0.03621 0.45593 0.0
C443 C 0.65602 0.97836 0.50038 0.0
C444 C 0.63233 0.9897 0.49491 0.0
C445 C 0.68142 0.97648 0.49121 0.0
C446 C 0.7308 0.01333 0.45665 0.0
H447 H 0.80675 0.92685 0.41697 0.0
H448 H 0.76071 0.92637 0.43318 0.0
H449 H 0.77134 0.0349 0.43988 0.0
H450 H 0.61597 0.00687 0.47543 0.0
H451 H 0.6603 0.0037 0.45946 0.0
H452 H 0.70365 0.93369 0.47496 0.0
C453 C 0.78625 0.95159 0.43173 0.0
C454 C 0.75697 0.01278 0.44757 0.0
C455 C 0.8126 0.95187 0.42245 0.0
C456 C 0.63432 -0.00128 0.48005 0.0
C457 C 0.65968 0.99687 0.47089 0.0
C458 C 0.71847 0.95606 0.46742 0.0
C459 C 0.79246 0.98376 0.43874 0.0
C460 C 0.76426 0.98391 0.44831 0.0
C461 C 0.68366 0.98592 0.47638 0.0
C462 C 0.71128 0.98502 0.46669 0.0
H463 H 0.87755 0.04159 0.42576 0.0
H464 H 0.83162 0.04112 0.44187 0.0
H465 H 0.74985 0.93298 0.4592 0.0
H466 H 0.65542 0.9716 0.51182 0.0
H467 H 0.69982 0.96838 0.4958 0.0
C468 C 0.88036 0.84108 0.77195 0.0
C469 C 0.87568 0.83604 0.75678 0.0
C470 C 0.85519 0.81488 0.78153 0.0
C471 C 0.78275 0.71881 0.78428 0.0
H472 H 0.74343 0.75389 0.81437 0.0
C473 C 0.65077 0.62237 0.81526 0.0
C474 C 0.6482 0.62929 0.83008 0.0
C475 C 0.6805 0.64713 0.80691 0.0
C476 C 0.7545 0.74359 0.80622 0.0
H477 H 0.842 0.79909 0.73971 0.0
H478 H 0.79809 0.75315 0.75645 0.0
H479 H 0.79289 0.79744 0.79889 0.0
H480 H 0.675 0.66711 0.84789 0.0
H481 H 0.72735 0.71014 0.83339 0.0
H482 H 0.74454 0.66498 0.7916 0.0
C483 C 0.82116 0.77737 0.76094 0.0
C484 C 0.78282 0.76859 0.79733 0.0
C485 C 0.84609 0.80374 0.75137 0.0
C486 C 0.67608 0.66135 0.83643 0.0
C487 C 0.70601 0.68599 0.8281 0.0
C488 C 0.75465 0.6938 0.79326 0.0
C489 C 0.82512 0.78297 0.7761 0.0
C490 C 0.79691 0.75643 0.78616 0.0
C491 C 0.70854 0.67925 0.81322 0.0
C492 C 0.73984 0.70587 0.80421 0.0
H493 H 0.90277 0.86587 0.77642 0.0
H494 H 0.85902 0.81974 0.79317 0.0
H495 H 0.79342 0.70873 0.77587 0.0
H496 H 0.62942 0.59808 0.81005 0.0
H497 H 0.68112 0.64137 0.79542 0.0
C498 C 0.98946 0.8543 0.10365 0.0
C499 C 0.02229 0.88199 0.09772 0.0
C500 C 0.9894 0.82882 0.1133 0.0
C501 C 0.04559 0.78893 0.12485 0.0
H502 H 0.97445 0.74885 0.15615 0.0
C503 C 0.04206 0.68557 0.16694 0.0
C504 C 0.0078 0.65404 0.16886 0.0
C505 C 0.04528 0.7155 0.15924 0.0
C506 C 0.99439 0.75977 0.14742 0.0
H507 H 0.08088 0.90532 0.09748 0.0
H508 H 0.08099 0.86129 0.11467 0.0
H509 H 0.97828 0.79823 0.14117 0.0
H510 H 0.95002 0.6296 0.16423 0.0
H511 H 0.95567 0.68226 0.15114 0.0
H512 H 0.06182 0.75053 0.13128 0.0
C513 C 0.05516 0.85873 0.1116 0.0
C514 C -0.00347 0.78795 0.1388 0.0
C515 C 0.05516 0.88403 0.1018 0.0
C516 C 0.97676 0.65357 0.16318 0.0
C517 C 0.97996 0.68368 0.15563 0.0
C518 C 0.04372 0.76104 0.1336 0.0
C519 C 0.02222 0.83061 0.11738 0.0
C520 C 0.02177 0.80251 0.12725 0.0
C521 C 0.01428 0.71476 0.15347 0.0
C522 C 0.01776 0.74586 0.14483 0.0
H523 H 0.96365 0.85172 0.1005 0.0
H524 H 0.96345 0.80715 0.11725 0.0
H525 H 0.06498 0.79902 0.11594 0.0
H526 H 0.06646 0.68724 0.17142 0.0
H527 H 0.07202 0.73933 0.15786 0.0
C528 C 0.15432 0.98373 0.42066 0.0
C529 C 0.15111 0.01504 0.41932 0.0
C530 C 0.17978 0.98332 0.43018 0.0
C531 C 0.23575 0.0296 0.46258 0.0
H532 H 0.28919 0.98179 0.45049 0.0
C533 C 0.35601 0.03772 0.49555 0.0
C534 C 0.35721 0.00528 0.49688 0.0
C535 C 0.33061 0.03935 0.48634 0.0
C536 C 0.2742 0.99492 0.45408 0.0
H537 H 0.17228 0.0706 0.42683 0.0
H538 H 0.21707 0.07002 0.4434 0.0
H539 H 0.24601 0.98445 0.43374 0.0
H540 H 0.33268 0.9491 0.48966 0.0
H541 H 0.28809 0.95182 0.47371 0.0
H542 H 0.26422 0.0402 0.48291 0.0
C543 C 0.19948 0.04559 0.43724 0.0
C544 C 0.24946 0.99645 0.44449 0.0
C545 C 0.1739 0.04596 0.42774 0.0
C546 C 0.33221 0.97439 0.48896 0.0
C547 C 0.30696 0.97607 0.47971 0.0
C548 C 0.26063 0.02817 0.47216 0.0
C549 C 0.20272 0.01425 0.43856 0.0
C550 C 0.22977 0.0136 0.44865 0.0
C551 C 0.30605 0.00862 0.47822 0.0
C552 C 0.27994 0.01062 0.46804 0.0
H553 H 0.13667 0.95923 0.41455 0.0
H554 H 0.18106 0.9585 0.43114 0.0
H555 H 0.22067 0.04259 0.46619 0.0
H556 H 0.37473 0.06187 0.50162 0.0
H557 H 0.33071 0.06488 0.48535 0.0
C558 C 0.13011 0.13677 0.77275 0.0
C559 C 0.10907 0.14683 0.76419 0.0
C560 C 0.15676 0.16191 0.78214 0.0
C561 C 0.18792 0.24896 0.80139 0.0
H562 H 0.28226 0.25515 0.79975 0.0
C563 C 0.31681 0.36746 0.82767 0.0
C564 C 0.34176 0.35922 0.83422 0.0
C565 C 0.28719 0.3409 0.81977 0.0
C566 C 0.25597 0.25345 0.80053 0.0
H567 H 0.09865 0.19078 0.75913 0.0
H568 H 0.14554 0.2349 0.77552 0.0
H569 H 0.23224 0.20973 0.7851 0.0
H570 H 0.35473 0.31652 0.83804 0.0
H571 H 0.30277 0.26995 0.82445 0.0
H572 H 0.21165 0.29265 0.81687 0.0
C573 C 0.14123 0.20747 0.77498 0.0
C574 C 0.22731 0.22744 0.79211 0.0
C575 C 0.11463 0.18233 0.76551 0.0
C576 C 0.33623 0.32377 0.83291 0.0
C577 C 0.30649 0.29714 0.8251 0.0
C578 C 0.21657 0.27489 0.8099 0.0
C579 C 0.16295 0.19765 0.78321 0.0
C580 C 0.19301 0.22494 0.79242 0.0
C581 C 0.28177 0.30546 0.81834 0.0
C582 C 0.25098 0.2775 0.80954 0.0
H583 H 0.12681 0.10978 0.77186 0.0
H584 H 0.17281 0.15345 0.78847 0.0
H585 H 0.16166 0.2474 0.80195 0.0
H586 H 0.32064 0.39469 0.82837 0.0
H587 H 0.26902 0.3484 0.81452 0.0
C588 C 0.8255 0.97553 0.65484 0.0
C589 C 0.85737 0.00854 0.65794 0.0
C590 C 0.79933 0.97472 0.64539 0.0
C591 C 0.7855 0.02858 0.61672 0.0
H592 H 0.68362 0.96239 0.62545 0.0
C593 C 0.67071 0.00414 0.57639 0.0
C594 C 0.63781 -0.00122 0.58229 0.0
C595 C 0.6979 0.00581 0.58552 0.0
C596 C 0.71191 0.98136 0.62291 0.0
H597 H 0.88689 0.06664 0.65368 0.0
H598 H 0.84071 0.06553 0.63744 0.0
H599 H 0.7301 0.96531 0.64172 0.0
H600 H 0.60786 0.99208 0.60233 0.0
H601 H 0.65551 0.9959 0.6183 0.0
H602 H 0.76715 0.04564 0.5982 0.0
C603 C 0.83626 0.04006 0.64203 0.0
C604 C 0.73866 0.98262 0.63215 0.0
C605 C 0.86265 0.04077 0.65137 0.0
C606 C 0.63276 0.99563 0.59748 0.0
C607 C 0.66005 -0.00229 0.60662 0.0
C608 C 0.7587 0.02757 0.60755 0.0
C609 C 0.80421 0.00701 0.63894 0.0
C610 C 0.77581 0.00612 0.62915 0.0
C611 C 0.69289 0.00257 0.60075 0.0
C612 C 0.72155 0.00388 0.61051 0.0
H613 H 0.82104 0.95018 0.65958 0.0
H614 H 0.77543 0.94866 0.64303 0.0
H615 H 0.81384 0.04672 0.61397 0.0
H616 H 0.67514 0.00637 0.56469 0.0
H617 H 0.72257 0.00901 0.5806 0.0
C618 C 0.86105 0.86849 0.9722 0.0
C619 C 0.85139 0.86897 0.98686 0.0
C620 C 0.83539 0.84404 0.96229 0.0
C621 C 0.73635 0.78537 0.95651 0.0
H622 H 0.7645 0.73026 0.93114 0.0
C623 C 0.63073 0.65497 0.92727 0.0
C624 C 0.63789 0.64917 0.91283 0.0
C625 C 0.65732 0.68375 0.93546 0.0
C626 C 0.75634 0.74579 0.93799 0.0
H627 H 0.80706 0.84497 0.0025 0.0
H628 H 0.76245 0.80203 0.98527 0.0
H629 H 0.80995 0.77767 0.94688 0.0
H630 H 0.67852 0.66917 0.89562 0.0
H631 H 0.72514 0.7196 0.90998 0.0
H632 H 0.68269 0.75329 0.94776 0.0
C633 C 0.78976 0.82067 0.98141 0.0
C634 C 0.78237 0.77295 0.94701 0.0
C635 C 0.81541 0.84498 0.99132 0.0
C636 C 0.67235 0.67271 0.90678 0.0
C637 C 0.69901 0.70158 0.915 0.0
C638 C 0.71036 0.75828 0.94749 0.0
C639 C 0.79953 0.81973 0.96681 0.0
C640 C 0.77253 0.79269 0.9565 0.0
C641 C 0.69173 0.70746 0.92942 0.0
C642 C 0.71993 0.73783 0.93828 0.0
H643 H 0.88865 0.88646 0.96847 0.0
H644 H 0.84363 0.84415 0.95108 0.0
H645 H 0.72809 0.80056 0.96352 0.0
H646 H 0.60468 0.63691 0.93233 0.0
H647 H 0.65109 0.68707 0.94664 0.0
C648 C 0.95484 0.83991 0.30684 0.0
C649 C 0.95331 0.83439 0.32201 0.0
C650 C 0.9538 0.81367 0.29729 0.0
C651 C 0.92883 0.71717 0.29437 0.0
H652 H 0.00558 0.75224 0.26527 0.0
C653 C 0.96505 0.62035 0.26408 0.0
C654 C 0.97553 0.62754 0.24936 0.0
C655 C 0.95997 0.64517 0.27234 0.0
C656 C 0.98358 0.74196 0.27315 0.0
H657 H 0.94779 0.79652 0.33906 0.0
H658 H 0.9458 0.75054 0.32236 0.0
H659 H -0.00088 0.79576 0.28056 0.0
H660 H 0.98825 0.66594 0.23164 0.0
H661 H 0.97878 0.7091 0.24598 0.0
H662 H 0.91317 0.66338 0.28699 0.0
C663 C 0.94787 0.77516 0.31786 0.0
C664 C 0.97993 0.76693 0.28192 0.0
C665 C 0.94928 0.80154 0.32742 0.0
C666 C 0.98066 0.65997 0.24303 0.0
C667 C 0.97527 0.68468 0.25126 0.0
C668 C 0.93227 0.69218 0.28552 0.0
C669 C 0.95081 0.78126 0.30272 0.0
C670 C 0.9528 0.75477 0.29273 0.0
C671 C 0.96493 0.67762 0.26603 0.0
C672 C 0.95999 0.70424 0.27492 0.0
H673 H 0.95823 0.8651 0.30238 0.0
H674 H 0.95583 0.81892 0.28565 0.0
H675 H 0.90742 0.70708 0.30252 0.0
H676 H 0.96132 0.59574 0.26928 0.0
H677 H 0.95274 0.63916 0.28375 0.0
C678 C 0.12981 0.9527 0.65324 0.0
C679 C 0.13582 0.98566 0.65943 0.0
C680 C 0.15539 0.95227 0.64371 0.0
C681 C 0.25231 0.00539 0.63352 0.0
H682 H 0.22125 0.94903 0.59771 0.0
C683 C 0.35471 0.021 0.58889 0.0
C684 C 0.34961 0.98909 0.58202 0.0
C685 C 0.32799 0.01996 0.59814 0.0
C686 C 0.23034 0.96457 0.60775 0.0
H687 H 0.173 0.04412 0.66012 0.0
H688 H 0.21764 0.04325 0.64365 0.0
H689 H 0.17573 0.94785 0.61442 0.0
H690 H 0.31198 0.9312 0.57921 0.0
H691 H 0.2657 0.92922 0.59563 0.0
H692 H 0.30683 0.022 0.62696 0.0
C693 C 0.19343 0.01769 0.64634 0.0
C694 C 0.20427 0.96389 0.61731 0.0
C695 C 0.16786 0.01815 0.6558 0.0
C696 C 0.31695 0.95619 0.58447 0.0
C697 C 0.29024 0.95513 0.59375 0.0
C698 C 0.27834 0.00598 0.624 0.0
C699 C 0.18754 0.98475 0.64022 0.0
C700 C 0.21501 0.9845 0.63024 0.0
C701 C 0.29557 0.98697 0.60077 0.0
C702 C 0.2677 0.98578 0.61096 0.0
H703 H 0.1056 0.92715 0.65593 0.0
H704 H 0.15029 0.92642 0.63927 0.0
H705 H 0.2614 0.02107 0.64353 0.0
H706 H 0.37969 0.04673 0.58736 0.0
H707 H 0.33275 0.04508 0.60321 0.0
C708 C 0.1927 0.15743 -0.00111 0.0
C709 C 0.16032 0.12858 0.9931 0.0
C710 C 0.21846 0.18447 0.98976 0.0
C711 C 0.25056 0.20492 0.95189 0.0
H712 H 0.28394 0.30533 0.9627 0.0
C713 C 0.33289 0.32388 0.91209 0.0
C714 C 0.36076 0.35673 0.91791 0.0
C715 C 0.30889 0.29581 0.92132 0.0
C716 C 0.27541 0.27751 0.95961 0.0
H717 H 0.13014 0.10539 0.97305 0.0
H718 H 0.17563 0.15208 0.95713 0.0
H719 H 0.24261 0.25613 0.97882 0.0
H720 H 0.38582 0.38589 0.93789 0.0
H721 H 0.34457 0.33666 0.95404 0.0
H722 H 0.28371 0.22611 0.9328 0.0
C723 C 0.18095 0.15364 0.96875 0.0
C724 C 0.25165 0.24934 0.96885 0.0
C725 C 0.15497 0.1268 0.97789 0.0
C726 C 0.36422 0.36101 0.93313 0.0
C727 C 0.34051 0.3328 0.94236 0.0
C728 C 0.27467 0.23311 0.94272 0.0
C729 C 0.21264 0.18302 0.97463 0.0
C730 C 0.23887 0.21279 0.96504 0.0
C731 C 0.31252 0.29982 0.93658 0.0
C732 C 0.28725 0.26978 0.94643 0.0
H733 H 0.19808 0.15931 0.0105 0.0
H734 H 0.24295 0.2066 0.99453 0.0
H735 H 0.24135 0.17696 0.94877 0.0
H736 H 0.32943 0.32006 0.90038 0.0
H737 H 0.28726 0.27112 0.91647 0.0
C738 C 0.05269 0.18312 0.31594 0.0
C739 C 0.02577 0.14606 0.31557 0.0
C740 C 0.05147 0.20779 0.30616 0.0
C741 C 0.98686 0.22163 0.28488 0.0
H742 H 0.07197 0.294 0.26388 0.0
C743 C 0.97703 0.31861 0.2435 0.0
C744 C 0.00586 0.35481 0.24314 0.0
C745 C 0.98014 0.29224 0.2515 0.0
C746 C 0.04803 0.27427 0.2698 0.0
H747 H 0.97663 0.10568 0.30465 0.0
H748 H 0.97442 0.14883 0.2876 0.0
H749 H 0.07669 0.24983 0.27947 0.0
H750 H 0.06042 0.39199 0.25091 0.0
H751 H 0.06558 0.34632 0.26522 0.0
H752 H 0.95835 0.24648 0.27569 0.0
C753 C -0.00352 0.15874 0.29543 0.0
C754 C 0.05076 0.24891 0.27867 0.0
C755 C -0.00206 0.13403 0.30509 0.0
C756 C 0.03793 0.36415 0.25088 0.0
C757 C 0.04091 0.3379 0.25902 0.0
C758 C 0.98421 0.2472 0.27616 0.0
C759 C 0.02303 0.1959 0.29596 0.0
C760 C 0.02019 0.22237 0.28629 0.0
C761 C 0.012 0.30161 0.25948 0.0
C762 C 0.01476 0.2739 0.26851 0.0
H763 H 0.07454 0.19306 0.32387 0.0
H764 H 0.07215 0.23634 0.30685 0.0
H765 H 0.96299 0.20178 0.29082 0.0
H766 H 0.95218 0.31063 0.23748 0.0
H767 H 0.95761 0.26445 0.25136 0.0
loop_
_geom_bond_atom_site_label_1
_geom_bond_atom_site_label_2
_geom_bond_distance
_geom_bond_site_symmetry_2
_ccdc_geom_bond_type
Li0 N17 1.990 . S
Li0 O60 1.956 . S
Li0 O61 1.970 1_455 S
Li0 O62 1.961 1_545 S
Li1 N25 1.990 . S
Li1 O60 1.970 1_655 S
Li1 O61 1.956 . S
Li1 O63 1.961 1_545 S
Li2 N47 1.990 . S
Li2 O60 1.961 1_565 S
Li2 O62 1.956 . S
Li2 O63 1.970 1_455 S
Li3 N53 1.990 . S
Li3 O61 1.961 1_565 S
Li3 O62 1.970 1_655 S
Li3 O63 1.956 . S
C4 C6 1.348 . S
C4 C7 1.356 . S
C4 O60 1.325 . S
N5 C8 1.314 . S
N5 C9 1.279 . S
C6 C4 1.348 . S
C6 C8 1.353 . S
C6 H64 0.929 . S
C7 C4 1.356 . S
C7 C9 1.358 . S
C7 H65 0.930 . S
C8 N5 1.314 . S
C8 C6 1.353 . S
C8 H66 0.930 . S
C9 N5 1.279 . S
C9 C7 1.358 . S
C9 H67 0.930 . S
C10 C13 1.348 1_655 S
C10 C14 1.356 . S
C10 O61 1.325 . S
C11 N12 1.279 . S
C11 C14 1.358 . S
C11 H68 0.930 . S
N12 C11 1.279 . S
N12 C15 1.314 . S
C13 C10 1.348 1_455 S
C13 C15 1.353 1_455 S
C13 H69 0.929 . S
C14 C10 1.356 . S
C14 C11 1.358 . S
C14 H70 0.930 . S
C15 N12 1.314 . S
C15 C13 1.353 1_655 S
C15 H71 0.930 1_655 S
C16 N17 1.314 . S
C16 C21 1.353 1_554 S
C16 H22 0.930 . S
N17 Li0 1.990 . S
N17 C16 1.314 . S
N17 C19 1.279 . S
C18 C19 1.358 . S
C18 C20 1.356 . S
C18 H72 0.930 . S
C19 N17 1.279 . S
C19 C18 1.358 . S
C19 H23 0.930 . S
C20 C18 1.356 . S
C20 C21 1.348 1_554 S
C21 C16 1.353 1_556 S
C21 C20 1.348 1_556 S
C21 H73 0.929 . S
H22 C16 0.930 . S
H23 C19 0.930 . S
C24 N25 1.314 . S
C24 C26 1.353 . S
C24 H30 0.930 . S
N25 Li1 1.990 . S
N25 C24 1.314 . S
N25 C28 1.279 . S
C26 C24 1.353 . S
C26 C29 1.348 . S
C26 H74 0.929 . S
C27 C28 1.358 . S
C27 C29 1.356 . S
C27 H75 0.930 . S
C28 N25 1.279 . S
C28 C27 1.358 . S
C28 H31 0.930 . S
C29 C26 1.348 . S
C29 C27 1.356 . S
H30 C24 0.930 . S
H31 C28 0.930 . S
C32 C34 1.348 1_455 S
C32 C35 1.356 . S
C32 O62 1.325 . S
N33 C36 1.314 . S
N33 C37 1.279 . S
C34 C32 1.348 1_655 S
C34 C36 1.353 1_655 S
C34 H76 0.929 . S
C35 C32 1.356 . S
C35 C37 1.358 . S
C35 H77 0.930 . S
C36 N33 1.314 . S
C36 C34 1.353 1_455 S
C36 H78 0.930 1_455 S
C37 N33 1.279 . S
C37 C35 1.358 . S
C37 H79 0.930 . S
C38 C39 1.348 . S
C38 C40 1.356 . S
C38 O63 1.325 . S
C39 C38 1.348 . S
C39 C41 1.353 . S
C39 H80 0.929 . S
C40 C38 1.356 . S
C40 C42 1.358 . S
C40 H81 0.930 . S
C41 C39 1.353 . S
C41 N43 1.314 . S
C41 H82 0.930 . S
C42 C40 1.358 . S
C42 N43 1.279 . S
C42 H83 0.930 . S
N43 C41 1.314 . S
N43 C42 1.279 . S
C44 C46 1.353 . S
C44 N47 1.314 . S
C44 H50 0.930 . S
C45 N47 1.279 . S
C45 C48 1.358 . S
C45 H51 0.930 . S
C46 C44 1.353 . S
C46 C49 1.348 . S
C46 H84 0.929 . S
N47 Li2 1.990 . S
N47 C44 1.314 . S
N47 C45 1.279 . S
C48 C45 1.358 . S
C48 C49 1.356 . S
C48 H85 0.930 . S
C49 C46 1.348 . S
C49 C48 1.356 . S
H50 C44 0.930 . S
H51 C45 0.930 . S
C52 N53 1.314 . S
C52 C54 1.353 1_554 S
C52 H58 0.930 . S
N53 Li3 1.990 . S
N53 C52 1.314 . S
N53 C56 1.279 . S
C54 C52 1.353 1_556 S
C54 C57 1.348 1_556 S
C54 H86 0.929 . S
C55 C56 1.358 . S
C55 C57 1.356 . S
C55 H87 0.930 . S
C56 N53 1.279 . S
C56 C55 1.358 . S
C56 H59 0.930 . S
C57 C54 1.348 1_554 S
C57 C55 1.356 . S
H58 C52 0.930 . S
H59 C56 0.930 . S
O60 Li0 1.956 . S
O60 Li1 1.970 1_455 S
O60 Li2 1.961 1_545 S
O60 C4 1.325 . S
O61 Li0 1.970 1_655 S
O61 Li1 1.956 . S
O61 Li3 1.961 1_545 S
O61 C10 1.325 . S
O62 Li0 1.961 1_565 S
O62 Li2 1.956 . S
O62 Li3 1.970 1_455 S
O62 C32 1.325 . S
O63 Li1 1.961 1_565 S
O63 Li2 1.970 1_655 S
O63 Li3 1.956 . S
O63 C38 1.325 . S
H64 C6 0.929 . S
H65 C7 0.930 . S
H66 C8 0.930 . S
H67 C9 0.930 . S
H68 C11 0.930 . S
H69 C13 0.929 . S
H70 C14 0.930 . S
H71 C15 0.930 1_455 S
H72 C18 0.930 . S
H73 C21 0.929 . S
H74 C26 0.929 . S
H75 C27 0.930 . S
H76 C34 0.929 . S
H77 C35 0.930 . S
H78 C36 0.930 1_655 S
H79 C37 0.930 . S
H80 C39 0.929 . S
H81 C40 0.930 . S
H82 C41 0.930 . S
H83 C42 0.930 . S
H84 C46 0.929 . S
H85 C48 0.930 . S
H86 C54 0.929 . S
H87 C55 0.930 . S
Li88 N105 1.990 . S
Li88 O148 1.956 . S
Li88 O149 1.970 1_665 S
Li88 O150 1.961 . S
Li89 N113 1.990 . S
Li89 O148 1.970 1_445 S
Li89 O149 1.956 . S
Li89 O151 1.961 . S
Li90 N135 1.990 . S
Li90 O148 1.961 . S
Li90 O150 1.956 . S
Li90 O151 1.970 1_665 S
Li91 N141 1.990 . S
Li91 O149 1.961 . S
Li91 O150 1.970 1_445 S
Li91 O151 1.956 . S
C92 C94 1.348 1_655 S
C92 C95 1.356 . S
C92 O148 1.325 . S
N93 C96 1.314 . S
N93 C97 1.279 . S
C94 C92 1.348 1_455 S
C94 C96 1.353 1_455 S
C94 H152 0.929 . S
C95 C92 1.356 . S
C95 C97 1.358 . S
C95 H153 0.930 . S
C96 N93 1.314 . S
C96 C94 1.353 1_655 S
C96 H154 0.930 1_655 S
C97 N93 1.279 . S
C97 C95 1.358 . S
C97 H155 0.930 . S
C98 C101 1.348 1_545 S
C98 C102 1.356 . S
C98 O149 1.325 . S
C99 N100 1.279 . S
C99 C102 1.358 . S
C99 H156 0.930 . S
N100 C99 1.279 . S
N100 C103 1.314 . S
C101 C98 1.348 1_565 S
C101 C103 1.353 1_565 S
C101 H157 0.929 . S
C102 C98 1.356 . S
C102 C99 1.358 . S
C102 H158 0.930 . S
C103 N100 1.314 . S
C103 C101 1.353 1_545 S
C103 H159 0.930 1_545 S
C104 N105 1.314 . S
C104 C109 1.353 . S
C104 H110 0.930 . S
N105 Li88 1.990 . S
N105 C104 1.314 . S
N105 C107 1.279 . S
C106 C107 1.358 . S
C106 C108 1.356 . S
C106 H160 0.930 . S
C107 N105 1.279 . S
C107 C106 1.358 . S
C107 H111 0.930 . S
C108 C106 1.356 . S
C108 C109 1.348 . S
C109 C104 1.353 . S
C109 C108 1.348 . S
C109 H161 0.929 . S
H110 C104 0.930 . S
H111 C107 0.930 . S
C112 N113 1.314 . S
C112 C114 1.353 . S
C112 H118 0.930 . S
N113 Li89 1.990 . S
N113 C112 1.314 . S
N113 C116 1.279 . S
C114 C112 1.353 . S
C114 C117 1.348 . S
C114 H162 0.929 . S
C115 C116 1.358 . S
C115 C117 1.356 . S
C115 H163 0.930 . S
C116 N113 1.279 . S
C116 C115 1.358 . S
C116 H119 0.930 . S
C117 C114 1.348 . S
C117 C115 1.356 . S
H118 C112 0.930 . S
H119 C116 0.930 . S
C120 C122 1.348 1_565 S
C120 C123 1.356 . S
C120 O150 1.325 . S
N121 C124 1.314 . S
N121 C125 1.279 . S
C122 C120 1.348 1_545 S
C122 C124 1.353 1_545 S
C122 H164 0.929 . S
C123 C120 1.356 . S
C123 C125 1.358 . S
C123 H165 0.930 . S
C124 N121 1.314 . S
C124 C122 1.353 1_565 S
C124 H166 0.930 1_565 S
C125 N121 1.279 . S
C125 C123 1.358 . S
C125 H167 0.930 . S
C126 C127 1.348 1_455 S
C126 C128 1.356 . S
C126 O151 1.325 . S
C127 C126 1.348 1_655 S
C127 C129 1.353 1_655 S
C127 H168 0.929 . S
C128 C126 1.356 . S
C128 C130 1.358 . S
C128 H169 0.930 . S
C129 C127 1.353 1_455 S
C129 N131 1.314 . S
C129 H170 0.930 1_455 S
C130 C128 1.358 . S
C130 N131 1.279 . S
C130 H171 0.930 . S
N131 C129 1.314 . S
N131 C130 1.279 . S
C132 C134 1.353 . S
C132 N135 1.314 . S
C132 H138 0.930 . S
C133 N135 1.279 . S
C133 C136 1.358 . S
C133 H139 0.930 . S
C134 C132 1.353 . S
C134 C137 1.348 . S
C134 H172 0.929 . S
N135 Li90 1.990 . S
N135 C132 1.314 . S
N135 C133 1.279 . S
C136 C133 1.358 . S
C136 C137 1.356 . S
C136 H173 0.930 . S
C137 C134 1.348 . S
C137 C136 1.356 . S
H138 C132 0.930 . S
H139 C133 0.930 . S
C140 N141 1.314 . S
C140 C142 1.353 . S
C140 H146 0.930 . S
N141 Li91 1.990 . S
N141 C140 1.314 . S
N141 C144 1.279 . S
C142 C140 1.353 . S
C142 C145 1.348 . S
C142 H174 0.929 . S
C143 C144 1.358 . S
C143 C145 1.356 . S
C143 H175 0.930 . S
C144 N141 1.279 . S
C144 C143 1.358 . S
C144 H147 0.930 . S
C145 C142 1.348 . S
C145 C143 1.356 . S
H146 C140 0.930 . S
H147 C144 0.930 . S
O148 Li88 1.956 . S
O148 Li89 1.970 1_665 S
O148 Li90 1.961 . S
O148 C92 1.325 . S
O149 Li88 1.970 1_445 S
O149 Li89 1.956 . S
O149 Li91 1.961 . S
O149 C98 1.325 . S
O150 Li88 1.961 . S
O150 Li90 1.956 . S
O150 Li91 1.970 1_665 S
O150 C120 1.325 . S
O151 Li89 1.961 . S
O151 Li90 1.970 1_445 S
O151 Li91 1.956 . S
O151 C126 1.325 . S
H152 C94 0.929 . S
H153 C95 0.930 . S
H154 C96 0.930 1_455 S
H155 C97 0.930 . S
H156 C99 0.930 . S
H157 C101 0.929 . S
H158 C102 0.930 . S
H159 C103 0.930 1_565 S
H160 C106 0.930 . S
H161 C109 0.929 . S
H162 C114 0.929 . S
H163 C115 0.930 . S
H164 C122 0.929 . S
H165 C123 0.930 . S
H166 C124 0.930 1_545 S
H167 C125 0.930 . S
H168 C127 0.929 . S
H169 C128 0.930 . S
H170 C129 0.930 1_655 S
H171 C130 0.930 . S
H172 C134 0.929 . S
H173 C136 0.930 . S
H174 C142 0.929 . S
H175 C143 0.930 . S
Li176 N193 1.990 . S
Li176 O236 1.956 . S
Li176 O237 1.970 1_565 S
Li176 O238 1.961 1_455 S
Li177 N201 1.990 . S
Li177 O236 1.970 1_545 S
Li177 O237 1.956 . S
Li177 O239 1.961 1_455 S
Li178 N223 1.990 . S
Li178 O236 1.961 1_655 S
Li178 O238 1.956 . S
Li178 O239 1.970 1_565 S
Li179 N229 1.990 . S
Li179 O237 1.961 1_655 S
Li179 O238 1.970 1_545 S
Li179 O239 1.956 . S
C180 C182 1.348 1_565 S
C180 C183 1.356 . S
C180 O236 1.325 . S
N181 C184 1.314 . S
N181 C185 1.279 . S
C182 C180 1.348 1_545 S
C182 C184 1.353 1_545 S
C182 H240 0.929 . S
C183 C180 1.356 . S
C183 C185 1.358 . S
C183 H241 0.930 . S
C184 N181 1.314 . S
C184 C182 1.353 1_565 S
C184 H242 0.930 1_565 S
C185 N181 1.279 . S
C185 C183 1.358 . S
C185 H243 0.930 . S
C186 C189 1.348 . S
C186 C190 1.356 . S
C186 O237 1.325 . S
C187 N188 1.279 . S
C187 C190 1.358 . S
C187 H244 0.930 . S
N188 C187 1.279 . S
N188 C191 1.314 . S
C189 C186 1.348 . S
C189 C191 1.353 . S
C189 H245 0.929 . S
C190 C186 1.356 . S
C190 C187 1.358 . S
C190 H246 0.930 . S
C191 N188 1.314 . S
C191 C189 1.353 . S
C191 H247 0.930 . S
C192 N193 1.314 . S
C192 C197 1.353 . S
C192 H198 0.930 . S
N193 Li176 1.990 . S
N193 C192 1.314 . S
N193 C195 1.279 . S
C194 C195 1.358 . S
C194 C196 1.356 . S
C194 H248 0.930 . S
C195 N193 1.279 . S
C195 C194 1.358 . S
C195 H199 0.930 . S
C196 C194 1.356 . S
C196 C197 1.348 . S
C197 C192 1.353 . S
C197 C196 1.348 . S
C197 H249 0.929 . S
H198 C192 0.930 . S
H199 C195 0.930 . S
C200 N201 1.314 . S
C200 C202 1.353 . S
C200 H206 0.930 . S
N201 Li177 1.990 . S
N201 C200 1.314 . S
N201 C204 1.279 . S
C202 C200 1.353 . S
C202 C205 1.348 . S
C202 H250 0.929 . S
C203 C204 1.358 . S
C203 C205 1.356 . S
C203 H251 0.930 . S
C204 N201 1.279 . S
C204 C203 1.358 . S
C204 H207 0.930 . S
C205 C202 1.348 . S
C205 C203 1.356 . S
H206 C200 0.930 . S
H207 C204 0.930 . S
C208 C210 1.348 . S
C208 C211 1.356 . S
C208 O238 1.325 . S
N209 C212 1.314 . S
N209 C213 1.279 . S
C210 C208 1.348 . S
C210 C212 1.353 . S
C210 H252 0.929 . S
C211 C208 1.356 . S
C211 C213 1.358 . S
C211 H253 0.930 . S
C212 N209 1.314 . S
C212 C210 1.353 . S
C212 H254 0.930 . S
C213 N209 1.279 . S
C213 C211 1.358 . S
C213 H255 0.930 . S
C214 C215 1.348 1_545 S
C214 C216 1.356 . S
C214 O239 1.325 . S
C215 C214 1.348 1_565 S
C215 C217 1.353 1_565 S
C215 H256 0.929 . S
C216 C214 1.356 . S
C216 C218 1.358 . S
C216 H257 0.930 . S
C217 C215 1.353 1_545 S
C217 N219 1.314 . S
C217 H258 0.930 1_545 S
C218 C216 1.358 . S
C218 N219 1.279 . S
C218 H259 0.930 . S
N219 C217 1.314 . S
N219 C218 1.279 . S
C220 C222 1.353 . S
C220 N223 1.314 . S
C220 H226 0.930 . S
C221 N223 1.279 . S
C221 C224 1.358 . S
C221 H227 0.930 . S
C222 C220 1.353 . S
C222 C225 1.348 . S
C222 H260 0.929 . S
N223 Li178 1.990 . S
N223 C220 1.314 . S
N223 C221 1.279 . S
C224 C221 1.358 . S
C224 C225 1.356 . S
C224 H261 0.930 . S
C225 C222 1.348 . S
C225 C224 1.356 . S
H226 C220 0.930 . S
H227 C221 0.930 . S
C228 N229 1.314 . S
C228 C230 1.353 . S
C228 H234 0.930 . S
N229 Li179 1.990 . S
N229 C228 1.314 . S
N229 C232 1.279 . S
C230 C228 1.353 . S
C230 C233 1.348 . S
C230 H262 0.929 . S
C231 C232 1.358 . S
C231 C233 1.356 . S
C231 H263 0.930 . S
C232 N229 1.279 . S
C232 C231 1.358 . S
C232 H235 0.930 . S
C233 C230 1.348 . S
C233 C231 1.356 . S
H234 C228 0.930 . S
H235 C232 0.930 . S
O236 Li176 1.956 . S
O236 Li177 1.970 1_565 S
O236 Li178 1.961 1_455 S
O236 C180 1.325 . S
O237 Li176 1.970 1_545 S
O237 Li177 1.956 . S
O237 Li179 1.961 1_455 S
O237 C186 1.325 . S
O238 Li176 1.961 1_655 S
O238 Li178 1.956 . S
O238 Li179 1.970 1_565 S
O238 C208 1.325 . S
O239 Li177 1.961 1_655 S
O239 Li178 1.970 1_545 S
O239 Li179 1.956 . S
O239 C214 1.325 . S
H240 C182 0.929 . S
H241 C183 0.930 . S
H242 C184 0.930 1_545 S
H243 C185 0.930 . S
H244 C187 0.930 . S
H245 C189 0.929 . S
H246 C190 0.930 . S
H247 C191 0.930 . S
H248 C194 0.930 . S
H249 C197 0.929 . S
H250 C202 0.929 . S
H251 C203 0.930 . S
H252 C210 0.929 . S
H253 C211 0.930 . S
H254 C212 0.930 . S
H255 C213 0.930 . S
H256 C215 0.929 . S
H257 C216 0.930 . S
H258 C217 0.930 1_565 S
H259 C218 0.930 . S
H260 C222 0.929 . S
H261 C224 0.930 . S
H262 C230 0.929 . S
H263 C231 0.930 . S
H264 C283 0.949 . S
H265 C284 0.950 . S
H266 C286 0.950 . S
H267 C287 0.950 . S
H268 C289 0.950 . S
H269 C292 0.950 . S
H270 C293 0.950 . S
H271 C295 0.951 . S
H272 C296 0.949 . S
H273 C298 0.949 . S
H274 C299 0.950 . S
H275 C301 0.950 . S
H276 C302 0.950 . S
H277 C304 0.950 . S
H278 C307 0.950 . S
H279 C308 0.950 . S
H280 C310 0.951 . S
H281 C311 0.949 . S
C282 C283 1.376 . S
C282 C287 1.386 1_455 S
C282 C288 1.483 . S
C283 H264 0.949 . S
C283 C282 1.376 . S
C283 C284 1.397 . S
C284 H265 0.950 . S
C284 C283 1.397 . S
C284 C285 1.391 . S
C285 C284 1.391 . S
C285 C286 1.405 1_455 S
C286 H266 0.950 . S
C286 C285 1.405 1_655 S
C286 C287 1.367 . S
C287 H267 0.950 . S
C287 C282 1.386 1_655 S
C287 C286 1.367 . S
C288 C282 1.483 . S
C288 C289 1.382 . S
C288 C290 1.403 1_455 S
C289 H268 0.950 . S
C289 C288 1.382 . S
C289 C305 1.411 . S
C290 C288 1.403 1_655 S
C290 C291 1.489 . S
C290 C304 1.411 . S
C291 C290 1.489 . S
C291 C292 1.383 1_655 S
C291 C296 1.382 . S
C292 H269 0.950 . S
C292 C291 1.383 1_455 S
C292 C293 1.395 . S
C293 H270 0.950 . S
C293 C292 1.395 . S
C293 C294 1.288 1_455 S
C294 C293 1.288 1_655 S
C294 C295 1.392 . S
C295 H271 0.951 . S
C295 C294 1.392 . S
C295 C296 1.392 . S
C296 H272 0.949 . S
C296 C291 1.382 . S
C296 C295 1.392 . S
C297 C298 1.376 . S
C297 C302 1.386 1_655 S
C297 C303 1.483 . S
C298 H273 0.949 . S
C298 C297 1.376 . S
C298 C299 1.397 . S
C299 H274 0.950 . S
C299 C298 1.397 . S
C299 C300 1.399 . S
C300 C299 1.399 . S
C300 C301 1.391 1_655 S
C301 H275 0.950 . S
C301 C300 1.391 1_455 S
C301 C302 1.367 . S
C302 H276 0.950 . S
C302 C297 1.386 1_455 S
C302 C301 1.367 . S
C303 C297 1.483 . S
C303 C304 1.382 . S
C303 C305 1.403 1_655 S
C304 H277 0.950 . S
C304 C290 1.411 . S
C304 C303 1.382 . S
C305 C289 1.411 . S
C305 C303 1.403 1_455 S
C305 C306 1.489 . S
C306 C305 1.489 . S
C306 C307 1.383 1_455 S
C306 C311 1.382 . S
C307 H278 0.950 . S
C307 C306 1.383 1_655 S
C307 C308 1.395 . S
C308 H279 0.950 . S
C308 C307 1.395 . S
C308 C309 1.288 1_655 S
C309 C308 1.288 1_455 S
C309 C310 1.392 . S
C310 H280 0.951 . S
C310 C309 1.392 . S
C310 C311 1.392 . S
C311 H281 0.949 . S
C311 C306 1.382 . S
C311 C310 1.392 . S
H312 C331 0.949 . S
H313 C332 0.950 . S
H314 C334 0.950 . S
H315 C335 0.950 . S
H316 C337 0.950 . S
H317 C340 0.950 . S
H318 C341 0.950 . S
H319 C343 0.951 . S
H320 C344 0.949 . S
H321 C346 0.949 . S
H322 C347 0.950 . S
H323 C349 0.950 . S
H324 C350 0.950 . S
H325 C352 0.950 . S
H326 C355 0.950 . S
H327 C356 0.950 . S
H328 C358 0.951 . S
H329 C359 0.949 . S
C330 C331 1.376 . S
C330 C335 1.386 1_545 S
C330 C336 1.483 . S
C331 H312 0.949 . S
C331 C330 1.376 . S
C331 C332 1.397 . S
C332 H313 0.950 . S
C332 C331 1.397 . S
C332 C333 1.391 . S
C333 C332 1.391 . S
C333 C334 1.405 1_545 S
C334 H314 0.950 . S
C334 C333 1.405 1_565 S
C334 C335 1.367 . S
C335 H315 0.950 . S
C335 C330 1.386 1_565 S
C335 C334 1.367 . S
C336 C330 1.483 . S
C336 C337 1.382 . S
C336 C338 1.403 1_545 S
C337 H316 0.950 . S
C337 C336 1.382 . S
C337 C353 1.411 . S
C338 C336 1.403 1_565 S
C338 C339 1.489 . S
C338 C352 1.411 . S
C339 C338 1.489 . S
C339 C340 1.383 1_565 S
C339 C344 1.382 . S
C340 H317 0.950 . S
C340 C339 1.383 1_545 S
C340 C341 1.395 . S
C341 H318 0.950 . S
C341 C340 1.395 . S
C341 C342 1.288 1_545 S
C342 C341 1.288 1_565 S
C342 C343 1.392 . S
C343 H319 0.951 . S
C343 C342 1.392 . S
C343 C344 1.392 . S
C344 H320 0.949 . S
C344 C339 1.382 . S
C344 C343 1.392 . S
C345 C346 1.376 . S
C345 C350 1.386 1_565 S
C345 C351 1.483 . S
C346 H321 0.949 . S
C346 C345 1.376 . S
C346 C347 1.397 . S
C347 H322 0.950 . S
C347 C346 1.397 . S
C347 C348 1.412 . S
C348 C347 1.412 . S
C348 C349 1.394 1_565 S
C349 H323 0.950 . S
C349 C348 1.394 1_545 S
C349 C350 1.367 . S
C350 H324 0.950 . S
C350 C345 1.386 1_545 S
C350 C349 1.367 . S
C351 C345 1.483 . S
C351 C352 1.382 . S
C351 C353 1.403 1_565 S
C352 H325 0.950 . S
C352 C338 1.411 . S
C352 C351 1.382 . S
C353 C337 1.411 . S
C353 C351 1.403 1_545 S
C353 C354 1.489 . S
C354 C353 1.489 . S
C354 C355 1.383 1_545 S
C354 C359 1.382 . S
C355 H326 0.950 . S
C355 C354 1.383 1_565 S
C355 C356 1.395 . S
C356 H327 0.950 . S
C356 C355 1.395 . S
C356 C357 1.288 1_565 S
C357 C356 1.288 1_545 S
C357 C358 1.392 . S
C358 H328 0.951 . S
C358 C357 1.392 . S
C358 C359 1.392 . S
C359 H329 0.949 . S
C359 C354 1.382 . S
C359 C358 1.392 . S
H360 C379 0.949 . S
H361 C380 0.950 . S
H362 C382 0.950 . S
H363 C383 0.950 . S
H364 C385 0.950 . S
H365 C388 0.950 . S
H366 C389 0.950 . S
H367 C391 0.951 . S
H368 C392 0.949 . S
H369 C394 0.949 . S
H370 C395 0.950 . S
H371 C397 0.950 . S
H372 C398 0.950 . S
H373 C400 0.950 . S
H374 C403 0.950 . S
H375 C404 0.950 . S
H376 C406 0.951 . S
H377 C407 0.949 . S
C378 C379 1.376 . S
C378 C383 1.386 . S
C378 C384 1.483 . S
C379 H360 0.949 . S
C379 C378 1.376 . S
C379 C380 1.397 . S
C380 H361 0.950 . S
C380 C379 1.397 . S
C380 C381 1.391 . S
C381 C380 1.391 . S
C381 C382 1.405 . S
C382 H362 0.950 . S
C382 C381 1.405 . S
C382 C383 1.367 . S
C383 H363 0.950 . S
C383 C378 1.386 . S
C383 C382 1.367 . S
C384 C378 1.483 . S
C384 C385 1.382 . S
C384 C386 1.403 . S
C385 H364 0.950 . S
C385 C384 1.382 . S
C385 C401 1.411 . S
C386 C384 1.403 . S
C386 C387 1.489 . S
C386 C400 1.411 . S
C387 C386 1.489 . S
C387 C388 1.383 . S
C387 C392 1.382 . S
C388 H365 0.950 . S
C388 C387 1.383 . S
C388 C389 1.395 . S
C389 H366 0.950 . S
C389 C388 1.395 . S
C389 C390 1.288 . S
C390 C389 1.288 . S
C390 C391 1.392 . S
C391 H367 0.951 . S
C391 C390 1.392 . S
C391 C392 1.392 . S
C392 H368 0.949 . S
C392 C387 1.382 . S
C392 C391 1.392 . S
C393 C394 1.376 . S
C393 C398 1.386 . S
C393 C399 1.483 . S
C394 H369 0.949 . S
C394 C393 1.376 . S
C394 C395 1.397 . S
C395 H370 0.950 . S
C395 C394 1.397 . S
C395 C396 1.391 . S
C396 C395 1.391 . S
C396 C397 1.405 . S
C397 H371 0.950 . S
C397 C396 1.405 . S
C397 C398 1.367 . S
C398 H372 0.950 . S
C398 C393 1.386 . S
C398 C397 1.367 . S
C399 C393 1.483 . S
C399 C400 1.382 . S
C399 C401 1.403 . S
C400 H373 0.950 . S
C400 C386 1.411 . S
C400 C399 1.382 . S
C401 C385 1.411 . S
C401 C399 1.403 . S
C401 C402 1.489 . S
C402 C401 1.489 . S
C402 C403 1.383 . S
C402 C407 1.382 . S
C403 H374 0.950 . S
C403 C402 1.383 . S
C403 C404 1.395 . S
C404 H375 0.950 . S
C404 C403 1.395 . S
C404 C405 1.288 . S
C405 C404 1.288 . S
C405 C406 1.392 . S
C406 H376 0.951 . S
C406 C405 1.392 . S
C406 C407 1.392 . S
C407 H377 0.949 . S
C407 C402 1.382 . S
C407 C406 1.392 . S
C408 C409 1.349 . S
C408 C410 1.327 . S
C408 H433 0.950 . S
C409 C408 1.349 . S
C409 C425 1.349 . S
C410 C408 1.327 . S
C410 C429 1.429 . S
C410 H434 0.950 . S
C411 C428 1.574 . S
C411 C430 1.368 . S
C411 H435 0.949 . S
H412 C416 0.949 . S
C413 C414 1.349 . S
C413 C415 1.327 . S
C413 H436 0.950 . S
C414 C413 1.349 . S
C414 C426 1.349 1_655 S
C415 C413 1.327 . S
C415 C431 1.429 . S
C415 H437 0.950 . S
C416 H412 0.949 . S
C416 C424 1.574 . S
C416 C432 1.368 . S
H417 C425 0.950 . S
H418 C423 0.950 . S
H419 C424 0.949 . S
H420 C426 0.950 . S
H421 C427 0.932 1_455 S
H422 C428 0.949 . S
C423 H418 0.950 . S
C423 C425 1.327 . S
C423 C429 1.429 . S
C424 C416 1.574 . S
C424 H419 0.949 . S
C424 C430 1.368 . S
C425 C409 1.349 . S
C425 H417 0.950 . S
C425 C423 1.327 . S
C426 C414 1.349 1_455 S
C426 H420 0.950 . S
C426 C427 1.337 1_455 S
C427 H421 0.932 1_655 S
C427 C426 1.337 1_655 S
C427 C431 1.437 . S
C428 C411 1.574 . S
C428 H422 0.949 . S
C428 C432 1.368 . S
C429 C410 1.429 . S
C429 C423 1.429 . S
C429 C430 1.523 . S
C430 C411 1.368 . S
C430 C424 1.368 . S
C430 C429 1.523 . S
C431 C415 1.429 . S
C431 C427 1.437 . S
C431 C432 1.523 . S
C432 C416 1.368 . S
C432 C428 1.368 . S
C432 C431 1.523 . S
H433 C408 0.950 . S
H434 C410 0.950 . S
H435 C411 0.949 . S
H436 C413 0.950 . S
H437 C415 0.950 . S
C438 C439 1.349 . S
C438 C440 1.327 . S
C438 H463 0.950 . S
C439 C438 1.349 . S
C439 C455 1.349 . S
C440 C438 1.327 . S
C440 C459 1.429 . S
C440 H464 0.950 1_565 S
C441 C458 1.574 . S
C441 C460 1.368 . S
C441 H465 0.949 . S
H442 C446 0.949 . S
C443 C444 1.349 . S
C443 C445 1.327 . S
C443 H466 0.950 . S
C444 C443 1.349 . S
C444 C456 1.349 1_565 S
C445 C443 1.327 . S
C445 C461 1.429 . S
C445 H467 0.950 . S
C446 H442 0.949 . S
C446 C454 1.574 1_545 S
C446 C462 1.368 1_545 S
H447 C455 0.950 . S
H448 C453 0.950 . S
H449 C454 0.949 1_545 S
H450 C456 0.950 . S
H451 C457 0.950 . S
H452 C458 0.949 . S
C453 H448 0.950 . S
C453 C455 1.327 . S
C453 C459 1.429 . S
C454 C446 1.574 1_565 S
C454 H449 0.949 1_565 S
C454 C460 1.368 . S
C455 C439 1.349 . S
C455 H447 0.950 . S
C455 C453 1.327 . S
C456 C444 1.349 1_545 S
C456 H450 0.950 . S
C456 C457 1.327 . S
C457 H451 0.950 . S
C457 C456 1.327 . S
C457 C461 1.429 1_545 S
C458 C441 1.574 . S
C458 H452 0.949 . S
C458 C462 1.368 . S
C459 C440 1.429 . S
C459 C453 1.429 . S
C459 C460 1.523 . S
C460 C441 1.368 . S
C460 C454 1.368 . S
C460 C459 1.523 . S
C461 C445 1.429 . S
C461 C457 1.429 1_565 S
C461 C462 1.523 . S
C462 C446 1.368 1_565 S
C462 C458 1.368 . S
C462 C461 1.523 . S
H463 C438 0.950 . S
H464 C440 0.950 1_545 S
H465 C441 0.949 . S
H466 C443 0.950 . S
H467 C445 0.950 . S
C468 C469 1.349 . S
C468 C470 1.327 . S
C468 H493 0.950 . S
C469 C468 1.349 . S
C469 C485 1.349 . S
C470 C468 1.327 . S
C470 C489 1.429 . S
C470 H494 0.950 . S
C471 C488 1.574 . S
C471 C490 1.368 . S
C471 H495 0.949 . S
H472 C476 0.949 . S
C473 C474 1.349 . S
C473 C475 1.327 . S
C473 H496 0.950 . S
C474 C473 1.349 . S
C474 C486 1.349 . S
C475 C473 1.327 . S
C475 C491 1.429 . S
C475 H497 0.950 . S
C476 H472 0.949 . S
C476 C484 1.574 . S
C476 C492 1.368 . S
H477 C485 0.950 . S
H478 C483 0.950 . S
H479 C484 0.949 . S
H480 C486 0.950 . S
H481 C487 0.950 . S
H482 C488 0.949 . S
C483 H478 0.950 . S
C483 C485 1.327 . S
C483 C489 1.429 . S
C484 C476 1.574 . S
C484 H479 0.949 . S
C484 C490 1.368 . S
C485 C469 1.349 . S
C485 H477 0.950 . S
C485 C483 1.327 . S
C486 C474 1.349 . S
C486 H480 0.950 . S
C486 C487 1.327 . S
C487 H481 0.950 . S
C487 C486 1.327 . S
C487 C491 1.429 . S
C488 C471 1.574 . S
C488 H482 0.949 . S
C488 C492 1.368 . S
C489 C470 1.429 . S
C489 C483 1.429 . S
C489 C490 1.523 . S
C490 C471 1.368 . S
C490 C484 1.368 . S
C490 C489 1.523 . S
C491 C475 1.429 . S
C491 C487 1.429 . S
C491 C492 1.523 . S
C492 C476 1.368 . S
C492 C488 1.368 . S
C492 C491 1.523 . S
H493 C468 0.950 . S
H494 C470 0.950 . S
H495 C471 0.949 . S
H496 C473 0.950 . S
H497 C475 0.950 . S
C498 C499 1.349 . S
C498 C500 1.327 . S
C498 H523 0.950 1_455 S
C499 C498 1.349 . S
C499 C515 1.349 . S
C500 C498 1.327 . S
C500 C519 1.429 . S
C500 H524 0.950 1_455 S
C501 C518 1.574 . S
C501 C520 1.368 . S
C501 H525 0.949 . S
H502 C506 0.949 . S
C503 C504 1.349 . S
C503 C505 1.327 . S
C503 H526 0.950 . S
C504 C503 1.349 . S
C504 C516 1.349 1_455 S
C505 C503 1.327 . S
C505 C521 1.429 . S
C505 H527 0.950 . S
C506 H502 0.949 . S
C506 C514 1.574 . S
C506 C522 1.368 1_655 S
H507 C515 0.950 . S
H508 C513 0.950 . S
H509 C514 0.949 . S
H510 C516 0.950 . S
H511 C517 0.950 . S
H512 C518 0.949 . S
C513 H508 0.950 . S
C513 C515 1.327 . S
C513 C519 1.429 . S
C514 C506 1.574 . S
C514 H509 0.949 . S
C514 C520 1.368 1_655 S
C515 C499 1.349 . S
C515 H507 0.950 . S
C515 C513 1.327 . S
C516 C504 1.349 1_655 S
C516 H510 0.950 . S
C516 C517 1.327 . S
C517 H511 0.950 . S
C517 C516 1.327 . S
C517 C521 1.429 1_655 S
C518 C501 1.574 . S
C518 H512 0.949 . S
C518 C522 1.368 . S
C519 C500 1.429 . S
C519 C513 1.429 . S
C519 C520 1.523 . S
C520 C501 1.368 . S
C520 C514 1.368 1_455 S
C520 C519 1.523 . S
C521 C505 1.429 . S
C521 C517 1.429 1_455 S
C521 C522 1.523 . S
C522 C506 1.368 1_455 S
C522 C518 1.368 . S
C522 C521 1.523 . S
H523 C498 0.950 1_655 S
H524 C500 0.950 1_655 S
H525 C501 0.949 . S
H526 C503 0.950 . S
H527 C505 0.950 . S
C528 C529 1.349 . S
C528 C530 1.327 . S
C528 H553 0.950 . S
C529 C528 1.349 . S
C529 C545 1.349 . S
C530 C528 1.327 . S
C530 C549 1.429 . S
C530 H554 0.950 . S
C531 C548 1.574 . S
C531 C550 1.368 . S
C531 H555 0.949 . S
H532 C536 0.949 1_565 S
C533 C534 1.349 . S
C533 C535 1.327 . S
C533 H556 0.950 . S
C534 C533 1.349 . S
C534 C546 1.349 1_545 S
C535 C533 1.327 . S
C535 C551 1.429 . S
C535 H557 0.950 . S
C536 H532 0.949 1_545 S
C536 C544 1.574 . S
C536 C552 1.368 . S
H537 C545 0.950 . S
H538 C543 0.950 . S
H539 C544 0.949 1_565 S
H540 C546 0.950 . S
H541 C547 0.950 . S
H542 C548 0.949 . S
C543 H538 0.950 . S
C543 C545 1.327 . S
C543 C549 1.429 . S
C544 C536 1.574 . S
C544 H539 0.949 1_545 S
C544 C550 1.368 . S
C545 C529 1.349 . S
C545 H537 0.950 . S
C545 C543 1.327 . S
C546 C534 1.349 1_565 S
C546 H540 0.950 . S
C546 C547 1.327 . S
C547 H541 0.950 . S
C547 C546 1.327 . S
C547 C551 1.429 1_565 S
C548 C531 1.574 . S
C548 H542 0.949 . S
C548 C552 1.368 . S
C549 C530 1.429 . S
C549 C543 1.429 . S
C549 C550 1.523 . S
C550 C531 1.368 . S
C550 C544 1.368 . S
C550 C549 1.523 . S
C551 C535 1.429 . S
C551 C547 1.429 1_545 S
C551 C552 1.523 . S
C552 C536 1.368 . S
C552 C548 1.368 . S
C552 C551 1.523 . S
H553 C528 0.950 . S
H554 C530 0.950 . S
H555 C531 0.949 . S
H556 C533 0.950 . S
H557 C535 0.950 . S
C558 C559 1.349 . S
C558 C560 1.327 . S
C558 H583 0.950 . S
C559 C558 1.349 . S
C559 C575 1.349 . S
C560 C558 1.327 . S
C560 C579 1.429 . S
C560 H584 0.950 . S
C561 C578 1.574 . S
C561 C580 1.368 . S
C561 H585 0.949 . S
H562 C566 0.949 . S
C563 C564 1.349 . S
C563 C565 1.327 . S
C563 H586 0.950 . S
C564 C563 1.349 . S
C564 C576 1.349 . S
C565 C563 1.327 . S
C565 C581 1.429 . S
C565 H587 0.950 . S
C566 H562 0.949 . S
C566 C574 1.574 . S
C566 C582 1.368 . S
H567 C575 0.950 . S
H568 C573 0.950 . S
H569 C574 0.949 . S
H570 C576 0.950 . S
H571 C577 0.950 . S
H572 C578 0.949 . S
C573 H568 0.950 . S
C573 C575 1.327 . S
C573 C579 1.429 . S
C574 C566 1.574 . S
C574 H569 0.949 . S
C574 C580 1.368 . S
C575 C559 1.349 . S
C575 H567 0.950 . S
C575 C573 1.327 . S
C576 C564 1.349 . S
C576 H570 0.950 . S
C576 C577 1.327 . S
C577 H571 0.950 . S
C577 C576 1.327 . S
C577 C581 1.429 . S
C578 C561 1.574 . S
C578 H572 0.949 . S
C578 C582 1.368 . S
C579 C560 1.429 . S
C579 C573 1.429 . S
C579 C580 1.523 . S
C580 C561 1.368 . S
C580 C574 1.368 . S
C580 C579 1.523 . S
C581 C565 1.429 . S
C581 C577 1.429 . S
C581 C582 1.523 . S
C582 C566 1.368 . S
C582 C578 1.368 . S
C582 C581 1.523 . S
H583 C558 0.950 . S
H584 C560 0.950 . S
H585 C561 0.949 . S
H586 C563 0.950 . S
H587 C565 0.950 . S
C588 C589 1.349 . S
C588 C590 1.327 . S
C588 H613 0.950 1_545 S
C589 C588 1.349 . S
C589 C605 1.349 . S
C590 C588 1.327 . S
C590 C609 1.429 . S
C590 H614 0.950 1_545 S
C591 C608 1.574 . S
C591 C610 1.368 . S
C591 H615 0.949 . S
H592 C596 0.949 . S
C593 C594 1.349 . S
C593 C595 1.327 . S
C593 H616 0.950 . S
C594 C593 1.349 . S
C594 C606 1.349 1_545 S
C595 C593 1.327 . S
C595 C611 1.429 . S
C595 H617 0.950 . S
C596 H592 0.949 . S
C596 C604 1.574 . S
C596 C612 1.368 1_565 S
H597 C605 0.950 . S
H598 C603 0.950 . S
H599 C604 0.949 . S
H600 C606 0.950 . S
H601 C607 0.950 . S
H602 C608 0.949 . S
C603 H598 0.950 . S
C603 C605 1.327 . S
C603 C609 1.429 . S
C604 C596 1.574 . S
C604 H599 0.949 . S
C604 C610 1.368 1_565 S
C605 C589 1.349 . S
C605 H597 0.950 . S
C605 C603 1.327 . S
C606 C594 1.349 1_565 S
C606 H600 0.950 . S
C606 C607 1.327 . S
C607 H601 0.950 . S
C607 C606 1.327 . S
C607 C611 1.429 1_565 S
C608 C591 1.574 . S
C608 H602 0.949 . S
C608 C612 1.368 . S
C609 C590 1.429 . S
C609 C603 1.429 . S
C609 C610 1.523 . S
C610 C591 1.368 . S
C610 C604 1.368 1_545 S
C610 C609 1.523 . S
C611 C595 1.429 . S
C611 C607 1.429 1_545 S
C611 C612 1.523 . S
C612 C596 1.368 1_545 S
C612 C608 1.368 . S
C612 C611 1.523 . S
H613 C588 0.950 1_565 S
H614 C590 0.950 1_565 S
H615 C591 0.949 . S
H616 C593 0.950 . S
H617 C595 0.950 . S
C618 C619 1.349 . S
C618 C620 1.327 . S
C618 H643 0.950 . S
C619 C618 1.349 . S
C619 C635 1.349 . S
C620 C618 1.327 . S
C620 C639 1.429 . S
C620 H644 0.950 . S
C621 C638 1.574 . S
C621 C640 1.368 . S
C621 H645 0.949 . S
H622 C626 0.949 . S
C623 C624 1.349 . S
C623 C625 1.327 . S
C623 H646 0.950 . S
C624 C623 1.349 . S
C624 C636 1.349 . S
C625 C623 1.327 . S
C625 C641 1.429 . S
C625 H647 0.950 . S
C626 H622 0.949 . S
C626 C634 1.574 . S
C626 C642 1.368 . S
H627 C635 0.950 1_554 S
H628 C633 0.950 . S
H629 C634 0.949 . S
H630 C636 0.950 . S
H631 C637 0.950 . S
H632 C638 0.949 . S
C633 H628 0.950 . S
C633 C635 1.327 . S
C633 C639 1.429 . S
C634 C626 1.574 . S
C634 H629 0.949 . S
C634 C640 1.368 . S
C635 C619 1.349 . S
C635 H627 0.950 1_556 S
C635 C633 1.327 . S
C636 C624 1.349 . S
C636 H630 0.950 . S
C636 C637 1.327 . S
C637 H631 0.950 . S
C637 C636 1.327 . S
C637 C641 1.429 . S
C638 C621 1.574 . S
C638 H632 0.949 . S
C638 C642 1.368 . S
C639 C620 1.429 . S
C639 C633 1.429 . S
C639 C640 1.523 . S
C640 C621 1.368 . S
C640 C634 1.368 . S
C640 C639 1.523 . S
C641 C625 1.429 . S
C641 C637 1.429 . S
C641 C642 1.523 . S
C642 C626 1.368 . S
C642 C638 1.368 . S
C642 C641 1.523 . S
H643 C618 0.950 . S
H644 C620 0.950 . S
H645 C621 0.949 . S
H646 C623 0.950 . S
H647 C625 0.950 . S
C648 C649 1.349 . S
C648 C650 1.327 . S
C648 H673 0.950 1_655 S
C649 C648 1.349 . S
C649 C665 1.349 . S
C650 C648 1.327 . S
C650 C669 1.429 . S
C650 H674 0.950 1_655 S
C651 C668 1.574 . S
C651 C670 1.368 . S
C651 H675 0.949 . S
H652 C656 0.949 . S
C653 C654 1.349 . S
C653 C655 1.327 . S
C653 H676 0.950 . S
C654 C653 1.349 . S
C654 C666 1.349 1_655 S
C655 C653 1.327 . S
C655 C671 1.429 . S
C655 H677 0.950 . S
C656 H652 0.949 . S
C656 C664 1.574 . S
C656 C672 1.368 1_455 S
H657 C665 0.950 . S
H658 C663 0.950 . S
H659 C664 0.949 . S
H660 C666 0.950 . S
H661 C667 0.950 . S
H662 C668 0.949 . S
C663 H658 0.950 . S
C663 C665 1.327 . S
C663 C669 1.429 . S
C664 C656 1.574 . S
C664 H659 0.949 . S
C664 C670 1.368 1_455 S
C665 C649 1.349 . S
C665 H657 0.950 . S
C665 C663 1.327 . S
C666 C654 1.349 1_455 S
C666 H660 0.950 . S
C666 C667 1.327 . S
C667 H661 0.950 . S
C667 C666 1.327 . S
C667 C671 1.429 1_455 S
C668 C651 1.574 . S
C668 H662 0.949 . S
C668 C672 1.368 . S
C669 C650 1.429 . S
C669 C663 1.429 . S
C669 C670 1.523 . S
C670 C651 1.368 . S
C670 C664 1.368 1_655 S
C670 C669 1.523 . S
C671 C655 1.429 . S
C671 C667 1.429 1_655 S
C671 C672 1.523 . S
C672 C656 1.368 1_655 S
C672 C668 1.368 . S
C672 C671 1.523 . S
H673 C648 0.950 1_455 S
H674 C650 0.950 1_455 S
H675 C651 0.949 . S
H676 C653 0.950 . S
H677 C655 0.950 . S
C678 C679 1.349 . S
C678 C680 1.327 . S
C678 H703 0.950 . S
C679 C678 1.349 . S
C679 C695 1.349 . S
C680 C678 1.327 . S
C680 C699 1.429 . S
C680 H704 0.950 . S
C681 C698 1.574 1_565 S
C681 C700 1.368 . S
C681 H705 0.949 1_565 S
H682 C686 0.949 . S
C683 C684 1.349 1_545 S
C683 C685 1.327 . S
C683 H706 0.950 . S
C684 C683 1.349 1_565 S
C684 C696 1.349 . S
C685 C683 1.327 . S
C685 C701 1.429 1_545 S
C685 H707 0.950 . S
C686 H682 0.949 . S
C686 C694 1.574 . S
C686 C702 1.368 . S
H687 C695 0.950 . S
H688 C693 0.950 1_545 S
H689 C694 0.949 . S
H690 C696 0.950 . S
H691 C697 0.950 . S
H692 C698 0.949 . S
C693 H688 0.950 1_565 S
C693 C695 1.327 . S
C693 C699 1.429 . S
C694 C686 1.574 . S
C694 H689 0.949 . S
C694 C700 1.368 . S
C695 C679 1.349 . S
C695 H687 0.950 . S
C695 C693 1.327 . S
C696 C684 1.349 . S
C696 H690 0.950 . S
C696 C697 1.327 . S
C697 H691 0.950 . S
C697 C696 1.327 . S
C697 C701 1.429 . S
C698 C681 1.574 1_545 S
C698 H692 0.949 . S
C698 C702 1.368 1_545 S
C699 C680 1.429 . S
C699 C693 1.429 . S
C699 C700 1.523 . S
C700 C681 1.368 . S
C700 C694 1.368 . S
C700 C699 1.523 . S
C701 C685 1.429 1_565 S
C701 C697 1.429 . S
C701 C702 1.523 . S
C702 C686 1.368 . S
C702 C698 1.368 1_565 S
C702 C701 1.523 . S
H703 C678 0.950 . S
H704 C680 0.950 . S
H705 C681 0.949 1_545 S
H706 C683 0.950 . S
H707 C685 0.950 . S
C708 C709 1.380 . S
C708 C710 1.372 . S
C708 H733 0.876 1_556 S
C709 C708 1.380 . S
C709 C725 1.349 . S
C710 C708 1.372 . S
C710 C729 1.429 . S
C710 H734 0.950 . S
C711 C728 1.574 . S
C711 C730 1.368 . S
C711 H735 0.949 . S
H712 C716 0.949 . S
C713 C714 1.349 . S
C713 C715 1.327 . S
C713 H736 0.950 . S
C714 C713 1.349 . S
C714 C726 1.349 . S
C715 C713 1.327 . S
C715 C731 1.429 . S
C715 H737 0.950 . S
C716 H712 0.949 . S
C716 C724 1.574 . S
C716 C732 1.368 . S
H717 C725 0.950 . S
H718 C723 0.950 . S
H719 C724 0.949 . S
H720 C726 0.950 . S
H721 C727 0.950 . S
H722 C728 0.949 . S
C723 H718 0.950 . S
C723 C725 1.327 . S
C723 C729 1.429 . S
C724 C716 1.574 . S
C724 H719 0.949 . S
C724 C730 1.368 . S
C725 C709 1.349 . S
C725 H717 0.950 . S
C725 C723 1.327 . S
C726 C714 1.349 . S
C726 H720 0.950 . S
C726 C727 1.327 . S
C727 H721 0.950 . S
C727 C726 1.327 . S
C727 C731 1.429 . S
C728 C711 1.574 . S
C728 H722 0.949 . S
C728 C732 1.368 . S
C729 C710 1.429 . S
C729 C723 1.429 . S
C729 C730 1.523 . S
C730 C711 1.368 . S
C730 C724 1.368 . S
C730 C729 1.523 . S
C731 C715 1.429 . S
C731 C727 1.429 . S
C731 C732 1.523 . S
C732 C716 1.368 . S
C732 C728 1.368 . S
C732 C731 1.523 . S
H733 C708 0.876 1_554 S
H734 C710 0.950 . S
H735 C711 0.949 . S
H736 C713 0.950 . S
H737 C715 0.950 . S
C738 C739 1.349 . S
C738 C740 1.327 . S
C738 H763 0.950 . S
C739 C738 1.349 . S
C739 C755 1.349 . S
C740 C738 1.327 . S
C740 C759 1.429 . S
C740 H764 0.950 . S
C741 C758 1.560 1_455 S
C741 C760 1.382 . S
C741 H765 0.950 1_455 S
H742 C746 0.949 . S
C743 C744 1.349 1_655 S
C743 C745 1.327 . S
C743 H766 0.950 . S
C744 C743 1.349 1_455 S
C744 C756 1.349 . S
C745 C743 1.327 . S
C745 C761 1.429 1_655 S
C745 H767 0.950 . S
C746 H742 0.949 . S
C746 C754 1.574 . S
C746 C762 1.368 . S
H747 C755 0.950 . S
H748 C753 0.950 1_655 S
H749 C754 0.949 . S
H750 C756 0.950 . S
H751 C757 0.950 . S
H752 C758 0.949 . S
C753 H748 0.950 1_455 S
C753 C755 1.327 . S
C753 C759 1.429 . S
C754 C746 1.574 . S
C754 H749 0.949 . S
C754 C760 1.368 . S
C755 C739 1.349 . S
C755 H747 0.950 . S
C755 C753 1.327 . S
C756 C744 1.349 . S
C756 H750 0.950 . S
C756 C757 1.327 . S
C757 H751 0.950 . S
C757 C756 1.327 . S
C757 C761 1.429 . S
C758 C741 1.560 1_655 S
C758 H752 0.949 . S
C758 C762 1.368 1_655 S
C759 C740 1.429 . S
C759 C753 1.429 . S
C759 C760 1.523 . S
C760 C741 1.382 . S
C760 C754 1.368 . S
C760 C759 1.523 . S
C761 C745 1.429 1_455 S
C761 C757 1.429 . S
C761 C762 1.523 . S
C762 C746 1.368 . S
C762 C758 1.368 1_455 S
C762 C761 1.523 . S
H763 C738 0.950 . S
H764 C740 0.950 . S
H765 C741 0.950 1_655 S
H766 C743 0.950 . S
H767 C745 0.950 . S
C414 C285 1.424 1_655 S
C409 C29 1.409 . S
C439 C137 1.409 . S
C444 C333 1.424 1_565 S
C469 C225 1.408 . S
C474 C405 1.410 . S
C499 C49 1.408 . S
C504 C309 1.409 . S
C534 C357 1.409 . S
C529 C117 1.408 . S
C559 C205 1.408 . S
C564 C381 1.424 . S
C594 C342 1.423 1_545 S
C589 C233 1.408 . S
C619 C57 1.409 1_556 S
C624 C396 1.419 . S
C654 C300 1.427 . S
C649 C108 1.409 . S
C684 C348 1.411 . S
C679 C196 1.409 . S
C714 C390 1.423 . S
C709 C20 1.408 1_556 S
C739 C145 1.408 . S
C744 C294 1.423 1_455 S
