# Generated by pormake.
# Topology cml, (3,6)-cn, num edge types: 1
# Building blocks:
#     Node 0, Type 0, BuildingBlock: MIDCAF_clean_linker_0, # of connection points: 3
#     Node 1, Type 0, BuildingBlock: MIDCAF_clean_linker_0, # of connection points: 3
#     Node 2, Type 0, BuildingBlock: MIDCAF_clean_linker_0, # of connection points: 3
#     Node 3, Type 0, BuildingBlock: MIDCAF_clean_linker_0, # of connection points: 3
#     Node 4, Type 0, BuildingBlock: MIDCAF_clean_linker_0, # of connection points: 3
#     Node 5, Type 0, BuildingBlock: MIDCAF_clean_linker_0, # of connection points: 3
#     Node 6, Type 0, BuildingBlock: MIDCAF_clean_linker_0, # of connection points: 3
#     Node 7, Type 0, BuildingBlock: MIDCAF_clean_linker_0, # of connection points: 3
#     Node 8, Type 1, BuildingBlock: IZENUY_clean_sbu_0, # of connection points: 6
#     Node 9, Type 1, BuildingBlock: IZENUY_clean_sbu_0, # of connection points: 6
#     Node 10, Type 1, BuildingBlock: IZENUY_clean_sbu_0, # of connection points: 6
#     Node 11, Type 1, BuildingBlock: IZENUY_clean_sbu_0, # of connection points: 6
#     Edge 12, Type (0, 1), BuildingBlock: EZIPEK_clean_linker_0, # of connection points: 2
#     Edge 13, Type (0, 1), BuildingBlock: EZIPEK_clean_linker_0, # of connection points: 2
#     Edge 14, Type (0, 1), BuildingBlock: EZIPEK_clean_linker_0, # of connection points: 2
#     Edge 15, Type (0, 1), BuildingBlock: EZIPEK_clean_linker_0, # of connection points: 2
#     Edge 16, Type (0, 1), BuildingBlock: EZIPEK_clean_linker_0, # of connection points: 2
#     Edge 17, Type (0, 1), BuildingBlock: EZIPEK_clean_linker_0, # of connection points: 2
#     Edge 18, Type (0, 1), BuildingBlock: EZIPEK_clean_linker_0, # of connection points: 2
#     Edge 19, Type (0, 1), BuildingBlock: EZIPEK_clean_linker_0, # of connection points: 2
#     Edge 20, Type (0, 1), BuildingBlock: EZIPEK_clean_linker_0, # of connection points: 2
#     Edge 21, Type (0, 1), BuildingBlock: EZIPEK_clean_linker_0, # of connection points: 2
#     Edge 22, Type (0, 1), BuildingBlock: EZIPEK_clean_linker_0, # of connection points: 2
#     Edge 23, Type (0, 1), BuildingBlock: EZIPEK_clean_linker_0, # of connection points: 2
#     Edge 24, Type (0, 1), BuildingBlock: EZIPEK_clean_linker_0, # of connection points: 2
#     Edge 25, Type (0, 1), BuildingBlock: EZIPEK_clean_linker_0, # of connection points: 2
#     Edge 26, Type (0, 1), BuildingBlock: EZIPEK_clean_linker_0, # of connection points: 2
#     Edge 27, Type (0, 1), BuildingBlock: EZIPEK_clean_linker_0, # of connection points: 2
#     Edge 28, Type (0, 1), BuildingBlock: EZIPEK_clean_linker_0, # of connection points: 2
#     Edge 29, Type (0, 1), BuildingBlock: EZIPEK_clean_linker_0, # of connection points: 2
#     Edge 30, Type (0, 1), BuildingBlock: EZIPEK_clean_linker_0, # of connection points: 2
#     Edge 31, Type (0, 1), BuildingBlock: EZIPEK_clean_linker_0, # of connection points: 2
#     Edge 32, Type (0, 1), BuildingBlock: EZIPEK_clean_linker_0, # of connection points: 2
#     Edge 33, Type (0, 1), BuildingBlock: EZIPEK_clean_linker_0, # of connection points: 2
#     Edge 34, Type (0, 1), BuildingBlock: EZIPEK_clean_linker_0, # of connection points: 2
#     Edge 35, Type (0, 1), BuildingBlock: EZIPEK_clean_linker_0, # of connection points: 2
# Relax obj value: 0.057
# Max RMSD: 0.073
# Mean RMSD: 0.069
data_MOF--net-cml--node1-IZENUY_clean_sbu_0--node2-MIDCAF_clean_linker_0--edge1-EZIPEK_clean_linker_0
_symmetry_space_group_name_H-M    P1
_symmetry_Int_Tables_number       1
_symmetry_cell_setting            triclinic
loop_
_symmetry_equiv_pos_as_xyz
'x, y, z'
_cell_length_a     33.718077
_cell_length_b     39.115366
_cell_length_c     36.511
_cell_angle_alpha  90.047175
_cell_angle_beta   89.975033
_cell_angle_gamma 90.114069
loop_
_atom_site_label
_atom_site_type_symbol
_atom_site_fract_x
_atom_site_fract_y
_atom_site_fract_z
_atom_type_partial_charge
C0 C 0.3775 0.36666 0.11349 0.0
C1 C 0.3544 0.358 0.1441 0.0
C2 C 0.31322 0.3539 0.13993 0.0
C3 C 0.29544 0.35891 0.10562 0.0
H4 H 0.2082 0.31845 0.02519 0.0
H5 H 0.15966 0.28057 0.99588 0.0
H6 H 0.18497 0.32664 0.89123 0.0
H7 H 0.23293 0.36498 0.92014 0.0
H8 H 0.26867 0.44573 0.92715 0.0
H9 H 0.29734 0.49427 0.8936 0.0
H10 H 0.3953 0.49737 0.96926 0.0
H11 H 0.36707 0.44946 0.00315 0.0
H12 H 0.3782 0.38015 0.05677 0.0
H13 H 0.4093 0.36993 0.11612 0.0
H14 H 0.29487 0.34747 0.1633 0.0
H15 H 0.26358 0.35625 0.10302 0.0
N16 N 0.27021 0.35913 0.02572 0.0
N17 N 0.26961 0.39447 0.97363 0.0
N18 N 0.31461 0.40517 0.02107 0.0
C19 C 0.25501 0.36701 0.99221 0.0
C20 C 0.29925 0.41382 0.98804 0.0
C21 C 0.3002 0.37811 0.04011 0.0
C22 C 0.22447 0.34483 0.97506 0.0
C23 C 0.20336 0.32065 0.99596 0.0
C24 C 0.17564 0.29897 0.97931 0.0
C25 C 0.16892 0.30078 0.94143 0.0
C26 C 0.18979 0.32489 0.92051 0.0
C27 C 0.21709 0.34685 0.93717 0.0
C28 C 0.31561 0.44355 0.9678 0.0
C29 C 0.29623 0.4568 0.93674 0.0
C30 C 0.31239 0.48459 0.91764 0.0
C31 C 0.34833 0.49921 0.92909 0.0
C32 C 0.36748 0.48635 0.96016 0.0
C33 C 0.35124 0.45892 0.97944 0.0
C34 C 0.31853 0.36909 0.07547 0.0
C35 C 0.35971 0.37256 0.07966 0.0
C36 C 0.62794 0.63893 0.61489 0.0
C37 C 0.65117 0.64705 0.64561 0.0
C38 C 0.69248 0.65005 0.6416 0.0
C39 C 0.71026 0.64441 0.60741 0.0
H40 H 0.80031 0.68155 0.5305 0.0
H41 H 0.85074 0.71879 0.50319 0.0
H42 H 0.82754 0.67471 0.39708 0.0
H43 H 0.7776 0.63696 0.42405 0.0
H44 H 0.73913 0.55601 0.43085 0.0
H45 H 0.71074 0.50757 0.39692 0.0
H46 H 0.60778 0.50935 0.46682 0.0
H47 H 0.63577 0.55722 0.50113 0.0
H48 H 0.62714 0.62515 0.55819 0.0
H49 H 0.59603 0.63646 0.61741 0.0
H50 H 0.71093 0.656 0.66504 0.0
H51 H 0.74221 0.64624 0.60498 0.0
N52 N 0.7368 0.6432 0.52853 0.0
N53 N 0.73743 0.60823 0.47615 0.0
N54 N 0.69033 0.59889 0.52224 0.0
C55 C 0.75271 0.63502 0.4954 0.0
C56 C 0.70639 0.58989 0.48954 0.0
C57 C 0.70546 0.6253 0.54193 0.0
C58 C 0.78483 0.65627 0.47947 0.0
C59 C 0.80605 0.6796 0.50139 0.0
C60 C 0.83486 0.7009 0.48588 0.0
C61 C 0.8426 0.69957 0.44815 0.0
C62 C 0.82189 0.67609 0.42626 0.0
C63 C 0.79345 0.65448 0.44179 0.0
C64 C 0.68971 0.56061 0.46871 0.0
C65 C 0.71047 0.5461 0.43904 0.0
C66 C 0.69445 0.51837 0.41972 0.0
C67 C 0.65726 0.50506 0.42948 0.0
C68 C 0.63657 0.51934 0.45901 0.0
C69 C 0.65267 0.54672 0.47855 0.0
C70 C 0.68704 0.63466 0.57717 0.0
C71 C 0.64572 0.63234 0.58116 0.0
C72 C 0.64001 0.38028 0.12545 0.0
C73 C 0.65275 0.35139 0.14463 0.0
C74 C 0.68433 0.33191 0.13082 0.0
C75 C 0.70246 0.34102 0.09764 0.0
H76 H 0.78738 0.31191 0.01953 0.0
H77 H 0.83579 0.27535 0.98861 0.0
H78 H 0.82367 0.33491 0.89008 0.0
H79 H 0.77537 0.37189 0.9206 0.0
H80 H 0.71332 0.43529 0.91903 0.0
H81 H 0.6789 0.48289 0.88892 0.0
H82 H 0.63426 0.51678 0.99339 0.0
H83 H 0.66819 0.4697 0.0237 0.0
H84 H 0.64716 0.41191 0.07848 0.0
H85 H 0.61573 0.39561 0.13583 0.0
H86 H 0.69452 0.30952 0.14547 0.0
H87 H 0.72646 0.32538 0.08731 0.0
N88 N 0.73397 0.35906 0.02512 0.0
N89 N 0.73541 0.39663 0.97483 0.0
N90 N 0.69493 0.40845 0.02533 0.0
C91 C 0.74836 0.36752 0.99141 0.0
C92 C 0.70886 0.41735 0.99184 0.0
C93 C 0.70708 0.37946 0.0422 0.0
C94 C 0.77743 0.34498 0.97264 0.0
C95 C 0.79482 0.31729 0.99126 0.0
C96 C 0.8225 0.29633 0.97368 0.0
C97 C 0.8331 0.3025 0.93716 0.0
C98 C 0.8157 0.32981 0.9183 0.0
C99 C 0.78819 0.35094 0.93589 0.0
C100 C 0.69308 0.44838 0.97372 0.0
C101 C 0.69684 0.45326 0.93568 0.0
C102 C 0.67731 0.48043 0.91843 0.0
C103 C 0.65414 0.50316 0.93905 0.0
C104 C 0.65212 0.49946 0.97713 0.0
C105 C 0.67138 0.47237 0.99432 0.0
C106 C 0.68941 0.3699 0.07805 0.0
C107 C 0.65816 0.38953 0.09262 0.0
C108 C 0.37317 0.62799 0.62657 0.0
C109 C 0.35842 0.65563 0.6467 0.0
C110 C 0.32593 0.67414 0.63329 0.0
C111 C 0.30883 0.66534 0.5996 0.0
H112 H 0.22884 0.69717 0.52082 0.0
H113 H 0.18008 0.73403 0.49113 0.0
H114 H 0.18837 0.67395 0.3925 0.0
H115 H 0.23717 0.6366 0.42183 0.0
H116 H 0.30032 0.57309 0.41919 0.0
H117 H 0.33363 0.52499 0.38879 0.0
H118 H 0.37996 0.4915 0.49268 0.0
H119 H 0.34715 0.53905 0.52327 0.0
H120 H 0.36847 0.59763 0.5783 0.0
H121 H 0.39819 0.61343 0.63667 0.0
H122 H 0.31419 0.69553 0.64869 0.0
H123 H 0.28401 0.6802 0.58964 0.0
N124 N 0.2801 0.64897 0.52599 0.0
N125 N 0.27917 0.61207 0.47511 0.0
N126 N 0.31935 0.59973 0.52569 0.0
C127 C 0.26604 0.64096 0.49208 0.0
C128 C 0.30571 0.5912 0.49196 0.0
C129 C 0.30689 0.62847 0.54291 0.0
C130 C 0.23696 0.66375 0.4738 0.0
C131 C 0.22055 0.69173 0.49276 0.0
C132 C 0.1927 0.71291 0.47588 0.0
C133 C 0.1809 0.70667 0.43971 0.0
C134 C 0.19737 0.67913 0.42044 0.0
C135 C 0.22513 0.65779 0.43734 0.0
C136 C 0.32144 0.56022 0.47361 0.0
C137 C 0.31702 0.55516 0.43565 0.0
C138 C 0.33592 0.52771 0.41824 0.0
C139 C 0.35915 0.50487 0.43861 0.0
C140 C 0.36205 0.50889 0.47661 0.0
C141 C 0.34341 0.53626 0.49396 0.0
C142 C 0.3238 0.63769 0.57911 0.0
C143 C 0.35601 0.61901 0.59321 0.0
C144 C 0.87638 0.87793 0.12223 0.0
C145 C 0.86087 0.85119 0.14339 0.0
C146 C 0.82909 0.83179 0.1298 0.0
C147 C 0.81282 0.83919 0.09549 0.0
H148 H 0.74866 0.79678 0.00709 0.0
H149 H 0.69748 0.76087 0.98333 0.0
H150 H 0.65808 0.84292 0.91326 0.0
H151 H 0.71051 0.87862 0.93664 0.0
H152 H 0.76964 0.94576 0.92974 0.0
H153 H 0.79549 0.99555 0.89632 0.0
H154 H 0.89601 0.99979 0.96902 0.0
H155 H 0.87055 0.95072 0.0028 0.0
H156 H 0.87255 0.90648 0.07251 0.0
H157 H 0.90086 0.89319 0.13242 0.0
H158 H 0.81669 0.81113 0.14594 0.0
H159 H 0.78808 0.82394 0.08589 0.0
N160 N 0.78104 0.85515 0.02361 0.0
N161 N 0.7753 0.89275 0.97377 0.0
N162 N 0.82117 0.90394 0.02057 0.0
C163 C 0.76374 0.86365 0.99123 0.0
C164 C 0.8042 0.91295 0.98827 0.0
C165 C 0.80971 0.87522 0.03853 0.0
C166 C 0.73227 0.84145 0.97563 0.0
C167 C 0.72783 0.80771 0.9878 0.0
C168 C 0.69691 0.78722 0.97484 0.0
C169 C 0.66736 0.8004 0.95122 0.0
C170 C 0.6754 0.83288 0.93564 0.0
C171 C 0.70669 0.85334 0.94823 0.0
C172 C 0.81813 0.94404 0.96884 0.0
C173 C 0.79708 0.95745 0.9388 0.0
C174 C 0.81161 0.98595 0.91981 0.0
C175 C 0.84759 1.00113 0.93031 0.0
C176 C 0.86813 0.98837 0.96066 0.0
C177 C 0.85349 0.96024 0.97986 0.0
C178 C 0.82789 0.86633 0.0743 0.0
C179 C 0.86005 0.88548 0.08803 0.0
C180 C 0.13049 0.12056 0.61813 0.0
C181 C 0.15033 0.14154 0.64395 0.0
C182 C 0.17944 0.16408 0.62963 0.0
C183 C 0.1925 0.16132 0.59322 0.0
H184 H 0.27087 0.20157 0.51483 0.0
H185 H 0.32204 0.23832 0.48803 0.0
H186 H 0.3161 0.18119 0.38726 0.0
H187 H 0.26502 0.14417 0.41353 0.0
H188 H 0.22521 0.06826 0.4167 0.0
H189 H 0.2002 0.01854 0.38263 0.0
H190 H 0.10234 0.00975 0.45798 0.0
H191 H 0.12707 0.05883 0.49246 0.0
H192 H 0.12801 0.10018 0.56405 0.0
H193 H 0.10455 0.1058 0.62548 0.0
H194 H 0.19239 0.18442 0.64538 0.0
H195 H 0.21608 0.17803 0.58388 0.0
N196 N 0.21898 0.15267 0.517 0.0
N197 N 0.22029 0.11907 0.46361 0.0
N198 N 0.17817 0.10432 0.51206 0.0
C199 C 0.23355 0.14667 0.48278 0.0
C200 C 0.19258 0.09777 0.47809 0.0
C201 C 0.19112 0.13159 0.53178 0.0
C202 C 0.26382 0.16973 0.46645 0.0
C203 C 0.28019 0.19683 0.4869 0.0
C204 C 0.30938 0.21793 0.47166 0.0
C205 C 0.32259 0.21242 0.43572 0.0
C206 C 0.30606 0.18582 0.41501 0.0
C207 C 0.27696 0.16465 0.43021 0.0
C208 C 0.17808 0.06765 0.45728 0.0
C209 C 0.1984 0.05574 0.42607 0.0
C210 C 0.18432 0.02729 0.40666 0.0
C211 C 0.14947 0.01069 0.41788 0.0
C212 C 0.12931 0.02233 0.44902 0.0
C213 C 0.14354 0.05041 0.46865 0.0
C214 C 0.17561 0.13717 0.56941 0.0
C215 C 0.14343 0.11778 0.58203 0.0
C216 C 0.13319 0.87498 0.12249 0.0
C217 C 0.14814 0.84723 0.1423 0.0
C218 C 0.18112 0.82934 0.12894 0.0
C219 C 0.19866 0.83893 0.0957 0.0
H220 H 0.28356 0.81135 0.01943 0.0
H221 H 0.33325 0.77522 0.9899 0.0
H222 H 0.32196 0.83338 0.89032 0.0
H223 H 0.27226 0.87002 0.9195 0.0
H224 H 0.20754 0.93227 0.91675 0.0
H225 H 0.17373 0.97997 0.88627 0.0
H226 H 0.12896 0.01462 0.99042 0.0
H227 H 0.16215 0.96728 0.02106 0.0
H228 H 0.13823 0.9062 0.07489 0.0
H229 H 0.1078 0.88908 0.13257 0.0
H230 H 0.19303 0.8079 0.1441 0.0
H231 H 0.22393 0.82457 0.08583 0.0
N232 N 0.22899 0.85708 0.02331 0.0
N233 N 0.23043 0.89459 0.97306 0.0
N234 N 0.18855 0.90561 0.02289 0.0
C235 C 0.2438 0.86577 0.98989 0.0
C236 C 0.20297 0.91478 0.98961 0.0
C237 C 0.20122 0.87685 0.03992 0.0
C238 C 0.27385 0.84372 0.97189 0.0
C239 C 0.29146 0.81655 0.99122 0.0
C240 C 0.31988 0.79583 0.97446 0.0
C241 C 0.33104 0.80171 0.93805 0.0
C242 C 0.31353 0.82854 0.91848 0.0
C243 C 0.28524 0.84946 0.93528 0.0
C244 C 0.18713 0.94568 0.97129 0.0
C245 C 0.19111 0.95039 0.93324 0.0
C246 C 0.17193 0.97762 0.91578 0.0
C247 C 0.14896 1.00068 0.9362 0.0
C248 C 0.14668 0.99708 0.9743 0.0
C249 C 0.16549 0.96984 0.99168 0.0
C250 C 0.18361 0.86675 0.07558 0.0
C251 C 0.15077 0.88473 0.08954 0.0
C252 C 0.86962 0.12444 0.62266 0.0
C253 C 0.85511 0.15233 0.64255 0.0
C254 C 0.82277 0.17094 0.629 0.0
C255 C 0.80561 0.16201 0.59538 0.0
H256 H 0.72623 0.19447 0.5163 0.0
H257 H 0.67761 0.23135 0.48628 0.0
H258 H 0.68505 0.17007 0.38843 0.0
H259 H 0.7336 0.1328 0.41803 0.0
H260 H 0.79233 0.0678 0.41605 0.0
H261 H 0.82482 0.01972 0.38492 0.0
H262 H 0.87909 0.98947 0.48662 0.0
H263 H 0.84707 0.03695 0.51799 0.0
H264 H 0.86466 0.09378 0.5746 0.0
H265 H 0.89454 0.10981 0.63286 0.0
H266 H 0.81125 0.19254 0.64419 0.0
H267 H 0.78094 0.17698 0.5853 0.0
N268 N 0.77678 0.14555 0.52195 0.0
N269 N 0.77553 0.10857 0.47117 0.0
N270 N 0.81572 0.09609 0.52169 0.0
C271 C 0.76265 0.13757 0.48808 0.0
C272 C 0.80195 0.08759 0.48798 0.0
C273 C 0.80343 0.12492 0.5389 0.0
C274 C 0.73382 0.16049 0.46967 0.0
C275 C 0.71779 0.18882 0.48833 0.0
C276 C 0.69006 0.21001 0.47126 0.0
C277 C 0.67806 0.20342 0.4352 0.0
C278 C 0.69424 0.17556 0.41626 0.0
C279 C 0.72184 0.15424 0.43332 0.0
C280 C 0.81745 0.05657 0.46947 0.0
C281 C 0.81061 0.05059 0.43194 0.0
C282 C 0.82899 0.02311 0.41411 0.0
C283 C 0.85419 1.00118 0.43361 0.0
C284 C 0.85957 0.00611 0.47126 0.0
C285 C 0.84138 0.03346 0.48903 0.0
C286 C 0.82037 0.13415 0.57508 0.0
C287 C 0.85238 0.11534 0.58935 0.0
Fe288 Fe 0.0034 0.8002 0.31916 0.0
Fe289 Fe 0.00954 0.84706 0.38662 0.0
O290 O 0.00544 0.8418 0.33851 0.0
Fe291 Fe 0.00317 0.87806 0.30937 0.0
O292 O 0.95496 0.86542 0.29198 0.0
O293 O 0.97131 0.8126 0.28074 0.0
O294 O 0.95867 0.78979 0.34445 0.0
C295 C 0.95561 0.79117 0.37885 0.0
C296 C 0.05218 0.83213 0.27035 0.0
O297 O 0.97943 0.809 0.39788 0.0
C298 C 0.05943 0.89968 0.35769 0.0
O299 O 0.03513 0.78012 0.35396 0.0
O300 O 0.05541 0.82293 0.38823 0.0
O301 O 0.02914 0.8576 0.27102 0.0
O302 O 0.04809 0.80771 0.29255 0.0
C303 C 0.95727 0.89853 0.37085 0.0
O304 O 0.04022 0.88595 0.38371 0.0
O305 O 0.05112 0.89331 0.32475 0.0
C306 C 0.05944 0.79284 0.37654 0.0
O307 O 0.96411 0.8718 0.38898 0.0
O308 O 0.97692 0.90547 0.3423 0.0
C309 C 0.94701 0.83701 0.27733 0.0
Fe310 Fe 0.99783 0.15781 0.88643 0.0
Fe311 Fe 0.99814 0.12098 0.81236 0.0
O312 O 1.00011 0.15936 0.83795 0.0
Fe313 Fe 0.00468 0.19917 0.81486 0.0
O314 O 0.05096 0.20881 0.83803 0.0
O315 O 0.03054 0.1951 0.89345 0.0
O316 O 0.04184 0.13123 0.88921 0.0
C317 C 0.04567 0.10287 0.87323 0.0
C318 C 0.95102 0.21327 0.87303 0.0
O319 O 0.02349 0.0947 0.84676 0.0
C320 C 0.95174 0.16687 0.77032 0.0
O321 O 0.96467 0.12026 0.88802 0.0
O322 O 0.94975 0.11011 0.83039 0.0
O323 O 0.97546 0.22332 0.84891 0.0
O324 O 0.95371 0.18405 0.88721 0.0
C325 C 0.05455 0.15475 0.77338 0.0
O326 O 0.97224 0.13994 0.77304 0.0
O327 O 0.95863 0.19253 0.79018 0.0
C328 C 0.94292 0.10612 0.864 0.0
O329 O 0.04653 0.12926 0.79303 0.0
O330 O 0.03452 0.18206 0.77629 0.0
C331 C 0.05489 0.21008 0.87234 0.0
Fe332 Fe 0.50151 0.30407 0.31639 0.0
Fe333 Fe 0.50846 0.34588 0.38804 0.0
O334 O 0.50565 0.34409 0.3395 0.0
Fe335 Fe 0.50674 0.3825 0.31369 0.0
O336 O 0.45815 0.37354 0.29463 0.0
O337 O 0.47098 0.32073 0.27848 0.0
O338 O 0.45601 0.2933 0.34047 0.0
C339 C 0.4514 0.29349 0.37486 0.0
C340 C 0.55342 0.33713 0.27117 0.0
O341 O 0.47506 0.30963 0.3955 0.0
C342 C 0.56266 0.39804 0.36485 0.0
O343 O 0.53147 0.28017 0.34926 0.0
O344 O 0.55216 0.31873 0.3888 0.0
O345 O 0.53254 0.36381 0.27409 0.0
O346 O 0.54702 0.3114 0.291 0.0
C347 C 0.46048 0.40107 0.37546 0.0
O348 O 0.54203 0.3831 0.38914 0.0
O349 O 0.55519 0.39413 0.33129 0.0
C350 C 0.55483 0.28944 0.3744 0.0
O351 O 0.46477 0.37285 0.3915 0.0
O352 O 0.48152 0.40886 0.34811 0.0
C353 C 0.45072 0.34779 0.27508 0.0
Fe354 Fe 0.49797 0.65737 0.89093 0.0
Fe355 Fe 0.50147 0.62202 0.81604 0.0
O356 O 0.50198 0.65985 0.84263 0.0
Fe357 Fe 0.50687 0.70027 0.82084 0.0
O358 O 0.55268 0.70943 0.84536 0.0
O359 O 0.52948 0.69495 0.89955 0.0
O360 O 0.5424 0.63149 0.89446 0.0
C361 C 0.54788 0.60375 0.87766 0.0
C362 C 0.45124 0.71275 0.8775 0.0
O363 O 0.52702 0.59565 0.85023 0.0
C364 C 0.45489 0.66851 0.77473 0.0
O365 O 0.46579 0.61927 0.89106 0.0
O366 O 0.45307 0.60962 0.83294 0.0
O367 O 0.47688 0.72352 0.85489 0.0
O368 O 0.4533 0.68305 0.89071 0.0
C369 C 0.55722 0.65735 0.77812 0.0
O370 O 0.47551 0.64158 0.77705 0.0
O371 O 0.46141 0.69392 0.79513 0.0
C372 C 0.44527 0.60503 0.86627 0.0
O373 O 0.55003 0.63149 0.79743 0.0
O374 O 0.53718 0.68445 0.78226 0.0
C375 C 0.55475 0.71046 0.87988 0.0
C376 C 0.10458 0.29087 0.90834 0.0
C377 C 0.13999 0.27741 0.92345 0.0
C378 C 0.11894 0.21947 0.90637 0.0
C379 C 0.08519 0.23327 0.88846 0.0
N380 N 0.0501 0.28295 0.86616 0.0
N381 N 0.18477 0.22988 0.93067 0.0
C382 C 0.07938 0.26924 0.88741 0.0
C383 C 0.14827 0.24193 0.9208 0.0
N384 N 0.09407 0.32399 0.91535 0.0
N385 N 0.12291 0.18489 0.90981 0.0
H386 H 0.20723 0.24558 0.94088 0.0
H387 H 0.19408 0.20493 0.92569 0.0
H388 H 0.10309 0.16768 0.8981 0.0
H389 H 0.14428 0.17336 0.92624 0.0
H390 H 0.06647 0.33409 0.90859 0.0
H391 H 0.11139 0.34053 0.93109 0.0
H392 H 0.04743 0.30907 0.86123 0.0
H393 H 0.03039 0.26823 0.85089 0.0
C394 C 0.90783 0.70989 0.41668 0.0
C395 C 0.87207 0.72313 0.43131 0.0
C396 C 0.89382 0.78129 0.41628 0.0
C397 C 0.92726 0.76778 0.39757 0.0
N398 N 0.96365 0.71835 0.37612 0.0
N399 N 0.82748 0.77075 0.43913 0.0
C400 C 0.93346 0.7318 0.3965 0.0
C401 C 0.86409 0.75868 0.42957 0.0
N402 N 0.91813 0.67667 0.42334 0.0
N403 N 0.89051 0.81567 0.42179 0.0
H404 H 0.80464 0.75499 0.44845 0.0
H405 H 0.81852 0.79586 0.43455 0.0
H406 H 0.91141 0.83307 0.4123 0.0
H407 H 0.86901 0.82664 0.43857 0.0
H408 H 0.94585 0.66659 0.41697 0.0
H409 H 0.90038 0.65996 0.43845 0.0
H410 H 0.96651 0.69232 0.37078 0.0
H411 H 0.98446 0.73321 0.36236 0.0
C412 C 0.90404 0.28859 0.9231 0.0
C413 C 0.86323 0.28066 0.91895 0.0
C414 C 0.8802 0.23138 0.88041 0.0
C415 C 0.92098 0.2373 0.88768 0.0
N416 N 0.97177 0.26829 0.92044 0.0
N417 N 0.81183 0.24292 0.89708 0.0
C418 C 0.93299 0.26518 0.91006 0.0
C419 C 0.8511 0.25161 0.89848 0.0
N420 N 0.91511 0.31873 0.93916 0.0
N421 N 0.86942 0.20705 0.85539 0.0
H422 H 0.78961 0.25769 0.9091 0.0
H423 H 0.80145 0.21997 0.88625 0.0
H424 H 0.89002 0.19184 0.84168 0.0
H425 H 0.84053 0.20374 0.84597 0.0
H426 H 0.94416 0.32781 0.93926 0.0
H427 H 0.89476 0.33614 0.94987 0.0
H428 H 0.98171 0.28581 0.93986 0.0
H429 H 0.9937 0.25133 0.91202 0.0
C430 C 0.16098 0.75653 0.4004 0.0
C431 C 0.14992 0.72832 0.42259 0.0
C432 C 0.0799 0.74404 0.41691 0.0
C433 C 0.09065 0.77075 0.39249 0.0
N434 N 0.14038 0.79917 0.35613 0.0
N435 N 0.0991 0.69156 0.44733 0.0
C436 C 0.13097 0.77616 0.38292 0.0
C437 C 0.10941 0.72097 0.42943 0.0
N438 N 0.20015 0.76498 0.39671 0.0
N439 N 0.0418 0.7416 0.42943 0.0
H440 H 0.1199 0.67434 0.45759 0.0
H441 H 0.07002 0.68275 0.44944 0.0
H442 H 0.01947 0.75826 0.42132 0.0
H443 H 0.03298 0.72506 0.45024 0.0
H444 H 0.20995 0.78743 0.38435 0.0
H445 H 0.22295 0.75066 0.40837 0.0
H446 H 0.16869 0.80183 0.3451 0.0
H447 H 0.11907 0.81381 0.34274 0.0
C448 C 0.62597 0.74496 0.95106 0.0
C449 C 0.63122 0.7793 0.93972 0.0
C450 C 0.57968 0.77026 0.89312 0.0
C451 C 0.58273 0.73427 0.89847 0.0
N452 N 0.61188 0.68735 0.93209 0.0
N453 N 0.58868 0.82549 0.92165 0.0
C454 C 0.60675 0.72164 0.92734 0.0
C455 C 0.60133 0.79272 0.91648 0.0
N456 N 0.63205 0.73617 0.98673 0.0
N457 N 0.5558 0.78332 0.86638 0.0
H458 H 0.59911 0.84035 0.9434 0.0
H459 H 0.56424 0.83593 0.90831 0.0
H460 H 0.53707 0.76848 0.85023 0.0
H461 H 0.55646 0.80901 0.85885 0.0
H462 H 0.62524 0.71201 0.99706 0.0
H463 H 0.63777 0.75466 0.00671 0.0
H464 H 0.63169 0.67742 0.95127 0.0
H465 H 0.59955 0.66927 0.91452 0.0
C466 C 0.39479 0.2265 0.43069 0.0
C467 C 0.35523 0.23354 0.42034 0.0
C468 C 0.37837 0.2794 0.37967 0.0
C469 C 0.41808 0.27368 0.39166 0.0
N470 N 0.46206 0.24667 0.43582 0.0
N471 N 0.30798 0.26953 0.38969 0.0
C472 C 0.42571 0.24882 0.41939 0.0
C473 C 0.34662 0.26075 0.39604 0.0
N474 N 0.40312 0.19762 0.45035 0.0
N475 N 0.37081 0.30302 0.35301 0.0
H476 H 0.28407 0.25615 0.40085 0.0
H477 H 0.29941 0.29147 0.3757 0.0
H478 H 0.39211 0.31991 0.34305 0.0
H479 H 0.34375 0.30504 0.3395 0.0
H480 H 0.43183 0.18868 0.45464 0.0
H481 H 0.38133 0.18074 0.45959 0.0
H482 H 0.46725 0.23212 0.45921 0.0
H483 H 0.48654 0.26129 0.42859 0.0
C484 C 0.40236 0.78855 0.92506 0.0
C485 C 0.36177 0.77994 0.92073 0.0
C486 C 0.38003 0.72993 0.88392 0.0
C487 C 0.4206 0.73649 0.89155 0.0
N488 N 0.47056 0.76932 0.92342 0.0
N489 N 0.3113 0.74092 0.89957 0.0
C490 C 0.43189 0.76521 0.91302 0.0
C491 C 0.35038 0.75019 0.90109 0.0
N492 N 0.41265 0.81926 0.94031 0.0
N493 N 0.36996 0.70517 0.85915 0.0
H494 H 0.28864 0.75571 0.91082 0.0
H495 H 0.30153 0.71749 0.88941 0.0
H496 H 0.39099 0.69017 0.84577 0.0
H497 H 0.34124 0.70141 0.84947 0.0
H498 H 0.44151 0.82878 0.94044 0.0
H499 H 0.39184 0.83663 0.9503 0.0
H500 H 0.47999 0.78753 0.94233 0.0
H501 H 0.49303 0.75266 0.91554 0.0
C502 C 0.65695 0.25652 0.40177 0.0
C503 C 0.64686 0.22466 0.41781 0.0
C504 C 0.57718 0.23249 0.40035 0.0
C505 C 0.58663 0.26567 0.38676 0.0
N506 N 0.63648 0.30439 0.36405 0.0
N507 N 0.59743 0.18386 0.43696 0.0
C508 C 0.62685 0.27646 0.38478 0.0
C509 C 0.60705 0.21294 0.41806 0.0
N510 N 0.69522 0.26807 0.40369 0.0
N511 N 0.54025 0.21885 0.39509 0.0
H512 H 0.61844 0.1684 0.44975 0.0
H513 H 0.56843 0.17639 0.44265 0.0
H514 H 0.51712 0.23163 0.38232 0.0
H515 H 0.5332 0.19339 0.4003 0.0
H516 H 0.70385 0.2928 0.3968 0.0
H517 H 0.71834 0.25347 0.41436 0.0
H518 H 0.66538 0.31201 0.35826 0.0
H519 H 0.6154 0.31836 0.34953 0.0
C520 C 0.39442 0.5186 0.87968 0.0
C521 C 0.36747 0.52713 0.90798 0.0
C522 C 0.38431 0.58778 0.901 0.0
C523 C 0.4157 0.57866 0.87701 0.0
N524 N 0.45303 0.5345 0.84568 0.0
N525 N 0.33671 0.56924 0.94679 0.0
C526 C 0.42102 0.54391 0.86636 0.0
C527 C 0.36213 0.56163 0.91879 0.0
N528 N 0.39473 0.48617 0.86566 0.0
N529 N 0.37515 0.62148 0.90599 0.0
H530 H 0.31868 0.5509 0.95923 0.0
H531 H 0.33499 0.59324 0.95902 0.0
H532 H 0.39035 0.64109 0.89267 0.0
H533 H 0.35036 0.6299 0.92038 0.0
H534 H 0.41039 0.47934 0.84218 0.0
H535 H 0.37653 0.46665 0.87552 0.0
H536 H 0.46136 0.50917 0.84153 0.0
H537 H 0.47342 0.5517 0.83487 0.0
C538 C 0.61435 0.48437 0.3782 0.0
C539 C 0.63887 0.47663 0.40849 0.0
C540 C 0.62099 0.41603 0.40319 0.0
C541 C 0.59179 0.42455 0.37667 0.0
N542 N 0.55721 0.46849 0.3423 0.0
N543 N 0.66524 0.43573 0.45123 0.0
C544 C 0.58794 0.45906 0.36453 0.0
C545 C 0.64237 0.44255 0.42121 0.0
N546 N 0.61604 0.51613 0.36263 0.0
N547 N 0.62885 0.38247 0.41053 0.0
H548 H 0.68277 0.45424 0.46399 0.0
H549 H 0.66521 0.41229 0.46473 0.0
H550 H 0.61386 0.3625 0.39769 0.0
H551 H 0.65243 0.37435 0.4267 0.0
H552 H 0.60237 0.52212 0.33788 0.0
H553 H 0.63408 0.5357 0.37264 0.0
H554 H 0.55004 0.49386 0.33684 0.0
H555 H 0.53632 0.45159 0.3318 0.0
C556 C 0.64312 0.56044 0.90916 0.0
C557 C 0.62797 0.5284 0.92085 0.0
C558 C 0.56035 0.54706 0.90724 0.0
C559 C 0.57559 0.57816 0.89296 0.0
N560 N 0.63167 0.61225 0.87418 0.0
N561 N 0.57357 0.48835 0.92404 0.0
C562 C 0.61709 0.5843 0.89221 0.0
C563 C 0.58698 0.52083 0.91767 0.0
N564 N 0.68208 0.56835 0.9151 0.0
N565 N 0.52048 0.54315 0.91255 0.0
H566 H 0.59217 0.46837 0.93189 0.0
H567 H 0.54474 0.48042 0.91825 0.0
H568 H 0.50004 0.56216 0.90638 0.0
H569 H 0.50796 0.52251 0.9264 0.0
H570 H 0.69392 0.59265 0.91096 0.0
H571 H 0.70209 0.55113 0.92663 0.0
H572 H 0.66177 0.61633 0.86945 0.0
H573 H 0.61347 0.63009 0.86125 0.0
C574 C 0.42524 0.48514 0.41628 0.0
C575 C 0.38407 0.47878 0.42019 0.0
C576 C 0.39227 0.42246 0.39162 0.0
C577 C 0.434 0.4274 0.39149 0.0
N578 N 0.4907 0.46084 0.4104 0.0
N579 N 0.32843 0.44025 0.41575 0.0
C580 C 0.45065 0.4581 0.40553 0.0
C581 C 0.36752 0.44709 0.40899 0.0
N582 N 0.44001 0.51726 0.42226 0.0
N583 N 0.37625 0.3949 0.37396 0.0
H584 H 0.30932 0.45803 0.42764 0.0
H585 H 0.31564 0.41626 0.41196 0.0
H586 H 0.39359 0.37677 0.36056 0.0
H587 H 0.34593 0.39156 0.36987 0.0
H588 H 0.46903 0.5243 0.41595 0.0
H589 H 0.42234 0.5378 0.43031 0.0
H590 H 0.50421 0.48117 0.42399 0.0
H591 H 0.51021 0.4411 0.40428 0.0
C592 C 0.86145 0.06351 0.91947 0.0
C593 C 0.86584 0.02897 0.90842 0.0
C594 C 0.9179 0.04524 0.86504 0.0
C595 C 0.91348 0.08005 0.87586 0.0
N596 N 0.87474 0.12327 0.90626 0.0
N597 N 0.89069 0.98786 0.86498 0.0
C598 C 0.88323 0.08947 0.90094 0.0
C599 C 0.89144 0.02024 0.87915 0.0
N600 N 0.83731 0.07131 0.94836 0.0
N601 N 0.94902 0.03541 0.84345 0.0
H602 H 0.87272 0.96845 0.87542 0.0
H603 H 0.90517 0.98101 0.84088 0.0
H604 H 0.96929 0.0523 0.83195 0.0
H605 H 0.95683 0.00998 0.83918 0.0
H606 H 0.83641 0.09531 0.96067 0.0
H607 H 0.81955 0.05311 0.96136 0.0
H608 H 0.85071 0.1319 0.92157 0.0
H609 H 0.8896 0.14275 0.89239 0.0
C610 C 0.14027 0.94757 0.40825 0.0
C611 C 0.13281 0.98157 0.39678 0.0
C612 C 0.08121 0.96149 0.3547 0.0
C613 C 0.08817 0.92732 0.36659 0.0
N614 N 0.13102 0.88697 0.39659 0.0
N615 N 0.10399 0.02034 0.35311 0.0
C616 C 0.1199 0.92012 0.39088 0.0
C617 C 0.106 0.98825 0.36783 0.0
N618 N 0.16593 0.94167 0.43651 0.0
N619 N 0.04925 0.96895 0.3331 0.0
H620 H 0.12075 0.04085 0.36286 0.0
H621 H 0.08845 0.026 0.32924 0.0
H622 H 0.03013 0.95062 0.32242 0.0
H623 H 0.03961 0.99375 0.32795 0.0
H624 H 0.16908 0.91801 0.44921 0.0
H625 H 0.18275 0.96104 0.44863 0.0
H626 H 0.1561 0.87993 0.41137 0.0
H627 H 0.11722 0.86651 0.38341 0.0
C628 C 0.1397 0.05697 0.90359 0.0
C629 C 0.12338 0.02623 0.91772 0.0
C630 C 0.05633 0.04698 0.90525 0.0
C631 C 0.07258 0.07672 0.88873 0.0
N632 N 0.1296 0.10675 0.86511 0.0
N633 N 0.06712 0.98852 0.92434 0.0
C634 C 0.1143 0.08085 0.8859 0.0
C635 C 0.08195 0.02018 0.91616 0.0
N636 N 0.17918 0.06373 0.90793 0.0
N637 N 0.01654 0.04486 0.91201 0.0
H638 H 0.08498 0.96807 0.93227 0.0
H639 H 0.03769 0.98156 0.91984 0.0
H640 H 0.99682 0.06422 0.90525 0.0
H641 H 0.0036 0.02545 0.92748 0.0
H642 H 0.19198 0.0873 0.90182 0.0
H643 H 0.1987 0.04655 0.92021 0.0
H644 H 0.15966 0.10912 0.85905 0.0
H645 H 0.11181 0.12425 0.85119 0.0
C646 C 0.86376 0.94236 0.40671 0.0
C647 C 0.87889 0.97546 0.41437 0.0
C648 C 0.94544 0.95712 0.39664 0.0
C649 C 0.93004 0.92473 0.38614 0.0
N650 N 0.87355 0.88809 0.37575 0.0
N651 N 0.93191 0.01666 0.4094 0.0
C652 C 0.88885 0.91775 0.38966 0.0
C653 C 0.91903 0.98356 0.40691 0.0
N654 N 0.82582 0.93422 0.41662 0.0
N655 N 0.98545 0.96206 0.39912 0.0
H656 H 0.91351 0.0368 0.41721 0.0
H657 H 0.95976 0.02462 0.4004 0.0
H658 H 0.00581 0.94278 0.39389 0.0
H659 H 0.99836 0.98396 0.4102 0.0
H660 H 0.81443 0.90948 0.41565 0.0
H661 H 0.80639 0.95197 0.42814 0.0
H662 H 0.84328 0.88305 0.37398 0.0
H663 H 0.89109 0.86947 0.36334 0.0
C664 C 0.37653 0.32453 0.19986 0.0
C665 C 0.37382 0.35594 0.18065 0.0
C666 C 0.42265 0.38137 0.22189 0.0
C667 C 0.42273 0.35111 0.24359 0.0
N668 N 0.39162 0.29679 0.25736 0.0
N669 N 0.38474 0.41688 0.18075 0.0
C670 C 0.39714 0.32353 0.23388 0.0
C671 C 0.39357 0.38525 0.19429 0.0
N672 N 0.3611 0.29533 0.18502 0.0
N673 N 0.45207 0.40529 0.22511 0.0
H674 H 0.36291 0.42076 0.16092 0.0
H675 H 0.39595 0.43936 0.19214 0.0
H676 H 0.47683 0.40232 0.24179 0.0
H677 H 0.45465 0.42608 0.20742 0.0
H678 H 0.36613 0.27114 0.19601 0.0
H679 H 0.34615 0.29487 0.16004 0.0
H680 H 0.37036 0.27783 0.2531 0.0
H681 H 0.40523 0.29538 0.28289 0.0
C682 C 0.6113 0.62009 0.69547 0.0
C683 C 0.63185 0.64913 0.68223 0.0
C684 C 0.6108 0.681 0.73673 0.0
C685 C 0.58437 0.65398 0.74607 0.0
N686 N 0.55287 0.60087 0.72696 0.0
N687 N 0.64704 0.70924 0.68802 0.0
C688 C 0.58293 0.62417 0.72365 0.0
C689 C 0.63069 0.6802 0.70231 0.0
N690 N 0.61887 0.58847 0.68117 0.0
N691 N 0.61793 0.70684 0.76105 0.0
H692 H 0.66142 0.70981 0.66275 0.0
H693 H 0.6433 0.73329 0.69983 0.0
H694 H 0.6054 0.7075 0.78715 0.0
H695 H 0.63957 0.72549 0.75684 0.0
H696 H 0.60706 0.5661 0.69227 0.0
H697 H 0.64029 0.58432 0.66101 0.0
H698 H 0.54912 0.58059 0.70873 0.0
H699 H 0.52881 0.60389 0.74447 0.0
C700 C 0.59832 0.32017 0.1772 0.0
C701 C 0.632 0.34186 0.17902 0.0
C702 C 0.61917 0.35263 0.24414 0.0
C703 C 0.58253 0.33503 0.24087 0.0
N704 N 0.53602 0.30257 0.20461 0.0
N705 N 0.67508 0.37921 0.21329 0.0
C706 C 0.57202 0.31847 0.20763 0.0
C707 C 0.64288 0.35792 0.2124 0.0
N708 N 0.59156 0.30127 0.14629 0.0
N709 N 0.63143 0.3638 0.27778 0.0
H710 H 0.69415 0.38234 0.19102 0.0
H711 H 0.68194 0.39504 0.23532 0.0
H712 H 0.61468 0.36016 0.30145 0.0
H713 H 0.65942 0.37399 0.2829 0.0
H714 H 0.5699 0.28237 0.14438 0.0
H715 H 0.6098 0.30253 0.12325 0.0
H716 H 0.5242 0.29393 0.17994 0.0
H717 H 0.51672 0.2995 0.22664 0.0
C718 C 0.41025 0.68799 0.68142 0.0
C719 C 0.37787 0.66483 0.68177 0.0
C720 C 0.39011 0.65226 0.74653 0.0
C721 C 0.4259 0.67125 0.74449 0.0
N722 N 0.47123 0.70681 0.71031 0.0
N723 N 0.33624 0.62461 0.71375 0.0
C724 C 0.43601 0.68952 0.71221 0.0
C725 C 0.36727 0.64718 0.71425 0.0
N726 N 0.41634 0.70839 0.65154 0.0
N727 N 0.37781 0.63956 0.77951 0.0
H728 H 0.31775 0.62153 0.69108 0.0
H729 H 0.32988 0.60776 0.73501 0.0
H730 H 0.39386 0.64318 0.80359 0.0
H731 H 0.35029 0.62816 0.78378 0.0
H732 H 0.4369 0.72826 0.65084 0.0
H733 H 0.39848 0.70732 0.62824 0.0
H734 H 0.48287 0.71684 0.6862 0.0
H735 H 0.49016 0.70965 0.73264 0.0
C736 C 0.8678 0.8668 0.20986 0.0
C737 C 0.87712 0.84439 0.18047 0.0
C738 C 0.91513 0.80849 0.22238 0.0
C739 C 0.91479 0.83517 0.24876 0.0
N740 N 0.87969 0.88385 0.27296 0.0
N741 N 0.91111 0.79424 0.15813 0.0
C742 C 0.88753 0.86263 0.24415 0.0
C743 C 0.90092 0.81515 0.1866 0.0
N744 N 0.83948 0.89139 0.20502 0.0
N745 N 0.92625 0.7762 0.23208 0.0
H746 H 0.90127 0.79811 0.13137 0.0
H747 H 0.93201 0.77478 0.16065 0.0
H748 H 0.93077 0.76919 0.25931 0.0
H749 H 0.9246 0.75542 0.21427 0.0
H750 H 0.82929 0.9076 0.22552 0.0
H751 H 0.82416 0.89456 0.18044 0.0
H752 H 0.86455 0.90689 0.27097 0.0
H753 H 0.88747 0.87747 0.29969 0.0
C754 C 0.14377 0.16769 0.70929 0.0
C755 C 0.13705 0.14076 0.68395 0.0
C756 C 0.08265 0.11973 0.72171 0.0
C757 C 0.08371 0.15025 0.743 0.0
N758 N 0.11788 0.20288 0.75837 0.0
N759 N 0.12224 0.08068 0.68612 0.0
C760 C 0.11495 0.17426 0.73711 0.0
C761 C 0.11339 0.11331 0.69644 0.0
N762 N 0.1807 0.18168 0.71198 0.0
N763 N 0.051 0.0979 0.72319 0.0
H764 H 0.14711 0.07525 0.67008 0.0
H765 H 0.10787 0.05935 0.69703 0.0
H766 H 0.02545 0.10278 0.7383 0.0
H767 H 0.04824 0.07695 0.70567 0.0
H768 H 0.18853 0.19989 0.73152 0.0
H769 H 0.20505 0.17004 0.69954 0.0
H770 H 0.13694 0.22306 0.75214 0.0
H771 H 0.10014 0.20719 0.78124 0.0
C772 C 0.13941 0.85473 0.21001 0.0
C773 C 0.12873 0.83751 0.17725 0.0
C774 C 0.07119 0.81172 0.20768 0.0
C775 C 0.08126 0.82969 0.24016 0.0
N776 N 0.12871 0.86192 0.27535 0.0
N777 N 0.09036 0.79429 0.14631 0.0
C778 C 0.11673 0.84911 0.2423 0.0
C779 C 0.09656 0.81412 0.17664 0.0
N780 N 0.17027 0.87747 0.20974 0.0
N781 N 0.03638 0.79378 0.20598 0.0
H782 H 0.10801 0.79596 0.1229 0.0
H783 H 0.06989 0.77438 0.14521 0.0
H784 H 0.01807 0.79013 0.22864 0.0
H785 H 0.02457 0.78384 0.18189 0.0
H786 H 0.17673 0.89402 0.23126 0.0
H787 H 0.18861 0.881 0.18702 0.0
H788 H 0.15603 0.87363 0.27976 0.0
H789 H 0.1125 0.85832 0.29935 0.0
C790 C 0.86403 0.14492 0.71027 0.0
C791 C 0.87479 0.16188 0.67741 0.0
C792 C 0.93299 0.18695 0.70741 0.0
C793 C 0.92273 0.16933 0.74007 0.0
N794 N 0.87429 0.13875 0.77576 0.0
N795 N 0.91358 0.20469 0.64628 0.0
C796 C 0.8868 0.15059 0.74248 0.0
C797 C 0.90731 0.1849 0.6766 0.0
N798 N 0.83289 0.12247 0.71023 0.0
N799 N 0.96826 0.20413 0.70522 0.0
H800 H 0.89582 0.20321 0.62295 0.0
H801 H 0.93423 0.22447 0.64518 0.0
H802 H 0.98706 0.20747 0.72757 0.0
H803 H 0.98003 0.21363 0.68091 0.0
H804 H 0.82638 0.1061 0.73189 0.0
H805 H 0.81448 0.11894 0.68757 0.0
H806 H 0.8467 0.12752 0.78022 0.0
H807 H 0.8902 0.143 0.79982 0.0
loop_
_geom_bond_atom_site_label_1
_geom_bond_atom_site_label_2
_geom_bond_distance
_geom_bond_site_symmetry_2
_ccdc_geom_bond_type
C0 C1 1.384 . S
C0 H13 0.947 . S
C0 C35 1.382 . S
C1 C0 1.384 . S
C1 C2 1.378 . S
C2 C1 1.378 . S
C2 C3 1.378 . S
C2 H14 0.952 . S
C3 C2 1.378 . S
C3 H15 0.950 . S
C3 C34 1.383 . S
H4 C23 0.947 1_554 S
H5 C24 0.946 . S
H6 C26 0.953 . S
H7 C27 0.945 . S
H8 C29 0.952 . S
H9 C30 0.949 . S
H10 C32 0.950 . S
H11 C33 0.948 1_554 S
H12 C35 0.951 . S
H13 C0 0.947 . S
H14 C2 0.952 . S
H15 C3 0.950 . S
N16 C19 1.382 1_554 S
N16 C21 1.363 . S
N17 C19 1.371 . S
N17 C20 1.372 . S
N18 C20 1.361 1_554 S
N18 C21 1.377 . S
C19 N16 1.382 1_556 S
C19 N17 1.371 . S
C19 C22 1.480 . S
C20 N17 1.372 . S
C20 N18 1.361 1_556 S
C20 C28 1.457 . S
C21 N16 1.363 . S
C21 N18 1.377 . S
C21 C34 1.479 . S
C22 C19 1.480 . S
C22 C23 1.383 . S
C22 C27 1.385 . S
C23 H4 0.947 1_556 S
C23 C22 1.383 . S
C23 C24 1.388 . S
C24 H5 0.946 . S
C24 C23 1.388 . S
C24 C25 1.384 . S
C25 C24 1.384 . S
C25 C26 1.377 . S
C26 H6 0.953 . S
C26 C25 1.377 . S
C26 C27 1.369 . S
C27 H7 0.945 . S
C27 C22 1.385 . S
C27 C26 1.369 . S
C28 C20 1.457 . S
C28 C29 1.372 . S
C28 C33 1.364 . S
C29 H8 0.952 . S
C29 C28 1.372 . S
C29 C30 1.389 . S
C30 H9 0.949 . S
C30 C29 1.389 . S
C30 C31 1.387 . S
C31 C30 1.387 . S
C31 C32 1.372 . S
C32 H10 0.950 . S
C32 C31 1.372 . S
C32 C33 1.379 . S
C33 H11 0.948 1_556 S
C33 C28 1.364 . S
C33 C32 1.379 . S
C34 C3 1.383 . S
C34 C21 1.479 . S
C34 C35 1.398 . S
C35 C0 1.382 . S
C35 H12 0.951 . S
C35 C34 1.398 . S
C36 C37 1.384 . S
C36 H49 0.947 . S
C36 C71 1.382 . S
C37 C36 1.384 . S
C37 C38 1.378 . S
C38 C37 1.378 . S
C38 C39 1.378 . S
C38 H50 0.952 . S
C39 C38 1.378 . S
C39 H51 0.950 . S
C39 C70 1.383 . S
H40 C59 0.947 . S
H41 C60 0.946 . S
H42 C62 0.953 . S
H43 C63 0.945 . S
H44 C65 0.952 . S
H45 C66 0.949 . S
H46 C68 0.950 . S
H47 C69 0.948 . S
H48 C71 0.951 . S
H49 C36 0.947 . S
H50 C38 0.952 . S
H51 C39 0.950 . S
N52 C55 1.382 . S
N52 C57 1.363 . S
N53 C55 1.371 . S
N53 C56 1.372 . S
N54 C56 1.361 . S
N54 C57 1.377 . S
C55 N52 1.382 . S
C55 N53 1.371 . S
C55 C58 1.480 . S
C56 N53 1.372 . S
C56 N54 1.361 . S
C56 C64 1.457 . S
C57 N52 1.363 . S
C57 N54 1.377 . S
C57 C70 1.479 . S
C58 C55 1.480 . S
C58 C59 1.383 . S
C58 C63 1.385 . S
C59 H40 0.947 . S
C59 C58 1.383 . S
C59 C60 1.388 . S
C60 H41 0.946 . S
C60 C59 1.388 . S
C60 C61 1.384 . S
C61 C60 1.384 . S
C61 C62 1.377 . S
C62 H42 0.953 . S
C62 C61 1.377 . S
C62 C63 1.369 . S
C63 H43 0.945 . S
C63 C58 1.385 . S
C63 C62 1.369 . S
C64 C56 1.457 . S
C64 C65 1.372 . S
C64 C69 1.364 . S
C65 H44 0.952 . S
C65 C64 1.372 . S
C65 C66 1.389 . S
C66 H45 0.949 . S
C66 C65 1.389 . S
C66 C67 1.387 . S
C67 C66 1.387 . S
C67 C68 1.372 . S
C68 H46 0.950 . S
C68 C67 1.372 . S
C68 C69 1.379 . S
C69 H47 0.948 . S
C69 C64 1.364 . S
C69 C68 1.379 . S
C70 C39 1.383 . S
C70 C57 1.479 . S
C70 C71 1.398 . S
C71 C36 1.382 . S
C71 H48 0.951 . S
C71 C70 1.398 . S
C72 C73 1.384 . S
C72 H85 0.947 . S
C72 C107 1.382 . S
C73 C72 1.384 . S
C73 C74 1.378 . S
C74 C73 1.378 . S
C74 C75 1.378 . S
C74 H86 0.952 . S
C75 C74 1.378 . S
C75 H87 0.950 . S
C75 C106 1.383 . S
H76 C95 0.947 1_554 S
H77 C96 0.946 . S
H78 C98 0.953 . S
H79 C99 0.945 . S
H80 C101 0.952 . S
H81 C102 0.949 . S
H82 C104 0.950 . S
H83 C105 0.948 1_554 S
H84 C107 0.951 . S
H85 C72 0.947 . S
H86 C74 0.952 . S
H87 C75 0.950 . S
N88 C91 1.382 1_554 S
N88 C93 1.363 . S
N89 C91 1.371 . S
N89 C92 1.372 . S
N90 C92 1.361 1_554 S
N90 C93 1.377 . S
C91 N88 1.382 1_556 S
C91 N89 1.371 . S
C91 C94 1.480 . S
C92 N89 1.372 . S
C92 N90 1.361 1_556 S
C92 C100 1.457 . S
C93 N88 1.363 . S
C93 N90 1.377 . S
C93 C106 1.479 . S
C94 C91 1.480 . S
C94 C95 1.383 . S
C94 C99 1.385 . S
C95 H76 0.947 1_556 S
C95 C94 1.383 . S
C95 C96 1.388 . S
C96 H77 0.946 . S
C96 C95 1.388 . S
C96 C97 1.384 . S
C97 C96 1.384 . S
C97 C98 1.377 . S
C98 H78 0.953 . S
C98 C97 1.377 . S
C98 C99 1.369 . S
C99 H79 0.945 . S
C99 C94 1.385 . S
C99 C98 1.369 . S
C100 C92 1.457 . S
C100 C101 1.372 . S
C100 C105 1.364 . S
C101 H80 0.952 . S
C101 C100 1.372 . S
C101 C102 1.389 . S
C102 H81 0.949 . S
C102 C101 1.389 . S
C102 C103 1.387 . S
C103 C102 1.387 . S
C103 C104 1.372 . S
C104 H82 0.950 . S
C104 C103 1.372 . S
C104 C105 1.379 . S
C105 H83 0.948 1_556 S
C105 C100 1.364 . S
C105 C104 1.379 . S
C106 C75 1.383 . S
C106 C93 1.479 . S
C106 C107 1.398 . S
C107 C72 1.382 . S
C107 H84 0.951 . S
C107 C106 1.398 . S
C108 C109 1.384 . S
C108 H121 0.947 . S
C108 C143 1.382 . S
C109 C108 1.384 . S
C109 C110 1.378 . S
C110 C109 1.378 . S
C110 C111 1.378 . S
C110 H122 0.952 . S
C111 C110 1.378 . S
C111 H123 0.950 . S
C111 C142 1.383 . S
H112 C131 0.947 . S
H113 C132 0.946 . S
H114 C134 0.953 . S
H115 C135 0.945 . S
H116 C137 0.952 . S
H117 C138 0.949 . S
H118 C140 0.950 . S
H119 C141 0.948 . S
H120 C143 0.951 . S
H121 C108 0.947 . S
H122 C110 0.952 . S
H123 C111 0.950 . S
N124 C127 1.382 . S
N124 C129 1.363 . S
N125 C127 1.371 . S
N125 C128 1.372 . S
N126 C128 1.361 . S
N126 C129 1.377 . S
C127 N124 1.382 . S
C127 N125 1.371 . S
C127 C130 1.480 . S
C128 N125 1.372 . S
C128 N126 1.361 . S
C128 C136 1.457 . S
C129 N124 1.363 . S
C129 N126 1.377 . S
C129 C142 1.479 . S
C130 C127 1.480 . S
C130 C131 1.383 . S
C130 C135 1.385 . S
C131 H112 0.947 . S
C131 C130 1.383 . S
C131 C132 1.388 . S
C132 H113 0.946 . S
C132 C131 1.388 . S
C132 C133 1.384 . S
C133 C132 1.384 . S
C133 C134 1.377 . S
C134 H114 0.953 . S
C134 C133 1.377 . S
C134 C135 1.369 . S
C135 H115 0.945 . S
C135 C130 1.385 . S
C135 C134 1.369 . S
C136 C128 1.457 . S
C136 C137 1.372 . S
C136 C141 1.364 . S
C137 H116 0.952 . S
C137 C136 1.372 . S
C137 C138 1.389 . S
C138 H117 0.949 . S
C138 C137 1.389 . S
C138 C139 1.387 . S
C139 C138 1.387 . S
C139 C140 1.372 . S
C140 H118 0.950 . S
C140 C139 1.372 . S
C140 C141 1.379 . S
C141 H119 0.948 . S
C141 C136 1.364 . S
C141 C140 1.379 . S
C142 C111 1.383 . S
C142 C129 1.479 . S
C142 C143 1.398 . S
C143 C108 1.382 . S
C143 H120 0.951 . S
C143 C142 1.398 . S
C144 C145 1.384 . S
C144 H157 0.947 . S
C144 C179 1.382 . S
C145 C144 1.384 . S
C145 C146 1.378 . S
C146 C145 1.378 . S
C146 C147 1.378 . S
C146 H158 0.952 . S
C147 C146 1.378 . S
C147 H159 0.950 . S
C147 C178 1.383 . S
H148 C167 0.947 1_554 S
H149 C168 0.946 . S
H150 C170 0.953 . S
H151 C171 0.945 . S
H152 C173 0.952 . S
H153 C174 0.949 . S
H154 C176 0.950 1_545 S
H155 C177 0.948 1_554 S
H156 C179 0.951 . S
H157 C144 0.947 . S
H158 C146 0.952 . S
H159 C147 0.950 . S
N160 C163 1.382 1_554 S
N160 C165 1.363 . S
N161 C163 1.371 . S
N161 C164 1.372 . S
N162 C164 1.361 1_554 S
N162 C165 1.377 . S
C163 N160 1.382 1_556 S
C163 N161 1.371 . S
C163 C166 1.480 . S
C164 N161 1.372 . S
C164 N162 1.361 1_556 S
C164 C172 1.457 . S
C165 N160 1.363 . S
C165 N162 1.377 . S
C165 C178 1.479 . S
C166 C163 1.480 . S
C166 C167 1.383 . S
C166 C171 1.385 . S
C167 H148 0.947 1_556 S
C167 C166 1.383 . S
C167 C168 1.388 . S
C168 H149 0.946 . S
C168 C167 1.388 . S
C168 C169 1.384 . S
C169 C168 1.384 . S
C169 C170 1.377 . S
C170 H150 0.953 . S
C170 C169 1.377 . S
C170 C171 1.369 . S
C171 H151 0.945 . S
C171 C166 1.385 . S
C171 C170 1.369 . S
C172 C164 1.457 . S
C172 C173 1.372 . S
C172 C177 1.364 . S
C173 H152 0.952 . S
C173 C172 1.372 . S
C173 C174 1.389 . S
C174 H153 0.949 . S
C174 C173 1.389 . S
C174 C175 1.387 1_565 S
C175 C174 1.387 1_545 S
C175 C176 1.372 1_545 S
C176 H154 0.950 1_565 S
C176 C175 1.372 1_565 S
C176 C177 1.379 . S
C177 H155 0.948 1_556 S
C177 C172 1.364 . S
C177 C176 1.379 . S
C178 C147 1.383 . S
C178 C165 1.479 . S
C178 C179 1.398 . S
C179 C144 1.382 . S
C179 H156 0.951 . S
C179 C178 1.398 . S
C180 C181 1.384 . S
C180 H193 0.947 . S
C180 C215 1.382 . S
C181 C180 1.384 . S
C181 C182 1.378 . S
C182 C181 1.378 . S
C182 C183 1.378 . S
C182 H194 0.952 . S
C183 C182 1.378 . S
C183 H195 0.950 . S
C183 C214 1.383 . S
H184 C203 0.947 . S
H185 C204 0.946 . S
H186 C206 0.953 . S
H187 C207 0.945 . S
H188 C209 0.952 . S
H189 C210 0.949 . S
H190 C212 0.950 1_565 S
H191 C213 0.948 . S
H192 C215 0.951 . S
H193 C180 0.947 . S
H194 C182 0.952 . S
H195 C183 0.950 . S
N196 C199 1.382 . S
N196 C201 1.363 . S
N197 C199 1.371 . S
N197 C200 1.372 . S
N198 C200 1.361 . S
N198 C201 1.377 . S
C199 N196 1.382 . S
C199 N197 1.371 . S
C199 C202 1.480 . S
C200 N197 1.372 . S
C200 N198 1.361 . S
C200 C208 1.457 . S
C201 N196 1.363 . S
C201 N198 1.377 . S
C201 C214 1.479 . S
C202 C199 1.480 . S
C202 C203 1.383 . S
C202 C207 1.385 . S
C203 H184 0.947 . S
C203 C202 1.383 . S
C203 C204 1.388 . S
C204 H185 0.946 . S
C204 C203 1.388 . S
C204 C205 1.384 . S
C205 C204 1.384 . S
C205 C206 1.377 . S
C206 H186 0.953 . S
C206 C205 1.377 . S
C206 C207 1.369 . S
C207 H187 0.945 . S
C207 C202 1.385 . S
C207 C206 1.369 . S
C208 C200 1.457 . S
C208 C209 1.372 . S
C208 C213 1.364 . S
C209 H188 0.952 . S
C209 C208 1.372 . S
C209 C210 1.389 . S
C210 H189 0.949 . S
C210 C209 1.389 . S
C210 C211 1.387 1_545 S
C211 C210 1.387 1_565 S
C211 C212 1.372 1_565 S
C212 H190 0.950 1_545 S
C212 C211 1.372 1_545 S
C212 C213 1.379 . S
C213 H191 0.948 . S
C213 C208 1.364 . S
C213 C212 1.379 . S
C214 C183 1.383 . S
C214 C201 1.479 . S
C214 C215 1.398 . S
C215 C180 1.382 . S
C215 H192 0.951 . S
C215 C214 1.398 . S
C216 C217 1.384 . S
C216 H229 0.947 . S
C216 C251 1.382 . S
C217 C216 1.384 . S
C217 C218 1.378 . S
C218 C217 1.378 . S
C218 C219 1.378 . S
C218 H230 0.952 . S
C219 C218 1.378 . S
C219 H231 0.950 . S
C219 C250 1.383 . S
H220 C239 0.947 1_554 S
H221 C240 0.946 . S
H222 C242 0.953 . S
H223 C243 0.945 . S
H224 C245 0.952 . S
H225 C246 0.949 . S
H226 C248 0.950 . S
H227 C249 0.948 1_554 S
H228 C251 0.951 . S
H229 C216 0.947 . S
H230 C218 0.952 . S
H231 C219 0.950 . S
N232 C235 1.382 1_554 S
N232 C237 1.363 . S
N233 C235 1.371 . S
N233 C236 1.372 . S
N234 C236 1.361 1_554 S
N234 C237 1.377 . S
C235 N232 1.382 1_556 S
C235 N233 1.371 . S
C235 C238 1.480 . S
C236 N233 1.372 . S
C236 N234 1.361 1_556 S
C236 C244 1.457 . S
C237 N232 1.363 . S
C237 N234 1.377 . S
C237 C250 1.479 . S
C238 C235 1.480 . S
C238 C239 1.383 . S
C238 C243 1.385 . S
C239 H220 0.947 1_556 S
C239 C238 1.383 . S
C239 C240 1.388 . S
C240 H221 0.946 . S
C240 C239 1.388 . S
C240 C241 1.384 . S
C241 C240 1.384 . S
C241 C242 1.377 . S
C242 H222 0.953 . S
C242 C241 1.377 . S
C242 C243 1.369 . S
C243 H223 0.945 . S
C243 C238 1.385 . S
C243 C242 1.369 . S
C244 C236 1.457 . S
C244 C245 1.372 . S
C244 C249 1.364 . S
C245 H224 0.952 . S
C245 C244 1.372 . S
C245 C246 1.389 . S
C246 H225 0.949 . S
C246 C245 1.389 . S
C246 C247 1.387 1_565 S
C247 C246 1.387 1_545 S
C247 C248 1.372 . S
C248 H226 0.950 . S
C248 C247 1.372 . S
C248 C249 1.379 1_545 S
C249 H227 0.948 1_556 S
C249 C244 1.364 . S
C249 C248 1.379 1_565 S
C250 C219 1.383 . S
C250 C237 1.479 . S
C250 C251 1.398 . S
C251 C216 1.382 . S
C251 H228 0.951 . S
C251 C250 1.398 . S
C252 C253 1.384 . S
C252 H265 0.947 . S
C252 C287 1.382 . S
C253 C252 1.384 . S
C253 C254 1.378 . S
C254 C253 1.378 . S
C254 C255 1.378 . S
C254 H266 0.952 . S
C255 C254 1.378 . S
C255 H267 0.950 . S
C255 C286 1.383 . S
H256 C275 0.947 . S
H257 C276 0.946 . S
H258 C278 0.953 . S
H259 C279 0.945 . S
H260 C281 0.952 . S
H261 C282 0.949 . S
H262 C284 0.950 . S
H263 C285 0.948 . S
H264 C287 0.951 . S
H265 C252 0.947 . S
H266 C254 0.952 . S
H267 C255 0.950 . S
N268 C271 1.382 . S
N268 C273 1.363 . S
N269 C271 1.371 . S
N269 C272 1.372 . S
N270 C272 1.361 . S
N270 C273 1.377 . S
C271 N268 1.382 . S
C271 N269 1.371 . S
C271 C274 1.480 . S
C272 N269 1.372 . S
C272 N270 1.361 . S
C272 C280 1.457 . S
C273 N268 1.363 . S
C273 N270 1.377 . S
C273 C286 1.479 . S
C274 C271 1.480 . S
C274 C275 1.383 . S
C274 C279 1.385 . S
C275 H256 0.947 . S
C275 C274 1.383 . S
C275 C276 1.388 . S
C276 H257 0.946 . S
C276 C275 1.388 . S
C276 C277 1.384 . S
C277 C276 1.384 . S
C277 C278 1.377 . S
C278 H258 0.953 . S
C278 C277 1.377 . S
C278 C279 1.369 . S
C279 H259 0.945 . S
C279 C274 1.385 . S
C279 C278 1.369 . S
C280 C272 1.457 . S
C280 C281 1.372 . S
C280 C285 1.364 . S
C281 H260 0.952 . S
C281 C280 1.372 . S
C281 C282 1.389 . S
C282 H261 0.949 . S
C282 C281 1.389 . S
C282 C283 1.387 1_545 S
C283 C282 1.387 1_565 S
C283 C284 1.372 . S
C284 H262 0.950 . S
C284 C283 1.372 . S
C284 C285 1.379 1_565 S
C285 H263 0.948 . S
C285 C280 1.364 . S
C285 C284 1.379 1_545 S
C286 C255 1.383 . S
C286 C273 1.479 . S
C286 C287 1.398 . S
C287 C252 1.382 . S
C287 H264 0.951 . S
C287 C286 1.398 . S
Fe288 O290 1.918 . S
Fe288 O293 1.997 1_455 S
Fe288 O294 2.002 1_455 S
Fe288 O299 1.976 . S
Fe288 O302 1.996 . S
Fe289 O290 1.918 . S
Fe289 O297 1.997 1_455 S
Fe289 O300 1.996 . S
Fe289 O304 1.976 . S
Fe289 O307 2.002 1_455 S
O290 Fe288 1.918 . S
O290 Fe289 1.918 . S
O290 Fe291 1.918 . S
Fe291 O290 1.918 . S
Fe291 O292 2.002 1_455 S
Fe291 O301 1.976 . S
Fe291 O305 1.996 . S
Fe291 O308 1.997 1_455 S
O292 Fe291 2.002 1_655 S
O292 C309 1.295 . S
O293 Fe288 1.997 1_655 S
O293 C309 1.235 . S
O294 Fe288 2.002 1_655 S
O294 C295 1.295 . S
C295 O294 1.295 . S
C295 O297 1.235 . S
C296 O301 1.287 . S
C296 O302 1.255 . S
O297 Fe289 1.997 1_655 S
O297 C295 1.235 . S
C298 O304 1.287 . S
C298 O305 1.255 . S
O299 Fe288 1.976 . S
O299 C306 1.287 . S
O300 Fe289 1.996 . S
O300 C306 1.255 . S
O301 Fe291 1.976 . S
O301 C296 1.287 . S
O302 Fe288 1.996 . S
O302 C296 1.255 . S
C303 O307 1.295 . S
C303 O308 1.235 . S
O304 Fe289 1.976 . S
O304 C298 1.287 . S
O305 Fe291 1.996 . S
O305 C298 1.255 . S
C306 O299 1.287 . S
C306 O300 1.255 . S
O307 Fe289 2.002 1_655 S
O307 C303 1.295 . S
O308 Fe291 1.997 1_655 S
O308 C303 1.235 . S
C309 O292 1.295 . S
C309 O293 1.235 . S
Fe310 O312 1.918 . S
Fe310 O315 1.997 1_655 S
Fe310 O316 2.002 1_655 S
Fe310 O321 1.976 . S
Fe310 O324 1.996 . S
Fe311 O312 1.918 . S
Fe311 O319 1.997 1_655 S
Fe311 O322 1.996 . S
Fe311 O326 1.976 . S
Fe311 O329 2.002 1_655 S
O312 Fe310 1.918 . S
O312 Fe311 1.918 . S
O312 Fe313 1.918 . S
Fe313 O312 1.918 . S
Fe313 O314 2.002 1_655 S
Fe313 O323 1.976 . S
Fe313 O327 1.996 . S
Fe313 O330 1.997 1_655 S
O314 Fe313 2.002 1_455 S
O314 C331 1.295 . S
O315 Fe310 1.997 1_455 S
O315 C331 1.235 . S
O316 Fe310 2.002 1_455 S
O316 C317 1.295 . S
C317 O316 1.295 . S
C317 O319 1.235 . S
C318 O323 1.287 . S
C318 O324 1.255 . S
O319 Fe311 1.997 1_455 S
O319 C317 1.235 . S
C320 O326 1.287 . S
C320 O327 1.255 . S
O321 Fe310 1.976 . S
O321 C328 1.287 . S
O322 Fe311 1.996 . S
O322 C328 1.255 . S
O323 Fe313 1.976 . S
O323 C318 1.287 . S
O324 Fe310 1.996 . S
O324 C318 1.255 . S
C325 O329 1.295 . S
C325 O330 1.235 . S
O326 Fe311 1.976 . S
O326 C320 1.287 . S
O327 Fe313 1.996 . S
O327 C320 1.255 . S
C328 O321 1.287 . S
C328 O322 1.255 . S
O329 Fe311 2.002 1_455 S
O329 C325 1.295 . S
O330 Fe313 1.997 1_455 S
O330 C325 1.235 . S
C331 O314 1.295 . S
C331 O315 1.235 . S
Fe332 O334 1.918 . S
Fe332 O337 1.997 . S
Fe332 O338 2.002 . S
Fe332 O343 1.976 . S
Fe332 O346 1.996 . S
Fe333 O334 1.918 . S
Fe333 O341 1.997 . S
Fe333 O344 1.996 . S
Fe333 O348 1.976 . S
Fe333 O351 2.002 . S
O334 Fe332 1.918 . S
O334 Fe333 1.918 . S
O334 Fe335 1.918 . S
Fe335 O334 1.918 . S
Fe335 O336 2.002 . S
Fe335 O345 1.976 . S
Fe335 O349 1.996 . S
Fe335 O352 1.997 . S
O336 Fe335 2.002 . S
O336 C353 1.295 . S
O337 Fe332 1.997 . S
O337 C353 1.235 . S
O338 Fe332 2.002 . S
O338 C339 1.295 . S
C339 O338 1.295 . S
C339 O341 1.235 . S
C340 O345 1.287 . S
C340 O346 1.255 . S
O341 Fe333 1.997 . S
O341 C339 1.235 . S
C342 O348 1.287 . S
C342 O349 1.255 . S
O343 Fe332 1.976 . S
O343 C350 1.287 . S
O344 Fe333 1.996 . S
O344 C350 1.255 . S
O345 Fe335 1.976 . S
O345 C340 1.287 . S
O346 Fe332 1.996 . S
O346 C340 1.255 . S
C347 O351 1.295 . S
C347 O352 1.235 . S
O348 Fe333 1.976 . S
O348 C342 1.287 . S
O349 Fe335 1.996 . S
O349 C342 1.255 . S
C350 O343 1.287 . S
C350 O344 1.255 . S
O351 Fe333 2.002 . S
O351 C347 1.295 . S
O352 Fe335 1.997 . S
O352 C347 1.235 . S
C353 O336 1.295 . S
C353 O337 1.235 . S
Fe354 O356 1.918 . S
Fe354 O359 1.997 . S
Fe354 O360 2.002 . S
Fe354 O365 1.976 . S
Fe354 O368 1.996 . S
Fe355 O356 1.918 . S
Fe355 O363 1.997 . S
Fe355 O366 1.996 . S
Fe355 O370 1.976 . S
Fe355 O373 2.002 . S
O356 Fe354 1.918 . S
O356 Fe355 1.918 . S
O356 Fe357 1.918 . S
Fe357 O356 1.918 . S
Fe357 O358 2.002 . S
Fe357 O367 1.976 . S
Fe357 O371 1.996 . S
Fe357 O374 1.997 . S
O358 Fe357 2.002 . S
O358 C375 1.295 . S
O359 Fe354 1.997 . S
O359 C375 1.235 . S
O360 Fe354 2.002 . S
O360 C361 1.295 . S
C361 O360 1.295 . S
C361 O363 1.235 . S
C362 O367 1.287 . S
C362 O368 1.255 . S
O363 Fe355 1.997 . S
O363 C361 1.235 . S
C364 O370 1.287 . S
C364 O371 1.255 . S
O365 Fe354 1.976 . S
O365 C372 1.287 . S
O366 Fe355 1.996 . S
O366 C372 1.255 . S
O367 Fe357 1.976 . S
O367 C362 1.287 . S
O368 Fe354 1.996 . S
O368 C362 1.255 . S
C369 O373 1.295 . S
C369 O374 1.235 . S
O370 Fe355 1.976 . S
O370 C364 1.287 . S
O371 Fe357 1.996 . S
O371 C364 1.255 . S
C372 O365 1.287 . S
C372 O366 1.255 . S
O373 Fe355 2.002 . S
O373 C369 1.295 . S
O374 Fe357 1.997 . S
O374 C369 1.235 . S
C375 O358 1.295 . S
C375 O359 1.235 . S
C376 C377 1.363 . S
C376 C382 1.379 . S
C376 N384 1.356 . S
C377 C376 1.363 . S
C377 C383 1.363 . S
C378 C379 1.363 . S
C378 C383 1.379 . S
C378 N385 1.356 . S
C379 C378 1.363 . S
C379 C382 1.363 . S
N380 C382 1.356 . S
N380 H392 0.984 . S
N380 H393 0.985 . S
N381 C383 1.356 . S
N381 H386 0.984 . S
N381 H387 0.985 . S
C382 C376 1.379 . S
C382 C379 1.363 . S
C382 N380 1.356 . S
C383 C377 1.363 . S
C383 C378 1.379 . S
C383 N381 1.356 . S
N384 C376 1.356 . S
N384 H390 0.984 . S
N384 H391 0.984 . S
N385 C378 1.356 . S
N385 H388 0.984 . S
N385 H389 0.985 . S
H386 N381 0.984 . S
H387 N381 0.985 . S
H388 N385 0.984 . S
H389 N385 0.985 . S
H390 N384 0.984 . S
H391 N384 0.984 . S
H392 N380 0.984 . S
H393 N380 0.985 . S
C394 C395 1.363 . S
C394 C400 1.379 . S
C394 N402 1.356 . S
C395 C394 1.363 . S
C395 C401 1.363 . S
C396 C397 1.363 . S
C396 C401 1.379 . S
C396 N403 1.356 . S
C397 C396 1.363 . S
C397 C400 1.363 . S
N398 C400 1.356 . S
N398 H410 0.984 . S
N398 H411 0.985 . S
N399 C401 1.356 . S
N399 H404 0.984 . S
N399 H405 0.985 . S
C400 C394 1.379 . S
C400 C397 1.363 . S
C400 N398 1.356 . S
C401 C395 1.363 . S
C401 C396 1.379 . S
C401 N399 1.356 . S
N402 C394 1.356 . S
N402 H408 0.984 . S
N402 H409 0.984 . S
N403 C396 1.356 . S
N403 H406 0.984 . S
N403 H407 0.985 . S
H404 N399 0.984 . S
H405 N399 0.985 . S
H406 N403 0.984 . S
H407 N403 0.985 . S
H408 N402 0.984 . S
H409 N402 0.984 . S
H410 N398 0.984 . S
H411 N398 0.985 . S
C412 C413 1.363 . S
C412 C418 1.379 . S
C412 N420 1.356 . S
C413 C412 1.363 . S
C413 C419 1.363 . S
C414 C415 1.363 . S
C414 C419 1.379 . S
C414 N421 1.356 . S
C415 C414 1.363 . S
C415 C418 1.363 . S
N416 C418 1.356 . S
N416 H428 0.984 . S
N416 H429 0.985 . S
N417 C419 1.356 . S
N417 H422 0.984 . S
N417 H423 0.985 . S
C418 C412 1.379 . S
C418 C415 1.363 . S
C418 N416 1.356 . S
C419 C413 1.363 . S
C419 C414 1.379 . S
C419 N417 1.356 . S
N420 C412 1.356 . S
N420 H426 0.984 . S
N420 H427 0.984 . S
N421 C414 1.356 . S
N421 H424 0.984 . S
N421 H425 0.985 . S
H422 N417 0.984 . S
H423 N417 0.985 . S
H424 N421 0.984 . S
H425 N421 0.985 . S
H426 N420 0.984 . S
H427 N420 0.984 . S
H428 N416 0.984 . S
H429 N416 0.985 . S
C430 C431 1.363 . S
C430 C436 1.379 . S
C430 N438 1.356 . S
C431 C430 1.363 . S
C431 C437 1.363 . S
C432 C433 1.363 . S
C432 C437 1.379 . S
C432 N439 1.356 . S
C433 C432 1.363 . S
C433 C436 1.363 . S
N434 C436 1.356 . S
N434 H446 0.984 . S
N434 H447 0.985 . S
N435 C437 1.356 . S
N435 H440 0.984 . S
N435 H441 0.985 . S
C436 C430 1.379 . S
C436 C433 1.363 . S
C436 N434 1.356 . S
C437 C431 1.363 . S
C437 C432 1.379 . S
C437 N435 1.356 . S
N438 C430 1.356 . S
N438 H444 0.984 . S
N438 H445 0.984 . S
N439 C432 1.356 . S
N439 H442 0.984 . S
N439 H443 0.985 . S
H440 N435 0.984 . S
H441 N435 0.985 . S
H442 N439 0.984 . S
H443 N439 0.985 . S
H444 N438 0.984 . S
H445 N438 0.984 . S
H446 N434 0.984 . S
H447 N434 0.985 . S
C448 C449 1.363 . S
C448 C454 1.379 . S
C448 N456 1.356 . S
C449 C448 1.363 . S
C449 C455 1.363 . S
C450 C451 1.363 . S
C450 C455 1.379 . S
C450 N457 1.356 . S
C451 C450 1.363 . S
C451 C454 1.363 . S
N452 C454 1.356 . S
N452 H464 0.984 . S
N452 H465 0.985 . S
N453 C455 1.356 . S
N453 H458 0.984 . S
N453 H459 0.985 . S
C454 C448 1.379 . S
C454 C451 1.363 . S
C454 N452 1.356 . S
C455 C449 1.363 . S
C455 C450 1.379 . S
C455 N453 1.356 . S
N456 C448 1.356 . S
N456 H462 0.984 . S
N456 H463 0.984 . S
N457 C450 1.356 . S
N457 H460 0.984 . S
N457 H461 0.985 . S
H458 N453 0.984 . S
H459 N453 0.985 . S
H460 N457 0.984 . S
H461 N457 0.985 . S
H462 N456 0.984 . S
H463 N456 0.984 . S
H464 N452 0.984 . S
H465 N452 0.985 . S
C466 C467 1.363 . S
C466 C472 1.379 . S
C466 N474 1.356 . S
C467 C466 1.363 . S
C467 C473 1.363 . S
C468 C469 1.363 . S
C468 C473 1.379 . S
C468 N475 1.356 . S
C469 C468 1.363 . S
C469 C472 1.363 . S
N470 C472 1.356 . S
N470 H482 0.984 . S
N470 H483 0.985 . S
N471 C473 1.356 . S
N471 H476 0.984 . S
N471 H477 0.985 . S
C472 C466 1.379 . S
C472 C469 1.363 . S
C472 N470 1.356 . S
C473 C467 1.363 . S
C473 C468 1.379 . S
C473 N471 1.356 . S
N474 C466 1.356 . S
N474 H480 0.984 . S
N474 H481 0.984 . S
N475 C468 1.356 . S
N475 H478 0.984 . S
N475 H479 0.985 . S
H476 N471 0.984 . S
H477 N471 0.985 . S
H478 N475 0.984 . S
H479 N475 0.985 . S
H480 N474 0.984 . S
H481 N474 0.984 . S
H482 N470 0.984 . S
H483 N470 0.985 . S
C484 C485 1.363 . S
C484 C490 1.379 . S
C484 N492 1.356 . S
C485 C484 1.363 . S
C485 C491 1.363 . S
C486 C487 1.363 . S
C486 C491 1.379 . S
C486 N493 1.356 . S
C487 C486 1.363 . S
C487 C490 1.363 . S
N488 C490 1.356 . S
N488 H500 0.984 . S
N488 H501 0.985 . S
N489 C491 1.356 . S
N489 H494 0.984 . S
N489 H495 0.985 . S
C490 C484 1.379 . S
C490 C487 1.363 . S
C490 N488 1.356 . S
C491 C485 1.363 . S
C491 C486 1.379 . S
C491 N489 1.356 . S
N492 C484 1.356 . S
N492 H498 0.984 . S
N492 H499 0.984 . S
N493 C486 1.356 . S
N493 H496 0.984 . S
N493 H497 0.985 . S
H494 N489 0.984 . S
H495 N489 0.985 . S
H496 N493 0.984 . S
H497 N493 0.985 . S
H498 N492 0.984 . S
H499 N492 0.984 . S
H500 N488 0.984 . S
H501 N488 0.985 . S
C502 C503 1.363 . S
C502 C508 1.379 . S
C502 N510 1.356 . S
C503 C502 1.363 . S
C503 C509 1.363 . S
C504 C505 1.363 . S
C504 C509 1.379 . S
C504 N511 1.356 . S
C505 C504 1.363 . S
C505 C508 1.363 . S
N506 C508 1.356 . S
N506 H518 0.984 . S
N506 H519 0.985 . S
N507 C509 1.356 . S
N507 H512 0.984 . S
N507 H513 0.985 . S
C508 C502 1.379 . S
C508 C505 1.363 . S
C508 N506 1.356 . S
C509 C503 1.363 . S
C509 C504 1.379 . S
C509 N507 1.356 . S
N510 C502 1.356 . S
N510 H516 0.984 . S
N510 H517 0.984 . S
N511 C504 1.356 . S
N511 H514 0.984 . S
N511 H515 0.985 . S
H512 N507 0.984 . S
H513 N507 0.985 . S
H514 N511 0.984 . S
H515 N511 0.985 . S
H516 N510 0.984 . S
H517 N510 0.984 . S
H518 N506 0.984 . S
H519 N506 0.985 . S
C520 C521 1.363 . S
C520 C526 1.379 . S
C520 N528 1.356 . S
C521 C520 1.363 . S
C521 C527 1.363 . S
C522 C523 1.363 . S
C522 C527 1.379 . S
C522 N529 1.356 . S
C523 C522 1.363 . S
C523 C526 1.363 . S
N524 C526 1.356 . S
N524 H536 0.984 . S
N524 H537 0.985 . S
N525 C527 1.356 . S
N525 H530 0.984 . S
N525 H531 0.985 . S
C526 C520 1.379 . S
C526 C523 1.363 . S
C526 N524 1.356 . S
C527 C521 1.363 . S
C527 C522 1.379 . S
C527 N525 1.356 . S
N528 C520 1.356 . S
N528 H534 0.984 . S
N528 H535 0.984 . S
N529 C522 1.356 . S
N529 H532 0.984 . S
N529 H533 0.985 . S
H530 N525 0.984 . S
H531 N525 0.985 . S
H532 N529 0.984 . S
H533 N529 0.985 . S
H534 N528 0.984 . S
H535 N528 0.984 . S
H536 N524 0.984 . S
H537 N524 0.985 . S
C538 C539 1.363 . S
C538 C544 1.379 . S
C538 N546 1.356 . S
C539 C538 1.363 . S
C539 C545 1.363 . S
C540 C541 1.363 . S
C540 C545 1.379 . S
C540 N547 1.356 . S
C541 C540 1.363 . S
C541 C544 1.363 . S
N542 C544 1.356 . S
N542 H554 0.984 . S
N542 H555 0.985 . S
N543 C545 1.356 . S
N543 H548 0.984 . S
N543 H549 0.985 . S
C544 C538 1.379 . S
C544 C541 1.363 . S
C544 N542 1.356 . S
C545 C539 1.363 . S
C545 C540 1.379 . S
C545 N543 1.356 . S
N546 C538 1.356 . S
N546 H552 0.984 . S
N546 H553 0.984 . S
N547 C540 1.356 . S
N547 H550 0.984 . S
N547 H551 0.985 . S
H548 N543 0.984 . S
H549 N543 0.985 . S
H550 N547 0.984 . S
H551 N547 0.985 . S
H552 N546 0.984 . S
H553 N546 0.984 . S
H554 N542 0.984 . S
H555 N542 0.985 . S
C556 C557 1.363 . S
C556 C562 1.379 . S
C556 N564 1.356 . S
C557 C556 1.363 . S
C557 C563 1.363 . S
C558 C559 1.363 . S
C558 C563 1.379 . S
C558 N565 1.356 . S
C559 C558 1.363 . S
C559 C562 1.363 . S
N560 C562 1.356 . S
N560 H572 0.984 . S
N560 H573 0.985 . S
N561 C563 1.356 . S
N561 H566 0.984 . S
N561 H567 0.985 . S
C562 C556 1.379 . S
C562 C559 1.363 . S
C562 N560 1.356 . S
C563 C557 1.363 . S
C563 C558 1.379 . S
C563 N561 1.356 . S
N564 C556 1.356 . S
N564 H570 0.984 . S
N564 H571 0.984 . S
N565 C558 1.356 . S
N565 H568 0.984 . S
N565 H569 0.985 . S
H566 N561 0.984 . S
H567 N561 0.985 . S
H568 N565 0.984 . S
H569 N565 0.985 . S
H570 N564 0.984 . S
H571 N564 0.984 . S
H572 N560 0.984 . S
H573 N560 0.985 . S
C574 C575 1.363 . S
C574 C580 1.379 . S
C574 N582 1.356 . S
C575 C574 1.363 . S
C575 C581 1.363 . S
C576 C577 1.363 . S
C576 C581 1.379 . S
C576 N583 1.356 . S
C577 C576 1.363 . S
C577 C580 1.363 . S
N578 C580 1.356 . S
N578 H590 0.984 . S
N578 H591 0.985 . S
N579 C581 1.356 . S
N579 H584 0.984 . S
N579 H585 0.985 . S
C580 C574 1.379 . S
C580 C577 1.363 . S
C580 N578 1.356 . S
C581 C575 1.363 . S
C581 C576 1.379 . S
C581 N579 1.356 . S
N582 C574 1.356 . S
N582 H588 0.984 . S
N582 H589 0.984 . S
N583 C576 1.356 . S
N583 H586 0.984 . S
N583 H587 0.985 . S
H584 N579 0.984 . S
H585 N579 0.985 . S
H586 N583 0.984 . S
H587 N583 0.985 . S
H588 N582 0.984 . S
H589 N582 0.984 . S
H590 N578 0.984 . S
H591 N578 0.985 . S
C592 C593 1.363 . S
C592 C598 1.379 . S
C592 N600 1.356 . S
C593 C592 1.363 . S
C593 C599 1.363 . S
C594 C595 1.363 . S
C594 C599 1.379 . S
C594 N601 1.356 . S
C595 C594 1.363 . S
C595 C598 1.363 . S
N596 C598 1.356 . S
N596 H608 0.984 . S
N596 H609 0.985 . S
N597 C599 1.356 . S
N597 H602 0.984 1_545 S
N597 H603 0.985 1_545 S
C598 C592 1.379 . S
C598 C595 1.363 . S
C598 N596 1.356 . S
C599 C593 1.363 . S
C599 C594 1.379 . S
C599 N597 1.356 . S
N600 C592 1.356 . S
N600 H606 0.984 . S
N600 H607 0.984 . S
N601 C594 1.356 . S
N601 H604 0.984 . S
N601 H605 0.985 . S
H602 N597 0.984 1_565 S
H603 N597 0.985 1_565 S
H604 N601 0.984 . S
H605 N601 0.985 . S
H606 N600 0.984 . S
H607 N600 0.984 . S
H608 N596 0.984 . S
H609 N596 0.985 . S
C610 C611 1.363 . S
C610 C616 1.379 . S
C610 N618 1.356 . S
C611 C610 1.363 . S
C611 C617 1.363 . S
C612 C613 1.363 . S
C612 C617 1.379 . S
C612 N619 1.356 . S
C613 C612 1.363 . S
C613 C616 1.363 . S
N614 C616 1.356 . S
N614 H626 0.984 . S
N614 H627 0.985 . S
N615 C617 1.356 1_545 S
N615 H620 0.984 . S
N615 H621 0.985 . S
C616 C610 1.379 . S
C616 C613 1.363 . S
C616 N614 1.356 . S
C617 C611 1.363 . S
C617 C612 1.379 . S
C617 N615 1.356 1_565 S
N618 C610 1.356 . S
N618 H624 0.984 . S
N618 H625 0.984 . S
N619 C612 1.356 . S
N619 H622 0.984 . S
N619 H623 0.985 . S
H620 N615 0.984 . S
H621 N615 0.985 . S
H622 N619 0.984 . S
H623 N619 0.985 . S
H624 N618 0.984 . S
H625 N618 0.984 . S
H626 N614 0.984 . S
H627 N614 0.985 . S
C628 C629 1.363 . S
C628 C634 1.379 . S
C628 N636 1.356 . S
C629 C628 1.363 . S
C629 C635 1.363 . S
C630 C631 1.363 . S
C630 C635 1.379 . S
C630 N637 1.356 . S
C631 C630 1.363 . S
C631 C634 1.363 . S
N632 C634 1.356 . S
N632 H644 0.984 . S
N632 H645 0.985 . S
N633 C635 1.356 . S
N633 H638 0.984 . S
N633 H639 0.985 . S
C634 C628 1.379 . S
C634 C631 1.363 . S
C634 N632 1.356 . S
C635 C629 1.363 . S
C635 C630 1.379 . S
C635 N633 1.356 . S
N636 C628 1.356 . S
N636 H642 0.984 . S
N636 H643 0.984 . S
N637 C630 1.356 . S
N637 H640 0.984 . S
N637 H641 0.985 . S
H638 N633 0.984 . S
H639 N633 0.985 . S
H640 N637 0.984 . S
H641 N637 0.985 . S
H642 N636 0.984 . S
H643 N636 0.984 . S
H644 N632 0.984 . S
H645 N632 0.985 . S
C646 C647 1.363 . S
C646 C652 1.379 . S
C646 N654 1.356 . S
C647 C646 1.363 . S
C647 C653 1.363 . S
C648 C649 1.363 . S
C648 C653 1.379 . S
C648 N655 1.356 . S
C649 C648 1.363 . S
C649 C652 1.363 . S
N650 C652 1.356 . S
N650 H662 0.984 . S
N650 H663 0.985 . S
N651 C653 1.356 1_545 S
N651 H656 0.984 . S
N651 H657 0.985 . S
C652 C646 1.379 . S
C652 C649 1.363 . S
C652 N650 1.356 . S
C653 C647 1.363 . S
C653 C648 1.379 . S
C653 N651 1.356 1_565 S
N654 C646 1.356 . S
N654 H660 0.984 . S
N654 H661 0.984 . S
N655 C648 1.356 . S
N655 H658 0.984 . S
N655 H659 0.985 . S
H656 N651 0.984 . S
H657 N651 0.985 . S
H658 N655 0.984 . S
H659 N655 0.985 . S
H660 N654 0.984 . S
H661 N654 0.984 . S
H662 N650 0.984 . S
H663 N650 0.985 . S
C664 C665 1.363 . S
C664 C670 1.379 . S
C664 N672 1.356 . S
C665 C664 1.363 . S
C665 C671 1.363 . S
C666 C667 1.363 . S
C666 C671 1.379 . S
C666 N673 1.356 . S
C667 C666 1.363 . S
C667 C670 1.363 . S
N668 C670 1.356 . S
N668 H680 0.984 . S
N668 H681 0.985 . S
N669 C671 1.356 . S
N669 H674 0.984 . S
N669 H675 0.985 . S
C670 C664 1.379 . S
C670 C667 1.363 . S
C670 N668 1.356 . S
C671 C665 1.363 . S
C671 C666 1.379 . S
C671 N669 1.356 . S
N672 C664 1.356 . S
N672 H678 0.984 . S
N672 H679 0.984 . S
N673 C666 1.356 . S
N673 H676 0.984 . S
N673 H677 0.985 . S
H674 N669 0.984 . S
H675 N669 0.985 . S
H676 N673 0.984 . S
H677 N673 0.985 . S
H678 N672 0.984 . S
H679 N672 0.984 . S
H680 N668 0.984 . S
H681 N668 0.985 . S
C682 C683 1.363 . S
C682 C688 1.379 . S
C682 N690 1.356 . S
C683 C682 1.363 . S
C683 C689 1.363 . S
C684 C685 1.363 . S
C684 C689 1.379 . S
C684 N691 1.356 . S
C685 C684 1.363 . S
C685 C688 1.363 . S
N686 C688 1.356 . S
N686 H698 0.984 . S
N686 H699 0.985 . S
N687 C689 1.356 . S
N687 H692 0.984 . S
N687 H693 0.985 . S
C688 C682 1.379 . S
C688 C685 1.363 . S
C688 N686 1.356 . S
C689 C683 1.363 . S
C689 C684 1.379 . S
C689 N687 1.356 . S
N690 C682 1.356 . S
N690 H696 0.984 . S
N690 H697 0.984 . S
N691 C684 1.356 . S
N691 H694 0.984 . S
N691 H695 0.985 . S
H692 N687 0.984 . S
H693 N687 0.985 . S
H694 N691 0.984 . S
H695 N691 0.985 . S
H696 N690 0.984 . S
H697 N690 0.984 . S
H698 N686 0.984 . S
H699 N686 0.985 . S
C700 C701 1.363 . S
C700 C706 1.379 . S
C700 N708 1.356 . S
C701 C700 1.363 . S
C701 C707 1.363 . S
C702 C703 1.363 . S
C702 C707 1.379 . S
C702 N709 1.356 . S
C703 C702 1.363 . S
C703 C706 1.363 . S
N704 C706 1.356 . S
N704 H716 0.984 . S
N704 H717 0.985 . S
N705 C707 1.356 . S
N705 H710 0.984 . S
N705 H711 0.985 . S
C706 C700 1.379 . S
C706 C703 1.363 . S
C706 N704 1.356 . S
C707 C701 1.363 . S
C707 C702 1.379 . S
C707 N705 1.356 . S
N708 C700 1.356 . S
N708 H714 0.984 . S
N708 H715 0.984 . S
N709 C702 1.356 . S
N709 H712 0.984 . S
N709 H713 0.985 . S
H710 N705 0.984 . S
H711 N705 0.985 . S
H712 N709 0.984 . S
H713 N709 0.985 . S
H714 N708 0.984 . S
H715 N708 0.984 . S
H716 N704 0.984 . S
H717 N704 0.985 . S
C718 C719 1.363 . S
C718 C724 1.379 . S
C718 N726 1.356 . S
C719 C718 1.363 . S
C719 C725 1.363 . S
C720 C721 1.363 . S
C720 C725 1.379 . S
C720 N727 1.356 . S
C721 C720 1.363 . S
C721 C724 1.363 . S
N722 C724 1.356 . S
N722 H734 0.984 . S
N722 H735 0.985 . S
N723 C725 1.356 . S
N723 H728 0.984 . S
N723 H729 0.985 . S
C724 C718 1.379 . S
C724 C721 1.363 . S
C724 N722 1.356 . S
C725 C719 1.363 . S
C725 C720 1.379 . S
C725 N723 1.356 . S
N726 C718 1.356 . S
N726 H732 0.984 . S
N726 H733 0.984 . S
N727 C720 1.356 . S
N727 H730 0.984 . S
N727 H731 0.985 . S
H728 N723 0.984 . S
H729 N723 0.985 . S
H730 N727 0.984 . S
H731 N727 0.985 . S
H732 N726 0.984 . S
H733 N726 0.984 . S
H734 N722 0.984 . S
H735 N722 0.985 . S
C736 C737 1.363 . S
C736 C742 1.379 . S
C736 N744 1.356 . S
C737 C736 1.363 . S
C737 C743 1.363 . S
C738 C739 1.363 . S
C738 C743 1.379 . S
C738 N745 1.356 . S
C739 C738 1.363 . S
C739 C742 1.363 . S
N740 C742 1.356 . S
N740 H752 0.984 . S
N740 H753 0.985 . S
N741 C743 1.356 . S
N741 H746 0.984 . S
N741 H747 0.985 . S
C742 C736 1.379 . S
C742 C739 1.363 . S
C742 N740 1.356 . S
C743 C737 1.363 . S
C743 C738 1.379 . S
C743 N741 1.356 . S
N744 C736 1.356 . S
N744 H750 0.984 . S
N744 H751 0.984 . S
N745 C738 1.356 . S
N745 H748 0.984 . S
N745 H749 0.985 . S
H746 N741 0.984 . S
H747 N741 0.985 . S
H748 N745 0.984 . S
H749 N745 0.985 . S
H750 N744 0.984 . S
H751 N744 0.984 . S
H752 N740 0.984 . S
H753 N740 0.985 . S
C754 C755 1.363 . S
C754 C760 1.379 . S
C754 N762 1.356 . S
C755 C754 1.363 . S
C755 C761 1.363 . S
C756 C757 1.363 . S
C756 C761 1.379 . S
C756 N763 1.356 . S
C757 C756 1.363 . S
C757 C760 1.363 . S
N758 C760 1.356 . S
N758 H770 0.984 . S
N758 H771 0.985 . S
N759 C761 1.356 . S
N759 H764 0.984 . S
N759 H765 0.985 . S
C760 C754 1.379 . S
C760 C757 1.363 . S
C760 N758 1.356 . S
C761 C755 1.363 . S
C761 C756 1.379 . S
C761 N759 1.356 . S
N762 C754 1.356 . S
N762 H768 0.984 . S
N762 H769 0.984 . S
N763 C756 1.356 . S
N763 H766 0.984 . S
N763 H767 0.985 . S
H764 N759 0.984 . S
H765 N759 0.985 . S
H766 N763 0.984 . S
H767 N763 0.985 . S
H768 N762 0.984 . S
H769 N762 0.984 . S
H770 N758 0.984 . S
H771 N758 0.985 . S
C772 C773 1.363 . S
C772 C778 1.379 . S
C772 N780 1.356 . S
C773 C772 1.363 . S
C773 C779 1.363 . S
C774 C775 1.363 . S
C774 C779 1.379 . S
C774 N781 1.356 . S
C775 C774 1.363 . S
C775 C778 1.363 . S
N776 C778 1.356 . S
N776 H788 0.984 . S
N776 H789 0.985 . S
N777 C779 1.356 . S
N777 H782 0.984 . S
N777 H783 0.985 . S
C778 C772 1.379 . S
C778 C775 1.363 . S
C778 N776 1.356 . S
C779 C773 1.363 . S
C779 C774 1.379 . S
C779 N777 1.356 . S
N780 C772 1.356 . S
N780 H786 0.984 . S
N780 H787 0.984 . S
N781 C774 1.356 . S
N781 H784 0.984 . S
N781 H785 0.985 . S
H782 N777 0.984 . S
H783 N777 0.985 . S
H784 N781 0.984 . S
H785 N781 0.985 . S
H786 N780 0.984 . S
H787 N780 0.984 . S
H788 N776 0.984 . S
H789 N776 0.985 . S
C790 C791 1.363 . S
C790 C796 1.379 . S
C790 N798 1.356 . S
C791 C790 1.363 . S
C791 C797 1.363 . S
C792 C793 1.363 . S
C792 C797 1.379 . S
C792 N799 1.356 . S
C793 C792 1.363 . S
C793 C796 1.363 . S
N794 C796 1.356 . S
N794 H806 0.984 . S
N794 H807 0.985 . S
N795 C797 1.356 . S
N795 H800 0.984 . S
N795 H801 0.985 . S
C796 C790 1.379 . S
C796 C793 1.363 . S
C796 N794 1.356 . S
C797 C791 1.363 . S
C797 C792 1.379 . S
C797 N795 1.356 . S
N798 C790 1.356 . S
N798 H804 0.984 . S
N798 H805 0.984 . S
N799 C792 1.356 . S
N799 H802 0.984 . S
N799 H803 0.985 . S
H800 N795 0.984 . S
H801 N795 0.985 . S
H802 N799 0.984 . S
H803 N799 0.985 . S
H804 N798 0.984 . S
H805 N798 0.984 . S
H806 N794 0.984 . S
H807 N794 0.985 . S
C377 C25 1.543 . S
C379 C331 1.552 . S
C397 C295 1.552 . S
C395 C61 1.543 . S
C415 C318 1.549 . S
C413 C97 1.564 . S
C433 C306 1.549 . S
C431 C133 1.564 . S
C451 C375 1.552 . S
C449 C169 1.543 . S
C469 C339 1.552 . S
C467 C205 1.543 . S
C485 C241 1.564 . S
C487 C362 1.549 . S
C505 C350 1.549 . S
C503 C277 1.564 . S
C521 C31 1.514 . S
C523 C372 1.579 . S
C541 C342 1.579 . S
C539 C67 1.514 . S
C557 C103 1.574 . S
C559 C361 1.609 . S
C575 C139 1.574 . S
C577 C347 1.609 . S
C595 C328 1.579 . S
C593 C175 1.514 . S
C611 C211 1.514 . S
C613 C298 1.579 . S
C631 C317 1.610 . S
C629 C247 1.574 . S
C649 C303 1.610 . S
C647 C283 1.574 . S
C667 C353 1.584 . S
C665 C1 1.540 . S
C685 C369 1.584 . S
C683 C37 1.540 . S
C701 C73 1.546 . S
C703 C340 1.563 . S
C721 C364 1.563 . S
C719 C109 1.546 . S
C739 C309 1.584 . S
C737 C145 1.540 . S
C755 C181 1.540 . S
C757 C325 1.584 . S
C773 C217 1.546 . S
C775 C296 1.564 . S
C791 C253 1.546 . S
C793 C320 1.564 . S
