# Generated by pormake.
# Topology rtl, (3,6)-cn, num edge types: 1
# Building blocks:
#     Node 0, Type 0, BuildingBlock: VETTIZ_charged_linker_0, # of connection points: 3
#     Node 1, Type 0, BuildingBlock: VETTIZ_charged_linker_0, # of connection points: 3
#     Node 2, Type 0, BuildingBlock: VETTIZ_charged_linker_0, # of connection points: 3
#     Node 3, Type 0, BuildingBlock: VETTIZ_charged_linker_0, # of connection points: 3
#     Node 4, Type 1, BuildingBlock: VOLQOD_clean_sbu_1, # of connection points: 6
#     Node 5, Type 1, BuildingBlock: VOLQOD_clean_sbu_1, # of connection points: 6
#     Edge 6, Type (0, 1), BuildingBlock: KIFKEQ_clean_linker_1, # of connection points: 2
#     Edge 7, Type (0, 1), BuildingBlock: KIFKEQ_clean_linker_1, # of connection points: 2
#     Edge 8, Type (0, 1), BuildingBlock: KIFKEQ_clean_linker_1, # of connection points: 2
#     Edge 9, Type (0, 1), BuildingBlock: KIFKEQ_clean_linker_1, # of connection points: 2
#     Edge 10, Type (0, 1), BuildingBlock: KIFKEQ_clean_linker_1, # of connection points: 2
#     Edge 11, Type (0, 1), BuildingBlock: KIFKEQ_clean_linker_1, # of connection points: 2
#     Edge 12, Type (0, 1), BuildingBlock: KIFKEQ_clean_linker_1, # of connection points: 2
#     Edge 13, Type (0, 1), BuildingBlock: KIFKEQ_clean_linker_1, # of connection points: 2
#     Edge 14, Type (0, 1), BuildingBlock: KIFKEQ_clean_linker_1, # of connection points: 2
#     Edge 15, Type (0, 1), BuildingBlock: KIFKEQ_clean_linker_1, # of connection points: 2
#     Edge 16, Type (0, 1), BuildingBlock: KIFKEQ_clean_linker_1, # of connection points: 2
#     Edge 17, Type (0, 1), BuildingBlock: KIFKEQ_clean_linker_1, # of connection points: 2
# Relax obj value: 0.081
# Max RMSD: 0.157
# Mean RMSD: 0.091
data_MOF--net-rtl--node1-VOLQOD_clean_sbu_1--node2-VETTIZ_charged_linker_0--edge1-KIFKEQ_clean_linker_1
_symmetry_space_group_name_H-M    P1
_symmetry_Int_Tables_number       1
_symmetry_cell_setting            triclinic
loop_
_symmetry_equiv_pos_as_xyz
'x, y, z'
_cell_length_a     45.139485
_cell_length_b     38.887796
_cell_length_c     29.526358
_cell_angle_alpha  89.985112
_cell_angle_beta   90.331163
_cell_angle_gamma 89.949985
loop_
_atom_site_label
_atom_site_type_symbol
_atom_site_fract_x
_atom_site_fract_y
_atom_site_fract_z
_atom_type_partial_charge
C0 C 0.09262 0.76413 0.86238 0.0
C1 C 0.0682 0.78657 0.85964 0.0
C2 C 0.05125 0.79268 0.89877 0.0
C3 C 0.08464 0.75716 0.94308 0.0
C4 C 0.10032 0.74961 0.90428 0.0
C5 C 0.12609 0.726 0.91361 0.0
H6 H 0.21575 0.64786 0.06664 0.0
C7 C 0.09983 0.74051 0.9817 0.0
C8 C 0.12391 0.72179 0.96467 0.0
H9 H 0.22168 0.64542 0.92052 0.0
H10 H 0.17638 0.67807 0.91437 0.0
H11 H 0.19878 0.72585 0.07372 0.0
H12 H 0.14425 0.63514 0.07144 0.0
H13 H 0.1299 0.66289 0.11293 0.0
H14 H 0.16711 0.64648 0.11908 0.0
H15 H 0.19577 0.69781 0.12173 0.0
H16 H 0.17014 0.73275 0.11251 0.0
C17 C 0.15484 0.74483 0.89962 0.0
C18 C 0.12056 0.69164 0.88834 0.0
C19 C 0.06936 0.77152 0.14166 0.0
C20 C 0.08196 0.76458 0.18431 0.0
C21 C 0.10568 0.74109 0.18744 0.0
C22 C 0.11739 0.72577 0.14846 0.0
C23 C 0.10554 0.73439 0.10578 0.0
C24 C 0.08157 0.75642 0.10302 0.0
C25 C 0.07261 0.76384 0.05489 0.0
C26 C 0.09537 0.74291 0.02915 0.0
C27 C 0.11464 0.7258 0.0591 0.0
C28 C 0.0762 0.80303 0.04673 0.0
C29 C 0.04076 0.75005 0.04733 0.0
C30 C 0.20732 0.65441 0.03331 0.0
C31 C 0.22244 0.64418 0.99403 0.0
C32 C 0.21038 0.65274 0.95131 0.0
C33 C 0.18416 0.67193 0.9478 0.0
C34 C 0.16985 0.68288 0.98739 0.0
C35 C 0.18117 0.67357 0.0292 0.0
C36 C 0.16296 0.6874 0.06761 0.0
C37 C 0.13877 0.70643 0.04193 0.0
C38 C 0.14314 0.70406 0.99496 0.0
C39 C 0.18277 0.71209 0.09577 0.0
C40 C 0.15045 0.65655 0.09461 0.0
H41 H 0.04589 0.78433 0.96907 0.0
H42 H 0.10572 0.75845 0.83268 0.0
H43 H 0.09645 0.68627 0.88475 0.0
H44 H 0.1295 0.66919 0.90692 0.0
H45 H 0.13012 0.69223 0.85377 0.0
H46 H 0.15419 0.77218 0.91064 0.0
H47 H 0.1576 0.74449 0.86226 0.0
H48 H 0.17497 0.73399 0.91539 0.0
H49 H 0.05142 0.78987 0.13807 0.0
H50 H 0.11556 0.73513 0.22003 0.0
H51 H 0.13576 0.70856 0.15297 0.0
H52 H 0.09622 0.813 0.06452 0.0
H53 H 0.05675 0.81748 0.05961 0.0
H54 H 0.07955 0.80983 0.0109 0.0
H55 H 0.03648 0.72702 0.0687 0.0
H56 H 0.03688 0.74116 0.01221 0.0
H57 H 0.02393 0.76977 0.05611 0.0
H58 H 0.03241 0.80994 0.89763 0.0
C59 C 0.05928 0.77802 0.94036 0.0
C60 C 0.58716 0.749 0.6507 0.0
C61 C 0.5638 0.72511 0.65242 0.0
C62 C 0.54812 0.71728 0.61233 0.0
C63 C 0.58106 0.75372 0.56922 0.0
C64 C 0.59529 0.76307 0.60888 0.0
C65 C 0.62032 0.7878 0.60056 0.0
H66 H 0.71327 0.86347 0.4523 0.0
C67 C 0.59677 0.76998 0.53111 0.0
C68 C 0.61955 0.7904 0.54919 0.0
H69 H 0.71241 0.87296 0.59825 0.0
H70 H 0.66793 0.83882 0.60161 0.0
H71 H 0.69813 0.78561 0.44846 0.0
H72 H 0.6405 0.8737 0.43884 0.0
H73 H 0.62947 0.84387 0.39723 0.0
H74 H 0.66612 0.86222 0.39506 0.0
H75 H 0.69627 0.81181 0.39848 0.0
H76 H 0.67131 0.77626 0.40708 0.0
C77 C 0.64934 0.77096 0.61803 0.0
C78 C 0.61264 0.82252 0.6235 0.0
C79 C 0.57191 0.73297 0.37075 0.0
C80 C 0.58536 0.73904 0.32874 0.0
C81 C 0.60899 0.76265 0.32631 0.0
C82 C 0.61947 0.77932 0.3654 0.0
C83 C 0.60648 0.77193 0.40748 0.0
C84 C 0.58287 0.74939 0.40948 0.0
C85 C 0.57269 0.74318 0.45711 0.0
C86 C 0.59404 0.76573 0.48353 0.0
C87 C 0.61381 0.78251 0.45437 0.0
C88 C 0.57709 0.70441 0.46775 0.0
C89 C 0.5403 0.75603 0.46114 0.0
C90 C 0.70322 0.85872 0.48492 0.0
C91 C 0.71659 0.87067 0.52511 0.0
C92 C 0.70288 0.86354 0.56688 0.0
C93 C 0.677 0.84378 0.56877 0.0
C94 C 0.66469 0.83072 0.52852 0.0
C95 C 0.67736 0.83891 0.48742 0.0
C96 C 0.66111 0.82279 0.44818 0.0
C97 C 0.63659 0.80367 0.47256 0.0
C98 C 0.63909 0.80803 0.51966 0.0
C99 C 0.68268 0.79795 0.42384 0.0
C100 C 0.64872 0.85197 0.41783 0.0
H101 H 0.54422 0.72383 0.5414 0.0
H102 H 0.59925 0.756 0.68113 0.0
H103 H 0.58826 0.82624 0.62602 0.0
H104 H 0.62045 0.84491 0.60375 0.0
H105 H 0.62195 0.82391 0.65835 0.0
H106 H 0.6503 0.74342 0.60793 0.0
H107 H 0.65074 0.77215 0.65557 0.0
H108 H 0.66949 0.78273 0.60397 0.0
H109 H 0.55408 0.7145 0.37388 0.0
H110 H 0.61956 0.76791 0.29421 0.0
H111 H 0.63771 0.79671 0.36148 0.0
H112 H 0.59752 0.69441 0.45142 0.0
H113 H 0.55813 0.68894 0.45497 0.0
H114 H 0.58028 0.69895 0.50408 0.0
H115 H 0.53623 0.77855 0.43868 0.0
H116 H 0.53497 0.76534 0.49553 0.0
H117 H 0.5243 0.73563 0.45131 0.0
H118 H 0.5301 0.6989 0.61268 0.0
C119 C 0.55654 0.73154 0.57084 0.0
C120 C 0.91757 0.24776 0.14922 0.0
C121 C 0.94205 0.22526 0.15051 0.0
C122 C 0.95988 0.22206 0.11168 0.0
C123 C 0.92602 0.25804 0.06927 0.0
C124 C 0.91005 0.26399 0.10825 0.0
C125 C 0.88379 0.28712 0.09955 0.0
H126 H 0.78928 0.35935 0.94843 0.0
C127 C 0.91004 0.27398 0.03099 0.0
C128 C 0.88553 0.29161 0.04839 0.0
H129 H 0.78865 0.36819 0.09447 0.0
H130 H 0.83423 0.33593 0.0992 0.0
H131 H 0.86245 0.37232 0.93662 0.0
H132 H 0.80677 0.28263 0.94507 0.0
H133 H 0.8353 0.27269 0.90723 0.0
H134 H 0.80979 0.30702 0.89374 0.0
H135 H 0.83555 0.36094 0.89414 0.0
H136 H 0.87239 0.34316 0.89348 0.0
C137 C 0.8889 0.32148 0.12507 0.0
C138 C 0.85537 0.26773 0.1138 0.0
C139 C 0.93737 0.23719 0.87251 0.0
C140 C 0.92244 0.23918 0.83072 0.0
C141 C 0.89756 0.261 0.82684 0.0
C142 C 0.88672 0.27874 0.86479 0.0
C143 C 0.9007 0.27429 0.90712 0.0
C144 C 0.92591 0.25425 0.91013 0.0
C145 C 0.93668 0.24995 0.95796 0.0
C146 C 0.91345 0.27021 0.98352 0.0
C147 C 0.89264 0.28483 0.95367 0.0
C148 C 0.96757 0.26705 0.96191 0.0
C149 C 0.9362 0.21091 0.96965 0.0
C150 C 0.79922 0.35484 0.98138 0.0
C151 C 0.7852 0.36614 0.02115 0.0
C152 C 0.79872 0.35929 0.06339 0.0
C153 C 0.82525 0.34068 0.0661 0.0
C154 C 0.83838 0.3285 0.02622 0.0
C155 C 0.82573 0.33621 0.9847 0.0
C156 C 0.84292 0.32102 0.94598 0.0
C157 C 0.86834 0.30379 0.97115 0.0
C158 C 0.86519 0.30771 0.01821 0.0
C159 C 0.85387 0.35075 0.91557 0.0
C160 C 0.82279 0.29461 0.92131 0.0
H161 H 0.96584 0.23372 0.04242 0.0
H162 H 0.90367 0.25117 0.17863 0.0
H163 H 0.85568 0.24094 0.10059 0.0
H164 H 0.8349 0.27949 0.10043 0.0
H165 H 0.85361 0.26642 0.15127 0.0
H166 H 0.91284 0.32615 0.13179 0.0
H167 H 0.87743 0.32162 0.15826 0.0
H168 H 0.88155 0.34403 0.10501 0.0
H169 H 0.95684 0.22115 0.87659 0.0
H170 H 0.88561 0.26308 0.79505 0.0
H171 H 0.86723 0.29419 0.86008 0.0
H172 H 0.96856 0.29092 0.94117 0.0
H173 H 0.98527 0.24953 0.94975 0.0
H174 H 0.97289 0.27543 0.99679 0.0
H175 H 0.91987 0.19672 0.94836 0.0
H176 H 0.92904 0.20557 0.00462 0.0
H177 H 0.9582 0.19886 0.96413 0.0
H178 H 0.97946 0.20593 0.11217 0.0
C179 C 0.95203 0.23834 0.0712 0.0
C180 C 0.4107 0.26355 0.35876 0.0
C181 C 0.43499 0.28614 0.35688 0.0
C182 C 0.45143 0.29264 0.39668 0.0
C183 C 0.41764 0.25736 0.43992 0.0
C184 C 0.40254 0.24935 0.40049 0.0
C185 C 0.37677 0.2257 0.40893 0.0
H186 H 0.28438 0.15034 0.55852 0.0
C187 C 0.40193 0.24114 0.47807 0.0
C188 C 0.37819 0.22213 0.46017 0.0
H189 H 0.28224 0.1438 0.41225 0.0
H190 H 0.32715 0.1771 0.40804 0.0
H191 H 0.35632 0.13727 0.5682 0.0
H192 H 0.30135 0.22775 0.56443 0.0
H193 H 0.32929 0.23547 0.60462 0.0
H194 H 0.30363 0.20062 0.6135 0.0
H195 H 0.33229 0.14915 0.61384 0.0
H196 H 0.3695 0.16573 0.60998 0.0
C197 C 0.38285 0.19107 0.38468 0.0
C198 C 0.34814 0.2442 0.39302 0.0
C199 C 0.42996 0.27418 0.63881 0.0
C200 C 0.41673 0.26789 0.68095 0.0
C201 C 0.39273 0.24481 0.68334 0.0
C202 C 0.38148 0.22912 0.6441 0.0
C203 C 0.39409 0.23695 0.6019 0.0
C204 C 0.41822 0.25873 0.5999 0.0
C205 C 0.42793 0.26547 0.55213 0.0
C206 C 0.40556 0.24426 0.52567 0.0
C207 C 0.38578 0.22767 0.55495 0.0
C208 C 0.45987 0.25147 0.54661 0.0
C209 C 0.42452 0.30456 0.54288 0.0
C210 C 0.2938 0.1556 0.52558 0.0
C211 C 0.2795 0.14465 0.48566 0.0
C212 C 0.29244 0.15247 0.44351 0.0
C213 C 0.31862 0.17169 0.44111 0.0
C214 C 0.33206 0.18342 0.48123 0.0
C215 C 0.31996 0.17476 0.52258 0.0
C216 C 0.33739 0.18932 0.56166 0.0
C217 C 0.36201 0.20797 0.53693 0.0
C218 C 0.35852 0.20481 0.48981 0.0
C219 C 0.34945 0.15898 0.59034 0.0
C220 C 0.31702 0.21446 0.58785 0.0
H221 H 0.45593 0.28491 0.46734 0.0
H222 H 0.39801 0.25757 0.32853 0.0
H223 H 0.34833 0.27158 0.40395 0.0
H224 H 0.32781 0.23315 0.40748 0.0
H225 H 0.34613 0.24373 0.35551 0.0
H226 H 0.40704 0.18609 0.38157 0.0
H227 H 0.37324 0.19089 0.34997 0.0
H228 H 0.3743 0.16874 0.40379 0.0
H229 H 0.4481 0.29224 0.63577 0.0
H230 H 0.38234 0.23939 0.71554 0.0
H231 H 0.3629 0.21221 0.64802 0.0
H232 H 0.4637 0.22858 0.56852 0.0
H233 H 0.47658 0.27117 0.55614 0.0
H234 H 0.46435 0.24231 0.51186 0.0
H235 H 0.40435 0.31488 0.55959 0.0
H236 H 0.42153 0.31088 0.50676 0.0
H237 H 0.44387 0.31909 0.55621 0.0
H238 H 0.47017 0.31001 0.39616 0.0
C239 C 0.44295 0.27828 0.43809 0.0
O240 O 0.92664 0.00402 0.50281 0.0
Zn241 Zn 0.96438 0.03225 0.50124 0.0
O242 O -0.00024 0.00278 0.5043 0.0
Zn243 Zn 0.0237 0.0144 0.55778 0.0
Zn244 Zn 0.98765 0.9546 0.50743 0.0
Zn245 Zn 0.02355 0.00954 0.45014 0.0
O246 O 0.06462 0.03087 0.54054 0.0
O247 O 0.06416 0.02689 0.46563 0.0
O248 O 0.96356 0.06506 0.55401 0.0
O249 O 0.00423 0.05239 0.59333 0.0
O250 O 0.02865 0.97323 0.59887 0.0
O251 O 0.00313 0.93211 0.56412 0.0
O252 O 0.00291 0.92718 0.45449 0.0
O253 O 0.96407 0.06113 0.44438 0.0
O254 O 0.02867 0.96551 0.41543 0.0
O255 O 0.00495 0.04462 0.40904 0.0
C256 C 0.92201 0.97177 0.50585 0.0
C257 C 0.07743 0.03429 0.50248 0.0
C258 C 0.01915 0.94241 0.59704 0.0
C259 C 0.98074 0.07014 0.58772 0.0
C260 C 0.01919 0.93498 0.42097 0.0
C261 C 0.98176 0.06321 0.41103 0.0
O262 O 0.94341 0.95048 0.50796 0.0
O263 O 0.57622 0.50244 0.00079 0.0
Zn264 Zn 0.53891 0.53156 0.00052 0.0
O265 O 0.50309 0.5031 0.00365 0.0
Zn266 Zn 0.47854 0.51108 0.9499 0.0
Zn267 Zn 0.51445 0.45463 0.00592 0.0
Zn268 Zn 0.48038 0.51478 0.05794 0.0
O269 O 0.43834 0.52911 0.96672 0.0
O270 O 0.43941 0.53193 0.04175 0.0
O271 O 0.53872 0.56095 0.94426 0.0
O272 O 0.49713 0.54617 0.90882 0.0
O273 O 0.47223 0.4674 0.91459 0.0
O274 O 0.49781 0.42819 0.95299 0.0
O275 O 0.49967 0.43195 0.06262 0.0
O276 O 0.54108 0.56393 0.05365 0.0
O277 O 0.47552 0.47343 0.09854 0.0
O278 O 0.50086 0.55213 0.09373 0.0
C279 C 0.58034 0.47004 0.00302 0.0
C280 C 0.42588 0.53613 0.00417 0.0
C281 C 0.48125 0.4366 0.91974 0.0
C282 C 0.52075 0.564 0.91108 0.0
C283 C 0.48445 0.4424 0.09607 0.0
C284 C 0.52457 0.56928 0.08777 0.0
O285 O 0.5586 0.44929 0.00519 0.0
H286 H 0.23104 0.15405 0.43126 0.0
H287 H 0.26243 0.09435 0.54531 0.0
H288 H 0.18318 0.12559 0.43569 0.0
H289 H 0.21429 0.06593 0.54989 0.0
H290 H 0.11301 0.05472 0.57323 0.0
H291 H 0.16249 0.07979 0.56913 0.0
H292 H 0.16078 0.06923 0.42351 0.0
H293 H 0.11132 0.04476 0.42737 0.0
C294 C 0.22788 0.1345 0.4569 0.0
C295 C 0.25063 0.12639 0.4878 0.0
C296 C 0.2004 0.11822 0.45949 0.0
C297 C 0.19496 0.09344 0.49308 0.0
C298 C 0.2177 0.08521 0.52396 0.0
C299 C 0.24526 0.10148 0.52132 0.0
C300 C 0.12323 0.05761 0.54035 0.0
C301 C 0.10807 0.04792 0.50062 0.0
C302 C 0.15166 0.07181 0.53804 0.0
C303 C 0.16548 0.07667 0.49597 0.0
C304 C 0.15055 0.06633 0.45639 0.0
C305 C 0.12222 0.05213 0.45867 0.0
H306 H 0.26828 0.65782 0.05205 0.0
H307 H 0.24193 0.58957 0.9437 0.0
H308 H 0.31655 0.62991 0.05565 0.0
H309 H 0.29025 0.56146 0.94742 0.0
H310 H 0.39098 0.55044 0.93049 0.0
H311 H 0.34132 0.57473 0.92953 0.0
H312 H 0.34123 0.5766 0.07584 0.0
H313 H 0.39127 0.55295 0.0769 0.0
C314 C 0.27264 0.63649 0.02946 0.0
C315 C 0.25128 0.62594 -0.00246 0.0
C316 C 0.30032 0.62047 0.03153 0.0
C317 C 0.30731 0.59349 0.00177 0.0
C318 C 0.28576 0.58254 0.97035 0.0
C319 C 0.25807 0.59862 0.96822 0.0
C320 C 0.3804 0.55592 0.96252 0.0
C321 C 0.39523 0.54985 0.00378 0.0
C322 C 0.35179 0.56964 0.96194 0.0
C323 C 0.33728 0.57761 0.0026 0.0
C324 C 0.35194 0.57116 0.0439 0.0
C325 C 0.38059 0.55745 0.04449 0.0
H326 H 0.76402 0.86056 0.58109 0.0
H327 H 0.73509 0.9206 0.46587 0.0
H328 H 0.81275 0.88703 0.577 0.0
H329 H 0.78439 0.94649 0.46102 0.0
H330 H 0.86984 0.00789 0.49762 0.0
H331 H 0.81937 0.98539 0.50312 0.0
H332 H 0.85436 0.88316 0.52376 0.0
H333 H 0.90449 0.90538 0.51875 0.0
C334 C 0.76795 0.87971 0.55517 0.0
C335 C 0.74566 0.88849 0.52381 0.0
C336 C 0.796 0.89458 0.55251 0.0
C337 C 0.80247 0.91862 0.51845 0.0
C338 C 0.78 0.92814 0.48775 0.0
C339 C 0.75189 0.91311 0.49029 0.0
C340 C 0.86674 0.98061 0.50329 0.0
C341 C 0.89126 0.95849 0.50791 0.0
C342 C 0.83784 0.96774 0.50624 0.0
C343 C 0.83293 0.93257 0.5142 0.0
C344 C 0.85743 0.91048 0.51835 0.0
C345 C 0.8862 0.92324 0.51518 0.0
H346 H 0.76665 0.41638 0.96211 0.0
H347 H 0.73734 0.35462 0.07492 0.0
H348 H 0.71739 0.44254 0.95678 0.0
H349 H 0.68862 0.38129 0.07035 0.0
H350 H 0.59688 0.40295 0.01299 0.0
H351 H 0.64669 0.37944 0.01683 0.0
H352 H 0.68313 0.48123 -0.00015 0.0
H353 H 0.63301 0.50503 0.9955 0.0
C354 C 0.74974 0.4085 0.98583 0.0
C355 C 0.75588 0.38342 0.01892 0.0
C356 C 0.72166 0.42368 0.98303 0.0
C357 C 0.69911 0.41385 0.01301 0.0
C358 C 0.70542 0.38912 0.04642 0.0
C359 C 0.73345 0.37412 0.04936 0.0
C360 C 0.61543 0.42044 0.00995 0.0
C361 C 0.61088 0.45595 0.0041 0.0
C362 C 0.64402 0.40692 0.01243 0.0
C363 C 0.66883 0.42851 0.00901 0.0
C364 C 0.66441 0.46395 0.00236 0.0
C365 C 0.63571 0.47757 8e-05 0.0
H366 H 0.02526 0.77846 0.21134 0.0
H367 H 0.1169 0.79647 0.24685 0.0
H368 H 0.00979 0.81785 0.27142 0.0
H369 H 0.10144 0.83545 0.30702 0.0
H370 H 0.99586 0.8703 0.41125 0.0
H371 H 0.01091 0.82578 0.3575 0.0
H372 H 0.07727 0.8941 0.30352 0.0
H373 H 0.06235 0.93852 0.35684 0.0
C374 C 0.04204 0.79047 0.2324 0.0
C375 C 0.07227 0.78448 0.22439 0.0
C376 C 0.0332 0.81282 0.26687 0.0
C377 C 0.05445 0.82988 0.29355 0.0
C378 C 0.08462 0.82289 0.28661 0.0
C379 C 0.09344 0.80031 0.25251 0.0
C380 C 0.01368 0.87579 0.38793 0.0
C381 C 0.0279 0.90798 0.38831 0.0
C382 C 0.0222 0.85035 0.35713 0.0
C383 C 0.04536 0.85645 0.32662 0.0
C384 C 0.05961 0.88854 0.3271 0.0
C385 C 0.05088 0.91407 0.35743 0.0
H386 H 0.50955 0.71105 0.68889 0.0
H387 H 0.60329 0.69573 0.71087 0.0
H388 H 0.49885 0.67434 0.75382 0.0
H389 H 0.59271 0.65857 0.77514 0.0
H390 H 0.56434 0.61294 0.90964 0.0
H391 H 0.57397 0.65528 0.85071 0.0
H392 H 0.50141 0.61426 0.77137 0.0
H393 H 0.49123 0.57267 0.83076 0.0
C394 C 0.52785 0.69993 0.70777 0.0
C395 C 0.55724 0.70618 0.69477 0.0
C396 C 0.52175 0.67877 0.74481 0.0
C397 C 0.54491 0.66319 0.76946 0.0
C398 C 0.57433 0.67044 0.75732 0.0
C399 C 0.58042 0.69178 0.72047 0.0
C400 C 0.55043 0.61295 0.87962 0.0
C401 C 0.52704 0.58934 0.87492 0.0
C402 C 0.55601 0.63719 0.84576 0.0
C403 C 0.53843 0.63827 0.80631 0.0
C404 C 0.51506 0.61462 0.80166 0.0
C405 C 0.50937 0.59053 0.83559 0.0
H406 H 0.95724 0.15762 0.14964 0.0
H407 H 0.93866 0.24149 0.24122 0.0
H408 H 0.96662 0.11988 0.21353 0.0
H409 H 0.94789 0.20319 0.30577 0.0
H410 H 0.9363 0.11 0.40451 0.0
H411 H 0.92662 0.15058 0.3429 0.0
H412 H 0.0043 0.11378 0.27322 0.0
H413 H 0.0138 0.07309 0.33403 0.0
C414 C 0.95557 0.16818 0.18347 0.0
C415 C 0.9477 0.20277 0.1903 0.0
C416 C 0.96086 0.14645 0.22012 0.0
C417 C 0.95829 0.15864 0.26465 0.0
C418 C 0.94989 0.19306 0.27175 0.0
C419 C 0.94465 0.21496 0.23487 0.0
C420 C 0.95129 0.11055 0.37601 0.0
C421 C 0.9757 0.08807 0.37408 0.0
C422 C 0.94585 0.13398 0.34093 0.0
C423 C 0.96462 0.13523 0.30317 0.0
C424 C 0.98919 0.11307 0.30158 0.0
C425 C 0.99467 0.0898 0.33657 0.0
H426 H 0.47329 0.28041 0.71024 0.0
H427 H 0.38167 0.30119 0.74154 0.0
H428 H 0.48887 0.31958 0.77067 0.0
H429 H 0.39722 0.33998 0.80218 0.0
H430 H 0.43812 0.44162 0.85481 0.0
H431 H 0.42245 0.3978 0.80082 0.0
H432 H 0.48729 0.32741 0.856 0.0
H433 H 0.50311 0.37127 0.91025 0.0
C434 C 0.45653 0.29301 0.73045 0.0
C435 C 0.42629 0.28784 0.72118 0.0
C436 C 0.46543 0.31524 0.76513 0.0
C437 C 0.44423 0.33299 0.79082 0.0
C438 C 0.41401 0.32689 0.78255 0.0
C439 C 0.40512 0.30442 0.74821 0.0
C440 C 0.44907 0.41683 0.85551 0.0
C441 C 0.4719 0.40997 0.88683 0.0
C442 C 0.43992 0.39165 0.82481 0.0
C443 C 0.45356 0.35917 0.82442 0.0
C444 C 0.47648 0.35229 0.85549 0.0
C445 C 0.48544 0.37737 0.88659 0.0
H446 H 0.62081 0.70601 0.26821 0.0
H447 H 0.52903 0.72555 0.29949 0.0
H448 H 0.60574 0.66672 0.2081 0.0
H449 H 0.51379 0.68681 0.2387 0.0
H450 H 0.49926 0.58272 0.16988 0.0
H451 H 0.51365 0.62623 0.2249 0.0
H452 H 0.5828 0.6611 0.13529 0.0
H453 H 0.56898 0.61685 0.0808 0.0
C454 C 0.59739 0.7025 0.26149 0.0
C455 C 0.57609 0.71873 0.28862 0.0
C456 C 0.58872 0.67996 0.22704 0.0
C457 C 0.55853 0.67333 0.21876 0.0
C458 C 0.53723 0.69072 0.24478 0.0
C459 C 0.54592 0.71306 0.27942 0.0
C460 C 0.51751 0.59968 0.16184 0.0
C461 C 0.53303 0.59616 0.12098 0.0
C462 C 0.52563 0.62486 0.19328 0.0
C463 C 0.54935 0.6473 0.18452 0.0
C464 C 0.56468 0.64398 0.14343 0.0
C465 C 0.55668 0.61866 0.1121 0.0
H466 H 0.9248 0.25318 0.73923 0.0
H467 H 0.93933 0.17213 0.83712 0.0
H468 H 0.93957 0.21388 0.67843 0.0
H469 H 0.95443 0.13357 0.777 0.0
H470 H 0.00953 0.08497 0.66703 0.0
H471 H 0.99621 0.1278 0.72348 0.0
H472 H 0.92149 0.15914 0.64133 0.0
H473 H 0.93489 0.11642 0.58436 0.0
C474 C 0.93111 0.22709 0.74778 0.0
C475 C 0.93134 0.21601 0.79313 0.0
C476 C 0.93957 0.20464 0.71304 0.0
C477 C 0.94851 0.17081 0.72309 0.0
C478 C 0.94835 0.15972 0.7683 0.0
C479 C 0.93976 0.18193 0.80279 0.0
C480 C 0.99033 0.10104 0.66079 0.0
C481 C 0.97315 0.09703 0.62129 0.0
C482 C 0.98266 0.12552 0.69323 0.0
C483 C 0.95771 0.14667 0.68691 0.0
C484 C 0.94095 0.14336 0.64694 0.0
C485 C 0.94853 0.1187 0.61451 0.0
H486 H 0.39624 0.31847 0.29999 0.0
H487 H 0.4894 0.29709 0.31909 0.0
H488 H 0.40781 0.35452 0.23475 0.0
H489 H 0.50101 0.33361 0.25414 0.0
H490 H 0.44541 0.45179 0.16551 0.0
H491 H 0.43312 0.41148 0.2258 0.0
H492 H 0.49386 0.3372 0.16973 0.0
H493 H 0.50633 0.37748 0.10938 0.0
C494 C 0.41915 0.32105 0.2898 0.0
C495 C 0.44194 0.30501 0.31463 0.0
C496 C 0.42578 0.34199 0.25279 0.0
C497 C 0.45531 0.34707 0.23962 0.0
C498 C 0.47803 0.33003 0.26342 0.0
C499 C 0.47142 0.30933 0.30071 0.0
C500 C 0.45616 0.42687 0.16597 0.0
C501 C 0.47688 0.4179 0.13263 0.0
C502 C 0.44894 0.4037 0.20032 0.0
C503 C 0.46247 0.37117 0.20234 0.0
C504 C 0.48323 0.36218 0.16914 0.0
C505 C 0.49026 0.38523 0.13451 0.0
H506 H 0.1072 0.81916 0.80408 0.0
H507 H 0.01403 0.79738 0.82003 0.0
H508 H 0.0959 0.8551 0.73838 0.0
H509 H 0.00268 0.83384 0.75477 0.0
H510 H 0.99735 0.87756 0.61042 0.0
H511 H 0.00989 0.83746 0.67112 0.0
H512 H 0.07079 0.91174 0.7276 0.0
H513 H 0.05847 0.95185 0.66686 0.0
C514 C 0.08435 0.82165 0.79313 0.0
C515 C 0.06148 0.80551 0.81721 0.0
C516 C 0.07787 0.84253 0.75586 0.0
C517 C 0.0484 0.84748 0.74168 0.0
C518 C 0.02561 0.83037 0.76479 0.0
C519 C 0.03208 0.8097 0.80229 0.0
C520 C 0.01348 0.88535 0.63569 0.0
C521 C 0.02687 0.91798 0.63378 0.0
C522 C 0.02055 0.8624 0.67055 0.0
C523 C 0.04135 0.87144 0.70402 0.0
C524 C 0.05494 0.9039 0.70194 0.0
C525 C 0.0477 0.92697 0.66731 0.0
loop_
_geom_bond_atom_site_label_1
_geom_bond_atom_site_label_2
_geom_bond_distance
_geom_bond_site_symmetry_2
_ccdc_geom_bond_type
C0 C1 1.391 . S
C0 C4 1.391 . S
C0 H42 0.948 . S
C1 C0 1.391 . S
C1 C2 1.391 . S
C2 C1 1.391 . S
C2 H58 0.947 . S
C2 C59 1.392 . S
C3 C4 1.391 . S
C3 C7 1.397 . S
C3 C59 1.419 . S
C4 C0 1.391 . S
C4 C3 1.391 . S
C4 C5 1.399 . S
C5 C4 1.399 . S
C5 C8 1.396 . S
C5 C17 1.453 . S
C5 C18 1.684 . S
H6 C30 0.948 . S
C7 C3 1.397 . S
C7 C8 1.394 . S
C7 C26 1.723 1_556 S
C8 C5 1.396 . S
C8 C7 1.394 . S
C8 C38 1.728 . S
H9 C32 0.947 . S
H10 C33 0.948 . S
H11 C39 0.982 . S
H12 C40 0.979 . S
H13 C40 0.980 . S
H14 C40 0.983 . S
H15 C39 0.979 . S
H16 C39 0.977 . S
C17 C5 1.453 . S
C17 H46 0.982 . S
C17 H47 0.979 . S
C17 H48 0.977 . S
C18 C5 1.684 . S
C18 H43 0.979 . S
C18 H44 0.980 . S
C18 H45 0.983 . S
C19 C20 1.391 . S
C19 C24 1.391 . S
C19 H49 0.948 . S
C20 C19 1.391 . S
C20 C21 1.391 . S
C21 C20 1.391 . S
C21 C22 1.392 . S
C21 H50 0.947 . S
C22 C21 1.392 . S
C22 C23 1.419 . S
C22 H51 0.948 . S
C23 C22 1.419 . S
C23 C24 1.391 . S
C23 C27 1.397 . S
C24 C19 1.391 . S
C24 C23 1.391 . S
C24 C25 1.399 . S
C25 C24 1.399 . S
C25 C26 1.396 . S
C25 C28 1.453 . S
C25 C29 1.684 . S
C26 C7 1.723 1_554 S
C26 C25 1.396 . S
C26 C27 1.394 . S
C27 C23 1.397 . S
C27 C26 1.394 . S
C27 C37 1.723 . S
C28 C25 1.453 . S
C28 H52 0.982 . S
C28 H53 0.979 . S
C28 H54 0.977 . S
C29 C25 1.684 . S
C29 H55 0.979 . S
C29 H56 0.967 1_554 S
C29 H57 0.983 . S
C30 H6 0.948 . S
C30 C31 1.391 . S
C30 C35 1.391 . S
C31 C30 1.391 . S
C31 C32 1.391 1_554 S
C32 H9 0.947 . S
C32 C31 1.391 1_556 S
C32 C33 1.392 . S
C33 H10 0.948 . S
C33 C32 1.392 . S
C33 C34 1.419 . S
C34 C33 1.419 . S
C34 C35 1.391 1_556 S
C34 C38 1.398 . S
C35 C30 1.391 . S
C35 C34 1.391 1_554 S
C35 C36 1.399 . S
C36 C35 1.399 . S
C36 C37 1.396 . S
C36 C39 1.453 . S
C36 C40 1.684 . S
C37 C27 1.723 . S
C37 C36 1.396 . S
C37 C38 1.388 1_554 S
C38 C8 1.728 . S
C38 C34 1.398 . S
C38 C37 1.388 1_556 S
C39 H11 0.982 . S
C39 H15 0.979 . S
C39 H16 0.977 . S
C39 C36 1.453 . S
C40 H12 0.979 . S
C40 H13 0.980 . S
C40 H14 0.983 . S
C40 C36 1.684 . S
H41 C59 0.948 . S
H42 C0 0.948 . S
H43 C18 0.979 . S
H44 C18 0.980 . S
H45 C18 0.983 . S
H46 C17 0.982 . S
H47 C17 0.979 . S
H48 C17 0.977 . S
H49 C19 0.948 . S
H50 C21 0.947 . S
H51 C22 0.948 . S
H52 C28 0.982 . S
H53 C28 0.979 . S
H54 C28 0.977 . S
H55 C29 0.979 . S
H56 C29 0.967 1_556 S
H57 C29 0.983 . S
H58 C2 0.947 . S
C59 C2 1.392 . S
C59 C3 1.419 . S
C59 H41 0.948 . S
C60 C61 1.391 . S
C60 C64 1.391 . S
C60 H102 0.948 . S
C61 C60 1.391 . S
C61 C62 1.391 . S
C62 C61 1.391 . S
C62 H118 0.947 . S
C62 C119 1.392 . S
C63 C64 1.391 . S
C63 C67 1.397 . S
C63 C119 1.419 . S
C64 C60 1.391 . S
C64 C63 1.391 . S
C64 C65 1.399 . S
C65 C64 1.399 . S
C65 C68 1.396 . S
C65 C77 1.453 . S
C65 C78 1.684 . S
H66 C90 0.948 . S
C67 C63 1.397 . S
C67 C68 1.394 . S
C67 C86 1.723 . S
C68 C65 1.396 . S
C68 C67 1.394 . S
C68 C98 1.723 . S
H69 C92 0.947 . S
H70 C93 0.948 . S
H71 C99 0.982 . S
H72 C100 0.979 . S
H73 C100 0.980 . S
H74 C100 0.983 . S
H75 C99 0.979 . S
H76 C99 0.977 . S
C77 C65 1.453 . S
C77 H106 0.982 . S
C77 H107 0.979 . S
C77 H108 0.977 . S
C78 C65 1.684 . S
C78 H103 0.979 . S
C78 H104 0.980 . S
C78 H105 0.983 . S
C79 C80 1.391 . S
C79 C84 1.391 . S
C79 H109 0.948 . S
C80 C79 1.391 . S
C80 C81 1.391 . S
C81 C80 1.391 . S
C81 C82 1.392 . S
C81 H110 0.947 . S
C82 C81 1.392 . S
C82 C83 1.419 . S
C82 H111 0.948 . S
C83 C82 1.419 . S
C83 C84 1.391 . S
C83 C87 1.397 . S
C84 C79 1.391 . S
C84 C83 1.391 . S
C84 C85 1.399 . S
C85 C84 1.399 . S
C85 C86 1.396 . S
C85 C88 1.453 . S
C85 C89 1.684 . S
C86 C67 1.723 . S
C86 C85 1.396 . S
C86 C87 1.394 . S
C87 C83 1.397 . S
C87 C86 1.394 . S
C87 C97 1.723 . S
C88 C85 1.453 . S
C88 H112 0.982 . S
C88 H113 0.979 . S
C88 H114 0.977 . S
C89 C85 1.684 . S
C89 H115 0.979 . S
C89 H116 0.980 . S
C89 H117 0.983 . S
C90 H66 0.948 . S
C90 C91 1.391 . S
C90 C95 1.391 . S
C91 C90 1.391 . S
C91 C92 1.391 . S
C92 H69 0.947 . S
C92 C91 1.391 . S
C92 C93 1.392 . S
C93 H70 0.948 . S
C93 C92 1.392 . S
C93 C94 1.419 . S
C94 C93 1.419 . S
C94 C95 1.391 . S
C94 C98 1.397 . S
C95 C90 1.391 . S
C95 C94 1.391 . S
C95 C96 1.399 . S
C96 C95 1.399 . S
C96 C97 1.396 . S
C96 C99 1.453 . S
C96 C100 1.684 . S
C97 C87 1.723 . S
C97 C96 1.396 . S
C97 C98 1.394 . S
C98 C68 1.723 . S
C98 C94 1.397 . S
C98 C97 1.394 . S
C99 H71 0.982 . S
C99 H75 0.979 . S
C99 H76 0.977 . S
C99 C96 1.453 . S
C100 H72 0.979 . S
C100 H73 0.980 . S
C100 H74 0.983 . S
C100 C96 1.684 . S
H101 C119 0.948 . S
H102 C60 0.948 . S
H103 C78 0.979 . S
H104 C78 0.980 . S
H105 C78 0.983 . S
H106 C77 0.982 . S
H107 C77 0.979 . S
H108 C77 0.977 . S
H109 C79 0.948 . S
H110 C81 0.947 . S
H111 C82 0.948 . S
H112 C88 0.982 . S
H113 C88 0.979 . S
H114 C88 0.977 . S
H115 C89 0.979 . S
H116 C89 0.980 . S
H117 C89 0.983 . S
H118 C62 0.947 . S
C119 C62 1.392 . S
C119 C63 1.419 . S
C119 H101 0.948 . S
C120 C121 1.391 . S
C120 C124 1.391 . S
C120 H162 0.948 . S
C121 C120 1.391 . S
C121 C122 1.391 . S
C122 C121 1.391 . S
C122 H178 0.947 . S
C122 C179 1.392 . S
C123 C124 1.391 . S
C123 C127 1.397 . S
C123 C179 1.419 . S
C124 C120 1.391 . S
C124 C123 1.391 . S
C124 C125 1.399 . S
C125 C124 1.399 . S
C125 C128 1.396 . S
C125 C137 1.453 . S
C125 C138 1.684 . S
H126 C150 0.948 . S
C127 C123 1.397 . S
C127 C128 1.394 . S
C127 C146 1.723 1_554 S
C128 C125 1.396 . S
C128 C127 1.394 . S
C128 C158 1.723 . S
H129 C152 0.947 . S
H130 C153 0.948 . S
H131 C159 0.982 . S
H132 C160 0.979 . S
H133 C160 0.980 . S
H134 C160 0.983 . S
H135 C159 0.979 . S
H136 C159 0.977 . S
C137 C125 1.453 . S
C137 H166 0.982 . S
C137 H167 0.979 . S
C137 H168 0.977 . S
C138 C125 1.684 . S
C138 H163 0.979 . S
C138 H164 0.980 . S
C138 H165 0.983 . S
C139 C140 1.391 . S
C139 C144 1.391 . S
C139 H169 0.948 . S
C140 C139 1.391 . S
C140 C141 1.391 . S
C141 C140 1.391 . S
C141 C142 1.392 . S
C141 H170 0.947 . S
C142 C141 1.392 . S
C142 C143 1.419 . S
C142 H171 0.948 . S
C143 C142 1.419 . S
C143 C144 1.391 . S
C143 C147 1.397 . S
C144 C139 1.391 . S
C144 C143 1.391 . S
C144 C145 1.399 . S
C145 C144 1.399 . S
C145 C146 1.396 . S
C145 C148 1.453 . S
C145 C149 1.684 . S
C146 C127 1.723 1_556 S
C146 C145 1.396 . S
C146 C147 1.394 . S
C147 C143 1.397 . S
C147 C146 1.394 . S
C147 C157 1.723 . S
C148 C145 1.453 . S
C148 H172 0.982 . S
C148 H173 0.979 . S
C148 H174 0.977 1_556 S
C149 C145 1.684 . S
C149 H175 0.979 . S
C149 H176 0.980 1_556 S
C149 H177 0.983 . S
C150 H126 0.948 . S
C150 C151 1.391 1_556 S
C150 C155 1.391 . S
C151 C150 1.391 1_554 S
C151 C152 1.391 . S
C152 H129 0.947 . S
C152 C151 1.391 . S
C152 C153 1.392 . S
C153 H130 0.948 . S
C153 C152 1.392 . S
C153 C154 1.419 . S
C154 C153 1.419 . S
C154 C155 1.391 1_554 S
C154 C158 1.397 . S
C155 C150 1.391 . S
C155 C154 1.391 1_556 S
C155 C156 1.399 . S
C156 C155 1.399 . S
C156 C157 1.396 . S
C156 C159 1.453 . S
C156 C160 1.684 . S
C157 C147 1.723 . S
C157 C156 1.396 . S
C157 C158 1.394 1_556 S
C158 C128 1.723 . S
C158 C154 1.397 . S
C158 C157 1.394 1_554 S
C159 H131 0.982 . S
C159 H135 0.979 . S
C159 H136 0.977 . S
C159 C156 1.453 . S
C160 H132 0.979 . S
C160 H133 0.980 . S
C160 H134 0.983 . S
C160 C156 1.684 . S
H161 C179 0.948 . S
H162 C120 0.948 . S
H163 C138 0.979 . S
H164 C138 0.980 . S
H165 C138 0.983 . S
H166 C137 0.982 . S
H167 C137 0.979 . S
H168 C137 0.977 . S
H169 C139 0.948 . S
H170 C141 0.947 . S
H171 C142 0.948 . S
H172 C148 0.982 . S
H173 C148 0.979 . S
H174 C148 0.977 1_554 S
H175 C149 0.979 . S
H176 C149 0.980 1_554 S
H177 C149 0.983 . S
H178 C122 0.947 . S
C179 C122 1.392 . S
C179 C123 1.419 . S
C179 H161 0.948 . S
C180 C181 1.391 . S
C180 C184 1.391 . S
C180 H222 0.948 . S
C181 C180 1.391 . S
C181 C182 1.391 . S
C182 C181 1.391 . S
C182 H238 0.947 . S
C182 C239 1.392 . S
C183 C184 1.391 . S
C183 C187 1.397 . S
C183 C239 1.419 . S
C184 C180 1.391 . S
C184 C183 1.391 . S
C184 C185 1.399 . S
C185 C184 1.399 . S
C185 C188 1.396 . S
C185 C197 1.453 . S
C185 C198 1.684 . S
H186 C210 0.948 . S
C187 C183 1.397 . S
C187 C188 1.394 . S
C187 C206 1.723 . S
C188 C185 1.396 . S
C188 C187 1.394 . S
C188 C218 1.723 . S
H189 C212 0.947 . S
H190 C213 0.948 . S
H191 C219 0.982 . S
H192 C220 0.979 . S
H193 C220 0.980 . S
H194 C220 0.983 . S
H195 C219 0.979 . S
H196 C219 0.977 . S
C197 C185 1.453 . S
C197 H226 0.982 . S
C197 H227 0.979 . S
C197 H228 0.977 . S
C198 C185 1.684 . S
C198 H223 0.979 . S
C198 H224 0.980 . S
C198 H225 0.983 . S
C199 C200 1.391 . S
C199 C204 1.391 . S
C199 H229 0.948 . S
C200 C199 1.391 . S
C200 C201 1.391 . S
C201 C200 1.391 . S
C201 C202 1.392 . S
C201 H230 0.947 . S
C202 C201 1.392 . S
C202 C203 1.419 . S
C202 H231 0.948 . S
C203 C202 1.419 . S
C203 C204 1.391 . S
C203 C207 1.397 . S
C204 C199 1.391 . S
C204 C203 1.391 . S
C204 C205 1.399 . S
C205 C204 1.399 . S
C205 C206 1.396 . S
C205 C208 1.453 . S
C205 C209 1.684 . S
C206 C187 1.723 . S
C206 C205 1.396 . S
C206 C207 1.394 . S
C207 C203 1.397 . S
C207 C206 1.394 . S
C207 C217 1.723 . S
C208 C205 1.453 . S
C208 H232 0.982 . S
C208 H233 0.979 . S
C208 H234 0.977 . S
C209 C205 1.684 . S
C209 H235 0.979 . S
C209 H236 0.980 . S
C209 H237 0.983 . S
C210 H186 0.948 . S
C210 C211 1.391 . S
C210 C215 1.391 . S
C211 C210 1.391 . S
C211 C212 1.391 . S
C212 H189 0.947 . S
C212 C211 1.391 . S
C212 C213 1.392 . S
C213 H190 0.948 . S
C213 C212 1.392 . S
C213 C214 1.419 . S
C214 C213 1.419 . S
C214 C215 1.391 . S
C214 C218 1.397 . S
C215 C210 1.391 . S
C215 C214 1.391 . S
C215 C216 1.399 . S
C216 C215 1.399 . S
C216 C217 1.396 . S
C216 C219 1.453 . S
C216 C220 1.684 . S
C217 C207 1.723 . S
C217 C216 1.396 . S
C217 C218 1.394 . S
C218 C188 1.723 . S
C218 C214 1.397 . S
C218 C217 1.394 . S
C219 H191 0.982 . S
C219 H195 0.979 . S
C219 H196 0.977 . S
C219 C216 1.453 . S
C220 H192 0.979 . S
C220 H193 0.980 . S
C220 H194 0.983 . S
C220 C216 1.684 . S
H221 C239 0.948 . S
H222 C180 0.948 . S
H223 C198 0.979 . S
H224 C198 0.980 . S
H225 C198 0.983 . S
H226 C197 0.982 . S
H227 C197 0.979 . S
H228 C197 0.977 . S
H229 C199 0.948 . S
H230 C201 0.947 . S
H231 C202 0.948 . S
H232 C208 0.982 . S
H233 C208 0.979 . S
H234 C208 0.977 . S
H235 C209 0.979 . S
H236 C209 0.980 . S
H237 C209 0.983 . S
H238 C182 0.947 . S
C239 C182 1.392 . S
C239 C183 1.419 . S
C239 H221 0.948 . S
O240 Zn241 1.953 1_565 S
O240 C256 1.225 . S
Zn241 O240 1.953 1_545 S
Zn241 O242 1.949 1_655 S
Zn241 O248 1.919 . S
Zn241 O253 1.924 . S
O242 Zn241 1.949 1_455 S
O242 Zn243 1.923 . S
O242 Zn244 1.950 1_445 S
O242 Zn245 1.945 . S
Zn243 O242 1.923 . S
Zn243 O246 1.933 . S
Zn243 O249 1.941 . S
Zn243 O250 1.965 1_545 S
Zn244 O242 1.950 1_665 S
Zn244 O251 1.938 1_655 S
Zn244 O252 1.906 1_655 S
Zn244 O262 1.953 . S
Zn245 O242 1.945 . S
Zn245 O247 1.932 . S
Zn245 O254 1.977 1_545 S
Zn245 O255 1.910 1_455 S
O246 Zn243 1.933 . S
O246 C257 1.226 . S
O247 Zn245 1.932 . S
O247 C257 1.307 . S
O248 Zn241 1.919 . S
O248 C259 1.253 . S
O249 Zn243 1.941 . S
O249 C259 1.283 1_455 S
O250 Zn243 1.965 1_565 S
O250 C258 1.303 . S
O251 Zn244 1.938 1_455 S
O251 C258 1.247 . S
O252 Zn244 1.906 1_455 S
O252 C260 1.304 . S
O253 Zn241 1.924 . S
O253 C261 1.311 . S
O254 Zn245 1.977 1_565 S
O254 C260 1.272 . S
O255 Zn245 1.910 1_655 S
O255 C261 1.231 . S
C256 O240 1.225 . S
C256 O262 1.298 . S
C257 O246 1.226 . S
C257 O247 1.307 . S
C258 O250 1.303 . S
C258 O251 1.247 . S
C259 O248 1.253 . S
C259 O249 1.283 1_655 S
C260 O252 1.304 . S
C260 O254 1.272 . S
C261 O253 1.311 . S
C261 O255 1.231 . S
O262 Zn244 1.953 . S
O262 C256 1.298 . S
O263 Zn264 1.953 . S
O263 C279 1.225 1_556 S
Zn264 O263 1.953 . S
Zn264 O265 1.949 1_556 S
Zn264 O271 1.919 . S
Zn264 O276 1.924 1_556 S
O265 Zn264 1.949 1_554 S
O265 Zn266 1.923 1_554 S
O265 Zn267 1.950 . S
O265 Zn268 1.945 . S
Zn266 O265 1.923 1_556 S
Zn266 O269 1.933 . S
Zn266 O272 1.941 . S
Zn266 O273 1.965 . S
Zn267 O265 1.950 . S
Zn267 O274 1.938 1_554 S
Zn267 O275 1.906 . S
Zn267 O285 1.953 . S
Zn268 O265 1.945 . S
Zn268 O270 1.932 . S
Zn268 O277 1.977 . S
Zn268 O278 1.910 . S
O269 Zn266 1.933 . S
O269 C280 1.226 1_556 S
O270 Zn268 1.932 . S
O270 C280 1.307 . S
O271 Zn264 1.919 . S
O271 C282 1.253 . S
O272 Zn266 1.941 . S
O272 C282 1.283 . S
O273 Zn266 1.965 . S
O273 C281 1.303 . S
O274 Zn267 1.938 1_556 S
O274 C281 1.247 . S
O275 Zn267 1.906 . S
O275 C283 1.304 . S
O276 Zn264 1.924 1_554 S
O276 C284 1.311 . S
O277 Zn268 1.977 . S
O277 C283 1.272 . S
O278 Zn268 1.910 . S
O278 C284 1.231 . S
C279 O263 1.225 1_554 S
C279 O285 1.298 . S
C280 O269 1.226 1_554 S
C280 O270 1.307 . S
C281 O273 1.303 . S
C281 O274 1.247 . S
C282 O271 1.253 . S
C282 O272 1.283 . S
C283 O275 1.304 . S
C283 O277 1.272 . S
C284 O276 1.311 . S
C284 O278 1.231 . S
O285 Zn267 1.953 . S
O285 C279 1.298 . S
H286 C294 0.950 . S
H287 C299 0.950 . S
H288 C296 0.950 . S
H289 C298 0.950 . S
H290 C300 0.950 . S
H291 C302 0.950 . S
H292 C304 0.950 . S
H293 C305 0.950 . S
C294 H286 0.950 . S
C294 C295 1.386 . S
C294 C296 1.391 . S
C295 C294 1.386 . S
C295 C299 1.393 . S
C296 H288 0.950 . S
C296 C294 1.391 . S
C296 C297 1.400 . S
C297 C296 1.400 . S
C297 C298 1.398 . S
C297 C303 1.491 . S
C298 H289 0.950 . S
C298 C297 1.398 . S
C298 C299 1.391 . S
C299 H287 0.950 . S
C299 C295 1.393 . S
C299 C298 1.391 . S
C300 H290 0.950 . S
C300 C301 1.386 . S
C300 C302 1.391 . S
C301 C300 1.386 . S
C301 C305 1.393 . S
C302 H291 0.950 . S
C302 C300 1.391 . S
C302 C303 1.400 . S
C303 C297 1.491 . S
C303 C302 1.400 . S
C303 C304 1.398 . S
C304 H292 0.950 . S
C304 C303 1.398 . S
C304 C305 1.391 . S
C305 H293 0.950 . S
C305 C301 1.393 . S
C305 C304 1.391 . S
H306 C314 0.950 . S
H307 C319 0.950 . S
H308 C316 0.950 . S
H309 C318 0.950 . S
H310 C320 0.950 . S
H311 C322 0.950 . S
H312 C324 0.950 . S
H313 C325 0.950 . S
C314 H306 0.950 . S
C314 C315 1.386 . S
C314 C316 1.391 . S
C315 C314 1.386 . S
C315 C319 1.393 1_554 S
C316 H308 0.950 . S
C316 C314 1.391 . S
C316 C317 1.400 . S
C317 C316 1.400 . S
C317 C318 1.398 1_554 S
C317 C323 1.491 . S
C318 H309 0.950 . S
C318 C317 1.398 1_556 S
C318 C319 1.391 . S
C319 H307 0.950 . S
C319 C315 1.393 1_556 S
C319 C318 1.391 . S
C320 H310 0.950 . S
C320 C321 1.386 1_556 S
C320 C322 1.391 . S
C321 C320 1.386 1_554 S
C321 C325 1.393 . S
C322 H311 0.950 . S
C322 C320 1.391 . S
C322 C323 1.400 1_556 S
C323 C317 1.491 . S
C323 C322 1.400 1_554 S
C323 C324 1.398 . S
C324 H312 0.950 . S
C324 C323 1.398 . S
C324 C325 1.391 . S
C325 H313 0.950 . S
C325 C321 1.393 . S
C325 C324 1.391 . S
H326 C334 0.950 . S
H327 C339 0.950 . S
H328 C336 0.950 . S
H329 C338 0.950 . S
H330 C340 0.950 . S
H331 C342 0.950 . S
H332 C344 0.950 . S
H333 C345 0.950 . S
C334 H326 0.950 . S
C334 C335 1.386 . S
C334 C336 1.391 . S
C335 C334 1.386 . S
C335 C339 1.393 . S
C336 H328 0.950 . S
C336 C334 1.391 . S
C336 C337 1.400 . S
C337 C336 1.400 . S
C337 C338 1.398 . S
C337 C343 1.491 . S
C338 H329 0.950 . S
C338 C337 1.398 . S
C338 C339 1.391 . S
C339 H327 0.950 . S
C339 C335 1.393 . S
C339 C338 1.391 . S
C340 H330 0.950 . S
C340 C341 1.386 . S
C340 C342 1.391 . S
C341 C340 1.386 . S
C341 C345 1.393 . S
C342 H331 0.950 . S
C342 C340 1.391 . S
C342 C343 1.400 . S
C343 C337 1.491 . S
C343 C342 1.400 . S
C343 C344 1.398 . S
C344 H332 0.950 . S
C344 C343 1.398 . S
C344 C345 1.391 . S
C345 H333 0.950 . S
C345 C341 1.393 . S
C345 C344 1.391 . S
H346 C354 0.950 . S
H347 C359 0.950 . S
H348 C356 0.950 . S
H349 C358 0.950 . S
H350 C360 0.950 . S
H351 C362 0.950 . S
H352 C364 0.950 . S
H353 C365 0.950 . S
C354 H346 0.950 . S
C354 C355 1.386 1_556 S
C354 C356 1.391 . S
C355 C354 1.386 1_554 S
C355 C359 1.393 . S
C356 H348 0.950 . S
C356 C354 1.391 . S
C356 C357 1.400 1_556 S
C357 C356 1.400 1_554 S
C357 C358 1.398 . S
C357 C363 1.491 . S
C358 H349 0.950 . S
C358 C357 1.398 . S
C358 C359 1.391 . S
C359 H347 0.950 . S
C359 C355 1.393 . S
C359 C358 1.391 . S
C360 H350 0.950 . S
C360 C361 1.386 . S
C360 C362 1.391 . S
C361 C360 1.386 . S
C361 C365 1.393 1_554 S
C362 H351 0.950 . S
C362 C360 1.391 . S
C362 C363 1.400 . S
C363 C357 1.491 . S
C363 C362 1.400 . S
C363 C364 1.398 1_554 S
C364 H352 0.950 . S
C364 C363 1.398 1_556 S
C364 C365 1.391 . S
C365 H353 0.950 . S
C365 C361 1.393 1_556 S
C365 C364 1.391 . S
H366 C374 0.950 . S
H367 C379 0.950 . S
H368 C376 0.950 . S
H369 C378 0.950 . S
H370 C380 0.950 . S
H371 C382 0.950 . S
H372 C384 0.950 . S
H373 C385 0.950 . S
C374 H366 0.950 . S
C374 C375 1.386 . S
C374 C376 1.391 . S
C375 C374 1.386 . S
C375 C379 1.393 . S
C376 H368 0.950 . S
C376 C374 1.391 . S
C376 C377 1.400 . S
C377 C376 1.400 . S
C377 C378 1.398 . S
C377 C383 1.491 . S
C378 H369 0.950 . S
C378 C377 1.398 . S
C378 C379 1.391 . S
C379 H367 0.950 . S
C379 C375 1.393 . S
C379 C378 1.391 . S
C380 H370 0.950 . S
C380 C381 1.386 . S
C380 C382 1.391 . S
C381 C380 1.386 . S
C381 C385 1.393 . S
C382 H371 0.950 . S
C382 C380 1.391 . S
C382 C383 1.400 . S
C383 C377 1.491 . S
C383 C382 1.400 . S
C383 C384 1.398 . S
C384 H372 0.950 . S
C384 C383 1.398 . S
C384 C385 1.391 . S
C385 H373 0.950 . S
C385 C381 1.393 . S
C385 C384 1.391 . S
H386 C394 0.950 . S
H387 C399 0.950 . S
H388 C396 0.950 . S
H389 C398 0.950 . S
H390 C400 0.950 . S
H391 C402 0.950 . S
H392 C404 0.950 . S
H393 C405 0.950 . S
C394 H386 0.950 . S
C394 C395 1.386 . S
C394 C396 1.391 . S
C395 C394 1.386 . S
C395 C399 1.393 . S
C396 H388 0.950 . S
C396 C394 1.391 . S
C396 C397 1.400 . S
C397 C396 1.400 . S
C397 C398 1.398 . S
C397 C403 1.491 . S
C398 H389 0.950 . S
C398 C397 1.398 . S
C398 C399 1.391 . S
C399 H387 0.950 . S
C399 C395 1.393 . S
C399 C398 1.391 . S
C400 H390 0.950 . S
C400 C401 1.386 . S
C400 C402 1.391 . S
C401 C400 1.386 . S
C401 C405 1.393 . S
C402 H391 0.950 . S
C402 C400 1.391 . S
C402 C403 1.400 . S
C403 C397 1.491 . S
C403 C402 1.400 . S
C403 C404 1.398 . S
C404 H392 0.950 . S
C404 C403 1.398 . S
C404 C405 1.391 . S
C405 H393 0.950 . S
C405 C401 1.393 . S
C405 C404 1.391 . S
H406 C414 0.950 . S
H407 C419 0.950 . S
H408 C416 0.950 . S
H409 C418 0.950 . S
H410 C420 0.950 . S
H411 C422 0.950 . S
H412 C424 0.950 . S
H413 C425 0.950 . S
C414 H406 0.950 . S
C414 C415 1.386 . S
C414 C416 1.391 . S
C415 C414 1.386 . S
C415 C419 1.393 . S
C416 H408 0.950 . S
C416 C414 1.391 . S
C416 C417 1.400 . S
C417 C416 1.400 . S
C417 C418 1.398 . S
C417 C423 1.491 . S
C418 H409 0.950 . S
C418 C417 1.398 . S
C418 C419 1.391 . S
C419 H407 0.950 . S
C419 C415 1.393 . S
C419 C418 1.391 . S
C420 H410 0.950 . S
C420 C421 1.386 . S
C420 C422 1.391 . S
C421 C420 1.386 . S
C421 C425 1.393 . S
C422 H411 0.950 . S
C422 C420 1.391 . S
C422 C423 1.400 . S
C423 C417 1.491 . S
C423 C422 1.400 . S
C423 C424 1.398 . S
C424 H412 0.950 . S
C424 C423 1.398 . S
C424 C425 1.391 . S
C425 H413 0.950 . S
C425 C421 1.393 . S
C425 C424 1.391 . S
H426 C434 0.950 . S
H427 C439 0.950 . S
H428 C436 0.950 . S
H429 C438 0.950 . S
H430 C440 0.950 . S
H431 C442 0.950 . S
H432 C444 0.950 . S
H433 C445 0.950 . S
C434 H426 0.950 . S
C434 C435 1.386 . S
C434 C436 1.391 . S
C435 C434 1.386 . S
C435 C439 1.393 . S
C436 H428 0.950 . S
C436 C434 1.391 . S
C436 C437 1.400 . S
C437 C436 1.400 . S
C437 C438 1.398 . S
C437 C443 1.491 . S
C438 H429 0.950 . S
C438 C437 1.398 . S
C438 C439 1.391 . S
C439 H427 0.950 . S
C439 C435 1.393 . S
C439 C438 1.391 . S
C440 H430 0.950 . S
C440 C441 1.386 . S
C440 C442 1.391 . S
C441 C440 1.386 . S
C441 C445 1.393 . S
C442 H431 0.950 . S
C442 C440 1.391 . S
C442 C443 1.400 . S
C443 C437 1.491 . S
C443 C442 1.400 . S
C443 C444 1.398 . S
C444 H432 0.950 . S
C444 C443 1.398 . S
C444 C445 1.391 . S
C445 H433 0.950 . S
C445 C441 1.393 . S
C445 C444 1.391 . S
H446 C454 0.950 . S
H447 C459 0.950 . S
H448 C456 0.950 . S
H449 C458 0.950 . S
H450 C460 0.950 . S
H451 C462 0.950 . S
H452 C464 0.950 . S
H453 C465 0.950 . S
C454 H446 0.950 . S
C454 C455 1.386 . S
C454 C456 1.391 . S
C455 C454 1.386 . S
C455 C459 1.393 . S
C456 H448 0.950 . S
C456 C454 1.391 . S
C456 C457 1.400 . S
C457 C456 1.400 . S
C457 C458 1.398 . S
C457 C463 1.491 . S
C458 H449 0.950 . S
C458 C457 1.398 . S
C458 C459 1.391 . S
C459 H447 0.950 . S
C459 C455 1.393 . S
C459 C458 1.391 . S
C460 H450 0.950 . S
C460 C461 1.386 . S
C460 C462 1.391 . S
C461 C460 1.386 . S
C461 C465 1.393 . S
C462 H451 0.950 . S
C462 C460 1.391 . S
C462 C463 1.400 . S
C463 C457 1.491 . S
C463 C462 1.400 . S
C463 C464 1.398 . S
C464 H452 0.950 . S
C464 C463 1.398 . S
C464 C465 1.391 . S
C465 H453 0.950 . S
C465 C461 1.393 . S
C465 C464 1.391 . S
H466 C474 0.950 . S
H467 C479 0.950 . S
H468 C476 0.950 . S
H469 C478 0.950 . S
H470 C480 0.950 . S
H471 C482 0.950 . S
H472 C484 0.950 . S
H473 C485 0.950 . S
C474 H466 0.950 . S
C474 C475 1.386 . S
C474 C476 1.391 . S
C475 C474 1.386 . S
C475 C479 1.393 . S
C476 H468 0.950 . S
C476 C474 1.391 . S
C476 C477 1.400 . S
C477 C476 1.400 . S
C477 C478 1.398 . S
C477 C483 1.491 . S
C478 H469 0.950 . S
C478 C477 1.398 . S
C478 C479 1.391 . S
C479 H467 0.950 . S
C479 C475 1.393 . S
C479 C478 1.391 . S
C480 H470 0.950 . S
C480 C481 1.386 . S
C480 C482 1.391 . S
C481 C480 1.386 . S
C481 C485 1.393 . S
C482 H471 0.950 . S
C482 C480 1.391 . S
C482 C483 1.400 . S
C483 C477 1.491 . S
C483 C482 1.400 . S
C483 C484 1.398 . S
C484 H472 0.950 . S
C484 C483 1.398 . S
C484 C485 1.391 . S
C485 H473 0.950 . S
C485 C481 1.393 . S
C485 C484 1.391 . S
H486 C494 0.950 . S
H487 C499 0.950 . S
H488 C496 0.950 . S
H489 C498 0.950 . S
H490 C500 0.950 . S
H491 C502 0.950 . S
H492 C504 0.950 . S
H493 C505 0.950 . S
C494 H486 0.950 . S
C494 C495 1.386 . S
C494 C496 1.391 . S
C495 C494 1.386 . S
C495 C499 1.393 . S
C496 H488 0.950 . S
C496 C494 1.391 . S
C496 C497 1.400 . S
C497 C496 1.400 . S
C497 C498 1.398 . S
C497 C503 1.491 . S
C498 H489 0.950 . S
C498 C497 1.398 . S
C498 C499 1.391 . S
C499 H487 0.950 . S
C499 C495 1.393 . S
C499 C498 1.391 . S
C500 H490 0.950 . S
C500 C501 1.386 . S
C500 C502 1.391 . S
C501 C500 1.386 . S
C501 C505 1.393 . S
C502 H491 0.950 . S
C502 C500 1.391 . S
C502 C503 1.400 . S
C503 C497 1.491 . S
C503 C502 1.400 . S
C503 C504 1.398 . S
C504 H492 0.950 . S
C504 C503 1.398 . S
C504 C505 1.391 . S
C505 H493 0.950 . S
C505 C501 1.393 . S
C505 C504 1.391 . S
H506 C514 0.950 . S
H507 C519 0.950 . S
H508 C516 0.950 . S
H509 C518 0.950 . S
H510 C520 0.947 . S
H511 C522 0.950 1_655 S
H512 C524 0.950 . S
H513 C525 0.950 . S
C514 H506 0.950 . S
C514 C515 1.386 . S
C514 C516 1.391 . S
C515 C514 1.386 . S
C515 C519 1.393 . S
C516 H508 0.950 . S
C516 C514 1.391 . S
C516 C517 1.400 . S
C517 C516 1.400 . S
C517 C518 1.398 . S
C517 C523 1.491 . S
C518 H509 0.950 . S
C518 C517 1.398 . S
C518 C519 1.391 . S
C519 H507 0.950 . S
C519 C515 1.393 . S
C519 C518 1.391 . S
C520 H510 0.947 . S
C520 C521 1.387 1_655 S
C520 C522 1.392 1_655 S
C521 C520 1.387 1_455 S
C521 C525 1.393 . S
C522 H511 0.950 1_455 S
C522 C520 1.392 1_455 S
C522 C523 1.400 . S
C523 C517 1.491 . S
C523 C522 1.400 . S
C523 C524 1.398 . S
C524 H512 0.950 . S
C524 C523 1.398 . S
C524 C525 1.391 . S
C525 H513 0.950 . S
C525 C521 1.393 . S
C525 C524 1.391 . S
C301 C257 1.650 . S
C295 C211 1.564 . S
C315 C31 1.639 . S
C321 C280 1.653 . S
C335 C91 1.653 . S
C341 C256 1.670 . S
C355 C151 1.574 . S
C361 C279 1.662 . S
C381 C260 1.634 . S
C375 C20 1.687 . S
C401 C282 1.645 . S
C395 C61 1.606 . S
C415 C121 1.591 . S
C421 C261 1.641 . S
C435 C200 1.585 . S
C441 C281 1.606 . S
C461 C284 1.633 . S
C455 C80 1.701 . S
C481 C259 1.630 . S
C475 C140 1.624 . S
C501 C283 1.629 . S
C495 C181 1.556 . S
C515 C1 1.604 . S
C521 C258 1.610 . S
