# Generated by pormake.
# Topology zzz, (3,6)-cn, num edge types: 1
# Building blocks:
#     Node 0, Type 0, BuildingBlock: MIDCAF_clean_linker_0, # of connection points: 3
#     Node 1, Type 0, BuildingBlock: MIDCAF_clean_linker_0, # of connection points: 3
#     Node 2, Type 0, BuildingBlock: MIDCAF_clean_linker_0, # of connection points: 3
#     Node 3, Type 0, BuildingBlock: MIDCAF_clean_linker_0, # of connection points: 3
#     Node 4, Type 0, BuildingBlock: MIDCAF_clean_linker_0, # of connection points: 3
#     Node 5, Type 0, BuildingBlock: MIDCAF_clean_linker_0, # of connection points: 3
#     Node 6, Type 0, BuildingBlock: MIDCAF_clean_linker_0, # of connection points: 3
#     Node 7, Type 0, BuildingBlock: MIDCAF_clean_linker_0, # of connection points: 3
#     Node 8, Type 1, BuildingBlock: KUMJIN_clean_sbu_0, # of connection points: 6
#     Node 9, Type 1, BuildingBlock: KUMJIN_clean_sbu_0, # of connection points: 6
#     Node 10, Type 1, BuildingBlock: KUMJIN_clean_sbu_0, # of connection points: 6
#     Node 11, Type 1, BuildingBlock: KUMJIN_clean_sbu_0, # of connection points: 6
#     Edge 12, Type (0, 1), BuildingBlock: XIVTED_clean_linker_0, # of connection points: 2
#     Edge 13, Type (0, 1), BuildingBlock: XIVTED_clean_linker_0, # of connection points: 2
#     Edge 14, Type (0, 1), BuildingBlock: XIVTED_clean_linker_0, # of connection points: 2
#     Edge 15, Type (0, 1), BuildingBlock: XIVTED_clean_linker_0, # of connection points: 2
#     Edge 16, Type (0, 1), BuildingBlock: XIVTED_clean_linker_0, # of connection points: 2
#     Edge 17, Type (0, 1), BuildingBlock: XIVTED_clean_linker_0, # of connection points: 2
#     Edge 18, Type (0, 1), BuildingBlock: XIVTED_clean_linker_0, # of connection points: 2
#     Edge 19, Type (0, 1), BuildingBlock: XIVTED_clean_linker_0, # of connection points: 2
#     Edge 20, Type (0, 1), BuildingBlock: XIVTED_clean_linker_0, # of connection points: 2
#     Edge 21, Type (0, 1), BuildingBlock: XIVTED_clean_linker_0, # of connection points: 2
#     Edge 22, Type (0, 1), BuildingBlock: XIVTED_clean_linker_0, # of connection points: 2
#     Edge 23, Type (0, 1), BuildingBlock: XIVTED_clean_linker_0, # of connection points: 2
#     Edge 24, Type (0, 1), BuildingBlock: XIVTED_clean_linker_0, # of connection points: 2
#     Edge 25, Type (0, 1), BuildingBlock: XIVTED_clean_linker_0, # of connection points: 2
#     Edge 26, Type (0, 1), BuildingBlock: XIVTED_clean_linker_0, # of connection points: 2
#     Edge 27, Type (0, 1), BuildingBlock: XIVTED_clean_linker_0, # of connection points: 2
#     Edge 28, Type (0, 1), BuildingBlock: XIVTED_clean_linker_0, # of connection points: 2
#     Edge 29, Type (0, 1), BuildingBlock: XIVTED_clean_linker_0, # of connection points: 2
#     Edge 30, Type (0, 1), BuildingBlock: XIVTED_clean_linker_0, # of connection points: 2
#     Edge 31, Type (0, 1), BuildingBlock: XIVTED_clean_linker_0, # of connection points: 2
#     Edge 32, Type (0, 1), BuildingBlock: XIVTED_clean_linker_0, # of connection points: 2
#     Edge 33, Type (0, 1), BuildingBlock: XIVTED_clean_linker_0, # of connection points: 2
#     Edge 34, Type (0, 1), BuildingBlock: XIVTED_clean_linker_0, # of connection points: 2
#     Edge 35, Type (0, 1), BuildingBlock: XIVTED_clean_linker_0, # of connection points: 2
# Relax obj value: 0.300
# Max RMSD: 0.226
# Mean RMSD: 0.213
data_MOF--net-zzz--node1-KUMJIN_clean_sbu_0--node2-MIDCAF_clean_linker_0--edge1-XIVTED_clean_linker_0
_symmetry_space_group_name_H-M    P1
_symmetry_Int_Tables_number       1
_symmetry_cell_setting            triclinic
loop_
_symmetry_equiv_pos_as_xyz
'x, y, z'
_cell_length_a     57.155755
_cell_length_b     57.017059
_cell_length_c     19.985575
_cell_angle_alpha  90.614716
_cell_angle_beta   90.12694
_cell_angle_gamma 89.962931
loop_
_atom_site_label
_atom_site_type_symbol
_atom_site_fract_x
_atom_site_fract_y
_atom_site_fract_z
_atom_type_partial_charge
C0 C 0.79353 0.56378 0.3768 0.0
C1 C 0.80693 0.54345 0.36445 0.0
C2 C 0.79904 0.52768 0.31435 0.0
C3 C 0.77958 0.53315 0.27415 0.0
H4 H 0.6833 0.54589 0.20056 0.0
H5 H 0.64694 0.53603 0.13968 0.0
H6 H 0.68203 0.54847 0.9523 0.0
H7 H 0.71762 0.55838 0.01214 0.0
H8 H 0.74171 0.61189 0.01955 0.0
H9 H 0.76869 0.62066 0.92935 0.0
H10 H 0.82679 0.61354 0.06646 0.0
H11 H 0.80001 0.60576 0.15637 0.0
H12 H 0.76571 0.58609 0.34351 0.0
H13 H 0.79852 0.57609 0.4159 0.0
H14 H 0.80885 0.51191 0.3028 0.0
H15 H 0.77524 0.5217 0.23232 0.0
N16 N 0.73405 0.55459 0.20167 0.0
N17 N 0.73475 0.58178 0.11384 0.0
N18 N 0.76415 0.58272 0.19455 0.0
C19 C 0.72412 0.56365 0.14501 0.0
C20 C 0.75469 0.59146 0.13795 0.0
C21 C 0.75408 0.56456 0.22699 0.0
C22 C 0.70326 0.55322 0.11131 0.0
C23 C 0.68325 0.54602 0.14638 0.0
C24 C 0.66243 0.54048 0.11145 0.0
C25 C 0.66136 0.54206 0.04102 0.0
C26 C 0.6819 0.54778 1.00645 0.0
C27 C 0.70243 0.5533 0.04094 0.0
C28 C 0.76884 0.60671 0.09418 0.0
C29 C 0.76019 0.61323 0.0311 0.0
C30 C 0.77569 0.61824 0.97922 0.0
C31 C 0.79996 0.61642 0.98963 0.0
C32 C 0.80825 0.61458 0.05577 0.0
C33 C 0.79277 0.60986 0.10775 0.0
C34 C 0.76761 0.55448 0.28308 0.0
C35 C 0.77434 0.56933 0.33621 0.0
C36 C 0.97615 0.81172 0.34525 0.0
C37 C 0.99597 0.82575 0.33331 0.0
C38 C 0.01046 0.81944 0.27875 0.0
C39 C 1.0044 0.80083 0.23517 0.0
H40 H 0.97316 0.73987 0.9658 0.0
H41 H 0.98295 0.70463 0.9031 0.0
H42 H 1.00305 0.67052 0.08646 0.0
H43 H 0.99377 0.70661 0.14958 0.0
H44 H 0.93355 0.7763 0.97059 0.0
H45 H 0.91434 0.80737 0.91097 0.0
H46 H 0.89189 0.83839 0.09877 0.0
H47 H 0.91256 0.80768 0.15867 0.0
H48 H 0.95361 0.78425 0.3091 0.0
H49 H 0.9648 0.81535 0.38739 0.0
H50 H 0.02575 0.82976 0.26688 0.0
H51 H 0.01491 0.79771 0.19092 0.0
N52 N 0.98276 0.75605 0.15702 0.0
N53 N 0.9535 0.75738 0.07383 0.0
N54 N 0.9533 0.78498 0.16082 0.0
C55 C 0.97273 0.74682 0.10004 0.0
C56 C 0.94358 0.77629 0.10402 0.0
C57 C 0.97276 0.77523 0.18769 0.0
C58 C 0.98249 0.7261 0.06301 0.0
C59 C 0.97992 0.72497 0.99297 0.0
C60 C 0.98534 0.70455 0.95685 0.0
C61 C 0.99327 0.68428 0.98939 0.0
C62 C 0.99699 0.6857 0.05932 0.0
C63 C 0.99173 0.70642 0.09569 0.0
C64 C 0.92536 0.79006 0.06934 0.0
C65 C 0.92392 0.78931 0.99927 0.0
C66 C 0.91261 0.80724 0.96486 0.0
C67 C 0.90221 0.82615 0.99988 0.0
C68 C 0.90055 0.82474 0.07001 0.0
C69 C 0.91231 0.80705 0.10447 0.0
C70 C 0.98365 0.78813 0.24468 0.0
C71 C 0.96995 0.79343 0.30116 0.0
C72 C 0.69669 0.95899 0.32718 0.0
C73 C 0.69461 0.98283 0.34499 0.0
C74 C 0.71061 0.99878 0.31669 0.0
C75 C 0.72738 0.99119 0.26948 0.0
H76 H 0.81673 0.96143 0.16904 0.0
H77 H 0.85407 0.96757 0.11021 0.0
H78 H 0.816 0.98884 0.93417 0.0
H79 H 0.77923 0.98247 0.99223 0.0
H80 H 0.75488 0.91829 0.96837 0.0
H81 H 0.73011 0.90697 0.87422 0.0
H82 H 0.66888 0.91699 0.99815 0.0
H83 H 0.6935 0.92713 0.09207 0.0
H84 H 0.71338 0.93316 0.26536 0.0
H85 H 0.68467 0.94612 0.34686 0.0
H86 H 0.7098 0.01724 0.3297 0.0
H87 H 0.73857 1.00404 0.24612 0.0
N88 N 0.76275 0.96882 0.1703 0.0
N89 N 0.76115 0.94666 0.07011 0.0
N90 N 0.73043 0.94448 0.14618 0.0
C91 C 0.77276 0.96186 0.11098 0.0
C92 C 0.74009 0.93779 0.08722 0.0
C93 C 0.74143 0.95979 0.18821 0.0
C94 C 0.79508 0.97158 0.08532 0.0
C95 C 0.81649 0.96819 0.11861 0.0
C96 C 0.83784 0.97152 0.08463 0.0
C97 C 0.83807 0.97817 0.01677 0.0
C98 C 0.81657 0.98313 0.98567 0.0
C99 C 0.79545 0.97979 0.01929 0.0
C100 C 0.72612 0.9245 0.03708 0.0
C101 C 0.73614 0.91733 0.97598 0.0
C102 C 0.72191 0.91088 0.92184 0.0
C103 C 0.69739 0.91186 0.92745 0.0
C104 C 0.68763 0.91603 0.99117 0.0
C105 C 0.70185 0.92215 0.04541 0.0
C106 C 0.72835 0.96754 0.24908 0.0
C107 C 0.7132 0.95152 0.28001 0.0
C108 C 0.60979 0.68832 0.05069 0.0
C109 C 0.61143 0.69276 0.98166 0.0
C110 C 0.61003 0.71619 0.96037 0.0
C111 C 0.60384 0.73409 1.00543 0.0
H112 H 0.55684 0.78777 0.99648 0.0
H113 H 0.55039 0.82443 0.93928 0.0
H114 H 0.54819 0.86122 0.12913 0.0
H115 H 0.55442 0.82382 0.18739 0.0
H116 H 0.51976 0.74917 0.26226 0.0
H117 H 0.50636 0.72236 0.34967 0.0
H118 H 0.57829 0.70506 0.39468 0.0
H119 H 0.59131 0.73191 0.30928 0.0
H120 H 0.60114 0.70163 0.14752 0.0
H121 H 0.61073 0.67066 0.06984 0.0
H122 H 0.61199 0.72048 0.90804 0.0
H123 H 0.60105 0.75158 0.98633 0.0
N124 N 0.57884 0.76647 0.092 0.0
N125 N 0.55704 0.77366 0.19016 0.0
N126 N 0.57953 0.73927 0.17803 0.0
C127 C 0.56436 0.78064 0.12817 0.0
C128 C 0.5649 0.75281 0.21528 0.0
C129 C 0.58658 0.74583 0.11648 0.0
C130 C 0.55647 0.80285 0.09662 0.0
C131 C 0.5548 0.80359 0.02645 0.0
C132 C 0.55125 0.82472 0.99343 0.0
C133 C 0.54941 0.84595 0.0293 0.0
C134 C 0.54966 0.84519 0.09988 0.0
C135 C 0.55314 0.82378 0.13331 0.0
C136 C 0.55659 0.7428 0.27928 0.0
C137 C 0.53262 0.74033 0.29291 0.0
C138 C 0.52498 0.72462 0.34223 0.0
C139 C 0.54118 0.71119 0.37915 0.0
C140 C 0.56517 0.71512 0.36833 0.0
C141 C 0.57272 0.7306 0.31912 0.0
C142 C 0.59929 0.72894 0.07284 0.0
C143 C 0.60393 0.7062 0.09569 0.0
C144 C 0.22765 0.47996 0.89155 0.0
C145 C 0.21164 0.49741 0.91173 0.0
C146 C 0.21573 0.50931 0.97279 0.0
C147 C 0.23422 0.50268 0.01486 0.0
H148 H 0.31578 0.50807 0.13308 0.0
H149 H 0.35187 0.51697 0.19509 0.0
H150 H 0.36045 0.44327 0.23724 0.0
H151 H 0.32432 0.43473 0.17806 0.0
H152 H 0.26744 0.42421 0.2582 0.0
H153 H 0.2382 0.40819 0.33357 0.0
H154 H 0.18718 0.40958 0.17349 0.0
H155 H 0.21636 0.42453 0.09843 0.0
H156 H 0.25669 0.45823 0.91997 0.0
H157 H 0.22495 0.47026 0.84529 0.0
H158 H 0.20388 0.52297 0.98967 0.0
H159 H 0.23573 0.51086 0.06386 0.0
N160 N 0.28347 0.47729 0.07229 0.0
N161 N 0.28088 0.44796 0.15427 0.0
N162 N 0.24963 0.45406 0.0812 0.0
C163 C 0.29337 0.46515 0.124 0.0
C164 C 0.25901 0.44234 0.13333 0.0
C165 C 0.26157 0.47131 0.05022 0.0
C166 C 0.31703 0.47074 0.15117 0.0
C167 C 0.32563 0.49381 0.15482 0.0
C168 C 0.34634 0.49887 0.19051 0.0
C169 C 0.35899 0.48092 0.22273 0.0
C170 C 0.35094 0.45772 0.21534 0.0
C171 C 0.33025 0.45276 0.18066 0.0
C172 C 0.244 0.42649 0.17292 0.0
C173 C 0.25019 0.42031 0.23856 0.0
C174 C 0.23336 0.41121 0.28196 0.0
C175 C 0.21004 0.40827 0.26056 0.0
C176 C 0.20482 0.41159 0.19244 0.0
C177 C 0.22161 0.42053 0.14917 0.0
C178 C 0.24906 0.48404 0.9969 0.0
C179 C 0.246 0.47318 0.93404 0.0
C180 C 0.02441 0.21322 0.95492 0.0
C181 C 0.041 0.20072 0.91608 0.0
C182 C 0.06457 0.20767 0.92082 0.0
C183 C 0.07153 0.22542 0.96544 0.0
H184 H 0.02174 0.30378 0.14788 0.0
H185 H 0.01177 0.34042 0.20773 0.0
H186 H 0.08515 0.35275 0.24611 0.0
H187 H 0.09481 0.31639 0.18847 0.0
H188 H 0.09391 0.25436 0.2936 0.0
H189 H 0.10833 0.22483 0.36877 0.0
H190 H 0.13618 0.18546 0.20047 0.0
H191 H 0.12012 0.21458 0.12477 0.0
H192 H 0.01851 0.23947 0.03172 0.0
H193 H 0.00604 0.20865 0.95223 0.0
H194 H 0.07803 0.19848 0.89294 0.0
H195 H 0.09003 0.22921 0.97039 0.0
N196 N 0.05611 0.27208 0.08527 0.0
N197 N 0.0823 0.27162 0.1767 0.0
N198 N 0.08104 0.23975 0.10275 0.0
C199 C 0.06572 0.28299 0.14051 0.0
C200 C 0.09 0.25007 0.15832 0.0
C201 C 0.0642 0.25036 0.0659 0.0
C202 C 0.05905 0.30704 0.16376 0.0
C203 C 0.03568 0.31463 0.16797 0.0
C204 C 0.03 0.33561 0.2026 0.0
C205 C 0.04761 0.34942 0.23347 0.0
C206 C 0.071 0.34236 0.22522 0.0
C207 C 0.07659 0.32154 0.19136 0.0
C208 C 0.10519 0.23636 0.20325 0.0
C209 C 0.1037 0.23976 0.27272 0.0
C210 C 0.11224 0.22273 0.31611 0.0
C211 C 0.12281 0.20211 0.29091 0.0
C212 C 0.12729 0.20056 0.22172 0.0
C213 C 0.11821 0.21732 0.17821 0.0
C214 C 0.05522 0.23701 1.00675 0.0
C215 C 0.03144 0.23122 0.99967 0.0
C216 C 0.31939 0.02188 0.9639 0.0
C217 C 0.32439 0.03373 0.90393 0.0
C218 C 0.30968 0.05251 0.88587 0.0
C219 C 0.29184 0.06032 0.92877 0.0
H220 H 0.22864 0.02457 0.16345 0.0
H221 H 0.19314 0.01673 0.22914 0.0
H222 H 0.17085 0.08832 0.20239 0.0
H223 H 0.20656 0.09628 0.13908 0.0
H224 H 0.27538 0.09834 0.26191 0.0
H225 H 0.30771 0.11094 0.33106 0.0
H226 H 0.34504 0.13346 0.15482 0.0
H227 H 0.31294 0.11918 0.0852 0.0
H228 H 0.29911 0.02119 0.05432 0.0
H229 H 0.33035 0.00759 0.98052 0.0
H230 H 0.31245 0.06182 0.83964 0.0
H231 H 0.28204 0.0759 0.91577 0.0
N232 N 0.25359 0.05524 0.06631 0.0
N233 N 0.2554 0.0851 0.14877 0.0
N234 N 0.28647 0.07993 0.07424 0.0
C235 C 0.24345 0.06733 0.11831 0.0
C236 C 0.27693 0.09146 0.12708 0.0
C237 C 0.27507 0.06201 0.04345 0.0
C238 C 0.22021 0.06097 0.14563 0.0
C239 C 0.21585 0.03841 0.17032 0.0
C240 C 0.19567 0.03402 0.20839 0.0
C241 C 0.17922 0.05194 0.22098 0.0
C242 C 0.18308 0.07413 0.19318 0.0
C243 C 0.20349 0.07867 0.15684 0.0
C244 C 0.29199 0.10704 0.16807 0.0
C245 C 0.29012 0.10673 0.23801 0.0
C246 C 0.30884 0.11415 0.27793 0.0
C247 C 0.32967 0.12242 0.24867 0.0
C248 C 0.32981 0.12621 0.17914 0.0
C249 C 0.31131 0.11822 0.13911 0.0
C250 C 0.2878 0.04923 0.99002 0.0
C251 C 0.30132 0.02955 1.00632 0.0
C252 C 0.40821 0.3338 0.22148 0.0
C253 C 0.40826 0.32863 0.29022 0.0
C254 C 0.40982 0.30496 0.30923 0.0
C255 C 0.41424 0.28739 0.26139 0.0
H256 H 0.41338 0.21104 0.17921 0.0
H257 H 0.42009 0.17394 0.23465 0.0
H258 H 0.49284 0.1762 0.17654 0.0
H259 H 0.48565 0.21323 0.11819 0.0
H260 H 0.49447 0.27355 0.99894 0.0
H261 H 0.50857 0.3008 0.91335 0.0
H262 H 0.43716 0.32092 0.87145 0.0
H263 H 0.42345 0.29375 0.95524 0.0
H264 H 0.41386 0.32134 0.12194 0.0
H265 H 0.40713 0.35169 0.20416 0.0
H266 H 0.40926 0.30018 0.36148 0.0
H267 H 0.41718 0.26965 0.27828 0.0
N268 N 0.43228 0.25398 0.16279 0.0
N269 N 0.45416 0.24809 0.06397 0.0
N270 N 0.43623 0.28445 0.08682 0.0
C271 C 0.44513 0.23959 0.1224 0.0
C272 C 0.44925 0.27064 0.04573 0.0
C273 C 0.42787 0.27646 0.14557 0.0
C274 C 0.44903 0.21513 0.1447 0.0
C275 C 0.43074 0.20341 0.17719 0.0
C276 C 0.43467 0.1822 0.20965 0.0
C277 C 0.45716 0.17222 0.21187 0.0
C278 C 0.47526 0.18327 0.17595 0.0
C279 C 0.47119 0.20449 0.14237 0.0
C280 C 0.45786 0.28134 0.98316 0.0
C281 C 0.48187 0.28316 0.96936 0.0
C282 C 0.48991 0.29907 0.92109 0.0
C283 C 0.47406 0.31332 0.88548 0.0
C284 C 0.44998 0.31018 0.89675 0.0
C285 C 0.44205 0.29453 0.94498 0.0
C286 C 0.41699 0.29317 0.19362 0.0
C287 C 0.41242 0.3163 0.17387 0.0
Eu288 Eu 0.03592 1.00665 0.69679 0.0
C289 C 0.94614 0.98681 0.52457 0.0
C290 C 0.95879 0.96189 0.43274 0.0
C291 C 0.91899 0.95887 0.47429 0.0
C292 C 0.96351 0.97943 0.4813 0.0
C293 C 0.92351 0.97702 0.52058 0.0
C294 C 0.93661 0.9513 0.43047 0.0
C295 C 0.91098 1.00518 0.60435 0.0
N296 N 0.95103 1.00441 0.56844 0.0
C297 C 0.93366 0.01434 0.60628 0.0
C298 C 0.90595 0.9862 0.56198 0.0
Eu299 Eu 0.99002 0.01845 0.57163 0.0
N300 N 0.98475 0.99004 0.48484 0.0
C301 C 1.00148 0.98503 0.43804 0.0
C302 C 0.97632 0.95586 0.38701 0.0
C303 C 0.99765 0.9677 0.38916 0.0
H304 H 0.93758 0.02887 0.63962 0.0
H305 H 0.01123 0.96343 0.35337 0.0
H306 H 0.93276 0.93763 0.39402 0.0
H307 H 0.89744 0.01269 0.63569 0.0
H308 H 0.01814 0.9938 0.43878 0.0
H309 H 0.01615 0.0656 0.9079 0.0
H310 H 0.97343 0.94241 0.34916 0.0
H311 H 0.08844 0.99174 0.63664 0.0
H312 H 0.0084 0.03438 0.82575 0.0
H313 H 0.12945 1.00521 0.64295 0.0
H314 H 0.90179 0.95096 0.47092 0.0
H315 H 0.0549 0.0848 0.91205 0.0
H316 H 0.09623 0.08657 0.87005 0.0
H317 H 0.88835 0.97915 0.56045 0.0
H318 H 0.12718 0.07005 0.79816 0.0
N319 N 0.04225 0.03575 0.78144 0.0
C320 C 0.02547 0.04226 0.82661 0.0
C321 C 0.05162 0.07096 0.87566 0.0
C322 C 0.0692 0.06329 0.83208 0.0
C323 C 0.02977 0.06012 0.87359 0.0
C324 C 0.06395 0.04529 0.78539 0.0
H325 H 0.13985 0.03937 0.71441 0.0
N326 N 0.07574 0.01806 0.7035 0.0
C327 C 0.11607 0.01413 0.67181 0.0
C328 C 0.08128 0.03612 0.74508 0.0
C329 C 0.09283 1.00649 0.66856 0.0
C330 C 0.12185 0.03346 0.71198 0.0
C331 C 0.10443 0.04452 0.75004 0.0
O332 O 0.05478 0.97482 0.72376 0.0
O333 O 0.01234 0.99127 0.61836 0.0
O334 O 0.97428 0.99632 0.65403 0.0
O335 O 0.99896 1.00649 0.74223 0.0
O336 O 0.0464 0.97927 0.61876 0.0
O337 O 0.0268 0.98749 0.78715 0.0
O338 O 0.9682 0.04862 0.54805 0.0
O339 O 0.01426 0.03389 0.64775 0.0
O340 O 0.05312 0.02722 0.61352 0.0
O341 O 0.02683 0.0208 0.52548 0.0
O342 O 0.9805 0.04653 0.64921 0.0
O343 O 0.99604 0.03824 0.48039 0.0
C344 C 0.02623 0.9769 0.59071 0.0
C345 C 0.02707 0.94697 0.75894 0.0
C346 C 0.99068 0.92439 0.76211 0.0
C347 C 1.00379 0.94432 0.78045 0.0
C348 C 1.00129 0.90695 0.72203 0.0
C349 C 0.03734 0.92907 0.71997 0.0
C350 C 0.02445 0.90929 0.70144 0.0
C351 C 0.9788 0.99817 0.71887 0.0
C352 C 0.03956 0.96945 0.76957 0.0
C353 C 0.10955 0.06317 0.79412 0.0
C354 C 0.09194 0.07257 0.83504 0.0
C355 C 1.00102 0.04887 0.67514 0.0
C356 C 0.99109 0.07885 0.50431 0.0
C357 C 0.01528 0.08303 0.49902 0.0
C358 C 0.0245 0.10559 0.50988 0.0
C359 C 0.00914 0.12394 0.52762 0.0
C360 C 0.97613 0.09749 0.52132 0.0
C361 C 0.98516 0.11985 0.53331 0.0
C362 C 0.04772 0.02722 0.54891 0.0
C363 C 0.98157 0.05487 0.49864 0.0
H364 H 0.99568 0.958 0.81037 0.0
H365 H 0.99195 0.89111 0.70811 0.0
H366 H 0.05516 0.93063 0.70224 0.0
H367 H 0.03245 0.89572 0.67085 0.0
H368 H 0.02699 0.06872 0.48682 0.0
H369 H 0.01547 0.14168 0.53498 0.0
H370 H 0.95748 0.09463 0.52646 0.0
H371 H 0.97351 0.13413 0.54656 0.0
Eu372 Eu 0.5139 0.03866 0.6882 0.0
C373 C 0.54468 0.94526 0.54068 0.0
C374 C 0.57051 0.95665 0.45098 0.0
C375 C 0.57567 0.91886 0.50412 0.0
C376 C 0.55169 0.96161 0.49454 0.0
C377 C 0.55625 0.92347 0.54516 0.0
C378 C 0.58279 0.93543 0.45708 0.0
C379 C 0.52745 0.91174 0.62652 0.0
N380 N 0.52582 0.95023 0.57915 0.0
C381 C 0.51653 0.93356 0.61998 0.0
C382 C 0.5476 0.90678 0.58958 0.0
Eu383 Eu 0.50931 0.98824 0.57035 0.0
N384 N 0.5395 0.98198 0.49034 0.0
C385 C 0.54417 0.99736 0.44014 0.0
C386 C 0.57608 0.97293 0.40169 0.0
C387 C 0.56261 0.99321 0.39563 0.0
H388 H 0.50112 0.93743 0.64932 0.0
H389 H 0.56652 1.00576 0.35699 0.0
H390 H 0.59747 0.93145 0.42466 0.0
H391 H 0.52039 0.89884 0.66026 0.0
H392 H 0.53412 0.01318 0.43466 0.0
H393 H 0.4571 0.01978 0.90153 0.0
H394 H 0.59044 0.96983 0.3674 0.0
H395 H 0.52001 0.08919 0.60623 0.0
H396 H 0.48969 0.01314 0.82408 0.0
H397 H 0.49947 0.12714 0.59451 0.0
H398 H 0.58495 0.90233 0.50729 0.0
H399 H 0.43227 0.05507 0.89074 0.0
H400 H 0.42412 0.09305 0.83283 0.0
H401 H 0.55602 0.88986 0.59463 0.0
H402 H 0.43552 0.1222 0.74904 0.0
N403 N 0.48344 0.04403 0.76779 0.0
C404 C 0.4792 0.02863 0.81825 0.0
C405 C 0.44668 0.05228 0.85643 0.0
C406 C 0.45178 0.06859 0.80681 0.0
C407 C 0.46066 0.03236 0.86267 0.0
C408 C 0.47066 0.06404 0.76313 0.0
H409 H 0.46374 0.1352 0.6606 0.0
N410 N 0.49583 0.07585 0.67699 0.0
C411 C 0.49291 0.11413 0.62873 0.0
C412 C 0.47699 0.0804 0.71606 0.0
C413 C 0.50453 0.0927 0.63565 0.0
C414 C 0.47271 0.11858 0.66596 0.0
C415 C 0.46473 0.10179 0.71115 0.0
O416 O 0.53985 0.06517 0.71448 0.0
O417 O 0.53282 0.01428 0.61904 0.0
O418 O 0.53106 0.9772 0.65959 0.0
O419 O 0.51784 1.00326 0.74209 0.0
O420 O 0.54285 0.04889 0.61509 0.0
O421 O 0.53297 0.03664 0.78273 0.0
O422 O 0.48061 0.96465 0.54403 0.0
O423 O 0.49058 0.01231 0.64053 0.0
O424 O 0.49141 0.04882 0.59961 0.0
O425 O 0.50634 0.02383 0.51751 0.0
O426 O 0.48093 0.97756 0.64431 0.0
O427 O 0.49096 0.99177 0.47508 0.0
C428 C 0.54712 0.02812 0.59243 0.0
C429 C 0.57219 0.04866 0.76706 0.0
C430 C 0.60437 0.02143 0.74635 0.0
C431 C 0.58031 0.02598 0.75158 0.0
C432 C 0.62026 0.04006 0.75518 0.0
C433 C 0.58826 0.06697 0.77608 0.0
C434 C 0.6122 0.06267 0.76989 0.0
C435 C 0.52768 0.98309 0.72313 0.0
C436 C 0.54703 0.05379 0.7668 0.0
C437 C 0.44531 0.10598 0.75254 0.0
C438 C 0.43885 0.0894 0.80029 0.0
C439 C 0.47658 0.99825 0.66759 0.0
C440 C 0.4504 0.98716 0.49652 0.0
C441 C 0.44572 0.00997 0.47373 0.0
C442 C 0.42416 0.02089 0.48708 0.0
C443 C 0.40701 0.00851 0.52261 0.0
C444 C 0.43278 0.97499 0.53071 0.0
C445 C 0.41128 0.98566 0.54374 0.0
C446 C 0.49517 0.04327 0.53611 0.0
C447 C 0.47437 0.9774 0.49318 0.0
H448 H 0.56795 0.01189 0.74303 0.0
H449 H 0.63895 0.03707 0.75272 0.0
H450 H 0.58225 0.08464 0.7868 0.0
H451 H 0.62456 0.07686 0.77691 0.0
H452 H 0.45909 0.01957 0.44724 0.0
H453 H 0.39007 0.01628 0.53276 0.0
H454 H 0.43588 0.95746 0.54919 0.0
H455 H 0.39792 0.97625 0.57081 0.0
Eu456 Eu 0.53801 0.50974 0.59933 0.0
C457 C 0.43287 0.48434 0.6564 0.0
C458 C 0.40929 0.50188 0.56951 0.0
C459 C 0.39639 0.46587 0.62174 0.0
C460 C 0.4296 0.50178 0.60988 0.0
C461 C 0.41606 0.46646 0.66393 0.0
C462 C 0.393 0.48356 0.57463 0.0
C463 C 0.43826 0.4523 0.75827 0.0
N464 N 0.45194 0.4855 0.69664 0.0
C465 C 0.45433 0.47046 0.74912 0.0
C466 C 0.4192 0.45008 0.71487 0.0
Eu467 Eu 0.47922 0.51594 0.67639 0.0
N468 N 0.44581 0.51911 0.60574 0.0
C469 C 0.44181 0.53797 0.56566 0.0
C470 C 0.40576 0.52059 0.52595 0.0
C471 C 0.42196 0.53885 0.52469 0.0
H472 H 0.46917 0.47203 0.78251 0.0
H473 H 0.41921 0.55363 0.49204 0.0
H474 H 0.37748 0.48319 0.54337 0.0
H475 H 0.44062 0.44002 0.79865 0.0
H476 H 0.45387 0.55238 0.56412 0.0
H477 H 0.59778 0.47178 0.78384 0.0
H478 H 0.39045 0.52128 0.49396 0.0
H479 H 0.54852 0.5535 0.49307 0.0
H480 H 0.56335 0.47299 0.71074 0.0
H481 H 0.57703 0.58564 0.47801 0.0
H482 H 0.38341 0.45213 0.62626 0.0
H483 H 0.62618 0.50446 0.78405 0.0
H484 H 0.63899 0.54285 0.73616 0.0
H485 H 0.40672 0.43605 0.72217 0.0
H486 H 0.63329 0.57396 0.65326 0.0
N487 N 0.57127 0.5065 0.67046 0.0
C488 C 0.57531 0.48751 0.71002 0.0
C489 C 0.611 0.50512 0.75154 0.0
C490 C 0.60748 0.52395 0.70841 0.0
C491 C 0.59501 0.48666 0.75157 0.0
C492 C 0.58736 0.52397 0.66727 0.0
H493 H 0.61045 0.58986 0.55613 0.0
N494 N 0.56532 0.54021 0.57983 0.0
C495 C 0.57921 0.5734 0.51858 0.0
C496 C 0.58419 0.54146 0.62084 0.0
C497 C 0.56317 0.55518 0.5271 0.0
C498 C 0.598 0.57577 0.56291 0.0
C499 C 0.60094 0.55944 0.61406 0.0
O500 O 0.55368 0.50405 0.50134 0.0
O501 O 0.49948 0.50613 0.58576 0.0
O502 O 0.48627 0.47757 0.65241 0.0
O503 O 0.52698 0.47657 0.65617 0.0
O504 O 0.51726 0.51929 0.50508 0.0
O505 O 0.55073 0.475 0.56995 0.0
O506 O 0.46352 0.52178 0.77428 0.0
O507 O 0.51777 0.51941 0.69024 0.0
O508 O 0.53084 0.54815 0.62256 0.0
O509 O 0.49014 0.54894 0.61862 0.0
O510 O 0.49986 0.506 0.77035 0.0
O511 O 0.46691 0.55082 0.70581 0.0
C512 C 0.49705 0.51289 0.52646 0.0
C513 C 0.54443 0.46765 0.45453 0.0
C514 C 0.51074 0.44723 0.40706 0.0
C515 C 0.52193 0.45806 0.46179 0.0
C516 C 0.52231 0.44602 0.34507 0.0
C517 C 0.55578 0.46614 0.39255 0.0
C518 C 0.54474 0.45534 0.33808 0.0
C519 C 0.50623 0.46622 0.66126 0.0
C520 C 0.55518 0.48144 0.50874 0.0
C521 C 0.62038 0.56014 0.65714 0.0
C522 C 0.62364 0.54241 0.70426 0.0
C523 C 0.52011 0.51238 0.74935 0.0
C524 C 0.47336 0.55799 0.82116 0.0
C525 C 0.49628 0.56655 0.81435 0.0
C526 C 0.50775 0.57705 0.86909 0.0
C527 C 0.49599 0.57902 0.93067 0.0
C528 C 0.46184 0.56022 0.88271 0.0
C529 C 0.47314 0.57074 0.9372 0.0
C530 C 0.51085 0.55936 0.61309 0.0
C531 C 0.46234 0.54441 0.76699 0.0
H532 H 0.51292 0.45947 0.50934 0.0
H533 H 0.51419 0.43746 0.30231 0.0
H534 H 0.57299 0.47373 0.38601 0.0
H535 H 0.55354 0.45428 0.29024 0.0
H536 H 0.50537 0.56455 0.76709 0.0
H537 H 0.5043 0.58738 0.97344 0.0
H538 H 0.4443 0.5534 0.88892 0.0
H539 H 0.46421 0.57238 0.98473 0.0
Eu540 Eu 0.02218 0.53869 0.5648 0.0
C541 C 0.02568 0.44016 0.6909 0.0
C542 C 0.01461 0.41431 0.59916 0.0
C543 C 0.04169 0.40064 0.68406 0.0
C544 C 0.01365 0.43647 0.63138 0.0
C545 C 0.03911 0.42196 0.71907 0.0
C546 C 0.02942 0.39681 0.62422 0.0
C547 C 0.04335 0.44575 0.8191 0.0
N548 N 0.02236 0.46067 0.72456 0.0
C549 C 0.02965 0.46313 0.78946 0.0
C550 C 0.04855 0.42528 0.78317 0.0
Eu551 Eu 1.00137 0.49013 0.6674 0.0
N552 N 0.99924 0.45366 0.6087 0.0
C553 C 0.98316 0.44863 0.55981 0.0
C554 C 0.9997 0.40995 0.5449 0.0
C555 C 0.98347 0.42696 0.52636 0.0
H556 H 0.02557 0.47887 0.81761 0.0
H557 H 0.97126 0.42345 0.48603 0.0
H558 H 0.03069 0.37988 0.59935 0.0
H559 H 0.04982 0.44814 0.86965 0.0
H560 H 0.9704 0.46134 0.54442 0.0
H561 H 0.06947 0.59745 0.73918 0.0
H562 H 0.9999 0.39318 0.51884 0.0
H563 H 0.98485 0.55382 0.44324 0.0
H564 H 0.06212 0.56103 0.67867 0.0
H565 H 0.96133 0.58809 0.40898 0.0
H566 H 0.05224 0.38661 0.7044 0.0
H567 H 0.04463 0.63216 0.71996 0.0
H568 H 0.01198 0.65084 0.6564 0.0
H569 H 0.05897 0.41174 0.80648 0.0
H570 H 0.98248 0.64833 0.56691 0.0
N571 N 0.03227 0.57379 0.62505 0.0
C572 C 0.05073 0.57555 0.66874 0.0
C573 C 0.04115 0.61601 0.69267 0.0
C574 C 0.02317 0.61467 0.64534 0.0
C575 C 0.05519 0.59647 0.70362 0.0
C576 C 0.01924 0.59315 0.61138 0.0
H577 H 0.9638 0.62521 0.47381 0.0
N578 N 0.99996 0.57124 0.52753 0.0
C579 C 0.97273 0.58935 0.45218 0.0
C580 C 1.00253 0.59177 0.5614 0.0
C581 C 0.98608 0.57004 0.47164 0.0
C582 C 0.97412 0.61023 0.48901 0.0
C583 C 0.98944 0.61179 0.5436 0.0
O584 O 0.03224 0.55075 0.46586 0.0
O585 O 0.01916 0.49942 0.57103 0.0
O586 O 0.0404 0.49231 0.68814 0.0
O587 O 0.05231 0.52593 0.63097 0.0
O588 O 0.00965 0.51452 0.48112 0.0
O589 O 0.05861 0.53674 0.53184 0.0
O590 O 0.9781 0.46758 0.72723 0.0
O591 O 1.00598 0.5288 0.66129 0.0
O592 O 0.9821 0.53852 0.56948 0.0
O593 O 0.97439 0.4992 0.58766 0.0
O594 O 0.01237 0.51417 0.75397 0.0
O595 O 0.96926 0.50424 0.70937 0.0
C596 C 0.01299 0.49495 0.5113 0.0
C597 C 0.06014 0.52577 0.41656 0.0
C598 C 0.07734 0.48856 0.37925 0.0
C599 C 0.07241 0.50494 0.43053 0.0
C600 C 0.06938 0.49309 0.31394 0.0
C601 C 0.05277 0.53 0.3507 0.0
C602 C 0.05721 0.51366 0.29996 0.0
C603 C 0.05634 0.50805 0.67145 0.0
C604 C 0.05333 0.54235 0.47049 0.0
C605 C 0.99256 0.63287 0.57934 0.0
C606 C 0.00938 0.6343 0.63019 0.0
C607 C 0.0118 0.53359 0.72109 0.0
C608 C 0.94138 0.48251 0.77449 0.0
C609 C 0.92674 0.50215 0.78135 0.0
C610 C 0.90518 0.50044 0.81406 0.0
C611 C 0.89829 0.47875 0.84034 0.0
C612 C 0.93442 0.461 0.80148 0.0
C613 C 0.91294 0.45919 0.8343 0.0
C614 C 0.96774 0.52026 0.56793 0.0
C615 C 0.9632 0.48457 0.73621 0.0
H616 H 0.07797 0.50135 0.48126 0.0
H617 H 0.07325 0.48114 0.27296 0.0
H618 H 0.04322 0.54583 0.33863 0.0
H619 H 0.05137 0.51705 0.24942 0.0
H620 H 0.93185 0.51877 0.75995 0.0
H621 H 0.88177 0.47701 0.86623 0.0
H622 H 0.9454 0.44559 0.79655 0.0
H623 H 0.90758 0.44256 0.8549 0.0
H624 H 0.13264 0.0612 0.19836 0.0
H625 H 0.09259 0.04248 0.57455 0.0
H626 H 0.17981 0.03486 0.34841 0.0
H627 H 0.04558 0.0271 0.41073 0.0
H628 H 0.12423 0.04821 0.49427 0.0
H629 H 0.09993 0.05667 0.27735 0.0
C630 C 0.13608 0.05439 0.24781 0.0
C631 C 0.15895 0.04818 0.26665 0.0
C632 C 0.10698 0.0435 0.47603 0.0
C633 C 0.1218 0.04357 0.35756 0.0
C634 C 0.08889 0.04004 0.5219 0.0
C635 C 0.06646 0.03332 0.49998 0.0
C636 C 0.10258 0.04098 0.40723 0.0
C637 C 0.06263 0.03172 0.43042 0.0
C638 C 0.11745 0.05181 0.29271 0.0
C639 C 0.16244 0.03957 0.33151 0.0
N640 N 0.08047 0.03552 0.38659 0.0
N641 N 0.14414 0.03774 0.37477 0.0
H642 H 0.48702 0.13454 0.1898 0.0
H643 H 0.46221 0.07781 0.54859 0.0
H644 H 0.43807 0.16241 0.33447 0.0
H645 H 0.51027 0.04747 0.40578 0.0
H646 H 0.45194 0.10776 0.4675 0.0
H647 H 0.49489 0.10171 0.26505 0.0
C648 C 0.4779 0.13382 0.23716 0.0
C649 C 0.46178 0.15142 0.25532 0.0
C650 C 0.46473 0.09458 0.45363 0.0
C651 C 0.47064 0.11368 0.34173 0.0
C652 C 0.47068 0.07746 0.50014 0.0
C653 C 0.48748 0.06028 0.48457 0.0
C654 C 0.47561 0.09466 0.39061 0.0
C655 C 0.49734 0.06042 0.42021 0.0
C656 C 0.48231 0.11496 0.27997 0.0
C657 C 0.45033 0.14922 0.31726 0.0
N658 N 0.49141 0.07744 0.37582 0.0
N659 N 0.45503 0.13085 0.35799 0.0
H660 H 0.39353 0.51448 0.20603 0.0
H661 H 0.46694 0.47564 0.52973 0.0
H662 H 0.37231 0.45942 0.33959 0.0
H663 H 0.48265 0.53788 0.41823 0.0
H664 H 0.43384 0.4678 0.45495 0.0
H665 H 0.42746 0.52214 0.27827 0.0
C666 C 0.39587 0.50403 0.25045 0.0
C667 C 0.37991 0.48612 0.266 0.0
C668 C 0.44444 0.48323 0.44675 0.0
C669 C 0.41909 0.49465 0.34872 0.0
C670 C 0.46324 0.4878 0.48985 0.0
C671 C 0.47695 0.50792 0.48165 0.0
C672 C 0.43954 0.49866 0.39406 0.0
C673 C 0.47208 0.52247 0.42713 0.0
C674 C 0.41537 0.50834 0.29154 0.0
C675 C 0.38424 0.47305 0.32421 0.0
N676 N 0.45368 0.51767 0.3857 0.0
N677 N 0.40332 0.47754 0.36308 0.0
H678 H 0.06889 0.36391 0.35064 0.0
H679 H 0.99128 0.48035 0.39755 0.0
H680 H 0.01338 0.38332 0.21534 0.0
H681 H 0.04609 0.46054 0.53396 0.0
H682 H 0.99923 0.44508 0.33023 0.0
H683 H 0.06075 0.39888 0.41806 0.0
C684 C 0.05505 0.37556 0.33462 0.0
C685 C 0.04198 0.37055 0.27629 0.0
C686 C 0.00945 0.44829 0.37506 0.0
C687 C 0.03233 0.41089 0.35481 0.0
C688 C 1.00491 0.46843 0.41354 0.0
C689 C 0.01757 0.47302 0.4725 0.0
C690 C 0.02709 0.43264 0.39491 0.0
C691 C 0.03542 0.45729 0.49001 0.0
C692 C 0.05031 0.39552 0.37369 0.0
C693 C 0.02389 0.38622 0.25976 0.0
N694 N 0.03959 0.43779 0.45158 0.0
N695 N 0.0197 0.40564 0.29852 0.0
H696 H 0.84483 0.96123 0.88959 0.0
H697 H 0.97598 0.00919 0.8533 0.0
H698 H 0.88186 0.99547 0.05148 0.0
H699 H 0.93843 0.97307 0.69572 0.0
H700 H 0.94316 1.00217 0.92894 0.0
H701 H 0.87989 0.96357 0.82076 0.0
C702 C 0.86033 0.96937 0.91072 0.0
C703 C 0.86015 0.97852 0.97637 0.0
C704 C 0.9421 0.99575 0.87784 0.0
C705 C 0.90081 0.98111 0.89715 0.0
C706 C 0.96089 0.99975 0.83444 0.0
C707 C 0.95984 0.99227 0.7672 0.0
C708 C 0.92202 0.9841 0.85415 0.0
C709 C 0.93986 0.97979 0.7464 0.0
C710 C 0.88046 0.97056 0.87133 0.0
C711 C 0.88109 0.98824 1.00124 0.0
N712 N 0.92175 0.97628 0.78939 0.0
N713 N 0.90047 0.98947 0.96148 0.0
H714 H 0.52203 0.88524 0.05436 0.0
H715 H 0.55904 0.94705 0.71173 0.0
H716 H 0.57443 0.85838 0.91864 0.0
H717 H 0.51062 0.97854 0.85144 0.0
H718 H 0.56616 0.91556 0.7908 0.0
H719 H 0.51884 0.92059 0.98541 0.0
C720 C 0.533 0.88683 0.01054 0.0
C721 C 0.54824 0.86854 0.99185 0.0
C722 C 0.55405 0.92939 0.80457 0.0
C723 C 0.54461 0.90892 0.91246 0.0
C724 C 0.54993 0.94742 0.75923 0.0
C725 C 0.53399 0.96543 0.77448 0.0
C726 C 0.542 0.9291 0.86584 0.0
C727 C 0.52304 0.96508 0.8374 0.0
C728 C 0.53111 0.90698 0.97101 0.0
C729 C 0.56199 0.87166 0.93431 0.0
N730 N 0.52704 0.94709 0.88044 0.0
N731 N 0.55974 0.89125 0.89672 0.0
H732 H 0.64492 0.56837 0.93713 0.0
H733 H 0.53395 0.48672 0.85664 0.0
H734 H 0.62666 0.5087 0.05716 0.0
H735 H 0.55065 0.54937 0.74827 0.0
H736 H 0.56694 0.4947 0.93265 0.0
H737 H 0.61007 0.56178 0.8691 0.0
C738 C 0.63359 0.5538 0.94923 0.0
C739 C 0.63901 0.53888 1.0027 0.0
C740 C 0.56344 0.50669 0.89218 0.0
C741 C 0.59854 0.53139 0.92482 0.0
C742 C 0.54467 0.5021 0.84875 0.0
C743 C 0.54015 0.51695 0.79471 0.0
C744 C 0.57762 0.52647 0.88197 0.0
C745 C 0.55409 0.53699 0.78776 0.0
C746 C 0.61355 0.55014 0.91044 0.0
C747 C 0.62324 0.52067 0.01664 0.0
N748 N 0.5723 0.54103 0.83037 0.0
N749 N 0.60384 0.51734 0.97769 0.0
H750 H 0.0268 0.64951 1.006 0.0
H751 H 0.98157 0.57002 0.69584 0.0
H752 H 0.96738 0.66727 0.88282 0.0
H753 H 0.03691 0.54888 0.82874 0.0
H754 H 0.97735 0.60668 0.76058 0.0
H755 H 0.0318 0.61337 0.93985 0.0
C756 C 0.01473 0.64587 0.96538 0.0
C757 C 0.99671 0.6618 0.9502 0.0
C758 C 0.99052 0.59411 0.7755 0.0
C759 C 1.00252 0.62027 0.87331 0.0
C760 C 0.99305 0.57328 0.73811 0.0
C761 C 0.01004 0.55671 0.75589 0.0
C762 C 1.00497 0.59837 0.83159 0.0
C763 C 0.02388 0.56143 0.81264 0.0
C764 C 0.01769 0.62523 0.92725 0.0
C765 C 0.98185 0.65598 0.89606 0.0
N766 N 0.02116 0.58181 0.84812 0.0
N767 N 0.9851 0.63585 0.85986 0.0
H768 H 0.13099 0.19889 0.42762 0.0
H769 H 0.0526 0.0864 0.41213 0.0
H770 H 0.11675 0.15598 0.25264 0.0
H771 H 0.05408 0.13599 0.577 0.0
H772 H 0.08968 0.10188 0.37328 0.0
H773 H 0.11693 0.16704 0.49771 0.0
C774 C 0.1255 0.18267 0.40375 0.0
C775 C 0.1239 0.18079 0.33362 0.0
C776 C 0.08214 0.10908 0.41876 0.0
C777 C 0.10829 0.14413 0.41379 0.0
C778 C 0.06094 0.10014 0.44137 0.0
C779 C 0.0496 0.1106 0.49643 0.0
C780 C 0.09183 0.12892 0.45049 0.0
C781 C 0.06159 0.12819 0.53234 0.0
C782 C 0.11761 0.16442 0.44399 0.0
C783 C 0.11786 0.15878 0.30613 0.0
N784 N 0.08174 0.13726 0.50769 0.0
N785 N 0.1097 0.14158 0.34617 0.0
H786 H 0.37391 0.11176 0.20251 0.0
H787 H 0.40157 0.05736 0.55068 0.0
H788 H 0.33731 0.13074 0.38428 0.0
H789 H 0.43546 0.0388 0.36476 0.0
H790 H 0.38685 0.09318 0.49897 0.0
H791 H 0.40574 0.09661 0.26887 0.0
C792 C 0.37266 0.1135 0.25633 0.0
C793 C 0.35206 0.12159 0.28747 0.0
C794 C 0.39791 0.08151 0.46992 0.0
C795 C 0.38842 0.10292 0.36404 0.0
C796 C 0.40613 0.06095 0.49921 0.0
C797 C 0.41905 0.04466 0.46123 0.0
C798 C 0.40246 0.08565 0.40201 0.0
C799 C 0.42522 0.05063 0.39567 0.0
C800 C 0.39094 0.10447 0.29443 0.0
C801 C 0.35215 0.12344 0.35773 0.0
N802 N 0.41647 0.07039 0.36776 0.0
N803 N 0.36964 0.1134 0.3937 0.0
H804 H 0.43471 0.32823 0.40531 0.0
H805 H 0.47233 0.45186 0.32669 0.0
H806 H 0.39038 0.37383 0.28912 0.0
H807 H 0.49652 0.41723 0.50469 0.0
H808 H 0.43761 0.42692 0.32601 0.0
H809 H 0.45159 0.36229 0.46005 0.0
C810 C 0.42782 0.3453 0.39267 0.0
C811 C 0.41174 0.34804 0.33995 0.0
C812 C 0.4502 0.42508 0.3662 0.0
C813 C 0.43193 0.38738 0.40117 0.0
C814 C 0.47011 0.43918 0.36618 0.0
C815 C 0.48757 0.43605 0.41462 0.0
C816 C 0.44818 0.4072 0.41366 0.0
C817 C 0.48359 0.41991 0.46582 0.0
C818 C 0.4377 0.36491 0.42392 0.0
C819 C 0.40361 0.37084 0.3269 0.0
N820 N 0.46461 0.40558 0.46295 0.0
N821 N 0.41439 0.38968 0.35546 0.0
H822 H 0.20766 0.42899 0.385 0.0
H823 H 0.07384 0.44385 0.32649 0.0
H824 H 0.16729 0.38569 0.24887 0.0
H825 H 0.11598 0.48621 0.46034 0.0
H826 H 0.10444 0.41394 0.3261 0.0
H827 H 0.17204 0.43964 0.44304 0.0
C828 C 0.19147 0.42098 0.36839 0.0
C829 C 0.1905 0.40718 0.30973 0.0
C830 C 0.10676 0.42954 0.35684 0.0
C831 C 0.14926 0.42033 0.37485 0.0
C832 C 0.08932 0.44669 0.3568 0.0
C833 C 0.09264 0.46795 0.39175 0.0
C834 C 0.12779 0.43383 0.39132 0.0
C835 C 0.11271 0.4703 0.43187 0.0
C836 C 0.17094 0.42736 0.40142 0.0
C837 C 0.16879 0.39733 0.29181 0.0
N838 N 0.12974 0.45372 0.42929 0.0
N839 N 0.14892 0.40471 0.32279 0.0
H840 H 0.90816 0.87081 0.05114 0.0
H841 H 0.9525 0.90449 0.69897 0.0
H842 H 0.88849 0.83445 0.86873 0.0
H843 H 0.97377 0.93629 0.88644 0.0
H844 H 0.91754 0.88933 0.75374 0.0
H845 H 0.91791 0.90496 0.98658 0.0
C846 C 0.90507 0.87005 0.99775 0.0
C847 C 0.89867 0.84898 0.96525 0.0
C848 C 0.92956 0.90014 0.78242 0.0
C849 C 0.91107 0.88813 0.8905 0.0
C850 C 0.94967 0.90862 0.75136 0.0
C851 C 0.96671 0.92073 0.78888 0.0
C852 C 0.9266 0.90369 0.85154 0.0
C853 C 0.9615 0.92657 0.85563 0.0
C854 C 0.91096 0.88971 0.9606 0.0
C855 C 0.89472 0.84975 0.8958 0.0
N856 N 0.94221 0.91751 0.88517 0.0
N857 N 0.90184 0.86867 0.86039 0.0
H858 H 0.65149 0.89759 0.90773 0.0
H859 H 0.64065 1.0053 0.66829 0.0
H860 H 0.70859 0.93225 0.8078 0.0
H861 H 0.58774 0.98185 0.80595 0.0
H862 H 0.66056 0.96755 0.67971 0.0
H863 H 0.62419 0.91639 0.8308 0.0
C864 C 0.65842 0.90857 0.8686 0.0
C865 C 0.68235 0.91427 0.86683 0.0
C866 C 0.64425 0.97046 0.70602 0.0
C867 C 0.65123 0.93557 0.77835 0.0
C868 C 0.63299 0.99205 0.69992 0.0
C869 C 0.61304 0.99704 0.73829 0.0
C870 C 0.63562 0.95393 0.75141 0.0
C871 C 0.60332 0.97893 0.77633 0.0
C872 C 0.64279 0.91923 0.8245 0.0
C873 C 0.69032 0.92769 0.81279 0.0
N874 N 0.61502 0.95838 0.78325 0.0
N875 N 0.67474 0.93841 0.77197 0.0
H876 H 0.5883 0.6921 0.86068 0.0
H877 H 0.54539 0.57171 0.95224 0.0
H878 H 0.62873 0.64738 0.99045 0.0
H879 H 0.52414 0.60492 0.76901 0.0
H880 H 0.58128 0.59488 0.95211 0.0
H881 H 0.57181 0.65769 0.80727 0.0
C882 C 0.59447 0.67512 0.87677 0.0
C883 C 0.60913 0.67284 0.93297 0.0
C884 C 0.56908 0.59675 0.91098 0.0
C885 C 0.58925 0.63311 0.87315 0.0
C886 C 0.54848 0.5837 0.9115 0.0
C887 C 0.53148 0.58705 0.86184 0.0
C888 C 0.57233 0.6138 0.86159 0.0
C889 C 0.53664 0.60216 0.80895 0.0
C890 C 0.58478 0.6553 0.84622 0.0
C891 C 0.61645 0.6501 0.95 0.0
N892 N 0.55633 0.61549 0.81119 0.0
N893 N 0.60574 0.6311 0.92204 0.0
H894 H 0.84686 0.62653 0.97046 0.0
H895 H 0.85834 0.50381 0.7886 0.0
H896 H 0.78902 0.58848 0.882 0.0
H897 H 0.91784 0.54474 0.85324 0.0
H898 H 0.83333 0.5381 0.80541 0.0
H899 H 0.87388 0.60152 0.90741 0.0
C900 C 0.83979 0.61343 0.93639 0.0
C901 C 0.81559 0.60912 0.93369 0.0
C902 C 0.8519 0.53973 0.81519 0.0
C903 C 0.84636 0.58033 0.86201 0.0
C904 C 0.8661 0.52007 0.80625 0.0
C905 C 0.89005 0.52139 0.82067 0.0
C906 C 0.86166 0.56076 0.83987 0.0
C907 C 0.89938 0.543 0.84191 0.0
C908 C 0.85524 0.59909 0.90052 0.0
C909 C 0.80746 0.59238 0.88695 0.0
N910 N 0.8851 0.56176 0.85188 0.0
N911 N 0.82282 0.57821 0.85441 0.0
H912 H 0.05922 0.186 0.79453 0.0
H913 H 0.04271 0.07278 0.66432 0.0
H914 H 0.00777 0.16664 0.94167 0.0
H915 H 0.9755 0.07588 0.76102 0.0
H916 H 0.05322 0.11016 0.71808 0.0
H917 H 0.05111 0.14971 0.73326 0.0
C918 C 0.04632 0.17409 0.81446 0.0
C919 C 0.03443 0.17954 0.87434 0.0
C920 C 0.03606 0.10291 0.72718 0.0
C921 C 0.02512 0.13729 0.80385 0.0
C922 C 0.03022 0.08132 0.69718 0.0
C923 C 0.00836 0.071 0.70923 0.0
C924 C 0.01985 0.11441 0.76939 0.0
C925 C 0.99263 0.08312 0.75099 0.0
C926 C 0.04177 0.15316 0.77935 0.0
C927 C 0.01735 0.16349 0.89581 0.0
N928 N 0.99874 0.10399 0.78002 0.0
N929 N 0.01327 0.14321 0.86077 0.0
H930 H 0.34536 0.99038 0.88374 0.0
H931 H 0.44848 0.03685 0.64817 0.0
H932 H 0.35291 0.06331 0.8315 0.0
H933 H 0.45235 0.97199 0.7562 0.0
H934 H 0.41056 0.04515 0.70122 0.0
H935 H 0.38175 0.98174 0.82439 0.0
C936 C 0.35454 1.00464 0.85998 0.0
C937 C 0.34577 0.0277 0.86334 0.0
C938 C 0.41977 0.02917 0.71365 0.0
C939 C 0.38756 0.01768 0.79368 0.0
C940 C 0.4415 0.02453 0.68382 0.0
C941 C 0.45398 1.00415 0.7 0.0
C942 C 0.41024 0.01306 0.75896 0.0
C943 C 0.44355 0.9882 0.7438 0.0
C944 C 0.37535 0.99962 0.82574 0.0
C945 C 0.3585 0.0452 0.82979 0.0
N946 N 0.4224 0.99304 0.77203 0.0
N947 N 0.37865 0.03983 0.79657 0.0
H948 H 0.45472 0.32862 0.76708 0.0
H949 H 0.53724 0.44196 0.73988 0.0
H950 H 0.51173 0.34306 0.90335 0.0
H951 H 0.47171 0.43415 0.63473 0.0
H952 H 0.53203 0.40277 0.78683 0.0
H953 H 0.46456 0.36406 0.70557 0.0
C954 C 0.46941 0.33912 0.784 0.0
C955 C 0.48218 0.33282 0.84137 0.0
C956 C 0.5189 0.40953 0.75296 0.0
C957 C 0.49372 0.37359 0.77015 0.0
C958 C 0.52198 0.43186 0.72563 0.0
C959 C 0.50487 0.44143 0.6834 0.0
C960 C 0.49866 0.39654 0.73754 0.0
C961 C 0.48527 0.42757 0.66752 0.0
C962 C 0.47505 0.35938 0.7486 0.0
C963 C 0.5014 0.34699 0.85943 0.0
N964 N 0.48266 0.40593 0.69472 0.0
N965 N 0.50645 0.36674 0.82437 0.0
H966 H 0.20506 0.50095 0.77488 0.0
H967 H 0.06563 0.49529 0.79981 0.0
H968 H 0.16723 0.50164 0.96137 0.0
H969 H 0.09989 0.51884 0.62093 0.0
H970 H 0.10342 0.49358 0.85632 0.0
H971 H 0.16763 0.50422 0.71446 0.0
C972 C 0.18894 0.50192 0.80314 0.0
C973 C 0.1894 0.50117 0.87349 0.0
C974 C 0.10278 0.49905 0.80462 0.0
C975 C 0.14648 0.50454 0.80455 0.0
C976 C 0.08116 0.4997 0.77196 0.0
C977 C 0.07956 0.50675 0.70507 0.0
C978 C 0.12322 0.5053 0.77024 0.0
C979 C 0.10033 0.51319 0.67247 0.0
C980 C 0.1676 0.50384 0.76862 0.0
C981 C 0.16789 0.50252 0.90733 0.0
N982 N 0.12134 0.51214 0.70515 0.0
N983 N 0.14742 0.50393 0.87267 0.0
H984 H 0.03844 0.8464 0.36698 0.0
H985 H 0.9851 0.95122 0.59088 0.0
H986 H 0.96404 0.85575 0.39429 0.0
H987 H 0.05445 0.9523 0.50709 0.0
H988 H 0.97744 0.91412 0.53022 0.0
H989 H 0.04511 0.88295 0.42894 0.0
C990 C 0.02344 0.85601 0.38566 0.0
C991 C 1.00058 0.8476 0.37467 0.0
C992 C 0.99426 0.92258 0.52472 0.0
C993 C 0.00829 0.88972 0.44756 0.0
C994 C 0.99855 0.94385 0.55888 0.0
C995 C 0.02017 0.95526 0.55216 0.0
C996 C 0.01193 0.91238 0.48483 0.0
C997 C 0.03736 0.94435 0.51252 0.0
C998 C 0.02732 0.87694 0.42149 0.0
C999 C 0.98204 0.86098 0.40204 0.0
N1000 N 0.03289 0.92364 0.48041 0.0
N1001 N 0.98629 0.88123 0.43705 0.0
H1002 H 0.67541 0.96084 0.45474 0.0
H1003 H 0.57056 0.05363 0.50019 0.0
H1004 H 0.66786 0.023 0.33526 0.0
H1005 H 0.57503 0.98928 0.61039 0.0
H1006 H 0.60768 0.04398 0.44504 0.0
H1007 H 0.64037 0.97212 0.5174 0.0
C1008 C 0.66649 0.97691 0.44162 0.0
C1009 C 0.67474 0.99086 0.38891 0.0
C1010 C 0.60057 0.03189 0.48111 0.0
C1011 C 0.63438 1.00402 0.46146 0.0
C1012 C 0.57935 0.03739 0.51247 0.0
C1013 C 0.56932 0.02186 0.55816 0.0
C1014 C 0.61219 0.01086 0.49636 0.0
C1015 C 0.58175 1.00135 0.57369 0.0
C1016 C 0.64645 0.98337 0.47773 0.0
C1017 C 0.66249 0.01173 0.37562 0.0
N1018 N 0.60244 0.99639 0.54263 0.0
N1019 N 0.64295 0.01755 0.41123 0.0
H1020 H 0.56092 0.69682 0.49825 0.0
H1021 H 0.47986 0.58264 0.53207 0.0
H1022 H 0.5042 0.68047 0.36264 0.0
H1023 H 0.54511 0.59198 0.63761 0.0
H1024 H 0.4848 0.62141 0.48235 0.0
H1025 H 0.55172 0.66159 0.56152 0.0
C1026 C 0.54644 0.68595 0.48178 0.0
C1027 C 0.53354 0.69169 0.42411 0.0
C1028 C 0.49793 0.61508 0.51689 0.0
C1029 C 0.52272 0.65115 0.49751 0.0
C1030 C 0.495 0.593 0.54585 0.0
C1031 C 0.51209 0.58396 0.5891 0.0
C1032 C 0.51802 0.62841 0.53162 0.0
C1033 C 0.53156 0.59814 0.60416 0.0
C1034 C 0.54117 0.6658 0.51822 0.0
C1035 C 0.5146 0.67703 0.40675 0.0
N1036 N 0.53402 0.61955 0.57536 0.0
N1037 N 0.5099 0.65743 0.44289 0.0
H1038 H 0.83922 0.57693 0.40212 0.0
H1039 H 0.93575 0.48611 0.53328 0.0
H1040 H 0.8281 0.50206 0.40501 0.0
H1041 H 0.94375 0.56127 0.5439 0.0
H1042 H 0.89644 0.49138 0.48725 0.0
H1043 H 0.87724 0.57131 0.45465 0.0
C1044 C 0.84452 0.55927 0.41457 0.0
C1045 C 0.83002 0.53997 0.39928 0.0
C1046 C 0.90681 0.50673 0.49945 0.0
C1047 C 0.87438 0.53337 0.45868 0.0
C1048 C 0.92935 0.50375 0.52583 0.0
C1049 C 0.94346 0.52327 0.54145 0.0
C1050 C 0.89811 0.52944 0.48855 0.0
C1051 C 0.9339 0.54567 0.53107 0.0
C1052 C 0.86647 0.55608 0.4442 0.0
C1053 C 0.83854 0.51751 0.41516 0.0
N1054 N 0.91196 0.54811 0.50515 0.0
N1055 N 0.86008 0.51485 0.4438 0.0
loop_
_geom_bond_atom_site_label_1
_geom_bond_atom_site_label_2
_geom_bond_distance
_geom_bond_site_symmetry_2
_ccdc_geom_bond_type
C0 C1 1.384 . S
C0 H13 0.947 . S
C0 C35 1.382 . S
C1 C0 1.384 . S
C1 C2 1.378 . S
C2 C1 1.378 . S
C2 C3 1.378 . S
C2 H14 0.952 . S
C3 C2 1.378 . S
C3 H15 0.950 . S
C3 C34 1.383 . S
H4 C23 0.947 . S
H5 C24 0.946 . S
H6 C26 0.953 . S
H7 C27 0.945 . S
H8 C29 0.952 . S
H9 C30 0.949 . S
H10 C32 0.950 . S
H11 C33 0.948 . S
H12 C35 0.951 . S
H13 C0 0.947 . S
H14 C2 0.952 . S
H15 C3 0.950 . S
N16 C19 1.382 . S
N16 C21 1.363 . S
N17 C19 1.371 . S
N17 C20 1.372 . S
N18 C20 1.361 . S
N18 C21 1.377 . S
C19 N16 1.382 . S
C19 N17 1.371 . S
C19 C22 1.480 . S
C20 N17 1.372 . S
C20 N18 1.361 . S
C20 C28 1.457 . S
C21 N16 1.363 . S
C21 N18 1.377 . S
C21 C34 1.479 . S
C22 C19 1.480 . S
C22 C23 1.383 . S
C22 C27 1.385 . S
C23 H4 0.947 . S
C23 C22 1.383 . S
C23 C24 1.388 . S
C24 H5 0.946 . S
C24 C23 1.388 . S
C24 C25 1.384 . S
C25 C24 1.384 . S
C25 C26 1.377 . S
C26 H6 0.953 . S
C26 C25 1.377 . S
C26 C27 1.369 . S
C27 H7 0.945 . S
C27 C22 1.385 . S
C27 C26 1.369 . S
C28 C20 1.457 . S
C28 C29 1.372 . S
C28 C33 1.364 . S
C29 H8 0.952 . S
C29 C28 1.372 . S
C29 C30 1.389 1_554 S
C30 H9 0.949 . S
C30 C29 1.389 1_556 S
C30 C31 1.387 1_556 S
C31 C30 1.387 1_554 S
C31 C32 1.372 . S
C32 H10 0.950 . S
C32 C31 1.372 . S
C32 C33 1.379 . S
C33 H11 0.948 . S
C33 C28 1.364 . S
C33 C32 1.379 . S
C34 C3 1.383 . S
C34 C21 1.479 . S
C34 C35 1.398 . S
C35 C0 1.382 . S
C35 H12 0.951 . S
C35 C34 1.398 . S
C36 C37 1.384 . S
C36 H49 0.947 . S
C36 C71 1.382 . S
C37 C36 1.384 . S
C37 C38 1.378 . S
C38 C37 1.378 . S
C38 C39 1.378 . S
C38 H50 0.952 . S
C39 C38 1.378 . S
C39 H51 0.950 . S
C39 C70 1.383 . S
H40 C59 0.947 . S
H41 C60 0.946 . S
H42 C62 0.953 . S
H43 C63 0.945 . S
H44 C65 0.952 . S
H45 C66 0.949 1_556 S
H46 C68 0.950 . S
H47 C69 0.948 . S
H48 C71 0.951 . S
H49 C36 0.947 . S
H50 C38 0.952 . S
H51 C39 0.950 . S
N52 C55 1.382 . S
N52 C57 1.363 . S
N53 C55 1.371 . S
N53 C56 1.372 . S
N54 C56 1.361 . S
N54 C57 1.377 . S
C55 N52 1.382 . S
C55 N53 1.371 . S
C55 C58 1.480 . S
C56 N53 1.372 . S
C56 N54 1.361 . S
C56 C64 1.457 . S
C57 N52 1.363 . S
C57 N54 1.377 . S
C57 C70 1.479 . S
C58 C55 1.480 . S
C58 C59 1.383 . S
C58 C63 1.385 . S
C59 H40 0.947 . S
C59 C58 1.383 . S
C59 C60 1.388 . S
C60 H41 0.946 . S
C60 C59 1.388 . S
C60 C61 1.384 . S
C61 C60 1.384 . S
C61 C62 1.377 . S
C62 H42 0.953 . S
C62 C61 1.377 . S
C62 C63 1.369 . S
C63 H43 0.945 . S
C63 C58 1.385 . S
C63 C62 1.369 . S
C64 C56 1.457 . S
C64 C65 1.372 . S
C64 C69 1.364 . S
C65 H44 0.952 . S
C65 C64 1.372 . S
C65 C66 1.389 . S
C66 H45 0.949 1_554 S
C66 C65 1.389 . S
C66 C67 1.387 . S
C67 C66 1.387 . S
C67 C68 1.372 . S
C68 H46 0.950 . S
C68 C67 1.372 . S
C68 C69 1.379 . S
C69 H47 0.948 . S
C69 C64 1.364 . S
C69 C68 1.379 . S
C70 C39 1.383 . S
C70 C57 1.479 . S
C70 C71 1.398 . S
C71 C36 1.382 . S
C71 H48 0.951 . S
C71 C70 1.398 . S
C72 C73 1.384 . S
C72 H85 0.947 . S
C72 C107 1.382 . S
C73 C72 1.384 . S
C73 C74 1.378 . S
C74 C73 1.378 . S
C74 C75 1.378 . S
C74 H86 0.952 . S
C75 C74 1.378 . S
C75 H87 0.950 . S
C75 C106 1.383 . S
H76 C95 0.947 . S
H77 C96 0.946 . S
H78 C98 0.953 . S
H79 C99 0.945 . S
H80 C101 0.952 . S
H81 C102 0.949 1_556 S
H82 C104 0.950 . S
H83 C105 0.948 . S
H84 C107 0.951 . S
H85 C72 0.947 . S
H86 C74 0.952 . S
H87 C75 0.950 . S
N88 C91 1.382 . S
N88 C93 1.363 . S
N89 C91 1.371 . S
N89 C92 1.372 . S
N90 C92 1.361 . S
N90 C93 1.377 . S
C91 N88 1.382 . S
C91 N89 1.371 . S
C91 C94 1.480 . S
C92 N89 1.372 . S
C92 N90 1.361 . S
C92 C100 1.457 . S
C93 N88 1.363 . S
C93 N90 1.377 . S
C93 C106 1.479 . S
C94 C91 1.480 . S
C94 C95 1.383 . S
C94 C99 1.385 . S
C95 H76 0.947 . S
C95 C94 1.383 . S
C95 C96 1.388 . S
C96 H77 0.946 . S
C96 C95 1.388 . S
C96 C97 1.384 . S
C97 C96 1.384 . S
C97 C98 1.377 . S
C98 H78 0.953 . S
C98 C97 1.377 . S
C98 C99 1.369 . S
C99 H79 0.945 . S
C99 C94 1.385 . S
C99 C98 1.369 . S
C100 C92 1.457 . S
C100 C101 1.372 . S
C100 C105 1.364 . S
C101 H80 0.952 . S
C101 C100 1.372 . S
C101 C102 1.389 . S
C102 H81 0.949 1_554 S
C102 C101 1.389 . S
C102 C103 1.387 . S
C103 C102 1.387 . S
C103 C104 1.372 . S
C104 H82 0.950 . S
C104 C103 1.372 . S
C104 C105 1.379 . S
C105 H83 0.948 . S
C105 C100 1.364 . S
C105 C104 1.379 . S
C106 C75 1.383 . S
C106 C93 1.479 . S
C106 C107 1.398 . S
C107 C72 1.382 . S
C107 H84 0.951 . S
C107 C106 1.398 . S
C108 C109 1.384 . S
C108 H121 0.947 . S
C108 C143 1.382 . S
C109 C108 1.384 . S
C109 C110 1.378 1_554 S
C110 C109 1.378 1_556 S
C110 C111 1.378 1_556 S
C110 H122 0.952 . S
C111 C110 1.378 1_554 S
C111 H123 0.950 . S
C111 C142 1.383 . S
H112 C131 0.947 . S
H113 C132 0.946 . S
H114 C134 0.953 . S
H115 C135 0.945 . S
H116 C137 0.952 . S
H117 C138 0.949 . S
H118 C140 0.950 . S
H119 C141 0.948 . S
H120 C143 0.951 . S
H121 C108 0.947 . S
H122 C110 0.952 . S
H123 C111 0.950 . S
N124 C127 1.382 . S
N124 C129 1.363 . S
N125 C127 1.371 . S
N125 C128 1.372 . S
N126 C128 1.361 . S
N126 C129 1.377 . S
C127 N124 1.382 . S
C127 N125 1.371 . S
C127 C130 1.480 . S
C128 N125 1.372 . S
C128 N126 1.361 . S
C128 C136 1.457 . S
C129 N124 1.363 . S
C129 N126 1.377 . S
C129 C142 1.479 . S
C130 C127 1.480 . S
C130 C131 1.383 . S
C130 C135 1.385 . S
C131 H112 0.947 . S
C131 C130 1.383 . S
C131 C132 1.388 . S
C132 H113 0.946 . S
C132 C131 1.388 . S
C132 C133 1.384 . S
C133 C132 1.384 . S
C133 C134 1.377 . S
C134 H114 0.953 . S
C134 C133 1.377 . S
C134 C135 1.369 . S
C135 H115 0.945 . S
C135 C130 1.385 . S
C135 C134 1.369 . S
C136 C128 1.457 . S
C136 C137 1.372 . S
C136 C141 1.364 . S
C137 H116 0.952 . S
C137 C136 1.372 . S
C137 C138 1.389 . S
C138 H117 0.949 . S
C138 C137 1.389 . S
C138 C139 1.387 . S
C139 C138 1.387 . S
C139 C140 1.372 . S
C140 H118 0.950 . S
C140 C139 1.372 . S
C140 C141 1.379 . S
C141 H119 0.948 . S
C141 C136 1.364 . S
C141 C140 1.379 . S
C142 C111 1.383 . S
C142 C129 1.479 . S
C142 C143 1.398 . S
C143 C108 1.382 . S
C143 H120 0.951 . S
C143 C142 1.398 . S
C144 C145 1.384 . S
C144 H157 0.947 . S
C144 C179 1.382 . S
C145 C144 1.384 . S
C145 C146 1.378 . S
C146 C145 1.378 . S
C146 C147 1.378 . S
C146 H158 0.952 . S
C147 C146 1.378 . S
C147 H159 0.950 . S
C147 C178 1.383 . S
H148 C167 0.947 1_556 S
H149 C168 0.946 1_556 S
H150 C170 0.953 . S
H151 C171 0.945 . S
H152 C173 0.952 . S
H153 C174 0.949 . S
H154 C176 0.950 . S
H155 C177 0.948 . S
H156 C179 0.951 . S
H157 C144 0.947 . S
H158 C146 0.952 . S
H159 C147 0.950 . S
N160 C163 1.382 1_556 S
N160 C165 1.363 . S
N161 C163 1.371 . S
N161 C164 1.372 . S
N162 C164 1.361 . S
N162 C165 1.377 1_554 S
C163 N160 1.382 1_554 S
C163 N161 1.371 . S
C163 C166 1.480 . S
C164 N161 1.372 . S
C164 N162 1.361 . S
C164 C172 1.457 . S
C165 N160 1.363 . S
C165 N162 1.377 1_556 S
C165 C178 1.479 . S
C166 C163 1.480 . S
C166 C167 1.383 . S
C166 C171 1.385 . S
C167 H148 0.947 1_554 S
C167 C166 1.383 . S
C167 C168 1.388 . S
C168 H149 0.946 1_554 S
C168 C167 1.388 . S
C168 C169 1.384 . S
C169 C168 1.384 . S
C169 C170 1.377 . S
C170 H150 0.953 . S
C170 C169 1.377 . S
C170 C171 1.369 . S
C171 H151 0.945 . S
C171 C166 1.385 . S
C171 C170 1.369 . S
C172 C164 1.457 . S
C172 C173 1.372 . S
C172 C177 1.364 . S
C173 H152 0.952 . S
C173 C172 1.372 . S
C173 C174 1.389 . S
C174 H153 0.949 . S
C174 C173 1.389 . S
C174 C175 1.387 . S
C175 C174 1.387 . S
C175 C176 1.372 . S
C176 H154 0.950 . S
C176 C175 1.372 . S
C176 C177 1.379 . S
C177 H155 0.948 . S
C177 C172 1.364 . S
C177 C176 1.379 . S
C178 C147 1.383 . S
C178 C165 1.479 . S
C178 C179 1.398 . S
C179 C144 1.382 . S
C179 H156 0.951 . S
C179 C178 1.398 . S
C180 C181 1.384 . S
C180 H193 0.947 . S
C180 C215 1.382 . S
C181 C180 1.384 . S
C181 C182 1.378 . S
C182 C181 1.378 . S
C182 C183 1.378 . S
C182 H194 0.952 . S
C183 C182 1.378 . S
C183 H195 0.950 . S
C183 C214 1.383 . S
H184 C203 0.947 1_556 S
H185 C204 0.946 1_556 S
H186 C206 0.953 . S
H187 C207 0.945 . S
H188 C209 0.952 . S
H189 C210 0.949 . S
H190 C212 0.950 . S
H191 C213 0.948 . S
H192 C215 0.951 . S
H193 C180 0.947 . S
H194 C182 0.952 . S
H195 C183 0.950 . S
N196 C199 1.382 1_556 S
N196 C201 1.363 . S
N197 C199 1.371 . S
N197 C200 1.372 . S
N198 C200 1.361 . S
N198 C201 1.377 1_554 S
C199 N196 1.382 1_554 S
C199 N197 1.371 . S
C199 C202 1.480 . S
C200 N197 1.372 . S
C200 N198 1.361 . S
C200 C208 1.457 . S
C201 N196 1.363 . S
C201 N198 1.377 1_556 S
C201 C214 1.479 . S
C202 C199 1.480 . S
C202 C203 1.383 . S
C202 C207 1.385 . S
C203 H184 0.947 1_554 S
C203 C202 1.383 . S
C203 C204 1.388 . S
C204 H185 0.946 1_554 S
C204 C203 1.388 . S
C204 C205 1.384 . S
C205 C204 1.384 . S
C205 C206 1.377 . S
C206 H186 0.953 . S
C206 C205 1.377 . S
C206 C207 1.369 . S
C207 H187 0.945 . S
C207 C202 1.385 . S
C207 C206 1.369 . S
C208 C200 1.457 . S
C208 C209 1.372 . S
C208 C213 1.364 . S
C209 H188 0.952 . S
C209 C208 1.372 . S
C209 C210 1.389 . S
C210 H189 0.949 . S
C210 C209 1.389 . S
C210 C211 1.387 . S
C211 C210 1.387 . S
C211 C212 1.372 . S
C212 H190 0.950 . S
C212 C211 1.372 . S
C212 C213 1.379 . S
C213 H191 0.948 . S
C213 C208 1.364 . S
C213 C212 1.379 . S
C214 C183 1.383 . S
C214 C201 1.479 . S
C214 C215 1.398 . S
C215 C180 1.382 . S
C215 H192 0.951 . S
C215 C214 1.398 . S
C216 C217 1.384 . S
C216 H229 0.947 . S
C216 C251 1.382 . S
C217 C216 1.384 . S
C217 C218 1.378 . S
C218 C217 1.378 . S
C218 C219 1.378 . S
C218 H230 0.952 . S
C219 C218 1.378 . S
C219 H231 0.950 . S
C219 C250 1.383 . S
H220 C239 0.947 1_556 S
H221 C240 0.946 1_556 S
H222 C242 0.953 . S
H223 C243 0.945 . S
H224 C245 0.952 . S
H225 C246 0.949 . S
H226 C248 0.950 . S
H227 C249 0.948 . S
H228 C251 0.951 . S
H229 C216 0.947 . S
H230 C218 0.952 . S
H231 C219 0.950 . S
N232 C235 1.382 1_556 S
N232 C237 1.363 . S
N233 C235 1.371 . S
N233 C236 1.372 . S
N234 C236 1.361 . S
N234 C237 1.377 1_554 S
C235 N232 1.382 1_554 S
C235 N233 1.371 . S
C235 C238 1.480 . S
C236 N233 1.372 . S
C236 N234 1.361 . S
C236 C244 1.457 . S
C237 N232 1.363 . S
C237 N234 1.377 1_556 S
C237 C250 1.479 . S
C238 C235 1.480 . S
C238 C239 1.383 . S
C238 C243 1.385 . S
C239 H220 0.947 1_554 S
C239 C238 1.383 . S
C239 C240 1.388 . S
C240 H221 0.946 1_554 S
C240 C239 1.388 . S
C240 C241 1.384 . S
C241 C240 1.384 . S
C241 C242 1.377 . S
C242 H222 0.953 . S
C242 C241 1.377 . S
C242 C243 1.369 . S
C243 H223 0.945 . S
C243 C238 1.385 . S
C243 C242 1.369 . S
C244 C236 1.457 . S
C244 C245 1.372 . S
C244 C249 1.364 . S
C245 H224 0.952 . S
C245 C244 1.372 . S
C245 C246 1.389 . S
C246 H225 0.949 . S
C246 C245 1.389 . S
C246 C247 1.387 . S
C247 C246 1.387 . S
C247 C248 1.372 . S
C248 H226 0.950 . S
C248 C247 1.372 . S
C248 C249 1.379 . S
C249 H227 0.948 . S
C249 C244 1.364 . S
C249 C248 1.379 . S
C250 C219 1.383 . S
C250 C237 1.479 . S
C250 C251 1.398 . S
C251 C216 1.382 . S
C251 H228 0.951 . S
C251 C250 1.398 . S
C252 C253 1.384 . S
C252 H265 0.947 . S
C252 C287 1.382 . S
C253 C252 1.384 . S
C253 C254 1.378 . S
C254 C253 1.378 . S
C254 C255 1.378 . S
C254 H266 0.952 . S
C255 C254 1.378 . S
C255 H267 0.950 . S
C255 C286 1.383 . S
H256 C275 0.947 . S
H257 C276 0.946 . S
H258 C278 0.953 1_556 S
H259 C279 0.945 1_556 S
H260 C281 0.952 . S
H261 C282 0.949 . S
H262 C284 0.950 . S
H263 C285 0.948 . S
H264 C287 0.951 . S
H265 C252 0.947 . S
H266 C254 0.952 . S
H267 C255 0.950 . S
N268 C271 1.382 . S
N268 C273 1.363 . S
N269 C271 1.371 1_556 S
N269 C272 1.372 . S
N270 C272 1.361 1_554 S
N270 C273 1.377 . S
C271 N268 1.382 . S
C271 N269 1.371 1_554 S
C271 C274 1.480 . S
C272 N269 1.372 . S
C272 N270 1.361 1_556 S
C272 C280 1.457 . S
C273 N268 1.363 . S
C273 N270 1.377 . S
C273 C286 1.479 . S
C274 C271 1.480 . S
C274 C275 1.383 . S
C274 C279 1.385 . S
C275 H256 0.947 . S
C275 C274 1.383 . S
C275 C276 1.388 . S
C276 H257 0.946 . S
C276 C275 1.388 . S
C276 C277 1.384 . S
C277 C276 1.384 . S
C277 C278 1.377 . S
C278 H258 0.953 1_554 S
C278 C277 1.377 . S
C278 C279 1.369 . S
C279 H259 0.945 1_554 S
C279 C274 1.385 . S
C279 C278 1.369 . S
C280 C272 1.457 . S
C280 C281 1.372 . S
C280 C285 1.364 . S
C281 H260 0.952 . S
C281 C280 1.372 . S
C281 C282 1.389 . S
C282 H261 0.949 . S
C282 C281 1.389 . S
C282 C283 1.387 . S
C283 C282 1.387 . S
C283 C284 1.372 . S
C284 H262 0.950 . S
C284 C283 1.372 . S
C284 C285 1.379 . S
C285 H263 0.948 . S
C285 C280 1.364 . S
C285 C284 1.379 . S
C286 C255 1.383 . S
C286 C273 1.479 . S
C286 C287 1.398 . S
C287 C252 1.382 . S
C287 H264 0.951 . S
C287 C286 1.398 . S
Eu288 N319 2.657 1_565 S
Eu288 N326 2.609 . S
Eu288 O332 2.558 . S
Eu288 O333 2.612 1_455 S
Eu288 O335 2.339 1_455 S
Eu288 O336 2.563 . S
Eu288 O337 2.419 . S
Eu288 O339 2.380 1_565 S
Eu288 O340 2.432 . S
Eu288 C352 2.848 . S
C289 C292 1.429 1_545 S
C289 C293 1.411 . S
C289 N296 1.377 . S
C290 C292 1.420 . S
C290 C294 1.423 . S
C290 C302 1.392 . S
C291 C293 1.420 1_565 S
C291 C294 1.351 . S
C291 H314 0.931 . S
C292 C289 1.429 1_565 S
C292 C290 1.420 . S
C292 N300 1.364 . S
C293 C289 1.411 . S
C293 C291 1.420 1_545 S
C293 C298 1.395 . S
C294 C290 1.423 . S
C294 C291 1.351 . S
C294 H306 0.930 . S
C295 C297 1.400 . S
C295 C298 1.386 . S
C295 H307 0.930 . S
N296 C289 1.377 . S
N296 C297 1.321 . S
N296 Eu299 2.609 . S
C297 C295 1.400 . S
C297 N296 1.321 . S
C297 H304 0.930 . S
C298 C293 1.395 . S
C298 C295 1.386 . S
C298 H317 0.930 . S
Eu299 N296 2.609 . S
Eu299 N300 2.651 1_545 S
Eu299 O333 2.380 1_545 S
Eu299 O334 2.432 . S
Eu299 O338 2.558 . S
Eu299 O339 2.612 1_655 S
Eu299 O341 2.339 1_655 S
Eu299 O342 2.563 1_655 S
Eu299 O343 2.419 . S
Eu299 C363 2.848 . S
N300 C292 1.364 . S
N300 Eu299 2.651 1_565 S
N300 C301 1.338 1_655 S
C301 N300 1.338 1_455 S
C301 C303 1.413 1_455 S
C301 H308 0.929 . S
C302 C290 1.392 . S
C302 C303 1.377 . S
C302 H310 0.930 . S
C303 C301 1.413 1_655 S
C303 C302 1.377 . S
C303 H305 0.922 1_655 S
H304 C297 0.930 . S
H305 C303 0.922 1_455 S
H306 C294 0.930 . S
H307 C295 0.930 . S
H308 C301 0.929 . S
H309 C323 0.930 1_655 S
H310 C302 0.930 . S
H311 C329 0.930 . S
H312 C320 0.929 1_655 S
H313 C327 0.930 . S
H314 C291 0.931 . S
H315 C321 0.930 . S
H316 C354 0.930 . S
H317 C298 0.930 . S
H318 C353 0.931 . S
N319 Eu288 2.657 1_545 S
N319 C320 1.334 . S
N319 C324 1.362 . S
C320 H312 0.929 1_455 S
C320 N319 1.334 . S
C320 C323 1.413 . S
C321 H315 0.930 . S
C321 C322 1.392 . S
C321 C323 1.367 . S
C322 C321 1.392 . S
C322 C324 1.420 . S
C322 C354 1.423 . S
C323 H309 0.930 1_455 S
C323 C320 1.413 . S
C323 C321 1.367 . S
C324 N319 1.362 . S
C324 C322 1.420 . S
C324 C328 1.429 . S
H325 C330 0.928 . S
N326 Eu288 2.609 . S
N326 C328 1.377 1_565 S
N326 C329 1.321 . S
C327 H313 0.930 . S
C327 C329 1.400 . S
C327 C330 1.406 . S
C328 C324 1.429 . S
C328 N326 1.377 1_545 S
C328 C331 1.411 . S
C329 H311 0.930 . S
C329 N326 1.321 . S
C329 C327 1.400 . S
C330 H325 0.928 . S
C330 C327 1.406 . S
C330 C331 1.378 1_565 S
C331 C328 1.411 . S
C331 C330 1.378 1_545 S
C331 C353 1.420 . S
O332 Eu288 2.558 . S
O332 C352 1.257 . S
O333 Eu288 2.612 1_655 S
O333 Eu299 2.380 1_565 S
O333 C344 1.276 . S
O334 Eu299 2.432 . S
O334 C351 1.264 . S
O335 Eu288 2.339 1_655 S
O335 C351 1.254 1_565 S
O336 Eu288 2.563 . S
O336 C344 1.235 1_455 S
O337 Eu288 2.419 . S
O337 C352 1.249 . S
O338 Eu299 2.558 . S
O338 C363 1.257 . S
O339 Eu288 2.380 1_545 S
O339 Eu299 2.612 1_455 S
O339 C355 1.276 . S
O340 Eu288 2.432 . S
O340 C362 1.264 1_565 S
O341 Eu299 2.339 1_455 S
O341 C362 1.254 . S
O342 Eu299 2.563 1_455 S
O342 C355 1.235 . S
O343 Eu299 2.419 . S
O343 C363 1.249 . S
C344 O333 1.276 . S
C344 O336 1.235 1_655 S
C345 C347 1.393 . S
C345 C349 1.395 . S
C345 C352 1.492 . S
C346 C347 1.392 . S
C346 C348 1.386 . S
C347 C345 1.393 . S
C347 C346 1.392 . S
C347 H364 0.934 1_455 S
C348 C346 1.386 . S
C348 C350 1.395 . S
C348 H365 0.930 . S
C349 C345 1.395 . S
C349 C350 1.379 . S
C349 H366 0.930 . S
C350 C348 1.395 . S
C350 C349 1.379 . S
C350 H367 0.930 . S
C351 O334 1.264 . S
C351 O335 1.254 1_545 S
C352 Eu288 2.848 . S
C352 O332 1.257 . S
C352 O337 1.249 . S
C352 C345 1.492 . S
C353 H318 0.931 . S
C353 C331 1.420 . S
C353 C354 1.351 . S
C354 H316 0.930 . S
C354 C322 1.423 . S
C354 C353 1.351 . S
C355 O339 1.276 . S
C355 O342 1.235 . S
C356 C357 1.393 . S
C356 C360 1.395 . S
C356 C363 1.492 . S
C357 C356 1.393 . S
C357 C358 1.392 . S
C357 H368 0.930 1_655 S
C358 C357 1.392 . S
C358 C359 1.386 . S
C359 C358 1.386 . S
C359 C361 1.395 . S
C359 H369 0.930 . S
C360 C356 1.395 . S
C360 C361 1.379 . S
C360 H370 0.930 . S
C361 C359 1.395 . S
C361 C360 1.379 . S
C361 H371 0.930 . S
C362 O340 1.264 1_545 S
C362 O341 1.254 . S
C363 Eu299 2.848 . S
C363 O338 1.257 . S
C363 O343 1.249 . S
C363 C356 1.492 . S
H364 C347 0.934 1_655 S
H365 C348 0.930 . S
H366 C349 0.930 . S
H367 C350 0.930 . S
H368 C357 0.930 1_455 S
H369 C359 0.930 . S
H370 C360 0.930 . S
H371 C361 0.930 . S
Eu372 N403 2.657 . S
Eu372 N410 2.609 . S
Eu372 O416 2.558 . S
Eu372 O417 2.612 1_545 S
Eu372 O419 2.339 1_545 S
Eu372 O420 2.563 . S
Eu372 O421 2.419 . S
Eu372 O423 2.380 . S
Eu372 O424 2.432 . S
Eu372 C436 2.848 . S
C373 C376 1.429 . S
C373 C377 1.411 . S
C373 N380 1.377 . S
C374 C376 1.420 . S
C374 C378 1.423 . S
C374 C386 1.392 . S
C375 C377 1.420 . S
C375 C378 1.351 . S
C375 H398 0.931 . S
C376 C373 1.429 . S
C376 C374 1.420 . S
C376 N384 1.362 . S
C377 C373 1.411 . S
C377 C375 1.420 . S
C377 C382 1.395 . S
C378 C374 1.423 . S
C378 C375 1.351 . S
C378 H390 0.930 . S
C379 C381 1.400 . S
C379 C382 1.386 . S
C379 H391 0.930 . S
N380 C373 1.377 . S
N380 C381 1.321 . S
N380 Eu383 2.609 . S
C381 C379 1.400 . S
C381 N380 1.321 . S
C381 H388 0.930 . S
C382 C377 1.395 . S
C382 C379 1.386 . S
C382 H401 0.930 . S
Eu383 N380 2.609 . S
Eu383 N384 2.657 . S
Eu383 O417 2.380 . S
Eu383 O418 2.432 . S
Eu383 O422 2.558 . S
Eu383 O423 2.612 1_565 S
Eu383 O425 2.339 1_565 S
Eu383 O426 2.563 1_565 S
Eu383 O427 2.419 . S
Eu383 C447 2.848 . S
N384 C376 1.362 . S
N384 Eu383 2.657 . S
N384 C385 1.334 1_565 S
C385 N384 1.334 1_545 S
C385 C387 1.413 . S
C385 H392 0.929 . S
C386 C374 1.392 . S
C386 C387 1.367 1_565 S
C386 H394 0.930 . S
C387 C385 1.413 . S
C387 C386 1.367 1_545 S
C387 H389 0.930 . S
H388 C381 0.930 . S
H389 C387 0.930 . S
H390 C378 0.930 . S
H391 C379 0.930 . S
H392 C385 0.929 . S
H393 C407 0.930 1_565 S
H394 C386 0.930 . S
H395 C413 0.930 . S
H396 C404 0.929 1_565 S
H397 C411 0.930 . S
H398 C375 0.931 . S
H399 C405 0.930 . S
H400 C438 0.930 . S
H401 C382 0.930 . S
H402 C437 0.931 . S
N403 Eu372 2.657 . S
N403 C404 1.334 . S
N403 C408 1.362 . S
C404 H396 0.929 1_545 S
C404 N403 1.334 . S
C404 C407 1.413 . S
C405 H399 0.930 . S
C405 C406 1.392 . S
C405 C407 1.367 . S
C406 C405 1.392 . S
C406 C408 1.420 . S
C406 C438 1.423 . S
C407 H393 0.930 1_545 S
C407 C404 1.413 . S
C407 C405 1.367 . S
C408 N403 1.362 . S
C408 C406 1.420 . S
C408 C412 1.429 . S
H409 C414 0.930 . S
N410 Eu372 2.609 . S
N410 C412 1.377 . S
N410 C413 1.321 . S
C411 H397 0.930 . S
C411 C413 1.400 . S
C411 C414 1.386 . S
C412 C408 1.429 . S
C412 N410 1.377 . S
C412 C415 1.411 . S
C413 H395 0.930 . S
C413 N410 1.321 . S
C413 C411 1.400 . S
C414 H409 0.930 . S
C414 C411 1.386 . S
C414 C415 1.395 . S
C415 C412 1.411 . S
C415 C414 1.395 . S
C415 C437 1.420 . S
O416 Eu372 2.558 . S
O416 C436 1.257 . S
O417 Eu372 2.612 1_565 S
O417 Eu383 2.380 . S
O417 C428 1.276 . S
O418 Eu383 2.432 . S
O418 C435 1.264 . S
O419 Eu372 2.339 1_565 S
O419 C435 1.254 . S
O420 Eu372 2.563 . S
O420 C428 1.235 1_545 S
O421 Eu372 2.419 . S
O421 C436 1.249 . S
O422 Eu383 2.558 . S
O422 C447 1.257 . S
O423 Eu372 2.380 . S
O423 Eu383 2.612 1_545 S
O423 C439 1.276 . S
O424 Eu372 2.432 . S
O424 C446 1.264 . S
O425 Eu383 2.339 1_545 S
O425 C446 1.254 . S
O426 Eu383 2.563 1_545 S
O426 C439 1.235 . S
O427 Eu383 2.419 . S
O427 C447 1.249 . S
C428 O417 1.276 . S
C428 O420 1.235 1_565 S
C429 C431 1.393 . S
C429 C433 1.395 . S
C429 C436 1.492 . S
C430 C431 1.392 . S
C430 C432 1.386 . S
C431 C429 1.393 . S
C431 C430 1.392 . S
C431 H448 0.930 . S
C432 C430 1.386 . S
C432 C434 1.395 . S
C432 H449 0.930 . S
C433 C429 1.395 . S
C433 C434 1.379 . S
C433 H450 0.930 . S
C434 C432 1.395 . S
C434 C433 1.379 . S
C434 H451 0.930 . S
C435 O418 1.264 . S
C435 O419 1.254 . S
C436 Eu372 2.848 . S
C436 O416 1.257 . S
C436 O421 1.249 . S
C436 C429 1.492 . S
C437 H402 0.931 . S
C437 C415 1.420 . S
C437 C438 1.351 . S
C438 H400 0.930 . S
C438 C406 1.423 . S
C438 C437 1.351 . S
C439 O423 1.276 . S
C439 O426 1.235 . S
C440 C441 1.393 . S
C440 C444 1.395 . S
C440 C447 1.492 . S
C441 C440 1.393 . S
C441 C442 1.392 . S
C441 H452 0.930 1_565 S
C442 C441 1.392 . S
C442 C443 1.386 . S
C443 C442 1.386 . S
C443 C445 1.395 . S
C443 H453 0.930 . S
C444 C440 1.395 . S
C444 C445 1.379 . S
C444 H454 0.930 . S
C445 C443 1.395 . S
C445 C444 1.379 . S
C445 H455 0.930 . S
C446 O424 1.264 . S
C446 O425 1.254 . S
C447 Eu383 2.848 . S
C447 O422 1.257 . S
C447 O427 1.249 . S
C447 C440 1.492 . S
H448 C431 0.930 . S
H449 C432 0.930 . S
H450 C433 0.930 . S
H451 C434 0.930 . S
H452 C441 0.930 1_545 S
H453 C443 0.930 . S
H454 C444 0.930 . S
H455 C445 0.930 . S
Eu456 N487 2.657 . S
Eu456 N494 2.609 . S
Eu456 O500 2.558 . S
Eu456 O501 2.612 . S
Eu456 O503 2.339 . S
Eu456 O504 2.563 . S
Eu456 O505 2.419 . S
Eu456 O507 2.380 . S
Eu456 O508 2.432 . S
Eu456 C520 2.848 . S
C457 C460 1.429 . S
C457 C461 1.411 . S
C457 N464 1.377 . S
C458 C460 1.420 . S
C458 C462 1.423 . S
C458 C470 1.392 . S
C459 C461 1.420 . S
C459 C462 1.351 . S
C459 H482 0.931 . S
C460 C457 1.429 . S
C460 C458 1.420 . S
C460 N468 1.362 . S
C461 C457 1.411 . S
C461 C459 1.420 . S
C461 C466 1.395 . S
C462 C458 1.423 . S
C462 C459 1.351 . S
C462 H474 0.930 . S
C463 C465 1.400 . S
C463 C466 1.386 . S
C463 H475 0.930 . S
N464 C457 1.377 . S
N464 C465 1.321 . S
N464 Eu467 2.609 . S
C465 C463 1.400 . S
C465 N464 1.321 . S
C465 H472 0.930 . S
C466 C461 1.395 . S
C466 C463 1.386 . S
C466 H485 0.930 . S
Eu467 N464 2.609 . S
Eu467 N468 2.657 . S
Eu467 O501 2.380 . S
Eu467 O502 2.432 . S
Eu467 O506 2.558 . S
Eu467 O507 2.612 . S
Eu467 O509 2.339 . S
Eu467 O510 2.563 . S
Eu467 O511 2.419 . S
Eu467 C531 2.848 . S
N468 C460 1.362 . S
N468 Eu467 2.657 . S
N468 C469 1.334 . S
C469 N468 1.334 . S
C469 C471 1.413 . S
C469 H476 0.929 . S
C470 C458 1.392 . S
C470 C471 1.367 . S
C470 H478 0.930 . S
C471 C469 1.413 . S
C471 C470 1.367 . S
C471 H473 0.930 . S
H472 C465 0.930 . S
H473 C471 0.930 . S
H474 C462 0.930 . S
H475 C463 0.930 . S
H476 C469 0.929 . S
H477 C491 0.930 . S
H478 C470 0.930 . S
H479 C497 0.930 . S
H480 C488 0.929 . S
H481 C495 0.930 . S
H482 C459 0.931 . S
H483 C489 0.930 . S
H484 C522 0.930 . S
H485 C466 0.930 . S
H486 C521 0.931 . S
N487 Eu456 2.657 . S
N487 C488 1.334 . S
N487 C492 1.362 . S
C488 H480 0.929 . S
C488 N487 1.334 . S
C488 C491 1.413 . S
C489 H483 0.930 . S
C489 C490 1.392 . S
C489 C491 1.367 . S
C490 C489 1.392 . S
C490 C492 1.420 . S
C490 C522 1.423 . S
C491 H477 0.930 . S
C491 C488 1.413 . S
C491 C489 1.367 . S
C492 N487 1.362 . S
C492 C490 1.420 . S
C492 C496 1.429 . S
H493 C498 0.930 . S
N494 Eu456 2.609 . S
N494 C496 1.377 . S
N494 C497 1.321 . S
C495 H481 0.930 . S
C495 C497 1.400 . S
C495 C498 1.386 . S
C496 C492 1.429 . S
C496 N494 1.377 . S
C496 C499 1.411 . S
C497 H479 0.930 . S
C497 N494 1.321 . S
C497 C495 1.400 . S
C498 H493 0.930 . S
C498 C495 1.386 . S
C498 C499 1.395 . S
C499 C496 1.411 . S
C499 C498 1.395 . S
C499 C521 1.420 . S
O500 Eu456 2.558 . S
O500 C520 1.257 . S
O501 Eu456 2.612 . S
O501 Eu467 2.380 . S
O501 C512 1.276 . S
O502 Eu467 2.432 . S
O502 C519 1.264 . S
O503 Eu456 2.339 . S
O503 C519 1.254 . S
O504 Eu456 2.563 . S
O504 C512 1.235 . S
O505 Eu456 2.419 . S
O505 C520 1.249 . S
O506 Eu467 2.558 . S
O506 C531 1.257 . S
O507 Eu456 2.380 . S
O507 Eu467 2.612 . S
O507 C523 1.276 . S
O508 Eu456 2.432 . S
O508 C530 1.264 . S
O509 Eu467 2.339 . S
O509 C530 1.254 . S
O510 Eu467 2.563 . S
O510 C523 1.235 . S
O511 Eu467 2.419 . S
O511 C531 1.249 . S
C512 O501 1.276 . S
C512 O504 1.235 . S
C513 C515 1.393 . S
C513 C517 1.395 . S
C513 C520 1.492 . S
C514 C515 1.392 . S
C514 C516 1.386 . S
C515 C513 1.393 . S
C515 C514 1.392 . S
C515 H532 0.930 . S
C516 C514 1.386 . S
C516 C518 1.395 . S
C516 H533 0.930 . S
C517 C513 1.395 . S
C517 C518 1.379 . S
C517 H534 0.930 . S
C518 C516 1.395 . S
C518 C517 1.379 . S
C518 H535 0.930 . S
C519 O502 1.264 . S
C519 O503 1.254 . S
C520 Eu456 2.848 . S
C520 O500 1.257 . S
C520 O505 1.249 . S
C520 C513 1.492 . S
C521 H486 0.931 . S
C521 C499 1.420 . S
C521 C522 1.351 . S
C522 H484 0.930 . S
C522 C490 1.423 . S
C522 C521 1.351 . S
C523 O507 1.276 . S
C523 O510 1.235 . S
C524 C525 1.393 . S
C524 C528 1.395 . S
C524 C531 1.492 . S
C525 C524 1.393 . S
C525 C526 1.392 . S
C525 H536 0.930 . S
C526 C525 1.392 . S
C526 C527 1.386 . S
C527 C526 1.386 . S
C527 C529 1.395 . S
C527 H537 0.930 . S
C528 C524 1.395 . S
C528 C529 1.379 . S
C528 H538 0.930 . S
C529 C527 1.395 . S
C529 C528 1.379 . S
C529 H539 0.930 . S
C530 O508 1.264 . S
C530 O509 1.254 . S
C531 Eu467 2.848 . S
C531 O506 1.257 . S
C531 O511 1.249 . S
C531 C524 1.492 . S
H532 C515 0.930 . S
H533 C516 0.930 . S
H534 C517 0.930 . S
H535 C518 0.930 . S
H536 C525 0.930 . S
H537 C527 0.930 . S
H538 C528 0.930 . S
H539 C529 0.930 . S
Eu540 N571 2.657 . S
Eu540 N578 2.609 . S
Eu540 O584 2.558 . S
Eu540 O585 2.612 . S
Eu540 O587 2.339 . S
Eu540 O588 2.563 . S
Eu540 O589 2.419 . S
Eu540 O591 2.382 . S
Eu540 O592 2.432 1_455 S
Eu540 C604 2.848 . S
C541 C544 1.429 . S
C541 C545 1.411 . S
C541 N548 1.377 . S
C542 C544 1.420 . S
C542 C546 1.423 . S
C542 C554 1.392 . S
C543 C545 1.420 . S
C543 C546 1.351 . S
C543 H566 0.931 . S
C544 C541 1.429 . S
C544 C542 1.420 . S
C544 N552 1.362 . S
C545 C541 1.411 . S
C545 C543 1.420 . S
C545 C550 1.395 . S
C546 C542 1.423 . S
C546 C543 1.351 . S
C546 H558 0.930 . S
C547 C549 1.400 . S
C547 C550 1.386 1_455 S
C547 H559 0.930 . S
N548 C541 1.377 . S
N548 C549 1.321 1_655 S
N548 Eu551 2.609 . S
C549 C547 1.400 . S
C549 N548 1.321 1_455 S
C549 H556 0.930 . S
C550 C545 1.395 . S
C550 C547 1.386 1_655 S
C550 H569 0.930 . S
Eu551 N548 2.609 . S
Eu551 N552 2.657 . S
Eu551 O585 2.380 1_655 S
Eu551 O586 2.432 1_655 S
Eu551 O590 2.558 . S
Eu551 O591 2.612 1_655 S
Eu551 O593 2.339 . S
Eu551 O594 2.563 . S
Eu551 O595 2.419 . S
Eu551 C615 2.848 . S
N552 C544 1.362 . S
N552 Eu551 2.657 . S
N552 C553 1.334 . S
C553 N552 1.334 . S
C553 C555 1.413 . S
C553 H560 0.929 . S
C554 C542 1.392 . S
C554 C555 1.367 . S
C554 H562 0.930 . S
C555 C553 1.413 . S
C555 C554 1.367 . S
C555 H557 0.930 . S
H556 C549 0.930 . S
H557 C555 0.930 . S
H558 C546 0.930 . S
H559 C547 0.930 . S
H560 C553 0.929 . S
H561 C575 0.930 . S
H562 C554 0.930 . S
H563 C581 0.930 1_655 S
H564 C572 0.929 . S
H565 C579 0.931 . S
H566 C543 0.931 . S
H567 C573 0.930 . S
H568 C606 0.930 . S
H569 C550 0.930 . S
H570 C605 0.931 . S
N571 Eu540 2.657 . S
N571 C572 1.334 . S
N571 C576 1.362 . S
C572 H564 0.929 . S
C572 N571 1.334 . S
C572 C575 1.413 . S
C573 H567 0.930 . S
C573 C574 1.392 . S
C573 C575 1.367 . S
C574 C573 1.392 . S
C574 C576 1.420 . S
C574 C606 1.423 . S
C575 H561 0.930 . S
C575 C572 1.413 . S
C575 C573 1.367 . S
C576 N571 1.362 . S
C576 C574 1.420 . S
C576 C580 1.429 . S
H577 C582 0.930 . S
N578 Eu540 2.609 . S
N578 C580 1.377 . S
N578 C581 1.321 . S
C579 H565 0.931 . S
C579 C581 1.399 1_655 S
C579 C582 1.385 1_655 S
C580 C576 1.429 . S
C580 N578 1.377 . S
C580 C583 1.411 . S
C581 H563 0.930 1_455 S
C581 N578 1.321 . S
C581 C579 1.399 1_455 S
C582 H577 0.930 . S
C582 C579 1.385 1_455 S
C582 C583 1.395 . S
C583 C580 1.411 . S
C583 C582 1.395 . S
C583 C605 1.420 . S
O584 Eu540 2.558 . S
O584 C604 1.257 . S
O585 Eu540 2.612 . S
O585 Eu551 2.380 1_455 S
O585 C596 1.276 . S
O586 Eu551 2.432 1_455 S
O586 C603 1.264 . S
O587 Eu540 2.339 . S
O587 C603 1.254 . S
O588 Eu540 2.563 . S
O588 C596 1.235 . S
O589 Eu540 2.419 . S
O589 C604 1.249 . S
O590 Eu551 2.558 . S
O590 C615 1.257 . S
O591 Eu540 2.382 . S
O591 Eu551 2.612 1_455 S
O591 C607 1.275 1_455 S
O592 Eu540 2.432 1_655 S
O592 C614 1.264 . S
O593 Eu551 2.339 . S
O593 C614 1.254 . S
O594 Eu551 2.563 . S
O594 C607 1.235 . S
O595 Eu551 2.419 . S
O595 C615 1.249 . S
C596 O585 1.276 . S
C596 O588 1.235 . S
C597 C599 1.393 . S
C597 C601 1.395 . S
C597 C604 1.492 . S
C598 C599 1.392 . S
C598 C600 1.386 . S
C599 C597 1.393 . S
C599 C598 1.392 . S
C599 H616 0.930 . S
C600 C598 1.386 . S
C600 C602 1.395 . S
C600 H617 0.930 . S
C601 C597 1.395 . S
C601 C602 1.379 . S
C601 H618 0.930 . S
C602 C600 1.395 . S
C602 C601 1.379 . S
C602 H619 0.930 . S
C603 O586 1.264 . S
C603 O587 1.254 . S
C604 Eu540 2.848 . S
C604 O584 1.257 . S
C604 O589 1.249 . S
C604 C597 1.492 . S
C605 H570 0.931 . S
C605 C583 1.420 . S
C605 C606 1.351 . S
C606 H568 0.930 . S
C606 C574 1.423 . S
C606 C605 1.351 . S
C607 O591 1.275 1_655 S
C607 O594 1.235 . S
C608 C609 1.393 . S
C608 C612 1.395 . S
C608 C615 1.492 . S
C609 C608 1.393 . S
C609 C610 1.392 . S
C609 H620 0.930 . S
C610 C609 1.392 . S
C610 C611 1.386 . S
C611 C610 1.386 . S
C611 C613 1.395 . S
C611 H621 0.930 . S
C612 C608 1.395 . S
C612 C613 1.379 . S
C612 H622 0.930 . S
C613 C611 1.395 . S
C613 C612 1.379 . S
C613 H623 0.930 . S
C614 O592 1.264 . S
C614 O593 1.254 . S
C615 Eu551 2.848 . S
C615 O590 1.257 . S
C615 O595 1.249 . S
C615 C608 1.492 . S
H616 C599 0.930 . S
H617 C600 0.930 . S
H618 C601 0.930 . S
H619 C602 0.930 . S
H620 C609 0.930 . S
H621 C611 0.930 . S
H622 C612 0.930 . S
H623 C613 0.930 . S
H624 C630 0.930 . S
H625 C634 0.930 . S
H626 C639 0.929 . S
H627 C637 0.929 . S
H628 C632 0.929 . S
H629 C638 0.929 . S
C630 H624 0.930 . S
C630 C631 1.367 . S
C630 C638 1.378 . S
C631 C630 1.367 . S
C631 C639 1.433 . S
C632 H628 0.929 . S
C632 C634 1.378 . S
C632 C636 1.350 . S
C633 C636 1.463 . S
C633 C638 1.350 . S
C633 N641 1.427 . S
C634 H625 0.930 . S
C634 C632 1.378 . S
C634 C635 1.367 . S
C635 C634 1.367 . S
C635 C637 1.433 . S
C636 C632 1.350 . S
C636 C633 1.463 . S
C636 N640 1.427 . S
C637 H627 0.929 . S
C637 C635 1.433 . S
C637 N640 1.384 . S
C638 H629 0.929 . S
C638 C630 1.378 . S
C638 C633 1.350 . S
C639 H626 0.929 . S
C639 C631 1.433 . S
C639 N641 1.384 . S
N640 C636 1.427 . S
N640 C637 1.384 . S
N641 C633 1.427 . S
N641 C639 1.384 . S
H642 C648 0.930 . S
H643 C652 0.930 . S
H644 C657 0.929 . S
H645 C655 0.929 . S
H646 C650 0.929 . S
H647 C656 0.929 . S
C648 H642 0.930 . S
C648 C649 1.367 . S
C648 C656 1.378 . S
C649 C648 1.367 . S
C649 C657 1.433 . S
C650 H646 0.929 . S
C650 C652 1.378 . S
C650 C654 1.350 . S
C651 C654 1.463 . S
C651 C656 1.350 . S
C651 N659 1.427 . S
C652 H643 0.930 . S
C652 C650 1.378 . S
C652 C653 1.367 . S
C653 C652 1.367 . S
C653 C655 1.433 . S
C654 C650 1.350 . S
C654 C651 1.463 . S
C654 N658 1.427 . S
C655 H645 0.929 . S
C655 C653 1.433 . S
C655 N658 1.384 . S
C656 H647 0.929 . S
C656 C648 1.378 . S
C656 C651 1.350 . S
C657 H644 0.929 . S
C657 C649 1.433 . S
C657 N659 1.384 . S
N658 C654 1.427 . S
N658 C655 1.384 . S
N659 C651 1.427 . S
N659 C657 1.384 . S
H660 C666 0.930 . S
H661 C670 0.930 . S
H662 C675 0.929 . S
H663 C673 0.929 . S
H664 C668 0.929 . S
H665 C674 0.929 . S
C666 H660 0.930 . S
C666 C667 1.367 . S
C666 C674 1.378 . S
C667 C666 1.367 . S
C667 C675 1.433 . S
C668 H664 0.929 . S
C668 C670 1.378 . S
C668 C672 1.350 . S
C669 C672 1.463 . S
C669 C674 1.350 . S
C669 N677 1.427 . S
C670 H661 0.930 . S
C670 C668 1.378 . S
C670 C671 1.367 . S
C671 C670 1.367 . S
C671 C673 1.433 . S
C672 C668 1.350 . S
C672 C669 1.463 . S
C672 N676 1.427 . S
C673 H663 0.929 . S
C673 C671 1.433 . S
C673 N676 1.384 . S
C674 H665 0.929 . S
C674 C666 1.378 . S
C674 C669 1.350 . S
C675 H662 0.929 . S
C675 C667 1.433 . S
C675 N677 1.384 . S
N676 C672 1.427 . S
N676 C673 1.384 . S
N677 C669 1.427 . S
N677 C675 1.384 . S
H678 C684 0.930 . S
H679 C688 0.930 1_655 S
H680 C693 0.929 . S
H681 C691 0.929 . S
H682 C686 0.929 . S
H683 C692 0.929 . S
C684 H678 0.930 . S
C684 C685 1.367 . S
C684 C692 1.378 . S
C685 C684 1.367 . S
C685 C693 1.433 . S
C686 H682 0.929 . S
C686 C688 1.378 . S
C686 C690 1.350 . S
C687 C690 1.463 . S
C687 C692 1.350 . S
C687 N695 1.427 . S
C688 H679 0.930 1_455 S
C688 C686 1.378 . S
C688 C689 1.367 . S
C689 C688 1.367 . S
C689 C691 1.433 . S
C690 C686 1.350 . S
C690 C687 1.463 . S
C690 N694 1.427 . S
C691 H681 0.929 . S
C691 C689 1.433 . S
C691 N694 1.384 . S
C692 H683 0.929 . S
C692 C684 1.378 . S
C692 C687 1.350 . S
C693 H680 0.929 . S
C693 C685 1.433 . S
C693 N695 1.384 . S
N694 C690 1.427 . S
N694 C691 1.384 . S
N695 C687 1.427 . S
N695 C693 1.384 . S
H696 C702 0.930 . S
H697 C706 0.930 . S
H698 C711 0.929 . S
H699 C709 0.929 . S
H700 C704 0.929 . S
H701 C710 0.929 . S
C702 H696 0.930 . S
C702 C703 1.367 . S
C702 C710 1.378 1_554 S
C703 C702 1.367 . S
C703 C711 1.433 . S
C704 H700 0.929 . S
C704 C706 1.378 . S
C704 C708 1.350 . S
C705 C708 1.463 . S
C705 C710 1.350 . S
C705 N713 1.427 1_556 S
C706 H697 0.930 . S
C706 C704 1.378 . S
C706 C707 1.367 . S
C707 C706 1.367 . S
C707 C709 1.433 . S
C708 C704 1.350 . S
C708 C705 1.463 . S
C708 N712 1.427 . S
C709 H699 0.929 . S
C709 C707 1.433 . S
C709 N712 1.384 . S
C710 H701 0.929 . S
C710 C702 1.378 1_556 S
C710 C705 1.350 . S
C711 H698 0.929 . S
C711 C703 1.433 . S
C711 N713 1.384 . S
N712 C708 1.427 . S
N712 C709 1.384 . S
N713 C705 1.427 1_554 S
N713 C711 1.384 . S
H714 C720 0.930 . S
H715 C724 0.930 . S
H716 C729 0.929 . S
H717 C727 0.929 . S
H718 C722 0.929 . S
H719 C728 0.929 . S
C720 H714 0.930 . S
C720 C721 1.367 . S
C720 C728 1.378 . S
C721 C720 1.367 . S
C721 C729 1.433 . S
C722 H718 0.929 . S
C722 C724 1.378 . S
C722 C726 1.350 . S
C723 C726 1.463 . S
C723 C728 1.350 1_556 S
C723 N731 1.427 . S
C724 H715 0.930 . S
C724 C722 1.378 . S
C724 C725 1.367 . S
C725 C724 1.367 . S
C725 C727 1.433 . S
C726 C722 1.350 . S
C726 C723 1.463 . S
C726 N730 1.427 . S
C727 H717 0.929 . S
C727 C725 1.433 . S
C727 N730 1.384 . S
C728 H719 0.929 . S
C728 C720 1.378 . S
C728 C723 1.350 1_554 S
C729 H716 0.929 . S
C729 C721 1.433 . S
C729 N731 1.384 1_554 S
N730 C726 1.427 . S
N730 C727 1.384 . S
N731 C723 1.427 . S
N731 C729 1.384 1_556 S
H732 C738 0.930 . S
H733 C742 0.930 . S
H734 C747 0.929 . S
H735 C745 0.929 . S
H736 C740 0.929 . S
H737 C746 0.929 . S
C738 H732 0.930 . S
C738 C739 1.367 . S
C738 C746 1.378 1_554 S
C739 C738 1.367 . S
C739 C747 1.433 . S
C740 H736 0.929 . S
C740 C742 1.378 . S
C740 C744 1.350 . S
C741 C744 1.463 . S
C741 C746 1.350 . S
C741 N749 1.427 1_556 S
C742 H733 0.930 . S
C742 C740 1.378 . S
C742 C743 1.367 . S
C743 C742 1.367 . S
C743 C745 1.433 . S
C744 C740 1.350 . S
C744 C741 1.463 . S
C744 N748 1.427 . S
C745 H735 0.929 . S
C745 C743 1.433 . S
C745 N748 1.384 . S
C746 H737 0.929 . S
C746 C738 1.378 1_556 S
C746 C741 1.350 . S
C747 H734 0.929 . S
C747 C739 1.433 . S
C747 N749 1.384 . S
N748 C744 1.427 . S
N748 C745 1.384 . S
N749 C741 1.427 1_554 S
N749 C747 1.384 . S
H750 C756 0.930 . S
H751 C760 0.943 . S
H752 C765 0.929 . S
H753 C763 0.929 . S
H754 C758 0.929 . S
H755 C764 0.929 . S
C756 H750 0.930 . S
C756 C757 1.367 . S
C756 C764 1.378 1_554 S
C757 C756 1.367 . S
C757 C765 1.433 . S
C758 H754 0.929 . S
C758 C760 1.378 . S
C758 C762 1.350 . S
C759 C762 1.463 . S
C759 C764 1.350 . S
C759 N767 1.427 . S
C760 H751 0.943 . S
C760 C758 1.378 . S
C760 C761 1.367 . S
C761 C760 1.367 . S
C761 C763 1.433 . S
C762 C758 1.350 . S
C762 C759 1.463 . S
C762 N766 1.427 . S
C763 H753 0.929 . S
C763 C761 1.433 . S
C763 N766 1.384 . S
C764 H755 0.929 . S
C764 C756 1.378 1_556 S
C764 C759 1.350 . S
C765 H752 0.929 . S
C765 C757 1.433 . S
C765 N767 1.384 1_554 S
N766 C762 1.427 . S
N766 C763 1.384 . S
N767 C759 1.427 . S
N767 C765 1.384 1_556 S
H768 C774 0.930 . S
H769 C778 0.930 . S
H770 C783 0.929 . S
H771 C781 0.929 . S
H772 C776 0.929 . S
H773 C782 0.929 . S
C774 H768 0.930 . S
C774 C775 1.367 . S
C774 C782 1.378 . S
C775 C774 1.367 . S
C775 C783 1.433 . S
C776 H772 0.929 . S
C776 C778 1.378 . S
C776 C780 1.350 . S
C777 C780 1.463 . S
C777 C782 1.350 . S
C777 N785 1.427 . S
C778 H769 0.930 . S
C778 C776 1.378 . S
C778 C779 1.367 . S
C779 C778 1.367 . S
C779 C781 1.433 . S
C780 C776 1.350 . S
C780 C777 1.463 . S
C780 N784 1.427 . S
C781 H771 0.929 . S
C781 C779 1.433 . S
C781 N784 1.384 . S
C782 H773 0.929 . S
C782 C774 1.378 . S
C782 C777 1.350 . S
C783 H770 0.929 . S
C783 C775 1.433 . S
C783 N785 1.384 . S
N784 C780 1.427 . S
N784 C781 1.384 . S
N785 C777 1.427 . S
N785 C783 1.384 . S
H786 C792 0.930 . S
H787 C796 0.930 . S
H788 C801 0.929 . S
H789 C799 0.929 1_565 S
H790 C794 0.929 . S
H791 C800 0.929 . S
C792 H786 0.930 . S
C792 C793 1.367 . S
C792 C800 1.378 . S
C793 C792 1.367 . S
C793 C801 1.433 . S
C794 H790 0.929 . S
C794 C796 1.378 . S
C794 C798 1.350 . S
C795 C798 1.463 . S
C795 C800 1.350 . S
C795 N803 1.427 . S
C796 H787 0.930 . S
C796 C794 1.378 . S
C796 C797 1.381 . S
C797 C796 1.381 . S
C797 C799 1.441 . S
C798 C794 1.350 . S
C798 C795 1.463 . S
C798 N802 1.427 . S
C799 H789 0.929 1_545 S
C799 C797 1.441 . S
C799 N802 1.384 . S
C800 H791 0.929 . S
C800 C792 1.378 . S
C800 C795 1.350 . S
C801 H788 0.929 . S
C801 C793 1.433 . S
C801 N803 1.384 . S
N802 C798 1.427 . S
N802 C799 1.384 . S
N803 C795 1.427 . S
N803 C801 1.384 . S
H804 C810 0.930 . S
H805 C814 0.930 . S
H806 C819 0.929 . S
H807 C817 0.929 . S
H808 C812 0.929 . S
H809 C818 0.929 . S
C810 H804 0.930 . S
C810 C811 1.367 . S
C810 C818 1.378 . S
C811 C810 1.367 . S
C811 C819 1.433 . S
C812 H808 0.929 . S
C812 C814 1.378 . S
C812 C816 1.350 . S
C813 C816 1.463 . S
C813 C818 1.350 . S
C813 N821 1.427 . S
C814 H805 0.930 . S
C814 C812 1.378 . S
C814 C815 1.367 . S
C815 C814 1.367 . S
C815 C817 1.433 . S
C816 C812 1.350 . S
C816 C813 1.463 . S
C816 N820 1.427 . S
C817 H807 0.929 . S
C817 C815 1.433 . S
C817 N820 1.384 . S
C818 H809 0.929 . S
C818 C810 1.378 . S
C818 C813 1.350 . S
C819 H806 0.929 . S
C819 C811 1.433 . S
C819 N821 1.384 . S
N820 C816 1.427 . S
N820 C817 1.384 . S
N821 C813 1.427 . S
N821 C819 1.384 . S
H822 C828 0.930 . S
H823 C832 0.930 . S
H824 C837 0.929 . S
H825 C835 0.929 . S
H826 C830 0.929 . S
H827 C836 0.929 . S
C828 H822 0.930 . S
C828 C829 1.367 . S
C828 C836 1.378 . S
C829 C828 1.367 . S
C829 C837 1.433 . S
C830 H826 0.929 . S
C830 C832 1.378 . S
C830 C834 1.350 . S
C831 C834 1.463 . S
C831 C836 1.350 . S
C831 N839 1.427 . S
C832 H823 0.930 . S
C832 C830 1.378 . S
C832 C833 1.367 . S
C833 C832 1.367 . S
C833 C835 1.433 . S
C834 C830 1.350 . S
C834 C831 1.463 . S
C834 N838 1.427 . S
C835 H825 0.929 . S
C835 C833 1.433 . S
C835 N838 1.384 . S
C836 H827 0.929 . S
C836 C828 1.378 . S
C836 C831 1.350 . S
C837 H824 0.929 . S
C837 C829 1.433 . S
C837 N839 1.384 . S
N838 C834 1.427 . S
N838 C835 1.384 . S
N839 C831 1.427 . S
N839 C837 1.384 . S
H840 C846 0.930 . S
H841 C850 0.930 . S
H842 C855 0.929 . S
H843 C853 0.929 . S
H844 C848 0.929 . S
H845 C854 0.929 . S
C846 H840 0.930 . S
C846 C847 1.367 1_554 S
C846 C854 1.378 . S
C847 C846 1.367 1_556 S
C847 C855 1.433 . S
C848 H844 0.929 . S
C848 C850 1.378 . S
C848 C852 1.350 . S
C849 C852 1.463 . S
C849 C854 1.350 1_556 S
C849 N857 1.427 . S
C850 H841 0.930 . S
C850 C848 1.378 . S
C850 C851 1.367 1_655 S
C851 C850 1.367 1_455 S
C851 C853 1.433 . S
C852 C848 1.350 . S
C852 C849 1.463 . S
C852 N856 1.427 . S
C853 H843 0.929 . S
C853 C851 1.433 . S
C853 N856 1.384 1_455 S
C854 H845 0.929 . S
C854 C846 1.378 . S
C854 C849 1.350 1_554 S
C855 H842 0.929 . S
C855 C847 1.433 . S
C855 N857 1.384 . S
N856 C852 1.427 . S
N856 C853 1.384 1_655 S
N857 C849 1.427 . S
N857 C855 1.384 . S
H858 C864 0.930 . S
H859 C868 0.930 . S
H860 C873 0.929 1_554 S
H861 C871 0.929 . S
H862 C866 0.929 . S
H863 C872 0.929 . S
C864 H858 0.930 . S
C864 C865 1.367 . S
C864 C872 1.378 . S
C865 C864 1.367 . S
C865 C873 1.433 . S
C866 H862 0.929 . S
C866 C868 1.378 . S
C866 C870 1.350 1_545 S
C867 C870 1.463 . S
C867 C872 1.350 . S
C867 N875 1.427 . S
C868 H859 0.930 . S
C868 C866 1.378 . S
C868 C869 1.367 . S
C869 C868 1.367 . S
C869 C871 1.433 1_545 S
C870 C866 1.350 1_565 S
C870 C867 1.463 . S
C870 N874 1.427 . S
C871 H861 0.929 . S
C871 C869 1.433 1_565 S
C871 N874 1.384 . S
C872 H863 0.929 . S
C872 C864 1.378 . S
C872 C867 1.350 . S
C873 H860 0.929 1_556 S
C873 C865 1.433 . S
C873 N875 1.384 . S
N874 C870 1.427 . S
N874 C871 1.384 . S
N875 C867 1.427 . S
N875 C873 1.384 . S
H876 C882 0.930 . S
H877 C886 0.930 . S
H878 C891 0.929 . S
H879 C889 0.929 . S
H880 C884 0.929 . S
H881 C890 0.928 1_554 S
C882 H876 0.930 . S
C882 C883 1.367 1_554 S
C882 C890 1.378 1_554 S
C883 C882 1.367 1_556 S
C883 C891 1.433 . S
C884 H880 0.929 . S
C884 C886 1.378 . S
C884 C888 1.350 . S
C885 C888 1.463 . S
C885 C890 1.350 . S
C885 N893 1.427 . S
C886 H877 0.930 . S
C886 C884 1.378 . S
C886 C887 1.367 . S
C887 C886 1.367 . S
C887 C889 1.433 . S
C888 C884 1.350 . S
C888 C885 1.463 . S
C888 N892 1.427 . S
C889 H879 0.929 . S
C889 C887 1.433 . S
C889 N892 1.384 . S
C890 H881 0.928 1_556 S
C890 C882 1.378 1_556 S
C890 C885 1.350 . S
C891 H878 0.929 . S
C891 C883 1.433 . S
C891 N893 1.384 . S
N892 C888 1.427 . S
N892 C889 1.384 . S
N893 C885 1.427 . S
N893 C891 1.384 . S
H894 C900 0.930 . S
H895 C904 0.930 . S
H896 C909 0.929 . S
H897 C907 0.929 . S
H898 C902 0.929 . S
H899 C908 0.929 . S
C900 H894 0.930 . S
C900 C901 1.367 . S
C900 C908 1.378 . S
C901 C900 1.367 . S
C901 C909 1.433 1_556 S
C902 H898 0.929 . S
C902 C904 1.378 . S
C902 C906 1.350 . S
C903 C906 1.463 . S
C903 C908 1.350 . S
C903 N911 1.427 . S
C904 H895 0.930 . S
C904 C902 1.378 . S
C904 C905 1.367 . S
C905 C904 1.367 . S
C905 C907 1.433 . S
C906 C902 1.350 . S
C906 C903 1.463 . S
C906 N910 1.427 . S
C907 H897 0.929 . S
C907 C905 1.433 . S
C907 N910 1.384 . S
C908 H899 0.929 . S
C908 C900 1.378 . S
C908 C903 1.350 . S
C909 H896 0.929 . S
C909 C901 1.433 1_554 S
C909 N911 1.384 1_554 S
N910 C906 1.427 . S
N910 C907 1.384 . S
N911 C903 1.427 . S
N911 C909 1.384 1_556 S
H912 C918 0.930 . S
H913 C922 0.930 . S
H914 C927 0.929 . S
H915 C925 0.929 . S
H916 C920 0.929 . S
H917 C926 0.929 . S
C918 H912 0.930 . S
C918 C919 1.367 . S
C918 C926 1.378 . S
C919 C918 1.367 . S
C919 C927 1.433 . S
C920 H916 0.929 . S
C920 C922 1.378 . S
C920 C924 1.350 . S
C921 C924 1.463 . S
C921 C926 1.350 . S
C921 N929 1.427 . S
C922 H913 0.930 . S
C922 C920 1.378 . S
C922 C923 1.367 . S
C923 C922 1.367 . S
C923 C925 1.433 . S
C924 C920 1.350 . S
C924 C921 1.463 . S
C924 N928 1.427 . S
C925 H915 0.929 . S
C925 C923 1.433 . S
C925 N928 1.384 . S
C926 H917 0.929 . S
C926 C918 1.378 . S
C926 C921 1.350 . S
C927 H914 0.929 . S
C927 C919 1.433 . S
C927 N929 1.384 . S
N928 C924 1.427 . S
N928 C925 1.384 . S
N929 C921 1.427 . S
N929 C927 1.384 . S
H930 C936 0.930 . S
H931 C940 0.930 . S
H932 C945 0.929 . S
H933 C943 0.929 . S
H934 C938 0.929 . S
H935 C944 0.929 . S
C936 H930 0.930 . S
C936 C937 1.367 . S
C936 C944 1.378 . S
C937 C936 1.367 . S
C937 C945 1.433 . S
C938 H934 0.929 . S
C938 C940 1.378 . S
C938 C942 1.350 . S
C939 C942 1.463 . S
C939 C944 1.350 . S
C939 N947 1.427 . S
C940 H931 0.930 . S
C940 C938 1.378 . S
C940 C941 1.367 . S
C941 C940 1.367 . S
C941 C943 1.433 . S
C942 C938 1.350 . S
C942 C939 1.463 . S
C942 N946 1.427 . S
C943 H933 0.929 . S
C943 C941 1.433 . S
C943 N946 1.384 . S
C944 H935 0.929 . S
C944 C936 1.378 . S
C944 C939 1.350 . S
C945 H932 0.929 . S
C945 C937 1.433 . S
C945 N947 1.384 . S
N946 C942 1.427 . S
N946 C943 1.384 . S
N947 C939 1.427 . S
N947 C945 1.384 . S
H948 C954 0.930 . S
H949 C958 0.930 . S
H950 C963 0.929 . S
H951 C961 0.929 . S
H952 C956 0.929 . S
H953 C962 0.929 . S
C954 H948 0.930 . S
C954 C955 1.367 . S
C954 C962 1.378 . S
C955 C954 1.367 . S
C955 C963 1.433 . S
C956 H952 0.929 . S
C956 C958 1.378 . S
C956 C960 1.350 . S
C957 C960 1.463 . S
C957 C962 1.350 . S
C957 N965 1.427 . S
C958 H949 0.930 . S
C958 C956 1.378 . S
C958 C959 1.367 . S
C959 C958 1.367 . S
C959 C961 1.433 . S
C960 C956 1.350 . S
C960 C957 1.463 . S
C960 N964 1.427 . S
C961 H951 0.929 . S
C961 C959 1.433 . S
C961 N964 1.384 . S
C962 H953 0.929 . S
C962 C954 1.378 . S
C962 C957 1.350 . S
C963 H950 0.929 . S
C963 C955 1.433 . S
C963 N965 1.384 . S
N964 C960 1.427 . S
N964 C961 1.384 . S
N965 C957 1.427 . S
N965 C963 1.384 . S
H966 C972 0.930 . S
H967 C976 0.930 . S
H968 C981 0.929 . S
H969 C979 0.929 . S
H970 C974 0.929 . S
H971 C980 0.929 . S
C972 H966 0.930 . S
C972 C973 1.367 . S
C972 C980 1.378 . S
C973 C972 1.367 . S
C973 C981 1.433 . S
C974 H970 0.929 . S
C974 C976 1.378 . S
C974 C978 1.350 . S
C975 C978 1.463 . S
C975 C980 1.350 . S
C975 N983 1.427 . S
C976 H967 0.930 . S
C976 C974 1.378 . S
C976 C977 1.367 . S
C977 C976 1.367 . S
C977 C979 1.433 . S
C978 C974 1.350 . S
C978 C975 1.463 . S
C978 N982 1.427 . S
C979 H969 0.929 . S
C979 C977 1.433 . S
C979 N982 1.384 . S
C980 H971 0.929 . S
C980 C972 1.378 . S
C980 C975 1.350 . S
C981 H968 0.929 . S
C981 C973 1.433 . S
C981 N983 1.384 . S
N982 C978 1.427 . S
N982 C979 1.384 . S
N983 C975 1.427 . S
N983 C981 1.384 . S
H984 C990 0.930 . S
H985 C994 0.930 . S
H986 C999 0.929 . S
H987 C997 0.929 . S
H988 C992 0.929 . S
H989 C998 0.929 . S
C990 H984 0.930 . S
C990 C991 1.367 . S
C990 C998 1.378 . S
C991 C990 1.367 . S
C991 C999 1.433 . S
C992 H988 0.929 . S
C992 C994 1.378 . S
C992 C996 1.350 . S
C993 C996 1.463 . S
C993 C998 1.350 . S
C993 N1001 1.427 . S
C994 H985 0.930 . S
C994 C992 1.378 . S
C994 C995 1.367 . S
C995 C994 1.367 . S
C995 C997 1.433 . S
C996 C992 1.350 . S
C996 C993 1.463 . S
C996 N1000 1.427 . S
C997 H987 0.929 . S
C997 C995 1.433 . S
C997 N1000 1.384 . S
C998 H989 0.929 . S
C998 C990 1.378 . S
C998 C993 1.350 . S
C999 H986 0.929 . S
C999 C991 1.433 . S
C999 N1001 1.384 . S
N1000 C996 1.427 . S
N1000 C997 1.384 . S
N1001 C993 1.427 . S
N1001 C999 1.384 . S
H1002 C1008 0.930 . S
H1003 C1012 0.930 1_545 S
H1004 C1017 0.929 . S
H1005 C1015 0.929 . S
H1006 C1010 0.929 1_545 S
H1007 C1016 0.929 . S
C1008 H1002 0.930 . S
C1008 C1009 1.367 . S
C1008 C1016 1.378 . S
C1009 C1008 1.367 . S
C1009 C1017 1.433 . S
C1010 H1006 0.929 1_565 S
C1010 C1012 1.378 . S
C1010 C1014 1.350 . S
C1011 C1014 1.463 . S
C1011 C1016 1.350 . S
C1011 N1019 1.427 . S
C1012 H1003 0.930 1_565 S
C1012 C1010 1.378 . S
C1012 C1013 1.367 . S
C1013 C1012 1.367 . S
C1013 C1015 1.433 . S
C1014 C1010 1.350 . S
C1014 C1011 1.463 . S
C1014 N1018 1.427 . S
C1015 H1005 0.929 . S
C1015 C1013 1.433 . S
C1015 N1018 1.384 . S
C1016 H1007 0.929 . S
C1016 C1008 1.378 . S
C1016 C1011 1.350 . S
C1017 H1004 0.929 . S
C1017 C1009 1.433 . S
C1017 N1019 1.384 . S
N1018 C1014 1.427 . S
N1018 C1015 1.384 . S
N1019 C1011 1.427 . S
N1019 C1017 1.384 . S
H1020 C1026 0.930 . S
H1021 C1030 0.930 . S
H1022 C1035 0.929 . S
H1023 C1033 0.929 . S
H1024 C1028 0.929 . S
H1025 C1034 0.929 . S
C1026 H1020 0.930 . S
C1026 C1027 1.367 . S
C1026 C1034 1.378 . S
C1027 C1026 1.367 . S
C1027 C1035 1.433 . S
C1028 H1024 0.929 . S
C1028 C1030 1.378 . S
C1028 C1032 1.350 . S
C1029 C1032 1.463 . S
C1029 C1034 1.350 . S
C1029 N1037 1.427 . S
C1030 H1021 0.930 . S
C1030 C1028 1.378 . S
C1030 C1031 1.367 . S
C1031 C1030 1.367 . S
C1031 C1033 1.433 . S
C1032 C1028 1.350 . S
C1032 C1029 1.463 . S
C1032 N1036 1.427 . S
C1033 H1023 0.929 . S
C1033 C1031 1.433 . S
C1033 N1036 1.384 . S
C1034 H1025 0.929 . S
C1034 C1026 1.378 . S
C1034 C1029 1.350 . S
C1035 H1022 0.929 . S
C1035 C1027 1.433 . S
C1035 N1037 1.384 . S
N1036 C1032 1.427 . S
N1036 C1033 1.384 . S
N1037 C1029 1.427 . S
N1037 C1035 1.384 . S
H1038 C1044 0.930 . S
H1039 C1048 0.930 . S
H1040 C1053 0.929 . S
H1041 C1051 0.929 . S
H1042 C1046 0.929 . S
H1043 C1052 0.929 . S
C1044 H1038 0.930 . S
C1044 C1045 1.367 . S
C1044 C1052 1.378 . S
C1045 C1044 1.367 . S
C1045 C1053 1.433 . S
C1046 H1042 0.929 . S
C1046 C1048 1.378 . S
C1046 C1050 1.350 . S
C1047 C1050 1.463 . S
C1047 C1052 1.350 . S
C1047 N1055 1.427 . S
C1048 H1039 0.930 . S
C1048 C1046 1.378 . S
C1048 C1049 1.367 . S
C1049 C1048 1.367 . S
C1049 C1051 1.433 . S
C1050 C1046 1.350 . S
C1050 C1047 1.463 . S
C1050 N1054 1.427 . S
C1051 H1041 0.929 . S
C1051 C1049 1.433 . S
C1051 N1054 1.384 . S
C1052 H1043 0.929 . S
C1052 C1044 1.378 . S
C1052 C1047 1.350 . S
C1053 H1040 0.929 . S
C1053 C1045 1.433 . S
C1053 N1055 1.384 . S
N1054 C1050 1.427 . S
N1054 C1051 1.384 . S
N1055 C1047 1.427 . S
N1055 C1053 1.384 . S
C631 C241 2.246 . S
C635 C362 2.341 . S
C653 C446 2.375 . S
C649 C277 2.281 . S
C671 C512 2.280 . S
C667 C169 2.376 . S
C689 C596 2.270 . S
C685 C205 2.365 . S
C707 C351 2.331 1_565 S
C703 C97 2.183 . S
C721 C133 2.333 . S
C725 C435 2.376 . S
C739 C25 2.312 . S
C743 C523 2.268 . S
C757 C61 2.318 . S
C761 C607 2.274 . S
C779 C358 0.647 1_455 S
C775 C211 0.676 . S
C797 C442 0.563 1_545 S
C793 C247 0.603 . S
C815 C514 0.552 . S
C811 C253 0.617 . S
C829 C175 0.637 . S
C833 C598 0.618 . S
C847 C67 0.666 1_556 S
C851 C346 0.654 . S
C869 C430 0.582 . S
C865 C103 0.666 1_556 S
C887 C526 0.576 . S
C883 C109 0.562 1_556 S
C901 C31 0.692 1_556 S
C905 C610 0.615 . S
C919 C181 2.805 . S
C923 C355 2.920 . S
C937 C217 2.757 . S
C941 C439 2.873 . S
C959 C519 2.935 . S
C955 C283 2.546 . S
C977 C603 2.961 . S
C973 C145 2.679 . S
C991 C37 2.773 . S
C995 C344 2.919 . S
C1013 C428 2.863 . S
C1009 C73 2.724 . S
C1031 C530 2.935 . S
C1027 C139 2.588 . S
C1045 C1 2.639 . S
C1049 C614 2.959 . S
