# Generated by pormake.
# Topology wbl, (4,4)-cn, num edge types: 1
# Building blocks:
#     Node 0, Type 0, BuildingBlock: NAWXER_clean_linker_0, # of connection points: 4
#     Node 1, Type 0, BuildingBlock: NAWXER_clean_linker_0, # of connection points: 4
#     Node 2, Type 0, BuildingBlock: NAWXER_clean_linker_0, # of connection points: 4
#     Node 3, Type 0, BuildingBlock: NAWXER_clean_linker_0, # of connection points: 4
#     Node 4, Type 0, BuildingBlock: NAWXER_clean_linker_0, # of connection points: 4
#     Node 5, Type 0, BuildingBlock: NAWXER_clean_linker_0, # of connection points: 4
#     Node 6, Type 0, BuildingBlock: NAWXER_clean_linker_0, # of connection points: 4
#     Node 7, Type 0, BuildingBlock: NAWXER_clean_linker_0, # of connection points: 4
#     Node 8, Type 1, BuildingBlock: NAHDIM_clean_sbu_0, # of connection points: 4
#     Node 9, Type 1, BuildingBlock: NAHDIM_clean_sbu_0, # of connection points: 4
#     Node 10, Type 1, BuildingBlock: NAHDIM_clean_sbu_0, # of connection points: 4
#     Node 11, Type 1, BuildingBlock: NAHDIM_clean_sbu_0, # of connection points: 4
#     Node 12, Type 1, BuildingBlock: NAHDIM_clean_sbu_0, # of connection points: 4
#     Node 13, Type 1, BuildingBlock: NAHDIM_clean_sbu_0, # of connection points: 4
#     Node 14, Type 1, BuildingBlock: NAHDIM_clean_sbu_0, # of connection points: 4
#     Node 15, Type 1, BuildingBlock: NAHDIM_clean_sbu_0, # of connection points: 4
#     Edge 16, Type (0, 1), BuildingBlock: CIFDUS_clean_linker_0, # of connection points: 2
#     Edge 17, Type (0, 1), BuildingBlock: CIFDUS_clean_linker_0, # of connection points: 2
#     Edge 18, Type (0, 1), BuildingBlock: CIFDUS_clean_linker_0, # of connection points: 2
#     Edge 19, Type (0, 1), BuildingBlock: CIFDUS_clean_linker_0, # of connection points: 2
#     Edge 20, Type (0, 1), BuildingBlock: CIFDUS_clean_linker_0, # of connection points: 2
#     Edge 21, Type (0, 1), BuildingBlock: CIFDUS_clean_linker_0, # of connection points: 2
#     Edge 22, Type (0, 1), BuildingBlock: CIFDUS_clean_linker_0, # of connection points: 2
#     Edge 23, Type (0, 1), BuildingBlock: CIFDUS_clean_linker_0, # of connection points: 2
#     Edge 24, Type (0, 1), BuildingBlock: CIFDUS_clean_linker_0, # of connection points: 2
#     Edge 25, Type (0, 1), BuildingBlock: CIFDUS_clean_linker_0, # of connection points: 2
#     Edge 26, Type (0, 1), BuildingBlock: CIFDUS_clean_linker_0, # of connection points: 2
#     Edge 27, Type (0, 1), BuildingBlock: CIFDUS_clean_linker_0, # of connection points: 2
#     Edge 28, Type (0, 1), BuildingBlock: CIFDUS_clean_linker_0, # of connection points: 2
#     Edge 29, Type (0, 1), BuildingBlock: CIFDUS_clean_linker_0, # of connection points: 2
#     Edge 30, Type (0, 1), BuildingBlock: CIFDUS_clean_linker_0, # of connection points: 2
#     Edge 31, Type (0, 1), BuildingBlock: CIFDUS_clean_linker_0, # of connection points: 2
#     Edge 32, Type (0, 1), BuildingBlock: CIFDUS_clean_linker_0, # of connection points: 2
#     Edge 33, Type (0, 1), BuildingBlock: CIFDUS_clean_linker_0, # of connection points: 2
#     Edge 34, Type (0, 1), BuildingBlock: CIFDUS_clean_linker_0, # of connection points: 2
#     Edge 35, Type (0, 1), BuildingBlock: CIFDUS_clean_linker_0, # of connection points: 2
#     Edge 36, Type (0, 1), BuildingBlock: CIFDUS_clean_linker_0, # of connection points: 2
#     Edge 37, Type (0, 1), BuildingBlock: CIFDUS_clean_linker_0, # of connection points: 2
#     Edge 38, Type (0, 1), BuildingBlock: CIFDUS_clean_linker_0, # of connection points: 2
#     Edge 39, Type (0, 1), BuildingBlock: CIFDUS_clean_linker_0, # of connection points: 2
#     Edge 40, Type (0, 1), BuildingBlock: CIFDUS_clean_linker_0, # of connection points: 2
#     Edge 41, Type (0, 1), BuildingBlock: CIFDUS_clean_linker_0, # of connection points: 2
#     Edge 42, Type (0, 1), BuildingBlock: CIFDUS_clean_linker_0, # of connection points: 2
#     Edge 43, Type (0, 1), BuildingBlock: CIFDUS_clean_linker_0, # of connection points: 2
#     Edge 44, Type (0, 1), BuildingBlock: CIFDUS_clean_linker_0, # of connection points: 2
#     Edge 45, Type (0, 1), BuildingBlock: CIFDUS_clean_linker_0, # of connection points: 2
#     Edge 46, Type (0, 1), BuildingBlock: CIFDUS_clean_linker_0, # of connection points: 2
#     Edge 47, Type (0, 1), BuildingBlock: CIFDUS_clean_linker_0, # of connection points: 2
# Relax obj value: 0.156
# Max RMSD: 0.154
# Mean RMSD: 0.138
data_MOF--net-wbl--node1-NAHDIM_clean_sbu_0--node2-NAWXER_clean_linker_0--edge1-CIFDUS_clean_linker_0
_symmetry_space_group_name_H-M    P1
_symmetry_Int_Tables_number       1
_symmetry_cell_setting            triclinic
loop_
_symmetry_equiv_pos_as_xyz
'x, y, z'
_cell_length_a     41.560669
_cell_length_b     40.087794
_cell_length_c     68.537004
_cell_angle_alpha  90.00186
_cell_angle_beta   90.09274
_cell_angle_gamma 89.920799
loop_
_atom_site_label
_atom_site_type_symbol
_atom_site_fract_x
_atom_site_fract_y
_atom_site_fract_z
_atom_type_partial_charge
C0 C 0.06587 0.91566 0.38738 0.0
C1 C 0.0806 0.93141 0.4034 0.0
C2 C 0.0471 0.93399 0.37426 0.0
C3 C 0.04304 0.96856 0.3767 0.0
C4 C 0.07659 0.96603 0.40576 0.0
C5 C 0.05797 0.98435 0.39258 0.0
C6 C 0.0209 0.98782 0.36398 0.0
C7 C 0.09938 0.95782 0.32299 0.0
C8 C 0.09032 0.93527 0.30829 0.0
C9 C 0.07621 0.97264 0.33484 0.0
C10 C 0.0435 0.96518 0.33225 0.0
C11 C 0.05766 0.92723 0.30592 0.0
C12 C 0.03436 0.94242 0.31768 0.0
C13 C 0.0189 0.98338 0.34357 0.0
C14 C 0.91589 0.08352 0.32064 0.0
C15 C 0.89677 0.06295 0.30873 0.0
C16 C 0.94171 0.07012 0.33114 0.0
C17 C 0.94846 0.03579 0.33023 0.0
C18 C 0.90494 0.02903 0.30691 0.0
C19 C 0.9305 0.01562 0.31755 0.0
C20 C 0.97397 0.02039 0.34234 0.0
C21 C 0.90336 0.06391 0.38619 0.0
C22 C 0.91673 0.09162 0.39579 0.0
C23 C 0.92285 0.0428 0.37504 0.0
C24 C 0.95598 0.04895 0.37356 0.0
C25 C 0.94983 0.09788 0.39407 0.0
C26 C 0.96936 0.07647 0.38322 0.0
C27 C 0.97715 0.02625 0.36256 0.0
H28 H 0.0686 0.88908 0.38507 0.0
H29 H 0.03504 0.92088 0.36254 0.0
H30 H 0.08706 0.9789 0.41812 0.0
H31 H 0.05486 0.01088 0.39497 0.0
H32 H 0.12444 0.96425 0.32517 0.0
H33 H 0.0838 0.99069 0.34566 0.0
H34 H 0.05013 0.91006 0.29461 0.0
H35 H 0.0092 0.93663 0.31532 0.0
H36 H 0.91031 0.10974 0.32238 0.0
H37 H 0.95605 0.08654 0.34018 0.0
H38 H 0.89123 0.01265 0.29748 0.0
H39 H 0.93566 0.9892 0.3163 0.0
H40 H 0.87788 0.05861 0.38734 0.0
H41 H 0.91219 0.02145 0.36782 0.0
H42 H 0.96073 0.11884 0.40153 0.0
H43 H 0.99494 0.08142 0.38231 0.0
N44 N 0.00028 0.00958 0.37262 0.0
N45 N 0.99514 -0.00068 0.33359 0.0
C46 C 0.92644 0.4165 0.61711 0.0
C47 C 0.94133 0.39958 0.63267 0.0
C48 C 0.94421 0.43784 0.60516 0.0
C49 C 0.97734 0.4423 0.60835 0.0
C50 C 0.97446 0.40424 0.63587 0.0
C51 C 0.99223 0.42547 0.62388 0.0
C52 C 0.99628 0.46575 0.59628 0.0
C53 C 0.96889 0.38266 0.55693 0.0
C54 C 0.94392 0.39099 0.54397 0.0
C55 C 0.98537 0.40747 0.56703 0.0
C56 C 0.97721 0.44112 0.5644 0.0
C57 C 0.93611 0.42477 0.54106 0.0
C58 C 0.95294 0.44973 0.55106 0.0
C59 C 0.99415 0.46697 0.57573 0.0
C60 C 0.10141 0.55829 0.55322 0.0
C61 C 0.08581 0.58137 0.54094 0.0
C62 C 0.0836 0.53577 0.56436 0.0
C63 C 0.0499 0.53579 0.56335 0.0
C64 C 0.05201 0.58061 0.53962 0.0
C65 C 0.03426 0.55779 0.55059 0.0
C66 C 0.03089 0.51248 0.57527 0.0
C67 C 0.07087 0.58829 0.61806 0.0
C68 C 0.09106 0.57429 0.63239 0.0
C69 C 0.05281 0.56775 0.60569 0.0
C70 C 0.05469 0.53288 0.60744 0.0
C71 C 0.09318 0.53938 0.63387 0.0
C72 C 0.07505 0.51894 0.6216 0.0
C73 C 0.03379 0.51063 0.59578 0.0
H74 H 0.901 0.41337 0.6142 0.0
H75 H 0.9319 0.45127 0.59365 0.0
H76 H 0.98655 0.3921 0.64795 0.0
H77 H 0.01766 0.42881 0.62677 0.0
H78 H 0.9752 0.35683 0.55962 0.0
H79 H 0.00436 0.40036 0.57706 0.0
H80 H 0.91706 0.4318 0.53106 0.0
H81 H 0.94653 0.47563 0.54876 0.0
H82 H 0.1274 0.55765 0.55429 0.0
H83 H 0.09614 0.51835 0.57378 0.0
H84 H 0.03912 0.59827 0.53055 0.0
H85 H 0.00825 0.55794 0.54953 0.0
H86 H 0.06879 0.6151 0.61656 0.0
H87 H 0.03672 0.57913 0.59517 0.0
H88 H 0.10809 0.52782 0.64495 0.0
H89 H 0.07663 0.49212 0.62334 0.0
N90 N 0.01629 0.48738 0.60548 0.0
N91 N 0.01122 0.49053 0.56597 0.0
C92 C 0.54029 0.39476 0.87619 0.0
C93 C 0.55767 0.40534 0.89266 0.0
C94 C 0.52556 0.41807 0.86391 0.0
C95 C 0.52794 0.45237 0.86789 0.0
C96 C 0.56017 0.43968 0.89654 0.0
C97 C 0.54522 0.46295 0.88436 0.0
C98 C 0.5105 0.47707 0.85581 0.0
C99 C 0.59042 0.44197 0.81793 0.0
C100 C 0.58088 0.42161 0.80229 0.0
C101 C 0.56764 0.45948 0.82874 0.0
C102 C 0.53481 0.45702 0.82414 0.0
C103 C 0.548 0.41887 0.79775 0.0
C104 C 0.52512 0.43683 0.80847 0.0
C105 C 0.51112 0.47686 0.83525 0.0
C106 C 0.42457 0.59474 0.81496 0.0
C107 C 0.40739 0.57985 0.79953 0.0
C108 C 0.44651 0.57612 0.826 0.0
C109 C 0.45088 0.5419 0.82232 0.0
C110 C 0.41379 0.54625 0.79498 0.0
C111 C 0.43505 0.52751 0.80631 0.0
C112 C 0.47209 0.52065 0.83458 0.0
C113 C 0.40353 0.56717 0.87948 0.0
C114 C 0.42004 0.5873 0.89303 0.0
C115 C 0.42057 0.5465 0.86665 0.0
C116 C 0.45433 0.54585 0.86711 0.0
C117 C 0.45386 0.5871 0.89301 0.0
C118 C 0.47078 0.56639 0.88031 0.0
C119 C 0.47298 0.52206 0.85522 0.0
H120 H 0.53804 0.36846 0.87284 0.0
H121 H 0.51169 0.40923 0.85156 0.0
H122 H 0.57305 0.44852 0.90928 0.0
H123 H 0.54705 0.48924 0.88783 0.0
H124 H 0.6156 0.44435 0.82179 0.0
H125 H 0.57574 0.47542 0.84052 0.0
H126 H 0.54013 0.40347 0.78567 0.0
H127 H 0.49991 0.43485 0.80461 0.0
H128 H 0.4205 0.62054 0.81892 0.0
H129 H 0.4597 0.58852 0.83752 0.0
H130 H 0.40203 0.53414 0.78279 0.0
H131 H 0.43858 0.50141 0.80277 0.0
H132 H 0.37749 0.56646 0.87928 0.0
H133 H 0.40744 0.53038 0.85676 0.0
H134 H 0.46734 0.60271 0.903 0.0
H135 H 0.49684 0.56616 0.88091 0.0
N136 N 0.49196 0.50006 0.86497 0.0
N137 N 0.4915 0.49819 0.82541 0.0
C138 C 0.43147 0.89719 0.06856 0.0
C139 C 0.41097 0.91182 0.05469 0.0
C140 C 0.45622 0.91562 0.07702 0.0
C141 C 0.46044 0.94938 0.07221 0.0
C142 C 0.41607 0.94511 0.04912 0.0
C143 C 0.44064 0.9638 0.05786 0.0
C144 C 0.48577 0.96937 0.08192 0.0
C145 C 0.41797 0.94198 0.13141 0.0
C146 C 0.43254 0.92452 0.14686 0.0
C147 C 0.43678 0.95524 0.11637 0.0
C148 C 0.47033 0.95062 0.11639 0.0
C149 C 0.46592 0.91916 0.14653 0.0
C150 C 0.4846 0.93213 0.13148 0.0
C151 C 0.49133 0.96803 0.10228 0.0
C152 C 0.58287 0.07595 0.12034 0.0
C153 C 0.60087 0.05954 0.13486 0.0
C154 C 0.5634 0.0577 0.10754 0.0
C155 C 0.56188 0.02279 0.10898 0.0
C156 C 0.60075 0.02449 0.13542 0.0
C157 C 0.58127 0.00634 0.1227 0.0
C158 C 0.53669 0.00371 0.09864 0.0
C159 C 0.60538 0.0413 0.05473 0.0
C160 C 0.59231 0.06748 0.04357 0.0
C161 C 0.58535 0.02031 0.06548 0.0
C162 C 0.55189 0.02508 0.06528 0.0
C163 C 0.55863 0.07094 0.04255 0.0
C164 C 0.5386 0.04975 0.05322 0.0
C165 C 0.53095 0.00562 0.07839 0.0
H166 H 0.42858 0.87128 0.0727 0.0
H167 H 0.47202 0.90341 0.08738 0.0
H168 H 0.40072 0.95681 0.03831 0.0
H169 H 0.44378 0.98965 0.05369 0.0
H170 H 0.3923 0.94669 0.13144 0.0
H171 H 0.42526 0.97018 0.10519 0.0
H172 H 0.47769 0.90544 0.15815 0.0
H173 H 0.51042 0.92835 0.13187 0.0
H174 H 0.58223 0.10293 0.11966 0.0
H175 H 0.5481 0.07101 0.09736 0.0
H176 H 0.61478 0.01112 0.14623 0.0
H177 H 0.58037 0.97943 0.1241 0.0
H178 H 0.63115 0.03746 0.05548 0.0
H179 H 0.59605 0.00085 0.07435 0.0
H180 H 0.54774 0.09098 0.03424 0.0
H181 H 0.51281 0.05369 0.05281 0.0
N182 N 0.50564 0.98845 0.07074 0.0
N183 N 0.51668 0.98503 0.10971 0.0
C184 C 0.05894 0.58494 0.8751 0.0
C185 C 0.07783 0.5718 0.86 0.0
C186 C 0.04276 0.56361 0.88784 0.0
C187 C 0.04486 0.52888 0.88545 0.0
C188 C 0.08044 0.53709 0.85782 0.0
C189 C 0.06365 0.51575 0.8703 0.0
C190 C 0.02559 0.50658 0.89791 0.0
C191 C 0.10992 0.53501 0.93445 0.0
C192 C 0.10281 0.55596 0.9503 0.0
C193 C 0.08528 0.51976 0.92394 0.0
C194 C 0.053 0.52521 0.92902 0.0
C195 C 0.07049 0.5616 0.95534 0.0
C196 C 0.04576 0.54602 0.94489 0.0
C197 C 0.02712 0.50758 0.91844 0.0
C198 C 0.92514 0.40587 0.94096 0.0
C199 C 0.90948 0.42447 0.95556 0.0
C200 C 0.94986 0.42011 0.92997 0.0
C201 C 0.95874 0.45354 0.93296 0.0
C202 C 0.92027 0.45703 0.95951 0.0
C203 C 0.94454 0.47141 0.9483 0.0
C204 C 0.98239 0.47053 0.92025 0.0
C205 C 0.90279 0.43721 0.87908 0.0
C206 C 0.91346 0.41316 0.86558 0.0
C207 C 0.92489 0.45496 0.89045 0.0
C208 C 0.958 0.44883 0.88858 0.0
C209 C 0.94668 0.40694 0.86397 0.0
C210 C 0.96871 0.42483 0.87522 0.0
C211 C 0.98183 0.46847 0.89964 0.0
H212 H 0.05664 0.61168 0.87697 0.0
H213 H 0.02794 0.57422 0.89926 0.0
H214 H 0.09481 0.52656 0.84616 0.0
H215 H 0.0653 0.48902 0.86815 0.0
H216 H 0.13462 0.53042 0.93017 0.0
H217 H 0.09151 0.50316 0.91205 0.0
H218 H 0.06442 0.57747 0.96759 0.0
H219 H 0.021 0.55026 0.94916 0.0
H220 H 0.91757 0.38073 0.93749 0.0
H221 H 0.96144 0.4052 0.91884 0.0
H222 H 0.90947 0.47175 0.97102 0.0
H223 H 0.95147 0.49698 0.95122 0.0
H224 H 0.87745 0.443 0.88049 0.0
H225 H 0.9162 0.47386 0.90044 0.0
H226 H 0.95573 0.38824 0.85397 0.0
H227 H 0.99419 0.41984 0.87354 0.0
N228 N 0.00337 0.4867 0.88927 0.0
N229 N 0.00519 0.48993 0.92886 0.0
C230 C 0.40099 0.56468 0.12881 0.0
C231 C 0.41383 0.57948 0.11193 0.0
C232 C 0.42021 0.54438 0.14068 0.0
C233 C 0.45264 0.53869 0.13591 0.0
C234 C 0.44624 0.57356 0.10719 0.0
C235 C 0.46536 0.55328 0.11901 0.0
C236 C 0.47324 0.51635 0.14777 0.0
C237 C 0.45315 0.60497 0.18517 0.0
C238 C 0.43237 0.59811 0.20081 0.0
C239 C 0.46724 0.57907 0.17465 0.0
C240 C 0.46075 0.54577 0.17951 0.0
C241 C 0.426 0.56474 0.20576 0.0
C242 C 0.44041 0.53872 0.19529 0.0
C243 C 0.47586 0.51855 0.16829 0.0
C244 C 0.59176 0.43312 0.18357 0.0
C245 C 0.58146 0.41174 0.19857 0.0
C246 C 0.56987 0.45399 0.17408 0.0
C247 C 0.53723 0.45379 0.17931 0.0
C248 C 0.54899 0.41278 0.20439 0.0
C249 C 0.52711 0.43381 0.1949 0.0
C250 C 0.51366 0.47381 0.16819 0.0
C251 C 0.5447 0.38974 0.12878 0.0
C252 C 0.56137 0.40049 0.1121 0.0
C253 C 0.52843 0.41272 0.14054 0.0
C254 C 0.5287 0.44683 0.13585 0.0
C255 C 0.56144 0.43463 0.10743 0.0
C256 C 0.54512 0.45753 0.11913 0.0
C257 C 0.51083 0.47147 0.1477 0.0
H258 H 0.37611 0.5688 0.13284 0.0
H259 H 0.40961 0.53276 0.15339 0.0
H260 H 0.4567 0.58406 0.0941 0.0
H261 H 0.4902 0.54898 0.11493 0.0
H262 H 0.45827 0.63045 0.18093 0.0
H263 H 0.4833 0.58504 0.16272 0.0
H264 H 0.41025 0.55882 0.21784 0.0
H265 H 0.43537 0.51313 0.19934 0.0
H266 H 0.6167 0.43348 0.17903 0.0
H267 H 0.57833 0.46991 0.16239 0.0
H268 H 0.5402 0.39646 0.21578 0.0
H269 H 0.50205 0.43352 0.19924 0.0
H270 H 0.54425 0.36359 0.13274 0.0
H271 H 0.5153 0.40377 0.15313 0.0
H272 H 0.57357 0.4436 0.09448 0.0
H273 H 0.54537 0.48368 0.11514 0.0
N274 N 0.49091 0.49296 0.13829 0.0
N275 N 0.49588 0.49711 0.17778 0.0
C276 C 0.40941 0.92318 0.37796 0.0
C277 C 0.39097 0.93629 0.36252 0.0
C278 C 0.42774 0.94413 0.38984 0.0
C279 C 0.4271 0.97889 0.38711 0.0
C280 C 0.3909 0.97108 0.35958 0.0
C281 C 0.40869 0.99209 0.37177 0.0
C282 C 0.44766 0.00125 0.39906 0.0
C283 C 0.38139 0.95038 0.43999 0.0
C284 C 0.39628 0.92979 0.45388 0.0
C285 C 0.39951 0.97298 0.42918 0.0
C286 C 0.43304 0.97456 0.4316 0.0
C287 C 0.42948 0.93259 0.45715 0.0
C288 C 0.44778 0.95478 0.44602 0.0
C289 C 0.45271 0.99704 0.41933 0.0
C290 C 0.55754 0.09856 0.43754 0.0
C291 C 0.57731 0.07697 0.44846 0.0
C292 C 0.53021 0.08629 0.42794 0.0
C293 C 0.52254 0.05217 0.4289 0.0
C294 C 0.56857 0.04325 0.45012 0.0
C295 C 0.54161 0.03103 0.44043 0.0
C296 C 0.49479 0.03752 0.41838 0.0
C297 C 0.55291 0.08388 0.3683 0.0
C298 C 0.53568 0.10964 0.35896 0.0
C299 C 0.53778 0.06324 0.38193 0.0
C300 C 0.50521 0.06802 0.38642 0.0
C301 C 0.50333 0.11497 0.36412 0.0
C302 C 0.48818 0.09412 0.37755 0.0
C303 C 0.48768 0.04384 0.39857 0.0
H304 H 0.40992 0.89665 0.38087 0.0
H305 H 0.44276 0.93297 0.40099 0.0
H306 H 0.37771 0.98215 0.34758 0.0
H307 H 0.40831 0.01872 0.36906 0.0
H308 H 0.35565 0.94902 0.43756 0.0
H309 H 0.38731 0.98893 0.41878 0.0
H310 H 0.44131 0.91704 0.46792 0.0
H311 H 0.47354 0.95595 0.44837 0.0
H312 H 0.56355 0.12471 0.43606 0.0
H313 H 0.51524 0.10346 0.41978 0.0
H314 H 0.58274 0.02612 0.45884 0.0
H315 H 0.53602 0.00472 0.44169 0.0
H316 H 0.57768 0.07868 0.36448 0.0
H317 H 0.55113 0.04279 0.38839 0.0
H318 H 0.48948 0.1349 0.35751 0.0
H319 H 0.46294 0.09802 0.3808 0.0
N320 N 0.46473 0.02519 0.38965 0.0
N321 N 0.47659 0.01472 0.42804 0.0
C322 C 0.08958 0.94794 0.64259 0.0
C323 C 0.07761 0.92765 0.62752 0.0
C324 C 0.06847 0.96427 0.65528 0.0
C325 C 0.03502 0.96029 0.65325 0.0
C326 C 0.04411 0.92424 0.62534 0.0
C327 C 0.02308 0.94046 0.63804 0.0
C328 C 0.01221 0.97781 0.6663 0.0
C329 C 0.06425 0.90308 0.70041 0.0
C330 C 0.08689 0.91628 0.71347 0.0
C331 C 0.04028 0.9233 0.69257 0.0
C332 C 0.03898 0.95741 0.69717 0.0
C333 C 0.08441 0.94984 0.7192 0.0
C334 C 0.06054 0.97037 0.71103 0.0
C335 C 0.01576 0.97916 0.6868 0.0
C336 C 0.89578 0.05449 0.71116 0.0
C337 C 0.9095 0.07969 0.72276 0.0
C338 C 0.91534 0.03279 0.70048 0.0
C339 C 0.94898 0.03613 0.70103 0.0
C340 C 0.94323 0.08194 0.72394 0.0
C341 C 0.96275 0.06026 0.71324 0.0
C342 C 0.97003 0.0151 0.68874 0.0
C343 C 0.91511 0.07372 0.64036 0.0
C344 C 0.89498 0.05212 0.62968 0.0
C345 C 0.93663 0.06093 0.65424 0.0
C346 C 0.93824 0.02645 0.65758 0.0
C347 C 0.89512 0.01793 0.63425 0.0
C348 C 0.9168 0.0052 0.64788 0.0
C349 C 0.96524 0.01154 0.66846 0.0
H350 H 0.11524 0.95105 0.64465 0.0
H351 H 0.0783 0.9802 0.66657 0.0
H352 H 0.03408 0.90938 0.61363 0.0
H353 H -0.00261 0.93735 0.63601 0.0
H354 H 0.0653 0.87708 0.69614 0.0
H355 H 0.02322 0.91241 0.68245 0.0
H356 H 0.10151 0.96034 0.72943 0.0
H357 H 0.05964 0.99652 0.71499 0.0
H358 H 0.86991 0.05169 0.71024 0.0
H359 H 0.90415 0.01359 0.69168 0.0
H360 H 0.9546 0.10126 0.73257 0.0
H361 H 0.98865 0.06311 0.71399 0.0
H362 H 0.91572 0.10015 0.63712 0.0
H363 H 0.95332 0.07763 0.66146 0.0
H364 H 0.87946 0.00072 0.62662 0.0
H365 H 0.91777 0.9785 0.65028 0.0
N366 N 0.98669 0.99342 0.65803 0.0
N367 N 0.99503 -0.00153 0.69726 0.0
C368 C 0.24161 0.66623 0.99737 0.0
O369 O 0.26721 0.64765 0.0004 0.0
O370 O 0.30893 0.68944 0.02586 0.0
Zn371 Zn 0.29027 0.71235 0.00225 0.0
O372 O 0.3161 0.69644 0.97923 0.0
C373 C 0.30921 0.78128 0.99473 0.0
O374 O 0.31679 0.77032 0.97726 0.0
O375 O 0.24455 0.69775 0.99815 0.0
C376 C 0.30487 0.69504 0.96198 0.0
O377 O 0.27574 0.70636 0.95851 0.0
C378 C 0.33649 0.69919 0.03153 0.0
O379 O 0.35063 0.7236 0.02206 0.0
O380 O 0.2955 0.76165 0.00666 0.0
C381 C 0.22917 0.83545 0.2546 0.0
O382 O 0.25232 0.85669 0.25065 0.0
O383 O 0.299 0.82231 0.22712 0.0
Zn384 Zn 0.28325 0.79692 0.25091 0.0
O385 O 0.30417 0.8162 0.27506 0.0
C386 C 0.32647 0.74609 0.24369 0.0
O387 O 0.3444 0.77304 0.24428 0.0
O388 O 0.23576 0.80447 0.25457 0.0
C389 C 0.32131 0.80146 0.28778 0.0
O390 O 0.32688 0.76932 0.28623 0.0
C391 C 0.32085 0.84432 0.2288 0.0
O392 O 0.33194 0.85158 0.24624 0.0
O393 O 0.29645 0.74894 0.24689 0.0
C394 C 0.27309 0.83605 0.52196 0.0
O395 O 0.26256 0.84628 0.53901 0.0
O396 O 0.19109 0.82975 0.54015 0.0
Zn397 Zn 0.20855 0.80783 0.51589 0.0
O398 O 0.18393 0.8267 0.49302 0.0
C399 C 0.18417 0.74117 0.50781 0.0
O400 O 0.17042 0.7554 0.49267 0.0
O401 O 0.25489 0.81851 0.51117 0.0
C402 C 0.19156 0.8562 0.48802 0.0
O403 O 0.21404 0.87183 0.49793 0.0
C404 C 0.16495 0.81753 0.54657 0.0
O405 O 0.15197 0.79215 0.53736 0.0
O406 O 0.20247 0.75838 0.51872 0.0
C407 C 0.24732 0.65285 0.75096 0.0
O408 O 0.22092 0.63616 0.74697 0.0
O409 O 0.1807 0.68143 0.72502 0.0
Zn410 Zn 0.20003 0.70106 0.74942 0.0
O411 O 0.17548 0.68261 0.77246 0.0
C412 C 0.18405 0.76893 0.76138 0.0
O413 O 0.17824 0.75516 0.77841 0.0
O414 O 0.24574 0.68451 0.75189 0.0
C415 C 0.1902 0.6754 0.7882 0.0
O416 O 0.22096 0.68235 0.78982 0.0
C417 C 0.15322 0.69077 0.71894 0.0
O418 O 0.13759 0.71395 0.72864 0.0
O419 O 0.1954 0.75102 0.7477 0.0
C420 C 0.72621 0.15837 0.50463 0.0
O421 O 0.74871 0.1357 0.50701 0.0
O422 O 0.79087 0.17295 0.5413 0.0
Zn423 Zn 0.77987 0.1939 0.51517 0.0
O424 O 0.80393 0.16943 0.49394 0.0
C425 C 0.82551 0.24398 0.51602 0.0
O426 O 0.8428 0.21656 0.51508 0.0
O427 O 0.73282 0.18858 0.50861 0.0
C428 C 0.81135 0.18148 0.47742 0.0
O429 O 0.80421 0.21267 0.4734 0.0
C430 C 0.80514 0.14489 0.54201 0.0
O431 O 0.81113 0.12897 0.52567 0.0
O432 O 0.79501 0.24155 0.51601 0.0
C433 C 0.73915 0.35369 0.75044 0.0
O434 O 0.76488 0.37092 0.74573 0.0
O435 O 0.80028 0.32591 0.71876 0.0
Zn436 Zn 0.78515 0.30504 0.74375 0.0
O437 O 0.81589 0.32148 0.76435 0.0
C438 C 0.80489 0.2373 0.75222 0.0
O439 O 0.81682 0.25112 0.76802 0.0
O440 O 0.74084 0.32202 0.75025 0.0
C441 C 0.80828 0.32638 0.78207 0.0
O442 O 0.77903 0.31917 0.78794 0.0
C443 C 0.82707 0.31587 0.71203 0.0
O444 O 0.84233 0.29169 0.72111 0.0
O445 O 0.78835 0.25508 0.74055 0.0
C446 C 0.75867 0.32537 0.99762 0.0
O447 O 0.73444 0.34603 0.00011 0.0
O448 O 0.68947 0.30875 0.02475 0.0
Zn449 Zn 0.70595 0.28489 0.00096 0.0
O450 O 0.68469 0.30578 0.97765 0.0
C451 C 0.70584 0.22063 0.01813 0.0
O452 O 0.72543 0.23606 0.03019 0.0
O453 O 0.75317 0.2942 0.99811 0.0
C454 C 0.65667 0.29974 0.97116 0.0
O455 O 0.63908 0.27668 0.97958 0.0
C456 C 0.66304 0.30059 0.03272 0.0
O457 O 0.64661 0.27541 0.02557 0.0
O458 O 0.6954 0.23625 0.00329 0.0
C459 C 0.74785 0.16059 0.26215 0.0
O460 O 0.72194 0.14215 0.26389 0.0
O461 O 0.68082 0.1721 0.22936 0.0
Zn462 Zn 0.69815 0.20173 0.25096 0.0
O463 O 0.67442 0.19277 0.27598 0.0
C464 C 0.69451 0.25819 0.22556 0.0
O465 O 0.70728 0.23684 0.21325 0.0
O466 O 0.74477 0.19031 0.25592 0.0
C467 C 0.64415 0.1961 0.27756 0.0
O468 O 0.62745 0.20668 0.26248 0.0
C469 C 0.66424 0.14605 0.23258 0.0
O470 O 0.65796 0.13738 0.25065 0.0
O471 O 0.69034 0.24931 0.24317 0.0
H472 H 0.10031 0.87006 0.29876 0.0
H473 H 0.13568 0.96959 0.28839 0.0
H474 H 0.17986 0.94728 0.26894 0.0
H475 H 0.2107 0.8998 0.25726 0.0
H476 H 0.17778 0.79962 0.26864 0.0
H477 H 0.12995 0.82185 0.28497 0.0
C478 C 0.1175 0.88675 0.29199 0.0
C479 C 0.11507 0.92134 0.29513 0.0
C480 C 0.14322 0.87368 0.28107 0.0
C481 C 0.13745 0.94284 0.28638 0.0
C482 C 0.16261 0.93013 0.27523 0.0
C483 C 0.19294 0.88271 0.2631 0.0
C484 C 0.19798 0.8481 0.2619 0.0
C485 C 0.16611 0.89561 0.27285 0.0
C486 C 0.17454 0.8264 0.26943 0.0
C487 C 0.14727 0.8391 0.27885 0.0
H488 H 0.13824 0.61517 0.55405 0.0
H489 H 0.07525 0.60634 0.50415 0.0
H490 H 0.10213 0.65347 0.48862 0.0
H491 H 0.1406 0.69992 0.49047 0.0
H492 H 0.20399 0.70754 0.54027 0.0
H493 H 0.18053 0.65731 0.55421 0.0
C494 C 0.13082 0.62291 0.53957 0.0
C495 C 0.10447 0.60739 0.53043 0.0
C496 C 0.14647 0.64984 0.53067 0.0
C497 C 0.09499 0.61827 0.51176 0.0
C498 C 0.11047 0.64511 0.50279 0.0
C499 C 0.14964 0.69031 0.50422 0.0
C500 C 0.17372 0.70777 0.51441 0.0
C501 C 0.13578 0.66155 0.51231 0.0
C502 C 0.1853 0.6948 0.53215 0.0
C503 C 0.17182 0.66611 0.5402 0.0
H504 H 0.35093 0.55538 0.78547 0.0
H505 H 0.40557 0.64667 0.78978 0.0
H506 H 0.36137 0.67736 0.77454 0.0
H507 H 0.30611 0.67847 0.76109 0.0
H508 H 0.25381 0.5859 0.75542 0.0
H509 H 0.29882 0.55548 0.76944 0.0
C510 C 0.35375 0.58183 0.78268 0.0
C511 C 0.38171 0.59853 0.7889 0.0
C512 C 0.32861 0.59919 0.77358 0.0
C513 C 0.38418 0.6331 0.78553 0.0
C514 C 0.35897 0.65069 0.77667 0.0
C515 C 0.30475 0.6516 0.76272 0.0
C516 C 0.27647 0.6346 0.75733 0.0
C517 C 0.33089 0.63403 0.77082 0.0
C518 C 0.27516 0.59974 0.75947 0.0
C519 C 0.30089 0.58224 0.76757 0.0
H520 H 0.39781 0.90277 0.01618 0.0
H521 H 0.36598 0.87554 0.07386 0.0
H522 H 0.32769 0.8359 0.05997 0.0
H523 H 0.30822 0.80448 0.03189 0.0
H524 H 0.34223 0.82875 0.97413 0.0
H525 H 0.3741 0.8746 0.98752 0.0
C526 C 0.38197 0.88861 0.02562 0.0
C527 C 0.38482 0.89172 0.04597 0.0
C528 C 0.36057 0.86525 0.01753 0.0
C529 C 0.3644 0.87316 0.05813 0.0
C530 C 0.34252 0.85056 0.05021 0.0
C531 C 0.32209 0.82014 0.02213 0.0
C532 C 0.32312 0.81289 0.00206 0.0
C533 C 0.34113 0.84568 0.02998 0.0
C534 C 0.34118 0.8336 0.98967 0.0
C535 C 0.35954 0.85974 0.99732 0.0
H536 H 0.10886 0.62095 0.96121 0.0
H537 H 0.15619 0.52527 0.96451 0.0
H538 H 0.2023 0.55079 0.98074 0.0
H539 H 0.23045 0.60045 0.99205 0.0
H540 H 0.18455 0.69686 0.988 0.0
H541 H 0.13633 0.67082 0.97428 0.0
C542 C 0.12912 0.60571 0.96575 0.0
C543 C 0.12932 0.57137 0.96156 0.0
C544 C 0.15577 0.62065 0.97486 0.0
C545 C 0.15575 0.55186 0.96736 0.0
C546 C 0.18205 0.56639 0.97667 0.0
C547 C 0.20983 0.61582 0.98835 0.0
C548 C 0.21119 0.65057 0.99094 0.0
C549 C 0.18254 0.60082 0.98018 0.0
C550 C 0.18417 0.67004 0.9861 0.0
C551 C 0.15662 0.65519 0.97821 0.0
H552 H 0.36939 0.60567 0.21098 0.0
H553 H 0.46225 0.6532 0.21499 0.0
H554 H 0.43767 0.70221 0.22993 0.0
H555 H 0.38977 0.73294 0.23966 0.0
H556 H 0.29626 0.68685 0.23526 0.0
H557 H 0.32118 0.63559 0.22296 0.0
C558 C 0.38422 0.62658 0.21543 0.0
C559 C 0.41751 0.62603 0.21173 0.0
C560 C 0.36984 0.65491 0.22383 0.0
C561 C 0.4365 0.65332 0.21743 0.0
C562 C 0.42249 0.68128 0.22601 0.0
C563 C 0.37476 0.71164 0.23615 0.0
C564 C 0.34118 0.71383 0.23818 0.0
C565 C 0.38915 0.6826 0.22889 0.0
C566 C 0.32218 0.68585 0.23376 0.0
C567 C 0.33641 0.65658 0.22667 0.0
H568 H 0.38799 0.9254 0.49305 0.0
H569 H 0.36085 0.87991 0.43849 0.0
H570 H 0.32338 0.84306 0.45547 0.0
H571 H 0.29452 0.82827 0.48501 0.0
H572 H 0.3178 0.87656 0.53954 0.0
H573 H 0.36113 0.9074 0.52351 0.0
C574 C 0.37419 0.90697 0.48504 0.0
C575 C 0.37684 0.90525 0.46464 0.0
C576 C 0.35201 0.88659 0.49485 0.0
C577 C 0.35885 0.88162 0.45422 0.0
C578 C 0.3375 0.86063 0.46391 0.0
C579 C 0.30933 0.84513 0.49353 0.0
C580 C 0.30269 0.85035 0.51342 0.0
C581 C 0.33328 0.86354 0.48412 0.0
C582 C 0.32227 0.87223 0.52418 0.0
C583 C 0.34695 0.88998 0.515 0.0
H584 H 0.10028 0.89847 0.75089 0.0
H585 H 0.13132 0.88474 0.69147 0.0
H586 H 0.16832 0.84064 0.70169 0.0
H587 H 0.18611 0.80127 0.72662 0.0
H588 H 0.15287 0.81216 0.78592 0.0
H589 H 0.12302 0.86237 0.77679 0.0
C590 C 0.11579 0.88628 0.74035 0.0
C591 C 0.11314 0.89452 0.72049 0.0
C592 C 0.13632 0.86023 0.74627 0.0
C593 C 0.133 0.87852 0.70683 0.0
C594 C 0.15404 0.8533 0.71265 0.0
C595 C 0.17283 0.81491 0.73766 0.0
C596 C 0.17136 0.80263 0.75686 0.0
C597 C 0.15504 0.84317 0.73221 0.0
C598 C 0.15421 0.82086 0.77098 0.0
C599 C 0.137 0.84953 0.76576 0.0
H600 H 0.63386 0.44854 0.78615 0.0
H601 H 0.58312 0.35551 0.79244 0.0
H602 H 0.62706 0.32601 0.77588 0.0
H603 H 0.68167 0.32653 0.76162 0.0
H604 H 0.73151 0.42045 0.75547 0.0
H605 H 0.68616 0.4497 0.76994 0.0
C606 C 0.63243 0.42181 0.78381 0.0
C607 C 0.60562 0.40409 0.79065 0.0
C608 C 0.65767 0.40518 0.7744 0.0
C609 C 0.60362 0.3696 0.78726 0.0
C610 C 0.62877 0.35276 0.7779 0.0
C611 C 0.68247 0.35342 0.7633 0.0
C612 C 0.71012 0.37118 0.75763 0.0
C613 C 0.65619 0.37024 0.7717 0.0
C614 C 0.71066 0.40606 0.75978 0.0
C615 C 0.68473 0.42288 0.7681 0.0
H616 H 0.64673 0.09454 0.05875 0.0
H617 H 0.58556 0.09754 0.00781 0.0
H618 H 0.6172 0.1436 0.99459 0.0
H619 H 0.65953 0.18573 0.99878 0.0
H620 H 0.72042 0.1824 0.04987 0.0
H621 H 0.69209 0.13302 0.06144 0.0
C622 C 0.64072 0.10466 0.04453 0.0
C623 C 0.61365 0.09269 0.03436 0.0
C624 C 0.65894 0.13113 0.03705 0.0
C625 C 0.60595 0.10662 0.01611 0.0
C626 C 0.62411 0.13287 0.00849 0.0
C627 C 0.66694 0.17393 0.01231 0.0
C628 C 0.69187 0.18798 0.02353 0.0
C629 C 0.65023 0.14578 0.01904 0.0
C630 C 0.70121 0.17227 0.04098 0.0
C631 C 0.68494 0.14407 0.04766 0.0
H632 H 0.88807 0.12357 0.29094 0.0
H633 H 0.83869 0.03215 0.30553 0.0
H634 H 0.7893 0.05373 0.29128 0.0
H635 H 0.75941 0.09894 0.27619 0.0
H636 H 0.80681 0.19179 0.26259 0.0
H637 H 0.8577 0.16928 0.27511 0.0
C638 C 0.86647 0.10844 0.29105 0.0
C639 C 0.86724 0.07618 0.29922 0.0
C640 C 0.83778 0.12126 0.28311 0.0
C641 C 0.83907 0.05677 0.29903 0.0
C642 C 0.81067 0.06919 0.29102 0.0
C643 C 0.78085 0.11434 0.27585 0.0
C644 C 0.77927 0.14706 0.26854 0.0
C645 C 0.8097 0.10144 0.28321 0.0
C646 C 0.80737 0.16652 0.26818 0.0
C647 C 0.83643 0.15368 0.27536 0.0
H648 H 0.87891 0.38452 0.54126 0.0
H649 H 0.96814 0.3369 0.52511 0.0
H650 H 0.93874 0.28818 0.51339 0.0
H651 H 0.8885 0.25717 0.5107 0.0
H652 H 0.79891 0.30361 0.52729 0.0
H653 H 0.82757 0.35505 0.53555 0.0
C654 C 0.89179 0.36374 0.53478 0.0
C655 C 0.92562 0.36406 0.53422 0.0
C656 C 0.87473 0.33557 0.52832 0.0
C657 C 0.94211 0.33694 0.52594 0.0
C658 C 0.92534 0.30912 0.51923 0.0
C659 C 0.87515 0.27863 0.51597 0.0
C660 C 0.84172 0.27644 0.51866 0.0
C661 C 0.89177 0.30781 0.52087 0.0
C662 C 0.82471 0.30462 0.52519 0.0
C663 C 0.8411 0.33399 0.52998 0.0
H664 H 0.58803 0.13566 0.46803 0.0
H665 H 0.63493 0.04495 0.44929 0.0
H666 H 0.68418 0.06177 0.46567 0.0
H667 H 0.71396 0.10155 0.48524 0.0
H668 H 0.66961 0.19404 0.50297 0.0
H669 H 0.61931 0.17732 0.4869 0.0
C670 C 0.60913 0.11978 0.46738 0.0
C671 C 0.60757 0.08883 0.45768 0.0
C672 C 0.63775 0.12983 0.47668 0.0
C673 C 0.63515 0.06849 0.45704 0.0
C674 C 0.66343 0.07816 0.46631 0.0
C675 C 0.69327 0.11807 0.48574 0.0
C676 C 0.69538 0.14883 0.49544 0.0
C677 C 0.66491 0.10859 0.47627 0.0
C678 C 0.6685 0.17013 0.49564 0.0
C679 C 0.6398 0.16059 0.48644 0.0
H680 H 0.85647 0.11075 0.70819 0.0
H681 H 0.9166 0.10544 0.7595 0.0
H682 H 0.88692 0.15172 0.77413 0.0
H683 H 0.84737 0.19682 0.771 0.0
H684 H 0.78795 0.20275 0.71936 0.0
H685 H 0.81328 0.15242 0.70649 0.0
C686 C 0.86264 0.11919 0.72276 0.0
C687 C 0.88894 0.10485 0.73265 0.0
C688 C 0.84564 0.14597 0.73102 0.0
C689 C 0.89683 0.11642 0.75143 0.0
C690 C 0.87979 0.1428 0.75983 0.0
C691 C 0.83954 0.18684 0.75707 0.0
C692 C 0.81603 0.2038 0.74608 0.0
C693 C 0.85468 0.15828 0.74955 0.0
C694 C 0.80613 0.19035 0.7281 0.0
C695 C 0.8207 0.16163 0.72067 0.0
H696 H 0.8982 0.3603 0.96766 0.0
H697 H 0.85514 0.45845 0.96571 0.0
H698 H 0.80628 0.43675 0.9803 0.0
H699 H 0.77427 0.3898 0.99139 0.0
H700 H 0.81477 0.2906 0.99144 0.0
H701 H 0.86603 0.31285 0.97963 0.0
C702 C 0.87811 0.37693 0.97036 0.0
C703 C 0.88057 0.41104 0.96561 0.0
C704 C 0.84951 0.36411 0.97829 0.0
C705 C 0.85436 0.43225 0.96953 0.0
C706 C 0.82618 0.41982 0.97772 0.0
C707 C 0.79434 0.37297 0.989 0.0
C708 C 0.79064 0.33857 0.9922 0.0
C709 C 0.82334 0.38577 0.98188 0.0
C710 C 0.81696 0.3172 0.98902 0.0
C711 C 0.84624 0.3299 0.98223 0.0
H712 H 0.62641 0.37441 0.17979 0.0
H713 H 0.58697 0.39339 0.23696 0.0
H714 H 0.62072 0.34927 0.2507 0.0
H715 H 0.65856 0.30292 0.24602 0.0
H716 H 0.69756 0.28388 0.18872 0.0
H717 H 0.6675 0.33118 0.17563 0.0
C718 C 0.62564 0.36942 0.19534 0.0
C719 C 0.60402 0.38709 0.2073 0.0
C720 C 0.64505 0.34403 0.20313 0.0
C721 C 0.60301 0.37983 0.22736 0.0
C722 C 0.62242 0.35472 0.23525 0.0
C723 C 0.66088 0.30938 0.23072 0.0
C724 C 0.68011 0.28967 0.21835 0.0
C725 C 0.6431 0.33627 0.2232 0.0
C726 C 0.68283 0.29848 0.19857 0.0
C727 C 0.66555 0.32547 0.19104 0.0
H728 H 0.13644 0.94878 0.42151 0.0
H729 H 0.06611 0.86984 0.41833 0.0
H730 H 0.09501 0.83878 0.4435 0.0
H731 H 0.13896 0.83521 0.46755 0.0
H732 H 0.20778 0.91555 0.47149 0.0
H733 H 0.18047 0.945 0.44514 0.0
C734 C 0.12729 0.92487 0.42639 0.0
C735 C 0.09908 0.91177 0.41804 0.0
C736 C 0.14366 0.90744 0.44113 0.0
C737 C 0.08798 0.8804 0.4243 0.0
C738 C 0.10435 0.86271 0.43882 0.0
C739 C 0.14805 0.85909 0.46258 0.0
C740 C 0.17529 0.87318 0.47156 0.0
C741 C 0.13205 0.87613 0.44748 0.0
C742 C 0.18675 0.90417 0.46494 0.0
C743 C 0.17118 0.92106 0.44984 0.0
H744 H 0.06816 0.62845 0.65186 0.0
H745 H 0.15319 0.56778 0.64487 0.0
H746 H 0.18038 0.59935 0.67053 0.0
H747 H 0.17899 0.64215 0.69606 0.0
H748 H 0.09382 0.7027 0.70323 0.0
H749 H 0.06789 0.67349 0.6762 0.0
C750 C 0.09284 0.62254 0.65571 0.0
C751 C 0.10857 0.5957 0.64654 0.0
C752 C 0.10824 0.64063 0.67058 0.0
C753 C 0.14041 0.58805 0.65189 0.0
C754 C 0.15599 0.60613 0.66652 0.0
C755 C 0.15482 0.64913 0.69166 0.0
C756 C 0.13832 0.67444 0.70178 0.0
C757 C 0.13996 0.6321 0.67618 0.0
C758 C 0.10706 0.68322 0.69578 0.0
C759 C 0.09218 0.66651 0.68032 0.0
H760 H 0.36518 0.62422 0.88812 0.0
H761 H 0.435 0.59455 0.93152 0.0
H762 H 0.40663 0.62674 0.95621 0.0
H763 H 0.36141 0.66188 0.96583 0.0
H764 H 0.28998 0.69022 0.92313 0.0
H765 H 0.31948 0.65984 0.89788 0.0
C766 C 0.37405 0.62466 0.903 0.0
C767 C 0.40233 0.60714 0.90788 0.0
C768 C 0.35735 0.64296 0.91728 0.0
C769 C 0.41366 0.60827 0.92722 0.0
C770 C 0.39734 0.6265 0.94142 0.0
C771 C 0.35234 0.66165 0.95098 0.0
C772 C 0.32353 0.67833 0.94639 0.0
C773 C 0.36915 0.64385 0.93663 0.0
C774 C 0.31211 0.67758 0.92707 0.0
C775 C 0.32893 0.66016 0.91263 0.0
H776 H 0.37585 0.89024 0.14713 0.0
H777 H 0.44687 0.93475 0.18497 0.0
H778 H 0.41755 0.91539 0.21359 0.0
H779 H 0.3732 0.88421 0.22784 0.0
H780 H 0.30254 0.83777 0.1905 0.0
H781 H 0.33003 0.85981 0.1617 0.0
C782 C 0.38466 0.89586 0.16166 0.0
C783 C 0.41358 0.91361 0.16398 0.0
C784 C 0.3678 0.88433 0.17811 0.0
C785 C 0.42491 0.92066 0.18286 0.0
C786 C 0.4081 0.90974 0.19921 0.0
C787 C 0.36359 0.87906 0.21343 0.0
C788 C 0.33589 0.85933 0.21134 0.0
C789 C 0.37975 0.89128 0.19701 0.0
C790 C 0.32388 0.85286 0.19252 0.0
C791 C 0.33961 0.8654 0.17605 0.0
H792 H 0.14179 0.57867 0.85451 0.0
H793 H 0.0498 0.61515 0.83482 0.0
H794 H 0.07637 0.65113 0.81083 0.0
H795 H 0.12591 0.67091 0.79494 0.0
H796 H 0.21807 0.63658 0.81604 0.0
H797 H 0.19145 0.60131 0.84012 0.0
C798 C 0.12774 0.59463 0.84495 0.0
C799 C 0.09407 0.5943 0.84618 0.0
C800 C 0.14319 0.6156 0.83153 0.0
C801 C 0.07583 0.61518 0.83399 0.0
C802 C 0.09099 0.63563 0.82031 0.0
C803 C 0.14011 0.65582 0.80489 0.0
C804 C 0.17386 0.65621 0.80366 0.0
C805 C 0.12466 0.63589 0.81887 0.0
C806 C 0.19203 0.63682 0.81675 0.0
C807 C 0.17685 0.61651 0.83046 0.0
H808 H 0.42981 0.63815 0.09474 0.0
H809 H 0.35222 0.5673 0.09972 0.0
H810 H 0.32051 0.59919 0.07611 0.0
H811 H 0.31633 0.64525 0.05248 0.0
H812 H 0.39484 0.71509 0.04708 0.0
H813 H 0.42472 0.68537 0.07229 0.0
C814 C 0.40597 0.62966 0.09063 0.0
C815 C 0.39351 0.60026 0.09886 0.0
C816 C 0.3881 0.64781 0.07687 0.0
C817 C 0.36231 0.58997 0.09371 0.0
C818 C 0.34425 0.60806 0.0801 0.0
C819 C 0.33988 0.6541 0.05691 0.0
C820 C 0.35339 0.68222 0.04777 0.0
C821 C 0.35711 0.63674 0.07136 0.0
C822 C 0.3839 0.69341 0.05376 0.0
C823 C 0.40106 0.67643 0.06819 0.0
H824 H 0.40794 0.87382 0.35009 0.0
H825 H 0.33275 0.94786 0.34473 0.0
H826 H 0.30471 0.91265 0.32128 0.0
H827 H 0.30208 0.86149 0.30169 0.0
H828 H 0.37503 0.78576 0.30883 0.0
H829 H 0.40285 0.82066 0.33275 0.0
C830 C 0.3851 0.88212 0.34417 0.0
C831 C 0.37279 0.91379 0.34914 0.0
C832 C 0.3686 0.86137 0.33105 0.0
C833 C 0.34335 0.92407 0.3409 0.0
C834 C 0.32709 0.90381 0.32758 0.0
C835 C 0.324 0.85256 0.30856 0.0
C836 C 0.33664 0.82123 0.30341 0.0
C837 C 0.33965 0.87258 0.32241 0.0
C838 C 0.3648 0.80978 0.31259 0.0
C839 C 0.38078 0.82978 0.32619 0.0
H840 H 0.0727 0.86438 0.61391 0.0
H841 H 0.13219 0.95228 0.61038 0.0
H842 H 0.1662 0.92501 0.58604 0.0
H843 H 0.17669 0.87748 0.56408 0.0
H844 H 0.11518 0.79088 0.56688 0.0
H845 H 0.0842 0.8165 0.59303 0.0
C846 C 0.09304 0.87764 0.60776 0.0
C847 C 0.0997 0.9104 0.61382 0.0
C848 C 0.11204 0.8621 0.59354 0.0
C849 C 0.12662 0.92695 0.60606 0.0
C850 C 0.14595 0.91145 0.59204 0.0
C851 C 0.15669 0.86412 0.57055 0.0
C852 C 0.14813 0.83243 0.56344 0.0
C853 C 0.13858 0.87922 0.58544 0.0
C854 C 0.12213 0.81543 0.57195 0.0
C855 C 0.10438 0.83003 0.58693 0.0
H856 H 0.61784 0.40675 0.90792 0.0
H857 H 0.53052 0.34879 0.90752 0.0
H858 H 0.55385 0.30994 0.93119 0.0
H859 H 0.59826 0.29406 0.95317 0.0
H860 H 0.68549 0.35254 0.9533 0.0
H861 H 0.66296 0.3895 0.92863 0.0
C862 C 0.60394 0.38562 0.91304 0.0
C863 C 0.57248 0.38074 0.9061 0.0
C864 C 0.61744 0.36351 0.92665 0.0
C865 C 0.55489 0.35294 0.91258 0.0
C866 C 0.56815 0.33084 0.92618 0.0
C867 C 0.6124 0.31477 0.94772 0.0
C868 C 0.64343 0.32057 0.95521 0.0
C869 C 0.59929 0.33609 0.93348 0.0
C870 C 0.66149 0.34745 0.94788 0.0
C871 C 0.64863 0.36871 0.93377 0.0
H872 H 0.59923 0.04641 0.17351 0.0
H873 H 0.63746 0.11632 0.13172 0.0
H874 H 0.66097 0.14919 0.1583 0.0
H875 H 0.66962 0.15841 0.19352 0.0
H876 H 0.63064 0.08796 0.23489 0.0
H877 H 0.60882 0.05471 0.20827 0.0
C878 C 0.61319 0.06851 0.17015 0.0
C879 C 0.61684 0.07875 0.15066 0.0
C880 C 0.62641 0.08724 0.18543 0.0
C881 C 0.63425 0.10797 0.14662 0.0
C882 C 0.64772 0.12671 0.1618 0.0
C883 C 0.65646 0.13572 0.1967 0.0
C884 C 0.65176 0.12576 0.2162 0.0
C885 C 0.64377 0.11668 0.18128 0.0
C886 C 0.63459 0.09631 0.22005 0.0
C887 C 0.62209 0.07722 0.20483 0.0
H888 H 0.87769 0.07193 0.42504 0.0
H889 H 0.91161 0.15939 0.39491 0.0
H890 H 0.88075 0.19518 0.41703 0.0
H891 H 0.84562 0.20146 0.44571 0.0
H892 H 0.81435 0.11372 0.47683 0.0
H893 H 0.84254 0.07816 0.45355 0.0
C894 C 0.87795 0.09882 0.42322 0.0
C895 C 0.89664 0.11311 0.40838 0.0
C896 C 0.86079 0.11914 0.43623 0.0
C897 C 0.89735 0.14796 0.4063 0.0
C898 C 0.87975 0.16836 0.41892 0.0
C899 C 0.84485 0.17456 0.44731 0.0
C900 C 0.82796 0.16026 0.46296 0.0
C901 C 0.86162 0.15423 0.43407 0.0
C902 C 0.82736 0.12536 0.46496 0.0
C903 C 0.84341 0.10498 0.45164 0.0
H904 H 0.88163 0.41189 0.64731 0.0
H905 H 0.95833 0.33917 0.64811 0.0
H906 H 0.92894 0.30606 0.67206 0.0
H907 H 0.8828 0.29919 0.69389 0.0
H908 H 0.80584 0.37164 0.69293 0.0
H909 H 0.83373 0.40302 0.66754 0.0
C910 C 0.89169 0.38851 0.65245 0.0
C911 C 0.92227 0.37818 0.64602 0.0
C912 C 0.87464 0.36955 0.66619 0.0
C913 C 0.9351 0.34801 0.65307 0.0
C914 C 0.91824 0.32897 0.66668 0.0
C915 C 0.87198 0.32171 0.68804 0.0
C916 C 0.8424 0.33317 0.69541 0.0
C917 C 0.88823 0.33976 0.67356 0.0
C918 C 0.82863 0.36228 0.68755 0.0
C919 C 0.8446 0.38031 0.67307 0.0
H920 H 0.5974 0.13278 0.35676 0.0
H921 H 0.50766 0.13046 0.32493 0.0
H922 H 0.53253 0.15989 0.29783 0.0
H923 H 0.58056 0.18278 0.2821 0.0
H924 H 0.67123 0.18179 0.31288 0.0
H925 H 0.64526 0.15694 0.3413 0.0
C926 C 0.58329 0.1386 0.34388 0.0
C927 C 0.55066 0.12936 0.34298 0.0
C928 C 0.59795 0.15481 0.32806 0.0
C929 C 0.53266 0.13768 0.32625 0.0
C930 C 0.54693 0.15429 0.31062 0.0
C931 C 0.59457 0.17751 0.29511 0.0
C932 C 0.62777 0.18406 0.29535 0.0
C933 C 0.57965 0.16257 0.31125 0.0
C934 C 0.64563 0.17686 0.31228 0.0
C935 C 0.63082 0.16261 0.32854 0.0
H936 H 0.86017 0.11001 0.62572 0.0
H937 H 0.88975 0.02165 0.59442 0.0
H938 H 0.86278 0.04158 0.5652 0.0
H939 H 0.83334 0.08494 0.5479 0.0
H940 H 0.80447 0.17447 0.57817 0.0
H941 H 0.82861 0.15326 0.60834 0.0
C942 C 0.86064 0.09515 0.6125 0.0
C943 C 0.87678 0.06424 0.61238 0.0
C944 C 0.84533 0.10699 0.59551 0.0
C945 C 0.87698 0.04519 0.59513 0.0
C946 C 0.86178 0.05669 0.5783 0.0
C947 C 0.83211 0.09982 0.5611 0.0
C948 C 0.81728 0.13132 0.56073 0.0
C949 C 0.84619 0.08764 0.57827 0.0
C950 C 0.81578 0.15012 0.57804 0.0
C951 C 0.82966 0.13805 0.59528 0.0
H952 H 0.92079 0.39805 0.8272 0.0
H953 H 0.85376 0.38874 0.87493 0.0
H954 H 0.81534 0.36087 0.85338 0.0
H955 H 0.80073 0.33947 0.82086 0.0
H956 H 0.86891 0.34772 0.77361 0.0
H957 H 0.90719 0.375 0.79528 0.0
C958 C 0.89801 0.38948 0.83302 0.0
C959 C 0.89026 0.39547 0.85269 0.0
C960 C 0.87623 0.37319 0.82064 0.0
C961 C 0.86024 0.38484 0.8598 0.0
C962 C 0.83832 0.36871 0.84751 0.0
C963 C 0.824 0.34711 0.81533 0.0
C964 C 0.83184 0.34159 0.79562 0.0
C965 C 0.84603 0.36285 0.82788 0.0
C966 C 0.86217 0.35162 0.7887 0.0
C967 C 0.88411 0.3673 0.80107 0.0
H968 H 0.62057 0.40626 0.09576 0.0
H969 H 0.53881 0.34036 0.09928 0.0
H970 H 0.56398 0.30248 0.07588 0.0
H971 H 0.60764 0.28999 0.05288 0.0
H972 H 0.68892 0.35666 0.04898 0.0
H973 H 0.66541 0.39238 0.074 0.0
C974 C 0.60827 0.3836 0.09139 0.0
C975 C 0.57779 0.37625 0.09912 0.0
C976 C 0.6227 0.36218 0.07778 0.0
C977 C 0.5624 0.34648 0.09363 0.0
C978 C 0.57668 0.32493 0.08015 0.0
C979 C 0.62032 0.31222 0.05758 0.0
C980 C 0.64986 0.32075 0.04893 0.0
C981 C 0.60659 0.3328 0.07191 0.0
C982 C 0.66607 0.34954 0.05531 0.0
C983 C 0.65263 0.37004 0.06961 0.0
loop_
_geom_bond_atom_site_label_1
_geom_bond_atom_site_label_2
_geom_bond_distance
_geom_bond_site_symmetry_2
_ccdc_geom_bond_type
C0 C1 1.384 . S
C0 C2 1.384 . S
C0 H28 0.931 . S
C1 C0 1.384 . S
C1 C4 1.382 . S
C2 C0 1.384 . S
C2 C3 1.381 . S
C2 H29 0.930 . S
C3 C2 1.381 . S
C3 C5 1.381 . S
C3 C6 1.487 . S
C4 C1 1.382 . S
C4 C5 1.387 . S
C4 H30 0.930 . S
C5 C3 1.381 . S
C5 C4 1.387 . S
C5 H31 0.931 1_565 S
C6 C3 1.487 . S
C6 C13 1.399 . S
C6 N44 1.343 1_565 S
C7 C8 1.384 . S
C7 C9 1.384 . S
C7 H32 0.931 . S
C8 C7 1.384 . S
C8 C11 1.382 . S
C9 C7 1.384 . S
C9 C10 1.381 . S
C9 H33 0.930 . S
C10 C9 1.381 . S
C10 C12 1.381 . S
C10 C13 1.487 . S
C11 C8 1.382 . S
C11 C12 1.387 . S
C11 H34 0.930 . S
C12 C10 1.381 . S
C12 C11 1.387 . S
C12 H35 0.931 . S
C13 C6 1.399 . S
C13 C10 1.487 . S
C13 N45 1.343 1_455 S
C14 C15 1.384 . S
C14 C16 1.384 . S
C14 H36 0.931 . S
C15 C14 1.384 . S
C15 C18 1.382 . S
C16 C14 1.384 . S
C16 C17 1.381 . S
C16 H37 0.930 . S
C17 C16 1.381 . S
C17 C19 1.381 . S
C17 C20 1.487 . S
C18 C15 1.382 . S
C18 C19 1.387 . S
C18 H38 0.930 . S
C19 C17 1.381 . S
C19 C18 1.387 . S
C19 H39 0.931 1_545 S
C20 C17 1.487 . S
C20 C27 1.399 . S
C20 N45 1.343 1_545 S
C21 C22 1.384 . S
C21 C23 1.384 . S
C21 H40 0.931 . S
C22 C21 1.384 . S
C22 C25 1.382 . S
C23 C21 1.384 . S
C23 C24 1.381 . S
C23 H41 0.930 . S
C24 C23 1.381 . S
C24 C26 1.381 . S
C24 C27 1.487 . S
C25 C22 1.382 . S
C25 C26 1.387 . S
C25 H42 0.930 . S
C26 C24 1.381 . S
C26 C25 1.387 . S
C26 H43 0.931 . S
C27 C20 1.399 . S
C27 C24 1.487 . S
C27 N44 1.343 1_655 S
H28 C0 0.931 . S
H29 C2 0.930 . S
H30 C4 0.930 . S
H31 C5 0.931 1_545 S
H32 C7 0.931 . S
H33 C9 0.930 . S
H34 C11 0.930 . S
H35 C12 0.931 . S
H36 C14 0.931 . S
H37 C16 0.930 . S
H38 C18 0.930 . S
H39 C19 0.931 1_565 S
H40 C21 0.931 . S
H41 C23 0.930 . S
H42 C25 0.930 . S
H43 C26 0.931 . S
N44 C6 1.343 1_545 S
N44 C27 1.343 1_455 S
N45 C13 1.343 1_655 S
N45 C20 1.343 1_565 S
C46 C47 1.384 . S
C46 C48 1.384 . S
C46 H74 0.931 . S
C47 C46 1.384 . S
C47 C50 1.382 . S
C48 C46 1.384 . S
C48 C49 1.381 . S
C48 H75 0.930 . S
C49 C48 1.381 . S
C49 C51 1.381 . S
C49 C52 1.487 . S
C50 C47 1.382 . S
C50 C51 1.387 . S
C50 H76 0.930 . S
C51 C49 1.381 . S
C51 C50 1.387 . S
C51 H77 0.931 1_655 S
C52 C49 1.487 . S
C52 C59 1.399 . S
C52 N90 1.343 1_655 S
C53 C54 1.384 . S
C53 C55 1.384 . S
C53 H78 0.931 . S
C54 C53 1.384 . S
C54 C57 1.382 . S
C55 C53 1.384 . S
C55 C56 1.381 . S
C55 H79 0.930 . S
C56 C55 1.381 . S
C56 C58 1.381 . S
C56 C59 1.487 . S
C57 C54 1.382 . S
C57 C58 1.387 . S
C57 H80 0.930 . S
C58 C56 1.381 . S
C58 C57 1.387 . S
C58 H81 0.931 . S
C59 C52 1.399 . S
C59 C56 1.487 . S
C59 N91 1.343 . S
C60 C61 1.384 . S
C60 C62 1.384 . S
C60 H82 0.931 . S
C61 C60 1.384 . S
C61 C64 1.382 . S
C62 C60 1.384 . S
C62 C63 1.381 . S
C62 H83 0.930 . S
C63 C62 1.381 . S
C63 C65 1.381 . S
C63 C66 1.487 . S
C64 C61 1.382 . S
C64 C65 1.387 . S
C64 H84 0.930 . S
C65 C63 1.381 . S
C65 C64 1.387 . S
C65 H85 0.931 1_455 S
C66 C63 1.487 . S
C66 C73 1.399 . S
C66 N91 1.343 1_455 S
C67 C68 1.384 . S
C67 C69 1.384 . S
C67 H86 0.931 . S
C68 C67 1.384 . S
C68 C71 1.382 . S
C69 C67 1.384 . S
C69 C70 1.381 . S
C69 H87 0.930 . S
C70 C69 1.381 . S
C70 C72 1.381 . S
C70 C73 1.487 . S
C71 C68 1.382 . S
C71 C72 1.387 . S
C71 H88 0.930 . S
C72 C70 1.381 . S
C72 C71 1.387 . S
C72 H89 0.931 . S
C73 C66 1.399 . S
C73 C70 1.487 . S
C73 N90 1.343 . S
H74 C46 0.931 . S
H75 C48 0.930 . S
H76 C50 0.930 . S
H77 C51 0.931 1_455 S
H78 C53 0.931 . S
H79 C55 0.930 . S
H80 C57 0.930 . S
H81 C58 0.931 . S
H82 C60 0.931 . S
H83 C62 0.930 . S
H84 C64 0.930 . S
H85 C65 0.931 1_655 S
H86 C67 0.931 . S
H87 C69 0.930 . S
H88 C71 0.930 . S
H89 C72 0.931 . S
N90 C52 1.343 1_455 S
N90 C73 1.343 . S
N91 C59 1.343 . S
N91 C66 1.343 1_655 S
C92 C93 1.384 . S
C92 C94 1.384 . S
C92 H120 0.931 . S
C93 C92 1.384 . S
C93 C96 1.382 . S
C94 C92 1.384 . S
C94 C95 1.381 . S
C94 H121 0.930 . S
C95 C94 1.381 . S
C95 C97 1.381 . S
C95 C98 1.487 . S
C96 C93 1.382 . S
C96 C97 1.387 . S
C96 H122 0.930 . S
C97 C95 1.381 . S
C97 C96 1.387 . S
C97 H123 0.931 . S
C98 C95 1.487 . S
C98 C105 1.399 . S
C98 N136 1.343 . S
C99 C100 1.384 . S
C99 C101 1.384 . S
C99 H124 0.931 . S
C100 C99 1.384 . S
C100 C103 1.382 . S
C101 C99 1.384 . S
C101 C102 1.381 . S
C101 H125 0.930 . S
C102 C101 1.381 . S
C102 C104 1.381 . S
C102 C105 1.487 . S
C103 C100 1.382 . S
C103 C104 1.387 . S
C103 H126 0.930 . S
C104 C102 1.381 . S
C104 C103 1.387 . S
C104 H127 0.931 . S
C105 C98 1.399 . S
C105 C102 1.487 . S
C105 N137 1.343 . S
C106 C107 1.384 . S
C106 C108 1.384 . S
C106 H128 0.931 . S
C107 C106 1.384 . S
C107 C110 1.382 . S
C108 C106 1.384 . S
C108 C109 1.381 . S
C108 H129 0.930 . S
C109 C108 1.381 . S
C109 C111 1.381 . S
C109 C112 1.487 . S
C110 C107 1.382 . S
C110 C111 1.387 . S
C110 H130 0.930 . S
C111 C109 1.381 . S
C111 C110 1.387 . S
C111 H131 0.931 . S
C112 C109 1.487 . S
C112 C119 1.399 . S
C112 N137 1.343 . S
C113 C114 1.384 . S
C113 C115 1.384 . S
C113 H132 0.931 . S
C114 C113 1.384 . S
C114 C117 1.382 . S
C115 C113 1.384 . S
C115 C116 1.381 . S
C115 H133 0.930 . S
C116 C115 1.381 . S
C116 C118 1.381 . S
C116 C119 1.487 . S
C117 C114 1.382 . S
C117 C118 1.387 . S
C117 H134 0.930 . S
C118 C116 1.381 . S
C118 C117 1.387 . S
C118 H135 0.931 . S
C119 C112 1.399 . S
C119 C116 1.487 . S
C119 N136 1.343 . S
H120 C92 0.931 . S
H121 C94 0.930 . S
H122 C96 0.930 . S
H123 C97 0.931 . S
H124 C99 0.931 . S
H125 C101 0.930 . S
H126 C103 0.930 . S
H127 C104 0.931 . S
H128 C106 0.931 . S
H129 C108 0.930 . S
H130 C110 0.930 . S
H131 C111 0.931 . S
H132 C113 0.931 . S
H133 C115 0.930 . S
H134 C117 0.930 . S
H135 C118 0.931 . S
N136 C98 1.343 . S
N136 C119 1.343 . S
N137 C105 1.343 . S
N137 C112 1.343 . S
C138 C139 1.384 . S
C138 C140 1.384 . S
C138 H166 0.931 . S
C139 C138 1.384 . S
C139 C142 1.382 . S
C140 C138 1.384 . S
C140 C141 1.381 . S
C140 H167 0.930 . S
C141 C140 1.381 . S
C141 C143 1.381 . S
C141 C144 1.487 . S
C142 C139 1.382 . S
C142 C143 1.387 . S
C142 H168 0.930 . S
C143 C141 1.381 . S
C143 C142 1.387 . S
C143 H169 0.931 . S
C144 C141 1.487 . S
C144 C151 1.399 . S
C144 N182 1.343 1_565 S
C145 C146 1.384 . S
C145 C147 1.384 . S
C145 H170 0.931 . S
C146 C145 1.384 . S
C146 C149 1.382 . S
C147 C145 1.384 . S
C147 C148 1.381 . S
C147 H171 0.930 . S
C148 C147 1.381 . S
C148 C150 1.381 . S
C148 C151 1.487 . S
C149 C146 1.382 . S
C149 C150 1.387 . S
C149 H172 0.930 . S
C150 C148 1.381 . S
C150 C149 1.387 . S
C150 H173 0.931 . S
C151 C144 1.399 . S
C151 C148 1.487 . S
C151 N183 1.343 . S
C152 C153 1.384 . S
C152 C154 1.384 . S
C152 H174 0.931 . S
C153 C152 1.384 . S
C153 C156 1.382 . S
C154 C152 1.384 . S
C154 C155 1.381 . S
C154 H175 0.930 . S
C155 C154 1.381 . S
C155 C157 1.381 . S
C155 C158 1.487 . S
C156 C153 1.382 . S
C156 C157 1.387 . S
C156 H176 0.930 . S
C157 C155 1.381 . S
C157 C156 1.387 . S
C157 H177 0.931 . S
C158 C155 1.487 . S
C158 C165 1.399 . S
C158 N183 1.343 1_545 S
C159 C160 1.384 . S
C159 C161 1.384 . S
C159 H178 0.931 . S
C160 C159 1.384 . S
C160 C163 1.382 . S
C161 C159 1.384 . S
C161 C162 1.381 . S
C161 H179 0.930 . S
C162 C161 1.381 . S
C162 C164 1.381 . S
C162 C165 1.487 . S
C163 C160 1.382 . S
C163 C164 1.387 . S
C163 H180 0.930 . S
C164 C162 1.381 . S
C164 C163 1.387 . S
C164 H181 0.931 . S
C165 C158 1.399 . S
C165 C162 1.487 . S
C165 N182 1.343 . S
H166 C138 0.931 . S
H167 C140 0.930 . S
H168 C142 0.930 . S
H169 C143 0.931 . S
H170 C145 0.931 . S
H171 C147 0.930 . S
H172 C149 0.930 . S
H173 C150 0.931 . S
H174 C152 0.931 . S
H175 C154 0.930 . S
H176 C156 0.930 . S
H177 C157 0.931 . S
H178 C159 0.931 . S
H179 C161 0.930 . S
H180 C163 0.930 . S
H181 C164 0.931 . S
N182 C144 1.343 1_545 S
N182 C165 1.343 . S
N183 C151 1.343 . S
N183 C158 1.343 1_565 S
C184 C185 1.384 . S
C184 C186 1.384 . S
C184 H212 0.931 . S
C185 C184 1.384 . S
C185 C188 1.382 . S
C186 C184 1.384 . S
C186 C187 1.381 . S
C186 H213 0.930 . S
C187 C186 1.381 . S
C187 C189 1.381 . S
C187 C190 1.487 . S
C188 C185 1.382 . S
C188 C189 1.387 . S
C188 H214 0.930 . S
C189 C187 1.381 . S
C189 C188 1.387 . S
C189 H215 0.931 . S
C190 C187 1.487 . S
C190 C197 1.399 . S
C190 N228 1.343 . S
C191 C192 1.384 . S
C191 C193 1.384 . S
C191 H216 0.931 . S
C192 C191 1.384 . S
C192 C195 1.382 . S
C193 C191 1.384 . S
C193 C194 1.381 . S
C193 H217 0.930 . S
C194 C193 1.381 . S
C194 C196 1.381 . S
C194 C197 1.487 . S
C195 C192 1.382 . S
C195 C196 1.387 . S
C195 H218 0.930 . S
C196 C194 1.381 . S
C196 C195 1.387 . S
C196 H219 0.931 . S
C197 C190 1.399 . S
C197 C194 1.487 . S
C197 N229 1.343 1_455 S
C198 C199 1.384 . S
C198 C200 1.384 . S
C198 H220 0.931 . S
C199 C198 1.384 . S
C199 C202 1.382 . S
C200 C198 1.384 . S
C200 C201 1.381 . S
C200 H221 0.930 . S
C201 C200 1.381 . S
C201 C203 1.381 . S
C201 C204 1.487 . S
C202 C199 1.382 . S
C202 C203 1.387 . S
C202 H222 0.930 . S
C203 C201 1.381 . S
C203 C202 1.387 . S
C203 H223 0.931 . S
C204 C201 1.487 . S
C204 C211 1.399 . S
C204 N229 1.343 . S
C205 C206 1.384 . S
C205 C207 1.384 . S
C205 H224 0.931 . S
C206 C205 1.384 . S
C206 C209 1.382 . S
C207 C205 1.384 . S
C207 C208 1.381 . S
C207 H225 0.930 . S
C208 C207 1.381 . S
C208 C210 1.381 . S
C208 C211 1.487 . S
C209 C206 1.382 . S
C209 C210 1.387 . S
C209 H226 0.930 . S
C210 C208 1.381 . S
C210 C209 1.387 . S
C210 H227 0.931 . S
C211 C204 1.399 . S
C211 C208 1.487 . S
C211 N228 1.343 1_655 S
H212 C184 0.931 . S
H213 C186 0.930 . S
H214 C188 0.930 . S
H215 C189 0.931 . S
H216 C191 0.931 . S
H217 C193 0.930 . S
H218 C195 0.930 . S
H219 C196 0.931 . S
H220 C198 0.931 . S
H221 C200 0.930 . S
H222 C202 0.930 . S
H223 C203 0.931 . S
H224 C205 0.931 . S
H225 C207 0.930 . S
H226 C209 0.930 . S
H227 C210 0.931 . S
N228 C190 1.343 . S
N228 C211 1.343 1_455 S
N229 C197 1.343 1_655 S
N229 C204 1.343 . S
C230 C231 1.384 . S
C230 C232 1.384 . S
C230 H258 0.931 . S
C231 C230 1.384 . S
C231 C234 1.382 . S
C232 C230 1.384 . S
C232 C233 1.381 . S
C232 H259 0.930 . S
C233 C232 1.381 . S
C233 C235 1.381 . S
C233 C236 1.487 . S
C234 C231 1.382 . S
C234 C235 1.387 . S
C234 H260 0.930 . S
C235 C233 1.381 . S
C235 C234 1.387 . S
C235 H261 0.931 . S
C236 C233 1.487 . S
C236 C243 1.399 . S
C236 N274 1.343 . S
C237 C238 1.384 . S
C237 C239 1.384 . S
C237 H262 0.931 . S
C238 C237 1.384 . S
C238 C241 1.382 . S
C239 C237 1.384 . S
C239 C240 1.381 . S
C239 H263 0.930 . S
C240 C239 1.381 . S
C240 C242 1.381 . S
C240 C243 1.487 . S
C241 C238 1.382 . S
C241 C242 1.387 . S
C241 H264 0.930 . S
C242 C240 1.381 . S
C242 C241 1.387 . S
C242 H265 0.931 . S
C243 C236 1.399 . S
C243 C240 1.487 . S
C243 N275 1.343 . S
C244 C245 1.384 . S
C244 C246 1.384 . S
C244 H266 0.931 . S
C245 C244 1.384 . S
C245 C248 1.382 . S
C246 C244 1.384 . S
C246 C247 1.381 . S
C246 H267 0.930 . S
C247 C246 1.381 . S
C247 C249 1.381 . S
C247 C250 1.487 . S
C248 C245 1.382 . S
C248 C249 1.387 . S
C248 H268 0.930 . S
C249 C247 1.381 . S
C249 C248 1.387 . S
C249 H269 0.931 . S
C250 C247 1.487 . S
C250 C257 1.399 . S
C250 N275 1.343 . S
C251 C252 1.384 . S
C251 C253 1.384 . S
C251 H270 0.931 . S
C252 C251 1.384 . S
C252 C255 1.382 . S
C253 C251 1.384 . S
C253 C254 1.381 . S
C253 H271 0.930 . S
C254 C253 1.381 . S
C254 C256 1.381 . S
C254 C257 1.487 . S
C255 C252 1.382 . S
C255 C256 1.387 . S
C255 H272 0.930 . S
C256 C254 1.381 . S
C256 C255 1.387 . S
C256 H273 0.931 . S
C257 C250 1.399 . S
C257 C254 1.487 . S
C257 N274 1.343 . S
H258 C230 0.931 . S
H259 C232 0.930 . S
H260 C234 0.930 . S
H261 C235 0.931 . S
H262 C237 0.931 . S
H263 C239 0.930 . S
H264 C241 0.930 . S
H265 C242 0.931 . S
H266 C244 0.931 . S
H267 C246 0.930 . S
H268 C248 0.930 . S
H269 C249 0.931 . S
H270 C251 0.931 . S
H271 C253 0.930 . S
H272 C255 0.930 . S
H273 C256 0.931 . S
N274 C236 1.343 . S
N274 C257 1.343 . S
N275 C243 1.343 . S
N275 C250 1.343 . S
C276 C277 1.384 . S
C276 C278 1.384 . S
C276 H304 0.931 . S
C277 C276 1.384 . S
C277 C280 1.382 . S
C278 C276 1.384 . S
C278 C279 1.381 . S
C278 H305 0.930 . S
C279 C278 1.381 . S
C279 C281 1.381 . S
C279 C282 1.487 . S
C280 C277 1.382 . S
C280 C281 1.387 . S
C280 H306 0.930 . S
C281 C279 1.381 . S
C281 C280 1.387 . S
C281 H307 0.931 1_565 S
C282 C279 1.487 . S
C282 C289 1.399 . S
C282 N320 1.343 1_565 S
C283 C284 1.384 . S
C283 C285 1.384 . S
C283 H308 0.931 . S
C284 C283 1.384 . S
C284 C287 1.382 . S
C285 C283 1.384 . S
C285 C286 1.381 . S
C285 H309 0.930 . S
C286 C285 1.381 . S
C286 C288 1.381 . S
C286 C289 1.487 . S
C287 C284 1.382 . S
C287 C288 1.387 . S
C287 H310 0.930 . S
C288 C286 1.381 . S
C288 C287 1.387 . S
C288 H311 0.931 . S
C289 C282 1.399 . S
C289 C286 1.487 . S
C289 N321 1.343 . S
C290 C291 1.384 . S
C290 C292 1.384 . S
C290 H312 0.931 . S
C291 C290 1.384 . S
C291 C294 1.382 . S
C292 C290 1.384 . S
C292 C293 1.381 . S
C292 H313 0.930 . S
C293 C292 1.381 . S
C293 C295 1.381 . S
C293 C296 1.487 . S
C294 C291 1.382 . S
C294 C295 1.387 . S
C294 H314 0.930 . S
C295 C293 1.381 . S
C295 C294 1.387 . S
C295 H315 0.931 1_545 S
C296 C293 1.487 . S
C296 C303 1.399 . S
C296 N321 1.343 1_545 S
C297 C298 1.384 . S
C297 C299 1.384 . S
C297 H316 0.931 . S
C298 C297 1.384 . S
C298 C301 1.382 . S
C299 C297 1.384 . S
C299 C300 1.381 . S
C299 H317 0.930 . S
C300 C299 1.381 . S
C300 C302 1.381 . S
C300 C303 1.487 . S
C301 C298 1.382 . S
C301 C302 1.387 . S
C301 H318 0.930 . S
C302 C300 1.381 . S
C302 C301 1.387 . S
C302 H319 0.931 . S
C303 C296 1.399 . S
C303 C300 1.487 . S
C303 N320 1.343 . S
H304 C276 0.931 . S
H305 C278 0.930 . S
H306 C280 0.930 . S
H307 C281 0.931 1_545 S
H308 C283 0.931 . S
H309 C285 0.930 . S
H310 C287 0.930 . S
H311 C288 0.931 . S
H312 C290 0.931 . S
H313 C292 0.930 . S
H314 C294 0.930 . S
H315 C295 0.931 1_565 S
H316 C297 0.931 . S
H317 C299 0.930 . S
H318 C301 0.930 . S
H319 C302 0.931 . S
N320 C282 1.343 1_545 S
N320 C303 1.343 . S
N321 C289 1.343 . S
N321 C296 1.343 1_565 S
C322 C323 1.384 . S
C322 C324 1.384 . S
C322 H350 0.931 . S
C323 C322 1.384 . S
C323 C326 1.382 . S
C324 C322 1.384 . S
C324 C325 1.381 . S
C324 H351 0.930 . S
C325 C324 1.381 . S
C325 C327 1.381 . S
C325 C328 1.487 . S
C326 C323 1.382 . S
C326 C327 1.387 . S
C326 H352 0.930 . S
C327 C325 1.381 . S
C327 C326 1.387 . S
C327 H353 0.931 1_455 S
C328 C325 1.487 . S
C328 C335 1.399 . S
C328 N366 1.343 1_455 S
C329 C330 1.384 . S
C329 C331 1.384 . S
C329 H354 0.931 . S
C330 C329 1.384 . S
C330 C333 1.382 . S
C331 C329 1.384 . S
C331 C332 1.381 . S
C331 H355 0.930 . S
C332 C331 1.381 . S
C332 C334 1.381 . S
C332 C335 1.487 . S
C333 C330 1.382 . S
C333 C334 1.387 . S
C333 H356 0.930 . S
C334 C332 1.381 . S
C334 C333 1.387 . S
C334 H357 0.931 . S
C335 C328 1.399 . S
C335 C332 1.487 . S
C335 N367 1.343 1_565 S
C336 C337 1.384 . S
C336 C338 1.384 . S
C336 H358 0.931 . S
C337 C336 1.384 . S
C337 C340 1.382 . S
C338 C336 1.384 . S
C338 C339 1.381 . S
C338 H359 0.930 . S
C339 C338 1.381 . S
C339 C341 1.381 . S
C339 C342 1.487 . S
C340 C337 1.382 . S
C340 C341 1.387 . S
C340 H360 0.930 . S
C341 C339 1.381 . S
C341 C340 1.387 . S
C341 H361 0.931 1_655 S
C342 C339 1.487 . S
C342 C349 1.399 . S
C342 N367 1.343 1_655 S
C343 C344 1.384 . S
C343 C345 1.384 . S
C343 H362 0.931 . S
C344 C343 1.384 . S
C344 C347 1.382 . S
C345 C343 1.384 . S
C345 C346 1.381 . S
C345 H363 0.930 . S
C346 C345 1.381 . S
C346 C348 1.381 . S
C346 C349 1.487 . S
C347 C344 1.382 . S
C347 C348 1.387 . S
C347 H364 0.930 . S
C348 C346 1.381 . S
C348 C347 1.387 . S
C348 H365 0.931 . S
C349 C342 1.399 . S
C349 C346 1.487 . S
C349 N366 1.343 1_545 S
H350 C322 0.931 . S
H351 C324 0.930 . S
H352 C326 0.930 . S
H353 C327 0.931 1_655 S
H354 C329 0.931 . S
H355 C331 0.930 . S
H356 C333 0.930 . S
H357 C334 0.931 . S
H358 C336 0.931 . S
H359 C338 0.930 . S
H360 C340 0.930 . S
H361 C341 0.931 1_455 S
H362 C343 0.931 . S
H363 C345 0.930 . S
H364 C347 0.930 . S
H365 C348 0.931 . S
N366 C328 1.343 1_655 S
N366 C349 1.343 1_565 S
N367 C335 1.343 1_545 S
N367 C342 1.343 1_455 S
C368 O369 1.160 1_556 S
C368 O375 1.185 . S
O369 C368 1.160 1_554 S
O370 Zn371 1.899 . S
O370 C378 1.284 . S
Zn371 O370 1.899 . S
Zn371 O372 2.032 1_554 S
Zn371 O375 2.086 1_554 S
Zn371 O380 1.977 . S
O372 Zn371 2.032 1_556 S
O372 C376 1.278 . S
C373 O374 1.203 . S
C373 O380 1.267 . S
O374 C373 1.203 . S
O375 C368 1.185 . S
O375 Zn371 2.086 1_556 S
C376 O372 1.278 . S
C376 O377 1.211 . S
O377 C376 1.211 . S
C378 O370 1.284 . S
C378 O379 1.273 . S
O379 C378 1.273 . S
O380 Zn371 1.977 . S
O380 C373 1.267 . S
C381 O382 1.160 . S
C381 O388 1.185 . S
O382 C381 1.160 . S
O383 Zn384 1.899 . S
O383 C391 1.284 . S
Zn384 O383 1.899 . S
Zn384 O385 2.032 . S
Zn384 O388 2.086 . S
Zn384 O393 1.977 . S
O385 Zn384 2.032 . S
O385 C389 1.278 . S
C386 O387 1.203 . S
C386 O393 1.267 . S
O387 C386 1.203 . S
O388 C381 1.185 . S
O388 Zn384 2.086 . S
C389 O385 1.278 . S
C389 O390 1.211 . S
O390 C389 1.211 . S
C391 O383 1.284 . S
C391 O392 1.273 . S
O392 C391 1.273 . S
O393 Zn384 1.977 . S
O393 C386 1.267 . S
C394 O395 1.160 . S
C394 O401 1.185 . S
O395 C394 1.160 . S
O396 Zn397 1.899 . S
O396 C404 1.284 . S
Zn397 O396 1.899 . S
Zn397 O398 2.032 . S
Zn397 O401 2.086 . S
Zn397 O406 1.977 . S
O398 Zn397 2.032 . S
O398 C402 1.278 . S
C399 O400 1.203 . S
C399 O406 1.267 . S
O400 C399 1.203 . S
O401 C394 1.185 . S
O401 Zn397 2.086 . S
C402 O398 1.278 . S
C402 O403 1.211 . S
O403 C402 1.211 . S
C404 O396 1.284 . S
C404 O405 1.273 . S
O405 C404 1.273 . S
O406 Zn397 1.977 . S
O406 C399 1.267 . S
C407 O408 1.160 . S
C407 O414 1.185 . S
O408 C407 1.160 . S
O409 Zn410 1.899 . S
O409 C417 1.284 . S
Zn410 O409 1.899 . S
Zn410 O411 2.032 . S
Zn410 O414 2.086 . S
Zn410 O419 1.977 . S
O411 Zn410 2.032 . S
O411 C415 1.278 . S
C412 O413 1.203 . S
C412 O419 1.267 . S
O413 C412 1.203 . S
O414 C407 1.185 . S
O414 Zn410 2.086 . S
C415 O411 1.278 . S
C415 O416 1.211 . S
O416 C415 1.211 . S
C417 O409 1.284 . S
C417 O418 1.273 . S
O418 C417 1.273 . S
O419 Zn410 1.977 . S
O419 C412 1.267 . S
C420 O421 1.160 . S
C420 O427 1.185 . S
O421 C420 1.160 . S
O422 Zn423 1.899 . S
O422 C430 1.284 . S
Zn423 O422 1.899 . S
Zn423 O424 2.032 . S
Zn423 O427 2.086 . S
Zn423 O432 1.977 . S
O424 Zn423 2.032 . S
O424 C428 1.278 . S
C425 O426 1.203 . S
C425 O432 1.267 . S
O426 C425 1.203 . S
O427 C420 1.185 . S
O427 Zn423 2.086 . S
C428 O424 1.278 . S
C428 O429 1.211 . S
O429 C428 1.211 . S
C430 O422 1.284 . S
C430 O431 1.273 . S
O431 C430 1.273 . S
O432 Zn423 1.977 . S
O432 C425 1.267 . S
C433 O434 1.160 . S
C433 O440 1.185 . S
O434 C433 1.160 . S
O435 Zn436 1.899 . S
O435 C443 1.284 . S
Zn436 O435 1.899 . S
Zn436 O437 2.032 . S
Zn436 O440 2.086 . S
Zn436 O445 1.977 . S
O437 Zn436 2.032 . S
O437 C441 1.278 . S
C438 O439 1.203 . S
C438 O445 1.267 . S
O439 C438 1.203 . S
O440 C433 1.185 . S
O440 Zn436 2.086 . S
C441 O437 1.278 . S
C441 O442 1.211 . S
O442 C441 1.211 . S
C443 O435 1.284 . S
C443 O444 1.273 . S
O444 C443 1.273 . S
O445 Zn436 1.977 . S
O445 C438 1.267 . S
C446 O447 1.160 1_556 S
C446 O453 1.185 . S
O447 C446 1.160 1_554 S
O448 Zn449 1.899 . S
O448 C456 1.284 . S
Zn449 O448 1.899 . S
Zn449 O450 2.032 1_554 S
Zn449 O453 2.086 1_554 S
Zn449 O458 1.977 . S
O450 Zn449 2.032 1_556 S
O450 C454 1.278 . S
C451 O452 1.203 . S
C451 O458 1.267 . S
O452 C451 1.203 . S
O453 C446 1.185 . S
O453 Zn449 2.086 1_556 S
C454 O450 1.278 . S
C454 O455 1.211 . S
O455 C454 1.211 . S
C456 O448 1.284 . S
C456 O457 1.273 . S
O457 C456 1.273 . S
O458 Zn449 1.977 . S
O458 C451 1.267 . S
C459 O460 1.160 . S
C459 O466 1.185 . S
O460 C459 1.160 . S
O461 Zn462 1.899 . S
O461 C469 1.284 . S
Zn462 O461 1.899 . S
Zn462 O463 2.032 . S
Zn462 O466 2.086 . S
Zn462 O471 1.977 . S
O463 Zn462 2.032 . S
O463 C467 1.278 . S
C464 O465 1.203 . S
C464 O471 1.267 . S
O465 C464 1.203 . S
O466 C459 1.185 . S
O466 Zn462 2.086 . S
C467 O463 1.278 . S
C467 O468 1.211 . S
O468 C467 1.211 . S
C469 O461 1.284 . S
C469 O470 1.273 . S
O470 C469 1.273 . S
O471 Zn462 1.977 . S
O471 C464 1.267 . S
H472 C478 0.930 . S
H473 C481 0.930 . S
H474 C482 0.930 . S
H475 C483 0.930 . S
H476 C486 0.930 . S
H477 C487 0.930 . S
C478 H472 0.930 . S
C478 C479 1.355 . S
C478 C480 1.415 . S
C479 C478 1.355 . S
C479 C481 1.419 . S
C480 C478 1.415 . S
C480 C485 1.425 . S
C480 C487 1.409 . S
C481 H473 0.930 . S
C481 C479 1.419 . S
C481 C482 1.362 . S
C482 H474 0.930 . S
C482 C481 1.362 . S
C482 C485 1.409 . S
C483 H475 0.930 . S
C483 C484 1.355 . S
C483 C485 1.415 . S
C484 C483 1.355 . S
C484 C486 1.419 . S
C485 C480 1.425 . S
C485 C482 1.409 . S
C485 C483 1.415 . S
C486 H476 0.930 . S
C486 C484 1.419 . S
C486 C487 1.362 . S
C487 H477 0.930 . S
C487 C480 1.409 . S
C487 C486 1.362 . S
H488 C494 0.930 . S
H489 C497 0.930 . S
H490 C498 0.930 . S
H491 C499 0.930 . S
H492 C502 0.930 . S
H493 C503 0.930 . S
C494 H488 0.930 . S
C494 C495 1.355 . S
C494 C496 1.415 . S
C495 C494 1.355 . S
C495 C497 1.419 . S
C496 C494 1.415 . S
C496 C501 1.425 . S
C496 C503 1.409 . S
C497 H489 0.930 . S
C497 C495 1.419 . S
C497 C498 1.362 . S
C498 H490 0.930 . S
C498 C497 1.362 . S
C498 C501 1.409 . S
C499 H491 0.930 . S
C499 C500 1.355 . S
C499 C501 1.415 . S
C500 C499 1.355 . S
C500 C502 1.419 . S
C501 C496 1.425 . S
C501 C498 1.409 . S
C501 C499 1.415 . S
C502 H492 0.930 . S
C502 C500 1.419 . S
C502 C503 1.362 . S
C503 H493 0.930 . S
C503 C496 1.409 . S
C503 C502 1.362 . S
H504 C510 0.930 . S
H505 C513 0.930 . S
H506 C514 0.930 . S
H507 C515 0.930 . S
H508 C518 0.930 . S
H509 C519 0.930 . S
C510 H504 0.930 . S
C510 C511 1.355 . S
C510 C512 1.415 . S
C511 C510 1.355 . S
C511 C513 1.419 . S
C512 C510 1.415 . S
C512 C517 1.425 . S
C512 C519 1.409 . S
C513 H505 0.930 . S
C513 C511 1.419 . S
C513 C514 1.362 . S
C514 H506 0.930 . S
C514 C513 1.362 . S
C514 C517 1.409 . S
C515 H507 0.930 . S
C515 C516 1.355 . S
C515 C517 1.415 . S
C516 C515 1.355 . S
C516 C518 1.419 . S
C517 C512 1.425 . S
C517 C514 1.409 . S
C517 C515 1.415 . S
C518 H508 0.930 . S
C518 C516 1.419 . S
C518 C519 1.362 . S
C519 H509 0.930 . S
C519 C512 1.409 . S
C519 C518 1.362 . S
H520 C526 0.930 . S
H521 C529 0.930 . S
H522 C530 0.930 . S
H523 C531 0.930 . S
H524 C534 0.930 . S
H525 C535 0.930 . S
C526 H520 0.930 . S
C526 C527 1.355 . S
C526 C528 1.415 . S
C527 C526 1.355 . S
C527 C529 1.419 . S
C528 C526 1.415 . S
C528 C533 1.425 . S
C528 C535 1.409 1_554 S
C529 H521 0.930 . S
C529 C527 1.419 . S
C529 C530 1.362 . S
C530 H522 0.930 . S
C530 C529 1.362 . S
C530 C533 1.409 . S
C531 H523 0.930 . S
C531 C532 1.355 . S
C531 C533 1.415 . S
C532 C531 1.355 . S
C532 C534 1.419 1_554 S
C533 C528 1.425 . S
C533 C530 1.409 . S
C533 C531 1.415 . S
C534 H524 0.930 . S
C534 C532 1.419 1_556 S
C534 C535 1.362 . S
C535 H525 0.930 . S
C535 C528 1.409 1_556 S
C535 C534 1.362 . S
H536 C542 0.930 . S
H537 C545 0.930 . S
H538 C546 0.930 . S
H539 C547 0.930 . S
H540 C550 0.930 1_554 S
H541 C551 0.948 . S
C542 H536 0.930 . S
C542 C543 1.355 . S
C542 C544 1.415 . S
C543 C542 1.355 . S
C543 C545 1.419 . S
C544 C542 1.415 . S
C544 C549 1.425 . S
C544 C551 1.409 . S
C545 H537 0.930 . S
C545 C543 1.419 . S
C545 C546 1.362 . S
C546 H538 0.930 . S
C546 C545 1.362 . S
C546 C549 1.409 . S
C547 H539 0.930 . S
C547 C548 1.355 . S
C547 C549 1.415 . S
C548 C547 1.355 . S
C548 C550 1.419 . S
C549 C544 1.425 . S
C549 C546 1.409 . S
C549 C547 1.415 . S
C550 H540 0.930 1_556 S
C550 C548 1.419 . S
C550 C551 1.362 . S
C551 H541 0.948 . S
C551 C544 1.409 . S
C551 C550 1.362 . S
H552 C558 0.930 . S
H553 C561 0.930 . S
H554 C562 0.930 . S
H555 C563 0.930 . S
H556 C566 0.930 . S
H557 C567 0.930 . S
C558 H552 0.930 . S
C558 C559 1.355 . S
C558 C560 1.415 . S
C559 C558 1.355 . S
C559 C561 1.419 . S
C560 C558 1.415 . S
C560 C565 1.425 . S
C560 C567 1.409 . S
C561 H553 0.930 . S
C561 C559 1.419 . S
C561 C562 1.362 . S
C562 H554 0.930 . S
C562 C561 1.362 . S
C562 C565 1.409 . S
C563 H555 0.930 . S
C563 C564 1.355 . S
C563 C565 1.415 . S
C564 C563 1.355 . S
C564 C566 1.419 . S
C565 C560 1.425 . S
C565 C562 1.409 . S
C565 C563 1.415 . S
C566 H556 0.930 . S
C566 C564 1.419 . S
C566 C567 1.362 . S
C567 H557 0.930 . S
C567 C560 1.409 . S
C567 C566 1.362 . S
H568 C574 0.930 . S
H569 C577 0.930 . S
H570 C578 0.930 . S
H571 C579 0.930 . S
H572 C582 0.930 . S
H573 C583 0.930 . S
C574 H568 0.930 . S
C574 C575 1.355 . S
C574 C576 1.415 . S
C575 C574 1.355 . S
C575 C577 1.419 . S
C576 C574 1.415 . S
C576 C581 1.425 . S
C576 C583 1.409 . S
C577 H569 0.930 . S
C577 C575 1.419 . S
C577 C578 1.362 . S
C578 H570 0.930 . S
C578 C577 1.362 . S
C578 C581 1.409 . S
C579 H571 0.930 . S
C579 C580 1.355 . S
C579 C581 1.415 . S
C580 C579 1.355 . S
C580 C582 1.419 . S
C581 C576 1.425 . S
C581 C578 1.409 . S
C581 C579 1.415 . S
C582 H572 0.930 . S
C582 C580 1.419 . S
C582 C583 1.362 . S
C583 H573 0.930 . S
C583 C576 1.409 . S
C583 C582 1.362 . S
H584 C590 0.930 . S
H585 C593 0.930 . S
H586 C594 0.930 . S
H587 C595 0.930 . S
H588 C598 0.930 . S
H589 C599 0.930 . S
C590 H584 0.930 . S
C590 C591 1.355 . S
C590 C592 1.415 . S
C591 C590 1.355 . S
C591 C593 1.419 . S
C592 C590 1.415 . S
C592 C597 1.425 . S
C592 C599 1.409 . S
C593 H585 0.930 . S
C593 C591 1.419 . S
C593 C594 1.362 . S
C594 H586 0.930 . S
C594 C593 1.362 . S
C594 C597 1.409 . S
C595 H587 0.930 . S
C595 C596 1.355 . S
C595 C597 1.415 . S
C596 C595 1.355 . S
C596 C598 1.419 . S
C597 C592 1.425 . S
C597 C594 1.409 . S
C597 C595 1.415 . S
C598 H588 0.930 . S
C598 C596 1.419 . S
C598 C599 1.362 . S
C599 H589 0.930 . S
C599 C592 1.409 . S
C599 C598 1.362 . S
H600 C606 0.930 . S
H601 C609 0.930 . S
H602 C610 0.930 . S
H603 C611 0.930 . S
H604 C614 0.930 . S
H605 C615 0.930 . S
C606 H600 0.930 . S
C606 C607 1.355 . S
C606 C608 1.415 . S
C607 C606 1.355 . S
C607 C609 1.419 . S
C608 C606 1.415 . S
C608 C613 1.425 . S
C608 C615 1.409 . S
C609 H601 0.930 . S
C609 C607 1.419 . S
C609 C610 1.362 . S
C610 H602 0.930 . S
C610 C609 1.362 . S
C610 C613 1.409 . S
C611 H603 0.930 . S
C611 C612 1.355 . S
C611 C613 1.415 . S
C612 C611 1.355 . S
C612 C614 1.419 . S
C613 C608 1.425 . S
C613 C610 1.409 . S
C613 C611 1.415 . S
C614 H604 0.930 . S
C614 C612 1.419 . S
C614 C615 1.362 . S
C615 H605 0.930 . S
C615 C608 1.409 . S
C615 C614 1.362 . S
H616 C622 0.930 . S
H617 C625 0.930 . S
H618 C626 0.930 . S
H619 C627 0.930 . S
H620 C630 0.930 . S
H621 C631 0.930 . S
C622 H616 0.930 . S
C622 C623 1.355 . S
C622 C624 1.415 . S
C623 C622 1.355 . S
C623 C625 1.419 . S
C624 C622 1.415 . S
C624 C629 1.425 . S
C624 C631 1.409 . S
C625 H617 0.930 . S
C625 C623 1.419 . S
C625 C626 1.362 . S
C626 H618 0.930 . S
C626 C625 1.362 . S
C626 C629 1.409 . S
C627 H619 0.930 . S
C627 C628 1.355 . S
C627 C629 1.415 . S
C628 C627 1.355 . S
C628 C630 1.419 . S
C629 C624 1.425 . S
C629 C626 1.409 . S
C629 C627 1.415 . S
C630 H620 0.930 . S
C630 C628 1.419 . S
C630 C631 1.362 . S
C631 H621 0.930 . S
C631 C624 1.409 . S
C631 C630 1.362 . S
H632 C638 0.930 . S
H633 C641 0.930 . S
H634 C642 0.930 . S
H635 C643 0.930 . S
H636 C646 0.930 . S
H637 C647 0.930 . S
C638 H632 0.930 . S
C638 C639 1.355 . S
C638 C640 1.415 . S
C639 C638 1.355 . S
C639 C641 1.419 . S
C640 C638 1.415 . S
C640 C645 1.425 . S
C640 C647 1.409 . S
C641 H633 0.930 . S
C641 C639 1.419 . S
C641 C642 1.362 . S
C642 H634 0.930 . S
C642 C641 1.362 . S
C642 C645 1.409 . S
C643 H635 0.930 . S
C643 C644 1.355 . S
C643 C645 1.415 . S
C644 C643 1.355 . S
C644 C646 1.419 . S
C645 C640 1.425 . S
C645 C642 1.409 . S
C645 C643 1.415 . S
C646 H636 0.930 . S
C646 C644 1.419 . S
C646 C647 1.362 . S
C647 H637 0.930 . S
C647 C640 1.409 . S
C647 C646 1.362 . S
H648 C654 0.930 . S
H649 C657 0.930 . S
H650 C658 0.930 . S
H651 C659 0.930 . S
H652 C662 0.930 . S
H653 C663 0.930 . S
C654 H648 0.930 . S
C654 C655 1.355 . S
C654 C656 1.415 . S
C655 C654 1.355 . S
C655 C657 1.419 . S
C656 C654 1.415 . S
C656 C661 1.425 . S
C656 C663 1.409 . S
C657 H649 0.930 . S
C657 C655 1.419 . S
C657 C658 1.362 . S
C658 H650 0.930 . S
C658 C657 1.362 . S
C658 C661 1.409 . S
C659 H651 0.930 . S
C659 C660 1.355 . S
C659 C661 1.415 . S
C660 C659 1.355 . S
C660 C662 1.419 . S
C661 C656 1.425 . S
C661 C658 1.409 . S
C661 C659 1.415 . S
C662 H652 0.930 . S
C662 C660 1.419 . S
C662 C663 1.362 . S
C663 H653 0.930 . S
C663 C656 1.409 . S
C663 C662 1.362 . S
H664 C670 0.930 . S
H665 C673 0.930 . S
H666 C674 0.930 . S
H667 C675 0.930 . S
H668 C678 0.930 . S
H669 C679 0.930 . S
C670 H664 0.930 . S
C670 C671 1.355 . S
C670 C672 1.415 . S
C671 C670 1.355 . S
C671 C673 1.419 . S
C672 C670 1.415 . S
C672 C677 1.425 . S
C672 C679 1.409 . S
C673 H665 0.930 . S
C673 C671 1.419 . S
C673 C674 1.362 . S
C674 H666 0.930 . S
C674 C673 1.362 . S
C674 C677 1.409 . S
C675 H667 0.930 . S
C675 C676 1.355 . S
C675 C677 1.415 . S
C676 C675 1.355 . S
C676 C678 1.419 . S
C677 C672 1.425 . S
C677 C674 1.409 . S
C677 C675 1.415 . S
C678 H668 0.930 . S
C678 C676 1.419 . S
C678 C679 1.362 . S
C679 H669 0.930 . S
C679 C672 1.409 . S
C679 C678 1.362 . S
H680 C686 0.930 . S
H681 C689 0.930 . S
H682 C690 0.930 . S
H683 C691 0.930 . S
H684 C694 0.930 . S
H685 C695 0.930 . S
C686 H680 0.930 . S
C686 C687 1.355 . S
C686 C688 1.415 . S
C687 C686 1.355 . S
C687 C689 1.419 . S
C688 C686 1.415 . S
C688 C693 1.425 . S
C688 C695 1.409 . S
C689 H681 0.930 . S
C689 C687 1.419 . S
C689 C690 1.362 . S
C690 H682 0.930 . S
C690 C689 1.362 . S
C690 C693 1.409 . S
C691 H683 0.930 . S
C691 C692 1.355 . S
C691 C693 1.415 . S
C692 C691 1.355 . S
C692 C694 1.419 . S
C693 C688 1.425 . S
C693 C690 1.409 . S
C693 C691 1.415 . S
C694 H684 0.930 . S
C694 C692 1.419 . S
C694 C695 1.362 . S
C695 H685 0.930 . S
C695 C688 1.409 . S
C695 C694 1.362 . S
H696 C702 0.930 . S
H697 C705 0.930 . S
H698 C706 0.930 . S
H699 C707 0.930 . S
H700 C710 0.930 . S
H701 C711 0.930 . S
C702 H696 0.930 . S
C702 C703 1.355 . S
C702 C704 1.415 . S
C703 C702 1.355 . S
C703 C705 1.419 . S
C704 C702 1.415 . S
C704 C709 1.425 . S
C704 C711 1.409 1_556 S
C705 H697 0.930 . S
C705 C703 1.419 . S
C705 C706 1.362 . S
C706 H698 0.930 . S
C706 C705 1.362 . S
C706 C709 1.409 . S
C707 H699 0.930 . S
C707 C708 1.355 . S
C707 C709 1.415 . S
C708 C707 1.355 . S
C708 C710 1.419 1_556 S
C709 C704 1.425 . S
C709 C706 1.409 . S
C709 C707 1.415 . S
C710 H700 0.930 . S
C710 C708 1.419 1_554 S
C710 C711 1.362 . S
C711 H701 0.930 . S
C711 C704 1.409 1_554 S
C711 C710 1.362 . S
H712 C718 0.930 . S
H713 C721 0.930 . S
H714 C722 0.930 . S
H715 C723 0.930 . S
H716 C726 0.930 . S
H717 C727 0.930 . S
C718 H712 0.930 . S
C718 C719 1.355 . S
C718 C720 1.415 . S
C719 C718 1.355 . S
C719 C721 1.419 . S
C720 C718 1.415 . S
C720 C725 1.425 . S
C720 C727 1.409 . S
C721 H713 0.930 . S
C721 C719 1.419 . S
C721 C722 1.362 . S
C722 H714 0.930 . S
C722 C721 1.362 . S
C722 C725 1.409 . S
C723 H715 0.930 . S
C723 C724 1.355 . S
C723 C725 1.415 . S
C724 C723 1.355 . S
C724 C726 1.419 . S
C725 C720 1.425 . S
C725 C722 1.409 . S
C725 C723 1.415 . S
C726 H716 0.930 . S
C726 C724 1.419 . S
C726 C727 1.362 . S
C727 H717 0.930 . S
C727 C720 1.409 . S
C727 C726 1.362 . S
H728 C734 0.930 . S
H729 C737 0.930 . S
H730 C738 0.930 . S
H731 C739 0.930 . S
H732 C742 0.930 . S
H733 C743 0.930 . S
C734 H728 0.930 . S
C734 C735 1.355 . S
C734 C736 1.415 . S
C735 C734 1.355 . S
C735 C737 1.419 . S
C736 C734 1.415 . S
C736 C741 1.425 . S
C736 C743 1.409 . S
C737 H729 0.930 . S
C737 C735 1.419 . S
C737 C738 1.362 . S
C738 H730 0.930 . S
C738 C737 1.362 . S
C738 C741 1.409 . S
C739 H731 0.930 . S
C739 C740 1.355 . S
C739 C741 1.415 . S
C740 C739 1.355 . S
C740 C742 1.419 . S
C741 C736 1.425 . S
C741 C738 1.409 . S
C741 C739 1.415 . S
C742 H732 0.930 . S
C742 C740 1.419 . S
C742 C743 1.362 . S
C743 H733 0.930 . S
C743 C736 1.409 . S
C743 C742 1.362 . S
H744 C750 0.930 . S
H745 C753 0.930 . S
H746 C754 0.930 . S
H747 C755 0.930 . S
H748 C758 0.930 . S
H749 C759 0.930 . S
C750 H744 0.930 . S
C750 C751 1.355 . S
C750 C752 1.415 . S
C751 C750 1.355 . S
C751 C753 1.419 . S
C752 C750 1.415 . S
C752 C757 1.425 . S
C752 C759 1.409 . S
C753 H745 0.930 . S
C753 C751 1.419 . S
C753 C754 1.362 . S
C754 H746 0.930 . S
C754 C753 1.362 . S
C754 C757 1.409 . S
C755 H747 0.930 . S
C755 C756 1.355 . S
C755 C757 1.415 . S
C756 C755 1.355 . S
C756 C758 1.419 . S
C757 C752 1.425 . S
C757 C754 1.409 . S
C757 C755 1.415 . S
C758 H748 0.930 . S
C758 C756 1.419 . S
C758 C759 1.362 . S
C759 H749 0.930 . S
C759 C752 1.409 . S
C759 C758 1.362 . S
H760 C766 0.930 . S
H761 C769 0.930 . S
H762 C770 0.930 . S
H763 C771 0.930 . S
H764 C774 0.930 . S
H765 C775 0.930 . S
C766 H760 0.930 . S
C766 C767 1.355 . S
C766 C768 1.415 . S
C767 C766 1.355 . S
C767 C769 1.419 . S
C768 C766 1.415 . S
C768 C773 1.425 . S
C768 C775 1.409 . S
C769 H761 0.930 . S
C769 C767 1.419 . S
C769 C770 1.362 . S
C770 H762 0.930 . S
C770 C769 1.362 . S
C770 C773 1.409 . S
C771 H763 0.930 . S
C771 C772 1.355 . S
C771 C773 1.415 . S
C772 C771 1.355 . S
C772 C774 1.419 . S
C773 C768 1.425 . S
C773 C770 1.409 . S
C773 C771 1.415 . S
C774 H764 0.930 . S
C774 C772 1.419 . S
C774 C775 1.362 . S
C775 H765 0.930 . S
C775 C768 1.409 . S
C775 C774 1.362 . S
H776 C782 0.930 . S
H777 C785 0.930 . S
H778 C786 0.930 . S
H779 C787 0.930 . S
H780 C790 0.930 . S
H781 C791 0.930 . S
C782 H776 0.930 . S
C782 C783 1.355 . S
C782 C784 1.415 . S
C783 C782 1.355 . S
C783 C785 1.419 . S
C784 C782 1.415 . S
C784 C789 1.425 . S
C784 C791 1.409 . S
C785 H777 0.930 . S
C785 C783 1.419 . S
C785 C786 1.362 . S
C786 H778 0.930 . S
C786 C785 1.362 . S
C786 C789 1.409 . S
C787 H779 0.930 . S
C787 C788 1.355 . S
C787 C789 1.415 . S
C788 C787 1.355 . S
C788 C790 1.419 . S
C789 C784 1.425 . S
C789 C786 1.409 . S
C789 C787 1.415 . S
C790 H780 0.930 . S
C790 C788 1.419 . S
C790 C791 1.362 . S
C791 H781 0.930 . S
C791 C784 1.409 . S
C791 C790 1.362 . S
H792 C798 0.930 . S
H793 C801 0.930 . S
H794 C802 0.930 . S
H795 C803 0.930 . S
H796 C806 0.930 . S
H797 C807 0.930 . S
C798 H792 0.930 . S
C798 C799 1.355 . S
C798 C800 1.415 . S
C799 C798 1.355 . S
C799 C801 1.419 . S
C800 C798 1.415 . S
C800 C805 1.425 . S
C800 C807 1.409 . S
C801 H793 0.930 . S
C801 C799 1.419 . S
C801 C802 1.362 . S
C802 H794 0.930 . S
C802 C801 1.362 . S
C802 C805 1.409 . S
C803 H795 0.930 . S
C803 C804 1.355 . S
C803 C805 1.415 . S
C804 C803 1.355 . S
C804 C806 1.419 . S
C805 C800 1.425 . S
C805 C802 1.409 . S
C805 C803 1.415 . S
C806 H796 0.930 . S
C806 C804 1.419 . S
C806 C807 1.362 . S
C807 H797 0.930 . S
C807 C800 1.409 . S
C807 C806 1.362 . S
H808 C814 0.930 . S
H809 C817 0.930 . S
H810 C818 0.930 . S
H811 C819 0.930 . S
H812 C822 0.930 . S
H813 C823 0.930 . S
C814 H808 0.930 . S
C814 C815 1.355 . S
C814 C816 1.415 . S
C815 C814 1.355 . S
C815 C817 1.419 . S
C816 C814 1.415 . S
C816 C821 1.425 . S
C816 C823 1.409 . S
C817 H809 0.930 . S
C817 C815 1.419 . S
C817 C818 1.362 . S
C818 H810 0.930 . S
C818 C817 1.362 . S
C818 C821 1.409 . S
C819 H811 0.930 . S
C819 C820 1.355 . S
C819 C821 1.415 . S
C820 C819 1.355 . S
C820 C822 1.419 . S
C821 C816 1.425 . S
C821 C818 1.409 . S
C821 C819 1.415 . S
C822 H812 0.930 . S
C822 C820 1.419 . S
C822 C823 1.362 . S
C823 H813 0.930 . S
C823 C816 1.409 . S
C823 C822 1.362 . S
H824 C830 0.930 . S
H825 C833 0.930 . S
H826 C834 0.930 . S
H827 C835 0.930 . S
H828 C838 0.930 . S
H829 C839 0.930 . S
C830 H824 0.930 . S
C830 C831 1.355 . S
C830 C832 1.415 . S
C831 C830 1.355 . S
C831 C833 1.419 . S
C832 C830 1.415 . S
C832 C837 1.425 . S
C832 C839 1.409 . S
C833 H825 0.930 . S
C833 C831 1.419 . S
C833 C834 1.362 . S
C834 H826 0.930 . S
C834 C833 1.362 . S
C834 C837 1.409 . S
C835 H827 0.930 . S
C835 C836 1.355 . S
C835 C837 1.415 . S
C836 C835 1.355 . S
C836 C838 1.419 . S
C837 C832 1.425 . S
C837 C834 1.409 . S
C837 C835 1.415 . S
C838 H828 0.930 . S
C838 C836 1.419 . S
C838 C839 1.362 . S
C839 H829 0.930 . S
C839 C832 1.409 . S
C839 C838 1.362 . S
H840 C846 0.930 . S
H841 C849 0.930 . S
H842 C850 0.930 . S
H843 C851 0.930 . S
H844 C854 0.930 . S
H845 C855 0.930 . S
C846 H840 0.930 . S
C846 C847 1.355 . S
C846 C848 1.415 . S
C847 C846 1.355 . S
C847 C849 1.419 . S
C848 C846 1.415 . S
C848 C853 1.425 . S
C848 C855 1.409 . S
C849 H841 0.930 . S
C849 C847 1.419 . S
C849 C850 1.362 . S
C850 H842 0.930 . S
C850 C849 1.362 . S
C850 C853 1.409 . S
C851 H843 0.930 . S
C851 C852 1.355 . S
C851 C853 1.415 . S
C852 C851 1.355 . S
C852 C854 1.419 . S
C853 C848 1.425 . S
C853 C850 1.409 . S
C853 C851 1.415 . S
C854 H844 0.930 . S
C854 C852 1.419 . S
C854 C855 1.362 . S
C855 H845 0.930 . S
C855 C848 1.409 . S
C855 C854 1.362 . S
H856 C862 0.930 . S
H857 C865 0.930 . S
H858 C866 0.930 . S
H859 C867 0.930 . S
H860 C870 0.930 . S
H861 C871 0.930 . S
C862 H856 0.930 . S
C862 C863 1.355 . S
C862 C864 1.415 . S
C863 C862 1.355 . S
C863 C865 1.419 . S
C864 C862 1.415 . S
C864 C869 1.425 . S
C864 C871 1.409 . S
C865 H857 0.930 . S
C865 C863 1.419 . S
C865 C866 1.362 . S
C866 H858 0.930 . S
C866 C865 1.362 . S
C866 C869 1.409 . S
C867 H859 0.930 . S
C867 C868 1.355 . S
C867 C869 1.415 . S
C868 C867 1.355 . S
C868 C870 1.419 . S
C869 C864 1.425 . S
C869 C866 1.409 . S
C869 C867 1.415 . S
C870 H860 0.930 . S
C870 C868 1.419 . S
C870 C871 1.362 . S
C871 H861 0.930 . S
C871 C864 1.409 . S
C871 C870 1.362 . S
H872 C878 0.930 . S
H873 C881 0.930 . S
H874 C882 0.930 . S
H875 C883 0.930 . S
H876 C886 0.930 . S
H877 C887 0.930 . S
C878 H872 0.930 . S
C878 C879 1.355 . S
C878 C880 1.415 . S
C879 C878 1.355 . S
C879 C881 1.419 . S
C880 C878 1.415 . S
C880 C885 1.425 . S
C880 C887 1.409 . S
C881 H873 0.930 . S
C881 C879 1.419 . S
C881 C882 1.362 . S
C882 H874 0.930 . S
C882 C881 1.362 . S
C882 C885 1.409 . S
C883 H875 0.930 . S
C883 C884 1.355 . S
C883 C885 1.415 . S
C884 C883 1.355 . S
C884 C886 1.419 . S
C885 C880 1.425 . S
C885 C882 1.409 . S
C885 C883 1.415 . S
C886 H876 0.930 . S
C886 C884 1.419 . S
C886 C887 1.362 . S
C887 H877 0.930 . S
C887 C880 1.409 . S
C887 C886 1.362 . S
H888 C894 0.930 . S
H889 C897 0.930 . S
H890 C898 0.930 . S
H891 C899 0.930 . S
H892 C902 0.930 . S
H893 C903 0.930 . S
C894 H888 0.930 . S
C894 C895 1.355 . S
C894 C896 1.415 . S
C895 C894 1.355 . S
C895 C897 1.419 . S
C896 C894 1.415 . S
C896 C901 1.425 . S
C896 C903 1.409 . S
C897 H889 0.930 . S
C897 C895 1.419 . S
C897 C898 1.362 . S
C898 H890 0.930 . S
C898 C897 1.362 . S
C898 C901 1.409 . S
C899 H891 0.930 . S
C899 C900 1.355 . S
C899 C901 1.415 . S
C900 C899 1.355 . S
C900 C902 1.419 . S
C901 C896 1.425 . S
C901 C898 1.409 . S
C901 C899 1.415 . S
C902 H892 0.930 . S
C902 C900 1.419 . S
C902 C903 1.362 . S
C903 H893 0.930 . S
C903 C896 1.409 . S
C903 C902 1.362 . S
H904 C910 0.930 . S
H905 C913 0.930 . S
H906 C914 0.930 . S
H907 C915 0.930 . S
H908 C918 0.930 . S
H909 C919 0.930 . S
C910 H904 0.930 . S
C910 C911 1.355 . S
C910 C912 1.415 . S
C911 C910 1.355 . S
C911 C913 1.419 . S
C912 C910 1.415 . S
C912 C917 1.425 . S
C912 C919 1.409 . S
C913 H905 0.930 . S
C913 C911 1.419 . S
C913 C914 1.362 . S
C914 H906 0.930 . S
C914 C913 1.362 . S
C914 C917 1.409 . S
C915 H907 0.930 . S
C915 C916 1.355 . S
C915 C917 1.415 . S
C916 C915 1.355 . S
C916 C918 1.419 . S
C917 C912 1.425 . S
C917 C914 1.409 . S
C917 C915 1.415 . S
C918 H908 0.930 . S
C918 C916 1.419 . S
C918 C919 1.362 . S
C919 H909 0.930 . S
C919 C912 1.409 . S
C919 C918 1.362 . S
H920 C926 0.930 . S
H921 C929 0.930 . S
H922 C930 0.930 . S
H923 C931 0.930 . S
H924 C934 0.930 . S
H925 C935 0.930 . S
C926 H920 0.930 . S
C926 C927 1.355 . S
C926 C928 1.415 . S
C927 C926 1.355 . S
C927 C929 1.419 . S
C928 C926 1.415 . S
C928 C933 1.425 . S
C928 C935 1.409 . S
C929 H921 0.930 . S
C929 C927 1.419 . S
C929 C930 1.362 . S
C930 H922 0.930 . S
C930 C929 1.362 . S
C930 C933 1.409 . S
C931 H923 0.930 . S
C931 C932 1.355 . S
C931 C933 1.415 . S
C932 C931 1.355 . S
C932 C934 1.419 . S
C933 C928 1.425 . S
C933 C930 1.409 . S
C933 C931 1.415 . S
C934 H924 0.930 . S
C934 C932 1.419 . S
C934 C935 1.362 . S
C935 H925 0.930 . S
C935 C928 1.409 . S
C935 C934 1.362 . S
H936 C942 0.930 . S
H937 C945 0.930 . S
H938 C946 0.930 . S
H939 C947 0.930 . S
H940 C950 0.930 . S
H941 C951 0.930 . S
C942 H936 0.930 . S
C942 C943 1.355 . S
C942 C944 1.415 . S
C943 C942 1.355 . S
C943 C945 1.419 . S
C944 C942 1.415 . S
C944 C949 1.425 . S
C944 C951 1.409 . S
C945 H937 0.930 . S
C945 C943 1.419 . S
C945 C946 1.362 . S
C946 H938 0.930 . S
C946 C945 1.362 . S
C946 C949 1.409 . S
C947 H939 0.930 . S
C947 C948 1.355 . S
C947 C949 1.415 . S
C948 C947 1.355 . S
C948 C950 1.419 . S
C949 C944 1.425 . S
C949 C946 1.409 . S
C949 C947 1.415 . S
C950 H940 0.930 . S
C950 C948 1.419 . S
C950 C951 1.362 . S
C951 H941 0.930 . S
C951 C944 1.409 . S
C951 C950 1.362 . S
H952 C958 0.930 . S
H953 C961 0.930 . S
H954 C962 0.930 . S
H955 C963 0.930 . S
H956 C966 0.930 . S
H957 C967 0.930 . S
C958 H952 0.930 . S
C958 C959 1.355 . S
C958 C960 1.415 . S
C959 C958 1.355 . S
C959 C961 1.419 . S
C960 C958 1.415 . S
C960 C965 1.425 . S
C960 C967 1.409 . S
C961 H953 0.930 . S
C961 C959 1.419 . S
C961 C962 1.362 . S
C962 H954 0.930 . S
C962 C961 1.362 . S
C962 C965 1.409 . S
C963 H955 0.930 . S
C963 C964 1.355 . S
C963 C965 1.415 . S
C964 C963 1.355 . S
C964 C966 1.419 . S
C965 C960 1.425 . S
C965 C962 1.409 . S
C965 C963 1.415 . S
C966 H956 0.930 . S
C966 C964 1.419 . S
C966 C967 1.362 . S
C967 H957 0.930 . S
C967 C960 1.409 . S
C967 C966 1.362 . S
H968 C974 0.930 . S
H969 C977 0.930 . S
H970 C978 0.930 . S
H971 C979 0.930 . S
H972 C982 0.930 . S
H973 C983 0.930 . S
C974 H968 0.930 . S
C974 C975 1.355 . S
C974 C976 1.415 . S
C975 C974 1.355 . S
C975 C977 1.419 . S
C976 C974 1.415 . S
C976 C981 1.425 . S
C976 C983 1.409 . S
C977 H969 0.930 . S
C977 C975 1.419 . S
C977 C978 1.362 . S
C978 H970 0.930 . S
C978 C977 1.362 . S
C978 C981 1.409 . S
C979 H971 0.930 . S
C979 C980 1.355 . S
C979 C981 1.415 . S
C980 C979 1.355 . S
C980 C982 1.419 . S
C981 C976 1.425 . S
C981 C978 1.409 . S
C981 C979 1.415 . S
C982 H972 0.930 . S
C982 C980 1.419 . S
C982 C983 1.362 . S
C983 H973 0.930 . S
C983 C976 1.409 . S
C983 C982 1.362 . S
C484 C381 1.380 . S
C479 C8 1.379 . S
C500 C399 1.352 . S
C495 C61 1.413 . S
C516 C407 1.351 . S
C511 C107 1.417 . S
C527 C139 1.350 . S
C532 C373 1.338 . S
C543 C192 1.365 . S
C548 C368 1.358 . S
C559 C238 1.420 . S
C564 C386 1.348 . S
C580 C394 1.332 . S
C575 C284 1.354 . S
C596 C412 1.340 . S
C591 C330 1.349 . S
C607 C100 1.377 . S
C612 C433 1.303 . S
C628 C451 1.293 . S
C623 C160 1.402 . S
C639 C15 1.356 . S
C644 C459 1.358 . S
C660 C425 1.360 . S
C655 C54 1.418 . S
C671 C291 1.380 . S
C676 C420 1.385 . S
C687 C337 1.406 . S
C692 C438 1.366 . S
C708 C446 1.346 . S
C703 C199 1.356 . S
C719 C245 1.409 . S
C724 C464 1.294 . S
C740 C402 1.524 . S
C735 C1 1.487 . S
C756 C417 1.460 . S
C751 C68 1.475 . S
C767 C114 1.473 . S
C772 C376 1.523 . S
C783 C146 1.491 . S
C788 C391 1.499 . S
C799 C185 1.493 . S
C804 C415 1.523 . S
C820 C378 1.451 . S
C815 C231 1.511 . S
C836 C389 1.514 . S
C831 C277 1.513 . S
C852 C404 1.450 . S
C847 C323 1.502 . S
C868 C454 1.524 . S
C863 C93 1.497 . S
C884 C469 1.456 . S
C879 C153 1.506 . S
C895 C22 1.474 . S
C900 C428 1.523 . S
C916 C443 1.512 . S
C911 C47 1.508 . S
C932 C467 1.524 . S
C927 C298 1.471 . S
C943 C344 1.474 . S
C948 C430 1.479 . S
C964 C441 1.524 . S
C959 C206 1.482 . S
C980 C456 1.512 . S
C975 C252 1.505 . S
