# Generated by pormake.
# Topology nom, (4,4)-cn, num edge types: 1
# Building blocks:
#     Node 0, Type 0, BuildingBlock: GIZVER_clean_linker_0, # of connection points: 4
#     Node 1, Type 0, BuildingBlock: GIZVER_clean_linker_0, # of connection points: 4
#     Node 2, Type 0, BuildingBlock: GIZVER_clean_linker_0, # of connection points: 4
#     Node 3, Type 0, BuildingBlock: GIZVER_clean_linker_0, # of connection points: 4
#     Node 4, Type 0, BuildingBlock: GIZVER_clean_linker_0, # of connection points: 4
#     Node 5, Type 0, BuildingBlock: GIZVER_clean_linker_0, # of connection points: 4
#     Node 6, Type 1, BuildingBlock: QUQFOY_clean_sbu_3, # of connection points: 4
#     Node 7, Type 1, BuildingBlock: QUQFOY_clean_sbu_3, # of connection points: 4
#     Node 8, Type 1, BuildingBlock: QUQFOY_clean_sbu_3, # of connection points: 4
#     Node 9, Type 1, BuildingBlock: QUQFOY_clean_sbu_3, # of connection points: 4
#     Node 10, Type 1, BuildingBlock: QUQFOY_clean_sbu_3, # of connection points: 4
#     Node 11, Type 1, BuildingBlock: QUQFOY_clean_sbu_3, # of connection points: 4
#     Edge 12, Type (0, 1), BuildingBlock: XUDNAN_clean_linker_2, # of connection points: 2
#     Edge 13, Type (0, 1), BuildingBlock: XUDNAN_clean_linker_2, # of connection points: 2
#     Edge 14, Type (0, 1), BuildingBlock: XUDNAN_clean_linker_2, # of connection points: 2
#     Edge 15, Type (0, 1), BuildingBlock: XUDNAN_clean_linker_2, # of connection points: 2
#     Edge 16, Type (0, 1), BuildingBlock: XUDNAN_clean_linker_2, # of connection points: 2
#     Edge 17, Type (0, 1), BuildingBlock: XUDNAN_clean_linker_2, # of connection points: 2
#     Edge 18, Type (0, 1), BuildingBlock: XUDNAN_clean_linker_2, # of connection points: 2
#     Edge 19, Type (0, 1), BuildingBlock: XUDNAN_clean_linker_2, # of connection points: 2
#     Edge 20, Type (0, 1), BuildingBlock: XUDNAN_clean_linker_2, # of connection points: 2
#     Edge 21, Type (0, 1), BuildingBlock: XUDNAN_clean_linker_2, # of connection points: 2
#     Edge 22, Type (0, 1), BuildingBlock: XUDNAN_clean_linker_2, # of connection points: 2
#     Edge 23, Type (0, 1), BuildingBlock: XUDNAN_clean_linker_2, # of connection points: 2
#     Edge 24, Type (0, 1), BuildingBlock: XUDNAN_clean_linker_2, # of connection points: 2
#     Edge 25, Type (0, 1), BuildingBlock: XUDNAN_clean_linker_2, # of connection points: 2
#     Edge 26, Type (0, 1), BuildingBlock: XUDNAN_clean_linker_2, # of connection points: 2
#     Edge 27, Type (0, 1), BuildingBlock: XUDNAN_clean_linker_2, # of connection points: 2
#     Edge 28, Type (0, 1), BuildingBlock: XUDNAN_clean_linker_2, # of connection points: 2
#     Edge 29, Type (0, 1), BuildingBlock: XUDNAN_clean_linker_2, # of connection points: 2
#     Edge 30, Type (0, 1), BuildingBlock: XUDNAN_clean_linker_2, # of connection points: 2
#     Edge 31, Type (0, 1), BuildingBlock: XUDNAN_clean_linker_2, # of connection points: 2
#     Edge 32, Type (0, 1), BuildingBlock: XUDNAN_clean_linker_2, # of connection points: 2
#     Edge 33, Type (0, 1), BuildingBlock: XUDNAN_clean_linker_2, # of connection points: 2
#     Edge 34, Type (0, 1), BuildingBlock: XUDNAN_clean_linker_2, # of connection points: 2
#     Edge 35, Type (0, 1), BuildingBlock: XUDNAN_clean_linker_2, # of connection points: 2
# Relax obj value: 0.004
# Max RMSD: 0.069
# Mean RMSD: 0.046
data_MOF--net-nom--node1-QUQFOY_clean_sbu_3--node2-GIZVER_clean_linker_0--edge1-XUDNAN_clean_linker_2
_symmetry_space_group_name_H-M    P1
_symmetry_Int_Tables_number       1
_symmetry_cell_setting            triclinic
loop_
_symmetry_equiv_pos_as_xyz
'x, y, z'
_cell_length_a     46.865736
_cell_length_b     47.809489
_cell_length_c     47.019279
_cell_angle_alpha  89.968049
_cell_angle_beta   90.048672
_cell_angle_gamma 119.99146
loop_
_atom_site_label
_atom_site_type_symbol
_atom_site_fract_x
_atom_site_fract_y
_atom_site_fract_z
_atom_type_partial_charge
H0 H 0.96615 0.56383 0.34436 0.0
H1 H 0.98146 0.53792 0.26057 0.0
H2 H 0.88967 0.47896 0.30312 0.0
H3 H 0.00757 0.60452 0.31292 0.0
H4 H 0.01209 0.59435 0.27735 0.0
H5 H 0.02485 0.57758 0.35341 0.0
H6 H 0.12089 0.59133 0.33531 0.0
H7 H 0.06084 0.59307 0.26728 0.0
C8 C 0.95743 0.54702 0.32673 0.0
C9 C 0.92559 0.51967 0.3275 0.0
C10 C 0.9776 0.55383 0.30256 0.0
C11 C 0.9663 0.53238 0.27945 0.0
C12 C 0.93481 0.50487 0.27996 0.0
C13 C 0.91484 0.49876 0.30396 0.0
C14 C 0.00904 0.58592 0.2998 0.0
C15 C 0.03885 0.58409 0.30918 0.0
C16 C 0.04357 0.58067 0.33822 0.0
C17 C 0.073 0.5829 0.34786 0.0
C18 C 0.09735 0.58772 0.32796 0.0
C19 C 0.0932 0.59127 0.29893 0.0
C20 C 0.06381 0.58938 0.28959 0.0
H21 H 0.42668 0.96182 0.50587 0.0
H22 H 0.46189 1.00162 0.42279 0.0
H23 H 0.43501 0.90335 0.44073 0.0
H24 H 0.43329 0.01338 0.49407 0.0
H25 H 0.43541 0.02351 0.45728 0.0
H26 H 0.48671 0.0256 0.51954 0.0
H27 H 0.57083 0.11416 0.49279 0.0
H28 H 0.48379 0.06974 0.44061 0.0
C29 C 0.43403 0.95924 0.48464 0.0
C30 C 0.42969 0.92927 0.47572 0.0
C31 C 0.44601 0.98549 0.46562 0.0
C32 C 0.45364 0.98162 0.43755 0.0
C33 C 0.44912 0.95179 0.42815 0.0
C34 C 0.43846 0.92636 0.44776 0.0
C35 C 0.44738 0.01656 0.47414 0.0
C36 C 0.48247 0.04329 0.47837 0.0
C37 C 0.49914 0.04407 0.50347 0.0
C38 C 0.53092 0.06978 0.50873 0.0
C39 C 0.5464 0.09414 0.48833 0.0
C40 C 0.52926 0.09538 0.46432 0.0
C41 C 0.49756 0.06914 0.45889 0.0
H42 H 0.39354 0.45356 0.61896 0.0
H43 H 0.43184 0.4484 0.70034 0.0
H44 H 0.41551 0.52729 0.68131 0.0
H45 H 0.39065 0.40446 0.63333 0.0
H46 H 0.39573 0.39889 0.67005 0.0
H47 H 0.43924 0.42781 0.60079 0.0
H48 H 0.51303 0.40408 0.62405 0.0
H49 H 0.44626 0.40266 0.68743 0.0
C50 C 0.40356 0.46448 0.63942 0.0
C51 C 0.40428 0.49322 0.6474 0.0
C52 C 0.41359 0.44839 0.65849 0.0
C53 C 0.42471 0.4613 0.68568 0.0
C54 C 0.42456 0.48929 0.69456 0.0
C55 C 0.41552 0.50563 0.67482 0.0
C56 C 0.4079 0.41516 0.6516 0.0
C57 C 0.4396 0.4156 0.64493 0.0
C58 C 0.4517 0.42167 0.61696 0.0
C59 C 0.47876 0.41826 0.60954 0.0
C60 C 0.49388 0.40916 0.63044 0.0
C61 C 0.48282 0.4037 0.65872 0.0
C62 C 0.45567 0.40734 0.66588 0.0
H63 H 0.96187 0.42726 0.77707 0.0
H64 H 0.99765 0.44815 0.86327 0.0
H65 H 0.90158 0.43319 0.84256 0.0
H66 H 0.01073 0.42584 0.78953 0.0
H67 H 0.01788 0.42213 0.82629 0.0
H68 H 0.03096 0.4825 0.76937 0.0
H69 H 0.12322 0.55473 0.80448 0.0
H70 H 0.06514 0.46461 0.84843 0.0
C71 C 0.95879 0.43227 0.79899 0.0
C72 C 0.92944 0.43105 0.80737 0.0
C73 C 0.98367 0.43883 0.81909 0.0
C74 C 0.97886 0.44397 0.84769 0.0
C75 C 0.94939 0.44233 0.85638 0.0
C76 C 0.92518 0.43638 0.83592 0.0
C77 C 0.01399 0.43744 0.81071 0.0
C78 C 0.04395 0.47077 0.80988 0.0
C79 C 0.04892 0.49093 0.78646 0.0
C80 C 0.07772 0.52109 0.78427 0.0
C81 C 0.10097 0.53146 0.80631 0.0
C82 C 0.09736 0.51111 0.82925 0.0
C83 C 0.06825 0.48096 0.83121 0.0
H84 H 0.5966 0.05657 6e-05 0.0
H85 H 0.55165 0.01784 0.91876 0.0
H86 H 0.56773 0.11034 0.94538 0.0
H87 H 0.59034 0.00591 0.98481 0.0
H88 H 0.58611 0.99835 0.94735 0.0
H89 H 0.54007 0.98547 0.01482 0.0
H90 H 0.44967 0.90826 0.98076 0.0
H91 H 0.53723 0.95271 0.92984 0.0
C92 C 0.58498 0.05844 0.98079 0.0
C93 C 0.58414 0.08693 0.97505 0.0
C94 C 0.57245 0.03298 0.96081 0.0
C95 C 0.55962 0.0365 0.93487 0.0
C96 C 0.55782 0.06436 0.92938 0.0
C97 C 0.56889 0.0887 0.94995 0.0
C98 C 0.57451 0.00289 0.96609 0.0
C99 C 0.54048 0.97433 0.97084 0.0
C100 C 0.52558 0.9697 -0.00233 0.0
C101 C 0.49339 0.94395 0.00241 0.0
C102 C 0.47565 0.92552 0.97872 0.0
C103 C 0.49197 0.92551 0.95367 0.0
C104 C 0.52418 0.95126 0.94926 0.0
H105 H 0.61131 0.56171 0.11608 0.0
H106 H 0.57771 0.55398 0.20248 0.0
H107 H 0.57879 0.47367 0.16257 0.0
H108 H 0.62355 0.61008 0.14285 0.0
H109 H 0.61481 0.60741 0.18003 0.0
H110 H 0.57787 0.59603 0.10751 0.0
H111 H 0.50341 0.61721 0.13593 0.0
H112 H 0.56574 0.60721 0.19696 0.0
C113 C 0.60056 0.54739 0.13507 0.0
C114 C 0.5941 0.51535 0.13609 0.0
C115 C 0.59427 0.56131 0.15894 0.0
C116 C 0.58164 0.54297 0.18387 0.0
C117 C 0.57582 0.51119 0.18534 0.0
C118 C 0.58148 0.49751 0.16116 0.0
C119 C 0.60408 0.59657 0.159 0.0
C120 C 0.57492 0.60089 0.15287 0.0
C121 C 0.56499 0.60037 0.12455 0.0
C122 C 0.53905 0.60606 0.11817 0.0
C123 C 0.52274 0.61167 0.14051 0.0
C124 C 0.53206 0.61192 0.1688 0.0
C125 C 0.55818 0.60653 0.17506 0.0
C126 C 0.71385 0.4524 0.41373 0.0
O127 O 0.70307 0.47019 0.4233 0.0
Cd128 Cd 0.64689 0.45579 0.42937 0.0
O129 O 0.69391 0.42312 0.40676 0.0
Cd130 Cd 0.63237 0.38609 0.40728 0.0
C131 C 0.61683 0.43183 0.36172 0.0
O132 O 0.61948 0.40418 0.45138 0.0
O133 O 0.57816 0.37465 0.42427 0.0
O134 O 0.63309 0.33909 0.42644 0.0
C135 C 0.58859 0.38968 0.44756 0.0
O136 O 0.62445 0.45208 0.38192 0.0
C137 C 0.61899 0.32069 0.40534 0.0
O138 O 0.61921 0.40657 0.36458 0.0
O139 O 0.61246 0.33315 0.38425 0.0
C140 C 0.27838 0.5837 0.56013 0.0
O141 O 0.25108 0.56258 0.54961 0.0
Cd142 Cd 0.20444 0.56961 0.54265 0.0
O143 O 0.28386 0.612 0.5661 0.0
Cd144 Cd 0.25471 0.64355 0.55962 0.0
C145 C 0.19573 0.59888 0.60745 0.0
O146 O 0.22337 0.61813 0.51653 0.0
O147 O 0.20815 0.64701 0.54037 0.0
O148 O 0.29845 0.68978 0.53514 0.0
C149 C 0.20476 0.63023 0.51842 0.0
O150 O 0.18494 0.57626 0.58907 0.0
C151 C 0.30387 0.71026 0.55457 0.0
O152 O 0.22198 0.62568 0.60296 0.0
O153 O 0.28739 0.69961 0.57738 0.0
C154 C 0.71355 0.28772 0.72758 0.0
O155 O 0.71314 0.26202 0.71988 0.0
Cd156 Cd 0.66796 0.21276 0.70221 0.0
O157 O 0.68718 0.28945 0.72752 0.0
Cd158 Cd 0.62742 0.25325 0.71549 0.0
C159 C 0.61457 0.18985 0.75875 0.0
O160 O 0.63996 0.23226 0.67386 0.0
O161 O 0.58829 0.2122 0.68145 0.0
O162 O 0.62014 0.2993 0.70232 0.0
C163 C 0.61081 0.2122 0.66659 0.0
O164 O 0.63281 0.18398 0.74264 0.0
C165 C 0.59557 0.2911 0.71865 0.0
O166 O 0.61082 0.21412 0.75432 0.0
O167 O 0.58652 0.26594 0.7336 0.0
C168 C 0.31207 0.58016 0.91841 0.0
O169 O 0.31872 0.56458 0.93656 0.0
Cd170 Cd 0.37343 0.57361 0.94349 0.0
O171 O 0.33504 0.60417 0.90519 0.0
Cd172 Cd 0.39642 0.63796 0.90478 0.0
C173 C 0.39893 0.57619 0.87338 0.0
O174 O 0.40874 0.6291 0.95301 0.0
O175 O 0.44971 0.64916 0.92382 0.0
O176 O 0.39198 0.68461 0.91583 0.0
C177 C 0.43918 0.63971 0.94882 0.0
O178 O 0.39017 0.56262 0.89766 0.0
C179 C 0.40927 0.70233 0.89542 0.0
O180 O 0.40182 0.60383 0.86885 0.0
O181 O 0.41988 0.68959 0.87764 0.0
C182 C 0.72536 0.43311 0.05381 0.0
O183 O 0.75401 0.45579 0.04745 0.0
Cd184 Cd 0.80194 0.45087 0.04041 0.0
O185 O 0.71979 0.40431 0.05724 0.0
Cd186 Cd 0.7523 0.37564 0.05552 0.0
C187 C 0.80778 0.42195 0.10583 0.0
O188 O 0.78669 0.40292 0.01419 0.0
O189 O 0.80108 0.3744 0.03962 0.0
O190 O 0.71123 0.32754 0.03073 0.0
C191 C 0.80593 0.39171 0.01776 0.0
O192 O 0.81966 0.44434 0.08726 0.0
C193 C 0.70649 0.30777 0.05067 0.0
O194 O 0.78179 0.39508 0.10076 0.0
O195 O 0.72201 0.31964 0.07373 0.0
C196 C 0.30863 0.72885 0.21669 0.0
O197 O 0.30921 0.75147 0.20209 0.0
Cd198 Cd 0.35873 0.79924 0.18803 0.0
O199 O 0.33542 0.73018 0.22435 0.0
Cd200 Cd 0.39643 0.76564 0.21917 0.0
C201 C 0.39585 0.82687 0.25397 0.0
O202 O 0.3969 0.78436 0.17085 0.0
O203 O 0.44185 0.81127 0.19463 0.0
O204 O 0.39514 0.71445 0.21267 0.0
C205 C 0.42628 0.80773 0.17166 0.0
O206 O 0.3825 0.82989 0.23143 0.0
C207 C 0.42084 0.72175 0.22705 0.0
O208 O 0.40142 0.80345 0.25689 0.0
O209 O 0.43551 0.74963 0.23831 0.0
H210 H 0.12064 0.64311 0.26299 0.0
H211 H 0.13147 0.56337 0.29352 0.0
H212 H 0.18628 0.58736 0.2709 0.0
H213 H 0.16797 0.65662 0.19414 0.0
H214 H 0.18574 0.69976 0.19708 0.0
H215 H 0.14503 0.67317 0.21084 0.0
H216 H 0.16353 0.70088 0.26003 0.0
H217 H 0.20436 0.7271 0.24668 0.0
H218 H 0.19852 0.70231 0.27746 0.0
H219 H 0.24315 0.62445 0.25266 0.0
H220 H 0.29638 0.66989 0.23648 0.0
H221 H 0.24837 0.7252 0.21692 0.0
C222 C 0.13393 0.62999 0.26374 0.0
C223 C 0.12175 0.60123 0.27969 0.0
C224 C 0.14035 0.58532 0.28118 0.0
C225 C 0.17147 0.59877 0.26842 0.0
C226 C 0.18352 0.62799 0.25401 0.0
C227 C 0.1651 0.64315 0.25113 0.0
C228 C 0.18497 0.67585 0.23701 0.0
C229 C 0.17004 0.67637 0.20804 0.0
C230 C 0.18802 0.70312 0.25647 0.0
C231 C 0.2178 0.67727 0.2335 0.0
C232 C 0.21639 0.64933 0.2432 0.0
C233 C 0.24437 0.64616 0.24439 0.0
C234 C 0.27455 0.67218 0.23534 0.0
C235 C 0.27652 0.701 0.22522 0.0
C236 C 0.2476 0.70329 0.22406 0.0
H237 H 0.5618 0.15641 0.48618 0.0
H238 H 0.52592 0.1049 0.40634 0.0
H239 H 0.54739 0.15737 0.38127 0.0
H240 H 0.5439 0.21768 0.47352 0.0
H241 H 0.58042 0.24856 0.49089 0.0
H242 H 0.56287 0.20711 0.50172 0.0
H243 H 0.61872 0.20977 0.49257 0.0
H244 H 0.63654 0.25133 0.48173 0.0
H245 H 0.63804 0.22234 0.4582 0.0
H246 H 0.57109 0.21684 0.3659 0.0
H247 H 0.5944 0.27606 0.3619 0.0
H248 H 0.61741 0.28625 0.45198 0.0
C249 C 0.55916 0.15584 0.46329 0.0
C250 C 0.54268 0.12632 0.4482 0.0
C251 C 0.53851 0.12712 0.4184 0.0
C252 C 0.5508 0.15682 0.40398 0.0
C253 C 0.56734 0.18541 0.41968 0.0
C254 C 0.57161 0.18495 0.44869 0.0
C255 C 0.5895 0.21854 0.46116 0.0
C256 C 0.56787 0.22323 0.4831 0.0
C257 C 0.62267 0.22592 0.47417 0.0
C258 C 0.59438 0.23831 0.4347 0.0
C259 C 0.58146 0.21896 0.41091 0.0
C260 C 0.58162 0.23213 0.38437 0.0
C261 C 0.59492 0.26577 0.38228 0.0
C262 C 0.60805 0.28581 0.40657 0.0
C263 C 0.60811 0.27174 0.43291 0.0
H264 H 0.37052 0.52447 0.66295 0.0
H265 H 0.40554 0.49658 0.58856 0.0
H266 H 0.37959 0.51942 0.55772 0.0
H267 H 0.29514 0.50931 0.63683 0.0
H268 H 0.29642 0.5441 0.653 0.0
H269 H 0.31834 0.52621 0.66906 0.0
H270 H 0.37261 0.58126 0.66708 0.0
H271 H 0.35084 0.59946 0.65112 0.0
H272 H 0.38636 0.60222 0.63362 0.0
H273 H 0.34476 0.54062 0.53525 0.0
H274 H 0.30768 0.56201 0.52325 0.0
H275 H 0.30248 0.58219 0.61225 0.0
C276 C 0.37388 0.5239 0.64025 0.0
C277 C 0.39042 0.50865 0.6284 0.0
C278 C 0.39268 0.5076 0.59836 0.0
C279 C 0.37827 0.52082 0.58061 0.0
C280 C 0.36228 0.53565 0.59317 0.0
C281 C 0.36054 0.5377 0.62232 0.0
C282 C 0.34177 0.5546 0.63069 0.0
C283 C 0.31111 0.53221 0.64843 0.0
C284 C 0.36424 0.58627 0.64656 0.0
C285 C 0.3324 0.56104 0.60165 0.0
C286 C 0.34427 0.54976 0.58023 0.0
C287 C 0.33608 0.55027 0.55178 0.0
C288 C 0.31507 0.5624 0.54515 0.0
C289 C 0.30315 0.5744 0.5668 0.0
C290 C 0.31227 0.5741 0.59529 0.0
H291 H 0.90114 0.37594 0.77579 0.0
H292 H 0.89194 0.45912 0.7975 0.0
H293 H 0.83684 0.4334 0.77506 0.0
H294 H 0.8531 0.35525 0.70696 0.0
H295 H 0.83489 0.31262 0.71388 0.0
H296 H 0.87584 0.34032 0.72654 0.0
H297 H 0.8576 0.31832 0.77765 0.0
H298 H 0.8165 0.2911 0.76535 0.0
H299 H 0.82309 0.31935 0.79345 0.0
H300 H 0.77959 0.39508 0.75715 0.0
H301 H 0.72624 0.34868 0.74223 0.0
H302 H 0.77311 0.29054 0.73278 0.0
C303 C 0.88814 0.38932 0.77459 0.0
C304 C 0.90089 0.41967 0.78792 0.0
C305 C 0.88265 0.43598 0.78704 0.0
C306 C 0.85135 0.42154 0.77441 0.0
C307 C 0.83874 0.39085 0.76264 0.0
C308 C 0.85679 0.37513 0.76222 0.0
C309 C 0.83645 0.34108 0.75092 0.0
C310 C 0.85093 0.33709 0.72291 0.0
C311 C 0.83322 0.31601 0.77317 0.0
C312 C 0.80385 0.3397 0.74601 0.0
C313 C 0.80569 0.3687 0.7526 0.0
C314 C 0.77802 0.37243 0.75142 0.0
C315 C 0.74776 0.34588 0.74311 0.0
C316 C 0.74541 0.31594 0.73623 0.0
C317 C 0.77401 0.3131 0.73763 0.0
H318 H 0.45186 0.86357 0.97187 0.0
H319 H 0.50091 0.91791 0.89573 0.0
H320 H 0.48189 0.86621 0.87008 0.0
H321 H 0.47051 0.80321 0.96438 0.0
H322 H 0.43174 0.77253 0.97881 0.0
H323 H 0.44836 0.81395 -0.01081 0.0
H324 H 0.39367 0.81094 0.97301 0.0
H325 H 0.37754 0.76965 0.96201 0.0
H326 H 0.37943 0.79912 0.93701 0.0
H327 H 0.46178 0.80636 0.85516 0.0
H328 H 0.44076 0.74724 0.85241 0.0
H329 H 0.40156 0.73607 0.93776 0.0
C330 C 0.45766 0.86532 0.94947 0.0
C331 C 0.47755 0.8954 0.93593 0.0
C332 C 0.48575 0.89541 0.90684 0.0
C333 C 0.47487 0.86609 0.89202 0.0
C334 C 0.45547 0.837 0.90644 0.0
C335 C 0.44667 0.83673 0.93447 0.0
C336 C 0.42718 0.80297 0.94622 0.0
C337 C 0.44553 0.79788 0.9711 0.0
C338 C 0.39239 0.79522 0.95507 0.0
C339 C 0.42631 0.78385 0.9205 0.0
C340 C 0.44297 0.80357 0.89769 0.0
C341 C 0.44807 0.79079 0.87272 0.0
C342 C 0.4361 0.75723 0.87134 0.0
C343 C 0.41906 0.73697 0.8947 0.0
C344 C 0.41375 0.75065 0.91923 0.0
H345 H 0.65476 0.54194 0.11132 0.0
H346 H 0.55825 0.456 0.11143 0.0
H347 H 0.58029 0.42687 0.0841 0.0
H348 H 0.68196 0.52754 0.03875 0.0
H349 H 0.72348 0.54315 0.05149 0.0
H350 H 0.69852 0.55903 0.06522 0.0
H351 H 0.70877 0.54595 0.11639 0.0
H352 H 0.73311 0.52945 0.10292 0.0
H353 H 0.698 0.50512 0.12524 0.0
H354 H 0.61488 0.40421 0.06622 0.0
H355 H 0.65852 0.39129 0.05475 0.0
H356 H 0.73235 0.49233 0.06497 0.0
C357 C 0.63796 0.51754 0.10426 0.0
C358 C 0.60476 0.50129 0.11316 0.0
C359 C 0.58372 0.46891 0.10456 0.0
C360 C 0.59604 0.45218 0.08907 0.0
C361 C 0.62937 0.46831 0.08202 0.0
C362 C 0.64992 0.50051 0.08878 0.0
C363 C 0.68542 0.5112 0.08155 0.0
C364 C 0.69809 0.53674 0.05783 0.0
C365 C 0.7076 0.52364 0.1081 0.0
C366 C 0.68184 0.47965 0.07108 0.0
C367 C 0.6493 0.45525 0.07122 0.0
C368 C 0.64036 0.4233 0.06525 0.0
C369 C 0.66531 0.41613 0.05896 0.0
C370 C 0.6988 0.44083 0.05865 0.0
C371 C 0.70694 0.47301 0.06441 0.0
H372 H 0.38634 0.86717 0.45914 0.0
H373 H 0.43463 0.92441 0.5342 0.0
H374 H 0.40741 0.87467 0.56352 0.0
H375 H 0.31098 0.80996 0.49028 0.0
H376 H 0.30776 0.77672 0.46967 0.0
H377 H 0.3295 0.81707 0.45549 0.0
H378 H 0.38149 0.81191 0.44807 0.0
H379 H 0.35994 0.77151 0.46221 0.0
H380 H 0.39848 0.8012 0.47777 0.0
H381 H 0.37281 0.81712 0.58445 0.0
H382 H 0.33752 0.75839 0.59405 0.0
H383 H 0.31908 0.74076 0.50367 0.0
C384 C 0.392 0.86955 0.48163 0.0
C385 C 0.41318 0.89993 0.49417 0.0
C386 C 0.41841 0.90155 0.524 0.0
C387 C 0.4032 0.87337 0.54081 0.0
C388 C 0.38316 0.84378 0.52742 0.0
C389 C 0.37791 0.84186 0.49841 0.0
C390 C 0.35644 0.80743 0.48861 0.0
C391 C 0.32427 0.80253 0.47524 0.0
C392 C 0.37522 0.79743 0.46795 0.0
C393 C 0.35013 0.79 0.51666 0.0
C394 C 0.36527 0.81121 0.53897 0.0
C395 C 0.36124 0.80035 0.56705 0.0
C396 C 0.3412 0.76704 0.57232 0.0
C397 C 0.3261 0.7451 0.54955 0.0
C398 C 0.33091 0.75688 0.52146 0.0
H399 H 0.54749 0.41845 0.6625 0.0
H400 H 0.45119 0.35745 0.70016 0.0
H401 H 0.47317 0.3275 0.72607 0.0
H402 H 0.5597 0.35619 0.64545 0.0
H403 H 0.60356 0.37716 0.65145 0.0
H404 H 0.58346 0.39952 0.64208 0.0
H405 H 0.60668 0.43457 0.68741 0.0
H406 H 0.62725 0.41253 0.69683 0.0
H407 H 0.59952 0.4153 0.7217 0.0
H408 H 0.50275 0.29857 0.74163 0.0
H409 H 0.53675 0.27259 0.74484 0.0
H410 H 0.61196 0.34892 0.69297 0.0
C411 C 0.53107 0.39923 0.67664 0.0
C412 C 0.49748 0.39043 0.67916 0.0
C413 C 0.47711 0.36524 0.69815 0.0
C414 C 0.48937 0.34788 0.71287 0.0
C415 C 0.52202 0.35592 0.70839 0.0
C416 C 0.54264 0.38114 0.6908 0.0
C417 C 0.57509 0.382 0.68618 0.0
C418 C 0.58075 0.3785 0.65442 0.0
C419 C 0.60384 0.41294 0.69879 0.0
C420 C 0.56901 0.35251 0.70298 0.0
C421 C 0.53862 0.3383 0.71624 0.0
C422 C 0.52678 0.30975 0.73168 0.0
C423 C 0.54627 0.29513 0.73332 0.0
C424 C 0.57704 0.30872 0.71915 0.0
C425 C 0.58866 0.33806 0.70417 0.0
H426 H 0.16326 0.54384 0.81607 0.0
H427 H 0.09619 0.49802 0.88686 0.0
H428 H 0.1439 0.51146 0.9181 0.0
H429 H 0.22111 0.52076 0.83287 0.0
H430 H 0.25626 0.55856 0.82231 0.0
H431 H 0.21685 0.54522 0.80586 0.0
H432 H 0.2194 0.59875 0.82025 0.0
H433 H 0.25895 0.61239 0.83663 0.0
H434 H 0.22575 0.61109 0.85702 0.0
H435 H 0.19975 0.52767 0.94067 0.0
H436 H 0.25822 0.54775 0.95308 0.0
H437 H 0.28739 0.58732 0.86816 0.0
C438 C 0.15827 0.53728 0.83828 0.0
C439 C 0.12569 0.52008 0.84893 0.0
C440 C 0.12078 0.51097 0.87801 0.0
C441 C 0.14777 0.5187 0.89598 0.0
C442 C 0.17948 0.5359 0.88464 0.0
C443 C 0.18473 0.54537 0.85651 0.0
C444 C 0.22101 0.56369 0.84926 0.0
C445 C 0.22928 0.54599 0.82622 0.0
C446 C 0.23191 0.59855 0.84027 0.0
C447 C 0.23556 0.56277 0.87767 0.0
C448 C 0.2113 0.54643 0.89782 0.0
C449 C 0.21892 0.54089 0.92517 0.0
C450 C 0.25214 0.5523 0.932 0.0
C451 C 0.27729 0.56943 0.91168 0.0
C452 C 0.26876 0.57489 0.8843 0.0
H453 H 0.62077 0.14923 0.95687 0.0
H454 H 0.5884 0.09169 0.03397 0.0
H455 H 0.61642 0.14201 0.06266 0.0
H456 H 0.69893 0.21097 0.98122 0.0
H457 H 0.69627 0.2425 0.9625 0.0
H458 H 0.67529 0.20189 0.94885 0.0
H459 H 0.62014 0.20223 0.9489 0.0
H460 H 0.6409 0.24281 0.96265 0.0
H461 H 0.606 0.21139 0.98134 0.0
H462 H 0.64882 0.20036 0.08246 0.0
H463 H 0.68091 0.25948 0.09106 0.0
H464 H 0.68646 0.27637 9e-05 0.0
C465 C 0.61901 0.14694 0.9798 0.0
C466 C 0.60185 0.11638 -0.00688 0.0
C467 C 0.60141 0.11478 0.02324 0.0
C468 C 0.6171 0.14325 0.03968 0.0
C469 C 0.63296 0.17301 0.02563 0.0
C470 C 0.63384 0.17483 -0.00369 0.0
C471 C 0.65153 0.20934 0.98593 0.0
C472 C 0.68233 0.21659 0.96861 0.0
C473 C 0.62824 0.21687 0.9687 0.0
C474 C 0.66066 0.22699 0.01399 0.0
C475 C 0.6501 0.20583 0.03675 0.0
C476 C 0.65692 0.21703 0.06474 0.0
C477 C 0.67511 0.25061 0.06943 0.0
C478 C 0.68582 0.2725 0.04625 0.0
C479 C 0.67818 0.26033 0.01828 0.0
H480 H 0.55246 0.67043 0.19294 0.0
H481 H 0.47149 0.57204 0.19047 0.0
H482 H 0.43558 0.58898 0.21427 0.0
H483 H 0.52698 0.69535 0.2625 0.0
H484 H 0.54004 0.73491 0.24815 0.0
H485 H 0.56144 0.71377 0.23839 0.0
H486 H 0.55148 0.72031 0.18526 0.0
H487 H 0.52956 0.74082 0.19472 0.0
H488 H 0.50993 0.70519 0.17273 0.0
H489 H 0.40578 0.61791 0.2263 0.0
H490 H 0.38511 0.65625 0.22985 0.0
H491 H 0.48524 0.73649 0.22655 0.0
C492 C 0.52775 0.6523 0.19911 0.0
C493 C 0.51486 0.61981 0.19086 0.0
C494 C 0.48192 0.59681 0.19756 0.0
C495 C 0.46137 0.6063 0.21093 0.0
C496 C 0.47427 0.63886 0.21756 0.0
C497 C 0.50694 0.66149 0.21244 0.0
C498 C 0.51343 0.69548 0.21786 0.0
C499 C 0.53686 0.71078 0.24324 0.0
C500 C 0.52687 0.71666 0.19105 0.0
C501 C 0.47898 0.6886 0.22504 0.0
C502 C 0.45685 0.65574 0.22512 0.0
C503 C 0.42299 0.6436 0.2273 0.0
C504 C 0.41144 0.66553 0.22914 0.0
C505 C 0.43366 0.6992 0.22904 0.0
C506 C 0.46787 0.71082 0.22765 0.0
H507 H 0.87477 0.46223 0.34844 0.0
H508 H 0.92042 0.56634 0.35781 0.0
H509 H 0.87459 0.55873 0.38822 0.0
H510 H 0.79827 0.45086 0.33533 0.0
H511 H 0.77538 0.41242 0.35304 0.0
H512 H 0.81553 0.42473 0.3388 0.0
H513 H 0.8353 0.41735 0.38825 0.0
H514 H 0.79499 0.40466 0.40266 0.0
H515 H 0.83094 0.43781 0.4187 0.0
H516 H 0.8203 0.54112 0.41064 0.0
H517 H 0.76146 0.51519 0.42248 0.0
H518 H 0.74784 0.42276 0.39435 0.0
C519 C 0.87558 0.48352 0.35724 0.0
C520 C 0.90159 0.51494 0.35054 0.0
C521 C 0.9015 0.54195 0.36293 0.0
C522 C 0.8753 0.53789 0.38018 0.0
C523 C 0.84921 0.50672 0.38482 0.0
C524 C 0.84916 0.47995 0.37377 0.0
C525 C 0.81611 0.4496 0.37823 0.0
C526 C 0.80041 0.43348 0.34965 0.0
C527 C 0.81955 0.42596 0.39815 0.0
C528 C 0.7971 0.46372 0.39237 0.0
C529 C 0.81697 0.49657 0.39666 0.0
C530 C 0.80463 0.51535 0.40778 0.0
C531 C 0.77104 0.50033 0.41434 0.0
C532 C 0.74987 0.46685 0.40933 0.0
C533 C 0.76334 0.4483 0.39862 0.0
H534 H 0.10574 0.55678 0.37545 0.0
H535 H 0.0597 0.61497 0.38944 0.0
H536 H 0.08317 0.62791 0.43776 0.0
H537 H 0.10241 0.52922 0.45091 0.0
H538 H 0.14254 0.53305 0.44773 0.0
H539 H 0.11594 0.52231 0.4171 0.0
H540 H 0.16219 0.57059 0.38946 0.0
H541 H 0.18871 0.58184 0.42003 0.0
H542 H 0.17959 0.61074 0.40399 0.0
H543 H 0.11896 0.64193 0.48102 0.0
H544 H 0.16235 0.65394 0.51667 0.0
H545 H 0.18734 0.58902 0.47314 0.0
C546 C 0.09984 0.57153 0.38896 0.0
C547 C 0.08075 0.58473 0.37867 0.0
C548 C 0.07368 0.60402 0.39698 0.0
C549 C 0.08711 0.61169 0.42445 0.0
C550 C 0.10739 0.59976 0.43329 0.0
C551 C 0.11341 0.57976 0.4162 0.0
C552 C 0.13908 0.57326 0.42919 0.0
C553 C 0.12408 0.53732 0.43668 0.0
C554 C 0.16916 0.58481 0.4095 0.0
C555 C 0.14759 0.59382 0.45568 0.0
C556 C 0.12866 0.60847 0.45794 0.0
C557 C 0.13352 0.63014 0.47975 0.0
C558 C 0.15833 0.63694 0.49979 0.0
C559 C 0.17818 0.62239 0.49766 0.0
C560 C 0.17247 0.6004 0.4754 0.0
H561 H 0.50208 0.07627 0.55575 0.0
H562 H 0.59239 0.08296 0.52528 0.0
H563 H 0.62169 0.11459 0.56787 0.0
H564 H 0.53458 0.15223 0.57345 0.0
H565 H 0.51094 0.14798 0.60502 0.0
H566 H 0.49419 0.11737 0.57803 0.0
H567 H 0.48608 0.07337 0.61443 0.0
H568 H 0.50167 0.10361 0.64203 0.0
H569 H 0.52026 0.07897 0.63616 0.0
H570 H 0.64341 0.15592 0.60615 0.0
H571 H 0.65508 0.19922 0.64065 0.0
H572 H 0.55066 0.16685 0.64572 0.0
C573 C 0.52747 0.08253 0.55908 0.0
C574 C 0.54491 0.07666 0.53771 0.0
C575 C 0.57857 0.08668 0.54184 0.0
C576 C 0.59538 0.1048 0.56587 0.0
C577 C 0.57804 0.11244 0.58552 0.0
C578 C 0.5446 0.101 0.58274 0.0
C579 C 0.53279 0.11671 0.6041 0.0
C580 C 0.51724 0.13463 0.58924 0.0
C581 C 0.50878 0.09167 0.62545 0.0
C582 C 0.56507 0.14008 0.6182 0.0
C583 C 0.59078 0.1369 0.60752 0.0
C584 C 0.62336 0.15802 0.61525 0.0
C585 C 0.62977 0.18276 0.63462 0.0
C586 C 0.60373 0.18629 0.64592 0.0
C587 C 0.571 0.16449 0.63769 0.0
H588 H 0.4495 0.5504 0.71812 0.0
H589 H 0.40642 0.44904 0.74105 0.0
H590 H 0.40264 0.46244 0.79054 0.0
H591 H 0.4913 0.58641 0.78718 0.0
H592 H 0.47985 0.6172 0.78547 0.0
H593 H 0.48713 0.60144 0.75317 0.0
H594 H 0.42913 0.58695 0.735 0.0
H595 H 0.42146 0.60219 0.76731 0.0
H596 H 0.3935 0.56128 0.75629 0.0
H597 H 0.39528 0.48435 0.83564 0.0
H598 H 0.38543 0.5137 0.87373 0.0
H599 H 0.42763 0.59997 0.82112 0.0
C600 C 0.43971 0.53096 0.7335 0.0
C601 C 0.42849 0.49858 0.72525 0.0
C602 C 0.41618 0.47418 0.74648 0.0
C603 C 0.41359 0.48149 0.77482 0.0
C604 C 0.4231 0.51324 0.78175 0.0
C605 C 0.43603 0.53766 0.76177 0.0
C606 C 0.44022 0.56887 0.77395 0.0
C607 C 0.47681 0.59503 0.77501 0.0
C608 C 0.41986 0.58048 0.75714 0.0
C609 C 0.42645 0.55776 0.80356 0.0
C610 C 0.41741 0.52577 0.80773 0.0
C611 C 0.40269 0.50954 0.83281 0.0
C612 C 0.39707 0.52644 0.85428 0.0
C613 C 0.40573 0.55917 0.85044 0.0
C614 C 0.42077 0.575 0.82472 0.0
H615 H 0.91605 0.46941 0.88115 0.0
H616 H 0.96212 0.41223 0.90015 0.0
H617 H 0.93613 0.39963 0.94746 0.0
H618 H 0.91337 0.49651 0.95638 0.0
H619 H 0.87324 0.49183 0.95023 0.0
H620 H 0.90242 0.50362 0.92144 0.0
H621 H 0.85916 0.45539 0.89167 0.0
H622 H 0.83013 0.44302 0.92042 0.0
H623 H 0.84143 0.41504 0.90583 0.0
H624 H 0.89701 0.38441 -0.01184 0.0
H625 H 0.84998 0.3701 0.02019 0.0
H626 H 0.82667 0.43435 0.97326 0.0
C627 C 0.92154 0.4551 0.89563 0.0
C628 C 0.9412 0.44189 0.88694 0.0
C629 C 0.94769 0.42317 0.90645 0.0
C630 C 0.93283 0.41568 0.93336 0.0
C631 C 0.91173 0.42726 0.94046 0.0
C632 C 0.90644 0.44697 0.92229 0.0
C633 C 0.87926 0.45254 0.93309 0.0
C634 C 0.8929 0.48825 0.94075 0.0
C635 C 0.85083 0.44078 0.91147 0.0
C636 C 0.86894 0.43157 0.95941 0.0
C637 C 0.8884 0.41774 0.96363 0.0
C638 C 0.88204 0.39562 0.98542 0.0
C639 C 0.85515 0.38749 0.00338 0.0
C640 C 0.83471 0.40114 -0.0008 0.0
C641 C 0.84197 0.42366 0.97707 0.0
H642 H 0.44584 0.88215 0.01889 0.0
H643 H 0.51248 0.97717 0.05444 0.0
H644 H 0.5013 0.95285 0.10211 0.0
H645 H 0.38534 0.85618 0.07882 0.0
H646 H 0.37628 0.81504 0.07487 0.0
H647 H 0.38718 0.84101 0.04419 0.0
H648 H 0.43337 0.8285 0.03295 0.0
H649 H 0.42422 0.8037 0.06408 0.0
H650 H 0.4652 0.83741 0.05888 0.0
H651 H 0.48979 0.91592 0.14481 0.0
H652 H 0.47155 0.87154 0.17975 0.0
H653 H 0.40826 0.80304 0.11596 0.0
C654 C 0.45732 0.89881 0.03624 0.0
C655 C 0.48079 0.93197 0.03194 0.0
C656 C 0.49527 0.9516 0.05636 0.0
C657 C 0.48882 0.93804 0.08379 0.0
C658 C 0.4669 0.90504 0.08668 0.0
C659 C 0.45049 0.886 0.0636 0.0
C660 C 0.42876 0.85097 0.07195 0.0
C661 C 0.39222 0.84017 0.06719 0.0
C662 C 0.43853 0.82888 0.05603 0.0
C663 C 0.43677 0.85289 0.1032 0.0
C664 C 0.45883 0.88425 0.11139 0.0
C665 C 0.47191 0.89145 0.13878 0.0
C666 C 0.46168 0.86605 0.15836 0.0
C667 C 0.43839 0.83394 0.15048 0.0
C668 C 0.42578 0.82742 0.12259 0.0
H669 H 0.6038 0.53635 0.23697 0.0
H670 H 0.53432 0.44658 0.19559 0.0
H671 H 0.53455 0.41622 0.23798 0.0
H672 H 0.65208 0.51078 0.26699 0.0
H673 H 0.65959 0.53208 0.30025 0.0
H674 H 0.6501 0.54745 0.26893 0.0
H675 H 0.60083 0.54678 0.2945 0.0
H676 H 0.61065 0.53221 0.32628 0.0
H677 H 0.56989 0.51012 0.3112 0.0
H678 H 0.55042 0.39554 0.28071 0.0
H679 H 0.57402 0.38628 0.3244 0.0
H680 H 0.63018 0.48964 0.33903 0.0
C681 C 0.58744 0.51045 0.23725 0.0
C682 C 0.56915 0.49384 0.2129 0.0
C683 C 0.5488 0.45978 0.21392 0.0
C684 C 0.54871 0.44234 0.23791 0.0
C685 C 0.56851 0.45937 0.26092 0.0
C686 C 0.58677 0.49273 0.26113 0.0
C687 C 0.60757 0.50514 0.28776 0.0
C688 C 0.64451 0.52502 0.28052 0.0
C689 C 0.59656 0.52471 0.30602 0.0
C690 C 0.59919 0.47354 0.30191 0.0
C691 C 0.57664 0.44739 0.28611 0.0
C692 C 0.56744 0.41578 0.29365 0.0
C693 C 0.58121 0.41077 0.31828 0.0
C694 C 0.60366 0.43724 0.33511 0.0
C695 C 0.61263 0.46895 0.32678 0.0
H696 H 0.46875 0.91185 0.40307 0.0
H697 H 0.4291 0.97464 0.38339 0.0
H698 H 0.41755 0.95359 0.33463 0.0
H699 H 0.50034 0.90944 0.33019 0.0
H700 H 0.48696 0.86709 0.33368 0.0
H701 H 0.49989 0.89272 0.36467 0.0
H702 H 0.44407 0.85419 0.38882 0.0
H703 H 0.43065 0.82882 0.35779 0.0
H704 H 0.40628 0.84546 0.37127 0.0
H705 H 0.40124 0.91973 0.29132 0.0
H706 H 0.38428 0.87743 0.25497 0.0
H707 H 0.43027 0.83314 0.30351 0.0
C708 C 0.45832 0.92177 0.38838 0.0
C709 C 0.44992 0.94503 0.39731 0.0
C710 C 0.43653 0.95742 0.37717 0.0
C711 C 0.42954 0.94535 0.34937 0.0
C712 C 0.43604 0.92089 0.34196 0.0
C713 C 0.45047 0.90944 0.36074 0.0
C714 C 0.45108 0.88033 0.34868 0.0
C715 C 0.48669 0.88786 0.34402 0.0
C716 C 0.43187 0.85045 0.36778 0.0
C717 C 0.43358 0.87648 0.32064 0.0
C718 C 0.42563 0.90048 0.31704 0.0
C719 C 0.40782 0.90114 0.29364 0.0
C720 C 0.39811 0.87681 0.27318 0.0
C721 C 0.40593 0.85188 0.27632 0.0
C722 C 0.42398 0.85186 0.30042 0.0
H723 H 0.54166 0.44681 0.5893 0.0
H724 H 0.43952 0.39164 0.5627 0.0
H725 H 0.45725 0.38325 0.51557 0.0
H726 H 0.57837 0.48205 0.51797 0.0
H727 H 0.61362 0.47746 0.52499 0.0
H728 H 0.59325 0.48522 0.55386 0.0
H729 H 0.58571 0.43404 0.57965 0.0
H730 H 0.60535 0.42567 0.55071 0.0
H731 H 0.56452 0.39559 0.56175 0.0
H732 H 0.4854 0.37296 0.47485 0.0
H733 H 0.52203 0.36489 0.44232 0.0
H734 H 0.6055 0.42492 0.4967 0.0
C735 C 0.52309 0.43386 0.57321 0.0
C736 C 0.48925 0.42 0.57956 0.0
C737 C 0.4656 0.40296 0.55811 0.0
C738 C 0.47545 0.39789 0.53135 0.0
C739 C 0.50898 0.41022 0.52642 0.0
C740 C 0.53248 0.4283 0.54663 0.0
C741 C 0.56651 0.43578 0.53746 0.0
C742 C 0.58928 0.4723 0.53331 0.0
C743 C 0.58137 0.42193 0.55865 0.0
C744 C 0.55835 0.41806 0.50938 0.0
C745 C 0.52514 0.40382 0.50318 0.0
C746 C 0.51153 0.3845 0.47922 0.0
C747 C 0.53249 0.37988 0.46098 0.0
C748 C 0.5666 0.39434 0.46698 0.0
C749 C 0.57957 0.41371 0.49147 0.0
H750 H 0.0738 0.49657 0.73138 0.0
H751 H 0.10536 0.5865 0.77635 0.0
H752 H 0.1351 0.61698 0.73345 0.0
H753 H 0.14556 0.5179 0.69966 0.0
H754 H 0.12961 0.49802 0.66605 0.0
H755 H 0.10477 0.48312 0.69753 0.0
H756 H 0.05802 0.48868 0.67366 0.0
H757 H 0.08232 0.50279 0.64166 0.0
H758 H 0.06708 0.52676 0.6582 0.0
H759 H 0.16986 0.63689 0.68948 0.0
H760 H 0.202 0.64509 0.64554 0.0
H761 H 0.1467 0.54195 0.62918 0.0
C762 C 0.0855 0.52266 0.73175 0.0
C763 C 0.08711 0.5392 0.75708 0.0
C764 C 0.10378 0.57341 0.75708 0.0
C765 C 0.12072 0.59089 0.73283 0.0
C766 C 0.1203 0.57377 0.7087 0.0
C767 C 0.10247 0.5404 0.70775 0.0
C768 C 0.10872 0.52766 0.6804 0.0
C769 C 0.12302 0.50538 0.68629 0.0
C770 C 0.07716 0.51046 0.66241 0.0
C771 C 0.13398 0.55896 0.6667 0.0
C772 C 0.14016 0.58532 0.68319 0.0
C773 C 0.16465 0.61651 0.67604 0.0
C774 C 0.18299 0.62088 0.6512 0.0
C775 C 0.17674 0.59418 0.63385 0.0
C776 C 0.15176 0.56291 0.64176 0.0
H777 H 0.58765 0.06443 0.88011 0.0
H778 H 0.51391 0.08384 0.91521 0.0
H779 H 0.51514 0.11264 0.87118 0.0
H780 H 0.63604 0.13748 0.854 0.0
H781 H 0.64875 0.12645 0.82174 0.0
H782 H 0.63593 0.09977 0.85183 0.0
H783 H 0.59137 0.05314 0.82154 0.0
H784 H 0.60466 0.07938 0.79093 0.0
H785 H 0.56207 0.05939 0.80174 0.0
H786 H 0.53349 0.14921 0.82921 0.0
H787 H 0.5632 0.18618 0.78952 0.0
H788 H 0.62531 0.14312 0.7815 0.0
C789 C 0.57038 0.07309 0.87776 0.0
C790 C 0.55029 0.07155 0.9007 0.0
C791 C 0.52907 0.08443 0.89757 0.0
C792 C 0.5297 0.10088 0.8727 0.0
C793 C 0.55148 0.10392 0.85115 0.0
C794 C 0.57093 0.08975 0.85313 0.0
C795 C 0.59532 0.10016 0.82882 0.0
C796 C 0.6311 0.11696 0.83977 0.0
C797 C 0.5879 0.0713 0.80961 0.0
C798 C 0.58782 0.12373 0.81379 0.0
C799 C 0.56218 0.12525 0.82676 0.0
C800 C 0.553 0.14761 0.81839 0.0
C801 C 0.57026 0.16874 0.79602 0.0
C802 C 0.59649 0.16744 0.78232 0.0
C803 C 0.60507 0.14439 0.79126 0.0
H804 H 0.47724 0.5836 0.09617 0.0
H805 H 0.58077 0.63554 0.07314 0.0
H806 H 0.56614 0.64699 0.02577 0.0
H807 H 0.44375 0.55075 0.02522 0.0
H808 H 0.40894 0.55658 0.03011 0.0
H809 H 0.42732 0.54844 0.06034 0.0
H810 H 0.43549 0.60061 0.08465 0.0
H811 H 0.41759 0.60916 0.05439 0.0
H812 H 0.45821 0.63871 0.06639 0.0
H813 H 0.54055 0.65733 0.98277 0.0
H814 H 0.50583 0.66402 0.94687 0.0
H815 H 0.41966 0.60783 -0.00037 0.0
C816 C 0.49685 0.59701 0.08105 0.0
C817 C 0.53016 0.60864 0.08836 0.0
C818 C 0.55504 0.62591 0.06788 0.0
C819 C 0.54699 0.63274 0.04099 0.0
C820 C 0.51398 0.62205 0.03496 0.0
C821 C 0.4893 0.60432 0.05435 0.0
C822 C 0.45604 0.59763 0.0436 0.0
C823 C 0.43264 0.56119 0.03957 0.0
C824 C 0.44097 0.61242 0.06343 0.0
C825 C 0.46594 0.61503 0.01537 0.0
C826 C 0.49939 0.62866 0.0106 0.0
C827 C 0.5143 0.64653 0.98617 0.0
C828 C 0.49442 0.6503 0.96598 0.0
C829 C 0.46011 0.63651 0.97054 0.0
C830 C 0.44584 0.61875 -0.00439 0.0
H831 H 0.93609 0.5264 0.22602 0.0
H832 H 0.89863 0.43891 0.27622 0.0
H833 H 0.86412 0.40703 0.23564 0.0
H834 H 0.86324 0.50887 0.19529 0.0
H835 H 0.87947 0.5257 0.16077 0.0
H836 H 0.90533 0.54102 0.1917 0.0
H837 H 0.94832 0.52897 0.16879 0.0
H838 H 0.92294 0.51427 0.1374 0.0
H839 H 0.93542 0.48896 0.15567 0.0
H840 H 0.82803 0.38617 0.19216 0.0
H841 H 0.79691 0.37717 0.14737 0.0
H842 H 0.8588 0.47854 0.12596 0.0
C843 C 0.92172 0.50038 0.22807 0.0
C844 C 0.92018 0.48505 0.25412 0.0
C845 C 0.90016 0.45105 0.25634 0.0
C846 C 0.88051 0.43278 0.23344 0.0
C847 C 0.88145 0.44887 0.20844 0.0
C848 C 0.90199 0.48184 0.20546 0.0
C849 C 0.89657 0.49371 0.17727 0.0
C850 C 0.88549 0.51879 0.18154 0.0
C851 C 0.92766 0.50727 0.15868 0.0
C852 C 0.86907 0.46249 0.16526 0.0
C853 C 0.86077 0.43684 0.18343 0.0
C854 C 0.83471 0.40597 0.17752 0.0
C855 C 0.81701 0.40115 0.15216 0.0
C856 C 0.82547 0.4271 0.1331 0.0
C857 C 0.85186 0.4581 0.13991 0.0
loop_
_geom_bond_atom_site_label_1
_geom_bond_atom_site_label_2
_geom_bond_distance
_geom_bond_site_symmetry_2
_ccdc_geom_bond_type
H0 C8 0.930 . S
H1 C11 0.930 . S
H2 C13 0.930 . S
H3 C14 0.970 . S
H4 C14 0.970 . S
H5 C16 0.930 . S
H6 C18 0.930 . S
H7 C20 0.930 . S
C8 H0 0.930 . S
C8 C9 1.382 . S
C8 C10 1.426 . S
C9 C8 1.382 . S
C9 C13 1.389 . S
C10 C8 1.426 . S
C10 C11 1.375 . S
C10 C14 1.532 1_655 S
C11 H1 0.930 . S
C11 C10 1.375 . S
C11 C12 1.416 . S
C12 C11 1.416 . S
C12 C13 1.371 . S
C13 H2 0.930 . S
C13 C9 1.389 . S
C13 C12 1.371 . S
C14 H3 0.970 . S
C14 H4 0.970 . S
C14 C10 1.532 1_455 S
C14 C15 1.499 . S
C15 C14 1.499 . S
C15 C16 1.370 . S
C15 C20 1.415 . S
C16 H5 0.930 . S
C16 C15 1.370 . S
C16 C17 1.407 . S
C17 C16 1.407 . S
C17 C18 1.365 . S
C18 H6 0.930 . S
C18 C17 1.365 . S
C18 C19 1.393 . S
C19 C18 1.393 . S
C19 C20 1.387 . S
C20 H7 0.930 . S
C20 C15 1.415 . S
C20 C19 1.387 . S
H21 C29 0.930 . S
H22 C32 0.930 . S
H23 C34 0.930 . S
H24 C35 0.970 . S
H25 C35 0.970 . S
H26 C37 0.930 . S
H27 C39 0.930 . S
H28 C41 0.930 . S
C29 H21 0.930 . S
C29 C30 1.382 . S
C29 C31 1.426 . S
C30 C29 1.382 . S
C30 C34 1.389 . S
C31 C29 1.426 . S
C31 C32 1.375 . S
C31 C35 1.532 1_565 S
C32 H22 0.930 . S
C32 C31 1.375 . S
C32 C33 1.416 . S
C33 C32 1.416 . S
C33 C34 1.371 . S
C34 H23 0.930 . S
C34 C30 1.389 . S
C34 C33 1.371 . S
C35 H24 0.970 . S
C35 H25 0.970 . S
C35 C31 1.532 1_545 S
C35 C36 1.499 . S
C36 C35 1.499 . S
C36 C37 1.370 . S
C36 C41 1.415 . S
C37 H26 0.930 . S
C37 C36 1.370 . S
C37 C38 1.407 . S
C38 C37 1.407 . S
C38 C39 1.365 . S
C39 H27 0.930 . S
C39 C38 1.365 . S
C39 C40 1.393 . S
C40 C39 1.393 . S
C40 C41 1.387 . S
C41 H28 0.930 . S
C41 C36 1.415 . S
C41 C40 1.387 . S
H42 C50 0.930 . S
H43 C53 0.930 . S
H44 C55 0.930 . S
H45 C56 0.970 . S
H46 C56 0.970 . S
H47 C58 0.930 . S
H48 C60 0.930 . S
H49 C62 0.930 . S
C50 H42 0.930 . S
C50 C51 1.382 . S
C50 C52 1.426 . S
C51 C50 1.382 . S
C51 C55 1.389 . S
C52 C50 1.426 . S
C52 C53 1.375 . S
C52 C56 1.532 . S
C53 H43 0.930 . S
C53 C52 1.375 . S
C53 C54 1.416 . S
C54 C53 1.416 . S
C54 C55 1.371 . S
C55 H44 0.930 . S
C55 C51 1.389 . S
C55 C54 1.371 . S
C56 H45 0.970 . S
C56 H46 0.970 . S
C56 C52 1.532 . S
C56 C57 1.499 . S
C57 C56 1.499 . S
C57 C58 1.370 . S
C57 C62 1.415 . S
C58 H47 0.930 . S
C58 C57 1.370 . S
C58 C59 1.407 . S
C59 C58 1.407 . S
C59 C60 1.365 . S
C60 H48 0.930 . S
C60 C59 1.365 . S
C60 C61 1.393 . S
C61 C60 1.393 . S
C61 C62 1.387 . S
C62 H49 0.930 . S
C62 C57 1.415 . S
C62 C61 1.387 . S
H63 C71 0.930 . S
H64 C74 0.930 . S
H65 C76 0.930 . S
H66 C77 0.970 . S
H67 C77 0.970 . S
H68 C79 0.930 . S
H69 C81 0.930 . S
H70 C83 0.930 . S
C71 H63 0.930 . S
C71 C72 1.382 . S
C71 C73 1.426 . S
C72 C71 1.382 . S
C72 C76 1.389 . S
C73 C71 1.426 . S
C73 C74 1.375 . S
C73 C77 1.532 1_655 S
C74 H64 0.930 . S
C74 C73 1.375 . S
C74 C75 1.416 . S
C75 C74 1.416 . S
C75 C76 1.371 . S
C76 H65 0.930 . S
C76 C72 1.389 . S
C76 C75 1.371 . S
C77 H66 0.970 . S
C77 H67 0.970 . S
C77 C73 1.532 1_455 S
C77 C78 1.499 . S
C78 C77 1.499 . S
C78 C79 1.370 . S
C78 C83 1.415 . S
C79 H68 0.930 . S
C79 C78 1.370 . S
C79 C80 1.407 . S
C80 C79 1.407 . S
C80 C81 1.365 . S
C81 H69 0.930 . S
C81 C80 1.365 . S
C81 C82 1.393 . S
C82 C81 1.393 . S
C82 C83 1.387 . S
C83 H70 0.930 . S
C83 C78 1.415 . S
C83 C82 1.387 . S
H84 C92 0.930 . S
H85 C95 0.930 . S
H86 C97 0.930 . S
H87 C98 0.970 1_554 S
H88 C98 0.984 . S
H89 C100 0.930 . S
H90 C102 0.930 . S
H91 C104 0.930 . S
C92 H84 0.930 . S
C92 C93 1.382 1_554 S
C92 C94 1.426 1_554 S
C93 C92 1.382 1_556 S
C93 C97 1.389 . S
C94 C92 1.426 1_556 S
C94 C95 1.375 . S
C94 C98 1.532 . S
C95 H85 0.930 . S
C95 C94 1.375 . S
C95 C96 1.416 . S
C96 C95 1.416 . S
C96 C97 1.371 . S
C97 H86 0.930 . S
C97 C93 1.389 . S
C97 C96 1.371 . S
C98 H87 0.970 1_556 S
C98 H88 0.984 . S
C98 C94 1.532 . S
C98 C99 1.503 1_545 S
C99 C98 1.503 1_565 S
C99 C100 1.355 1_556 S
C99 C104 1.427 . S
C100 H89 0.930 . S
C100 C99 1.355 1_554 S
C100 C101 1.407 . S
C101 C100 1.407 . S
C101 C102 1.365 . S
C102 H90 0.930 . S
C102 C101 1.365 . S
C102 C103 1.393 1_554 S
C103 C102 1.393 1_556 S
C103 C104 1.387 . S
C104 H91 0.930 . S
C104 C99 1.427 . S
C104 C103 1.387 . S
H105 C113 0.930 . S
H106 C116 0.930 . S
H107 C118 0.930 . S
H108 C119 0.970 . S
H109 C119 0.970 . S
H110 C121 0.930 . S
H111 C123 0.930 . S
H112 C125 0.930 . S
C113 H105 0.930 . S
C113 C114 1.382 . S
C113 C115 1.426 . S
C114 C113 1.382 . S
C114 C118 1.389 . S
C115 C113 1.426 . S
C115 C116 1.375 . S
C115 C119 1.532 . S
C116 H106 0.930 . S
C116 C115 1.375 . S
C116 C117 1.416 . S
C117 C116 1.416 . S
C117 C118 1.371 . S
C118 H107 0.930 . S
C118 C114 1.389 . S
C118 C117 1.371 . S
C119 H108 0.970 . S
C119 H109 0.970 . S
C119 C115 1.532 . S
C119 C120 1.499 . S
C120 C119 1.499 . S
C120 C121 1.370 . S
C120 C125 1.415 . S
C121 H110 0.930 . S
C121 C120 1.370 . S
C121 C122 1.407 . S
C122 C121 1.407 . S
C122 C123 1.365 . S
C123 H111 0.930 . S
C123 C122 1.365 . S
C123 C124 1.393 . S
C124 C123 1.393 . S
C124 C125 1.387 . S
C125 H112 0.930 . S
C125 C120 1.415 . S
C125 C124 1.387 . S
C126 O127 1.306 . S
C126 O129 1.160 . S
O127 C126 1.306 . S
O127 Cd128 2.228 . S
Cd128 O127 2.228 . S
Cd128 O132 2.273 . S
Cd128 O136 2.277 . S
O129 C126 1.160 . S
O129 Cd130 2.203 . S
Cd130 O129 2.203 . S
Cd130 O132 2.411 . S
Cd130 O133 2.333 . S
Cd130 O134 2.352 . S
Cd130 O138 2.277 . S
Cd130 O139 2.356 . S
C131 O136 1.209 . S
C131 O138 1.226 . S
O132 Cd128 2.273 . S
O132 Cd130 2.411 . S
O132 C135 1.320 . S
O133 Cd130 2.333 . S
O133 C135 1.214 . S
O134 Cd130 2.352 . S
O134 C137 1.258 . S
C135 O132 1.320 . S
C135 O133 1.214 . S
O136 Cd128 2.277 . S
O136 C131 1.209 . S
C137 O134 1.258 . S
C137 O139 1.282 . S
O138 Cd130 2.277 . S
O138 C131 1.226 . S
O139 Cd130 2.356 . S
O139 C137 1.282 . S
C140 O141 1.306 . S
C140 O143 1.160 . S
O141 C140 1.306 . S
O141 Cd142 2.228 . S
Cd142 O141 2.228 . S
Cd142 O146 2.273 . S
Cd142 O150 2.277 . S
O143 C140 1.160 . S
O143 Cd144 2.203 . S
Cd144 O143 2.203 . S
Cd144 O146 2.411 . S
Cd144 O147 2.333 . S
Cd144 O148 2.352 . S
Cd144 O152 2.277 . S
Cd144 O153 2.356 . S
C145 O150 1.209 . S
C145 O152 1.226 . S
O146 Cd142 2.273 . S
O146 Cd144 2.411 . S
O146 C149 1.320 . S
O147 Cd144 2.333 . S
O147 C149 1.214 . S
O148 Cd144 2.352 . S
O148 C151 1.258 . S
C149 O146 1.320 . S
C149 O147 1.214 . S
O150 Cd142 2.277 . S
O150 C145 1.209 . S
C151 O148 1.258 . S
C151 O153 1.282 . S
O152 Cd144 2.277 . S
O152 C145 1.226 . S
O153 Cd144 2.356 . S
O153 C151 1.282 . S
C154 O155 1.306 . S
C154 O157 1.160 . S
O155 C154 1.306 . S
O155 Cd156 2.228 . S
Cd156 O155 2.228 . S
Cd156 O160 2.273 . S
Cd156 O164 2.277 . S
O157 C154 1.160 . S
O157 Cd158 2.203 . S
Cd158 O157 2.203 . S
Cd158 O160 2.411 . S
Cd158 O161 2.333 . S
Cd158 O162 2.352 . S
Cd158 O166 2.277 . S
Cd158 O167 2.356 . S
C159 O164 1.209 . S
C159 O166 1.226 . S
O160 Cd156 2.273 . S
O160 Cd158 2.411 . S
O160 C163 1.320 . S
O161 Cd158 2.333 . S
O161 C163 1.214 . S
O162 Cd158 2.352 . S
O162 C165 1.258 . S
C163 O160 1.320 . S
C163 O161 1.214 . S
O164 Cd156 2.277 . S
O164 C159 1.209 . S
C165 O162 1.258 . S
C165 O167 1.282 . S
O166 Cd158 2.277 . S
O166 C159 1.226 . S
O167 Cd158 2.356 . S
O167 C165 1.282 . S
C168 O169 1.306 . S
C168 O171 1.160 . S
O169 C168 1.306 . S
O169 Cd170 2.228 . S
Cd170 O169 2.228 . S
Cd170 O174 2.273 . S
Cd170 O178 2.277 . S
O171 C168 1.160 . S
O171 Cd172 2.203 . S
Cd172 O171 2.203 . S
Cd172 O174 2.411 . S
Cd172 O175 2.333 . S
Cd172 O176 2.352 . S
Cd172 O180 2.277 . S
Cd172 O181 2.356 . S
C173 O178 1.209 . S
C173 O180 1.226 . S
O174 Cd170 2.273 . S
O174 Cd172 2.411 . S
O174 C177 1.320 . S
O175 Cd172 2.333 . S
O175 C177 1.214 . S
O176 Cd172 2.352 . S
O176 C179 1.258 . S
C177 O174 1.320 . S
C177 O175 1.214 . S
O178 Cd170 2.277 . S
O178 C173 1.209 . S
C179 O176 1.258 . S
C179 O181 1.282 . S
O180 Cd172 2.277 . S
O180 C173 1.226 . S
O181 Cd172 2.356 . S
O181 C179 1.282 . S
C182 O183 1.306 . S
C182 O185 1.160 . S
O183 C182 1.306 . S
O183 Cd184 2.228 . S
Cd184 O183 2.228 . S
Cd184 O188 2.273 . S
Cd184 O192 2.277 . S
O185 C182 1.160 . S
O185 Cd186 2.203 . S
Cd186 O185 2.203 . S
Cd186 O188 2.411 . S
Cd186 O189 2.333 . S
Cd186 O190 2.352 . S
Cd186 O194 2.277 . S
Cd186 O195 2.356 . S
C187 O192 1.209 . S
C187 O194 1.226 . S
O188 Cd184 2.273 . S
O188 Cd186 2.411 . S
O188 C191 1.320 . S
O189 Cd186 2.333 . S
O189 C191 1.214 . S
O190 Cd186 2.352 . S
O190 C193 1.258 . S
C191 O188 1.320 . S
C191 O189 1.214 . S
O192 Cd184 2.277 . S
O192 C187 1.209 . S
C193 O190 1.258 . S
C193 O195 1.282 . S
O194 Cd186 2.277 . S
O194 C187 1.226 . S
O195 Cd186 2.356 . S
O195 C193 1.282 . S
C196 O197 1.306 . S
C196 O199 1.160 . S
O197 C196 1.306 . S
O197 Cd198 2.228 . S
Cd198 O197 2.228 . S
Cd198 O202 2.273 . S
Cd198 O206 2.277 . S
O199 C196 1.160 . S
O199 Cd200 2.203 . S
Cd200 O199 2.203 . S
Cd200 O202 2.411 . S
Cd200 O203 2.333 . S
Cd200 O204 2.352 . S
Cd200 O208 2.277 . S
Cd200 O209 2.356 . S
C201 O206 1.209 . S
C201 O208 1.226 . S
O202 Cd198 2.273 . S
O202 Cd200 2.411 . S
O202 C205 1.320 . S
O203 Cd200 2.333 . S
O203 C205 1.214 . S
O204 Cd200 2.352 . S
O204 C207 1.258 . S
C205 O202 1.320 . S
C205 O203 1.214 . S
O206 Cd198 2.277 . S
O206 C201 1.209 . S
C207 O204 1.258 . S
C207 O209 1.282 . S
O208 Cd200 2.277 . S
O208 C201 1.226 . S
O209 Cd200 2.356 . S
O209 C207 1.282 . S
H210 C222 0.930 . S
H211 C224 0.930 . S
H212 C225 0.930 . S
H213 C229 0.959 . S
H214 C229 0.959 . S
H215 C229 0.961 . S
H216 C230 0.960 . S
H217 C230 0.961 . S
H218 C230 0.959 . S
H219 C233 0.929 . S
H220 C234 0.931 . S
H221 C236 0.930 . S
C222 H210 0.930 . S
C222 C223 1.399 . S
C222 C227 1.399 . S
C223 C222 1.399 . S
C223 C224 1.376 . S
C224 H211 0.930 . S
C224 C223 1.376 . S
C224 C225 1.388 . S
C225 H212 0.930 . S
C225 C224 1.388 . S
C225 C226 1.390 . S
C226 C225 1.390 . S
C226 C227 1.394 . S
C226 C232 1.465 . S
C227 C222 1.399 . S
C227 C226 1.394 . S
C227 C228 1.516 . S
C228 C227 1.516 . S
C228 C229 1.502 . S
C228 C230 1.561 . S
C228 C231 1.526 . S
C229 H213 0.959 . S
C229 H214 0.959 . S
C229 H215 0.961 . S
C229 C228 1.502 . S
C230 H216 0.960 . S
C230 H217 0.961 . S
C230 H218 0.959 . S
C230 C228 1.561 . S
C231 C228 1.526 . S
C231 C232 1.396 . S
C231 C236 1.390 . S
C232 C226 1.465 . S
C232 C231 1.396 . S
C232 C233 1.399 . S
C233 H219 0.929 . S
C233 C232 1.399 . S
C233 C234 1.385 . S
C234 H220 0.931 . S
C234 C233 1.385 . S
C234 C235 1.389 . S
C235 C234 1.389 . S
C235 C236 1.387 . S
C236 H221 0.930 . S
C236 C231 1.390 . S
C236 C235 1.387 . S
H237 C249 0.930 . S
H238 C251 0.930 . S
H239 C252 0.930 . S
H240 C256 0.959 . S
H241 C256 0.959 . S
H242 C256 0.961 . S
H243 C257 0.960 . S
H244 C257 0.961 . S
H245 C257 0.959 . S
H246 C260 0.929 . S
H247 C261 0.931 . S
H248 C263 0.930 . S
C249 H237 0.930 . S
C249 C250 1.399 . S
C249 C254 1.399 . S
C250 C249 1.399 . S
C250 C251 1.376 . S
C251 H238 0.930 . S
C251 C250 1.376 . S
C251 C252 1.388 . S
C252 H239 0.930 . S
C252 C251 1.388 . S
C252 C253 1.390 . S
C253 C252 1.390 . S
C253 C254 1.394 . S
C253 C259 1.465 . S
C254 C249 1.399 . S
C254 C253 1.394 . S
C254 C255 1.516 . S
C255 C254 1.516 . S
C255 C256 1.502 . S
C255 C257 1.561 . S
C255 C258 1.526 . S
C256 H240 0.959 . S
C256 H241 0.959 . S
C256 H242 0.961 . S
C256 C255 1.502 . S
C257 H243 0.960 . S
C257 H244 0.961 . S
C257 H245 0.959 . S
C257 C255 1.561 . S
C258 C255 1.526 . S
C258 C259 1.396 . S
C258 C263 1.390 . S
C259 C253 1.465 . S
C259 C258 1.396 . S
C259 C260 1.399 . S
C260 H246 0.929 . S
C260 C259 1.399 . S
C260 C261 1.385 . S
C261 H247 0.931 . S
C261 C260 1.385 . S
C261 C262 1.389 . S
C262 C261 1.389 . S
C262 C263 1.387 . S
C263 H248 0.930 . S
C263 C258 1.390 . S
C263 C262 1.387 . S
H264 C276 0.930 . S
H265 C278 0.930 . S
H266 C279 0.930 . S
H267 C283 0.959 . S
H268 C283 0.959 . S
H269 C283 0.961 . S
H270 C284 0.960 . S
H271 C284 0.961 . S
H272 C284 0.959 . S
H273 C287 0.929 . S
H274 C288 0.931 . S
H275 C290 0.930 . S
C276 H264 0.930 . S
C276 C277 1.399 . S
C276 C281 1.399 . S
C277 C276 1.399 . S
C277 C278 1.376 . S
C278 H265 0.930 . S
C278 C277 1.376 . S
C278 C279 1.388 . S
C279 H266 0.930 . S
C279 C278 1.388 . S
C279 C280 1.390 . S
C280 C279 1.390 . S
C280 C281 1.394 . S
C280 C286 1.465 . S
C281 C276 1.399 . S
C281 C280 1.394 . S
C281 C282 1.516 . S
C282 C281 1.516 . S
C282 C283 1.502 . S
C282 C284 1.561 . S
C282 C285 1.526 . S
C283 H267 0.959 . S
C283 H268 0.959 . S
C283 H269 0.961 . S
C283 C282 1.502 . S
C284 H270 0.960 . S
C284 H271 0.961 . S
C284 H272 0.959 . S
C284 C282 1.561 . S
C285 C282 1.526 . S
C285 C286 1.396 . S
C285 C290 1.390 . S
C286 C280 1.465 . S
C286 C285 1.396 . S
C286 C287 1.399 . S
C287 H273 0.929 . S
C287 C286 1.399 . S
C287 C288 1.385 . S
C288 H274 0.931 . S
C288 C287 1.385 . S
C288 C289 1.389 . S
C289 C288 1.389 . S
C289 C290 1.387 . S
C290 H275 0.930 . S
C290 C285 1.390 . S
C290 C289 1.387 . S
H291 C303 0.930 . S
H292 C305 0.930 . S
H293 C306 0.930 . S
H294 C310 0.959 . S
H295 C310 0.959 . S
H296 C310 0.961 . S
H297 C311 0.960 . S
H298 C311 0.961 . S
H299 C311 0.959 . S
H300 C314 0.929 . S
H301 C315 0.931 . S
H302 C317 0.930 . S
C303 H291 0.930 . S
C303 C304 1.399 . S
C303 C308 1.399 . S
C304 C303 1.399 . S
C304 C305 1.376 . S
C305 H292 0.930 . S
C305 C304 1.376 . S
C305 C306 1.388 . S
C306 H293 0.930 . S
C306 C305 1.388 . S
C306 C307 1.390 . S
C307 C306 1.390 . S
C307 C308 1.394 . S
C307 C313 1.465 . S
C308 C303 1.399 . S
C308 C307 1.394 . S
C308 C309 1.516 . S
C309 C308 1.516 . S
C309 C310 1.502 . S
C309 C311 1.561 . S
C309 C312 1.526 . S
C310 H294 0.959 . S
C310 H295 0.959 . S
C310 H296 0.961 . S
C310 C309 1.502 . S
C311 H297 0.960 . S
C311 H298 0.961 . S
C311 H299 0.959 . S
C311 C309 1.561 . S
C312 C309 1.526 . S
C312 C313 1.396 . S
C312 C317 1.390 . S
C313 C307 1.465 . S
C313 C312 1.396 . S
C313 C314 1.399 . S
C314 H300 0.929 . S
C314 C313 1.399 . S
C314 C315 1.385 . S
C315 H301 0.931 . S
C315 C314 1.385 . S
C315 C316 1.389 . S
C316 C315 1.389 . S
C316 C317 1.387 . S
C317 H302 0.930 . S
C317 C312 1.390 . S
C317 C316 1.387 . S
H318 C330 0.930 1_554 S
H319 C332 0.930 . S
H320 C333 0.930 . S
H321 C337 0.959 1_556 S
H322 C337 0.959 . S
H323 C337 0.961 . S
H324 C338 0.960 . S
H325 C338 0.961 . S
H326 C338 0.959 1_556 S
H327 C341 0.929 . S
H328 C342 0.931 . S
H329 C344 0.930 . S
C330 H318 0.930 1_556 S
C330 C331 1.399 . S
C330 C335 1.399 . S
C331 C330 1.399 . S
C331 C332 1.376 . S
C332 H319 0.930 . S
C332 C331 1.376 . S
C332 C333 1.388 . S
C333 H320 0.930 . S
C333 C332 1.388 . S
C333 C334 1.390 . S
C334 C333 1.390 . S
C334 C335 1.394 . S
C334 C340 1.465 . S
C335 C330 1.399 . S
C335 C334 1.394 . S
C335 C336 1.516 . S
C336 C335 1.516 . S
C336 C337 1.502 1_556 S
C336 C338 1.561 1_556 S
C336 C339 1.526 . S
C337 H321 0.959 1_554 S
C337 H322 0.959 . S
C337 H323 0.961 . S
C337 C336 1.502 1_554 S
C338 H324 0.960 . S
C338 H325 0.961 . S
C338 H326 0.959 1_554 S
C338 C336 1.561 1_554 S
C339 C336 1.526 . S
C339 C340 1.396 . S
C339 C344 1.390 . S
C340 C334 1.465 . S
C340 C339 1.396 . S
C340 C341 1.399 . S
C341 H327 0.929 . S
C341 C340 1.399 . S
C341 C342 1.385 . S
C342 H328 0.931 . S
C342 C341 1.385 . S
C342 C343 1.389 . S
C343 C342 1.389 . S
C343 C344 1.387 . S
C344 H329 0.930 . S
C344 C339 1.390 . S
C344 C343 1.387 . S
H345 C357 0.930 . S
H346 C359 0.930 . S
H347 C360 0.930 . S
H348 C364 0.959 . S
H349 C364 0.959 . S
H350 C364 0.961 . S
H351 C365 0.960 . S
H352 C365 0.961 . S
H353 C365 0.959 . S
H354 C368 0.929 . S
H355 C369 0.931 . S
H356 C371 0.930 . S
C357 H345 0.930 . S
C357 C358 1.399 . S
C357 C362 1.399 . S
C358 C357 1.399 . S
C358 C359 1.376 . S
C359 H346 0.930 . S
C359 C358 1.376 . S
C359 C360 1.388 . S
C360 H347 0.930 . S
C360 C359 1.388 . S
C360 C361 1.390 . S
C361 C360 1.390 . S
C361 C362 1.394 . S
C361 C367 1.465 . S
C362 C357 1.399 . S
C362 C361 1.394 . S
C362 C363 1.516 . S
C363 C362 1.516 . S
C363 C364 1.502 . S
C363 C365 1.561 . S
C363 C366 1.526 . S
C364 H348 0.959 . S
C364 H349 0.959 . S
C364 H350 0.961 . S
C364 C363 1.502 . S
C365 H351 0.960 . S
C365 H352 0.961 . S
C365 H353 0.959 . S
C365 C363 1.561 . S
C366 C363 1.526 . S
C366 C367 1.396 . S
C366 C371 1.390 . S
C367 C361 1.465 . S
C367 C366 1.396 . S
C367 C368 1.399 . S
C368 H354 0.929 . S
C368 C367 1.399 . S
C368 C369 1.385 . S
C369 H355 0.931 . S
C369 C368 1.385 . S
C369 C370 1.389 . S
C370 C369 1.389 . S
C370 C371 1.387 . S
C371 H356 0.930 . S
C371 C366 1.390 . S
C371 C370 1.387 . S
H372 C384 0.930 . S
H373 C386 0.930 . S
H374 C387 0.930 . S
H375 C391 0.959 . S
H376 C391 0.959 . S
H377 C391 0.961 . S
H378 C392 0.960 . S
H379 C392 0.961 . S
H380 C392 0.959 . S
H381 C395 0.929 . S
H382 C396 0.931 . S
H383 C398 0.930 . S
C384 H372 0.930 . S
C384 C385 1.399 . S
C384 C389 1.399 . S
C385 C384 1.399 . S
C385 C386 1.376 . S
C386 H373 0.930 . S
C386 C385 1.376 . S
C386 C387 1.388 . S
C387 H374 0.930 . S
C387 C386 1.388 . S
C387 C388 1.390 . S
C388 C387 1.390 . S
C388 C389 1.394 . S
C388 C394 1.465 . S
C389 C384 1.399 . S
C389 C388 1.394 . S
C389 C390 1.516 . S
C390 C389 1.516 . S
C390 C391 1.502 . S
C390 C392 1.561 . S
C390 C393 1.526 . S
C391 H375 0.959 . S
C391 H376 0.959 . S
C391 H377 0.961 . S
C391 C390 1.502 . S
C392 H378 0.960 . S
C392 H379 0.961 . S
C392 H380 0.959 . S
C392 C390 1.561 . S
C393 C390 1.526 . S
C393 C394 1.396 . S
C393 C398 1.390 . S
C394 C388 1.465 . S
C394 C393 1.396 . S
C394 C395 1.399 . S
C395 H381 0.929 . S
C395 C394 1.399 . S
C395 C396 1.385 . S
C396 H382 0.931 . S
C396 C395 1.385 . S
C396 C397 1.389 . S
C397 C396 1.389 . S
C397 C398 1.387 . S
C398 H383 0.930 . S
C398 C393 1.390 . S
C398 C397 1.387 . S
H399 C411 0.930 . S
H400 C413 0.930 . S
H401 C414 0.930 . S
H402 C418 0.959 . S
H403 C418 0.959 . S
H404 C418 0.961 . S
H405 C419 0.960 . S
H406 C419 0.961 . S
H407 C419 0.959 . S
H408 C422 0.929 . S
H409 C423 0.931 . S
H410 C425 0.930 . S
C411 H399 0.930 . S
C411 C412 1.399 . S
C411 C416 1.399 . S
C412 C411 1.399 . S
C412 C413 1.376 . S
C413 H400 0.930 . S
C413 C412 1.376 . S
C413 C414 1.388 . S
C414 H401 0.930 . S
C414 C413 1.388 . S
C414 C415 1.390 . S
C415 C414 1.390 . S
C415 C416 1.394 . S
C415 C421 1.465 . S
C416 C411 1.399 . S
C416 C415 1.394 . S
C416 C417 1.516 . S
C417 C416 1.516 . S
C417 C418 1.502 . S
C417 C419 1.561 . S
C417 C420 1.526 . S
C418 H402 0.959 . S
C418 H403 0.959 . S
C418 H404 0.961 . S
C418 C417 1.502 . S
C419 H405 0.960 . S
C419 H406 0.961 . S
C419 H407 0.959 . S
C419 C417 1.561 . S
C420 C417 1.526 . S
C420 C421 1.396 . S
C420 C425 1.390 . S
C421 C415 1.465 . S
C421 C420 1.396 . S
C421 C422 1.399 . S
C422 H408 0.929 . S
C422 C421 1.399 . S
C422 C423 1.385 . S
C423 H409 0.931 . S
C423 C422 1.385 . S
C423 C424 1.389 . S
C424 C423 1.389 . S
C424 C425 1.387 . S
C425 H410 0.930 . S
C425 C420 1.390 . S
C425 C424 1.387 . S
H426 C438 0.930 . S
H427 C440 0.930 . S
H428 C441 0.930 . S
H429 C445 0.959 . S
H430 C445 0.959 . S
H431 C445 0.961 . S
H432 C446 0.960 . S
H433 C446 0.961 . S
H434 C446 0.959 . S
H435 C449 0.929 . S
H436 C450 0.931 . S
H437 C452 0.930 . S
C438 H426 0.930 . S
C438 C439 1.399 . S
C438 C443 1.399 . S
C439 C438 1.399 . S
C439 C440 1.376 . S
C440 H427 0.930 . S
C440 C439 1.376 . S
C440 C441 1.388 . S
C441 H428 0.930 . S
C441 C440 1.388 . S
C441 C442 1.390 . S
C442 C441 1.390 . S
C442 C443 1.394 . S
C442 C448 1.465 . S
C443 C438 1.399 . S
C443 C442 1.394 . S
C443 C444 1.516 . S
C444 C443 1.516 . S
C444 C445 1.502 . S
C444 C446 1.561 . S
C444 C447 1.526 . S
C445 H429 0.959 . S
C445 H430 0.959 . S
C445 H431 0.961 . S
C445 C444 1.502 . S
C446 H432 0.960 . S
C446 H433 0.961 . S
C446 H434 0.959 . S
C446 C444 1.561 . S
C447 C444 1.526 . S
C447 C448 1.396 . S
C447 C452 1.390 . S
C448 C442 1.465 . S
C448 C447 1.396 . S
C448 C449 1.399 . S
C449 H435 0.929 . S
C449 C448 1.399 . S
C449 C450 1.385 . S
C450 H436 0.931 . S
C450 C449 1.385 . S
C450 C451 1.389 . S
C451 C450 1.389 . S
C451 C452 1.387 . S
C452 H437 0.930 . S
C452 C447 1.390 . S
C452 C451 1.387 . S
H453 C465 0.937 . S
H454 C467 0.930 . S
H455 C468 0.930 . S
H456 C472 0.959 . S
H457 C472 0.959 . S
H458 C472 0.961 . S
H459 C473 0.960 . S
H460 C473 0.961 . S
H461 C473 0.959 . S
H462 C476 0.929 . S
H463 C477 0.931 . S
H464 C479 0.930 . S
C465 H453 0.937 . S
C465 C466 1.395 1_556 S
C465 C470 1.396 1_556 S
C466 C465 1.395 1_554 S
C466 C467 1.376 . S
C467 H454 0.930 . S
C467 C466 1.376 . S
C467 C468 1.388 . S
C468 H455 0.930 . S
C468 C467 1.388 . S
C468 C469 1.390 . S
C469 C468 1.390 . S
C469 C470 1.394 . S
C469 C475 1.465 . S
C470 C465 1.396 1_554 S
C470 C469 1.394 . S
C470 C471 1.516 1_554 S
C471 C470 1.516 1_556 S
C471 C472 1.502 . S
C471 C473 1.561 . S
C471 C474 1.526 1_556 S
C472 H456 0.959 . S
C472 H457 0.959 . S
C472 H458 0.961 . S
C472 C471 1.502 . S
C473 H459 0.960 . S
C473 H460 0.961 . S
C473 H461 0.959 . S
C473 C471 1.561 . S
C474 C471 1.526 1_554 S
C474 C475 1.396 . S
C474 C479 1.390 . S
C475 C469 1.465 . S
C475 C474 1.396 . S
C475 C476 1.399 . S
C476 H462 0.929 . S
C476 C475 1.399 . S
C476 C477 1.385 . S
C477 H463 0.931 . S
C477 C476 1.385 . S
C477 C478 1.389 . S
C478 C477 1.389 . S
C478 C479 1.387 . S
C479 H464 0.930 . S
C479 C474 1.390 . S
C479 C478 1.387 . S
H480 C492 0.930 . S
H481 C494 0.930 . S
H482 C495 0.930 . S
H483 C499 0.959 . S
H484 C499 0.959 . S
H485 C499 0.961 . S
H486 C500 0.960 . S
H487 C500 0.961 . S
H488 C500 0.959 . S
H489 C503 0.929 . S
H490 C504 0.931 . S
H491 C506 0.930 . S
C492 H480 0.930 . S
C492 C493 1.399 . S
C492 C497 1.399 . S
C493 C492 1.399 . S
C493 C494 1.376 . S
C494 H481 0.930 . S
C494 C493 1.376 . S
C494 C495 1.388 . S
C495 H482 0.930 . S
C495 C494 1.388 . S
C495 C496 1.390 . S
C496 C495 1.390 . S
C496 C497 1.394 . S
C496 C502 1.465 . S
C497 C492 1.399 . S
C497 C496 1.394 . S
C497 C498 1.516 . S
C498 C497 1.516 . S
C498 C499 1.502 . S
C498 C500 1.561 . S
C498 C501 1.526 . S
C499 H483 0.959 . S
C499 H484 0.959 . S
C499 H485 0.961 . S
C499 C498 1.502 . S
C500 H486 0.960 . S
C500 H487 0.961 . S
C500 H488 0.959 . S
C500 C498 1.561 . S
C501 C498 1.526 . S
C501 C502 1.396 . S
C501 C506 1.390 . S
C502 C496 1.465 . S
C502 C501 1.396 . S
C502 C503 1.399 . S
C503 H489 0.929 . S
C503 C502 1.399 . S
C503 C504 1.385 . S
C504 H490 0.931 . S
C504 C503 1.385 . S
C504 C505 1.389 . S
C505 C504 1.389 . S
C505 C506 1.387 . S
C506 H491 0.930 . S
C506 C501 1.390 . S
C506 C505 1.387 . S
H507 C519 0.930 . S
H508 C521 0.930 . S
H509 C522 0.930 . S
H510 C526 0.959 . S
H511 C526 0.959 . S
H512 C526 0.961 . S
H513 C527 0.960 . S
H514 C527 0.961 . S
H515 C527 0.959 . S
H516 C530 0.929 . S
H517 C531 0.931 . S
H518 C533 0.930 . S
C519 H507 0.930 . S
C519 C520 1.399 . S
C519 C524 1.399 . S
C520 C519 1.399 . S
C520 C521 1.376 . S
C521 H508 0.930 . S
C521 C520 1.376 . S
C521 C522 1.388 . S
C522 H509 0.930 . S
C522 C521 1.388 . S
C522 C523 1.390 . S
C523 C522 1.390 . S
C523 C524 1.394 . S
C523 C529 1.465 . S
C524 C519 1.399 . S
C524 C523 1.394 . S
C524 C525 1.516 . S
C525 C524 1.516 . S
C525 C526 1.502 . S
C525 C527 1.561 . S
C525 C528 1.526 . S
C526 H510 0.959 . S
C526 H511 0.959 . S
C526 H512 0.961 . S
C526 C525 1.502 . S
C527 H513 0.960 . S
C527 H514 0.961 . S
C527 H515 0.959 . S
C527 C525 1.561 . S
C528 C525 1.526 . S
C528 C529 1.396 . S
C528 C533 1.390 . S
C529 C523 1.465 . S
C529 C528 1.396 . S
C529 C530 1.399 . S
C530 H516 0.929 . S
C530 C529 1.399 . S
C530 C531 1.385 . S
C531 H517 0.931 . S
C531 C530 1.385 . S
C531 C532 1.389 . S
C532 C531 1.389 . S
C532 C533 1.387 . S
C533 H518 0.930 . S
C533 C528 1.390 . S
C533 C532 1.387 . S
H534 C546 0.930 . S
H535 C548 0.930 . S
H536 C549 0.930 . S
H537 C553 0.959 . S
H538 C553 0.959 . S
H539 C553 0.961 . S
H540 C554 0.960 . S
H541 C554 0.961 . S
H542 C554 0.959 . S
H543 C557 0.929 . S
H544 C558 0.931 . S
H545 C560 0.930 . S
C546 H534 0.930 . S
C546 C547 1.399 . S
C546 C551 1.399 . S
C547 C546 1.399 . S
C547 C548 1.376 . S
C548 H535 0.930 . S
C548 C547 1.376 . S
C548 C549 1.388 . S
C549 H536 0.930 . S
C549 C548 1.388 . S
C549 C550 1.390 . S
C550 C549 1.390 . S
C550 C551 1.394 . S
C550 C556 1.465 . S
C551 C546 1.399 . S
C551 C550 1.394 . S
C551 C552 1.516 . S
C552 C551 1.516 . S
C552 C553 1.502 . S
C552 C554 1.561 . S
C552 C555 1.526 . S
C553 H537 0.959 . S
C553 H538 0.959 . S
C553 H539 0.961 . S
C553 C552 1.502 . S
C554 H540 0.960 . S
C554 H541 0.961 . S
C554 H542 0.959 . S
C554 C552 1.561 . S
C555 C552 1.526 . S
C555 C556 1.396 . S
C555 C560 1.390 . S
C556 C550 1.465 . S
C556 C555 1.396 . S
C556 C557 1.399 . S
C557 H543 0.929 . S
C557 C556 1.399 . S
C557 C558 1.385 . S
C558 H544 0.931 . S
C558 C557 1.385 . S
C558 C559 1.389 . S
C559 C558 1.389 . S
C559 C560 1.387 . S
C560 H545 0.930 . S
C560 C555 1.390 . S
C560 C559 1.387 . S
H561 C573 0.930 . S
H562 C575 0.930 . S
H563 C576 0.930 . S
H564 C580 0.959 . S
H565 C580 0.959 . S
H566 C580 0.961 . S
H567 C581 0.960 . S
H568 C581 0.961 . S
H569 C581 0.959 . S
H570 C584 0.929 . S
H571 C585 0.931 . S
H572 C587 0.930 . S
C573 H561 0.930 . S
C573 C574 1.399 . S
C573 C578 1.399 . S
C574 C573 1.399 . S
C574 C575 1.376 . S
C575 H562 0.930 . S
C575 C574 1.376 . S
C575 C576 1.388 . S
C576 H563 0.930 . S
C576 C575 1.388 . S
C576 C577 1.390 . S
C577 C576 1.390 . S
C577 C578 1.394 . S
C577 C583 1.465 . S
C578 C573 1.399 . S
C578 C577 1.394 . S
C578 C579 1.516 . S
C579 C578 1.516 . S
C579 C580 1.502 . S
C579 C581 1.561 . S
C579 C582 1.526 . S
C580 H564 0.959 . S
C580 H565 0.959 . S
C580 H566 0.961 . S
C580 C579 1.502 . S
C581 H567 0.960 . S
C581 H568 0.961 . S
C581 H569 0.959 . S
C581 C579 1.561 . S
C582 C579 1.526 . S
C582 C583 1.396 . S
C582 C587 1.390 . S
C583 C577 1.465 . S
C583 C582 1.396 . S
C583 C584 1.399 . S
C584 H570 0.929 . S
C584 C583 1.399 . S
C584 C585 1.385 . S
C585 H571 0.931 . S
C585 C584 1.385 . S
C585 C586 1.389 . S
C586 C585 1.389 . S
C586 C587 1.387 . S
C587 H572 0.930 . S
C587 C582 1.390 . S
C587 C586 1.387 . S
H588 C600 0.930 . S
H589 C602 0.930 . S
H590 C603 0.930 . S
H591 C607 0.959 . S
H592 C607 0.959 . S
H593 C607 0.961 . S
H594 C608 0.960 . S
H595 C608 0.961 . S
H596 C608 0.959 . S
H597 C611 0.929 . S
H598 C612 0.931 . S
H599 C614 0.930 . S
C600 H588 0.930 . S
C600 C601 1.399 . S
C600 C605 1.399 . S
C601 C600 1.399 . S
C601 C602 1.376 . S
C602 H589 0.930 . S
C602 C601 1.376 . S
C602 C603 1.388 . S
C603 H590 0.930 . S
C603 C602 1.388 . S
C603 C604 1.390 . S
C604 C603 1.390 . S
C604 C605 1.394 . S
C604 C610 1.465 . S
C605 C600 1.399 . S
C605 C604 1.394 . S
C605 C606 1.516 . S
C606 C605 1.516 . S
C606 C607 1.502 . S
C606 C608 1.561 . S
C606 C609 1.526 . S
C607 H591 0.959 . S
C607 H592 0.959 . S
C607 H593 0.961 . S
C607 C606 1.502 . S
C608 H594 0.960 . S
C608 H595 0.961 . S
C608 H596 0.959 . S
C608 C606 1.561 . S
C609 C606 1.526 . S
C609 C610 1.396 . S
C609 C614 1.390 . S
C610 C604 1.465 . S
C610 C609 1.396 . S
C610 C611 1.399 . S
C611 H597 0.929 . S
C611 C610 1.399 . S
C611 C612 1.385 . S
C612 H598 0.931 . S
C612 C611 1.385 . S
C612 C613 1.389 . S
C613 C612 1.389 . S
C613 C614 1.387 . S
C614 H599 0.930 . S
C614 C609 1.390 . S
C614 C613 1.387 . S
H615 C627 0.930 . S
H616 C629 0.930 . S
H617 C630 0.930 . S
H618 C634 0.959 . S
H619 C634 0.959 . S
H620 C634 0.961 . S
H621 C635 0.960 . S
H622 C635 0.961 . S
H623 C635 0.959 . S
H624 C638 0.929 . S
H625 C639 0.931 . S
H626 C641 0.930 . S
C627 H615 0.930 . S
C627 C628 1.399 . S
C627 C632 1.399 . S
C628 C627 1.399 . S
C628 C629 1.376 . S
C629 H616 0.930 . S
C629 C628 1.376 . S
C629 C630 1.388 . S
C630 H617 0.930 . S
C630 C629 1.388 . S
C630 C631 1.390 . S
C631 C630 1.390 . S
C631 C632 1.394 . S
C631 C637 1.465 . S
C632 C627 1.399 . S
C632 C631 1.394 . S
C632 C633 1.516 . S
C633 C632 1.516 . S
C633 C634 1.502 . S
C633 C635 1.561 . S
C633 C636 1.526 . S
C634 H618 0.959 . S
C634 H619 0.959 . S
C634 H620 0.961 . S
C634 C633 1.502 . S
C635 H621 0.960 . S
C635 H622 0.961 . S
C635 H623 0.959 . S
C635 C633 1.561 . S
C636 C633 1.526 . S
C636 C637 1.396 . S
C636 C641 1.390 . S
C637 C631 1.465 . S
C637 C636 1.396 . S
C637 C638 1.399 . S
C638 H624 0.929 . S
C638 C637 1.399 . S
C638 C639 1.385 1_556 S
C639 H625 0.931 . S
C639 C638 1.385 1_554 S
C639 C640 1.389 . S
C640 C639 1.389 . S
C640 C641 1.387 1_554 S
C641 H626 0.930 . S
C641 C636 1.390 . S
C641 C640 1.387 1_556 S
H642 C654 0.930 . S
H643 C656 0.930 . S
H644 C657 0.930 . S
H645 C661 0.959 . S
H646 C661 0.959 . S
H647 C661 0.961 . S
H648 C662 0.960 . S
H649 C662 0.961 . S
H650 C662 0.959 . S
H651 C665 0.929 . S
H652 C666 0.931 . S
H653 C668 0.930 . S
C654 H642 0.930 . S
C654 C655 1.399 . S
C654 C659 1.399 . S
C655 C654 1.399 . S
C655 C656 1.376 . S
C656 H643 0.930 . S
C656 C655 1.376 . S
C656 C657 1.388 . S
C657 H644 0.930 . S
C657 C656 1.388 . S
C657 C658 1.390 . S
C658 C657 1.390 . S
C658 C659 1.394 . S
C658 C664 1.465 . S
C659 C654 1.399 . S
C659 C658 1.394 . S
C659 C660 1.516 . S
C660 C659 1.516 . S
C660 C661 1.502 . S
C660 C662 1.561 . S
C660 C663 1.526 . S
C661 H645 0.959 . S
C661 H646 0.959 . S
C661 H647 0.961 . S
C661 C660 1.502 . S
C662 H648 0.960 . S
C662 H649 0.961 . S
C662 H650 0.959 . S
C662 C660 1.561 . S
C663 C660 1.526 . S
C663 C664 1.396 . S
C663 C668 1.390 . S
C664 C658 1.465 . S
C664 C663 1.396 . S
C664 C665 1.399 . S
C665 H651 0.929 . S
C665 C664 1.399 . S
C665 C666 1.385 . S
C666 H652 0.931 . S
C666 C665 1.385 . S
C666 C667 1.389 . S
C667 C666 1.389 . S
C667 C668 1.387 . S
C668 H653 0.930 . S
C668 C663 1.390 . S
C668 C667 1.387 . S
H669 C681 0.930 . S
H670 C683 0.930 . S
H671 C684 0.930 . S
H672 C688 0.959 . S
H673 C688 0.959 . S
H674 C688 0.961 . S
H675 C689 0.960 . S
H676 C689 0.961 . S
H677 C689 0.959 . S
H678 C692 0.929 . S
H679 C693 0.931 . S
H680 C695 0.930 . S
C681 H669 0.930 . S
C681 C682 1.399 . S
C681 C686 1.399 . S
C682 C681 1.399 . S
C682 C683 1.376 . S
C683 H670 0.930 . S
C683 C682 1.376 . S
C683 C684 1.388 . S
C684 H671 0.930 . S
C684 C683 1.388 . S
C684 C685 1.390 . S
C685 C684 1.390 . S
C685 C686 1.394 . S
C685 C691 1.465 . S
C686 C681 1.399 . S
C686 C685 1.394 . S
C686 C687 1.516 . S
C687 C686 1.516 . S
C687 C688 1.502 . S
C687 C689 1.561 . S
C687 C690 1.526 . S
C688 H672 0.959 . S
C688 H673 0.959 . S
C688 H674 0.961 . S
C688 C687 1.502 . S
C689 H675 0.960 . S
C689 H676 0.961 . S
C689 H677 0.959 . S
C689 C687 1.561 . S
C690 C687 1.526 . S
C690 C691 1.396 . S
C690 C695 1.390 . S
C691 C685 1.465 . S
C691 C690 1.396 . S
C691 C692 1.399 . S
C692 H678 0.929 . S
C692 C691 1.399 . S
C692 C693 1.385 . S
C693 H679 0.931 . S
C693 C692 1.385 . S
C693 C694 1.389 . S
C694 C693 1.389 . S
C694 C695 1.387 . S
C695 H680 0.930 . S
C695 C690 1.390 . S
C695 C694 1.387 . S
H696 C708 0.930 . S
H697 C710 0.930 . S
H698 C711 0.930 . S
H699 C715 0.959 . S
H700 C715 0.959 . S
H701 C715 0.961 . S
H702 C716 0.960 . S
H703 C716 0.961 . S
H704 C716 0.959 . S
H705 C719 0.929 . S
H706 C720 0.931 . S
H707 C722 0.930 . S
C708 H696 0.930 . S
C708 C709 1.399 . S
C708 C713 1.399 . S
C709 C708 1.399 . S
C709 C710 1.376 . S
C710 H697 0.930 . S
C710 C709 1.376 . S
C710 C711 1.388 . S
C711 H698 0.930 . S
C711 C710 1.388 . S
C711 C712 1.390 . S
C712 C711 1.390 . S
C712 C713 1.394 . S
C712 C718 1.465 . S
C713 C708 1.399 . S
C713 C712 1.394 . S
C713 C714 1.516 . S
C714 C713 1.516 . S
C714 C715 1.502 . S
C714 C716 1.561 . S
C714 C717 1.526 . S
C715 H699 0.959 . S
C715 H700 0.959 . S
C715 H701 0.961 . S
C715 C714 1.502 . S
C716 H702 0.960 . S
C716 H703 0.961 . S
C716 H704 0.959 . S
C716 C714 1.561 . S
C717 C714 1.526 . S
C717 C718 1.396 . S
C717 C722 1.390 . S
C718 C712 1.465 . S
C718 C717 1.396 . S
C718 C719 1.399 . S
C719 H705 0.929 . S
C719 C718 1.399 . S
C719 C720 1.385 . S
C720 H706 0.931 . S
C720 C719 1.385 . S
C720 C721 1.389 . S
C721 C720 1.389 . S
C721 C722 1.387 . S
C722 H707 0.930 . S
C722 C717 1.390 . S
C722 C721 1.387 . S
H723 C735 0.930 . S
H724 C737 0.930 . S
H725 C738 0.930 . S
H726 C742 0.959 . S
H727 C742 0.959 . S
H728 C742 0.961 . S
H729 C743 0.960 . S
H730 C743 0.961 . S
H731 C743 0.959 . S
H732 C746 0.929 . S
H733 C747 0.931 . S
H734 C749 0.930 . S
C735 H723 0.930 . S
C735 C736 1.399 . S
C735 C740 1.399 . S
C736 C735 1.399 . S
C736 C737 1.376 . S
C737 H724 0.930 . S
C737 C736 1.376 . S
C737 C738 1.388 . S
C738 H725 0.930 . S
C738 C737 1.388 . S
C738 C739 1.390 . S
C739 C738 1.390 . S
C739 C740 1.394 . S
C739 C745 1.465 . S
C740 C735 1.399 . S
C740 C739 1.394 . S
C740 C741 1.516 . S
C741 C740 1.516 . S
C741 C742 1.502 . S
C741 C743 1.561 . S
C741 C744 1.526 . S
C742 H726 0.959 . S
C742 H727 0.959 . S
C742 H728 0.961 . S
C742 C741 1.502 . S
C743 H729 0.960 . S
C743 H730 0.961 . S
C743 H731 0.959 . S
C743 C741 1.561 . S
C744 C741 1.526 . S
C744 C745 1.396 . S
C744 C749 1.390 . S
C745 C739 1.465 . S
C745 C744 1.396 . S
C745 C746 1.399 . S
C746 H732 0.929 . S
C746 C745 1.399 . S
C746 C747 1.385 . S
C747 H733 0.931 . S
C747 C746 1.385 . S
C747 C748 1.389 . S
C748 C747 1.389 . S
C748 C749 1.387 . S
C749 H734 0.930 . S
C749 C744 1.390 . S
C749 C748 1.387 . S
H750 C762 0.930 . S
H751 C764 0.930 . S
H752 C765 0.930 . S
H753 C769 0.959 . S
H754 C769 0.959 . S
H755 C769 0.961 . S
H756 C770 0.960 . S
H757 C770 0.961 . S
H758 C770 0.959 . S
H759 C773 0.929 . S
H760 C774 0.931 . S
H761 C776 0.930 . S
C762 H750 0.930 . S
C762 C763 1.399 . S
C762 C767 1.399 . S
C763 C762 1.399 . S
C763 C764 1.376 . S
C764 H751 0.930 . S
C764 C763 1.376 . S
C764 C765 1.388 . S
C765 H752 0.930 . S
C765 C764 1.388 . S
C765 C766 1.390 . S
C766 C765 1.390 . S
C766 C767 1.394 . S
C766 C772 1.465 . S
C767 C762 1.399 . S
C767 C766 1.394 . S
C767 C768 1.516 . S
C768 C767 1.516 . S
C768 C769 1.502 . S
C768 C770 1.561 . S
C768 C771 1.526 . S
C769 H753 0.959 . S
C769 H754 0.959 . S
C769 H755 0.961 . S
C769 C768 1.502 . S
C770 H756 0.960 . S
C770 H757 0.961 . S
C770 H758 0.959 . S
C770 C768 1.561 . S
C771 C768 1.526 . S
C771 C772 1.396 . S
C771 C776 1.390 . S
C772 C766 1.465 . S
C772 C771 1.396 . S
C772 C773 1.399 . S
C773 H759 0.929 . S
C773 C772 1.399 . S
C773 C774 1.385 . S
C774 H760 0.931 . S
C774 C773 1.385 . S
C774 C775 1.389 . S
C775 C774 1.389 . S
C775 C776 1.387 . S
C776 H761 0.930 . S
C776 C771 1.390 . S
C776 C775 1.387 . S
H777 C789 0.930 . S
H778 C791 0.930 . S
H779 C792 0.930 . S
H780 C796 0.959 . S
H781 C796 0.959 . S
H782 C796 0.961 . S
H783 C797 0.960 . S
H784 C797 0.961 . S
H785 C797 0.959 . S
H786 C800 0.929 . S
H787 C801 0.931 . S
H788 C803 0.930 . S
C789 H777 0.930 . S
C789 C790 1.399 . S
C789 C794 1.399 . S
C790 C789 1.399 . S
C790 C791 1.376 . S
C791 H778 0.930 . S
C791 C790 1.376 . S
C791 C792 1.388 . S
C792 H779 0.930 . S
C792 C791 1.388 . S
C792 C793 1.390 . S
C793 C792 1.390 . S
C793 C794 1.394 . S
C793 C799 1.465 . S
C794 C789 1.399 . S
C794 C793 1.394 . S
C794 C795 1.516 . S
C795 C794 1.516 . S
C795 C796 1.502 . S
C795 C797 1.561 . S
C795 C798 1.526 . S
C796 H780 0.959 . S
C796 H781 0.959 . S
C796 H782 0.961 . S
C796 C795 1.502 . S
C797 H783 0.960 . S
C797 H784 0.961 . S
C797 H785 0.959 . S
C797 C795 1.561 . S
C798 C795 1.526 . S
C798 C799 1.396 . S
C798 C803 1.390 . S
C799 C793 1.465 . S
C799 C798 1.396 . S
C799 C800 1.399 . S
C800 H786 0.929 . S
C800 C799 1.399 . S
C800 C801 1.385 . S
C801 H787 0.931 . S
C801 C800 1.385 . S
C801 C802 1.389 . S
C802 C801 1.389 . S
C802 C803 1.387 . S
C803 H788 0.930 . S
C803 C798 1.390 . S
C803 C802 1.387 . S
H804 C816 0.930 . S
H805 C818 0.930 . S
H806 C819 0.930 . S
H807 C823 0.959 1_556 S
H808 C823 0.959 1_556 S
H809 C823 0.961 . S
H810 C824 0.960 . S
H811 C824 0.961 . S
H812 C824 0.959 . S
H813 C827 0.929 . S
H814 C828 0.931 . S
H815 C830 0.930 . S
C816 H804 0.930 . S
C816 C817 1.399 . S
C816 C821 1.399 . S
C817 C816 1.399 . S
C817 C818 1.376 . S
C818 H805 0.930 . S
C818 C817 1.376 . S
C818 C819 1.388 . S
C819 H806 0.930 . S
C819 C818 1.388 . S
C819 C820 1.390 . S
C820 C819 1.390 . S
C820 C821 1.394 . S
C820 C826 1.465 . S
C821 C816 1.399 . S
C821 C820 1.394 . S
C821 C822 1.516 . S
C822 C821 1.516 . S
C822 C823 1.502 . S
C822 C824 1.561 . S
C822 C825 1.526 . S
C823 H807 0.959 1_554 S
C823 H808 0.959 1_554 S
C823 H809 0.961 . S
C823 C822 1.502 . S
C824 H810 0.960 . S
C824 H811 0.961 . S
C824 H812 0.959 . S
C824 C822 1.561 . S
C825 C822 1.526 . S
C825 C826 1.396 . S
C825 C830 1.390 1_554 S
C826 C820 1.465 . S
C826 C825 1.396 . S
C826 C827 1.399 . S
C827 H813 0.929 . S
C827 C826 1.399 . S
C827 C828 1.385 1_554 S
C828 H814 0.931 . S
C828 C827 1.385 1_556 S
C828 C829 1.389 . S
C829 C828 1.389 . S
C829 C830 1.387 . S
C830 H815 0.930 . S
C830 C825 1.390 1_556 S
C830 C829 1.387 . S
H831 C843 0.930 . S
H832 C845 0.930 . S
H833 C846 0.930 . S
H834 C850 0.959 . S
H835 C850 0.959 . S
H836 C850 0.961 . S
H837 C851 0.960 . S
H838 C851 0.961 . S
H839 C851 0.959 . S
H840 C854 0.929 . S
H841 C855 0.931 . S
H842 C857 0.930 . S
C843 H831 0.930 . S
C843 C844 1.399 . S
C843 C848 1.399 . S
C844 C843 1.399 . S
C844 C845 1.376 . S
C845 H832 0.930 . S
C845 C844 1.376 . S
C845 C846 1.388 . S
C846 H833 0.930 . S
C846 C845 1.388 . S
C846 C847 1.390 . S
C847 C846 1.390 . S
C847 C848 1.394 . S
C847 C853 1.465 . S
C848 C843 1.399 . S
C848 C847 1.394 . S
C848 C849 1.516 . S
C849 C848 1.516 . S
C849 C850 1.502 . S
C849 C851 1.561 . S
C849 C852 1.526 . S
C850 H834 0.959 . S
C850 H835 0.959 . S
C850 H836 0.961 . S
C850 C849 1.502 . S
C851 H837 0.960 . S
C851 H838 0.961 . S
C851 H839 0.959 . S
C851 C849 1.561 . S
C852 C849 1.526 . S
C852 C853 1.396 . S
C852 C857 1.390 . S
C853 C847 1.465 . S
C853 C852 1.396 . S
C853 C854 1.399 . S
C854 H840 0.929 . S
C854 C853 1.399 . S
C854 C855 1.385 . S
C855 H841 0.931 . S
C855 C854 1.385 . S
C855 C856 1.389 . S
C856 C855 1.389 . S
C856 C857 1.387 . S
C857 H842 0.930 . S
C857 C852 1.390 . S
C857 C856 1.387 . S
C235 C196 1.598 . S
C223 C19 1.526 . S
C250 C40 1.530 . S
C262 C137 1.590 . S
C277 C51 1.525 . S
C289 C140 1.583 . S
C304 C72 1.532 . S
C316 C154 1.601 . S
C343 C179 1.583 . S
C331 C103 1.538 . S
C358 C114 1.493 . S
C370 C182 1.589 . S
C385 C30 1.514 . S
C397 C151 1.572 . S
C412 C61 1.443 . S
C424 C165 1.573 . S
C439 C82 1.519 . S
C451 C168 1.568 . S
C478 C193 1.562 . S
C466 C93 1.507 1_554 S
C505 C207 1.579 . S
C493 C124 1.454 . S
C532 C126 1.553 . S
C520 C9 1.427 . S
C547 C17 1.376 . S
C559 C149 1.496 . S
C574 C38 1.420 . S
C586 C163 1.516 . S
C613 C173 1.507 . S
C601 C54 1.397 . S
C628 C75 1.380 . S
C640 C191 1.489 . S
C667 C205 1.505 . S
C655 C101 1.442 . S
C694 C131 1.511 . S
C682 C117 1.456 . S
C721 C201 1.529 . S
C709 C33 1.418 . S
C736 C59 1.382 . S
C748 C135 1.514 . S
C775 C145 1.526 . S
C763 C80 1.485 . S
C790 C96 1.426 . S
C802 C159 1.536 . S
C817 C122 1.382 . S
C829 C177 1.509 . S
C844 C12 1.476 . S
C856 C187 1.526 . S
