# Generated by pormake.
# Topology zzz, (3,6)-cn, num edge types: 1
# Building blocks:
#     Node 0, Type 0, BuildingBlock: BETDIP_clean_linker_0, # of connection points: 3
#     Node 1, Type 0, BuildingBlock: BETDIP_clean_linker_0, # of connection points: 3
#     Node 2, Type 0, BuildingBlock: BETDIP_clean_linker_0, # of connection points: 3
#     Node 3, Type 0, BuildingBlock: BETDIP_clean_linker_0, # of connection points: 3
#     Node 4, Type 0, BuildingBlock: BETDIP_clean_linker_0, # of connection points: 3
#     Node 5, Type 0, BuildingBlock: BETDIP_clean_linker_0, # of connection points: 3
#     Node 6, Type 0, BuildingBlock: BETDIP_clean_linker_0, # of connection points: 3
#     Node 7, Type 0, BuildingBlock: BETDIP_clean_linker_0, # of connection points: 3
#     Node 8, Type 1, BuildingBlock: KUMBOL_clean_sbu_0, # of connection points: 6
#     Node 9, Type 1, BuildingBlock: KUMBOL_clean_sbu_0, # of connection points: 6
#     Node 10, Type 1, BuildingBlock: KUMBOL_clean_sbu_0, # of connection points: 6
#     Node 11, Type 1, BuildingBlock: KUMBOL_clean_sbu_0, # of connection points: 6
#     Edge 12, Type (0, 1), BuildingBlock: OJICUG_clean_linker_0, # of connection points: 2
#     Edge 13, Type (0, 1), BuildingBlock: OJICUG_clean_linker_0, # of connection points: 2
#     Edge 14, Type (0, 1), BuildingBlock: OJICUG_clean_linker_0, # of connection points: 2
#     Edge 15, Type (0, 1), BuildingBlock: OJICUG_clean_linker_0, # of connection points: 2
#     Edge 16, Type (0, 1), BuildingBlock: OJICUG_clean_linker_0, # of connection points: 2
#     Edge 17, Type (0, 1), BuildingBlock: OJICUG_clean_linker_0, # of connection points: 2
#     Edge 18, Type (0, 1), BuildingBlock: OJICUG_clean_linker_0, # of connection points: 2
#     Edge 19, Type (0, 1), BuildingBlock: OJICUG_clean_linker_0, # of connection points: 2
#     Edge 20, Type (0, 1), BuildingBlock: OJICUG_clean_linker_0, # of connection points: 2
#     Edge 21, Type (0, 1), BuildingBlock: OJICUG_clean_linker_0, # of connection points: 2
#     Edge 22, Type (0, 1), BuildingBlock: OJICUG_clean_linker_0, # of connection points: 2
#     Edge 23, Type (0, 1), BuildingBlock: OJICUG_clean_linker_0, # of connection points: 2
#     Edge 24, Type (0, 1), BuildingBlock: OJICUG_clean_linker_0, # of connection points: 2
#     Edge 25, Type (0, 1), BuildingBlock: OJICUG_clean_linker_0, # of connection points: 2
#     Edge 26, Type (0, 1), BuildingBlock: OJICUG_clean_linker_0, # of connection points: 2
#     Edge 27, Type (0, 1), BuildingBlock: OJICUG_clean_linker_0, # of connection points: 2
#     Edge 28, Type (0, 1), BuildingBlock: OJICUG_clean_linker_0, # of connection points: 2
#     Edge 29, Type (0, 1), BuildingBlock: OJICUG_clean_linker_0, # of connection points: 2
#     Edge 30, Type (0, 1), BuildingBlock: OJICUG_clean_linker_0, # of connection points: 2
#     Edge 31, Type (0, 1), BuildingBlock: OJICUG_clean_linker_0, # of connection points: 2
#     Edge 32, Type (0, 1), BuildingBlock: OJICUG_clean_linker_0, # of connection points: 2
#     Edge 33, Type (0, 1), BuildingBlock: OJICUG_clean_linker_0, # of connection points: 2
#     Edge 34, Type (0, 1), BuildingBlock: OJICUG_clean_linker_0, # of connection points: 2
#     Edge 35, Type (0, 1), BuildingBlock: OJICUG_clean_linker_0, # of connection points: 2
# Relax obj value: 0.235
# Max RMSD: 0.182
# Mean RMSD: 0.118
data_MOF--net-zzz--node1-KUMBOL_clean_sbu_0--node2-BETDIP_clean_linker_0--edge1-OJICUG_clean_linker_0
_symmetry_space_group_name_H-M    P1
_symmetry_Int_Tables_number       1
_symmetry_cell_setting            triclinic
loop_
_symmetry_equiv_pos_as_xyz
'x, y, z'
_cell_length_a     37.069852
_cell_length_b     37.008399
_cell_length_c     10.961729
_cell_angle_alpha  91.572017
_cell_angle_beta   89.873621
_cell_angle_gamma 89.973577
loop_
_atom_site_label
_atom_site_type_symbol
_atom_site_fract_x
_atom_site_fract_y
_atom_site_fract_z
_atom_type_partial_charge
H0 H 0.78216 0.52348 0.37106 0.0
H1 H 0.76064 0.61523 0.14834 0.0
H2 H 0.85776 0.61111 0.35791 0.0
H3 H 0.70482 0.60393 0.16466 0.0
C4 C 0.70263 0.57473 0.16089 0.0
C5 C 0.78926 0.55008 0.34019 0.0
C6 C 0.82351 0.56555 0.37443 0.0
C7 C 0.76471 0.56908 0.26267 0.0
C8 C 0.77682 0.60203 0.21504 0.0
C9 C 0.81132 0.61634 0.24047 0.0
C10 C 0.83203 0.59972 0.33083 0.0
N11 N 0.73019 0.55387 0.22217 0.0
H12 H 0.02912 0.79485 0.39474 0.0
H13 H 0.94343 0.75933 0.15672 0.0
H14 H 0.93512 0.86141 0.34501 0.0
H15 H 0.9596 0.70551 0.18779 0.0
C16 C 0.98858 0.70741 0.17635 0.0
C17 C 1.00275 0.79895 0.35525 0.0
C18 C 0.98292 0.83171 0.38586 0.0
C19 C 0.98776 0.77132 0.2743 0.0
C20 C 0.95418 0.77863 0.22156 0.0
C21 C 0.93642 0.81198 0.23685 0.0
C22 C 0.94953 0.83652 0.32713 0.0
N23 N 1.00685 0.73823 0.23524 0.0
H24 H 0.75416 1.01375 0.48657 0.0
H25 H 0.78051 0.07266 0.16243 0.0
H26 H 0.67687 0.08577 0.32477 0.0
H27 H 0.80349 1.01207 0.11046 0.0
C28 C 0.82225 1.01499 0.18613 0.0
C29 C 0.74667 0.0327 0.41757 0.0
C30 C 0.71187 0.05032 0.42435 0.0
C31 C 0.77162 0.03991 0.31932 0.0
C32 C 0.76173 0.06548 0.23368 0.0
C33 C 0.72827 0.08243 0.23844 0.0
C34 C 0.70357 0.074 0.32997 0.0
N35 N 0.80687 0.02318 0.30564 0.0
H36 H 0.52375 0.77482 0.41204 0.0
H37 H 0.60177 0.80908 0.14849 0.0
H38 H 0.6039 0.70029 0.27479 0.0
H39 H 0.58949 0.86554 0.26277 0.0
C40 C 0.56212 0.86299 0.22846 0.0
C41 C 0.54716 0.76912 0.3555 0.0
C42 C 0.56474 0.73467 0.36135 0.0
C43 C 0.56098 0.79653 0.27782 0.0
C44 C 0.5914 0.78836 0.20624 0.0
C45 C 0.60474 0.75293 0.19339 0.0
C46 C 0.59304 0.72741 0.27836 0.0
N47 N 0.54277 0.83052 0.25874 0.0
H48 H 0.27489 0.54326 0.09425 0.0
H49 H 0.30419 0.4479 0.29022 0.0
H50 H 0.20438 0.4512 0.09509 0.0
H51 H 0.32729 0.49001 0.4205 0.0
C52 C 0.34436 0.50403 0.35646 0.0
C53 C 0.26944 0.5158 0.12035 0.0
C54 C 0.23629 0.49866 0.08286 0.0
C55 C 0.29475 0.49738 0.19654 0.0
C56 C 0.28556 0.46242 0.23397 0.0
C57 C 0.2513 0.44731 0.2108 0.0
C58 C 0.22961 0.46365 0.12253 0.0
N59 N 0.32807 0.51388 0.24149 0.0
H60 H 0.03024 0.26625 0.05391 0.0
H61 H 0.10275 0.29154 0.35086 0.0
H62 H 0.08811 0.18165 0.22953 0.0
H63 H 0.05222 0.31951 0.43119 0.0
C64 C 0.04824 0.33713 0.35492 0.0
C65 C 0.04957 0.25784 0.12133 0.0
C66 C 0.06162 0.22061 0.12135 0.0
C67 C 0.06272 0.28374 0.21206 0.0
C68 C 0.08959 0.27194 0.29113 0.0
C69 C 0.09436 0.23514 0.31187 0.0
C70 C 0.08287 0.21014 0.22037 0.0
N71 N 0.04834 0.3202 0.23291 0.0
H72 H 0.29232 0.05861 0.0872 0.0
H73 H 0.24563 0.96757 0.27015 0.0
H74 H 0.34198 0.95338 0.06029 0.0
H75 H 0.19197 0.99611 0.19431 0.0
C76 C 0.19817 0.02044 0.24808 0.0
C77 C 0.29205 0.03003 0.10565 0.0
C78 C 0.32129 1.00736 0.06219 0.0
C79 C 0.26288 1.01515 0.17635 0.0
C80 C 0.26502 0.97859 0.20708 0.0
C81 C 0.29368 0.9567 0.16811 0.0
C82 C 0.31983 0.97067 0.08988 0.0
N83 N 0.23328 0.03646 0.22743 0.0
H84 H 0.52123 0.28685 0.97953 0.0
H85 H 0.46083 0.25454 0.29299 0.0
H86 H 0.46725 0.36708 0.20459 0.0
H87 H 0.54618 0.23487 0.27814 0.0
C88 C 0.52697 0.21633 0.23543 0.0
C89 C 0.50392 0.29381 0.05631 0.0
C90 C 0.49244 0.33054 0.07634 0.0
C91 C 0.49302 0.26639 0.13876 0.0
C92 C 0.47007 0.27588 0.23502 0.0
C93 C 0.46306 0.31209 0.26685 0.0
C94 C 0.47265 0.33886 0.18316 0.0
N95 N 0.50637 0.22981 0.13482 0.0
Gd96 Gd 0.99406 0.04706 0.65741 0.0
Gd97 Gd 0.04613 1.00412 0.87417 0.0
C98 C 0.08977 0.09087 0.14374 0.0
C99 C 0.15337 0.09237 0.09092 0.0
C100 C 0.11325 0.04895 0.99068 0.0
C101 C 0.08452 0.06286 0.05553 0.0
C102 C 0.14836 0.06253 0.01095 0.0
C103 C 0.12405 0.10653 0.15737 0.0
C104 C 0.06069 0.10153 0.21768 0.0
C105 C 0.02767 0.08393 0.20371 0.0
N106 N 0.05178 0.04735 0.03778 0.0
C107 C 0.02378 0.05661 0.11387 0.0
H108 H 0.9984 0.04283 0.10804 0.0
C109 C 0.13595 1.00092 0.86777 0.0
N110 N 0.10723 0.02007 0.91521 0.0
C111 C 0.17128 1.01331 0.88464 0.0
C112 C 0.17746 0.04479 0.95429 0.0
H113 H 0.13148 0.9767 0.8123 0.0
H114 H 0.12854 0.12851 0.22274 0.0
H115 H 0.04643 0.03657 0.39051 0.0
H116 H 0.06366 0.12251 0.28781 0.0
H117 H 1.00519 0.09123 0.26256 0.0
H118 H 0.18002 0.1036 0.10624 0.0
H119 H 0.90674 0.03593 0.75308 0.0
H120 H 1.01037 0.94093 0.20851 0.0
H121 H 0.05552 0.98968 0.23593 0.0
H122 H 0.89454 0.92021 0.37877 0.0
H123 H 0.19367 0.99864 0.84357 0.0
H124 H 0.20485 0.0543 0.96776 0.0
H125 H 0.94914 0.91853 0.25054 0.0
H126 H 0.8566 0.99495 0.71667 0.0
N127 N 0.99947 1.01233 0.47015 0.0
C128 C 1.00635 0.9619 0.27749 0.0
C129 C 0.03213 0.9887 0.29503 0.0
C130 C 0.97524 0.96259 0.34848 0.0
C131 C 0.97269 0.98796 0.44679 0.0
C132 C 0.02736 1.01477 0.38803 0.0
N133 N 0.94184 1.011 0.61991 0.0
C134 C 0.94288 0.98769 0.52247 0.0
C135 C 0.88096 0.992 0.66269 0.0
C136 C 0.88295 0.9659 0.56939 0.0
C137 C 0.91036 1.01479 0.68512 0.0
C138 C 0.91383 0.96387 0.49656 0.0
H139 H 0.86014 0.9482 0.55211 0.0
O140 O 0.94894 0.08387 0.68103 0.0
O141 O 0.02118 0.0584 0.83858 0.0
O142 O 0.98701 1.00021 0.93727 0.0
O143 O 0.96296 0.04852 0.83874 0.0
O144 O 0.03495 0.09136 0.69754 0.0
O145 O 0.98133 0.08626 0.51891 0.0
O146 O 0.075 0.95641 0.93565 0.0
O147 O 1.00761 0.99084 0.71923 0.0
O148 O 0.05232 0.05275 0.58659 0.0
O149 O 0.08382 1.0151 0.71353 0.0
O150 O 0.05782 0.96656 0.71308 0.0
O151 O 0.02266 0.96897 1.00671 0.0
C152 C 0.03836 0.08741 0.81345 0.0
C153 C 0.91635 0.93891 0.39862 0.0
C154 C 0.94722 0.93801 0.32558 0.0
C155 C 0.95884 0.10361 0.59121 0.0
C156 C 0.96841 0.14103 0.6291 0.0
C157 C 0.94909 0.15884 0.72347 0.0
C158 C 1.00181 0.15501 0.594 0.0
C159 C 0.01838 0.18326 0.6614 0.0
C160 C 0.96415 0.18859 0.78587 0.0
C161 C 0.9989 0.20032 0.75706 0.0
C162 C 0.9604 0.0236 0.9228 0.0
C163 C 0.02668 0.96669 0.66163 0.0
C164 C 0.04636 0.94371 0.9869 0.0
C165 C 0.03177 0.9092 0.93601 0.0
C166 C 0.05106 0.88845 0.84876 0.0
C167 C 0.99604 0.89962 0.96246 0.0
C168 C 0.9786 0.87058 0.90062 0.0
C169 C 0.03442 0.85953 0.78702 0.0
C170 C 0.9985 0.85083 0.81146 0.0
C171 C 0.08223 0.03527 0.61602 0.0
H172 H 0.92332 0.14848 0.75349 0.0
H173 H 1.0158 0.14235 0.51728 0.0
H174 H 0.94946 0.20166 0.86028 0.0
H175 H 1.01049 0.22238 0.81064 0.0
H176 H 0.07856 0.89526 0.82506 0.0
H177 H 0.98217 0.91515 0.03283 0.0
H178 H 0.04927 0.8441 0.71824 0.0
H179 H 0.98674 0.82854 0.75985 0.0
Gd180 Gd 0.50778 0.99949 0.6027 0.0
Gd181 Gd 0.52097 0.06827 0.83054 0.0
C182 C 0.44433 0.07601 0.15711 0.0
C183 C 0.3932 0.1083 0.07535 0.0
C184 C 0.44549 0.09459 0.94717 0.0
C185 C 0.46231 0.07861 0.04409 0.0
C186 C 0.41083 0.10999 0.96211 0.0
C187 C 0.40976 0.09095 0.17231 0.0
C188 C 0.46145 0.05776 0.25058 0.0
C189 C 0.49698 0.0463 0.2341 0.0
N190 N 0.49587 0.06465 0.02729 0.0
C191 C 0.51455 0.052 0.12447 0.0
H192 H 0.5426 0.04426 0.11531 0.0
C193 C 0.44639 0.10924 0.7391 0.0
N194 N 0.46227 0.09355 0.83689 0.0
C195 C 0.41242 0.12547 0.74996 0.0
C196 C 0.39449 0.12578 0.86187 0.0
H197 H 0.45952 0.10939 0.65202 0.0
H198 H 0.39561 0.08918 0.25854 0.0
H199 H 0.56313 0.04474 0.41548 0.0
H200 H 0.448 0.05358 0.33689 0.0
H201 H 0.5112 0.033 0.30467 0.0
H202 H 0.36647 0.11966 0.08807 0.0
H203 H 0.4801 0.91638 0.67901 0.0
H204 H 0.65004 0.97496 0.31012 0.0
H205 H 0.61831 0.03344 0.29646 0.0
H206 H 0.62189 0.86416 0.50289 0.0
H207 H 0.40003 0.13758 0.67165 0.0
H208 H 0.36794 0.1379 0.86959 0.0
H209 H 0.65236 0.91271 0.39411 0.0
H210 H 0.50457 0.85427 0.68269 0.0
N211 N 0.56249 0.99285 0.49473 0.0
C212 C 0.62546 0.9796 0.36189 0.0
C213 C 0.60755 1.01258 0.3535 0.0
C214 C 0.61111 0.95274 0.43528 0.0
C215 C 0.57875 0.95997 0.4997 0.0
C216 C 0.57601 0.0188 0.42091 0.0
N217 N 0.5288 0.93936 0.6127 0.0
C218 C 0.56158 0.93254 0.56132 0.0
C219 C 0.52112 0.8761 0.65021 0.0
C220 C 0.55604 0.86923 0.60785 0.0
C221 C 0.50743 0.91128 0.64856 0.0
C222 C 0.57635 0.89735 0.55955 0.0
H223 H 0.56639 0.84183 0.60747 0.0
O224 O 0.50278 0.97765 0.41773 0.0
O225 O 0.47796 0.03686 0.73407 0.0
O226 O 0.52696 1.01378 0.92621 0.0
O227 O 0.52464 0.96935 0.77234 0.0
O228 O 0.46277 0.98273 0.72993 0.0
O229 O 0.45485 0.99085 0.51912 0.0
O230 O 0.52645 0.1263 0.81403 0.0
O231 O 0.54891 0.03919 0.67484 0.0
O232 O 0.50309 0.05508 0.50967 0.0
O233 O 0.52732 0.0962 0.64967 0.0
O234 O 0.57727 0.0439 0.83497 0.0
O235 O 0.55573 0.09889 0.9541 0.0
C236 C 0.45617 1.01398 0.78027 0.0
C237 C 0.60994 0.8909 0.50372 0.0
C238 C 0.62726 0.91853 0.44156 0.0
C239 C 0.46815 0.97371 0.4244 0.0
C240 C 0.45387 0.93697 0.39732 0.0
C241 C 0.47689 0.90708 0.37758 0.0
C242 C 0.41655 0.9315 0.39319 0.0
C243 C 0.40204 0.89676 0.37041 0.0
C244 C 0.4626 0.87243 0.35855 0.0
C245 C 0.42536 0.86724 0.35384 0.0
C246 C 0.52814 0.97934 0.88845 0.0
C247 C 0.5796 0.03225 0.72287 0.0
C248 C 0.55198 0.12873 0.89483 0.0
C249 C 0.58563 0.14666 0.85709 0.0
C250 C 0.58899 0.16354 0.744 0.0
C251 C 0.6159 0.14428 0.93192 0.0
C252 C 0.64972 0.15601 0.89228 0.0
C253 C 0.62267 0.17599 0.70502 0.0
C254 C 0.65323 0.17158 0.77786 0.0
C255 C 0.51538 0.08802 0.53895 0.0
H256 H 0.5059 0.91027 0.37843 0.0
H257 H 0.39879 0.9547 0.40314 0.0
H258 H 0.48035 0.8495 0.34605 0.0
H259 H 0.41477 0.8404 0.33472 0.0
H260 H 0.56597 0.16623 0.68432 0.0
H261 H 0.61363 0.13117 0.01903 0.0
H262 H 0.62522 0.18819 0.61678 0.0
H263 H 0.67941 0.17999 0.74503 0.0
Gd264 Gd 0.49411 0.5519 0.8336 0.0
Gd265 Gd 0.56475 0.51685 0.62572 0.0
C266 C 0.68099 0.55844 0.62749 0.0
C267 C 0.68147 0.59755 0.4532 0.0
C268 C 0.62771 0.56286 0.5007 0.0
C269 C 0.6446 0.54967 0.60304 0.0
C270 C 0.6459 0.58726 0.42534 0.0
C271 C 0.69917 0.58272 0.55279 0.0
C272 C 0.69823 0.54207 0.72507 0.0
C273 C 0.67944 0.51716 0.79412 0.0
N274 N 0.62588 0.52739 0.67653 0.0
C275 C 0.64316 0.51006 0.76838 0.0
H276 H 0.62878 0.49054 0.82172 0.0
C277 C 0.57602 0.56434 0.37439 0.0
N278 N 0.59309 0.55261 0.47681 0.0
C279 C 0.59291 0.58883 0.29798 0.0
C280 C 0.62773 0.60082 0.32468 0.0
H281 H 0.54872 0.55649 0.35364 0.0
H282 H 0.72698 0.59009 0.57098 0.0
H283 H 0.43832 0.58872 0.63145 0.0
H284 H 0.72621 0.5479 0.74622 0.0
H285 H 0.69272 0.50369 0.86804 0.0
H286 H 0.69576 0.61653 0.39716 0.0
H287 H 0.49993 0.50624 0.10001 0.0
H288 H 0.33231 0.54613 0.68471 0.0
H289 H 0.37389 0.58637 0.57549 0.0
H290 H 0.347 0.4683 0.02297 0.0
H291 H 0.57889 0.59877 0.2191 0.0
H292 H 0.6405 0.62016 0.26601 0.0
H293 H 0.32271 0.50149 0.85004 0.0
H294 H 0.46179 0.46729 0.22267 0.0
N295 N 0.43336 0.55023 0.77125 0.0
C296 C 0.3605 0.54733 0.7105 0.0
C297 C 0.38387 0.57006 0.64863 0.0
C298 C 0.37367 0.52683 0.80613 0.0
C299 C 0.41058 0.52954 0.83667 0.0
C300 C 0.42039 0.57118 0.68023 0.0
N301 N 0.45904 0.51717 0.9687 0.0
C302 C 0.42386 0.51217 0.93747 0.0
C303 C 0.4508 0.4797 0.14252 0.0
C304 C 0.41507 0.47334 0.10891 0.0
C305 C 0.47234 0.50225 0.07256 0.0
C306 C 0.40098 0.4901 1.00664 0.0
H307 H 0.3984 0.45605 0.16391 0.0
O308 O 0.51019 0.59363 0.96684 0.0
O309 O 0.5534 0.54329 0.80635 0.0
O310 O 0.55102 0.47768 0.78251 0.0
O311 O 0.4912 0.49047 0.83146 0.0
O312 O 0.53627 0.54389 0.98351 0.0
O313 O 0.46147 0.60008 0.86402 0.0
O314 O 0.55601 0.47198 0.496 0.0
O315 O 0.50629 0.52738 0.65254 0.0
O316 O 0.50553 0.59001 0.67224 0.0
O317 O 0.56537 0.5783 0.62356 0.0
O318 O 0.52068 0.51408 0.47777 0.0
O319 O 0.60222 0.47206 0.61455 0.0
C320 C 0.56462 0.54008 0.91565 0.0
C321 C 0.36475 0.48566 0.97225 0.0
C322 C 0.351 0.50434 0.87323 0.0
C323 C 0.48609 0.61629 0.92894 0.0
C324 C 0.49939 0.65085 0.88087 0.0
C325 C 0.4773 0.6716 0.80606 0.0
C326 C 0.53534 0.66148 0.89979 0.0
C327 C 0.55008 0.69174 0.84155 0.0
C328 C 0.49134 0.70145 0.74758 0.0
C329 C 0.52748 0.71106 0.76286 0.0
C330 C 0.51899 0.46783 0.82743 0.0
C331 C 0.49325 0.52202 0.54605 0.0
C332 C 0.58157 0.45267 0.54389 0.0
C333 C 0.57165 0.41719 0.59268 0.0
C334 C 0.59603 0.3986 0.66616 0.0
C335 C 0.53672 0.40348 0.57651 0.0
C336 C 0.52533 0.37203 0.6354 0.0
C337 C 0.58519 0.36759 0.72549 0.0
C338 C 0.55005 0.35462 0.71178 0.0
C339 C 0.53711 0.60026 0.62558 0.0
H340 H 0.44943 0.66414 0.78978 0.0
H341 H 0.5513 0.64622 0.96261 0.0
H342 H 0.47431 0.71684 0.688 0.0
H343 H 0.53718 0.7339 0.71314 0.0
H344 H 0.62319 0.40862 0.68049 0.0
H345 H 0.51886 0.41717 0.5151 0.0
H346 H 0.60393 0.35382 0.78389 0.0
H347 H 0.54258 0.33083 0.76102 0.0
Gd348 Gd 1.01347 0.50069 0.84663 0.0
Gd349 Gd 0.04503 0.55912 0.61449 0.0
C350 C 1.01489 0.67874 0.64689 0.0
C351 C 0.97243 0.68463 0.47977 0.0
C352 C 1.00304 0.62757 0.51114 0.0
C353 C 0.01953 0.64192 0.61408 0.0
C354 C 0.97986 0.64887 0.44112 0.0
C355 C 0.99027 0.69971 0.58178 0.0
C356 C 0.03643 0.69371 0.73997 0.0
C357 C 0.06288 0.67242 0.79348 0.0
N358 N 0.04291 0.62076 0.67485 0.0
C359 C 0.0661 0.63589 0.75833 0.0
H360 H 0.08632 0.61944 0.801 0.0
C361 C 1.00192 0.58043 0.3615 0.0
N362 N 1.01165 0.5933 0.47505 0.0
C363 C 0.97818 0.60012 0.29 0.0
C364 C 0.96605 0.63395 0.33218 0.0
H365 H 1.01091 0.55422 0.32838 0.0
H366 H 0.98579 0.72788 0.60691 0.0
H367 H 0.96932 0.44412 0.65471 0.0
H368 H 0.03385 0.72192 0.76774 0.0
H369 H 0.08049 0.68399 0.86278 0.0
H370 H 0.95425 0.70134 0.4284 0.0
H371 H 0.05118 0.50411 0.12653 0.0
H372 H 1.01033 0.33711 0.69806 0.0
H373 H 0.96881 0.37921 0.597 0.0
H374 H 0.09001 0.35083 0.03955 0.0
H375 H 0.9692 0.58909 0.20283 0.0
H376 H 0.94736 0.64892 0.27735 0.0
H377 H 0.05652 0.32698 0.86125 0.0
H378 H 0.08831 0.46538 0.25547 0.0
N379 N 1.01156 0.43919 0.78439 0.0
C380 C 1.01064 0.36559 0.72386 0.0
C381 C 0.9871 0.38924 0.66687 0.0
C382 C 0.03325 0.37876 0.81697 0.0
C383 C 0.03251 0.41608 0.84719 0.0
C384 C 0.98758 0.42606 0.69959 0.0
N385 N 0.04579 0.46446 0.98299 0.0
C386 C 0.05054 0.42924 0.94918 0.0
C387 C 0.07827 0.45496 0.1688 0.0
C388 C 0.08579 0.41945 0.13064 0.0
C389 C 0.0572 0.47687 0.09522 0.0
C390 C 0.07082 0.40577 0.02173 0.0
H391 H 0.10167 0.40236 0.18868 0.0
O392 O 0.98173 0.51834 1.00471 0.0
O393 O 0.0175 0.55935 0.79763 0.0
O394 O 0.09064 0.55038 0.75682 0.0
O395 O 0.07456 0.50071 0.8713 0.0
O396 O 0.03103 0.54657 0.97376 0.0
O397 O 0.9643 0.47263 0.89384 0.0
O398 O 0.0784 0.54245 0.45933 0.0
O399 O 0.04109 0.50057 0.6639 0.0
O400 O 0.96721 0.51019 0.70695 0.0
O401 O 0.98419 0.55808 0.58624 0.0
O402 O 0.02904 0.51299 0.48625 0.0
O403 O 0.09368 0.58872 0.5712 0.0
C404 C 0.02769 0.57312 0.90108 0.0
C405 C 0.0741 0.36917 0.98613 0.0
C406 C 0.05512 0.35561 0.88437 0.0
C407 C 0.95552 0.49614 0.97876 0.0
C408 C 0.919 0.51132 0.96887 0.0
C409 C 0.88987 0.48755 0.95243 0.0
C410 C 0.91288 0.54891 0.97127 0.0
C411 C 0.87767 0.56271 0.9598 0.0
C412 C 0.8551 0.5009 0.93845 0.0
C413 C 0.8489 0.53803 0.94292 0.0
C414 C 0.09854 0.52516 0.83753 0.0
C415 C 0.03183 0.48662 0.55974 0.0
C416 C 0.10368 0.56557 0.48668 0.0
C417 C 0.14077 0.55172 0.49744 0.0
C418 C 0.16885 0.57646 0.51849 0.0
C419 C 0.14852 0.51442 0.48925 0.0
C420 C 0.1843 0.50193 0.49961 0.0
C421 C 0.20413 0.5644 0.53131 0.0
C422 C 0.21193 0.52763 0.52109 0.0
C423 C 0.95978 0.5346 0.62305 0.0
H424 H 0.89408 0.45856 0.94976 0.0
H425 H 0.93539 0.56731 0.98281 0.0
H426 H 0.83272 0.48237 0.92632 0.0
H427 H 0.8212 0.54708 0.93779 0.0
H428 H 0.16343 0.60522 0.52531 0.0
H429 H 0.1268 0.49528 0.47431 0.0
H430 H 0.22567 0.5837 0.54692 0.0
H431 H 0.24 0.51975 0.52548 0.0
C432 C 0.15866 0.06137 0.39043 0.0
C433 C 0.17298 0.02719 0.35601 0.0
H434 H 0.11788 0.09107 0.49422 0.0
C435 C 0.15807 0.99686 0.41271 0.0
H436 H 0.16929 0.08541 0.34963 0.0
C437 C 0.12995 1.00016 0.49893 0.0
C438 C 0.11418 0.03385 0.52902 0.0
H439 H 0.16783 0.97002 0.3882 0.0
H440 H 0.11945 0.97581 0.53862 0.0
C441 C 0.12905 0.06458 0.47343 0.0
C442 C 0.49038 0.16126 0.30653 0.0
C443 C 0.52345 0.17967 0.29328 0.0
H444 H 0.46127 0.1192 0.39836 0.0
C445 C 0.55359 0.1658 0.3549 0.0
H446 H 0.46627 0.17158 0.2641 0.0
C447 C 0.55094 0.13527 0.42847 0.0
C448 C 0.51791 0.11734 0.44525 0.0
H449 H 0.5794 0.17938 0.34913 0.0
H450 H 0.57482 0.12628 0.4755 0.0
C451 C 0.48758 0.13089 0.38305 0.0
C452 C 0.40796 0.53365 0.34695 0.0
C453 C 0.38321 0.50953 0.39882 0.0
H454 H 0.46168 0.55655 0.35282 0.0
C455 C 0.39535 0.49002 0.50036 0.0
H456 H 0.40015 0.54899 0.26856 0.0
C457 C 0.43031 0.49465 0.54961 0.0
C458 C 0.45469 0.51948 0.50068 0.0
H459 H 0.37748 0.47094 0.54301 0.0
H460 H 0.43831 0.47862 0.62623 0.0
C461 C 0.44324 0.53818 0.39628 0.0
C462 C 0.06702 0.38899 0.49689 0.0
C463 C 0.04697 0.37713 0.39307 0.0
H464 H 0.07894 0.43165 0.62971 0.0
C465 C 0.02274 0.40215 0.34423 0.0
H466 H 0.08575 0.37059 0.53861 0.0
C467 C 0.01814 0.43711 0.39941 0.0
C468 C 0.03731 0.44845 0.50597 0.0
H469 H 1.00642 0.39436 0.26606 0.0
H470 H 0.99888 0.4553 0.35937 0.0
C471 C 0.06275 0.424 0.55106 0.0
C472 C 0.88652 0.99217 0.14828 0.0
C473 C 0.8611 0.02057 0.14684 0.0
H474 H 0.93754 0.97095 0.08247 0.0
C475 C 0.86984 0.05059 0.07601 0.0
H476 H 0.88012 0.96778 0.19596 0.0
C477 C 0.9023 0.05206 1.00809 0.0
C478 C 0.92735 0.02325 1.00625 0.0
H479 H 0.85058 0.07242 0.06828 0.0
H480 H 0.90713 0.07548 0.95329 0.0
C481 C 0.91927 0.99371 0.08075 0.0
C482 C 0.56938 0.92564 0.14799 0.0
C483 C 0.54946 0.89313 0.14732 0.0
H484 H 0.57786 0.97814 0.07293 0.0
C485 C 0.52113 0.88975 0.06226 0.0
H486 H 0.59213 0.92884 0.20827 0.0
C487 C 0.51399 0.91768 0.97895 0.0
C488 C 0.53423 0.95019 0.98051 0.0
H489 H 0.50534 0.86516 0.0571 0.0
H490 H 0.49249 0.91384 0.91325 0.0
C491 C 0.56146 0.95391 0.06872 0.0
C492 C 0.64928 0.53071 0.11931 0.0
C493 C 0.66987 0.56124 0.08929 0.0
H494 H 0.59984 0.50059 0.09011 0.0
C495 C 0.65593 0.58344 0.99723 0.0
H496 H 0.65815 0.51358 0.1919 0.0
C497 C 0.623 0.5757 0.93727 0.0
C498 C 0.60213 0.54558 0.9679 0.0
H499 H 0.67042 0.6076 0.97257 0.0
H500 H 0.61341 0.59382 0.86851 0.0
C501 C 0.61562 0.52345 0.06116 0.0
C502 C 0.98191 0.6638 0.99534 0.0
C503 C 1.00377 0.67734 0.09255 0.0
H504 H 0.97211 0.62202 0.85745 0.0
C505 C 0.03487 0.65719 0.11918 0.0
H506 H 0.95716 0.67776 0.97345 0.0
C507 C 0.0429 0.62435 0.05386 0.0
C508 C 0.02083 0.61079 0.9571 0.0
H509 H 0.05176 0.6655 0.19535 0.0
H510 H 0.0662 0.6089 0.08122 0.0
C511 C 0.99037 0.63154 0.9283 0.0
C512 C 0.10036 0.18651 0.46677 0.0
C513 C 0.0985 0.22352 0.44148 0.0
H514 H 0.07598 0.14372 0.5645 0.0
C515 C 0.08523 0.24677 0.53603 0.0
H516 H 0.11414 0.16765 0.40565 0.0
C517 C 0.06192 0.23324 0.62328 0.0
C518 C 0.0545 0.19615 0.62252 0.0
H519 H 0.0868 0.2758 0.53156 0.0
H520 H 0.04632 0.25236 0.67811 0.0
C521 C 0.07819 0.17277 0.55759 0.0
C522 C 0.32195 0.89582 0.17404 0.0
C523 C 0.30327 0.92394 0.23575 0.0
H524 H 0.3705 0.8647 0.17117 0.0
C525 C 0.30832 0.92852 0.36235 0.0
H526 H 0.31754 0.89073 0.0774 0.0
C527 C 0.33852 0.91339 0.41663 0.0
C528 C 0.36312 0.89342 0.34443 0.0
H529 H 0.29352 0.94903 0.41412 0.0
H530 H 0.34565 0.92223 0.50852 0.0
C531 C 0.35244 0.88096 0.22788 0.0
C532 C 0.44751 0.35791 0.43318 0.0
C533 C 0.45648 0.32216 0.39831 0.0
H534 H 0.46114 0.40287 0.55061 0.0
C535 C 0.47194 0.3004 0.48833 0.0
H536 H 0.43216 0.37484 0.37319 0.0
C537 C 0.48938 0.31659 0.5875 0.0
C538 C 0.49069 0.35443 0.59812 0.0
H539 H 0.47691 0.27186 0.47346 0.0
H540 H 0.50659 0.29953 0.64073 0.0
C541 C 0.46435 0.37403 0.53485 0.0
C542 C 0.19589 0.42069 0.29879 0.0
C543 C 0.23382 0.42337 0.30416 0.0
H544 H 0.14874 0.45089 0.34881 0.0
C545 C 0.24719 0.42748 0.42407 0.0
H546 H 0.18286 0.40944 0.21801 0.0
C547 C 0.22783 0.44986 0.50585 0.0
C548 C 0.19414 0.46359 0.46938 0.0
H549 H 0.27517 0.42192 0.44442 0.0
H550 H 0.24124 0.46036 0.58703 0.0
C551 C 0.17602 0.44434 0.37501 0.0
C552 C 0.91296 0.80547 0.02407 0.0
C553 C 0.91113 0.82436 0.13761 0.0
H554 H 0.94202 0.80421 0.85631 0.0
C555 C 0.9058 0.86177 0.12741 0.0
H556 H 0.9079 0.77671 0.01673 0.0
C557 C 0.92247 0.87906 0.03027 0.0
C558 C 0.94237 0.85807 0.94401 0.0
H559 H 0.89573 0.87803 0.20348 0.0
H560 H 0.92374 0.90823 0.03281 0.0
C561 C 0.93212 0.82152 0.92991 0.0
C562 C 0.72052 0.09755 0.01925 0.0
C563 C 0.71768 0.10783 0.14326 0.0
H564 H 0.70121 0.10642 0.83838 0.0
C565 C 0.70012 0.14026 0.17643 0.0
H566 H 0.73397 0.07265 0.99155 0.0
C567 C 0.68182 0.15968 0.08887 0.0
C568 C 0.68093 0.14688 0.96733 0.0
H569 H 0.69815 0.149 0.27138 0.0
H570 H 0.66525 0.18246 0.11812 0.0
C571 C 0.70215 0.11704 0.93148 0.0
C572 C 0.61277 0.76038 0.96893 0.0
C573 C 0.62116 0.74049 0.07323 0.0
H574 H 0.5806 0.7606 0.8096 0.0
C575 C 0.62723 0.70329 0.05154 0.0
H576 H 0.61403 0.78954 0.96917 0.0
C577 C 0.60913 0.68587 0.9548 0.0
C578 C 0.58625 0.70618 0.87999 0.0
H579 H 0.63983 0.68685 0.11962 0.0
H580 H 0.60916 0.65667 0.95051 0.0
C581 C 0.59351 0.74344 0.87455 0.0
C582 C 0.86748 0.64335 0.15885 0.0
C583 C 0.82959 0.641 0.15072 0.0
H584 H 0.91457 0.61305 0.1085 0.0
C585 C 0.817 0.63835 0.02946 0.0
H586 H 0.88011 0.65388 0.24136 0.0
C587 C 0.83649 0.61627 0.94715 0.0
C588 C 0.86958 0.60164 0.98542 0.0
H589 H 0.78941 0.64496 1.00715 0.0
H590 H 0.82336 0.6063 0.86471 0.0
C591 C 0.88754 0.62019 0.08154 0.0
C592 C 0.07842 0.17675 0.94647 0.0
C593 C 0.0519 0.19025 0.02877 0.0
H594 H 0.0952 0.1348 0.8177 0.0
C595 C 0.02075 0.16849 0.04192 0.0
H596 H 0.10337 0.19156 0.93585 0.0
C597 C 1.01632 0.13512 0.9749 0.0
C598 C 0.04336 0.12142 0.89477 0.0
H599 H 1.00013 0.17678 0.10692 0.0
H600 H 0.99163 0.11995 0.9863 0.0
C601 C 0.07404 0.14353 0.8801 0.0
C602 C 0.35725 0.03291 0.88055 0.0
C603 C 0.35626 0.01908 0.99945 0.0
H604 H 0.38923 0.0428 0.71895 0.0
C605 C 0.38965 1.00722 0.04725 0.0
H606 H 0.33241 0.0412 0.8378 0.0
C607 C 0.42174 1.00677 0.97765 0.0
C608 C 0.42283 0.02022 0.85908 0.0
H609 H 0.39049 0.99583 0.13723 0.0
H610 H 0.44587 0.9953 0.01662 0.0
C611 C 0.38998 0.03348 0.81168 0.0
C612 C 0.47349 0.38092 0.9379 0.0
C613 C 0.50156 0.36203 0.99519 0.0
H614 H 0.45678 0.42794 0.84153 0.0
C615 C 0.53604 0.37832 0.9954 0.0
H616 H 0.44633 0.37015 0.93912 0.0
C617 C 0.54212 0.41205 0.93945 0.0
C618 C 0.51384 0.43088 0.88256 0.0
H619 H 0.55812 0.36554 0.04224 0.0
H620 H 0.56886 0.42377 0.94317 0.0
C621 C 0.47946 0.41451 0.88297 0.0
C622 C 0.17161 0.52047 0.08683 0.0
C623 C 0.20428 0.51638 0.02063 0.0
H624 H 0.11389 0.52657 0.08324 0.0
C625 C 0.20189 0.51872 0.89244 0.0
H626 H 0.17176 0.51795 0.18512 0.0
C627 C 0.16808 0.52368 0.83359 0.0
C628 C 0.13533 0.52525 0.89973 0.0
H629 H 0.22581 0.5145 0.83695 0.0
H630 H 0.1673 0.52414 0.73559 0.0
C631 C 0.13802 0.5246 0.02786 0.0
C632 C 0.03012 0.87996 0.45298 0.0
C633 C 0.99608 0.8636 0.46823 0.0
H634 H 0.06559 0.92464 0.49804 0.0
C635 C 0.97205 0.8819 0.55046 0.0
H636 H 0.04943 0.86776 0.39012 0.0
C637 C 0.98122 0.91501 0.6121 0.0
C638 C 1.01463 0.93209 0.5925 0.0
H639 H 0.94556 0.87067 0.56661 0.0
H640 H 0.96205 0.92716 0.6756 0.0
C641 C 0.03917 0.91322 0.51405 0.0
C642 C 0.65851 0.07481 0.55083 0.0
C643 C 0.68231 0.04562 0.52219 0.0
H644 H 0.60817 0.09305 0.62879 0.0
C645 C 0.67383 1.01234 0.57609 0.0
H646 H 0.66438 0.10171 0.51993 0.0
C647 C 0.64134 1.00796 0.64476 0.0
C648 C 0.61569 0.03625 0.65792 0.0
H649 H 0.69115 0.98914 0.55981 0.0
H650 H 0.63544 0.98185 0.68221 0.0
C651 C 0.62585 0.07006 0.61447 0.0
C652 C 0.58217 0.68609 0.50862 0.0
C653 C 0.55454 0.7041 0.44569 0.0
H654 H 0.59853 0.64047 0.6118 0.0
C655 C 0.51983 0.68827 0.44812 0.0
H656 H 0.60933 0.69689 0.50884 0.0
C657 C 0.51351 0.65521 0.50851 0.0
C658 C 0.54173 0.63687 0.56787 0.0
H659 H 0.49792 0.70057 0.39903 0.0
H660 H 0.48675 0.64351 0.50584 0.0
C661 C 0.57601 0.65327 0.56728 0.0
C662 C 0.85679 0.54534 0.56736 0.0
C663 C 0.85456 0.54674 0.43884 0.0
H664 H 0.89103 0.53951 0.72504 0.0
C665 C 0.887 0.5403 0.37324 0.0
H666 H 0.83312 0.55134 0.62236 0.0
C667 C 0.9203 0.5348 0.43283 0.0
C668 C 0.92293 0.5351 0.5611 0.0
H669 H 0.88705 0.54202 0.27467 0.0
H670 H 0.94434 0.53118 0.37775 0.0
C671 C 0.89028 0.53905 0.62695 0.0
loop_
_geom_bond_atom_site_label_1
_geom_bond_atom_site_label_2
_geom_bond_distance
_geom_bond_site_symmetry_2
_ccdc_geom_bond_type
H0 C5 0.930 . S
H1 C8 0.930 . S
H2 C10 0.930 . S
H3 C4 1.016 . S
C4 H3 1.016 . S
C4 N11 1.286 . S
C5 H0 0.930 . S
C5 C6 1.397 . S
C5 C7 1.361 . S
C6 C5 1.397 . S
C6 C10 1.390 . S
C7 C5 1.361 . S
C7 C8 1.393 . S
C7 N11 1.413 . S
C8 H1 0.930 . S
C8 C7 1.393 . S
C8 C9 1.399 . S
C9 C8 1.399 . S
C9 C10 1.381 . S
C10 H2 0.930 . S
C10 C6 1.390 . S
C10 C9 1.381 . S
N11 C4 1.286 . S
N11 C7 1.413 . S
H12 C17 0.930 . S
H13 C20 0.930 . S
H14 C22 0.930 . S
H15 C16 1.016 . S
C16 H15 1.016 . S
C16 N23 1.286 . S
C17 H12 0.930 . S
C17 C18 1.397 . S
C17 C19 1.361 . S
C18 C17 1.397 . S
C18 C22 1.390 . S
C19 C17 1.361 . S
C19 C20 1.393 . S
C19 N23 1.413 . S
C20 H13 0.930 . S
C20 C19 1.393 . S
C20 C21 1.399 . S
C21 C20 1.399 . S
C21 C22 1.381 . S
C22 H14 0.930 . S
C22 C18 1.390 . S
C22 C21 1.381 . S
N23 C16 1.286 . S
N23 C19 1.413 . S
H24 C29 0.930 . S
H25 C32 0.930 . S
H26 C34 0.930 . S
H27 C28 1.016 . S
C28 H27 1.016 . S
C28 N35 1.286 . S
C29 H24 0.930 . S
C29 C30 1.397 . S
C29 C31 1.361 . S
C30 C29 1.397 . S
C30 C34 1.390 . S
C31 C29 1.361 . S
C31 C32 1.393 . S
C31 N35 1.413 . S
C32 H25 0.930 . S
C32 C31 1.393 . S
C32 C33 1.399 . S
C33 C32 1.399 . S
C33 C34 1.381 . S
C34 H26 0.930 . S
C34 C30 1.390 . S
C34 C33 1.381 . S
N35 C28 1.286 . S
N35 C31 1.413 . S
H36 C41 0.930 . S
H37 C44 0.930 . S
H38 C46 0.930 . S
H39 C40 1.016 . S
C40 H39 1.016 . S
C40 N47 1.286 . S
C41 H36 0.930 . S
C41 C42 1.397 . S
C41 C43 1.361 . S
C42 C41 1.397 . S
C42 C46 1.390 . S
C43 C41 1.361 . S
C43 C44 1.393 . S
C43 N47 1.413 . S
C44 H37 0.930 . S
C44 C43 1.393 . S
C44 C45 1.399 . S
C45 C44 1.399 . S
C45 C46 1.381 . S
C46 H38 0.930 . S
C46 C42 1.390 . S
C46 C45 1.381 . S
N47 C40 1.286 . S
N47 C43 1.413 . S
H48 C53 0.930 . S
H49 C56 0.930 . S
H50 C58 0.930 . S
H51 C52 1.016 . S
C52 H51 1.016 . S
C52 N59 1.286 . S
C53 H48 0.930 . S
C53 C54 1.397 . S
C53 C55 1.361 1_556 S
C54 C53 1.397 . S
C54 C58 1.390 . S
C55 C53 1.361 1_554 S
C55 C56 1.393 . S
C55 N59 1.413 . S
C56 H49 0.930 . S
C56 C55 1.393 . S
C56 C57 1.399 . S
C57 C56 1.399 . S
C57 C58 1.381 1_554 S
C58 H50 0.930 . S
C58 C54 1.390 . S
C58 C57 1.381 1_556 S
N59 C52 1.286 . S
N59 C55 1.413 . S
H60 C65 0.930 . S
H61 C68 0.930 . S
H62 C70 0.930 . S
H63 C64 1.016 . S
C64 H63 1.016 . S
C64 N71 1.286 . S
C65 H60 0.930 . S
C65 C66 1.397 . S
C65 C67 1.361 1_556 S
C66 C65 1.397 . S
C66 C70 1.390 . S
C67 C65 1.361 1_554 S
C67 C68 1.393 . S
C67 N71 1.413 . S
C68 H61 0.930 . S
C68 C67 1.393 . S
C68 C69 1.399 . S
C69 C68 1.399 . S
C69 C70 1.381 1_554 S
C70 H62 0.930 . S
C70 C66 1.390 . S
C70 C69 1.381 1_556 S
N71 C64 1.286 . S
N71 C67 1.413 . S
H72 C77 0.930 . S
H73 C80 0.930 . S
H74 C82 0.930 . S
H75 C76 1.016 . S
C76 H75 1.016 . S
C76 N83 1.286 . S
C77 H72 0.930 . S
C77 C78 1.397 . S
C77 C79 1.361 1_556 S
C78 C77 1.397 . S
C78 C82 1.390 . S
C79 C77 1.361 1_554 S
C79 C80 1.393 . S
C79 N83 1.413 . S
C80 H73 0.930 . S
C80 C79 1.393 . S
C80 C81 1.399 . S
C81 C80 1.399 . S
C81 C82 1.381 1_554 S
C82 H74 0.930 . S
C82 C78 1.390 . S
C82 C81 1.381 1_556 S
N83 C76 1.286 . S
N83 C79 1.413 . S
H84 C89 0.930 . S
H85 C92 0.930 . S
H86 C94 0.930 . S
H87 C88 1.016 . S
C88 H87 1.016 . S
C88 N95 1.286 . S
C89 H84 0.930 . S
C89 C90 1.397 . S
C89 C91 1.361 1_556 S
C90 C89 1.397 . S
C90 C94 1.390 . S
C91 C89 1.361 1_554 S
C91 C92 1.393 . S
C91 N95 1.413 . S
C92 H85 0.930 . S
C92 C91 1.393 . S
C92 C93 1.399 . S
C93 C92 1.399 . S
C93 C94 1.381 1_554 S
C94 H86 0.930 . S
C94 C90 1.390 . S
C94 C93 1.381 1_556 S
N95 C88 1.286 . S
N95 C91 1.413 . S
Gd96 N127 2.661 1_545 S
Gd96 N133 2.601 . S
Gd96 O140 2.545 . S
Gd96 O141 2.606 1_655 S
Gd96 O143 2.429 . S
Gd96 O144 2.545 1_655 S
Gd96 O145 2.412 . S
Gd96 O147 2.362 1_545 S
Gd96 O148 2.324 1_655 S
Gd96 C155 2.828 . S
Gd97 N106 2.661 1_566 S
Gd97 N110 2.601 1_565 S
Gd97 O141 2.362 1_565 S
Gd97 O142 2.324 1_455 S
Gd97 O146 2.545 . S
Gd97 O147 2.606 1_455 S
Gd97 O149 2.429 . S
Gd97 O150 2.545 . S
Gd97 O151 2.412 1_556 S
Gd97 C164 2.828 . S
C98 C101 1.417 . S
C98 C103 1.431 . S
C98 C104 1.412 . S
C99 C102 1.437 . S
C99 C103 1.317 . S
C99 H118 0.929 . S
C100 C101 1.426 . S
C100 C102 1.413 . S
C100 N110 1.359 1_554 S
C101 C98 1.417 . S
C101 C100 1.426 . S
C101 N106 1.350 . S
C102 C99 1.437 . S
C102 C100 1.413 . S
C102 C112 1.391 . S
C103 C98 1.431 . S
C103 C99 1.317 . S
C103 H114 0.930 . S
C104 C98 1.412 . S
C104 C105 1.355 . S
C104 H116 0.930 . S
C105 C104 1.355 . S
C105 C107 1.402 . S
C105 H117 0.930 1_455 S
N106 Gd97 2.661 1_544 S
N106 C101 1.350 . S
N106 C107 1.307 . S
C107 C105 1.402 . S
C107 N106 1.307 . S
C107 H108 0.930 1_455 S
H108 C107 0.930 1_655 S
C109 N110 1.334 1_565 S
C109 C111 1.394 . S
C109 H113 0.930 . S
N110 Gd97 2.601 1_545 S
N110 C100 1.359 1_556 S
N110 C109 1.334 1_545 S
C111 C109 1.394 . S
C111 C112 1.359 1_566 S
C111 H123 0.930 . S
C112 C102 1.391 . S
C112 C111 1.359 1_544 S
C112 H124 0.929 . S
H113 C109 0.930 . S
H114 C103 0.930 . S
H115 C132 0.930 . S
H116 C104 0.930 . S
H117 C105 0.930 1_655 S
H118 C99 0.929 . S
H119 C137 0.930 . S
H120 C128 0.930 . S
H121 C129 0.930 . S
H122 C153 0.929 . S
H123 C111 0.930 . S
H124 C112 0.929 . S
H125 C154 0.930 . S
H126 C135 0.930 . S
N127 Gd96 2.661 1_565 S
N127 C131 1.350 . S
N127 C132 1.307 1_655 S
C128 H120 0.930 . S
C128 C129 1.355 1_655 S
C128 C130 1.412 . S
C129 H121 0.930 . S
C129 C128 1.355 1_455 S
C129 C132 1.402 . S
C130 C128 1.412 . S
C130 C131 1.417 . S
C130 C154 1.431 . S
C131 N127 1.350 . S
C131 C130 1.417 . S
C131 C134 1.426 . S
C132 H115 0.930 . S
C132 N127 1.307 1_455 S
C132 C129 1.402 . S
N133 Gd96 2.601 . S
N133 C134 1.359 1_545 S
N133 C137 1.334 . S
C134 C131 1.426 . S
C134 N133 1.359 1_565 S
C134 C138 1.413 . S
C135 H126 0.930 . S
C135 C136 1.359 . S
C135 C137 1.394 . S
C136 C135 1.359 . S
C136 C138 1.391 1_545 S
C136 H139 0.929 . S
C137 H119 0.930 . S
C137 N133 1.334 . S
C137 C135 1.394 . S
C138 C134 1.413 . S
C138 C136 1.391 1_565 S
C138 C153 1.437 . S
H139 C136 0.929 . S
O140 Gd96 2.545 . S
O140 C155 1.258 . S
O141 Gd96 2.606 1_455 S
O141 Gd97 2.362 1_545 S
O141 C152 1.284 . S
O142 Gd97 2.324 1_655 S
O142 C162 1.254 1_565 S
O143 Gd96 2.429 . S
O143 C162 1.268 . S
O144 Gd96 2.545 1_455 S
O144 C152 1.250 . S
O145 Gd96 2.412 . S
O145 C155 1.252 . S
O146 Gd97 2.545 . S
O146 C164 1.258 . S
O147 Gd96 2.362 1_565 S
O147 Gd97 2.606 1_655 S
O147 C163 1.284 . S
O148 Gd96 2.324 1_455 S
O148 C171 1.254 . S
O149 Gd97 2.429 . S
O149 C171 1.268 1_565 S
O150 Gd97 2.545 . S
O150 C163 1.250 1_455 S
O151 Gd97 2.412 1_554 S
O151 C164 1.252 1_554 S
C152 O141 1.284 . S
C152 O144 1.250 . S
C153 H122 0.929 . S
C153 C138 1.437 . S
C153 C154 1.317 . S
C154 H125 0.930 . S
C154 C130 1.431 . S
C154 C153 1.317 . S
C155 Gd96 2.828 . S
C155 O140 1.258 . S
C155 O145 1.252 . S
C155 C156 1.497 . S
C156 C155 1.497 . S
C156 C157 1.395 . S
C156 C158 1.380 . S
C157 C156 1.395 . S
C157 C160 1.398 . S
C157 H172 0.930 . S
C158 C156 1.380 . S
C158 C159 1.391 . S
C158 H173 0.930 1_655 S
C159 C158 1.391 . S
C159 C161 1.387 . S
C160 C157 1.398 . S
C160 C161 1.380 . S
C160 H174 0.930 . S
C161 C159 1.387 . S
C161 C160 1.380 . S
C161 H175 0.930 . S
C162 O142 1.254 1_545 S
C162 O143 1.268 . S
C163 O147 1.284 . S
C163 O150 1.250 1_655 S
C164 Gd97 2.828 . S
C164 O146 1.258 . S
C164 O151 1.252 1_556 S
C164 C165 1.497 1_556 S
C165 C164 1.497 1_554 S
C165 C166 1.395 . S
C165 C167 1.380 . S
C166 C165 1.395 . S
C166 C169 1.398 . S
C166 H176 0.930 . S
C167 C165 1.380 . S
C167 C168 1.391 . S
C167 H177 0.930 . S
C168 C167 1.391 . S
C168 C170 1.387 . S
C169 C166 1.398 . S
C169 C170 1.380 . S
C169 H178 0.930 . S
C170 C168 1.387 . S
C170 C169 1.380 . S
C170 H179 0.930 . S
C171 O148 1.254 . S
C171 O149 1.268 1_545 S
H172 C157 0.930 . S
H173 C158 0.930 1_455 S
H174 C160 0.930 . S
H175 C161 0.930 . S
H176 C166 0.930 . S
H177 C167 0.930 . S
H178 C169 0.930 . S
H179 C170 0.930 . S
Gd180 N211 2.661 . S
Gd180 N217 2.601 . S
Gd180 O224 2.545 . S
Gd180 O225 2.606 1_565 S
Gd180 O227 2.429 . S
Gd180 O228 2.545 1_565 S
Gd180 O229 2.412 . S
Gd180 O231 2.362 . S
Gd180 O232 2.324 1_565 S
Gd180 C239 2.828 . S
Gd181 N190 2.661 1_556 S
Gd181 N194 2.601 . S
Gd181 O225 2.362 . S
Gd181 O226 2.324 1_545 S
Gd181 O230 2.545 . S
Gd181 O231 2.606 1_545 S
Gd181 O233 2.429 . S
Gd181 O234 2.545 . S
Gd181 O235 2.412 1_556 S
Gd181 C248 2.831 . S
C182 C185 1.417 . S
C182 C187 1.431 . S
C182 C188 1.412 . S
C183 C186 1.437 . S
C183 C187 1.317 . S
C183 H202 0.929 . S
C184 C185 1.426 . S
C184 C186 1.413 . S
C184 N194 1.359 1_554 S
C185 C182 1.417 . S
C185 C184 1.426 . S
C185 N190 1.350 . S
C186 C183 1.437 . S
C186 C184 1.413 . S
C186 C196 1.391 . S
C187 C182 1.431 . S
C187 C183 1.317 . S
C187 H198 0.930 . S
C188 C182 1.412 . S
C188 C189 1.355 . S
C188 H200 0.930 . S
C189 C188 1.355 . S
C189 C191 1.402 . S
C189 H201 0.930 1_545 S
N190 Gd181 2.661 1_554 S
N190 C185 1.350 . S
N190 C191 1.307 . S
C191 C189 1.402 . S
C191 N190 1.307 . S
C191 H192 0.930 1_545 S
H192 C191 0.930 1_565 S
C193 N194 1.334 . S
C193 C195 1.394 . S
C193 H197 0.930 . S
N194 Gd181 2.601 . S
N194 C184 1.359 1_556 S
N194 C193 1.334 . S
C195 C193 1.394 . S
C195 C196 1.359 1_556 S
C195 H207 0.930 . S
C196 C186 1.391 . S
C196 C195 1.359 1_554 S
C196 H208 0.929 . S
H197 C193 0.930 . S
H198 C187 0.930 . S
H199 C216 0.930 . S
H200 C188 0.930 . S
H201 C189 0.930 1_565 S
H202 C183 0.929 . S
H203 C221 0.930 . S
H204 C212 0.930 . S
H205 C213 0.930 . S
H206 C237 0.929 . S
H207 C195 0.930 . S
H208 C196 0.929 . S
H209 C238 0.930 . S
H210 C219 0.930 . S
N211 Gd180 2.661 . S
N211 C215 1.350 . S
N211 C216 1.307 1_565 S
C212 H204 0.930 . S
C212 C213 1.355 1_565 S
C212 C214 1.412 . S
C213 H205 0.930 . S
C213 C212 1.355 1_545 S
C213 C216 1.402 . S
C214 C212 1.412 . S
C214 C215 1.417 . S
C214 C238 1.431 . S
C215 N211 1.350 . S
C215 C214 1.417 . S
C215 C218 1.426 . S
C216 H199 0.930 . S
C216 N211 1.307 1_545 S
C216 C213 1.402 . S
N217 Gd180 2.601 . S
N217 C218 1.359 . S
N217 C221 1.334 . S
C218 C215 1.426 . S
C218 N217 1.359 . S
C218 C222 1.413 . S
C219 H210 0.930 . S
C219 C220 1.359 . S
C219 C221 1.394 . S
C220 C219 1.359 . S
C220 C222 1.391 . S
C220 H223 0.929 . S
C221 H203 0.930 . S
C221 N217 1.334 . S
C221 C219 1.394 . S
C222 C218 1.413 . S
C222 C220 1.391 . S
C222 C237 1.437 . S
H223 C220 0.929 . S
O224 Gd180 2.545 . S
O224 C239 1.258 . S
O225 Gd180 2.606 1_545 S
O225 Gd181 2.362 . S
O225 C236 1.284 . S
O226 Gd181 2.324 1_565 S
O226 C246 1.254 . S
O227 Gd180 2.429 . S
O227 C246 1.268 . S
O228 Gd180 2.545 1_545 S
O228 C236 1.250 . S
O229 Gd180 2.412 . S
O229 C239 1.252 . S
O230 Gd181 2.545 . S
O230 C248 1.261 . S
O231 Gd180 2.362 . S
O231 Gd181 2.606 1_565 S
O231 C247 1.284 . S
O232 Gd180 2.324 1_545 S
O232 C255 1.254 . S
O233 Gd181 2.429 . S
O233 C255 1.268 . S
O234 Gd181 2.545 . S
O234 C247 1.250 1_545 S
O235 Gd181 2.412 1_554 S
O235 C248 1.251 1_554 S
C236 O225 1.284 . S
C236 O228 1.250 . S
C237 H206 0.929 . S
C237 C222 1.437 . S
C237 C238 1.317 . S
C238 H209 0.930 . S
C238 C214 1.431 . S
C238 C237 1.317 . S
C239 Gd180 2.828 . S
C239 O224 1.258 . S
C239 O229 1.252 . S
C239 C240 1.497 . S
C240 C239 1.497 . S
C240 C241 1.395 . S
C240 C242 1.380 . S
C241 C240 1.395 . S
C241 C244 1.398 . S
C241 H256 0.930 . S
C242 C240 1.380 . S
C242 C243 1.391 . S
C242 H257 0.930 1_565 S
C243 C242 1.391 . S
C243 C245 1.387 . S
C244 C241 1.398 . S
C244 C245 1.380 . S
C244 H258 0.930 . S
C245 C243 1.387 . S
C245 C244 1.380 . S
C245 H259 0.930 . S
C246 O226 1.254 . S
C246 O227 1.268 . S
C247 O231 1.284 . S
C247 O234 1.250 1_565 S
C248 Gd181 2.831 . S
C248 O230 1.261 . S
C248 O235 1.251 1_556 S
C248 C249 1.495 1_556 S
C249 C248 1.495 1_554 S
C249 C250 1.395 . S
C249 C251 1.380 . S
C250 C249 1.395 . S
C250 C253 1.398 . S
C250 H260 0.930 . S
C251 C249 1.380 . S
C251 C252 1.391 . S
C251 H261 0.930 . S
C252 C251 1.391 . S
C252 C254 1.387 . S
C253 C250 1.398 . S
C253 C254 1.380 . S
C253 H262 0.930 . S
C254 C252 1.387 . S
C254 C253 1.380 . S
C254 H263 0.930 . S
C255 O232 1.254 . S
C255 O233 1.268 . S
H256 C241 0.930 . S
H257 C242 0.930 1_545 S
H258 C244 0.930 . S
H259 C245 0.930 . S
H260 C250 0.930 . S
H261 C251 0.930 . S
H262 C253 0.930 . S
H263 C254 0.930 . S
Gd264 N295 2.661 . S
Gd264 N301 2.601 . S
Gd264 O308 2.545 1_556 S
Gd264 O309 2.606 . S
Gd264 O311 2.429 . S
Gd264 O312 2.545 . S
Gd264 O313 2.412 . S
Gd264 O315 2.362 . S
Gd264 O316 2.324 . S
Gd264 C323 2.828 1_556 S
Gd265 N274 2.661 . S
Gd265 N278 2.601 . S
Gd265 O309 2.362 . S
Gd265 O310 2.324 . S
Gd265 O314 2.545 . S
Gd265 O315 2.606 . S
Gd265 O317 2.429 . S
Gd265 O318 2.545 . S
Gd265 O319 2.412 . S
Gd265 C332 2.828 . S
C266 C269 1.417 . S
C266 C271 1.431 . S
C266 C272 1.412 . S
C267 C270 1.437 . S
C267 C271 1.317 . S
C267 H286 0.929 . S
C268 C269 1.426 . S
C268 C270 1.413 . S
C268 N278 1.359 . S
C269 C266 1.417 . S
C269 C268 1.426 . S
C269 N274 1.350 . S
C270 C267 1.437 . S
C270 C268 1.413 . S
C270 C280 1.391 . S
C271 C266 1.431 . S
C271 C267 1.317 . S
C271 H282 0.930 . S
C272 C266 1.412 . S
C272 C273 1.355 . S
C272 H284 0.930 . S
C273 C272 1.355 . S
C273 C275 1.402 . S
C273 H285 0.930 . S
N274 Gd265 2.661 . S
N274 C269 1.350 . S
N274 C275 1.307 . S
C275 C273 1.402 . S
C275 N274 1.307 . S
C275 H276 0.930 . S
H276 C275 0.930 . S
C277 N278 1.334 . S
C277 C279 1.394 . S
C277 H281 0.930 . S
N278 Gd265 2.601 . S
N278 C268 1.359 . S
N278 C277 1.334 . S
C279 C277 1.394 . S
C279 C280 1.359 . S
C279 H291 0.930 . S
C280 C270 1.391 . S
C280 C279 1.359 . S
C280 H292 0.929 . S
H281 C277 0.930 . S
H282 C271 0.930 . S
H283 C300 0.930 . S
H284 C272 0.930 . S
H285 C273 0.930 . S
H286 C267 0.929 . S
H287 C305 0.930 . S
H288 C296 0.930 . S
H289 C297 0.930 . S
H290 C321 0.929 . S
H291 C279 0.930 . S
H292 C280 0.929 . S
H293 C322 0.930 . S
H294 C303 0.930 . S
N295 Gd264 2.661 . S
N295 C299 1.350 . S
N295 C300 1.307 . S
C296 H288 0.930 . S
C296 C297 1.355 . S
C296 C298 1.412 . S
C297 H289 0.930 . S
C297 C296 1.355 . S
C297 C300 1.402 . S
C298 C296 1.412 . S
C298 C299 1.417 . S
C298 C322 1.431 . S
C299 N295 1.350 . S
C299 C298 1.417 . S
C299 C302 1.426 . S
C300 H283 0.930 . S
C300 N295 1.307 . S
C300 C297 1.402 . S
N301 Gd264 2.601 . S
N301 C302 1.359 . S
N301 C305 1.334 1_556 S
C302 C299 1.426 . S
C302 N301 1.359 . S
C302 C306 1.413 . S
C303 H294 0.930 . S
C303 C304 1.359 . S
C303 C305 1.394 . S
C304 C303 1.359 . S
C304 C306 1.391 1_554 S
C304 H307 0.929 . S
C305 H287 0.930 . S
C305 N301 1.334 1_554 S
C305 C303 1.394 . S
C306 C302 1.413 . S
C306 C304 1.391 1_556 S
C306 C321 1.437 . S
H307 C304 0.929 . S
O308 Gd264 2.545 1_554 S
O308 C323 1.258 . S
O309 Gd264 2.606 . S
O309 Gd265 2.362 . S
O309 C320 1.284 . S
O310 Gd265 2.324 . S
O310 C330 1.254 . S
O311 Gd264 2.429 . S
O311 C330 1.268 . S
O312 Gd264 2.545 . S
O312 C320 1.250 . S
O313 Gd264 2.412 . S
O313 C323 1.252 1_556 S
O314 Gd265 2.545 . S
O314 C332 1.258 . S
O315 Gd264 2.362 . S
O315 Gd265 2.606 . S
O315 C331 1.284 . S
O316 Gd264 2.324 . S
O316 C339 1.254 . S
O317 Gd265 2.429 . S
O317 C339 1.268 . S
O318 Gd265 2.545 . S
O318 C331 1.250 . S
O319 Gd265 2.412 . S
O319 C332 1.252 . S
C320 O309 1.284 . S
C320 O312 1.250 . S
C321 H290 0.929 . S
C321 C306 1.437 . S
C321 C322 1.317 . S
C322 H293 0.930 . S
C322 C298 1.431 . S
C322 C321 1.317 . S
C323 Gd264 2.828 1_554 S
C323 O308 1.258 . S
C323 O313 1.252 1_554 S
C323 C324 1.497 . S
C324 C323 1.497 . S
C324 C325 1.395 . S
C324 C326 1.380 . S
C325 C324 1.395 . S
C325 C328 1.398 . S
C325 H340 0.930 . S
C326 C324 1.380 . S
C326 C327 1.391 . S
C326 H341 0.930 . S
C327 C326 1.391 . S
C327 C329 1.387 . S
C328 C325 1.398 . S
C328 C329 1.380 . S
C328 H342 0.930 . S
C329 C327 1.387 . S
C329 C328 1.380 . S
C329 H343 0.930 . S
C330 O310 1.254 . S
C330 O311 1.268 . S
C331 O315 1.284 . S
C331 O318 1.250 . S
C332 Gd265 2.828 . S
C332 O314 1.258 . S
C332 O319 1.252 . S
C332 C333 1.497 . S
C333 C332 1.497 . S
C333 C334 1.395 . S
C333 C335 1.380 . S
C334 C333 1.395 . S
C334 C337 1.398 . S
C334 H344 0.930 . S
C335 C333 1.380 . S
C335 C336 1.391 . S
C335 H345 0.930 . S
C336 C335 1.391 . S
C336 C338 1.387 . S
C337 C334 1.398 . S
C337 C338 1.380 . S
C337 H346 0.930 . S
C338 C336 1.387 . S
C338 C337 1.380 . S
C338 H347 0.930 . S
C339 O316 1.254 . S
C339 O317 1.268 . S
H340 C325 0.930 . S
H341 C326 0.930 . S
H342 C328 0.930 . S
H343 C329 0.930 . S
H344 C334 0.930 . S
H345 C335 0.930 . S
H346 C337 0.930 . S
H347 C338 0.930 . S
Gd348 N379 2.661 . S
Gd348 N385 2.604 . S
Gd348 O392 2.545 1_556 S
Gd348 O393 2.606 1_655 S
Gd348 O395 2.429 1_655 S
Gd348 O396 2.545 . S
Gd348 O397 2.412 . S
Gd348 O399 2.362 1_655 S
Gd348 O400 2.324 . S
Gd348 C407 2.828 1_556 S
Gd349 N358 2.661 . S
Gd349 N362 2.601 . S
Gd349 O393 2.362 . S
Gd349 O394 2.324 . S
Gd349 O398 2.545 . S
Gd349 O399 2.606 . S
Gd349 O401 2.429 1_455 S
Gd349 O402 2.545 . S
Gd349 O403 2.412 . S
Gd349 C416 2.828 . S
C350 C353 1.417 . S
C350 C355 1.431 . S
C350 C356 1.412 . S
C351 C354 1.437 . S
C351 C355 1.317 . S
C351 H370 0.929 . S
C352 C353 1.426 . S
C352 C354 1.413 . S
C352 N362 1.359 . S
C353 C350 1.417 . S
C353 C352 1.426 . S
C353 N358 1.350 . S
C354 C351 1.437 . S
C354 C352 1.413 . S
C354 C364 1.391 . S
C355 C350 1.431 . S
C355 C351 1.317 . S
C355 H366 0.930 . S
C356 C350 1.412 . S
C356 C357 1.355 . S
C356 H368 0.930 . S
C357 C356 1.355 . S
C357 C359 1.402 . S
C357 H369 0.930 . S
N358 Gd349 2.661 . S
N358 C353 1.350 . S
N358 C359 1.307 . S
C359 C357 1.402 . S
C359 N358 1.307 . S
C359 H360 0.930 . S
H360 C359 0.930 . S
C361 N362 1.334 1_655 S
C361 C363 1.394 . S
C361 H365 0.930 . S
N362 Gd349 2.601 . S
N362 C352 1.359 . S
N362 C361 1.334 1_455 S
C363 C361 1.394 . S
C363 C364 1.359 1_655 S
C363 H375 0.930 . S
C364 C354 1.391 . S
C364 C363 1.359 1_455 S
C364 H376 0.929 1_455 S
H365 C361 0.930 . S
H366 C355 0.930 . S
H367 C384 0.930 . S
H368 C356 0.930 . S
H369 C357 0.930 . S
H370 C351 0.929 . S
H371 C389 0.930 . S
H372 C380 0.930 . S
H373 C381 0.930 . S
H374 C405 0.929 . S
H375 C363 0.930 . S
H376 C364 0.929 1_655 S
H377 C406 0.930 . S
H378 C387 0.930 . S
N379 Gd348 2.661 . S
N379 C383 1.350 . S
N379 C384 1.307 . S
C380 H372 0.930 . S
C380 C381 1.355 . S
C380 C382 1.412 . S
C381 H373 0.930 . S
C381 C380 1.355 . S
C381 C384 1.402 . S
C382 C380 1.412 . S
C382 C383 1.417 . S
C382 C406 1.431 . S
C383 N379 1.350 . S
C383 C382 1.417 . S
C383 C386 1.426 . S
C384 H367 0.930 . S
C384 N379 1.307 . S
C384 C381 1.402 . S
N385 Gd348 2.604 . S
N385 C386 1.364 . S
N385 C389 1.327 1_656 S
C386 C383 1.426 . S
C386 N385 1.364 . S
C386 C390 1.413 . S
C387 H378 0.930 . S
C387 C388 1.359 . S
C387 C389 1.394 . S
C388 C387 1.359 . S
C388 C390 1.391 1_454 S
C388 H391 0.929 . S
C389 H371 0.930 . S
C389 N385 1.327 1_454 S
C389 C387 1.394 . S
C390 C386 1.413 . S
C390 C388 1.391 1_656 S
C390 C405 1.437 . S
H391 C388 0.929 . S
O392 Gd348 2.545 1_554 S
O392 C407 1.258 . S
O393 Gd348 2.606 1_455 S
O393 Gd349 2.362 . S
O393 C404 1.284 1_455 S
O394 Gd349 2.324 . S
O394 C414 1.254 . S
O395 Gd348 2.429 1_455 S
O395 C414 1.268 . S
O396 Gd348 2.545 . S
O396 C404 1.250 . S
O397 Gd348 2.412 . S
O397 C407 1.252 1_556 S
O398 Gd349 2.545 . S
O398 C416 1.258 . S
O399 Gd348 2.362 1_455 S
O399 Gd349 2.606 . S
O399 C415 1.284 . S
O400 Gd348 2.324 . S
O400 C423 1.254 . S
O401 Gd349 2.429 1_655 S
O401 C423 1.268 . S
O402 Gd349 2.545 . S
O402 C415 1.250 . S
O403 Gd349 2.412 . S
O403 C416 1.252 . S
C404 O393 1.284 1_655 S
C404 O396 1.250 . S
C405 H374 0.929 . S
C405 C390 1.437 . S
C405 C406 1.317 . S
C406 H377 0.930 . S
C406 C382 1.431 . S
C406 C405 1.317 . S
C407 Gd348 2.828 1_554 S
C407 O392 1.258 . S
C407 O397 1.252 1_554 S
C407 C408 1.497 . S
C408 C407 1.497 . S
C408 C409 1.395 . S
C408 C410 1.380 . S
C409 C408 1.395 . S
C409 C412 1.398 . S
C409 H424 0.930 . S
C410 C408 1.380 . S
C410 C411 1.391 . S
C410 H425 0.930 . S
C411 C410 1.391 . S
C411 C413 1.387 . S
C412 C409 1.398 . S
C412 C413 1.380 . S
C412 H426 0.930 . S
C413 C411 1.387 . S
C413 C412 1.380 . S
C413 H427 0.930 . S
C414 O394 1.254 . S
C414 O395 1.268 . S
C415 O399 1.284 . S
C415 O402 1.250 . S
C416 Gd349 2.828 . S
C416 O398 1.258 . S
C416 O403 1.252 . S
C416 C417 1.497 . S
C417 C416 1.497 . S
C417 C418 1.395 . S
C417 C419 1.380 . S
C418 C417 1.395 . S
C418 C421 1.398 . S
C418 H428 0.930 . S
C419 C417 1.380 . S
C419 C420 1.391 . S
C419 H429 0.930 . S
C420 C419 1.391 . S
C420 C422 1.387 . S
C421 C418 1.398 . S
C421 C422 1.380 . S
C421 H430 0.930 . S
C422 C420 1.387 . S
C422 C421 1.380 . S
C422 H431 0.930 . S
C423 O400 1.254 . S
C423 O401 1.268 . S
H424 C409 0.930 . S
H425 C410 0.930 . S
H426 C412 0.930 . S
H427 C413 0.930 . S
H428 C418 0.930 . S
H429 C419 0.930 . S
H430 C421 0.930 . S
H431 C422 0.930 . S
C432 C433 1.387 . S
C432 H436 0.950 . S
C432 C441 1.390 . S
C433 C432 1.387 . S
C433 C435 1.387 . S
H434 C441 0.950 . S
C435 C433 1.387 . S
C435 C437 1.390 . S
C435 H439 0.950 1_545 S
H436 C432 0.950 . S
C437 C435 1.390 . S
C437 C438 1.387 . S
C437 H440 0.950 1_545 S
C438 C437 1.387 . S
C438 C441 1.387 . S
H439 C435 0.950 1_565 S
H440 C437 0.950 1_565 S
C441 C432 1.390 . S
C441 H434 0.950 . S
C441 C438 1.387 . S
C442 C443 1.387 . S
C442 H446 0.950 . S
C442 C451 1.390 . S
C443 C442 1.387 . S
C443 C445 1.387 . S
H444 C451 0.950 . S
C445 C443 1.387 . S
C445 C447 1.390 . S
C445 H449 0.950 . S
H446 C442 0.950 . S
C447 C445 1.390 . S
C447 C448 1.387 . S
C447 H450 0.950 . S
C448 C447 1.387 . S
C448 C451 1.387 . S
H449 C445 0.950 . S
H450 C447 0.950 . S
C451 C442 1.390 . S
C451 H444 0.950 . S
C451 C448 1.387 . S
C452 C453 1.387 . S
C452 H456 0.950 . S
C452 C461 1.390 . S
C453 C452 1.387 . S
C453 C455 1.387 . S
H454 C461 0.950 . S
C455 C453 1.387 . S
C455 C457 1.390 . S
C455 H459 0.950 . S
H456 C452 0.950 . S
C457 C455 1.390 . S
C457 C458 1.387 . S
C457 H460 0.950 . S
C458 C457 1.387 . S
C458 C461 1.387 . S
H459 C455 0.950 . S
H460 C457 0.950 . S
C461 C452 1.390 . S
C461 H454 0.950 . S
C461 C458 1.387 . S
C462 C463 1.387 . S
C462 H466 0.950 . S
C462 C471 1.390 . S
C463 C462 1.387 . S
C463 C465 1.387 . S
H464 C471 0.950 . S
C465 C463 1.387 . S
C465 C467 1.390 . S
C465 H469 0.950 1_455 S
H466 C462 0.950 . S
C467 C465 1.390 . S
C467 C468 1.387 . S
C467 H470 0.950 1_455 S
C468 C467 1.387 . S
C468 C471 1.387 . S
H469 C465 0.950 1_655 S
H470 C467 0.950 1_655 S
C471 C462 1.390 . S
C471 H464 0.950 . S
C471 C468 1.387 . S
C472 C473 1.387 . S
C472 H476 0.950 . S
C472 C481 1.390 . S
C473 C472 1.387 . S
C473 C475 1.387 1_565 S
H474 C481 0.950 1_556 S
C475 C473 1.387 1_545 S
C475 C477 1.390 . S
C475 H479 0.950 . S
H476 C472 0.950 . S
C477 C475 1.390 . S
C477 C478 1.387 1_545 S
C477 H480 0.950 . S
C478 C477 1.387 1_565 S
C478 C481 1.387 . S
H479 C475 0.950 . S
H480 C477 0.950 . S
C481 C472 1.390 . S
C481 H474 0.950 1_554 S
C481 C478 1.387 . S
C482 C483 1.387 . S
C482 H486 0.950 . S
C482 C491 1.390 . S
C483 C482 1.387 . S
C483 C485 1.387 . S
H484 C491 0.950 1_556 S
C485 C483 1.387 . S
C485 C487 1.390 . S
C485 H489 0.950 . S
H486 C482 0.950 . S
C487 C485 1.390 . S
C487 C488 1.387 . S
C487 H490 0.950 . S
C488 C487 1.387 . S
C488 C491 1.387 . S
H489 C485 0.950 . S
H490 C487 0.950 . S
C491 C482 1.390 . S
C491 H484 0.950 1_554 S
C491 C488 1.387 . S
C492 C493 1.387 . S
C492 H496 0.950 . S
C492 C501 1.390 . S
C493 C492 1.387 . S
C493 C495 1.387 . S
H494 C501 0.950 . S
C495 C493 1.387 . S
C495 C497 1.390 . S
C495 H499 0.950 . S
H496 C492 0.950 . S
C497 C495 1.390 . S
C497 C498 1.387 1_554 S
C497 H500 0.950 1_554 S
C498 C497 1.387 1_556 S
C498 C501 1.387 1_556 S
H499 C495 0.950 . S
H500 C497 0.950 1_556 S
C501 C492 1.390 . S
C501 H494 0.950 . S
C501 C498 1.387 1_554 S
C502 C503 1.387 . S
C502 H506 0.950 . S
C502 C511 1.390 . S
C503 C502 1.387 . S
C503 C505 1.387 1_655 S
H504 C511 0.950 . S
C505 C503 1.387 1_455 S
C505 C507 1.390 . S
C505 H509 0.950 . S
H506 C502 0.950 . S
C507 C505 1.390 . S
C507 C508 1.390 1_455 S
C507 H510 0.950 . S
C508 C507 1.390 1_655 S
C508 C511 1.390 . S
H509 C505 0.950 . S
H510 C507 0.950 . S
C511 C502 1.390 . S
C511 H504 0.950 . S
C511 C508 1.390 . S
C512 C513 1.387 . S
C512 H516 0.950 . S
C512 C521 1.390 . S
C513 C512 1.387 . S
C513 C515 1.387 . S
H514 C521 0.950 . S
C515 C513 1.387 . S
C515 C517 1.410 . S
C515 H519 0.950 1_554 S
H516 C512 0.950 . S
C517 C515 1.410 . S
C517 C518 1.386 1_455 S
C517 H520 0.931 1_455 S
C518 C517 1.386 1_655 S
C518 C521 1.375 1_655 S
H519 C515 0.950 1_556 S
H520 C517 0.931 1_655 S
C521 C512 1.390 . S
C521 H514 0.950 . S
C521 C518 1.375 1_455 S
C522 C523 1.387 . S
C522 H526 0.950 1_554 S
C522 C531 1.397 . S
C523 C522 1.387 . S
C523 C525 1.387 . S
H524 C531 0.943 1_565 S
C525 C523 1.387 . S
C525 C527 1.390 . S
C525 H529 0.950 . S
H526 C522 0.950 1_556 S
C527 C525 1.390 . S
C527 C528 1.382 1_545 S
C527 H530 0.950 . S
C528 C527 1.382 1_565 S
C528 C531 1.387 1_565 S
H529 C525 0.950 . S
H530 C527 0.950 . S
C531 C522 1.397 . S
C531 H524 0.943 1_545 S
C531 C528 1.387 1_545 S
C532 C533 1.387 . S
C532 H536 0.950 1_554 S
C532 C541 1.390 . S
C533 C532 1.387 . S
C533 C535 1.387 . S
H534 C541 0.950 . S
C535 C533 1.387 . S
C535 C537 1.390 . S
C535 H539 0.950 . S
H536 C532 0.950 1_556 S
C537 C535 1.390 . S
C537 C538 1.387 . S
C537 H540 0.950 . S
C538 C537 1.387 . S
C538 C541 1.387 . S
H539 C535 0.950 . S
H540 C537 0.950 . S
C541 C532 1.390 . S
C541 H534 0.950 . S
C541 C538 1.387 . S
C542 C543 1.387 . S
C542 H546 0.950 . S
C542 C551 1.390 . S
C543 C542 1.387 . S
C543 C545 1.387 . S
H544 C551 0.950 . S
C545 C543 1.387 . S
C545 C547 1.390 . S
C545 H549 0.950 1_554 S
H546 C542 0.950 . S
C547 C545 1.390 . S
C547 C548 1.387 . S
C547 H550 0.950 . S
C548 C547 1.387 . S
C548 C551 1.387 . S
H549 C545 0.950 1_556 S
H550 C547 0.950 . S
C551 C542 1.390 . S
C551 H544 0.950 . S
C551 C548 1.387 . S
C552 C553 1.387 . S
C552 H556 0.950 . S
C552 C561 1.390 1_655 S
C553 C552 1.387 . S
C553 C555 1.387 . S
H554 C561 0.950 . S
C555 C553 1.387 . S
C555 C557 1.390 . S
C555 H559 0.950 . S
H556 C552 0.950 . S
C557 C555 1.390 . S
C557 C558 1.387 1_655 S
C557 H560 0.950 . S
C558 C557 1.387 1_455 S
C558 C561 1.387 . S
H559 C555 0.950 . S
H560 C557 0.950 . S
C561 C552 1.390 1_455 S
C561 H554 0.950 . S
C561 C558 1.387 . S
C562 C563 1.387 . S
C562 H566 0.950 . S
C562 C571 1.390 . S
C563 C562 1.387 . S
C563 C565 1.371 1_565 S
H564 C571 0.950 . S
C565 C563 1.371 1_545 S
C565 C567 1.405 . S
C565 H569 0.952 . S
H566 C562 0.950 . S
C567 C565 1.405 . S
C567 C568 1.387 . S
C567 H570 0.950 . S
C568 C567 1.387 . S
C568 C571 1.387 1_545 S
H569 C565 0.952 . S
H570 C567 0.950 . S
C571 C562 1.390 . S
C571 H564 0.950 . S
C571 C568 1.387 1_565 S
C572 C573 1.387 . S
C572 H576 0.950 . S
C572 C581 1.390 . S
C573 C572 1.387 . S
C573 C575 1.387 . S
H574 C581 0.950 . S
C575 C573 1.387 . S
C575 C577 1.390 . S
C575 H579 0.950 . S
H576 C572 0.950 . S
C577 C575 1.390 . S
C577 C578 1.387 . S
C577 H580 0.950 . S
C578 C577 1.387 . S
C578 C581 1.387 . S
H579 C575 0.950 . S
H580 C577 0.950 . S
C581 C572 1.390 . S
C581 H574 0.950 . S
C581 C578 1.387 . S
C582 C583 1.387 . S
C582 H586 0.950 . S
C582 C591 1.390 . S
C583 C582 1.387 . S
C583 C585 1.387 . S
H584 C591 0.950 . S
C585 C583 1.387 . S
C585 C587 1.390 . S
C585 H589 0.950 . S
H586 C582 0.950 . S
C587 C585 1.390 . S
C587 C588 1.387 . S
C587 H590 0.950 . S
C588 C587 1.387 . S
C588 C591 1.387 . S
H589 C585 0.950 . S
H590 C587 0.950 . S
C591 C582 1.390 . S
C591 H584 0.950 . S
C591 C588 1.387 . S
C592 C593 1.387 . S
C592 H596 0.950 . S
C592 C601 1.390 . S
C593 C592 1.387 . S
C593 C595 1.387 . S
H594 C601 0.950 . S
C595 C593 1.387 . S
C595 C597 1.390 . S
C595 H599 0.950 . S
H596 C592 0.950 . S
C597 C595 1.390 . S
C597 C598 1.387 . S
C597 H600 0.950 . S
C598 C597 1.387 . S
C598 C601 1.387 . S
H599 C595 0.950 . S
H600 C597 0.950 . S
C601 C592 1.390 . S
C601 H594 0.950 . S
C601 C598 1.387 . S
C602 C603 1.387 . S
C602 H606 0.950 . S
C602 C611 1.390 . S
C603 C602 1.387 . S
C603 C605 1.387 . S
H604 C611 0.950 . S
C605 C603 1.387 . S
C605 C607 1.390 . S
C605 H609 0.950 . S
H606 C602 0.950 . S
C607 C605 1.390 . S
C607 C608 1.387 . S
C607 H610 0.950 . S
C608 C607 1.387 . S
C608 C611 1.387 . S
H609 C605 0.950 . S
H610 C607 0.950 . S
C611 C602 1.390 . S
C611 H604 0.950 . S
C611 C608 1.387 . S
C612 C613 1.387 . S
C612 H616 0.950 1_556 S
C612 C621 1.390 . S
C613 C612 1.387 . S
C613 C615 1.387 . S
H614 C621 0.950 1_554 S
C615 C613 1.387 . S
C615 C617 1.390 . S
C615 H619 0.950 . S
H616 C612 0.950 1_554 S
C617 C615 1.390 . S
C617 C618 1.387 . S
C617 H620 0.950 . S
C618 C617 1.387 . S
C618 C621 1.387 . S
H619 C615 0.950 . S
H620 C617 0.950 . S
C621 C612 1.390 . S
C621 H614 0.950 1_556 S
C621 C618 1.387 . S
C622 C623 1.387 . S
C622 H626 0.950 1_556 S
C622 C631 1.390 . S
C623 C622 1.387 . S
C623 C625 1.387 . S
H624 C631 0.950 1_554 S
C625 C623 1.387 . S
C625 C627 1.390 . S
C625 H629 0.950 . S
H626 C622 0.950 1_554 S
C627 C625 1.390 . S
C627 C628 1.387 . S
C627 H630 0.950 . S
C628 C627 1.387 . S
C628 C631 1.387 . S
H629 C625 0.950 . S
H630 C627 0.950 . S
C631 C622 1.390 . S
C631 H624 0.950 1_556 S
C631 C628 1.387 . S
C632 C633 1.387 . S
C632 H636 0.950 . S
C632 C641 1.390 . S
C633 C632 1.387 . S
C633 C635 1.387 . S
H634 C641 0.950 . S
C635 C633 1.387 . S
C635 C637 1.390 . S
C635 H639 0.950 . S
H636 C632 0.950 . S
C637 C635 1.390 . S
C637 C638 1.387 . S
C637 H640 0.950 . S
C638 C637 1.387 . S
C638 C641 1.387 . S
H639 C635 0.950 . S
H640 C637 0.950 . S
C641 C632 1.390 . S
C641 H634 0.950 . S
C641 C638 1.387 . S
C642 C643 1.387 . S
C642 H646 0.950 . S
C642 C651 1.390 . S
C643 C642 1.387 . S
C643 C645 1.387 . S
H644 C651 0.950 . S
C645 C643 1.387 . S
C645 C647 1.390 . S
C645 H649 0.950 . S
H646 C642 0.950 . S
C647 C645 1.390 . S
C647 C648 1.387 . S
C647 H650 0.950 . S
C648 C647 1.387 . S
C648 C651 1.387 . S
H649 C645 0.950 . S
H650 C647 0.950 . S
C651 C642 1.390 . S
C651 H644 0.950 . S
C651 C648 1.387 . S
C652 C653 1.387 . S
C652 H656 0.950 . S
C652 C661 1.390 . S
C653 C652 1.387 . S
C653 C655 1.387 . S
H654 C661 0.950 . S
C655 C653 1.387 . S
C655 C657 1.390 . S
C655 H659 0.950 . S
H656 C652 0.950 . S
C657 C655 1.390 . S
C657 C658 1.387 . S
C657 H660 0.950 . S
C658 C657 1.387 . S
C658 C661 1.387 . S
H659 C655 0.950 . S
H660 C657 0.950 . S
C661 C652 1.390 . S
C661 H654 0.950 . S
C661 C658 1.387 . S
C662 C663 1.387 . S
C662 H666 0.950 . S
C662 C671 1.390 . S
C663 C662 1.387 . S
C663 C665 1.387 . S
H664 C671 0.950 . S
C665 C663 1.387 . S
C665 C667 1.390 . S
C665 H669 0.950 . S
H666 C662 0.950 . S
C667 C665 1.390 . S
C667 C668 1.387 . S
C667 H670 0.950 . S
C668 C667 1.387 . S
C668 C671 1.387 . S
H669 C665 0.950 . S
H670 C667 0.950 . S
C671 C662 1.390 . S
C671 H664 0.950 . S
C671 C668 1.387 . S
C433 C76 1.937 . S
C438 C171 2.102 . S
C448 C255 2.114 . S
C443 C88 1.948 . S
C458 C331 2.012 . S
C453 C52 2.018 . S
C468 C415 2.002 . S
C463 C64 2.007 . S
C478 C162 2.104 1_564 S
C473 C28 1.952 . S
C483 C40 1.960 . S
C488 C246 2.113 1_554 S
C493 C4 2.027 . S
C498 C320 2.009 . S
C503 C16 2.022 . S
C508 C404 2.002 1_554 S
C518 C159 0.953 . S
C513 C69 0.892 . S
C528 C243 0.912 . S
C523 C81 0.865 . S
C538 C336 0.882 . S
C533 C93 0.842 . S
C543 C57 0.869 . S
C548 C420 0.916 . S
C553 C21 0.877 . S
C558 C168 0.940 . S
C568 C252 0.906 . S
C563 C33 0.857 . S
C578 C327 0.883 . S
C573 C45 0.834 . S
C583 C9 0.859 . S
C588 C411 0.914 . S
C593 C66 2.121 . S
C598 C152 2.216 . S
C603 C78 2.102 . S
C608 C236 2.197 . S
C618 C330 2.297 . S
C613 C90 2.026 . S
C628 C414 2.315 . S
C623 C54 2.045 . S
C633 C18 2.111 . S
C638 C163 2.215 . S
C648 C247 2.198 . S
C643 C30 2.092 . S
C658 C339 2.297 . S
C653 C42 2.014 . S
C663 C6 2.032 . S
C668 C423 2.315 . S
