# Generated by pormake.
# Topology zzz, (3,6)-cn, num edge types: 1
# Building blocks:
#     Node 0, Type 0, BuildingBlock: BETDIP_clean_linker_0, # of connection points: 3
#     Node 1, Type 0, BuildingBlock: BETDIP_clean_linker_0, # of connection points: 3
#     Node 2, Type 0, BuildingBlock: BETDIP_clean_linker_0, # of connection points: 3
#     Node 3, Type 0, BuildingBlock: BETDIP_clean_linker_0, # of connection points: 3
#     Node 4, Type 0, BuildingBlock: BETDIP_clean_linker_0, # of connection points: 3
#     Node 5, Type 0, BuildingBlock: BETDIP_clean_linker_0, # of connection points: 3
#     Node 6, Type 0, BuildingBlock: BETDIP_clean_linker_0, # of connection points: 3
#     Node 7, Type 0, BuildingBlock: BETDIP_clean_linker_0, # of connection points: 3
#     Node 8, Type 1, BuildingBlock: KUMJIN_clean_sbu_0, # of connection points: 6
#     Node 9, Type 1, BuildingBlock: KUMJIN_clean_sbu_0, # of connection points: 6
#     Node 10, Type 1, BuildingBlock: KUMJIN_clean_sbu_0, # of connection points: 6
#     Node 11, Type 1, BuildingBlock: KUMJIN_clean_sbu_0, # of connection points: 6
#     Edge 12, Type (0, 1), BuildingBlock: AJUNOK_clean_linker_0, # of connection points: 2
#     Edge 13, Type (0, 1), BuildingBlock: AJUNOK_clean_linker_0, # of connection points: 2
#     Edge 14, Type (0, 1), BuildingBlock: AJUNOK_clean_linker_0, # of connection points: 2
#     Edge 15, Type (0, 1), BuildingBlock: AJUNOK_clean_linker_0, # of connection points: 2
#     Edge 16, Type (0, 1), BuildingBlock: AJUNOK_clean_linker_0, # of connection points: 2
#     Edge 17, Type (0, 1), BuildingBlock: AJUNOK_clean_linker_0, # of connection points: 2
#     Edge 18, Type (0, 1), BuildingBlock: AJUNOK_clean_linker_0, # of connection points: 2
#     Edge 19, Type (0, 1), BuildingBlock: AJUNOK_clean_linker_0, # of connection points: 2
#     Edge 20, Type (0, 1), BuildingBlock: AJUNOK_clean_linker_0, # of connection points: 2
#     Edge 21, Type (0, 1), BuildingBlock: AJUNOK_clean_linker_0, # of connection points: 2
#     Edge 22, Type (0, 1), BuildingBlock: AJUNOK_clean_linker_0, # of connection points: 2
#     Edge 23, Type (0, 1), BuildingBlock: AJUNOK_clean_linker_0, # of connection points: 2
#     Edge 24, Type (0, 1), BuildingBlock: AJUNOK_clean_linker_0, # of connection points: 2
#     Edge 25, Type (0, 1), BuildingBlock: AJUNOK_clean_linker_0, # of connection points: 2
#     Edge 26, Type (0, 1), BuildingBlock: AJUNOK_clean_linker_0, # of connection points: 2
#     Edge 27, Type (0, 1), BuildingBlock: AJUNOK_clean_linker_0, # of connection points: 2
#     Edge 28, Type (0, 1), BuildingBlock: AJUNOK_clean_linker_0, # of connection points: 2
#     Edge 29, Type (0, 1), BuildingBlock: AJUNOK_clean_linker_0, # of connection points: 2
#     Edge 30, Type (0, 1), BuildingBlock: AJUNOK_clean_linker_0, # of connection points: 2
#     Edge 31, Type (0, 1), BuildingBlock: AJUNOK_clean_linker_0, # of connection points: 2
#     Edge 32, Type (0, 1), BuildingBlock: AJUNOK_clean_linker_0, # of connection points: 2
#     Edge 33, Type (0, 1), BuildingBlock: AJUNOK_clean_linker_0, # of connection points: 2
#     Edge 34, Type (0, 1), BuildingBlock: AJUNOK_clean_linker_0, # of connection points: 2
#     Edge 35, Type (0, 1), BuildingBlock: AJUNOK_clean_linker_0, # of connection points: 2
# Relax obj value: 0.233
# Max RMSD: 0.182
# Mean RMSD: 0.118
data_MOF--net-zzz--node1-KUMJIN_clean_sbu_0--node2-BETDIP_clean_linker_0--edge1-AJUNOK_clean_linker_0
_symmetry_space_group_name_H-M    P1
_symmetry_Int_Tables_number       1
_symmetry_cell_setting            triclinic
loop_
_symmetry_equiv_pos_as_xyz
'x, y, z'
_cell_length_a     36.578637
_cell_length_b     36.558174
_cell_length_c     10.897573
_cell_angle_alpha  91.935805
_cell_angle_beta   89.968071
_cell_angle_gamma 90.096875
loop_
_atom_site_label
_atom_site_type_symbol
_atom_site_fract_x
_atom_site_fract_y
_atom_site_fract_z
_atom_type_partial_charge
H0 H 0.78699 0.52837 0.41468 0.0
H1 H 0.74501 0.61221 0.18701 0.0
H2 H 0.8567 0.61617 0.30628 0.0
H3 H 0.73903 0.55427 0.05826 0.0
C4 C 0.71897 0.54584 0.12541 0.0
C5 C 0.79082 0.5538 0.36822 0.0
C6 C 0.82441 0.5739 0.38283 0.0
C7 C 0.76251 0.56702 0.29036 0.0
C8 C 0.76749 0.60103 0.23786 0.0
C9 C 0.80245 0.61622 0.22712 0.0
C10 C 0.82972 0.60415 0.30793 0.0
N11 N 0.73078 0.54584 0.25231 0.0
H12 H 1.02823 0.79967 0.44218 0.0
H13 H 0.94894 0.7659 0.17076 0.0
H14 H 0.94386 0.87381 0.33671 0.0
H15 H 1.0036 0.74789 0.07271 0.0
C16 C 1.01067 0.72963 0.14566 0.0
C17 C 1.00391 0.80521 0.38945 0.0
C18 C 0.98531 0.83948 0.40745 0.0
C19 C 0.99117 0.7786 0.30012 0.0
C20 C 0.95978 0.78678 0.23277 0.0
C21 C 0.94572 0.82246 0.23127 0.0
C22 C 0.95591 0.8469 0.32904 0.0
N23 N 1.01045 0.74488 0.26994 0.0
H24 H 0.76523 1.00854 0.50947 0.0
H25 H 0.7944 0.03541 0.13966 0.0
H26 H 0.68665 0.05829 0.26855 0.0
H27 H 0.82235 0.96135 0.19881 0.0
C28 C 0.83778 0.98443 0.23725 0.0
C29 C 0.75744 1.01885 0.42135 0.0
C30 C 0.72129 0.03323 0.40377 0.0
C31 C 0.7837 1.01837 0.32313 0.0
C32 C 0.77417 0.03344 0.212 0.0
C33 C 0.7399 0.0483 0.1951 0.0
C34 C 0.71342 0.04714 0.28755 0.0
N35 N 0.82056 1.00562 0.33496 0.0
H36 H 0.54156 0.79434 0.44624 0.0
H37 H 0.60503 0.81876 0.12479 0.0
H38 H 0.61891 0.71639 0.29553 0.0
H39 H 0.6107 0.87518 0.25802 0.0
C40 C 0.58152 0.87815 0.24298 0.0
C41 C 0.56251 0.78677 0.37998 0.0
C42 C 0.5794 0.75147 0.38365 0.0
C43 C 0.57381 0.81247 0.29077 0.0
C44 C 0.59914 0.80121 0.20059 0.0
C45 C 0.6143 0.76637 0.19871 0.0
C46 C 0.60647 0.74313 0.29562 0.0
N47 N 0.55877 0.84872 0.28352 0.0
H48 H 0.28537 0.53165 0.02371 0.0
H49 H 0.31616 0.46537 0.32797 0.0
H50 H 0.20344 0.47847 0.23755 0.0
H51 H 0.36956 0.4629 0.2281 0.0
C52 C 0.37316 0.49241 0.22973 0.0
C53 C 0.27818 0.51359 0.09667 0.0
C54 C 0.24062 0.50279 0.11272 0.0
C55 C 0.30631 0.50024 0.17615 0.0
C56 C 0.29584 0.47595 0.26663 0.0
C57 C 0.2592 0.47071 0.29695 0.0
C58 C 0.23205 0.48253 0.21602 0.0
N59 N 0.34382 0.51352 0.1775 0.0
H60 H 1.02106 0.27732 0.08846 0.0
H61 H 0.1063 0.31652 0.33069 0.0
H62 H 0.11358 0.20946 0.16604 0.0
H63 H 0.05266 0.33229 0.44353 0.0
C64 C 0.0444 0.35049 0.37172 0.0
C65 C 0.04712 0.27326 0.13296 0.0
C66 C 0.06675 0.23963 0.11116 0.0
C67 C 0.06136 0.3013 0.21509 0.0
C68 C 0.09469 0.29485 0.27362 0.0
C69 C 0.11025 0.25993 0.27326 0.0
C70 C 0.09913 0.23481 0.17879 0.0
N71 N 0.04194 0.33472 0.24825 0.0
H72 H 0.29087 1.0262 0.05875 0.0
H73 H 0.24828 0.10413 0.32545 0.0
H74 H 0.35611 0.11754 0.18317 0.0
H75 H 0.19478 0.08815 0.19275 0.0
C76 C 0.19795 0.06186 0.23494 0.0
C77 C 0.294 0.05132 0.11323 0.0
C78 C 0.32692 0.07219 0.10472 0.0
C79 C 0.26494 0.06366 0.19195 0.0
C80 C 0.27012 0.09545 0.26502 0.0
C81 C 0.30417 0.11273 0.2747 0.0
C82 C 0.33077 0.10302 0.18473 0.0
N83 N 0.23182 0.04312 0.20972 0.0
H84 H 0.51115 0.28941 0.97024 0.0
H85 H 0.59065 0.24987 0.22699 0.0
H86 H 0.60532 0.35468 0.07387 0.0
H87 H 0.57054 0.19421 0.09374 0.0
C88 C 0.54481 0.19886 0.14168 0.0
C89 C 0.53634 0.29333 0.02097 0.0
C90 C 0.55794 0.32548 1.00505 0.0
C91 C 0.54835 0.2655 0.10088 0.0
C92 C 0.58148 0.27036 0.16445 0.0
C93 C 0.60206 0.30212 0.1534 0.0
C94 C 0.58997 0.32929 0.07561 0.0
N95 N 0.52715 0.23327 0.12283 0.0
Eu96 Eu 0.05685 1.01686 0.88398 0.0
C97 C 0.92398 1.00727 0.57948 0.0
C98 C 0.94396 0.96627 0.41462 0.0
C99 C 0.88172 0.96237 0.49031 0.0
C100 C 0.95139 0.99426 0.50348 0.0
C101 C 0.88838 0.99244 0.57054 0.0
C102 C 0.9094 0.9495 0.41157 0.0
C103 C 0.86767 0.04095 0.70879 0.0
N104 N 0.9314 0.03641 0.65514 0.0
C105 C 0.90337 0.05464 0.71415 0.0
C106 C 0.86026 1.00919 0.63869 0.0
Eu107 Eu 0.99407 0.05431 0.67616 0.0
N108 N 0.98468 1.01058 0.51098 0.0
C109 C 1.01057 1.00257 0.42339 0.0
C110 C 0.97123 0.95647 0.33021 0.0
C111 C 1.00437 0.97525 0.33284 0.0
H112 H 0.90881 0.07922 0.76926 0.0
H113 H 1.02542 0.96831 0.26637 0.0
H114 H 0.90332 0.9275 0.34591 0.0
H115 H 0.84593 0.05488 0.75886 0.0
H116 H 0.03647 1.01643 0.42273 0.0
H117 H 0.99438 0.07623 0.30247 0.0
H118 H 0.96676 0.93496 0.26168 0.0
H119 H 0.14831 1.02299 0.80995 0.0
H120 H 1.00352 1.02955 0.1411 0.0
H121 H 0.19782 0.06785 0.8364 0.0
H122 H 0.85482 0.94998 0.48434 0.0
H123 H 0.03798 0.12787 0.32613 0.0
H124 H 0.09421 0.15785 0.25532 0.0
H125 H 0.83256 0.99869 0.634 0.0
H126 H 0.15045 0.15631 0.12824 0.0
N127 N 0.04992 0.05547 0.06256 0.0
C128 C 1.02205 0.05231 0.1453 0.0
C129 C 0.04195 0.10724 0.25373 0.0
C130 C 0.07206 0.10858 0.17519 0.0
C131 C 1.01726 0.07842 0.24026 0.0
C132 C 0.07591 0.08149 0.08125 0.0
H133 H 0.18921 0.12273 0.97214 0.0
N134 N 0.11002 0.05362 0.92075 0.0
C135 C 0.17198 0.07242 0.88275 0.0
C136 C 0.10656 0.08093 1.00693 0.0
C137 C 0.1434 0.04729 0.86671 0.0
C138 C 0.16706 0.10324 0.95963 0.0
C139 C 0.13454 0.1071 0.02623 0.0
O140 O 0.09939 0.97618 0.9171 0.0
O141 O 1.01377 0.99968 0.74352 0.0
O142 O 0.96172 0.04465 0.85166 0.0
O143 O 0.99805 1.00203 0.9442 0.0
O144 O 0.06422 0.97366 0.73356 0.0
O145 O 0.05438 0.98248 0.0431 0.0
O146 O 0.96093 0.10026 0.61565 0.0
O147 O 0.03751 0.07203 0.81476 0.0
O148 O 0.09117 1.02382 0.71312 0.0
O149 O 0.05162 0.05528 0.58885 0.0
O150 O 0.98607 0.09601 0.8305 0.0
O151 O 1.01359 0.08985 0.53402 0.0
C152 C 0.03196 0.97426 0.68661 0.0
C153 C 0.07178 0.92266 0.98566 0.0
C154 C 1.02482 0.87592 0.94957 0.0
C155 C 0.03596 0.91266 0.95221 0.0
C156 C 0.05165 0.8488 0.96541 0.0
C157 C 0.09801 0.89544 1.00159 0.0
C158 C 0.08806 0.8586 0.98865 0.0
C159 C 0.96666 1.01989 0.93491 0.0
C160 C 0.08106 0.96156 1.0049 0.0
C161 C 0.12958 0.13558 0.11377 0.0
C162 C 0.0981 0.13635 0.1871 0.0
C163 C 1.01903 0.09743 0.87185 0.0
C164 C 0.99779 0.15184 0.57631 0.0
C165 C 0.03487 0.1625 0.58252 0.0
C166 C 0.04496 0.19976 0.59457 0.0
C167 C 1.01668 0.22578 0.6109 0.0
C168 C 0.97058 0.17842 0.59313 0.0
C169 C 0.98007 0.21504 0.61266 0.0
C170 C 0.08413 0.04089 0.61158 0.0
C171 C 0.9872 0.1133 0.54986 0.0
H172 H 1.01606 0.93375 0.93563 0.0
H173 H 0.04437 0.82013 0.96762 0.0
H174 H 0.12593 0.90266 0.02518 0.0
H175 H 0.10827 0.83754 1.00244 0.0
H176 H 0.05571 0.14172 0.57366 0.0
H177 H 1.02214 0.25484 0.6153 0.0
H178 H 0.94192 0.17089 0.58983 0.0
H179 H 0.95884 0.23548 0.62397 0.0
Eu180 Eu 0.5371 0.08437 0.83931 0.0
C181 C 0.56042 0.93955 0.58858 0.0
C182 C 0.60846 0.95571 0.44851 0.0
C183 C 0.6085 0.89572 0.53717 0.0
C184 C 0.57647 0.96475 0.51525 0.0
C185 C 0.57544 0.90417 0.59713 0.0
C186 C 0.62513 0.92161 0.46346 0.0
C187 C 0.5225 0.88724 0.71437 0.0
N188 N 0.52874 0.9489 0.6454 0.0
C189 C 0.50881 0.92267 0.70328 0.0
C190 C 0.55629 0.87809 0.66272 0.0
Eu191 Eu 0.50917 1.0115 0.63734 0.0
N192 N 0.55991 0.99763 0.50496 0.0
C193 C 0.57244 1.0214 0.42056 0.0
C194 C 0.62251 0.9811 0.368 0.0
C195 C 0.60366 1.01354 0.35054 0.0
H196 H 0.48286 0.92964 0.74558 0.0
H197 H 0.61387 0.03315 0.28658 0.0
H198 H 0.65016 0.91454 0.41508 0.0
H199 H 0.50703 0.8671 0.76329 0.0
H200 H 0.55953 0.04719 0.41005 0.0
H201 H 0.50899 0.03672 0.30107 0.0
H202 H 0.64778 0.97589 0.31891 0.0
H203 H 0.49103 0.14709 0.6817 0.0
H204 H 0.54894 0.04984 0.13212 0.0
H205 H 0.43786 0.18704 0.70404 0.0
H206 H 0.6208 0.86892 0.54413 0.0
H207 H 0.45204 0.07245 0.33372 0.0
H208 H 0.41334 0.12273 0.26709 0.0
H209 H 0.56685 0.85061 0.67114 0.0
H210 H 0.39479 0.16578 0.10942 0.0
N211 N 0.50872 0.08099 0.03649 0.0
C212 C 0.52194 0.06164 0.13244 0.0
C213 C 0.46817 0.07554 0.25144 0.0
C214 C 0.45792 0.1002 0.16338 0.0
C215 C 0.50033 0.05591 0.23484 0.0
C216 C 0.47806 0.10146 0.05357 0.0
H217 H 0.40257 0.18831 0.89733 0.0
N218 N 0.484 0.12159 0.85189 0.0
C219 C 0.44504 0.16882 0.77642 0.0
C220 C 0.46637 0.12352 0.96103 0.0
C221 C 0.47466 0.145 0.76209 0.0
C222 C 0.42551 0.16979 0.88592 0.0
C223 C 0.43628 0.14727 0.98026 0.0
O224 O 0.55499 0.13901 0.79286 0.0
O225 O 0.55742 0.04836 0.68227 0.0
O226 O 0.52377 0.98538 0.81697 0.0
O227 O 0.5521 0.03115 0.93464 0.0
O228 O 0.59184 0.05489 0.83157 0.0
O229 O 0.57118 0.11731 0.96569 0.0
O230 O 0.46789 0.97255 0.56538 0.0
O231 O 0.48631 0.056 0.76792 0.0
O232 O 0.5403 0.106 0.64523 0.0
O233 O 0.50618 0.06457 0.52768 0.0
O234 O 0.46774 1.00323 0.78922 0.0
O235 O 0.4741 1.02439 0.48444 0.0
C236 C 0.58923 0.04003 0.72239 0.0
C237 C 0.61367 0.15364 0.85802 0.0
C238 C 0.6782 0.13831 0.85206 0.0
C239 C 0.64235 0.13053 0.88732 0.0
C240 C 0.68554 0.16973 0.78599 0.0
C241 C 0.62097 0.18501 0.7911 0.0
C242 C 0.65681 0.19293 0.755 0.0
C243 C 0.54126 0.99679 0.91631 0.0
C244 C 0.576 0.14326 0.88775 0.0
C245 C 0.41768 0.14754 0.09234 0.0
C246 C 0.42806 0.12329 0.18207 0.0
C247 C 0.46409 0.03647 0.82914 0.0
C248 C 0.41412 1.00349 0.51454 0.0
C249 C 0.40199 0.03908 0.54621 0.0
C250 C 0.3645 0.04709 0.55535 0.0
C251 C 0.33943 1.01775 0.54237 0.0
C252 C 0.38873 0.97495 0.50234 0.0
C253 C 0.35158 0.98203 0.51829 0.0
C254 C 0.52239 0.0969 0.54349 0.0
C255 C 0.45324 0.9961 0.49488 0.0
H256 H 0.637 0.10662 0.94082 0.0
H257 H 0.71329 0.17651 0.7604 0.0
H258 H 0.59896 0.20307 0.7658 0.0
H259 H 0.66233 0.21718 0.70375 0.0
H260 H 0.42185 0.06083 0.55926 0.0
H261 H 0.31023 1.02226 0.54358 0.0
H262 H 0.39762 0.94729 0.47959 0.0
H263 H 0.33197 0.95996 0.50721 0.0
Eu264 Eu 0.58246 0.52632 0.58393 0.0
C265 C 0.42856 0.508 0.82667 0.0
C266 C 0.38489 0.52979 0.67973 0.0
C267 C 0.36664 0.48365 0.82295 0.0
C268 C 0.4205 0.52977 0.72947 0.0
C269 C 0.40152 0.48524 0.87623 0.0
C270 C 0.35835 0.50598 0.72508 0.0
C271 C 0.44394 0.47064 0.03681 0.0
N272 N 0.46226 0.51065 0.87744 0.0
C273 C 0.4698 0.49355 0.98444 0.0
C274 C 0.40997 0.46567 0.98035 0.0
Eu275 Eu 0.50548 0.54889 0.78129 0.0
N276 N 0.44684 0.55247 0.68824 0.0
C277 C 0.43822 0.57829 0.60535 0.0
C278 C 0.37668 0.55458 0.58889 0.0
C279 C 0.4033 0.57943 0.55327 0.0
H280 H 0.49621 0.49673 0.0277 0.0
H281 H 0.39707 0.59932 0.48501 0.0
H282 H 0.33107 0.50539 0.68761 0.0
H283 H 0.45044 0.45635 0.11939 0.0
H284 H 0.45836 0.59746 0.57576 0.0
H285 H 0.69303 0.47213 0.86198 0.0
H286 H 0.34968 0.55541 0.5482 0.0
H287 H 0.59196 0.57902 0.34106 0.0
H288 H 0.63151 0.47443 0.77418 0.0
H289 H 0.63897 0.61842 0.24925 0.0
H290 H 0.34556 0.46617 0.85928 0.0
H291 H 0.73847 0.51969 0.81419 0.0
H292 H 0.75538 0.57337 0.68937 0.0
H293 H 0.3902 0.44726 1.01917 0.0
H294 H 0.73996 0.61468 0.52486 0.0
N295 N 0.64037 0.5241 0.68214 0.0
C296 C 0.6505 0.49573 0.75316 0.0
C297 C 0.71116 0.5211 0.77615 0.0
C298 C 0.70169 0.54842 0.69536 0.0
C299 C 0.68566 0.49416 0.80294 0.0
C300 C 0.66574 0.54895 0.64781 0.0
H301 H 0.69706 0.63065 0.35738 0.0
N302 N 0.6242 0.5679 0.49756 0.0
C303 C 0.6437 0.60678 0.33717 0.0
C304 C 0.65733 0.57166 0.5528 0.0
C305 C 0.61748 0.58409 0.38857 0.0
C306 C 0.67673 0.61322 0.3978 0.0
C307 C 0.68432 0.59489 0.50514 0.0
O308 O 0.60567 0.50614 0.40935 0.0
O309 O 0.52123 0.52481 0.59856 0.0
O310 O 0.50922 0.48582 0.77236 0.0
O311 O 0.56969 0.47899 0.7111 0.0
O312 O 0.54068 0.53675 0.42923 0.0
O313 O 0.59179 0.46812 0.55032 0.0
O314 O 0.49087 0.56972 0.96397 0.0
O315 O 0.56711 0.54883 0.76976 0.0
O316 O 0.58055 0.58856 0.60669 0.0
O317 O 0.51915 0.59681 0.65146 0.0
O318 O 0.54517 0.53414 0.93436 0.0
O319 O 0.4962 0.60734 0.81611 0.0
C320 C 0.51105 0.53212 0.49114 0.0
C321 C 0.64496 0.45523 0.4382 0.0
C322 C 0.67906 0.39825 0.41613 0.0
C323 C 0.64582 0.4172 0.428 0.0
C324 C 0.71198 0.41799 0.41764 0.0
C325 C 0.67802 0.47486 0.4397 0.0
C326 C 0.71138 0.45622 0.43097 0.0
C327 C 0.53905 0.46543 0.75728 0.0
C328 C 0.60893 0.47292 0.44759 0.0
C329 C 0.71901 0.59681 0.55984 0.0
C330 C 0.72776 0.57339 0.65414 0.0
C331 C 0.57539 0.5391 0.87718 0.0
C332 C 0.52214 0.62383 1.00866 0.0
C333 C 0.55236 0.64093 0.95425 0.0
C334 C 0.58048 0.65578 0.02775 0.0
C335 C 0.57833 0.65223 0.15592 0.0
C336 C 0.52015 0.622 0.13649 0.0
C337 C 0.54853 0.63536 0.20948 0.0
C338 C 0.55123 0.6097 0.61305 0.0
C339 C 0.49496 0.60365 0.93456 0.0
H340 H 0.62009 0.4024 0.42219 0.0
H341 H 0.73784 0.40397 0.4048 0.0
H342 H 0.67814 0.50439 0.44432 0.0
H343 H 0.73675 0.47151 0.43083 0.0
H344 H 0.55379 0.64349 0.85571 0.0
H345 H 0.59871 0.66419 0.21611 0.0
H346 H 0.4969 0.60944 0.17923 0.0
H347 H 0.54721 0.63306 0.30787 0.0
Eu348 Eu 0.04842 0.57435 0.65794 0.0
C349 C 0.05095 0.43455 0.97102 0.0
C350 C 0.03436 0.38255 0.83814 0.0
C351 C 0.0762 0.37433 1.00788 0.0
C352 C 0.03277 0.4204 0.86819 0.0
C353 C 0.07271 0.4115 0.04232 0.0
C354 C 0.0566 0.35976 0.90736 0.0
C355 C 0.08428 0.46292 0.18152 0.0
N356 N 0.04677 0.47062 1.00286 0.0
C357 C 0.06215 0.48467 0.10919 0.0
C358 C 0.08991 0.42628 0.14732 0.0
Eu359 Eu 1.01217 0.50584 0.86334 0.0
N360 N 1.01206 0.44316 0.80115 0.0
C361 C 0.98982 0.42941 0.70986 0.0
C362 C 1.01278 0.36855 0.74141 0.0
C363 C 0.98987 0.39199 0.67858 0.0
H364 H 0.0587 0.51295 0.13736 0.0
H365 H 0.97263 0.38138 0.60491 0.0
H366 H 0.05838 0.33071 0.8852 0.0
H367 H 0.09692 0.47443 0.26396 0.0
H368 H 0.97211 0.44742 0.66068 0.0
H369 H 0.09134 0.69618 0.92366 0.0
H370 H 1.01315 0.33964 0.7159 0.0
H371 H 1.00104 0.5695 0.38621 0.0
H372 H 0.09016 0.63034 0.86429 0.0
H373 H 0.96292 0.60962 0.26401 0.0
H374 H 0.09332 0.35644 0.06027 0.0
H375 H 0.05154 0.73943 0.81637 0.0
H376 H 1.00645 0.75033 0.64843 0.0
H377 H 0.10686 0.40946 0.20418 0.0
H378 H 0.96942 0.72621 0.47627 0.0
N379 N 0.04933 0.63621 0.72745 0.0
C380 C 0.07249 0.64901 0.81764 0.0
C381 C 0.05095 0.71059 0.78992 0.0
C382 C 1.02853 0.69753 0.6939 0.0
C383 C 0.07345 0.68628 0.85073 0.0
C384 C 1.02877 0.65973 0.66262 0.0
H385 H 0.95413 0.67439 0.33008 0.0
N386 N 1.01314 0.61055 0.52462 0.0
C387 C 0.97576 0.62027 0.34731 0.0
C388 C 1.00977 0.64648 0.55974 0.0
C389 C 0.99772 0.59761 0.41693 0.0
C390 C 0.97075 0.65674 0.38506 0.0
C391 C 0.98845 0.67048 0.49064 0.0
O392 O 0.09234 0.55545 0.5352 0.0
O393 O 0.03966 0.51457 0.68319 0.0
O394 O 0.07462 0.50228 0.87018 0.0
O395 O 0.08938 0.56153 0.81635 0.0
O396 O 0.03831 0.53105 0.50424 0.0
O397 O 0.09318 0.6107 0.60844 0.0
O398 O 0.96958 0.52548 0.99117 0.0
O399 O 1.02128 0.56556 0.83719 0.0
O400 O 0.98595 0.57648 0.64898 0.0
O401 O 0.97258 0.5168 0.70086 0.0
O402 O 1.02222 0.54961 1.0158 0.0
O403 O 0.96346 0.47312 0.89859 0.0
C404 C 0.03545 0.50288 0.57229 0.0
C405 C 0.14823 0.57779 0.6158 0.0
C406 C 0.1953 0.53349 0.6669 0.0
C407 C 0.16484 0.54367 0.5973 0.0
C408 C 0.21011 0.5593 0.75203 0.0
C409 C 0.16382 0.60334 0.69976 0.0
C410 C 0.19477 0.59413 0.76664 0.0
C411 C 0.09844 0.52965 0.86494 0.0
C412 C 0.11234 0.58432 0.559 0.0
C413 C 0.98623 0.7076 0.52683 0.0
C414 C 1.00688 0.72124 0.62623 0.0
C415 C 1.02555 0.57758 0.9474 0.0
C416 C 0.91144 0.51123 0.90625 0.0
C417 C 0.89758 0.54623 0.93566 0.0
C418 C 0.86725 0.56036 0.87268 0.0
C419 C 0.85044 0.53784 0.78135 0.0
C420 C 0.89301 0.48893 0.81879 0.0
C421 C 0.86258 0.50215 0.7577 0.0
C422 C 0.96311 0.54824 0.65085 0.0
C423 C 0.94686 0.49959 0.95794 0.0
H424 H 0.154 0.5254 0.52606 0.0
H425 H 0.23377 0.55285 0.80672 0.0
H426 H 0.15166 0.63005 0.71609 0.0
H427 H 0.20645 0.61376 0.83213 0.0
H428 H 0.91034 0.56188 1.00992 0.0
H429 H 0.82755 0.54735 0.7285 0.0
H430 H 0.9027 0.46163 0.79475 0.0
H431 H 0.84891 0.48499 0.68902 0.0
C432 C 0.14587 0.08206 0.36923 0.0
C433 C 0.1711 0.05429 0.33651 0.0
C434 C 0.11755 0.07697 0.45433 0.0
C435 C 0.11437 0.0446 0.51888 0.0
H436 H 0.14845 0.10855 0.32977 0.0
H437 H 0.09845 0.09901 0.47214 0.0
S438 S 0.1766 0.96454 0.48392 0.0
N439 N 0.19229 0.99341 0.3828 0.0
N440 N 0.1414 0.98495 0.55224 0.0
C441 C 0.14091 1.01716 0.49392 0.0
C442 C 0.16882 1.02176 0.40157 0.0
C443 C 0.56296 0.14708 0.27274 0.0
C444 C 0.53638 0.17328 0.24337 0.0
C445 C 0.55804 0.12287 0.36909 0.0
C446 C 0.52549 0.12223 0.43782 0.0
H447 H 0.5885 0.14578 0.22238 0.0
H448 H 0.58028 0.10471 0.39 0.0
S449 S 0.44757 0.18627 0.40311 0.0
N450 N 0.47699 0.19863 0.29702 0.0
N451 N 0.46616 0.15098 0.47033 0.0
C452 C 0.49838 0.14812 0.40909 0.0
C453 C 0.50409 0.17397 0.31365 0.0
C454 C 0.42732 0.53656 0.27284 0.0
C455 C 0.40579 0.50624 0.30445 0.0
C456 C 0.46097 0.54473 0.33399 0.0
C457 C 0.47433 0.52371 0.43121 0.0
H458 H 0.41896 0.5532 0.1975 0.0
H459 H 0.47671 0.56792 0.30585 0.0
S460 S 0.4287 0.4412 0.54844 0.0
N461 N 0.40096 0.45495 0.4398 0.0
N462 N 0.46304 0.47056 0.55257 0.0
C463 C 0.45286 0.4936 0.46362 0.0
C464 C 0.41903 0.48498 0.40117 0.0
C465 C 0.06391 0.40242 0.51468 0.0
C466 C 0.04333 0.39065 0.41055 0.0
C467 C 0.06141 0.43835 0.56646 0.0
C468 C 0.03734 0.46426 0.51878 0.0
H469 H 0.08196 0.38334 0.55833 0.0
H470 H 0.07805 0.44568 0.64575 0.0
S471 S 0.97964 0.44924 0.24053 0.0
N472 N 0.99984 0.40928 0.25705 0.0
N473 N 0.99489 0.47647 0.35348 0.0
C474 C 1.01781 0.45348 0.41125 0.0
C475 C 1.02062 0.41684 0.35791 0.0
C476 C 0.88741 0.96869 0.08407 0.0
C477 C 0.8726 0.99427 0.17074 0.0
C478 C 0.91803 0.97688 1.01058 0.0
C479 C 0.93527 1.01125 1.01885 0.0
H480 H 0.87476 0.94202 0.07129 0.0
H481 H 0.92755 0.95649 0.94368 0.0
S482 S 0.90796 0.08834 0.22996 0.0
N483 N 0.87858 0.05556 0.26119 0.0
N484 N 0.93492 0.07137 0.12044 0.0
C485 C 0.92084 0.03719 0.1048 0.0
C486 C 0.89003 1.02859 0.18163 0.0
C487 C 0.53342 0.91586 0.13163 0.0
C488 C 0.57006 0.90911 0.16349 0.0
C489 C 0.52414 0.94463 0.05324 0.0
C490 C 0.55093 0.96852 1.00708 0.0
H491 H 0.51188 0.89853 0.16551 0.0
H492 H 0.49577 0.94813 0.02813 0.0
S493 S 0.6508 0.96082 0.05297 0.0
N494 N 0.63342 0.92715 0.13203 0.0
N495 N 0.61548 0.98227 0.99489 0.0
C496 C 0.58739 0.96216 0.03884 0.0
C497 C 0.59702 0.93225 0.11421 0.0
C498 C 0.66952 0.57237 0.99495 0.0
C499 C 0.68001 0.54564 0.07901 0.0
C500 C 0.63585 0.57069 0.93074 0.0
C501 C 0.61147 0.54127 0.94404 0.0
H502 H 0.68835 0.59426 0.97508 0.0
H503 H 0.62929 0.59212 0.86814 0.0
S504 S 0.62787 0.46079 0.13465 0.0
N505 N 0.66416 0.48692 0.16095 0.0
N506 N 0.60123 0.48359 0.042 0.0
C507 C 0.62152 0.51428 0.02744 0.0
C508 C 0.65573 0.51623 0.09345 0.0
C509 C 0.99445 0.6774 0.99962 0.0
C510 C 1.01355 0.68967 0.10619 0.0
C511 C 0.998 0.64139 0.94944 0.0
C512 C 1.02227 0.61617 0.99989 0.0
H513 H 0.97642 0.696 0.95369 0.0
H514 H 0.98205 0.63348 0.86911 0.0
S515 S 0.07869 0.63358 0.27967 0.0
N516 N 0.05701 0.6727 0.26219 0.0
N517 N 0.06472 0.60568 0.16661 0.0
C518 C 0.04104 0.62772 0.10806 0.0
C519 C 0.03677 0.66428 0.16075 0.0
C520 C 0.12937 0.20838 0.40217 0.0
C521 C 0.12712 0.24653 0.39092 0.0
C522 C 0.1052 0.19107 0.48218 0.0
C523 C 0.08314 0.21206 0.5645 0.0
H524 H 0.14344 0.19183 0.33306 0.0
H525 H 0.10144 0.16202 0.46881 0.0
S526 S 0.10689 0.30729 0.66236 0.0
N527 N 0.12834 0.30044 0.53005 0.0
N528 N 0.08498 0.26878 0.68912 0.0
C529 C 0.09499 0.24825 0.5885 0.0
C530 C 0.11832 0.26535 0.50246 0.0
C531 C 0.35234 0.13732 0.41354 0.0
C532 C 0.31466 0.13216 0.39512 0.0
C533 C 0.37126 0.11148 0.48221 0.0
C534 C 0.35143 0.08579 0.55046 0.0
H535 H 0.36744 0.15462 0.35299 0.0
H536 H 0.40045 0.10933 0.46977 0.0
S537 S 0.25566 0.10163 0.64894 0.0
N538 N 0.26133 0.12792 0.52974 0.0
N539 N 0.29509 0.08052 0.66871 0.0
C540 C 0.31494 0.0951 0.57703 0.0
C541 C 0.29675 0.12039 0.50172 0.0
C542 C 0.66497 0.32664 0.18268 0.0
C543 C 0.63392 0.31017 0.23371 0.0
C544 C 0.68645 0.35101 0.25338 0.0
C545 C 0.67714 0.35933 0.37618 0.0
H546 H 0.6695 0.32482 0.08438 0.0
H547 H 0.70613 0.36775 0.20638 0.0
S548 S 0.60823 0.31226 0.56299 0.0
N549 N 0.60193 0.29552 0.42185 0.0
N550 N 0.64333 0.34055 0.55507 0.0
C551 C 0.65192 0.33655 0.43397 0.0
C552 C 0.62959 0.31223 0.36192 0.0
C553 C 0.27051 0.48503 0.51745 0.0
C554 C 0.24993 0.46508 0.4282 0.0
C555 C 0.25331 0.50208 0.61776 0.0
C556 C 0.2153 0.49937 0.63119 0.0
H557 H 0.29827 0.49361 0.49998 0.0
H558 H 0.26891 0.5225 0.66927 0.0
S559 S 0.15628 0.42977 0.47408 0.0
N560 N 0.19497 0.42855 0.39572 0.0
N561 N 0.16245 0.46023 0.58777 0.0
C562 C 0.19759 0.47032 0.56659 0.0
C563 C 0.21506 0.45321 0.46303 0.0
C564 C 0.93325 0.87509 0.10082 0.0
C565 C 0.9315 0.83685 0.11121 0.0
C566 C 0.96253 0.88988 0.03554 0.0
C567 C 0.98522 0.86684 0.96186 0.0
H568 H 0.91871 0.89285 0.16517 0.0
H569 H 0.96956 0.91815 0.05506 0.0
S570 S 0.95696 0.77428 0.85076 0.0
N571 N 0.92984 0.78372 0.96898 0.0
N572 N 0.98425 0.81008 0.83791 0.0
C573 C 0.97126 0.83191 0.9312 0.0
C574 C 0.94219 0.81763 1.00244 0.0
C575 C 0.71612 0.05474 0.98338 0.0
C576 C 0.7335 0.07014 0.08731 0.0
C577 C 0.70344 0.07725 0.89139 0.0
C578 C 0.70707 0.11561 0.90353 0.0
H579 H 0.71009 1.02571 0.97748 0.0
H580 H 0.68685 0.06514 0.81838 0.0
S581 S 0.75695 0.1675 0.14832 0.0
N582 N 0.75933 0.1244 0.18832 0.0
N583 N 0.73431 0.16704 1.01716 0.0
C584 C 0.72836 0.13053 0.9997 0.0
C585 C 0.74155 0.10762 0.0924 0.0
C586 C 0.60162 0.74852 0.9853 0.0
C587 C 0.62775 0.74995 0.08054 0.0
C588 C 0.59093 0.71449 0.93425 0.0
C589 C 0.60677 0.68244 0.97808 0.0
H590 H 0.58374 0.77158 0.97093 0.0
H591 H 0.56547 0.71317 0.88344 0.0
S592 S 0.695 0.67791 0.14178 0.0
N593 N 0.683 0.72143 0.15403 0.0
N594 N 0.66293 0.65716 0.05823 0.0
C595 C 0.6414 0.68606 0.03287 0.0
C596 C 0.65227 0.72064 0.08424 0.0
C597 C 0.79324 0.62028 1.00279 0.0
C598 C 0.81269 0.63326 0.10757 0.0
C599 C 0.81142 0.59874 0.91388 0.0
C600 C 0.84978 0.59539 0.91704 0.0
H601 H 0.76372 0.61908 1.00183 0.0
H602 H 0.79472 0.58158 0.8542 0.0
S603 S 0.91017 0.65933 0.09443 0.0
N604 N 0.86949 0.66487 0.15815 0.0
N605 N 0.90501 0.62862 0.98082 0.0
C606 C 0.86864 0.6218 0.99026 0.0
C607 C 0.84954 0.64155 0.08537 0.0
C608 C 0.07446 0.18705 0.94854 0.0
C609 C 0.05228 0.2063 0.0364 0.0
C610 C 0.06441 0.15213 0.89562 0.0
C611 C 0.03194 0.13403 0.92971 0.0
H612 H 0.10045 0.19873 0.92251 0.0
H613 H 0.08244 0.13911 0.82855 0.0
S614 S 0.96362 0.17221 0.15247 0.0
N615 N 0.9958 0.2039 0.15155 0.0
N616 N 0.97686 0.13976 0.05324 0.0
C617 C 1.00908 0.15367 1.01384 0.0
C618 C 1.01924 0.18904 0.06709 0.0
C619 C 0.37015 0.07964 0.92089 0.0
C620 C 0.35993 0.06064 0.02697 0.0
C621 C 0.4038 0.07267 0.85799 0.0
C622 C 0.42962 0.04723 0.90033 0.0
H623 H 0.35214 0.10048 0.88689 0.0
H624 H 0.40972 0.08759 0.7762 0.0
S625 S 0.41686 0.99055 0.17392 0.0
N626 N 0.37918 1.01534 0.17053 0.0
N627 N 0.44143 1.0024 0.05438 0.0
C628 C 0.41935 1.02786 1.00508 0.0
C629 C 0.38517 0.03473 0.06826 0.0
C630 C 0.57856 0.37441 0.86129 0.0
C631 C 0.54932 0.35657 0.91992 0.0
C632 C 0.57438 0.40835 0.80618 0.0
C633 C 0.54047 0.4266 0.80304 0.0
H634 H 0.60575 0.36271 0.86215 0.0
H635 H 0.59859 0.42063 0.76831 0.0
S636 S 0.45242 0.3856 0.901 0.0
N637 N 0.48344 0.35625 0.94661 0.0
N638 N 0.47509 0.4187 0.83432 0.0
C639 C 0.50997 0.40688 0.84645 0.0
C640 C 0.51444 0.37231 0.90604 0.0
C641 C 0.19065 0.54649 0.03834 0.0
C642 C 0.20836 0.51206 0.03043 0.0
C643 C 0.15577 0.55242 0.98332 0.0
C644 C 0.13639 0.52405 0.91964 0.0
H645 H 0.20332 0.5688 0.09061 0.0
H646 H 0.14352 0.57931 0.99323 0.0
S647 S 0.1689 0.42804 0.88114 0.0
N648 N 0.20234 0.44898 0.95737 0.0
N649 N 0.1377 0.45964 0.85811 0.0
C650 C 0.15361 0.48948 0.91341 0.0
C651 C 0.18911 0.48367 0.9673 0.0
C652 C 0.97505 0.88951 0.57504 0.0
C653 C 0.9988 0.87108 0.49031 0.0
C654 C 0.98492 0.92302 0.63725 0.0
C655 C 1.01868 0.94035 0.61509 0.0
H656 H 0.94823 0.87816 0.59198 0.0
H657 H 0.96595 0.93542 0.7026 0.0
S658 S 0.08983 0.90526 0.3973 0.0
N659 N 0.05716 0.87411 0.38634 0.0
N660 N 0.07556 0.93612 0.50052 0.0
C661 C 0.04258 0.922 0.5314 0.0
C662 C 0.03269 0.88794 0.4694 0.0
C663 C 0.66668 0.0661 0.50358 0.0
C664 C 0.69092 0.03572 0.50083 0.0
C665 C 0.63413 0.06691 0.57359 0.0
C666 C 0.62371 0.03753 0.64597 0.0
H667 H 0.67247 0.08958 0.44882 0.0
H668 H 0.6168 0.09084 0.57055 0.0
S669 S 0.68038 0.95531 0.69782 0.0
N670 N 0.70381 0.97768 0.59438 0.0
N671 N 0.6436 0.98013 0.72886 0.0
C672 C 0.64915 1.0087 0.65473 0.0
C673 C 0.68231 1.00753 0.58177 0.0
C674 C 0.5967 0.70045 0.52532 0.0
C675 C 0.56885 0.72063 0.46808 0.0
C676 C 0.59025 0.66581 0.57538 0.0
C677 C 0.55539 0.6491 0.57311 0.0
H678 H 0.6245 0.7107 0.52548 0.0
H679 H 0.61333 0.65148 0.6132 0.0
S680 S 0.47212 0.69051 0.44047 0.0
N681 N 0.50436 0.72118 0.4166 0.0
N682 N 0.49195 0.6571 0.51394 0.0
C683 C 0.52669 0.66991 0.52336 0.0
C684 C 0.53345 0.70518 0.47029 0.0
C685 C 0.87455 0.59201 0.53419 0.0
C686 C 0.85649 0.5639 0.46489 0.0
C687 C 0.90834 0.58647 0.59365 0.0
C688 C 0.92608 0.55225 0.58974 0.0
H689 H 0.86284 0.61922 0.53971 0.0
H690 H 0.92078 0.60948 0.64317 0.0
S691 S 0.89135 0.46894 0.42269 0.0
N692 N 0.85986 0.50011 0.39645 0.0
N693 N 0.92255 0.48941 0.51065 0.0
C694 C 0.90818 0.52353 0.52323 0.0
C695 C 0.87371 0.52933 0.4611 0.0
loop_
_geom_bond_atom_site_label_1
_geom_bond_atom_site_label_2
_geom_bond_distance
_geom_bond_site_symmetry_2
_ccdc_geom_bond_type
H0 C5 0.930 . S
H1 C8 0.930 . S
H2 C10 0.930 . S
H3 C4 1.016 . S
C4 H3 1.016 . S
C4 N11 1.286 . S
C5 H0 0.930 . S
C5 C6 1.397 . S
C5 C7 1.361 . S
C6 C5 1.397 . S
C6 C10 1.390 . S
C7 C5 1.361 . S
C7 C8 1.393 . S
C7 N11 1.413 . S
C8 H1 0.930 . S
C8 C7 1.393 . S
C8 C9 1.399 . S
C9 C8 1.399 . S
C9 C10 1.381 . S
C10 H2 0.930 . S
C10 C6 1.390 . S
C10 C9 1.381 . S
N11 C4 1.286 . S
N11 C7 1.413 . S
H12 C17 0.930 . S
H13 C20 0.930 . S
H14 C22 0.930 . S
H15 C16 1.016 . S
C16 H15 1.016 . S
C16 N23 1.286 . S
C17 H12 0.930 . S
C17 C18 1.397 . S
C17 C19 1.361 . S
C18 C17 1.397 . S
C18 C22 1.390 . S
C19 C17 1.361 . S
C19 C20 1.393 . S
C19 N23 1.413 . S
C20 H13 0.930 . S
C20 C19 1.393 . S
C20 C21 1.399 . S
C21 C20 1.399 . S
C21 C22 1.381 . S
C22 H14 0.930 . S
C22 C18 1.390 . S
C22 C21 1.381 . S
N23 C16 1.286 . S
N23 C19 1.413 . S
H24 C29 0.930 . S
H25 C32 0.930 . S
H26 C34 0.930 . S
H27 C28 1.016 . S
C28 H27 1.016 . S
C28 N35 1.286 . S
C29 H24 0.930 . S
C29 C30 1.397 . S
C29 C31 1.361 . S
C30 C29 1.397 . S
C30 C34 1.390 . S
C31 C29 1.361 . S
C31 C32 1.393 . S
C31 N35 1.413 . S
C32 H25 0.930 . S
C32 C31 1.393 . S
C32 C33 1.399 . S
C33 C32 1.399 . S
C33 C34 1.381 . S
C34 H26 0.930 . S
C34 C30 1.390 . S
C34 C33 1.381 . S
N35 C28 1.286 . S
N35 C31 1.413 . S
H36 C41 0.930 . S
H37 C44 0.930 . S
H38 C46 0.930 . S
H39 C40 1.016 . S
C40 H39 1.016 . S
C40 N47 1.286 . S
C41 H36 0.930 . S
C41 C42 1.397 . S
C41 C43 1.361 . S
C42 C41 1.397 . S
C42 C46 1.390 . S
C43 C41 1.361 . S
C43 C44 1.393 . S
C43 N47 1.413 . S
C44 H37 0.930 . S
C44 C43 1.393 . S
C44 C45 1.399 . S
C45 C44 1.399 . S
C45 C46 1.381 . S
C46 H38 0.930 . S
C46 C42 1.390 . S
C46 C45 1.381 . S
N47 C40 1.286 . S
N47 C43 1.413 . S
H48 C53 0.930 . S
H49 C56 0.930 . S
H50 C58 0.930 . S
H51 C52 1.016 . S
C52 H51 1.016 . S
C52 N59 1.286 . S
C53 H48 0.930 . S
C53 C54 1.397 . S
C53 C55 1.361 1_556 S
C54 C53 1.397 . S
C54 C58 1.390 . S
C55 C53 1.361 1_554 S
C55 C56 1.393 . S
C55 N59 1.413 . S
C56 H49 0.930 . S
C56 C55 1.393 . S
C56 C57 1.399 . S
C57 C56 1.399 . S
C57 C58 1.381 1_554 S
C58 H50 0.930 . S
C58 C54 1.390 . S
C58 C57 1.381 1_556 S
N59 C52 1.286 . S
N59 C55 1.413 . S
H60 C65 0.930 . S
H61 C68 0.930 . S
H62 C70 0.930 . S
H63 C64 1.016 . S
C64 H63 1.016 . S
C64 N71 1.286 . S
C65 H60 0.930 . S
C65 C66 1.397 . S
C65 C67 1.361 1_556 S
C66 C65 1.397 . S
C66 C70 1.390 . S
C67 C65 1.361 1_554 S
C67 C68 1.393 . S
C67 N71 1.413 . S
C68 H61 0.930 . S
C68 C67 1.393 . S
C68 C69 1.399 . S
C69 C68 1.399 . S
C69 C70 1.381 1_554 S
C70 H62 0.930 . S
C70 C66 1.390 . S
C70 C69 1.381 1_556 S
N71 C64 1.286 . S
N71 C67 1.413 . S
H72 C77 0.930 . S
H73 C80 0.930 . S
H74 C82 0.930 . S
H75 C76 1.016 . S
C76 H75 1.016 . S
C76 N83 1.286 . S
C77 H72 0.930 . S
C77 C78 1.397 . S
C77 C79 1.361 1_556 S
C78 C77 1.397 . S
C78 C82 1.390 . S
C79 C77 1.361 1_554 S
C79 C80 1.393 . S
C79 N83 1.413 . S
C80 H73 0.930 . S
C80 C79 1.393 . S
C80 C81 1.399 . S
C81 C80 1.399 . S
C81 C82 1.381 1_554 S
C82 H74 0.930 . S
C82 C78 1.390 . S
C82 C81 1.381 1_556 S
N83 C76 1.286 . S
N83 C79 1.413 . S
H84 C89 0.930 . S
H85 C92 0.930 . S
H86 C94 0.930 . S
H87 C88 1.016 . S
C88 H87 1.016 . S
C88 N95 1.286 . S
C89 H84 0.930 . S
C89 C90 1.397 . S
C89 C91 1.361 1_556 S
C90 C89 1.397 . S
C90 C94 1.390 . S
C91 C89 1.361 1_554 S
C91 C92 1.393 . S
C91 N95 1.413 . S
C92 H85 0.930 . S
C92 C91 1.393 . S
C92 C93 1.399 . S
C93 C92 1.399 . S
C93 C94 1.381 1_554 S
C94 H86 0.930 . S
C94 C90 1.390 . S
C94 C93 1.381 1_556 S
N95 C88 1.286 . S
N95 C91 1.413 . S
Eu96 N127 2.657 1_566 S
Eu96 N134 2.609 1_565 S
Eu96 O140 2.558 . S
Eu96 O141 2.612 1_455 S
Eu96 O143 2.339 1_455 S
Eu96 O144 2.563 . S
Eu96 O145 2.419 1_556 S
Eu96 O147 2.380 1_565 S
Eu96 O148 2.432 . S
Eu96 C160 2.848 . S
C97 C100 1.429 . S
C97 C101 1.411 . S
C97 N104 1.377 1_565 S
C98 C100 1.420 . S
C98 C102 1.423 . S
C98 C110 1.392 . S
C99 C101 1.420 . S
C99 C102 1.351 . S
C99 H122 0.931 . S
C100 C97 1.429 . S
C100 C98 1.420 . S
C100 N108 1.362 . S
C101 C97 1.411 . S
C101 C99 1.420 . S
C101 C106 1.395 1_565 S
C102 C98 1.423 . S
C102 C99 1.351 . S
C102 H114 0.930 . S
C103 C105 1.400 . S
C103 C106 1.386 . S
C103 H115 0.930 . S
N104 C97 1.377 1_545 S
N104 C105 1.321 . S
N104 Eu107 2.609 . S
C105 C103 1.400 . S
C105 N104 1.321 . S
C105 H112 0.930 . S
C106 C101 1.395 1_545 S
C106 C103 1.386 . S
C106 H125 0.930 . S
Eu107 N104 2.609 . S
Eu107 N108 2.657 1_545 S
Eu107 O141 2.380 1_545 S
Eu107 O142 2.432 . S
Eu107 O146 2.558 . S
Eu107 O147 2.612 1_655 S
Eu107 O149 2.339 1_655 S
Eu107 O150 2.563 1_655 S
Eu107 O151 2.419 . S
Eu107 C171 2.848 . S
N108 C100 1.362 . S
N108 Eu107 2.657 1_565 S
N108 C109 1.334 1_655 S
C109 N108 1.334 1_455 S
C109 C111 1.413 . S
C109 H116 0.929 . S
C110 C98 1.392 . S
C110 C111 1.367 1_655 S
C110 H118 0.930 . S
C111 C109 1.413 . S
C111 C110 1.367 1_455 S
C111 H113 0.930 . S
H112 C105 0.930 . S
H113 C111 0.930 . S
H114 C102 0.930 . S
H115 C103 0.930 . S
H116 C109 0.929 . S
H117 C131 0.930 1_655 S
H118 C110 0.930 . S
H119 C137 0.930 . S
H120 C128 0.929 1_655 S
H121 C135 0.930 . S
H122 C99 0.931 . S
H123 C129 0.930 . S
H124 C162 0.930 . S
H125 C106 0.930 . S
H126 C161 0.931 . S
N127 Eu96 2.657 1_544 S
N127 C128 1.334 . S
N127 C132 1.362 . S
C128 H120 0.929 1_455 S
C128 N127 1.334 . S
C128 C131 1.413 . S
C129 H123 0.930 . S
C129 C130 1.392 . S
C129 C131 1.367 . S
C130 C129 1.392 . S
C130 C132 1.420 . S
C130 C162 1.423 . S
C131 H117 0.930 1_455 S
C131 C128 1.413 . S
C131 C129 1.367 . S
C132 N127 1.362 . S
C132 C130 1.420 . S
C132 C136 1.429 . S
H133 C138 0.930 . S
N134 Eu96 2.609 1_545 S
N134 C136 1.377 1_556 S
N134 C137 1.321 1_545 S
C135 H121 0.930 . S
C135 C137 1.400 . S
C135 C138 1.386 1_566 S
C136 C132 1.429 . S
C136 N134 1.377 1_554 S
C136 C139 1.411 . S
C137 H119 0.930 . S
C137 N134 1.321 1_565 S
C137 C135 1.400 . S
C138 H133 0.930 . S
C138 C135 1.386 1_544 S
C138 C139 1.395 . S
C139 C136 1.411 . S
C139 C138 1.395 . S
C139 C161 1.420 . S
O140 Eu96 2.558 . S
O140 C160 1.257 . S
O141 Eu96 2.612 1_655 S
O141 Eu107 2.380 1_565 S
O141 C152 1.276 . S
O142 Eu107 2.432 . S
O142 C159 1.264 . S
O143 Eu96 2.339 1_655 S
O143 C159 1.254 1_565 S
O144 Eu96 2.563 . S
O144 C152 1.235 1_455 S
O145 Eu96 2.419 1_554 S
O145 C160 1.249 1_554 S
O146 Eu107 2.558 . S
O146 C171 1.257 . S
O147 Eu96 2.380 1_545 S
O147 Eu107 2.612 1_455 S
O147 C163 1.276 . S
O148 Eu96 2.432 . S
O148 C170 1.264 1_565 S
O149 Eu107 2.339 1_455 S
O149 C170 1.254 . S
O150 Eu107 2.563 1_455 S
O150 C163 1.235 . S
O151 Eu107 2.419 . S
O151 C171 1.249 . S
C152 O141 1.276 . S
C152 O144 1.235 1_655 S
C153 C155 1.393 . S
C153 C157 1.395 . S
C153 C160 1.492 1_554 S
C154 C155 1.392 . S
C154 C156 1.386 . S
C155 C153 1.393 . S
C155 C154 1.392 . S
C155 H172 0.930 . S
C156 C154 1.386 . S
C156 C158 1.395 . S
C156 H173 0.930 . S
C157 C153 1.395 . S
C157 C158 1.379 . S
C157 H174 0.930 . S
C158 C156 1.395 . S
C158 C157 1.379 . S
C158 H175 0.930 . S
C159 O142 1.264 . S
C159 O143 1.254 1_545 S
C160 Eu96 2.848 . S
C160 O140 1.257 . S
C160 O145 1.249 1_556 S
C160 C153 1.492 1_556 S
C161 H126 0.931 . S
C161 C139 1.420 . S
C161 C162 1.351 . S
C162 H124 0.930 . S
C162 C130 1.423 . S
C162 C161 1.351 . S
C163 O147 1.276 . S
C163 O150 1.235 . S
C164 C165 1.393 . S
C164 C168 1.395 . S
C164 C171 1.492 . S
C165 C164 1.393 . S
C165 C166 1.392 . S
C165 H176 0.930 1_655 S
C166 C165 1.392 . S
C166 C167 1.386 . S
C167 C166 1.386 . S
C167 C169 1.395 . S
C167 H177 0.930 . S
C168 C164 1.395 . S
C168 C169 1.379 . S
C168 H178 0.930 . S
C169 C167 1.395 . S
C169 C168 1.379 . S
C169 H179 0.930 . S
C170 O148 1.264 1_545 S
C170 O149 1.254 . S
C171 Eu107 2.848 . S
C171 O146 1.257 . S
C171 O151 1.249 . S
C171 C164 1.492 . S
H172 C155 0.930 . S
H173 C156 0.930 . S
H174 C157 0.930 . S
H175 C158 0.930 . S
H176 C165 0.930 1_455 S
H177 C167 0.930 . S
H178 C168 0.930 . S
H179 C169 0.930 . S
Eu180 N211 2.657 1_556 S
Eu180 N218 2.609 . S
Eu180 O224 2.558 . S
Eu180 O225 2.612 1_545 S
Eu180 O227 2.339 1_545 S
Eu180 O228 2.563 . S
Eu180 O229 2.419 1_556 S
Eu180 O231 2.380 . S
Eu180 O232 2.432 . S
Eu180 C244 2.848 . S
C181 C184 1.429 . S
C181 C185 1.411 . S
C181 N188 1.377 . S
C182 C184 1.420 . S
C182 C186 1.423 . S
C182 C194 1.392 . S
C183 C185 1.420 . S
C183 C186 1.351 . S
C183 H206 0.931 . S
C184 C181 1.429 . S
C184 C182 1.420 . S
C184 N192 1.362 . S
C185 C181 1.411 . S
C185 C183 1.420 . S
C185 C190 1.395 . S
C186 C182 1.423 . S
C186 C183 1.351 . S
C186 H198 0.930 . S
C187 C189 1.400 . S
C187 C190 1.386 . S
C187 H199 0.930 . S
N188 C181 1.377 . S
N188 C189 1.321 . S
N188 Eu191 2.609 . S
C189 C187 1.400 . S
C189 N188 1.321 . S
C189 H196 0.930 . S
C190 C185 1.395 . S
C190 C187 1.386 . S
C190 H209 0.930 . S
Eu191 N188 2.609 . S
Eu191 N192 2.657 . S
Eu191 O225 2.380 . S
Eu191 O226 2.432 . S
Eu191 O230 2.558 . S
Eu191 O231 2.612 1_565 S
Eu191 O233 2.339 1_565 S
Eu191 O234 2.563 1_565 S
Eu191 O235 2.419 . S
Eu191 C255 2.848 . S
N192 C184 1.362 . S
N192 Eu191 2.657 . S
N192 C193 1.334 1_565 S
C193 N192 1.334 1_545 S
C193 C195 1.413 . S
C193 H200 0.929 . S
C194 C182 1.392 . S
C194 C195 1.367 1_565 S
C194 H202 0.930 . S
C195 C193 1.413 . S
C195 C194 1.367 1_545 S
C195 H197 0.930 . S
H196 C189 0.930 . S
H197 C195 0.930 . S
H198 C186 0.930 . S
H199 C187 0.930 . S
H200 C193 0.929 . S
H201 C215 0.930 1_565 S
H202 C194 0.930 . S
H203 C221 0.930 . S
H204 C212 0.929 1_565 S
H205 C219 0.930 . S
H206 C183 0.931 . S
H207 C213 0.930 . S
H208 C246 0.930 . S
H209 C190 0.930 . S
H210 C245 0.931 . S
N211 Eu180 2.657 1_554 S
N211 C212 1.334 . S
N211 C216 1.362 . S
C212 H204 0.929 1_545 S
C212 N211 1.334 . S
C212 C215 1.413 . S
C213 H207 0.930 . S
C213 C214 1.392 . S
C213 C215 1.367 . S
C214 C213 1.392 . S
C214 C216 1.420 . S
C214 C246 1.423 . S
C215 H201 0.930 1_545 S
C215 C212 1.413 . S
C215 C213 1.367 . S
C216 N211 1.362 . S
C216 C214 1.420 . S
C216 C220 1.429 . S
H217 C222 0.930 . S
N218 Eu180 2.609 . S
N218 C220 1.377 1_556 S
N218 C221 1.321 . S
C219 H205 0.930 . S
C219 C221 1.400 . S
C219 C222 1.386 1_556 S
C220 C216 1.429 . S
C220 N218 1.377 1_554 S
C220 C223 1.411 . S
C221 H203 0.930 . S
C221 N218 1.321 . S
C221 C219 1.400 . S
C222 H217 0.930 . S
C222 C219 1.386 1_554 S
C222 C223 1.395 . S
C223 C220 1.411 . S
C223 C222 1.395 . S
C223 C245 1.420 . S
O224 Eu180 2.558 . S
O224 C244 1.257 . S
O225 Eu180 2.612 1_565 S
O225 Eu191 2.380 . S
O225 C236 1.276 . S
O226 Eu191 2.432 . S
O226 C243 1.264 . S
O227 Eu180 2.339 1_565 S
O227 C243 1.254 . S
O228 Eu180 2.563 . S
O228 C236 1.235 1_545 S
O229 Eu180 2.419 1_554 S
O229 C244 1.249 1_554 S
O230 Eu191 2.558 . S
O230 C255 1.257 . S
O231 Eu180 2.380 . S
O231 Eu191 2.612 1_545 S
O231 C247 1.276 . S
O232 Eu180 2.432 . S
O232 C254 1.264 . S
O233 Eu191 2.339 1_545 S
O233 C254 1.254 . S
O234 Eu191 2.563 1_545 S
O234 C247 1.235 . S
O235 Eu191 2.419 . S
O235 C255 1.249 . S
C236 O225 1.276 . S
C236 O228 1.235 1_565 S
C237 C239 1.393 . S
C237 C241 1.395 . S
C237 C244 1.492 1_554 S
C238 C239 1.392 . S
C238 C240 1.386 . S
C239 C237 1.393 . S
C239 C238 1.392 . S
C239 H256 0.930 . S
C240 C238 1.386 . S
C240 C242 1.395 . S
C240 H257 0.930 . S
C241 C237 1.395 . S
C241 C242 1.379 . S
C241 H258 0.930 . S
C242 C240 1.395 . S
C242 C241 1.379 . S
C242 H259 0.930 . S
C243 O226 1.264 . S
C243 O227 1.254 . S
C244 Eu180 2.848 . S
C244 O224 1.257 . S
C244 O229 1.249 1_556 S
C244 C237 1.492 1_556 S
C245 H210 0.931 . S
C245 C223 1.420 . S
C245 C246 1.351 . S
C246 H208 0.930 . S
C246 C214 1.423 . S
C246 C245 1.351 . S
C247 O231 1.276 . S
C247 O234 1.235 . S
C248 C249 1.393 . S
C248 C252 1.395 . S
C248 C255 1.492 . S
C249 C248 1.393 . S
C249 C250 1.392 . S
C249 H260 0.930 1_565 S
C250 C249 1.392 . S
C250 C251 1.386 . S
C251 C250 1.386 . S
C251 C253 1.395 . S
C251 H261 0.930 . S
C252 C248 1.395 . S
C252 C253 1.379 . S
C252 H262 0.930 . S
C253 C251 1.395 . S
C253 C252 1.379 . S
C253 H263 0.930 . S
C254 O232 1.264 . S
C254 O233 1.254 . S
C255 Eu191 2.848 . S
C255 O230 1.257 . S
C255 O235 1.249 . S
C255 C248 1.492 . S
H256 C239 0.930 . S
H257 C240 0.930 . S
H258 C241 0.930 . S
H259 C242 0.930 . S
H260 C249 0.930 1_545 S
H261 C251 0.930 . S
H262 C252 0.930 . S
H263 C253 0.930 . S
Eu264 N295 2.657 . S
Eu264 N302 2.609 . S
Eu264 O308 2.558 . S
Eu264 O309 2.612 . S
Eu264 O311 2.339 . S
Eu264 O312 2.563 . S
Eu264 O313 2.419 . S
Eu264 O315 2.380 . S
Eu264 O316 2.432 . S
Eu264 C328 2.848 . S
C265 C268 1.429 . S
C265 C269 1.411 . S
C265 N272 1.377 . S
C266 C268 1.420 . S
C266 C270 1.423 . S
C266 C278 1.392 . S
C267 C269 1.420 . S
C267 C270 1.351 . S
C267 H290 0.931 . S
C268 C265 1.429 . S
C268 C266 1.420 . S
C268 N276 1.362 . S
C269 C265 1.411 . S
C269 C267 1.420 . S
C269 C274 1.395 1_556 S
C270 C266 1.423 . S
C270 C267 1.351 . S
C270 H282 0.930 . S
C271 C273 1.400 . S
C271 C274 1.386 . S
C271 H283 0.930 . S
N272 C265 1.377 . S
N272 C273 1.321 1_556 S
N272 Eu275 2.609 . S
C273 C271 1.400 . S
C273 N272 1.321 1_554 S
C273 H280 0.930 . S
C274 C269 1.395 1_554 S
C274 C271 1.386 . S
C274 H293 0.930 . S
Eu275 N272 2.609 . S
Eu275 N276 2.657 . S
Eu275 O309 2.380 . S
Eu275 O310 2.432 . S
Eu275 O314 2.558 1_556 S
Eu275 O315 2.612 . S
Eu275 O317 2.339 . S
Eu275 O318 2.563 . S
Eu275 O319 2.419 . S
Eu275 C339 2.848 1_556 S
N276 C268 1.362 . S
N276 Eu275 2.657 . S
N276 C277 1.334 . S
C277 N276 1.334 . S
C277 C279 1.413 . S
C277 H284 0.929 . S
C278 C266 1.392 . S
C278 C279 1.367 . S
C278 H286 0.930 . S
C279 C277 1.413 . S
C279 C278 1.367 . S
C279 H281 0.930 . S
H280 C273 0.930 . S
H281 C279 0.930 . S
H282 C270 0.930 . S
H283 C271 0.930 . S
H284 C277 0.929 . S
H285 C299 0.930 . S
H286 C278 0.930 . S
H287 C305 0.930 . S
H288 C296 0.929 . S
H289 C303 0.930 . S
H290 C267 0.931 . S
H291 C297 0.930 . S
H292 C330 0.930 . S
H293 C274 0.930 . S
H294 C329 0.931 . S
N295 Eu264 2.657 . S
N295 C296 1.334 . S
N295 C300 1.362 . S
C296 H288 0.929 . S
C296 N295 1.334 . S
C296 C299 1.413 . S
C297 H291 0.930 . S
C297 C298 1.392 . S
C297 C299 1.367 . S
C298 C297 1.392 . S
C298 C300 1.420 . S
C298 C330 1.423 . S
C299 H285 0.930 . S
C299 C296 1.413 . S
C299 C297 1.367 . S
C300 N295 1.362 . S
C300 C298 1.420 . S
C300 C304 1.429 . S
H301 C306 0.930 . S
N302 Eu264 2.609 . S
N302 C304 1.377 . S
N302 C305 1.321 . S
C303 H289 0.930 . S
C303 C305 1.400 . S
C303 C306 1.386 . S
C304 C300 1.429 . S
C304 N302 1.377 . S
C304 C307 1.411 . S
C305 H287 0.930 . S
C305 N302 1.321 . S
C305 C303 1.400 . S
C306 H301 0.930 . S
C306 C303 1.386 . S
C306 C307 1.395 . S
C307 C304 1.411 . S
C307 C306 1.395 . S
C307 C329 1.420 . S
O308 Eu264 2.558 . S
O308 C328 1.257 . S
O309 Eu264 2.612 . S
O309 Eu275 2.380 . S
O309 C320 1.276 . S
O310 Eu275 2.432 . S
O310 C327 1.264 . S
O311 Eu264 2.339 . S
O311 C327 1.254 . S
O312 Eu264 2.563 . S
O312 C320 1.235 . S
O313 Eu264 2.419 . S
O313 C328 1.249 . S
O314 Eu275 2.558 1_554 S
O314 C339 1.257 . S
O315 Eu264 2.380 . S
O315 Eu275 2.612 . S
O315 C331 1.276 . S
O316 Eu264 2.432 . S
O316 C338 1.264 . S
O317 Eu275 2.339 . S
O317 C338 1.254 . S
O318 Eu275 2.563 . S
O318 C331 1.235 . S
O319 Eu275 2.419 . S
O319 C339 1.249 1_556 S
C320 O309 1.276 . S
C320 O312 1.235 . S
C321 C323 1.393 . S
C321 C325 1.395 . S
C321 C328 1.492 . S
C322 C323 1.392 . S
C322 C324 1.386 . S
C323 C321 1.393 . S
C323 C322 1.392 . S
C323 H340 0.930 . S
C324 C322 1.386 . S
C324 C326 1.395 . S
C324 H341 0.930 . S
C325 C321 1.395 . S
C325 C326 1.379 . S
C325 H342 0.930 . S
C326 C324 1.395 . S
C326 C325 1.379 . S
C326 H343 0.930 . S
C327 O310 1.264 . S
C327 O311 1.254 . S
C328 Eu264 2.848 . S
C328 O308 1.257 . S
C328 O313 1.249 . S
C328 C321 1.492 . S
C329 H294 0.931 . S
C329 C307 1.420 . S
C329 C330 1.351 . S
C330 H292 0.930 . S
C330 C298 1.423 . S
C330 C329 1.351 . S
C331 O315 1.276 . S
C331 O318 1.235 . S
C332 C333 1.393 . S
C332 C336 1.395 . S
C332 C339 1.492 . S
C333 C332 1.393 . S
C333 C334 1.392 . S
C333 H344 0.930 . S
C334 C333 1.392 . S
C334 C335 1.386 . S
C335 C334 1.386 . S
C335 C337 1.395 . S
C335 H345 0.930 . S
C336 C332 1.395 . S
C336 C337 1.379 . S
C336 H346 0.930 . S
C337 C335 1.395 . S
C337 C336 1.379 . S
C337 H347 0.930 . S
C338 O316 1.264 . S
C338 O317 1.254 . S
C339 Eu275 2.848 1_554 S
C339 O314 1.257 . S
C339 O319 1.249 1_554 S
C339 C332 1.492 . S
H340 C323 0.930 . S
H341 C324 0.930 . S
H342 C325 0.930 . S
H343 C326 0.930 . S
H344 C333 0.930 . S
H345 C335 0.930 . S
H346 C336 0.930 . S
H347 C337 0.930 . S
Eu348 N379 2.657 . S
Eu348 N386 2.609 . S
Eu348 O392 2.558 . S
Eu348 O393 2.612 . S
Eu348 O395 2.339 . S
Eu348 O396 2.563 . S
Eu348 O397 2.419 . S
Eu348 O399 2.380 . S
Eu348 O400 2.432 1_455 S
Eu348 C412 2.848 . S
C349 C352 1.429 . S
C349 C353 1.411 . S
C349 N356 1.375 . S
C350 C352 1.420 . S
C350 C354 1.423 . S
C350 C362 1.392 . S
C351 C353 1.420 . S
C351 C354 1.351 . S
C351 H374 0.931 . S
C352 C349 1.429 . S
C352 C350 1.420 . S
C352 N360 1.362 . S
C353 C349 1.411 . S
C353 C351 1.420 . S
C353 C358 1.395 1_656 S
C354 C350 1.423 . S
C354 C351 1.351 . S
C354 H366 0.930 . S
C355 C357 1.400 . S
C355 C358 1.386 . S
C355 H367 0.930 . S
N356 C349 1.375 . S
N356 C357 1.323 1_656 S
N356 Eu359 2.608 . S
C357 C355 1.400 . S
C357 N356 1.323 1_454 S
C357 H364 0.930 . S
C358 C353 1.395 1_454 S
C358 C355 1.386 . S
C358 H377 0.930 . S
Eu359 N356 2.608 . S
Eu359 N360 2.657 . S
Eu359 O393 2.380 1_655 S
Eu359 O394 2.432 1_655 S
Eu359 O398 2.558 1_556 S
Eu359 O399 2.612 1_655 S
Eu359 O401 2.339 . S
Eu359 O402 2.563 . S
Eu359 O403 2.419 . S
Eu359 C423 2.848 1_556 S
N360 C352 1.362 . S
N360 Eu359 2.657 . S
N360 C361 1.334 . S
C361 N360 1.334 . S
C361 C363 1.413 . S
C361 H368 0.929 . S
C362 C350 1.392 . S
C362 C363 1.367 . S
C362 H370 0.930 . S
C363 C361 1.413 . S
C363 C362 1.367 . S
C363 H365 0.930 . S
H364 C357 0.930 . S
H365 C363 0.930 . S
H366 C354 0.930 . S
H367 C355 0.930 . S
H368 C361 0.929 . S
H369 C383 0.930 . S
H370 C362 0.930 . S
H371 C389 0.930 . S
H372 C380 0.929 . S
H373 C387 0.930 . S
H374 C351 0.931 . S
H375 C381 0.930 . S
H376 C414 0.930 . S
H377 C358 0.930 . S
H378 C413 0.931 . S
N379 Eu348 2.657 . S
N379 C380 1.334 . S
N379 C384 1.362 . S
C380 H372 0.929 . S
C380 N379 1.334 . S
C380 C383 1.413 . S
C381 H375 0.930 . S
C381 C382 1.392 . S
C381 C383 1.367 . S
C382 C381 1.392 . S
C382 C384 1.420 . S
C382 C414 1.423 . S
C383 H369 0.930 . S
C383 C380 1.413 . S
C383 C381 1.367 . S
C384 N379 1.362 . S
C384 C382 1.420 . S
C384 C388 1.429 . S
H385 C390 0.929 1_655 S
N386 Eu348 2.609 . S
N386 C388 1.377 . S
N386 C389 1.321 1_455 S
C387 H373 0.930 . S
C387 C389 1.400 . S
C387 C390 1.386 1_655 S
C388 C384 1.429 . S
C388 N386 1.377 . S
C388 C391 1.411 . S
C389 H371 0.930 . S
C389 N386 1.321 1_655 S
C389 C387 1.400 . S
C390 H385 0.929 1_455 S
C390 C387 1.386 1_455 S
C390 C391 1.395 . S
C391 C388 1.411 . S
C391 C390 1.395 . S
C391 C413 1.420 . S
O392 Eu348 2.558 . S
O392 C412 1.257 . S
O393 Eu348 2.612 . S
O393 Eu359 2.380 1_455 S
O393 C404 1.276 . S
O394 Eu359 2.432 1_455 S
O394 C411 1.264 . S
O395 Eu348 2.339 . S
O395 C411 1.254 . S
O396 Eu348 2.563 . S
O396 C404 1.235 . S
O397 Eu348 2.419 . S
O397 C412 1.249 . S
O398 Eu359 2.558 1_554 S
O398 C423 1.257 . S
O399 Eu348 2.380 . S
O399 Eu359 2.612 1_455 S
O399 C415 1.276 1_455 S
O400 Eu348 2.432 1_655 S
O400 C422 1.264 . S
O401 Eu359 2.339 . S
O401 C422 1.254 . S
O402 Eu359 2.563 . S
O402 C415 1.235 . S
O403 Eu359 2.419 . S
O403 C423 1.249 1_556 S
C404 O393 1.276 . S
C404 O396 1.235 . S
C405 C407 1.393 . S
C405 C409 1.395 . S
C405 C412 1.492 . S
C406 C407 1.392 . S
C406 C408 1.386 . S
C407 C405 1.393 . S
C407 C406 1.392 . S
C407 H424 0.930 . S
C408 C406 1.386 . S
C408 C410 1.395 . S
C408 H425 0.930 . S
C409 C405 1.395 . S
C409 C410 1.379 . S
C409 H426 0.930 . S
C410 C408 1.395 . S
C410 C409 1.379 . S
C410 H427 0.930 . S
C411 O394 1.264 . S
C411 O395 1.254 . S
C412 Eu348 2.848 . S
C412 O392 1.257 . S
C412 O397 1.249 . S
C412 C405 1.492 . S
C413 H378 0.931 . S
C413 C391 1.420 . S
C413 C414 1.351 . S
C414 H376 0.930 . S
C414 C382 1.423 . S
C414 C413 1.351 . S
C415 O399 1.276 1_655 S
C415 O402 1.235 . S
C416 C417 1.393 . S
C416 C420 1.395 . S
C416 C423 1.492 . S
C417 C416 1.393 . S
C417 C418 1.392 . S
C417 H428 0.930 . S
C418 C417 1.392 . S
C418 C419 1.386 . S
C419 C418 1.386 . S
C419 C421 1.395 . S
C419 H429 0.930 . S
C420 C416 1.395 . S
C420 C421 1.379 . S
C420 H430 0.930 . S
C421 C419 1.395 . S
C421 C420 1.379 . S
C421 H431 0.930 . S
C422 O400 1.264 . S
C422 O401 1.254 . S
C423 Eu359 2.848 1_554 S
C423 O398 1.257 . S
C423 O403 1.249 1_554 S
C423 C416 1.492 . S
H424 C407 0.930 . S
H425 C408 0.930 . S
H426 C409 0.930 . S
H427 C410 0.930 . S
H428 C417 0.930 . S
H429 C419 0.930 . S
H430 C420 0.930 . S
H431 C421 0.930 . S
C432 C433 1.369 . S
C432 C434 1.419 . S
C432 H436 0.930 . S
C433 C432 1.369 . S
C433 C442 1.429 . S
C434 C432 1.419 . S
C434 C435 1.363 . S
C434 H437 0.929 . S
C435 C434 1.363 . S
C435 C441 1.428 . S
H436 C432 0.930 . S
H437 C434 0.929 . S
S438 N439 1.613 . S
S438 N440 1.610 . S
N439 S438 1.613 . S
N439 C442 1.350 1_565 S
N440 S438 1.610 . S
N440 C441 1.351 1_565 S
C441 C435 1.428 . S
C441 N440 1.351 1_545 S
C441 C442 1.434 . S
C442 C433 1.429 . S
C442 N439 1.350 1_545 S
C442 C441 1.434 . S
C443 C444 1.369 . S
C443 C445 1.419 . S
C443 H447 0.930 . S
C444 C443 1.369 . S
C444 C453 1.429 . S
C445 C443 1.419 . S
C445 C446 1.363 . S
C445 H448 0.929 . S
C446 C445 1.363 . S
C446 C452 1.428 . S
H447 C443 0.930 . S
H448 C445 0.929 . S
S449 N450 1.613 . S
S449 N451 1.610 . S
N450 S449 1.613 . S
N450 C453 1.350 . S
N451 S449 1.610 . S
N451 C452 1.351 . S
C452 C446 1.428 . S
C452 N451 1.351 . S
C452 C453 1.434 . S
C453 C444 1.429 . S
C453 N450 1.350 . S
C453 C452 1.434 . S
C454 C455 1.369 . S
C454 C456 1.419 . S
C454 H458 0.930 . S
C455 C454 1.369 . S
C455 C464 1.429 . S
C456 C454 1.419 . S
C456 C457 1.363 . S
C456 H459 0.929 . S
C457 C456 1.363 . S
C457 C463 1.428 . S
H458 C454 0.930 . S
H459 C456 0.929 . S
S460 N461 1.613 . S
S460 N462 1.610 . S
N461 S460 1.613 . S
N461 C464 1.350 . S
N462 S460 1.610 . S
N462 C463 1.351 . S
C463 C457 1.428 . S
C463 N462 1.351 . S
C463 C464 1.434 . S
C464 C455 1.429 . S
C464 N461 1.350 . S
C464 C463 1.434 . S
C465 C466 1.369 . S
C465 C467 1.419 . S
C465 H469 0.930 . S
C466 C465 1.369 . S
C466 C475 1.429 . S
C467 C465 1.419 . S
C467 C468 1.363 . S
C467 H470 0.929 . S
C468 C467 1.363 . S
C468 C474 1.428 . S
H469 C465 0.930 . S
H470 C467 0.929 . S
S471 N472 1.613 1_655 S
S471 N473 1.610 . S
N472 S471 1.613 1_455 S
N472 C475 1.350 . S
N473 S471 1.610 . S
N473 C474 1.351 1_655 S
C474 C468 1.428 . S
C474 N473 1.351 1_455 S
C474 C475 1.434 . S
C475 C466 1.429 . S
C475 N472 1.350 . S
C475 C474 1.434 . S
C476 C477 1.369 . S
C476 C478 1.419 . S
C476 H480 0.930 . S
C477 C476 1.369 . S
C477 C486 1.429 . S
C478 C476 1.419 . S
C478 C479 1.362 1_554 S
C478 H481 0.929 1_554 S
C479 C478 1.362 1_556 S
C479 C485 1.422 1_556 S
H480 C476 0.930 . S
H481 C478 0.929 1_556 S
S482 N483 1.613 . S
S482 N484 1.610 . S
N483 S482 1.613 . S
N483 C486 1.350 1_545 S
N484 S482 1.610 . S
N484 C485 1.351 1_545 S
C485 C479 1.422 1_554 S
C485 N484 1.351 1_565 S
C485 C486 1.434 . S
C486 C477 1.429 . S
C486 N483 1.350 1_565 S
C486 C485 1.434 . S
C487 C488 1.369 . S
C487 C489 1.419 . S
C487 H491 0.930 . S
C488 C487 1.369 . S
C488 C497 1.429 . S
C489 C487 1.419 . S
C489 C490 1.363 1_554 S
C489 H492 0.929 . S
C490 C489 1.363 1_556 S
C490 C496 1.428 1_556 S
H491 C487 0.930 . S
H492 C489 0.929 . S
S493 N494 1.613 . S
S493 N495 1.610 . S
N494 S493 1.613 . S
N494 C497 1.350 . S
N495 S493 1.610 . S
N495 C496 1.351 . S
C496 C490 1.428 1_554 S
C496 N495 1.351 . S
C496 C497 1.434 . S
C497 C488 1.429 . S
C497 N494 1.350 . S
C497 C496 1.434 . S
C498 C499 1.369 . S
C498 C500 1.419 . S
C498 H502 0.930 . S
C499 C498 1.369 . S
C499 C508 1.429 . S
C500 C498 1.419 . S
C500 C501 1.363 1_554 S
C500 H503 0.929 1_554 S
C501 C500 1.363 1_556 S
C501 C507 1.428 1_556 S
H502 C498 0.930 . S
H503 C500 0.929 1_556 S
S504 N505 1.613 . S
S504 N506 1.610 . S
N505 S504 1.613 . S
N505 C508 1.350 . S
N506 S504 1.610 . S
N506 C507 1.351 . S
C507 C501 1.428 1_554 S
C507 N506 1.351 . S
C507 C508 1.434 . S
C508 C499 1.429 . S
C508 N505 1.350 . S
C508 C507 1.434 . S
C509 C510 1.369 . S
C509 C511 1.419 . S
C509 H513 0.930 . S
C510 C509 1.369 . S
C510 C519 1.429 . S
C511 C509 1.419 . S
C511 C512 1.363 1_554 S
C511 H514 0.929 1_554 S
C512 C511 1.363 1_556 S
C512 C518 1.428 1_556 S
H513 C509 0.930 . S
H514 C511 0.929 1_556 S
S515 N516 1.613 . S
S515 N517 1.610 . S
N516 S515 1.613 . S
N516 C519 1.350 . S
N517 S515 1.610 . S
N517 C518 1.351 . S
C518 C512 1.428 1_554 S
C518 N517 1.351 . S
C518 C519 1.434 . S
C519 C510 1.429 . S
C519 N516 1.350 . S
C519 C518 1.434 . S
C520 C521 1.369 . S
C520 C522 1.419 . S
C520 H524 0.930 . S
C521 C520 1.369 . S
C521 C530 1.429 . S
C522 C520 1.419 . S
C522 C523 1.344 1_455 S
C522 H525 0.929 . S
C523 C522 1.344 1_655 S
C523 C529 1.426 1_655 S
H524 C520 0.930 . S
H525 C522 0.929 . S
S526 N527 1.613 1_655 S
S526 N528 1.610 . S
N527 S526 1.613 1_455 S
N527 C530 1.350 . S
N528 S526 1.610 . S
N528 C529 1.351 1_655 S
C529 C523 1.426 1_455 S
C529 N528 1.351 1_455 S
C529 C530 1.434 . S
C530 C521 1.429 . S
C530 N527 1.350 . S
C530 C529 1.434 . S
C531 C532 1.369 . S
C531 C533 1.419 . S
C531 H535 0.930 . S
C532 C531 1.369 . S
C532 C541 1.429 . S
C533 C531 1.419 . S
C533 C534 1.330 1_545 S
C533 H536 0.929 . S
C534 C533 1.330 1_565 S
C534 C540 1.438 . S
H535 C531 0.930 . S
H536 C533 0.929 . S
S537 N538 1.613 1_565 S
S537 N539 1.610 . S
N538 S537 1.613 1_545 S
N538 C541 1.350 . S
N539 S537 1.610 . S
N539 C540 1.351 . S
C540 C534 1.438 . S
C540 N539 1.351 . S
C540 C541 1.434 1_565 S
C541 C532 1.429 . S
C541 N538 1.350 . S
C541 C540 1.434 1_545 S
C542 C543 1.369 . S
C542 C544 1.419 . S
C542 H546 0.930 1_554 S
C543 C542 1.369 . S
C543 C552 1.429 . S
C544 C542 1.419 . S
C544 C545 1.363 . S
C544 H547 0.929 . S
C545 C544 1.363 . S
C545 C551 1.428 . S
H546 C542 0.930 1_556 S
H547 C544 0.929 . S
S548 N549 1.613 . S
S548 N550 1.610 . S
N549 S548 1.613 . S
N549 C552 1.350 . S
N550 S548 1.610 . S
N550 C551 1.351 . S
C551 C545 1.428 . S
C551 N550 1.351 . S
C551 C552 1.434 . S
C552 C543 1.429 . S
C552 N549 1.350 . S
C552 C551 1.434 . S
C553 C554 1.369 . S
C553 C555 1.419 . S
C553 H557 0.930 . S
C554 C553 1.369 . S
C554 C563 1.429 . S
C555 C553 1.419 . S
C555 C556 1.363 . S
C555 H558 0.929 . S
C556 C555 1.363 . S
C556 C562 1.428 . S
H557 C553 0.930 . S
H558 C555 0.929 . S
S559 N560 1.613 . S
S559 N561 1.610 . S
N560 S559 1.613 . S
N560 C563 1.350 . S
N561 S559 1.610 . S
N561 C562 1.351 . S
C562 C556 1.428 . S
C562 N561 1.351 . S
C562 C563 1.434 . S
C563 C554 1.429 . S
C563 N560 1.350 . S
C563 C562 1.434 . S
C564 C565 1.369 . S
C564 C566 1.419 . S
C564 H568 0.930 . S
C565 C564 1.369 . S
C565 C574 1.429 . S
C566 C564 1.419 . S
C566 C567 1.363 1_655 S
C566 H569 0.929 . S
C567 C566 1.363 1_455 S
C567 C573 1.428 . S
H568 C564 0.930 . S
H569 C566 0.929 . S
S570 N571 1.613 1_455 S
S570 N572 1.610 . S
N571 S570 1.613 1_655 S
N571 C574 1.350 . S
N572 S570 1.610 . S
N572 C573 1.351 . S
C573 C567 1.428 . S
C573 N572 1.351 . S
C573 C574 1.434 1_455 S
C574 C565 1.429 . S
C574 N571 1.350 . S
C574 C573 1.434 1_655 S
C575 C576 1.369 . S
C575 C577 1.419 . S
C575 H579 0.930 . S
C576 C575 1.369 . S
C576 C585 1.429 1_565 S
C577 C575 1.419 . S
C577 C578 1.363 1_565 S
C577 H580 0.929 . S
C578 C577 1.363 1_545 S
C578 C584 1.428 . S
H579 C575 0.930 . S
H580 C577 0.929 . S
S581 N582 1.613 . S
S581 N583 1.610 . S
N582 S581 1.613 . S
N582 C585 1.350 . S
N583 S581 1.610 . S
N583 C584 1.351 . S
C584 C578 1.428 . S
C584 N583 1.351 . S
C584 C585 1.434 . S
C585 C576 1.429 1_545 S
C585 N582 1.350 . S
C585 C584 1.434 . S
C586 C587 1.369 . S
C586 C588 1.419 . S
C586 H590 0.930 . S
C587 C586 1.369 . S
C587 C596 1.429 . S
C588 C586 1.419 . S
C588 C589 1.363 . S
C588 H591 0.929 . S
C589 C588 1.363 . S
C589 C595 1.428 . S
H590 C586 0.930 . S
H591 C588 0.929 . S
S592 N593 1.613 . S
S592 N594 1.610 . S
N593 S592 1.613 . S
N593 C596 1.350 . S
N594 S592 1.610 . S
N594 C595 1.351 . S
C595 C589 1.428 . S
C595 N594 1.351 . S
C595 C596 1.434 . S
C596 C587 1.429 . S
C596 N593 1.350 . S
C596 C595 1.434 . S
C597 C598 1.369 . S
C597 C599 1.419 . S
C597 H601 0.930 . S
C598 C597 1.369 . S
C598 C607 1.429 . S
C599 C597 1.419 . S
C599 C600 1.363 . S
C599 H602 0.929 . S
C600 C599 1.363 . S
C600 C606 1.428 . S
H601 C597 0.930 . S
H602 C599 0.929 . S
S603 N604 1.613 . S
S603 N605 1.610 . S
N604 S603 1.613 . S
N604 C607 1.350 . S
N605 S603 1.610 . S
N605 C606 1.351 . S
C606 C600 1.428 . S
C606 N605 1.351 . S
C606 C607 1.434 . S
C607 C598 1.429 . S
C607 N604 1.350 . S
C607 C606 1.434 . S
C608 C609 1.369 . S
C608 C610 1.419 . S
C608 H612 0.930 . S
C609 C608 1.369 . S
C609 C618 1.429 . S
C610 C608 1.419 . S
C610 C611 1.363 . S
C610 H613 0.929 . S
C611 C610 1.363 . S
C611 C617 1.428 . S
H612 C608 0.930 . S
H613 C610 0.929 . S
S614 N615 1.613 . S
S614 N616 1.610 . S
N615 S614 1.613 . S
N615 C618 1.350 . S
N616 S614 1.610 . S
N616 C617 1.351 . S
C617 C611 1.428 . S
C617 N616 1.351 . S
C617 C618 1.434 . S
C618 C609 1.429 . S
C618 N615 1.350 . S
C618 C617 1.434 . S
C619 C620 1.369 . S
C619 C621 1.419 . S
C619 H623 0.930 . S
C620 C619 1.369 . S
C620 C629 1.429 . S
C621 C619 1.419 . S
C621 C622 1.363 . S
C621 H624 0.929 . S
C622 C621 1.363 . S
C622 C628 1.428 . S
H623 C619 0.930 . S
H624 C621 0.929 . S
S625 N626 1.613 1_564 S
S625 N627 1.610 1_564 S
N626 S625 1.613 1_546 S
N626 C629 1.350 . S
N627 S625 1.610 1_546 S
N627 C628 1.351 . S
C628 C622 1.428 . S
C628 N627 1.351 . S
C628 C629 1.434 . S
C629 C620 1.429 . S
C629 N626 1.350 . S
C629 C628 1.434 . S
C630 C631 1.369 . S
C630 C632 1.419 . S
C630 H634 0.930 . S
C631 C630 1.369 . S
C631 C640 1.429 . S
C632 C630 1.419 . S
C632 C633 1.363 . S
C632 H635 0.929 . S
C633 C632 1.363 . S
C633 C639 1.428 . S
H634 C630 0.930 . S
H635 C632 0.929 . S
S636 N637 1.613 . S
S636 N638 1.610 . S
N637 S636 1.613 . S
N637 C640 1.350 . S
N638 S636 1.610 . S
N638 C639 1.351 . S
C639 C633 1.428 . S
C639 N638 1.351 . S
C639 C640 1.434 . S
C640 C631 1.429 . S
C640 N637 1.350 . S
C640 C639 1.434 . S
C641 C642 1.369 . S
C641 C643 1.419 . S
C641 H645 0.930 . S
C642 C641 1.369 . S
C642 C651 1.429 . S
C643 C641 1.419 . S
C643 C644 1.363 . S
C643 H646 0.929 . S
C644 C643 1.363 . S
C644 C650 1.428 . S
H645 C641 0.930 . S
H646 C643 0.929 . S
S647 N648 1.613 . S
S647 N649 1.610 . S
N648 S647 1.613 . S
N648 C651 1.350 . S
N649 S647 1.610 . S
N649 C650 1.351 . S
C650 C644 1.428 . S
C650 N649 1.351 . S
C650 C651 1.434 . S
C651 C642 1.429 . S
C651 N648 1.350 . S
C651 C650 1.434 . S
C652 C653 1.369 . S
C652 C654 1.419 . S
C652 H656 0.930 . S
C653 C652 1.369 . S
C653 C662 1.429 . S
C654 C652 1.419 . S
C654 C655 1.363 . S
C654 H657 0.929 . S
C655 C654 1.363 . S
C655 C661 1.428 . S
H656 C652 0.930 . S
H657 C654 0.929 . S
S658 N659 1.613 . S
S658 N660 1.610 . S
N659 S658 1.613 . S
N659 C662 1.350 1_455 S
N660 S658 1.610 . S
N660 C661 1.351 1_455 S
C661 C655 1.428 . S
C661 N660 1.351 1_655 S
C661 C662 1.434 . S
C662 C653 1.429 . S
C662 N659 1.350 1_655 S
C662 C661 1.434 . S
C663 C664 1.369 . S
C663 C665 1.419 . S
C663 H667 0.930 . S
C664 C663 1.369 . S
C664 C673 1.429 . S
C665 C663 1.419 . S
C665 C666 1.363 . S
C665 H668 0.929 . S
C666 C665 1.363 . S
C666 C672 1.428 . S
H667 C663 0.930 . S
H668 C665 0.929 . S
S669 N670 1.613 . S
S669 N671 1.610 . S
N670 S669 1.613 . S
N670 C673 1.350 . S
N671 S669 1.610 . S
N671 C672 1.351 . S
C672 C666 1.428 . S
C672 N671 1.351 . S
C672 C673 1.434 . S
C673 C664 1.429 . S
C673 N670 1.350 . S
C673 C672 1.434 . S
C674 C675 1.369 . S
C674 C676 1.419 . S
C674 H678 0.930 . S
C675 C674 1.369 . S
C675 C684 1.429 . S
C676 C674 1.419 . S
C676 C677 1.363 . S
C676 H679 0.929 . S
C677 C676 1.363 . S
C677 C683 1.428 . S
H678 C674 0.930 . S
H679 C676 0.929 . S
S680 N681 1.613 . S
S680 N682 1.610 . S
N681 S680 1.613 . S
N681 C684 1.350 . S
N682 S680 1.610 . S
N682 C683 1.351 . S
C683 C677 1.428 . S
C683 N682 1.351 . S
C683 C684 1.434 . S
C684 C675 1.429 . S
C684 N681 1.350 . S
C684 C683 1.434 . S
C685 C686 1.369 . S
C685 C687 1.419 . S
C685 H689 0.930 . S
C686 C685 1.369 . S
C686 C695 1.429 . S
C687 C685 1.419 . S
C687 C688 1.363 . S
C687 H690 0.929 . S
C688 C687 1.363 . S
C688 C694 1.428 . S
H689 C685 0.930 . S
H690 C687 0.929 . S
S691 N692 1.613 . S
S691 N693 1.610 . S
N692 S691 1.613 . S
N692 C695 1.350 . S
N693 S691 1.610 . S
N693 C694 1.351 . S
C694 C688 1.428 . S
C694 N693 1.351 . S
C694 C695 1.434 . S
C695 C686 1.429 . S
C695 N692 1.350 . S
C695 C694 1.434 . S
C433 C76 1.937 . S
C435 C170 2.095 . S
C446 C254 2.108 . S
C444 C88 1.941 . S
C457 C320 2.019 . S
C455 C52 2.017 . S
C468 C404 2.007 . S
C466 C64 2.015 . S
C479 C159 2.100 1_565 S
C477 C28 1.952 . S
C488 C40 1.962 . S
C490 C243 2.106 . S
C499 C4 2.036 . S
C501 C331 2.014 . S
C510 C16 2.027 . S
C512 C415 2.007 . S
C523 C166 0.945 . S
C521 C69 0.886 . S
C534 C250 0.912 . S
C532 C81 0.852 . S
C545 C322 0.867 . S
C543 C93 0.845 . S
C554 C57 0.853 . S
C556 C406 0.896 . S
C565 C21 0.868 . S
C567 C154 0.922 . S
C578 C238 0.886 . S
C576 C33 0.836 . S
C589 C334 0.862 . S
C587 C45 0.823 . S
C598 C9 0.857 . S
C600 C418 0.897 . S
C609 C66 2.128 . S
C611 C163 2.219 . S
C620 C78 2.095 . S
C622 C247 2.203 . S
C633 C327 2.292 . S
C631 C90 2.024 . S
C644 C411 2.310 . S
C642 C54 2.050 . S
C653 C18 2.116 . S
C655 C152 2.219 . S
C666 C236 2.200 . S
C664 C30 2.097 . S
C677 C338 2.287 . S
C675 C42 2.010 . S
C686 C6 2.030 . S
C688 C422 2.308 . S
