# Generated by pormake.
# Topology tsx, (6,3)-cn, num edge types: 1
# Building blocks:
#     Node 0, Type 0, BuildingBlock: FUNLAD_clean_sbu_0, # of connection points: 6
#     Node 1, Type 0, BuildingBlock: FUNLAD_clean_sbu_0, # of connection points: 6
#     Node 2, Type 1, BuildingBlock: BETDIP_clean_linker_0, # of connection points: 3
#     Node 3, Type 1, BuildingBlock: BETDIP_clean_linker_0, # of connection points: 3
#     Node 4, Type 1, BuildingBlock: BETDIP_clean_linker_0, # of connection points: 3
#     Node 5, Type 1, BuildingBlock: BETDIP_clean_linker_0, # of connection points: 3
#     Edge 6, Type (0, 1), BuildingBlock: MIFKUJ_clean_linker_0, # of connection points: 2
#     Edge 7, Type (0, 1), BuildingBlock: MIFKUJ_clean_linker_0, # of connection points: 2
#     Edge 8, Type (0, 1), BuildingBlock: MIFKUJ_clean_linker_0, # of connection points: 2
#     Edge 9, Type (0, 1), BuildingBlock: MIFKUJ_clean_linker_0, # of connection points: 2
#     Edge 10, Type (0, 1), BuildingBlock: MIFKUJ_clean_linker_0, # of connection points: 2
#     Edge 11, Type (0, 1), BuildingBlock: MIFKUJ_clean_linker_0, # of connection points: 2
#     Edge 12, Type (0, 1), BuildingBlock: MIFKUJ_clean_linker_0, # of connection points: 2
#     Edge 13, Type (0, 1), BuildingBlock: MIFKUJ_clean_linker_0, # of connection points: 2
#     Edge 14, Type (0, 1), BuildingBlock: MIFKUJ_clean_linker_0, # of connection points: 2
#     Edge 15, Type (0, 1), BuildingBlock: MIFKUJ_clean_linker_0, # of connection points: 2
#     Edge 16, Type (0, 1), BuildingBlock: MIFKUJ_clean_linker_0, # of connection points: 2
#     Edge 17, Type (0, 1), BuildingBlock: MIFKUJ_clean_linker_0, # of connection points: 2
# Relax obj value: 0.109
# Max RMSD: 0.114
# Mean RMSD: 0.110
data_MOF--net-tsx--node1-FUNLAD_clean_sbu_0--node2-BETDIP_clean_linker_0--edge1-MIFKUJ_clean_linker_0
_symmetry_space_group_name_H-M    P1
_symmetry_Int_Tables_number       1
_symmetry_cell_setting            triclinic
loop_
_symmetry_equiv_pos_as_xyz
'x, y, z'
_cell_length_a     25.447884
_cell_length_b     28.110743
_cell_length_c     49.482132
_cell_angle_alpha  91.135065
_cell_angle_beta   102.27732
_cell_angle_gamma 90.086817
loop_
_atom_site_label
_atom_site_type_symbol
_atom_site_fract_x
_atom_site_fract_y
_atom_site_fract_z
_atom_type_partial_charge
C0 C 0.92616 0.94277 0.00801 0.0
N1 N 0.02965 0.01073 0.07501 0.0
C2 C 0.98739 0.00776 0.08772 0.0
C3 C 0.99571 0.01099 0.11646 0.0
C4 C 0.04798 0.01813 0.13235 0.0
C5 C 0.09096 0.02031 0.11866 0.0
C6 C 0.08087 0.01625 0.08985 0.0
Zn7 Zn 0.01449 0.01097 0.03291 0.0
C8 C 0.07922 0.94246 0.00899 0.0
N9 N 0.9787 0.01492 0.94494 0.0
C10 C 0.92851 0.02041 0.92901 0.0
C11 C 0.02271 0.01232 0.93348 0.0
C12 C 0.01737 0.01505 0.90501 0.0
C13 C 0.96628 0.02096 0.88803 0.0
C14 C 0.92137 0.02383 0.90027 0.0
Zn15 Zn 0.9925 0.01318 0.98704 0.0
O16 O 0.95596 0.95701 0.0307 0.0
C17 C 0.92766 0.08157 0.01124 0.0
O18 O 0.93189 0.96091 0.98546 0.0
H19 H 0.06235 0.00877 0.94648 0.0
H20 H 0.94695 0.00359 0.07554 0.0
H21 H 0.89413 0.02259 0.93859 0.0
O22 O 0.95498 0.06379 0.0332 0.0
O23 O 0.93551 0.06722 0.98792 0.0
H24 H 0.1139 0.01853 0.07932 0.0
O25 O 0.05321 0.0659 0.98902 0.0
O26 O 0.07318 0.06424 0.03432 0.0
O27 O 0.04986 0.95842 0.98703 0.0
O28 O 0.07371 0.95874 0.03234 0.0
C29 C 0.08145 0.08083 0.01192 0.0
H30 H 0.96142 0.00801 0.12606 0.0
H31 H 0.13186 0.02626 0.12995 0.0
H32 H 0.05309 0.01356 0.8964 0.0
H33 H 0.88131 0.0283 0.88776 0.0
C34 C 0.43501 0.43666 0.50612 0.0
N35 N 0.53454 0.50253 0.57521 0.0
C36 C 0.49076 0.50841 0.58663 0.0
C37 C 0.49654 0.51034 0.61528 0.0
C38 C 0.54771 0.50534 0.63232 0.0
C39 C 0.59212 0.49834 0.6201 0.0
C40 C 0.58464 0.49744 0.59129 0.0
Zn41 Zn 0.52368 0.50291 0.53316 0.0
C42 C 0.58925 0.43195 0.51133 0.0
N43 N 0.49701 0.5054 0.44512 0.0
C44 C 0.44688 0.50921 0.4289 0.0
C45 C 0.54132 0.50318 0.43388 0.0
C46 C 0.53628 0.50492 0.40532 0.0
C47 C 0.48514 0.50945 0.38801 0.0
C48 C 0.44 0.51142 0.40017 0.0
Zn49 Zn 0.5077 0.50422 0.48719 0.0
O50 O 0.46082 0.45228 0.52949 0.0
C51 C 0.44142 0.57487 0.50906 0.0
O52 O 0.44648 0.45218 0.48412 0.0
H53 H 0.58084 0.50024 0.44712 0.0
H54 H 0.45123 0.51191 0.5735 0.0
H55 H 0.41219 0.51098 0.43827 0.0
O56 O 0.46785 0.55919 0.5318 0.0
O57 O 0.44993 0.55789 0.48642 0.0
H58 H 0.6189 0.49304 0.58178 0.0
O59 O 0.56891 0.55635 0.49071 0.0
O60 O 0.58679 0.55351 0.53601 0.0
O61 O 0.56558 0.45034 0.48878 0.0
O62 O 0.57885 0.44662 0.53404 0.0
C63 C 0.59669 0.5704 0.51394 0.0
H64 H 0.46132 0.51526 0.62404 0.0
H65 H 0.63222 0.49456 0.63269 0.0
H66 H 0.57216 0.50238 0.39691 0.0
H67 H 0.39986 0.51546 0.3877 0.0
H68 H 0.05498 0.98767 0.49795 0.0
H69 H 0.02848 0.07851 0.42734 0.0
H70 H 0.11242 0.94692 0.42519 0.0
H71 H 0.02645 0.13498 0.46063 0.0
C72 C 0.00063 0.11668 0.47199 0.0
C73 C 0.05999 0.99512 0.47724 0.0
C74 C 0.08631 0.96242 0.46304 0.0
C75 C 0.03933 0.03722 0.46457 0.0
C76 C 0.04522 0.04657 0.43753 0.0
C77 C 0.07181 0.01427 0.42323 0.0
C78 C 0.09222 0.97235 0.43618 0.0
N79 N 0.00998 0.0682 0.47874 0.0
H80 H 0.97758 0.98779 0.5251 0.0
H81 H 0.02735 0.07957 0.5968 0.0
H82 H 0.93653 0.95282 0.60242 0.0
H83 H -0.00152 0.13407 0.55717 0.0
C84 C 0.02786 0.11852 0.54658 0.0
C85 C 0.97957 0.99551 0.54684 0.0
C86 C 0.95345 0.96558 0.56227 0.0
C87 C 0.00528 0.03722 0.55906 0.0
C88 C 0.00667 0.04789 0.58709 0.0
C89 C 0.98289 0.01701 0.60287 0.0
C90 C 0.95619 0.97613 0.59035 0.0
N91 N 0.02942 0.06836 0.54301 0.0
H92 H 0.57056 0.51417 0.00395 0.0
H93 H 0.51394 0.57394 0.92401 0.0
H94 H 0.63603 0.46588 0.93521 0.0
H95 H 0.52927 0.64449 0.95817 0.0
C96 C 0.50111 0.6287 0.9691 0.0
C97 C 0.57202 0.51589 0.98228 0.0
C98 C 0.60696 0.48621 0.97144 0.0
C99 C 0.54048 0.54901 0.96542 0.0
C100 C 0.54111 0.55022 0.93711 0.0
C101 C 0.57471 0.51969 0.92567 0.0
C102 C 0.60871 0.48887 0.94335 0.0
N103 N 0.50739 0.58046 0.97699 0.0
H104 H 0.48631 0.47995 0.02027 0.0
H105 H 0.50958 0.5704 0.09306 0.0
H106 H 0.44253 0.43026 0.09417 0.0
H107 H 0.48911 0.6276 0.05579 0.0
C108 C 0.52041 0.61363 0.04598 0.0
C109 C 0.4834 0.48573 0.04163 0.0
C110 C 0.46236 0.45 0.05568 0.0
C111 C 0.50013 0.52925 0.05497 0.0
C112 C 0.4962 0.53693 0.08264 0.0
C113 C 0.47543 0.50133 0.09698 0.0
C114 C 0.45883 0.45795 0.08333 0.0
N115 N 0.52291 0.56407 0.04055 0.0
H116 H 0.08983 0.14569 0.97267 0.0
H117 H 0.16142 0.20461 0.97434 0.0
H118 H 0.24351 0.15175 0.05345 0.0
H119 H 0.17067 0.09483 0.05252 0.0
H120 H 0.24446 0.24146 0.05633 0.0
H121 H 0.28416 0.12895 0.98879 0.0
H122 H 0.26362 0.07994 0.94591 0.0
H123 H 0.22923 0.20594 0.89779 0.0
H124 H 0.24891 0.25568 0.94043 0.0
H125 H 0.48464 0.35941 0.07259 0.0
H126 H 0.42836 0.28937 0.05716 0.0
H127 H 0.3314 0.3706 0.9921 0.0
H128 H 0.38794 0.44085 0.00738 0.0
H129 H 0.33921 0.26738 0.97985 0.0
H130 H 0.29549 0.37807 0.0485 0.0
H131 H 0.31908 0.42624 0.09156 0.0
H132 H 0.36321 0.29972 0.13806 0.0
H133 H 0.3409 0.25091 0.09513 0.0
C134 C 0.12325 0.14676 0.99037 0.0
C135 C 0.12471 0.11594 0.01252 0.0
C136 C 0.16438 0.18012 0.99121 0.0
C137 C 0.20843 0.18218 0.01382 0.0
C138 C 0.20998 0.15095 0.03579 0.0
C139 C 0.16833 0.11845 0.03527 0.0
C140 C 0.25175 0.21825 0.01546 0.0
C141 C 0.26559 0.24637 0.03971 0.0
C142 C 0.27857 0.22583 0.99351 0.0
C143 C 0.26755 0.19601 0.96783 0.0
C144 C 0.27194 0.14619 0.96908 0.0
C145 C 0.26048 0.11828 0.94481 0.0
C146 C 0.24499 0.1398 0.91914 0.0
C147 C 0.24117 0.18931 0.91768 0.0
C148 C 0.25254 0.21738 0.94189 0.0
C149 C 0.45254 0.36176 0.05436 0.0
C150 C 0.43982 0.40552 0.04144 0.0
C151 C 0.4206 0.32178 0.04552 0.0
C152 C 0.37527 0.32526 0.02386 0.0
C153 C 0.36626 0.36736 0.00886 0.0
C154 C 0.39849 0.40742 0.01763 0.0
C155 C 0.33215 0.2891 0.02085 0.0
C156 C 0.3181 0.26169 0.9964 0.0
C157 C 0.30517 0.28171 0.04264 0.0
C158 C 0.31708 0.31092 0.06857 0.0
C159 C 0.31061 0.36058 0.06789 0.0
C160 C 0.32383 0.38801 0.09228 0.0
C161 C 0.34307 0.36613 0.11755 0.0
C162 C 0.34869 0.31671 0.11848 0.0
C163 C 0.33571 0.28913 0.09412 0.0
H164 H 0.35341 0.38744 0.13642 0.0
H165 H 0.23604 0.11814 0.90038 0.0
H166 H 0.08308 0.88321 0.96531 0.0
H167 H 0.15265 0.82552 0.96123 0.0
H168 H 0.23918 0.86421 0.04361 0.0
H169 H 0.16825 0.92047 0.04824 0.0
H170 H 0.25012 0.83725 0.95962 0.0
H171 H 0.31719 0.77374 0.07279 0.0
H172 H 0.27751 0.75945 0.11329 0.0
H173 H 0.12234 0.73766 0.0599 0.0
H174 H 0.16121 0.75116 0.01909 0.0
H175 H 0.4972 0.72445 0.96865 0.0
H176 H 0.42659 0.77583 0.9793 0.0
H177 H 0.33886 0.65206 0.99605 0.0
H178 H 0.41134 0.60087 0.98717 0.0
H179 H 0.32548 0.71821 0.02989 0.0
H180 H 0.30971 0.71138 0.93175 0.0
H181 H 0.34084 0.71782 0.88803 0.0
H182 H 0.37619 0.86611 0.90534 0.0
H183 H 0.34589 0.86039 0.94934 0.0
C184 C 0.11667 0.87904 0.98267 0.0
C185 C 0.12023 0.90622 0.00711 0.0
C186 C 0.15649 0.84614 0.98029 0.0
C187 C 0.20109 0.84019 0.00217 0.0
C188 C 0.20466 0.86733 0.02666 0.0
C189 C 0.16424 0.89965 0.02924 0.0
C190 C 0.24484 0.8072 -0.00129 0.0
C191 C 0.26641 0.81116 0.97499 0.0
C192 C 0.26573 0.77259 0.0185 0.0
C193 C 0.24206 0.76397 0.04291 0.0
C194 C 0.27465 0.76573 0.0697 0.0
C195 C 0.25229 0.7578 0.09271 0.0
C196 C 0.19741 0.74782 0.08918 0.0
C197 C 0.1648 0.74558 0.06262 0.0
C198 C 0.18697 0.75344 0.03954 0.0
C199 C 0.46294 0.70839 0.97481 0.0
C200 C 0.45924 0.65889 0.97683 0.0
C201 C 0.42254 0.73767 0.98078 0.0
C202 C 0.37659 0.71779 0.98773 0.0
C203 C 0.37374 0.66826 0.99059 0.0
C204 C 0.41497 0.63901 0.98537 0.0
C205 C 0.33067 0.74844 0.99085 0.0
C206 C 0.30895 0.74423 0.01452 0.0
C207 C 0.30817 0.78168 0.97051 0.0
C208 C 0.32595 0.78535 0.94394 0.0
C209 C 0.32439 0.74529 0.92629 0.0
C210 C 0.34186 0.74882 0.90146 0.0
C211 C 0.36059 0.79232 0.89394 0.0
C212 C 0.36173 0.83243 0.9112 0.0
C213 C 0.34436 0.82908 0.93608 0.0
H214 H 0.37413 0.79498 0.87471 0.0
H215 H 0.18017 0.74172 0.10702 0.0
H216 H 0.84311 0.91556 0.96554 0.0
H217 H 0.77047 0.85924 0.96752 0.0
H218 H 0.8435 0.83051 0.05253 0.0
H219 H 0.91515 0.88736 0.05098 0.0
H220 H 0.76504 0.76589 0.97777 0.0
H221 H 0.74907 0.8187 0.08939 0.0
H222 H 0.76625 0.88875 0.12092 0.0
H223 H 0.74025 0.98126 0.05136 0.0
H224 H 0.72217 0.91183 0.01944 0.0
H225 H 0.61673 0.59273 0.0325 0.0
H226 H 0.68163 0.64867 0.02118 0.0
H227 H 0.57301 0.76464 0.02692 0.0
H228 H 0.50977 0.70881 0.04036 0.0
H229 H 0.66328 0.79067 0.05195 0.0
H230 H 0.60598 0.71964 0.96028 0.0
H231 H 0.587 0.65456 0.92532 0.0
H232 H 0.74908 0.60479 0.95046 0.0
H233 H 0.76942 0.67022 0.98513 0.0
C234 C 0.84377 0.89702 0.98459 0.0
C235 C 0.88444 0.90631 0.00821 0.0
C236 C 0.80237 0.8648 0.98566 0.0
C237 C 0.80115 0.84137 0.01031 0.0
C238 C 0.84307 0.849 0.03348 0.0
C239 C 0.88405 0.88144 0.03253 0.0
C240 C 0.75518 0.81024 0.01229 0.0
C241 C 0.74247 0.77135 0.99386 0.0
C242 C 0.72522 0.81793 0.03299 0.0
C243 C 0.73467 0.86001 0.05204 0.0
C244 C 0.74669 0.854 0.08083 0.0
C245 C 0.75666 0.8936 0.09877 0.0
C246 C 0.75448 0.93941 0.08815 0.0
C247 C 0.74208 0.94575 0.05956 0.0
C248 C 0.732 0.90628 0.04154 0.0
C249 C 0.60661 0.63014 0.03116 0.0
C250 C 0.55832 0.64666 0.03727 0.0
C251 C 0.6435 0.66212 0.02433 0.0
C252 C 0.63203 0.71101 0.02262 0.0
C253 C 0.58303 0.7272 0.02814 0.0
C254 C 0.5469 0.69538 0.03579 0.0
C255 C 0.67282 0.74569 0.01747 0.0
C256 C 0.68501 0.78529 0.03552 0.0
C257 C 0.70141 0.73915 0.99603 0.0
C258 C 0.68909 0.69962 0.97537 0.0
C259 C 0.6375 0.69471 0.95839 0.0
C260 C 0.62657 0.65784 0.93858 0.0
C261 C 0.66668 0.62535 0.93581 0.0
C262 C 0.71802 0.62993 0.95265 0.0
C263 C 0.72939 0.66709 0.97224 0.0
H264 H 0.65817 0.59677 0.92053 0.0
H265 H 0.76233 0.97001 0.10207 0.0
H266 H 0.86917 0.13236 0.96884 0.0
H267 H 0.80869 0.19853 0.97201 0.0
H268 H 0.835 0.18202 0.06037 0.0
H269 H 0.89655 0.11626 0.05747 0.0
H270 H 0.7166 0.20929 0.98915 0.0
H271 H 0.83568 0.29368 0.08996 0.0
H272 H 0.92774 0.2945 0.11874 0.0
H273 H 0.99235 0.26804 0.04647 0.0
H274 H 0.90076 0.26764 0.01727 0.0
H275 H 0.57386 0.41934 0.00357 0.0
H276 H 0.62449 0.34904 0.02275 0.0
H277 H 0.76434 0.40158 0.99619 0.0
H278 H 0.71421 0.47176 0.97734 0.0
H279 H 0.79228 0.35219 0.04451 0.0
H280 H 0.67543 0.33419 0.95271 0.0
H281 H 0.58696 0.33705 0.92058 0.0
H282 H 0.52441 0.23459 0.96899 0.0
H283 H 0.61245 0.23169 0.00163 0.0
C284 C 0.8619 0.14257 0.98894 0.0
C285 C 0.88816 0.11942 0.01293 0.0
C286 C 0.82706 0.18024 0.9907 0.0
C287 C 0.81773 0.19549 0.01645 0.0
C288 C 0.8422 0.17124 0.04034 0.0
C289 C 0.87734 0.13367 0.03862 0.0
C290 C 0.78492 0.23853 0.01815 0.0
C291 C 0.73286 0.24026 0.00159 0.0
C292 C 0.80612 0.27904 0.03432 0.0
C293 C 0.86141 0.28008 0.05154 0.0
C294 C 0.86959 0.28819 0.08024 0.0
C295 C 0.92166 0.28857 0.09661 0.0
C296 C 0.96585 0.28116 0.08446 0.0
C297 C 0.95808 0.2736 0.05588 0.0
C298 C 0.90611 0.27326 0.03941 0.0
C299 C 0.61594 0.41653 0.00272 0.0
C300 C 0.64009 0.45036 0.98864 0.0
C301 C 0.64472 0.37639 0.01358 0.0
C302 C 0.69786 0.36984 0.01048 0.0
C303 C 0.72338 0.40592 -0.00123 0.0
C304 C 0.69466 0.44579 0.98784 0.0
C305 C 0.72447 0.32306 0.01521 0.0
C306 C 0.77536 0.32064 0.03286 0.0
C307 C 0.70269 0.28216 -0.00036 0.0
C308 C 0.65023 0.28308 0.97972 0.0
C309 C 0.64271 0.31244 0.95655 0.0
C310 C 0.59268 0.31407 0.93825 0.0
C311 C 0.55005 0.28609 0.94277 0.0
C312 C 0.55744 0.2563 0.96555 0.0
C313 C 0.60738 0.25464 0.98394 0.0
H314 H 0.51133 0.28741 0.9286 0.0
H315 H 0.00611 0.28138 0.09717 0.0
H316 H 0.65879 0.61351 0.55988 0.0
H317 H 0.72583 0.67644 0.56141 0.0
H318 H 0.6994 0.67127 0.47234 0.0
H319 H 0.63166 0.60894 0.47058 0.0
H320 H 0.81953 0.68378 0.54489 0.0
H321 H 0.70793 0.78472 0.45003 0.0
H322 H 0.61564 0.79531 0.42275 0.0
H323 H 0.55177 0.76662 0.49446 0.0
H324 H 0.6436 0.75637 0.52216 0.0
H325 H 0.98278 0.88857 0.53392 0.0
H326 H 0.92791 0.81699 0.518 0.0
H327 H 0.79436 0.88056 0.54625 0.0
H328 H 0.84858 0.9514 0.56189 0.0
H329 H 0.76031 0.83467 0.49775 0.0
H330 H 0.87911 0.80547 0.58653 0.0
H331 H 0.96656 0.79632 0.61888 0.0
H332 H 0.00988 0.68596 0.5666 0.0
H333 H 0.9229 0.69494 0.53372 0.0
C334 C 0.66741 0.62558 0.54062 0.0
C335 C 0.63947 0.60657 0.51511 0.0
C336 C 0.70595 0.66137 0.54153 0.0
C337 C 0.71726 0.67884 0.51697 0.0
C338 C 0.69081 0.65875 0.49152 0.0
C339 C 0.65209 0.62312 0.49057 0.0
C340 C 0.75456 0.71979 0.51811 0.0
C341 C 0.80683 0.7166 0.53431 0.0
C342 C 0.73793 0.76267 0.50441 0.0
C343 C 0.68255 0.7692 0.48803 0.0
C344 C 0.67414 0.78076 0.45995 0.0
C345 C 0.62193 0.78668 0.44442 0.0
C346 C 0.57784 0.78144 0.45682 0.0
C347 C 0.58589 0.77044 0.48481 0.0
C348 C 0.63801 0.76452 0.50043 0.0
C349 C 0.94137 0.88732 0.53616 0.0
C350 C 0.91978 0.92506 0.54924 0.0
C351 C 0.91023 0.84651 0.52723 0.0
C352 C 0.85718 0.84337 0.53115 0.0
C353 C 0.83508 0.88221 0.54296 0.0
C354 C 0.86611 0.92254 0.55201 0.0
C355 C 0.82502 0.79897 0.5249 0.0
C356 C 0.77362 0.80143 0.50768 0.0
C357 C 0.84207 0.75579 0.53815 0.0
C358 C 0.89482 0.75125 0.55753 0.0
C359 C 0.90753 0.77961 0.58179 0.0
C360 C 0.95693 0.77436 0.60025 0.0
C361 C 0.99368 0.74051 0.59482 0.0
C362 C 0.98129 0.71207 0.57081 0.0
C363 C 0.932 0.71728 0.55224 0.0
H364 H 0.03173 0.73623 0.60924 0.0
H365 H 0.53747 0.78604 0.44474 0.0
H366 H 0.65537 0.42268 0.47554 0.0
H367 H 0.72029 0.35995 0.47352 0.0
H368 H 0.67585 0.29215 0.54307 0.0
H369 H 0.61296 0.3572 0.54624 0.0
H370 H 0.77662 0.28271 0.54831 0.0
H371 H 0.63187 0.2483 0.47452 0.0
H372 H 0.55921 0.26204 0.43381 0.0
H373 H 0.6756 0.30078 0.38665 0.0
H374 H 0.74899 0.28799 0.4272 0.0
H375 H 0.92743 0.08455 0.50125 0.0
H376 H 0.85285 0.12961 0.51327 0.0
H377 H 0.89929 0.25246 0.47279 0.0
H378 H 0.97452 0.20806 0.46122 0.0
H379 H 0.78523 0.2161 0.45573 0.0
H380 H 0.92566 0.26332 0.53969 0.0
H381 H 0.99181 0.24073 0.58161 0.0
H382 H 0.8706 0.15946 0.60891 0.0
H383 H 0.80372 0.18202 0.56731 0.0
C384 C 0.65954 0.39441 0.49041 0.0
C385 C 0.62897 0.39432 0.51085 0.0
C386 C 0.69632 0.35834 0.48914 0.0
C387 C 0.70172 0.32037 0.50756 0.0
C388 C 0.67202 0.32079 0.52847 0.0
C389 C 0.63615 0.35781 0.53025 0.0
C390 C 0.73902 0.28097 0.50481 0.0
C391 C 0.77768 0.26752 0.52812 0.0
C392 C 0.73992 0.25996 0.47863 0.0
C393 C 0.69598 0.26735 0.45399 0.0
C394 C 0.642 0.25999 0.45552 0.0
C395 C 0.60066 0.26761 0.43246 0.0
C396 C 0.61278 0.28232 0.40767 0.0
C397 C 0.66628 0.28936 0.40587 0.0
C398 C 0.70779 0.28184 0.42888 0.0
C399 C 0.92198 0.12129 0.49513 0.0
C400 C 0.95648 0.14303 0.48024 0.0
C401 C 0.87957 0.1469 0.50209 0.0
C402 C 0.87091 0.19414 0.49387 0.0
C403 C 0.9056 0.21593 0.47926 0.0
C404 C 0.94827 0.19062 0.47261 0.0
C405 C 0.82386 0.22055 0.4988 0.0
C406 C 0.78316 0.23093 0.47589 0.0
C407 C 0.81989 0.23704 0.52538 0.0
C408 C 0.85995 0.22407 0.5504 0.0
C409 C 0.91326 0.24056 0.55464 0.0
C410 C 0.9508 0.22786 0.57835 0.0
C411 C 0.9355 0.19847 0.59782 0.0
C412 C 0.88246 0.18211 0.59378 0.0
C413 C 0.84468 0.19502 0.57023 0.0
H414 H 0.96469 0.18849 0.61607 0.0
H415 H 0.58072 0.28823 0.38984 0.0
H416 H 0.35375 0.41391 0.46183 0.0
H417 H 0.27717 0.36053 0.46125 0.0
H418 H 0.34261 0.32556 0.54626 0.0
H419 H 0.41777 0.3799 0.54728 0.0
H420 H 0.26032 0.26923 0.46843 0.0
H421 H 0.24792 0.31896 0.58209 0.0
H422 H 0.26684 0.38833 0.61404 0.0
H423 H 0.24726 0.48185 0.54509 0.0
H424 H 0.22741 0.41316 0.51273 0.0
H425 H 0.12025 0.09663 0.52887 0.0
H426 H 0.18051 0.15244 0.51289 0.0
H427 H 0.07125 0.26729 0.51974 0.0
H428 H 0.01215 0.21177 0.53648 0.0
H429 H 0.16386 0.29258 0.54485 0.0
H430 H 0.09448 0.22824 0.45622 0.0
H431 H 0.06566 0.16922 0.41843 0.0
H432 H 0.22774 0.11902 0.42865 0.0
H433 H 0.25764 0.17752 0.46668 0.0
C434 C 0.35185 0.39458 0.48033 0.0
C435 C 0.39126 0.40157 0.50474 0.0
C436 C 0.30822 0.364 0.47992 0.0
C437 C 0.30364 0.33978 0.50386 0.0
C438 C 0.34462 0.34478 0.52774 0.0
C439 C 0.38762 0.3758 0.52829 0.0
C440 C 0.25499 0.31116 0.50466 0.0
C441 C 0.23903 0.27423 0.48506 0.0
C442 C 0.22568 0.31918 0.5256 0.0
C443 C 0.2366 0.36081 0.54499 0.0
C444 C 0.24734 0.35434 0.57374 0.0
C445 C 0.25829 0.39355 0.59193 0.0
C446 C 0.2584 0.43945 0.5816 0.0
C447 C 0.24733 0.44627 0.55307 0.0
C448 C 0.23627 0.4072 0.5348 0.0
C449 C 0.10903 0.13374 0.52672 0.0
C450 C 0.06222 0.15035 0.53443 0.0
C451 C 0.14316 0.16553 0.51732 0.0
C452 C 0.13047 0.21416 0.5151 0.0
C453 C 0.08224 0.23008 0.52154 0.0
C454 C 0.04868 0.1985 0.5313 0.0
C455 C 0.17016 0.24913 0.50926 0.0
C456 C 0.18455 0.2875 0.52798 0.0
C457 C 0.19619 0.24352 0.4868 0.0
C458 C 0.17829 0.20719 0.46447 0.0
C459 C 0.12396 0.20434 0.45063 0.0
C460 C 0.10744 0.17106 0.4291 0.0
C461 C 0.14485 0.14042 0.42117 0.0
C462 C 0.19883 0.14284 0.43482 0.0
C463 C 0.21562 0.17613 0.45633 0.0
H464 H 0.13206 0.11503 0.40434 0.0
H465 H 0.26697 0.46974 0.59572 0.0
H466 H 0.359 0.59704 0.46661 0.0
H467 H 0.29273 0.65984 0.46567 0.0
H468 H 0.36568 0.70018 0.54993 0.0
H469 H 0.43106 0.63579 0.55138 0.0
H470 H 0.25914 0.70885 0.54177 0.0
H471 H 0.39493 0.76142 0.49674 0.0
H472 H 0.45686 0.75729 0.46469 0.0
H473 H 0.32277 0.75096 0.3954 0.0
H474 H 0.25989 0.75412 0.42708 0.0
H475 H 0.15346 0.95188 0.51355 0.0
H476 H 0.20791 0.88139 0.52895 0.0
H477 H 0.12623 0.80356 0.45607 0.0
H478 H 0.07149 0.87324 0.44086 0.0
H479 H 0.24247 0.81886 0.46323 0.0
H480 H 0.10711 0.7683 0.51294 0.0
H481 H 0.05177 0.78289 0.54752 0.0
H482 H 0.19451 0.79655 0.61157 0.0
H483 H 0.25078 0.78319 0.57725 0.0
C484 C 0.36085 0.61915 0.48498 0.0
C485 C 0.40065 0.61207 0.50892 0.0
C486 C 0.32294 0.65499 0.48444 0.0
C487 C 0.32499 0.68531 0.50755 0.0
C488 C 0.36351 0.67728 0.53185 0.0
C489 C 0.40098 0.64074 0.53258 0.0
C490 C 0.28879 0.72688 0.50549 0.0
C491 C 0.25586 0.73322 0.52477 0.0
C492 C 0.28504 0.75908 0.48353 0.0
C493 C 0.32268 0.75762 0.46432 0.0
C494 C 0.37862 0.75882 0.47468 0.0
C495 C 0.41391 0.75669 0.45657 0.0
C496 C 0.3938 0.75383 0.42803 0.0
C497 C 0.3383 0.75316 0.41752 0.0
C498 C 0.30279 0.75514 0.43555 0.0
C499 C 0.14592 0.91913 0.50141 0.0
C500 C 0.1091 0.91796 0.47584 0.0
C501 C 0.17703 0.87908 0.51016 0.0
C502 C 0.17123 0.83772 0.49342 0.0
C503 C 0.1313 0.83537 0.46911 0.0
C504 C 0.10023 0.87511 0.46046 0.0
C505 C 0.21148 0.79955 0.49875 0.0
C506 C 0.24573 0.79436 0.48018 0.0
C507 C 0.21717 0.76949 0.52169 0.0
C508 C 0.1832 0.77526 0.54246 0.0
C509 C 0.12674 0.7747 0.53437 0.0
C510 C 0.09518 0.78272 0.55393 0.0
C511 C 0.11963 0.7908 0.58171 0.0
C512 C 0.17565 0.79039 0.59003 0.0
C513 C 0.20739 0.7826 0.57053 0.0
H514 H 0.09524 0.79745 0.5968 0.0
H515 H 0.42123 0.7522 0.41405 0.0
H516 H 0.13329 0.98593 0.17134 0.0
H517 H 0.14698 0.99364 0.22152 0.0
H518 H 0.99636 0.06807 0.21301 0.0
H519 H 0.98417 0.06355 0.16284 0.0
H520 H 0.0666 0.10685 0.2537 0.0
H521 H 0.00831 0.94667 0.22655 0.0
H522 H 0.01184 0.86805 0.204 0.0
H523 H 0.1688 0.84444 0.25434 0.0
H524 H 0.16646 0.92323 0.27695 0.0
H525 H 0.99544 0.04981 0.38107 0.0
H526 H 0.00131 0.05834 0.33277 0.0
H527 H 0.16373 0.00544 0.35154 0.0
H528 H 0.15889 -0.00191 0.40012 0.0
H529 H 0.0958 0.95805 0.30702 0.0
H530 H 0.14574 0.11727 0.33828 0.0
H531 H 0.13453 0.19329 0.36202 0.0
H532 H 0.98541 0.217 0.30449 0.0
H533 H 0.99512 0.14058 0.28072 0.0
C534 C 0.10352 0.00476 0.18007 0.0
C535 C 0.05728 0.02363 0.16295 0.0
C536 C 0.11115 0.00868 0.20882 0.0
C537 C 0.07218 0.03062 0.22104 0.0
C538 C 0.02684 0.05075 0.20405 0.0
C539 C 0.01955 0.04748 0.17532 0.0
C540 C 0.07735 0.03089 0.25145 0.0
C541 C 0.07264 0.07428 0.26532 0.0
C542 C 0.08606 0.98848 0.26672 0.0
C543 C 0.08746 0.94105 0.25321 0.0
C544 C 0.04374 0.92485 0.23266 0.0
C545 C 0.0455 0.88025 0.2199 0.0
C546 C 0.09059 0.85133 0.22767 0.0
C547 C 0.13394 0.86691 0.2483 0.0
C548 C 0.13242 0.91153 0.26111 0.0
C549 C 0.03284 0.04097 0.37509 0.0
C550 C 0.07659 0.02297 0.39439 0.0
C551 C 0.03603 0.0457 0.34747 0.0
C552 C 0.08296 0.03251 0.33871 0.0
C553 C 0.12711 0.01557 0.35798 0.0
C554 C 0.12412 0.01115 0.38563 0.0
C555 C 0.08468 0.03382 0.3091 0.0
C556 C 0.09051 0.99068 0.29541 0.0
C557 C 0.07621 0.0763 0.29402 0.0
C558 C 0.071 0.12296 0.30781 0.0
C559 C 0.11038 0.13852 0.33077 0.0
C560 C 0.10429 0.1817 0.34424 0.0
C561 C 0.05925 0.20992 0.33479 0.0
C562 C 0.02028 0.19509 0.31179 0.0
C563 C 0.02607 0.15184 0.2983 0.0
H564 H 0.05458 0.24332 0.34526 0.0
H565 H 0.09187 0.81681 0.21776 0.0
H566 H 0.01156 0.96397 0.85443 0.0
H567 H 0.01224 0.9753 0.80576 0.0
H568 H 0.91071 0.09836 0.80462 0.0
H569 H 0.90953 0.08684 0.8536 0.0
H570 H 0.88188 0.04481 0.75732 0.0
H571 H 0.04186 0.11506 0.80909 0.0
H572 H 0.12487 0.12101 0.8453 0.0
H573 H 0.19216 0.00338 0.8078 0.0
H574 H 0.10918 0.99619 0.7716 0.0
H575 H 0.94874 0.09675 0.62611 0.0
H576 H 0.9451 0.10988 0.675 0.0
H577 H 0.01856 0.9731 0.69457 0.0
H578 H 0.0213 0.95963 0.64583 0.0
H579 H 0.06102 0.0514 0.73274 0.0
H580 H 0.89191 0.97635 0.68546 0.0
H581 H 0.80879 0.97348 0.64919 0.0
H582 H 0.75984 0.10761 0.67852 0.0
H583 H 0.84317 0.11157 0.71475 0.0
C584 C 0.98916 0.9933 0.84377 0.0
C585 C 0.96102 0.02487 0.85781 0.0
C586 C 0.98967 -0.00018 0.81601 0.0
C587 C 0.96262 0.03836 0.80181 0.0
C588 C 0.93219 0.06863 0.81532 0.0
C589 C 0.93139 0.06193 0.84319 0.0
C590 C 0.96762 0.04708 0.77305 0.0
C591 C 0.92099 0.04732 0.752 0.0
C592 C 0.01871 0.05049 0.76613 0.0
C593 C 0.06908 0.05491 0.78769 0.0
C594 C 0.0742 0.09025 0.80865 0.0
C595 C 0.12127 0.09387 0.82917 0.0
C596 C 0.16372 0.06255 0.82887 0.0
C597 C 0.15923 0.02762 0.80801 0.0
C598 C 0.1122 0.02379 0.78745 0.0
C599 C 0.96468 0.06995 0.64102 0.0
C600 C 0.98514 0.02719 0.63243 0.0
C601 C 0.96249 0.07737 0.66879 0.0
C602 C 0.9815 0.04236 0.68824 0.0
C603 C 0.00388 0.00051 0.67981 0.0
C604 C 0.00521 0.99277 0.65206 0.0
C605 C 0.97548 0.0475 0.71716 0.0
C606 C 0.02197 0.04995 0.73821 0.0
C607 C 0.92434 0.04727 0.72407 0.0
C608 C 0.874 0.04453 0.70257 0.0
C609 C 0.86362 0.00541 0.68403 0.0
C610 C 0.81645 0.00355 0.66351 0.0
C611 C 0.77913 0.04041 0.6615 0.0
C612 C 0.78883 0.07913 0.68007 0.0
C613 C 0.83601 0.08119 0.7006 0.0
H614 H 0.74263 0.03892 0.64559 0.0
H615 H 0.20013 0.0654 0.84479 0.0
H616 H 0.51127 0.57399 0.66313 0.0
H617 H 0.5199 0.57678 0.71346 0.0
H618 H 0.60668 0.44439 0.72013 0.0
H619 H 0.59892 0.44182 0.66977 0.0
H620 H 0.51513 0.45109 0.74808 0.0
H621 H 0.67726 0.53415 0.73997 0.0
H622 H 0.72858 0.59574 0.7217 0.0
H623 H 0.6399 0.70508 0.75391 0.0
H624 H 0.58744 0.64409 0.77203 0.0
H625 H 0.58979 0.44302 0.89274 0.0
H626 H 0.5899 0.44175 0.84377 0.0
H627 H 0.55093 0.59112 0.83957 0.0
H628 H 0.55581 0.59393 0.8892 0.0
H629 H 0.61904 0.57554 0.8096 0.0
H630 H 0.45516 0.49821 0.8165 0.0
H631 H 0.39768 0.44022 0.83356 0.0
H632 H 0.47975 0.3251 0.80222 0.0
H633 H 0.53821 0.38241 0.78528 0.0
C634 C 0.53231 0.54561 0.6754 0.0
C635 C 0.55444 0.50768 0.66272 0.0
C636 C 0.53736 0.54733 0.70405 0.0
C637 C 0.56399 0.51083 0.72036 0.0
C638 C 0.58607 0.47286 0.70778 0.0
C639 C 0.58185 0.47155 0.67915 0.0
C640 C 0.56753 0.51185 0.75054 0.0
C641 C 0.53844 0.4778 0.7617 0.0
C642 C 0.59638 0.54783 0.76789 0.0
C643 C 0.62805 0.58453 0.7571 0.0
C644 C 0.66834 0.57131 0.74293 0.0
C645 C 0.69772 0.60612 0.73265 0.0
C646 C 0.68741 0.65429 0.73657 0.0
C647 C 0.64779 0.66775 0.75085 0.0
C648 C 0.61826 0.63308 0.76115 0.0
C649 C 0.58249 0.47605 0.88173 0.0
C650 C 0.57332 0.51876 0.89534 0.0
C651 C 0.58149 0.47496 0.85344 0.0
C652 C 0.56934 0.5161 0.83777 0.0
C653 C 0.56019 0.5588 0.85117 0.0
C654 C 0.56237 0.56019 0.87962 0.0
C655 C 0.56654 0.51461 0.80746 0.0
C656 C 0.59567 0.54867 0.79616 0.0
C657 C 0.53671 0.47918 0.78984 0.0
C658 C 0.50139 0.44461 0.79985 0.0
C659 C 0.46118 0.46052 0.81341 0.0
C660 C 0.4284 0.42777 0.82304 0.0
C661 C 0.43515 0.37901 0.81904 0.0
C662 C 0.47461 0.36289 0.80533 0.0
C663 C 0.50754 0.39549 0.79569 0.0
H664 H 0.40974 0.35371 0.82652 0.0
H665 H 0.71021 0.68119 0.7286 0.0
H666 H 0.55079 0.5557 0.35972 0.0
H667 H 0.54354 0.55755 0.30988 0.0
H668 H 0.39777 0.47383 0.29715 0.0
H669 H 0.40637 0.46954 0.34719 0.0
H670 H 0.45992 0.44105 0.26522 0.0
H671 H 0.39638 0.59515 0.28439 0.0
H672 H 0.3985 0.67326 0.30818 0.0
H673 H 0.54263 0.7106 0.28132 0.0
H674 H 0.54181 0.63242 0.25769 0.0
H675 H 0.39196 0.47701 0.12084 0.0
H676 H 0.38844 0.48266 0.16974 0.0
H677 H 0.54523 0.54912 0.18818 0.0
H678 H 0.54956 0.54267 0.13927 0.0
H679 H 0.47204 0.59182 0.2163 0.0
H680 H 0.53686 0.43494 0.1995 0.0
H681 H 0.53238 0.35749 0.1748 0.0
H682 H 0.38147 0.32663 0.19651 0.0
H683 H 0.38473 0.40425 0.22106 0.0
C684 C 0.51741 0.53726 0.34638 0.0
C685 C 0.47925 0.51232 0.35753 0.0
C686 C 0.51291 0.53893 0.31782 0.0
C687 C 0.46966 0.51644 0.29972 0.0
C688 C 0.43134 0.49166 0.31072 0.0
C689 C 0.43605 0.48962 0.33934 0.0
C690 C 0.46555 0.51751 0.26936 0.0
C691 C 0.4616 0.47412 0.25449 0.0
C692 C 0.46876 0.56057 0.25537 0.0
C693 C 0.46927 0.60774 0.26946 0.0
C694 C 0.42875 0.61988 0.28372 0.0
C695 C 0.42968 0.66419 0.29715 0.0
C696 C 0.47074 0.69683 0.29631 0.0
C697 C 0.51087 0.68526 0.28198 0.0
C698 C 0.51016 0.64098 0.26853 0.0
C699 C 0.42577 0.49268 0.1353 0.0
C700 C 0.47134 0.50882 0.12624 0.0
C701 C 0.42355 0.49614 0.16319 0.0
C702 C 0.46684 0.51583 0.18255 0.0
C703 C 0.51142 0.53384 0.17349 0.0
C704 C 0.51376 0.53022 0.14556 0.0
C705 C 0.4667 0.51551 0.21243 0.0
C706 C 0.46993 0.55892 0.22713 0.0
C707 C 0.46245 0.47256 0.22625 0.0
C708 C 0.46084 0.42553 0.21193 0.0
C709 C 0.50258 0.41175 0.19887 0.0
C710 C 0.50028 0.36781 0.18493 0.0
C711 C 0.45667 0.33717 0.18408 0.0
C712 C 0.41526 0.35039 0.19721 0.0
C713 C 0.41733 0.39433 0.21116 0.0
H714 H 0.45501 0.30316 0.1733 0.0
H715 H 0.47139 0.73112 0.30673 0.0
loop_
_geom_bond_atom_site_label_1
_geom_bond_atom_site_label_2
_geom_bond_distance
_geom_bond_site_symmetry_2
_ccdc_geom_bond_type
C0 O16 1.251 . S
C0 O18 1.254 1_554 S
N1 C2 1.333 1_455 S
N1 C6 1.307 . S
N1 Zn7 2.020 . S
C2 N1 1.333 1_655 S
C2 C3 1.379 . S
C2 H20 0.952 1_545 S
C3 C2 1.379 . S
C3 C4 1.390 1_655 S
C3 H30 0.949 1_545 S
C4 C3 1.390 1_455 S
C4 C5 1.357 . S
C5 C4 1.357 . S
C5 C6 1.370 . S
C5 H31 0.950 . S
C6 N1 1.307 . S
C6 C5 1.370 . S
C6 H24 0.948 . S
Zn7 N1 2.020 . S
Zn7 O16 2.039 1_445 S
Zn7 O22 2.034 1_455 S
Zn7 O26 2.025 . S
Zn7 O28 2.024 1_545 S
C8 O27 1.246 1_554 S
C8 O28 1.249 . S
N9 C10 1.307 1_455 S
N9 C11 1.333 . S
N9 Zn15 2.020 . S
C10 N9 1.307 1_655 S
C10 C14 1.370 . S
C10 H21 0.948 1_545 S
C11 N9 1.333 . S
C11 C12 1.379 . S
C11 H19 0.952 . S
C12 C11 1.379 . S
C12 C13 1.390 1_455 S
C12 H32 0.949 . S
C13 C12 1.390 1_655 S
C13 C14 1.357 . S
C14 C10 1.370 . S
C14 C13 1.357 . S
C14 H33 0.950 1_545 S
Zn15 N9 2.020 . S
Zn15 O18 2.025 1_445 S
Zn15 O23 2.024 1_455 S
Zn15 O25 2.039 . S
Zn15 O27 2.034 1_545 S
O16 C0 1.251 . S
O16 Zn7 2.039 1_665 S
C17 O22 1.246 . S
C17 O23 1.249 1_554 S
O18 C0 1.254 1_556 S
O18 Zn15 2.025 1_665 S
H19 C11 0.952 . S
H20 C2 0.952 1_565 S
H21 C10 0.948 1_565 S
O22 Zn7 2.034 1_655 S
O22 C17 1.246 . S
O23 Zn15 2.024 1_655 S
O23 C17 1.249 1_556 S
H24 C6 0.948 . S
O25 Zn15 2.039 . S
O25 C29 1.251 1_556 S
O26 Zn7 2.025 . S
O26 C29 1.254 . S
O27 C8 1.246 1_556 S
O27 Zn15 2.034 1_565 S
O28 Zn7 2.024 1_565 S
O28 C8 1.249 . S
C29 O25 1.251 1_554 S
C29 O26 1.254 . S
H30 C3 0.949 1_565 S
H31 C5 0.950 . S
H32 C12 0.949 . S
H33 C14 0.950 1_565 S
C34 O50 1.251 . S
C34 O52 1.254 . S
N35 C36 1.333 . S
N35 C40 1.307 . S
N35 Zn41 2.020 . S
C36 N35 1.333 . S
C36 C37 1.379 . S
C36 H54 0.952 . S
C37 C36 1.379 . S
C37 C38 1.390 . S
C37 H64 0.949 . S
C38 C37 1.390 . S
C38 C39 1.357 . S
C39 C38 1.357 . S
C39 C40 1.370 . S
C39 H65 0.950 . S
C40 N35 1.307 . S
C40 C39 1.370 . S
C40 H58 0.948 . S
Zn41 N35 2.020 . S
Zn41 O50 2.039 . S
Zn41 O56 2.034 . S
Zn41 O60 2.025 . S
Zn41 O62 2.024 . S
C42 O61 1.246 . S
C42 O62 1.249 . S
N43 C44 1.307 . S
N43 C45 1.333 . S
N43 Zn49 2.020 . S
C44 N43 1.307 . S
C44 C48 1.370 . S
C44 H55 0.948 . S
C45 N43 1.333 . S
C45 C46 1.379 . S
C45 H53 0.952 . S
C46 C45 1.379 . S
C46 C47 1.390 . S
C46 H66 0.949 . S
C47 C46 1.390 . S
C47 C48 1.357 . S
C48 C44 1.370 . S
C48 C47 1.357 . S
C48 H67 0.950 . S
Zn49 N43 2.020 . S
Zn49 O52 2.025 . S
Zn49 O57 2.024 . S
Zn49 O59 2.039 . S
Zn49 O61 2.034 . S
O50 C34 1.251 . S
O50 Zn41 2.039 . S
C51 O56 1.246 . S
C51 O57 1.249 . S
O52 C34 1.254 . S
O52 Zn49 2.025 . S
H53 C45 0.952 . S
H54 C36 0.952 . S
H55 C44 0.948 . S
O56 Zn41 2.034 . S
O56 C51 1.246 . S
O57 Zn49 2.024 . S
O57 C51 1.249 . S
H58 C40 0.948 . S
O59 Zn49 2.039 . S
O59 C63 1.251 . S
O60 Zn41 2.025 . S
O60 C63 1.254 . S
O61 C42 1.246 . S
O61 Zn49 2.034 . S
O62 Zn41 2.024 . S
O62 C42 1.249 . S
C63 O59 1.251 . S
C63 O60 1.254 . S
H64 C37 0.949 . S
H65 C39 0.950 . S
H66 C46 0.949 . S
H67 C48 0.950 . S
H68 C73 0.930 . S
H69 C76 0.930 1_655 S
H70 C78 0.930 . S
H71 C72 1.016 . S
C72 H71 1.016 . S
C72 N79 1.286 . S
C73 H68 0.930 . S
C73 C74 1.397 . S
C73 C75 1.361 1_565 S
C74 C73 1.397 . S
C74 C78 1.390 . S
C75 C73 1.361 1_545 S
C75 C76 1.393 . S
C75 N79 1.413 1_455 S
C76 H69 0.930 1_455 S
C76 C75 1.393 . S
C76 C77 1.399 . S
C77 C76 1.399 . S
C77 C78 1.381 1_545 S
C78 H70 0.930 . S
C78 C74 1.390 . S
C78 C77 1.381 1_565 S
N79 C72 1.286 . S
N79 C75 1.413 1_655 S
H80 C85 0.930 1_565 S
H81 C88 0.930 . S
H82 C90 0.930 . S
H83 C84 1.016 . S
C84 H83 1.016 . S
C84 N91 1.286 . S
C85 H80 0.930 1_545 S
C85 C86 1.397 1_545 S
C85 C87 1.361 1_655 S
C86 C85 1.397 1_565 S
C86 C90 1.390 . S
C87 C85 1.361 1_455 S
C87 C88 1.393 . S
C87 N91 1.413 . S
C88 H81 0.930 . S
C88 C87 1.393 . S
C88 C89 1.399 1_455 S
C89 C88 1.399 1_655 S
C89 C90 1.381 1_545 S
C90 H82 0.930 . S
C90 C86 1.390 . S
C90 C89 1.381 1_565 S
N91 C84 1.286 . S
N91 C87 1.413 . S
H92 C97 0.930 1_554 S
H93 C100 0.930 . S
H94 C102 0.930 . S
H95 C96 1.016 . S
C96 H95 1.016 . S
C96 N103 1.286 . S
C97 H92 0.930 1_556 S
C97 C98 1.397 . S
C97 C99 1.361 . S
C98 C97 1.397 . S
C98 C102 1.390 . S
C99 C97 1.361 . S
C99 C100 1.393 . S
C99 N103 1.413 . S
C100 H93 0.930 . S
C100 C99 1.393 . S
C100 C101 1.399 . S
C101 C100 1.399 . S
C101 C102 1.381 . S
C102 H94 0.930 . S
C102 C98 1.390 . S
C102 C101 1.381 . S
N103 C96 1.286 . S
N103 C99 1.413 . S
H104 C109 0.930 . S
H105 C112 0.930 . S
H106 C114 0.930 . S
H107 C108 1.016 . S
C108 H107 1.016 . S
C108 N115 1.286 . S
C109 H104 0.930 . S
C109 C110 1.397 . S
C109 C111 1.361 . S
C110 C109 1.397 . S
C110 C114 1.390 . S
C111 C109 1.361 . S
C111 C112 1.393 . S
C111 N115 1.413 . S
C112 H105 0.930 . S
C112 C111 1.393 . S
C112 C113 1.399 . S
C113 C112 1.399 . S
C113 C114 1.381 . S
C114 H106 0.930 . S
C114 C110 1.390 . S
C114 C113 1.381 . S
N115 C108 1.286 . S
N115 C111 1.413 . S
H116 C134 0.951 . S
H117 C136 0.951 . S
H118 C138 0.950 . S
H119 C139 0.950 . S
H120 C141 0.950 . S
H121 C144 0.950 . S
H122 C145 0.950 . S
H123 C147 0.950 . S
H124 C148 0.950 . S
H125 C149 0.951 . S
H126 C151 0.951 . S
H127 C153 0.950 . S
H128 C154 0.950 . S
H129 C156 0.950 1_556 S
H130 C159 0.950 . S
H131 C160 0.950 . S
H132 C162 0.950 . S
H133 C163 0.950 . S
C134 H116 0.951 . S
C134 C135 1.366 . S
C134 C136 1.388 . S
C135 C134 1.366 . S
C135 C139 1.385 . S
C136 H117 0.951 . S
C136 C134 1.388 . S
C136 C137 1.366 . S
C137 C136 1.366 . S
C137 C138 1.414 . S
C137 C140 1.499 . S
C138 H118 0.950 . S
C138 C137 1.414 . S
C138 C139 1.374 . S
C139 H119 0.950 . S
C139 C135 1.385 . S
C139 C138 1.374 . S
C140 C137 1.499 . S
C140 C141 1.373 . S
C140 C142 1.389 . S
C141 H120 0.950 . S
C141 C140 1.373 . S
C141 C157 1.377 . S
C142 C140 1.389 . S
C142 C143 1.524 1_554 S
C142 C156 1.377 . S
C143 C142 1.524 1_556 S
C143 C144 1.397 . S
C143 C148 1.363 . S
C144 H121 0.950 . S
C144 C143 1.397 . S
C144 C145 1.334 . S
C145 H122 0.950 . S
C145 C144 1.334 . S
C145 C146 1.287 . S
C146 C145 1.287 . S
C146 C147 1.524 . S
C146 H165 0.913 . S
C147 H123 0.950 . S
C147 C146 1.524 . S
C147 C148 1.415 . S
C148 H124 0.950 . S
C148 C143 1.363 . S
C148 C147 1.415 . S
C149 H125 0.951 . S
C149 C150 1.366 . S
C149 C151 1.388 . S
C150 C149 1.366 . S
C150 C154 1.385 . S
C151 H126 0.951 . S
C151 C149 1.388 . S
C151 C152 1.366 . S
C152 C151 1.366 . S
C152 C153 1.414 . S
C152 C155 1.499 . S
C153 H127 0.950 . S
C153 C152 1.414 . S
C153 C154 1.374 . S
C154 H128 0.950 . S
C154 C150 1.385 . S
C154 C153 1.374 . S
C155 C152 1.499 . S
C155 C156 1.373 . S
C155 C157 1.389 . S
C156 H129 0.950 1_554 S
C156 C142 1.377 . S
C156 C155 1.373 . S
C157 C141 1.377 . S
C157 C155 1.389 . S
C157 C158 1.524 . S
C158 C157 1.524 . S
C158 C159 1.397 . S
C158 C163 1.363 . S
C159 H130 0.950 . S
C159 C158 1.397 . S
C159 C160 1.334 . S
C160 H131 0.950 . S
C160 C159 1.334 . S
C160 C161 1.287 . S
C161 C160 1.287 . S
C161 C162 1.524 . S
C161 H164 0.999 . S
C162 H132 0.950 . S
C162 C161 1.524 . S
C162 C163 1.415 . S
C163 H133 0.950 . S
C163 C158 1.363 . S
C163 C162 1.415 . S
H164 C161 0.999 . S
H165 C146 0.913 . S
H166 C184 0.949 1_556 S
H167 C186 0.951 1_556 S
H168 C188 0.950 . S
H169 C189 0.950 . S
H170 C191 0.950 . S
H171 C194 0.950 . S
H172 C195 0.950 . S
H173 C197 0.950 . S
H174 C198 0.950 . S
H175 C199 0.951 . S
H176 C201 0.951 . S
H177 C203 0.950 . S
H178 C204 0.950 . S
H179 C206 0.950 . S
H180 C209 0.950 . S
H181 C210 0.950 . S
H182 C212 0.950 . S
H183 C213 0.950 . S
C184 H166 0.949 1_554 S
C184 C185 1.366 . S
C184 C186 1.388 . S
C185 C184 1.366 . S
C185 C189 1.385 . S
C186 H167 0.951 1_554 S
C186 C184 1.388 . S
C186 C187 1.366 . S
C187 C186 1.366 . S
C187 C188 1.414 . S
C187 C190 1.499 . S
C188 H168 0.950 . S
C188 C187 1.414 . S
C188 C189 1.374 . S
C189 H169 0.950 . S
C189 C185 1.385 . S
C189 C188 1.374 . S
C190 C187 1.499 . S
C190 C191 1.373 1_554 S
C190 C192 1.389 . S
C191 H170 0.950 . S
C191 C190 1.373 1_556 S
C191 C207 1.377 . S
C192 C190 1.389 . S
C192 C193 1.524 . S
C192 C206 1.377 . S
C193 C192 1.524 . S
C193 C194 1.397 . S
C193 C198 1.363 . S
C194 H171 0.950 . S
C194 C193 1.397 . S
C194 C195 1.334 . S
C195 H172 0.950 . S
C195 C194 1.334 . S
C195 C196 1.287 . S
C196 C195 1.287 . S
C196 C197 1.524 . S
C196 H215 0.913 . S
C197 H173 0.950 . S
C197 C196 1.524 . S
C197 C198 1.415 . S
C198 H174 0.950 . S
C198 C193 1.363 . S
C198 C197 1.415 . S
C199 H175 0.951 . S
C199 C200 1.366 1_554 S
C199 C201 1.388 . S
C200 C199 1.366 1_556 S
C200 C204 1.385 . S
C201 H176 0.951 . S
C201 C199 1.388 . S
C201 C202 1.365 1_554 S
C202 C201 1.365 1_556 S
C202 C203 1.416 . S
C202 C205 1.497 1_556 S
C203 H177 0.950 . S
C203 C202 1.416 . S
C203 C204 1.374 . S
C204 H178 0.950 . S
C204 C200 1.385 . S
C204 C203 1.374 . S
C205 C202 1.497 1_554 S
C205 C206 1.373 . S
C205 C207 1.389 1_554 S
C206 H179 0.950 . S
C206 C192 1.377 . S
C206 C205 1.373 . S
C207 C191 1.377 . S
C207 C205 1.389 1_556 S
C207 C208 1.524 . S
C208 C207 1.524 . S
C208 C209 1.397 . S
C208 C213 1.363 . S
C209 H180 0.950 . S
C209 C208 1.397 . S
C209 C210 1.334 . S
C210 H181 0.950 . S
C210 C209 1.334 . S
C210 C211 1.287 . S
C211 C210 1.287 . S
C211 C212 1.524 . S
C211 H214 0.999 . S
C212 H182 0.950 . S
C212 C211 1.524 . S
C212 C213 1.415 . S
C213 H183 0.950 . S
C213 C208 1.363 . S
C213 C212 1.415 . S
H214 C211 0.999 . S
H215 C196 0.913 . S
H216 C234 0.951 . S
H217 C236 0.951 . S
H218 C238 0.950 . S
H219 C239 0.950 . S
H220 C241 0.950 1_556 S
H221 C244 0.950 . S
H222 C245 0.950 . S
H223 C247 0.950 . S
H224 C248 0.950 . S
H225 C249 0.951 . S
H226 C251 0.951 . S
H227 C253 0.950 . S
H228 C254 0.950 . S
H229 C256 0.950 . S
H230 C259 0.950 . S
H231 C260 0.950 . S
H232 C262 0.950 . S
H233 C263 0.950 . S
C234 H216 0.951 . S
C234 C235 1.366 . S
C234 C236 1.388 . S
C235 C234 1.366 . S
C235 C239 1.385 . S
C236 H217 0.951 . S
C236 C234 1.388 . S
C236 C237 1.366 . S
C237 C236 1.366 . S
C237 C238 1.414 . S
C237 C240 1.499 . S
C238 H218 0.950 . S
C238 C237 1.414 . S
C238 C239 1.374 . S
C239 H219 0.950 . S
C239 C235 1.385 . S
C239 C238 1.374 . S
C240 C237 1.499 . S
C240 C241 1.373 . S
C240 C242 1.389 . S
C241 H220 0.950 1_554 S
C241 C240 1.373 . S
C241 C257 1.377 . S
C242 C240 1.389 . S
C242 C243 1.524 . S
C242 C256 1.377 . S
C243 C242 1.524 . S
C243 C244 1.397 . S
C243 C248 1.363 . S
C244 H221 0.950 . S
C244 C243 1.397 . S
C244 C245 1.334 . S
C245 H222 0.950 . S
C245 C244 1.334 . S
C245 C246 1.287 . S
C246 C245 1.287 . S
C246 C247 1.524 . S
C246 H265 0.913 . S
C247 H223 0.950 . S
C247 C246 1.524 . S
C247 C248 1.415 . S
C248 H224 0.950 . S
C248 C243 1.363 . S
C248 C247 1.415 . S
C249 H225 0.951 . S
C249 C250 1.366 . S
C249 C251 1.388 . S
C250 C249 1.366 . S
C250 C254 1.385 . S
C251 H226 0.951 . S
C251 C249 1.388 . S
C251 C252 1.366 . S
C252 C251 1.366 . S
C252 C253 1.414 . S
C252 C255 1.499 . S
C253 H227 0.950 . S
C253 C252 1.414 . S
C253 C254 1.374 . S
C254 H228 0.950 . S
C254 C250 1.385 . S
C254 C253 1.374 . S
C255 C252 1.499 . S
C255 C256 1.373 . S
C255 C257 1.389 . S
C256 H229 0.950 . S
C256 C242 1.377 . S
C256 C255 1.373 . S
C257 C241 1.377 . S
C257 C255 1.389 . S
C257 C258 1.524 1_554 S
C258 C257 1.524 1_556 S
C258 C259 1.397 . S
C258 C263 1.363 . S
C259 H230 0.950 . S
C259 C258 1.397 . S
C259 C260 1.334 . S
C260 H231 0.950 . S
C260 C259 1.334 . S
C260 C261 1.287 . S
C261 C260 1.287 . S
C261 C262 1.524 . S
C261 H264 0.999 . S
C262 H232 0.950 . S
C262 C261 1.524 . S
C262 C263 1.415 . S
C263 H233 0.950 . S
C263 C258 1.363 . S
C263 C262 1.415 . S
H264 C261 0.999 . S
H265 C246 0.913 . S
H266 C284 0.951 . S
H267 C286 0.951 . S
H268 C288 0.950 . S
H269 C289 0.950 . S
H270 C291 0.950 . S
H271 C294 0.950 . S
H272 C295 0.950 . S
H273 C297 0.950 . S
H274 C298 0.950 . S
H275 C299 0.951 . S
H276 C301 0.951 . S
H277 C303 0.950 . S
H278 C304 0.950 . S
H279 C306 0.950 . S
H280 C309 0.950 . S
H281 C310 0.950 . S
H282 C312 0.950 . S
H283 C313 0.950 . S
C284 H266 0.951 . S
C284 C285 1.366 . S
C284 C286 1.388 . S
C285 C284 1.366 . S
C285 C289 1.385 . S
C286 H267 0.951 . S
C286 C284 1.388 . S
C286 C287 1.366 . S
C287 C286 1.366 . S
C287 C288 1.414 . S
C287 C290 1.498 . S
C288 H268 0.950 . S
C288 C287 1.414 . S
C288 C289 1.374 . S
C289 H269 0.950 . S
C289 C285 1.385 . S
C289 C288 1.374 . S
C290 C287 1.498 . S
C290 C291 1.370 1_554 S
C290 C292 1.392 . S
C291 H270 0.950 . S
C291 C290 1.370 1_556 S
C291 C307 1.377 . S
C292 C290 1.392 . S
C292 C293 1.524 . S
C292 C306 1.377 . S
C293 C292 1.524 . S
C293 C294 1.397 . S
C293 C298 1.363 . S
C294 H271 0.950 . S
C294 C293 1.397 . S
C294 C295 1.334 . S
C295 H272 0.950 . S
C295 C294 1.334 . S
C295 C296 1.287 . S
C296 C295 1.287 . S
C296 C297 1.524 . S
C296 H315 0.913 . S
C297 H273 0.950 . S
C297 C296 1.524 . S
C297 C298 1.415 . S
C298 H274 0.950 . S
C298 C293 1.363 . S
C298 C297 1.415 . S
C299 H275 0.951 . S
C299 C300 1.366 . S
C299 C301 1.388 . S
C300 C299 1.366 . S
C300 C304 1.385 . S
C301 H276 0.951 . S
C301 C299 1.388 . S
C301 C302 1.366 . S
C302 C301 1.366 . S
C302 C303 1.414 . S
C302 C305 1.499 . S
C303 H277 0.950 . S
C303 C302 1.414 . S
C303 C304 1.374 . S
C304 H278 0.950 . S
C304 C300 1.385 . S
C304 C303 1.374 . S
C305 C302 1.499 . S
C305 C306 1.373 1_556 S
C305 C307 1.389 . S
C306 H279 0.950 . S
C306 C292 1.377 . S
C306 C305 1.373 1_554 S
C307 C291 1.377 . S
C307 C305 1.389 . S
C307 C308 1.524 . S
C308 C307 1.524 . S
C308 C309 1.397 . S
C308 C313 1.363 . S
C309 H280 0.950 . S
C309 C308 1.397 . S
C309 C310 1.334 . S
C310 H281 0.950 . S
C310 C309 1.334 . S
C310 C311 1.287 . S
C311 C310 1.287 . S
C311 C312 1.524 . S
C311 H314 0.999 . S
C312 H282 0.950 . S
C312 C311 1.524 . S
C312 C313 1.415 . S
C313 H283 0.950 . S
C313 C308 1.363 . S
C313 C312 1.415 . S
H314 C311 0.999 . S
H315 C296 0.913 . S
H316 C334 0.951 . S
H317 C336 0.951 . S
H318 C338 0.950 . S
H319 C339 0.950 . S
H320 C341 0.950 . S
H321 C344 0.950 . S
H322 C345 0.950 . S
H323 C347 0.950 . S
H324 C348 0.950 . S
H325 C349 0.951 . S
H326 C351 0.951 . S
H327 C353 0.950 . S
H328 C354 0.950 . S
H329 C356 0.950 . S
H330 C359 0.950 . S
H331 C360 0.950 . S
H332 C362 0.950 . S
H333 C363 0.950 . S
C334 H316 0.951 . S
C334 C335 1.366 . S
C334 C336 1.388 . S
C335 C334 1.366 . S
C335 C339 1.385 . S
C336 H317 0.951 . S
C336 C334 1.388 . S
C336 C337 1.366 . S
C337 C336 1.366 . S
C337 C338 1.414 . S
C337 C340 1.499 . S
C338 H318 0.950 . S
C338 C337 1.414 . S
C338 C339 1.374 . S
C339 H319 0.950 . S
C339 C335 1.385 . S
C339 C338 1.374 . S
C340 C337 1.499 . S
C340 C341 1.373 . S
C340 C342 1.389 . S
C341 H320 0.950 . S
C341 C340 1.373 . S
C341 C357 1.377 . S
C342 C340 1.389 . S
C342 C343 1.524 . S
C342 C356 1.377 . S
C343 C342 1.524 . S
C343 C344 1.397 . S
C343 C348 1.363 . S
C344 H321 0.950 . S
C344 C343 1.397 . S
C344 C345 1.334 . S
C345 H322 0.950 . S
C345 C344 1.334 . S
C345 C346 1.287 . S
C346 C345 1.287 . S
C346 C347 1.524 . S
C346 H365 0.913 . S
C347 H323 0.950 . S
C347 C346 1.524 . S
C347 C348 1.415 . S
C348 H324 0.950 . S
C348 C343 1.363 . S
C348 C347 1.415 . S
C349 H325 0.951 . S
C349 C350 1.366 . S
C349 C351 1.388 . S
C350 C349 1.366 . S
C350 C354 1.385 . S
C351 H326 0.951 . S
C351 C349 1.388 . S
C351 C352 1.366 . S
C352 C351 1.366 . S
C352 C353 1.414 . S
C352 C355 1.499 . S
C353 H327 0.950 . S
C353 C352 1.414 . S
C353 C354 1.374 . S
C354 H328 0.950 . S
C354 C350 1.385 . S
C354 C353 1.374 . S
C355 C352 1.499 . S
C355 C356 1.373 . S
C355 C357 1.389 . S
C356 H329 0.950 . S
C356 C342 1.377 . S
C356 C355 1.373 . S
C357 C341 1.377 . S
C357 C355 1.389 . S
C357 C358 1.524 . S
C358 C357 1.524 . S
C358 C359 1.397 . S
C358 C363 1.363 . S
C359 H330 0.950 . S
C359 C358 1.397 . S
C359 C360 1.334 . S
C360 H331 0.950 . S
C360 C359 1.334 . S
C360 C361 1.287 . S
C361 C360 1.287 . S
C361 C362 1.524 . S
C361 H364 0.999 1_655 S
C362 H332 0.950 . S
C362 C361 1.524 . S
C362 C363 1.415 . S
C363 H333 0.950 . S
C363 C358 1.363 . S
C363 C362 1.415 . S
H364 C361 0.999 1_455 S
H365 C346 0.913 . S
H366 C384 0.951 . S
H367 C386 0.951 . S
H368 C388 0.950 . S
H369 C389 0.950 . S
H370 C391 0.950 . S
H371 C394 0.950 . S
H372 C395 0.950 . S
H373 C397 0.950 . S
H374 C398 0.950 . S
H375 C399 0.951 . S
H376 C401 0.951 . S
H377 C403 0.950 . S
H378 C404 0.950 . S
H379 C406 0.950 . S
H380 C409 0.950 . S
H381 C410 0.950 . S
H382 C412 0.950 . S
H383 C413 0.950 . S
C384 H366 0.951 . S
C384 C385 1.366 . S
C384 C386 1.388 . S
C385 C384 1.366 . S
C385 C389 1.385 . S
C386 H367 0.951 . S
C386 C384 1.388 . S
C386 C387 1.366 . S
C387 C386 1.366 . S
C387 C388 1.414 . S
C387 C390 1.499 . S
C388 H368 0.950 . S
C388 C387 1.414 . S
C388 C389 1.374 . S
C389 H369 0.950 . S
C389 C385 1.385 . S
C389 C388 1.374 . S
C390 C387 1.499 . S
C390 C391 1.373 . S
C390 C392 1.389 . S
C391 H370 0.950 . S
C391 C390 1.373 . S
C391 C407 1.377 . S
C392 C390 1.389 . S
C392 C393 1.524 . S
C392 C406 1.377 . S
C393 C392 1.524 . S
C393 C394 1.397 . S
C393 C398 1.363 . S
C394 H371 0.950 . S
C394 C393 1.397 . S
C394 C395 1.334 . S
C395 H372 0.950 . S
C395 C394 1.334 . S
C395 C396 1.287 . S
C396 C395 1.287 . S
C396 C397 1.524 . S
C396 H415 0.913 . S
C397 H373 0.950 . S
C397 C396 1.524 . S
C397 C398 1.415 . S
C398 H374 0.950 . S
C398 C393 1.363 . S
C398 C397 1.415 . S
C399 H375 0.951 . S
C399 C400 1.366 . S
C399 C401 1.388 . S
C400 C399 1.366 . S
C400 C404 1.385 . S
C401 H376 0.951 . S
C401 C399 1.388 . S
C401 C402 1.366 . S
C402 C401 1.366 . S
C402 C403 1.414 . S
C402 C405 1.499 . S
C403 H377 0.950 . S
C403 C402 1.414 . S
C403 C404 1.374 . S
C404 H378 0.950 . S
C404 C400 1.385 . S
C404 C403 1.374 . S
C405 C402 1.499 . S
C405 C406 1.373 . S
C405 C407 1.389 . S
C406 H379 0.950 . S
C406 C392 1.377 . S
C406 C405 1.373 . S
C407 C391 1.377 . S
C407 C405 1.389 . S
C407 C408 1.524 . S
C408 C407 1.524 . S
C408 C409 1.397 . S
C408 C413 1.363 . S
C409 H380 0.950 . S
C409 C408 1.397 . S
C409 C410 1.334 . S
C410 H381 0.950 . S
C410 C409 1.334 . S
C410 C411 1.287 . S
C411 C410 1.287 . S
C411 C412 1.524 . S
C411 H414 0.999 . S
C412 H382 0.950 . S
C412 C411 1.524 . S
C412 C413 1.415 . S
C413 H383 0.950 . S
C413 C408 1.363 . S
C413 C412 1.415 . S
H414 C411 0.999 . S
H415 C396 0.913 . S
H416 C434 0.951 . S
H417 C436 0.951 . S
H418 C438 0.950 . S
H419 C439 0.950 . S
H420 C441 0.950 . S
H421 C444 0.950 . S
H422 C445 0.950 . S
H423 C447 0.950 . S
H424 C448 0.950 . S
H425 C449 0.951 . S
H426 C451 0.951 . S
H427 C453 0.950 . S
H428 C454 0.950 . S
H429 C456 0.950 . S
H430 C459 0.950 . S
H431 C460 0.950 . S
H432 C462 0.950 . S
H433 C463 0.950 . S
C434 H416 0.951 . S
C434 C435 1.366 . S
C434 C436 1.388 . S
C435 C434 1.366 . S
C435 C439 1.385 . S
C436 H417 0.951 . S
C436 C434 1.388 . S
C436 C437 1.366 . S
C437 C436 1.366 . S
C437 C438 1.414 . S
C437 C440 1.499 . S
C438 H418 0.950 . S
C438 C437 1.414 . S
C438 C439 1.374 . S
C439 H419 0.950 . S
C439 C435 1.385 . S
C439 C438 1.374 . S
C440 C437 1.499 . S
C440 C441 1.373 . S
C440 C442 1.389 . S
C441 H420 0.950 . S
C441 C440 1.373 . S
C441 C457 1.377 . S
C442 C440 1.389 . S
C442 C443 1.524 . S
C442 C456 1.377 . S
C443 C442 1.524 . S
C443 C444 1.397 . S
C443 C448 1.363 . S
C444 H421 0.950 . S
C444 C443 1.397 . S
C444 C445 1.334 . S
C445 H422 0.950 . S
C445 C444 1.334 . S
C445 C446 1.287 . S
C446 C445 1.287 . S
C446 C447 1.524 . S
C446 H465 0.913 . S
C447 H423 0.950 . S
C447 C446 1.524 . S
C447 C448 1.415 . S
C448 H424 0.950 . S
C448 C443 1.363 . S
C448 C447 1.415 . S
C449 H425 0.951 . S
C449 C450 1.366 . S
C449 C451 1.388 . S
C450 C449 1.366 . S
C450 C454 1.385 . S
C451 H426 0.951 . S
C451 C449 1.388 . S
C451 C452 1.366 . S
C452 C451 1.366 . S
C452 C453 1.414 . S
C452 C455 1.499 . S
C453 H427 0.950 . S
C453 C452 1.414 . S
C453 C454 1.374 . S
C454 H428 0.950 . S
C454 C450 1.385 . S
C454 C453 1.374 . S
C455 C452 1.499 . S
C455 C456 1.373 . S
C455 C457 1.389 . S
C456 H429 0.950 . S
C456 C442 1.377 . S
C456 C455 1.373 . S
C457 C441 1.377 . S
C457 C455 1.389 . S
C457 C458 1.524 . S
C458 C457 1.524 . S
C458 C459 1.397 . S
C458 C463 1.363 . S
C459 H430 0.950 . S
C459 C458 1.397 . S
C459 C460 1.334 . S
C460 H431 0.950 . S
C460 C459 1.334 . S
C460 C461 1.287 . S
C461 C460 1.287 . S
C461 C462 1.524 . S
C461 H464 0.999 . S
C462 H432 0.950 . S
C462 C461 1.524 . S
C462 C463 1.415 . S
C463 H433 0.950 . S
C463 C458 1.363 . S
C463 C462 1.415 . S
H464 C461 0.999 . S
H465 C446 0.913 . S
H466 C484 0.951 . S
H467 C486 0.951 . S
H468 C488 0.950 . S
H469 C489 0.950 . S
H470 C491 0.950 . S
H471 C494 0.950 . S
H472 C495 0.950 . S
H473 C497 0.950 . S
H474 C498 0.950 . S
H475 C499 0.951 . S
H476 C501 0.951 . S
H477 C503 0.950 . S
H478 C504 0.950 . S
H479 C506 0.950 . S
H480 C509 0.950 . S
H481 C510 0.950 . S
H482 C512 0.950 . S
H483 C513 0.950 . S
C484 H466 0.951 . S
C484 C485 1.366 . S
C484 C486 1.388 . S
C485 C484 1.366 . S
C485 C489 1.385 . S
C486 H467 0.951 . S
C486 C484 1.388 . S
C486 C487 1.366 . S
C487 C486 1.366 . S
C487 C488 1.414 . S
C487 C490 1.499 . S
C488 H468 0.950 . S
C488 C487 1.414 . S
C488 C489 1.374 . S
C489 H469 0.950 . S
C489 C485 1.385 . S
C489 C488 1.374 . S
C490 C487 1.499 . S
C490 C491 1.373 . S
C490 C492 1.389 . S
C491 H470 0.950 . S
C491 C490 1.373 . S
C491 C507 1.377 . S
C492 C490 1.389 . S
C492 C493 1.524 . S
C492 C506 1.377 . S
C493 C492 1.524 . S
C493 C494 1.397 . S
C493 C498 1.363 . S
C494 H471 0.950 . S
C494 C493 1.397 . S
C494 C495 1.334 . S
C495 H472 0.950 . S
C495 C494 1.334 . S
C495 C496 1.287 . S
C496 C495 1.287 . S
C496 C497 1.524 . S
C496 H515 0.913 . S
C497 H473 0.950 . S
C497 C496 1.524 . S
C497 C498 1.415 . S
C498 H474 0.950 . S
C498 C493 1.363 . S
C498 C497 1.415 . S
C499 H475 0.951 . S
C499 C500 1.366 . S
C499 C501 1.388 . S
C500 C499 1.366 . S
C500 C504 1.385 . S
C501 H476 0.951 . S
C501 C499 1.388 . S
C501 C502 1.366 . S
C502 C501 1.366 . S
C502 C503 1.414 . S
C502 C505 1.499 . S
C503 H477 0.950 . S
C503 C502 1.414 . S
C503 C504 1.374 . S
C504 H478 0.950 . S
C504 C500 1.385 . S
C504 C503 1.374 . S
C505 C502 1.499 . S
C505 C506 1.373 . S
C505 C507 1.389 . S
C506 H479 0.950 . S
C506 C492 1.377 . S
C506 C505 1.373 . S
C507 C491 1.377 . S
C507 C505 1.389 . S
C507 C508 1.524 . S
C508 C507 1.524 . S
C508 C509 1.397 . S
C508 C513 1.363 . S
C509 H480 0.950 . S
C509 C508 1.397 . S
C509 C510 1.334 . S
C510 H481 0.950 . S
C510 C509 1.334 . S
C510 C511 1.287 . S
C511 C510 1.287 . S
C511 C512 1.524 . S
C511 H514 0.999 . S
C512 H482 0.950 . S
C512 C511 1.524 . S
C512 C513 1.415 . S
C513 H483 0.950 . S
C513 C508 1.363 . S
C513 C512 1.415 . S
H514 C511 0.999 . S
H515 C496 0.913 . S
H516 C534 0.951 . S
H517 C536 0.951 . S
H518 C538 0.950 . S
H519 C539 0.950 . S
H520 C541 0.945 1_655 S
H521 C544 0.950 . S
H522 C545 0.950 . S
H523 C547 0.950 . S
H524 C548 0.950 . S
H525 C549 0.951 . S
H526 C551 0.951 . S
H527 C553 0.950 . S
H528 C554 0.950 . S
H529 C556 0.950 . S
H530 C559 0.950 1_455 S
H531 C560 0.950 . S
H532 C562 0.950 . S
H533 C563 0.950 . S
C534 H516 0.951 . S
C534 C535 1.366 . S
C534 C536 1.388 . S
C535 C534 1.366 . S
C535 C539 1.385 1_455 S
C536 H517 0.951 . S
C536 C534 1.388 . S
C536 C537 1.366 . S
C537 C536 1.366 . S
C537 C538 1.414 1_455 S
C537 C540 1.499 . S
C538 H518 0.950 . S
C538 C537 1.414 1_655 S
C538 C539 1.374 . S
C539 H519 0.950 . S
C539 C535 1.385 1_655 S
C539 C538 1.374 . S
C540 C537 1.499 . S
C540 C541 1.380 . S
C540 C542 1.389 1_545 S
C541 H520 0.945 1_455 S
C541 C540 1.380 . S
C541 C557 1.375 . S
C542 C540 1.389 1_565 S
C542 C543 1.524 . S
C542 C556 1.377 . S
C543 C542 1.524 . S
C543 C544 1.397 . S
C543 C548 1.363 . S
C544 H521 0.950 . S
C544 C543 1.397 . S
C544 C545 1.334 . S
C545 H522 0.950 . S
C545 C544 1.334 . S
C545 C546 1.287 . S
C546 C545 1.287 . S
C546 C547 1.524 . S
C546 H565 0.913 . S
C547 H523 0.950 . S
C547 C546 1.524 . S
C547 C548 1.415 . S
C548 H524 0.950 . S
C548 C543 1.363 . S
C548 C547 1.415 . S
C549 H525 0.951 . S
C549 C550 1.366 1_655 S
C549 C551 1.388 . S
C550 C549 1.366 1_455 S
C550 C554 1.385 . S
C551 H526 0.951 . S
C551 C549 1.388 . S
C551 C552 1.366 1_655 S
C552 C551 1.366 1_455 S
C552 C553 1.414 . S
C552 C555 1.499 . S
C553 H527 0.950 . S
C553 C552 1.414 . S
C553 C554 1.374 . S
C554 H528 0.950 . S
C554 C550 1.385 . S
C554 C553 1.374 . S
C555 C552 1.499 . S
C555 C556 1.373 1_545 S
C555 C557 1.389 . S
C556 H529 0.950 . S
C556 C542 1.377 . S
C556 C555 1.373 1_565 S
C557 C541 1.375 . S
C557 C555 1.389 . S
C557 C558 1.524 1_455 S
C558 C557 1.524 1_655 S
C558 C559 1.397 . S
C558 C563 1.363 . S
C559 H530 0.950 1_655 S
C559 C558 1.397 . S
C559 C560 1.334 . S
C560 H531 0.950 . S
C560 C559 1.334 . S
C560 C561 1.287 . S
C561 C560 1.287 . S
C561 C562 1.524 . S
C561 H564 0.999 . S
C562 H532 0.950 . S
C562 C561 1.524 . S
C562 C563 1.415 . S
C563 H533 0.950 . S
C563 C558 1.363 . S
C563 C562 1.415 . S
H564 C561 0.999 . S
H565 C546 0.913 . S
H566 C584 0.951 . S
H567 C586 0.951 . S
H568 C588 0.950 . S
H569 C589 0.950 . S
H570 C591 0.950 . S
H571 C594 0.950 . S
H572 C595 0.950 . S
H573 C597 0.950 1_565 S
H574 C598 0.950 1_565 S
H575 C599 0.951 . S
H576 C601 0.951 . S
H577 C603 0.950 . S
H578 C604 0.950 . S
H579 C606 0.950 . S
H580 C609 0.950 . S
H581 C610 0.950 . S
H582 C612 0.950 . S
H583 C613 0.950 . S
C584 H566 0.951 . S
C584 C585 1.366 1_465 S
C584 C586 1.388 . S
C585 C584 1.366 1_645 S
C585 C589 1.385 . S
C586 H567 0.951 . S
C586 C584 1.388 . S
C586 C587 1.366 1_465 S
C587 C586 1.366 1_645 S
C587 C588 1.414 . S
C587 C590 1.499 . S
C588 H568 0.950 . S
C588 C587 1.414 . S
C588 C589 1.374 . S
C589 H569 0.950 . S
C589 C585 1.385 . S
C589 C588 1.374 . S
C590 C587 1.499 . S
C590 C591 1.373 . S
C590 C592 1.389 1_655 S
C591 H570 0.950 . S
C591 C590 1.373 . S
C591 C607 1.377 . S
C592 C590 1.389 1_455 S
C592 C593 1.524 . S
C592 C606 1.377 . S
C593 C592 1.524 . S
C593 C594 1.397 . S
C593 C598 1.363 . S
C594 H571 0.950 . S
C594 C593 1.397 . S
C594 C595 1.334 . S
C595 H572 0.950 . S
C595 C594 1.334 . S
C595 C596 1.287 . S
C596 C595 1.287 . S
C596 C597 1.524 . S
C596 H615 0.913 . S
C597 H573 0.950 1_545 S
C597 C596 1.524 . S
C597 C598 1.415 . S
C598 H574 0.950 1_545 S
C598 C593 1.363 . S
C598 C597 1.415 . S
C599 H575 0.951 . S
C599 C600 1.366 . S
C599 C601 1.388 . S
C600 C599 1.366 . S
C600 C604 1.385 1_645 S
C601 H576 0.951 . S
C601 C599 1.388 . S
C601 C602 1.366 . S
C602 C601 1.366 . S
C602 C603 1.414 1_645 S
C602 C605 1.499 . S
C603 H577 0.950 . S
C603 C602 1.414 1_465 S
C603 C604 1.374 . S
C604 H578 0.950 . S
C604 C600 1.385 1_465 S
C604 C603 1.374 . S
C605 C602 1.499 . S
C605 C606 1.373 1_655 S
C605 C607 1.389 . S
C606 H579 0.950 . S
C606 C592 1.377 . S
C606 C605 1.373 1_455 S
C607 C591 1.377 . S
C607 C605 1.389 . S
C607 C608 1.524 . S
C608 C607 1.524 . S
C608 C609 1.397 1_545 S
C608 C613 1.363 . S
C609 H580 0.950 . S
C609 C608 1.397 1_565 S
C609 C610 1.334 . S
C610 H581 0.950 . S
C610 C609 1.334 . S
C610 C611 1.287 . S
C611 C610 1.287 . S
C611 C612 1.524 1_565 S
C611 H614 0.999 . S
C612 H582 0.950 . S
C612 C611 1.524 1_545 S
C612 C613 1.415 . S
C613 H583 0.950 . S
C613 C608 1.363 . S
C613 C612 1.415 . S
H614 C611 0.999 . S
H615 C596 0.913 . S
H616 C634 0.951 . S
H617 C636 0.951 . S
H618 C638 0.950 . S
H619 C639 0.950 . S
H620 C641 0.950 . S
H621 C644 0.950 . S
H622 C645 0.950 . S
H623 C647 0.950 . S
H624 C648 0.950 . S
H625 C649 0.951 . S
H626 C651 0.951 . S
H627 C653 0.950 . S
H628 C654 0.950 . S
H629 C656 0.950 . S
H630 C659 0.950 . S
H631 C660 0.950 . S
H632 C662 0.950 . S
H633 C663 0.950 . S
C634 H616 0.951 . S
C634 C635 1.366 . S
C634 C636 1.388 . S
C635 C634 1.366 . S
C635 C639 1.385 . S
C636 H617 0.951 . S
C636 C634 1.388 . S
C636 C637 1.366 . S
C637 C636 1.366 . S
C637 C638 1.414 . S
C637 C640 1.499 . S
C638 H618 0.950 . S
C638 C637 1.414 . S
C638 C639 1.374 . S
C639 H619 0.950 . S
C639 C635 1.385 . S
C639 C638 1.374 . S
C640 C637 1.499 . S
C640 C641 1.373 . S
C640 C642 1.389 . S
C641 H620 0.950 . S
C641 C640 1.373 . S
C641 C657 1.377 . S
C642 C640 1.389 . S
C642 C643 1.524 . S
C642 C656 1.377 . S
C643 C642 1.524 . S
C643 C644 1.397 . S
C643 C648 1.363 . S
C644 H621 0.950 . S
C644 C643 1.397 . S
C644 C645 1.334 . S
C645 H622 0.950 . S
C645 C644 1.334 . S
C645 C646 1.287 . S
C646 C645 1.287 . S
C646 C647 1.524 . S
C646 H665 0.913 . S
C647 H623 0.950 . S
C647 C646 1.524 . S
C647 C648 1.415 . S
C648 H624 0.950 . S
C648 C643 1.363 . S
C648 C647 1.415 . S
C649 H625 0.951 . S
C649 C650 1.366 . S
C649 C651 1.388 . S
C650 C649 1.366 . S
C650 C654 1.385 . S
C651 H626 0.951 . S
C651 C649 1.388 . S
C651 C652 1.366 . S
C652 C651 1.366 . S
C652 C653 1.414 . S
C652 C655 1.499 . S
C653 H627 0.950 . S
C653 C652 1.414 . S
C653 C654 1.374 . S
C654 H628 0.950 . S
C654 C650 1.385 . S
C654 C653 1.374 . S
C655 C652 1.499 . S
C655 C656 1.373 . S
C655 C657 1.389 . S
C656 H629 0.950 . S
C656 C642 1.377 . S
C656 C655 1.373 . S
C657 C641 1.377 . S
C657 C655 1.389 . S
C657 C658 1.524 . S
C658 C657 1.524 . S
C658 C659 1.397 . S
C658 C663 1.363 . S
C659 H630 0.950 . S
C659 C658 1.397 . S
C659 C660 1.334 . S
C660 H631 0.950 . S
C660 C659 1.334 . S
C660 C661 1.287 . S
C661 C660 1.287 . S
C661 C662 1.524 . S
C661 H664 0.999 . S
C662 H632 0.950 . S
C662 C661 1.524 . S
C662 C663 1.415 . S
C663 H633 0.950 . S
C663 C658 1.363 . S
C663 C662 1.415 . S
H664 C661 0.999 . S
H665 C646 0.913 . S
H666 C684 0.951 . S
H667 C686 0.951 . S
H668 C688 0.950 . S
H669 C689 0.950 . S
H670 C691 0.950 . S
H671 C694 0.950 . S
H672 C695 0.950 . S
H673 C697 0.950 . S
H674 C698 0.950 . S
H675 C699 0.951 . S
H676 C701 0.951 . S
H677 C703 0.950 . S
H678 C704 0.950 . S
H679 C706 0.950 . S
H680 C709 0.950 . S
H681 C710 0.950 . S
H682 C712 0.950 . S
H683 C713 0.950 . S
C684 H666 0.951 . S
C684 C685 1.366 . S
C684 C686 1.388 . S
C685 C684 1.366 . S
C685 C689 1.385 . S
C686 H667 0.951 . S
C686 C684 1.388 . S
C686 C687 1.366 . S
C687 C686 1.366 . S
C687 C688 1.414 . S
C687 C690 1.499 . S
C688 H668 0.950 . S
C688 C687 1.414 . S
C688 C689 1.374 . S
C689 H669 0.950 . S
C689 C685 1.385 . S
C689 C688 1.374 . S
C690 C687 1.499 . S
C690 C691 1.373 . S
C690 C692 1.389 . S
C691 H670 0.950 . S
C691 C690 1.373 . S
C691 C707 1.377 . S
C692 C690 1.389 . S
C692 C693 1.524 . S
C692 C706 1.377 . S
C693 C692 1.524 . S
C693 C694 1.397 . S
C693 C698 1.363 . S
C694 H671 0.950 . S
C694 C693 1.397 . S
C694 C695 1.334 . S
C695 H672 0.950 . S
C695 C694 1.334 . S
C695 C696 1.287 . S
C696 C695 1.287 . S
C696 C697 1.524 . S
C696 H715 0.913 . S
C697 H673 0.950 . S
C697 C696 1.524 . S
C697 C698 1.415 . S
C698 H674 0.950 . S
C698 C693 1.363 . S
C698 C697 1.415 . S
C699 H675 0.951 . S
C699 C700 1.366 . S
C699 C701 1.388 . S
C700 C699 1.366 . S
C700 C704 1.385 . S
C701 H676 0.951 . S
C701 C699 1.388 . S
C701 C702 1.366 . S
C702 C701 1.366 . S
C702 C703 1.414 . S
C702 C705 1.499 . S
C703 H677 0.950 . S
C703 C702 1.414 . S
C703 C704 1.374 . S
C704 H678 0.950 . S
C704 C700 1.385 . S
C704 C703 1.374 . S
C705 C702 1.499 . S
C705 C706 1.373 . S
C705 C707 1.389 . S
C706 H679 0.950 . S
C706 C692 1.377 . S
C706 C705 1.373 . S
C707 C691 1.377 . S
C707 C705 1.389 . S
C707 C708 1.524 . S
C708 C707 1.524 . S
C708 C709 1.397 . S
C708 C713 1.363 . S
C709 H680 0.950 . S
C709 C708 1.397 . S
C709 C710 1.334 . S
C710 H681 0.950 . S
C710 C709 1.334 . S
C710 C711 1.287 . S
C711 C710 1.287 . S
C711 C712 1.524 . S
C711 H714 0.999 . S
C712 H682 0.950 . S
C712 C711 1.524 . S
C712 C713 1.415 . S
C713 H683 0.950 . S
C713 C708 1.363 . S
C713 C712 1.415 . S
H714 C711 0.999 . S
H715 C696 0.913 . S
C150 C110 1.438 . S
C135 C29 1.467 . S
C185 C8 1.347 . S
C200 C96 1.302 . S
C235 C0 1.355 . S
C250 C108 1.310 . S
C285 C17 1.471 . S
C300 C98 1.445 . S
C335 C63 1.467 . S
C350 C86 1.438 . S
C385 C42 1.347 . S
C400 C72 1.301 . S
C450 C84 1.310 . S
C435 C34 1.355 . S
C500 C74 1.445 . S
C485 C51 1.471 . S
C535 C4 1.519 . S
C550 C77 1.515 . S
C585 C13 1.512 . S
C600 C89 1.507 . S
C650 C101 1.515 . S
C635 C38 1.519 . S
C685 C47 1.512 . S
C700 C113 1.507 . S
