# Generated by pormake.
# Topology ssa, (4,4)-cn, num edge types: 1
# Building blocks:
#     Node 0, Type 0, BuildingBlock: ESEHIV_clean_sbu_0, # of connection points: 4
#     Node 1, Type 0, BuildingBlock: ESEHIV_clean_sbu_0, # of connection points: 4
#     Node 2, Type 0, BuildingBlock: ESEHIV_clean_sbu_0, # of connection points: 4
#     Node 3, Type 0, BuildingBlock: ESEHIV_clean_sbu_0, # of connection points: 4
#     Node 4, Type 0, BuildingBlock: ESEHIV_clean_sbu_0, # of connection points: 4
#     Node 5, Type 0, BuildingBlock: ESEHIV_clean_sbu_0, # of connection points: 4
#     Node 6, Type 1, BuildingBlock: MUDLON_clean_linker_0, # of connection points: 4
#     Node 7, Type 1, BuildingBlock: MUDLON_clean_linker_0, # of connection points: 4
#     Node 8, Type 1, BuildingBlock: MUDLON_clean_linker_0, # of connection points: 4
#     Node 9, Type 1, BuildingBlock: MUDLON_clean_linker_0, # of connection points: 4
#     Node 10, Type 1, BuildingBlock: MUDLON_clean_linker_0, # of connection points: 4
#     Node 11, Type 1, BuildingBlock: MUDLON_clean_linker_0, # of connection points: 4
#     Edge 12, Type (0, 1), BuildingBlock: EZIPEK_clean_linker_0, # of connection points: 2
#     Edge 13, Type (0, 1), BuildingBlock: EZIPEK_clean_linker_0, # of connection points: 2
#     Edge 14, Type (0, 1), BuildingBlock: EZIPEK_clean_linker_0, # of connection points: 2
#     Edge 15, Type (0, 1), BuildingBlock: EZIPEK_clean_linker_0, # of connection points: 2
#     Edge 16, Type (0, 1), BuildingBlock: EZIPEK_clean_linker_0, # of connection points: 2
#     Edge 17, Type (0, 1), BuildingBlock: EZIPEK_clean_linker_0, # of connection points: 2
#     Edge 18, Type (0, 1), BuildingBlock: EZIPEK_clean_linker_0, # of connection points: 2
#     Edge 19, Type (0, 1), BuildingBlock: EZIPEK_clean_linker_0, # of connection points: 2
#     Edge 20, Type (0, 1), BuildingBlock: EZIPEK_clean_linker_0, # of connection points: 2
#     Edge 21, Type (0, 1), BuildingBlock: EZIPEK_clean_linker_0, # of connection points: 2
#     Edge 22, Type (0, 1), BuildingBlock: EZIPEK_clean_linker_0, # of connection points: 2
#     Edge 23, Type (0, 1), BuildingBlock: EZIPEK_clean_linker_0, # of connection points: 2
#     Edge 24, Type (0, 1), BuildingBlock: EZIPEK_clean_linker_0, # of connection points: 2
#     Edge 25, Type (0, 1), BuildingBlock: EZIPEK_clean_linker_0, # of connection points: 2
#     Edge 26, Type (0, 1), BuildingBlock: EZIPEK_clean_linker_0, # of connection points: 2
#     Edge 27, Type (0, 1), BuildingBlock: EZIPEK_clean_linker_0, # of connection points: 2
#     Edge 28, Type (0, 1), BuildingBlock: EZIPEK_clean_linker_0, # of connection points: 2
#     Edge 29, Type (0, 1), BuildingBlock: EZIPEK_clean_linker_0, # of connection points: 2
#     Edge 30, Type (0, 1), BuildingBlock: EZIPEK_clean_linker_0, # of connection points: 2
#     Edge 31, Type (0, 1), BuildingBlock: EZIPEK_clean_linker_0, # of connection points: 2
#     Edge 32, Type (0, 1), BuildingBlock: EZIPEK_clean_linker_0, # of connection points: 2
#     Edge 33, Type (0, 1), BuildingBlock: EZIPEK_clean_linker_0, # of connection points: 2
#     Edge 34, Type (0, 1), BuildingBlock: EZIPEK_clean_linker_0, # of connection points: 2
#     Edge 35, Type (0, 1), BuildingBlock: EZIPEK_clean_linker_0, # of connection points: 2
# Relax obj value: 0.008
# Max RMSD: 0.106
# Mean RMSD: 0.067
data_MOF--net-ssa--node1-ESEHIV_clean_sbu_0--node2-MUDLON_clean_linker_0--edge1-EZIPEK_clean_linker_0
_symmetry_space_group_name_H-M    P1
_symmetry_Int_Tables_number       1
_symmetry_cell_setting            triclinic
loop_
_symmetry_equiv_pos_as_xyz
'x, y, z'
_cell_length_a     55.978122
_cell_length_b     59.609964
_cell_length_c     32.429826
_cell_angle_alpha  88.183179
_cell_angle_beta   90.839958
_cell_angle_gamma 122.00564
loop_
_atom_site_label
_atom_site_type_symbol
_atom_site_fract_x
_atom_site_fract_y
_atom_site_fract_z
_atom_type_partial_charge
Cu0 Cu 0.99829 0.47863 0.0477 0.0
N1 N 0.96728 0.444 0.04367 0.0
N2 N 0.93786 0.4065 0.01167 0.0
C3 C 0.96465 0.42694 0.01509 0.0
C4 C 0.92305 0.41023 0.04005 0.0
C5 C 0.94133 0.43338 0.05995 0.0
O6 O 0.99809 0.49966 0.00071 0.0
C7 C 0.05129 0.48101 0.03317 0.0
O8 O 0.04966 0.48503 0.99345 0.0
H9 H 0.98149 0.43063 0.99453 0.0
H10 H 0.93554 0.44283 0.08214 0.0
N11 N 0.99547 0.49591 0.0923 0.0
N12 N 0.01241 0.53083 0.13237 0.0
C13 C 0.01836 0.51535 0.11117 0.0
C14 C 0.97423 0.49923 0.10202 0.0
C15 C 0.98466 0.52078 0.12708 0.0
C16 C 0.99005 0.49157 0.96433 0.0
O17 O 0.98785 0.46971 0.95266 0.0
H18 H 0.03951 0.51992 0.10567 0.0
H19 H 0.95352 0.48876 0.08826 0.0
O20 O 0.03236 0.47824 0.05769 0.0
H21 H 0.90037 0.39838 0.04353 0.0
H22 H 0.97346 0.52986 0.13729 0.0
Cu23 Cu 0.5245 0.01193 0.49091 0.0
N24 N 0.54565 0.01217 0.44687 0.0
N25 N 0.56561 0.99654 0.40759 0.0
C26 C 0.5479 0.99134 0.43908 0.0
C27 C 0.57493 0.02161 0.39475 0.0
C28 C 0.5625 0.0313 0.41922 0.0
O29 O 0.48788 0.97907 0.48727 0.0
C30 C 0.57025 0.03756 0.53991 0.0
O31 O 0.57587 0.05515 0.51012 0.0
H32 H 0.53715 0.97285 0.45673 0.0
H33 H 0.56589 0.05093 0.41752 0.0
N34 N 0.51868 0.04017 0.49049 0.0
N35 N 0.50964 0.0689 0.51783 0.0
C36 C 0.51967 0.05295 0.52461 0.0
C37 C 0.50789 0.04859 0.46084 0.0
C38 C 0.50213 0.06625 0.47773 0.0
C39 C 0.47712 0.97525 0.4513 0.0
O40 O 0.49071 0.99325 0.42203 0.0
H41 H 0.52588 0.04933 0.55462 0.0
H42 H 0.50313 0.04144 0.42977 0.0
O43 O 0.54695 0.01534 0.53921 0.0
H44 H 0.58984 0.03216 0.36992 0.0
H45 H 0.49216 0.07556 0.46234 0.0
Cu46 Cu 0.57418 0.53284 0.01245 0.0
N47 N 0.56676 0.49861 0.02174 0.0
N48 N 0.55263 0.457 0.00748 0.0
C49 C 0.55895 0.48077 0.99206 0.0
C50 C 0.55643 0.45977 0.04857 0.0
C51 C 0.5653 0.48561 0.05732 0.0
O52 O 0.59389 0.54567 0.95994 0.0
C53 C 0.52624 0.5235 0.04986 0.0
O54 O 0.53898 0.51913 0.0805 0.0
H55 H 0.55686 0.48481 0.9599 0.0
H56 H 0.56947 0.49404 0.08756 0.0
N57 N 0.59685 0.55598 0.05336 0.0
N58 N 0.61256 0.58879 0.09748 0.0
C59 C 0.59658 0.57748 0.06404 0.0
C60 C 0.61395 0.55387 0.0807 0.0
C61 C 0.62364 0.57415 0.10821 0.0
C62 C 0.61572 0.54426 0.95666 0.0
O63 O 0.62369 0.53566 0.98854 0.0
H64 H 0.58394 0.58403 0.04869 0.0
H65 H 0.6182 0.53815 0.08154 0.0
O66 O 0.53819 0.53057 0.01462 0.0
H67 H 0.55237 0.44409 0.07058 0.0
H68 H 0.63682 0.57731 0.13487 0.0
Cu69 Cu 0.05498 0.50343 0.53479 0.0
N70 N 0.0827 0.49571 0.52526 0.0
N71 N 0.11021 0.48698 0.48887 0.0
C72 C 0.0898 0.49251 0.48742 0.0
C73 C 0.11619 0.48649 0.5292 0.0
C74 C 0.0992 0.49205 0.5517 0.0
O75 O 0.05628 0.52585 0.48894 0.0
C76 C 0.01795 0.45816 0.57852 0.0
O77 O 0.04068 0.46785 0.60143 0.0
H78 H 0.08011 0.49411 0.45926 0.0
H79 H 0.09886 0.49326 0.58487 0.0
N80 N 0.0614 0.52404 0.58036 0.0
N81 N 0.05145 0.54686 0.62236 0.0
C82 C 0.04136 0.52777 0.59443 0.0
C83 C 0.08523 0.54151 0.60001 0.0
C84 C 0.07909 0.55574 0.62617 0.0
C85 C 0.08079 0.54608 0.48173 0.0
O86 O 0.10229 0.54891 0.50311 0.0
H87 H 0.02001 0.5176 0.58275 0.0
H88 H 0.10579 0.5447 0.59406 0.0
O89 O 0.01891 0.47052 0.54512 0.0
H90 H 0.13166 0.48241 0.54135 0.0
H91 H 0.09382 0.57188 0.64528 0.0
Cu92 Cu 0.54003 0.01572 0.02145 0.0
N93 N 0.53165 0.04213 0.02117 0.0
N94 N 0.5198 0.07001 0.99528 0.0
C95 C 0.52721 0.05254 0.98671 0.0
C96 C 0.51962 0.07078 0.0368 0.0
C97 C 0.52724 0.05366 0.05277 0.0
O98 O 0.55915 0.02066 0.96923 0.0
C99 C 0.48333 0.97749 0.04487 0.0
O100 O 0.48007 0.99771 0.04442 0.0
H101 H 0.52858 0.04687 0.95586 0.0
H102 H 0.52862 0.04929 0.08504 0.0
N103 N 0.56549 0.02074 0.06323 0.0
N104 N 0.59151 0.01137 0.10427 0.0
C105 C 0.56922 1.00163 0.0788 0.0
C106 C 0.586 0.04338 0.07982 0.0
C107 C 0.60226 0.03763 0.10521 0.0
C108 C 0.57591 0.01284 0.96292 0.0
O109 O 0.57713 0.99644 0.98954 0.0
H110 H 0.5566 0.98111 0.0702 0.0
H111 H 0.58967 0.06278 0.07243 0.0
O112 O 0.50637 0.98058 0.03208 0.0
H113 H 0.51396 0.08253 0.05413 0.0
H114 H 0.62093 0.05162 0.12197 0.0
Cu115 Cu 0.52118 0.50542 0.51636 0.0
N116 N 0.53002 0.54026 0.52 0.0
N117 N 0.54472 0.58177 0.50022 0.0
C118 C 0.53728 0.55754 0.48791 0.0
C119 C 0.54209 0.57983 0.54164 0.0
C120 C 0.53285 0.55404 0.55381 0.0
O121 O 0.5 0.49137 0.46559 0.0
C122 C 0.57921 0.5242 0.53022 0.0
O123 O 0.58234 0.54759 0.53053 0.0
H124 H 0.53815 0.55273 0.45628 0.0
H125 H 0.52942 0.54612 0.58512 0.0
N126 N 0.49831 0.48444 0.56019 0.0
N127 N 0.48054 0.45265 0.6091 0.0
C128 C 0.49825 0.46344 0.57676 0.0
C129 C 0.47985 0.48691 0.58276 0.0
C130 C 0.46883 0.46722 0.61323 0.0
C131 C 0.4791 0.49419 0.46029 0.0
O132 O 0.47312 0.50555 0.48897 0.0
H133 H 0.51149 0.45661 0.56604 0.0
H134 H 0.47515 0.50221 0.57789 0.0
O135 O 0.55533 0.50401 0.52121 0.0
H136 H 0.54726 0.59603 0.56155 0.0
H137 H 0.45394 0.46415 0.63701 0.0
H138 H 0.39519 0.50644 0.24651 0.0
N139 N 0.35666 0.4595 0.21175 0.0
H140 H 0.42403 0.51209 0.30758 0.0
H141 H 0.35286 0.42172 0.26239 0.0
H142 H 0.38246 0.42735 0.32288 0.0
H143 H 0.37855 0.43543 0.17485 0.0
H144 H 0.41768 0.45514 0.12545 0.0
H145 H 0.3777 0.50733 0.17087 0.0
H146 H 0.41624 0.5268 0.11985 0.0
H147 H 0.34695 0.49394 0.25305 0.0
H148 H 0.31087 0.43054 0.16684 0.0
H149 H 0.3035 0.49374 0.25326 0.0
H150 H 0.26774 0.43133 0.16475 0.0
H151 H 0.18004 0.50041 0.24761 0.0
H152 H 0.1659 0.50844 0.31421 0.0
H153 H 0.14589 0.43158 0.35968 0.0
H154 H 0.1589 0.42313 0.29241 0.0
H155 H 0.12171 0.42234 0.20202 0.0
H156 H 0.09552 0.43111 0.14923 0.0
H157 H 0.17101 0.50561 0.11743 0.0
H158 H 0.197 0.49716 0.17093 0.0
H159 H 0.22701 0.49953 0.22713 0.0
H160 H 0.27233 0.50299 0.21948 0.0
H161 H 0.22829 0.41828 0.20472 0.0
N162 N 0.17484 0.45417 0.22484 0.0
H163 H 0.18342 0.41555 0.20998 0.0
C164 C 0.37133 0.46354 0.25047 0.0
C165 C 0.39167 0.48906 0.26362 0.0
C166 C 0.40833 0.49229 0.29819 0.0
C167 C 0.40538 0.47014 0.31973 0.0
C168 C 0.38496 0.44468 0.30681 0.0
C169 C 0.36798 0.44146 0.27261 0.0
C170 C 0.37529 0.46985 0.17656 0.0
C171 C 0.38623 0.45515 0.16223 0.0
C172 C 0.40851 0.46639 0.13414 0.0
C173 C 0.42006 0.49252 0.11941 0.0
C174 C 0.40767 0.50664 0.13107 0.0
C175 C 0.38568 0.49553 0.16003 0.0
C176 C 0.33214 0.46176 0.21044 0.0
C177 C 0.32988 0.4801 0.23375 0.0
C178 C 0.30488 0.48018 0.2335 0.0
C179 C 0.28171 0.46231 0.20939 0.0
C180 C 0.28466 0.44491 0.18466 0.0
C181 C 0.30944 0.44455 0.18547 0.0
C182 C 0.17 0.46089 0.2649 0.0
C183 C 0.17272 0.48532 0.27188 0.0
C184 C 0.16476 0.48994 0.3099 0.0
C185 C 0.15462 0.4705 0.34173 0.0
C186 C 0.1535 0.44676 0.33546 0.0
C187 C 0.16091 0.44195 0.29724 0.0
C188 C 0.16129 0.45889 0.19036 0.0
C189 C 0.13269 0.44038 0.18326 0.0
C190 C 0.1178 0.44539 0.15325 0.0
C191 C 0.13131 0.46903 0.12953 0.0
C192 C 0.16022 0.48724 0.13543 0.0
C193 C 0.17507 0.48235 0.16591 0.0
C194 C 0.20186 0.45727 0.2184 0.0
C195 C 0.22724 0.48187 0.22132 0.0
C196 C 0.25317 0.48371 0.21749 0.0
C197 C 0.25423 0.46092 0.21134 0.0
C198 C 0.22859 0.4364 0.2084 0.0
C199 C 0.20282 0.4347 0.21166 0.0
H200 H 0.71283 0.07113 0.78456 0.0
N201 N 0.72437 0.1165 0.74848 0.0
H202 H 0.67693 0.04519 0.83778 0.0
H203 H 0.69733 0.13433 0.79454 0.0
H204 H 0.66157 0.10842 0.84788 0.0
H205 H 0.68923 0.1327 0.72092 0.0
H206 H 0.65158 0.11039 0.6699 0.0
H207 H 0.71548 0.07785 0.6996 0.0
H208 H 0.67735 0.05513 0.64909 0.0
H209 H 0.75927 0.1423 0.81173 0.0
H210 H 0.74112 0.15498 0.68599 0.0
H211 H 0.79851 0.18808 0.81279 0.0
H212 H 0.78005 0.20055 0.68765 0.0
H213 H 0.93483 0.32092 0.80449 0.0
H214 H 0.94364 0.34453 0.86922 0.0
H215 H 0.86312 0.33756 0.85793 0.0
H216 H 0.8545 0.31421 0.79293 0.0
H217 H 0.87244 0.3349 0.72254 0.0
H218 H 0.89791 0.37116 0.67143 0.0
H219 H 0.9602 0.35014 0.65936 0.0
H220 H 0.93427 0.31342 0.70968 0.0
H221 H 0.88665 0.25872 0.77878 0.0
H222 H 0.84507 0.21376 0.77771 0.0
H223 H 0.79682 0.24417 0.72231 0.0
N224 N 0.8905 0.30343 0.75515 0.0
H225 H 0.83852 0.28912 0.72373 0.0
C226 C 0.70789 0.10465 0.78568 0.0
C227 C 0.70223 0.07966 0.79901 0.0
C228 C 0.68163 0.0648 0.82891 0.0
C229 C 0.6665 0.07485 0.84617 0.0
C230 C 0.673 0.10037 0.83456 0.0
C231 C 0.6935 0.11518 0.80441 0.0
C232 C 0.70552 0.10716 0.71354 0.0
C233 C 0.68723 0.11619 0.70475 0.0
C234 C 0.66565 0.10337 0.67594 0.0
C235 C 0.66169 0.08109 0.65601 0.0
C236 C 0.68016 0.07233 0.66417 0.0
C237 C 0.70201 0.08541 0.69253 0.0
C238 C 0.74558 0.14479 0.74975 0.0
C239 C 0.76295 0.15491 0.78476 0.0
C240 C 0.78574 0.18112 0.78522 0.0
C241 C 0.79224 0.19804 0.75042 0.0
C242 C 0.77519 0.18819 0.7153 0.0
C243 C 0.75254 0.16186 0.71462 0.0
C244 C 0.89408 0.31579 0.79409 0.0
C245 C 0.91902 0.32432 0.81622 0.0
C246 C 0.924 0.3377 0.85299 0.0
C247 C 0.904 0.3427 0.86827 0.0
C248 C 0.87873 0.33377 0.84659 0.0
C249 C 0.87384 0.3205 0.80959 0.0
C250 C 0.90137 0.32124 0.71967 0.0
C251 C 0.89091 0.33737 0.70777 0.0
C252 C 0.90553 0.35817 0.67874 0.0
C253 C 0.93106 0.36344 0.66184 0.0
C254 C 0.94055 0.34639 0.67195 0.0
C255 C 0.92577 0.32546 0.70054 0.0
C256 C 0.86589 0.27725 0.75101 0.0
C257 C 0.86713 0.25562 0.76612 0.0
C258 C 0.84331 0.23001 0.76583 0.0
C259 C 0.81758 0.2254 0.75016 0.0
C260 C 0.81638 0.24707 0.73436 0.0
C261 C 0.84026 0.27281 0.73508 0.0
H262 H 0.57634 0.87099 0.29401 0.0
N263 N 0.63139 0.8946 0.26801 0.0
H264 H 0.55784 0.89275 0.33414 0.0
H265 H 0.66102 0.93629 0.31484 0.0
H266 H 0.64246 0.95876 0.35259 0.0
H267 H 0.67312 0.93904 0.23306 0.0
H268 H 0.66743 0.96926 0.18666 0.0
H269 H 0.5849 0.87981 0.22017 0.0
H270 H 0.57905 0.91031 0.17488 0.0
H271 H 0.60853 0.85524 0.32877 0.0
H272 H 0.63834 0.87139 0.2025 0.0
H273 H 0.60149 0.81152 0.32593 0.0
H274 H 0.6319 0.82775 0.20059 0.0
H275 H 0.56753 0.67981 0.28882 0.0
H276 H 0.5489 0.64762 0.3466 0.0
H277 H 0.6252 0.69659 0.41496 0.0
H278 H 0.6444 0.72843 0.35617 0.0
H279 H 0.66064 0.71183 0.26821 0.0
H280 H 0.65871 0.68058 0.21864 0.0
H281 H 0.58112 0.66913 0.16961 0.0
H282 H 0.58325 0.70069 0.21911 0.0
H283 H 0.57463 0.72615 0.29399 0.0
H284 H 0.57295 0.7663 0.28682 0.0
H285 H 0.65846 0.80951 0.24131 0.0
N286 N 0.62138 0.72283 0.2818 0.0
H287 H 0.66043 0.76955 0.24984 0.0
C288 C 0.62027 0.90199 0.3015 0.0
C289 C 0.59102 0.88954 0.30831 0.0
C290 C 0.58042 0.90209 0.33078 0.0
C291 C 0.59875 0.92769 0.34528 0.0
C292 C 0.62793 0.93916 0.34123 0.0
C293 C 0.63853 0.92622 0.32011 0.0
C294 C 0.62944 0.90738 0.23057 0.0
C295 C 0.65283 0.93218 0.21889 0.0
C296 C 0.64955 0.94946 0.1928 0.0
C297 C 0.62274 0.94209 0.17818 0.0
C298 C 0.59985 0.91633 0.18626 0.0
C299 C 0.60321 0.89891 0.21193 0.0
C300 C 0.62253 0.86684 0.26497 0.0
C301 C 0.61248 0.84932 0.29974 0.0
C302 C 0.60861 0.82414 0.29836 0.0
C303 C 0.61582 0.8161 0.26289 0.0
C304 C 0.62589 0.83332 0.22823 0.0
C305 C 0.62928 0.8583 0.22929 0.0
C306 C 0.60766 0.70638 0.31798 0.0
C307 C 0.58019 0.68386 0.3163 0.0
C308 C 0.56947 0.66553 0.34933 0.0
C309 C 0.58581 0.66962 0.38479 0.0
C310 C 0.61235 0.69307 0.38774 0.0
C311 C 0.62324 0.7112 0.3544 0.0
C312 C 0.62219 0.70858 0.24729 0.0
C313 C 0.64367 0.70316 0.24598 0.0
C314 C 0.6425 0.6853 0.21793 0.0
C315 C 0.61972 0.67252 0.19074 0.0
C316 C 0.59887 0.67888 0.19041 0.0
C317 C 0.60012 0.69688 0.21848 0.0
C318 C 0.61796 0.7449 0.27299 0.0
C319 C 0.59301 0.74413 0.28226 0.0
C320 C 0.59201 0.76711 0.27816 0.0
C321 C 0.61559 0.79103 0.26366 0.0
C322 C 0.63989 0.79134 0.25231 0.0
C323 C 0.64107 0.76857 0.2572 0.0
H324 H 0.95695 0.59777 0.8245 0.0
N325 N 0.91621 0.57231 0.77 0.0
H326 H 0.97333 0.57756 0.87546 0.0
H327 H 0.88492 0.52074 0.79838 0.0
H328 H 0.90131 0.50055 0.84939 0.0
H329 H 0.90853 0.52881 0.7311 0.0
H330 H 0.9442 0.52759 0.69096 0.0
H331 H 0.96171 0.6138 0.73583 0.0
H332 H 0.99783 0.61246 0.69552 0.0
H333 H 0.9012 0.60584 0.78976 0.0
H334 H 0.86968 0.53115 0.7319 0.0
H335 H 0.85663 0.60287 0.77572 0.0
H336 H 0.82544 0.52838 0.71651 0.0
H337 H 0.73167 0.60391 0.74319 0.0
H338 H 0.70255 0.6022 0.80088 0.0
H339 H 0.67512 0.52049 0.8256 0.0
H340 H 0.70383 0.52212 0.76784 0.0
H341 H 0.6992 0.51251 0.69455 0.0
H342 H 0.66145 0.49691 0.64305 0.0
H343 H 0.69264 0.57763 0.6039 0.0
H344 H 0.73049 0.59315 0.65512 0.0
H345 H 0.78719 0.60531 0.70744 0.0
H346 H 0.831 0.60639 0.71942 0.0
H347 H 0.78297 0.52215 0.74631 0.0
N348 N 0.73491 0.56423 0.71487 0.0
H349 H 0.73938 0.52125 0.7328 0.0
C350 C 0.91976 0.56088 0.80764 0.0
C351 C 0.94408 0.57667 0.831 0.0
C352 C 0.95358 0.56515 0.85963 0.0
C353 C 0.93868 0.53761 0.86563 0.0
C354 C 0.91308 0.52186 0.84494 0.0
C355 C 0.90363 0.53342 0.81609 0.0
C356 C 0.93218 0.57157 0.73614 0.0
C357 C 0.92716 0.54736 0.7219 0.0
C358 C 0.94775 0.54658 0.69938 0.0
C359 C 0.97362 0.5699 0.69064 0.0
C360 C 0.9779 0.59428 0.70195 0.0
C361 C 0.95724 0.59506 0.7245 0.0
C362 C 0.8891 0.56899 0.76172 0.0
C363 C 0.88468 0.58884 0.77388 0.0
C364 C 0.85923 0.58718 0.76548 0.0
C365 C 0.83742 0.56553 0.74444 0.0
C366 C 0.84164 0.54528 0.73293 0.0
C367 C 0.86718 0.54695 0.74152 0.0
C368 C 0.72026 0.56334 0.75159 0.0
C369 C 0.71971 0.58579 0.76152 0.0
C370 C 0.70305 0.58477 0.79412 0.0
C371 C 0.68677 0.56123 0.81742 0.0
C372 C 0.68764 0.53884 0.80799 0.0
C373 C 0.70419 0.53984 0.77522 0.0
C374 C 0.71771 0.55409 0.6786 0.0
C375 C 0.69865 0.5268 0.67387 0.0
C376 C 0.67705 0.51788 0.64453 0.0
C377 C 0.67415 0.53616 0.61999 0.0
C378 C 0.69454 0.56323 0.62251 0.0
C379 C 0.71615 0.57208 0.65156 0.0
C380 C 0.76005 0.56335 0.71933 0.0
C381 C 0.78621 0.58707 0.7155 0.0
C382 C 0.8112 0.58764 0.7228 0.0
C383 C 0.81064 0.56441 0.73443 0.0
C384 C 0.7843 0.54041 0.73721 0.0
C385 C 0.75924 0.53987 0.7297 0.0
H386 H 0.10417 0.67568 0.3148 0.0
N387 N 0.15112 0.69205 0.27273 0.0
H388 H 0.08364 0.64035 0.36833 0.0
H389 H 0.18002 0.67361 0.31601 0.0
H390 H 0.15969 0.63868 0.37001 0.0
H391 H 0.11121 0.68975 0.22461 0.0
H392 H 0.07744 0.65156 0.18409 0.0
H393 H 0.16018 0.65396 0.24611 0.0
H394 H 0.12679 0.61623 0.20554 0.0
H395 H 0.19952 0.69532 0.24551 0.0
H396 H 0.16644 0.74082 0.29051 0.0
H397 H 0.24601 0.73561 0.23763 0.0
H398 H 0.21301 0.78114 0.28378 0.0
H399 H 0.39261 0.87088 0.26911 0.0
H400 H 0.42052 0.89444 0.32898 0.0
H401 H 0.34841 0.89122 0.3815 0.0
H402 H 0.32083 0.86931 0.31967 0.0
H403 H 0.35259 0.90575 0.21257 0.0
H404 H 0.38642 0.92884 0.1559 0.0
H405 H 0.39804 0.86314 0.1482 0.0
H406 H 0.36388 0.83994 0.20495 0.0
H407 H 0.33155 0.81235 0.27171 0.0
H408 H 0.28589 0.77013 0.27626 0.0
H409 H 0.24449 0.80992 0.23052 0.0
N410 N 0.33973 0.86053 0.25042 0.0
H411 H 0.28995 0.85179 0.22738 0.0
C412 C 0.14364 0.67745 0.31156 0.0
C413 C 0.1168 0.66837 0.32779 0.0
C414 C 0.10499 0.64808 0.35787 0.0
C415 C 0.12013 0.63688 0.37267 0.0
C416 C 0.14777 0.64717 0.35878 0.0
C417 C 0.15946 0.66729 0.32828 0.0
C418 C 0.13839 0.67501 0.23816 0.0
C419 C 0.11549 0.67441 0.21883 0.0
C420 C 0.09612 0.65255 0.19617 0.0
C421 C 0.0996 0.63109 0.19237 0.0
C422 C 0.12388 0.63271 0.2082 0.0
C423 C 0.14318 0.65451 0.23093 0.0
C424 C 0.17923 0.71506 0.26824 0.0
C425 C 0.20213 0.71388 0.25379 0.0
C426 C 0.22889 0.73702 0.24953 0.0
C427 C 0.23328 0.76173 0.25963 0.0
C428 C 0.21037 0.76261 0.27479 0.0
C429 C 0.18375 0.73957 0.27895 0.0
C430 C 0.35469 0.869 0.28912 0.0
C431 C 0.38255 0.87499 0.29336 0.0
C432 C 0.39852 0.88833 0.3278 0.0
C433 C 0.38674 0.89515 0.35927 0.0
C434 C 0.35802 0.88651 0.35726 0.0
C435 C 0.34231 0.87401 0.32208 0.0
C436 C 0.35578 0.87125 0.2128 0.0
C437 C 0.36184 0.89605 0.19787 0.0
C438 C 0.38109 0.90916 0.16568 0.0
C439 C 0.39467 0.89767 0.14796 0.0
C440 C 0.38759 0.8722 0.16136 0.0
C441 C 0.36814 0.859 0.19357 0.0
C442 C 0.3139 0.8351 0.24948 0.0
C443 C 0.31258 0.81175 0.2624 0.0
C444 C 0.28649 0.78769 0.26483 0.0
C445 C 0.2614 0.78666 0.25429 0.0
C446 C 0.26321 0.81002 0.23981 0.0
C447 C 0.28915 0.83393 0.23758 0.0
H448 H 0.44075 0.11629 0.70972 0.0
N449 N 0.48029 0.15453 0.75533 0.0
H450 H 0.4475 0.0975 0.64786 0.0
H451 H 0.52982 0.17408 0.71342 0.0
H452 H 0.53707 0.15385 0.65375 0.0
H453 H 0.53013 0.15982 0.77959 0.0
H454 H 0.53766 0.13941 0.84077 0.0
H455 H 0.44386 0.1273 0.81626 0.0
H456 H 0.45189 0.10792 0.87914 0.0
H457 H 0.44255 0.16531 0.72749 0.0
H458 H 0.52415 0.20093 0.78472 0.0
H459 H 0.44318 0.20626 0.73427 0.0
H460 H 0.52435 0.2416 0.79421 0.0
H461 H 0.43385 0.32604 0.7907 0.0
H462 H 0.43271 0.35756 0.74111 0.0
H463 H 0.51047 0.37378 0.68735 0.0
H464 H 0.51154 0.34226 0.73649 0.0
H465 H 0.52923 0.35967 0.80562 0.0
H466 H 0.54834 0.3914 0.86126 0.0
H467 H 0.47326 0.34118 0.93332 0.0
H468 H 0.45361 0.30982 0.87673 0.0
H469 H 0.43395 0.26672 0.80081 0.0
H470 H 0.43695 0.22836 0.78682 0.0
H471 H 0.52667 0.27991 0.7663 0.0
N472 N 0.47515 0.31698 0.8015 0.0
H473 H 0.52346 0.31804 0.78275 0.0
C474 C 0.48481 0.146 0.71674 0.0
C475 C 0.46173 0.1249 0.69709 0.0
C476 C 0.46562 0.11419 0.66196 0.0
C477 C 0.49285 0.12392 0.6466 0.0
C478 C 0.51591 0.14585 0.66527 0.0
C479 C 0.51183 0.15718 0.69958 0.0
C480 C 0.4861 0.14451 0.79274 0.0
C481 C 0.51277 0.14834 0.80066 0.0
C482 C 0.51718 0.13686 0.83585 0.0
C483 C 0.49527 0.12194 0.86428 0.0
C484 C 0.46901 0.11918 0.85741 0.0
C485 C 0.46443 0.13019 0.8217 0.0
C486 C 0.48302 0.17993 0.75605 0.0
C487 C 0.46066 0.1821 0.74143 0.0
C488 C 0.46096 0.20546 0.74586 0.0
C489 C 0.48351 0.2272 0.76576 0.0
C490 C 0.50663 0.2254 0.77867 0.0
C491 C 0.50649 0.20205 0.77354 0.0
C492 C 0.47263 0.33167 0.76733 0.0
C493 C 0.45021 0.33584 0.76746 0.0
C494 C 0.44962 0.35383 0.73941 0.0
C495 C 0.47155 0.36796 0.71082 0.0
C496 C 0.49335 0.36295 0.70922 0.0
C497 C 0.49388 0.34489 0.73723 0.0
C498 C 0.48972 0.33248 0.83687 0.0
C499 C 0.51706 0.35512 0.83361 0.0
C500 C 0.528 0.37325 0.86538 0.0
C501 C 0.51203 0.36878 0.9011 0.0
C502 C 0.48582 0.34503 0.90587 0.0
C503 C 0.47469 0.32713 0.87379 0.0
C504 C 0.47828 0.29517 0.79245 0.0
C505 C 0.45423 0.26966 0.79326 0.0
C506 C 0.45602 0.24779 0.7848 0.0
C507 C 0.48203 0.2509 0.77472 0.0
C508 C 0.5063 0.27663 0.77411 0.0
C509 C 0.50448 0.29856 0.78312 0.0
C510 C 0.08103 0.46085 0.04247 0.0
C511 C 0.07596 0.48116 0.05115 0.0
C512 C 0.10882 0.49493 0.10932 0.0
C513 C 0.11448 0.47503 0.1002 0.0
N514 N 0.11147 0.44353 0.05235 0.0
N515 N 0.09118 0.5222 0.08426 0.0
C516 C 0.10236 0.45945 0.0648 0.0
C517 C 0.09191 0.49973 0.08184 0.0
N518 N 0.06452 0.44206 0.01463 0.0
N519 N 0.11815 0.50822 0.14537 0.0
H520 H 0.07963 0.5266 0.06364 0.0
H521 H 0.10426 0.53765 0.10356 0.0
H522 H 0.13017 0.50508 0.16689 0.0
H523 H 0.1119 0.52073 0.15566 0.0
H524 H 0.06497 0.42502 0.01061 0.0
H525 H 0.04891 0.44254 0.99742 0.0
H526 H 0.10542 0.43359 0.02465 0.0
H527 H 0.12717 0.44224 0.06791 0.0
C528 C 0.62011 0.05339 0.55708 0.0
C529 C 0.5923 0.04365 0.5712 0.0
C530 C 0.60972 0.05282 0.64223 0.0
C531 C 0.63781 0.06671 0.62703 0.0
N532 N 0.66995 0.08296 0.56918 0.0
N533 N 0.56065 0.03613 0.62718 0.0
C534 C 0.64311 0.06755 0.58425 0.0
C535 C 0.58697 0.04355 0.61387 0.0
N536 N 0.62446 0.04872 0.51773 0.0
N537 N 0.6048 0.04814 0.68371 0.0
H538 H 0.54336 0.02911 0.60761 0.0
H539 H 0.5564 0.03875 0.65721 0.0
H540 H 0.62098 0.05445 0.70531 0.0
H541 H 0.58477 0.03592 0.69635 0.0
H542 H 0.64394 0.05303 0.50699 0.0
H543 H 0.608 0.03802 0.49715 0.0
H544 H 0.67458 0.08662 0.53778 0.0
H545 H 0.68745 0.09405 0.58791 0.0
C546 C 0.5964 0.60345 0.15522 0.0
C547 C 0.61398 0.60976 0.12035 0.0
C548 C 0.63253 0.65702 0.12828 0.0
C549 C 0.61671 0.65085 0.16526 0.0
N550 N 0.58606 0.61867 0.21701 0.0
N551 N 0.6504 0.64176 0.07504 0.0
C552 C 0.5992 0.62415 0.17952 0.0
C553 C 0.63246 0.63638 0.10717 0.0
N554 N 0.57654 0.57756 0.16434 0.0
N555 N 0.64711 0.68252 0.11306 0.0
H556 H 0.65037 0.62686 0.05895 0.0
H557 H 0.66644 0.66075 0.06601 0.0
H558 H 0.64769 0.69805 0.12799 0.0
H559 H 0.65697 0.68807 0.08435 0.0
H560 H 0.56089 0.57155 0.18652 0.0
H561 H 0.5743 0.56201 0.14728 0.0
H562 H 0.57561 0.59996 0.23125 0.0
H563 H 0.5872 0.63322 0.23548 0.0
C564 C 0.02467 0.56891 0.61535 0.0
C565 C 0.03571 0.55678 0.64084 0.0
C566 C 0.01152 0.55994 0.70048 0.0
C567 C 0.99707 0.56815 0.67379 0.0
N568 N 0.98863 0.57953 0.6055 0.0
N569 N 0.0376 0.53804 0.70662 0.0
C570 C 1.00349 0.57266 0.63111 0.0
C571 C 0.02888 0.55186 0.6833 0.0
N572 N 0.03486 0.57714 0.57621 0.0
N573 N 0.00887 0.56019 0.74226 0.0
H574 H 0.05008 0.53158 0.69477 0.0
H575 H 0.03065 0.53118 0.73666 0.0
H576 H 0.99635 0.56606 0.75587 0.0
H577 H 0.02116 0.55707 0.76325 0.0
H578 H 0.0297 0.58828 0.55701 0.0
H579 H 0.05056 0.57479 0.56434 0.0
H580 H 0.99008 0.5802 0.57346 0.0
H581 H 0.97345 0.58303 0.61624 0.0
C582 C 0.4348 0.93676 0.05144 0.0
C583 C 0.4623 0.95296 0.06779 0.0
C584 C 0.44623 0.92968 0.13511 0.0
C585 C 0.41858 0.91395 0.119 0.0
N586 N 0.38735 0.89828 0.06081 0.0
N587 N 0.4957 0.96207 0.12258 0.0
C588 C 0.41317 0.91612 0.07668 0.0
C589 C 0.46853 0.94829 0.10868 0.0
N590 N 0.42927 0.94173 0.01214 0.0
N591 N 0.45077 0.92792 0.17636 0.0
H592 H 0.51234 0.97724 0.10553 0.0
H593 H 0.50226 0.95744 0.14998 0.0
H594 H 0.43527 0.91399 0.19649 0.0
H595 H 0.46937 0.94112 0.1914 0.0
H596 H 0.40914 0.93289 0.99964 0.0
H597 H 0.44499 0.95568 0.99225 0.0
H598 H 0.3825 0.89712 0.02956 0.0
H599 H 0.37121 0.88313 0.07878 0.0
C600 C 0.49311 0.43718 0.67223 0.0
C601 C 0.47703 0.43134 0.63568 0.0
C602 C 0.45793 0.38394 0.6473 0.0
C603 C 0.47301 0.38968 0.68501 0.0
N604 N 0.5016 0.42097 0.73689 0.0
N605 N 0.44178 0.40002 0.59019 0.0
C606 C 0.48966 0.41611 0.69852 0.0
C607 C 0.4587 0.40489 0.62376 0.0
N608 N 0.51238 0.46297 0.68091 0.0
N609 N 0.44356 0.3586 0.63361 0.0
H610 H 0.44236 0.41519 0.57237 0.0
H611 H 0.42594 0.38118 0.58158 0.0
H612 H 0.44222 0.34278 0.65048 0.0
H613 H 0.4344 0.3534 0.60455 0.0
H614 H 0.52716 0.46874 0.70447 0.0
H615 H 0.51489 0.47876 0.66253 0.0
H616 H 0.51145 0.43941 0.75033 0.0
H617 H 0.49992 0.40611 0.7568 0.0
C618 C 0.5897 0.97201 0.41678 0.0
C619 C 0.57331 0.97884 0.39209 0.0
C620 C 0.57279 0.95168 0.33657 0.0
C621 C 0.58783 0.94352 0.36233 0.0
N622 N 0.60495 0.94125 0.43004 0.0
N623 N 0.54421 0.97124 0.33264 0.0
C624 C 0.59461 0.95232 0.40343 0.0
C625 C 0.56334 0.96746 0.35316 0.0
N626 N 0.60138 0.98507 0.4524 0.0
N627 N 0.56857 0.94539 0.29584 0.0
H628 H 0.53693 0.98268 0.34427 0.0
H629 H 0.53373 0.96124 0.30615 0.0
H630 H 0.57552 0.93434 0.28194 0.0
H631 H 0.56029 0.95305 0.2748 0.0
H632 H 0.61595 0.98304 0.46976 0.0
H633 H 0.59833 0.99977 0.46262 0.0
H634 H 0.60778 0.94502 0.46143 0.0
H635 H 0.60811 0.92627 0.42153 0.0
C636 C 0.62077 0.53927 0.88067 0.0
C637 C 0.63276 0.55233 0.9182 0.0
C638 C 0.68022 0.57226 0.88903 0.0
C639 C 0.66826 0.55971 0.85126 0.0
N640 N 0.62747 0.53679 0.80756 0.0
N641 N 0.67291 0.58679 0.95402 0.0
C642 C 0.63859 0.54498 0.84595 0.0
C643 C 0.66222 0.57061 0.92102 0.0
N644 N 0.59272 0.52033 0.87869 0.0
N645 N 0.70864 0.58473 0.89512 0.0
H646 H 0.66016 0.58654 0.97743 0.0
H647 H 0.69386 0.60225 0.95603 0.0
H648 H 0.72257 0.58637 0.87251 0.0
H649 H 0.71816 0.59159 0.92363 0.0
H650 H 0.58358 0.5078 0.85394 0.0
H651 H 0.57875 0.51581 0.90292 0.0
H652 H 0.60617 0.52835 0.80089 0.0
H653 H 0.63991 0.54065 0.78147 0.0
C654 C 0.08258 0.56479 0.41052 0.0
C655 C 0.08546 0.56822 0.45377 0.0
C656 C 0.10597 0.61609 0.44353 0.0
C657 C 0.10633 0.61306 0.40047 0.0
N658 N 0.09496 0.58531 0.34178 0.0
N659 N 0.09943 0.59656 0.51233 0.0
C660 C 0.0943 0.58755 0.38357 0.0
C661 C 0.09676 0.59371 0.4705 0.0
N662 N 0.06897 0.53983 0.39534 0.0
N663 N 0.11427 0.64037 0.45851 0.0
H664 H 0.09114 0.58053 0.53322 0.0
H665 H 0.11074 0.6147 0.52659 0.0
H666 H 0.12213 0.65738 0.43974 0.0
H667 H 0.11167 0.64356 0.48903 0.0
H668 H 0.06374 0.53558 0.36447 0.0
H669 H 0.06115 0.52285 0.41413 0.0
H670 H 0.08944 0.56788 0.32733 0.0
H671 H 0.1023 0.60139 0.32107 0.0
C672 C 0.52813 0.11129 0.96078 0.0
C673 C 0.5118 0.08336 0.96557 0.0
C674 C 0.4848 0.08052 0.90374 0.0
C675 C 0.49979 0.1086 0.90052 0.0
N676 N 0.53115 0.15065 0.93162 0.0
N677 N 0.47021 0.04201 0.94841 0.0
C678 C 0.52006 0.124 0.93086 0.0
C679 C 0.48872 0.06818 0.93911 0.0
N680 N 0.55214 0.12554 0.98333 0.0
N681 N 0.46799 0.06559 0.87216 0.0
H682 H 0.47215 0.03271 0.97491 0.0
H683 H 0.45149 0.0304 0.93238 0.0
H684 H 0.4652 0.07375 0.845 0.0
H685 H 0.45896 0.04519 0.87123 0.0
H686 H 0.56651 0.14569 0.97813 0.0
H687 H 0.55898 0.11675 0.00479 0.0
H688 H 0.544 0.16245 0.95532 0.0
H689 H 0.52529 0.16053 0.91066 0.0
C690 C 0.43117 0.46866 0.4289 0.0
C691 C 0.4608 0.48452 0.42318 0.0
C692 C 0.45362 0.48564 0.34849 0.0
C693 C 0.42424 0.47375 0.35521 0.0
N694 N 0.38536 0.45703 0.40298 0.0
N695 N 0.50045 0.51097 0.3775 0.0
C696 C 0.41303 0.46591 0.39573 0.0
C697 C 0.47218 0.49359 0.3829 0.0
N698 N 0.42035 0.45569 0.46588 0.0
N699 N 0.46373 0.48889 0.30923 0.0
H700 H 0.51486 0.51752 0.40167 0.0
H701 H 0.50935 0.5206 0.3494 0.0
H702 H 0.45073 0.48296 0.28333 0.0
H703 H 0.48453 0.49501 0.3027 0.0
H704 H 0.39899 0.44188 0.47063 0.0
H705 H 0.43306 0.45655 0.49043 0.0
H706 H 0.37688 0.45381 0.43253 0.0
H707 H 0.37142 0.45519 0.37973 0.0
C708 C 0.92328 0.39987 0.93878 0.0
C709 C 0.92658 0.38953 0.97686 0.0
C710 C 0.9103 0.34699 0.94524 0.0
C711 C 0.91031 0.35839 0.90607 0.0
N712 N 0.9204 0.39677 0.8644 0.0
N713 N 0.92544 0.3545 0.01685 0.0
C714 C 0.91759 0.38511 0.90251 0.0
C715 C 0.92054 0.36334 0.98028 0.0
N716 N 0.92517 0.42369 0.93761 0.0
N717 N 0.89995 0.32047 0.94896 0.0
H718 H 0.93234 0.36604 0.04304 0.0
H719 H 0.92439 0.33659 0.02062 0.0
H720 H 0.89218 0.30797 0.92392 0.0
H721 H 0.89695 0.31046 0.97714 0.0
H722 H 0.92032 0.43127 0.91168 0.0
H723 H 0.9292 0.43486 0.9638 0.0
H724 H 0.92873 0.41696 0.85973 0.0
H725 H 0.9166 0.38674 0.83698 0.0
C726 C 0.98662 0.51283 0.89811 0.0
C727 C 0.97694 0.50333 0.93886 0.0
C728 C 0.94301 0.51746 0.93234 0.0
C729 C 0.95131 0.52522 0.89073 0.0
N730 N 0.97699 0.52571 0.83128 0.0
N731 N 0.94101 0.49038 0.99088 0.0
C732 C 0.97195 0.52155 0.87278 0.0
C733 C 0.9538 0.50397 0.95503 0.0
N734 N 0.01041 0.51444 0.88412 0.0
N735 N 0.92512 0.52332 0.9504 0.0
H736 H 0.94721 0.4791 0.00758 0.0
H737 H 0.92235 0.48795 0.00183 0.0
H738 H 0.91622 0.53259 0.9344 0.0
H739 H 0.92088 0.52088 0.98195 0.0
H740 H 0.02023 0.52382 0.85631 0.0
H741 H 0.02176 0.50837 0.90192 0.0
H742 H 0.98935 0.52044 0.81567 0.0
H743 H 0.9668 0.53226 0.81176 0.0
C744 C 0.44466 0.92635 0.43982 0.0
C745 C 0.44911 0.95205 0.44107 0.0
C746 C 0.41009 0.93942 0.39333 0.0
C747 C 0.40544 0.91357 0.39168 0.0
N748 N 0.41288 0.88038 0.42221 0.0
N749 N 0.43029 0.97986 0.43139 0.0
C750 C 0.42092 0.90633 0.41807 0.0
C751 C 0.42959 0.95731 0.42225 0.0
N752 N 0.46394 0.92148 0.45705 0.0
N753 N 0.39792 0.94785 0.36511 0.0
H754 H 0.44445 0.99319 0.45277 0.0
H755 H 0.41504 0.98375 0.4213 0.0
H756 H 0.38478 0.93622 0.34152 0.0
H757 H 0.40314 0.96741 0.36249 0.0
H758 H 0.46368 0.90412 0.45266 0.0
H759 H 0.48112 0.93544 0.47403 0.0
H760 H 0.42183 0.87354 0.44356 0.0
H761 H 0.39538 0.86535 0.40698 0.0
C762 C 0.51493 0.42283 0.9648 0.0
C763 C 0.54126 0.43313 0.98457 0.0
C764 C 0.54597 0.39819 0.9555 0.0
C765 C 0.5215 0.39017 0.93136 0.0
N766 N 0.48541 0.39818 0.90761 0.0
N767 N 0.58381 0.4331 0.99519 0.0
C768 C 0.50658 0.40329 0.93466 0.0
C769 C 0.55728 0.42137 0.97921 0.0
N770 N 0.49769 0.43146 0.97555 0.0
N771 N 0.55805 0.38338 0.95635 0.0
H772 H 0.59271 0.45024 0.01228 0.0
H773 H 0.59776 0.42712 0.98875 0.0
H774 H 0.55015 0.3662 0.93957 0.0
H775 H 0.57429 0.38679 0.97636 0.0
H776 H 0.47706 0.42294 0.96507 0.0
H777 H 0.50309 0.44535 0.99833 0.0
H778 H 0.4759 0.4092 0.90597 0.0
H779 H 0.47911 0.38465 0.88407 0.0
C780 C 0.10455 0.45997 0.42924 0.0
C781 C 0.12214 0.48191 0.45394 0.0
C782 C 0.16208 0.49434 0.40823 0.0
C783 C 0.14361 0.4743 0.3808 0.0
N784 N 0.09596 0.44118 0.36162 0.0
N785 N 0.16643 0.52257 0.46381 0.0
C786 C 0.11445 0.45788 0.39036 0.0
C787 C 0.15066 0.49979 0.4427 0.0
N788 N 0.07854 0.44078 0.44355 0.0
N789 N 0.19053 0.50769 0.40199 0.0
H790 H 0.15847 0.52734 0.48865 0.0
H791 H 0.18647 0.53774 0.45448 0.0
H792 H 0.19966 0.50399 0.3774 0.0
H793 H 0.20513 0.52066 0.42318 0.0
H794 H 0.06569 0.42299 0.42877 0.0
H795 H 0.07107 0.44154 0.47244 0.0
H796 H 0.07418 0.4308 0.36548 0.0
H797 H 0.10214 0.43962 0.33221 0.0
C798 C 0.62655 0.04659 0.94716 0.0
C799 C 0.59909 0.0279 0.93266 0.0
C800 C 0.61547 0.04117 0.86115 0.0
C801 C 0.64331 0.05833 0.87584 0.0
N802 N 0.67645 0.07446 0.93199 0.0
N803 N 0.5677 0.00494 0.87652 0.0
C804 C 0.64917 0.0601 0.91862 0.0
C805 C 0.5936 0.02452 0.88977 0.0
N806 N 0.63076 0.05253 0.98802 0.0
N807 N 0.60992 0.04125 0.81995 0.0
H808 H 0.55122 0.99267 0.89676 0.0
H809 H 0.56305 0.99953 0.84588 0.0
H810 H 0.62554 0.0526 0.79802 0.0
H811 H 0.58969 0.03146 0.80765 0.0
H812 H 0.64952 0.06806 0.99975 0.0
H813 H 0.6147 0.04354 0.00988 0.0
H814 H 0.68234 0.07395 0.96245 0.0
H815 H 0.69356 0.08531 0.91206 0.0
C816 C 0.54061 0.61765 0.46745 0.0
C817 C 0.55612 0.60533 0.47437 0.0
C818 C 0.59045 0.63445 0.42184 0.0
C819 C 0.57616 0.6482 0.41697 0.0
N820 N 0.54066 0.65613 0.44053 0.0
N821 N 0.59898 0.60589 0.46596 0.0
C822 C 0.55211 0.64078 0.44147 0.0
C823 C 0.58206 0.61498 0.45391 0.0
N824 N 0.51437 0.60654 0.48431 0.0
N825 N 0.61107 0.63897 0.3946 0.0
H826 H 0.59365 0.59219 0.4903 0.0
H827 H 0.6194 0.61394 0.45489 0.0
H828 H 0.61739 0.65249 0.36979 0.0
H829 H 0.62003 0.62749 0.39425 0.0
H830 H 0.50071 0.61294 0.47702 0.0
H831 H 0.50538 0.58947 0.50312 0.0
H832 H 0.52481 0.65315 0.46056 0.0
H833 H 0.54874 0.6733 0.42209 0.0
C834 C 0.48818 0.06867 0.58406 0.0
C835 C 0.50446 0.08276 0.54877 0.0
C836 C 0.51003 0.12348 0.57483 0.0
C837 C 0.49719 0.11 0.6127 0.0
N838 N 0.48035 0.07078 0.65642 0.0
N839 N 0.53528 0.1246 0.5139 0.0
C840 C 0.48804 0.08284 0.61823 0.0
C841 C 0.51659 0.1105 0.54498 0.0
N842 N 0.47195 0.04168 0.58435 0.0
N843 N 0.51509 0.14826 0.56668 0.0
H844 H 0.54117 0.11578 0.49235 0.0
H845 H 0.54688 0.14521 0.51195 0.0
H846 H 0.50981 0.15808 0.5872 0.0
H847 H 0.52196 0.15792 0.53802 0.0
H848 H 0.45779 0.03052 0.60802 0.0
H849 H 0.47019 0.03073 0.55878 0.0
H850 H 0.47602 0.05169 0.6625 0.0
H851 H 0.48134 0.08074 0.68287 0.0
C852 C 0.49804 0.53527 0.09196 0.0
C853 C 0.49902 0.52114 0.05844 0.0
C854 C 0.44739 0.49528 0.05656 0.0
C855 C 0.44682 0.50543 0.09533 0.0
N856 N 0.47253 0.5334 0.15258 0.0
N857 N 0.47452 0.48687 0.00878 0.0
C858 C 0.47234 0.52535 0.11348 0.0
C859 C 0.47365 0.50124 0.04006 0.0
N860 N 0.52186 0.55814 0.10336 0.0
N861 N 0.42279 0.47986 0.03579 0.0
H862 H 0.49328 0.49085 0.99554 0.0
H863 H 0.45673 0.47 0.99763 0.0
H864 H 0.40335 0.47539 0.04718 0.0
H865 H 0.42197 0.47369 0.00583 0.0
H866 H 0.52196 0.5706 0.12528 0.0
H867 H 0.54086 0.56601 0.08751 0.0
H868 H 0.49102 0.54558 0.16877 0.0
H869 H 0.45448 0.52612 0.17051 0.0
C870 C 0.98242 0.43654 0.63495 0.0
C871 C 0.99133 0.43494 0.59503 0.0
C872 C 0.95504 0.38747 0.59515 0.0
C873 C 0.94972 0.38842 0.63756 0.0
N874 N 0.96122 0.41367 0.69958 0.0
N875 N 0.98724 0.40865 0.53727 0.0
C876 C 0.96392 0.41296 0.65786 0.0
C877 C 0.97766 0.41039 0.5748 0.0
N878 N 0.9915 0.46075 0.65083 0.0
N879 N 0.93833 0.36469 0.57436 0.0
H880 H 1.00342 0.42503 0.52127 0.0
H881 H 0.9804 0.39078 0.52317 0.0
H882 H 0.92166 0.34768 0.58849 0.0
H883 H 0.93936 0.36337 0.54257 0.0
H884 H 0.98361 0.46324 0.67804 0.0
H885 H 1.00471 0.47841 0.63451 0.0
H886 H 0.97364 0.43059 0.71656 0.0
H887 H 0.94843 0.3969 0.71804 0.0
C888 C 0.61394 0.98543 0.09825 0.0
C889 C 0.60261 0.99663 0.12332 0.0
C890 C 0.61057 0.97663 0.18476 0.0
C891 C 0.61781 0.96223 0.1591 0.0
N892 N 0.62517 0.95159 0.09127 0.0
N893 N 0.58707 1.00084 0.18968 0.0
C894 C 0.61925 0.96631 0.11571 0.0
C895 C 0.60035 0.9919 0.16648 0.0
N896 N 0.62039 0.99382 0.05805 0.0
N897 N 0.61385 0.97603 0.22654 0.0
H898 H 0.57909 0.01186 0.17703 0.0
H899 H 0.58196 0.99555 0.22069 0.0
H900 H 0.62071 0.96463 0.24128 0.0
H901 H 0.61207 0.98855 0.2462 0.0
H902 H 0.63089 0.98819 0.03872 0.0
H903 H 0.61768 0.00859 0.04531 0.0
H904 H 0.62353 0.95159 0.05925 0.0
H905 H 0.6301 0.93807 0.10326 0.0
C906 C 0.59878 0.51621 0.59461 0.0
C907 C 0.60093 0.52097 0.55128 0.0
C908 C 0.64857 0.5286 0.55239 0.0
C909 C 0.64789 0.52777 0.59617 0.0
N910 N 0.62338 0.52344 0.65952 0.0
N911 N 0.62752 0.53215 0.4883 0.0
C912 C 0.62311 0.52184 0.61748 0.0
C913 C 0.62566 0.52704 0.52989 0.0
N914 N 0.57354 0.50668 0.61404 0.0
N915 N 0.67106 0.53069 0.53253 0.0
H916 H 0.6106 0.52995 0.4709 0.0
H917 H 0.64601 0.53967 0.47137 0.0
H918 H 0.68803 0.53184 0.54838 0.0
H919 H 0.67193 0.52913 0.50079 0.0
H920 H 0.56979 0.49991 0.64466 0.0
H921 H 0.55553 0.50341 0.5987 0.0
H922 H 0.60725 0.52268 0.6763 0.0
H923 H 0.64069 0.52765 0.67776 0.0
C924 C 0.03827 0.55953 0.19033 0.0
C925 C 0.03286 0.55647 0.14758 0.0
C926 C 0.07161 0.60214 0.13362 0.0
C927 C 0.0762 0.60563 0.17667 0.0
N928 N 0.06109 0.58956 0.24661 0.0
N929 N 0.04042 0.57529 0.07882 0.0
C930 C 0.05868 0.58485 0.20528 0.0
C931 C 0.0484 0.57797 0.11928 0.0
N932 N 0.02437 0.53792 0.21636 0.0
N933 N 0.08995 0.6216 0.10656 0.0
H934 H 0.02343 0.55779 0.06758 0.0
H935 H 0.04902 0.59088 0.05716 0.0
H936 H 0.10696 0.63968 0.11611 0.0
H937 H 0.08958 0.61922 0.07486 0.0
H938 H 0.02937 0.53795 0.24741 0.0
H939 H 0.00892 0.5193 0.20602 0.0
H940 H 0.04721 0.57602 0.2687 0.0
H941 H 0.07572 0.60788 0.25875 0.0
loop_
_geom_bond_atom_site_label_1
_geom_bond_atom_site_label_2
_geom_bond_distance
_geom_bond_site_symmetry_2
_ccdc_geom_bond_type
Cu0 N1 1.999 . S
Cu0 O6 1.974 . S
Cu0 N11 1.985 1_655 S
Cu0 O20 1.959 1_655 S
N1 Cu0 1.999 . S
N1 C3 1.263 . S
N1 C5 1.389 . S
N2 C3 1.362 . S
N2 C4 1.424 . S
C3 N1 1.263 . S
C3 N2 1.362 . S
C3 H9 0.930 1_554 S
C4 N2 1.424 . S
C4 C5 1.351 . S
C4 H21 0.930 . S
C5 N1 1.389 . S
C5 C4 1.351 . S
C5 H10 0.930 . S
O6 Cu0 1.974 . S
O6 C16 1.282 1_554 S
C7 O8 1.261 . S
C7 O20 1.251 . S
O8 C7 1.261 . S
H9 C3 0.930 1_556 S
H10 C5 0.930 . S
N11 Cu0 1.985 1_455 S
N11 C13 1.335 . S
N11 C14 1.390 . S
N12 C13 1.345 . S
N12 C15 1.336 . S
C13 N11 1.335 . S
C13 N12 1.345 . S
C13 H18 0.930 . S
C14 N11 1.390 . S
C14 C15 1.346 . S
C14 H19 0.930 . S
C15 N12 1.336 . S
C15 C14 1.346 . S
C15 H22 0.929 . S
C16 O6 1.282 1_556 S
C16 O17 1.216 . S
O17 C16 1.216 . S
H18 C13 0.930 . S
H19 C14 0.930 . S
O20 Cu0 1.959 1_455 S
O20 C7 1.251 . S
H21 C4 0.930 . S
H22 C15 0.929 . S
Cu23 N24 1.999 . S
Cu23 O29 1.974 . S
Cu23 N34 1.985 1_565 S
Cu23 O43 1.959 1_565 S
N24 Cu23 1.999 . S
N24 C26 1.263 . S
N24 C28 1.389 . S
N25 C26 1.358 . S
N25 C27 1.400 . S
C26 N24 1.263 . S
C26 N25 1.358 . S
C26 H32 0.930 . S
C27 N25 1.400 . S
C27 C28 1.351 . S
C27 H44 0.930 . S
C28 N24 1.389 . S
C28 C27 1.351 . S
C28 H33 0.930 . S
O29 Cu23 1.974 . S
O29 C39 1.282 . S
C30 O31 1.261 . S
C30 O43 1.251 . S
O31 C30 1.261 . S
H32 C26 0.930 . S
H33 C28 0.930 . S
N34 Cu23 1.985 1_545 S
N34 C36 1.335 . S
N34 C37 1.390 . S
N35 C36 1.345 . S
N35 C38 1.336 . S
C36 N34 1.335 . S
C36 N35 1.345 . S
C36 H41 0.930 . S
C37 N34 1.390 . S
C37 C38 1.346 . S
C37 H42 0.930 . S
C38 N35 1.336 . S
C38 C37 1.346 . S
C38 H45 0.929 . S
C39 O29 1.282 . S
C39 O40 1.216 . S
O40 C39 1.216 . S
H41 C36 0.930 . S
H42 C37 0.930 . S
O43 Cu23 1.959 1_545 S
O43 C30 1.251 . S
H44 C27 0.930 . S
H45 C38 0.929 . S
Cu46 N47 1.999 . S
Cu46 O52 1.974 . S
Cu46 N57 1.985 1_556 S
Cu46 O66 1.959 1_556 S
N47 Cu46 1.999 . S
N47 C49 1.263 . S
N47 C51 1.389 . S
N48 C49 1.358 . S
N48 C50 1.400 . S
C49 N47 1.263 . S
C49 N48 1.358 . S
C49 H55 0.930 . S
C50 N48 1.400 . S
C50 C51 1.351 . S
C50 H67 0.930 . S
C51 N47 1.389 . S
C51 C50 1.351 . S
C51 H56 0.930 . S
O52 Cu46 1.974 . S
O52 C62 1.282 . S
C53 O54 1.261 . S
C53 O66 1.251 . S
O54 C53 1.261 . S
H55 C49 0.930 . S
H56 C51 0.930 . S
N57 Cu46 1.985 1_554 S
N57 C59 1.335 . S
N57 C60 1.390 . S
N58 C59 1.345 . S
N58 C61 1.336 . S
C59 N57 1.335 . S
C59 N58 1.345 . S
C59 H64 0.930 . S
C60 N57 1.390 . S
C60 C61 1.346 . S
C60 H65 0.930 . S
C61 N58 1.336 . S
C61 C60 1.346 . S
C61 H68 0.929 . S
C62 O52 1.282 . S
C62 O63 1.216 1_556 S
O63 C62 1.216 1_554 S
H64 C59 0.930 . S
H65 C60 0.930 . S
O66 Cu46 1.959 1_554 S
O66 C53 1.251 . S
H67 C50 0.930 . S
H68 C61 0.929 . S
Cu69 N70 1.999 . S
Cu69 O75 1.974 . S
Cu69 N80 1.985 . S
Cu69 O89 1.959 . S
N70 Cu69 1.999 . S
N70 C72 1.263 . S
N70 C74 1.389 . S
N71 C72 1.358 . S
N71 C73 1.400 . S
C72 N70 1.263 . S
C72 N71 1.358 . S
C72 H78 0.930 . S
C73 N71 1.400 . S
C73 C74 1.351 . S
C73 H90 0.930 . S
C74 N70 1.389 . S
C74 C73 1.351 . S
C74 H79 0.930 . S
O75 Cu69 1.974 . S
O75 C85 1.282 . S
C76 O77 1.261 . S
C76 O89 1.251 . S
O77 C76 1.261 . S
H78 C72 0.930 . S
H79 C74 0.930 . S
N80 Cu69 1.985 . S
N80 C82 1.335 . S
N80 C83 1.390 . S
N81 C82 1.345 . S
N81 C84 1.336 . S
C82 N80 1.335 . S
C82 N81 1.345 . S
C82 H87 0.930 1_455 S
C83 N80 1.390 . S
C83 C84 1.346 . S
C83 H88 0.930 . S
C84 N81 1.336 . S
C84 C83 1.346 . S
C84 H91 0.929 . S
C85 O75 1.282 . S
C85 O86 1.216 . S
O86 C85 1.216 . S
H87 C82 0.930 1_655 S
H88 C83 0.930 . S
O89 Cu69 1.959 . S
O89 C76 1.251 . S
H90 C73 0.930 . S
H91 C84 0.929 . S
Cu92 N93 1.999 . S
Cu92 O98 1.974 1_554 S
Cu92 N103 1.985 1_545 S
Cu92 O112 1.959 1_545 S
N93 Cu92 1.999 . S
N93 C95 1.263 1_554 S
N93 C97 1.389 . S
N94 C95 1.358 . S
N94 C96 1.380 1_556 S
C95 N93 1.263 1_556 S
C95 N94 1.358 . S
C95 H101 0.930 . S
C96 N94 1.380 1_554 S
C96 C97 1.364 . S
C96 H113 0.937 . S
C97 N93 1.389 . S
C97 C96 1.364 . S
C97 H102 0.930 . S
O98 Cu92 1.974 1_556 S
O98 C108 1.282 . S
C99 O100 1.267 . S
C99 O112 1.251 . S
O100 C99 1.267 . S
H101 C95 0.930 . S
H102 C97 0.930 . S
N103 Cu92 1.985 1_565 S
N103 C105 1.335 . S
N103 C106 1.390 . S
N104 C105 1.345 . S
N104 C107 1.336 . S
C105 N103 1.335 . S
C105 N104 1.345 . S
C105 H110 0.930 . S
C106 N103 1.390 . S
C106 C107 1.346 . S
C106 H111 0.930 1_564 S
C107 N104 1.336 . S
C107 C106 1.346 . S
C107 H114 0.929 . S
C108 O98 1.282 . S
C108 O109 1.216 . S
O109 C108 1.216 . S
H110 C105 0.930 . S
H111 C106 0.930 1_546 S
O112 Cu92 1.959 1_565 S
O112 C99 1.251 . S
H113 C96 0.937 . S
H114 C107 0.929 . S
Cu115 N116 1.999 . S
Cu115 O121 1.974 . S
Cu115 N126 1.985 . S
Cu115 O135 1.959 . S
N116 Cu115 1.999 . S
N116 C118 1.263 . S
N116 C120 1.389 . S
N117 C118 1.358 . S
N117 C119 1.400 . S
C118 N116 1.263 . S
C118 N117 1.358 . S
C118 H124 0.930 . S
C119 N117 1.400 . S
C119 C120 1.351 . S
C119 H136 0.930 . S
C120 N116 1.389 . S
C120 C119 1.351 . S
C120 H125 0.930 . S
O121 Cu115 1.974 . S
O121 C131 1.282 . S
C122 O123 1.261 . S
C122 O135 1.251 . S
O123 C122 1.261 . S
H124 C118 0.930 . S
H125 C120 0.930 . S
N126 Cu115 1.985 . S
N126 C128 1.335 . S
N126 C129 1.390 . S
N127 C128 1.345 . S
N127 C130 1.336 . S
C128 N126 1.335 . S
C128 N127 1.345 . S
C128 H133 0.930 . S
C129 N126 1.390 . S
C129 C130 1.346 . S
C129 H134 0.930 . S
C130 N127 1.336 . S
C130 C129 1.346 . S
C130 H137 0.929 . S
C131 O121 1.282 . S
C131 O132 1.216 . S
O132 C131 1.216 . S
H133 C128 0.930 . S
H134 C129 0.930 . S
O135 Cu115 1.959 . S
O135 C122 1.251 . S
H136 C119 0.930 . S
H137 C130 0.929 . S
H138 C165 0.929 . S
N139 C164 1.433 . S
N139 C170 1.435 . S
N139 C176 1.423 . S
H140 C166 0.930 . S
H141 C169 0.931 . S
H142 C168 0.929 . S
H143 C171 0.930 . S
H144 C172 0.932 . S
H145 C175 0.929 . S
H146 C174 0.931 . S
H147 C177 0.929 . S
H148 C181 0.932 . S
H149 C178 0.931 . S
H150 C180 0.929 . S
H151 C183 0.929 . S
H152 C184 0.930 . S
H153 C186 0.929 . S
H154 C187 0.931 . S
H155 C189 0.930 . S
H156 C190 0.932 . S
H157 C192 0.931 . S
H158 C193 0.929 . S
H159 C195 0.929 . S
H160 C196 0.931 . S
H161 C198 0.929 . S
N162 C182 1.433 . S
N162 C188 1.435 . S
N162 C194 1.423 . S
H163 C199 0.932 . S
C164 N139 1.433 . S
C164 C165 1.363 . S
C164 C169 1.370 . S
C165 H138 0.929 . S
C165 C164 1.363 . S
C165 C166 1.385 . S
C166 H140 0.930 . S
C166 C165 1.385 . S
C166 C167 1.357 . S
C167 C166 1.357 . S
C167 C168 1.406 . S
C168 H142 0.929 . S
C168 C167 1.406 . S
C168 C169 1.391 . S
C169 H141 0.931 . S
C169 C164 1.370 . S
C169 C168 1.391 . S
C170 N139 1.435 . S
C170 C171 1.358 . S
C170 C175 1.371 . S
C171 H143 0.930 . S
C171 C170 1.358 . S
C171 C172 1.405 . S
C172 H144 0.932 . S
C172 C171 1.405 . S
C172 C173 1.383 . S
C173 C172 1.383 . S
C173 C174 1.393 . S
C174 H146 0.931 . S
C174 C173 1.393 . S
C174 C175 1.382 . S
C175 H145 0.929 . S
C175 C170 1.371 . S
C175 C174 1.382 . S
C176 N139 1.423 . S
C176 C177 1.362 . S
C176 C181 1.388 . S
C177 H147 0.929 . S
C177 C176 1.362 . S
C177 C178 1.376 . S
C178 H149 0.931 . S
C178 C177 1.376 . S
C178 C179 1.396 . S
C179 C178 1.396 . S
C179 C180 1.348 . S
C179 C197 1.472 . S
C180 H150 0.929 . S
C180 C179 1.348 . S
C180 C181 1.443 . S
C181 H148 0.932 . S
C181 C176 1.388 . S
C181 C180 1.443 . S
C182 N162 1.433 . S
C182 C183 1.363 . S
C182 C187 1.370 . S
C183 H151 0.929 . S
C183 C182 1.363 . S
C183 C184 1.385 . S
C184 H152 0.930 . S
C184 C183 1.385 . S
C184 C185 1.357 . S
C185 C184 1.357 . S
C185 C186 1.406 . S
C186 H153 0.929 . S
C186 C185 1.406 . S
C186 C187 1.391 . S
C187 H154 0.931 . S
C187 C182 1.370 . S
C187 C186 1.391 . S
C188 N162 1.435 . S
C188 C189 1.358 . S
C188 C193 1.371 . S
C189 H155 0.930 . S
C189 C188 1.358 . S
C189 C190 1.405 . S
C190 H156 0.932 . S
C190 C189 1.405 . S
C190 C191 1.383 . S
C191 C190 1.383 . S
C191 C192 1.393 . S
C192 H157 0.931 . S
C192 C191 1.393 . S
C192 C193 1.382 . S
C193 H158 0.929 . S
C193 C188 1.371 . S
C193 C192 1.382 . S
C194 N162 1.423 . S
C194 C195 1.362 . S
C194 C199 1.388 . S
C195 H159 0.929 . S
C195 C194 1.362 . S
C195 C196 1.376 . S
C196 H160 0.931 . S
C196 C195 1.376 . S
C196 C197 1.396 . S
C197 C179 1.472 . S
C197 C196 1.396 . S
C197 C198 1.348 . S
C198 H161 0.929 . S
C198 C197 1.348 . S
C198 C199 1.443 . S
C199 H163 0.932 . S
C199 C194 1.388 . S
C199 C198 1.443 . S
H200 C227 0.929 . S
N201 C226 1.433 . S
N201 C232 1.435 . S
N201 C238 1.423 . S
H202 C228 0.930 . S
H203 C231 0.931 . S
H204 C230 0.929 . S
H205 C233 0.930 . S
H206 C234 0.932 . S
H207 C237 0.929 . S
H208 C236 0.931 . S
H209 C239 0.929 . S
H210 C243 0.932 . S
H211 C240 0.931 . S
H212 C242 0.929 . S
H213 C245 0.929 . S
H214 C246 0.930 . S
H215 C248 0.929 . S
H216 C249 0.931 . S
H217 C251 0.930 . S
H218 C252 0.932 . S
H219 C254 0.931 . S
H220 C255 0.929 . S
H221 C257 0.929 . S
H222 C258 0.931 . S
H223 C260 0.929 . S
N224 C244 1.433 . S
N224 C250 1.435 . S
N224 C256 1.423 . S
H225 C261 0.932 . S
C226 N201 1.433 . S
C226 C227 1.363 . S
C226 C231 1.370 . S
C227 H200 0.929 . S
C227 C226 1.363 . S
C227 C228 1.385 . S
C228 H202 0.930 . S
C228 C227 1.385 . S
C228 C229 1.357 . S
C229 C228 1.357 . S
C229 C230 1.406 . S
C230 H204 0.929 . S
C230 C229 1.406 . S
C230 C231 1.391 . S
C231 H203 0.931 . S
C231 C226 1.370 . S
C231 C230 1.391 . S
C232 N201 1.435 . S
C232 C233 1.358 . S
C232 C237 1.371 . S
C233 H205 0.930 . S
C233 C232 1.358 . S
C233 C234 1.405 . S
C234 H206 0.932 . S
C234 C233 1.405 . S
C234 C235 1.383 . S
C235 C234 1.383 . S
C235 C236 1.393 . S
C236 H208 0.931 . S
C236 C235 1.393 . S
C236 C237 1.382 . S
C237 H207 0.929 . S
C237 C232 1.371 . S
C237 C236 1.382 . S
C238 N201 1.423 . S
C238 C239 1.362 . S
C238 C243 1.388 . S
C239 H209 0.929 . S
C239 C238 1.362 . S
C239 C240 1.376 . S
C240 H211 0.931 . S
C240 C239 1.376 . S
C240 C241 1.396 . S
C241 C240 1.396 . S
C241 C242 1.348 . S
C241 C259 1.472 . S
C242 H212 0.929 . S
C242 C241 1.348 . S
C242 C243 1.443 . S
C243 H210 0.932 . S
C243 C238 1.388 . S
C243 C242 1.443 . S
C244 N224 1.433 . S
C244 C245 1.363 . S
C244 C249 1.370 . S
C245 H213 0.929 . S
C245 C244 1.363 . S
C245 C246 1.385 . S
C246 H214 0.930 . S
C246 C245 1.385 . S
C246 C247 1.357 . S
C247 C246 1.357 . S
C247 C248 1.406 . S
C248 H215 0.929 . S
C248 C247 1.406 . S
C248 C249 1.391 . S
C249 H216 0.931 . S
C249 C244 1.370 . S
C249 C248 1.391 . S
C250 N224 1.435 . S
C250 C251 1.358 . S
C250 C255 1.371 . S
C251 H217 0.930 . S
C251 C250 1.358 . S
C251 C252 1.405 . S
C252 H218 0.932 . S
C252 C251 1.405 . S
C252 C253 1.383 . S
C253 C252 1.383 . S
C253 C254 1.393 . S
C254 H219 0.931 . S
C254 C253 1.393 . S
C254 C255 1.382 . S
C255 H220 0.929 . S
C255 C250 1.371 . S
C255 C254 1.382 . S
C256 N224 1.423 . S
C256 C257 1.362 . S
C256 C261 1.388 . S
C257 H221 0.929 . S
C257 C256 1.362 . S
C257 C258 1.376 . S
C258 H222 0.931 . S
C258 C257 1.376 . S
C258 C259 1.396 . S
C259 C241 1.472 . S
C259 C258 1.396 . S
C259 C260 1.348 . S
C260 H223 0.929 . S
C260 C259 1.348 . S
C260 C261 1.443 . S
C261 H225 0.932 . S
C261 C256 1.388 . S
C261 C260 1.443 . S
H262 C289 0.929 . S
N263 C288 1.433 . S
N263 C294 1.435 . S
N263 C300 1.423 . S
H264 C290 0.930 . S
H265 C293 0.931 . S
H266 C292 0.929 . S
H267 C295 0.930 . S
H268 C296 0.932 . S
H269 C299 0.929 . S
H270 C298 0.931 . S
H271 C301 0.929 . S
H272 C305 0.932 . S
H273 C302 0.931 . S
H274 C304 0.929 . S
H275 C307 0.929 . S
H276 C308 0.930 . S
H277 C310 0.929 . S
H278 C311 0.931 . S
H279 C313 0.930 . S
H280 C314 0.932 . S
H281 C316 0.931 . S
H282 C317 0.929 . S
H283 C319 0.929 . S
H284 C320 0.931 . S
H285 C322 0.929 . S
N286 C306 1.433 . S
N286 C312 1.435 . S
N286 C318 1.423 . S
H287 C323 0.932 . S
C288 N263 1.433 . S
C288 C289 1.363 . S
C288 C293 1.370 . S
C289 H262 0.929 . S
C289 C288 1.363 . S
C289 C290 1.385 . S
C290 H264 0.930 . S
C290 C289 1.385 . S
C290 C291 1.357 . S
C291 C290 1.357 . S
C291 C292 1.406 . S
C292 H266 0.929 . S
C292 C291 1.406 . S
C292 C293 1.391 . S
C293 H265 0.931 . S
C293 C288 1.370 . S
C293 C292 1.391 . S
C294 N263 1.435 . S
C294 C295 1.358 . S
C294 C299 1.371 . S
C295 H267 0.930 . S
C295 C294 1.358 . S
C295 C296 1.405 . S
C296 H268 0.932 . S
C296 C295 1.405 . S
C296 C297 1.383 . S
C297 C296 1.383 . S
C297 C298 1.393 . S
C298 H270 0.931 . S
C298 C297 1.393 . S
C298 C299 1.382 . S
C299 H269 0.929 . S
C299 C294 1.371 . S
C299 C298 1.382 . S
C300 N263 1.423 . S
C300 C301 1.362 . S
C300 C305 1.388 . S
C301 H271 0.929 . S
C301 C300 1.362 . S
C301 C302 1.376 . S
C302 H273 0.931 . S
C302 C301 1.376 . S
C302 C303 1.396 . S
C303 C302 1.396 . S
C303 C304 1.348 . S
C303 C321 1.472 . S
C304 H274 0.929 . S
C304 C303 1.348 . S
C304 C305 1.443 . S
C305 H272 0.932 . S
C305 C300 1.388 . S
C305 C304 1.443 . S
C306 N286 1.433 . S
C306 C307 1.363 . S
C306 C311 1.370 . S
C307 H275 0.929 . S
C307 C306 1.363 . S
C307 C308 1.385 . S
C308 H276 0.930 . S
C308 C307 1.385 . S
C308 C309 1.357 . S
C309 C308 1.357 . S
C309 C310 1.406 . S
C310 H277 0.929 . S
C310 C309 1.406 . S
C310 C311 1.391 . S
C311 H278 0.931 . S
C311 C306 1.370 . S
C311 C310 1.391 . S
C312 N286 1.435 . S
C312 C313 1.358 . S
C312 C317 1.371 . S
C313 H279 0.930 . S
C313 C312 1.358 . S
C313 C314 1.405 . S
C314 H280 0.932 . S
C314 C313 1.405 . S
C314 C315 1.383 . S
C315 C314 1.383 . S
C315 C316 1.393 . S
C316 H281 0.931 . S
C316 C315 1.393 . S
C316 C317 1.382 . S
C317 H282 0.929 . S
C317 C312 1.371 . S
C317 C316 1.382 . S
C318 N286 1.423 . S
C318 C319 1.362 . S
C318 C323 1.388 . S
C319 H283 0.929 . S
C319 C318 1.362 . S
C319 C320 1.376 . S
C320 H284 0.931 . S
C320 C319 1.376 . S
C320 C321 1.396 . S
C321 C303 1.472 . S
C321 C320 1.396 . S
C321 C322 1.348 . S
C322 H285 0.929 . S
C322 C321 1.348 . S
C322 C323 1.443 . S
C323 H287 0.932 . S
C323 C318 1.388 . S
C323 C322 1.443 . S
H324 C351 0.929 . S
N325 C350 1.433 . S
N325 C356 1.435 . S
N325 C362 1.423 . S
H326 C352 0.930 . S
H327 C355 0.931 . S
H328 C354 0.929 . S
H329 C357 0.930 . S
H330 C358 0.932 . S
H331 C361 0.929 . S
H332 C360 0.931 . S
H333 C363 0.929 . S
H334 C367 0.932 . S
H335 C364 0.931 . S
H336 C366 0.929 . S
H337 C369 0.929 . S
H338 C370 0.930 . S
H339 C372 0.929 . S
H340 C373 0.931 . S
H341 C375 0.930 . S
H342 C376 0.932 . S
H343 C378 0.931 . S
H344 C379 0.929 . S
H345 C381 0.929 . S
H346 C382 0.931 . S
H347 C384 0.929 . S
N348 C368 1.433 . S
N348 C374 1.435 . S
N348 C380 1.423 . S
H349 C385 0.932 . S
C350 N325 1.433 . S
C350 C351 1.363 . S
C350 C355 1.370 . S
C351 H324 0.929 . S
C351 C350 1.363 . S
C351 C352 1.385 . S
C352 H326 0.930 . S
C352 C351 1.385 . S
C352 C353 1.357 . S
C353 C352 1.357 . S
C353 C354 1.406 . S
C354 H328 0.929 . S
C354 C353 1.406 . S
C354 C355 1.391 . S
C355 H327 0.931 . S
C355 C350 1.370 . S
C355 C354 1.391 . S
C356 N325 1.435 . S
C356 C357 1.358 . S
C356 C361 1.371 . S
C357 H329 0.930 . S
C357 C356 1.358 . S
C357 C358 1.405 . S
C358 H330 0.932 . S
C358 C357 1.405 . S
C358 C359 1.383 . S
C359 C358 1.383 . S
C359 C360 1.393 . S
C360 H332 0.931 . S
C360 C359 1.393 . S
C360 C361 1.382 . S
C361 H331 0.929 . S
C361 C356 1.371 . S
C361 C360 1.382 . S
C362 N325 1.423 . S
C362 C363 1.362 . S
C362 C367 1.388 . S
C363 H333 0.929 . S
C363 C362 1.362 . S
C363 C364 1.376 . S
C364 H335 0.931 . S
C364 C363 1.376 . S
C364 C365 1.396 . S
C365 C364 1.396 . S
C365 C366 1.348 . S
C365 C383 1.472 . S
C366 H336 0.929 . S
C366 C365 1.348 . S
C366 C367 1.443 . S
C367 H334 0.932 . S
C367 C362 1.388 . S
C367 C366 1.443 . S
C368 N348 1.433 . S
C368 C369 1.363 . S
C368 C373 1.370 . S
C369 H337 0.929 . S
C369 C368 1.363 . S
C369 C370 1.385 . S
C370 H338 0.930 . S
C370 C369 1.385 . S
C370 C371 1.357 . S
C371 C370 1.357 . S
C371 C372 1.406 . S
C372 H339 0.929 . S
C372 C371 1.406 . S
C372 C373 1.391 . S
C373 H340 0.931 . S
C373 C368 1.370 . S
C373 C372 1.391 . S
C374 N348 1.435 . S
C374 C375 1.358 . S
C374 C379 1.371 . S
C375 H341 0.930 . S
C375 C374 1.358 . S
C375 C376 1.405 . S
C376 H342 0.932 . S
C376 C375 1.405 . S
C376 C377 1.383 . S
C377 C376 1.383 . S
C377 C378 1.393 . S
C378 H343 0.931 . S
C378 C377 1.393 . S
C378 C379 1.382 . S
C379 H344 0.929 . S
C379 C374 1.371 . S
C379 C378 1.382 . S
C380 N348 1.423 . S
C380 C381 1.362 . S
C380 C385 1.388 . S
C381 H345 0.929 . S
C381 C380 1.362 . S
C381 C382 1.376 . S
C382 H346 0.931 . S
C382 C381 1.376 . S
C382 C383 1.396 . S
C383 C365 1.472 . S
C383 C382 1.396 . S
C383 C384 1.348 . S
C384 H347 0.929 . S
C384 C383 1.348 . S
C384 C385 1.443 . S
C385 H349 0.932 . S
C385 C380 1.388 . S
C385 C384 1.443 . S
H386 C413 0.929 . S
N387 C412 1.433 . S
N387 C418 1.435 . S
N387 C424 1.423 . S
H388 C414 0.930 . S
H389 C417 0.931 . S
H390 C416 0.929 . S
H391 C419 0.930 . S
H392 C420 0.932 . S
H393 C423 0.929 . S
H394 C422 0.931 . S
H395 C425 0.929 . S
H396 C429 0.932 . S
H397 C426 0.931 . S
H398 C428 0.929 . S
H399 C431 0.929 . S
H400 C432 0.930 . S
H401 C434 0.929 . S
H402 C435 0.931 . S
H403 C437 0.930 . S
H404 C438 0.932 . S
H405 C440 0.931 . S
H406 C441 0.929 . S
H407 C443 0.929 . S
H408 C444 0.931 . S
H409 C446 0.929 . S
N410 C430 1.433 . S
N410 C436 1.435 . S
N410 C442 1.423 . S
H411 C447 0.932 . S
C412 N387 1.433 . S
C412 C413 1.363 . S
C412 C417 1.370 . S
C413 H386 0.929 . S
C413 C412 1.363 . S
C413 C414 1.385 . S
C414 H388 0.930 . S
C414 C413 1.385 . S
C414 C415 1.357 . S
C415 C414 1.357 . S
C415 C416 1.406 . S
C416 H390 0.929 . S
C416 C415 1.406 . S
C416 C417 1.391 . S
C417 H389 0.931 . S
C417 C412 1.370 . S
C417 C416 1.391 . S
C418 N387 1.435 . S
C418 C419 1.358 . S
C418 C423 1.371 . S
C419 H391 0.930 . S
C419 C418 1.358 . S
C419 C420 1.405 . S
C420 H392 0.932 . S
C420 C419 1.405 . S
C420 C421 1.383 . S
C421 C420 1.383 . S
C421 C422 1.393 . S
C422 H394 0.931 . S
C422 C421 1.393 . S
C422 C423 1.382 . S
C423 H393 0.929 . S
C423 C418 1.371 . S
C423 C422 1.382 . S
C424 N387 1.423 . S
C424 C425 1.362 . S
C424 C429 1.388 . S
C425 H395 0.929 . S
C425 C424 1.362 . S
C425 C426 1.376 . S
C426 H397 0.931 . S
C426 C425 1.376 . S
C426 C427 1.396 . S
C427 C426 1.396 . S
C427 C428 1.348 . S
C427 C445 1.472 . S
C428 H398 0.929 . S
C428 C427 1.348 . S
C428 C429 1.443 . S
C429 H396 0.932 . S
C429 C424 1.388 . S
C429 C428 1.443 . S
C430 N410 1.433 . S
C430 C431 1.363 . S
C430 C435 1.370 . S
C431 H399 0.929 . S
C431 C430 1.363 . S
C431 C432 1.385 . S
C432 H400 0.930 . S
C432 C431 1.385 . S
C432 C433 1.357 . S
C433 C432 1.357 . S
C433 C434 1.406 . S
C434 H401 0.929 . S
C434 C433 1.406 . S
C434 C435 1.391 . S
C435 H402 0.931 . S
C435 C430 1.370 . S
C435 C434 1.391 . S
C436 N410 1.435 . S
C436 C437 1.358 . S
C436 C441 1.371 . S
C437 H403 0.930 . S
C437 C436 1.358 . S
C437 C438 1.405 . S
C438 H404 0.932 . S
C438 C437 1.405 . S
C438 C439 1.383 . S
C439 C438 1.383 . S
C439 C440 1.393 . S
C440 H405 0.931 . S
C440 C439 1.393 . S
C440 C441 1.382 . S
C441 H406 0.929 . S
C441 C436 1.371 . S
C441 C440 1.382 . S
C442 N410 1.423 . S
C442 C443 1.362 . S
C442 C447 1.388 . S
C443 H407 0.929 . S
C443 C442 1.362 . S
C443 C444 1.376 . S
C444 H408 0.931 . S
C444 C443 1.376 . S
C444 C445 1.396 . S
C445 C427 1.472 . S
C445 C444 1.396 . S
C445 C446 1.348 . S
C446 H409 0.929 . S
C446 C445 1.348 . S
C446 C447 1.443 . S
C447 H411 0.932 . S
C447 C442 1.388 . S
C447 C446 1.443 . S
H448 C475 0.929 . S
N449 C474 1.433 . S
N449 C480 1.435 . S
N449 C486 1.423 . S
H450 C476 0.930 . S
H451 C479 0.931 . S
H452 C478 0.929 . S
H453 C481 0.930 . S
H454 C482 0.932 . S
H455 C485 0.929 . S
H456 C484 0.931 . S
H457 C487 0.929 . S
H458 C491 0.932 . S
H459 C488 0.931 . S
H460 C490 0.929 . S
H461 C493 0.929 . S
H462 C494 0.930 . S
H463 C496 0.929 . S
H464 C497 0.931 . S
H465 C499 0.930 . S
H466 C500 0.932 . S
H467 C502 0.931 . S
H468 C503 0.929 . S
H469 C505 0.929 . S
H470 C506 0.931 . S
H471 C508 0.929 . S
N472 C492 1.433 . S
N472 C498 1.435 . S
N472 C504 1.423 . S
H473 C509 0.932 . S
C474 N449 1.433 . S
C474 C475 1.363 . S
C474 C479 1.370 . S
C475 H448 0.929 . S
C475 C474 1.363 . S
C475 C476 1.385 . S
C476 H450 0.930 . S
C476 C475 1.385 . S
C476 C477 1.357 . S
C477 C476 1.357 . S
C477 C478 1.406 . S
C478 H452 0.929 . S
C478 C477 1.406 . S
C478 C479 1.391 . S
C479 H451 0.931 . S
C479 C474 1.370 . S
C479 C478 1.391 . S
C480 N449 1.435 . S
C480 C481 1.358 . S
C480 C485 1.371 . S
C481 H453 0.930 . S
C481 C480 1.358 . S
C481 C482 1.405 . S
C482 H454 0.932 . S
C482 C481 1.405 . S
C482 C483 1.383 . S
C483 C482 1.383 . S
C483 C484 1.393 . S
C484 H456 0.931 . S
C484 C483 1.393 . S
C484 C485 1.382 . S
C485 H455 0.929 . S
C485 C480 1.371 . S
C485 C484 1.382 . S
C486 N449 1.423 . S
C486 C487 1.362 . S
C486 C491 1.388 . S
C487 H457 0.929 . S
C487 C486 1.362 . S
C487 C488 1.376 . S
C488 H459 0.931 . S
C488 C487 1.376 . S
C488 C489 1.396 . S
C489 C488 1.396 . S
C489 C490 1.348 . S
C489 C507 1.472 . S
C490 H460 0.929 . S
C490 C489 1.348 . S
C490 C491 1.443 . S
C491 H458 0.932 . S
C491 C486 1.388 . S
C491 C490 1.443 . S
C492 N472 1.433 . S
C492 C493 1.363 . S
C492 C497 1.370 . S
C493 H461 0.929 . S
C493 C492 1.363 . S
C493 C494 1.385 . S
C494 H462 0.930 . S
C494 C493 1.385 . S
C494 C495 1.357 . S
C495 C494 1.357 . S
C495 C496 1.406 . S
C496 H463 0.929 . S
C496 C495 1.406 . S
C496 C497 1.391 . S
C497 H464 0.931 . S
C497 C492 1.370 . S
C497 C496 1.391 . S
C498 N472 1.435 . S
C498 C499 1.358 . S
C498 C503 1.371 . S
C499 H465 0.930 . S
C499 C498 1.358 . S
C499 C500 1.405 . S
C500 H466 0.932 . S
C500 C499 1.405 . S
C500 C501 1.383 . S
C501 C500 1.383 . S
C501 C502 1.393 . S
C502 H467 0.931 . S
C502 C501 1.393 . S
C502 C503 1.382 . S
C503 H468 0.929 . S
C503 C498 1.371 . S
C503 C502 1.382 . S
C504 N472 1.423 . S
C504 C505 1.362 . S
C504 C509 1.388 . S
C505 H469 0.929 . S
C505 C504 1.362 . S
C505 C506 1.376 . S
C506 H470 0.931 . S
C506 C505 1.376 . S
C506 C507 1.396 . S
C507 C489 1.472 . S
C507 C506 1.396 . S
C507 C508 1.348 . S
C508 H471 0.929 . S
C508 C507 1.348 . S
C508 C509 1.443 . S
C509 H473 0.932 . S
C509 C504 1.388 . S
C509 C508 1.443 . S
C510 C511 1.363 . S
C510 C516 1.379 . S
C510 N518 1.356 . S
C511 C510 1.363 . S
C511 C517 1.363 . S
C512 C513 1.363 . S
C512 C517 1.379 . S
C512 N519 1.356 . S
C513 C512 1.363 . S
C513 C516 1.363 . S
N514 C516 1.356 . S
N514 H526 0.984 . S
N514 H527 0.985 . S
N515 C517 1.356 . S
N515 H520 0.984 . S
N515 H521 0.985 . S
C516 C510 1.379 . S
C516 C513 1.363 . S
C516 N514 1.356 . S
C517 C511 1.363 . S
C517 C512 1.379 . S
C517 N515 1.356 . S
N518 C510 1.356 . S
N518 H524 0.984 . S
N518 H525 0.984 . S
N519 C512 1.356 . S
N519 H522 0.984 . S
N519 H523 0.985 . S
H520 N515 0.984 . S
H521 N515 0.985 . S
H522 N519 0.984 . S
H523 N519 0.985 . S
H524 N518 0.984 . S
H525 N518 0.984 . S
H526 N514 0.984 . S
H527 N514 0.985 . S
C528 C529 1.363 . S
C528 C534 1.379 . S
C528 N536 1.356 . S
C529 C528 1.363 . S
C529 C535 1.363 . S
C530 C531 1.363 . S
C530 C535 1.379 . S
C530 N537 1.356 . S
C531 C530 1.363 . S
C531 C534 1.363 . S
N532 C534 1.356 . S
N532 H544 0.984 . S
N532 H545 0.985 . S
N533 C535 1.356 . S
N533 H538 0.984 . S
N533 H539 0.985 . S
C534 C528 1.379 . S
C534 C531 1.363 . S
C534 N532 1.356 . S
C535 C529 1.363 . S
C535 C530 1.379 . S
C535 N533 1.356 . S
N536 C528 1.356 . S
N536 H542 0.984 . S
N536 H543 0.984 . S
N537 C530 1.356 . S
N537 H540 0.984 . S
N537 H541 0.985 . S
H538 N533 0.984 . S
H539 N533 0.985 . S
H540 N537 0.984 . S
H541 N537 0.985 . S
H542 N536 0.984 . S
H543 N536 0.984 . S
H544 N532 0.984 . S
H545 N532 0.985 . S
C546 C547 1.363 . S
C546 C552 1.379 . S
C546 N554 1.356 . S
C547 C546 1.363 . S
C547 C553 1.363 . S
C548 C549 1.363 . S
C548 C553 1.379 . S
C548 N555 1.356 . S
C549 C548 1.363 . S
C549 C552 1.363 . S
N550 C552 1.356 . S
N550 H562 0.984 . S
N550 H563 0.985 . S
N551 C553 1.356 . S
N551 H556 0.984 . S
N551 H557 0.985 . S
C552 C546 1.379 . S
C552 C549 1.363 . S
C552 N550 1.356 . S
C553 C547 1.363 . S
C553 C548 1.379 . S
C553 N551 1.356 . S
N554 C546 1.356 . S
N554 H560 0.984 . S
N554 H561 0.984 . S
N555 C548 1.356 . S
N555 H558 0.984 . S
N555 H559 0.985 . S
H556 N551 0.984 . S
H557 N551 0.985 . S
H558 N555 0.984 . S
H559 N555 0.985 . S
H560 N554 0.984 . S
H561 N554 0.984 . S
H562 N550 0.984 . S
H563 N550 0.985 . S
C564 C565 1.363 . S
C564 C570 1.379 . S
C564 N572 1.356 . S
C565 C564 1.363 . S
C565 C571 1.363 . S
C566 C567 1.363 . S
C566 C571 1.379 . S
C566 N573 1.356 . S
C567 C566 1.363 . S
C567 C570 1.363 . S
N568 C570 1.356 . S
N568 H580 0.984 . S
N568 H581 0.985 . S
N569 C571 1.356 . S
N569 H574 0.993 . S
N569 H575 0.985 . S
C570 C564 1.379 . S
C570 C567 1.363 . S
C570 N568 1.356 . S
C571 C565 1.363 . S
C571 C566 1.379 . S
C571 N569 1.356 . S
N572 C564 1.356 . S
N572 H578 0.984 . S
N572 H579 0.984 . S
N573 C566 1.356 . S
N573 H576 0.984 . S
N573 H577 0.985 . S
H574 N569 0.993 . S
H575 N569 0.985 . S
H576 N573 0.984 . S
H577 N573 0.985 . S
H578 N572 0.984 . S
H579 N572 0.984 . S
H580 N568 0.984 . S
H581 N568 0.985 . S
C582 C583 1.363 . S
C582 C588 1.379 . S
C582 N590 1.356 . S
C583 C582 1.363 . S
C583 C589 1.363 . S
C584 C585 1.363 . S
C584 C589 1.379 . S
C584 N591 1.356 . S
C585 C584 1.363 . S
C585 C588 1.363 . S
N586 C588 1.356 . S
N586 H598 0.984 . S
N586 H599 0.985 . S
N587 C589 1.356 . S
N587 H592 0.984 . S
N587 H593 0.985 1_565 S
C588 C582 1.379 . S
C588 C585 1.363 . S
C588 N586 1.356 . S
C589 C583 1.363 . S
C589 C584 1.379 . S
C589 N587 1.356 . S
N590 C582 1.356 . S
N590 H596 0.984 . S
N590 H597 0.984 . S
N591 C584 1.356 . S
N591 H594 0.984 . S
N591 H595 0.985 . S
H592 N587 0.984 . S
H593 N587 0.985 1_545 S
H594 N591 0.984 . S
H595 N591 0.985 . S
H596 N590 0.984 . S
H597 N590 0.984 . S
H598 N586 0.984 . S
H599 N586 0.985 . S
C600 C601 1.363 . S
C600 C606 1.379 . S
C600 N608 1.356 . S
C601 C600 1.363 . S
C601 C607 1.363 . S
C602 C603 1.363 . S
C602 C607 1.379 . S
C602 N609 1.356 . S
C603 C602 1.363 . S
C603 C606 1.363 . S
N604 C606 1.356 . S
N604 H616 0.984 . S
N604 H617 0.985 . S
N605 C607 1.356 . S
N605 H610 0.984 . S
N605 H611 0.985 . S
C606 C600 1.379 . S
C606 C603 1.363 . S
C606 N604 1.356 . S
C607 C601 1.363 . S
C607 C602 1.379 . S
C607 N605 1.356 . S
N608 C600 1.356 . S
N608 H614 0.984 . S
N608 H615 0.984 . S
N609 C602 1.356 . S
N609 H612 0.984 . S
N609 H613 0.985 . S
H610 N605 0.984 . S
H611 N605 0.985 . S
H612 N609 0.984 . S
H613 N609 0.985 . S
H614 N608 0.984 . S
H615 N608 0.984 . S
H616 N604 0.984 . S
H617 N604 0.985 . S
C618 C619 1.363 . S
C618 C624 1.379 . S
C618 N626 1.356 . S
C619 C618 1.363 . S
C619 C625 1.363 . S
C620 C621 1.363 . S
C620 C625 1.379 . S
C620 N627 1.356 . S
C621 C620 1.363 . S
C621 C624 1.363 . S
N622 C624 1.356 . S
N622 H634 0.984 . S
N622 H635 0.985 . S
N623 C625 1.356 . S
N623 H628 0.984 . S
N623 H629 0.985 . S
C624 C618 1.379 . S
C624 C621 1.363 . S
C624 N622 1.356 . S
C625 C619 1.363 . S
C625 C620 1.379 . S
C625 N623 1.356 . S
N626 C618 1.356 . S
N626 H632 0.984 . S
N626 H633 0.984 . S
N627 C620 1.356 . S
N627 H630 0.984 . S
N627 H631 0.985 . S
H628 N623 0.984 . S
H629 N623 0.985 . S
H630 N627 0.984 . S
H631 N627 0.985 . S
H632 N626 0.984 . S
H633 N626 0.984 . S
H634 N622 0.984 . S
H635 N622 0.985 . S
C636 C637 1.363 . S
C636 C642 1.379 . S
C636 N644 1.356 . S
C637 C636 1.363 . S
C637 C643 1.363 . S
C638 C639 1.363 . S
C638 C643 1.379 . S
C638 N645 1.356 . S
C639 C638 1.363 . S
C639 C642 1.363 . S
N640 C642 1.356 . S
N640 H652 0.984 . S
N640 H653 0.985 . S
N641 C643 1.356 . S
N641 H646 0.984 . S
N641 H647 0.985 . S
C642 C636 1.379 . S
C642 C639 1.363 . S
C642 N640 1.356 . S
C643 C637 1.363 . S
C643 C638 1.379 . S
C643 N641 1.356 . S
N644 C636 1.356 . S
N644 H650 0.984 . S
N644 H651 0.984 . S
N645 C638 1.356 . S
N645 H648 0.984 . S
N645 H649 0.985 . S
H646 N641 0.984 . S
H647 N641 0.985 . S
H648 N645 0.984 . S
H649 N645 0.985 . S
H650 N644 0.984 . S
H651 N644 0.984 . S
H652 N640 0.984 . S
H653 N640 0.985 . S
C654 C655 1.363 . S
C654 C660 1.379 . S
C654 N662 1.356 . S
C655 C654 1.363 . S
C655 C661 1.363 . S
C656 C657 1.363 . S
C656 C661 1.379 . S
C656 N663 1.356 . S
C657 C656 1.363 . S
C657 C660 1.363 . S
N658 C660 1.356 . S
N658 H670 0.984 . S
N658 H671 0.985 . S
N659 C661 1.356 . S
N659 H664 0.984 . S
N659 H665 0.985 . S
C660 C654 1.379 . S
C660 C657 1.363 . S
C660 N658 1.356 . S
C661 C655 1.363 . S
C661 C656 1.379 . S
C661 N659 1.356 . S
N662 C654 1.356 . S
N662 H668 0.984 . S
N662 H669 0.984 . S
N663 C656 1.356 . S
N663 H666 0.984 . S
N663 H667 0.985 . S
H664 N659 0.984 . S
H665 N659 0.985 . S
H666 N663 0.984 . S
H667 N663 0.985 . S
H668 N662 0.984 . S
H669 N662 0.984 . S
H670 N658 0.984 . S
H671 N658 0.985 . S
C672 C673 1.363 . S
C672 C678 1.379 . S
C672 N680 1.356 . S
C673 C672 1.363 . S
C673 C679 1.363 . S
C674 C675 1.363 . S
C674 C679 1.379 . S
C674 N681 1.356 . S
C675 C674 1.363 . S
C675 C678 1.363 . S
N676 C678 1.356 . S
N676 H688 0.984 . S
N676 H689 0.985 . S
N677 C679 1.356 . S
N677 H682 0.984 . S
N677 H683 0.985 . S
C678 C672 1.379 . S
C678 C675 1.363 . S
C678 N676 1.356 . S
C679 C673 1.363 . S
C679 C674 1.379 . S
C679 N677 1.356 . S
N680 C672 1.356 . S
N680 H686 0.984 . S
N680 H687 0.984 . S
N681 C674 1.356 . S
N681 H684 0.984 . S
N681 H685 0.985 . S
H682 N677 0.984 . S
H683 N677 0.985 . S
H684 N681 0.984 . S
H685 N681 0.985 . S
H686 N680 0.984 . S
H687 N680 0.984 . S
H688 N676 0.984 . S
H689 N676 0.985 . S
C690 C691 1.363 . S
C690 C696 1.379 . S
C690 N698 1.356 . S
C691 C690 1.363 . S
C691 C697 1.363 . S
C692 C693 1.363 . S
C692 C697 1.379 . S
C692 N699 1.356 . S
C693 C692 1.363 . S
C693 C696 1.363 . S
N694 C696 1.356 . S
N694 H706 0.984 . S
N694 H707 0.985 . S
N695 C697 1.356 . S
N695 H700 0.984 . S
N695 H701 0.985 . S
C696 C690 1.379 . S
C696 C693 1.363 . S
C696 N694 1.356 . S
C697 C691 1.363 . S
C697 C692 1.379 . S
C697 N695 1.356 . S
N698 C690 1.356 . S
N698 H704 0.984 . S
N698 H705 0.984 . S
N699 C692 1.356 . S
N699 H702 0.984 . S
N699 H703 0.985 . S
H700 N695 0.984 . S
H701 N695 0.985 . S
H702 N699 0.984 . S
H703 N699 0.985 . S
H704 N698 0.984 . S
H705 N698 0.984 . S
H706 N694 0.984 . S
H707 N694 0.985 . S
C708 C709 1.363 . S
C708 C714 1.379 . S
C708 N716 1.356 . S
C709 C708 1.363 . S
C709 C715 1.363 . S
C710 C711 1.363 . S
C710 C715 1.379 . S
C710 N717 1.356 . S
C711 C710 1.363 . S
C711 C714 1.363 . S
N712 C714 1.356 . S
N712 H724 0.984 . S
N712 H725 0.985 . S
N713 C715 1.356 1_554 S
N713 H718 0.984 . S
N713 H719 0.985 . S
C714 C708 1.379 . S
C714 C711 1.363 . S
C714 N712 1.356 . S
C715 C709 1.363 . S
C715 C710 1.379 . S
C715 N713 1.356 1_556 S
N716 C708 1.356 . S
N716 H722 0.984 . S
N716 H723 0.984 . S
N717 C710 1.356 . S
N717 H720 0.984 . S
N717 H721 0.985 . S
H718 N713 0.984 . S
H719 N713 0.985 . S
H720 N717 0.984 . S
H721 N717 0.985 . S
H722 N716 0.984 . S
H723 N716 0.984 . S
H724 N712 0.984 . S
H725 N712 0.985 . S
C726 C727 1.363 . S
C726 C732 1.379 . S
C726 N734 1.356 . S
C727 C726 1.363 . S
C727 C733 1.363 . S
C728 C729 1.363 . S
C728 C733 1.379 . S
C728 N735 1.356 . S
C729 C728 1.363 . S
C729 C732 1.363 . S
N730 C732 1.356 . S
N730 H742 0.984 . S
N730 H743 0.985 . S
N731 C733 1.356 1_554 S
N731 H736 0.984 . S
N731 H737 0.985 . S
C732 C726 1.379 . S
C732 C729 1.363 . S
C732 N730 1.356 . S
C733 C727 1.363 . S
C733 C728 1.379 . S
C733 N731 1.356 1_556 S
N734 C726 1.356 . S
N734 H740 0.984 . S
N734 H741 0.984 . S
N735 C728 1.356 . S
N735 H738 0.984 . S
N735 H739 0.985 1_556 S
H736 N731 0.984 . S
H737 N731 0.985 . S
H738 N735 0.984 . S
H739 N735 0.985 1_554 S
H740 N734 0.984 . S
H741 N734 0.984 . S
H742 N730 0.984 . S
H743 N730 0.985 . S
C744 C745 1.363 . S
C744 C750 1.379 . S
C744 N752 1.356 . S
C745 C744 1.363 . S
C745 C751 1.363 . S
C746 C747 1.363 . S
C746 C751 1.379 . S
C746 N753 1.356 . S
C747 C746 1.363 . S
C747 C750 1.363 . S
N748 C750 1.356 . S
N748 H760 0.984 . S
N748 H761 0.985 . S
N749 C751 1.356 . S
N749 H754 0.984 . S
N749 H755 0.985 . S
C750 C744 1.379 . S
C750 C747 1.363 . S
C750 N748 1.356 . S
C751 C745 1.363 . S
C751 C746 1.379 . S
C751 N749 1.356 . S
N752 C744 1.356 . S
N752 H758 0.984 . S
N752 H759 0.984 . S
N753 C746 1.356 . S
N753 H756 0.984 . S
N753 H757 0.985 . S
H754 N749 0.984 . S
H755 N749 0.985 . S
H756 N753 0.984 . S
H757 N753 0.985 . S
H758 N752 0.984 . S
H759 N752 0.984 . S
H760 N748 0.984 . S
H761 N748 0.985 . S
C762 C763 1.363 . S
C762 C768 1.379 . S
C762 N770 1.356 . S
C763 C762 1.363 . S
C763 C769 1.363 . S
C764 C765 1.363 . S
C764 C769 1.379 . S
C764 N771 1.356 . S
C765 C764 1.363 . S
C765 C768 1.363 . S
N766 C768 1.356 . S
N766 H778 0.984 . S
N766 H779 0.985 . S
N767 C769 1.356 . S
N767 H772 0.984 . S
N767 H773 0.985 . S
C768 C762 1.379 . S
C768 C765 1.363 . S
C768 N766 1.356 . S
C769 C763 1.363 . S
C769 C764 1.379 . S
C769 N767 1.356 . S
N770 C762 1.356 . S
N770 H776 0.984 . S
N770 H777 0.984 . S
N771 C764 1.356 . S
N771 H774 0.984 . S
N771 H775 0.985 . S
H772 N767 0.984 . S
H773 N767 0.985 . S
H774 N771 0.984 . S
H775 N771 0.985 . S
H776 N770 0.984 . S
H777 N770 0.984 . S
H778 N766 0.984 . S
H779 N766 0.985 . S
C780 C781 1.363 . S
C780 C786 1.379 . S
C780 N788 1.356 . S
C781 C780 1.363 . S
C781 C787 1.363 . S
C782 C783 1.363 . S
C782 C787 1.379 . S
C782 N789 1.356 . S
C783 C782 1.363 . S
C783 C786 1.363 . S
N784 C786 1.356 . S
N784 H796 0.984 . S
N784 H797 0.985 . S
N785 C787 1.356 . S
N785 H790 0.984 . S
N785 H791 0.985 . S
C786 C780 1.379 . S
C786 C783 1.363 . S
C786 N784 1.356 . S
C787 C781 1.363 . S
C787 C782 1.379 . S
C787 N785 1.356 . S
N788 C780 1.356 . S
N788 H794 0.984 . S
N788 H795 0.984 . S
N789 C782 1.356 . S
N789 H792 0.984 . S
N789 H793 0.985 . S
H790 N785 0.984 . S
H791 N785 0.985 . S
H792 N789 0.984 . S
H793 N789 0.985 . S
H794 N788 0.984 . S
H795 N788 0.984 . S
H796 N784 0.984 . S
H797 N784 0.985 . S
C798 C799 1.363 . S
C798 C804 1.379 . S
C798 N806 1.356 . S
C799 C798 1.363 . S
C799 C805 1.363 . S
C800 C801 1.363 . S
C800 C805 1.379 . S
C800 N807 1.356 . S
C801 C800 1.363 . S
C801 C804 1.363 . S
N802 C804 1.356 . S
N802 H814 0.984 . S
N802 H815 0.985 . S
N803 C805 1.356 . S
N803 H808 0.984 . S
N803 H809 0.985 . S
C804 C798 1.379 . S
C804 C801 1.363 . S
C804 N802 1.356 . S
C805 C799 1.363 . S
C805 C800 1.379 . S
C805 N803 1.356 . S
N806 C798 1.356 . S
N806 H812 0.984 1_556 S
N806 H813 0.984 . S
N807 C800 1.356 . S
N807 H810 0.984 . S
N807 H811 0.985 . S
H808 N803 0.984 . S
H809 N803 0.985 . S
H810 N807 0.984 . S
H811 N807 0.985 . S
H812 N806 0.984 1_554 S
H813 N806 0.984 . S
H814 N802 0.984 . S
H815 N802 0.985 . S
C816 C817 1.363 . S
C816 C822 1.379 . S
C816 N824 1.356 . S
C817 C816 1.363 . S
C817 C823 1.363 . S
C818 C819 1.363 . S
C818 C823 1.379 . S
C818 N825 1.356 . S
C819 C818 1.363 . S
C819 C822 1.363 . S
N820 C822 1.356 . S
N820 H832 0.984 . S
N820 H833 0.985 . S
N821 C823 1.356 . S
N821 H826 0.984 . S
N821 H827 0.985 . S
C822 C816 1.379 . S
C822 C819 1.363 . S
C822 N820 1.356 . S
C823 C817 1.363 . S
C823 C818 1.379 . S
C823 N821 1.356 . S
N824 C816 1.356 . S
N824 H830 0.984 . S
N824 H831 0.984 . S
N825 C818 1.356 . S
N825 H828 0.984 . S
N825 H829 0.985 . S
H826 N821 0.984 . S
H827 N821 0.985 . S
H828 N825 0.984 . S
H829 N825 0.985 . S
H830 N824 0.984 . S
H831 N824 0.984 . S
H832 N820 0.984 . S
H833 N820 0.985 . S
C834 C835 1.363 . S
C834 C840 1.379 . S
C834 N842 1.356 . S
C835 C834 1.363 . S
C835 C841 1.363 . S
C836 C837 1.363 . S
C836 C841 1.379 . S
C836 N843 1.356 . S
C837 C836 1.363 . S
C837 C840 1.363 . S
N838 C840 1.356 . S
N838 H850 0.984 . S
N838 H851 0.985 . S
N839 C841 1.356 . S
N839 H844 0.984 . S
N839 H845 0.985 . S
C840 C834 1.379 . S
C840 C837 1.363 . S
C840 N838 1.356 . S
C841 C835 1.363 . S
C841 C836 1.379 . S
C841 N839 1.356 . S
N842 C834 1.356 . S
N842 H848 0.984 . S
N842 H849 0.984 . S
N843 C836 1.356 . S
N843 H846 0.984 . S
N843 H847 0.985 . S
H844 N839 0.984 . S
H845 N839 0.985 . S
H846 N843 0.984 . S
H847 N843 0.985 . S
H848 N842 0.984 . S
H849 N842 0.984 . S
H850 N838 0.984 . S
H851 N838 0.985 . S
C852 C853 1.363 . S
C852 C858 1.379 . S
C852 N860 1.356 . S
C853 C852 1.363 . S
C853 C859 1.363 . S
C854 C855 1.363 . S
C854 C859 1.379 . S
C854 N861 1.356 . S
C855 C854 1.363 . S
C855 C858 1.363 . S
N856 C858 1.356 . S
N856 H868 0.984 . S
N856 H869 0.985 . S
N857 C859 1.356 . S
N857 H862 0.984 . S
N857 H863 0.985 1_554 S
C858 C852 1.379 . S
C858 C855 1.363 . S
C858 N856 1.356 . S
C859 C853 1.363 . S
C859 C854 1.379 . S
C859 N857 1.356 . S
N860 C852 1.356 . S
N860 H866 0.984 . S
N860 H867 0.984 . S
N861 C854 1.356 . S
N861 H864 0.984 . S
N861 H865 0.985 . S
H862 N857 0.984 . S
H863 N857 0.985 1_556 S
H864 N861 0.984 . S
H865 N861 0.985 . S
H866 N860 0.984 . S
H867 N860 0.984 . S
H868 N856 0.984 . S
H869 N856 0.985 . S
C870 C871 1.363 . S
C870 C876 1.379 1_455 S
C870 N878 1.356 . S
C871 C870 1.363 . S
C871 C877 1.363 1_455 S
C872 C873 1.363 . S
C872 C877 1.379 . S
C872 N879 1.356 . S
C873 C872 1.363 . S
C873 C876 1.363 . S
N874 C876 1.356 . S
N874 H886 0.984 1_655 S
N874 H887 0.985 . S
N875 C877 1.356 . S
N875 H880 0.985 . S
N875 H881 0.985 . S
C876 C870 1.379 1_655 S
C876 C873 1.363 . S
C876 N874 1.356 . S
C877 C871 1.363 1_655 S
C877 C872 1.379 . S
C877 N875 1.356 . S
N878 C870 1.356 . S
N878 H884 0.984 . S
N878 H885 0.984 . S
N879 C872 1.356 . S
N879 H882 0.984 . S
N879 H883 0.985 . S
H880 N875 0.985 . S
H881 N875 0.985 . S
H882 N879 0.984 . S
H883 N879 0.985 . S
H884 N878 0.984 . S
H885 N878 0.984 . S
H886 N874 0.984 1_455 S
H887 N874 0.985 . S
C888 C889 1.363 . S
C888 C894 1.379 . S
C888 N896 1.356 . S
C889 C888 1.363 . S
C889 C895 1.363 . S
C890 C891 1.363 . S
C890 C895 1.379 . S
C890 N897 1.356 . S
C891 C890 1.363 . S
C891 C894 1.363 . S
N892 C894 1.356 . S
N892 H904 0.984 . S
N892 H905 0.985 . S
N893 C895 1.356 . S
N893 H898 0.984 . S
N893 H899 0.985 1_565 S
C894 C888 1.379 . S
C894 C891 1.363 . S
C894 N892 1.356 . S
C895 C889 1.363 . S
C895 C890 1.379 . S
C895 N893 1.356 . S
N896 C888 1.356 . S
N896 H902 0.984 . S
N896 H903 0.984 . S
N897 C890 1.356 . S
N897 H900 0.984 . S
N897 H901 0.985 . S
H898 N893 0.984 . S
H899 N893 0.985 1_545 S
H900 N897 0.984 . S
H901 N897 0.985 . S
H902 N896 0.984 . S
H903 N896 0.984 . S
H904 N892 0.984 . S
H905 N892 0.985 . S
C906 C907 1.363 . S
C906 C912 1.379 . S
C906 N914 1.356 . S
C907 C906 1.363 . S
C907 C913 1.363 . S
C908 C909 1.363 . S
C908 C913 1.379 . S
C908 N915 1.356 . S
C909 C908 1.363 . S
C909 C912 1.363 . S
N910 C912 1.356 . S
N910 H922 0.984 . S
N910 H923 0.985 . S
N911 C913 1.356 . S
N911 H916 0.984 . S
N911 H917 0.985 . S
C912 C906 1.379 . S
C912 C909 1.363 . S
C912 N910 1.356 . S
C913 C907 1.363 . S
C913 C908 1.379 . S
C913 N911 1.356 . S
N914 C906 1.356 . S
N914 H920 0.984 . S
N914 H921 0.984 . S
N915 C908 1.356 . S
N915 H918 0.984 . S
N915 H919 0.985 . S
H916 N911 0.984 . S
H917 N911 0.985 . S
H918 N915 0.984 . S
H919 N915 0.985 . S
H920 N914 0.984 . S
H921 N914 0.984 . S
H922 N910 0.984 . S
H923 N910 0.985 . S
C924 C925 1.363 . S
C924 C930 1.379 . S
C924 N932 1.356 . S
C925 C924 1.363 . S
C925 C931 1.363 . S
C926 C927 1.363 . S
C926 C931 1.379 . S
C926 N933 1.356 . S
C927 C926 1.363 . S
C927 C930 1.363 . S
N928 C930 1.356 . S
N928 H940 0.984 . S
N928 H941 0.985 . S
N929 C931 1.356 . S
N929 H934 0.984 . S
N929 H935 0.985 . S
C930 C924 1.379 . S
C930 C927 1.363 . S
C930 N928 1.356 . S
C931 C925 1.363 . S
C931 C926 1.379 . S
C931 N929 1.356 . S
N932 C924 1.356 . S
N932 H938 0.984 . S
N932 H939 0.984 . S
N933 C926 1.356 . S
N933 H936 0.984 . S
N933 H937 0.985 . S
H934 N929 0.984 . S
H935 N929 0.985 . S
H936 N933 0.984 . S
H937 N933 0.985 . S
H938 N932 0.984 . S
H939 N932 0.984 . S
H940 N928 0.984 . S
H941 N928 0.985 . S
C511 C7 1.805 . S
C513 C191 1.707 . S
C529 C30 1.766 . S
C531 C235 1.719 . S
C549 C315 1.690 . S
C547 N58 1.667 . S
C567 C359 1.420 . S
C565 N81 1.390 1_655 S
C585 C439 1.795 . S
C583 C99 1.864 . S
C603 C495 1.645 . S
C601 N127 1.707 . S
C619 N25 1.947 . S
C621 C291 1.773 . S
C637 C62 1.595 . S
C639 C371 1.517 . S
C657 C415 1.848 . S
C655 C85 2.035 . S
C675 C483 1.618 . S
C673 N94 1.598 . S
C691 C131 1.810 . S
C693 C167 1.694 . S
C711 C247 1.723 . S
C709 N2 1.683 1_556 S
C729 C353 1.839 . S
C727 C16 1.948 . S
C745 C39 1.621 . S
C747 C433 1.436 . S
C765 C501 1.685 . S
C763 N48 1.642 . S
C781 N71 1.543 . S
C783 C185 1.508 . S
C799 C108 1.736 . S
C801 C229 1.662 . S
C817 N117 1.785 . S
C819 C309 1.568 . S
C835 N35 1.911 . S
C837 C477 1.803 . S
C855 C173 1.583 . S
C853 C53 1.705 . S
C871 C76 1.827 . S
C873 C253 1.743 . S
C889 N104 1.437 . S
C891 C297 1.410 . S
C907 C122 1.836 . S
C909 C377 1.791 . S
C925 N12 1.408 . S
C927 C421 1.397 . S
