# Generated by pormake.
# Topology rtl, (3,6)-cn, num edge types: 1
# Building blocks:
#     Node 0, Type 0, BuildingBlock: PAMTOO_clean_linker_0, # of connection points: 3
#     Node 1, Type 0, BuildingBlock: PAMTOO_clean_linker_0, # of connection points: 3
#     Node 2, Type 0, BuildingBlock: PAMTOO_clean_linker_0, # of connection points: 3
#     Node 3, Type 0, BuildingBlock: PAMTOO_clean_linker_0, # of connection points: 3
#     Node 4, Type 1, BuildingBlock: KUMBUR_clean_sbu_1, # of connection points: 6
#     Node 5, Type 1, BuildingBlock: KUMBUR_clean_sbu_1, # of connection points: 6
#     Edge 6, Type (0, 1), BuildingBlock: AJUNOK_clean_linker_0, # of connection points: 2
#     Edge 7, Type (0, 1), BuildingBlock: AJUNOK_clean_linker_0, # of connection points: 2
#     Edge 8, Type (0, 1), BuildingBlock: AJUNOK_clean_linker_0, # of connection points: 2
#     Edge 9, Type (0, 1), BuildingBlock: AJUNOK_clean_linker_0, # of connection points: 2
#     Edge 10, Type (0, 1), BuildingBlock: AJUNOK_clean_linker_0, # of connection points: 2
#     Edge 11, Type (0, 1), BuildingBlock: AJUNOK_clean_linker_0, # of connection points: 2
#     Edge 12, Type (0, 1), BuildingBlock: AJUNOK_clean_linker_0, # of connection points: 2
#     Edge 13, Type (0, 1), BuildingBlock: AJUNOK_clean_linker_0, # of connection points: 2
#     Edge 14, Type (0, 1), BuildingBlock: AJUNOK_clean_linker_0, # of connection points: 2
#     Edge 15, Type (0, 1), BuildingBlock: AJUNOK_clean_linker_0, # of connection points: 2
#     Edge 16, Type (0, 1), BuildingBlock: AJUNOK_clean_linker_0, # of connection points: 2
#     Edge 17, Type (0, 1), BuildingBlock: AJUNOK_clean_linker_0, # of connection points: 2
# Relax obj value: 0.053
# Max RMSD: 0.237
# Mean RMSD: 0.175
data_MOF--net-rtl--node1-KUMBUR_clean_sbu_1--node2-PAMTOO_clean_linker_0--edge1-AJUNOK_clean_linker_0
_symmetry_space_group_name_H-M    P1
_symmetry_Int_Tables_number       1
_symmetry_cell_setting            triclinic
loop_
_symmetry_equiv_pos_as_xyz
'x, y, z'
_cell_length_a     25.826604
_cell_length_b     26.39091
_cell_length_c     20.475953
_cell_angle_alpha  75.159503
_cell_angle_beta   98.245796
_cell_angle_gamma 91.456863
loop_
_atom_site_label
_atom_site_type_symbol
_atom_site_fract_x
_atom_site_fract_y
_atom_site_fract_z
_atom_type_partial_charge
H0 H 0.16717 0.92997 0.99095 0.0
H1 H 0.27358 0.81994 0.13729 0.0
H2 H 0.25977 0.82559 0.92349 0.0
H3 H 0.26436 0.72205 0.01555 0.0
C4 C 0.29509 0.72786 0.05695 0.0
O5 O 0.30816 0.78017 0.0456 0.0
H6 H 0.27871 0.71523 0.1059 0.0
C7 C 0.19735 0.89984 1.00249 0.0
C8 C 0.21143 0.88107 0.94954 0.0
C9 C 0.21938 0.87832 0.07035 0.0
C10 C 0.25643 0.83729 0.08504 0.0
C11 C 0.27153 0.81872 0.0319 0.0
C12 C 0.24877 0.84054 0.96423 0.0
H13 H 0.63886 0.63779 0.68475 0.0
H14 H 0.76382 0.73799 0.61125 0.0
H15 H 0.73784 0.71334 0.81909 0.0
H16 H 0.78218 0.82585 0.76113 0.0
C17 C 0.78782 0.81661 0.7126 0.0
O18 O 0.79473 0.76298 0.72484 0.0
H19 H 0.75166 0.8303 0.67599 0.0
C20 C 0.67099 0.66364 0.69329 0.0
C21 C 0.68476 0.67258 0.75849 0.0
C22 C 0.69892 0.68744 0.63939 0.0
C23 C 0.7409 0.72035 0.65145 0.0
C24 C 0.75448 0.73036 0.71545 0.0
C25 C 0.72681 0.706 0.76927 0.0
H26 H 0.91462 0.12251 0.14167 0.0
H27 H 0.80038 0.24112 0.02877 0.0
H28 H 0.82693 0.20425 0.24746 0.0
H29 H 0.71688 0.22386 0.19083 0.0
C30 C 0.72074 0.25057 0.14005 0.0
O31 O 0.77276 0.26271 0.13665 0.0
H32 H 0.70566 0.22946 0.10073 0.0
C33 C 0.88539 0.1517 0.14014 0.0
C34 C 0.87381 0.15997 0.20164 0.0
C35 C 0.85921 0.18083 0.07703 0.0
C36 C 0.82073 0.21787 0.07665 0.0
C37 C 0.80892 0.22609 0.13788 0.0
C38 C 0.83567 0.1973 0.20023 0.0
H39 H 0.42828 0.38558 0.4711 0.0
H40 H 0.32014 0.27006 0.56011 0.0
H41 H 0.33711 0.29541 0.34875 0.0
H42 H 0.22392 0.26273 0.38137 0.0
C43 C 0.23628 0.24893 0.43734 0.0
O44 O 0.28971 0.23956 0.44984 0.0
H45 H 0.22609 0.28093 0.45991 0.0
C46 C 0.39933 0.35575 0.46653 0.0
C47 C 0.38569 0.34365 0.40338 0.0
C48 C 0.37551 0.32994 0.52342 0.0
C49 C 0.33899 0.29044 0.51693 0.0
C50 C 0.32503 0.27792 0.45436 0.0
C51 C 0.3481 0.30488 0.39731 0.0
Tb52 Tb 0.0592 0.95551 0.53919 0.0
C53 C 0.93498 0.15168 0.50681 0.0
N54 N 0.98452 0.14357 0.54079 0.0
C55 C 1.00901 0.2288 0.47931 0.0
C56 C 0.92095 0.19811 0.45579 0.0
C57 C 0.02127 0.18166 0.52884 0.0
C58 C 0.95877 0.23688 0.44216 0.0
C59 C 0.84686 0.11942 0.4896 0.0
C60 C 0.89886 0.11242 0.52285 0.0
C61 C 0.83287 0.1649 0.43709 0.0
C62 C 0.86988 0.20414 0.42016 0.0
Tb63 Tb 1.00166 0.06406 0.61752 0.0
N64 N 0.91423 0.06851 0.57313 0.0
C65 C 0.81015 0.08136 0.51173 0.0
C66 C 0.87706 0.03496 0.60015 0.0
C67 C 0.82506 0.03967 0.5685 0.0
H68 H 0.06005 0.17555 0.55742 0.0
H69 H 0.79629 0.01179 0.58888 0.0
H70 H 0.9733 0.85953 0.53892 0.0
H71 H 0.25898 0.95774 0.6615 0.0
H72 H 0.88663 1.00525 0.64723 0.0
H73 H 0.76975 0.08521 0.48767 0.0
H74 H 0.17821 0.99651 0.58899 0.0
H75 H 0.0384 0.25868 0.46946 0.0
H76 H 0.79328 0.1706 0.41028 0.0
H77 H 0.85841 0.23926 0.38011 0.0
H78 H 0.97035 0.76453 0.59165 0.0
H79 H 0.94957 0.27317 0.40331 0.0
H80 H 0.26396 0.8627 0.71738 0.0
N81 N 0.05156 0.86756 0.58397 0.0
C82 C 0.0952 0.84264 0.62276 0.0
C83 C 1.00564 0.78609 0.6011 0.0
C84 C 0.09561 0.78826 0.65292 0.0
C85 C 1.00719 0.8401 0.57208 0.0
C86 C 0.05 0.76004 0.6418 0.0
N87 N 0.13643 0.92486 0.60587 0.0
C88 C 0.17925 0.95531 0.61374 0.0
C89 C 0.18491 0.84818 0.67506 0.0
C90 C 0.13928 0.87215 0.63363 0.0
C91 C 0.22819 0.87957 0.68566 0.0
C92 C 0.22544 0.93328 0.65445 0.0
H93 H 0.04866 0.71821 0.66422 0.0
H94 H 0.14224 0.72228 0.71749 0.0
H95 H 0.22037 0.77478 0.73703 0.0
O96 O 0.11011 0.97058 0.46563 0.0
O97 O 0.0688 0.94111 0.6505 0.0
O98 O 0.07308 0.02219 0.67441 0.0
O99 O 0.05193 0.91081 0.46656 0.0
O100 O 0.09376 0.0345 0.51732 0.0
O101 O 0.08442 0.07486 0.6037 0.0
O102 O 0.96876 0.05803 0.70774 0.0
O103 O 1.00258 0.07831 0.50697 0.0
O104 O 0.98857 0.99867 0.48242 0.0
O105 O 1.01549 0.12381 0.6691 0.0
O106 O 0.97589 0.98189 0.64701 0.0
O107 O 0.97617 0.95067 0.55158 0.0
C108 C 0.08328 0.97156 0.69131 0.0
C109 C 0.07904 0.95291 0.36082 0.0
C110 C 0.10591 0.95338 0.2514 0.0
C111 C 0.06552 0.98971 0.21844 0.0
C112 C 0.03905 0.98919 0.32734 0.0
C113 C 0.03229 1.00742 0.25633 0.0
C114 C 0.11213 0.93484 0.32276 0.0
C115 C 0.10639 0.07097 0.5506 0.0
C116 C 0.0891 0.93575 0.43545 0.0
C117 C 0.14118 0.76402 0.69376 0.0
C118 C 0.18568 0.79393 0.70491 0.0
C119 C 0.98297 0.04982 0.46578 0.0
C120 C 0.94721 0.13836 0.72824 0.0
C121 C 0.90205 0.16825 0.80922 0.0
C122 C 0.87318 0.20419 0.75402 0.0
C123 C 0.91808 0.17485 0.67428 0.0
C124 C 0.93907 0.13515 0.7958 0.0
C125 C 0.88124 0.20741 0.68717 0.0
C126 C 0.95891 0.9493 0.6095 0.0
C127 C 0.9858 0.10328 0.71481 0.0
H128 H 0.05941 1.00404 0.16335 0.0
H129 H 1.01344 1.00354 0.35607 0.0
H130 H 1.00136 0.03545 0.23065 0.0
H131 H 0.14346 0.90724 0.34879 0.0
H132 H 0.84477 0.2304 0.76267 0.0
H133 H 0.92385 0.17846 0.62221 0.0
H134 H 0.9611 0.10665 0.83763 0.0
H135 H 0.859 0.23545 0.64515 0.0
Tb136 Tb 0.47718 0.48762 0.015 0.0
C137 C 0.68091 0.59733 0.08357 0.0
N138 N 0.66642 0.54878 0.11699 0.0
C139 C 0.75117 0.51429 0.11594 0.0
C140 C 0.73113 0.60606 0.06391 0.0
C141 C 0.7008 0.50748 0.13414 0.0
C142 C 0.76637 0.56373 0.08048 0.0
C143 C 0.65797 0.68881 0.03314 0.0
C144 C 0.64449 0.63795 0.06795 0.0
C145 C 0.70771 0.69765 1.01238 0.0
C146 C 0.74421 0.65639 0.02779 0.0
Tb147 Tb 0.58363 0.54203 0.14449 0.0
N148 N 0.59641 0.62774 0.08818 0.0
C149 C 0.62154 0.72953 0.02164 0.0
C150 C 0.56292 0.66843 0.08264 0.0
C151 C 0.57423 0.71943 0.04768 0.0
H152 H 0.68956 0.4694 0.16243 0.0
H153 H 0.54692 0.75118 0.04224 0.0
H154 H 0.37589 0.56965 0.96646 0.0
H155 H 0.49176 0.28083 0.1458 0.0
H156 H 0.52824 0.66276 0.107 0.0
H157 H 0.63037 0.76918 0.99515 0.0
H158 H 0.52192 0.36347 0.07708 0.0
H159 H 0.77828 0.48142 0.12937 0.0
H160 H 0.71857 0.73641 0.98514 0.0
H161 H 0.78248 0.66386 1.01174 0.0
H162 H 0.28358 0.5701 0.98526 0.0
H163 H 0.80535 0.56879 0.06623 0.0
H164 H 0.40224 0.27475 0.17661 0.0
N165 N 0.39058 0.49135 0.02561 0.0
C166 C 0.36999 0.44671 0.06157 0.0
C167 C 0.30754 0.53518 1.00729 0.0
C168 C 0.3173 0.44472 0.07253 0.0
C169 C 0.36004 0.5351 0.99753 0.0
C170 C 0.28609 0.48986 0.04516 0.0
N171 N 0.45301 0.40667 0.0754 0.0
C172 C 0.48413 0.36283 0.09323 0.0
C173 C 0.38263 0.3557 0.12485 0.0
C174 C 0.40233 0.40287 0.08754 0.0
C175 C 0.41583 0.31179 0.14775 0.0
C176 C 0.4665 0.31518 0.13085 0.0
H177 H 0.24542 0.49004 0.05267 0.0
H178 H 0.25744 0.39584 0.12033 0.0
H179 H 0.31461 0.31788 0.16607 0.0
O180 O 0.49263 0.44583 0.94465 0.0
O181 O 0.45999 0.48302 0.11881 0.0
O182 O 0.53876 0.47334 0.19002 0.0
O183 O 0.42838 0.50022 0.92041 0.0
O184 O 0.55617 0.45148 0.04208 0.0
O185 O 0.58958 0.45834 0.15105 0.0
O186 O 0.57639 0.58002 0.22189 0.0
O187 O 0.60087 0.54224 0.04167 0.0
O188 O 0.52201 0.55692 0.972 0.0
O189 O 0.6383 0.5246 0.23418 0.0
O190 O 0.50289 0.5734 0.12261 0.0
O191 O 0.47341 0.57121 1.01125 0.0
C192 C 0.48814 0.46538 0.17884 0.0
C193 C 0.41819 0.42682 0.87364 0.0
C194 C 0.3927 0.38 0.78545 0.0
C195 C 0.3548 0.35313 0.8237 0.0
C196 C 0.37944 0.4 0.91003 0.0
C197 C 0.34818 0.36326 0.88545 0.0
C198 C 0.42456 0.41692 0.81081 0.0
C199 C 0.58842 0.4362 0.09997 0.0
C200 C 0.45189 0.46499 0.90078 0.0
C201 C 0.29774 0.39806 0.11083 0.0
C202 C 0.33035 0.3537 0.13704 0.0
C203 C 0.57308 0.56218 0.98192 0.0
C204 C 0.65578 0.59382 0.28804 0.0
C205 C 0.68382 0.64059 0.37569 0.0
C206 C 0.72597 0.66114 0.34109 0.0
C207 C 0.69857 0.61444 0.25504 0.0
C208 C 0.64879 0.60666 0.34894 0.0
C209 C 0.73322 0.64807 0.28123 0.0
C210 C 0.47108 0.58984 0.06467 0.0
C211 C 0.61869 0.55849 0.26016 0.0
H212 H 0.32955 0.32493 0.80507 0.0
H213 H 0.37289 0.40754 0.95715 0.0
H214 H 0.31845 0.34285 0.91418 0.0
H215 H 0.45423 0.43757 0.78204 0.0
H216 H 0.754 0.68653 0.3612 0.0
H217 H 0.70581 0.60416 0.2096 0.0
H218 H 0.61621 0.59048 0.37529 0.0
H219 H 0.76615 0.66362 0.2554 0.0
C220 C 0.19663 0.18925 0.53523 0.0
C221 C 0.20691 0.19991 0.4674 0.0
C222 C 0.16561 0.14659 0.56242 0.0
C223 C 0.14378 0.11257 0.52302 0.0
H224 H 0.21156 0.21499 0.56698 0.0
H225 H 0.15782 0.14097 0.61437 0.0
S226 S 0.16326 0.12107 0.34392 0.0
N227 N 0.19612 0.17111 0.3629 0.0
N228 N 0.13797 0.09121 0.41315 0.0
C229 C 0.15601 0.12154 0.45593 0.0
C230 C 0.18752 0.16504 0.4284 0.0
C231 C 0.36505 0.66025 0.11988 0.0
C232 C 0.34258 0.69491 0.05856 0.0
C233 C 0.40732 0.62733 0.12151 0.0
C234 C 0.42864 0.62764 0.06185 0.0
H235 H 0.34927 0.6579 0.16679 0.0
H236 H 0.4225 0.60046 0.16966 0.0
S237 S 0.38658 0.71428 0.88943 0.0
N238 N 0.34646 0.72967 0.93758 0.0
N239 N 0.42622 0.66816 0.94059 0.0
C240 C 0.40761 0.66334 1.00065 0.0
C241 C 0.36455 0.69686 0.99904 0.0
C242 C 0.87528 0.86067 0.72941 0.0
C243 C 0.83455 0.84594 0.68479 0.0
C244 C 0.91612 0.89268 0.70448 0.0
C245 C 0.91824 0.91081 0.63393 0.0
H246 H 0.87469 0.84871 0.784 0.0
H247 H 0.94582 0.90411 0.74087 0.0
S248 S 0.82281 0.8804 0.4959 0.0
N249 N 0.80039 0.84928 0.5669 0.0
N250 N 0.87678 0.90976 0.51991 0.0
C251 C 0.87895 0.89445 0.58886 0.0
C252 C 0.83729 0.86187 0.61433 0.0
C253 C 0.67449 0.3156 0.18452 0.0
C254 C 0.68868 0.30001 0.1287 0.0
C255 C 0.64278 0.36011 0.17479 0.0
C256 C 0.62411 0.39081 0.10884 0.0
H257 H 0.68731 0.2927 0.23611 0.0
H258 H 0.63197 0.36985 0.21936 0.0
S259 S 0.65488 0.36948 0.94612 0.0
N260 N 0.68509 0.32066 1.00565 0.0
N261 N 0.62554 0.40426 0.98698 0.0
C262 C 0.63959 0.37654 0.05269 0.0
C263 C 0.67202 0.33132 0.06273 0.0
C264 C 0.1766 0.86208 0.17602 0.0
C265 C 0.19978 0.89724 0.12466 0.0
C266 C 0.14785 0.88046 0.21875 0.0
C267 C 0.14118 0.93456 0.21119 0.0
H268 H 0.17819 0.8203 0.18067 0.0
H269 H 0.12868 0.85224 0.25576 0.0
S270 S 0.20096 0.04215 0.09165 0.0
N271 N 0.21931 0.98821 0.07402 0.0
N272 N 0.16514 0.02265 0.15398 0.0
C273 C 0.16691 0.96985 0.16294 0.0
C274 C 0.19631 0.95121 0.11984 0.0
C275 C 0.68143 0.60918 0.87248 0.0
C276 C 0.65575 0.64595 0.81544 0.0
C277 C 0.65418 0.58172 0.92522 0.0
C278 C 0.60046 0.5909 0.92406 0.0
H279 H 0.72268 0.60075 0.87564 0.0
H280 H 0.67539 0.55256 0.96688 0.0
S281 S 0.51586 0.68514 0.78678 0.0
N282 N 0.57387 0.69057 0.76074 0.0
N283 N 0.52303 0.64069 0.8608 0.0
C284 C 0.57451 0.62803 0.86733 0.0
C285 C 0.60209 0.65524 0.81302 0.0
C286 C 0.88345 0.08403 0.30511 0.0
C287 C 0.90297 0.13105 0.26756 0.0
C288 C 0.9102 0.05706 0.36882 0.0
C289 C 0.9568 0.07681 0.39709 0.0
H290 H 0.84715 0.0683 0.28529 0.0
H291 H 0.8937 0.0213 0.39685 0.0
S292 S 0.02526 0.19683 0.31661 0.0
N293 N 0.97235 0.19504 0.26137 0.0
N294 N 0.02251 0.14477 0.38106 0.0
C295 C 0.97694 0.12339 0.35934 0.0
C296 C 0.95001 0.15046 0.2945 0.0
C297 C 0.39653 0.30533 0.65094 0.0
C298 C 0.3872 0.34471 0.58942 0.0
C299 C 0.40122 0.31749 0.71422 0.0
C300 C 0.397 0.36953 0.71857 0.0
H301 H 0.39889 0.26456 0.65017 0.0
H302 H 0.40658 0.28571 0.76024 0.0
S303 S 0.37419 0.48736 0.57308 0.0
N304 N 0.37521 0.4382 0.53701 0.0
N305 N 0.38462 0.46094 0.65625 0.0
C306 C 0.39 0.40956 0.65769 0.0
C307 C 0.38496 0.39719 0.59306 0.0
C308 C 0.68222 0.62445 0.56522 0.0
C309 C 0.68644 0.67648 0.57107 0.0
C310 C 0.67829 0.61308 0.50125 0.0
C311 C 0.67858 0.65335 0.44105 0.0
H312 H 0.68464 0.59217 0.61059 0.0
H313 H 0.67781 0.57244 0.49926 0.0
S314 S 0.68025 0.79619 0.42763 0.0
N315 N 0.68408 0.76873 0.51028 0.0
N316 N 0.67738 0.7473 0.39054 0.0
C317 C 0.67943 0.70554 0.44588 0.0
C318 C 0.68319 0.71711 0.51073 0.0
C319 C 0.83108 0.16866 0.95958 0.0
C320 C 0.87181 0.17325 1.01126 0.0
C321 C 0.84141 0.16524 0.89543 0.0
C322 C 0.89293 0.16623 0.88013 0.0
H323 H 0.79072 0.16819 0.96856 0.0
H324 H 0.80865 0.16245 0.85709 0.0
S325 S 1.01369 0.178 0.99729 0.0
N326 N 0.96588 0.17851 0.04272 0.0
N327 N 0.98524 0.17192 0.92217 0.0
C328 C 0.93417 0.16953 0.93178 0.0
C329 C 0.92363 0.17309 0.99725 0.0
C330 C 0.46232 0.36246 0.33867 0.0
C331 C 0.41017 0.37303 0.34382 0.0
C332 C 0.48749 0.39271 0.28543 0.0
C333 C 0.46143 0.43477 0.23577 0.0
H334 H 0.48384 0.33076 0.37634 0.0
H335 H 0.52748 0.38283 0.28284 0.0
S336 S 0.32615 0.4813 0.23098 0.0
N337 N 0.33419 0.42965 0.29727 0.0
N338 N 0.38154 0.48734 0.19828 0.0
C339 C 0.40946 0.44609 0.24122 0.0
C340 C 0.38383 0.41503 0.29501 0.0
C341 C 0.1864 0.95545 0.84737 0.0
C342 C 0.18319 0.90193 0.88015 0.0
C343 C 0.15378 0.97792 0.78634 0.0
C344 C 0.11645 0.94768 0.75663 0.0
H345 H 0.21372 0.98022 0.86982 0.0
H346 H 0.15787 0.01918 0.76234 0.0
S347 S 0.08987 0.80662 0.82642 0.0
N348 N 0.13898 0.81975 0.8805 0.0
N349 N 0.07634 0.86196 0.7671 0.0
C350 C 0.11269 0.89412 0.78953 0.0
C351 C 0.14644 0.87122 0.85096 0.0
loop_
_geom_bond_atom_site_label_1
_geom_bond_atom_site_label_2
_geom_bond_distance
_geom_bond_site_symmetry_2
_ccdc_geom_bond_type
H0 C7 0.929 . S
H1 C10 0.930 . S
H2 C12 0.929 . S
H3 C4 0.969 . S
C4 H3 0.969 . S
C4 O5 1.550 . S
C4 H6 0.973 . S
O5 C4 1.550 . S
O5 C11 1.412 . S
H6 C4 0.973 . S
C7 H0 0.929 . S
C7 C8 1.400 1_554 S
C7 C9 1.364 . S
C8 C7 1.400 1_556 S
C8 C12 1.377 . S
C9 C7 1.364 . S
C9 C10 1.374 . S
C10 H1 0.930 . S
C10 C9 1.374 . S
C10 C11 1.383 . S
C11 O5 1.412 . S
C11 C10 1.383 . S
C11 C12 1.394 1_554 S
C12 H2 0.929 . S
C12 C8 1.377 . S
C12 C11 1.394 1_556 S
H13 C20 0.929 . S
H14 C23 0.930 . S
H15 C25 0.929 . S
H16 C17 0.969 . S
C17 H16 0.969 . S
C17 O18 1.550 . S
C17 H19 0.973 . S
O18 C17 1.550 . S
O18 C24 1.412 . S
H19 C17 0.973 . S
C20 H13 0.929 . S
C20 C21 1.400 . S
C20 C22 1.364 . S
C21 C20 1.400 . S
C21 C25 1.377 . S
C22 C20 1.364 . S
C22 C23 1.374 . S
C23 H14 0.930 . S
C23 C22 1.374 . S
C23 C24 1.383 . S
C24 O18 1.412 . S
C24 C23 1.383 . S
C24 C25 1.394 . S
C25 H15 0.929 . S
C25 C21 1.377 . S
C25 C24 1.394 . S
H26 C33 0.929 . S
H27 C36 0.930 . S
H28 C38 0.929 . S
H29 C30 0.969 . S
C30 H29 0.969 . S
C30 O31 1.550 . S
C30 H32 0.973 . S
O31 C30 1.550 . S
O31 C37 1.412 . S
H32 C30 0.973 . S
C33 H26 0.929 . S
C33 C34 1.400 . S
C33 C35 1.364 . S
C34 C33 1.400 . S
C34 C38 1.377 . S
C35 C33 1.364 . S
C35 C36 1.374 . S
C36 H27 0.930 . S
C36 C35 1.374 . S
C36 C37 1.383 . S
C37 O31 1.412 . S
C37 C36 1.383 . S
C37 C38 1.394 . S
C38 H28 0.929 . S
C38 C34 1.377 . S
C38 C37 1.394 . S
H39 C46 0.929 . S
H40 C49 0.930 . S
H41 C51 0.929 . S
H42 C43 0.969 . S
C43 H42 0.969 . S
C43 O44 1.550 . S
C43 H45 0.973 . S
O44 C43 1.550 . S
O44 C50 1.412 . S
H45 C43 0.973 . S
C46 H39 0.929 . S
C46 C47 1.400 . S
C46 C48 1.364 . S
C47 C46 1.400 . S
C47 C51 1.377 . S
C48 C46 1.364 . S
C48 C49 1.374 . S
C49 H40 0.930 . S
C49 C48 1.374 . S
C49 C50 1.383 . S
C50 O44 1.412 . S
C50 C49 1.383 . S
C50 C51 1.394 . S
C51 H41 0.929 . S
C51 C47 1.377 . S
C51 C50 1.394 . S
Tb52 N81 2.617 . S
Tb52 N87 2.572 . S
Tb52 O96 2.465 . S
Tb52 O97 2.387 . S
Tb52 O99 2.428 . S
Tb52 O100 2.308 1_565 S
Tb52 O104 2.349 1_465 S
Tb52 O107 2.393 1_455 S
Tb52 C116 2.802 . S
C53 N54 1.379 . S
C53 C56 1.416 . S
C53 C60 1.424 . S
N54 C53 1.379 . S
N54 C57 1.334 1_655 S
N54 Tb63 2.617 . S
C55 C57 1.390 . S
C55 C58 1.339 1_455 S
C55 H75 0.930 . S
C56 C53 1.416 . S
C56 C58 1.416 . S
C56 C62 1.448 . S
C57 N54 1.334 1_455 S
C57 C55 1.390 . S
C57 H68 0.930 . S
C58 C55 1.339 1_655 S
C58 C56 1.416 . S
C58 H79 0.930 . S
C59 C60 1.413 . S
C59 C61 1.427 . S
C59 C65 1.416 . S
C60 C53 1.424 . S
C60 C59 1.413 . S
C60 N64 1.361 . S
C61 C59 1.427 . S
C61 C62 1.328 . S
C61 H76 0.929 . S
C62 C56 1.448 . S
C62 C61 1.328 . S
C62 H77 0.930 . S
Tb63 N54 2.617 . S
Tb63 N64 2.572 . S
Tb63 O98 2.349 1_655 S
Tb63 O101 2.393 1_655 S
Tb63 O102 2.465 . S
Tb63 O103 2.387 . S
Tb63 O105 2.428 . S
Tb63 O106 2.308 1_545 S
Tb63 C127 2.802 . S
N64 C60 1.361 . S
N64 Tb63 2.572 . S
N64 C66 1.340 . S
C65 C59 1.416 . S
C65 C67 1.332 . S
C65 H73 0.931 . S
C66 N64 1.340 . S
C66 C67 1.407 . S
C66 H72 0.930 . S
C67 C65 1.332 . S
C67 C66 1.407 . S
C67 H69 0.929 . S
H68 C57 0.930 . S
H69 C67 0.929 . S
H70 C85 0.930 1_655 S
H71 C92 0.929 . S
H72 C66 0.930 . S
H73 C65 0.931 . S
H74 C88 0.930 . S
H75 C55 0.930 . S
H76 C61 0.929 . S
H77 C62 0.930 . S
H78 C83 0.930 1_655 S
H79 C58 0.930 . S
H80 C91 0.931 . S
N81 Tb52 2.617 . S
N81 C82 1.379 . S
N81 C85 1.334 . S
C82 N81 1.379 . S
C82 C84 1.416 . S
C82 C90 1.424 . S
C83 H78 0.930 1_455 S
C83 C85 1.390 . S
C83 C86 1.339 . S
C84 C82 1.416 . S
C84 C86 1.416 . S
C84 C117 1.448 . S
C85 H70 0.930 1_455 S
C85 N81 1.334 . S
C85 C83 1.390 . S
C86 C83 1.339 . S
C86 C84 1.416 . S
C86 H93 0.930 . S
N87 Tb52 2.572 . S
N87 C88 1.340 . S
N87 C90 1.361 . S
C88 H74 0.930 . S
C88 N87 1.340 . S
C88 C92 1.407 . S
C89 C90 1.413 . S
C89 C91 1.416 . S
C89 C118 1.427 . S
C90 C82 1.424 . S
C90 N87 1.361 . S
C90 C89 1.413 . S
C91 H80 0.931 . S
C91 C89 1.416 . S
C91 C92 1.332 . S
C92 H71 0.929 . S
C92 C88 1.407 . S
C92 C91 1.332 . S
H93 C86 0.930 . S
H94 C117 0.930 . S
H95 C118 0.929 . S
O96 Tb52 2.465 . S
O96 C116 1.264 . S
O97 Tb52 2.387 . S
O97 C108 1.264 . S
O98 Tb63 2.349 1_455 S
O98 C108 1.243 1_545 S
O99 Tb52 2.428 . S
O99 C116 1.256 . S
O100 Tb52 2.308 1_545 S
O100 C115 1.266 . S
O101 Tb63 2.393 1_455 S
O101 C115 1.248 . S
O102 Tb63 2.465 . S
O102 C127 1.264 . S
O103 Tb63 2.387 . S
O103 C119 1.264 . S
O104 Tb52 2.349 1_645 S
O104 C119 1.243 . S
O105 Tb63 2.428 . S
O105 C127 1.256 . S
O106 Tb63 2.308 1_565 S
O106 C126 1.266 . S
O107 Tb52 2.393 1_655 S
O107 C126 1.248 . S
C108 O97 1.264 . S
C108 O98 1.243 1_565 S
C109 C112 1.399 . S
C109 C114 1.383 . S
C109 C116 1.496 . S
C110 C111 1.399 . S
C110 C114 1.389 . S
C111 C110 1.399 . S
C111 C113 1.380 . S
C111 H128 0.929 . S
C112 C109 1.399 . S
C112 C113 1.392 . S
C112 H129 0.929 . S
C113 C111 1.380 . S
C113 C112 1.392 . S
C113 H130 0.929 . S
C114 C109 1.383 . S
C114 C110 1.389 . S
C114 H131 0.931 . S
C115 O100 1.266 . S
C115 O101 1.248 . S
C116 Tb52 2.802 . S
C116 O96 1.264 . S
C116 O99 1.256 . S
C116 C109 1.496 . S
C117 C84 1.448 . S
C117 H94 0.930 . S
C117 C118 1.328 . S
C118 C89 1.427 . S
C118 H95 0.929 . S
C118 C117 1.328 . S
C119 O103 1.264 . S
C119 O104 1.243 . S
C120 C123 1.399 . S
C120 C124 1.383 . S
C120 C127 1.496 . S
C121 C122 1.399 . S
C121 C124 1.389 . S
C122 C121 1.399 . S
C122 C125 1.380 . S
C122 H132 0.929 . S
C123 C120 1.399 . S
C123 C125 1.392 . S
C123 H133 0.929 . S
C124 C120 1.383 . S
C124 C121 1.389 . S
C124 H134 0.931 . S
C125 C122 1.380 . S
C125 C123 1.392 . S
C125 H135 0.929 . S
C126 O106 1.266 . S
C126 O107 1.248 . S
C127 Tb63 2.802 . S
C127 O102 1.264 . S
C127 O105 1.256 . S
C127 C120 1.496 . S
H128 C111 0.929 . S
H129 C112 0.929 . S
H130 C113 0.929 . S
H131 C114 0.931 . S
H132 C122 0.929 . S
H133 C123 0.929 . S
H134 C124 0.931 . S
H135 C125 0.929 . S
Tb136 N165 2.617 . S
Tb136 N171 2.572 1_556 S
Tb136 O180 2.465 . S
Tb136 O181 2.387 1_556 S
Tb136 O183 2.428 . S
Tb136 O184 2.308 1_556 S
Tb136 O188 2.349 . S
Tb136 O191 2.393 1_556 S
Tb136 C200 2.802 . S
C137 N138 1.379 . S
C137 C140 1.416 . S
C137 C144 1.424 . S
N138 C137 1.379 . S
N138 C141 1.334 . S
N138 Tb147 2.617 . S
C139 C141 1.390 . S
C139 C142 1.339 . S
C139 H159 0.930 . S
C140 C137 1.416 . S
C140 C142 1.416 . S
C140 C146 1.448 . S
C141 N138 1.334 . S
C141 C139 1.390 . S
C141 H152 0.930 . S
C142 C139 1.339 . S
C142 C140 1.416 . S
C142 H163 0.930 . S
C143 C144 1.413 . S
C143 C145 1.427 . S
C143 C149 1.416 . S
C144 C137 1.424 . S
C144 C143 1.413 . S
C144 N148 1.361 . S
C145 C143 1.427 . S
C145 C146 1.328 . S
C145 H160 0.929 . S
C146 C140 1.448 . S
C146 C145 1.328 . S
C146 H161 0.930 . S
Tb147 N138 2.617 . S
Tb147 N148 2.572 . S
Tb147 O182 2.349 . S
Tb147 O185 2.393 . S
Tb147 O186 2.465 . S
Tb147 O187 2.387 . S
Tb147 O189 2.428 . S
Tb147 O190 2.308 . S
Tb147 C211 2.802 . S
N148 C144 1.361 . S
N148 Tb147 2.572 . S
N148 C150 1.340 . S
C149 C143 1.416 . S
C149 C151 1.332 . S
C149 H157 0.931 . S
C150 N148 1.340 . S
C150 C151 1.407 . S
C150 H156 0.930 . S
C151 C149 1.332 . S
C151 C150 1.407 . S
C151 H153 0.929 . S
H152 C141 0.930 . S
H153 C151 0.929 . S
H154 C169 0.930 . S
H155 C176 0.929 . S
H156 C150 0.930 . S
H157 C149 0.931 . S
H158 C172 0.930 . S
H159 C139 0.930 . S
H160 C145 0.929 . S
H161 C146 0.930 . S
H162 C167 0.930 . S
H163 C142 0.930 . S
H164 C175 0.931 . S
N165 Tb136 2.617 . S
N165 C166 1.379 1_556 S
N165 C169 1.334 . S
C166 N165 1.379 1_554 S
C166 C168 1.416 . S
C166 C174 1.424 . S
C167 H162 0.930 . S
C167 C169 1.390 . S
C167 C170 1.339 1_556 S
C168 C166 1.416 . S
C168 C170 1.416 . S
C168 C201 1.448 . S
C169 H154 0.930 . S
C169 N165 1.334 . S
C169 C167 1.390 . S
C170 C167 1.339 1_554 S
C170 C168 1.416 . S
C170 H177 0.930 . S
N171 Tb136 2.572 1_554 S
N171 C172 1.340 . S
N171 C174 1.361 . S
C172 H158 0.930 . S
C172 N171 1.340 . S
C172 C176 1.407 . S
C173 C174 1.413 . S
C173 C175 1.416 . S
C173 C202 1.427 . S
C174 C166 1.424 . S
C174 N171 1.361 . S
C174 C173 1.413 . S
C175 H164 0.931 . S
C175 C173 1.416 . S
C175 C176 1.332 . S
C176 H155 0.929 . S
C176 C172 1.407 . S
C176 C175 1.332 . S
H177 C170 0.930 . S
H178 C201 0.930 . S
H179 C202 0.929 . S
O180 Tb136 2.465 . S
O180 C200 1.264 . S
O181 Tb136 2.387 1_554 S
O181 C192 1.264 . S
O182 Tb147 2.349 . S
O182 C192 1.243 . S
O183 Tb136 2.428 . S
O183 C200 1.256 . S
O184 Tb136 2.308 1_554 S
O184 C199 1.266 . S
O185 Tb147 2.393 . S
O185 C199 1.248 . S
O186 Tb147 2.465 . S
O186 C211 1.264 . S
O187 Tb147 2.387 . S
O187 C203 1.264 1_554 S
O188 Tb136 2.349 . S
O188 C203 1.243 . S
O189 Tb147 2.428 . S
O189 C211 1.256 . S
O190 Tb147 2.308 . S
O190 C210 1.266 . S
O191 Tb136 2.393 1_554 S
O191 C210 1.248 . S
C192 O181 1.264 . S
C192 O182 1.243 . S
C193 C196 1.399 . S
C193 C198 1.383 . S
C193 C200 1.496 . S
C194 C195 1.399 . S
C194 C198 1.389 . S
C195 C194 1.399 . S
C195 C197 1.380 . S
C195 H212 0.929 . S
C196 C193 1.399 . S
C196 C197 1.392 . S
C196 H213 0.929 . S
C197 C195 1.380 . S
C197 C196 1.392 . S
C197 H214 0.929 . S
C198 C193 1.383 . S
C198 C194 1.389 . S
C198 H215 0.931 . S
C199 O184 1.266 . S
C199 O185 1.248 . S
C200 Tb136 2.802 . S
C200 O180 1.264 . S
C200 O183 1.256 . S
C200 C193 1.496 . S
C201 C168 1.448 . S
C201 H178 0.930 . S
C201 C202 1.328 . S
C202 C173 1.427 . S
C202 H179 0.929 . S
C202 C201 1.328 . S
C203 O187 1.264 1_556 S
C203 O188 1.243 . S
C204 C207 1.399 . S
C204 C208 1.383 . S
C204 C211 1.496 . S
C205 C206 1.399 . S
C205 C208 1.389 . S
C206 C205 1.399 . S
C206 C209 1.380 . S
C206 H216 0.929 . S
C207 C204 1.399 . S
C207 C209 1.392 . S
C207 H217 0.929 . S
C208 C204 1.383 . S
C208 C205 1.389 . S
C208 H218 0.931 . S
C209 C206 1.380 . S
C209 C207 1.392 . S
C209 H219 0.929 . S
C210 O190 1.266 . S
C210 O191 1.248 . S
C211 Tb147 2.802 . S
C211 O186 1.264 . S
C211 O189 1.256 . S
C211 C204 1.496 . S
H212 C195 0.929 . S
H213 C196 0.929 . S
H214 C197 0.929 . S
H215 C198 0.931 . S
H216 C206 0.929 . S
H217 C207 0.929 . S
H218 C208 0.931 . S
H219 C209 0.929 . S
C220 C221 1.369 . S
C220 C222 1.419 . S
C220 H224 0.930 . S
C221 C220 1.369 . S
C221 C230 1.429 . S
C222 C220 1.419 . S
C222 C223 1.363 . S
C222 H225 0.929 . S
C223 C222 1.363 . S
C223 C229 1.428 . S
H224 C220 0.930 . S
H225 C222 0.929 . S
S226 N227 1.613 . S
S226 N228 1.610 . S
N227 S226 1.613 . S
N227 C230 1.350 . S
N228 S226 1.610 . S
N228 C229 1.351 . S
C229 C223 1.428 . S
C229 N228 1.351 . S
C229 C230 1.434 . S
C230 C221 1.429 . S
C230 N227 1.350 . S
C230 C229 1.434 . S
C231 C232 1.369 . S
C231 C233 1.419 . S
C231 H235 0.930 . S
C232 C231 1.369 . S
C232 C241 1.429 1_554 S
C233 C231 1.419 . S
C233 C234 1.363 . S
C233 H236 0.929 . S
C234 C233 1.363 . S
C234 C240 1.428 1_554 S
H235 C231 0.930 . S
H236 C233 0.929 . S
S237 N238 1.613 . S
S237 N239 1.610 . S
N238 S237 1.613 . S
N238 C241 1.350 . S
N239 S237 1.610 . S
N239 C240 1.351 . S
C240 C234 1.428 1_556 S
C240 N239 1.351 . S
C240 C241 1.434 . S
C241 C232 1.429 1_556 S
C241 N238 1.350 . S
C241 C240 1.434 . S
C242 C243 1.369 . S
C242 C244 1.419 . S
C242 H246 0.930 . S
C243 C242 1.369 . S
C243 C252 1.429 . S
C244 C242 1.419 . S
C244 C245 1.363 . S
C244 H247 0.929 . S
C245 C244 1.363 . S
C245 C251 1.428 . S
H246 C242 0.930 . S
H247 C244 0.929 . S
S248 N249 1.613 . S
S248 N250 1.610 . S
N249 S248 1.613 . S
N249 C252 1.350 . S
N250 S248 1.610 . S
N250 C251 1.351 . S
C251 C245 1.428 . S
C251 N250 1.351 . S
C251 C252 1.434 . S
C252 C243 1.429 . S
C252 N249 1.350 . S
C252 C251 1.434 . S
C253 C254 1.369 . S
C253 C255 1.419 . S
C253 H257 0.930 . S
C254 C253 1.369 . S
C254 C263 1.429 . S
C255 C253 1.419 . S
C255 C256 1.363 . S
C255 H258 0.929 . S
C256 C255 1.363 . S
C256 C262 1.428 . S
H257 C253 0.930 . S
H258 C255 0.929 . S
S259 N260 1.613 . S
S259 N261 1.610 . S
N260 S259 1.613 . S
N260 C263 1.350 . S
N261 S259 1.610 . S
N261 C262 1.351 . S
C262 C256 1.428 . S
C262 N261 1.351 . S
C262 C263 1.434 . S
C263 C254 1.429 . S
C263 N260 1.350 . S
C263 C262 1.434 . S
C264 C265 1.369 . S
C264 C266 1.419 . S
C264 H268 0.930 . S
C265 C264 1.369 . S
C265 C274 1.429 . S
C266 C264 1.419 . S
C266 C267 1.363 . S
C266 H269 0.929 . S
C267 C266 1.363 . S
C267 C273 1.428 . S
H268 C264 0.930 . S
H269 C266 0.929 . S
S270 N271 1.613 1_545 S
S270 N272 1.611 . S
N271 S270 1.613 1_565 S
N271 C274 1.350 . S
N272 S270 1.611 . S
N272 C273 1.336 1_545 S
C273 C267 1.428 . S
C273 N272 1.336 1_565 S
C273 C274 1.434 . S
C274 C265 1.429 . S
C274 N271 1.350 . S
C274 C273 1.434 . S
C275 C276 1.369 . S
C275 C277 1.419 . S
C275 H279 0.930 . S
C276 C275 1.369 . S
C276 C285 1.429 . S
C277 C275 1.419 . S
C277 C278 1.363 . S
C277 H280 0.929 . S
C278 C277 1.363 . S
C278 C284 1.428 . S
H279 C275 0.930 . S
H280 C277 0.929 . S
S281 N282 1.613 . S
S281 N283 1.610 . S
N282 S281 1.613 . S
N282 C285 1.350 . S
N283 S281 1.610 . S
N283 C284 1.351 . S
C284 C278 1.428 . S
C284 N283 1.351 . S
C284 C285 1.434 . S
C285 C276 1.429 . S
C285 N282 1.350 . S
C285 C284 1.434 . S
C286 C287 1.369 . S
C286 C288 1.419 . S
C286 H290 0.930 . S
C287 C286 1.369 . S
C287 C296 1.429 . S
C288 C286 1.419 . S
C288 C289 1.363 . S
C288 H291 0.929 . S
C289 C288 1.363 . S
C289 C295 1.428 . S
H290 C286 0.930 . S
H291 C288 0.929 . S
S292 N293 1.613 . S
S292 N294 1.610 . S
N293 S292 1.613 . S
N293 C296 1.350 . S
N294 S292 1.610 . S
N294 C295 1.351 . S
C295 C289 1.428 . S
C295 N294 1.351 . S
C295 C296 1.434 . S
C296 C287 1.429 . S
C296 N293 1.350 . S
C296 C295 1.434 . S
C297 C298 1.369 . S
C297 C299 1.419 . S
C297 H301 0.930 . S
C298 C297 1.369 . S
C298 C307 1.429 . S
C299 C297 1.419 . S
C299 C300 1.363 . S
C299 H302 0.929 . S
C300 C299 1.363 . S
C300 C306 1.428 . S
H301 C297 0.930 . S
H302 C299 0.929 . S
S303 N304 1.613 . S
S303 N305 1.610 . S
N304 S303 1.613 . S
N304 C307 1.350 . S
N305 S303 1.610 . S
N305 C306 1.351 . S
C306 C300 1.428 . S
C306 N305 1.351 . S
C306 C307 1.434 . S
C307 C298 1.429 . S
C307 N304 1.350 . S
C307 C306 1.434 . S
C308 C309 1.369 . S
C308 C310 1.419 . S
C308 H312 0.930 . S
C309 C308 1.369 . S
C309 C318 1.429 . S
C310 C308 1.419 . S
C310 C311 1.363 . S
C310 H313 0.929 . S
C311 C310 1.363 . S
C311 C317 1.428 . S
H312 C308 0.930 . S
H313 C310 0.929 . S
S314 N315 1.613 . S
S314 N316 1.610 . S
N315 S314 1.613 . S
N315 C318 1.350 . S
N316 S314 1.610 . S
N316 C317 1.351 . S
C317 C311 1.428 . S
C317 N316 1.351 . S
C317 C318 1.434 . S
C318 C309 1.429 . S
C318 N315 1.350 . S
C318 C317 1.434 . S
C319 C320 1.369 . S
C319 C321 1.419 . S
C319 H323 0.930 . S
C320 C319 1.369 . S
C320 C329 1.429 1_556 S
C321 C319 1.419 . S
C321 C322 1.363 . S
C321 H324 0.929 . S
C322 C321 1.363 . S
C322 C328 1.428 . S
H323 C319 0.930 . S
H324 C321 0.929 . S
S325 N326 1.613 . S
S325 N327 1.610 1_554 S
N326 S325 1.613 . S
N326 C329 1.350 . S
N327 S325 1.610 1_556 S
N327 C328 1.351 . S
C328 C322 1.428 . S
C328 N327 1.351 . S
C328 C329 1.434 1_556 S
C329 C320 1.429 1_554 S
C329 N326 1.350 . S
C329 C328 1.434 1_554 S
C330 C331 1.369 . S
C330 C332 1.419 . S
C330 H334 0.930 . S
C331 C330 1.369 . S
C331 C340 1.429 . S
C332 C330 1.419 . S
C332 C333 1.363 . S
C332 H335 0.929 . S
C333 C332 1.363 . S
C333 C339 1.428 . S
H334 C330 0.930 . S
H335 C332 0.929 . S
S336 N337 1.613 . S
S336 N338 1.610 . S
N337 S336 1.613 . S
N337 C340 1.350 . S
N338 S336 1.610 . S
N338 C339 1.351 . S
C339 C333 1.428 . S
C339 N338 1.351 . S
C339 C340 1.434 . S
C340 C331 1.429 . S
C340 N337 1.350 . S
C340 C339 1.434 . S
C341 C342 1.369 . S
C341 C343 1.419 . S
C341 H345 0.930 . S
C342 C341 1.369 . S
C342 C351 1.429 . S
C343 C341 1.419 . S
C343 C344 1.363 . S
C343 H346 0.929 1_565 S
C344 C343 1.363 . S
C344 C350 1.428 . S
H345 C341 0.930 . S
H346 C343 0.929 1_545 S
S347 N348 1.613 . S
S347 N349 1.610 . S
N348 S347 1.613 . S
N348 C351 1.350 . S
N349 S347 1.610 . S
N349 C350 1.351 . S
C350 C344 1.428 . S
C350 N349 1.351 . S
C350 C351 1.434 . S
C351 C342 1.429 . S
C351 N348 1.350 . S
C351 C350 1.434 . S
C223 C115 1.637 . S
C221 C43 1.541 . S
C232 C4 1.579 . S
C234 C210 1.626 . S
C243 C17 1.571 . S
C245 C126 1.633 . S
C254 C30 1.632 . S
C256 C199 1.628 . S
C267 C110 1.388 . S
C265 C9 1.561 . S
C278 C203 1.654 . S
C276 C21 1.647 . S
C287 C34 1.616 . S
C289 C119 1.629 . S
C298 C48 1.569 . S
C300 C194 1.395 . S
C311 C205 1.403 . S
C309 C22 1.571 . S
C322 C121 1.380 . S
C320 C35 1.558 1_556 S
C333 C192 1.653 . S
C331 C47 1.642 . S
C342 C8 1.608 . S
C344 C108 1.629 . S
