# Generated by pormake.
# Topology rtl, (3,6)-cn, num edge types: 1
# Building blocks:
#     Node 0, Type 0, BuildingBlock: VETTIZ_charged_linker_0, # of connection points: 3
#     Node 1, Type 0, BuildingBlock: VETTIZ_charged_linker_0, # of connection points: 3
#     Node 2, Type 0, BuildingBlock: VETTIZ_charged_linker_0, # of connection points: 3
#     Node 3, Type 0, BuildingBlock: VETTIZ_charged_linker_0, # of connection points: 3
#     Node 4, Type 1, BuildingBlock: CIFDUS_clean_sbu_1, # of connection points: 6
#     Node 5, Type 1, BuildingBlock: CIFDUS_clean_sbu_1, # of connection points: 6
#     Edge 6, Type (0, 1), BuildingBlock: TEMPAE_clean_linker_10, # of connection points: 2
#     Edge 7, Type (0, 1), BuildingBlock: TEMPAE_clean_linker_10, # of connection points: 2
#     Edge 8, Type (0, 1), BuildingBlock: TEMPAE_clean_linker_10, # of connection points: 2
#     Edge 9, Type (0, 1), BuildingBlock: TEMPAE_clean_linker_10, # of connection points: 2
#     Edge 10, Type (0, 1), BuildingBlock: TEMPAE_clean_linker_10, # of connection points: 2
#     Edge 11, Type (0, 1), BuildingBlock: TEMPAE_clean_linker_10, # of connection points: 2
#     Edge 12, Type (0, 1), BuildingBlock: TEMPAE_clean_linker_10, # of connection points: 2
#     Edge 13, Type (0, 1), BuildingBlock: TEMPAE_clean_linker_10, # of connection points: 2
#     Edge 14, Type (0, 1), BuildingBlock: TEMPAE_clean_linker_10, # of connection points: 2
#     Edge 15, Type (0, 1), BuildingBlock: TEMPAE_clean_linker_10, # of connection points: 2
#     Edge 16, Type (0, 1), BuildingBlock: TEMPAE_clean_linker_10, # of connection points: 2
#     Edge 17, Type (0, 1), BuildingBlock: TEMPAE_clean_linker_10, # of connection points: 2
# Relax obj value: 0.030
# Max RMSD: 0.064
# Mean RMSD: 0.050
data_MOF--net-rtl--node1-CIFDUS_clean_sbu_1--node2-VETTIZ_charged_linker_0--edge1-TEMPAE_clean_linker_10
_symmetry_space_group_name_H-M    P1
_symmetry_Int_Tables_number       1
_symmetry_cell_setting            triclinic
loop_
_symmetry_equiv_pos_as_xyz
'x, y, z'
_cell_length_a     37.224224
_cell_length_b     42.351567
_cell_length_c     29.707864
_cell_angle_alpha  90.107555
_cell_angle_beta   97.679834
_cell_angle_gamma 89.938232
loop_
_atom_site_label
_atom_site_type_symbol
_atom_site_fract_x
_atom_site_fract_y
_atom_site_fract_z
_atom_type_partial_charge
C0 C 0.23513 0.91029 0.93564 0.0
C1 C 0.20938 0.93457 0.92484 0.0
C2 C 0.20158 0.9545 0.96074 0.0
C3 C 0.24133 0.92403 0.01575 0.0
C4 C 0.2512 0.90603 0.98066 0.0
C5 C 0.28061 0.88272 0.99681 0.0
H6 H 0.36584 0.79577 0.16724 0.0
C7 C 0.26137 0.91216 0.05883 0.0
C8 C 0.28492 0.88829 0.04783 0.0
H9 H 0.38042 0.79429 0.02498 0.0
H10 H 0.34286 0.84011 0.01155 0.0
H11 H 0.38017 0.87093 0.17411 0.0
H12 H 0.28094 0.81735 0.15869 0.0
H13 H 0.28099 0.84513 0.20325 0.0
H14 H 0.31519 0.81507 0.20737 0.0
H15 H 0.36306 0.85387 0.22218 0.0
H16 H 0.34897 0.8926 0.20113 0.0
C17 C 0.31532 0.89194 0.97614 0.0
C18 C 0.26625 0.84919 0.98372 0.0
C19 C 0.22524 0.94851 0.21007 0.0
C20 C 0.23726 0.94038 0.25567 0.0
C21 C 0.26624 0.91868 0.26443 0.0
C22 C 0.28178 0.90455 0.22888 0.0
C23 C 0.26863 0.91223 0.18373 0.0
C24 C 0.24147 0.9345 0.17496 0.0
C25 C 0.23235 0.94105 0.1249 0.0
C26 C 0.25804 0.91856 0.10513 0.0
C27 C 0.27885 0.90136 0.1398 0.0
C28 C 0.24134 0.97605 0.11616 0.0
C29 C 0.19213 0.93216 0.11052 0.0
C30 C 0.36122 0.80536 0.13322 0.0
C31 C 0.37474 0.78999 0.09672 0.0
C32 C 0.36883 0.80426 0.05338 0.0
C33 C 0.34718 0.83116 0.04553 0.0
C34 C 0.33149 0.84458 0.08136 0.0
C35 C 0.34013 0.83286 0.12479 0.0
C36 C 0.32403 0.85283 0.15919 0.0
C37 C 0.30261 0.87709 0.12859 0.0
C38 C 0.30644 0.87143 0.08293 0.0
C39 C 0.35549 0.86829 0.19116 0.0
C40 C 0.29901 0.83163 0.18376 0.0
H41 H 0.20929 0.96477 0.03135 0.0
H42 H 0.24267 0.89437 0.91008 0.0
H43 H 0.2388 0.84584 0.99387 0.0
H44 H 0.2833 0.8302 1.00043 0.0
H45 H 0.26421 0.84541 0.94646 0.0
H46 H 0.31436 0.91681 0.964 0.0
H47 H 0.31913 0.87667 0.94671 0.0
H48 H 0.33999 0.89078 1.00153 0.0
H49 H 0.20308 0.96491 0.20152 0.0
H50 H 0.27708 0.91249 0.29892 0.0
H51 H 0.30328 0.88794 0.2379 0.0
H52 H 0.26348 0.98493 0.14195 0.0
H53 H 0.21735 0.99146 0.11752 0.0
H54 H 0.25166 0.97944 0.08326 0.0
H55 H 0.18624 0.90856 0.1242 0.0
H56 H 0.18465 0.93053 0.07346 0.0
H57 H 0.17386 0.94961 0.12379 0.0
H58 H 0.18375 0.97462 0.95446 0.0
C59 C 0.21696 0.94912 0.00584 0.0
C60 C 0.7279 0.61676 0.73413 0.0
C61 C 0.70041 0.59376 0.73409 0.0
C62 C 0.68374 0.58213 0.69175 0.0
C63 C 0.72106 0.61595 0.65158 0.0
C64 C 0.7374 0.62772 0.69265 0.0
C65 C 0.76374 0.65388 0.68629 0.0
H66 H 0.83256 0.75515 0.54299 0.0
C67 C 0.73582 0.63298 0.61474 0.0
C68 C 0.76077 0.65544 0.63475 0.0
H69 H 0.85319 0.75394 0.6895 0.0
H70 H 0.81771 0.70605 0.69099 0.0
H71 H 0.84429 0.67859 0.53296 0.0
H72 H 0.74979 0.7376 0.53133 0.0
H73 H 0.74115 0.71009 0.48687 0.0
H74 H 0.77777 0.73772 0.48654 0.0
H75 H 0.82774 0.70247 0.48478 0.0
H76 H 0.81081 0.66305 0.49167 0.0
C77 C 0.802 0.64344 0.70793 0.0
C78 C 0.74985 0.68447 0.70685 0.0
C79 C 0.68894 0.6067 0.45026 0.0
C80 C 0.69654 0.61906 0.4088 0.0
C81 C 0.72323 0.6425 0.40865 0.0
C82 C 0.7417 0.6541 0.44962 0.0
C83 C 0.73311 0.64226 0.49112 0.0
C84 C 0.70759 0.61853 0.4909 0.0
C85 C 0.70209 0.60867 0.53809 0.0
C86 C 0.72842 0.63042 0.5667 0.0
C87 C 0.74621 0.65027 0.53907 0.0
C88 C 0.71341 0.57356 0.54419 0.0
C89 C 0.66209 0.6156 0.54441 0.0
C90 C 0.82926 0.74459 0.57537 0.0
C91 C 0.84492 0.75864 0.61625 0.0
C92 C 0.84103 0.74369 0.65765 0.0
C93 C 0.82026 0.71603 0.65839 0.0
C94 C 0.80333 0.70307 0.61728 0.0
C95 C 0.80894 0.71684 0.57665 0.0
C96 C 0.79016 0.69923 0.53619 0.0
C97 C 0.77067 0.67365 0.55916 0.0
C98 C 0.77833 0.676 0.60672 0.0
C99 C 0.81954 0.6852 0.50958 0.0
C100 C 0.7634 0.72219 0.50836 0.0
H101 H 0.68009 0.58296 0.62019 0.0
H102 H 0.74153 0.62642 0.76559 0.0
H103 H 0.71977 0.68598 0.69983 0.0
H104 H 0.75963 0.70618 0.6921 0.0
H105 H 0.75753 0.68512 0.74428 0.0
H106 H 0.80634 0.61791 0.70153 0.0
H107 H 0.80569 0.64716 0.74529 0.0
H108 H 0.82387 0.65575 0.69332 0.0
H109 H 0.66845 0.58862 0.45102 0.0
H110 H 0.72936 0.65214 0.3768 0.0
H111 H 0.76146 0.67224 0.44739 0.0
H112 H 0.73814 0.5687 0.52801 0.0
H113 H 0.6916 0.55769 0.52818 0.0
H114 H 0.72067 0.56674 0.58009 0.0
H115 H 0.65091 0.63566 0.52276 0.0
H116 H 0.65901 0.62309 0.57936 0.0
H117 H 0.64452 0.59478 0.5351 0.0
H118 H 0.66165 0.56539 0.68975 0.0
C119 C 0.69414 0.59277 0.65087 0.0
C120 C 0.80275 0.13158 0.1614 0.0
C121 C 0.82724 0.10656 0.17145 0.0
C122 C 0.83683 0.08772 0.13579 0.0
C123 C 0.79928 0.11993 0.0807 0.0
C124 C 0.78877 0.13754 0.11597 0.0
C125 C 0.76196 0.16288 0.09928 0.0
H126 H 0.67393 0.24729 0.92515 0.0
C127 C 0.78122 0.13331 0.03745 0.0
C128 C 0.75906 0.15832 0.04817 0.0
H129 H 0.67087 0.25873 0.06936 0.0
H130 H 0.70871 0.21315 0.08486 0.0
H131 H 0.76074 0.2297 0.9334 0.0
H132 H 0.66498 0.17158 0.92494 0.0
H133 H 0.69547 0.15294 0.89319 0.0
H134 H 0.67761 0.1914 0.87606 0.0
H135 H 0.72737 0.22806 0.88382 0.0
H136 H 0.76359 0.19971 0.89289 0.0
C137 C 0.77885 0.19522 0.11464 0.0
C138 C 0.72565 0.15545 0.11726 0.0
C139 C 0.81503 0.09311 0.88712 0.0
C140 C 0.80437 0.10178 0.84149 0.0
C141 C 0.77717 0.12502 0.83203 0.0
C142 C 0.76191 0.14004 0.86716 0.0
C143 C 0.77382 0.13187 0.91252 0.0
C144 C 0.7994 0.10827 0.9218 0.0
C145 C 0.8082 0.10211 0.97195 0.0
C146 C 0.78423 0.12631 0.99127 0.0
C147 C 0.76436 0.14392 0.95632 0.0
C148 C 0.84901 0.10905 0.98604 0.0
C149 C 0.79673 0.06784 0.98141 0.0
C150 C 0.68159 0.23999 0.96003 0.0
C151 C 0.6692 0.2568 0.99601 0.0
C152 C 0.67945 0.24612 0.04088 0.0
C153 C 0.70178 0.21969 0.04994 0.0
C154 C 0.71453 0.20358 0.01391 0.0
C155 C 0.70399 0.21341 0.96977 0.0
C156 C 0.71968 0.19264 0.93595 0.0
C157 C 0.74177 0.16922 0.96721 0.0
C158 C 0.73889 0.17607 0.01286 0.0
C159 C 0.74402 0.21343 0.90974 0.0
C160 C 0.68798 0.17635 0.90555 0.0
H161 H 0.83198 0.07949 0.06482 0.0
H162 H 0.79464 0.14614 0.18834 0.0
H163 H 0.72182 0.12954 0.12067 0.0
H164 H 0.70172 0.16324 0.09378 0.0
H165 H 0.72473 0.16624 0.15118 0.0
H166 H 0.8084 0.19544 0.11206 0.0
H167 H 0.77548 0.20031 0.15053 0.0
H168 H 0.7676 0.21508 0.09327 0.0
H169 H 0.83596 0.07558 0.89596 0.0
H170 H 0.76774 0.13179 0.79733 0.0
H171 H 0.74168 0.15772 0.85763 0.0
H172 H 0.85709 0.1309 0.96924 0.0
H173 H 0.86601 0.08936 0.97597 0.0
H174 H 0.85614 0.11337 0.02274 0.0
H175 H 0.77304 0.06034 0.95686 0.0
H176 H 0.78759 0.06521 0.01511 0.0
H177 H 0.81912 0.05091 0.97847 0.0
H178 H 0.85568 0.06829 0.14301 0.0
C179 C 0.82312 0.09433 0.09049 0.0
C180 C 0.26991 0.42967 0.34769 0.0
C181 C 0.29656 0.45332 0.34877 0.0
C182 C 0.30925 0.46801 0.39043 0.0
C183 C 0.27166 0.43374 0.42961 0.0
C184 C 0.258 0.42015 0.38852 0.0
C185 C 0.23216 0.39353 0.39442 0.0
H186 H 0.15972 0.29439 0.53704 0.0
C187 C 0.25629 0.41681 0.46609 0.0
C188 C 0.23286 0.3933 0.44572 0.0
H189 H 0.1459 0.29132 0.39032 0.0
H190 H 0.17972 0.34004 0.38869 0.0
H191 H 0.24197 0.31119 0.5498 0.0
H192 H 0.14725 0.36994 0.54528 0.0
H193 H 0.17995 0.3862 0.58692 0.0
H194 H 0.16356 0.34662 0.59413 0.0
H195 H 0.21429 0.31235 0.59484 0.0
H196 H 0.25121 0.33949 0.59289 0.0
C197 C 0.24807 0.36278 0.3768 0.0
C198 C 0.19432 0.40256 0.36972 0.0
C199 C 0.30354 0.44065 0.63143 0.0
C200 C 0.29637 0.42723 0.67268 0.0
C201 C 0.26838 0.40469 0.67161 0.0
C202 C 0.24923 0.39453 0.63036 0.0
C203 C 0.25806 0.40689 0.5894 0.0
C204 C 0.284 0.43026 0.59041 0.0
C205 C 0.28918 0.44105 0.54345 0.0
C206 C 0.26294 0.41952 0.51418 0.0
C207 C 0.24505 0.39941 0.54133 0.0
C208 C 0.32918 0.43472 0.53679 0.0
C209 C 0.27743 0.47612 0.53857 0.0
C210 C 0.16408 0.30408 0.50449 0.0
C211 C 0.15067 0.28856 0.46378 0.0
C212 C 0.15604 0.30264 0.4222 0.0
C213 C 0.17597 0.33081 0.42135 0.0
C214 C 0.19088 0.34502 0.46252 0.0
C215 C 0.18404 0.33196 0.50309 0.0
C216 C 0.20191 0.34994 0.54363 0.0
C217 C 0.22145 0.37558 0.52089 0.0
C218 C 0.21507 0.37263 0.47334 0.0
C219 C 0.22862 0.32726 0.5722 0.0
C220 C 0.17184 0.36381 0.56927 0.0
H221 H 0.3081 0.47028 0.46133 0.0
H222 H 0.25991 0.41779 0.31619 0.0
H223 H 0.1888 0.42811 0.37428 0.0
H224 H 0.17208 0.39012 0.38337 0.0
H225 H 0.19244 0.39786 0.33268 0.0
H226 H 0.27804 0.36214 0.38595 0.0
H227 H 0.24205 0.36104 0.33924 0.0
H228 H 0.23826 0.34124 0.39195 0.0
H229 H 0.32477 0.45804 0.6308 0.0
H230 H 0.26142 0.39464 0.7028 0.0
H231 H 0.22879 0.3769 0.63197 0.0
H232 H 0.3394 0.41271 0.5545 0.0
H233 H 0.34704 0.45439 0.55073 0.0
H234 H 0.33295 0.43078 0.50101 0.0
H235 H 0.2541 0.48096 0.55741 0.0
H236 H 0.26766 0.4828 0.5031 0.0
H237 H 0.29988 0.49212 0.55235 0.0
H238 H 0.32949 0.48649 0.39194 0.0
C239 C 0.2968 0.45853 0.4307 0.0
O240 O 0.98026 0.03788 0.496 0.0
Mn241 Mn 0.01746 0.01797 0.54757 0.0
O242 O 0.98497 1.0026 0.44236 0.0
Mn243 Mn 0.0048 0.97262 0.48327 0.0
O244 O 0.05506 0.99704 0.59985 0.0
O245 O 0.03748 0.06384 0.55577 0.0
Mn246 Mn 0.04955 0.06334 0.61552 0.0
O247 O 0.97976 0.02609 0.59389 0.0
O248 O 0.08728 0.03684 0.63237 0.0
O249 O 0.05768 0.01261 0.50217 0.0
O250 O 0.05205 0.96331 0.48163 0.0
O251 O 0.06184 0.10236 0.60209 0.0
O252 O 0.00954 0.05879 0.64503 0.0
C253 C 0.97849 0.94528 0.52271 0.0
C254 C 0.97387 0.02903 0.45455 0.0
C255 C 0.08242 0.0076 0.62679 0.0
C256 C 0.05019 0.09284 0.5612 0.0
C257 C 0.98181 0.04233 0.6309 0.0
C258 C 0.07023 0.98818 0.48382 0.0
O259 O 0.99321 0.97211 0.54005 0.0
O260 O 0.97836 0.9388 0.48 0.0
O261 O 0.53353 0.5359 0.09878 0.0
Mn262 Mn 0.50019 0.51734 0.04231 0.0
O263 O 0.53852 0.49509 0.14723 0.0
Mn264 Mn 0.51671 0.46556 0.10661 0.0
O265 O 0.46697 0.49699 0.9863 0.0
O266 O 0.47651 0.5607 0.03423 0.0
Mn267 Mn 0.46377 0.56502 0.97536 0.0
O268 O 0.53829 0.53036 0.99913 0.0
O269 O 0.42978 0.53493 0.95613 0.0
O270 O 0.45905 0.50729 0.08323 0.0
O271 O 0.46844 0.45855 0.10811 0.0
O272 O 0.44961 0.6018 0.99912 0.0
O273 O 0.50635 0.5636 0.94972 0.0
C274 C 0.54269 0.44636 0.05612 0.0
C275 C 0.54437 0.52381 0.13797 0.0
C276 C 0.43872 0.50614 0.95984 0.0
C277 C 0.46336 0.58901 0.03713 0.0
C278 C 0.53536 0.54843 0.96379 0.0
C279 C 0.44811 0.48236 0.10169 0.0
O280 O 0.52624 0.47389 0.05064 0.0
O281 O 0.54263 0.43194 0.09459 0.0
C282 C 0.1011 0.24975 0.43589 0.0
C283 C 0.13268 0.2572 0.46534 0.0
C284 C 0.08306 0.22081 0.43957 0.0
C285 C 0.09678 0.19894 0.47367 0.0
C286 C 0.12949 0.20588 0.50215 0.0
C287 C 0.14704 0.23474 0.49746 0.0
C288 C 0.04859 0.21417 0.40817 0.0
C289 C 0.14518 0.18349 0.53922 0.0
C290 C 0.03749 0.14693 0.53547 0.0
C291 C 0.04951 0.11672 0.52506 0.0
C292 C 0.05052 0.17402 0.51619 0.0
C293 C 0.07513 0.17082 0.48407 0.0
C294 C 0.08331 0.14019 0.46865 0.0
C295 C 0.07085 0.1133 0.48997 0.0
C296 C 0.04161 0.20591 0.53482 0.0
C297 C 0.10803 0.1358 0.43287 0.0
H298 H 0.08981 0.26695 0.41094 0.0
H299 H 0.17193 0.23993 0.51957 0.0
H300 H 0.04873 0.18967 0.39489 0.0
H301 H 0.02501 0.21636 0.42717 0.0
H302 H 0.04471 0.23085 0.3791 0.0
H303 H 0.17165 0.19176 0.55704 0.0
H304 H 0.12604 0.18095 0.5646 0.0
H305 H 0.14905 0.15974 0.52485 0.0
H306 H 0.02111 0.14956 0.56286 0.0
H307 H 0.08053 0.09003 0.48215 0.0
H308 H 0.03405 0.223 0.50697 0.0
H309 H 0.06592 0.21535 0.55634 0.0
H310 H 0.01911 0.20457 0.55583 0.0
H311 H 0.10249 0.15386 0.4058 0.0
H312 H 0.10495 0.11193 0.41725 0.0
H313 H 0.13661 0.13861 0.44854 0.0
C314 C 0.38795 0.73656 0.06649 0.0
C315 C 0.39313 0.7585 0.10227 0.0
C316 C 0.40542 0.70723 0.06938 0.0
C317 C 0.42772 0.69863 0.10993 0.0
C318 C 0.43226 0.72004 0.14695 0.0
C319 C 0.41527 0.74989 0.14252 0.0
C320 C 0.4 0.6855 0.02856 0.0
C321 C 0.45514 0.71147 0.19103 0.0
C322 C 0.43638 0.61063 0.10161 0.0
C323 C 0.46649 0.6087 0.07812 0.0
C324 C 0.42623 0.63967 0.11926 0.0
C325 C 0.44624 0.66725 0.11201 0.0
C326 C 0.47977 0.6642 0.09478 0.0
C327 C 0.48975 0.63471 0.07867 0.0
C328 C 0.39119 0.64155 0.13938 0.0
C329 C 0.50208 0.6927 0.08595 0.0
H330 H 0.36989 0.74215 0.03586 0.0
H331 H 0.41969 0.76653 0.17043 0.0
H332 H 0.4266 0.67882 0.01837 0.0
H333 H 0.38638 0.66348 0.03723 0.0
H334 H 0.38333 0.69649 0.99886 0.0
H335 H 0.4532 0.72939 0.21795 0.0
H336 H 0.44667 0.68822 0.20316 0.0
H337 H 0.48394 0.70926 0.18565 0.0
H338 H 0.41815 0.59061 0.10092 0.0
H339 H 0.51287 0.6333 0.06003 0.0
H340 H 0.36898 0.64864 0.1126 0.0
H341 H 0.39292 0.65947 0.16688 0.0
H342 H 0.38401 0.61835 0.15313 0.0
H343 H 0.49025 0.70374 0.05344 0.0
H344 H 0.53058 0.68608 0.08307 0.0
H345 H 0.502 0.71065 0.11311 0.0
C346 C 0.89981 0.7928 0.63754 0.0
C347 C 0.86438 0.78922 0.6153 0.0
C348 C 0.91957 0.82063 0.63255 0.0
C349 C 0.90335 0.84556 0.60514 0.0
C350 C 0.86669 0.84273 0.58526 0.0
C351 C 0.84781 0.81455 0.59027 0.0
C352 C 0.95866 0.82238 0.65381 0.0
C353 C 0.84818 0.86851 0.55568 0.0
C354 C 0.94887 0.92557 0.59019 0.0
C355 C 0.96345 0.92009 0.54973 0.0
C356 C 0.93044 0.90113 0.61027 0.0
C357 C 0.92634 0.87098 0.58899 0.0
C358 C 0.94251 0.86523 0.54941 0.0
C359 C 0.96116 0.8895 0.53097 0.0
C360 C 0.91433 0.90775 0.65324 0.0
C361 C 0.93868 0.8338 0.52488 0.0
H362 H 0.91269 0.77323 0.65692 0.0
H363 H 0.82022 0.81199 0.5736 0.0
H364 H 0.97656 0.81913 0.62713 0.0
H365 H 0.96479 0.84589 0.66949 0.0
H366 H 0.9654 0.80386 0.68002 0.0
H367 H 0.81839 0.86488 0.54867 0.0
H368 H 0.85349 0.89194 0.57192 0.0
H369 H 0.85922 0.86891 0.52278 0.0
H370 H 0.95069 0.94898 0.60512 0.0
H371 H 0.97309 0.88452 0.50037 0.0
H372 H 0.92283 0.88929 0.67894 0.0
H373 H 0.88433 0.90693 0.64607 0.0
H374 H 0.92252 0.93124 0.66784 0.0
H375 H 0.94858 0.81439 0.54831 0.0
H376 H 0.95388 0.83296 0.49517 0.0
H377 H 0.90967 0.82915 0.51268 0.0
C378 C 0.65548 0.30948 0.95796 0.0
C379 C 0.64675 0.28597 0.98798 0.0
C380 C 0.63787 0.33903 0.95568 0.0
C381 C 0.61129 0.34534 0.98449 0.0
C382 C 0.60076 0.32091 0.01255 0.0
C383 C 0.61837 0.29157 0.01363 0.0
C384 C 0.64925 0.36403 0.92439 0.0
C385 C 0.57253 0.32634 0.04388 0.0
C386 C 0.60017 0.42419 0.04027 0.0
C387 C 0.56416 0.43161 0.02359 0.0
C388 C 0.61718 0.39748 0.02485 0.0
C389 C 0.59805 0.37822 0.99074 0.0
C390 C 0.56357 0.38824 0.96925 0.0
C391 C 0.54669 0.41466 0.98647 0.0
C392 C 0.65365 0.38773 0.04947 0.0
C393 C 0.54292 0.36929 0.93131 0.0
H394 H 0.67733 0.30542 0.93791 0.0
H395 H 0.61077 0.27326 0.03599 0.0
H396 H 0.62542 0.37754 0.9082 0.0
H397 H 0.66782 0.38095 0.94425 0.0
H398 H 0.66363 0.35364 0.89744 0.0
H399 H 0.56603 0.30443 0.06164 0.0
H400 H 0.58249 0.3443 0.06983 0.0
H401 H 0.54719 0.33558 0.02453 0.0
H402 H 0.61346 0.43702 0.06949 0.0
H403 H 0.51863 0.42 0.97396 0.0
H404 H 0.67226 0.38072 0.02502 0.0
H405 H 0.65016 0.36692 0.07115 0.0
H406 H 0.66662 0.4069 0.07147 0.0
H407 H 0.56148 0.35924 0.9087 0.0
H408 H 0.52206 0.38393 0.91075 0.0
H409 H 0.52897 0.34937 0.94587 0.0
C410 C 0.20312 0.98362 0.29102 0.0
C411 C 0.21875 0.95331 0.29364 0.0
C412 C 0.18245 0.99453 0.32428 0.0
C413 C 0.17776 0.975 0.36168 0.0
C414 C 0.19533 0.94527 0.36606 0.0
C415 C 0.21512 0.93467 0.33188 0.0
C416 C 0.16387 0.02621 0.31795 0.0
C417 C 0.19124 0.92362 0.40538 0.0
C418 C 0.13206 1.00282 0.46312 0.0
C419 C 0.09724 0.99028 0.45151 0.0
C420 C 0.15855 0.99924 0.43343 0.0
C421 C 0.14973 0.98288 0.39158 0.0
C422 C 0.11398 0.97183 0.37903 0.0
C423 C 0.08836 0.97582 0.40889 0.0
C424 C 0.19632 0.01158 0.4477 0.0
C425 C 0.10306 0.95428 0.33495 0.0
H426 H 0.20634 0.99872 0.26245 0.0
H427 H 0.22636 0.91105 0.33437 0.0
H428 H 0.13424 0.02264 0.30906 0.0
H429 H 0.16808 0.04001 0.34999 0.0
H430 H 0.17377 0.04024 0.29056 0.0
H431 H 0.21075 0.90364 0.40757 0.0
H432 H 0.19531 0.93686 0.43792 0.0
H433 H 0.16336 0.91382 0.40127 0.0
H434 H 0.13902 0.01398 0.49598 0.0
H435 H 0.06125 0.96652 0.39939 0.0
H436 H 0.20574 0.02533 0.41975 0.0
H437 H 0.21526 0.99143 0.45509 0.0
H438 H 0.19787 0.02676 0.47843 0.0
H439 H 0.11005 0.96829 0.30584 0.0
H440 H 0.07359 0.94893 0.3291 0.0
H441 H 0.11817 0.93166 0.33534 0.0
C442 C 0.68639 0.60408 0.81389 0.0
C443 C 0.68708 0.58323 0.77712 0.0
C444 C 0.6687 0.59599 0.85124 0.0
C445 C 0.65002 0.56687 0.85121 0.0
C446 C 0.65283 0.54483 0.81599 0.0
C447 C 0.67196 0.55298 0.78007 0.0
C448 C 0.6675 0.6198 0.88887 0.0
C449 C 0.63276 0.51378 0.81387 0.0
C450 C 0.60088 0.54071 0.95034 0.0
C451 C 0.56588 0.55251 0.93651 0.0
C452 C 0.62905 0.54561 0.92354 0.0
C453 C 0.62181 0.56229 0.8819 0.0
C454 C 0.58659 0.57416 0.86801 0.0
C455 C 0.55937 0.56923 0.89533 0.0
C456 C 0.66648 0.53308 0.93972 0.0
C457 C 0.57732 0.5919 0.82381 0.0
H458 H 0.69782 0.62751 0.81263 0.0
H459 H 0.67356 0.53598 0.75314 0.0
H460 H 0.64127 0.63261 0.88351 0.0
H461 H 0.66957 0.60794 0.9224 0.0
H462 H 0.68968 0.6374 0.88968 0.0
H463 H 0.64135 0.49763 0.7878 0.0
H464 H 0.63694 0.50175 0.84727 0.0
H465 H 0.60325 0.51828 0.80535 0.0
H466 H 0.60632 0.5279 0.98207 0.0
H467 H 0.53257 0.57848 0.8838 0.0
H468 H 0.68665 0.55243 0.94063 0.0
H469 H 0.67405 0.51502 0.9156 0.0
H470 H 0.66831 0.52232 0.97402 0.0
H471 H 0.59417 0.6135 0.82406 0.0
H472 H 0.54835 0.59903 0.81758 0.0
H473 H 0.58332 0.57702 0.79495 0.0
C474 C 0.8667 0.12312 0.24218 0.0
C475 C 0.84392 0.10053 0.2187 0.0
C476 C 0.88646 0.11616 0.28472 0.0
C477 C 0.88271 0.08611 0.30448 0.0
C478 C 0.85786 0.06402 0.282 0.0
C479 C 0.83915 0.07134 0.23906 0.0
C480 C 0.91311 0.14014 0.30699 0.0
C481 C 0.85249 0.03195 0.30215 0.0
C482 C 0.96251 0.0466 0.37458 0.0
C483 C 0.9534 0.04873 0.4188 0.0
C484 C 0.94059 0.06 0.33762 0.0
C485 C 0.90837 0.07588 0.34476 0.0
C486 C 0.89994 0.07969 0.38968 0.0
C487 C 0.92275 0.06615 0.42641 0.0
C488 C 0.95107 0.05568 0.29056 0.0
C489 C 0.86584 0.09647 0.39861 0.0
H490 H 0.87044 0.14566 0.22617 0.0
H491 H 0.82131 0.05399 0.22088 0.0
H492 H 0.91049 0.14259 0.34358 0.0
H493 H 0.94112 0.13197 0.30456 0.0
H494 H 0.90932 0.16369 0.29063 0.0
H495 H 0.82891 0.01926 0.28355 0.0
H496 H 0.87712 0.01736 0.30093 0.0
H497 H 0.84839 0.03427 0.33832 0.0
H498 H 0.98644 0.03341 0.36863 0.0
H499 H 0.91554 0.06768 0.46051 0.0
H500 H 0.95056 0.07868 0.27268 0.0
H501 H 0.93119 0.03997 0.27035 0.0
H502 H 0.97848 0.04513 0.29129 0.0
H503 H 0.86289 0.11925 0.38011 0.0
H504 H 0.86549 0.10104 0.43539 0.0
H505 H 0.84196 0.08177 0.38587 0.0
C506 C 0.32867 0.41248 0.74944 0.0
C507 C 0.31855 0.43578 0.71656 0.0
C508 C 0.34913 0.42002 0.79125 0.0
C509 C 0.36021 0.45158 0.80035 0.0
C510 C 0.35065 0.47515 0.76707 0.0
C511 C 0.32983 0.467 0.72569 0.0
C512 C 0.35855 0.39427 0.8259 0.0
C513 C 0.36209 0.5091 0.77536 0.0
C514 C 0.38163 0.48393 0.92007 0.0
C515 C 0.41956 0.48472 0.92575 0.0
C516 C 0.362 0.47132 0.88051 0.0
C517 C 0.38081 0.46026 0.84517 0.0
C518 C 0.41924 0.45965 0.85172 0.0
C519 C 0.43821 0.47161 0.89228 0.0
C520 C 0.3211 0.47166 0.87545 0.0
C521 C 0.44034 0.44866 0.8146 0.0
H522 H 0.3208 0.38815 0.7424 0.0
H523 H 0.3219 0.48524 0.70078 0.0
H524 H 0.38838 0.39272 0.83503 0.0
H525 H 0.34695 0.40001 0.85746 0.0
H526 H 0.34821 0.37082 0.8134 0.0
H527 H 0.35386 0.5243 0.74529 0.0
H528 H 0.34981 0.51873 0.80453 0.0
H529 H 0.39195 0.51051 0.78428 0.0
H530 H 0.36729 0.4946 0.94572 0.0
H531 H 0.46755 0.47308 0.89621 0.0
H532 H 0.31006 0.44839 0.86326 0.0
H533 H 0.31051 0.48951 0.84976 0.0
H534 H 0.31079 0.47742 0.90791 0.0
H535 H 0.43004 0.42556 0.80079 0.0
H536 H 0.46978 0.44643 0.82672 0.0
H537 H 0.43669 0.46586 0.78621 0.0
C538 C 0.68699 0.58254 0.34241 0.0
C539 C 0.67548 0.6085 0.36587 0.0
C540 C 0.66615 0.57143 0.30261 0.0
C541 C 0.63301 0.58666 0.28623 0.0
C542 C 0.62181 0.61339 0.30954 0.0
C543 C 0.64324 0.62398 0.34919 0.0
C544 C 0.67897 0.5428 0.27893 0.0
C545 C 0.58657 0.63006 0.29355 0.0
C546 C 0.58822 0.56706 0.16615 0.0
C547 C 0.56446 0.54288 0.1749 0.0
C548 C 0.6105 0.58198 0.2021 0.0
C549 C 0.60843 0.57272 0.24757 0.0
C550 C 0.58328 0.54929 0.25642 0.0
C551 C 0.56181 0.53464 0.22009 0.0
C552 C 0.63712 0.6068 0.19142 0.0
C553 C 0.57969 0.53899 0.3043 0.0
H554 H 0.712 0.57067 0.35566 0.0
H555 H 0.63452 0.64405 0.3677 0.0
H556 H 0.66002 0.52287 0.28144 0.0
H557 H 0.67908 0.5478 0.24231 0.0
H558 H 0.7066 0.53525 0.29385 0.0
H559 H 0.58315 0.65189 0.31334 0.0
H560 H 0.58511 0.63633 0.25712 0.0
H561 H 0.56352 0.61403 0.29688 0.0
H562 H 0.59047 0.57337 0.13129 0.0
H563 H 0.54314 0.51621 0.22712 0.0
H564 H 0.66518 0.59818 0.20165 0.0
H565 H 0.63377 0.62862 0.21116 0.0
H566 H 0.63385 0.61278 0.15471 0.0
H567 H 0.60544 0.52809 0.32006 0.0
H568 H 0.55747 0.52163 0.30543 0.0
H569 H 0.57443 0.55971 0.32536 0.0
C570 C 0.83444 0.05638 0.8057 0.0
C571 C 0.82302 0.08805 0.80435 0.0
C572 C 0.85563 0.04437 0.77371 0.0
C573 C 0.8657 0.06444 0.73941 0.0
C574 C 0.85237 0.09582 0.73619 0.0
C575 C 0.83142 0.10724 0.7687 0.0
C576 C 0.86906 0.01075 0.77835 0.0
C577 C 0.86243 0.11815 0.70035 0.0
C578 C 0.95902 0.05538 0.7037 0.0
C579 C 0.95161 0.04353 0.65917 0.0
C580 C 0.93143 0.06129 0.73023 0.0
C581 C 0.89506 0.0548 0.71242 0.0
C582 C 0.88728 0.04117 0.66847 0.0
C583 C 0.9157 0.03572 0.64219 0.0
C584 C 0.94125 0.07582 0.77679 0.0
C585 C 0.84886 0.03343 0.64872 0.0
H586 H 0.82752 0.04108 0.83244 0.0
H587 H 0.82322 0.13181 0.76739 0.0
H588 H 0.86621 0.9989 0.74473 0.0
H589 H 0.8983 0.01069 0.79201 0.0
H590 H 0.85427 0.9968 0.80162 0.0
H591 H 0.84597 0.14012 0.69837 0.0
H592 H 0.89145 0.12469 0.70837 0.0
H593 H 0.85882 0.1066 0.66651 0.0
H594 H 0.98666 0.061 0.71775 0.0
H595 H 0.90966 0.02645 0.60799 0.0
H596 H 0.93053 0.06118 0.80289 0.0
H597 H 0.92873 0.09957 0.77767 0.0
H598 H 0.97101 0.07833 0.78629 0.0
H599 H 0.8356 0.01918 0.67312 0.0
H600 H 0.84756 0.02024 0.61618 0.0
H601 H 0.83303 0.05558 0.64255 0.0
C602 C 0.29265 0.46817 0.26625 0.0
C603 C 0.31363 0.46091 0.30772 0.0
C604 C 0.30919 0.47507 0.22744 0.0
C605 C 0.34748 0.47394 0.23009 0.0
C606 C 0.36864 0.46662 0.27203 0.0
C607 C 0.35148 0.46043 0.31029 0.0
C608 C 0.28577 0.48321 0.18356 0.0
C609 C 0.40948 0.46447 0.27632 0.0
C610 C 0.39813 0.45383 0.13173 0.0
C611 C 0.41518 0.48257 0.12466 0.0
C612 C 0.3735 0.4513 0.16335 0.0
C613 C 0.36584 0.47817 0.18883 0.0
C614 C 0.38049 0.50788 0.17895 0.0
C615 C 0.40498 0.50978 0.14676 0.0
C616 C 0.35839 0.41919 0.1724 0.0
C617 C 0.3728 0.53715 0.20507 0.0
H618 H 0.26337 0.46869 0.26431 0.0
H619 H 0.36772 0.4544 0.34218 0.0
H620 H 0.29469 0.50593 0.17018 0.0
H621 H 0.28877 0.46485 0.15765 0.0
H622 H 0.25665 0.48512 0.18783 0.0
H623 H 0.42198 0.45936 0.31164 0.0
H624 H 0.41742 0.4455 0.25378 0.0
H625 H 0.42087 0.48693 0.26532 0.0
H626 H 0.40577 0.43277 0.11446 0.0
H627 H 0.41822 0.53203 0.14164 0.0
H628 H 0.32893 0.42069 0.17456 0.0
H629 H 0.37184 0.41025 0.20552 0.0
H630 H 0.36279 0.40177 0.14565 0.0
H631 H 0.34358 0.53869 0.20874 0.0
H632 H 0.38093 0.55898 0.18839 0.0
H633 H 0.38813 0.536 0.23974 0.0
C634 C 0.20622 0.92764 0.83914 0.0
C635 C 0.19088 0.93917 0.8769 0.0
C636 C 0.18895 0.93177 0.79445 0.0
C637 C 0.15673 0.94978 0.78656 0.0
C638 C 0.14095 0.96147 0.82405 0.0
C639 C 0.15743 0.95512 0.86845 0.0
C640 C 0.20585 0.91752 0.75564 0.0
C641 C 0.10728 0.98181 0.81739 0.0
C642 C 0.13844 0.99993 0.68083 0.0
C643 C 0.10582 0.98712 0.65907 0.0
C644 C 0.15605 0.98721 0.72129 0.0
C645 C 0.14186 0.95983 0.73957 0.0
C646 C 0.1114 0.94453 0.71499 0.0
C647 C 0.09327 0.95866 0.67526 0.0
C648 C 0.18778 0.00497 0.74658 0.0
C649 C 0.09662 0.91432 0.73201 0.0
H650 H 0.23216 0.91578 0.84379 0.0
H651 H 0.14389 0.96313 0.89638 0.0
H652 H 0.1847 0.90778 0.72941 0.0
H653 H 0.22077 0.93597 0.73929 0.0
H654 H 0.22529 0.89839 0.76742 0.0
H655 H 0.09912 0.99005 0.85007 0.0
H656 H 0.11199 1.00281 0.79665 0.0
H657 H 0.08441 0.96844 0.79867 0.0
H658 H 0.14875 0.02166 0.66815 0.0
H659 H 0.06819 0.94851 0.65871 0.0
H660 H 0.2115 0.98916 0.75442 0.0
H661 H 0.18045 0.01373 0.77941 0.0
H662 H 0.19601 0.02547 0.72706 0.0
H663 H 0.11895 0.89855 0.74683 0.0
H664 H 0.07947 0.9015 0.70439 0.0
H665 H 0.07969 0.91982 0.75902 0.0
loop_
_geom_bond_atom_site_label_1
_geom_bond_atom_site_label_2
_geom_bond_distance
_geom_bond_site_symmetry_2
_ccdc_geom_bond_type
C0 C1 1.391 . S
C0 C4 1.391 . S
C0 H42 0.948 . S
C1 C0 1.391 . S
C1 C2 1.391 . S
C2 C1 1.391 . S
C2 H58 0.947 . S
C2 C59 1.392 1_556 S
C3 C4 1.391 1_554 S
C3 C7 1.397 . S
C3 C59 1.419 . S
C4 C0 1.391 . S
C4 C3 1.391 1_556 S
C4 C5 1.399 . S
C5 C4 1.399 . S
C5 C8 1.396 1_556 S
C5 C17 1.453 . S
C5 C18 1.684 . S
H6 C30 0.948 . S
C7 C3 1.397 . S
C7 C8 1.394 . S
C7 C26 1.723 . S
C8 C5 1.396 1_554 S
C8 C7 1.394 . S
C8 C38 1.723 . S
H9 C32 0.947 . S
H10 C33 0.948 . S
H11 C39 0.982 . S
H12 C40 0.979 . S
H13 C40 0.980 . S
H14 C40 0.983 . S
H15 C39 0.979 . S
H16 C39 0.977 . S
C17 C5 1.453 . S
C17 H46 0.982 . S
C17 H47 0.979 . S
C17 H48 0.977 . S
C18 C5 1.684 . S
C18 H43 0.979 . S
C18 H44 0.980 . S
C18 H45 0.983 . S
C19 C20 1.391 . S
C19 C24 1.391 . S
C19 H49 0.948 . S
C20 C19 1.391 . S
C20 C21 1.391 . S
C21 C20 1.391 . S
C21 C22 1.392 . S
C21 H50 0.947 . S
C22 C21 1.392 . S
C22 C23 1.419 . S
C22 H51 0.948 . S
C23 C22 1.419 . S
C23 C24 1.391 . S
C23 C27 1.397 . S
C24 C19 1.391 . S
C24 C23 1.391 . S
C24 C25 1.399 . S
C25 C24 1.399 . S
C25 C26 1.396 . S
C25 C28 1.453 . S
C25 C29 1.684 . S
C26 C7 1.723 . S
C26 C25 1.396 . S
C26 C27 1.394 . S
C27 C23 1.397 . S
C27 C26 1.394 . S
C27 C37 1.723 . S
C28 C25 1.453 . S
C28 H52 0.982 . S
C28 H53 0.979 . S
C28 H54 0.977 . S
C29 C25 1.684 . S
C29 H55 0.979 . S
C29 H56 0.980 . S
C29 H57 0.983 . S
C30 H6 0.948 . S
C30 C31 1.391 . S
C30 C35 1.391 . S
C31 C30 1.391 . S
C31 C32 1.391 . S
C32 H9 0.947 . S
C32 C31 1.391 . S
C32 C33 1.392 . S
C33 H10 0.948 . S
C33 C32 1.392 . S
C33 C34 1.419 . S
C34 C33 1.419 . S
C34 C35 1.391 . S
C34 C38 1.397 . S
C35 C30 1.391 . S
C35 C34 1.391 . S
C35 C36 1.399 . S
C36 C35 1.399 . S
C36 C37 1.396 . S
C36 C39 1.453 . S
C36 C40 1.684 . S
C37 C27 1.723 . S
C37 C36 1.396 . S
C37 C38 1.394 . S
C38 C8 1.723 . S
C38 C34 1.397 . S
C38 C37 1.394 . S
C39 H11 0.982 . S
C39 H15 0.979 . S
C39 H16 0.977 . S
C39 C36 1.453 . S
C40 H12 0.979 . S
C40 H13 0.980 . S
C40 H14 0.983 . S
C40 C36 1.684 . S
H41 C59 0.948 . S
H42 C0 0.948 . S
H43 C18 0.979 . S
H44 C18 0.980 . S
H45 C18 0.983 . S
H46 C17 0.982 . S
H47 C17 0.979 . S
H48 C17 0.977 . S
H49 C19 0.948 . S
H50 C21 0.947 . S
H51 C22 0.948 . S
H52 C28 0.982 . S
H53 C28 0.979 . S
H54 C28 0.977 . S
H55 C29 0.979 . S
H56 C29 0.980 . S
H57 C29 0.983 . S
H58 C2 0.947 . S
C59 C2 1.392 1_554 S
C59 C3 1.419 . S
C59 H41 0.948 . S
C60 C61 1.391 . S
C60 C64 1.391 . S
C60 H102 0.948 . S
C61 C60 1.391 . S
C61 C62 1.391 . S
C62 C61 1.391 . S
C62 H118 0.947 . S
C62 C119 1.392 . S
C63 C64 1.391 . S
C63 C67 1.397 . S
C63 C119 1.419 . S
C64 C60 1.391 . S
C64 C63 1.391 . S
C64 C65 1.399 . S
C65 C64 1.399 . S
C65 C68 1.396 . S
C65 C77 1.453 . S
C65 C78 1.684 . S
H66 C90 0.948 . S
C67 C63 1.397 . S
C67 C68 1.394 . S
C67 C86 1.723 . S
C68 C65 1.396 . S
C68 C67 1.394 . S
C68 C98 1.723 . S
H69 C92 0.947 . S
H70 C93 0.948 . S
H71 C99 0.982 . S
H72 C100 0.979 . S
H73 C100 0.980 . S
H74 C100 0.983 . S
H75 C99 0.979 . S
H76 C99 0.977 . S
C77 C65 1.453 . S
C77 H106 0.982 . S
C77 H107 0.979 . S
C77 H108 0.977 . S
C78 C65 1.684 . S
C78 H103 0.979 . S
C78 H104 0.980 . S
C78 H105 0.983 . S
C79 C80 1.391 . S
C79 C84 1.391 . S
C79 H109 0.948 . S
C80 C79 1.391 . S
C80 C81 1.391 . S
C81 C80 1.391 . S
C81 C82 1.392 . S
C81 H110 0.947 . S
C82 C81 1.392 . S
C82 C83 1.419 . S
C82 H111 0.948 . S
C83 C82 1.419 . S
C83 C84 1.391 . S
C83 C87 1.397 . S
C84 C79 1.391 . S
C84 C83 1.391 . S
C84 C85 1.399 . S
C85 C84 1.399 . S
C85 C86 1.396 . S
C85 C88 1.453 . S
C85 C89 1.684 . S
C86 C67 1.723 . S
C86 C85 1.396 . S
C86 C87 1.394 . S
C87 C83 1.397 . S
C87 C86 1.394 . S
C87 C97 1.723 . S
C88 C85 1.453 . S
C88 H112 0.982 . S
C88 H113 0.979 . S
C88 H114 0.977 . S
C89 C85 1.684 . S
C89 H115 0.979 . S
C89 H116 0.980 . S
C89 H117 0.983 . S
C90 H66 0.948 . S
C90 C91 1.391 . S
C90 C95 1.391 . S
C91 C90 1.391 . S
C91 C92 1.391 . S
C92 H69 0.947 . S
C92 C91 1.391 . S
C92 C93 1.392 . S
C93 H70 0.948 . S
C93 C92 1.392 . S
C93 C94 1.419 . S
C94 C93 1.419 . S
C94 C95 1.391 . S
C94 C98 1.397 . S
C95 C90 1.391 . S
C95 C94 1.391 . S
C95 C96 1.399 . S
C96 C95 1.399 . S
C96 C97 1.396 . S
C96 C99 1.453 . S
C96 C100 1.684 . S
C97 C87 1.723 . S
C97 C96 1.396 . S
C97 C98 1.394 . S
C98 C68 1.723 . S
C98 C94 1.397 . S
C98 C97 1.394 . S
C99 H71 0.982 . S
C99 H75 0.979 . S
C99 H76 0.977 . S
C99 C96 1.453 . S
C100 H72 0.979 . S
C100 H73 0.980 . S
C100 H74 0.983 . S
C100 C96 1.684 . S
H101 C119 0.948 . S
H102 C60 0.948 . S
H103 C78 0.979 . S
H104 C78 0.980 . S
H105 C78 0.983 . S
H106 C77 0.982 . S
H107 C77 0.979 . S
H108 C77 0.977 . S
H109 C79 0.948 . S
H110 C81 0.947 . S
H111 C82 0.948 . S
H112 C88 0.982 . S
H113 C88 0.979 . S
H114 C88 0.977 . S
H115 C89 0.979 . S
H116 C89 0.980 . S
H117 C89 0.983 . S
H118 C62 0.947 . S
C119 C62 1.392 . S
C119 C63 1.419 . S
C119 H101 0.948 . S
C120 C121 1.391 . S
C120 C124 1.391 . S
C120 H162 0.948 . S
C121 C120 1.391 . S
C121 C122 1.391 . S
C122 C121 1.391 . S
C122 H178 0.947 . S
C122 C179 1.392 . S
C123 C124 1.391 . S
C123 C127 1.397 . S
C123 C179 1.419 . S
C124 C120 1.391 . S
C124 C123 1.391 . S
C124 C125 1.399 . S
C125 C124 1.399 . S
C125 C128 1.396 . S
C125 C137 1.453 . S
C125 C138 1.684 . S
H126 C150 0.948 . S
C127 C123 1.397 . S
C127 C128 1.394 . S
C127 C146 1.723 1_554 S
C128 C125 1.396 . S
C128 C127 1.394 . S
C128 C158 1.723 . S
H129 C152 0.947 . S
H130 C153 0.948 . S
H131 C159 0.982 . S
H132 C160 0.979 . S
H133 C160 0.980 . S
H134 C160 0.983 . S
H135 C159 0.979 . S
H136 C159 0.977 . S
C137 C125 1.453 . S
C137 H166 0.982 . S
C137 H167 0.979 . S
C137 H168 0.977 . S
C138 C125 1.684 . S
C138 H163 0.979 . S
C138 H164 0.980 . S
C138 H165 0.983 . S
C139 C140 1.391 . S
C139 C144 1.391 . S
C139 H169 0.948 . S
C140 C139 1.391 . S
C140 C141 1.391 . S
C141 C140 1.391 . S
C141 C142 1.392 . S
C141 H170 0.947 . S
C142 C141 1.392 . S
C142 C143 1.419 . S
C142 H171 0.948 . S
C143 C142 1.419 . S
C143 C144 1.391 . S
C143 C147 1.397 . S
C144 C139 1.391 . S
C144 C143 1.391 . S
C144 C145 1.399 . S
C145 C144 1.399 . S
C145 C146 1.396 . S
C145 C148 1.453 . S
C145 C149 1.684 . S
C146 C127 1.723 1_556 S
C146 C145 1.396 . S
C146 C147 1.394 . S
C147 C143 1.397 . S
C147 C146 1.394 . S
C147 C157 1.723 . S
C148 C145 1.453 . S
C148 H172 0.982 . S
C148 H173 0.979 . S
C148 H174 0.977 1_556 S
C149 C145 1.684 . S
C149 H175 0.979 . S
C149 H176 0.980 1_556 S
C149 H177 0.983 . S
C150 H126 0.948 . S
C150 C151 1.394 . S
C150 C155 1.391 . S
C151 C150 1.394 . S
C151 C152 1.388 1_556 S
C152 H129 0.947 . S
C152 C151 1.388 1_554 S
C152 C153 1.392 . S
C153 H130 0.948 . S
C153 C152 1.392 . S
C153 C154 1.419 . S
C154 C153 1.419 . S
C154 C155 1.391 1_554 S
C154 C158 1.397 . S
C155 C150 1.391 . S
C155 C154 1.391 1_556 S
C155 C156 1.399 . S
C156 C155 1.399 . S
C156 C157 1.396 . S
C156 C159 1.453 . S
C156 C160 1.684 . S
C157 C147 1.723 . S
C157 C156 1.396 . S
C157 C158 1.394 1_556 S
C158 C128 1.723 . S
C158 C154 1.397 . S
C158 C157 1.394 1_554 S
C159 H131 0.982 . S
C159 H135 0.979 . S
C159 H136 0.977 . S
C159 C156 1.453 . S
C160 H132 0.979 . S
C160 H133 0.980 . S
C160 H134 0.983 . S
C160 C156 1.684 . S
H161 C179 0.948 . S
H162 C120 0.948 . S
H163 C138 0.979 . S
H164 C138 0.980 . S
H165 C138 0.983 . S
H166 C137 0.982 . S
H167 C137 0.979 . S
H168 C137 0.977 . S
H169 C139 0.948 . S
H170 C141 0.947 . S
H171 C142 0.948 . S
H172 C148 0.982 . S
H173 C148 0.979 . S
H174 C148 0.977 1_554 S
H175 C149 0.979 . S
H176 C149 0.980 1_554 S
H177 C149 0.983 . S
H178 C122 0.947 . S
C179 C122 1.392 . S
C179 C123 1.419 . S
C179 H161 0.948 . S
C180 C181 1.391 . S
C180 C184 1.391 . S
C180 H222 0.948 . S
C181 C180 1.391 . S
C181 C182 1.391 . S
C182 C181 1.391 . S
C182 H238 0.947 . S
C182 C239 1.392 . S
C183 C184 1.391 . S
C183 C187 1.397 . S
C183 C239 1.419 . S
C184 C180 1.391 . S
C184 C183 1.391 . S
C184 C185 1.399 . S
C185 C184 1.399 . S
C185 C188 1.396 . S
C185 C197 1.453 . S
C185 C198 1.684 . S
H186 C210 0.948 . S
C187 C183 1.397 . S
C187 C188 1.394 . S
C187 C206 1.723 . S
C188 C185 1.396 . S
C188 C187 1.394 . S
C188 C218 1.723 . S
H189 C212 0.947 . S
H190 C213 0.948 . S
H191 C219 0.982 . S
H192 C220 0.979 . S
H193 C220 0.980 . S
H194 C220 0.983 . S
H195 C219 0.979 . S
H196 C219 0.977 . S
C197 C185 1.453 . S
C197 H226 0.982 . S
C197 H227 0.979 . S
C197 H228 0.977 . S
C198 C185 1.684 . S
C198 H223 0.979 . S
C198 H224 0.980 . S
C198 H225 0.983 . S
C199 C200 1.391 . S
C199 C204 1.391 . S
C199 H229 0.948 . S
C200 C199 1.391 . S
C200 C201 1.391 . S
C201 C200 1.391 . S
C201 C202 1.392 . S
C201 H230 0.947 . S
C202 C201 1.392 . S
C202 C203 1.419 . S
C202 H231 0.948 . S
C203 C202 1.419 . S
C203 C204 1.391 . S
C203 C207 1.397 . S
C204 C199 1.391 . S
C204 C203 1.391 . S
C204 C205 1.399 . S
C205 C204 1.399 . S
C205 C206 1.396 . S
C205 C208 1.453 . S
C205 C209 1.684 . S
C206 C187 1.723 . S
C206 C205 1.396 . S
C206 C207 1.394 . S
C207 C203 1.397 . S
C207 C206 1.394 . S
C207 C217 1.723 . S
C208 C205 1.453 . S
C208 H232 0.982 . S
C208 H233 0.979 . S
C208 H234 0.977 . S
C209 C205 1.684 . S
C209 H235 0.979 . S
C209 H236 0.980 . S
C209 H237 0.983 . S
C210 H186 0.948 . S
C210 C211 1.391 . S
C210 C215 1.391 . S
C211 C210 1.391 . S
C211 C212 1.391 . S
C212 H189 0.947 . S
C212 C211 1.391 . S
C212 C213 1.392 . S
C213 H190 0.948 . S
C213 C212 1.392 . S
C213 C214 1.419 . S
C214 C213 1.419 . S
C214 C215 1.391 . S
C214 C218 1.397 . S
C215 C210 1.391 . S
C215 C214 1.391 . S
C215 C216 1.399 . S
C216 C215 1.399 . S
C216 C217 1.396 . S
C216 C219 1.453 . S
C216 C220 1.684 . S
C217 C207 1.723 . S
C217 C216 1.396 . S
C217 C218 1.394 . S
C218 C188 1.723 . S
C218 C214 1.397 . S
C218 C217 1.394 . S
C219 H191 0.982 . S
C219 H195 0.979 . S
C219 H196 0.977 . S
C219 C216 1.453 . S
C220 H192 0.979 . S
C220 H193 0.980 . S
C220 H194 0.983 . S
C220 C216 1.684 . S
H221 C239 0.948 . S
H222 C180 0.948 . S
H223 C198 0.979 . S
H224 C198 0.980 . S
H225 C198 0.983 . S
H226 C197 0.982 . S
H227 C197 0.979 . S
H228 C197 0.977 . S
H229 C199 0.948 . S
H230 C201 0.947 . S
H231 C202 0.948 . S
H232 C208 0.982 . S
H233 C208 0.979 . S
H234 C208 0.977 . S
H235 C209 0.979 . S
H236 C209 0.980 . S
H237 C209 0.983 . S
H238 C182 0.947 . S
C239 C182 1.392 . S
C239 C183 1.419 . S
C239 H221 0.948 . S
O240 Mn241 2.163 1_655 S
O240 C254 1.244 . S
Mn241 O240 2.163 1_455 S
Mn241 O244 2.160 1_545 S
Mn241 O245 2.221 . S
Mn241 O247 2.163 1_455 S
Mn241 O249 2.160 1_545 S
Mn241 O259 2.221 1_445 S
O242 Mn243 2.087 1_545 S
O242 C254 1.256 . S
Mn243 O242 2.087 1_565 S
Mn243 O250 2.089 1_655 S
Mn243 O259 2.290 . S
Mn243 O260 2.251 . S
O244 Mn241 2.160 1_565 S
O244 C255 1.239 . S
O245 Mn241 2.221 . S
O245 Mn246 2.290 . S
O245 C256 1.278 . S
Mn246 O245 2.290 . S
Mn246 O248 2.089 . S
Mn246 O251 2.251 . S
Mn246 O252 2.087 1_455 S
O247 Mn241 2.163 1_655 S
O247 C257 1.244 . S
O248 Mn246 2.089 . S
O248 C255 1.256 1_545 S
O249 Mn241 2.160 1_565 S
O249 C258 1.239 . S
O250 Mn243 2.089 1_455 S
O250 C258 1.256 . S
O251 Mn246 2.251 . S
O251 C256 1.241 . S
O252 Mn246 2.087 1_655 S
O252 C257 1.256 . S
C253 O259 1.278 . S
C253 O260 1.241 . S
C254 O240 1.244 . S
C254 O242 1.256 . S
C255 O244 1.239 . S
C255 O248 1.256 1_565 S
C256 O245 1.278 . S
C256 O251 1.241 . S
C257 O247 1.244 . S
C257 O252 1.256 . S
C258 O249 1.239 . S
C258 O250 1.256 . S
O259 Mn241 2.221 1_665 S
O259 Mn243 2.290 . S
O259 C253 1.278 . S
O260 Mn243 2.251 . S
O260 C253 1.241 . S
O261 Mn262 2.163 . S
O261 C275 1.244 . S
Mn262 O261 2.163 . S
Mn262 O265 2.160 1_554 S
Mn262 O266 2.221 . S
Mn262 O268 2.163 1_554 S
Mn262 O270 2.160 . S
Mn262 O280 2.221 . S
O263 Mn264 2.087 . S
O263 C275 1.256 . S
Mn264 O263 2.087 . S
Mn264 O271 2.089 . S
Mn264 O280 2.290 . S
Mn264 O281 2.251 . S
O265 Mn262 2.160 1_556 S
O265 C276 1.239 . S
O266 Mn262 2.221 . S
O266 Mn267 2.290 1_554 S
O266 C277 1.278 . S
Mn267 O266 2.290 1_556 S
Mn267 O269 2.089 . S
Mn267 O272 2.251 1_556 S
Mn267 O273 2.087 . S
O268 Mn262 2.163 1_556 S
O268 C278 1.244 . S
O269 Mn267 2.089 . S
O269 C276 1.256 . S
O270 Mn262 2.160 . S
O270 C279 1.239 . S
O271 Mn264 2.089 . S
O271 C279 1.256 . S
O272 Mn267 2.251 1_554 S
O272 C277 1.241 . S
O273 Mn267 2.087 . S
O273 C278 1.256 . S
C274 O280 1.278 . S
C274 O281 1.241 . S
C275 O261 1.244 . S
C275 O263 1.256 . S
C276 O265 1.239 . S
C276 O269 1.256 . S
C277 O266 1.278 . S
C277 O272 1.241 . S
C278 O268 1.244 . S
C278 O273 1.256 . S
C279 O270 1.239 . S
C279 O271 1.256 . S
O280 Mn262 2.221 . S
O280 Mn264 2.290 . S
O280 C274 1.278 . S
O281 Mn264 2.251 . S
O281 C274 1.241 . S
C282 C283 1.391 . S
C282 C284 1.394 . S
C282 H298 0.931 . S
C283 C282 1.391 . S
C283 C287 1.376 . S
C284 C282 1.394 . S
C284 C285 1.369 . S
C284 C288 1.531 . S
C285 C284 1.369 . S
C285 C286 1.410 . S
C285 C293 1.503 . S
C286 C285 1.410 . S
C286 C287 1.392 . S
C286 C289 1.511 . S
C287 C283 1.376 . S
C287 C286 1.392 . S
C287 H299 0.929 . S
C288 C284 1.531 . S
C288 H300 0.960 . S
C288 H301 0.962 . S
C288 H302 0.960 . S
C289 C286 1.511 . S
C289 H303 0.961 . S
C289 H304 0.961 . S
C289 H305 0.961 . S
C290 C291 1.370 . S
C290 C292 1.363 . S
C290 H306 0.931 . S
C291 C290 1.370 . S
C291 C295 1.408 . S
C292 C290 1.363 . S
C292 C293 1.370 . S
C292 C296 1.524 . S
C293 C285 1.503 . S
C293 C292 1.370 . S
C293 C294 1.403 . S
C294 C293 1.403 . S
C294 C295 1.404 . S
C294 C297 1.539 . S
C295 C291 1.408 . S
C295 C294 1.404 . S
C295 H307 0.930 . S
C296 C292 1.524 . S
C296 H308 0.956 . S
C296 H309 0.961 . S
C296 H310 0.961 . S
C297 C294 1.539 . S
C297 H311 0.958 . S
C297 H312 0.961 . S
C297 H313 0.960 . S
H298 C282 0.931 . S
H299 C287 0.929 . S
H300 C288 0.960 . S
H301 C288 0.962 . S
H302 C288 0.960 . S
H303 C289 0.961 . S
H304 C289 0.961 . S
H305 C289 0.961 . S
H306 C290 0.931 . S
H307 C295 0.930 . S
H308 C296 0.956 . S
H309 C296 0.961 . S
H310 C296 0.961 . S
H311 C297 0.958 . S
H312 C297 0.961 . S
H313 C297 0.960 . S
C314 C315 1.391 . S
C314 C316 1.394 . S
C314 H330 0.931 . S
C315 C314 1.391 . S
C315 C319 1.376 . S
C316 C314 1.394 . S
C316 C317 1.369 . S
C316 C320 1.531 1_554 S
C317 C316 1.369 . S
C317 C318 1.410 . S
C317 C325 1.503 . S
C318 C317 1.410 . S
C318 C319 1.392 . S
C318 C321 1.511 . S
C319 C315 1.376 . S
C319 C318 1.392 . S
C319 H331 0.929 . S
C320 C316 1.531 1_556 S
C320 H332 0.960 . S
C320 H333 0.962 1_556 S
C320 H334 0.960 . S
C321 C318 1.511 . S
C321 H335 0.961 . S
C321 H336 0.961 . S
C321 H337 0.961 . S
C322 C323 1.370 . S
C322 C324 1.363 . S
C322 H338 0.931 . S
C323 C322 1.370 . S
C323 C327 1.408 . S
C324 C322 1.363 . S
C324 C325 1.370 . S
C324 C328 1.524 . S
C325 C317 1.503 . S
C325 C324 1.370 . S
C325 C326 1.403 . S
C326 C325 1.403 . S
C326 C327 1.404 . S
C326 C329 1.539 . S
C327 C323 1.408 . S
C327 C326 1.404 . S
C327 H339 0.930 . S
C328 C324 1.524 . S
C328 H340 0.956 . S
C328 H341 0.961 . S
C328 H342 0.961 . S
C329 C326 1.539 . S
C329 H343 0.951 1_554 S
C329 H344 0.961 . S
C329 H345 0.960 . S
H330 C314 0.931 . S
H331 C319 0.929 . S
H332 C320 0.960 . S
H333 C320 0.962 1_554 S
H334 C320 0.960 . S
H335 C321 0.961 . S
H336 C321 0.961 . S
H337 C321 0.961 . S
H338 C322 0.931 . S
H339 C327 0.930 . S
H340 C328 0.956 . S
H341 C328 0.961 . S
H342 C328 0.961 . S
H343 C329 0.951 1_556 S
H344 C329 0.961 . S
H345 C329 0.960 . S
C346 C347 1.391 . S
C346 C348 1.394 . S
C346 H362 0.931 . S
C347 C346 1.391 . S
C347 C351 1.376 . S
C348 C346 1.394 . S
C348 C349 1.369 . S
C348 C352 1.531 . S
C349 C348 1.369 . S
C349 C350 1.410 . S
C349 C357 1.503 . S
C350 C349 1.410 . S
C350 C351 1.392 . S
C350 C353 1.511 . S
C351 C347 1.376 . S
C351 C350 1.392 . S
C351 H363 0.929 . S
C352 C348 1.531 . S
C352 H364 0.960 . S
C352 H365 0.962 . S
C352 H366 0.960 . S
C353 C350 1.511 . S
C353 H367 0.961 . S
C353 H368 0.961 . S
C353 H369 0.961 . S
C354 C355 1.370 . S
C354 C356 1.363 . S
C354 H370 0.931 . S
C355 C354 1.370 . S
C355 C359 1.408 . S
C356 C354 1.363 . S
C356 C357 1.370 . S
C356 C360 1.524 . S
C357 C349 1.503 . S
C357 C356 1.370 . S
C357 C358 1.403 . S
C358 C357 1.403 . S
C358 C359 1.404 . S
C358 C361 1.539 . S
C359 C355 1.408 . S
C359 C358 1.404 . S
C359 H371 0.930 . S
C360 C356 1.524 . S
C360 H372 0.956 . S
C360 H373 0.961 . S
C360 H374 0.961 . S
C361 C358 1.539 . S
C361 H375 0.958 . S
C361 H376 0.961 . S
C361 H377 0.960 . S
H362 C346 0.931 . S
H363 C351 0.929 . S
H364 C352 0.960 . S
H365 C352 0.962 . S
H366 C352 0.960 . S
H367 C353 0.961 . S
H368 C353 0.961 . S
H369 C353 0.961 . S
H370 C354 0.931 . S
H371 C359 0.930 . S
H372 C360 0.956 . S
H373 C360 0.961 . S
H374 C360 0.961 . S
H375 C361 0.958 . S
H376 C361 0.961 . S
H377 C361 0.960 . S
C378 C379 1.391 . S
C378 C380 1.394 . S
C378 H394 0.931 . S
C379 C378 1.391 . S
C379 C383 1.376 1_556 S
C380 C378 1.394 . S
C380 C381 1.369 . S
C380 C384 1.531 . S
C381 C380 1.369 . S
C381 C382 1.410 1_556 S
C381 C389 1.503 1_556 S
C382 C381 1.410 1_554 S
C382 C383 1.392 . S
C382 C385 1.511 . S
C383 C379 1.376 1_554 S
C383 C382 1.392 . S
C383 H395 0.929 . S
C384 C380 1.531 . S
C384 H396 0.960 . S
C384 H397 0.962 . S
C384 H398 0.960 . S
C385 C382 1.511 . S
C385 H399 0.961 . S
C385 H400 0.961 . S
C385 H401 0.961 . S
C386 C387 1.370 . S
C386 C388 1.363 . S
C386 H402 0.931 . S
C387 C386 1.370 . S
C387 C391 1.408 1_554 S
C388 C386 1.363 . S
C388 C389 1.370 . S
C388 C392 1.524 . S
C389 C381 1.503 1_554 S
C389 C388 1.370 . S
C389 C390 1.403 1_554 S
C390 C389 1.403 1_556 S
C390 C391 1.404 . S
C390 C393 1.539 . S
C391 C387 1.408 1_556 S
C391 C390 1.404 . S
C391 H403 0.930 . S
C392 C388 1.524 . S
C392 H404 0.956 . S
C392 H405 0.961 . S
C392 H406 0.961 . S
C393 C390 1.539 . S
C393 H407 0.958 . S
C393 H408 0.961 . S
C393 H409 0.960 . S
H394 C378 0.931 . S
H395 C383 0.929 . S
H396 C384 0.960 . S
H397 C384 0.962 . S
H398 C384 0.960 . S
H399 C385 0.961 . S
H400 C385 0.961 . S
H401 C385 0.961 . S
H402 C386 0.931 . S
H403 C391 0.930 . S
H404 C392 0.956 . S
H405 C392 0.961 . S
H406 C392 0.961 . S
H407 C393 0.958 . S
H408 C393 0.961 . S
H409 C393 0.960 . S
C410 C411 1.391 . S
C410 C412 1.394 . S
C410 H426 0.931 . S
C411 C410 1.391 . S
C411 C415 1.376 . S
C412 C410 1.394 . S
C412 C413 1.369 . S
C412 C416 1.529 . S
C413 C412 1.369 . S
C413 C414 1.410 . S
C413 C421 1.503 . S
C414 C413 1.410 . S
C414 C415 1.392 . S
C414 C417 1.511 . S
C415 C411 1.376 . S
C415 C414 1.392 . S
C415 H427 0.929 . S
C416 C412 1.529 . S
C416 H428 0.960 . S
C416 H429 0.963 1_565 S
C416 H430 0.961 1_565 S
C417 C414 1.511 . S
C417 H431 0.961 . S
C417 H432 0.961 . S
C417 H433 0.961 . S
C418 C419 1.370 . S
C418 C420 1.363 . S
C418 H434 0.931 1_565 S
C419 C418 1.370 . S
C419 C423 1.408 . S
C420 C418 1.363 . S
C420 C421 1.370 . S
C420 C424 1.524 1_565 S
C421 C413 1.503 . S
C421 C420 1.370 . S
C421 C422 1.403 . S
C422 C421 1.403 . S
C422 C423 1.404 . S
C422 C425 1.539 . S
C423 C419 1.408 . S
C423 C422 1.404 . S
C423 H435 0.930 . S
C424 C420 1.524 1_545 S
C424 H436 0.956 . S
C424 H437 0.961 1_545 S
C424 H438 0.961 . S
C425 C422 1.539 . S
C425 H439 0.958 . S
C425 H440 0.961 . S
C425 H441 0.960 . S
H426 C410 0.931 . S
H427 C415 0.929 . S
H428 C416 0.960 . S
H429 C416 0.963 1_545 S
H430 C416 0.961 1_545 S
H431 C417 0.961 . S
H432 C417 0.961 . S
H433 C417 0.961 . S
H434 C418 0.931 1_545 S
H435 C423 0.930 . S
H436 C424 0.956 . S
H437 C424 0.961 1_565 S
H438 C424 0.961 . S
H439 C425 0.958 . S
H440 C425 0.961 . S
H441 C425 0.960 . S
C442 C443 1.391 . S
C442 C444 1.394 . S
C442 H458 0.931 . S
C443 C442 1.391 . S
C443 C447 1.376 . S
C444 C442 1.394 . S
C444 C445 1.369 . S
C444 C448 1.531 . S
C445 C444 1.369 . S
C445 C446 1.410 . S
C445 C453 1.503 . S
C446 C445 1.410 . S
C446 C447 1.392 . S
C446 C449 1.511 . S
C447 C443 1.376 . S
C447 C446 1.392 . S
C447 H459 0.929 . S
C448 C444 1.531 . S
C448 H460 0.960 . S
C448 H461 0.962 . S
C448 H462 0.960 . S
C449 C446 1.511 . S
C449 H463 0.961 . S
C449 H464 0.961 . S
C449 H465 0.961 . S
C450 C451 1.370 . S
C450 C452 1.363 . S
C450 H466 0.931 . S
C451 C450 1.370 . S
C451 C455 1.408 . S
C452 C450 1.363 . S
C452 C453 1.370 . S
C452 C456 1.524 . S
C453 C445 1.503 . S
C453 C452 1.370 . S
C453 C454 1.403 . S
C454 C453 1.403 . S
C454 C455 1.404 . S
C454 C457 1.539 . S
C455 C451 1.408 . S
C455 C454 1.404 . S
C455 H467 0.930 . S
C456 C452 1.524 . S
C456 H468 0.956 . S
C456 H469 0.961 . S
C456 H470 0.961 . S
C457 C454 1.539 . S
C457 H471 0.958 . S
C457 H472 0.961 . S
C457 H473 0.960 . S
H458 C442 0.931 . S
H459 C447 0.929 . S
H460 C448 0.960 . S
H461 C448 0.962 . S
H462 C448 0.960 . S
H463 C449 0.961 . S
H464 C449 0.961 . S
H465 C449 0.961 . S
H466 C450 0.931 . S
H467 C455 0.930 . S
H468 C456 0.956 . S
H469 C456 0.961 . S
H470 C456 0.961 . S
H471 C457 0.958 . S
H472 C457 0.961 . S
H473 C457 0.960 . S
C474 C475 1.391 . S
C474 C476 1.394 . S
C474 H490 0.931 . S
C475 C474 1.391 . S
C475 C479 1.376 . S
C476 C474 1.394 . S
C476 C477 1.369 . S
C476 C480 1.531 . S
C477 C476 1.369 . S
C477 C478 1.410 . S
C477 C485 1.503 . S
C478 C477 1.410 . S
C478 C479 1.392 . S
C478 C481 1.511 . S
C479 C475 1.376 . S
C479 C478 1.392 . S
C479 H491 0.929 . S
C480 C476 1.531 . S
C480 H492 0.960 . S
C480 H493 0.962 . S
C480 H494 0.960 . S
C481 C478 1.511 . S
C481 H495 0.961 . S
C481 H496 0.961 . S
C481 H497 0.961 . S
C482 C483 1.370 . S
C482 C484 1.363 . S
C482 H498 0.931 . S
C483 C482 1.370 . S
C483 C487 1.408 . S
C484 C482 1.363 . S
C484 C485 1.370 . S
C484 C488 1.524 . S
C485 C477 1.503 . S
C485 C484 1.370 . S
C485 C486 1.403 . S
C486 C485 1.403 . S
C486 C487 1.404 . S
C486 C489 1.539 . S
C487 C483 1.408 . S
C487 C486 1.404 . S
C487 H499 0.930 . S
C488 C484 1.524 . S
C488 H500 0.956 . S
C488 H501 0.961 . S
C488 H502 0.961 . S
C489 C486 1.539 . S
C489 H503 0.958 . S
C489 H504 0.961 . S
C489 H505 0.960 . S
H490 C474 0.931 . S
H491 C479 0.929 . S
H492 C480 0.960 . S
H493 C480 0.962 . S
H494 C480 0.960 . S
H495 C481 0.961 . S
H496 C481 0.961 . S
H497 C481 0.961 . S
H498 C482 0.931 . S
H499 C487 0.930 . S
H500 C488 0.956 . S
H501 C488 0.961 . S
H502 C488 0.961 . S
H503 C489 0.958 . S
H504 C489 0.961 . S
H505 C489 0.960 . S
C506 C507 1.391 . S
C506 C508 1.394 . S
C506 H522 0.931 . S
C507 C506 1.391 . S
C507 C511 1.376 . S
C508 C506 1.394 . S
C508 C509 1.369 . S
C508 C512 1.531 . S
C509 C508 1.369 . S
C509 C510 1.410 . S
C509 C517 1.503 . S
C510 C509 1.410 . S
C510 C511 1.392 . S
C510 C513 1.511 . S
C511 C507 1.376 . S
C511 C510 1.392 . S
C511 H523 0.929 . S
C512 C508 1.531 . S
C512 H524 0.960 . S
C512 H525 0.962 . S
C512 H526 0.960 . S
C513 C510 1.511 . S
C513 H527 0.961 . S
C513 H528 0.961 . S
C513 H529 0.961 . S
C514 C515 1.370 . S
C514 C516 1.363 . S
C514 H530 0.931 . S
C515 C514 1.370 . S
C515 C519 1.408 . S
C516 C514 1.363 . S
C516 C517 1.370 . S
C516 C520 1.524 . S
C517 C509 1.503 . S
C517 C516 1.370 . S
C517 C518 1.403 . S
C518 C517 1.403 . S
C518 C519 1.404 . S
C518 C521 1.539 . S
C519 C515 1.408 . S
C519 C518 1.404 . S
C519 H531 0.930 . S
C520 C516 1.524 . S
C520 H532 0.956 . S
C520 H533 0.961 . S
C520 H534 0.961 . S
C521 C518 1.539 . S
C521 H535 0.958 . S
C521 H536 0.961 . S
C521 H537 0.960 . S
H522 C506 0.931 . S
H523 C511 0.929 . S
H524 C512 0.960 . S
H525 C512 0.962 . S
H526 C512 0.960 . S
H527 C513 0.961 . S
H528 C513 0.961 . S
H529 C513 0.961 . S
H530 C514 0.931 . S
H531 C519 0.930 . S
H532 C520 0.956 . S
H533 C520 0.961 . S
H534 C520 0.961 . S
H535 C521 0.958 . S
H536 C521 0.961 . S
H537 C521 0.960 . S
C538 C539 1.391 . S
C538 C540 1.394 . S
C538 H554 0.931 . S
C539 C538 1.391 . S
C539 C543 1.376 . S
C540 C538 1.394 . S
C540 C541 1.369 . S
C540 C544 1.531 . S
C541 C540 1.369 . S
C541 C542 1.410 . S
C541 C549 1.503 . S
C542 C541 1.410 . S
C542 C543 1.392 . S
C542 C545 1.511 . S
C543 C539 1.376 . S
C543 C542 1.392 . S
C543 H555 0.929 . S
C544 C540 1.531 . S
C544 H556 0.960 . S
C544 H557 0.962 . S
C544 H558 0.960 . S
C545 C542 1.511 . S
C545 H559 0.961 . S
C545 H560 0.961 . S
C545 H561 0.961 . S
C546 C547 1.370 . S
C546 C548 1.363 . S
C546 H562 0.931 . S
C547 C546 1.370 . S
C547 C551 1.408 . S
C548 C546 1.363 . S
C548 C549 1.370 . S
C548 C552 1.524 . S
C549 C541 1.503 . S
C549 C548 1.370 . S
C549 C550 1.403 . S
C550 C549 1.403 . S
C550 C551 1.404 . S
C550 C553 1.539 . S
C551 C547 1.408 . S
C551 C550 1.404 . S
C551 H563 0.930 . S
C552 C548 1.524 . S
C552 H564 0.956 . S
C552 H565 0.961 . S
C552 H566 0.961 . S
C553 C550 1.539 . S
C553 H567 0.958 . S
C553 H568 0.961 . S
C553 H569 0.960 . S
H554 C538 0.931 . S
H555 C543 0.929 . S
H556 C544 0.960 . S
H557 C544 0.962 . S
H558 C544 0.960 . S
H559 C545 0.961 . S
H560 C545 0.961 . S
H561 C545 0.961 . S
H562 C546 0.931 . S
H563 C551 0.930 . S
H564 C552 0.956 . S
H565 C552 0.961 . S
H566 C552 0.961 . S
H567 C553 0.958 . S
H568 C553 0.961 . S
H569 C553 0.960 . S
C570 C571 1.391 . S
C570 C572 1.394 . S
C570 H586 0.931 . S
C571 C570 1.391 . S
C571 C575 1.376 . S
C572 C570 1.394 . S
C572 C573 1.369 . S
C572 C576 1.531 . S
C573 C572 1.369 . S
C573 C574 1.410 . S
C573 C581 1.503 . S
C574 C573 1.410 . S
C574 C575 1.392 . S
C574 C577 1.511 . S
C575 C571 1.376 . S
C575 C574 1.392 . S
C575 H587 0.929 . S
C576 C572 1.531 . S
C576 H588 0.960 . S
C576 H589 0.962 . S
C576 H590 0.960 . S
C577 C574 1.511 . S
C577 H591 0.961 . S
C577 H592 0.961 . S
C577 H593 0.961 . S
C578 C579 1.370 . S
C578 C580 1.363 . S
C578 H594 0.931 . S
C579 C578 1.370 . S
C579 C583 1.408 . S
C580 C578 1.363 . S
C580 C581 1.370 . S
C580 C584 1.524 . S
C581 C573 1.503 . S
C581 C580 1.370 . S
C581 C582 1.403 . S
C582 C581 1.403 . S
C582 C583 1.404 . S
C582 C585 1.539 . S
C583 C579 1.408 . S
C583 C582 1.404 . S
C583 H595 0.930 . S
C584 C580 1.524 . S
C584 H596 0.956 . S
C584 H597 0.961 . S
C584 H598 0.961 . S
C585 C582 1.539 . S
C585 H599 0.958 . S
C585 H600 0.961 . S
C585 H601 0.960 . S
H586 C570 0.931 . S
H587 C575 0.929 . S
H588 C576 0.960 . S
H589 C576 0.962 . S
H590 C576 0.960 . S
H591 C577 0.961 . S
H592 C577 0.961 . S
H593 C577 0.961 . S
H594 C578 0.931 . S
H595 C583 0.930 . S
H596 C584 0.956 . S
H597 C584 0.961 . S
H598 C584 0.961 . S
H599 C585 0.958 . S
H600 C585 0.961 . S
H601 C585 0.960 . S
C602 C603 1.391 . S
C602 C604 1.394 . S
C602 H618 0.931 . S
C603 C602 1.391 . S
C603 C607 1.376 . S
C604 C602 1.394 . S
C604 C605 1.369 . S
C604 C608 1.531 . S
C605 C604 1.369 . S
C605 C606 1.410 . S
C605 C613 1.503 . S
C606 C605 1.410 . S
C606 C607 1.392 . S
C606 C609 1.511 . S
C607 C603 1.376 . S
C607 C606 1.392 . S
C607 H619 0.929 . S
C608 C604 1.531 . S
C608 H620 0.960 . S
C608 H621 0.962 . S
C608 H622 0.960 . S
C609 C606 1.511 . S
C609 H623 0.961 . S
C609 H624 0.961 . S
C609 H625 0.961 . S
C610 C611 1.370 . S
C610 C612 1.363 . S
C610 H626 0.931 . S
C611 C610 1.370 . S
C611 C615 1.408 . S
C612 C610 1.363 . S
C612 C613 1.370 . S
C612 C616 1.524 . S
C613 C605 1.503 . S
C613 C612 1.370 . S
C613 C614 1.403 . S
C614 C613 1.403 . S
C614 C615 1.404 . S
C614 C617 1.539 . S
C615 C611 1.408 . S
C615 C614 1.404 . S
C615 H627 0.930 . S
C616 C612 1.524 . S
C616 H628 0.956 . S
C616 H629 0.961 . S
C616 H630 0.961 . S
C617 C614 1.539 . S
C617 H631 0.958 . S
C617 H632 0.961 . S
C617 H633 0.960 . S
H618 C602 0.931 . S
H619 C607 0.929 . S
H620 C608 0.960 . S
H621 C608 0.962 . S
H622 C608 0.960 . S
H623 C609 0.961 . S
H624 C609 0.961 . S
H625 C609 0.961 . S
H626 C610 0.931 . S
H627 C615 0.930 . S
H628 C616 0.956 . S
H629 C616 0.961 . S
H630 C616 0.961 . S
H631 C617 0.958 . S
H632 C617 0.961 . S
H633 C617 0.960 . S
C634 C635 1.391 . S
C634 C636 1.394 . S
C634 H650 0.931 . S
C635 C634 1.391 . S
C635 C639 1.376 . S
C636 C634 1.394 . S
C636 C637 1.369 . S
C636 C640 1.531 . S
C637 C636 1.369 . S
C637 C638 1.410 . S
C637 C645 1.503 . S
C638 C637 1.410 . S
C638 C639 1.392 . S
C638 C641 1.511 . S
C639 C635 1.376 . S
C639 C638 1.392 . S
C639 H651 0.929 . S
C640 C636 1.531 . S
C640 H652 0.960 . S
C640 H653 0.962 . S
C640 H654 0.960 . S
C641 C638 1.511 . S
C641 H655 0.961 1_565 S
C641 H656 0.961 . S
C641 H657 0.961 . S
C642 C643 1.382 . S
C642 C644 1.367 . S
C642 H658 0.915 1_565 S
C643 C642 1.382 . S
C643 C647 1.408 . S
C644 C642 1.367 . S
C644 C645 1.370 . S
C644 C648 1.524 1_565 S
C645 C637 1.503 . S
C645 C644 1.370 . S
C645 C646 1.403 . S
C646 C645 1.403 . S
C646 C647 1.404 . S
C646 C649 1.539 . S
C647 C643 1.408 . S
C647 C646 1.404 . S
C647 H659 0.930 . S
C648 C644 1.524 1_545 S
C648 H660 0.956 . S
C648 H661 0.961 . S
C648 H662 0.961 . S
C649 C646 1.539 . S
C649 H663 0.958 . S
C649 H664 0.961 . S
C649 H665 0.960 . S
H650 C634 0.931 . S
H651 C639 0.929 . S
H652 C640 0.960 . S
H653 C640 0.962 . S
H654 C640 0.960 . S
H655 C641 0.961 1_545 S
H656 C641 0.961 . S
H657 C641 0.961 . S
H658 C642 0.915 1_545 S
H659 C647 0.930 . S
H660 C648 0.956 . S
H661 C648 0.961 . S
H662 C648 0.961 . S
H663 C649 0.958 . S
H664 C649 0.961 . S
H665 C649 0.960 . S
C291 C256 1.378 . S
C283 C211 1.526 . S
C315 C31 1.461 . S
C323 C277 1.345 . S
C347 C91 1.654 . S
C355 C253 1.461 . S
C379 C151 1.679 . S
C387 C274 1.498 . S
C419 C258 1.637 . S
C411 C20 1.570 . S
C451 C278 1.573 . S
C443 C61 1.503 . S
C475 C121 1.587 . S
C483 C254 1.523 . S
C507 C200 1.627 . S
C515 C276 1.557 . S
C547 C275 1.514 . S
C539 C80 1.550 . S
C579 C257 1.591 . S
C571 C140 1.623 . S
C611 C279 1.645 . S
C603 C181 1.592 . S
C635 C1 1.530 . S
C643 C255 1.569 . S
