# Generated by pormake.
# Topology pyr, (3,6)-cn, num edge types: 1
# Building blocks:
#     Node 0, Type 0, BuildingBlock: CUQRIR_clean_linker_1, # of connection points: 3
#     Node 1, Type 0, BuildingBlock: CUQRIR_clean_linker_1, # of connection points: 3
#     Node 2, Type 0, BuildingBlock: CUQRIR_clean_linker_1, # of connection points: 3
#     Node 3, Type 0, BuildingBlock: CUQRIR_clean_linker_1, # of connection points: 3
#     Node 4, Type 0, BuildingBlock: CUQRIR_clean_linker_1, # of connection points: 3
#     Node 5, Type 0, BuildingBlock: CUQRIR_clean_linker_1, # of connection points: 3
#     Node 6, Type 0, BuildingBlock: CUQRIR_clean_linker_1, # of connection points: 3
#     Node 7, Type 0, BuildingBlock: CUQRIR_clean_linker_1, # of connection points: 3
#     Node 8, Type 1, BuildingBlock: BETDIP_clean_sbu_0, # of connection points: 6
#     Node 9, Type 1, BuildingBlock: BETDIP_clean_sbu_0, # of connection points: 6
#     Node 10, Type 1, BuildingBlock: BETDIP_clean_sbu_0, # of connection points: 6
#     Node 11, Type 1, BuildingBlock: BETDIP_clean_sbu_0, # of connection points: 6
#     Edge 12, Type (0, 1), None
#     Edge 13, Type (0, 1), None
#     Edge 14, Type (0, 1), None
#     Edge 15, Type (0, 1), None
#     Edge 16, Type (0, 1), None
#     Edge 17, Type (0, 1), None
#     Edge 18, Type (0, 1), None
#     Edge 19, Type (0, 1), None
#     Edge 20, Type (0, 1), None
#     Edge 21, Type (0, 1), None
#     Edge 22, Type (0, 1), None
#     Edge 23, Type (0, 1), None
#     Edge 24, Type (0, 1), None
#     Edge 25, Type (0, 1), None
#     Edge 26, Type (0, 1), None
#     Edge 27, Type (0, 1), None
#     Edge 28, Type (0, 1), None
#     Edge 29, Type (0, 1), None
#     Edge 30, Type (0, 1), None
#     Edge 31, Type (0, 1), None
#     Edge 32, Type (0, 1), None
#     Edge 33, Type (0, 1), None
#     Edge 34, Type (0, 1), None
#     Edge 35, Type (0, 1), None
# Relax obj value: 0.611
# Max RMSD: 0.338
# Mean RMSD: 0.193
data_MOF--net-pyr--node1-BETDIP_clean_sbu_0--node2-CUQRIR_clean_linker_1--edge1-none
_symmetry_space_group_name_H-M    P1
_symmetry_Int_Tables_number       1
_symmetry_cell_setting            triclinic
loop_
_symmetry_equiv_pos_as_xyz
'x, y, z'
_cell_length_a     14.473813
_cell_length_b     15.223095
_cell_length_c     14.327519
_cell_angle_alpha  87.042663
_cell_angle_beta   93.779773
_cell_angle_gamma 111.43548
loop_
_atom_site_label
_atom_site_type_symbol
_atom_site_fract_x
_atom_site_fract_y
_atom_site_fract_z
_atom_type_partial_charge
C0 C 0.38385 0.39007 0.38843 0.0
N1 N 0.45384 0.36489 0.43641 0.0
N2 N 0.42011 0.44053 0.31097 0.0
C3 C 0.27462 0.34822 0.4049 0.0
C4 C 0.51484 0.44288 0.31261 0.0
N5 N 0.53302 0.3875 0.38484 0.0
C6 C 0.5936 0.51631 0.25917 0.0
H7 H 0.23348 0.31932 0.33879 0.0
H8 H 0.24888 0.4037 0.42745 0.0
H9 H 0.257 0.28855 0.45612 0.0
H10 H 0.60066 0.58672 0.28282 0.0
H11 H 0.56945 0.51495 0.18416 0.0
H12 H 0.6665 0.50802 0.27083 0.0
C13 C 0.1196 0.90676 0.83742 0.0
N14 N 0.07882 0.96975 0.859 0.0
N15 N 0.19127 0.90541 0.90169 0.0
C16 C 0.0916 0.84741 0.75145 0.0
C17 C 0.17826 0.95642 0.9707 0.0
N18 N 0.11426 1.00018 0.94379 0.0
C19 C 0.24362 0.98184 1.05671 0.0
H20 H 0.11393 0.78503 0.76245 0.0
H21 H 0.12887 0.88863 0.6896 0.0
H22 H 1.01017 0.82394 0.73575 0.0
H23 H 0.20344 1.00157 1.10958 0.0
H24 H 0.31257 1.04024 1.03791 0.0
H25 H 0.26241 0.92374 1.08819 0.0
C26 C 0.59548 0.4706 0.98968 0.0
N27 N 0.66104 0.4566 1.06087 0.0
N28 N 0.63658 0.54842 0.92846 0.0
C29 C 0.48765 0.41063 0.98244 0.0
C30 C 0.73362 0.57883 0.96362 0.0
N31 N 0.74793 0.53225 1.04809 0.0
C32 C 0.81606 0.64674 0.90709 0.0
H33 H 0.48035 0.34341 0.95058 0.0
H34 H 0.44367 0.44442 0.93782 0.0
H35 H 0.45811 0.39652 1.0534 0.0
H36 H 0.82678 0.72082 0.92096 0.0
H37 H 0.79619 0.63663 0.83131 0.0
H38 H 0.88696 0.63504 0.91966 0.0
C39 C 0.84135 0.78535 0.44668 0.0
N40 N 0.93841 0.84163 0.42579 0.0
N41 N 0.80359 0.82244 0.51473 0.0
C42 C 0.77001 0.73706 0.36754 0.0
C43 C 0.86419 0.91332 0.5125 0.0
N44 N 0.95286 0.92663 0.4729 0.0
C45 C 0.81466 0.98536 0.50199 0.0
H46 H 0.77994 0.78799 0.30825 0.0
H47 H 0.69153 0.71614 0.38627 0.0
H48 H 0.78431 0.67682 0.34095 0.0
H49 H 0.76868 0.98188 0.56158 0.0
H50 H 0.76274 0.96829 0.43919 0.0
H51 H 0.86597 1.05776 0.49206 0.0
C52 C 0.56547 0.92762 1.13757 0.0
N53 N 0.65575 0.93055 1.11387 0.0
N54 N 0.53548 0.98932 1.08166 0.0
C55 C 0.49993 0.85211 0.20025 0.0
C56 C 0.60772 1.02266 1.01972 0.0
N57 N 0.68125 0.99079 1.04236 0.0
C58 C 0.60776 1.09095 0.93852 0.0
H59 H 0.42414 0.854 0.19737 0.0
H60 H 0.53338 0.85909 0.27258 0.0
H61 H 0.49516 0.7822 0.17661 0.0
H62 H 0.65736 0.16345 0.95729 0.0
H63 H 0.53198 1.09124 0.92105 0.0
H64 H 0.63574 1.07218 0.87531 0.0
C65 C 1.01919 0.46703 0.5679 0.0
N66 N 0.05667 0.40935 0.52538 0.0
N67 N 0.94426 0.48166 0.51607 0.0
C68 C 1.04889 0.50172 0.66528 0.0
C69 C 0.94109 0.43587 0.43727 0.0
N70 N 1.00554 0.3896 0.44381 0.0
C71 C 0.85776 0.41442 0.364 0.0
H72 H 1.01602 0.44272 0.71598 0.0
H73 H 1.02249 0.55961 0.67858 0.0
H74 H 0.13092 0.52809 0.67467 0.0
H75 H 0.83235 0.473 0.34711 0.0
H76 H 0.79397 0.35438 0.39036 0.0
H77 H 0.88286 0.39729 0.29867 0.0
C78 C 0.34076 0.78887 0.42269 0.0
N79 N 0.4358 0.85097 0.44994 0.0
N80 N 0.29962 0.82156 0.34607 0.0
C81 C 0.27759 0.70792 0.48405 0.0
C82 C 0.35684 0.91429 0.34398 0.0
N83 N 0.44598 0.93496 0.39553 0.0
C84 C 0.2997 0.97998 0.33821 0.0
H85 H 0.30353 0.64771 0.48503 0.0
H86 H 0.1981 0.68241 0.46046 0.0
H87 H 0.28245 0.73161 0.55682 0.0
H88 H 0.24482 0.95765 0.39362 0.0
H89 H 0.2545 0.97037 0.2716 0.0
H90 H 0.34377 1.05456 0.35084 0.0
C91 C 0.12412 0.4481 0.90066 0.0
N92 N 0.18673 0.44458 0.82838 0.0
N93 N 0.14835 0.53602 0.94618 0.0
C94 C 1.03327 0.36542 0.92431 0.0
C95 C 0.23426 0.58318 0.89912 0.0
N96 N 0.25666 0.53504 0.8266 0.0
C97 C 0.30258 0.67535 0.93007 0.0
H98 H 0.9742 0.36148 0.86965 0.0
H99 H 1.00643 0.37306 0.99309 0.0
H100 H 1.0487 0.29918 0.92583 0.0
H101 H 0.3799 0.67673 0.93677 0.0
H102 H 0.28445 0.69262 0.99867 0.0
H103 H 0.29407 0.72434 0.87372 0.0
Tb104 Tb 1.02744 0.16653 0.6764 0.0
Tb105 Tb 0.12941 0.17314 0.65082 0.0
C106 C 0.85163 1.09234 0.71609 0.0
C107 C 0.82167 1.06542 0.81046 0.0
C108 C 0.78822 0.96939 0.83659 0.0
C109 C 0.76175 0.9418 0.9271 0.0
C110 C 0.76603 1.01029 0.98971 0.0
C111 C 0.82192 1.10518 0.97069 0.0
C112 C 0.84574 0.13335 0.87927 0.0
C113 C 0.17066 0.37196 0.7575 0.0
C114 C 1.05196 1.02302 0.79319 0.0
C115 C 0.29892 0.16238 0.67253 0.0
C116 C 0.39439 0.23425 0.6979 0.0
C117 C 0.38561 0.32216 0.68592 0.0
C118 C 0.39395 0.35838 0.59442 0.0
C119 C 0.44716 0.32825 0.53163 0.0
C120 C 0.49813 0.26917 0.56827 0.0
C121 C 0.47201 0.22238 0.65427 0.0
C122 C 1.03793 1.00344 0.51352 0.0
C123 C 0.06938 0.33676 0.57556 0.0
O124 O 0.90208 1.04445 0.68859 0.0
O125 O 0.89149 0.18242 0.69476 0.0
O126 O 0.12645 0.27719 0.76712 0.0
O127 O 0.12855 0.27843 0.77357 0.0
O128 O 1.03407 1.09595 0.8108 0.0
O129 O 0.07995 1.02914 0.70996 0.0
O130 O 0.23596 0.14134 0.73758 0.0
O131 O 0.25865 0.17751 0.59152 0.0
O132 O 1.03349 1.08607 0.542 0.0
O133 O 1.03198 1.08406 0.53949 0.0
O134 O 0.14717 0.31118 0.57496 0.0
O135 O 0.99211 0.27439 0.60861 0.0
H136 H 0.77752 0.91562 0.78598 0.0
H137 H 0.72157 0.86783 0.94202 0.0
H138 H 0.82875 0.15828 1.02086 0.0
H139 H 0.87728 0.20755 0.86152 0.0
H140 H 0.34166 0.34271 0.73232 0.0
H141 H 0.3631 0.41191 0.57423 0.0
H142 H 0.55213 0.25316 0.53155 0.0
H143 H 0.49611 0.16441 0.6751 0.0
Tb144 Tb 0.60152 0.18679 0.23154 0.0
Tb145 Tb 0.48 0.18437 0.23005 0.0
C146 C 0.77904 0.20373 0.20665 0.0
C147 C 0.85369 0.18608 0.26835 0.0
C148 C 0.9528 0.23579 0.24825 0.0
C149 C 1.01595 0.29107 0.31773 0.0
C150 C 0.97699 0.29866 0.40188 0.0
C151 C 0.88785 0.22797 0.42802 0.0
C152 C 0.82804 0.16747 0.36141 0.0
C153 C 0.52461 1.02598 0.3718 0.0
C154 C 0.56347 0.31508 0.36737 0.0
C155 C 0.30257 0.18089 0.20506 0.0
C156 C 0.2394 0.19727 1.12682 0.0
C157 C 0.13611 0.15165 1.132 0.0
C158 C 0.08105 1.1 1.05548 0.0
C159 C 0.13083 1.09324 0.97735 0.0
C160 C 0.2241 0.16374 0.96273 0.0
C161 C 0.27944 0.2141 1.03861 0.0
C162 C 0.6419 0.38215 1.1338 0.0
C163 C 0.48871 1.04675 1.10666 0.0
O164 O 0.75131 0.26881 0.23604 0.0
O165 O 0.70266 0.131 0.183 0.0
O166 O 0.51361 1.10818 0.35741 0.0
O167 O 0.5789 1.03839 0.29984 0.0
O168 O 0.6285 0.32077 0.30726 0.0
O169 O 0.49687 0.23219 0.36848 0.0
O170 O 0.37457 0.2513 0.24164 0.0
O171 O 0.33493 1.11518 0.18815 0.0
O172 O 0.57318 0.29464 1.12966 0.0
O173 O 0.57299 0.29584 1.12402 0.0
O174 O 0.44817 1.03757 0.18467 0.0
O175 O 0.53421 0.13519 1.09394 0.0
H176 H 0.97551 0.24656 0.17667 0.0
H177 H 0.08804 0.33857 0.30129 0.0
H178 H 0.85501 0.23123 0.49279 0.0
H179 H 0.75237 1.12609 0.37843 0.0
H180 H 0.10233 0.14082 0.19895 0.0
H181 H 1.00566 1.05254 1.06329 0.0
H182 H 0.26476 0.16072 0.90341 0.0
H183 H 0.35867 0.24365 1.03393 0.0
Tb184 Tb 0.54959 0.74135 0.71509 0.0
Tb185 Tb 0.53462 0.64488 0.65235 0.0
C186 C 0.55658 0.87991 0.80764 0.0
C187 C 0.47301 0.90549 0.83226 0.0
C188 C 0.4191 0.9423 0.7671 0.0
C189 C 0.32781 0.94524 0.79055 0.0
C190 C 0.28828 0.909 0.87828 0.0
C191 C 0.34777 0.88131 0.94471 0.0
C192 C 0.43761 0.87818 0.92148 0.0
C193 C 0.58351 0.58589 0.85639 0.0
C194 C 0.34212 0.58069 0.76846 0.0
C195 C 0.57042 0.51537 0.58125 0.0
C196 C 0.66837 0.50504 0.57107 0.0
C197 C 0.71126 0.45759 0.63757 0.0
C198 C 0.80533 0.45296 0.62356 0.0
C199 C 0.86108 0.50245 0.54725 0.0
C200 C 0.82093 0.55626 0.48808 0.0
C201 C 0.72257 0.54819 0.49411 0.0
C202 C 0.49954 0.8206 0.51964 0.0
C203 C 0.71928 0.78149 0.56941 0.0
O204 O 0.581 0.88883 0.7212 0.0
O205 O 0.55304 0.7994 0.84351 0.0
O206 O 0.62167 0.65352 0.79162 0.0
O207 O 0.62659 0.65337 0.79282 0.0
O208 O 0.39271 0.67289 0.7678 0.0
O209 O 0.38735 0.54152 0.71559 0.0
O210 O 0.53928 0.50895 0.66539 0.0
O211 O 0.54877 0.57949 0.5303 0.0
O212 O 0.46771 0.74166 0.57492 0.0
O213 O 0.463 0.74098 0.57385 0.0
O214 O 0.67021 0.69276 0.57294 0.0
O215 O 0.68527 0.82547 0.62853 0.0
H216 H 0.44514 0.96518 0.69758 0.0
H217 H 0.288 0.97444 0.73944 0.0
H218 H 0.32033 0.8492 1.01076 0.0
H219 H 0.47526 0.84538 0.97162 0.0
H220 H 0.67081 0.42127 0.69775 0.0
H221 H 0.83264 0.40865 0.67016 0.0
H222 H 0.86292 0.59612 0.43057 0.0
H223 H 0.6866 0.57485 0.43846 0.0
Tb224 Tb 1.04647 0.71665 0.17299 0.0
Tb225 Tb 1.02015 0.64108 0.20172 0.0
C226 C 0.99848 0.85231 1.11119 0.0
C227 C 0.90285 0.86071 1.1347 0.0
C228 C 0.81068 0.7919 1.10712 0.0
C229 C 0.72117 0.80464 1.11831 0.0
C230 C 0.7222 0.88761 0.15633 0.0
C231 C 0.81172 0.94766 0.19914 0.0
C232 C 0.90135 0.93426 0.18897 0.0
C233 C 0.21674 0.7782 0.28417 0.0
C234 C 0.99573 0.81494 0.35515 0.0
C235 C 0.07934 0.51064 0.25676 0.0
C236 C 0.18186 0.51249 0.24135 0.0
C237 C 0.26411 0.57586 0.29019 0.0
C238 C 0.35643 0.56634 0.296 0.0
C239 C 0.36779 0.4902 0.25465 0.0
C240 C 0.29294 0.43927 0.18895 0.0
C241 C 0.19995 0.44996 0.18237 0.0
C242 C 0.83743 0.56648 1.10701 0.0
C243 C 0.09259 0.56161 1.01953 0.0
O244 O 0.99251 0.78261 1.06012 0.0
O245 O 0.065 0.86169 0.17818 0.0
O246 O 0.13255 0.71981 0.3054 0.0
O247 O 0.21 0.79755 0.19468 0.0
O248 O 0.96576 0.73258 0.30573 0.0
O249 O 0.96222 0.72998 0.30663 0.0
O250 O 0.07216 0.57207 0.31239 0.0
O251 O 1.01785 0.50146 0.18544 0.0
O252 O 0.91853 0.62921 1.08234 0.0
O253 O 0.85348 0.5488 0.1954 0.0
O254 O 0.11448 0.64281 1.06946 0.0
O255 O 0.12002 0.64594 1.0666 0.0
H256 H 0.80733 0.73029 1.07262 0.0
H257 H 0.65332 0.75652 1.08528 0.0
H258 H 0.81366 1.01058 0.23129 0.0
H259 H 0.96975 0.98445 0.21871 0.0
H260 H 0.25482 0.62786 0.33055 0.0
H261 H 0.41304 0.60804 0.34587 0.0
H262 H 0.30141 0.38236 0.15318 0.0
H263 H 0.14 0.40281 1.13907 0.0
loop_
_geom_bond_atom_site_label_1
_geom_bond_atom_site_label_2
_geom_bond_distance
_geom_bond_site_symmetry_2
_ccdc_geom_bond_type
C0 N1 1.317 . S
C0 N2 1.348 . S
C0 C3 1.485 . S
N1 C0 1.317 . S
N1 N5 1.370 . S
N2 C0 1.348 . S
N2 C4 1.346 . S
C3 C0 1.485 . S
C3 H7 0.960 . S
C3 H8 0.961 . S
C3 H9 0.960 . S
C4 N2 1.346 . S
C4 N5 1.307 . S
C4 C6 1.486 . S
N5 N1 1.370 . S
N5 C4 1.307 . S
C6 C4 1.486 . S
C6 H10 0.960 . S
C6 H11 0.960 . S
C6 H12 0.959 . S
H7 C3 0.960 . S
H8 C3 0.961 . S
H9 C3 0.960 . S
H10 C6 0.960 . S
H11 C6 0.960 . S
H12 C6 0.959 . S
C13 N14 1.317 . S
C13 N15 1.348 1_655 S
C13 C16 1.485 . S
N14 C13 1.317 . S
N14 N18 1.370 1_655 S
N15 C13 1.348 1_455 S
N15 C17 1.346 . S
C16 C13 1.485 . S
C16 H20 0.960 . S
C16 H21 0.961 . S
C16 H22 0.960 . S
C17 N15 1.346 . S
C17 N18 1.307 . S
C17 C19 1.486 . S
N18 N14 1.370 1_455 S
N18 C17 1.307 . S
C19 C17 1.486 . S
C19 H23 0.960 . S
C19 H24 0.960 . S
C19 H25 0.959 . S
H20 C16 0.960 . S
H21 C16 0.961 . S
H22 C16 0.960 . S
H23 C19 0.960 . S
H24 C19 0.960 . S
H25 C19 0.959 . S
C26 N27 1.317 . S
C26 N28 1.348 . S
C26 C29 1.485 . S
N27 C26 1.317 . S
N27 N31 1.370 . S
N28 C26 1.348 . S
N28 C30 1.346 . S
C29 C26 1.485 . S
C29 H33 0.960 . S
C29 H34 0.961 . S
C29 H35 0.960 . S
C30 N28 1.346 . S
C30 N31 1.307 . S
C30 C32 1.486 . S
N31 N27 1.370 . S
N31 C30 1.307 . S
C32 C30 1.486 . S
C32 H36 0.960 . S
C32 H37 0.960 . S
C32 H38 0.959 . S
H33 C29 0.960 . S
H34 C29 0.961 . S
H35 C29 0.960 . S
H36 C32 0.960 . S
H37 C32 0.960 . S
H38 C32 0.959 . S
C39 N40 1.317 . S
C39 N41 1.348 . S
C39 C42 1.485 . S
N40 C39 1.317 . S
N40 N44 1.370 . S
N41 C39 1.348 . S
N41 C43 1.346 . S
C42 C39 1.485 . S
C42 H46 0.960 . S
C42 H47 0.961 . S
C42 H48 0.960 . S
C43 N41 1.346 . S
C43 N44 1.307 . S
C43 C45 1.486 . S
N44 N40 1.370 . S
N44 C43 1.307 . S
C45 C43 1.486 . S
C45 H49 0.960 . S
C45 H50 0.960 . S
C45 H51 0.959 . S
H46 C42 0.960 . S
H47 C42 0.961 . S
H48 C42 0.960 . S
H49 C45 0.960 . S
H50 C45 0.960 . S
H51 C45 0.959 . S
C52 N53 1.317 . S
C52 N54 1.348 . S
C52 C55 1.485 1_556 S
N53 C52 1.317 . S
N53 N57 1.370 . S
N54 C52 1.348 . S
N54 C56 1.346 . S
C55 C52 1.485 1_554 S
C55 H59 0.960 . S
C55 H60 0.961 . S
C55 H61 0.960 . S
C56 N54 1.346 . S
C56 N57 1.307 . S
C56 C58 1.486 . S
N57 N53 1.370 . S
N57 C56 1.307 . S
C58 C56 1.486 . S
C58 H62 0.960 1_565 S
C58 H63 0.960 . S
C58 H64 0.959 . S
H59 C55 0.960 . S
H60 C55 0.961 . S
H61 C55 0.960 . S
H62 C58 0.960 1_545 S
H63 C58 0.960 . S
H64 C58 0.959 . S
C65 N66 1.317 . S
C65 N67 1.348 1_455 S
C65 C68 1.485 . S
N66 C65 1.317 . S
N66 N70 1.370 1_455 S
N67 C65 1.348 1_655 S
N67 C69 1.346 . S
C68 C65 1.485 . S
C68 H72 0.960 . S
C68 H73 0.961 . S
C68 H74 0.960 . S
C69 N67 1.346 . S
C69 N70 1.307 . S
C69 C71 1.486 . S
N70 N66 1.370 1_655 S
N70 C69 1.307 . S
C71 C69 1.486 . S
C71 H75 0.960 . S
C71 H76 0.960 . S
C71 H77 0.959 . S
H72 C68 0.960 . S
H73 C68 0.961 . S
H74 C68 0.960 . S
H75 C71 0.960 . S
H76 C71 0.960 . S
H77 C71 0.959 . S
C78 N79 1.317 . S
C78 N80 1.348 . S
C78 C81 1.485 . S
N79 C78 1.317 . S
N79 N83 1.370 . S
N80 C78 1.348 . S
N80 C82 1.346 . S
C81 C78 1.485 . S
C81 H85 0.960 . S
C81 H86 0.961 . S
C81 H87 0.960 . S
C82 N80 1.346 . S
C82 N83 1.307 . S
C82 C84 1.486 . S
N83 N79 1.370 . S
N83 C82 1.307 . S
C84 C82 1.486 . S
C84 H88 0.960 . S
C84 H89 0.960 . S
C84 H90 0.959 . S
H85 C81 0.960 . S
H86 C81 0.961 . S
H87 C81 0.960 . S
H88 C84 0.960 . S
H89 C84 0.960 . S
H90 C84 0.959 . S
C91 N92 1.317 . S
C91 N93 1.348 . S
C91 C94 1.485 1_455 S
N92 C91 1.317 . S
N92 N96 1.370 . S
N93 C91 1.348 . S
N93 C95 1.346 . S
C94 C91 1.485 1_655 S
C94 H98 0.960 . S
C94 H99 0.961 . S
C94 H100 0.960 1_655 S
C95 N93 1.346 . S
C95 N96 1.307 . S
C95 C97 1.486 . S
N96 N92 1.370 . S
N96 C95 1.307 . S
C97 C95 1.486 . S
C97 H101 0.960 . S
C97 H102 0.960 . S
C97 H103 0.959 . S
H98 C94 0.960 . S
H99 C94 0.961 . S
H100 C94 0.960 1_455 S
H101 C97 0.960 . S
H102 C97 0.960 . S
H103 C97 0.959 . S
Tb104 C106 2.809 1_545 S
Tb104 O124 2.484 1_545 S
Tb104 O125 2.440 1_545 S
Tb104 O126 2.658 1_655 S
Tb104 O127 2.409 1_655 S
Tb104 O128 2.378 1_645 S
Tb104 O132 2.325 1_545 S
Tb104 O135 2.341 . S
Tb105 C115 2.809 . S
Tb105 O126 2.325 . S
Tb105 O129 2.341 1_545 S
Tb105 O130 2.484 . S
Tb105 O131 2.440 . S
Tb105 O132 2.658 1_445 S
Tb105 O133 2.409 1_545 S
Tb105 O134 2.378 . S
C106 Tb104 2.809 1_565 S
C106 C107 1.514 . S
C106 O124 1.248 . S
C106 O125 1.266 . S
C107 C106 1.514 . S
C107 C108 1.359 . S
C107 C112 1.348 . S
C108 C107 1.359 . S
C108 C109 1.380 . S
C108 H136 0.929 . S
C109 C108 1.380 . S
C109 C110 1.347 . S
C109 H137 0.931 . S
C110 C109 1.347 . S
C110 C111 1.369 . S
C111 C110 1.369 . S
C111 C112 1.408 . S
C111 H138 0.930 . S
C112 C107 1.348 . S
C112 C111 1.408 . S
C112 H139 0.930 . S
C113 O126 1.281 . S
C113 O127 1.254 . S
C114 O128 1.236 . S
C114 O129 1.266 . S
C115 Tb105 2.809 . S
C115 C116 1.514 . S
C115 O130 1.248 . S
C115 O131 1.266 . S
C116 C115 1.514 . S
C116 C117 1.359 . S
C116 C121 1.348 . S
C117 C116 1.359 . S
C117 C118 1.380 . S
C117 H140 0.929 . S
C118 C117 1.380 . S
C118 C119 1.347 . S
C118 H141 0.931 . S
C119 C118 1.347 . S
C119 C120 1.369 . S
C120 C119 1.369 . S
C120 C121 1.408 . S
C120 H142 0.930 . S
C121 C116 1.348 . S
C121 C120 1.408 . S
C121 H143 0.930 . S
C122 O132 1.281 . S
C122 O133 1.254 1_655 S
C123 O134 1.236 . S
C123 O135 1.266 1_455 S
O124 Tb104 2.484 1_565 S
O124 C106 1.248 . S
O125 Tb104 2.440 1_565 S
O125 C106 1.266 . S
O126 Tb104 2.658 1_455 S
O126 Tb105 2.325 . S
O126 C113 1.281 . S
O127 Tb104 2.409 1_455 S
O127 C113 1.254 . S
O128 Tb104 2.378 1_465 S
O128 C114 1.236 . S
O129 Tb105 2.341 1_565 S
O129 C114 1.266 . S
O130 Tb105 2.484 . S
O130 C115 1.248 . S
O131 Tb105 2.440 . S
O131 C115 1.266 . S
O132 Tb104 2.325 1_565 S
O132 Tb105 2.658 1_665 S
O132 C122 1.281 . S
O133 Tb105 2.409 1_565 S
O133 C122 1.254 1_455 S
O134 Tb105 2.378 . S
O134 C123 1.236 . S
O135 Tb104 2.341 . S
O135 C123 1.266 1_655 S
H136 C108 0.929 . S
H137 C109 0.931 . S
H138 C111 0.930 . S
H139 C112 0.930 . S
H140 C117 0.929 . S
H141 C118 0.931 . S
H142 C120 0.930 . S
H143 C121 0.930 . S
Tb144 C146 2.809 . S
Tb144 O164 2.484 . S
Tb144 O165 2.440 . S
Tb144 O166 2.658 1_545 S
Tb144 O167 2.409 1_545 S
Tb144 O168 2.378 . S
Tb144 O172 2.325 . S
Tb144 O175 2.341 1_545 S
Tb145 C155 2.809 1_544 S
Tb145 O166 2.325 1_545 S
Tb145 O169 2.341 . S
Tb145 O170 2.484 1_545 S
Tb145 O171 2.440 1_554 S
Tb145 O172 2.658 . S
Tb145 O173 2.409 1_554 S
Tb145 O174 2.372 1_544 S
C146 Tb144 2.809 . S
C146 C147 1.514 . S
C146 O164 1.248 . S
C146 O165 1.266 . S
C147 C146 1.514 . S
C147 C148 1.359 . S
C147 C152 1.348 . S
C148 C147 1.359 . S
C148 C149 1.380 . S
C148 H176 0.929 . S
C149 C148 1.380 . S
C149 C150 1.347 . S
C149 H177 0.931 . S
C150 C149 1.347 . S
C150 C151 1.369 . S
C151 C150 1.369 . S
C151 C152 1.408 . S
C151 H178 0.930 . S
C152 C147 1.348 . S
C152 C151 1.408 . S
C152 H179 0.930 . S
C153 O166 1.281 . S
C153 O167 1.254 . S
C154 O168 1.236 . S
C154 O169 1.266 . S
C155 Tb145 2.809 1_566 S
C155 C156 1.514 . S
C155 O170 1.248 1_556 S
C155 O171 1.266 1_565 S
C156 C155 1.514 . S
C156 C157 1.359 . S
C156 C161 1.348 . S
C157 C156 1.359 . S
C157 C158 1.380 . S
C157 H180 0.929 . S
C158 C157 1.380 . S
C158 C159 1.347 1_455 S
C158 H181 0.931 1_455 S
C159 C158 1.347 1_655 S
C159 C160 1.369 1_655 S
C160 C159 1.369 1_455 S
C160 C161 1.408 . S
C160 H182 0.930 . S
C161 C156 1.348 . S
C161 C160 1.408 . S
C161 H183 0.930 . S
C162 O172 1.281 1_556 S
C162 O173 1.254 . S
C163 O174 1.244 . S
C163 O175 1.266 1_556 S
O164 Tb144 2.484 . S
O164 C146 1.248 . S
O165 Tb144 2.440 . S
O165 C146 1.266 . S
O166 Tb144 2.658 1_565 S
O166 Tb145 2.325 1_565 S
O166 C153 1.281 . S
O167 Tb144 2.409 1_565 S
O167 C153 1.254 . S
O168 Tb144 2.378 . S
O168 C154 1.236 . S
O169 Tb145 2.341 . S
O169 C154 1.266 . S
O170 Tb145 2.484 1_565 S
O170 C155 1.248 1_554 S
O171 Tb145 2.440 1_556 S
O171 C155 1.266 1_545 S
O172 Tb144 2.325 . S
O172 Tb145 2.658 . S
O172 C162 1.281 1_554 S
O173 Tb145 2.409 1_556 S
O173 C162 1.254 . S
O174 Tb145 2.372 1_566 S
O174 C163 1.244 . S
O175 Tb144 2.341 1_565 S
O175 C163 1.266 1_554 S
H176 C148 0.929 . S
H177 C149 0.931 . S
H178 C151 0.930 . S
H179 C152 0.930 . S
H180 C157 0.929 . S
H181 C158 0.931 1_655 S
H182 C160 0.930 . S
H183 C161 0.930 . S
Tb184 C186 2.809 . S
Tb184 O204 2.484 . S
Tb184 O205 2.440 . S
Tb184 O206 2.658 . S
Tb184 O207 2.409 . S
Tb184 O208 2.378 . S
Tb184 O212 2.325 . S
Tb184 O215 2.341 . S
Tb185 C195 2.809 . S
Tb185 O206 2.325 . S
Tb185 O209 2.341 . S
Tb185 O210 2.484 . S
Tb185 O211 2.440 . S
Tb185 O212 2.658 . S
Tb185 O213 2.409 . S
Tb185 O214 2.378 . S
C186 Tb184 2.809 . S
C186 C187 1.514 . S
C186 O204 1.248 . S
C186 O205 1.266 . S
C187 C186 1.514 . S
C187 C188 1.359 . S
C187 C192 1.348 . S
C188 C187 1.359 . S
C188 C189 1.380 . S
C188 H216 0.929 . S
C189 C188 1.380 . S
C189 C190 1.347 . S
C189 H217 0.931 . S
C190 C189 1.347 . S
C190 C191 1.369 . S
C191 C190 1.369 . S
C191 C192 1.408 . S
C191 H218 0.930 . S
C192 C187 1.348 . S
C192 C191 1.408 . S
C192 H219 0.930 . S
C193 O206 1.281 . S
C193 O207 1.254 . S
C194 O208 1.236 . S
C194 O209 1.266 . S
C195 Tb185 2.809 . S
C195 C196 1.514 . S
C195 O210 1.248 . S
C195 O211 1.266 . S
C196 C195 1.514 . S
C196 C197 1.359 . S
C196 C201 1.348 . S
C197 C196 1.359 . S
C197 C198 1.380 . S
C197 H220 0.929 . S
C198 C197 1.380 . S
C198 C199 1.347 . S
C198 H221 0.931 . S
C199 C198 1.347 . S
C199 C200 1.369 . S
C200 C199 1.369 . S
C200 C201 1.408 . S
C200 H222 0.930 . S
C201 C196 1.348 . S
C201 C200 1.408 . S
C201 H223 0.930 . S
C202 O212 1.281 . S
C202 O213 1.254 . S
C203 O214 1.236 . S
C203 O215 1.266 . S
O204 Tb184 2.484 . S
O204 C186 1.248 . S
O205 Tb184 2.440 . S
O205 C186 1.266 . S
O206 Tb184 2.658 . S
O206 Tb185 2.325 . S
O206 C193 1.281 . S
O207 Tb184 2.409 . S
O207 C193 1.254 . S
O208 Tb184 2.378 . S
O208 C194 1.236 . S
O209 Tb185 2.341 . S
O209 C194 1.266 . S
O210 Tb185 2.484 . S
O210 C195 1.248 . S
O211 Tb185 2.440 . S
O211 C195 1.266 . S
O212 Tb184 2.325 . S
O212 Tb185 2.658 . S
O212 C202 1.281 . S
O213 Tb185 2.409 . S
O213 C202 1.254 . S
O214 Tb185 2.378 . S
O214 C203 1.236 . S
O215 Tb184 2.341 . S
O215 C203 1.266 . S
H216 C188 0.929 . S
H217 C189 0.931 . S
H218 C191 0.930 . S
H219 C192 0.930 . S
H220 C197 0.929 . S
H221 C198 0.931 . S
H222 C200 0.930 . S
H223 C201 0.930 . S
Tb224 C226 2.809 . S
Tb224 O244 2.484 . S
Tb224 O245 2.440 . S
Tb224 O246 2.658 1_656 S
Tb224 O247 2.409 1_656 S
Tb224 O248 2.378 1_556 S
Tb224 O252 2.325 . S
Tb224 O255 2.341 1_655 S
Tb225 C235 2.809 . S
Tb225 O246 2.325 . S
Tb225 O249 2.341 1_455 S
Tb225 O250 2.484 . S
Tb225 O251 2.440 . S
Tb225 O252 2.658 1_454 S
Tb225 O253 2.409 1_455 S
Tb225 O254 2.378 1_554 S
C226 Tb224 2.809 . S
C226 C227 1.514 . S
C226 O244 1.248 . S
C226 O245 1.266 . S
C227 C226 1.514 . S
C227 C228 1.359 . S
C227 C232 1.348 . S
C228 C227 1.359 . S
C228 C229 1.380 . S
C228 H256 0.929 . S
C229 C228 1.380 . S
C229 C230 1.347 . S
C229 H257 0.931 . S
C230 C229 1.347 . S
C230 C231 1.369 . S
C231 C230 1.369 . S
C231 C232 1.408 . S
C231 H258 0.930 . S
C232 C227 1.348 . S
C232 C231 1.408 . S
C232 H259 0.930 . S
C233 O246 1.281 . S
C233 O247 1.254 . S
C234 O248 1.236 . S
C234 O249 1.266 . S
C235 Tb225 2.809 . S
C235 C236 1.514 . S
C235 O250 1.248 . S
C235 O251 1.266 . S
C236 C235 1.514 . S
C236 C237 1.359 . S
C236 C241 1.348 . S
C237 C236 1.359 . S
C237 C238 1.380 . S
C237 H260 0.929 . S
C238 C237 1.380 . S
C238 C239 1.347 . S
C238 H261 0.931 . S
C239 C238 1.347 . S
C239 C240 1.369 . S
C240 C239 1.369 . S
C240 C241 1.408 . S
C240 H262 0.930 . S
C241 C236 1.348 . S
C241 C240 1.408 . S
C241 H263 0.930 . S
C242 O252 1.281 . S
C242 O253 1.254 1_556 S
C243 O254 1.236 . S
C243 O255 1.266 . S
O244 Tb224 2.484 . S
O244 C226 1.248 . S
O245 Tb224 2.440 . S
O245 C226 1.266 . S
O246 Tb224 2.658 1_454 S
O246 Tb225 2.325 . S
O246 C233 1.281 . S
O247 Tb224 2.409 1_454 S
O247 C233 1.254 . S
O248 Tb224 2.378 1_554 S
O248 C234 1.236 . S
O249 Tb225 2.341 1_655 S
O249 C234 1.266 . S
O250 Tb225 2.484 . S
O250 C235 1.248 . S
O251 Tb225 2.440 . S
O251 C235 1.266 . S
O252 Tb224 2.325 . S
O252 Tb225 2.658 1_656 S
O252 C242 1.281 . S
O253 Tb225 2.409 1_655 S
O253 C242 1.254 1_554 S
O254 Tb225 2.378 1_556 S
O254 C243 1.236 . S
O255 Tb224 2.341 1_455 S
O255 C243 1.266 . S
H256 C228 0.929 . S
H257 C229 0.931 . S
H258 C231 0.930 . S
H259 C232 0.930 . S
H260 C237 0.929 . S
H261 C238 0.931 . S
H262 C240 0.930 . S
H263 C241 0.930 . S
N1 C119 1.616 . S
N18 C159 0.932 1_455 S
C193 N28 3.252 . S
N40 C234 4.368 . S
C154 N5 2.407 . S
C114 N14 2.156 1_455 S
C242 N31 2.626 . S
C203 N41 2.264 . S
N2 C239 2.218 . S
C162 N27 3.486 . S
N44 C122 3.837 . S
N15 C190 1.627 . S
C110 N57 2.600 . S
N70 C150 0.836 . S
N79 C202 3.743 . S
N93 C243 3.918 . S
N54 C163 2.022 . S
C123 N66 2.770 . S
C233 N80 2.612 . S
C194 N96 2.581 . S
N53 C230 2.826 . S
C153 N83 2.935 . S
C113 N92 4.040 . S
N67 C199 2.430 . S
