# Generated by pormake.
# Topology eea, (3,6)-cn, num edge types: 1
# Building blocks:
#     Node 0, Type 0, BuildingBlock: ESEHIV_clean_linker_0, # of connection points: 3
#     Node 1, Type 0, BuildingBlock: ESEHIV_clean_linker_0, # of connection points: 3
#     Node 2, Type 0, BuildingBlock: ESEHIV_clean_linker_0, # of connection points: 3
#     Node 3, Type 0, BuildingBlock: ESEHIV_clean_linker_0, # of connection points: 3
#     Node 4, Type 0, BuildingBlock: ESEHIV_clean_linker_0, # of connection points: 3
#     Node 5, Type 0, BuildingBlock: ESEHIV_clean_linker_0, # of connection points: 3
#     Node 6, Type 0, BuildingBlock: ESEHIV_clean_linker_0, # of connection points: 3
#     Node 7, Type 0, BuildingBlock: ESEHIV_clean_linker_0, # of connection points: 3
#     Node 8, Type 0, BuildingBlock: ESEHIV_clean_linker_0, # of connection points: 3
#     Node 9, Type 0, BuildingBlock: ESEHIV_clean_linker_0, # of connection points: 3
#     Node 10, Type 0, BuildingBlock: ESEHIV_clean_linker_0, # of connection points: 3
#     Node 11, Type 0, BuildingBlock: ESEHIV_clean_linker_0, # of connection points: 3
#     Node 12, Type 0, BuildingBlock: ESEHIV_clean_linker_0, # of connection points: 3
#     Node 13, Type 0, BuildingBlock: ESEHIV_clean_linker_0, # of connection points: 3
#     Node 14, Type 0, BuildingBlock: ESEHIV_clean_linker_0, # of connection points: 3
#     Node 15, Type 0, BuildingBlock: ESEHIV_clean_linker_0, # of connection points: 3
#     Node 16, Type 0, BuildingBlock: ESEHIV_clean_linker_0, # of connection points: 3
#     Node 17, Type 0, BuildingBlock: ESEHIV_clean_linker_0, # of connection points: 3
#     Node 18, Type 1, BuildingBlock: KUMJIN_clean_sbu_0, # of connection points: 6
#     Node 19, Type 1, BuildingBlock: KUMJIN_clean_sbu_0, # of connection points: 6
#     Node 20, Type 1, BuildingBlock: KUMJIN_clean_sbu_0, # of connection points: 6
#     Node 21, Type 1, BuildingBlock: KUMJIN_clean_sbu_0, # of connection points: 6
#     Node 22, Type 1, BuildingBlock: KUMJIN_clean_sbu_0, # of connection points: 6
#     Node 23, Type 1, BuildingBlock: KUMJIN_clean_sbu_0, # of connection points: 6
#     Node 24, Type 1, BuildingBlock: KUMJIN_clean_sbu_0, # of connection points: 6
#     Node 25, Type 1, BuildingBlock: KUMJIN_clean_sbu_0, # of connection points: 6
#     Node 26, Type 1, BuildingBlock: KUMJIN_clean_sbu_0, # of connection points: 6
#     Edge 27, Type (0, 1), BuildingBlock: ZUJKAS_clean_linker_0, # of connection points: 2
#     Edge 28, Type (0, 1), BuildingBlock: ZUJKAS_clean_linker_0, # of connection points: 2
#     Edge 29, Type (0, 1), BuildingBlock: ZUJKAS_clean_linker_0, # of connection points: 2
#     Edge 30, Type (0, 1), BuildingBlock: ZUJKAS_clean_linker_0, # of connection points: 2
#     Edge 31, Type (0, 1), BuildingBlock: ZUJKAS_clean_linker_0, # of connection points: 2
#     Edge 32, Type (0, 1), BuildingBlock: ZUJKAS_clean_linker_0, # of connection points: 2
#     Edge 33, Type (0, 1), BuildingBlock: ZUJKAS_clean_linker_0, # of connection points: 2
#     Edge 34, Type (0, 1), BuildingBlock: ZUJKAS_clean_linker_0, # of connection points: 2
#     Edge 35, Type (0, 1), BuildingBlock: ZUJKAS_clean_linker_0, # of connection points: 2
#     Edge 36, Type (0, 1), BuildingBlock: ZUJKAS_clean_linker_0, # of connection points: 2
#     Edge 37, Type (0, 1), BuildingBlock: ZUJKAS_clean_linker_0, # of connection points: 2
#     Edge 38, Type (0, 1), BuildingBlock: ZUJKAS_clean_linker_0, # of connection points: 2
#     Edge 39, Type (0, 1), BuildingBlock: ZUJKAS_clean_linker_0, # of connection points: 2
#     Edge 40, Type (0, 1), BuildingBlock: ZUJKAS_clean_linker_0, # of connection points: 2
#     Edge 41, Type (0, 1), BuildingBlock: ZUJKAS_clean_linker_0, # of connection points: 2
#     Edge 42, Type (0, 1), BuildingBlock: ZUJKAS_clean_linker_0, # of connection points: 2
#     Edge 43, Type (0, 1), BuildingBlock: ZUJKAS_clean_linker_0, # of connection points: 2
#     Edge 44, Type (0, 1), BuildingBlock: ZUJKAS_clean_linker_0, # of connection points: 2
#     Edge 45, Type (0, 1), BuildingBlock: ZUJKAS_clean_linker_0, # of connection points: 2
#     Edge 46, Type (0, 1), BuildingBlock: ZUJKAS_clean_linker_0, # of connection points: 2
#     Edge 47, Type (0, 1), BuildingBlock: ZUJKAS_clean_linker_0, # of connection points: 2
#     Edge 48, Type (0, 1), BuildingBlock: ZUJKAS_clean_linker_0, # of connection points: 2
#     Edge 49, Type (0, 1), BuildingBlock: ZUJKAS_clean_linker_0, # of connection points: 2
#     Edge 50, Type (0, 1), BuildingBlock: ZUJKAS_clean_linker_0, # of connection points: 2
#     Edge 51, Type (0, 1), BuildingBlock: ZUJKAS_clean_linker_0, # of connection points: 2
#     Edge 52, Type (0, 1), BuildingBlock: ZUJKAS_clean_linker_0, # of connection points: 2
#     Edge 53, Type (0, 1), BuildingBlock: ZUJKAS_clean_linker_0, # of connection points: 2
#     Edge 54, Type (0, 1), BuildingBlock: ZUJKAS_clean_linker_0, # of connection points: 2
#     Edge 55, Type (0, 1), BuildingBlock: ZUJKAS_clean_linker_0, # of connection points: 2
#     Edge 56, Type (0, 1), BuildingBlock: ZUJKAS_clean_linker_0, # of connection points: 2
#     Edge 57, Type (0, 1), BuildingBlock: ZUJKAS_clean_linker_0, # of connection points: 2
#     Edge 58, Type (0, 1), BuildingBlock: ZUJKAS_clean_linker_0, # of connection points: 2
#     Edge 59, Type (0, 1), BuildingBlock: ZUJKAS_clean_linker_0, # of connection points: 2
#     Edge 60, Type (0, 1), BuildingBlock: ZUJKAS_clean_linker_0, # of connection points: 2
#     Edge 61, Type (0, 1), BuildingBlock: ZUJKAS_clean_linker_0, # of connection points: 2
#     Edge 62, Type (0, 1), BuildingBlock: ZUJKAS_clean_linker_0, # of connection points: 2
#     Edge 63, Type (0, 1), BuildingBlock: ZUJKAS_clean_linker_0, # of connection points: 2
#     Edge 64, Type (0, 1), BuildingBlock: ZUJKAS_clean_linker_0, # of connection points: 2
#     Edge 65, Type (0, 1), BuildingBlock: ZUJKAS_clean_linker_0, # of connection points: 2
#     Edge 66, Type (0, 1), BuildingBlock: ZUJKAS_clean_linker_0, # of connection points: 2
#     Edge 67, Type (0, 1), BuildingBlock: ZUJKAS_clean_linker_0, # of connection points: 2
#     Edge 68, Type (0, 1), BuildingBlock: ZUJKAS_clean_linker_0, # of connection points: 2
#     Edge 69, Type (0, 1), BuildingBlock: ZUJKAS_clean_linker_0, # of connection points: 2
#     Edge 70, Type (0, 1), BuildingBlock: ZUJKAS_clean_linker_0, # of connection points: 2
#     Edge 71, Type (0, 1), BuildingBlock: ZUJKAS_clean_linker_0, # of connection points: 2
#     Edge 72, Type (0, 1), BuildingBlock: ZUJKAS_clean_linker_0, # of connection points: 2
#     Edge 73, Type (0, 1), BuildingBlock: ZUJKAS_clean_linker_0, # of connection points: 2
#     Edge 74, Type (0, 1), BuildingBlock: ZUJKAS_clean_linker_0, # of connection points: 2
#     Edge 75, Type (0, 1), BuildingBlock: ZUJKAS_clean_linker_0, # of connection points: 2
#     Edge 76, Type (0, 1), BuildingBlock: ZUJKAS_clean_linker_0, # of connection points: 2
#     Edge 77, Type (0, 1), BuildingBlock: ZUJKAS_clean_linker_0, # of connection points: 2
#     Edge 78, Type (0, 1), BuildingBlock: ZUJKAS_clean_linker_0, # of connection points: 2
#     Edge 79, Type (0, 1), BuildingBlock: ZUJKAS_clean_linker_0, # of connection points: 2
#     Edge 80, Type (0, 1), BuildingBlock: ZUJKAS_clean_linker_0, # of connection points: 2
# Relax obj value: 0.009
# Max RMSD: 0.095
# Mean RMSD: 0.062
data_MOF--net-eea--node1-KUMJIN_clean_sbu_0--node2-ESEHIV_clean_linker_0--edge1-ZUJKAS_clean_linker_0
_symmetry_space_group_name_H-M    P1
_symmetry_Int_Tables_number       1
_symmetry_cell_setting            triclinic
loop_
_symmetry_equiv_pos_as_xyz
'x, y, z'
_cell_length_a     63.226232
_cell_length_b     64.624906
_cell_length_c     89.51021
_cell_angle_alpha  90.107048
_cell_angle_beta   90.088352
_cell_angle_gamma 119.98095
loop_
_atom_site_label
_atom_site_type_symbol
_atom_site_fract_x
_atom_site_fract_y
_atom_site_fract_z
_atom_type_partial_charge
H0 H 0.25748 0.15922 0.44245 0.0
H1 H 0.25488 0.09156 0.44357 0.0
H2 H 0.22419 0.10931 0.40618 0.0
C3 C 0.25214 0.14209 0.4373 0.0
C4 C 0.2404 0.13633 0.42332 0.0
C5 C 0.25699 0.1258 0.44474 0.0
C6 C 0.25041 0.10377 0.438 0.0
C7 C 0.23902 0.09785 0.42392 0.0
C8 C 0.23383 0.11413 0.41677 0.0
H9 H 0.85304 0.09296 0.44271 0.0
H10 H 0.91767 0.16194 0.43979 0.0
H11 H 0.89904 0.11065 0.40416 0.0
C12 C 0.869 0.10577 0.43656 0.0
C13 C 0.8738 0.09945 0.42248 0.0
C14 C 0.88489 0.12814 0.44299 0.0
C15 C 0.90591 0.14438 0.43508 0.0
C16 C 0.91136 0.13836 0.421 0.0
C17 C 0.89516 0.1157 0.4149 0.0
H18 H 0.85089 0.76568 0.43985 0.0
H19 H 0.9185 0.76475 0.43982 0.0
H20 H 0.89672 0.78861 0.40094 0.0
C21 C 0.86741 0.76888 0.43423 0.0
C22 C 0.87169 0.77757 0.41949 0.0
C23 C 0.88411 0.7641 0.44172 0.0
C24 C 0.90566 0.76869 0.4343 0.0
C25 C 0.91033 0.77741 0.41954 0.0
C26 C 0.89311 0.78158 0.41221 0.0
H27 H 0.0884 0.23749 0.57715 0.0
H28 H 0.15482 0.23439 0.57698 0.0
H29 H 0.10847 0.21121 0.61566 0.0
C30 C 0.10095 0.23318 0.58269 0.0
C31 C 0.09569 0.22369 0.59726 0.0
C32 C 0.12229 0.23721 0.57525 0.0
C33 C 0.13839 0.23148 0.5826 0.0
C34 C 0.13361 0.22214 0.59718 0.0
C35 C 0.11222 0.21834 0.60441 0.0
H36 H 0.75469 0.91063 0.57315 0.0
H37 H 0.75156 0.84262 0.57472 0.0
H38 H 0.78374 0.89244 0.61109 0.0
C39 C 0.75816 0.89793 0.57898 0.0
C40 C 0.76962 0.904 0.59301 0.0
C41 C 0.7517 0.8759 0.57223 0.0
C42 C 0.75704 0.8599 0.57967 0.0
C43 C 0.76861 0.86574 0.59371 0.0
C44 C 0.77485 0.88783 0.60026 0.0
H45 H 0.08493 0.83859 0.57603 0.0
H46 H 0.15184 0.90593 0.57404 0.0
H47 H 0.10588 0.88797 0.61281 0.0
C48 C 0.09783 0.85549 0.58115 0.0
C49 C 0.09303 0.86125 0.59544 0.0
C50 C 0.11876 0.8718 0.57321 0.0
C51 C 0.13523 0.89377 0.57989 0.0
C52 C 0.13089 0.89982 0.59421 0.0
C53 C 0.10958 0.88347 0.60183 0.0
H54 H 0.92573 0.49552 0.77485 0.0
H55 H 0.92546 0.42883 0.77569 0.0
H56 H 0.89331 0.44546 0.73866 0.0
C57 C 0.92069 0.4784 0.76981 0.0
C58 C 0.90895 0.47243 0.75583 0.0
C59 C 0.92667 0.46274 0.77709 0.0
C60 C 0.92085 0.44097 0.77017 0.0
C61 C 0.90914 0.43475 0.75621 0.0
C62 C 0.9031 0.45051 0.7492 0.0
H63 H 0.5205 0.42618 0.77533 0.0
H64 H 0.58735 0.49382 0.77448 0.0
H65 H 0.56617 0.4469 0.73638 0.0
C66 C 0.5367 0.4392 0.76947 0.0
C67 C 0.54117 0.43403 0.75495 0.0
C68 C 0.5532 0.46069 0.77666 0.0
C69 C 0.57471 0.47699 0.76918 0.0
C70 C 0.57951 0.47217 0.75462 0.0
C71 C 0.56262 0.45066 0.74761 0.0
H72 H 0.51662 0.09715 0.77314 0.0
H73 H 0.58459 0.097 0.77254 0.0
H74 H 0.56277 0.1224 0.73438 0.0
C75 C 0.53327 0.10088 0.76744 0.0
C76 C 0.53768 0.11045 0.75292 0.0
C77 C 0.55004 0.09592 0.77463 0.0
C78 C 0.57143 0.10051 0.76703 0.0
C79 C 0.57635 0.11032 0.75255 0.0
C80 C 0.55942 0.11538 0.74565 0.0
H81 H 0.75603 0.57069 0.91086 0.0
H82 H 0.82415 0.57078 0.91096 0.0
H83 H 0.77738 0.54566 0.9494 0.0
C84 C 0.769 0.567 0.91644 0.0
C85 C 0.76389 0.55735 0.93096 0.0
C86 C 0.79075 0.57204 0.90908 0.0
C87 C 0.80755 0.5674 0.91656 0.0
C88 C 0.80284 0.55775 0.93107 0.0
C89 C 0.78087 0.55261 0.93811 0.0
H90 H 0.41945 0.2425 0.90611 0.0
H91 H 0.41589 0.17441 0.9071 0.0
H92 H 0.44878 0.22366 0.94372 0.0
C93 C 0.42354 0.23004 0.91171 0.0
C94 C 0.43458 0.23564 0.9259 0.0
C95 C 0.4169 0.20807 0.90488 0.0
C96 C 0.42128 0.19148 0.91233 0.0
C97 C 0.43269 0.19691 0.92642 0.0
C98 C 0.43935 0.21907 0.93306 0.0
H99 H 0.7537 0.17283 0.91071 0.0
H100 H 0.82052 0.24039 0.90895 0.0
H101 H 0.7749 0.22154 0.94787 0.0
C102 C 0.76647 0.18978 0.91583 0.0
C103 C 0.76149 0.19545 0.9301 0.0
C104 C 0.78788 0.20578 0.90816 0.0
C105 C 0.80432 0.22767 0.91495 0.0
C106 C 0.7998 0.2336 0.92925 0.0
C107 C 0.77827 0.2174 0.9367 0.0
H108 H 0.58392 0.82387 0.1109 0.0
H109 H 0.58437 0.75758 0.11115 0.0
H110 H 0.55768 0.77722 0.07266 0.0
C111 C 0.5804 0.80759 0.10528 0.0
C112 C 0.56989 0.80239 0.09093 0.0
C113 C 0.5857 0.79151 0.11263 0.0
C114 C 0.58038 0.77006 0.1055 0.0
C115 C 0.57008 0.76466 0.09112 0.0
C116 C 0.56497 0.78096 0.08392 0.0
H117 H 0.19028 0.75978 0.10984 0.0
H118 H 0.25679 0.82764 0.10831 0.0
H119 H 0.23472 0.78049 0.0703 0.0
C120 C 0.20646 0.77262 0.10388 0.0
C121 C 0.21049 0.76745 0.08924 0.0
C122 C 0.22301 0.7943 0.11085 0.0
C123 C 0.24396 0.81086 0.10303 0.0
C124 C 0.24835 0.80599 0.08839 0.0
C125 C 0.2315 0.78427 0.0816 0.0
H126 H 0.18725 0.43449 0.10885 0.0
H127 H 0.25567 0.43531 0.108 0.0
H128 H 0.23187 0.45784 0.06937 0.0
C129 C 0.20371 0.43805 0.10299 0.0
C130 C 0.20741 0.44669 0.08825 0.0
C131 C 0.22097 0.43386 0.11023 0.0
C132 C 0.24229 0.43852 0.10252 0.0
C133 C 0.24645 0.44723 0.08776 0.0
C134 C 0.22886 0.45122 0.08073 0.0
H135 H 0.42028 0.90209 0.24289 0.0
H136 H 0.48741 0.90033 0.24223 0.0
H137 H 0.44137 0.87604 0.28104 0.0
C138 C 0.43307 0.89797 0.24831 0.0
C139 C 0.42813 0.88842 0.26286 0.0
C140 C 0.45444 0.90238 0.24073 0.0
C141 C 0.47091 0.897 0.24794 0.0
C142 C 0.46644 0.88755 0.26249 0.0
C143 C 0.44495 0.88327 0.26983 0.0
H144 H 0.08536 0.57353 0.23993 0.0
H145 H 0.09018 0.50943 0.2392 0.0
H146 H 0.11552 0.55559 0.27757 0.0
C147 C 0.09078 0.56182 0.24523 0.0
C148 C 0.1011 0.56729 0.25963 0.0
C149 C 0.08669 0.54097 0.23779 0.0
C150 C 0.09309 0.52549 0.24487 0.0
C151 C 0.1032 0.53061 0.25928 0.0
C152 C 0.10711 0.55144 0.26659 0.0
H153 H 0.41725 0.50541 0.24197 0.0
H154 H 0.48383 0.57311 0.24081 0.0
H155 H 0.43783 0.55297 0.27968 0.0
C156 C 0.4299 0.52222 0.24727 0.0
C157 C 0.42524 0.52707 0.26185 0.0
C158 C 0.45087 0.53892 0.23954 0.0
C159 C 0.46725 0.56059 0.24657 0.0
C160 C 0.4629 0.56585 0.2611 0.0
C161 C 0.44177 0.54894 0.26863 0.0
Eu162 Eu 0.49263 0.98324 0.99022 0.0
C163 C 0.54699 0.07494 0.03101 0.0
C164 C 0.58965 0.08619 0.02979 0.0
C165 C 0.57838 0.11661 0.03392 0.0
C166 C 0.5647 0.06865 0.02905 0.0
C167 C 0.55359 0.09891 0.0338 0.0
C168 C 0.59638 0.11026 0.0319 0.0
C169 C 0.51084 0.0858 0.03736 0.0
N170 N 0.52327 0.05738 0.03098 0.0
C171 C 0.50523 0.06228 0.0346 0.0
C172 C 0.53511 0.10425 0.03678 0.0
Eu173 Eu 0.51493 0.01812 0.02564 0.0
N174 N 0.55754 0.04522 0.02716 0.0
C175 C 0.57442 0.03792 0.02698 0.0
C176 C 0.60706 0.07892 0.02878 0.0
C177 C 0.59939 0.05465 0.02755 0.0
H178 H 0.48643 0.0481 0.03498 0.0
H179 H 0.6127 0.04879 0.02701 0.0
H180 H 0.61545 0.12401 0.03236 0.0
H181 H 0.49645 0.08968 0.03991 0.0
H182 H 0.56882 0.01925 0.02599 0.0
H183 H 0.3953 0.95416 0.98771 0.0
H184 H 0.6264 0.09184 0.02929 0.0
H185 H 0.52037 0.95216 0.98183 0.0
H186 H 0.43929 0.98314 0.98903 0.0
H187 H 0.50966 0.91013 0.97785 0.0
H188 H 0.58382 0.13516 0.0359 0.0
H189 H 0.3809 0.91092 0.98616 0.0
H190 H 0.39109 0.87805 0.98448 0.0
H191 H 0.53942 0.12245 0.03897 0.0
H192 H 0.42222 0.86603 0.98181 0.0
N193 N 0.44994 0.95666 0.98871 0.0
C194 C 0.43338 0.96437 0.98839 0.0
C195 C 0.40029 0.92357 0.98685 0.0
C196 C 0.41738 0.91584 0.9865 0.0
C197 C 0.40835 0.94796 0.98765 0.0
C198 C 0.44242 0.93308 0.98728 0.0
H199 H 0.46647 0.8779 0.97908 0.0
N200 N 0.4837 0.9436 0.98563 0.0
C201 C 0.49548 0.91442 0.98011 0.0
C202 C 0.45986 0.92632 0.98573 0.0
C203 C 0.50148 0.93818 0.98232 0.0
C204 C 0.47108 0.89628 0.98086 0.0
C205 C 0.45286 0.90214 0.98345 0.0
O206 O 0.51097 0.98853 0.96872 0.0
O207 O 0.52284 0.01464 1.0018 0.0
O208 O 0.50982 0.04136 0.00881 0.0
O209 O 0.48208 0.01216 0.9924 0.0
O210 O 0.53301 0.99586 0.98769 0.0
O211 O 0.47988 0.99379 0.97048 0.0
O212 O 0.49681 0.01216 0.04729 0.0
O213 O 0.48468 0.987 0.01393 0.0
O214 O 0.49712 0.9601 0.00739 0.0
O215 O 0.52598 0.98957 0.02312 0.0
O216 O 0.47451 0.0055 0.02819 0.0
O217 O 0.52764 0.00664 0.04495 0.0
C218 C 0.541 0.01428 0.99631 0.0
C219 C 0.4871 0.98157 0.94701 0.0
C220 C 0.48792 0.98364 0.91968 0.0
C221 C 0.49559 0.9949 0.93375 0.0
C222 C 0.47142 0.95889 0.91917 0.0
C223 C 0.47063 0.95696 0.94621 0.0
C224 C 0.46283 0.94572 0.93234 0.0
C225 C 0.49345 0.03422 0.99789 0.0
C226 C 0.496 0.99341 0.96158 0.0
C227 C 0.42797 0.88474 0.9834 0.0
C228 C 0.41025 0.89158 0.98491 0.0
C229 C 0.4665 0.98735 0.01935 0.0
C230 C 0.52104 0.01829 0.06874 0.0
C231 C 0.513 0.00456 0.08189 0.0
C232 C 0.52186 0.01523 0.096 0.0
C233 C 0.53873 0.0399 0.09666 0.0
C234 C 0.53791 0.04279 0.06972 0.0
C235 C 0.54665 0.05351 0.08362 0.0
C236 C 0.51394 0.9673 0.01802 0.0
C237 C 0.51174 0.0069 0.0541 0.0
H238 H 0.5085 0.01391 0.93438 0.0
H239 H 0.46492 0.94973 0.90858 0.0
H240 H 0.46388 0.94644 0.95628 0.0
H241 H 0.45009 0.9267 0.9318 0.0
H242 H 0.50015 0.98557 0.08108 0.0
H243 H 0.54562 0.04881 0.10729 0.0
H244 H 0.5443 0.05361 0.05975 0.0
H245 H 0.5596 0.07246 0.0843 0.0
Eu246 Eu 0.02622 0.5083 0.9912 0.0
C247 C 0.92722 0.46954 0.0253 0.0
C248 C 0.9159 0.49997 0.02219 0.0
C249 C 0.88436 0.45838 0.02495 0.0
C250 C 0.9339 0.4932 0.02317 0.0
C251 C 0.9024 0.45191 0.02654 0.0
C252 C 0.8911 0.48237 0.02276 0.0
C253 C 0.91517 0.42318 0.03206 0.0
N254 N 0.9451 0.46393 0.02691 0.0
C255 C 0.93953 0.44132 0.0308 0.0
C256 C 0.8965 0.42843 0.02974 0.0
Eu257 Eu 0.98586 0.49531 0.02397 0.0
N258 N 0.95802 0.50975 0.02274 0.0
C259 C 0.96541 0.53354 0.02241 0.0
C260 C 0.92339 0.52426 0.021 0.0
C261 C 0.94826 0.54113 0.02132 0.0
H262 H 0.95392 0.43717 0.03251 0.0
H263 H 0.95425 0.55999 0.02065 0.0
H264 H 0.87702 0.4872 0.02187 0.0
H265 H 0.91082 0.40517 0.0348 0.0
H266 H 0.98456 0.54679 0.02256 0.0
H267 H 0.05713 0.44313 0.99163 0.0
H268 H 0.91015 0.53019 0.02013 0.0
H269 H 0.05812 0.56687 0.98387 0.0
H270 H 0.02712 0.45676 0.99247 0.0
H271 H 0.10116 0.59873 0.98105 0.0
H272 H 0.86518 0.44506 0.02573 0.0
H273 H 0.10118 0.4726 0.98987 0.0
H274 H 0.13453 0.51547 0.98898 0.0
H275 H 0.87764 0.41436 0.03078 0.0
H276 H 0.14657 0.55787 0.9865 0.0
N277 N 0.05388 0.49372 0.99196 0.0
C278 C 0.04628 0.46988 0.99201 0.0
C279 C 0.08811 0.47873 0.99068 0.0
C280 C 0.0958 0.50312 0.99044 0.0
C281 C 0.06325 0.46204 0.99152 0.0
C282 C 0.07799 0.51016 0.99091 0.0
H283 H 0.13426 0.58905 0.98337 0.0
N284 N 0.06694 0.53977 0.98841 0.0
C285 C 0.09681 0.58061 0.9834 0.0
C286 C 0.08474 0.53394 0.98923 0.0
C287 C 0.07248 0.56255 0.98498 0.0
C288 C 0.11544 0.57508 0.98477 0.0
C289 C 0.10951 0.55144 0.98742 0.0
O290 O 0.02465 0.52094 0.96885 0.0
O291 O 0.99246 0.50627 1.00014 0.0
O292 O 0.96456 0.46754 0.00636 0.0
O293 O 0.99641 0.46881 0.99249 0.0
O294 O 0.01316 0.5347 0.9863 0.0
O295 O 0.01859 0.48509 0.9718 0.0
O296 O 0.98818 0.48326 0.04635 0.0
O297 O 0.01959 0.49718 0.01499 0.0
O298 O 0.04749 0.53569 0.00907 0.0
O299 O 0.01547 0.53477 0.02249 0.0
O300 O 0.99878 0.46878 0.02878 0.0
O301 O 0.993 0.51862 0.04327 0.0
C302 C 0.99324 0.52409 0.9939 0.0
C303 C 0.03604 0.50457 0.94904 0.0
C304 C 0.03972 0.50529 0.92189 0.0
C305 C 0.02572 0.50197 0.93482 0.0
C306 C 0.06428 0.51123 0.92348 0.0
C307 C 0.0605 0.51041 0.95041 0.0
C308 C 0.07453 0.51372 0.93767 0.0
C309 C 0.97311 0.45824 0.99654 0.0
C310 C 0.02106 0.50142 0.96228 0.0
C311 C 0.12744 0.54467 0.98778 0.0
C312 C 0.12058 0.52054 0.98919 0.0
C313 C 0.01869 0.47923 0.02114 0.0
C314 C 0.97628 0.49916 0.06613 0.0
C315 C 0.98704 0.50263 0.08028 0.0
C316 C 0.97307 0.49868 0.09327 0.0
C317 C 0.9481 0.49121 0.09188 0.0
C318 C 0.95141 0.49187 0.06491 0.0
C319 C 0.93741 0.48792 0.07776 0.0
C320 C 0.03887 0.54515 0.01873 0.0
C321 C 0.99122 0.50263 0.05284 0.0
H322 H 0.00669 0.4971 0.93385 0.0
H323 H 0.07565 0.51423 0.91378 0.0
H324 H 0.06874 0.51242 0.96125 0.0
H325 H 0.09344 0.51833 0.93879 0.0
H326 H 0.00622 0.50799 0.08117 0.0
H327 H 0.93695 0.48819 0.1017 0.0
H328 H 0.94284 0.48917 0.05409 0.0
H329 H 0.91821 0.48227 0.07677 0.0
Eu330 Eu 0.51653 0.49428 0.02545 0.0
C331 C 0.45947 0.5332 0.98885 0.0
C332 C 0.41696 0.50277 0.99135 0.0
C333 C 0.42801 0.54436 0.98843 0.0
C334 C 0.4419 0.50955 0.99084 0.0
C335 C 0.45271 0.55084 0.98729 0.0
C336 C 0.41016 0.52036 0.99048 0.0
C337 C 0.49507 0.57959 0.98247 0.0
N338 N 0.48312 0.53881 0.98774 0.0
C339 C 0.50084 0.56144 0.98407 0.0
C340 C 0.47094 0.57433 0.98427 0.0
Eu341 Eu 0.49174 0.50752 0.99147 0.0
N342 N 0.4491 0.49301 0.99155 0.0
C343 C 0.43219 0.46921 0.99162 0.0
C344 C 0.3996 0.47846 0.99234 0.0
C345 C 0.40725 0.4616 0.99223 0.0
H346 H 0.51954 0.56561 0.98279 0.0
H347 H 0.39395 0.44273 0.9927 0.0
H348 H 0.39111 0.51553 0.99102 0.0
H349 H 0.50924 0.59762 0.97989 0.0
H350 H 0.43782 0.45597 0.99165 0.0
H351 H 0.61448 0.55841 0.02389 0.0
H352 H 0.38027 0.47252 0.99283 0.0
H353 H 0.48827 0.43643 0.03473 0.0
H354 H 0.57069 0.54552 0.02472 0.0
H355 H 0.49823 0.40435 0.03843 0.0
H356 H 0.42246 0.55768 0.98741 0.0
H357 H 0.62782 0.52838 0.02455 0.0
H358 H 0.61663 0.48536 0.02711 0.0
H359 H 0.46651 0.58841 0.983 0.0
H360 H 0.58501 0.44343 0.03116 0.0
N361 N 0.5591 0.50844 0.02542 0.0
C362 C 0.57616 0.53218 0.02507 0.0
C363 C 0.60853 0.52259 0.02492 0.0
C364 C 0.59101 0.49837 0.02618 0.0
C365 C 0.60107 0.53959 0.02458 0.0
C366 C 0.56612 0.49179 0.02652 0.0
H367 H 0.54087 0.41312 0.03566 0.0
N368 N 0.52479 0.46285 0.02964 0.0
C369 C 0.51251 0.42222 0.03564 0.0
C370 C 0.54839 0.46825 0.02871 0.0
C371 C 0.50693 0.44042 0.03357 0.0
C372 C 0.53658 0.42723 0.03402 0.0
C373 C 0.55495 0.45055 0.03073 0.0
O374 O 0.49949 0.48274 0.04735 0.0
O375 O 0.48549 0.49637 0.01529 0.0
O376 O 0.49788 0.53524 0.00892 0.0
O377 O 0.52765 0.53376 0.02357 0.0
O378 O 0.47625 0.46763 0.02907 0.0
O379 O 0.53201 0.51737 0.04502 0.0
O380 O 0.50824 0.51981 0.96951 0.0
O381 O 0.52275 0.5054 1.0016 0.0
O382 O 0.51015 0.46619 0.0082 0.0
O383 O 0.48094 0.46814 0.9932 0.0
O384 O 0.532 0.53409 0.98778 0.0
O385 O 0.47679 0.48442 0.97188 0.0
C386 C 0.46766 0.4783 0.02105 0.0
C387 C 0.52526 0.49789 0.06833 0.0
C388 C 0.52423 0.49683 0.09562 0.0
C389 C 0.51634 0.50134 0.08191 0.0
C390 C 0.54129 0.48889 0.09548 0.0
C391 C 0.54232 0.49006 0.06842 0.0
C392 C 0.55028 0.4856 0.08196 0.0
C393 C 0.51542 0.5444 0.0191 0.0
C394 C 0.51597 0.50184 0.05422 0.0
C395 C 0.57962 0.45681 0.02979 0.0
C396 C 0.59762 0.48068 0.02749 0.0
C397 C 0.54058 0.52337 0.99576 0.0
C398 C 0.48236 0.50368 0.9486 0.0
C399 C 0.49084 0.49984 0.93497 0.0
C400 C 0.48188 0.50316 0.92129 0.0
C401 C 0.46428 0.51043 0.92156 0.0
C402 C 0.46481 0.51088 0.94863 0.0
C403 C 0.45584 0.51423 0.93514 0.0
C404 C 0.49293 0.45732 0.99779 0.0
C405 C 0.4923 0.50039 0.96266 0.0
H406 H 0.50292 0.50711 0.08178 0.0
H407 H 0.54792 0.4855 0.10583 0.0
H408 H 0.54937 0.48732 0.05807 0.0
H409 H 0.56346 0.47957 0.08198 0.0
H410 H 0.5042 0.494 0.93505 0.0
H411 H 0.45724 0.5135 0.91127 0.0
H412 H 0.45812 0.51394 0.95904 0.0
H413 H 0.44236 0.51989 0.9352 0.0
Eu414 Eu 0.1578 0.31585 0.32483 0.0
C415 C 0.21599 0.40751 0.36429 0.0
C416 C 0.25806 0.41664 0.3634 0.0
C417 C 0.24887 0.44872 0.36635 0.0
C418 C 0.23283 0.39998 0.36274 0.0
C419 C 0.22379 0.43191 0.3664 0.0
C420 C 0.26598 0.44109 0.36487 0.0
C421 C 0.18154 0.42103 0.36974 0.0
N422 N 0.19195 0.39079 0.3645 0.0
C423 C 0.17474 0.39703 0.36774 0.0
C424 C 0.20616 0.43859 0.3689 0.0
Eu425 Eu 0.18166 0.35071 0.36014 0.0
N426 N 0.22456 0.37623 0.36139 0.0
C427 C 0.24054 0.36781 0.36162 0.0
C428 C 0.27453 0.40816 0.36299 0.0
C429 C 0.26571 0.38363 0.36224 0.0
H430 H 0.15568 0.38347 0.3683 0.0
H431 H 0.27829 0.37686 0.36213 0.0
H432 H 0.28528 0.45418 0.36522 0.0
H433 H 0.16781 0.42596 0.37194 0.0
H434 H 0.23406 0.34893 0.36101 0.0
H435 H 0.06029 0.28647 0.32507 0.0
H436 H 0.29405 0.42035 0.36358 0.0
H437 H 0.18528 0.2853 0.31456 0.0
H438 H 0.1043 0.31554 0.32561 0.0
H439 H 0.17448 0.24365 0.30911 0.0
H440 H 0.25523 0.46758 0.36782 0.0
H441 H 0.0459 0.24334 0.32233 0.0
H442 H 0.05612 0.21083 0.31831 0.0
H443 H 0.2114 0.45717 0.37055 0.0
H444 H 0.08718 0.19916 0.31392 0.0
N445 N 0.11504 0.28924 0.32366 0.0
C446 C 0.09842 0.29684 0.32437 0.0
C447 C 0.06531 0.25606 0.32257 0.0
C448 C 0.08242 0.2485 0.32098 0.0
C449 C 0.07336 0.28038 0.32408 0.0
C450 C 0.10748 0.26577 0.32148 0.0
H451 H 0.13133 0.21131 0.31025 0.0
N452 N 0.1487 0.27649 0.31904 0.0
C453 C 0.16035 0.24775 0.31197 0.0
C454 C 0.12488 0.25919 0.3191 0.0
C455 C 0.1664 0.27131 0.31503 0.0
C456 C 0.13598 0.22954 0.31266 0.0
C457 C 0.11784 0.23518 0.31605 0.0
O458 O 0.17608 0.32288 0.30318 0.0
O459 O 0.18874 0.34667 0.33634 0.0
O460 O 0.17759 0.37406 0.34295 0.0
O461 O 0.14728 0.34468 0.32792 0.0
O462 O 0.19799 0.32771 0.32185 0.0
O463 O 0.14443 0.32703 0.30567 0.0
O464 O 0.16465 0.34717 0.38194 0.0
O465 O 0.15078 0.31958 0.34883 0.0
O466 O 0.16302 0.2922 0.34127 0.0
O467 O 0.19111 0.32105 0.35775 0.0
O468 O 0.14151 0.33869 0.36324 0.0
O469 O 0.19373 0.33897 0.37963 0.0
C470 C 0.20656 0.34588 0.33071 0.0
C471 C 0.15191 0.3165 0.28171 0.0
C472 C 0.15349 0.31969 0.25442 0.0
C473 C 0.16108 0.33031 0.26866 0.0
C474 C 0.13641 0.29511 0.25352 0.0
C475 C 0.13489 0.29207 0.28051 0.0
C476 C 0.12718 0.28147 0.26647 0.0
C477 C 0.1602 0.36705 0.33272 0.0
C478 C 0.16071 0.32764 0.29647 0.0
C479 C 0.09295 0.21774 0.3161 0.0
C480 C 0.07527 0.22438 0.31859 0.0
C481 C 0.13296 0.32016 0.35468 0.0
C482 C 0.18896 0.35254 0.40325 0.0
C483 C 0.18103 0.33917 0.41652 0.0
C484 C 0.19059 0.35003 0.4305 0.0
C485 C 0.2081 0.37455 0.43087 0.0
C486 C 0.20646 0.37688 0.40393 0.0
C487 C 0.21594 0.3878 0.41769 0.0
C488 C 0.17945 0.29905 0.35215 0.0
C489 C 0.17877 0.34089 0.38879 0.0
H490 H 0.17442 0.34916 0.26961 0.0
H491 H 0.12994 0.28644 0.24278 0.0
H492 H 0.12764 0.2812 0.2904 0.0
H493 H 0.114 0.2626 0.26561 0.0
H494 H 0.16769 0.32029 0.41592 0.0
H495 H 0.21555 0.38362 0.44139 0.0
H496 H 0.21274 0.38742 0.39384 0.0
H497 H 0.22937 0.40664 0.41815 0.0
Eu498 Eu 0.68838 0.83916 0.32611 0.0
C499 C 0.58952 0.80123 0.36067 0.0
C500 C 0.57958 0.83282 0.35927 0.0
C501 C 0.54712 0.79156 0.36177 0.0
C502 C 0.59693 0.82517 0.35903 0.0
C503 C 0.56457 0.78419 0.36235 0.0
C504 C 0.55462 0.81584 0.36031 0.0
C505 C 0.5762 0.75433 0.36683 0.0
N506 N 0.60688 0.79482 0.36169 0.0
C507 C 0.60071 0.77194 0.36529 0.0
C508 C 0.55801 0.76042 0.36518 0.0
Eu509 Eu 0.64797 0.82546 0.35896 0.0
N510 N 0.62119 0.84114 0.3583 0.0
C511 C 0.62939 0.86511 0.35853 0.0
C512 C 0.5879 0.85735 0.35902 0.0
C513 C 0.61291 0.87356 0.3587 0.0
H514 H 0.61475 0.76719 0.36658 0.0
H515 H 0.61953 0.89257 0.35866 0.0
H516 H 0.54102 0.82137 0.36036 0.0
H517 H 0.57135 0.73611 0.36933 0.0
H518 H 0.64866 0.8779 0.35839 0.0
H519 H 0.71879 0.77349 0.32809 0.0
H520 H 0.57518 0.86398 0.35935 0.0
H521 H 0.7211 0.89752 0.31828 0.0
H522 H 0.68892 0.78727 0.32627 0.0
H523 H 0.76444 0.92928 0.31666 0.0
H524 H 0.52785 0.77872 0.36293 0.0
H525 H 0.76295 0.80289 0.32961 0.0
H526 H 0.79649 0.84582 0.32896 0.0
H527 H 0.53904 0.74679 0.36651 0.0
H528 H 0.80895 0.88824 0.32576 0.0
N529 N 0.71577 0.82419 0.32707 0.0
C530 C 0.70811 0.80033 0.32683 0.0
C531 C 0.74991 0.80907 0.32877 0.0
C532 C 0.75771 0.83347 0.32811 0.0
C533 C 0.72501 0.79242 0.32787 0.0
C534 C 0.73996 0.84056 0.32711 0.0
H535 H 0.79714 0.91948 0.3209 0.0
N536 N 0.72936 0.87031 0.32368 0.0
C537 C 0.75979 0.91112 0.31918 0.0
C538 C 0.74698 0.86438 0.32536 0.0
C539 C 0.7353 0.89312 0.32005 0.0
C540 C 0.77819 0.90552 0.32162 0.0
C541 C 0.77192 0.88185 0.32453 0.0
O542 O 0.68683 0.85242 0.30397 0.0
O543 O 0.65471 0.8371 0.33529 0.0
O544 O 0.62654 0.79821 0.34106 0.0
O545 O 0.65827 0.79978 0.32687 0.0
O546 O 0.67558 0.86598 0.32185 0.0
O547 O 0.68129 0.81667 0.30639 0.0
O548 O 0.64916 0.81186 0.38107 0.0
O549 O 0.68142 0.82723 0.34975 0.0
O550 O 0.70987 0.86617 0.34407 0.0
O551 O 0.6782 0.8648 0.35817 0.0
O552 O 0.66035 0.79836 0.36318 0.0
O553 O 0.65615 0.84812 0.37869 0.0
C554 C 0.65566 0.85524 0.32945 0.0
C555 C 0.69856 0.83695 0.28384 0.0
C556 C 0.70167 0.83676 0.2567 0.0
C557 C 0.68766 0.83273 0.26969 0.0
C558 C 0.72683 0.84512 0.2581 0.0
C559 C 0.72363 0.84512 0.28507 0.0
C560 C 0.73767 0.84918 0.27223 0.0
C561 C 0.63498 0.78918 0.33095 0.0
C562 C 0.68353 0.8332 0.29712 0.0
C563 C 0.78969 0.87504 0.32621 0.0
C564 C 0.7826 0.85089 0.32802 0.0
C565 C 0.68027 0.80898 0.35558 0.0
C566 C 0.63831 0.8281 0.40121 0.0
C567 C 0.64884 0.83107 0.4154 0.0
C568 C 0.63497 0.82785 0.42836 0.0
C569 C 0.61032 0.82159 0.42686 0.0
C570 C 0.61376 0.82193 0.39992 0.0
C571 C 0.59984 0.81868 0.4127 0.0
C572 C 0.70149 0.8753 0.35412 0.0
C573 C 0.65323 0.83132 0.38794 0.0
H574 H 0.66832 0.82667 0.2688 0.0
H575 H 0.73803 0.84821 0.2483 0.0
H576 H 0.73231 0.84841 0.29589 0.0
H577 H 0.75702 0.8555 0.27322 0.0
H578 H 0.66796 0.83621 0.4163 0.0
H579 H 0.59906 0.8187 0.43661 0.0
H580 H 0.60537 0.81964 0.38909 0.0
H581 H 0.58085 0.81384 0.41164 0.0
Eu582 Eu 0.18177 0.82568 0.35874 0.0
C583 C 0.12523 0.86505 0.32183 0.0
C584 C 0.08265 0.83486 0.32442 0.0
C585 C 0.09397 0.87647 0.32114 0.0
C586 C 0.10754 0.84147 0.32396 0.0
C587 C 0.11863 0.88276 0.32002 0.0
C588 C 0.07601 0.85256 0.32337 0.0
C589 C 0.161 0.91113 0.31492 0.0
N590 N 0.14882 0.87046 0.32072 0.0
C591 C 0.16661 0.89293 0.31679 0.0
C592 C 0.13694 0.9061 0.31674 0.0
Eu593 Eu 0.15716 0.83905 0.32471 0.0
N594 N 0.11459 0.82483 0.3248 0.0
C595 C 0.09755 0.80107 0.32491 0.0
C596 C 0.06516 0.81061 0.3255 0.0
C597 C 0.07264 0.79362 0.3255 0.0
H598 H 0.18526 0.89693 0.31549 0.0
H599 H 0.05925 0.77478 0.32602 0.0
H600 H 0.057 0.84786 0.32386 0.0
H601 H 0.17522 0.92903 0.31213 0.0
H602 H 0.10306 0.78774 0.32502 0.0
H603 H 0.27965 0.89009 0.35727 0.0
H604 H 0.04586 0.8048 0.32596 0.0
H605 H 0.15372 0.76786 0.36802 0.0
H606 H 0.23583 0.87706 0.35814 0.0
H607 H 0.16383 0.73586 0.37166 0.0
H608 H 0.08855 0.88986 0.31994 0.0
H609 H 0.29315 0.86016 0.35779 0.0
H610 H 0.28211 0.81717 0.36025 0.0
H611 H 0.13263 0.92023 0.31526 0.0
H612 H 0.2506 0.77519 0.36426 0.0
N613 N 0.22437 0.83999 0.35871 0.0
C614 C 0.24137 0.86376 0.35842 0.0
C615 C 0.27384 0.85431 0.35818 0.0
C616 C 0.25638 0.83007 0.35939 0.0
C617 C 0.26629 0.87126 0.35792 0.0
C618 C 0.23147 0.82341 0.35974 0.0
H619 H 0.2065 0.74477 0.36879 0.0
N620 N 0.19018 0.79435 0.36288 0.0
C621 C 0.17805 0.75375 0.36885 0.0
C622 C 0.21381 0.79983 0.36191 0.0
C623 C 0.17239 0.7719 0.36682 0.0
C624 C 0.20215 0.75884 0.36719 0.0
C625 C 0.22045 0.78218 0.36389 0.0
O626 O 0.16464 0.81395 0.3806 0.0
O627 O 0.1508 0.82785 0.34853 0.0
O628 O 0.16347 0.86703 0.34203 0.0
O629 O 0.19275 0.86509 0.35695 0.0
O630 O 0.14151 0.79902 0.36227 0.0
O631 O 0.19714 0.84861 0.37839 0.0
O632 O 0.17413 0.85088 0.30281 0.0
O633 O 0.18811 0.83683 0.33489 0.0
O634 O 0.17534 0.7976 0.3415 0.0
O635 O 0.14621 0.7996 0.32644 0.0
O636 O 0.19741 0.86566 0.32115 0.0
O637 O 0.14177 0.81612 0.30507 0.0
C638 C 0.13296 0.80974 0.35426 0.0
C639 C 0.19036 0.82893 0.40163 0.0
C640 C 0.18936 0.82764 0.42892 0.0
C641 C 0.18145 0.83227 0.41525 0.0
C642 C 0.20641 0.81969 0.42869 0.0
C643 C 0.20741 0.82109 0.40164 0.0
C644 C 0.21538 0.81652 0.41514 0.0
C645 C 0.18073 0.87591 0.35242 0.0
C646 C 0.18108 0.83299 0.38754 0.0
C647 C 0.24514 0.78853 0.36292 0.0
C648 C 0.26308 0.81243 0.36064 0.0
C649 C 0.20597 0.85489 0.32912 0.0
C650 C 0.14833 0.83576 0.28183 0.0
C651 C 0.15706 0.83226 0.26818 0.0
C652 C 0.14903 0.83681 0.25454 0.0
C653 C 0.13202 0.84481 0.25481 0.0
C654 C 0.13133 0.84365 0.28186 0.0
C655 C 0.12322 0.84813 0.26839 0.0
C656 C 0.15805 0.78868 0.33114 0.0
C657 C 0.15774 0.83179 0.2959 0.0
H658 H 0.16805 0.83806 0.41518 0.0
H659 H 0.21306 0.81623 0.43901 0.0
H660 H 0.21446 0.81844 0.39126 0.0
H661 H 0.22856 0.81048 0.4151 0.0
H662 H 0.17044 0.82643 0.26822 0.0
H663 H 0.12529 0.84823 0.24451 0.0
H664 H 0.12442 0.84643 0.29227 0.0
H665 H 0.11007 0.85421 0.26846 0.0
Eu666 Eu 0.82506 0.65061 0.65761 0.0
C667 C 0.8802 0.74181 0.69842 0.0
C668 C 0.92275 0.75279 0.69672 0.0
C669 C 0.91185 0.78343 0.70105 0.0
C670 C 0.89775 0.73535 0.69627 0.0
C671 C 0.88702 0.76584 0.70118 0.0
C672 C 0.92969 0.77691 0.6988 0.0
C673 C 0.84442 0.75302 0.70518 0.0
N674 N 0.85643 0.72436 0.69858 0.0
C675 C 0.83859 0.72944 0.70242 0.0
C676 C 0.86873 0.77136 0.70438 0.0
Eu677 Eu 0.84772 0.68502 0.69316 0.0
N678 N 0.8904 0.71187 0.69441 0.0
C679 C 0.90716 0.70442 0.69403 0.0
C680 C 0.94002 0.74537 0.69544 0.0
C681 C 0.93217 0.72104 0.6943 0.0
H682 H 0.81976 0.71533 0.70295 0.0
H683 H 0.94536 0.71507 0.69359 0.0
H684 H 0.9488 0.79059 0.69904 0.0
H685 H 0.83018 0.75703 0.70789 0.0
H686 H 0.90141 0.68571 0.69308 0.0
H687 H 0.72785 0.62228 0.65583 0.0
H688 H 0.9594 0.7582 0.69566 0.0
H689 H 0.85219 0.61947 0.64808 0.0
H690 H 0.77189 0.65096 0.65705 0.0
H691 H 0.84111 0.57752 0.64331 0.0
H692 H 0.91747 0.80203 0.703 0.0
H693 H 0.71308 0.57901 0.6538 0.0
H694 H 0.72291 0.54597 0.65139 0.0
H695 H 0.87322 0.78961 0.70656 0.0
H696 H 0.75376 0.53374 0.64798 0.0
N697 N 0.78227 0.6243 0.65623 0.0
C698 C 0.76585 0.63218 0.65621 0.0
C699 C 0.73251 0.59153 0.65446 0.0
C700 C 0.74945 0.58363 0.65376 0.0
C701 C 0.74078 0.61594 0.65553 0.0
C702 C 0.77454 0.60072 0.65452 0.0
H703 H 0.79786 0.54543 0.64465 0.0
N704 N 0.81569 0.61101 0.6524 0.0
C705 C 0.82707 0.58184 0.64596 0.0
C706 C 0.79182 0.59384 0.65256 0.0
C707 C 0.83328 0.60556 0.64863 0.0
C708 C 0.80264 0.56378 0.64678 0.0
C709 C 0.78461 0.5697 0.64987 0.0
O710 O 0.84293 0.65586 0.63592 0.0
O711 O 0.85549 0.68176 0.66925 0.0
O712 O 0.84275 0.70854 0.67654 0.0
O713 O 0.81465 0.67957 0.66019 0.0
O714 O 0.86533 0.66296 0.65495 0.0
O715 O 0.81275 0.66238 0.63823 0.0
O716 O 0.82974 0.67901 0.71487 0.0
O717 O 0.81735 0.65393 0.68146 0.0
O718 O 0.83006 0.62719 0.67435 0.0
O719 O 0.85847 0.65636 0.69046 0.0
O720 O 0.80734 0.67246 0.69583 0.0
O721 O 0.86076 0.67381 0.71246 0.0
C722 C 0.87354 0.68131 0.66364 0.0
C723 C 0.81878 0.65013 0.61448 0.0
C724 C 0.81778 0.65294 0.58719 0.0
C725 C 0.82687 0.66371 0.60127 0.0
C726 C 0.80064 0.62832 0.58667 0.0
C727 C 0.80162 0.62571 0.61362 0.0
C728 C 0.79266 0.61489 0.59977 0.0
C729 C 0.82628 0.7016 0.66571 0.0
C730 C 0.82836 0.66158 0.62908 0.0
C731 C 0.75967 0.55242 0.64988 0.0
C732 C 0.74211 0.55938 0.65181 0.0
C733 C 0.79923 0.65429 0.68699 0.0
C734 C 0.8542 0.68551 0.73626 0.0
C735 C 0.8465 0.67188 0.74946 0.0
C736 C 0.85539 0.68274 0.76354 0.0
C737 C 0.87192 0.70751 0.76409 0.0
C738 C 0.87075 0.71009 0.73714 0.0
C739 C 0.8795 0.721 0.751 0.0
C740 C 0.84671 0.63425 0.68508 0.0
C741 C 0.84485 0.67397 0.72165 0.0
H742 H 0.83996 0.68265 0.60199 0.0
H743 H 0.79358 0.61929 0.57609 0.0
H744 H 0.7952 0.61501 0.62364 0.0
H745 H 0.77951 0.59598 0.59918 0.0
H746 H 0.8339 0.65282 0.74873 0.0
H747 H 0.8788 0.71657 0.77468 0.0
H748 H 0.87688 0.72084 0.72714 0.0
H749 H 0.89218 0.74003 0.7516 0.0
Eu750 Eu 0.35721 0.17346 0.65853 0.0
C751 C 0.25695 0.13508 0.69126 0.0
C752 C 0.24588 0.16556 0.68751 0.0
C753 C 0.21415 0.12403 0.69016 0.0
C754 C 0.26378 0.15873 0.68894 0.0
C755 C 0.23207 0.11753 0.6923 0.0
C756 C 0.22104 0.14801 0.68774 0.0
C757 C 0.24453 0.0889 0.69882 0.0
N758 N 0.27472 0.12945 0.69339 0.0
C759 C 0.26896 0.10695 0.69769 0.0
C760 C 0.22599 0.09412 0.6959 0.0
Eu761 Eu 0.3156 0.1607 0.69078 0.0
N762 N 0.28792 0.17524 0.68889 0.0
C763 C 0.29539 0.19905 0.68862 0.0
C764 C 0.25349 0.18988 0.68632 0.0
C765 C 0.27834 0.20671 0.68712 0.0
H766 H 0.28324 0.10281 0.69986 0.0
H767 H 0.28441 0.22559 0.6865 0.0
H768 H 0.20704 0.15288 0.68647 0.0
H769 H 0.24003 0.07097 0.7019 0.0
H770 H 0.31454 0.21224 0.68912 0.0
H771 H 0.38698 0.10745 0.66237 0.0
H772 H 0.24033 0.19586 0.68514 0.0
H773 H 0.39033 0.23164 0.65035 0.0
H774 H 0.35733 0.12143 0.66005 0.0
H775 H 0.43376 0.26317 0.64876 0.0
H776 H 0.19492 0.11076 0.69074 0.0
H777 H 0.4312 0.13667 0.66355 0.0
H778 H 0.46494 0.17948 0.66257 0.0
H779 H 0.20708 0.08012 0.69682 0.0
H780 H 0.4777 0.22187 0.6589 0.0
N781 N 0.38436 0.15831 0.66031 0.0
C782 C 0.37654 0.13442 0.66052 0.0
C783 C 0.41825 0.14294 0.66256 0.0
C784 C 0.42621 0.16736 0.66157 0.0
C785 C 0.39331 0.12639 0.66185 0.0
C786 C 0.40859 0.17456 0.6603 0.0
H787 H 0.46622 0.2532 0.65351 0.0
N788 N 0.39829 0.20443 0.65634 0.0
C789 C 0.42896 0.24504 0.65152 0.0
C790 C 0.41578 0.19839 0.6583 0.0
C791 C 0.40442 0.22718 0.65239 0.0
C792 C 0.44722 0.23936 0.65425 0.0
C793 C 0.44076 0.21572 0.65745 0.0
O794 O 0.35521 0.18587 0.63622 0.0
O795 O 0.32338 0.17179 0.66702 0.0
O796 O 0.29474 0.13277 0.67313 0.0
O797 O 0.32689 0.13416 0.65947 0.0
O798 O 0.34482 0.20027 0.65333 0.0
O799 O 0.35173 0.151 0.63897 0.0
O800 O 0.31848 0.14909 0.71317 0.0
O801 O 0.34937 0.16229 0.68227 0.0
O802 O 0.3779 0.20106 0.67637 0.0
O803 O 0.34562 0.20012 0.68958 0.0
O804 O 0.32802 0.13393 0.69602 0.0
O805 O 0.321 0.18351 0.71015 0.0
C806 C 0.32466 0.1898 0.66072 0.0
C807 C 0.36881 0.17164 0.61643 0.0
C808 C 0.37307 0.17339 0.58926 0.0
C809 C 0.35839 0.16763 0.60213 0.0
C810 C 0.39843 0.183 0.59106 0.0
C811 C 0.39402 0.18097 0.61797 0.0
C812 C 0.40873 0.18658 0.60532 0.0
C813 C 0.30348 0.12363 0.66329 0.0
C814 C 0.35319 0.16703 0.62954 0.0
C815 C 0.45841 0.20879 0.65937 0.0
C816 C 0.45114 0.18465 0.66144 0.0
C817 C 0.34813 0.14432 0.68859 0.0
C818 C 0.3049 0.16335 0.73296 0.0
C819 C 0.31577 0.16773 0.74713 0.0
C820 C 0.30149 0.16205 0.76017 0.0
C821 C 0.27605 0.15219 0.75867 0.0
C822 C 0.27961 0.15372 0.7317 0.0
C823 C 0.26528 0.14822 0.74452 0.0
C824 C 0.36909 0.21049 0.68592 0.0
C825 C 0.3202 0.16791 0.7197 0.0
H826 H 0.3388 0.15996 0.60111 0.0
H827 H 0.41043 0.18813 0.58149 0.0
H828 H 0.40233 0.1841 0.6289 0.0
H829 H 0.42824 0.19399 0.60657 0.0
H830 H 0.33541 0.1756 0.74792 0.0
H831 H 0.26437 0.14716 0.76839 0.0
H832 H 0.27094 0.15028 0.72086 0.0
H833 H 0.24571 0.14059 0.7435 0.0
Eu834 Eu 0.84878 0.16114 0.69272 0.0
C835 C 0.79254 0.20002 0.65475 0.0
C836 C 0.74993 0.1698 0.65709 0.0
C837 C 0.76122 0.2113 0.65331 0.0
C838 C 0.77485 0.17647 0.65694 0.0
C839 C 0.78593 0.21765 0.65256 0.0
C840 C 0.74325 0.18742 0.65559 0.0
C841 C 0.82842 0.24606 0.64784 0.0
N842 N 0.81618 0.20549 0.65398 0.0
C843 C 0.83404 0.22793 0.65006 0.0
C844 C 0.80429 0.24098 0.64929 0.0
Eu845 Eu 0.82455 0.17419 0.65842 0.0
N846 N 0.78194 0.1599 0.65822 0.0
C847 C 0.76494 0.13613 0.65859 0.0
C848 C 0.73246 0.14557 0.65835 0.0
C849 C 0.74001 0.12864 0.65889 0.0
H850 H 0.85274 0.23197 0.64904 0.0
H851 H 0.72664 0.10981 0.6596 0.0
H852 H 0.72421 0.18267 0.65582 0.0
H853 H 0.84269 0.26394 0.64506 0.0
H854 H 0.77046 0.12284 0.65908 0.0
H855 H 0.94652 0.22586 0.69393 0.0
H856 H 0.71314 0.13971 0.65859 0.0
H857 H 0.82015 0.1027 0.7005 0.0
H858 H 0.90269 0.21257 0.69258 0.0
H859 H 0.83018 0.07067 0.70426 0.0
H860 H 0.75578 0.22463 0.6518 0.0
H861 H 0.96009 0.19615 0.69616 0.0
H862 H 0.9492 0.15319 0.69787 0.0
H863 H 0.79996 0.25504 0.64753 0.0
H864 H 0.91756 0.11093 0.70048 0.0
N865 N 0.89135 0.17553 0.6934 0.0
C866 C 0.90826 0.19933 0.69337 0.0
C867 C 0.9408 0.19016 0.69528 0.0
C868 C 0.92339 0.16584 0.69571 0.0
C869 C 0.93319 0.20699 0.69413 0.0
C870 C 0.89846 0.159 0.69491 0.0
H871 H 0.87317 0.08003 0.70305 0.0
N872 N 0.85698 0.12963 0.69671 0.0
C873 C 0.84456 0.08875 0.70204 0.0
C874 C 0.88071 0.13529 0.69653 0.0
C875 C 0.83895 0.10691 0.69994 0.0
C876 C 0.86884 0.0941 0.70131 0.0
C877 C 0.88732 0.11767 0.69878 0.0
O878 O 0.83216 0.14879 0.71467 0.0
O879 O 0.81795 0.16335 0.68233 0.0
O880 O 0.8309 0.2025 0.6755 0.0
O881 O 0.85985 0.20052 0.69074 0.0
O882 O 0.80846 0.13471 0.69626 0.0
O883 O 0.86311 0.18448 0.71225 0.0
O884 O 0.84112 0.18584 0.63639 0.0
O885 O 0.85549 0.17229 0.66891 0.0
O886 O 0.84341 0.13375 0.67525 0.0
O887 O 0.81342 0.13478 0.66062 0.0
O888 O 0.86489 0.20069 0.65483 0.0
O889 O 0.80982 0.15048 0.63907 0.0
C890 C 0.80003 0.14544 0.68817 0.0
C891 C 0.85806 0.16538 0.73554 0.0
C892 C 0.8589 0.16598 0.76285 0.0
C893 C 0.84953 0.16897 0.74923 0.0
C894 C 0.87693 0.15926 0.76246 0.0
C895 C 0.87606 0.15877 0.73542 0.0
C896 C 0.88542 0.15573 0.74884 0.0
C897 C 0.84807 0.21143 0.68594 0.0
C898 C 0.84782 0.16837 0.7215 0.0
C899 C 0.91212 0.12423 0.69888 0.0
C900 C 0.93012 0.14829 0.69739 0.0
C901 C 0.87342 0.19023 0.6631 0.0
C902 C 0.81496 0.16919 0.61565 0.0
C903 C 0.82334 0.16533 0.60197 0.0
C904 C 0.81389 0.16817 0.58833 0.0
C905 C 0.796 0.17506 0.58868 0.0
C906 C 0.7971 0.17598 0.61573 0.0
C907 C 0.7877 0.17891 0.60229 0.0
C908 C 0.82585 0.12436 0.66509 0.0
C909 C 0.82519 0.16624 0.62971 0.0
H910 H 0.8358 0.17435 0.74924 0.0
H911 H 0.88426 0.15642 0.7727 0.0
H912 H 0.88284 0.15594 0.725 0.0
H913 H 0.89924 0.15051 0.74868 0.0
H914 H 0.83696 0.15982 0.60198 0.0
H915 H 0.7886 0.17777 0.57843 0.0
H916 H 0.79045 0.17901 0.62615 0.0
H917 H 0.77398 0.18425 0.60242 0.0
H918 H 0.2955 0.8308 0.09852 0.0
H919 H 0.33177 0.85983 0.08484 0.0
H920 H 0.28739 0.85007 0.04592 0.0
H921 H 0.25111 0.8208 0.05948 0.0
H922 H 0.32995 0.85125 0.03866 0.0
H923 H 0.34901 0.92767 0.07556 0.0
H924 H 0.34778 0.90295 0.08542 0.0
H925 H 0.32077 0.89957 0.07639 0.0
C926 C 0.29346 0.83498 0.08708 0.0
C927 C 0.27042 0.82363 0.08011 0.0
C928 C 0.31419 0.85158 0.07927 0.0
C929 C 0.31225 0.85744 0.06442 0.0
C930 C 0.28933 0.84586 0.05737 0.0
H931 H 0.42408 0.98711 0.02307 0.0
H932 H 0.38522 0.95402 0.03183 0.0
C933 C 0.26862 0.82913 0.06513 0.0
C934 C 0.33405 0.87576 0.05626 0.0
H935 H 0.37947 0.93403 0.05783 0.0
C936 C 0.34074 0.8694 0.04279 0.0
C937 C 0.34792 0.89952 0.06155 0.0
C938 C 0.3409 0.90795 0.07544 0.0
C939 C 0.36111 0.88608 0.03457 0.0
C940 C 0.37544 0.90966 0.04012 0.0
C941 C 0.36857 0.91599 0.05354 0.0
C942 C 0.39764 0.92828 0.03236 0.0
C943 C 0.3667 0.87838 0.01989 0.0
C944 C 0.4174 0.92472 0.02926 0.0
C945 C 0.43948 0.94355 0.02396 0.0
C946 C 0.44222 0.9663 0.02183 0.0
C947 C 0.42228 0.96965 0.02448 0.0
C948 C 0.40014 0.95078 0.02954 0.0
H949 H 0.35027 0.86272 0.01509 0.0
H950 H 0.37381 0.89311 0.01166 0.0
H951 H 0.38077 0.87316 0.02169 0.0
H952 H 0.41624 0.90778 0.03169 0.0
H953 H 0.45476 0.94065 0.02236 0.0
H954 H 0.21489 0.48497 0.07113 0.0
H955 H 0.18409 0.49196 0.05923 0.0
H956 H 0.12707 0.42466 0.07622 0.0
H957 H 0.1577 0.4177 0.08823 0.0
H958 H 0.1504 0.46698 0.038 0.0
H959 H 0.10288 0.46879 0.08946 0.0
H960 H 0.13203 0.47003 0.0899 0.0
H961 H 0.10426 0.44185 0.08768 0.0
C962 C 0.19579 0.47164 0.0723 0.0
C963 C 0.18877 0.45085 0.08074 0.0
C964 C 0.17818 0.4757 0.06554 0.0
C965 C 0.15318 0.4591 0.06708 0.0
C966 C 0.14616 0.43811 0.07524 0.0
H967 H 0.01789 0.43869 0.02965 0.0
H968 H 0.05158 0.43456 0.03993 0.0
C969 C 0.16373 0.43411 0.08207 0.0
C970 C 0.13447 0.46335 0.05976 0.0
H971 H 0.08249 0.46583 0.06637 0.0
C972 C 0.13573 0.46701 0.04425 0.0
C973 C 0.11527 0.4634 0.06788 0.0
C974 C 0.11362 0.46105 0.08467 0.0
C975 C 0.11801 0.47006 0.03662 0.0
C976 C 0.0985 0.46945 0.04467 0.0
C977 C 0.09739 0.46613 0.0602 0.0
C978 C 0.07877 0.47177 0.03717 0.0
C979 C 0.11961 0.47294 0.01993 0.0
C980 C 0.08291 0.49406 0.03211 0.0
C981 C 0.06363 0.49649 0.02633 0.0
C982 C 0.03994 0.47659 0.02529 0.0
C983 C 0.03601 0.45425 0.03011 0.0
C984 C 0.05521 0.45187 0.036 0.0
H985 H 0.13538 0.4721 0.01517 0.0
H986 H 0.10255 0.45857 0.01481 0.0
H987 H 0.12136 0.49037 0.01692 0.0
H988 H 0.10089 0.50972 0.03308 0.0
H989 H 0.06714 0.51406 0.02315 0.0
H990 H 0.59833 0.74349 0.09053 0.0
H991 H 0.58935 0.70625 0.07807 0.0
H992 H 0.52132 0.69796 0.06173 0.0
H993 H 0.52969 0.73467 0.07464 0.0
H994 H 0.51649 0.65652 0.07369 0.0
H995 H 0.59333 0.69645 0.03343 0.0
H996 H 0.60256 0.70361 0.0526 0.0
H997 H 0.58398 0.71422 0.0441 0.0
C998 C 0.58137 0.73365 0.08439 0.0
C999 C 0.56476 0.74209 0.08354 0.0
C1000 C 0.57641 0.71254 0.07712 0.0
C1001 C 0.55489 0.69961 0.06875 0.0
C1002 C 0.53815 0.70781 0.06802 0.0
H1003 H 0.49006 0.56834 0.0169 0.0
H1004 H 0.4998 0.6062 0.02871 0.0
C1005 C 0.54304 0.72887 0.07532 0.0
C1006 C 0.54948 0.67717 0.06108 0.0
H1007 H 0.57087 0.65405 0.03468 0.0
C1008 C 0.52829 0.65598 0.0651 0.0
C1009 C 0.56495 0.67657 0.04989 0.0
C1010 C 0.58736 0.69895 0.04462 0.0
C1011 C 0.52235 0.6341 0.0584 0.0
C1012 C 0.53788 0.6335 0.04728 0.0
C1013 C 0.55906 0.65465 0.04324 0.0
C1014 C 0.53244 0.61101 0.03973 0.0
C1015 C 0.49977 0.6117 0.06346 0.0
C1016 C 0.54793 0.60154 0.04175 0.0
C1017 C 0.54253 0.57998 0.03495 0.0
C1018 C 0.52164 0.56764 0.02589 0.0
C1019 C 0.50639 0.57744 0.0237 0.0
C1020 C 0.51179 0.59897 0.03054 0.0
H1021 H 0.49281 0.61436 0.07426 0.0
H1022 H 0.48517 0.60645 0.05494 0.0
H1023 H 0.50351 0.59672 0.06467 0.0
H1024 H 0.56401 0.61068 0.04877 0.0
H1025 H 0.55469 0.57297 0.03684 0.0
H1026 H 0.84971 0.25513 0.92919 0.0
H1027 H 0.87918 0.29302 0.94085 0.0
H1028 H 0.82017 0.30194 0.95733 0.0
H1029 H 0.79054 0.2642 0.94554 0.0
H1030 H 0.88509 0.33901 0.93583 0.0
H1031 H 0.86175 0.31058 0.9949 0.0
H1032 H 0.85252 0.28951 0.97962 0.0
H1033 H 0.83629 0.3052 0.98328 0.0
C1034 C 0.84297 0.26521 0.9352 0.0
C1035 C 0.81773 0.25659 0.93644 0.0
C1036 C 0.85985 0.2868 0.94193 0.0
C1037 C 0.85185 0.30011 0.95011 0.0
C1038 C 0.82671 0.29168 0.95131 0.0
H1039 H 0.92323 0.43475 0.99784 0.0
H1040 H 0.89442 0.39651 0.98644 0.0
C1041 C 0.8098 0.2701 0.94457 0.0
C1042 C 0.86986 0.32309 0.9571 0.0
H1043 H 0.88921 0.35172 0.99068 0.0
C1044 C 0.8861 0.34179 0.94783 0.0
C1045 C 0.87106 0.32663 0.97274 0.0
C1046 C 0.85464 0.30689 0.98327 0.0
C1047 C 0.90323 0.36413 0.95376 0.0
C1048 C 0.90446 0.36768 0.96942 0.0
C1049 C 0.88824 0.34895 0.97869 0.0
C1050 C 0.9222 0.3908 0.9764 0.0
C1051 C 0.9194 0.38392 0.94319 0.0
C1052 C 0.94744 0.40016 0.97471 0.0
C1053 C 0.96403 0.42206 0.98125 0.0
C1054 C 0.95567 0.43488 0.98974 0.0
C1055 C 0.93036 0.42528 0.99153 0.0
C1056 C 0.91382 0.40343 0.98497 0.0
H1057 H 0.91194 0.38032 0.93163 0.0
H1058 H 0.92172 0.40132 0.94695 0.0
H1059 H 0.93769 0.38549 0.94287 0.0
H1060 H 0.95432 0.39047 0.96839 0.0
H1061 H 0.98339 0.42885 0.97971 0.0
H1062 H 0.74342 0.586 0.93201 0.0
H1063 H 0.70605 0.57848 0.94474 0.0
H1064 H 0.6951 0.51067 0.96022 0.0
H1065 H 0.73265 0.51821 0.94762 0.0
H1066 H 0.65972 0.5434 0.9403 0.0
H1067 H 0.6866 0.53843 0.99866 0.0
H1068 H 0.70833 0.54951 0.98354 0.0
H1069 H 0.6888 0.51788 0.98612 0.0
C1070 C 0.73304 0.56945 0.9381 0.0
C1071 C 0.74108 0.55273 0.93879 0.0
C1072 C 0.71171 0.56521 0.94544 0.0
C1073 C 0.69787 0.54417 0.95368 0.0
C1074 C 0.70574 0.52733 0.9543 0.0
H1075 H 0.55268 0.48803 0.99379 0.0
H1076 H 0.59121 0.49218 0.98462 0.0
C1077 C 0.72719 0.53163 0.94703 0.0
C1078 C 0.67477 0.5396 0.96104 0.0
H1079 H 0.6454 0.52849 0.99472 0.0
C1080 C 0.65668 0.54018 0.9522 0.0
C1081 C 0.67064 0.53531 0.97659 0.0
C1082 C 0.68969 0.53544 0.98683 0.0
C1083 C 0.63475 0.53667 0.95845 0.0
C1084 C 0.63075 0.53259 0.97396 0.0
C1085 C 0.64855 0.53159 0.98281 0.0
C1086 C 0.60852 0.53031 0.98112 0.0
C1087 C 0.61591 0.53735 0.94841 0.0
C1088 C 0.60573 0.55044 0.98253 0.0
C1089 C 0.58392 0.54816 0.9879 0.0
C1090 C 0.56452 0.52573 0.9921 0.0
C1091 C 0.5675 0.50562 0.99099 0.0
C1092 C 0.58945 0.50794 0.98568 0.0
H1093 H 0.61979 0.53648 0.9364 0.0
H1094 H 0.5974 0.52228 0.95099 0.0
H1095 H 0.61574 0.55423 0.9504 0.0
H1096 H 0.62025 0.56786 0.97909 0.0
H1097 H 0.58199 0.56389 0.98849 0.0
H1098 H 0.4499 0.16926 0.91423 0.0
H1099 H 0.4594 0.14157 0.92716 0.0
H1100 H 0.43843 0.15897 0.96909 0.0
H1101 H 0.42786 0.18586 0.95619 0.0
H1102 H 0.49307 0.15127 0.94935 0.0
H1103 H 0.39989 0.08648 0.96917 0.0
H1104 H 0.40551 0.10875 0.95521 0.0
H1105 H 0.41012 0.11676 0.97468 0.0
C1106 C 0.44688 0.16687 0.92616 0.0
C1107 C 0.43801 0.1797 0.93417 0.0
C1108 C 0.45253 0.15121 0.93355 0.0
C1109 C 0.44935 0.14802 0.94905 0.0
C1110 C 0.44061 0.16084 0.95709 0.0
H1111 H 0.51461 0.08227 1.00378 0.0
H1112 H 0.50407 0.11055 0.99275 0.0
C1113 C 0.43485 0.17641 0.94971 0.0
C1114 C 0.45578 0.1317 0.95684 0.0
H1115 H 0.43235 0.08186 0.97866 0.0
C1116 C 0.47981 0.13606 0.95575 0.0
C1117 C 0.43836 0.11178 0.96507 0.0
C1118 C 0.41197 0.10547 0.96601 0.0
C1119 C 0.48694 0.12104 0.96268 0.0
C1120 C 0.46966 0.10143 0.97118 0.0
C1121 C 0.44562 0.09707 0.97226 0.0
C1122 C 0.47572 0.08441 0.97835 0.0
C1123 C 0.51269 0.1259 0.96047 0.0
C1124 C 0.46279 0.06023 0.97425 0.0
C1125 C 0.46844 0.04397 0.98071 0.0
C1126 C 0.48716 0.05154 0.99145 0.0
C1127 C 0.49996 0.07577 0.99565 0.0
C1128 C 0.49415 0.09203 0.98923 0.0
H1129 H 0.52164 0.13781 0.95077 0.0
H1130 H 0.52366 0.13485 0.97059 0.0
H1131 H 0.51296 0.10902 0.95873 0.0
H1132 H 0.44846 0.05396 0.9659 0.0
H1133 H 0.45816 0.02547 0.97718 0.0
H1134 H 0.74212 0.14717 0.93318 0.0
H1135 H 0.70531 0.11917 0.9469 0.0
H1136 H 0.69356 0.17705 0.95951 0.0
H1137 H 0.73019 0.20515 0.94567 0.0
H1138 H 0.6949 0.12245 0.979 0.0
H1139 H 0.62793 0.125 0.93965 0.0
H1140 H 0.65887 0.13412 0.93421 0.0
H1141 H 0.65285 0.15323 0.94583 0.0
C1142 C 0.73157 0.1539 0.93875 0.0
C1143 C 0.73901 0.17836 0.93828 0.0
C1144 C 0.71067 0.13792 0.94667 0.0
C1145 C 0.69667 0.14604 0.95413 0.0
C1146 C 0.70403 0.17042 0.95372 0.0
H1147 H 0.55342 0.06148 0.9959 0.0
H1148 H 0.59251 0.09548 0.98815 0.0
C1149 C 0.72502 0.18645 0.94589 0.0
C1150 C 0.67436 0.12893 0.96232 0.0
H1151 H 0.61215 0.10101 0.961 0.0
C1152 C 0.67678 0.11781 0.97513 0.0
C1153 C 0.65082 0.12312 0.95731 0.0
C1154 C 0.64726 0.13432 0.94345 0.0
C1155 C 0.6562 0.10082 0.98302 0.0
C1156 C 0.63258 0.09436 0.97772 0.0
C1157 C 0.63023 0.10597 0.9651 0.0
C1158 C 0.61004 0.07447 0.98436 0.0
C1159 C 0.66004 0.09008 0.997 0.0
C1160 C 0.60693 0.0514 0.985 0.0
C1161 C 0.58476 0.03207 0.98963 0.0
C1162 C 0.56523 0.03539 0.99369 0.0
C1163 C 0.56837 0.0585 0.99324 0.0
C1164 C 0.59064 0.07789 0.98868 0.0
H1165 H 0.67781 0.10252 1.00239 0.0
H1166 H 0.64523 0.08547 1.00522 0.0
H1167 H 0.66031 0.07354 0.99402 0.0
H1168 H 0.6213 0.04812 0.98131 0.0
H1169 H 0.58262 0.01436 0.98962 0.0
H1170 H 0.79475 0.51811 0.94688 0.0
H1171 H 0.82511 0.51093 0.95937 0.0
H1172 H 0.88243 0.58024 0.94541 0.0
H1173 H 0.85228 0.58755 0.93291 0.0
H1174 H 0.86981 0.51442 0.94414 0.0
H1175 H 0.89041 0.57585 0.99247 0.0
H1176 H 0.86206 0.56348 0.98214 0.0
H1177 H 0.88952 0.5874 0.97433 0.0
C1178 C 0.8138 0.53189 0.94658 0.0
C1179 C 0.8211 0.5534 0.93889 0.0
C1180 C 0.83111 0.52773 0.95367 0.0
C1181 C 0.85598 0.54514 0.95342 0.0
C1182 C 0.86331 0.56666 0.94585 0.0
H1183 H 0.99308 0.56447 0.98612 0.0
H1184 H 0.95865 0.56826 0.97689 0.0
C1185 C 0.84607 0.57073 0.93862 0.0
C1186 C 0.87447 0.54061 0.96063 0.0
H1187 H 0.91593 0.55912 0.9892 0.0
C1188 C 0.87978 0.52401 0.95407 0.0
C1189 C 0.88749 0.55325 0.97352 0.0
C1190 C 0.88208 0.57091 0.98115 0.0
C1191 C 0.89838 0.5203 0.95975 0.0
C1192 C 0.91157 0.53305 0.97263 0.0
C1193 C 0.90586 0.54933 0.97935 0.0
C1194 C 0.9321 0.53062 0.97889 0.0
C1195 C 0.90437 0.50349 0.95149 0.0
C1196 C 0.92866 0.50829 0.98331 0.0
C1197 C 0.9484 0.5061 0.98843 0.0
C1198 C 0.97181 0.52631 0.98967 0.0
C1199 C 0.97515 0.54867 0.98546 0.0
C1200 C 0.95548 0.55083 0.98022 0.0
H1201 H 0.89734 0.5003 0.93983 0.0
H1202 H 0.92438 0.51058 0.95117 0.0
H1203 H 0.89571 0.48601 0.9573 0.0
H1204 H 0.91075 0.49249 0.98271 0.0
H1205 H 0.94535 0.48855 0.99125 0.0
H1206 H 0.42965 0.24322 0.95547 0.0
H1207 H 0.44005 0.28089 0.96774 0.0
H1208 H 0.46293 0.31746 0.92551 0.0
H1209 H 0.45377 0.28004 0.91324 0.0
H1210 H 0.49497 0.34205 0.94771 0.0
H1211 H 0.40084 0.31459 0.96594 0.0
H1212 H 0.41119 0.2949 0.97244 0.0
H1213 H 0.40738 0.29745 0.95272 0.0
C1214 C 0.43715 0.2593 0.9488 0.0
C1215 C 0.44082 0.25858 0.93334 0.0
C1216 C 0.44276 0.28077 0.95581 0.0
C1217 C 0.45179 0.30187 0.94749 0.0
C1218 C 0.45576 0.30131 0.93211 0.0
H1219 H 0.45725 0.43199 0.97711 0.0
H1220 H 0.44808 0.39469 0.96485 0.0
C1221 C 0.45033 0.27988 0.9251 0.0
C1222 C 0.45748 0.32461 0.95487 0.0
H1223 H 0.43267 0.35098 0.97611 0.0
C1224 C 0.48135 0.34406 0.95387 0.0
C1225 C 0.43957 0.32727 0.96272 0.0
C1226 C 0.41326 0.30752 0.96341 0.0
C1227 C 0.48788 0.36604 0.96067 0.0
C1228 C 0.4702 0.3684 0.96901 0.0
C1229 C 0.44627 0.34903 0.96985 0.0
C1230 C 0.47593 0.39099 0.97662 0.0
C1231 C 0.5135 0.38664 0.95856 0.0
C1232 C 0.49445 0.40116 0.98746 0.0
C1233 C 0.49997 0.42268 0.99438 0.0
C1234 C 0.48672 0.43419 0.99081 0.0
C1235 C 0.46785 0.42366 0.98016 0.0
C1236 C 0.46252 0.40229 0.97314 0.0
H1237 H 0.52237 0.38398 0.94861 0.0
H1238 H 0.5136 0.40378 0.95729 0.0
H1239 H 0.52468 0.38808 0.96849 0.0
H1240 H 0.50467 0.39247 0.99056 0.0
H1241 H 0.51477 0.43035 1.0024 0.0
H1242 H 0.22008 0.73797 0.07205 0.0
H1243 H 0.19072 0.70065 0.05976 0.0
H1244 H 0.13128 0.70764 0.07759 0.0
H1245 H 0.16051 0.74512 0.08981 0.0
H1246 H 0.12569 0.66179 0.08118 0.0
H1247 H 0.1491 0.69343 0.02267 0.0
H1248 H 0.17467 0.69829 0.034 0.0
H1249 H 0.15834 0.71364 0.03841 0.0
C1250 C 0.20077 0.73173 0.07322 0.0
C1251 C 0.19266 0.7446 0.08187 0.0
C1252 C 0.18402 0.71039 0.06619 0.0
C1253 C 0.15884 0.70157 0.06758 0.0
C1254 C 0.15065 0.71419 0.07634 0.0
H1255 H 0.02832 0.57399 0.03589 0.0
H1256 H 0.05714 0.61192 0.04775 0.0
C1257 C 0.16738 0.73554 0.08337 0.0
C1258 C 0.14101 0.67889 0.06019 0.0
H1259 H 0.12228 0.6519 0.02609 0.0
C1260 C 0.12483 0.65963 0.06913 0.0
C1261 C 0.14 0.67615 0.04447 0.0
C1262 C 0.15629 0.69651 0.03428 0.0
C1263 C 0.10796 0.63753 0.0628 0.0
C1264 C 0.10696 0.63478 0.04708 0.0
C1265 C 0.1231 0.65406 0.03813 0.0
C1266 C 0.08941 0.61197 0.03969 0.0
C1267 C 0.09179 0.61713 0.073 0.0
C1268 C 0.09798 0.59972 0.03089 0.0
C1269 C 0.08157 0.57809 0.02403 0.0
C1270 C 0.05623 0.56837 0.02573 0.0
C1271 C 0.0477 0.58087 0.0344 0.0
C1272 C 0.06415 0.60251 0.04126 0.0
H1273 H 0.09905 0.62025 0.0846 0.0
H1274 H 0.07338 0.61528 0.07335 0.0
H1275 H 0.08979 0.60003 0.06887 0.0
H1276 H 0.11741 0.60674 0.02951 0.0
H1277 H 0.08882 0.56886 0.01757 0.0
H1278 H 0.29349 0.47053 0.09823 0.0
H1279 H 0.33056 0.47775 0.08521 0.0
H1280 H 0.28773 0.4414 0.04623 0.0
H1281 H 0.25067 0.43462 0.05911 0.0
H1282 H 0.3431 0.4473 0.07519 0.0
H1283 H 0.34144 0.49999 0.02699 0.0
H1284 H 0.32171 0.49363 0.04293 0.0
H1285 H 0.31395 0.47162 0.02843 0.0
C1286 C 0.29198 0.46415 0.08686 0.0
C1287 C 0.26911 0.45205 0.0797 0.0
C1288 C 0.31322 0.46836 0.07939 0.0
C1289 C 0.31214 0.46051 0.0646 0.0
C1290 C 0.28928 0.44831 0.05745 0.0
H1291 H 0.42554 0.43743 0.02672 0.0
H1292 H 0.38718 0.43314 0.03611 0.0
C1293 C 0.26804 0.44431 0.06487 0.0
C1294 C 0.33474 0.46392 0.05707 0.0
H1295 H 0.36953 0.48549 0.0255 0.0
C1296 C 0.34888 0.45577 0.06436 0.0
C1297 C 0.34261 0.47525 0.04299 0.0
C1298 C 0.32928 0.48585 0.03494 0.0
C1299 C 0.37033 0.4583 0.05797 0.0
C1300 C 0.37761 0.46866 0.04361 0.0
C1301 C 0.36377 0.47721 0.03639 0.0
C1302 C 0.39979 0.47105 0.03613 0.0
C1303 C 0.38527 0.4503 0.06685 0.0
C1304 C 0.41923 0.49366 0.03222 0.0
C1305 C 0.44107 0.49609 0.02662 0.0
C1306 C 0.44371 0.4759 0.02469 0.0
C1307 C 0.42393 0.45325 0.02807 0.0
C1308 C 0.40209 0.45082 0.03353 0.0
H1309 H 0.38126 0.44937 0.079 0.0
H1310 H 0.38077 0.43217 0.06311 0.0
H1311 H 0.40514 0.46257 0.06521 0.0
H1312 H 0.41788 0.50953 0.03404 0.0
H1313 H 0.45614 0.51381 0.02436 0.0
H1314 H 0.52918 0.79158 0.07442 0.0
H1315 H 0.52005 0.81911 0.06101 0.0
H1316 H 0.58732 0.87876 0.0771 0.0
H1317 H 0.59711 0.85129 0.09005 0.0
H1318 H 0.51393 0.8554 0.07198 0.0
H1319 H 0.59161 0.89101 0.03237 0.0
H1320 H 0.58277 0.86463 0.04344 0.0
H1321 H 0.6007 0.89383 0.05161 0.0
C1322 C 0.54222 0.81054 0.07494 0.0
C1323 C 0.564 0.81922 0.0832 0.0
C1324 C 0.53688 0.82624 0.06735 0.0
C1325 C 0.5532 0.85093 0.06785 0.0
C1326 C 0.57472 0.85973 0.07631 0.0
H1327 H 0.55232 0.97621 0.03623 0.0
H1328 H 0.56114 0.94716 0.04781 0.0
C1329 C 0.58013 0.84402 0.08386 0.0
C1330 C 0.54739 0.86746 0.05978 0.0
H1331 H 0.5687 0.9111 0.03321 0.0
C1332 C 0.5258 0.86746 0.06343 0.0
C1333 C 0.56289 0.88311 0.04859 0.0
C1334 C 0.58567 0.88305 0.04364 0.0
C1335 C 0.5196 0.88313 0.05644 0.0
C1336 C 0.53529 0.89899 0.04543 0.0
C1337 C 0.55676 0.89889 0.04168 0.0
C1338 C 0.53006 0.91635 0.03799 0.0
C1339 C 0.49665 0.88306 0.06115 0.0
C1340 C 0.50984 0.90859 0.02846 0.0
C1341 C 0.50471 0.92514 0.0218 0.0
C1342 C 0.5198 0.94974 0.02453 0.0
C1343 C 0.54027 0.95741 0.03391 0.0
C1344 C 0.54539 0.94086 0.04052 0.0
H1345 H 0.48911 0.87311 0.07173 0.0
H1346 H 0.50023 0.9016 0.06263 0.0
H1347 H 0.48257 0.8744 0.0523 0.0
H1348 H 0.49797 0.88972 0.02625 0.0
H1349 H 0.48873 0.91861 0.01471 0.0
H1350 H 0.91751 0.14485 0.39051 0.0
H1351 H 0.95447 0.17168 0.37692 0.0
H1352 H 0.99241 0.20018 0.41861 0.0
H1353 H 0.95634 0.17171 0.43231 0.0
H1354 H 0.97905 0.21641 0.37432 0.0
H1355 H 0.04175 0.18967 0.39891 0.0
H1356 H 0.00933 0.17309 0.40226 0.0
H1357 H 0.0289 0.1991 0.41338 0.0
C1358 C 0.93385 0.15628 0.39686 0.0
C1359 C 0.93379 0.15565 0.41261 0.0
C1360 C 0.95499 0.17192 0.38902 0.0
C1361 C 0.97656 0.18767 0.39667 0.0
C1362 C 0.97636 0.18769 0.41237 0.0
H1363 H 0.09249 0.32074 0.36351 0.0
H1364 H 0.05395 0.28715 0.37198 0.0
C1365 C 0.95541 0.17165 0.42023 0.0
C1366 C 0.99891 0.20469 0.38824 0.0
H1367 H 0.0607 0.2281 0.38689 0.0
C1368 C 0.99684 0.21869 0.37695 0.0
C1369 C 0.02216 0.20736 0.39126 0.0
C1370 C 0.0256 0.19128 0.40199 0.0
C1371 C 0.01737 0.23586 0.36911 0.0
C1372 C 0.04086 0.24001 0.37312 0.0
C1373 C 0.04282 0.22532 0.38394 0.0
C1374 C 0.0637 0.26018 0.36686 0.0
C1375 C 0.01351 0.2491 0.3565 0.0
C1376 C 0.08251 0.25651 0.36157 0.0
C1377 C 0.1049 0.27589 0.35715 0.0
C1378 C 0.10869 0.29923 0.35759 0.0
C1379 C 0.08982 0.30286 0.36271 0.0
C1380 C 0.06766 0.2836 0.36741 0.0
H1381 H 0.99538 0.23792 0.35115 0.0
H1382 H 0.01392 0.26531 0.36102 0.0
H1383 H 0.02781 0.25458 0.34781 0.0
H1384 H 0.08008 0.2387 0.36116 0.0
H1385 H 0.11938 0.27262 0.35373 0.0
H1386 H 0.85373 0.76512 0.39097 0.0
H1387 H 0.82288 0.77162 0.37871 0.0
H1388 H 0.8183 0.8076 0.41816 0.0
H1389 H 0.84877 0.80075 0.43054 0.0
H1390 H 0.77419 0.77618 0.40854 0.0
H1391 H 0.82772 0.83043 0.36025 0.0
H1392 H 0.82682 0.80229 0.36139 0.0
H1393 H 0.8417 0.82424 0.3759 0.0
C1394 C 0.84636 0.77469 0.39695 0.0
C1395 C 0.8537 0.7824 0.41174 0.0
C1396 C 0.82879 0.7785 0.3899 0.0
C1397 C 0.81847 0.79047 0.39738 0.0
C1398 C 0.82598 0.79837 0.41211 0.0
H1399 H 0.72775 0.84423 0.36008 0.0
H1400 H 0.7615 0.83951 0.36949 0.0
C1401 C 0.84335 0.79437 0.4192 0.0
C1402 C 0.79889 0.79361 0.39028 0.0
H1403 H 0.78484 0.81586 0.35952 0.0
C1404 C 0.77661 0.78494 0.39785 0.0
C1405 C 0.80204 0.8053 0.37639 0.0
C1406 C 0.82594 0.81632 0.36807 0.0
C1407 C 0.7574 0.7874 0.39192 0.0
C1408 C 0.76019 0.79826 0.37777 0.0
C1409 C 0.78256 0.80723 0.37026 0.0
C1410 C 0.74026 0.80094 0.37085 0.0
C1411 C 0.73449 0.77883 0.40107 0.0
C1412 C 0.71725 0.78084 0.36808 0.0
C1413 C 0.69796 0.78353 0.36274 0.0
C1414 C 0.70146 0.80632 0.35967 0.0
C1415 C 0.72465 0.82642 0.36203 0.0
C1416 C 0.74392 0.82373 0.36748 0.0
H1417 H 0.73785 0.7773 0.4131 0.0
H1418 H 0.72703 0.79108 0.39998 0.0
H1419 H 0.72045 0.76087 0.39707 0.0
H1420 H 0.71409 0.76304 0.37029 0.0
H1421 H 0.68021 0.76779 0.36109 0.0
H1422 H 0.22066 0.05367 0.43679 0.0
H1423 H 0.21165 0.01622 0.42463 0.0
H1424 H 0.2332 0.05227 0.38217 0.0
H1425 H 0.24345 0.08998 0.39432 0.0
H1426 H 0.17915 0.99117 0.40275 0.0
H1427 H 0.27295 0.0191 0.38359 0.0
H1428 H 0.26656 0.03629 0.39687 0.0
H1429 H 0.26221 0.03853 0.37719 0.0
C1430 C 0.22384 0.05372 0.4249 0.0
C1431 C 0.23292 0.07488 0.41656 0.0
C1432 C 0.2185 0.03226 0.41796 0.0
C1433 C 0.22214 0.03155 0.40254 0.0
C1434 C 0.23076 0.05252 0.39413 0.0
H1435 H 0.15859 0.90266 0.34808 0.0
H1436 H 0.16879 0.94058 0.3599 0.0
C1437 C 0.23628 0.074 0.40108 0.0
C1438 C 0.21645 0.00877 0.39522 0.0
H1439 H 0.24104 0.98249 0.37371 0.0
C1440 C 0.19269 0.98921 0.39645 0.0
C1441 C 0.23426 0.00619 0.38718 0.0
C1442 C 0.26048 0.02606 0.38624 0.0
C1443 C 0.18614 0.9672 0.38969 0.0
C1444 C 0.20369 0.96492 0.38116 0.0
C1445 C 0.22754 0.98438 0.3801 0.0
C1446 C 0.19792 0.9423 0.37356 0.0
C1447 C 0.16065 0.9465 0.39204 0.0
C1448 C 0.21149 0.93112 0.3769 0.0
C1449 C 0.2061 0.90972 0.36989 0.0
C1450 C 0.18699 0.89906 0.35939 0.0
C1451 C 0.17358 0.91045 0.35597 0.0
C1452 C 0.17916 0.93199 0.36288 0.0
H1453 H 0.15197 0.94918 0.40208 0.0
H1454 H 0.14918 0.94488 0.38221 0.0
H1455 H 0.16073 0.92945 0.39328 0.0
H1456 H 0.22612 0.93884 0.38506 0.0
H1457 H 0.21683 0.90149 0.37282 0.0
H1458 H 0.47722 0.57385 0.29054 0.0
H1459 H 0.50557 0.61176 0.30253 0.0
H1460 H 0.51818 0.64772 0.26018 0.0
H1461 H 0.48872 0.61024 0.24827 0.0
H1462 H 0.55296 0.64111 0.29831 0.0
H1463 H 0.50365 0.6898 0.28595 0.0
H1464 H 0.49003 0.65803 0.28309 0.0
H1465 H 0.51047 0.67866 0.26937 0.0
C1466 C 0.48562 0.58988 0.2838 0.0
C1467 C 0.48045 0.58892 0.26843 0.0
C1468 C 0.50204 0.61153 0.29066 0.0
C1469 C 0.51372 0.6327 0.28232 0.0
C1470 C 0.50896 0.63176 0.26694 0.0
H1471 H 0.64477 0.76253 0.31121 0.0
H1472 H 0.61566 0.72468 0.29943 0.0
C1473 C 0.49236 0.61018 0.26009 0.0
C1474 C 0.53129 0.65562 0.28966 0.0
H1475 H 0.54442 0.71318 0.29498 0.0
C1476 C 0.55103 0.65684 0.29765 0.0
C1477 C 0.52857 0.67606 0.289 0.0
C1478 C 0.5069 0.67555 0.28153 0.0
C1479 C 0.56827 0.67798 0.30482 0.0
C1480 C 0.56614 0.69871 0.3036 0.0
C1481 C 0.54624 0.69739 0.29577 0.0
C1482 C 0.58398 0.72181 0.31064 0.0
C1483 C 0.58822 0.67766 0.31393 0.0
C1484 C 0.57582 0.73332 0.32043 0.0
C1485 C 0.59234 0.75522 0.32693 0.0
C1486 C 0.61749 0.76602 0.32392 0.0
C1487 C 0.6256 0.75461 0.31395 0.0
C1488 C 0.60898 0.73282 0.30729 0.0
H1489 H 0.58306 0.65924 0.31742 0.0
H1490 H 0.60498 0.68466 0.30705 0.0
H1491 H 0.59254 0.68899 0.32408 0.0
H1492 H 0.55659 0.72534 0.32307 0.0
H1493 H 0.5853 0.76373 0.33421 0.0
H1494 H 0.40827 0.9176 0.26432 0.0
H1495 H 0.37123 0.91043 0.27735 0.0
H1496 H 0.35957 0.84214 0.29236 0.0
H1497 H 0.39675 0.84932 0.27945 0.0
H1498 H 0.32465 0.87577 0.27309 0.0
H1499 H 0.3521 0.86981 0.33112 0.0
H1500 H 0.37362 0.88084 0.31588 0.0
H1501 H 0.35388 0.84923 0.31841 0.0
C1502 C 0.39781 0.90103 0.27037 0.0
C1503 C 0.40555 0.88406 0.27086 0.0
C1504 C 0.37668 0.89699 0.27789 0.0
C1505 C 0.36275 0.87592 0.28609 0.0
C1506 C 0.3703 0.85884 0.28648 0.0
H1507 H 0.21818 0.81964 0.32699 0.0
H1508 H 0.25669 0.82395 0.31761 0.0
C1509 C 0.39154 0.86293 0.27904 0.0
C1510 C 0.33984 0.87153 0.29363 0.0
H1511 H 0.31084 0.85996 0.32746 0.0
C1512 C 0.32173 0.87238 0.28498 0.0
C1513 C 0.33587 0.86699 0.30917 0.0
C1514 C 0.35497 0.86687 0.31923 0.0
C1515 C 0.2999 0.86885 0.29139 0.0
C1516 C 0.29604 0.86448 0.30689 0.0
C1517 C 0.31387 0.86326 0.31556 0.0
C1518 C 0.27388 0.86211 0.31423 0.0
C1519 C 0.281 0.86978 0.28154 0.0
C1520 C 0.27107 0.8822 0.31579 0.0
C1521 C 0.24927 0.87982 0.32128 0.0
C1522 C 0.22993 0.85733 0.32544 0.0
C1523 C 0.23296 0.83727 0.32422 0.0
C1524 C 0.25489 0.83968 0.31878 0.0
H1525 H 0.28472 0.86901 0.26948 0.0
H1526 H 0.26248 0.85476 0.28415 0.0
H1527 H 0.281 0.8867 0.28367 0.0
H1528 H 0.28552 0.89965 0.31237 0.0
H1529 H 0.24731 0.89551 0.32197 0.0
H1530 H 0.08785 0.50939 0.28633 0.0
H1531 H 0.09928 0.48281 0.29893 0.0
H1532 H 0.14606 0.48973 0.26191 0.0
H1533 H 0.13361 0.51538 0.24898 0.0
H1534 H 0.12206 0.4457 0.27007 0.0
H1535 H 0.16014 0.49993 0.32121 0.0
H1536 H 0.12901 0.49234 0.31848 0.0
H1537 H 0.15185 0.51099 0.30506 0.0
C1538 C 0.10059 0.5052 0.28095 0.0
C1539 C 0.10995 0.51438 0.26676 0.0
C1540 C 0.10731 0.49024 0.28819 0.0
C1541 C 0.12407 0.48477 0.28157 0.0
C1542 C 0.13325 0.49382 0.2673 0.0
H1543 H 0.19032 0.41544 0.33166 0.0
H1544 H 0.18268 0.44456 0.3189 0.0
C1545 C 0.12613 0.5084 0.25991 0.0
C1546 C 0.13125 0.46886 0.28925 0.0
H1547 H 0.1513 0.45928 0.32256 0.0
C1548 C 0.12869 0.44882 0.2815 0.0
C1549 C 0.14043 0.47316 0.30406 0.0
C1550 C 0.14578 0.49543 0.31261 0.0
C1551 C 0.13437 0.43264 0.28825 0.0
C1552 C 0.14185 0.43602 0.30341 0.0
C1553 C 0.14513 0.45643 0.31103 0.0
C1554 C 0.14621 0.41853 0.31157 0.0
C1555 C 0.13268 0.41235 0.27895 0.0
C1556 C 0.12802 0.39435 0.31206 0.0
C1557 C 0.13249 0.37767 0.3191 0.0
C1558 C 0.155 0.38494 0.32615 0.0
C1559 C 0.17279 0.40932 0.3263 0.0
C1560 C 0.16847 0.42596 0.319 0.0
H1561 H 0.13499 0.41688 0.26687 0.0
H1562 H 0.14671 0.40771 0.28231 0.0
H1563 H 0.11436 0.39637 0.2804 0.0
H1564 H 0.11038 0.38832 0.3069 0.0
H1565 H 0.11828 0.35907 0.31901 0.0
H1566 H 0.42244 0.51251 0.29079 0.0
H1567 H 0.38624 0.48293 0.30429 0.0
H1568 H 0.34199 0.47246 0.26519 0.0
H1569 H 0.3782 0.50172 0.25156 0.0
H1570 H 0.34378 0.48123 0.31148 0.0
H1571 H 0.3249 0.40488 0.2746 0.0
H1572 H 0.35301 0.43309 0.27367 0.0
H1573 H 0.32585 0.42942 0.26468 0.0
C1574 C 0.40497 0.50392 0.28509 0.0
C1575 C 0.40319 0.50929 0.27008 0.0
C1576 C 0.38431 0.48702 0.29281 0.0
C1577 C 0.36145 0.47516 0.28569 0.0
C1578 C 0.35953 0.4809 0.2708 0.0
H1579 H 0.21908 0.39277 0.32776 0.0
H1580 H 0.25777 0.42528 0.31843 0.0
C1581 C 0.38022 0.49765 0.26303 0.0
C1582 C 0.33968 0.45677 0.29384 0.0
H1583 H 0.29419 0.39852 0.29219 0.0
C1584 C 0.33298 0.46309 0.30732 0.0
C1585 C 0.32582 0.43301 0.28854 0.0
C1586 C 0.33287 0.42459 0.27466 0.0
C1587 C 0.3126 0.4464 0.31553 0.0
C1588 C 0.29822 0.42285 0.30993 0.0
C1589 C 0.30512 0.41654 0.29652 0.0
C1590 C 0.27585 0.40431 0.3176 0.0
C1591 C 0.30709 0.45408 0.33024 0.0
C1592 C 0.27293 0.3816 0.32028 0.0
C1593 C 0.25065 0.3629 0.32533 0.0
C1594 C 0.231 0.36664 0.32812 0.0
C1595 C 0.23414 0.38956 0.32608 0.0
C1596 C 0.25634 0.4082 0.32078 0.0
H1597 H 0.32363 0.46953 0.33511 0.0
H1598 H 0.29327 0.45964 0.32846 0.0
H1599 H 0.29972 0.43925 0.3384 0.0
H1600 H 0.28765 0.37808 0.31792 0.0
H1601 H 0.24854 0.3453 0.32666 0.0
H1602 H 0.48268 0.89742 0.29149 0.0
H1603 H 0.51349 0.89074 0.3036 0.0
H1604 H 0.52191 0.85984 0.26289 0.0
H1605 H 0.49113 0.86647 0.2507 0.0
H1606 H 0.5152 0.84949 0.3086 0.0
H1607 H 0.59188 0.91102 0.2722 0.0
H1608 H 0.56306 0.91045 0.27252 0.0
H1609 H 0.56609 0.88816 0.26222 0.0
C1610 C 0.49093 0.88902 0.28514 0.0
C1611 C 0.48452 0.88264 0.27007 0.0
C1612 C 0.50863 0.8853 0.29207 0.0
C1613 C 0.52037 0.87518 0.28409 0.0
C1614 C 0.51358 0.86823 0.26917 0.0
H1615 H 0.60853 0.81953 0.32448 0.0
H1616 H 0.57498 0.82359 0.31418 0.0
C1617 C 0.49594 0.87201 0.26222 0.0
C1618 C 0.53964 0.87187 0.29143 0.0
H1619 H 0.59967 0.88732 0.28898 0.0
C1620 C 0.53371 0.85782 0.30436 0.0
C1621 C 0.56385 0.88291 0.28597 0.0
C1622 C 0.57174 0.89916 0.27255 0.0
C1623 C 0.55123 0.8544 0.31195 0.0
C1624 C 0.57541 0.86505 0.30634 0.0
C1625 C 0.58126 0.87913 0.29338 0.0
C1626 C 0.59513 0.8623 0.31372 0.0
C1627 C 0.54368 0.83994 0.32611 0.0
C1628 C 0.61797 0.88258 0.31672 0.0
C1629 C 0.63736 0.88021 0.3223 0.0
C1630 C 0.63423 0.85756 0.32533 0.0
C1631 C 0.61131 0.83726 0.32265 0.0
C1632 C 0.59202 0.8396 0.3168 0.0
H1633 H 0.52768 0.83977 0.33137 0.0
H1634 H 0.53847 0.82119 0.32351 0.0
H1635 H 0.55884 0.84717 0.33427 0.0
H1636 H 0.62099 0.90031 0.31445 0.0
H1637 H 0.65493 0.89611 0.32409 0.0
H1638 H 0.11832 0.61167 0.24738 0.0
H1639 H 0.12699 0.64854 0.26012 0.0
H1640 H 0.10473 0.61084 0.30201 0.0
H1641 H 0.09477 0.57359 0.28925 0.0
H1642 H 0.08674 0.64066 0.29851 0.0
H1643 H 0.18585 0.68859 0.2862 0.0
H1644 H 0.16731 0.67792 0.26968 0.0
H1645 H 0.16661 0.65691 0.28312 0.0
C1646 C 0.11496 0.61112 0.25927 0.0
C1647 C 0.10597 0.58966 0.2673 0.0
C1648 C 0.12026 0.6323 0.26657 0.0
C1649 C 0.11702 0.63252 0.28206 0.0
C1650 C 0.1076 0.61109 0.29007 0.0
H1651 H 0.18014 0.762 0.3357 0.0
H1652 H 0.16906 0.72328 0.32477 0.0
C1653 C 0.10211 0.58986 0.28277 0.0
C1654 C 0.12321 0.65506 0.2899 0.0
H1655 H 0.1696 0.71197 0.29609 0.0
C1656 C 0.10489 0.65623 0.29805 0.0
C1657 C 0.147 0.6752 0.2895 0.0
C1658 C 0.16789 0.67458 0.28178 0.0
C1659 C 0.10958 0.67717 0.30558 0.0
C1660 C 0.13308 0.69765 0.3046 0.0
C1661 C 0.15152 0.69632 0.29669 0.0
C1662 C 0.139 0.72066 0.31168 0.0
C1663 C 0.08944 0.67699 0.31471 0.0
C1664 C 0.1259 0.73215 0.30787 0.0
C1665 C 0.13191 0.75412 0.31431 0.0
C1666 C 0.15137 0.76518 0.32454 0.0
C1667 C 0.16472 0.75379 0.32813 0.0
C1668 C 0.15853 0.73171 0.3218 0.0
H1669 H 0.07551 0.65855 0.31799 0.0
H1670 H 0.09678 0.68799 0.32499 0.0
H1671 H 0.08016 0.68448 0.30794 0.0
H1672 H 0.1112 0.72428 0.29977 0.0
H1673 H 0.12139 0.76248 0.31115 0.0
H1674 H 0.8239 0.07725 0.42229 0.0
H1675 H 0.79496 0.0388 0.41107 0.0
H1676 H 0.85478 0.03063 0.39526 0.0
H1677 H 0.88387 0.06866 0.40697 0.0
H1678 H 0.78993 0.02525 0.38151 0.0
H1679 H 0.81191 0.96716 0.41601 0.0
H1680 H 0.82199 0.99781 0.42094 0.0
H1681 H 0.83787 0.99101 0.40685 0.0
C1682 C 0.83093 0.06711 0.41664 0.0
C1683 C 0.85624 0.07599 0.41563 0.0
C1684 C 0.81435 0.04521 0.41013 0.0
C1685 C 0.82268 0.03167 0.40251 0.0
C1686 C 0.84792 0.04055 0.40134 0.0
H1687 H 0.75138 0.89822 0.35309 0.0
H1688 H 0.78041 0.93645 0.36447 0.0
C1689 C 0.86454 0.06244 0.40788 0.0
C1690 C 0.80493 0.0086 0.39546 0.0
H1691 H 0.78556 0.94887 0.39525 0.0
C1692 C 0.78888 0.00853 0.38456 0.0
C1693 C 0.80362 0.9868 0.39945 0.0
C1694 C 0.81959 0.98556 0.41155 0.0
C1695 C 0.77182 0.98732 0.37738 0.0
C1696 C 0.77056 0.96556 0.38136 0.0
C1697 C 0.78661 0.96561 0.39223 0.0
C1698 C 0.75276 0.94254 0.37432 0.0
C1699 C 0.75562 0.98842 0.36539 0.0
C1700 C 0.72756 0.93316 0.37621 0.0
C1701 C 0.71085 0.91132 0.36965 0.0
C1702 C 0.71907 0.89845 0.36109 0.0
C1703 C 0.74437 0.90782 0.35938 0.0
C1704 C 0.76103 0.92962 0.36595 0.0
H1705 H 0.76272 0.00691 0.36122 0.0
H1706 H 0.75382 0.97669 0.35581 0.0
H1707 H 0.73713 0.98208 0.37004 0.0
H1708 H 0.72082 0.94265 0.38286 0.0
H1709 H 0.69153 0.90458 0.37128 0.0
H1710 H 0.95702 0.80029 0.43057 0.0
H1711 H 0.99448 0.80779 0.41792 0.0
H1712 H 0.95274 0.77202 0.37849 0.0
H1713 H 0.91532 0.76499 0.39099 0.0
H1714 H 0.0076 0.77783 0.40789 0.0
H1715 H 0.00658 0.83112 0.35985 0.0
H1716 H 0.98644 0.82432 0.37562 0.0
H1717 H 0.97917 0.80263 0.36097 0.0
C1718 C 0.95584 0.79408 0.41919 0.0
C1719 C 0.93318 0.78211 0.41178 0.0
C1720 C 0.97729 0.79845 0.41193 0.0
C1721 C 0.97663 0.79089 0.39711 0.0
C1722 C 0.95396 0.77873 0.38974 0.0
H1723 H 0.09089 0.76881 0.35981 0.0
H1724 H 0.05241 0.76436 0.36909 0.0
C1725 C 0.93252 0.77458 0.39694 0.0
C1726 C 0.99945 0.79459 0.38975 0.0
H1727 H 0.03479 0.81673 0.35844 0.0
C1728 C 0.01355 0.78646 0.39711 0.0
C1729 C 0.00755 0.80616 0.37575 0.0
C1730 C 0.99429 0.81678 0.36766 0.0
C1731 C 0.03517 0.78921 0.39085 0.0
C1732 C 0.04266 0.79975 0.37656 0.0
C1733 C 0.02887 0.80831 0.36928 0.0
C1734 C 0.06494 0.80226 0.36918 0.0
C1735 C 0.05005 0.78121 0.39981 0.0
C1736 C 0.08438 0.82492 0.36534 0.0
C1737 C 0.10628 0.82743 0.35981 0.0
C1738 C 0.10899 0.80728 0.35787 0.0
C1739 C 0.08923 0.78459 0.36118 0.0
C1740 C 0.06732 0.78207 0.36658 0.0
H1741 H 0.04587 0.7802 0.41193 0.0
H1742 H 0.04563 0.76312 0.39605 0.0
H1743 H 0.06992 0.79353 0.39827 0.0
H1744 H 0.08297 0.84075 0.36717 0.0
H1745 H 0.12135 0.84517 0.35758 0.0
H1746 H 0.24512 0.1472 0.39353 0.0
H1747 H 0.23421 0.17378 0.38054 0.0
H1748 H 0.21266 0.19086 0.42237 0.0
H1749 H 0.22263 0.16356 0.43541 0.0
H1750 H 0.17894 0.18063 0.39969 0.0
H1751 H 0.27249 0.24656 0.38096 0.0
H1752 H 0.26273 0.21634 0.37552 0.0
H1753 H 0.26671 0.22433 0.39499 0.0
C1754 C 0.23794 0.15651 0.39997 0.0
C1755 C 0.23477 0.15328 0.41552 0.0
C1756 C 0.23196 0.17189 0.39254 0.0
C1757 C 0.22295 0.18452 0.40052 0.0
C1758 C 0.21972 0.18135 0.41603 0.0
H1759 H 0.21404 0.30703 0.3732 0.0
H1760 H 0.22341 0.2782 0.38424 0.0
C1761 C 0.22563 0.16592 0.42347 0.0
C1762 C 0.21646 0.20075 0.39268 0.0
H1763 H 0.24011 0.25108 0.37133 0.0
C1764 C 0.19229 0.19605 0.39348 0.0
C1765 C 0.23398 0.22093 0.38471 0.0
C1766 C 0.26048 0.22753 0.38407 0.0
C1767 C 0.18514 0.21105 0.38653 0.0
C1768 C 0.20257 0.23099 0.37832 0.0
C1769 C 0.22673 0.23563 0.3775 0.0
C1770 C 0.19659 0.24818 0.3713 0.0
C1771 C 0.15921 0.20582 0.38842 0.0
C1772 C 0.17848 0.24091 0.36022 0.0
C1773 C 0.17285 0.25738 0.35393 0.0
C1774 C 0.18551 0.28148 0.35845 0.0
C1775 C 0.20389 0.28867 0.36939 0.0
C1776 C 0.20935 0.27221 0.37573 0.0
H1777 H 0.14996 0.19352 0.39791 0.0
H1778 H 0.15865 0.22253 0.39031 0.0
H1779 H 0.14869 0.19719 0.37811 0.0
H1780 H 0.16871 0.22252 0.35645 0.0
H1781 H 0.15846 0.25116 0.34564 0.0
H1782 H 0.62638 0.49635 0.76526 0.0
H1783 H 0.66321 0.52539 0.75201 0.0
H1784 H 0.62011 0.51685 0.71265 0.0
H1785 H 0.58332 0.48752 0.72576 0.0
H1786 H 0.66247 0.51795 0.70564 0.0
H1787 H 0.68157 0.59355 0.74333 0.0
H1788 H 0.67997 0.56848 0.75294 0.0
H1789 H 0.65319 0.56556 0.74386 0.0
C1790 C 0.62476 0.50078 0.75381 0.0
C1791 C 0.60193 0.48975 0.74659 0.0
C1792 C 0.6458 0.5174 0.74625 0.0
C1793 C 0.64438 0.52363 0.7314 0.0
C1794 C 0.62166 0.51236 0.7241 0.0
H1795 H 0.75692 0.65406 0.69127 0.0
H1796 H 0.71812 0.62085 0.69999 0.0
C1797 C 0.60066 0.49559 0.73161 0.0
C1798 C 0.66649 0.54204 0.72351 0.0
H1799 H 0.71219 0.60016 0.72567 0.0
C1800 C 0.67331 0.53598 0.70997 0.0
C1801 C 0.68044 0.56565 0.72904 0.0
C1802 C 0.67332 0.57382 0.74301 0.0
C1803 C 0.69383 0.55279 0.70192 0.0
C1804 C 0.70821 0.57622 0.7077 0.0
C1805 C 0.70125 0.58224 0.7212 0.0
C1806 C 0.73045 0.59503 0.70005 0.0
C1807 C 0.69949 0.54541 0.68714 0.0
C1808 C 0.75015 0.5915 0.69671 0.0
C1809 C 0.7722 0.61041 0.69142 0.0
C1810 C 0.77498 0.63322 0.68956 0.0
C1811 C 0.7551 0.63657 0.69248 0.0
C1812 C 0.73299 0.61762 0.69752 0.0
H1813 H 0.68305 0.52993 0.6822 0.0
H1814 H 0.70674 0.56035 0.67906 0.0
H1815 H 0.71347 0.54004 0.68885 0.0
H1816 H 0.74898 0.57449 0.69892 0.0
H1817 H 0.78744 0.6075 0.68959 0.0
H1818 H 0.4882 0.08081 0.75161 0.0
H1819 H 0.45785 0.08788 0.73928 0.0
H1820 H 0.51498 0.1571 0.72488 0.0
H1821 H 0.54549 0.1499 0.73698 0.0
H1822 H 0.44573 0.12115 0.74459 0.0
H1823 H 0.4788 0.13132 0.68623 0.0
H1824 H 0.48994 0.12015 0.70091 0.0
H1825 H 0.50155 0.15174 0.69904 0.0
C1826 C 0.49431 0.09755 0.74581 0.0
C1827 C 0.51928 0.11478 0.74526 0.0
C1828 C 0.47694 0.10154 0.73871 0.0
C1829 C 0.48407 0.12287 0.73091 0.0
C1830 C 0.509 0.14022 0.73044 0.0
H1831 H 0.39601 0.17945 0.69216 0.0
H1832 H 0.4298 0.17483 0.70173 0.0
C1833 C 0.52644 0.13613 0.73743 0.0
C1834 C 0.46522 0.12719 0.72386 0.0
H1835 H 0.44728 0.1404 0.69083 0.0
C1836 C 0.44607 0.12525 0.73282 0.0
C1837 C 0.46562 0.13265 0.70849 0.0
C1838 C 0.48494 0.13387 0.69806 0.0
C1839 C 0.42743 0.12861 0.72687 0.0
C1840 C 0.42781 0.13396 0.71154 0.0
C1841 C 0.44707 0.13628 0.70259 0.0
C1842 C 0.40792 0.13658 0.70463 0.0
C1843 C 0.40745 0.12655 0.73703 0.0
C1844 C 0.38456 0.11656 0.70285 0.0
C1845 C 0.36535 0.11912 0.69722 0.0
C1846 C 0.3692 0.14171 0.6931 0.0
C1847 C 0.39265 0.16174 0.69482 0.0
C1848 C 0.41193 0.15915 0.70038 0.0
H1849 H 0.41211 0.12667 0.74902 0.0
H1850 H 0.40379 0.14142 0.73499 0.0
H1851 H 0.39038 0.10954 0.73463 0.0
H1852 H 0.38112 0.09899 0.70605 0.0
H1853 H 0.34738 0.10346 0.6962 0.0
H1854 H 0.89129 0.39076 0.76918 0.0
H1855 H 0.88189 0.35319 0.75701 0.0
H1856 H 0.90273 0.38901 0.71445 0.0
H1857 H 0.91335 0.42683 0.72661 0.0
H1858 H 0.84865 0.32846 0.7353 0.0
H1859 H 0.94183 0.35506 0.71545 0.0
H1860 H 0.93602 0.37249 0.72887 0.0
H1861 H 0.9313 0.37475 0.70924 0.0
C1862 C 0.89428 0.39073 0.75727 0.0
C1863 C 0.90321 0.41183 0.74888 0.0
C1864 C 0.8887 0.36922 0.75032 0.0
C1865 C 0.89197 0.36841 0.73487 0.0
C1866 C 0.90056 0.38934 0.72643 0.0
H1867 H 0.82636 0.23848 0.68116 0.0
H1868 H 0.83709 0.27685 0.69256 0.0
C1869 C 0.90631 0.41088 0.73338 0.0
C1870 C 0.88582 0.34552 0.72755 0.0
H1871 H 0.90944 0.31845 0.70595 0.0
C1872 C 0.86194 0.32621 0.72892 0.0
C1873 C 0.9033 0.3426 0.71939 0.0
C1874 C 0.9296 0.36224 0.71825 0.0
C1875 C 0.85499 0.30406 0.72224 0.0
C1876 C 0.87225 0.3014 0.71365 0.0
C1877 C 0.89618 0.32065 0.7124 0.0
C1878 C 0.86613 0.27854 0.7063 0.0
C1879 C 0.82941 0.28361 0.72475 0.0
C1880 C 0.87946 0.2672 0.70984 0.0
C1881 C 0.87376 0.24555 0.70309 0.0
C1882 C 0.85458 0.2348 0.69265 0.0
C1883 C 0.84139 0.24634 0.68902 0.0
C1884 C 0.84728 0.26814 0.69568 0.0
H1885 H 0.82088 0.28665 0.73473 0.0
H1886 H 0.81793 0.28185 0.7149 0.0
H1887 H 0.8293 0.2665 0.72619 0.0
H1888 H 0.89414 0.27499 0.71797 0.0
H1889 H 0.88432 0.23721 0.70618 0.0
H1890 H 0.15714 0.94363 0.58077 0.0
H1891 H 0.18756 0.98128 0.59212 0.0
H1892 H 0.17448 0.94685 0.63505 0.0
H1893 H 0.14516 0.9088 0.62364 0.0
H1894 H 0.18346 0.00801 0.61309 0.0
H1895 H 0.24749 0.97906 0.63309 0.0
H1896 H 0.22266 0.96122 0.62046 0.0
H1897 H 0.21722 0.96073 0.64023 0.0
C1898 C 0.16101 0.94392 0.59258 0.0
C1899 C 0.14879 0.92304 0.60124 0.0
C1900 C 0.17828 0.96555 0.59909 0.0
C1901 C 0.18368 0.96684 0.61439 0.0
C1902 C 0.17111 0.9462 0.62314 0.0
H1903 H 0.25372 0.09804 0.66621 0.0
H1904 H 0.22523 0.0601 0.65451 0.0
C1905 C 0.15402 0.92449 0.61663 0.0
C1906 C 0.202 0.98993 0.62123 0.0
H1907 H 0.25396 0.0164 0.64243 0.0
C1908 C 0.19895 0.00987 0.61943 0.0
C1909 C 0.22247 0.9925 0.6293 0.0
C1910 C 0.22783 0.9723 0.63076 0.0
C1911 C 0.21552 0.03215 0.62568 0.0
C1912 C 0.2353 0.03441 0.63438 0.0
C1913 C 0.23862 0.0146 0.63593 0.0
C1914 C 0.25281 0.05716 0.6419 0.0
C1915 C 0.21187 0.05312 0.62263 0.0
C1916 C 0.27798 0.06775 0.63921 0.0
C1917 C 0.29449 0.08922 0.64625 0.0
C1918 C 0.28614 0.10053 0.65613 0.0
C1919 C 0.26091 0.08976 0.65885 0.0
C1920 C 0.24448 0.06818 0.65197 0.0
H1921 H 0.20105 0.05038 0.61228 0.0
H1922 H 0.20165 0.05519 0.63204 0.0
H1923 H 0.2296 0.06996 0.62152 0.0
H1924 H 0.28485 0.05952 0.63154 0.0
H1925 H 0.31377 0.09697 0.64386 0.0
H1926 H 0.06391 0.18476 0.61382 0.0
H1927 H 0.02625 0.17759 0.62611 0.0
H1928 H 0.03853 0.2459 0.61069 0.0
H1929 H 0.07605 0.25309 0.59831 0.0
H1930 H 0.01811 0.202 0.64813 0.0
H1931 H 0.96933 0.20211 0.59671 0.0
H1932 H 0.9971 0.20067 0.59621 0.0
H1933 H 0.99832 0.22888 0.59882 0.0
C1934 C 0.05864 0.19829 0.61309 0.0
C1935 C 0.07293 0.21943 0.60497 0.0
C1936 C 0.03705 0.19413 0.62009 0.0
C1937 C 0.02923 0.21097 0.61909 0.0
C1938 C 0.04375 0.23231 0.61127 0.0
H1939 H 0.91463 0.23083 0.65571 0.0
H1940 H 0.95291 0.23495 0.64624 0.0
C1941 C 0.06525 0.23642 0.60421 0.0
C1942 C 0.00616 0.20646 0.62643 0.0
H1943 H 0.95177 0.20426 0.61984 0.0
C1944 C 0.00349 0.20222 0.6419 0.0
C1945 C 0.98699 0.20666 0.61833 0.0
C1946 C 0.98792 0.20958 0.60158 0.0
C1947 C 0.98257 0.19894 0.64952 0.0
C1948 C 0.96384 0.19991 0.64148 0.0
C1949 C 0.96627 0.20371 0.626 0.0
C1950 C 0.94176 0.19763 0.64891 0.0
C1951 C 0.98098 0.19548 0.66619 0.0
C1952 C 0.92289 0.17531 0.65373 0.0
C1953 C 0.90092 0.1729 0.65908 0.0
C1954 C 0.89762 0.19285 0.65986 0.0
C1955 C 0.91682 0.21524 0.65542 0.0
C1956 C 0.93865 0.21761 0.64999 0.0
H1957 H 0.99745 0.19593 0.67093 0.0
H1958 H 0.97874 0.20978 0.67153 0.0
H1959 H 0.96472 0.17807 0.669 0.0
H1960 H 0.92479 0.15961 0.65281 0.0
H1961 H 0.88625 0.15531 0.66201 0.0
H1962 H 0.76332 0.85485 0.62349 0.0
H1963 H 0.7743 0.82855 0.63674 0.0
H1964 H 0.79604 0.81099 0.59513 0.0
H1965 H 0.78619 0.83818 0.58186 0.0
H1966 H 0.75645 0.7811 0.63384 0.0
H1967 H 0.85548 0.83002 0.62122 0.0
H1968 H 0.83608 0.84265 0.61794 0.0
H1969 H 0.83671 0.82189 0.60477 0.0
C1970 C 0.77077 0.84567 0.61717 0.0
C1971 C 0.77415 0.84883 0.60164 0.0
C1972 C 0.77687 0.83052 0.62475 0.0
C1973 C 0.78642 0.81819 0.61696 0.0
C1974 C 0.78924 0.82079 0.60141 0.0
H1975 H 0.79069 0.69338 0.64533 0.0
H1976 H 0.78125 0.7223 0.63444 0.0
C1977 C 0.78328 0.83607 0.59381 0.0
C1978 C 0.79285 0.80217 0.6251 0.0
H1979 H 0.83946 0.79109 0.63166 0.0
C1980 C 0.77464 0.78336 0.63345 0.0
C1981 C 0.81671 0.80545 0.62479 0.0
C1982 C 0.83744 0.82624 0.61683 0.0
C1983 C 0.77946 0.76731 0.64117 0.0
C1984 C 0.80298 0.76986 0.64023 0.0
C1985 C 0.82138 0.78906 0.63224 0.0
C1986 C 0.80866 0.75238 0.64708 0.0
C1987 C 0.75938 0.74793 0.65038 0.0
C1988 C 0.82773 0.75984 0.6575 0.0
C1989 C 0.83345 0.74336 0.66364 0.0
C1990 C 0.82015 0.71913 0.65947 0.0
C1991 C 0.80118 0.71182 0.64894 0.0
C1992 C 0.7956 0.72831 0.64275 0.0
H1993 H 0.74548 0.7528 0.65366 0.0
H1994 H 0.75003 0.73126 0.64366 0.0
H1995 H 0.76678 0.74422 0.66065 0.0
H1996 H 0.8382 0.77842 0.66086 0.0
H1997 H 0.84846 0.7497 0.6715 0.0
H1998 H 0.06105 0.87054 0.61052 0.0
H1999 H 0.02488 0.84244 0.62473 0.0
H2000 H 0.03844 0.78525 0.61339 0.0
H2001 H 0.07473 0.81326 0.59922 0.0
H2002 H 0.98318 0.79809 0.61296 0.0
H2003 H 0.03097 0.78309 0.66024 0.0
H2004 H 0.04578 0.80895 0.64826 0.0
H2005 H 0.04085 0.78054 0.64183 0.0
C2006 C 0.05642 0.85201 0.61114 0.0
C2007 C 0.07078 0.84412 0.60379 0.0
C2008 C 0.03574 0.83599 0.61922 0.0
C2009 C 0.02921 0.81187 0.62027 0.0
C2010 C 0.04338 0.80388 0.61288 0.0
H2011 H 0.91495 0.68131 0.65644 0.0
H2012 H 0.95321 0.71492 0.64739 0.0
C2013 C 0.06395 0.81984 0.60468 0.0
C2014 C 0.00712 0.79486 0.62867 0.0
H2015 H 0.98801 0.75768 0.65886 0.0
C2016 C 0.98417 0.78939 0.62308 0.0
C2017 C 0.00857 0.78359 0.64184 0.0
C2018 C 0.03284 0.7894 0.64852 0.0
C2019 C 0.96252 0.77219 0.62997 0.0
C2020 C 0.96392 0.76066 0.64309 0.0
C2021 C 0.98695 0.76658 0.64886 0.0
C2022 C 0.94174 0.74112 0.65026 0.0
C2023 C 0.93841 0.76577 0.62274 0.0
C2024 C 0.92285 0.7448 0.65537 0.0
C2025 C 0.90086 0.72552 0.66039 0.0
C2026 C 0.89769 0.7024 0.66078 0.0
C2027 C 0.91704 0.699 0.65637 0.0
C2028 C 0.93889 0.71819 0.65122 0.0
H2029 H 0.94072 0.77195 0.61097 0.0
H2030 H 0.92576 0.74616 0.62291 0.0
H2031 H 0.92978 0.77445 0.62899 0.0
H2032 H 0.92483 0.76242 0.65505 0.0
H2033 H 0.88613 0.72861 0.66347 0.0
H2034 H 0.15564 0.19828 0.58588 0.0
H2035 H 0.18591 0.19086 0.59802 0.0
H2036 H 0.1823 0.22692 0.63771 0.0
H2037 H 0.15161 0.23393 0.6257 0.0
H2038 H 0.23019 0.22195 0.60735 0.0
H2039 H 0.17747 0.16804 0.65594 0.0
H2040 H 0.16326 0.17437 0.64047 0.0
H2041 H 0.17854 0.19627 0.65496 0.0
C2042 C 0.16119 0.2045 0.59723 0.0
C2043 C 0.15119 0.21666 0.60484 0.0
C2044 C 0.17846 0.20019 0.60418 0.0
C2045 C 0.18621 0.208 0.61889 0.0
C2046 C 0.17618 0.2201 0.62653 0.0
H2047 H 0.3249 0.23085 0.65437 0.0
H2048 H 0.29099 0.23539 0.64498 0.0
C2049 C 0.1587 0.22421 0.61963 0.0
C2050 C 0.20583 0.20471 0.62579 0.0
H2051 H 0.22038 0.18263 0.65641 0.0
C2052 C 0.22795 0.21325 0.61805 0.0
C2053 C 0.20292 0.1931 0.63969 0.0
C2054 C 0.17918 0.1822 0.64818 0.0
C2055 C 0.24723 0.21077 0.62383 0.0
C2056 C 0.2447 0.20005 0.63799 0.0
C2057 C 0.22247 0.19117 0.64567 0.0
C2058 C 0.26476 0.1975 0.64482 0.0
C2059 C 0.26994 0.2192 0.61449 0.0
C2060 C 0.26111 0.17479 0.64844 0.0
C2061 C 0.28039 0.17223 0.65401 0.0
C2062 C 0.30359 0.19237 0.65625 0.0
C2063 C 0.30714 0.21508 0.65283 0.0
C2064 C 0.28783 0.21765 0.64737 0.0
H2065 H 0.26628 0.22044 0.60248 0.0
H2066 H 0.28402 0.23727 0.6183 0.0
H2067 H 0.27749 0.20702 0.61561 0.0
H2068 H 0.24349 0.15897 0.6466 0.0
H2069 H 0.27726 0.15447 0.65624 0.0
H2070 H 0.81139 0.93454 0.60824 0.0
H2071 H 0.82061 0.9715 0.62117 0.0
H2072 H 0.75169 0.96306 0.60653 0.0
H2073 H 0.74187 0.92558 0.59411 0.0
H2074 H 0.8247 0.01296 0.60984 0.0
H2075 H 0.74989 0.97229 0.65142 0.0
H2076 H 0.75882 0.95474 0.64017 0.0
H2077 H 0.73963 0.96522 0.63241 0.0
C2078 C 0.79807 0.9404 0.60792 0.0
C2079 C 0.7758 0.92702 0.60026 0.0
C2080 C 0.80344 0.96158 0.61523 0.0
C2081 C 0.78664 0.96975 0.61503 0.0
C2082 C 0.76467 0.95677 0.60709 0.0
H2083 H 0.7866 0.09551 0.64748 0.0
H2084 H 0.77758 0.0579 0.63556 0.0
C2085 C 0.75923 0.93554 0.59983 0.0
C2086 C 0.79231 0.99206 0.62292 0.0
H2087 H 0.77173 0.01473 0.65009 0.0
C2088 C 0.81322 0.01335 0.6187 0.0
C2089 C 0.77729 0.99243 0.6345 0.0
C2090 C 0.75528 0.96992 0.64001 0.0
C2091 C 0.81925 0.03515 0.62555 0.0
C2092 C 0.80407 0.03553 0.63699 0.0
C2093 C 0.78324 0.01427 0.64127 0.0
C2094 C 0.80939 0.05795 0.64452 0.0
C2095 C 0.84149 0.0577 0.62031 0.0
C2096 C 0.83008 0.07014 0.65366 0.0
C2097 C 0.8353 0.09161 0.66051 0.0
C2098 C 0.81984 0.10119 0.65835 0.0
C2099 C 0.79892 0.08868 0.64934 0.0
C2100 C 0.7937 0.06718 0.64255 0.0
H2101 H 0.84842 0.05507 0.60949 0.0
H2102 H 0.83732 0.07239 0.61906 0.0
H2103 H 0.85625 0.06337 0.62876 0.0
H2104 H 0.84223 0.06308 0.65544 0.0
H2105 H 0.85163 0.10085 0.66729 0.0
H2106 H 0.49126 0.4123 0.75491 0.0
H2107 H 0.46199 0.37429 0.74327 0.0
H2108 H 0.52137 0.36665 0.72602 0.0
H2109 H 0.55077 0.40425 0.73804 0.0
H2110 H 0.45634 0.36095 0.7132 0.0
H2111 H 0.47914 0.30311 0.74738 0.0
H2112 H 0.4889 0.33365 0.75242 0.0
H2113 H 0.50488 0.32721 0.73821 0.0
C2114 C 0.49811 0.4024 0.74879 0.0
C2115 C 0.52338 0.41124 0.74751 0.0
C2116 C 0.48135 0.38077 0.74206 0.0
C2117 C 0.48949 0.36747 0.73398 0.0
C2118 C 0.51468 0.37641 0.73245 0.0
H2119 H 0.41899 0.2337 0.6853 0.0
H2120 H 0.44759 0.27216 0.69653 0.0
C2121 C 0.53147 0.39804 0.73918 0.0
C2122 C 0.4716 0.34439 0.72701 0.0
H2123 H 0.45245 0.28473 0.7268 0.0
C2124 C 0.45539 0.34425 0.71621 0.0
C2125 C 0.4704 0.32265 0.73098 0.0
C2126 C 0.48659 0.32152 0.74297 0.0
C2127 C 0.43834 0.32301 0.70905 0.0
C2128 C 0.43723 0.3013 0.71297 0.0
C2129 C 0.45338 0.30142 0.7238 0.0
C2130 C 0.41962 0.27823 0.70588 0.0
C2131 C 0.42206 0.32406 0.69709 0.0
C2132 C 0.39435 0.26876 0.70751 0.0
C2133 C 0.37788 0.24679 0.701 0.0
C2134 C 0.38639 0.23386 0.69277 0.0
C2135 C 0.41174 0.24333 0.69132 0.0
C2136 C 0.42816 0.26527 0.69782 0.0
H2137 H 0.42918 0.34253 0.69287 0.0
H2138 H 0.42012 0.31225 0.68754 0.0
H2139 H 0.40364 0.31784 0.70181 0.0
H2140 H 0.38738 0.27825 0.71396 0.0
H2141 H 0.3585 0.23997 0.70243 0.0
H2142 H 0.60794 0.15017 0.73666 0.0
H2143 H 0.64524 0.15779 0.72357 0.0
H2144 H 0.63339 0.08893 0.73733 0.0
H2145 H 0.59611 0.08116 0.75041 0.0
H2146 H 0.68749 0.15566 0.73753 0.0
H2147 H 0.64333 0.09237 0.69029 0.0
H2148 H 0.62766 0.10423 0.70111 0.0
H2149 H 0.63212 0.08099 0.70868 0.0
C2150 C 0.61319 0.13658 0.7368 0.0
C2151 C 0.59903 0.11504 0.74457 0.0
C2152 C 0.63454 0.141 0.72937 0.0
C2153 C 0.64194 0.12383 0.72935 0.0
C2154 C 0.62787 0.10232 0.73707 0.0
H2155 H 0.75857 0.1052 0.6958 0.0
H2156 H 0.72029 0.10152 0.70478 0.0
C2157 C 0.60668 0.09799 0.74464 0.0
C2158 C 0.66475 0.12859 0.72165 0.0
H2159 H 0.6862 0.10972 0.69273 0.0
C2160 C 0.68728 0.14581 0.72765 0.0
C2161 C 0.66436 0.11564 0.7088 0.0
C2162 C 0.64061 0.09736 0.70171 0.0
C2163 C 0.70948 0.1498 0.7215 0.0
C2164 C 0.70914 0.13667 0.70869 0.0
C2165 C 0.68652 0.11982 0.7025 0.0
C2166 C 0.73192 0.139 0.70216 0.0
C2167 C 0.733 0.16726 0.72922 0.0
C2168 C 0.7511 0.16119 0.69734 0.0
C2169 C 0.77312 0.16334 0.69236 0.0
C2170 C 0.7761 0.14321 0.69168 0.0
C2171 C 0.75665 0.12094 0.69606 0.0
C2172 C 0.73477 0.11884 0.70117 0.0
H2173 H 0.72983 0.17105 0.74085 0.0
H2174 H 0.74596 0.16038 0.72951 0.0
H2175 H 0.74171 0.18439 0.72301 0.0
H2176 H 0.74921 0.17693 0.69766 0.0
H2177 H 0.78794 0.18082 0.68934 0.0
H2178 H 0.89022 0.49885 0.76795 0.0
H2179 H 0.8794 0.52552 0.75489 0.0
H2180 H 0.90205 0.50947 0.7131 0.0
H2181 H 0.91384 0.48358 0.72613 0.0
H2182 H 0.91902 0.55699 0.71661 0.0
H2183 H 0.81979 0.5054 0.72846 0.0
H2184 H 0.83837 0.51333 0.74498 0.0
H2185 H 0.83981 0.49341 0.73149 0.0
C2186 C 0.8931 0.50117 0.756 0.0
C2187 C 0.90274 0.48898 0.74806 0.0
C2188 C 0.8866 0.51616 0.74853 0.0
C2189 C 0.88945 0.51905 0.73299 0.0
C2190 C 0.89947 0.50727 0.72508 0.0
H2191 H 0.82506 0.58618 0.67923 0.0
H2192 H 0.83603 0.55784 0.68965 0.0
C2193 C 0.90605 0.49237 0.73253 0.0
C2194 C 0.88256 0.53485 0.725 0.0
H2195 H 0.83498 0.54445 0.71841 0.0
C2196 C 0.90061 0.55418 0.71692 0.0
C2197 C 0.85843 0.53085 0.72519 0.0
C2198 C 0.83791 0.50949 0.73286 0.0
C2199 C 0.89535 0.57005 0.70934 0.0
C2200 C 0.87153 0.56679 0.71019 0.0
C2201 C 0.85329 0.54705 0.71791 0.0
C2202 C 0.86533 0.58402 0.7035 0.0
C2203 C 0.91533 0.59002 0.70041 0.0
C2204 C 0.87796 0.60804 0.70797 0.0
C2205 C 0.87203 0.62433 0.70187 0.0
C2206 C 0.85308 0.61686 0.6913 0.0
C2207 C 0.84009 0.59265 0.68707 0.0
C2208 C 0.84621 0.57639 0.6931 0.0
H2209 H 0.92955 0.58565 0.69703 0.0
H2210 H 0.90792 0.59391 0.69021 0.0
H2211 H 0.9243 0.60643 0.70738 0.0
H2212 H 0.89229 0.61418 0.71631 0.0
H2213 H 0.88226 0.64275 0.70555 0.0
H2214 H 0.49838 0.93683 0.22946 0.0
H2215 H 0.50738 0.9533 0.20421 0.0
H2216 H 0.43182 0.90835 0.19187 0.0
H2217 H 0.42267 0.89154 0.21711 0.0
H2218 H 0.50087 0.92924 0.17693 0.0
H2219 H 0.44616 0.97489 0.17864 0.0
H2220 H 0.45396 0.96438 0.19529 0.0
H2221 H 0.4298 0.94368 0.18327 0.0
C2222 C 0.48366 0.9303 0.22137 0.0
C2223 C 0.45977 0.91281 0.22537 0.0
C2224 C 0.48883 0.93984 0.20694 0.0
C2225 C 0.47025 0.9323 0.19616 0.0
C2226 C 0.44639 0.91482 0.20007 0.0
H2227 H 0.47559 0.97979 0.1036 0.0
H2228 H 0.46226 0.95771 0.12718 0.0
C2229 C 0.44118 0.90523 0.21452 0.0
C2230 C 0.47611 0.94244 0.1808 0.0
H2231 H 0.46509 0.97584 0.15573 0.0
C2232 C 0.49302 0.93941 0.17229 0.0
C2233 C 0.46575 0.95558 0.17469 0.0
C2234 C 0.44805 0.96005 0.18345 0.0
C2235 C 0.4999 0.94917 0.1579 0.0
C2236 C 0.48999 0.96279 0.15192 0.0
C2237 C 0.47269 0.96541 0.1603 0.0
C2238 C 0.49817 0.97538 0.13732 0.0
C2239 C 0.51755 0.94458 0.14917 0.0
C2240 C 0.52276 0.99271 0.13515 0.0
C2241 C 0.53044 0.00524 0.12169 0.0
C2242 C 0.51368 0.00091 0.11006 0.0
C2243 C 0.48905 0.9834 0.11222 0.0
C2244 C 0.48137 0.97087 0.12574 0.0
H2245 H 0.51752 0.9283 0.15316 0.0
H2246 H 0.5131 0.94251 0.13705 0.0
H2247 H 0.5363 0.95995 0.15064 0.0
H2248 H 0.53602 0.99686 0.14399 0.0
H2249 H 0.54958 0.01839 0.1204 0.0
H2250 H 0.09832 0.571 0.21395 0.0
H2251 H 0.07857 0.56204 0.18934 0.0
H2252 H 0.03007 0.48936 0.20295 0.0
H2253 H 0.04961 0.4982 0.22763 0.0
H2254 H 0.0714 0.52175 0.16846 0.0
H2255 H 0.98609 0.51833 0.188 0.0
H2256 H 0.01447 0.53394 0.19827 0.0
H2257 H 0.99714 0.50193 0.19854 0.0
C2258 C 0.08341 0.55313 0.2117 0.0
C2259 C 0.07542 0.53531 0.22271 0.0
C2260 C 0.07225 0.54803 0.19765 0.0
C2261 C 0.0528 0.52512 0.19444 0.0
C2262 C 0.04498 0.50719 0.2053 0.0
H2263 H 0.95553 0.46936 0.11758 0.0
H2264 H 0.97513 0.47492 0.14205 0.0
C2265 C 0.05624 0.51222 0.21933 0.0
C2266 C 0.04056 0.52009 0.17974 0.0
H2267 H 0.98812 0.51021 0.16255 0.0
C2268 C 0.05318 0.51919 0.16712 0.0
C2269 C 0.01679 0.51664 0.17814 0.0
C2270 C 1.00275 0.51786 0.1914 0.0
C2271 C 0.04253 0.51478 0.15285 0.0
C2272 C 0.01891 0.51186 0.15117 0.0
C2273 C 0.00622 0.51251 0.16386 0.0
C2274 C 0.00717 0.50848 0.13633 0.0
C2275 C 0.05651 0.51286 0.13978 0.0
C2276 C 0.01849 0.5257 0.12511 0.0
C2277 C 0.00739 0.52252 0.11114 0.0
C2278 C 0.98459 0.50222 0.10821 0.0
C2279 C 0.97303 0.48525 0.11956 0.0
C2280 C 0.98424 0.48835 0.1335 0.0
H2281 H 0.07045 0.50826 0.14347 0.0
H2282 H 0.04409 0.49914 0.13165 0.0
H2283 H 0.06618 0.53033 0.13399 0.0
H2284 H 0.03584 0.54171 0.12719 0.0
H2285 H 0.01652 0.53609 0.10268 0.0
H2286 H 0.44761 0.49755 0.22905 0.0
H2287 H 0.45859 0.49009 0.20417 0.0
H2288 H 0.4764 0.56094 0.19049 0.0
H2289 H 0.46578 0.56859 0.21536 0.0
H2290 H 0.44119 0.49042 0.17615 0.0
H2291 H 0.53865 0.56069 0.18053 0.0
H2292 H 0.51845 0.55089 0.19641 0.0
H2293 H 0.518 0.57178 0.18334 0.0
C2294 C 0.4537 0.51146 0.2207 0.0
C2295 C 0.45607 0.53375 0.2242 0.0
C2296 C 0.46004 0.50721 0.2065 0.0
C2297 C 0.46883 0.52514 0.19556 0.0
C2298 C 0.47034 0.54708 0.19887 0.0
H2299 H 0.51799 0.53428 0.10379 0.0
H2300 H 0.50319 0.54049 0.12775 0.0
C2301 C 0.4642 0.55141 0.21308 0.0
C2302 C 0.47653 0.52093 0.18071 0.0
H2303 H 0.52497 0.54237 0.15676 0.0
C2304 C 0.45953 0.50171 0.17194 0.0
C2305 C 0.50051 0.53565 0.17522 0.0
C2306 C 0.52003 0.55576 0.18441 0.0
C2307 C 0.46576 0.49706 0.15775 0.0
C2308 C 0.48965 0.5119 0.15226 0.0
C2309 C 0.50662 0.53112 0.16099 0.0
C2310 C 0.49759 0.50757 0.13757 0.0
C2311 C 0.44666 0.47655 0.14862 0.0
C2312 C 0.49945 0.48708 0.13521 0.0
C2313 C 0.50796 0.48352 0.12157 0.0
C2314 C 0.51472 0.50039 0.11002 0.0
C2315 C 0.51267 0.52084 0.1124 0.0
C2316 C 0.50433 0.52446 0.12609 0.0
H2317 H 0.42795 0.47015 0.15296 0.0
H2318 H 0.44737 0.48184 0.13676 0.0
H2319 H 0.45031 0.46145 0.14901 0.0
H2320 H 0.49465 0.47398 0.144 0.0
H2321 H 0.50914 0.4675 0.12004 0.0
H2322 H 0.96403 0.45626 0.78678 0.0
H2323 H 0.98288 0.46483 0.81155 0.0
H2324 H 0.93695 0.49303 0.82546 0.0
H2325 H 0.91724 0.48359 0.80089 0.0
H2326 H 0.00824 0.50766 0.82664 0.0
H2327 H 0.92497 0.44435 0.85792 0.0
H2328 H 0.92682 0.44371 0.83783 0.0
H2329 H 0.92154 0.46561 0.84683 0.0
C2330 C 0.95771 0.46402 0.79516 0.0
C2331 C 0.93894 0.46901 0.79191 0.0
C2332 C 0.96864 0.46907 0.80927 0.0
C2333 C 0.96103 0.47919 0.82041 0.0
C2334 C 0.94275 0.48477 0.81711 0.0
H2335 H 0.00816 0.5201 0.91247 0.0
H2336 H 0.98942 0.51466 0.88778 0.0
C2337 C 0.93172 0.47963 0.80301 0.0
C2338 C 0.9724 0.48399 0.83542 0.0
H2339 H 0.96004 0.46967 0.8723 0.0
C2340 C 0.99772 0.49934 0.83662 0.0
C2341 C 0.9586 0.47309 0.84842 0.0
C2342 C 0.93151 0.4556 0.84773 0.0
C2343 C 0.00961 0.5042 0.85051 0.0
C2344 C 0.99583 0.49321 0.86346 0.0
C2345 C 0.97049 0.47808 0.86231 0.0
C2346 C 0.00746 0.49676 0.8783 0.0
C2347 C 0.03678 0.52122 0.85125 0.0
C2348 C 0.02358 0.48825 0.88114 0.0
C2349 C 0.03413 0.4911 0.89526 0.0
C2350 C 0.02871 0.5025 0.90682 0.0
C2351 C 0.0125 0.51098 0.90389 0.0
C2352 C 1.00188 0.50803 0.88978 0.0
H2353 H 0.04366 0.53231 0.84101 0.0
H2354 H 0.04157 0.53323 0.8611 0.0
H2355 H 0.04634 0.51084 0.85239 0.0
H2356 H 0.02773 0.4791 0.87248 0.0
H2357 H 0.04618 0.48398 0.8972 0.0
H2358 H 0.5845 0.4811 0.80048 0.0
H2359 H 0.57455 0.48867 0.82566 0.0
H2360 H 0.49942 0.46001 0.8124 0.0
H2361 H 0.50919 0.45268 0.78726 0.0
H2362 H 0.55334 0.51657 0.83482 0.0
H2363 H 0.49484 0.4212 0.84991 0.0
H2364 H 0.51563 0.43075 0.83429 0.0
H2365 H 0.48654 0.42921 0.83257 0.0
C2366 C 0.5659 0.47658 0.8029 0.0
C2367 C 0.5476 0.46605 0.79188 0.0
C2368 C 0.56023 0.48081 0.8173 0.0
C2369 C 0.53616 0.47447 0.82097 0.0
C2370 C 0.518 0.4645 0.80992 0.0
H2371 H 0.45524 0.4817 0.89604 0.0
H2372 H 0.46995 0.47566 0.87211 0.0
C2373 C 0.52363 0.4603 0.79555 0.0
C2374 C 0.52989 0.47848 0.83628 0.0
H2375 H 0.49304 0.44966 0.86599 0.0
C2376 C 0.54035 0.50196 0.84172 0.0
C2377 C 0.51296 0.45936 0.84525 0.0
C2378 C 0.50199 0.43368 0.8403 0.0
C2379 C 0.53362 0.50691 0.85567 0.0
C2380 C 0.51628 0.4878 0.86451 0.0
C2381 C 0.50624 0.46429 0.85918 0.0
C2382 C 0.5077 0.4918 0.8791 0.0
C2383 C 0.54444 0.53259 0.86057 0.0
C2384 C 0.52398 0.50266 0.89106 0.0
C2385 C 0.51565 0.50632 0.90476 0.0
C2386 C 0.49082 0.49906 0.90679 0.0
C2387 C 0.47453 0.48789 0.89481 0.0
C2388 C 0.48288 0.48426 0.88114 0.0
H2389 H 0.55277 0.54517 0.85109 0.0
H2390 H 0.53036 0.53571 0.8658 0.0
H2391 H 0.55896 0.53678 0.86899 0.0
H2392 H 0.54313 0.50822 0.88984 0.0
H2393 H 0.52873 0.51512 0.91369 0.0
H2394 H 0.55575 0.05938 0.78561 0.0
H2395 H 0.5465 0.04228 0.81077 0.0
H2396 H 0.52454 0.09303 0.82384 0.0
H2397 H 0.53339 0.10993 0.79867 0.0
H2398 H 0.56461 0.06118 0.83796 0.0
H2399 H 0.46579 0.03144 0.83648 0.0
H2400 H 0.48465 0.04148 0.82001 0.0
H2401 H 0.4849 0.06281 0.83307 0.0
C2402 C 0.54902 0.06694 0.79386 0.0
C2403 C 0.5451 0.08589 0.79007 0.0
C2404 C 0.54368 0.05711 0.80824 0.0
C2405 C 0.53432 0.066 0.81917 0.0
C2406 C 0.53102 0.08534 0.81552 0.0
H2407 H 0.49224 0.02695 0.91266 0.0
H2408 H 0.50496 0.0483 0.88876 0.0
C2409 C 0.53617 0.09505 0.80112 0.0
C2410 C 0.52826 0.05516 0.83438 0.0
H2411 H 0.48195 0.02845 0.8598 0.0
C2412 C 0.54651 0.05397 0.8427 0.0
C2413 C 0.50463 0.04572 0.84063 0.0
C2414 C 0.48379 0.04518 0.83204 0.0
C2415 C 0.54183 0.04382 0.85706 0.0
C2416 C 0.51825 0.03443 0.86327 0.0
C2417 C 0.50007 0.0358 0.85505 0.0
C2418 C 0.51176 0.02219 0.878 0.0
C2419 C 0.56222 0.04339 0.86556 0.0
C2420 C 0.51133 0.00043 0.87989 0.0
C2421 C 0.504 0.98818 0.89347 0.0
C2422 C 0.49696 0.99744 0.90551 0.0
C2423 C 0.49777 0.01945 0.90367 0.0
C2424 C 0.50491 0.0316 0.89 0.0
H2425 H 0.58041 0.05607 0.86083 0.0
H2426 H 0.56194 0.04787 0.87752 0.0
H2427 H 0.55974 0.02515 0.86498 0.0
H2428 H 0.51626 0.99268 0.87074 0.0
H2429 H 0.50377 0.97138 0.89455 0.0
H2430 H 0.16663 0.27107 0.56409 0.0
H2431 H 0.17602 0.28779 0.5389 0.0
H2432 H 0.10039 0.24397 0.52636 0.0
H2433 H 0.09084 0.2269 0.55152 0.0
H2434 H 0.16911 0.26395 0.5114 0.0
H2435 H 0.11599 0.31119 0.51371 0.0
H2436 H 0.12352 0.30019 0.53024 0.0
H2437 H 0.09914 0.27994 0.51818 0.0
C2438 C 0.15197 0.26483 0.55597 0.0
C2439 C 0.12794 0.24761 0.55989 0.0
C2440 C 0.15737 0.27451 0.54157 0.0
C2441 C 0.13888 0.26738 0.53077 0.0
C2442 C 0.11489 0.25012 0.53459 0.0
H2443 H 0.14414 0.31558 0.43853 0.0
H2444 H 0.13091 0.29375 0.46219 0.0
C2445 C 0.10946 0.24039 0.54899 0.0
C2446 C 0.14492 0.27776 0.51548 0.0
H2447 H 0.13458 0.31196 0.49069 0.0
C2448 C 0.16155 0.27444 0.50687 0.0
C2449 C 0.13493 0.29131 0.50952 0.0
C2450 C 0.11755 0.2961 0.5184 0.0
C2451 C 0.16847 0.28429 0.4925 0.0
C2452 C 0.15891 0.29829 0.48666 0.0
C2453 C 0.14192 0.30124 0.49516 0.0
C2454 C 0.16703 0.31082 0.47204 0.0
C2455 C 0.18575 0.27934 0.48363 0.0
C2456 C 0.1917 0.32776 0.4697 0.0
C2457 C 0.19933 0.34013 0.45617 0.0
C2458 C 0.18244 0.33604 0.44467 0.0
C2459 C 0.15771 0.31899 0.44704 0.0
C2460 C 0.15008 0.3066 0.46061 0.0
H2461 H 0.18543 0.26288 0.48755 0.0
H2462 H 0.18117 0.27737 0.47154 0.0
H2463 H 0.20464 0.29448 0.48506 0.0
H2464 H 0.20507 0.33169 0.47843 0.0
H2465 H 0.21854 0.35293 0.45473 0.0
H2466 H 0.76011 0.85412 0.5485 0.0
H2467 H 0.74013 0.84485 0.52397 0.0
H2468 H 0.69547 0.87437 0.53805 0.0
H2469 H 0.71501 0.88337 0.56263 0.0
H2470 H 0.68861 0.81628 0.51698 0.0
H2471 H 0.72875 0.91078 0.49906 0.0
H2472 H 0.74099 0.90186 0.5144 0.0
H2473 H 0.71403 0.90411 0.51697 0.0
C2474 C 0.74588 0.85843 0.54642 0.0
C2475 C 0.73927 0.86965 0.55747 0.0
C2476 C 0.73459 0.85323 0.53239 0.0
C2477 C 0.71664 0.85928 0.52917 0.0
C2478 C 0.70965 0.87001 0.54025 0.0
H2479 H 0.62893 0.85003 0.45271 0.0
H2480 H 0.64818 0.85622 0.47728 0.0
C2481 C 0.72087 0.87518 0.55426 0.0
C2482 C 0.70509 0.85432 0.51424 0.0
H2483 H 0.69766 0.88147 0.48364 0.0
C2484 C 0.69066 0.83049 0.50963 0.0
C2485 C 0.70785 0.87295 0.50474 0.0
C2486 C 0.72391 0.89889 0.50894 0.0
C2487 C 0.67834 0.82474 0.49585 0.0
C2488 C 0.68097 0.84339 0.48638 0.0
C2489 C 0.69561 0.86722 0.49096 0.0
C2490 C 0.66863 0.83864 0.47168 0.0
C2491 C 0.66213 0.79879 0.49174 0.0
C2492 C 0.67383 0.82678 0.46039 0.0
C2493 C 0.66269 0.82301 0.44639 0.0
C2494 C 0.6463 0.83124 0.44338 0.0
C2495 C 0.64117 0.84315 0.45473 0.0
C2496 C 0.65228 0.84685 0.46873 0.0
H2497 H 0.65708 0.78702 0.5017 0.0
H2498 H 0.64514 0.79587 0.48617 0.0
H2499 H 0.67199 0.79333 0.48387 0.0
H2500 H 0.68675 0.82069 0.46234 0.0
H2501 H 0.66688 0.81359 0.43793 0.0
H2502 H 0.11505 0.82998 0.56313 0.0
H2503 H 0.12553 0.82177 0.53828 0.0
H2504 H 0.14349 0.89236 0.52392 0.0
H2505 H 0.13336 0.90074 0.54872 0.0
H2506 H 0.10776 0.82159 0.51021 0.0
H2507 H 0.2054 0.8915 0.51389 0.0
H2508 H 0.18545 0.88211 0.52988 0.0
H2509 H 0.18501 0.9029 0.51671 0.0
C2510 C 0.12109 0.84367 0.55463 0.0
C2511 C 0.12367 0.86611 0.55793 0.0
C2512 C 0.12714 0.839 0.54046 0.0
C2513 C 0.13583 0.85664 0.52933 0.0
C2514 C 0.13752 0.87872 0.53245 0.0
H2515 H 0.18317 0.86506 0.43729 0.0
H2516 H 0.16879 0.87127 0.46139 0.0
C2517 C 0.13166 0.88346 0.54662 0.0
C2518 C 0.14325 0.85206 0.51449 0.0
H2519 H 0.19117 0.87313 0.49016 0.0
C2520 C 0.12603 0.83277 0.50586 0.0
C2521 C 0.16713 0.86664 0.50882 0.0
C2522 C 0.18689 0.8868 0.51786 0.0
C2523 C 0.13192 0.82797 0.49161 0.0
C2524 C 0.15569 0.84272 0.48591 0.0
C2525 C 0.17291 0.86195 0.49453 0.0
C2526 C 0.16326 0.83832 0.47111 0.0
C2527 C 0.11259 0.80742 0.48262 0.0
C2528 C 0.16501 0.81779 0.46863 0.0
C2529 C 0.17328 0.81422 0.4549 0.0
C2530 C 0.17993 0.83113 0.44337 0.0
C2531 C 0.17794 0.85159 0.44587 0.0
C2532 C 0.16984 0.85522 0.45965 0.0
H2533 H 0.09399 0.80107 0.48714 0.0
H2534 H 0.113 0.81265 0.47077 0.0
H2535 H 0.11621 0.79231 0.48291 0.0
H2536 H 0.16033 0.80468 0.47739 0.0
H2537 H 0.17441 0.79819 0.45329 0.0
H2538 H 0.57261 0.76197 0.13683 0.0
H2539 H 0.59211 0.77072 0.16146 0.0
H2540 H 0.64388 0.84213 0.14705 0.0
H2541 H 0.62426 0.83356 0.12246 0.0
H2542 H 0.63883 0.78296 0.16826 0.0
H2543 H 0.621 0.85497 0.18638 0.0
H2544 H 0.60569 0.83588 0.17057 0.0
H2545 H 0.63626 0.86065 0.16871 0.0
C2546 C 0.58811 0.77955 0.13894 0.0
C2547 C 0.5969 0.7971 0.12774 0.0
C2548 C 0.59918 0.78455 0.15301 0.0
C2549 C 0.61923 0.80718 0.15616 0.0
C2550 C 0.62805 0.82475 0.145 0.0
H2551 H 0.71832 0.86522 0.23195 0.0
H2552 H 0.69863 0.85792 0.20736 0.0
C2553 C 0.61688 0.81981 0.13095 0.0
C2554 C 0.63155 0.81196 0.17091 0.0
H2555 H 0.64846 0.8488 0.20138 0.0
C2556 C 0.64082 0.79728 0.17554 0.0
C2557 C 0.63416 0.83068 0.18037 0.0
C2558 C 0.62355 0.84632 0.17635 0.0
C2559 C 0.65286 0.80097 0.18929 0.0
C2560 C 0.65555 0.81972 0.19869 0.0
C2561 C 0.64641 0.83449 0.19408 0.0
C2562 C 0.66747 0.82401 0.21348 0.0
C2563 C 0.66293 0.785 0.19362 0.0
C2564 C 0.65631 0.80741 0.22502 0.0
C2565 C 0.66746 0.81152 0.23904 0.0
C2566 C 0.68999 0.83231 0.24175 0.0
C2567 C 0.70111 0.84892 0.23014 0.0
C2568 C 0.68985 0.84486 0.21614 0.0
H2569 H 0.66376 0.77465 0.18394 0.0
H2570 H 0.68152 0.79567 0.19847 0.0
H2571 H 0.65098 0.77215 0.20223 0.0
H2572 H 0.63891 0.79133 0.2232 0.0
H2573 H 0.65855 0.79833 0.24774 0.0
H2574 H 0.22671 0.83594 0.12105 0.0
H2575 H 0.21645 0.84416 0.14594 0.0
H2576 H 0.19716 0.77311 0.16002 0.0
H2577 H 0.20765 0.76485 0.13523 0.0
H2578 H 0.16899 0.81655 0.16003 0.0
H2579 H 0.24378 0.81778 0.19345 0.0
H2580 H 0.24558 0.8218 0.17342 0.0
H2581 H 0.22748 0.79251 0.18122 0.0
C2582 C 0.22065 0.8222 0.12952 0.0
C2583 C 0.21801 0.79975 0.12617 0.0
C2584 C 0.21468 0.82688 0.1437 0.0
C2585 C 0.20627 0.80933 0.15485 0.0
C2586 C 0.20392 0.78701 0.15163 0.0
H2587 H 0.15522 0.79939 0.2461 0.0
H2588 H 0.16929 0.79309 0.22193 0.0
C2589 C 0.20972 0.78226 0.13742 0.0
C2590 C 0.19876 0.81391 0.16962 0.0
H2591 H 0.21217 0.81899 0.2069 0.0
C2592 C 0.17849 0.81723 0.17028 0.0
C2593 C 0.21108 0.81457 0.18296 0.0
C2594 C 0.23332 0.81167 0.18281 0.0
C2595 C 0.1699 0.82078 0.18397 0.0
C2596 C 0.18235 0.82167 0.19734 0.0
C2597 C 0.20266 0.81836 0.19666 0.0
C2598 C 0.17448 0.8259 0.21214 0.0
C2599 C 0.14714 0.82283 0.18398 0.0
C2600 C 0.17318 0.84666 0.2148 0.0
C2601 C 0.16503 0.85023 0.22856 0.0
C2602 C 0.15834 0.83328 0.24005 0.0
C2603 C 0.16034 0.81283 0.23751 0.0
C2604 C 0.16832 0.80919 0.22369 0.0
H2605 H 0.13605 0.81494 0.17372 0.0
H2606 H 0.13559 0.81381 0.19386 0.0
H2607 H 0.15243 0.84198 0.18438 0.0
H2608 H 0.17849 0.86015 0.20622 0.0
H2609 H 0.16416 0.86639 0.23026 0.0
H2610 H 0.20422 0.44805 0.13416 0.0
H2611 H 0.19559 0.43149 0.15944 0.0
H2612 H 0.21817 0.38107 0.14669 0.0
H2613 H 0.22719 0.39781 0.12147 0.0
H2614 H 0.16338 0.38771 0.16873 0.0
H2615 H 0.2558 0.40631 0.18488 0.0
H2616 H 0.25039 0.41932 0.16854 0.0
H2617 H 0.24534 0.38933 0.16791 0.0
C2618 C 0.20743 0.43349 0.13676 0.0
C2619 C 0.2165 0.42432 0.12579 0.0
C2620 C 0.20255 0.42407 0.15124 0.0
C2621 C 0.2066 0.40527 0.15512 0.0
C2622 C 0.21555 0.39602 0.14416 0.0
H2623 H 0.16904 0.30759 0.22909 0.0
H2624 H 0.18254 0.32973 0.2056 0.0
C2625 C 0.22063 0.40556 0.12971 0.0
C2626 C 0.20034 0.39461 0.17038 0.0
H2627 H 0.22287 0.37899 0.20042 0.0
C2628 C 0.17649 0.38606 0.17571 0.0
C2629 C 0.21742 0.39246 0.17957 0.0
C2630 C 0.24373 0.40257 0.17501 0.0
C2631 C 0.1691 0.37485 0.18971 0.0
C2632 C 0.186 0.37219 0.1987 0.0
C2633 C 0.20992 0.38098 0.19349 0.0
C2634 C 0.17886 0.35952 0.21327 0.0
C2635 C 0.14303 0.36527 0.19462 0.0
C2636 C 0.17273 0.36911 0.22551 0.0
C2637 C 0.16504 0.3565 0.239 0.0
C2638 C 0.16319 0.33397 0.24047 0.0
C2639 C 0.16991 0.32472 0.22827 0.0
C2640 C 0.17776 0.33741 0.21486 0.0
H2641 H 0.13121 0.36506 0.18535 0.0
H2642 H 0.1353 0.34685 0.19904 0.0
H2643 H 0.14255 0.37669 0.20373 0.0
H2644 H 0.17369 0.38627 0.22458 0.0
H2645 H 0.15992 0.36409 0.24815 0.0
H2646 H 0.83447 0.60687 0.89771 0.0
H2647 H 0.84322 0.62301 0.87235 0.0
H2648 H 0.76793 0.57661 0.86002 0.0
H2649 H 0.75903 0.56015 0.88533 0.0
H2650 H 0.83731 0.59888 0.84516 0.0
H2651 H 0.78057 0.64241 0.84646 0.0
H2652 H 0.78875 0.63242 0.86318 0.0
H2653 H 0.76482 0.61125 0.85121 0.0
C2654 C 0.81976 0.59995 0.8896 0.0
C2655 C 0.796 0.58219 0.89364 0.0
C2656 C 0.82478 0.6093 0.87511 0.0
C2657 C 0.80619 0.60127 0.86431 0.0
C2658 C 0.78248 0.58347 0.86824 0.0
H2659 H 0.80953 0.64673 0.77141 0.0
H2660 H 0.79686 0.62501 0.79515 0.0
C2661 C 0.77742 0.57408 0.88274 0.0
C2662 C 0.81184 0.61126 0.84889 0.0
H2663 H 0.79948 0.64336 0.82352 0.0
C2664 C 0.82903 0.6086 0.84043 0.0
C2665 C 0.80091 0.62379 0.84265 0.0
C2666 C 0.78288 0.62787 0.85135 0.0
C2667 C 0.83559 0.61812 0.82595 0.0
C2668 C 0.82509 0.63113 0.81984 0.0
C2669 C 0.80754 0.63339 0.82818 0.0
C2670 C 0.83289 0.64346 0.80513 0.0
C2671 C 0.85354 0.6139 0.81727 0.0
C2672 C 0.85732 0.66111 0.8028 0.0
C2673 C 0.86462 0.67341 0.78924 0.0
C2674 C 0.84763 0.66857 0.77767 0.0
C2675 C 0.82316 0.65074 0.77998 0.0
C2676 C 0.81586 0.63842 0.7936 0.0
H2677 H 0.85396 0.59789 0.82138 0.0
H2678 H 0.84903 0.61154 0.80517 0.0
H2679 H 0.87213 0.62955 0.81867 0.0
H2680 H 0.87074 0.66568 0.81159 0.0
H2681 H 0.88365 0.68682 0.78785 0.0
H2682 H 0.37407 0.16894 0.89649 0.0
H2683 H 0.35436 0.16057 0.8719 0.0
H2684 H 0.41453 0.22608 0.85497 0.0
H2685 H 0.43366 0.23494 0.87972 0.0
H2686 H 0.37364 0.22205 0.84594 0.0
H2687 H 0.36946 0.13575 0.83519 0.0
H2688 H 0.35404 0.1351 0.85212 0.0
H2689 H 0.38651 0.15489 0.8506 0.0
C2690 C 0.3831 0.18141 0.88745 0.0
C2691 C 0.40537 0.20252 0.88992 0.0
C2692 C 0.37193 0.17656 0.87339 0.0
C2693 C 0.38319 0.19244 0.86146 0.0
C2694 C 0.40551 0.21352 0.86396 0.0
H2695 H 0.3405 0.15704 0.76861 0.0
H2696 H 0.36059 0.16551 0.79289 0.0
C2697 C 0.41644 0.21857 0.87808 0.0
C2698 C 0.37132 0.18764 0.84654 0.0
H2699 H 0.34595 0.14568 0.81892 0.0
C2700 C 0.36774 0.2054 0.83999 0.0
C2701 C 0.36394 0.16608 0.83864 0.0
C2702 C 0.36892 0.14699 0.84443 0.0
C2703 C 0.35683 0.20215 0.82587 0.0
C2704 C 0.34833 0.18011 0.81831 0.0
C2705 C 0.35214 0.16244 0.82479 0.0
C2706 C 0.33603 0.17521 0.80352 0.0
C2707 C 0.35518 0.22267 0.81907 0.0
C2708 C 0.31532 0.17756 0.8014 0.0
C2709 C 0.30417 0.1734 0.78736 0.0
C2710 C 0.31313 0.16622 0.77521 0.0
C2711 C 0.33342 0.16315 0.77754 0.0
C2712 C 0.3448 0.16771 0.7915 0.0
H2713 H 0.36911 0.24008 0.82389 0.0
H2714 H 0.35769 0.22335 0.80677 0.0
H2715 H 0.33695 0.22043 0.82148 0.0
H2716 H 0.30776 0.18265 0.8106 0.0
H2717 H 0.28872 0.17613 0.78603 0.0
H2718 H 0.7564 0.18474 0.88454 0.0
H2719 H 0.76588 0.1756 0.85968 0.0
H2720 H 0.84122 0.20493 0.87269 0.0
H2721 H 0.83179 0.21337 0.89763 0.0
H2722 H 0.79855 0.20696 0.83867 0.0
H2723 H 0.82463 0.14023 0.85542 0.0
H2724 H 0.80845 0.14969 0.86772 0.0
H2725 H 0.84098 0.16786 0.86552 0.0
C2726 C 0.7749 0.1889 0.88217 0.0
C2727 C 0.79332 0.19974 0.8931 0.0
C2728 C 0.78032 0.18381 0.86793 0.0
C2729 C 0.80419 0.18927 0.86439 0.0
C2730 C 0.82259 0.20014 0.87525 0.0
H2731 H 0.88567 0.18773 0.788 0.0
H2732 H 0.87087 0.19274 0.81219 0.0
C2733 C 0.81721 0.20521 0.88946 0.0
C2734 C 0.81016 0.18438 0.84922 0.0
H2735 H 0.83571 0.15598 0.83075 0.0
C2736 C 0.80642 0.19561 0.8369 0.0
C2737 C 0.82039 0.16952 0.84693 0.0
C2738 C 0.82364 0.15593 0.85958 0.0
C2739 C 0.81349 0.19309 0.82243 0.0
C2740 C 0.8243 0.17873 0.82022 0.0
C2741 C 0.82756 0.1671 0.83249 0.0
C2742 C 0.83302 0.17602 0.80536 0.0
C2743 C 0.81012 0.20645 0.8097 0.0
C2744 C 0.81661 0.16484 0.7935 0.0
C2745 C 0.82499 0.16179 0.77965 0.0
C2746 C 0.84995 0.16977 0.77743 0.0
C2747 C 0.8663 0.18106 0.78936 0.0
C2748 C 0.8579 0.18405 0.80318 0.0
H2749 H 0.8064 0.2206 0.81374 0.0
H2750 H 0.82656 0.2148 0.80247 0.0
H2751 H 0.79439 0.19374 0.80274 0.0
H2752 H 0.79727 0.15811 0.79502 0.0
H2753 H 0.81184 0.15269 0.7708 0.0
H2754 H 0.2998 0.16551 0.45247 0.0
H2755 H 0.32089 0.17433 0.47665 0.0
H2756 H 0.26197 0.10886 0.49454 0.0
H2757 H 0.24146 0.09956 0.47021 0.0
H2758 H 0.30984 0.1821 0.50337 0.0
H2759 H 0.31844 0.10113 0.50593 0.0
H2760 H 0.30843 0.10946 0.48929 0.0
H2761 H 0.28718 0.09365 0.50412 0.0
C2762 C 0.29144 0.15304 0.4616 0.0
C2763 C 0.26918 0.13177 0.45951 0.0
C2764 C 0.30347 0.15806 0.47538 0.0
C2765 C 0.29332 0.14198 0.48734 0.0
C2766 C 0.2706 0.12113 0.48537 0.0
H2767 H 0.33424 0.17847 0.58032 0.0
H2768 H 0.31539 0.17095 0.55571 0.0
C2769 C 0.25881 0.11591 0.47152 0.0
C2770 C 0.30629 0.14722 0.50191 0.0
H2771 H 0.32616 0.12326 0.52865 0.0
C2772 C 0.31359 0.16931 0.50884 0.0
C2773 C 0.31164 0.13074 0.50894 0.0
C2774 C 0.30625 0.10755 0.5016 0.0
C2775 C 0.32562 0.17518 0.52271 0.0
C2776 C 0.32966 0.15812 0.53015 0.0
C2777 C 0.3228 0.13623 0.52307 0.0
C2778 C 0.34103 0.16254 0.54522 0.0
C2779 C 0.33431 0.19981 0.52904 0.0
C2780 C 0.36112 0.15932 0.54776 0.0
C2781 C 0.37143 0.16273 0.56201 0.0
C2782 C 0.36202 0.16965 0.57405 0.0
C2783 C 0.34186 0.17285 0.57144 0.0
C2784 C 0.3313 0.16901 0.55725 0.0
H2785 H 0.3373 0.21286 0.52007 0.0
H2786 H 0.32017 0.19919 0.53665 0.0
H2787 H 0.35159 0.20642 0.53542 0.0
H2788 H 0.36883 0.1541 0.5387 0.0
H2789 H 0.38657 0.15959 0.56359 0.0
H2790 H 0.84064 0.11928 0.45378 0.0
H2791 H 0.83111 0.12713 0.47888 0.0
H2792 H 0.90693 0.1587 0.49135 0.0
H2793 H 0.91663 0.15072 0.46625 0.0
H2794 H 0.83893 0.10964 0.50589 0.0
H2795 H 0.88914 0.20895 0.50496 0.0
H2796 H 0.88206 0.19116 0.48815 0.0
H2797 H 0.90676 0.19512 0.50002 0.0
C2798 C 0.85532 0.12788 0.46185 0.0
C2799 C 0.87941 0.13431 0.458 0.0
C2800 C 0.84984 0.13244 0.47618 0.0
C2801 C 0.86832 0.14368 0.48695 0.0
C2802 C 0.89244 0.1504 0.48313 0.0
H2803 H 0.86078 0.18125 0.58012 0.0
H2804 H 0.87478 0.17452 0.55603 0.0
C2805 C 0.89796 0.14584 0.46877 0.0
C2806 C 0.862 0.14742 0.50232 0.0
H2807 H 0.87059 0.19044 0.52776 0.0
C2808 C 0.84585 0.12731 0.51068 0.0
C2809 C 0.87121 0.17047 0.50858 0.0
C2810 C 0.88811 0.19272 0.49996 0.0
C2811 C 0.83859 0.12961 0.52511 0.0
C2812 C 0.84733 0.15268 0.53126 0.0
C2813 C 0.86387 0.17278 0.52302 0.0
C2814 C 0.83882 0.15632 0.54597 0.0
C2815 C 0.82181 0.10728 0.53372 0.0
C2816 C 0.814 0.1485 0.54829 0.0
C2817 C 0.80593 0.15217 0.56204 0.0
C2818 C 0.82254 0.16392 0.57378 0.0
C2819 C 0.84745 0.17184 0.5714 0.0
C2820 C 0.85551 0.16816 0.55761 0.0
H2821 H 0.82258 0.09153 0.52943 0.0
H2822 H 0.82651 0.10949 0.54579 0.0
H2823 H 0.80274 0.10351 0.5325 0.0
H2824 H 0.80084 0.1397 0.53939 0.0
H2825 H 0.78661 0.14565 0.5635 0.0
H2826 H 0.91571 0.7751 0.46552 0.0
H2827 H 0.90659 0.75746 0.49056 0.0
H2828 H 0.83105 0.71287 0.47808 0.0
H2829 H 0.84011 0.72967 0.45296 0.0
H2830 H 0.87467 0.7565 0.51227 0.0
H2831 H 0.84799 0.66442 0.4946 0.0
H2832 H 0.86369 0.68977 0.48235 0.0
H2833 H 0.83124 0.67609 0.48505 0.0
C2834 C 0.8972 0.76133 0.46804 0.0
C2835 C 0.87868 0.75378 0.45713 0.0
C2836 C 0.89199 0.75139 0.48241 0.0
C2837 C 0.86821 0.73355 0.48617 0.0
C2838 C 0.84964 0.72626 0.4754 0.0
H2839 H 0.79007 0.64958 0.56274 0.0
H2840 H 0.80372 0.67034 0.53889 0.0
C2841 C 0.85482 0.73614 0.46105 0.0
C2842 C 0.86262 0.72268 0.50137 0.0
H2843 H 0.83798 0.66915 0.51956 0.0
C2844 C 0.86686 0.73743 0.51389 0.0
C2845 C 0.85252 0.6978 0.50352 0.0
C2846 C 0.84881 0.68111 0.49069 0.0
C2847 C 0.86044 0.72786 0.52839 0.0
C2848 C 0.84977 0.70291 0.53047 0.0
C2849 C 0.846 0.68826 0.51798 0.0
C2850 C 0.84167 0.69141 0.54538 0.0
C2851 C 0.86438 0.74443 0.54132 0.0
C2852 C 0.85843 0.69636 0.55707 0.0
C2853 C 0.85068 0.68436 0.57077 0.0
C2854 C 0.82601 0.66702 0.57303 0.0
C2855 C 0.80926 0.66248 0.56136 0.0
C2856 C 0.81702 0.67444 0.54771 0.0
H2857 H 0.86762 0.76213 0.5375 0.0
H2858 H 0.84839 0.73653 0.54892 0.0
H2859 H 0.88059 0.7473 0.54781 0.0
H2860 H 0.87763 0.70907 0.55547 0.0
H2861 H 0.86414 0.68812 0.57941 0.0
loop_
_geom_bond_atom_site_label_1
_geom_bond_atom_site_label_2
_geom_bond_distance
_geom_bond_site_symmetry_2
_ccdc_geom_bond_type
H0 C3 0.931 . S
H1 C6 0.928 . S
H2 C8 0.930 . S
C3 H0 0.931 . S
C3 C4 1.413 . S
C3 C5 1.360 . S
C4 C3 1.413 . S
C4 C8 1.429 . S
C5 C3 1.360 . S
C5 C6 1.372 . S
C6 H1 0.928 . S
C6 C5 1.372 . S
C6 C7 1.404 . S
C7 C6 1.404 . S
C7 C8 1.391 . S
C8 H2 0.930 . S
C8 C4 1.429 . S
C8 C7 1.391 . S
H9 C12 0.931 . S
H10 C15 0.928 . S
H11 C17 0.930 . S
C12 H9 0.931 . S
C12 C13 1.413 . S
C12 C14 1.360 . S
C13 C12 1.413 . S
C13 C17 1.429 . S
C14 C12 1.360 . S
C14 C15 1.372 . S
C15 H10 0.928 . S
C15 C14 1.372 . S
C15 C16 1.404 . S
C16 C15 1.404 . S
C16 C17 1.391 . S
C17 H11 0.930 . S
C17 C13 1.429 . S
C17 C16 1.391 . S
H18 C21 0.931 . S
H19 C24 0.928 . S
H20 C26 0.930 . S
C21 H18 0.931 . S
C21 C22 1.413 . S
C21 C23 1.360 . S
C22 C21 1.413 . S
C22 C26 1.429 . S
C23 C21 1.360 . S
C23 C24 1.372 . S
C24 H19 0.928 . S
C24 C23 1.372 . S
C24 C25 1.404 . S
C25 C24 1.404 . S
C25 C26 1.391 . S
C26 H20 0.930 . S
C26 C22 1.429 . S
C26 C25 1.391 . S
H27 C30 0.931 . S
H28 C33 0.928 . S
H29 C35 0.930 . S
C30 H27 0.931 . S
C30 C31 1.413 . S
C30 C32 1.360 . S
C31 C30 1.413 . S
C31 C35 1.429 . S
C32 C30 1.360 . S
C32 C33 1.372 . S
C33 H28 0.928 . S
C33 C32 1.372 . S
C33 C34 1.404 . S
C34 C33 1.404 . S
C34 C35 1.391 . S
C35 H29 0.930 . S
C35 C31 1.429 . S
C35 C34 1.391 . S
H36 C39 0.931 . S
H37 C42 0.928 . S
H38 C44 0.930 . S
C39 H36 0.931 . S
C39 C40 1.413 . S
C39 C41 1.360 . S
C40 C39 1.413 . S
C40 C44 1.429 . S
C41 C39 1.360 . S
C41 C42 1.372 . S
C42 H37 0.928 . S
C42 C41 1.372 . S
C42 C43 1.404 . S
C43 C42 1.404 . S
C43 C44 1.391 . S
C44 H38 0.930 . S
C44 C40 1.429 . S
C44 C43 1.391 . S
H45 C48 0.931 . S
H46 C51 0.928 . S
H47 C53 0.930 . S
C48 H45 0.931 . S
C48 C49 1.413 . S
C48 C50 1.360 . S
C49 C48 1.413 . S
C49 C53 1.429 . S
C50 C48 1.360 . S
C50 C51 1.372 . S
C51 H46 0.928 . S
C51 C50 1.372 . S
C51 C52 1.404 . S
C52 C51 1.404 . S
C52 C53 1.391 . S
C53 H47 0.930 . S
C53 C49 1.429 . S
C53 C52 1.391 . S
H54 C57 0.931 . S
H55 C60 0.928 . S
H56 C62 0.930 . S
C57 H54 0.931 . S
C57 C58 1.413 . S
C57 C59 1.360 . S
C58 C57 1.413 . S
C58 C62 1.429 . S
C59 C57 1.360 . S
C59 C60 1.372 . S
C60 H55 0.928 . S
C60 C59 1.372 . S
C60 C61 1.404 . S
C61 C60 1.404 . S
C61 C62 1.391 . S
C62 H56 0.930 . S
C62 C58 1.429 . S
C62 C61 1.391 . S
H63 C66 0.931 . S
H64 C69 0.928 . S
H65 C71 0.930 . S
C66 H63 0.931 . S
C66 C67 1.413 . S
C66 C68 1.360 . S
C67 C66 1.413 . S
C67 C71 1.429 . S
C68 C66 1.360 . S
C68 C69 1.372 . S
C69 H64 0.928 . S
C69 C68 1.372 . S
C69 C70 1.404 . S
C70 C69 1.404 . S
C70 C71 1.391 . S
C71 H65 0.930 . S
C71 C67 1.429 . S
C71 C70 1.391 . S
H72 C75 0.931 . S
H73 C78 0.928 . S
H74 C80 0.930 . S
C75 H72 0.931 . S
C75 C76 1.413 . S
C75 C77 1.360 . S
C76 C75 1.413 . S
C76 C80 1.429 . S
C77 C75 1.360 . S
C77 C78 1.372 . S
C78 H73 0.928 . S
C78 C77 1.372 . S
C78 C79 1.404 . S
C79 C78 1.404 . S
C79 C80 1.391 . S
C80 H74 0.930 . S
C80 C76 1.429 . S
C80 C79 1.391 . S
H81 C84 0.931 . S
H82 C87 0.928 . S
H83 C89 0.930 . S
C84 H81 0.931 . S
C84 C85 1.413 . S
C84 C86 1.360 . S
C85 C84 1.413 . S
C85 C89 1.429 . S
C86 C84 1.360 . S
C86 C87 1.372 . S
C87 H82 0.928 . S
C87 C86 1.372 . S
C87 C88 1.404 . S
C88 C87 1.404 . S
C88 C89 1.391 . S
C89 H83 0.930 . S
C89 C85 1.429 . S
C89 C88 1.391 . S
H90 C93 0.931 . S
H91 C96 0.928 . S
H92 C98 0.930 . S
C93 H90 0.931 . S
C93 C94 1.413 . S
C93 C95 1.360 . S
C94 C93 1.413 . S
C94 C98 1.429 . S
C95 C93 1.360 . S
C95 C96 1.372 . S
C96 H91 0.928 . S
C96 C95 1.372 . S
C96 C97 1.404 . S
C97 C96 1.404 . S
C97 C98 1.391 . S
C98 H92 0.930 . S
C98 C94 1.429 . S
C98 C97 1.391 . S
H99 C102 0.931 . S
H100 C105 0.928 . S
H101 C107 0.930 . S
C102 H99 0.931 . S
C102 C103 1.413 . S
C102 C104 1.360 . S
C103 C102 1.413 . S
C103 C107 1.429 . S
C104 C102 1.360 . S
C104 C105 1.372 . S
C105 H100 0.928 . S
C105 C104 1.372 . S
C105 C106 1.404 . S
C106 C105 1.404 . S
C106 C107 1.391 . S
C107 H101 0.930 . S
C107 C103 1.429 . S
C107 C106 1.391 . S
H108 C111 0.931 . S
H109 C114 0.928 . S
H110 C116 0.930 . S
C111 H108 0.931 . S
C111 C112 1.413 . S
C111 C113 1.360 . S
C112 C111 1.413 . S
C112 C116 1.429 . S
C113 C111 1.360 . S
C113 C114 1.372 . S
C114 H109 0.928 . S
C114 C113 1.372 . S
C114 C115 1.404 . S
C115 C114 1.404 . S
C115 C116 1.391 . S
C116 H110 0.930 . S
C116 C112 1.429 . S
C116 C115 1.391 . S
H117 C120 0.931 . S
H118 C123 0.928 . S
H119 C125 0.930 . S
C120 H117 0.931 . S
C120 C121 1.413 . S
C120 C122 1.360 . S
C121 C120 1.413 . S
C121 C125 1.429 . S
C122 C120 1.360 . S
C122 C123 1.372 . S
C123 H118 0.928 . S
C123 C122 1.372 . S
C123 C124 1.404 . S
C124 C123 1.404 . S
C124 C125 1.391 . S
C125 H119 0.930 . S
C125 C121 1.429 . S
C125 C124 1.391 . S
H126 C129 0.931 . S
H127 C132 0.928 . S
H128 C134 0.930 . S
C129 H126 0.931 . S
C129 C130 1.413 . S
C129 C131 1.360 . S
C130 C129 1.413 . S
C130 C134 1.429 . S
C131 C129 1.360 . S
C131 C132 1.372 . S
C132 H127 0.928 . S
C132 C131 1.372 . S
C132 C133 1.404 . S
C133 C132 1.404 . S
C133 C134 1.391 . S
C134 H128 0.930 . S
C134 C130 1.429 . S
C134 C133 1.391 . S
H135 C138 0.931 . S
H136 C141 0.928 . S
H137 C143 0.930 . S
C138 H135 0.931 . S
C138 C139 1.413 . S
C138 C140 1.360 . S
C139 C138 1.413 . S
C139 C143 1.429 . S
C140 C138 1.360 . S
C140 C141 1.372 . S
C141 H136 0.928 . S
C141 C140 1.372 . S
C141 C142 1.404 . S
C142 C141 1.404 . S
C142 C143 1.391 . S
C143 H137 0.930 . S
C143 C139 1.429 . S
C143 C142 1.391 . S
H144 C147 0.931 . S
H145 C150 0.928 . S
H146 C152 0.930 . S
C147 H144 0.931 . S
C147 C148 1.413 . S
C147 C149 1.360 . S
C148 C147 1.413 . S
C148 C152 1.429 . S
C149 C147 1.360 . S
C149 C150 1.372 . S
C150 H145 0.928 . S
C150 C149 1.372 . S
C150 C151 1.404 . S
C151 C150 1.404 . S
C151 C152 1.391 . S
C152 H146 0.930 . S
C152 C148 1.429 . S
C152 C151 1.391 . S
H153 C156 0.931 . S
H154 C159 0.928 . S
H155 C161 0.930 . S
C156 H153 0.931 . S
C156 C157 1.413 . S
C156 C158 1.360 . S
C157 C156 1.413 . S
C157 C161 1.429 . S
C158 C156 1.360 . S
C158 C159 1.372 . S
C159 H154 0.928 . S
C159 C158 1.372 . S
C159 C160 1.404 . S
C160 C159 1.404 . S
C160 C161 1.391 . S
C161 H155 0.930 . S
C161 C157 1.429 . S
C161 C160 1.391 . S
Eu162 N193 2.657 . S
Eu162 N200 2.609 . S
Eu162 O206 2.558 . S
Eu162 O207 2.612 1_565 S
Eu162 O209 2.339 1_565 S
Eu162 O210 2.563 1_565 S
Eu162 O211 2.419 . S
Eu162 O213 2.380 1_556 S
Eu162 O214 2.432 . S
Eu162 C226 2.848 . S
C163 C166 1.429 . S
C163 C167 1.411 . S
C163 N170 1.377 . S
C164 C166 1.420 . S
C164 C168 1.423 . S
C164 C176 1.392 . S
C165 C167 1.420 . S
C165 C168 1.351 . S
C165 H188 0.931 . S
C166 C163 1.429 . S
C166 C164 1.420 . S
C166 N174 1.362 . S
C167 C163 1.411 . S
C167 C165 1.420 . S
C167 C172 1.395 . S
C168 C164 1.423 . S
C168 C165 1.351 . S
C168 H180 0.930 . S
C169 C171 1.400 . S
C169 C172 1.386 . S
C169 H181 0.930 . S
N170 C163 1.377 . S
N170 C171 1.321 . S
N170 Eu173 2.609 . S
C171 C169 1.400 . S
C171 N170 1.321 . S
C171 H178 0.930 . S
C172 C167 1.395 . S
C172 C169 1.386 . S
C172 H191 0.930 . S
Eu173 N170 2.609 . S
Eu173 N174 2.657 . S
Eu173 O207 2.380 1_554 S
Eu173 O208 2.432 . S
Eu173 O212 2.558 . S
Eu173 O213 2.612 1_545 S
Eu173 O215 2.339 1_545 S
Eu173 O216 2.563 1_545 S
Eu173 O217 2.419 . S
Eu173 C237 2.848 . S
N174 C166 1.362 . S
N174 Eu173 2.657 . S
N174 C175 1.334 . S
C175 N174 1.334 . S
C175 C177 1.413 . S
C175 H182 0.929 . S
C176 C164 1.392 . S
C176 C177 1.367 . S
C176 H184 0.930 . S
C177 C175 1.413 . S
C177 C176 1.367 . S
C177 H179 0.930 . S
H178 C171 0.930 . S
H179 C177 0.930 . S
H180 C168 0.930 . S
H181 C169 0.930 . S
H182 C175 0.929 . S
H183 C197 0.930 . S
H184 C176 0.930 . S
H185 C203 0.930 . S
H186 C194 0.929 . S
H187 C201 0.930 . S
H188 C165 0.931 . S
H189 C195 0.930 . S
H190 C228 0.930 . S
H191 C172 0.930 . S
H192 C227 0.931 . S
N193 Eu162 2.657 . S
N193 C194 1.334 . S
N193 C198 1.362 . S
C194 H186 0.929 . S
C194 N193 1.334 . S
C194 C197 1.413 . S
C195 H189 0.930 . S
C195 C196 1.392 . S
C195 C197 1.367 . S
C196 C195 1.392 . S
C196 C198 1.420 . S
C196 C228 1.423 . S
C197 H183 0.930 . S
C197 C194 1.413 . S
C197 C195 1.367 . S
C198 N193 1.362 . S
C198 C196 1.420 . S
C198 C202 1.429 . S
H199 C204 0.930 . S
N200 Eu162 2.609 . S
N200 C202 1.377 . S
N200 C203 1.321 . S
C201 H187 0.930 . S
C201 C203 1.400 . S
C201 C204 1.386 . S
C202 C198 1.429 . S
C202 N200 1.377 . S
C202 C205 1.411 . S
C203 H185 0.930 . S
C203 N200 1.321 . S
C203 C201 1.400 . S
C204 H199 0.930 . S
C204 C201 1.386 . S
C204 C205 1.395 . S
C205 C202 1.411 . S
C205 C204 1.395 . S
C205 C227 1.420 . S
O206 Eu162 2.558 . S
O206 C226 1.257 . S
O207 Eu162 2.612 1_545 S
O207 Eu173 2.380 1_556 S
O207 C218 1.276 . S
O208 Eu173 2.432 . S
O208 C225 1.264 1_554 S
O209 Eu162 2.339 1_545 S
O209 C225 1.254 . S
O210 Eu162 2.563 1_545 S
O210 C218 1.235 . S
O211 Eu162 2.419 . S
O211 C226 1.249 . S
O212 Eu173 2.558 . S
O212 C237 1.257 . S
O213 Eu162 2.380 1_554 S
O213 Eu173 2.612 1_565 S
O213 C229 1.276 . S
O214 Eu162 2.432 . S
O214 C236 1.264 1_556 S
O215 Eu173 2.339 1_565 S
O215 C236 1.254 . S
O216 Eu173 2.563 1_565 S
O216 C229 1.235 . S
O217 Eu173 2.419 . S
O217 C237 1.249 . S
C218 O207 1.276 . S
C218 O210 1.235 . S
C219 C221 1.393 1_565 S
C219 C223 1.395 . S
C219 C226 1.492 . S
C220 C221 1.392 . S
C220 C222 1.386 1_545 S
C221 C219 1.393 1_545 S
C221 C220 1.392 . S
C221 H238 0.930 . S
C222 C220 1.386 1_565 S
C222 C224 1.395 . S
C222 H239 0.930 . S
C223 C219 1.395 . S
C223 C224 1.379 . S
C223 H240 0.930 . S
C224 C222 1.395 . S
C224 C223 1.379 . S
C224 H241 0.930 . S
C225 O208 1.264 1_556 S
C225 O209 1.254 . S
C226 Eu162 2.848 . S
C226 O206 1.257 . S
C226 O211 1.249 . S
C226 C219 1.492 . S
C227 H192 0.931 . S
C227 C205 1.420 . S
C227 C228 1.351 . S
C228 H190 0.930 . S
C228 C196 1.423 . S
C228 C227 1.351 . S
C229 O213 1.276 . S
C229 O216 1.235 . S
C230 C231 1.393 1_545 S
C230 C234 1.395 . S
C230 C237 1.492 . S
C231 C230 1.393 1_565 S
C231 C232 1.392 . S
C231 H242 0.930 . S
C232 C231 1.392 . S
C232 C233 1.386 1_565 S
C233 C232 1.386 1_545 S
C233 C235 1.395 . S
C233 H243 0.930 . S
C234 C230 1.395 . S
C234 C235 1.379 . S
C234 H244 0.930 . S
C235 C233 1.395 . S
C235 C234 1.379 . S
C235 H245 0.930 . S
C236 O214 1.264 1_554 S
C236 O215 1.254 . S
C237 Eu173 2.848 . S
C237 O212 1.257 . S
C237 O217 1.249 . S
C237 C230 1.492 . S
H238 C221 0.930 . S
H239 C222 0.930 . S
H240 C223 0.930 . S
H241 C224 0.930 . S
H242 C231 0.930 . S
H243 C233 0.930 . S
H244 C234 0.930 . S
H245 C235 0.930 . S
Eu246 N277 2.657 . S
Eu246 N284 2.609 . S
Eu246 O290 2.558 . S
Eu246 O291 2.612 1_455 S
Eu246 O293 2.339 1_455 S
Eu246 O294 2.563 1_455 S
Eu246 O295 2.419 . S
Eu246 O297 2.380 1_556 S
Eu246 O298 2.432 . S
Eu246 C310 2.848 . S
C247 C250 1.429 . S
C247 C251 1.411 . S
C247 N254 1.377 . S
C248 C250 1.420 . S
C248 C252 1.423 . S
C248 C260 1.392 . S
C249 C251 1.420 . S
C249 C252 1.351 . S
C249 H272 0.931 . S
C250 C247 1.429 . S
C250 C248 1.420 . S
C250 N258 1.362 . S
C251 C247 1.411 . S
C251 C249 1.420 . S
C251 C256 1.395 . S
C252 C248 1.423 . S
C252 C249 1.351 . S
C252 H264 0.930 . S
C253 C255 1.400 . S
C253 C256 1.386 . S
C253 H265 0.930 . S
N254 C247 1.377 . S
N254 C255 1.321 . S
N254 Eu257 2.609 . S
C255 C253 1.400 . S
C255 N254 1.321 . S
C255 H262 0.930 . S
C256 C251 1.395 . S
C256 C253 1.386 . S
C256 H275 0.930 . S
Eu257 N254 2.609 . S
Eu257 N258 2.657 . S
Eu257 O291 2.380 1_554 S
Eu257 O292 2.432 . S
Eu257 O296 2.558 . S
Eu257 O297 2.612 1_655 S
Eu257 O299 2.339 1_655 S
Eu257 O300 2.563 1_655 S
Eu257 O301 2.419 . S
Eu257 C321 2.848 . S
N258 C250 1.362 . S
N258 Eu257 2.657 . S
N258 C259 1.334 . S
C259 N258 1.334 . S
C259 C261 1.413 . S
C259 H266 0.929 . S
C260 C248 1.392 . S
C260 C261 1.367 . S
C260 H268 0.930 . S
C261 C259 1.413 . S
C261 C260 1.367 . S
C261 H263 0.930 . S
H262 C255 0.930 . S
H263 C261 0.930 . S
H264 C252 0.930 . S
H265 C253 0.930 . S
H266 C259 0.929 . S
H267 C281 0.930 . S
H268 C260 0.930 . S
H269 C287 0.930 . S
H270 C278 0.929 . S
H271 C285 0.930 . S
H272 C249 0.931 . S
H273 C279 0.930 . S
H274 C312 0.930 . S
H275 C256 0.930 . S
H276 C311 0.931 . S
N277 Eu246 2.657 . S
N277 C278 1.334 . S
N277 C282 1.362 . S
C278 H270 0.929 . S
C278 N277 1.334 . S
C278 C281 1.413 . S
C279 H273 0.930 . S
C279 C280 1.392 . S
C279 C281 1.367 . S
C280 C279 1.392 . S
C280 C282 1.420 . S
C280 C312 1.423 . S
C281 H267 0.930 . S
C281 C278 1.413 . S
C281 C279 1.367 . S
C282 N277 1.362 . S
C282 C280 1.420 . S
C282 C286 1.429 . S
H283 C288 0.930 . S
N284 Eu246 2.609 . S
N284 C286 1.377 . S
N284 C287 1.321 . S
C285 H271 0.930 . S
C285 C287 1.400 . S
C285 C288 1.386 . S
C286 C282 1.429 . S
C286 N284 1.377 . S
C286 C289 1.411 . S
C287 H269 0.930 . S
C287 N284 1.321 . S
C287 C285 1.400 . S
C288 H283 0.930 . S
C288 C285 1.386 . S
C288 C289 1.395 . S
C289 C286 1.411 . S
C289 C288 1.395 . S
C289 C311 1.420 . S
O290 Eu246 2.558 . S
O290 C310 1.257 . S
O291 Eu246 2.612 1_655 S
O291 Eu257 2.380 1_556 S
O291 C302 1.276 . S
O292 Eu257 2.432 . S
O292 C309 1.264 1_554 S
O293 Eu246 2.339 1_655 S
O293 C309 1.254 . S
O294 Eu246 2.563 1_655 S
O294 C302 1.235 . S
O295 Eu246 2.419 . S
O295 C310 1.249 . S
O296 Eu257 2.558 . S
O296 C321 1.257 . S
O297 Eu246 2.380 1_554 S
O297 Eu257 2.612 1_455 S
O297 C313 1.276 . S
O298 Eu246 2.432 . S
O298 C320 1.264 1_556 S
O299 Eu257 2.339 1_455 S
O299 C320 1.254 . S
O300 Eu257 2.563 1_455 S
O300 C313 1.235 . S
O301 Eu257 2.419 . S
O301 C321 1.249 . S
C302 O291 1.276 . S
C302 O294 1.235 . S
C303 C305 1.393 1_455 S
C303 C307 1.395 . S
C303 C310 1.492 . S
C304 C305 1.392 . S
C304 C306 1.386 1_655 S
C305 C303 1.393 1_655 S
C305 C304 1.392 . S
C305 H322 0.930 . S
C306 C304 1.386 1_455 S
C306 C308 1.395 . S
C306 H323 0.930 . S
C307 C303 1.395 . S
C307 C308 1.379 . S
C307 H324 0.930 . S
C308 C306 1.395 . S
C308 C307 1.379 . S
C308 H325 0.930 . S
C309 O292 1.264 1_556 S
C309 O293 1.254 . S
C310 Eu246 2.848 . S
C310 O290 1.257 . S
C310 O295 1.249 . S
C310 C303 1.492 . S
C311 H276 0.931 . S
C311 C289 1.420 . S
C311 C312 1.351 . S
C312 H274 0.930 . S
C312 C280 1.423 . S
C312 C311 1.351 . S
C313 O297 1.276 . S
C313 O300 1.235 . S
C314 C315 1.393 1_655 S
C314 C318 1.395 . S
C314 C321 1.492 . S
C315 C314 1.393 1_455 S
C315 C316 1.392 . S
C315 H326 0.930 . S
C316 C315 1.392 . S
C316 C317 1.386 1_455 S
C317 C316 1.386 1_655 S
C317 C319 1.395 . S
C317 H327 0.930 . S
C318 C314 1.395 . S
C318 C319 1.379 . S
C318 H328 0.930 . S
C319 C317 1.395 . S
C319 C318 1.379 . S
C319 H329 0.930 . S
C320 O298 1.264 1_554 S
C320 O299 1.254 . S
C321 Eu257 2.848 . S
C321 O296 1.257 . S
C321 O301 1.249 . S
C321 C314 1.492 . S
H322 C305 0.930 . S
H323 C306 0.930 . S
H324 C307 0.930 . S
H325 C308 0.930 . S
H326 C315 0.930 . S
H327 C317 0.930 . S
H328 C318 0.930 . S
H329 C319 0.930 . S
Eu330 N361 2.657 . S
Eu330 N368 2.609 . S
Eu330 O374 2.558 . S
Eu330 O375 2.612 . S
Eu330 O377 2.339 . S
Eu330 O378 2.563 . S
Eu330 O379 2.419 . S
Eu330 O381 2.380 1_554 S
Eu330 O382 2.432 . S
Eu330 C394 2.848 . S
C331 C334 1.429 . S
C331 C335 1.411 . S
C331 N338 1.377 . S
C332 C334 1.420 . S
C332 C336 1.423 . S
C332 C344 1.392 . S
C333 C335 1.420 . S
C333 C336 1.351 . S
C333 H356 0.931 . S
C334 C331 1.429 . S
C334 C332 1.420 . S
C334 N342 1.362 . S
C335 C331 1.411 . S
C335 C333 1.420 . S
C335 C340 1.395 . S
C336 C332 1.423 . S
C336 C333 1.351 . S
C336 H348 0.930 . S
C337 C339 1.400 . S
C337 C340 1.386 . S
C337 H349 0.930 . S
N338 C331 1.377 . S
N338 C339 1.321 . S
N338 Eu341 2.609 . S
C339 C337 1.400 . S
C339 N338 1.321 . S
C339 H346 0.930 . S
C340 C335 1.395 . S
C340 C337 1.386 . S
C340 H359 0.930 . S
Eu341 N338 2.609 . S
Eu341 N342 2.657 . S
Eu341 O375 2.380 1_556 S
Eu341 O376 2.432 . S
Eu341 O380 2.558 . S
Eu341 O381 2.612 . S
Eu341 O383 2.339 . S
Eu341 O384 2.563 . S
Eu341 O385 2.419 . S
Eu341 C405 2.848 . S
N342 C334 1.362 . S
N342 Eu341 2.657 . S
N342 C343 1.334 . S
C343 N342 1.334 . S
C343 C345 1.413 . S
C343 H350 0.929 . S
C344 C332 1.392 . S
C344 C345 1.367 . S
C344 H352 0.930 . S
C345 C343 1.413 . S
C345 C344 1.367 . S
C345 H347 0.930 . S
H346 C339 0.930 . S
H347 C345 0.930 . S
H348 C336 0.930 . S
H349 C337 0.930 . S
H350 C343 0.929 . S
H351 C365 0.930 . S
H352 C344 0.930 . S
H353 C371 0.930 . S
H354 C362 0.929 . S
H355 C369 0.930 . S
H356 C333 0.931 . S
H357 C363 0.930 . S
H358 C396 0.930 . S
H359 C340 0.930 . S
H360 C395 0.931 . S
N361 Eu330 2.657 . S
N361 C362 1.334 . S
N361 C366 1.362 . S
C362 H354 0.929 . S
C362 N361 1.334 . S
C362 C365 1.413 . S
C363 H357 0.930 . S
C363 C364 1.392 . S
C363 C365 1.367 . S
C364 C363 1.392 . S
C364 C366 1.420 . S
C364 C396 1.423 . S
C365 H351 0.930 . S
C365 C362 1.413 . S
C365 C363 1.367 . S
C366 N361 1.362 . S
C366 C364 1.420 . S
C366 C370 1.429 . S
H367 C372 0.930 . S
N368 Eu330 2.609 . S
N368 C370 1.377 . S
N368 C371 1.321 . S
C369 H355 0.930 . S
C369 C371 1.400 . S
C369 C372 1.386 . S
C370 C366 1.429 . S
C370 N368 1.377 . S
C370 C373 1.411 . S
C371 H353 0.930 . S
C371 N368 1.321 . S
C371 C369 1.400 . S
C372 H367 0.930 . S
C372 C369 1.386 . S
C372 C373 1.395 . S
C373 C370 1.411 . S
C373 C372 1.395 . S
C373 C395 1.420 . S
O374 Eu330 2.558 . S
O374 C394 1.257 . S
O375 Eu330 2.612 . S
O375 Eu341 2.380 1_554 S
O375 C386 1.276 . S
O376 Eu341 2.432 . S
O376 C393 1.264 1_556 S
O377 Eu330 2.339 . S
O377 C393 1.254 . S
O378 Eu330 2.563 . S
O378 C386 1.235 . S
O379 Eu330 2.419 . S
O379 C394 1.249 . S
O380 Eu341 2.558 . S
O380 C405 1.257 . S
O381 Eu330 2.380 1_556 S
O381 Eu341 2.612 . S
O381 C397 1.276 . S
O382 Eu330 2.432 . S
O382 C404 1.264 1_554 S
O383 Eu341 2.339 . S
O383 C404 1.254 . S
O384 Eu341 2.563 . S
O384 C397 1.235 . S
O385 Eu341 2.419 . S
O385 C405 1.249 . S
C386 O375 1.276 . S
C386 O378 1.235 . S
C387 C389 1.393 . S
C387 C391 1.395 . S
C387 C394 1.492 . S
C388 C389 1.392 . S
C388 C390 1.386 . S
C389 C387 1.393 . S
C389 C388 1.392 . S
C389 H406 0.930 . S
C390 C388 1.386 . S
C390 C392 1.395 . S
C390 H407 0.930 . S
C391 C387 1.395 . S
C391 C392 1.379 . S
C391 H408 0.930 . S
C392 C390 1.395 . S
C392 C391 1.379 . S
C392 H409 0.930 . S
C393 O376 1.264 1_554 S
C393 O377 1.254 . S
C394 Eu330 2.848 . S
C394 O374 1.257 . S
C394 O379 1.249 . S
C394 C387 1.492 . S
C395 H360 0.931 . S
C395 C373 1.420 . S
C395 C396 1.351 . S
C396 H358 0.930 . S
C396 C364 1.423 . S
C396 C395 1.351 . S
C397 O381 1.276 . S
C397 O384 1.235 . S
C398 C399 1.393 . S
C398 C402 1.395 . S
C398 C405 1.492 . S
C399 C398 1.393 . S
C399 C400 1.392 . S
C399 H410 0.930 . S
C400 C399 1.392 . S
C400 C401 1.386 . S
C401 C400 1.386 . S
C401 C403 1.395 . S
C401 H411 0.930 . S
C402 C398 1.395 . S
C402 C403 1.379 . S
C402 H412 0.930 . S
C403 C401 1.395 . S
C403 C402 1.379 . S
C403 H413 0.930 . S
C404 O382 1.264 1_556 S
C404 O383 1.254 . S
C405 Eu341 2.848 . S
C405 O380 1.257 . S
C405 O385 1.249 . S
C405 C398 1.492 . S
H406 C389 0.930 . S
H407 C390 0.930 . S
H408 C391 0.930 . S
H409 C392 0.930 . S
H410 C399 0.930 . S
H411 C401 0.930 . S
H412 C402 0.930 . S
H413 C403 0.930 . S
Eu414 N445 2.657 . S
Eu414 N452 2.609 . S
Eu414 O458 2.558 . S
Eu414 O459 2.612 . S
Eu414 O461 2.339 . S
Eu414 O462 2.563 . S
Eu414 O463 2.419 . S
Eu414 O465 2.380 . S
Eu414 O466 2.432 . S
Eu414 C478 2.848 . S
C415 C418 1.429 . S
C415 C419 1.411 . S
C415 N422 1.377 . S
C416 C418 1.420 . S
C416 C420 1.423 . S
C416 C428 1.392 . S
C417 C419 1.420 . S
C417 C420 1.351 . S
C417 H440 0.931 . S
C418 C415 1.429 . S
C418 C416 1.420 . S
C418 N426 1.362 . S
C419 C415 1.411 . S
C419 C417 1.420 . S
C419 C424 1.395 . S
C420 C416 1.423 . S
C420 C417 1.351 . S
C420 H432 0.930 . S
C421 C423 1.400 . S
C421 C424 1.386 . S
C421 H433 0.930 . S
N422 C415 1.377 . S
N422 C423 1.321 . S
N422 Eu425 2.609 . S
C423 C421 1.400 . S
C423 N422 1.321 . S
C423 H430 0.930 . S
C424 C419 1.395 . S
C424 C421 1.386 . S
C424 H443 0.930 . S
Eu425 N422 2.609 . S
Eu425 N426 2.657 . S
Eu425 O459 2.380 . S
Eu425 O460 2.432 . S
Eu425 O464 2.558 . S
Eu425 O465 2.612 . S
Eu425 O467 2.339 . S
Eu425 O468 2.563 . S
Eu425 O469 2.419 . S
Eu425 C489 2.848 . S
N426 C418 1.362 . S
N426 Eu425 2.657 . S
N426 C427 1.334 . S
C427 N426 1.334 . S
C427 C429 1.413 . S
C427 H434 0.929 . S
C428 C416 1.392 . S
C428 C429 1.367 . S
C428 H436 0.930 . S
C429 C427 1.413 . S
C429 C428 1.367 . S
C429 H431 0.930 . S
H430 C423 0.930 . S
H431 C429 0.930 . S
H432 C420 0.930 . S
H433 C421 0.930 . S
H434 C427 0.929 . S
H435 C449 0.930 . S
H436 C428 0.930 . S
H437 C455 0.930 . S
H438 C446 0.929 . S
H439 C453 0.930 . S
H440 C417 0.931 . S
H441 C447 0.930 . S
H442 C480 0.930 . S
H443 C424 0.930 . S
H444 C479 0.931 . S
N445 Eu414 2.657 . S
N445 C446 1.334 . S
N445 C450 1.362 . S
C446 H438 0.929 . S
C446 N445 1.334 . S
C446 C449 1.413 . S
C447 H441 0.930 . S
C447 C448 1.392 . S
C447 C449 1.367 . S
C448 C447 1.392 . S
C448 C450 1.420 . S
C448 C480 1.423 . S
C449 H435 0.930 . S
C449 C446 1.413 . S
C449 C447 1.367 . S
C450 N445 1.362 . S
C450 C448 1.420 . S
C450 C454 1.429 . S
H451 C456 0.930 . S
N452 Eu414 2.609 . S
N452 C454 1.377 . S
N452 C455 1.321 . S
C453 H439 0.930 . S
C453 C455 1.400 . S
C453 C456 1.386 . S
C454 C450 1.429 . S
C454 N452 1.377 . S
C454 C457 1.411 . S
C455 H437 0.930 . S
C455 N452 1.321 . S
C455 C453 1.400 . S
C456 H451 0.930 . S
C456 C453 1.386 . S
C456 C457 1.395 . S
C457 C454 1.411 . S
C457 C456 1.395 . S
C457 C479 1.420 . S
O458 Eu414 2.558 . S
O458 C478 1.257 . S
O459 Eu414 2.612 . S
O459 Eu425 2.380 . S
O459 C470 1.276 . S
O460 Eu425 2.432 . S
O460 C477 1.264 . S
O461 Eu414 2.339 . S
O461 C477 1.254 . S
O462 Eu414 2.563 . S
O462 C470 1.235 . S
O463 Eu414 2.419 . S
O463 C478 1.249 . S
O464 Eu425 2.558 . S
O464 C489 1.257 . S
O465 Eu414 2.380 . S
O465 Eu425 2.612 . S
O465 C481 1.276 . S
O466 Eu414 2.432 . S
O466 C488 1.264 . S
O467 Eu425 2.339 . S
O467 C488 1.254 . S
O468 Eu425 2.563 . S
O468 C481 1.235 . S
O469 Eu425 2.419 . S
O469 C489 1.249 . S
C470 O459 1.276 . S
C470 O462 1.235 . S
C471 C473 1.393 . S
C471 C475 1.395 . S
C471 C478 1.492 . S
C472 C473 1.392 . S
C472 C474 1.386 . S
C473 C471 1.393 . S
C473 C472 1.392 . S
C473 H490 0.930 . S
C474 C472 1.386 . S
C474 C476 1.395 . S
C474 H491 0.930 . S
C475 C471 1.395 . S
C475 C476 1.379 . S
C475 H492 0.930 . S
C476 C474 1.395 . S
C476 C475 1.379 . S
C476 H493 0.930 . S
C477 O460 1.264 . S
C477 O461 1.254 . S
C478 Eu414 2.848 . S
C478 O458 1.257 . S
C478 O463 1.249 . S
C478 C471 1.492 . S
C479 H444 0.931 . S
C479 C457 1.420 . S
C479 C480 1.351 . S
C480 H442 0.930 . S
C480 C448 1.423 . S
C480 C479 1.351 . S
C481 O465 1.276 . S
C481 O468 1.235 . S
C482 C483 1.393 . S
C482 C486 1.395 . S
C482 C489 1.492 . S
C483 C482 1.393 . S
C483 C484 1.392 . S
C483 H494 0.930 . S
C484 C483 1.392 . S
C484 C485 1.386 . S
C485 C484 1.386 . S
C485 C487 1.395 . S
C485 H495 0.930 . S
C486 C482 1.395 . S
C486 C487 1.379 . S
C486 H496 0.930 . S
C487 C485 1.395 . S
C487 C486 1.379 . S
C487 H497 0.930 . S
C488 O466 1.264 . S
C488 O467 1.254 . S
C489 Eu425 2.848 . S
C489 O464 1.257 . S
C489 O469 1.249 . S
C489 C482 1.492 . S
H490 C473 0.930 . S
H491 C474 0.930 . S
H492 C475 0.930 . S
H493 C476 0.930 . S
H494 C483 0.930 . S
H495 C485 0.930 . S
H496 C486 0.930 . S
H497 C487 0.930 . S
Eu498 N529 2.657 . S
Eu498 N536 2.609 . S
Eu498 O542 2.558 . S
Eu498 O543 2.612 . S
Eu498 O545 2.339 . S
Eu498 O546 2.563 . S
Eu498 O547 2.419 . S
Eu498 O549 2.380 . S
Eu498 O550 2.432 . S
Eu498 C562 2.848 . S
C499 C502 1.429 . S
C499 C503 1.411 . S
C499 N506 1.377 . S
C500 C502 1.420 . S
C500 C504 1.423 . S
C500 C512 1.392 . S
C501 C503 1.420 . S
C501 C504 1.351 . S
C501 H524 0.931 . S
C502 C499 1.429 . S
C502 C500 1.420 . S
C502 N510 1.362 . S
C503 C499 1.411 . S
C503 C501 1.420 . S
C503 C508 1.395 . S
C504 C500 1.423 . S
C504 C501 1.351 . S
C504 H516 0.930 . S
C505 C507 1.400 . S
C505 C508 1.386 . S
C505 H517 0.930 . S
N506 C499 1.377 . S
N506 C507 1.321 . S
N506 Eu509 2.609 . S
C507 C505 1.400 . S
C507 N506 1.321 . S
C507 H514 0.930 . S
C508 C503 1.395 . S
C508 C505 1.386 . S
C508 H527 0.930 . S
Eu509 N506 2.609 . S
Eu509 N510 2.657 . S
Eu509 O543 2.380 . S
Eu509 O544 2.432 . S
Eu509 O548 2.558 . S
Eu509 O549 2.612 . S
Eu509 O551 2.339 . S
Eu509 O552 2.563 . S
Eu509 O553 2.419 . S
Eu509 C573 2.848 . S
N510 C502 1.362 . S
N510 Eu509 2.657 . S
N510 C511 1.334 . S
C511 N510 1.334 . S
C511 C513 1.413 . S
C511 H518 0.929 . S
C512 C500 1.392 . S
C512 C513 1.367 . S
C512 H520 0.930 . S
C513 C511 1.413 . S
C513 C512 1.367 . S
C513 H515 0.930 . S
H514 C507 0.930 . S
H515 C513 0.930 . S
H516 C504 0.930 . S
H517 C505 0.930 . S
H518 C511 0.929 . S
H519 C533 0.930 . S
H520 C512 0.930 . S
H521 C539 0.930 . S
H522 C530 0.929 . S
H523 C537 0.930 . S
H524 C501 0.931 . S
H525 C531 0.930 . S
H526 C564 0.930 . S
H527 C508 0.930 . S
H528 C563 0.931 . S
N529 Eu498 2.657 . S
N529 C530 1.334 . S
N529 C534 1.362 . S
C530 H522 0.929 . S
C530 N529 1.334 . S
C530 C533 1.413 . S
C531 H525 0.930 . S
C531 C532 1.392 . S
C531 C533 1.367 . S
C532 C531 1.392 . S
C532 C534 1.420 . S
C532 C564 1.423 . S
C533 H519 0.930 . S
C533 C530 1.413 . S
C533 C531 1.367 . S
C534 N529 1.362 . S
C534 C532 1.420 . S
C534 C538 1.429 . S
H535 C540 0.930 . S
N536 Eu498 2.609 . S
N536 C538 1.377 . S
N536 C539 1.321 . S
C537 H523 0.930 . S
C537 C539 1.400 . S
C537 C540 1.386 . S
C538 C534 1.429 . S
C538 N536 1.377 . S
C538 C541 1.411 . S
C539 H521 0.930 . S
C539 N536 1.321 . S
C539 C537 1.400 . S
C540 H535 0.930 . S
C540 C537 1.386 . S
C540 C541 1.395 . S
C541 C538 1.411 . S
C541 C540 1.395 . S
C541 C563 1.420 . S
O542 Eu498 2.558 . S
O542 C562 1.257 . S
O543 Eu498 2.612 . S
O543 Eu509 2.380 . S
O543 C554 1.276 . S
O544 Eu509 2.432 . S
O544 C561 1.264 . S
O545 Eu498 2.339 . S
O545 C561 1.254 . S
O546 Eu498 2.563 . S
O546 C554 1.235 . S
O547 Eu498 2.419 . S
O547 C562 1.249 . S
O548 Eu509 2.558 . S
O548 C573 1.257 . S
O549 Eu498 2.380 . S
O549 Eu509 2.612 . S
O549 C565 1.276 . S
O550 Eu498 2.432 . S
O550 C572 1.264 . S
O551 Eu509 2.339 . S
O551 C572 1.254 . S
O552 Eu509 2.563 . S
O552 C565 1.235 . S
O553 Eu509 2.419 . S
O553 C573 1.249 . S
C554 O543 1.276 . S
C554 O546 1.235 . S
C555 C557 1.393 . S
C555 C559 1.395 . S
C555 C562 1.492 . S
C556 C557 1.392 . S
C556 C558 1.386 . S
C557 C555 1.393 . S
C557 C556 1.392 . S
C557 H574 0.930 . S
C558 C556 1.386 . S
C558 C560 1.395 . S
C558 H575 0.930 . S
C559 C555 1.395 . S
C559 C560 1.379 . S
C559 H576 0.930 . S
C560 C558 1.395 . S
C560 C559 1.379 . S
C560 H577 0.930 . S
C561 O544 1.264 . S
C561 O545 1.254 . S
C562 Eu498 2.848 . S
C562 O542 1.257 . S
C562 O547 1.249 . S
C562 C555 1.492 . S
C563 H528 0.931 . S
C563 C541 1.420 . S
C563 C564 1.351 . S
C564 H526 0.930 . S
C564 C532 1.423 . S
C564 C563 1.351 . S
C565 O549 1.276 . S
C565 O552 1.235 . S
C566 C567 1.393 . S
C566 C570 1.395 . S
C566 C573 1.492 . S
C567 C566 1.393 . S
C567 C568 1.392 . S
C567 H578 0.930 . S
C568 C567 1.392 . S
C568 C569 1.386 . S
C569 C568 1.386 . S
C569 C571 1.395 . S
C569 H579 0.930 . S
C570 C566 1.395 . S
C570 C571 1.379 . S
C570 H580 0.930 . S
C571 C569 1.395 . S
C571 C570 1.379 . S
C571 H581 0.930 . S
C572 O550 1.264 . S
C572 O551 1.254 . S
C573 Eu509 2.848 . S
C573 O548 1.257 . S
C573 O553 1.249 . S
C573 C566 1.492 . S
H574 C557 0.930 . S
H575 C558 0.930 . S
H576 C559 0.930 . S
H577 C560 0.930 . S
H578 C567 0.930 . S
H579 C569 0.930 . S
H580 C570 0.930 . S
H581 C571 0.930 . S
Eu582 N613 2.657 . S
Eu582 N620 2.609 . S
Eu582 O626 2.558 . S
Eu582 O627 2.612 . S
Eu582 O629 2.339 . S
Eu582 O630 2.563 . S
Eu582 O631 2.419 . S
Eu582 O633 2.380 . S
Eu582 O634 2.432 . S
Eu582 C646 2.848 . S
C583 C586 1.429 . S
C583 C587 1.411 . S
C583 N590 1.377 . S
C584 C586 1.420 . S
C584 C588 1.423 . S
C584 C596 1.392 . S
C585 C587 1.420 . S
C585 C588 1.351 . S
C585 H608 0.931 . S
C586 C583 1.429 . S
C586 C584 1.420 . S
C586 N594 1.362 . S
C587 C583 1.411 . S
C587 C585 1.420 . S
C587 C592 1.395 . S
C588 C584 1.423 . S
C588 C585 1.351 . S
C588 H600 0.930 . S
C589 C591 1.400 . S
C589 C592 1.386 . S
C589 H601 0.930 . S
N590 C583 1.377 . S
N590 C591 1.321 . S
N590 Eu593 2.609 . S
C591 C589 1.400 . S
C591 N590 1.321 . S
C591 H598 0.930 . S
C592 C587 1.395 . S
C592 C589 1.386 . S
C592 H611 0.930 . S
Eu593 N590 2.609 . S
Eu593 N594 2.657 . S
Eu593 O627 2.380 . S
Eu593 O628 2.432 . S
Eu593 O632 2.558 . S
Eu593 O633 2.612 . S
Eu593 O635 2.339 . S
Eu593 O636 2.563 . S
Eu593 O637 2.419 . S
Eu593 C657 2.848 . S
N594 C586 1.362 . S
N594 Eu593 2.657 . S
N594 C595 1.334 . S
C595 N594 1.334 . S
C595 C597 1.413 . S
C595 H602 0.929 . S
C596 C584 1.392 . S
C596 C597 1.367 . S
C596 H604 0.930 . S
C597 C595 1.413 . S
C597 C596 1.367 . S
C597 H599 0.930 . S
H598 C591 0.930 . S
H599 C597 0.930 . S
H600 C588 0.930 . S
H601 C589 0.930 . S
H602 C595 0.929 . S
H603 C617 0.930 . S
H604 C596 0.930 . S
H605 C623 0.930 . S
H606 C614 0.929 . S
H607 C621 0.930 . S
H608 C585 0.931 . S
H609 C615 0.930 . S
H610 C648 0.930 . S
H611 C592 0.930 . S
H612 C647 0.931 . S
N613 Eu582 2.657 . S
N613 C614 1.334 . S
N613 C618 1.362 . S
C614 H606 0.929 . S
C614 N613 1.334 . S
C614 C617 1.413 . S
C615 H609 0.930 . S
C615 C616 1.392 . S
C615 C617 1.367 . S
C616 C615 1.392 . S
C616 C618 1.420 . S
C616 C648 1.423 . S
C617 H603 0.930 . S
C617 C614 1.413 . S
C617 C615 1.367 . S
C618 N613 1.362 . S
C618 C616 1.420 . S
C618 C622 1.429 . S
H619 C624 0.930 . S
N620 Eu582 2.609 . S
N620 C622 1.377 . S
N620 C623 1.321 . S
C621 H607 0.930 . S
C621 C623 1.400 . S
C621 C624 1.386 . S
C622 C618 1.429 . S
C622 N620 1.377 . S
C622 C625 1.411 . S
C623 H605 0.930 . S
C623 N620 1.321 . S
C623 C621 1.400 . S
C624 H619 0.930 . S
C624 C621 1.386 . S
C624 C625 1.395 . S
C625 C622 1.411 . S
C625 C624 1.395 . S
C625 C647 1.420 . S
O626 Eu582 2.558 . S
O626 C646 1.257 . S
O627 Eu582 2.612 . S
O627 Eu593 2.380 . S
O627 C638 1.276 . S
O628 Eu593 2.432 . S
O628 C645 1.264 . S
O629 Eu582 2.339 . S
O629 C645 1.254 . S
O630 Eu582 2.563 . S
O630 C638 1.235 . S
O631 Eu582 2.419 . S
O631 C646 1.249 . S
O632 Eu593 2.558 . S
O632 C657 1.257 . S
O633 Eu582 2.380 . S
O633 Eu593 2.612 . S
O633 C649 1.276 . S
O634 Eu582 2.432 . S
O634 C656 1.264 . S
O635 Eu593 2.339 . S
O635 C656 1.254 . S
O636 Eu593 2.563 . S
O636 C649 1.235 . S
O637 Eu593 2.419 . S
O637 C657 1.249 . S
C638 O627 1.276 . S
C638 O630 1.235 . S
C639 C641 1.393 . S
C639 C643 1.395 . S
C639 C646 1.492 . S
C640 C641 1.392 . S
C640 C642 1.386 . S
C641 C639 1.393 . S
C641 C640 1.392 . S
C641 H658 0.930 . S
C642 C640 1.386 . S
C642 C644 1.395 . S
C642 H659 0.930 . S
C643 C639 1.395 . S
C643 C644 1.379 . S
C643 H660 0.930 . S
C644 C642 1.395 . S
C644 C643 1.379 . S
C644 H661 0.930 . S
C645 O628 1.264 . S
C645 O629 1.254 . S
C646 Eu582 2.848 . S
C646 O626 1.257 . S
C646 O631 1.249 . S
C646 C639 1.492 . S
C647 H612 0.931 . S
C647 C625 1.420 . S
C647 C648 1.351 . S
C648 H610 0.930 . S
C648 C616 1.423 . S
C648 C647 1.351 . S
C649 O633 1.276 . S
C649 O636 1.235 . S
C650 C651 1.393 . S
C650 C654 1.395 . S
C650 C657 1.492 . S
C651 C650 1.393 . S
C651 C652 1.392 . S
C651 H662 0.930 . S
C652 C651 1.392 . S
C652 C653 1.386 . S
C653 C652 1.386 . S
C653 C655 1.395 . S
C653 H663 0.930 . S
C654 C650 1.395 . S
C654 C655 1.379 . S
C654 H664 0.930 . S
C655 C653 1.395 . S
C655 C654 1.379 . S
C655 H665 0.930 . S
C656 O634 1.264 . S
C656 O635 1.254 . S
C657 Eu593 2.848 . S
C657 O632 1.257 . S
C657 O637 1.249 . S
C657 C650 1.492 . S
H658 C641 0.930 . S
H659 C642 0.930 . S
H660 C643 0.930 . S
H661 C644 0.930 . S
H662 C651 0.930 . S
H663 C653 0.930 . S
H664 C654 0.930 . S
H665 C655 0.930 . S
Eu666 N697 2.657 . S
Eu666 N704 2.609 . S
Eu666 O710 2.558 . S
Eu666 O711 2.612 . S
Eu666 O713 2.339 . S
Eu666 O714 2.563 . S
Eu666 O715 2.419 . S
Eu666 O717 2.380 . S
Eu666 O718 2.432 . S
Eu666 C730 2.848 . S
C667 C670 1.429 . S
C667 C671 1.411 . S
C667 N674 1.377 . S
C668 C670 1.420 . S
C668 C672 1.423 . S
C668 C680 1.392 . S
C669 C671 1.420 . S
C669 C672 1.351 . S
C669 H692 0.931 . S
C670 C667 1.429 . S
C670 C668 1.420 . S
C670 N678 1.362 . S
C671 C667 1.411 . S
C671 C669 1.420 . S
C671 C676 1.395 . S
C672 C668 1.423 . S
C672 C669 1.351 . S
C672 H684 0.930 . S
C673 C675 1.400 . S
C673 C676 1.386 . S
C673 H685 0.930 . S
N674 C667 1.377 . S
N674 C675 1.321 . S
N674 Eu677 2.609 . S
C675 C673 1.400 . S
C675 N674 1.321 . S
C675 H682 0.930 . S
C676 C671 1.395 . S
C676 C673 1.386 . S
C676 H695 0.930 . S
Eu677 N674 2.609 . S
Eu677 N678 2.657 . S
Eu677 O711 2.380 . S
Eu677 O712 2.432 . S
Eu677 O716 2.558 . S
Eu677 O717 2.612 . S
Eu677 O719 2.339 . S
Eu677 O720 2.563 . S
Eu677 O721 2.419 . S
Eu677 C741 2.848 . S
N678 C670 1.362 . S
N678 Eu677 2.657 . S
N678 C679 1.334 . S
C679 N678 1.334 . S
C679 C681 1.413 . S
C679 H686 0.929 . S
C680 C668 1.392 . S
C680 C681 1.367 . S
C680 H688 0.930 . S
C681 C679 1.413 . S
C681 C680 1.367 . S
C681 H683 0.930 . S
H682 C675 0.930 . S
H683 C681 0.930 . S
H684 C672 0.930 . S
H685 C673 0.930 . S
H686 C679 0.929 . S
H687 C701 0.930 . S
H688 C680 0.930 . S
H689 C707 0.930 . S
H690 C698 0.929 . S
H691 C705 0.930 . S
H692 C669 0.931 . S
H693 C699 0.930 . S
H694 C732 0.930 . S
H695 C676 0.930 . S
H696 C731 0.931 . S
N697 Eu666 2.657 . S
N697 C698 1.334 . S
N697 C702 1.362 . S
C698 H690 0.929 . S
C698 N697 1.334 . S
C698 C701 1.413 . S
C699 H693 0.930 . S
C699 C700 1.392 . S
C699 C701 1.367 . S
C700 C699 1.392 . S
C700 C702 1.420 . S
C700 C732 1.423 . S
C701 H687 0.930 . S
C701 C698 1.413 . S
C701 C699 1.367 . S
C702 N697 1.362 . S
C702 C700 1.420 . S
C702 C706 1.429 . S
H703 C708 0.930 . S
N704 Eu666 2.609 . S
N704 C706 1.377 . S
N704 C707 1.321 . S
C705 H691 0.930 . S
C705 C707 1.400 . S
C705 C708 1.386 . S
C706 C702 1.429 . S
C706 N704 1.377 . S
C706 C709 1.411 . S
C707 H689 0.930 . S
C707 N704 1.321 . S
C707 C705 1.400 . S
C708 H703 0.930 . S
C708 C705 1.386 . S
C708 C709 1.395 . S
C709 C706 1.411 . S
C709 C708 1.395 . S
C709 C731 1.420 . S
O710 Eu666 2.558 . S
O710 C730 1.257 . S
O711 Eu666 2.612 . S
O711 Eu677 2.380 . S
O711 C722 1.276 . S
O712 Eu677 2.432 . S
O712 C729 1.264 . S
O713 Eu666 2.339 . S
O713 C729 1.254 . S
O714 Eu666 2.563 . S
O714 C722 1.235 . S
O715 Eu666 2.419 . S
O715 C730 1.249 . S
O716 Eu677 2.558 . S
O716 C741 1.257 . S
O717 Eu666 2.380 . S
O717 Eu677 2.612 . S
O717 C733 1.276 . S
O718 Eu666 2.432 . S
O718 C740 1.264 . S
O719 Eu677 2.339 . S
O719 C740 1.254 . S
O720 Eu677 2.563 . S
O720 C733 1.235 . S
O721 Eu677 2.419 . S
O721 C741 1.249 . S
C722 O711 1.276 . S
C722 O714 1.235 . S
C723 C725 1.393 . S
C723 C727 1.395 . S
C723 C730 1.492 . S
C724 C725 1.392 . S
C724 C726 1.386 . S
C725 C723 1.393 . S
C725 C724 1.392 . S
C725 H742 0.930 . S
C726 C724 1.386 . S
C726 C728 1.395 . S
C726 H743 0.930 . S
C727 C723 1.395 . S
C727 C728 1.379 . S
C727 H744 0.930 . S
C728 C726 1.395 . S
C728 C727 1.379 . S
C728 H745 0.930 . S
C729 O712 1.264 . S
C729 O713 1.254 . S
C730 Eu666 2.848 . S
C730 O710 1.257 . S
C730 O715 1.249 . S
C730 C723 1.492 . S
C731 H696 0.931 . S
C731 C709 1.420 . S
C731 C732 1.351 . S
C732 H694 0.930 . S
C732 C700 1.423 . S
C732 C731 1.351 . S
C733 O717 1.276 . S
C733 O720 1.235 . S
C734 C735 1.393 . S
C734 C738 1.395 . S
C734 C741 1.492 . S
C735 C734 1.393 . S
C735 C736 1.392 . S
C735 H746 0.930 . S
C736 C735 1.392 . S
C736 C737 1.386 . S
C737 C736 1.386 . S
C737 C739 1.395 . S
C737 H747 0.930 . S
C738 C734 1.395 . S
C738 C739 1.379 . S
C738 H748 0.930 . S
C739 C737 1.395 . S
C739 C738 1.379 . S
C739 H749 0.930 . S
C740 O718 1.264 . S
C740 O719 1.254 . S
C741 Eu677 2.848 . S
C741 O716 1.257 . S
C741 O721 1.249 . S
C741 C734 1.492 . S
H742 C725 0.930 . S
H743 C726 0.930 . S
H744 C727 0.930 . S
H745 C728 0.930 . S
H746 C735 0.930 . S
H747 C737 0.930 . S
H748 C738 0.930 . S
H749 C739 0.930 . S
Eu750 N781 2.657 . S
Eu750 N788 2.609 . S
Eu750 O794 2.558 . S
Eu750 O795 2.612 . S
Eu750 O797 2.339 . S
Eu750 O798 2.563 . S
Eu750 O799 2.419 . S
Eu750 O801 2.380 . S
Eu750 O802 2.432 . S
Eu750 C814 2.848 . S
C751 C754 1.429 . S
C751 C755 1.411 . S
C751 N758 1.377 . S
C752 C754 1.420 . S
C752 C756 1.423 . S
C752 C764 1.392 . S
C753 C755 1.420 . S
C753 C756 1.351 . S
C753 H776 0.931 . S
C754 C751 1.429 . S
C754 C752 1.420 . S
C754 N762 1.362 . S
C755 C751 1.411 . S
C755 C753 1.420 . S
C755 C760 1.395 . S
C756 C752 1.423 . S
C756 C753 1.351 . S
C756 H768 0.930 . S
C757 C759 1.400 . S
C757 C760 1.386 . S
C757 H769 0.930 . S
N758 C751 1.377 . S
N758 C759 1.321 . S
N758 Eu761 2.609 . S
C759 C757 1.400 . S
C759 N758 1.321 . S
C759 H766 0.930 . S
C760 C755 1.395 . S
C760 C757 1.386 . S
C760 H779 0.930 . S
Eu761 N758 2.609 . S
Eu761 N762 2.657 . S
Eu761 O795 2.380 . S
Eu761 O796 2.432 . S
Eu761 O800 2.558 . S
Eu761 O801 2.612 . S
Eu761 O803 2.339 . S
Eu761 O804 2.563 . S
Eu761 O805 2.419 . S
Eu761 C825 2.848 . S
N762 C754 1.362 . S
N762 Eu761 2.657 . S
N762 C763 1.334 . S
C763 N762 1.334 . S
C763 C765 1.413 . S
C763 H770 0.929 . S
C764 C752 1.392 . S
C764 C765 1.367 . S
C764 H772 0.930 . S
C765 C763 1.413 . S
C765 C764 1.367 . S
C765 H767 0.930 . S
H766 C759 0.930 . S
H767 C765 0.930 . S
H768 C756 0.930 . S
H769 C757 0.930 . S
H770 C763 0.929 . S
H771 C785 0.930 . S
H772 C764 0.930 . S
H773 C791 0.930 . S
H774 C782 0.929 . S
H775 C789 0.930 . S
H776 C753 0.931 . S
H777 C783 0.930 . S
H778 C816 0.930 . S
H779 C760 0.930 . S
H780 C815 0.931 . S
N781 Eu750 2.657 . S
N781 C782 1.334 . S
N781 C786 1.362 . S
C782 H774 0.929 . S
C782 N781 1.334 . S
C782 C785 1.413 . S
C783 H777 0.930 . S
C783 C784 1.392 . S
C783 C785 1.367 . S
C784 C783 1.392 . S
C784 C786 1.420 . S
C784 C816 1.423 . S
C785 H771 0.930 . S
C785 C782 1.413 . S
C785 C783 1.367 . S
C786 N781 1.362 . S
C786 C784 1.420 . S
C786 C790 1.429 . S
H787 C792 0.930 . S
N788 Eu750 2.609 . S
N788 C790 1.377 . S
N788 C791 1.321 . S
C789 H775 0.930 . S
C789 C791 1.400 . S
C789 C792 1.386 . S
C790 C786 1.429 . S
C790 N788 1.377 . S
C790 C793 1.411 . S
C791 H773 0.930 . S
C791 N788 1.321 . S
C791 C789 1.400 . S
C792 H787 0.930 . S
C792 C789 1.386 . S
C792 C793 1.395 . S
C793 C790 1.411 . S
C793 C792 1.395 . S
C793 C815 1.420 . S
O794 Eu750 2.558 . S
O794 C814 1.257 . S
O795 Eu750 2.612 . S
O795 Eu761 2.380 . S
O795 C806 1.276 . S
O796 Eu761 2.432 . S
O796 C813 1.264 . S
O797 Eu750 2.339 . S
O797 C813 1.254 . S
O798 Eu750 2.563 . S
O798 C806 1.235 . S
O799 Eu750 2.419 . S
O799 C814 1.249 . S
O800 Eu761 2.558 . S
O800 C825 1.257 . S
O801 Eu750 2.380 . S
O801 Eu761 2.612 . S
O801 C817 1.276 . S
O802 Eu750 2.432 . S
O802 C824 1.264 . S
O803 Eu761 2.339 . S
O803 C824 1.254 . S
O804 Eu761 2.563 . S
O804 C817 1.235 . S
O805 Eu761 2.419 . S
O805 C825 1.249 . S
C806 O795 1.276 . S
C806 O798 1.235 . S
C807 C809 1.393 . S
C807 C811 1.395 . S
C807 C814 1.492 . S
C808 C809 1.392 . S
C808 C810 1.386 . S
C809 C807 1.393 . S
C809 C808 1.392 . S
C809 H826 0.930 . S
C810 C808 1.386 . S
C810 C812 1.395 . S
C810 H827 0.930 . S
C811 C807 1.395 . S
C811 C812 1.379 . S
C811 H828 0.930 . S
C812 C810 1.395 . S
C812 C811 1.379 . S
C812 H829 0.930 . S
C813 O796 1.264 . S
C813 O797 1.254 . S
C814 Eu750 2.848 . S
C814 O794 1.257 . S
C814 O799 1.249 . S
C814 C807 1.492 . S
C815 H780 0.931 . S
C815 C793 1.420 . S
C815 C816 1.351 . S
C816 H778 0.930 . S
C816 C784 1.423 . S
C816 C815 1.351 . S
C817 O801 1.276 . S
C817 O804 1.235 . S
C818 C819 1.393 . S
C818 C822 1.395 . S
C818 C825 1.492 . S
C819 C818 1.393 . S
C819 C820 1.392 . S
C819 H830 0.930 . S
C820 C819 1.392 . S
C820 C821 1.386 . S
C821 C820 1.386 . S
C821 C823 1.395 . S
C821 H831 0.930 . S
C822 C818 1.395 . S
C822 C823 1.379 . S
C822 H832 0.930 . S
C823 C821 1.395 . S
C823 C822 1.379 . S
C823 H833 0.930 . S
C824 O802 1.264 . S
C824 O803 1.254 . S
C825 Eu761 2.848 . S
C825 O800 1.257 . S
C825 O805 1.249 . S
C825 C818 1.492 . S
H826 C809 0.930 . S
H827 C810 0.930 . S
H828 C811 0.930 . S
H829 C812 0.930 . S
H830 C819 0.930 . S
H831 C821 0.930 . S
H832 C822 0.930 . S
H833 C823 0.930 . S
Eu834 N865 2.657 . S
Eu834 N872 2.609 . S
Eu834 O878 2.558 . S
Eu834 O879 2.612 . S
Eu834 O881 2.339 . S
Eu834 O882 2.563 . S
Eu834 O883 2.419 . S
Eu834 O885 2.380 . S
Eu834 O886 2.432 . S
Eu834 C898 2.848 . S
C835 C838 1.429 . S
C835 C839 1.411 . S
C835 N842 1.377 . S
C836 C838 1.420 . S
C836 C840 1.423 . S
C836 C848 1.392 . S
C837 C839 1.420 . S
C837 C840 1.351 . S
C837 H860 0.931 . S
C838 C835 1.429 . S
C838 C836 1.420 . S
C838 N846 1.362 . S
C839 C835 1.411 . S
C839 C837 1.420 . S
C839 C844 1.395 . S
C840 C836 1.423 . S
C840 C837 1.351 . S
C840 H852 0.930 . S
C841 C843 1.400 . S
C841 C844 1.386 . S
C841 H853 0.930 . S
N842 C835 1.377 . S
N842 C843 1.321 . S
N842 Eu845 2.609 . S
C843 C841 1.400 . S
C843 N842 1.321 . S
C843 H850 0.930 . S
C844 C839 1.395 . S
C844 C841 1.386 . S
C844 H863 0.930 . S
Eu845 N842 2.609 . S
Eu845 N846 2.657 . S
Eu845 O879 2.380 . S
Eu845 O880 2.432 . S
Eu845 O884 2.558 . S
Eu845 O885 2.612 . S
Eu845 O887 2.339 . S
Eu845 O888 2.563 . S
Eu845 O889 2.419 . S
Eu845 C909 2.848 . S
N846 C838 1.362 . S
N846 Eu845 2.657 . S
N846 C847 1.334 . S
C847 N846 1.334 . S
C847 C849 1.413 . S
C847 H854 0.929 . S
C848 C836 1.392 . S
C848 C849 1.367 . S
C848 H856 0.930 . S
C849 C847 1.413 . S
C849 C848 1.367 . S
C849 H851 0.930 . S
H850 C843 0.930 . S
H851 C849 0.930 . S
H852 C840 0.930 . S
H853 C841 0.930 . S
H854 C847 0.929 . S
H855 C869 0.930 . S
H856 C848 0.930 . S
H857 C875 0.930 . S
H858 C866 0.929 . S
H859 C873 0.930 . S
H860 C837 0.931 . S
H861 C867 0.930 . S
H862 C900 0.930 . S
H863 C844 0.930 . S
H864 C899 0.931 . S
N865 Eu834 2.657 . S
N865 C866 1.334 . S
N865 C870 1.362 . S
C866 H858 0.929 . S
C866 N865 1.334 . S
C866 C869 1.413 . S
C867 H861 0.930 . S
C867 C868 1.392 . S
C867 C869 1.367 . S
C868 C867 1.392 . S
C868 C870 1.420 . S
C868 C900 1.423 . S
C869 H855 0.930 . S
C869 C866 1.413 . S
C869 C867 1.367 . S
C870 N865 1.362 . S
C870 C868 1.420 . S
C870 C874 1.429 . S
H871 C876 0.930 . S
N872 Eu834 2.609 . S
N872 C874 1.377 . S
N872 C875 1.321 . S
C873 H859 0.930 . S
C873 C875 1.400 . S
C873 C876 1.386 . S
C874 C870 1.429 . S
C874 N872 1.377 . S
C874 C877 1.411 . S
C875 H857 0.930 . S
C875 N872 1.321 . S
C875 C873 1.400 . S
C876 H871 0.930 . S
C876 C873 1.386 . S
C876 C877 1.395 . S
C877 C874 1.411 . S
C877 C876 1.395 . S
C877 C899 1.420 . S
O878 Eu834 2.558 . S
O878 C898 1.257 . S
O879 Eu834 2.612 . S
O879 Eu845 2.380 . S
O879 C890 1.276 . S
O880 Eu845 2.432 . S
O880 C897 1.264 . S
O881 Eu834 2.339 . S
O881 C897 1.254 . S
O882 Eu834 2.563 . S
O882 C890 1.235 . S
O883 Eu834 2.419 . S
O883 C898 1.249 . S
O884 Eu845 2.558 . S
O884 C909 1.257 . S
O885 Eu834 2.380 . S
O885 Eu845 2.612 . S
O885 C901 1.276 . S
O886 Eu834 2.432 . S
O886 C908 1.264 . S
O887 Eu845 2.339 . S
O887 C908 1.254 . S
O888 Eu845 2.563 . S
O888 C901 1.235 . S
O889 Eu845 2.419 . S
O889 C909 1.249 . S
C890 O879 1.276 . S
C890 O882 1.235 . S
C891 C893 1.393 . S
C891 C895 1.395 . S
C891 C898 1.492 . S
C892 C893 1.392 . S
C892 C894 1.386 . S
C893 C891 1.393 . S
C893 C892 1.392 . S
C893 H910 0.930 . S
C894 C892 1.386 . S
C894 C896 1.395 . S
C894 H911 0.930 . S
C895 C891 1.395 . S
C895 C896 1.379 . S
C895 H912 0.930 . S
C896 C894 1.395 . S
C896 C895 1.379 . S
C896 H913 0.930 . S
C897 O880 1.264 . S
C897 O881 1.254 . S
C898 Eu834 2.848 . S
C898 O878 1.257 . S
C898 O883 1.249 . S
C898 C891 1.492 . S
C899 H864 0.931 . S
C899 C877 1.420 . S
C899 C900 1.351 . S
C900 H862 0.930 . S
C900 C868 1.423 . S
C900 C899 1.351 . S
C901 O885 1.276 . S
C901 O888 1.235 . S
C902 C903 1.393 . S
C902 C906 1.395 . S
C902 C909 1.492 . S
C903 C902 1.393 . S
C903 C904 1.392 . S
C903 H914 0.930 . S
C904 C903 1.392 . S
C904 C905 1.386 . S
C905 C904 1.386 . S
C905 C907 1.395 . S
C905 H915 0.930 . S
C906 C902 1.395 . S
C906 C907 1.379 . S
C906 H916 0.930 . S
C907 C905 1.395 . S
C907 C906 1.379 . S
C907 H917 0.930 . S
C908 O886 1.264 . S
C908 O887 1.254 . S
C909 Eu845 2.848 . S
C909 O884 1.257 . S
C909 O889 1.249 . S
C909 C902 1.492 . S
H910 C893 0.930 . S
H911 C894 0.930 . S
H912 C895 0.930 . S
H913 C896 0.930 . S
H914 C903 0.930 . S
H915 C905 0.930 . S
H916 C906 0.930 . S
H917 C907 0.930 . S
H918 C926 0.929 . S
H919 C928 0.930 . S
H920 C930 0.930 . S
H921 C933 0.929 . S
H922 C936 0.930 . S
H923 C938 0.960 . S
H924 C938 0.960 . S
H925 C938 0.960 . S
C926 H918 0.929 . S
C926 C927 1.377 . S
C926 C928 1.384 . S
C927 C926 1.377 . S
C927 C933 1.390 . S
C928 H919 0.930 . S
C928 C926 1.384 . S
C928 C929 1.372 . S
C929 C928 1.372 . S
C929 C930 1.400 . S
C929 C934 1.490 . S
C930 H920 0.930 . S
C930 C929 1.400 . S
C930 C933 1.386 . S
H931 C947 0.954 . S
H932 C948 0.931 . S
C933 H921 0.929 . S
C933 C927 1.390 . S
C933 C930 1.386 . S
C934 C929 1.490 . S
C934 C936 1.395 . S
C934 C937 1.403 . S
H935 C941 0.930 . S
C936 H922 0.930 . S
C936 C934 1.395 . S
C936 C939 1.403 . S
C937 C934 1.403 . S
C937 C938 1.524 . S
C937 C941 1.400 . S
C938 H923 0.960 . S
C938 H924 0.960 . S
C938 H925 0.960 . S
C938 C937 1.524 . S
C939 C936 1.403 . S
C939 C940 1.392 . S
C939 C943 1.495 . S
C940 C939 1.392 . S
C940 C941 1.385 . S
C940 C942 1.478 . S
C941 H935 0.930 . S
C941 C937 1.400 . S
C941 C940 1.385 . S
C942 C940 1.478 . S
C942 C944 1.381 . S
C942 C948 1.383 . S
C943 C939 1.495 . S
C943 H949 0.959 . S
C943 H950 0.961 . S
C943 H951 0.960 . S
C944 C942 1.381 . S
C944 C945 1.394 . S
C944 H952 0.930 . S
C945 C944 1.394 . S
C945 C946 1.383 . S
C945 H953 0.929 . S
C946 C945 1.383 . S
C946 C947 1.377 . S
C947 H931 0.954 . S
C947 C946 1.377 . S
C947 C948 1.379 . S
C948 H932 0.931 . S
C948 C942 1.383 . S
C948 C947 1.379 . S
H949 C943 0.959 . S
H950 C943 0.961 . S
H951 C943 0.960 . S
H952 C944 0.930 . S
H953 C945 0.929 . S
H954 C962 0.929 . S
H955 C964 0.930 . S
H956 C966 0.930 . S
H957 C969 0.929 . S
H958 C972 0.930 . S
H959 C974 0.960 . S
H960 C974 0.960 . S
H961 C974 0.960 . S
C962 H954 0.929 . S
C962 C963 1.377 . S
C962 C964 1.384 . S
C963 C962 1.377 . S
C963 C969 1.390 . S
C964 H955 0.930 . S
C964 C962 1.384 . S
C964 C965 1.372 . S
C965 C964 1.372 . S
C965 C966 1.400 . S
C965 C970 1.490 . S
C966 H956 0.930 . S
C966 C965 1.400 . S
C966 C969 1.386 . S
H967 C983 0.930 . S
H968 C984 0.931 . S
C969 H957 0.929 . S
C969 C963 1.390 . S
C969 C966 1.386 . S
C970 C965 1.490 . S
C970 C972 1.395 . S
C970 C973 1.403 . S
H971 C977 0.930 . S
C972 H958 0.930 . S
C972 C970 1.395 . S
C972 C975 1.403 . S
C973 C970 1.403 . S
C973 C974 1.524 . S
C973 C977 1.400 . S
C974 H959 0.960 . S
C974 H960 0.960 . S
C974 H961 0.960 . S
C974 C973 1.524 . S
C975 C972 1.403 . S
C975 C976 1.392 . S
C975 C979 1.495 . S
C976 C975 1.392 . S
C976 C977 1.385 . S
C976 C978 1.478 . S
C977 H971 0.930 . S
C977 C973 1.400 . S
C977 C976 1.385 . S
C978 C976 1.478 . S
C978 C980 1.381 . S
C978 C984 1.383 . S
C979 C975 1.495 . S
C979 H985 0.959 . S
C979 H986 0.961 . S
C979 H987 0.960 . S
C980 C978 1.381 . S
C980 C981 1.394 . S
C980 H988 0.930 . S
C981 C980 1.394 . S
C981 C982 1.383 . S
C981 H989 0.929 . S
C982 C981 1.383 . S
C982 C983 1.377 . S
C983 H967 0.930 . S
C983 C982 1.377 . S
C983 C984 1.379 . S
C984 H968 0.931 . S
C984 C978 1.383 . S
C984 C983 1.379 . S
H985 C979 0.959 . S
H986 C979 0.961 . S
H987 C979 0.960 . S
H988 C980 0.930 . S
H989 C981 0.929 . S
H990 C998 0.929 . S
H991 C1000 0.930 . S
H992 C1002 0.930 . S
H993 C1005 0.929 . S
H994 C1008 0.930 . S
H995 C1010 0.960 . S
H996 C1010 0.960 . S
H997 C1010 0.960 . S
C998 H990 0.929 . S
C998 C999 1.377 . S
C998 C1000 1.384 . S
C999 C998 1.377 . S
C999 C1005 1.390 . S
C1000 H991 0.930 . S
C1000 C998 1.384 . S
C1000 C1001 1.372 . S
C1001 C1000 1.372 . S
C1001 C1002 1.400 . S
C1001 C1006 1.490 . S
C1002 H992 0.930 . S
C1002 C1001 1.400 . S
C1002 C1005 1.386 . S
H1003 C1019 0.930 . S
H1004 C1020 0.931 . S
C1005 H993 0.929 . S
C1005 C999 1.390 . S
C1005 C1002 1.386 . S
C1006 C1001 1.490 . S
C1006 C1008 1.395 . S
C1006 C1009 1.403 . S
H1007 C1013 0.930 . S
C1008 H994 0.930 . S
C1008 C1006 1.395 . S
C1008 C1011 1.403 . S
C1009 C1006 1.403 . S
C1009 C1010 1.524 . S
C1009 C1013 1.400 . S
C1010 H995 0.960 . S
C1010 H996 0.960 . S
C1010 H997 0.960 . S
C1010 C1009 1.524 . S
C1011 C1008 1.403 . S
C1011 C1012 1.392 . S
C1011 C1015 1.495 . S
C1012 C1011 1.392 . S
C1012 C1013 1.385 . S
C1012 C1014 1.478 . S
C1013 H1007 0.930 . S
C1013 C1009 1.400 . S
C1013 C1012 1.385 . S
C1014 C1012 1.478 . S
C1014 C1016 1.381 . S
C1014 C1020 1.383 . S
C1015 C1011 1.495 . S
C1015 H1021 0.959 . S
C1015 H1022 0.961 . S
C1015 H1023 0.960 . S
C1016 C1014 1.381 . S
C1016 C1017 1.394 . S
C1016 H1024 0.930 . S
C1017 C1016 1.394 . S
C1017 C1018 1.383 . S
C1017 H1025 0.929 . S
C1018 C1017 1.383 . S
C1018 C1019 1.377 . S
C1019 H1003 0.930 . S
C1019 C1018 1.377 . S
C1019 C1020 1.379 . S
C1020 H1004 0.931 . S
C1020 C1014 1.383 . S
C1020 C1019 1.379 . S
H1021 C1015 0.959 . S
H1022 C1015 0.961 . S
H1023 C1015 0.960 . S
H1024 C1016 0.930 . S
H1025 C1017 0.929 . S
H1026 C1034 0.929 . S
H1027 C1036 0.930 . S
H1028 C1038 0.930 . S
H1029 C1041 0.929 . S
H1030 C1044 0.930 . S
H1031 C1046 0.960 . S
H1032 C1046 0.960 . S
H1033 C1046 0.960 . S
C1034 H1026 0.929 . S
C1034 C1035 1.377 . S
C1034 C1036 1.384 . S
C1035 C1034 1.377 . S
C1035 C1041 1.390 . S
C1036 H1027 0.930 . S
C1036 C1034 1.384 . S
C1036 C1037 1.372 . S
C1037 C1036 1.372 . S
C1037 C1038 1.400 . S
C1037 C1042 1.490 . S
C1038 H1028 0.930 . S
C1038 C1037 1.400 . S
C1038 C1041 1.386 . S
H1039 C1055 0.930 . S
H1040 C1056 0.931 . S
C1041 H1029 0.929 . S
C1041 C1035 1.390 . S
C1041 C1038 1.386 . S
C1042 C1037 1.490 . S
C1042 C1044 1.395 . S
C1042 C1045 1.403 . S
H1043 C1049 0.930 . S
C1044 H1030 0.930 . S
C1044 C1042 1.395 . S
C1044 C1047 1.403 . S
C1045 C1042 1.403 . S
C1045 C1046 1.524 . S
C1045 C1049 1.400 . S
C1046 H1031 0.960 . S
C1046 H1032 0.960 . S
C1046 H1033 0.960 . S
C1046 C1045 1.524 . S
C1047 C1044 1.403 . S
C1047 C1048 1.392 . S
C1047 C1051 1.495 . S
C1048 C1047 1.392 . S
C1048 C1049 1.385 . S
C1048 C1050 1.478 . S
C1049 H1043 0.930 . S
C1049 C1045 1.400 . S
C1049 C1048 1.385 . S
C1050 C1048 1.478 . S
C1050 C1052 1.381 . S
C1050 C1056 1.383 . S
C1051 C1047 1.495 . S
C1051 H1057 0.959 . S
C1051 H1058 0.961 . S
C1051 H1059 0.960 . S
C1052 C1050 1.381 . S
C1052 C1053 1.394 . S
C1052 H1060 0.930 . S
C1053 C1052 1.394 . S
C1053 C1054 1.383 . S
C1053 H1061 0.929 . S
C1054 C1053 1.383 . S
C1054 C1055 1.377 . S
C1055 H1039 0.930 . S
C1055 C1054 1.377 . S
C1055 C1056 1.379 . S
C1056 H1040 0.931 . S
C1056 C1050 1.383 . S
C1056 C1055 1.379 . S
H1057 C1051 0.959 . S
H1058 C1051 0.961 . S
H1059 C1051 0.960 . S
H1060 C1052 0.930 . S
H1061 C1053 0.929 . S
H1062 C1070 0.929 . S
H1063 C1072 0.930 . S
H1064 C1074 0.930 . S
H1065 C1077 0.929 . S
H1066 C1080 0.930 . S
H1067 C1082 0.960 . S
H1068 C1082 0.960 . S
H1069 C1082 0.960 . S
C1070 H1062 0.929 . S
C1070 C1071 1.377 . S
C1070 C1072 1.384 . S
C1071 C1070 1.377 . S
C1071 C1077 1.390 . S
C1072 H1063 0.930 . S
C1072 C1070 1.384 . S
C1072 C1073 1.372 . S
C1073 C1072 1.372 . S
C1073 C1074 1.400 . S
C1073 C1078 1.490 . S
C1074 H1064 0.930 . S
C1074 C1073 1.400 . S
C1074 C1077 1.386 . S
H1075 C1091 0.930 . S
H1076 C1092 0.931 . S
C1077 H1065 0.929 . S
C1077 C1071 1.390 . S
C1077 C1074 1.386 . S
C1078 C1073 1.490 . S
C1078 C1080 1.395 . S
C1078 C1081 1.403 . S
H1079 C1085 0.930 . S
C1080 H1066 0.930 . S
C1080 C1078 1.395 . S
C1080 C1083 1.403 . S
C1081 C1078 1.403 . S
C1081 C1082 1.524 . S
C1081 C1085 1.400 . S
C1082 H1067 0.960 . S
C1082 H1068 0.960 . S
C1082 H1069 0.960 . S
C1082 C1081 1.524 . S
C1083 C1080 1.403 . S
C1083 C1084 1.392 . S
C1083 C1087 1.495 . S
C1084 C1083 1.392 . S
C1084 C1085 1.385 . S
C1084 C1086 1.478 . S
C1085 H1079 0.930 . S
C1085 C1081 1.400 . S
C1085 C1084 1.385 . S
C1086 C1084 1.478 . S
C1086 C1088 1.381 . S
C1086 C1092 1.383 . S
C1087 C1083 1.495 . S
C1087 H1093 0.959 . S
C1087 H1094 0.961 . S
C1087 H1095 0.960 . S
C1088 C1086 1.381 . S
C1088 C1089 1.394 . S
C1088 H1096 0.930 . S
C1089 C1088 1.394 . S
C1089 C1090 1.383 . S
C1089 H1097 0.929 . S
C1090 C1089 1.383 . S
C1090 C1091 1.377 . S
C1091 H1075 0.930 . S
C1091 C1090 1.377 . S
C1091 C1092 1.379 . S
C1092 H1076 0.931 . S
C1092 C1086 1.383 . S
C1092 C1091 1.379 . S
H1093 C1087 0.959 . S
H1094 C1087 0.961 . S
H1095 C1087 0.960 . S
H1096 C1088 0.930 . S
H1097 C1089 0.929 . S
H1098 C1106 0.929 . S
H1099 C1108 0.930 . S
H1100 C1110 0.930 . S
H1101 C1113 0.929 . S
H1102 C1116 0.930 . S
H1103 C1118 0.960 . S
H1104 C1118 0.960 . S
H1105 C1118 0.960 . S
C1106 H1098 0.929 . S
C1106 C1107 1.377 . S
C1106 C1108 1.384 . S
C1107 C1106 1.377 . S
C1107 C1113 1.390 . S
C1108 H1099 0.930 . S
C1108 C1106 1.384 . S
C1108 C1109 1.372 . S
C1109 C1108 1.372 . S
C1109 C1110 1.400 . S
C1109 C1114 1.490 . S
C1110 H1100 0.930 . S
C1110 C1109 1.400 . S
C1110 C1113 1.386 . S
H1111 C1127 0.930 1_554 S
H1112 C1128 0.931 . S
C1113 H1101 0.929 . S
C1113 C1107 1.390 . S
C1113 C1110 1.386 . S
C1114 C1109 1.490 . S
C1114 C1116 1.395 . S
C1114 C1117 1.403 . S
H1115 C1121 0.930 . S
C1116 H1102 0.930 . S
C1116 C1114 1.395 . S
C1116 C1119 1.403 . S
C1117 C1114 1.403 . S
C1117 C1118 1.524 . S
C1117 C1121 1.400 . S
C1118 H1103 0.960 . S
C1118 H1104 0.960 . S
C1118 H1105 0.960 . S
C1118 C1117 1.524 . S
C1119 C1116 1.403 . S
C1119 C1120 1.392 . S
C1119 C1123 1.495 . S
C1120 C1119 1.392 . S
C1120 C1121 1.385 . S
C1120 C1122 1.478 . S
C1121 H1115 0.930 . S
C1121 C1117 1.400 . S
C1121 C1120 1.385 . S
C1122 C1120 1.478 . S
C1122 C1124 1.381 . S
C1122 C1128 1.383 . S
C1123 C1119 1.495 . S
C1123 H1129 0.959 . S
C1123 H1130 0.961 . S
C1123 H1131 0.960 . S
C1124 C1122 1.381 . S
C1124 C1125 1.394 . S
C1124 H1132 0.930 . S
C1125 C1124 1.394 . S
C1125 C1126 1.383 . S
C1125 H1133 0.929 . S
C1126 C1125 1.383 . S
C1126 C1127 1.377 . S
C1127 H1111 0.930 1_556 S
C1127 C1126 1.377 . S
C1127 C1128 1.379 . S
C1128 H1112 0.931 . S
C1128 C1122 1.383 . S
C1128 C1127 1.379 . S
H1129 C1123 0.959 . S
H1130 C1123 0.961 . S
H1131 C1123 0.960 . S
H1132 C1124 0.930 . S
H1133 C1125 0.929 . S
H1134 C1142 0.929 . S
H1135 C1144 0.930 . S
H1136 C1146 0.930 . S
H1137 C1149 0.929 . S
H1138 C1152 0.930 . S
H1139 C1154 0.960 . S
H1140 C1154 0.960 . S
H1141 C1154 0.960 . S
C1142 H1134 0.929 . S
C1142 C1143 1.377 . S
C1142 C1144 1.384 . S
C1143 C1142 1.377 . S
C1143 C1149 1.390 . S
C1144 H1135 0.930 . S
C1144 C1142 1.384 . S
C1144 C1145 1.372 . S
C1145 C1144 1.372 . S
C1145 C1146 1.400 . S
C1145 C1150 1.490 . S
C1146 H1136 0.930 . S
C1146 C1145 1.400 . S
C1146 C1149 1.386 . S
H1147 C1163 0.930 . S
H1148 C1164 0.931 . S
C1149 H1137 0.929 . S
C1149 C1143 1.390 . S
C1149 C1146 1.386 . S
C1150 C1145 1.490 . S
C1150 C1152 1.395 . S
C1150 C1153 1.403 . S
H1151 C1157 0.930 . S
C1152 H1138 0.930 . S
C1152 C1150 1.395 . S
C1152 C1155 1.403 . S
C1153 C1150 1.403 . S
C1153 C1154 1.524 . S
C1153 C1157 1.400 . S
C1154 H1139 0.960 . S
C1154 H1140 0.960 . S
C1154 H1141 0.960 . S
C1154 C1153 1.524 . S
C1155 C1152 1.403 . S
C1155 C1156 1.392 . S
C1155 C1159 1.495 . S
C1156 C1155 1.392 . S
C1156 C1157 1.385 . S
C1156 C1158 1.478 . S
C1157 H1151 0.930 . S
C1157 C1153 1.400 . S
C1157 C1156 1.385 . S
C1158 C1156 1.478 . S
C1158 C1160 1.381 . S
C1158 C1164 1.383 . S
C1159 C1155 1.495 . S
C1159 H1165 0.959 . S
C1159 H1166 0.961 . S
C1159 H1167 0.960 . S
C1160 C1158 1.381 . S
C1160 C1161 1.394 . S
C1160 H1168 0.930 . S
C1161 C1160 1.394 . S
C1161 C1162 1.383 . S
C1161 H1169 0.929 . S
C1162 C1161 1.383 . S
C1162 C1163 1.377 . S
C1163 H1147 0.930 . S
C1163 C1162 1.377 . S
C1163 C1164 1.379 . S
C1164 H1148 0.931 . S
C1164 C1158 1.383 . S
C1164 C1163 1.379 . S
H1165 C1159 0.959 . S
H1166 C1159 0.961 . S
H1167 C1159 0.960 . S
H1168 C1160 0.930 . S
H1169 C1161 0.929 . S
H1170 C1178 0.929 . S
H1171 C1180 0.930 . S
H1172 C1182 0.930 . S
H1173 C1185 0.929 . S
H1174 C1188 0.930 . S
H1175 C1190 0.960 . S
H1176 C1190 0.960 . S
H1177 C1190 0.960 . S
C1178 H1170 0.929 . S
C1178 C1179 1.377 . S
C1178 C1180 1.384 . S
C1179 C1178 1.377 . S
C1179 C1185 1.390 . S
C1180 H1171 0.930 . S
C1180 C1178 1.384 . S
C1180 C1181 1.372 . S
C1181 C1180 1.372 . S
C1181 C1182 1.400 . S
C1181 C1186 1.490 . S
C1182 H1172 0.930 . S
C1182 C1181 1.400 . S
C1182 C1185 1.386 . S
H1183 C1199 0.930 . S
H1184 C1200 0.931 . S
C1185 H1173 0.929 . S
C1185 C1179 1.390 . S
C1185 C1182 1.386 . S
C1186 C1181 1.490 . S
C1186 C1188 1.395 . S
C1186 C1189 1.403 . S
H1187 C1193 0.930 . S
C1188 H1174 0.930 . S
C1188 C1186 1.395 . S
C1188 C1191 1.403 . S
C1189 C1186 1.403 . S
C1189 C1190 1.524 . S
C1189 C1193 1.400 . S
C1190 H1175 0.960 . S
C1190 H1176 0.960 . S
C1190 H1177 0.960 . S
C1190 C1189 1.524 . S
C1191 C1188 1.403 . S
C1191 C1192 1.392 . S
C1191 C1195 1.495 . S
C1192 C1191 1.392 . S
C1192 C1193 1.385 . S
C1192 C1194 1.478 . S
C1193 H1187 0.930 . S
C1193 C1189 1.400 . S
C1193 C1192 1.385 . S
C1194 C1192 1.478 . S
C1194 C1196 1.381 . S
C1194 C1200 1.383 . S
C1195 C1191 1.495 . S
C1195 H1201 0.959 . S
C1195 H1202 0.961 . S
C1195 H1203 0.960 . S
C1196 C1194 1.381 . S
C1196 C1197 1.394 . S
C1196 H1204 0.930 . S
C1197 C1196 1.394 . S
C1197 C1198 1.383 . S
C1197 H1205 0.929 . S
C1198 C1197 1.383 . S
C1198 C1199 1.377 . S
C1199 H1183 0.930 . S
C1199 C1198 1.377 . S
C1199 C1200 1.379 . S
C1200 H1184 0.931 . S
C1200 C1194 1.383 . S
C1200 C1199 1.379 . S
H1201 C1195 0.959 . S
H1202 C1195 0.961 . S
H1203 C1195 0.960 . S
H1204 C1196 0.930 . S
H1205 C1197 0.929 . S
H1206 C1214 0.929 . S
H1207 C1216 0.930 . S
H1208 C1218 0.930 . S
H1209 C1221 0.929 . S
H1210 C1224 0.930 . S
H1211 C1226 0.960 . S
H1212 C1226 0.960 . S
H1213 C1226 0.960 . S
C1214 H1206 0.929 . S
C1214 C1215 1.377 . S
C1214 C1216 1.384 . S
C1215 C1214 1.377 . S
C1215 C1221 1.390 . S
C1216 H1207 0.930 . S
C1216 C1214 1.384 . S
C1216 C1217 1.372 . S
C1217 C1216 1.372 . S
C1217 C1218 1.400 . S
C1217 C1222 1.490 . S
C1218 H1208 0.930 . S
C1218 C1217 1.400 . S
C1218 C1221 1.386 . S
H1219 C1235 0.930 . S
H1220 C1236 0.931 . S
C1221 H1209 0.929 . S
C1221 C1215 1.390 . S
C1221 C1218 1.386 . S
C1222 C1217 1.490 . S
C1222 C1224 1.395 . S
C1222 C1225 1.403 . S
H1223 C1229 0.930 . S
C1224 H1210 0.930 . S
C1224 C1222 1.395 . S
C1224 C1227 1.403 . S
C1225 C1222 1.403 . S
C1225 C1226 1.524 . S
C1225 C1229 1.400 . S
C1226 H1211 0.960 . S
C1226 H1212 0.960 . S
C1226 H1213 0.960 . S
C1226 C1225 1.524 . S
C1227 C1224 1.403 . S
C1227 C1228 1.392 . S
C1227 C1231 1.495 . S
C1228 C1227 1.392 . S
C1228 C1229 1.385 . S
C1228 C1230 1.478 . S
C1229 H1223 0.930 . S
C1229 C1225 1.400 . S
C1229 C1228 1.385 . S
C1230 C1228 1.478 . S
C1230 C1232 1.381 . S
C1230 C1236 1.383 . S
C1231 C1227 1.495 . S
C1231 H1237 0.959 . S
C1231 H1238 0.961 . S
C1231 H1239 0.966 . S
C1232 C1230 1.381 . S
C1232 C1233 1.394 . S
C1232 H1240 0.930 . S
C1233 C1232 1.394 . S
C1233 C1234 1.383 . S
C1233 H1241 0.929 1_556 S
C1234 C1233 1.383 . S
C1234 C1235 1.377 . S
C1235 H1219 0.930 . S
C1235 C1234 1.377 . S
C1235 C1236 1.379 . S
C1236 H1220 0.931 . S
C1236 C1230 1.383 . S
C1236 C1235 1.379 . S
H1237 C1231 0.959 . S
H1238 C1231 0.961 . S
H1239 C1231 0.966 . S
H1240 C1232 0.930 . S
H1241 C1233 0.929 1_554 S
H1242 C1250 0.929 . S
H1243 C1252 0.930 . S
H1244 C1254 0.930 . S
H1245 C1257 0.929 . S
H1246 C1260 0.930 . S
H1247 C1262 0.960 . S
H1248 C1262 0.960 . S
H1249 C1262 0.960 . S
C1250 H1242 0.929 . S
C1250 C1251 1.377 . S
C1250 C1252 1.384 . S
C1251 C1250 1.377 . S
C1251 C1257 1.390 . S
C1252 H1243 0.930 . S
C1252 C1250 1.384 . S
C1252 C1253 1.372 . S
C1253 C1252 1.372 . S
C1253 C1254 1.400 . S
C1253 C1258 1.490 . S
C1254 H1244 0.930 . S
C1254 C1253 1.400 . S
C1254 C1257 1.386 . S
H1255 C1271 0.930 . S
H1256 C1272 0.931 . S
C1257 H1245 0.929 . S
C1257 C1251 1.390 . S
C1257 C1254 1.386 . S
C1258 C1253 1.490 . S
C1258 C1260 1.395 . S
C1258 C1261 1.403 . S
H1259 C1265 0.930 . S
C1260 H1246 0.930 . S
C1260 C1258 1.395 . S
C1260 C1263 1.403 . S
C1261 C1258 1.403 . S
C1261 C1262 1.524 . S
C1261 C1265 1.400 . S
C1262 H1247 0.960 . S
C1262 H1248 0.960 . S
C1262 H1249 0.960 . S
C1262 C1261 1.524 . S
C1263 C1260 1.403 . S
C1263 C1264 1.392 . S
C1263 C1267 1.495 . S
C1264 C1263 1.392 . S
C1264 C1265 1.385 . S
C1264 C1266 1.478 . S
C1265 H1259 0.930 . S
C1265 C1261 1.400 . S
C1265 C1264 1.385 . S
C1266 C1264 1.478 . S
C1266 C1268 1.381 . S
C1266 C1272 1.383 . S
C1267 C1263 1.495 . S
C1267 H1273 0.959 . S
C1267 H1274 0.961 . S
C1267 H1275 0.960 . S
C1268 C1266 1.381 . S
C1268 C1269 1.394 . S
C1268 H1276 0.930 . S
C1269 C1268 1.394 . S
C1269 C1270 1.383 . S
C1269 H1277 0.929 . S
C1270 C1269 1.383 . S
C1270 C1271 1.377 . S
C1271 H1255 0.930 . S
C1271 C1270 1.377 . S
C1271 C1272 1.379 . S
C1272 H1256 0.931 . S
C1272 C1266 1.383 . S
C1272 C1271 1.379 . S
H1273 C1267 0.959 . S
H1274 C1267 0.961 . S
H1275 C1267 0.960 . S
H1276 C1268 0.930 . S
H1277 C1269 0.929 . S
H1278 C1286 0.929 . S
H1279 C1288 0.930 . S
H1280 C1290 0.930 . S
H1281 C1293 0.929 . S
H1282 C1296 0.930 . S
H1283 C1298 0.960 . S
H1284 C1298 0.960 . S
H1285 C1298 0.960 . S
C1286 H1278 0.929 . S
C1286 C1287 1.377 . S
C1286 C1288 1.384 . S
C1287 C1286 1.377 . S
C1287 C1293 1.390 . S
C1288 H1279 0.930 . S
C1288 C1286 1.384 . S
C1288 C1289 1.372 . S
C1289 C1288 1.372 . S
C1289 C1290 1.400 . S
C1289 C1294 1.490 . S
C1290 H1280 0.930 . S
C1290 C1289 1.400 . S
C1290 C1293 1.386 . S
H1291 C1307 0.930 . S
H1292 C1308 0.931 . S
C1293 H1281 0.929 . S
C1293 C1287 1.390 . S
C1293 C1290 1.386 . S
C1294 C1289 1.490 . S
C1294 C1296 1.395 . S
C1294 C1297 1.403 . S
H1295 C1301 0.930 . S
C1296 H1282 0.930 . S
C1296 C1294 1.395 . S
C1296 C1299 1.403 . S
C1297 C1294 1.403 . S
C1297 C1298 1.524 . S
C1297 C1301 1.400 . S
C1298 H1283 0.960 . S
C1298 H1284 0.960 . S
C1298 H1285 0.960 . S
C1298 C1297 1.524 . S
C1299 C1296 1.403 . S
C1299 C1300 1.392 . S
C1299 C1303 1.495 . S
C1300 C1299 1.392 . S
C1300 C1301 1.385 . S
C1300 C1302 1.478 . S
C1301 H1295 0.930 . S
C1301 C1297 1.400 . S
C1301 C1300 1.385 . S
C1302 C1300 1.478 . S
C1302 C1304 1.381 . S
C1302 C1308 1.383 . S
C1303 C1299 1.495 . S
C1303 H1309 0.959 . S
C1303 H1310 0.961 . S
C1303 H1311 0.960 . S
C1304 C1302 1.381 . S
C1304 C1305 1.394 . S
C1304 H1312 0.930 . S
C1305 C1304 1.394 . S
C1305 C1306 1.383 . S
C1305 H1313 0.929 . S
C1306 C1305 1.383 . S
C1306 C1307 1.377 . S
C1307 H1291 0.930 . S
C1307 C1306 1.377 . S
C1307 C1308 1.379 . S
C1308 H1292 0.931 . S
C1308 C1302 1.383 . S
C1308 C1307 1.379 . S
H1309 C1303 0.959 . S
H1310 C1303 0.961 . S
H1311 C1303 0.960 . S
H1312 C1304 0.930 . S
H1313 C1305 0.929 . S
H1314 C1322 0.929 . S
H1315 C1324 0.930 . S
H1316 C1326 0.930 . S
H1317 C1329 0.929 . S
H1318 C1332 0.930 . S
H1319 C1334 0.960 . S
H1320 C1334 0.960 . S
H1321 C1334 0.960 . S
C1322 H1314 0.929 . S
C1322 C1323 1.377 . S
C1322 C1324 1.384 . S
C1323 C1322 1.377 . S
C1323 C1329 1.390 . S
C1324 H1315 0.930 . S
C1324 C1322 1.384 . S
C1324 C1325 1.372 . S
C1325 C1324 1.372 . S
C1325 C1326 1.400 . S
C1325 C1330 1.490 . S
C1326 H1316 0.930 . S
C1326 C1325 1.400 . S
C1326 C1329 1.386 . S
H1327 C1343 0.930 . S
H1328 C1344 0.931 . S
C1329 H1317 0.929 . S
C1329 C1323 1.390 . S
C1329 C1326 1.386 . S
C1330 C1325 1.490 . S
C1330 C1332 1.395 . S
C1330 C1333 1.403 . S
H1331 C1337 0.930 . S
C1332 H1318 0.930 . S
C1332 C1330 1.395 . S
C1332 C1335 1.403 . S
C1333 C1330 1.403 . S
C1333 C1334 1.524 . S
C1333 C1337 1.400 . S
C1334 H1319 0.960 . S
C1334 H1320 0.960 . S
C1334 H1321 0.960 . S
C1334 C1333 1.524 . S
C1335 C1332 1.403 . S
C1335 C1336 1.392 . S
C1335 C1339 1.495 . S
C1336 C1335 1.392 . S
C1336 C1337 1.385 . S
C1336 C1338 1.478 . S
C1337 H1331 0.930 . S
C1337 C1333 1.400 . S
C1337 C1336 1.385 . S
C1338 C1336 1.478 . S
C1338 C1340 1.381 . S
C1338 C1344 1.383 . S
C1339 C1335 1.495 . S
C1339 H1345 0.959 . S
C1339 H1346 0.961 . S
C1339 H1347 0.960 . S
C1340 C1338 1.381 . S
C1340 C1341 1.394 . S
C1340 H1348 0.930 . S
C1341 C1340 1.394 . S
C1341 C1342 1.383 . S
C1341 H1349 0.929 . S
C1342 C1341 1.383 . S
C1342 C1343 1.377 . S
C1343 H1327 0.930 . S
C1343 C1342 1.377 . S
C1343 C1344 1.379 . S
C1344 H1328 0.931 . S
C1344 C1338 1.383 . S
C1344 C1343 1.379 . S
H1345 C1339 0.959 . S
H1346 C1339 0.961 . S
H1347 C1339 0.960 . S
H1348 C1340 0.930 . S
H1349 C1341 0.929 . S
H1350 C1358 0.929 . S
H1351 C1360 0.930 . S
H1352 C1362 0.930 . S
H1353 C1365 0.929 . S
H1354 C1368 0.930 . S
H1355 C1370 0.960 . S
H1356 C1370 0.960 . S
H1357 C1370 0.960 . S
C1358 H1350 0.929 . S
C1358 C1359 1.377 . S
C1358 C1360 1.384 . S
C1359 C1358 1.377 . S
C1359 C1365 1.390 . S
C1360 H1351 0.930 . S
C1360 C1358 1.384 . S
C1360 C1361 1.372 . S
C1361 C1360 1.372 . S
C1361 C1362 1.400 . S
C1361 C1366 1.490 . S
C1362 H1352 0.930 . S
C1362 C1361 1.400 . S
C1362 C1365 1.386 . S
H1363 C1379 0.930 . S
H1364 C1380 0.931 . S
C1365 H1353 0.929 . S
C1365 C1359 1.390 . S
C1365 C1362 1.386 . S
C1366 C1361 1.490 . S
C1366 C1368 1.395 . S
C1366 C1369 1.403 1_655 S
H1367 C1373 0.930 . S
C1368 H1354 0.930 . S
C1368 C1366 1.395 . S
C1368 C1371 1.403 1_655 S
C1369 C1366 1.403 1_455 S
C1369 C1370 1.524 . S
C1369 C1373 1.400 . S
C1370 H1355 0.960 . S
C1370 H1356 0.960 . S
C1370 H1357 0.960 . S
C1370 C1369 1.524 . S
C1371 C1368 1.403 1_455 S
C1371 C1372 1.392 . S
C1371 C1375 1.495 . S
C1372 C1371 1.392 . S
C1372 C1373 1.385 . S
C1372 C1374 1.478 . S
C1373 H1367 0.930 . S
C1373 C1369 1.400 . S
C1373 C1372 1.385 . S
C1374 C1372 1.478 . S
C1374 C1376 1.381 . S
C1374 C1380 1.383 . S
C1375 C1371 1.495 . S
C1375 H1381 0.959 1_455 S
C1375 H1382 0.961 . S
C1375 H1383 0.960 . S
C1376 C1374 1.381 . S
C1376 C1377 1.394 . S
C1376 H1384 0.930 . S
C1377 C1376 1.394 . S
C1377 C1378 1.383 . S
C1377 H1385 0.929 . S
C1378 C1377 1.383 . S
C1378 C1379 1.377 . S
C1379 H1363 0.930 . S
C1379 C1378 1.377 . S
C1379 C1380 1.379 . S
C1380 H1364 0.931 . S
C1380 C1374 1.383 . S
C1380 C1379 1.379 . S
H1381 C1375 0.959 1_655 S
H1382 C1375 0.961 . S
H1383 C1375 0.960 . S
H1384 C1376 0.930 . S
H1385 C1377 0.929 . S
H1386 C1394 0.929 . S
H1387 C1396 0.930 . S
H1388 C1398 0.930 . S
H1389 C1401 0.929 . S
H1390 C1404 0.930 . S
H1391 C1406 0.960 . S
H1392 C1406 0.960 . S
H1393 C1406 0.960 . S
C1394 H1386 0.929 . S
C1394 C1395 1.377 . S
C1394 C1396 1.384 . S
C1395 C1394 1.377 . S
C1395 C1401 1.390 . S
C1396 H1387 0.930 . S
C1396 C1394 1.384 . S
C1396 C1397 1.372 . S
C1397 C1396 1.372 . S
C1397 C1398 1.400 . S
C1397 C1402 1.490 . S
C1398 H1388 0.930 . S
C1398 C1397 1.400 . S
C1398 C1401 1.386 . S
H1399 C1415 0.930 . S
H1400 C1416 0.931 . S
C1401 H1389 0.929 . S
C1401 C1395 1.390 . S
C1401 C1398 1.386 . S
C1402 C1397 1.490 . S
C1402 C1404 1.395 . S
C1402 C1405 1.403 . S
H1403 C1409 0.930 . S
C1404 H1390 0.930 . S
C1404 C1402 1.395 . S
C1404 C1407 1.403 . S
C1405 C1402 1.403 . S
C1405 C1406 1.524 . S
C1405 C1409 1.400 . S
C1406 H1391 0.960 . S
C1406 H1392 0.960 . S
C1406 H1393 0.960 . S
C1406 C1405 1.524 . S
C1407 C1404 1.403 . S
C1407 C1408 1.392 . S
C1407 C1411 1.495 . S
C1408 C1407 1.392 . S
C1408 C1409 1.385 . S
C1408 C1410 1.478 . S
C1409 H1403 0.930 . S
C1409 C1405 1.400 . S
C1409 C1408 1.385 . S
C1410 C1408 1.478 . S
C1410 C1412 1.381 . S
C1410 C1416 1.383 . S
C1411 C1407 1.495 . S
C1411 H1417 0.959 . S
C1411 H1418 0.961 . S
C1411 H1419 0.960 . S
C1412 C1410 1.381 . S
C1412 C1413 1.394 . S
C1412 H1420 0.930 . S
C1413 C1412 1.394 . S
C1413 C1414 1.383 . S
C1413 H1421 0.929 . S
C1414 C1413 1.383 . S
C1414 C1415 1.377 . S
C1415 H1399 0.930 . S
C1415 C1414 1.377 . S
C1415 C1416 1.379 . S
C1416 H1400 0.931 . S
C1416 C1410 1.383 . S
C1416 C1415 1.379 . S
H1417 C1411 0.959 . S
H1418 C1411 0.961 . S
H1419 C1411 0.960 . S
H1420 C1412 0.930 . S
H1421 C1413 0.929 . S
H1422 C1430 0.929 . S
H1423 C1432 0.930 . S
H1424 C1434 0.930 . S
H1425 C1437 0.929 . S
H1426 C1440 0.930 1_545 S
H1427 C1442 0.960 . S
H1428 C1442 0.960 . S
H1429 C1442 0.960 . S
C1430 H1422 0.929 . S
C1430 C1431 1.377 . S
C1430 C1432 1.384 . S
C1431 C1430 1.377 . S
C1431 C1437 1.390 . S
C1432 H1423 0.930 . S
C1432 C1430 1.384 . S
C1432 C1433 1.372 . S
C1433 C1432 1.372 . S
C1433 C1434 1.400 . S
C1433 C1438 1.490 . S
C1434 H1424 0.930 . S
C1434 C1433 1.400 . S
C1434 C1437 1.386 . S
H1435 C1451 0.930 . S
H1436 C1452 0.931 . S
C1437 H1425 0.929 . S
C1437 C1431 1.390 . S
C1437 C1434 1.386 . S
C1438 C1433 1.490 . S
C1438 C1440 1.395 1_545 S
C1438 C1441 1.403 . S
H1439 C1445 0.930 . S
C1440 H1426 0.930 1_565 S
C1440 C1438 1.395 1_565 S
C1440 C1443 1.403 . S
C1441 C1438 1.403 . S
C1441 C1442 1.524 . S
C1441 C1445 1.400 1_545 S
C1442 H1427 0.960 . S
C1442 H1428 0.960 . S
C1442 H1429 0.960 . S
C1442 C1441 1.524 . S
C1443 C1440 1.403 . S
C1443 C1444 1.392 . S
C1443 C1447 1.495 . S
C1444 C1443 1.392 . S
C1444 C1445 1.385 . S
C1444 C1446 1.478 . S
C1445 H1439 0.930 . S
C1445 C1441 1.400 1_565 S
C1445 C1444 1.385 . S
C1446 C1444 1.478 . S
C1446 C1448 1.381 . S
C1446 C1452 1.383 . S
C1447 C1443 1.495 . S
C1447 H1453 0.959 . S
C1447 H1454 0.961 . S
C1447 H1455 0.960 . S
C1448 C1446 1.381 . S
C1448 C1449 1.394 . S
C1448 H1456 0.930 . S
C1449 C1448 1.394 . S
C1449 C1450 1.383 . S
C1449 H1457 0.929 . S
C1450 C1449 1.383 . S
C1450 C1451 1.377 . S
C1451 H1435 0.930 . S
C1451 C1450 1.377 . S
C1451 C1452 1.379 . S
C1452 H1436 0.931 . S
C1452 C1446 1.383 . S
C1452 C1451 1.379 . S
H1453 C1447 0.959 . S
H1454 C1447 0.961 . S
H1455 C1447 0.960 . S
H1456 C1448 0.930 . S
H1457 C1449 0.929 . S
H1458 C1466 0.929 . S
H1459 C1468 0.930 . S
H1460 C1470 0.930 . S
H1461 C1473 0.929 . S
H1462 C1476 0.930 . S
H1463 C1478 0.960 . S
H1464 C1478 0.960 . S
H1465 C1478 0.960 . S
C1466 H1458 0.929 . S
C1466 C1467 1.377 . S
C1466 C1468 1.384 . S
C1467 C1466 1.377 . S
C1467 C1473 1.390 . S
C1468 H1459 0.930 . S
C1468 C1466 1.384 . S
C1468 C1469 1.372 . S
C1469 C1468 1.372 . S
C1469 C1470 1.400 . S
C1469 C1474 1.490 . S
C1470 H1460 0.930 . S
C1470 C1469 1.400 . S
C1470 C1473 1.386 . S
H1471 C1487 0.930 . S
H1472 C1488 0.931 . S
C1473 H1461 0.929 . S
C1473 C1467 1.390 . S
C1473 C1470 1.386 . S
C1474 C1469 1.490 . S
C1474 C1476 1.395 . S
C1474 C1477 1.403 . S
H1475 C1481 0.930 . S
C1476 H1462 0.930 . S
C1476 C1474 1.395 . S
C1476 C1479 1.403 . S
C1477 C1474 1.403 . S
C1477 C1478 1.524 . S
C1477 C1481 1.400 . S
C1478 H1463 0.960 . S
C1478 H1464 0.960 . S
C1478 H1465 0.960 . S
C1478 C1477 1.524 . S
C1479 C1476 1.403 . S
C1479 C1480 1.392 . S
C1479 C1483 1.495 . S
C1480 C1479 1.392 . S
C1480 C1481 1.385 . S
C1480 C1482 1.478 . S
C1481 H1475 0.930 . S
C1481 C1477 1.400 . S
C1481 C1480 1.385 . S
C1482 C1480 1.478 . S
C1482 C1484 1.381 . S
C1482 C1488 1.383 . S
C1483 C1479 1.495 . S
C1483 H1489 0.959 . S
C1483 H1490 0.961 . S
C1483 H1491 0.960 . S
C1484 C1482 1.381 . S
C1484 C1485 1.394 . S
C1484 H1492 0.930 . S
C1485 C1484 1.394 . S
C1485 C1486 1.383 . S
C1485 H1493 0.929 . S
C1486 C1485 1.383 . S
C1486 C1487 1.377 . S
C1487 H1471 0.930 . S
C1487 C1486 1.377 . S
C1487 C1488 1.379 . S
C1488 H1472 0.931 . S
C1488 C1482 1.383 . S
C1488 C1487 1.379 . S
H1489 C1483 0.959 . S
H1490 C1483 0.961 . S
H1491 C1483 0.960 . S
H1492 C1484 0.930 . S
H1493 C1485 0.929 . S
H1494 C1502 0.929 . S
H1495 C1504 0.930 . S
H1496 C1506 0.930 . S
H1497 C1509 0.929 . S
H1498 C1512 0.930 . S
H1499 C1514 0.960 . S
H1500 C1514 0.960 . S
H1501 C1514 0.960 . S
C1502 H1494 0.929 . S
C1502 C1503 1.377 . S
C1502 C1504 1.384 . S
C1503 C1502 1.377 . S
C1503 C1509 1.390 . S
C1504 H1495 0.930 . S
C1504 C1502 1.384 . S
C1504 C1505 1.372 . S
C1505 C1504 1.372 . S
C1505 C1506 1.400 . S
C1505 C1510 1.490 . S
C1506 H1496 0.930 . S
C1506 C1505 1.400 . S
C1506 C1509 1.386 . S
H1507 C1523 0.930 . S
H1508 C1524 0.931 . S
C1509 H1497 0.929 . S
C1509 C1503 1.390 . S
C1509 C1506 1.386 . S
C1510 C1505 1.490 . S
C1510 C1512 1.395 . S
C1510 C1513 1.403 . S
H1511 C1517 0.930 . S
C1512 H1498 0.930 . S
C1512 C1510 1.395 . S
C1512 C1515 1.403 . S
C1513 C1510 1.403 . S
C1513 C1514 1.524 . S
C1513 C1517 1.400 . S
C1514 H1499 0.960 . S
C1514 H1500 0.960 . S
C1514 H1501 0.960 . S
C1514 C1513 1.524 . S
C1515 C1512 1.403 . S
C1515 C1516 1.392 . S
C1515 C1519 1.495 . S
C1516 C1515 1.392 . S
C1516 C1517 1.385 . S
C1516 C1518 1.478 . S
C1517 H1511 0.930 . S
C1517 C1513 1.400 . S
C1517 C1516 1.385 . S
C1518 C1516 1.478 . S
C1518 C1520 1.381 . S
C1518 C1524 1.383 . S
C1519 C1515 1.495 . S
C1519 H1525 0.959 . S
C1519 H1526 0.961 . S
C1519 H1527 0.960 . S
C1520 C1518 1.381 . S
C1520 C1521 1.394 . S
C1520 H1528 0.930 . S
C1521 C1520 1.394 . S
C1521 C1522 1.383 . S
C1521 H1529 0.929 . S
C1522 C1521 1.383 . S
C1522 C1523 1.377 . S
C1523 H1507 0.930 . S
C1523 C1522 1.377 . S
C1523 C1524 1.379 . S
C1524 H1508 0.931 . S
C1524 C1518 1.383 . S
C1524 C1523 1.379 . S
H1525 C1519 0.959 . S
H1526 C1519 0.961 . S
H1527 C1519 0.960 . S
H1528 C1520 0.930 . S
H1529 C1521 0.929 . S
H1530 C1538 0.929 . S
H1531 C1540 0.930 . S
H1532 C1542 0.930 . S
H1533 C1545 0.929 . S
H1534 C1548 0.930 . S
H1535 C1550 0.960 . S
H1536 C1550 0.960 . S
H1537 C1550 0.960 . S
C1538 H1530 0.929 . S
C1538 C1539 1.377 . S
C1538 C1540 1.384 . S
C1539 C1538 1.377 . S
C1539 C1545 1.390 . S
C1540 H1531 0.930 . S
C1540 C1538 1.384 . S
C1540 C1541 1.372 . S
C1541 C1540 1.372 . S
C1541 C1542 1.400 . S
C1541 C1546 1.490 . S
C1542 H1532 0.930 . S
C1542 C1541 1.400 . S
C1542 C1545 1.386 . S
H1543 C1559 0.930 . S
H1544 C1560 0.931 . S
C1545 H1533 0.929 . S
C1545 C1539 1.390 . S
C1545 C1542 1.386 . S
C1546 C1541 1.490 . S
C1546 C1548 1.395 . S
C1546 C1549 1.403 . S
H1547 C1553 0.930 . S
C1548 H1534 0.930 . S
C1548 C1546 1.395 . S
C1548 C1551 1.403 . S
C1549 C1546 1.403 . S
C1549 C1550 1.524 . S
C1549 C1553 1.400 . S
C1550 H1535 0.960 . S
C1550 H1536 0.960 . S
C1550 H1537 0.960 . S
C1550 C1549 1.524 . S
C1551 C1548 1.403 . S
C1551 C1552 1.392 . S
C1551 C1555 1.495 . S
C1552 C1551 1.392 . S
C1552 C1553 1.385 . S
C1552 C1554 1.478 . S
C1553 H1547 0.930 . S
C1553 C1549 1.400 . S
C1553 C1552 1.385 . S
C1554 C1552 1.478 . S
C1554 C1556 1.381 . S
C1554 C1560 1.383 . S
C1555 C1551 1.495 . S
C1555 H1561 0.959 . S
C1555 H1562 0.961 . S
C1555 H1563 0.960 . S
C1556 C1554 1.381 . S
C1556 C1557 1.394 . S
C1556 H1564 0.930 . S
C1557 C1556 1.394 . S
C1557 C1558 1.383 . S
C1557 H1565 0.929 . S
C1558 C1557 1.383 . S
C1558 C1559 1.377 . S
C1559 H1543 0.930 . S
C1559 C1558 1.377 . S
C1559 C1560 1.379 . S
C1560 H1544 0.931 . S
C1560 C1554 1.383 . S
C1560 C1559 1.379 . S
H1561 C1555 0.959 . S
H1562 C1555 0.961 . S
H1563 C1555 0.960 . S
H1564 C1556 0.930 . S
H1565 C1557 0.929 . S
H1566 C1574 0.929 . S
H1567 C1576 0.930 . S
H1568 C1578 0.930 . S
H1569 C1581 0.929 . S
H1570 C1584 0.930 . S
H1571 C1586 0.960 . S
H1572 C1586 0.960 . S
H1573 C1586 0.960 . S
C1574 H1566 0.929 . S
C1574 C1575 1.377 . S
C1574 C1576 1.384 . S
C1575 C1574 1.377 . S
C1575 C1581 1.390 . S
C1576 H1567 0.930 . S
C1576 C1574 1.384 . S
C1576 C1577 1.372 . S
C1577 C1576 1.372 . S
C1577 C1578 1.400 . S
C1577 C1582 1.490 . S
C1578 H1568 0.930 . S
C1578 C1577 1.400 . S
C1578 C1581 1.386 . S
H1579 C1595 0.930 . S
H1580 C1596 0.931 . S
C1581 H1569 0.929 . S
C1581 C1575 1.390 . S
C1581 C1578 1.386 . S
C1582 C1577 1.490 . S
C1582 C1584 1.395 . S
C1582 C1585 1.403 . S
H1583 C1589 0.930 . S
C1584 H1570 0.930 . S
C1584 C1582 1.395 . S
C1584 C1587 1.403 . S
C1585 C1582 1.403 . S
C1585 C1586 1.524 . S
C1585 C1589 1.400 . S
C1586 H1571 0.960 . S
C1586 H1572 0.960 . S
C1586 H1573 0.960 . S
C1586 C1585 1.524 . S
C1587 C1584 1.403 . S
C1587 C1588 1.392 . S
C1587 C1591 1.495 . S
C1588 C1587 1.392 . S
C1588 C1589 1.385 . S
C1588 C1590 1.478 . S
C1589 H1583 0.930 . S
C1589 C1585 1.400 . S
C1589 C1588 1.385 . S
C1590 C1588 1.478 . S
C1590 C1592 1.381 . S
C1590 C1596 1.383 . S
C1591 C1587 1.495 . S
C1591 H1597 0.959 . S
C1591 H1598 0.961 . S
C1591 H1599 0.960 . S
C1592 C1590 1.381 . S
C1592 C1593 1.394 . S
C1592 H1600 0.930 . S
C1593 C1592 1.394 . S
C1593 C1594 1.383 . S
C1593 H1601 0.929 . S
C1594 C1593 1.383 . S
C1594 C1595 1.377 . S
C1595 H1579 0.930 . S
C1595 C1594 1.377 . S
C1595 C1596 1.379 . S
C1596 H1580 0.931 . S
C1596 C1590 1.383 . S
C1596 C1595 1.379 . S
H1597 C1591 0.959 . S
H1598 C1591 0.961 . S
H1599 C1591 0.960 . S
H1600 C1592 0.930 . S
H1601 C1593 0.929 . S
H1602 C1610 0.929 . S
H1603 C1612 0.930 . S
H1604 C1614 0.930 . S
H1605 C1617 0.929 . S
H1606 C1620 0.930 . S
H1607 C1622 0.960 . S
H1608 C1622 0.960 . S
H1609 C1622 0.960 . S
C1610 H1602 0.929 . S
C1610 C1611 1.377 . S
C1610 C1612 1.384 . S
C1611 C1610 1.377 . S
C1611 C1617 1.390 . S
C1612 H1603 0.930 . S
C1612 C1610 1.384 . S
C1612 C1613 1.372 . S
C1613 C1612 1.372 . S
C1613 C1614 1.400 . S
C1613 C1618 1.490 . S
C1614 H1604 0.930 . S
C1614 C1613 1.400 . S
C1614 C1617 1.386 . S
H1615 C1631 0.930 . S
H1616 C1632 0.931 . S
C1617 H1605 0.929 . S
C1617 C1611 1.390 . S
C1617 C1614 1.386 . S
C1618 C1613 1.490 . S
C1618 C1620 1.395 . S
C1618 C1621 1.403 . S
H1619 C1625 0.930 . S
C1620 H1606 0.930 . S
C1620 C1618 1.395 . S
C1620 C1623 1.403 . S
C1621 C1618 1.403 . S
C1621 C1622 1.524 . S
C1621 C1625 1.400 . S
C1622 H1607 0.960 . S
C1622 H1608 0.960 . S
C1622 H1609 0.960 . S
C1622 C1621 1.524 . S
C1623 C1620 1.403 . S
C1623 C1624 1.392 . S
C1623 C1627 1.495 . S
C1624 C1623 1.392 . S
C1624 C1625 1.385 . S
C1624 C1626 1.478 . S
C1625 H1619 0.930 . S
C1625 C1621 1.400 . S
C1625 C1624 1.385 . S
C1626 C1624 1.478 . S
C1626 C1628 1.381 . S
C1626 C1632 1.383 . S
C1627 C1623 1.495 . S
C1627 H1633 0.959 . S
C1627 H1634 0.961 . S
C1627 H1635 0.960 . S
C1628 C1626 1.381 . S
C1628 C1629 1.394 . S
C1628 H1636 0.930 . S
C1629 C1628 1.394 . S
C1629 C1630 1.383 . S
C1629 H1637 0.929 . S
C1630 C1629 1.383 . S
C1630 C1631 1.377 . S
C1631 H1615 0.930 . S
C1631 C1630 1.377 . S
C1631 C1632 1.379 . S
C1632 H1616 0.931 . S
C1632 C1626 1.383 . S
C1632 C1631 1.379 . S
H1633 C1627 0.959 . S
H1634 C1627 0.961 . S
H1635 C1627 0.960 . S
H1636 C1628 0.930 . S
H1637 C1629 0.929 . S
H1638 C1646 0.929 . S
H1639 C1648 0.930 . S
H1640 C1650 0.930 . S
H1641 C1653 0.929 . S
H1642 C1656 0.930 . S
H1643 C1658 0.960 . S
H1644 C1658 0.960 . S
H1645 C1658 0.960 . S
C1646 H1638 0.929 . S
C1646 C1647 1.377 . S
C1646 C1648 1.384 . S
C1647 C1646 1.377 . S
C1647 C1653 1.390 . S
C1648 H1639 0.930 . S
C1648 C1646 1.384 . S
C1648 C1649 1.372 . S
C1649 C1648 1.372 . S
C1649 C1650 1.400 . S
C1649 C1654 1.490 . S
C1650 H1640 0.930 . S
C1650 C1649 1.400 . S
C1650 C1653 1.386 . S
H1651 C1667 0.930 . S
H1652 C1668 0.931 . S
C1653 H1641 0.929 . S
C1653 C1647 1.390 . S
C1653 C1650 1.386 . S
C1654 C1649 1.490 . S
C1654 C1656 1.395 . S
C1654 C1657 1.403 . S
H1655 C1661 0.930 . S
C1656 H1642 0.930 . S
C1656 C1654 1.395 . S
C1656 C1659 1.403 . S
C1657 C1654 1.403 . S
C1657 C1658 1.524 . S
C1657 C1661 1.400 . S
C1658 H1643 0.960 . S
C1658 H1644 0.960 . S
C1658 H1645 0.960 . S
C1658 C1657 1.524 . S
C1659 C1656 1.403 . S
C1659 C1660 1.392 . S
C1659 C1663 1.495 . S
C1660 C1659 1.392 . S
C1660 C1661 1.385 . S
C1660 C1662 1.478 . S
C1661 H1655 0.930 . S
C1661 C1657 1.400 . S
C1661 C1660 1.385 . S
C1662 C1660 1.478 . S
C1662 C1664 1.381 . S
C1662 C1668 1.383 . S
C1663 C1659 1.495 . S
C1663 H1669 0.959 . S
C1663 H1670 0.961 . S
C1663 H1671 0.960 . S
C1664 C1662 1.381 . S
C1664 C1665 1.394 . S
C1664 H1672 0.930 . S
C1665 C1664 1.394 . S
C1665 C1666 1.383 . S
C1665 H1673 0.929 . S
C1666 C1665 1.383 . S
C1666 C1667 1.377 . S
C1667 H1651 0.930 . S
C1667 C1666 1.377 . S
C1667 C1668 1.379 . S
C1668 H1652 0.931 . S
C1668 C1662 1.383 . S
C1668 C1667 1.379 . S
H1669 C1663 0.959 . S
H1670 C1663 0.961 . S
H1671 C1663 0.960 . S
H1672 C1664 0.930 . S
H1673 C1665 0.929 . S
H1674 C1682 0.929 . S
H1675 C1684 0.930 . S
H1676 C1686 0.930 . S
H1677 C1689 0.929 . S
H1678 C1692 0.930 . S
H1679 C1694 0.960 . S
H1680 C1694 0.960 . S
H1681 C1694 0.960 . S
C1682 H1674 0.929 . S
C1682 C1683 1.377 . S
C1682 C1684 1.384 . S
C1683 C1682 1.377 . S
C1683 C1689 1.390 . S
C1684 H1675 0.930 . S
C1684 C1682 1.384 . S
C1684 C1685 1.372 . S
C1685 C1684 1.372 . S
C1685 C1686 1.400 . S
C1685 C1690 1.490 . S
C1686 H1676 0.930 . S
C1686 C1685 1.400 . S
C1686 C1689 1.386 . S
H1687 C1703 0.930 . S
H1688 C1704 0.931 . S
C1689 H1677 0.929 . S
C1689 C1683 1.390 . S
C1689 C1686 1.386 . S
C1690 C1685 1.490 . S
C1690 C1692 1.395 . S
C1690 C1693 1.403 1_545 S
H1691 C1697 0.930 . S
C1692 H1678 0.930 . S
C1692 C1690 1.395 . S
C1692 C1695 1.403 1_545 S
C1693 C1690 1.403 1_565 S
C1693 C1694 1.524 . S
C1693 C1697 1.400 . S
C1694 H1679 0.960 . S
C1694 H1680 0.960 . S
C1694 H1681 0.960 . S
C1694 C1693 1.524 . S
C1695 C1692 1.403 1_565 S
C1695 C1696 1.392 . S
C1695 C1699 1.495 . S
C1696 C1695 1.392 . S
C1696 C1697 1.385 . S
C1696 C1698 1.478 . S
C1697 H1691 0.930 . S
C1697 C1693 1.400 . S
C1697 C1696 1.385 . S
C1698 C1696 1.478 . S
C1698 C1700 1.381 . S
C1698 C1704 1.383 . S
C1699 C1695 1.495 . S
C1699 H1705 0.959 1_565 S
C1699 H1706 0.961 . S
C1699 H1707 0.960 . S
C1700 C1698 1.381 . S
C1700 C1701 1.394 . S
C1700 H1708 0.930 . S
C1701 C1700 1.394 . S
C1701 C1702 1.383 . S
C1701 H1709 0.929 . S
C1702 C1701 1.383 . S
C1702 C1703 1.377 . S
C1703 H1687 0.930 . S
C1703 C1702 1.377 . S
C1703 C1704 1.379 . S
C1704 H1688 0.931 . S
C1704 C1698 1.383 . S
C1704 C1703 1.379 . S
H1705 C1699 0.959 1_545 S
H1706 C1699 0.961 . S
H1707 C1699 0.960 . S
H1708 C1700 0.930 . S
H1709 C1701 0.929 . S
H1710 C1718 0.929 . S
H1711 C1720 0.930 . S
H1712 C1722 0.930 . S
H1713 C1725 0.929 . S
H1714 C1728 0.930 . S
H1715 C1730 0.960 . S
H1716 C1730 0.960 . S
H1717 C1730 0.960 . S
C1718 H1710 0.929 . S
C1718 C1719 1.377 . S
C1718 C1720 1.384 . S
C1719 C1718 1.377 . S
C1719 C1725 1.390 . S
C1720 H1711 0.930 . S
C1720 C1718 1.384 . S
C1720 C1721 1.372 . S
C1721 C1720 1.372 . S
C1721 C1722 1.400 . S
C1721 C1726 1.490 . S
C1722 H1712 0.930 . S
C1722 C1721 1.400 . S
C1722 C1725 1.386 . S
H1723 C1739 0.930 . S
H1724 C1740 0.931 . S
C1725 H1713 0.929 . S
C1725 C1719 1.390 . S
C1725 C1722 1.386 . S
C1726 C1721 1.490 . S
C1726 C1728 1.395 1_655 S
C1726 C1729 1.403 1_655 S
H1727 C1733 0.930 . S
C1728 H1714 0.930 . S
C1728 C1726 1.395 1_455 S
C1728 C1731 1.403 . S
C1729 C1726 1.403 1_455 S
C1729 C1730 1.524 1_455 S
C1729 C1733 1.400 . S
C1730 H1715 0.960 . S
C1730 H1716 0.960 . S
C1730 H1717 0.960 . S
C1730 C1729 1.524 1_655 S
C1731 C1728 1.403 . S
C1731 C1732 1.392 . S
C1731 C1735 1.495 . S
C1732 C1731 1.392 . S
C1732 C1733 1.385 . S
C1732 C1734 1.478 . S
C1733 H1727 0.930 . S
C1733 C1729 1.400 . S
C1733 C1732 1.385 . S
C1734 C1732 1.478 . S
C1734 C1736 1.381 . S
C1734 C1740 1.383 . S
C1735 C1731 1.495 . S
C1735 H1741 0.959 . S
C1735 H1742 0.961 . S
C1735 H1743 0.960 . S
C1736 C1734 1.381 . S
C1736 C1737 1.394 . S
C1736 H1744 0.930 . S
C1737 C1736 1.394 . S
C1737 C1738 1.383 . S
C1737 H1745 0.929 . S
C1738 C1737 1.383 . S
C1738 C1739 1.377 . S
C1739 H1723 0.930 . S
C1739 C1738 1.377 . S
C1739 C1740 1.379 . S
C1740 H1724 0.931 . S
C1740 C1734 1.383 . S
C1740 C1739 1.379 . S
H1741 C1735 0.959 . S
H1742 C1735 0.961 . S
H1743 C1735 0.960 . S
H1744 C1736 0.930 . S
H1745 C1737 0.929 . S
H1746 C1754 0.929 . S
H1747 C1756 0.930 . S
H1748 C1758 0.930 . S
H1749 C1761 0.929 . S
H1750 C1764 0.930 . S
H1751 C1766 0.960 . S
H1752 C1766 0.960 . S
H1753 C1766 0.960 . S
C1754 H1746 0.929 . S
C1754 C1755 1.377 . S
C1754 C1756 1.384 . S
C1755 C1754 1.377 . S
C1755 C1761 1.390 . S
C1756 H1747 0.930 . S
C1756 C1754 1.384 . S
C1756 C1757 1.372 . S
C1757 C1756 1.372 . S
C1757 C1758 1.400 . S
C1757 C1762 1.490 . S
C1758 H1748 0.930 . S
C1758 C1757 1.400 . S
C1758 C1761 1.386 . S
H1759 C1775 0.930 . S
H1760 C1776 0.931 . S
C1761 H1749 0.929 . S
C1761 C1755 1.390 . S
C1761 C1758 1.386 . S
C1762 C1757 1.490 . S
C1762 C1764 1.395 . S
C1762 C1765 1.403 . S
H1763 C1769 0.930 . S
C1764 H1750 0.930 . S
C1764 C1762 1.395 . S
C1764 C1767 1.403 . S
C1765 C1762 1.403 . S
C1765 C1766 1.524 . S
C1765 C1769 1.400 . S
C1766 H1751 0.960 . S
C1766 H1752 0.960 . S
C1766 H1753 0.960 . S
C1766 C1765 1.524 . S
C1767 C1764 1.403 . S
C1767 C1768 1.392 . S
C1767 C1771 1.495 . S
C1768 C1767 1.392 . S
C1768 C1769 1.385 . S
C1768 C1770 1.478 . S
C1769 H1763 0.930 . S
C1769 C1765 1.400 . S
C1769 C1768 1.385 . S
C1770 C1768 1.478 . S
C1770 C1772 1.381 . S
C1770 C1776 1.383 . S
C1771 C1767 1.495 . S
C1771 H1777 0.959 . S
C1771 H1778 0.961 . S
C1771 H1779 0.960 . S
C1772 C1770 1.381 . S
C1772 C1773 1.394 . S
C1772 H1780 0.930 . S
C1773 C1772 1.394 . S
C1773 C1774 1.383 . S
C1773 H1781 0.929 . S
C1774 C1773 1.383 . S
C1774 C1775 1.377 . S
C1775 H1759 0.930 . S
C1775 C1774 1.377 . S
C1775 C1776 1.379 . S
C1776 H1760 0.931 . S
C1776 C1770 1.383 . S
C1776 C1775 1.379 . S
H1777 C1771 0.959 . S
H1778 C1771 0.961 . S
H1779 C1771 0.960 . S
H1780 C1772 0.930 . S
H1781 C1773 0.929 . S
H1782 C1790 0.929 . S
H1783 C1792 0.930 . S
H1784 C1794 0.930 . S
H1785 C1797 0.929 . S
H1786 C1800 0.930 . S
H1787 C1802 0.960 . S
H1788 C1802 0.960 . S
H1789 C1802 0.960 . S
C1790 H1782 0.929 . S
C1790 C1791 1.377 . S
C1790 C1792 1.384 . S
C1791 C1790 1.377 . S
C1791 C1797 1.390 . S
C1792 H1783 0.930 . S
C1792 C1790 1.384 . S
C1792 C1793 1.372 . S
C1793 C1792 1.372 . S
C1793 C1794 1.400 . S
C1793 C1798 1.490 . S
C1794 H1784 0.930 . S
C1794 C1793 1.400 . S
C1794 C1797 1.386 . S
H1795 C1811 0.930 . S
H1796 C1812 0.931 . S
C1797 H1785 0.929 . S
C1797 C1791 1.390 . S
C1797 C1794 1.386 . S
C1798 C1793 1.490 . S
C1798 C1800 1.395 . S
C1798 C1801 1.403 . S
H1799 C1805 0.930 . S
C1800 H1786 0.930 . S
C1800 C1798 1.395 . S
C1800 C1803 1.403 . S
C1801 C1798 1.403 . S
C1801 C1802 1.524 . S
C1801 C1805 1.400 . S
C1802 H1787 0.960 . S
C1802 H1788 0.960 . S
C1802 H1789 0.960 . S
C1802 C1801 1.524 . S
C1803 C1800 1.403 . S
C1803 C1804 1.392 . S
C1803 C1807 1.495 . S
C1804 C1803 1.392 . S
C1804 C1805 1.385 . S
C1804 C1806 1.478 . S
C1805 H1799 0.930 . S
C1805 C1801 1.400 . S
C1805 C1804 1.385 . S
C1806 C1804 1.478 . S
C1806 C1808 1.381 . S
C1806 C1812 1.383 . S
C1807 C1803 1.495 . S
C1807 H1813 0.959 . S
C1807 H1814 0.961 . S
C1807 H1815 0.960 . S
C1808 C1806 1.381 . S
C1808 C1809 1.394 . S
C1808 H1816 0.930 . S
C1809 C1808 1.394 . S
C1809 C1810 1.383 . S
C1809 H1817 0.929 . S
C1810 C1809 1.383 . S
C1810 C1811 1.377 . S
C1811 H1795 0.930 . S
C1811 C1810 1.377 . S
C1811 C1812 1.379 . S
C1812 H1796 0.931 . S
C1812 C1806 1.383 . S
C1812 C1811 1.379 . S
H1813 C1807 0.959 . S
H1814 C1807 0.961 . S
H1815 C1807 0.960 . S
H1816 C1808 0.930 . S
H1817 C1809 0.929 . S
H1818 C1826 0.929 . S
H1819 C1828 0.930 . S
H1820 C1830 0.930 . S
H1821 C1833 0.929 . S
H1822 C1836 0.930 . S
H1823 C1838 0.960 . S
H1824 C1838 0.960 . S
H1825 C1838 0.960 . S
C1826 H1818 0.929 . S
C1826 C1827 1.377 . S
C1826 C1828 1.384 . S
C1827 C1826 1.377 . S
C1827 C1833 1.390 . S
C1828 H1819 0.930 . S
C1828 C1826 1.384 . S
C1828 C1829 1.372 . S
C1829 C1828 1.372 . S
C1829 C1830 1.400 . S
C1829 C1834 1.490 . S
C1830 H1820 0.930 . S
C1830 C1829 1.400 . S
C1830 C1833 1.386 . S
H1831 C1847 0.930 . S
H1832 C1848 0.931 . S
C1833 H1821 0.929 . S
C1833 C1827 1.390 . S
C1833 C1830 1.386 . S
C1834 C1829 1.490 . S
C1834 C1836 1.395 . S
C1834 C1837 1.403 . S
H1835 C1841 0.930 . S
C1836 H1822 0.930 . S
C1836 C1834 1.395 . S
C1836 C1839 1.403 . S
C1837 C1834 1.403 . S
C1837 C1838 1.524 . S
C1837 C1841 1.400 . S
C1838 H1823 0.960 . S
C1838 H1824 0.960 . S
C1838 H1825 0.960 . S
C1838 C1837 1.524 . S
C1839 C1836 1.403 . S
C1839 C1840 1.392 . S
C1839 C1843 1.495 . S
C1840 C1839 1.392 . S
C1840 C1841 1.385 . S
C1840 C1842 1.478 . S
C1841 H1835 0.930 . S
C1841 C1837 1.400 . S
C1841 C1840 1.385 . S
C1842 C1840 1.478 . S
C1842 C1844 1.381 . S
C1842 C1848 1.383 . S
C1843 C1839 1.495 . S
C1843 H1849 0.959 . S
C1843 H1850 0.961 . S
C1843 H1851 0.960 . S
C1844 C1842 1.381 . S
C1844 C1845 1.394 . S
C1844 H1852 0.930 . S
C1845 C1844 1.394 . S
C1845 C1846 1.383 . S
C1845 H1853 0.929 . S
C1846 C1845 1.383 . S
C1846 C1847 1.377 . S
C1847 H1831 0.930 . S
C1847 C1846 1.377 . S
C1847 C1848 1.379 . S
C1848 H1832 0.931 . S
C1848 C1842 1.383 . S
C1848 C1847 1.379 . S
H1849 C1843 0.959 . S
H1850 C1843 0.961 . S
H1851 C1843 0.960 . S
H1852 C1844 0.930 . S
H1853 C1845 0.929 . S
H1854 C1862 0.929 . S
H1855 C1864 0.930 . S
H1856 C1866 0.930 . S
H1857 C1869 0.929 . S
H1858 C1872 0.930 . S
H1859 C1874 0.960 . S
H1860 C1874 0.960 . S
H1861 C1874 0.960 . S
C1862 H1854 0.929 . S
C1862 C1863 1.377 . S
C1862 C1864 1.384 . S
C1863 C1862 1.377 . S
C1863 C1869 1.390 . S
C1864 H1855 0.930 . S
C1864 C1862 1.384 . S
C1864 C1865 1.372 . S
C1865 C1864 1.372 . S
C1865 C1866 1.400 . S
C1865 C1870 1.490 . S
C1866 H1856 0.930 . S
C1866 C1865 1.400 . S
C1866 C1869 1.386 . S
H1867 C1883 0.930 . S
H1868 C1884 0.931 . S
C1869 H1857 0.929 . S
C1869 C1863 1.390 . S
C1869 C1866 1.386 . S
C1870 C1865 1.490 . S
C1870 C1872 1.395 . S
C1870 C1873 1.403 . S
H1871 C1877 0.930 . S
C1872 H1858 0.930 . S
C1872 C1870 1.395 . S
C1872 C1875 1.403 . S
C1873 C1870 1.403 . S
C1873 C1874 1.524 . S
C1873 C1877 1.400 . S
C1874 H1859 0.960 . S
C1874 H1860 0.960 . S
C1874 H1861 0.960 . S
C1874 C1873 1.524 . S
C1875 C1872 1.403 . S
C1875 C1876 1.392 . S
C1875 C1879 1.495 . S
C1876 C1875 1.392 . S
C1876 C1877 1.385 . S
C1876 C1878 1.478 . S
C1877 H1871 0.930 . S
C1877 C1873 1.400 . S
C1877 C1876 1.385 . S
C1878 C1876 1.478 . S
C1878 C1880 1.381 . S
C1878 C1884 1.383 . S
C1879 C1875 1.495 . S
C1879 H1885 0.959 . S
C1879 H1886 0.961 . S
C1879 H1887 0.960 . S
C1880 C1878 1.381 . S
C1880 C1881 1.394 . S
C1880 H1888 0.930 . S
C1881 C1880 1.394 . S
C1881 C1882 1.383 . S
C1881 H1889 0.929 . S
C1882 C1881 1.383 . S
C1882 C1883 1.377 . S
C1883 H1867 0.930 . S
C1883 C1882 1.377 . S
C1883 C1884 1.379 . S
C1884 H1868 0.931 . S
C1884 C1878 1.383 . S
C1884 C1883 1.379 . S
H1885 C1879 0.959 . S
H1886 C1879 0.961 . S
H1887 C1879 0.960 . S
H1888 C1880 0.930 . S
H1889 C1881 0.929 . S
H1890 C1898 0.929 . S
H1891 C1900 0.930 . S
H1892 C1902 0.930 . S
H1893 C1905 0.929 . S
H1894 C1908 0.930 . S
H1895 C1910 0.960 . S
H1896 C1910 0.960 . S
H1897 C1910 0.960 . S
C1898 H1890 0.929 . S
C1898 C1899 1.377 . S
C1898 C1900 1.384 . S
C1899 C1898 1.377 . S
C1899 C1905 1.390 . S
C1900 H1891 0.930 . S
C1900 C1898 1.384 . S
C1900 C1901 1.372 . S
C1901 C1900 1.372 . S
C1901 C1902 1.400 . S
C1901 C1906 1.490 . S
C1902 H1892 0.930 . S
C1902 C1901 1.400 . S
C1902 C1905 1.386 . S
H1903 C1919 0.930 . S
H1904 C1920 0.931 . S
C1905 H1893 0.929 . S
C1905 C1899 1.390 . S
C1905 C1902 1.386 . S
C1906 C1901 1.490 . S
C1906 C1908 1.395 1_565 S
C1906 C1909 1.403 . S
H1907 C1913 0.930 . S
C1908 H1894 0.930 . S
C1908 C1906 1.395 1_545 S
C1908 C1911 1.403 . S
C1909 C1906 1.403 . S
C1909 C1910 1.524 . S
C1909 C1913 1.400 1_565 S
C1910 H1895 0.960 . S
C1910 H1896 0.960 . S
C1910 H1897 0.960 . S
C1910 C1909 1.524 . S
C1911 C1908 1.403 . S
C1911 C1912 1.392 . S
C1911 C1915 1.495 . S
C1912 C1911 1.392 . S
C1912 C1913 1.385 . S
C1912 C1914 1.478 . S
C1913 H1907 0.930 . S
C1913 C1909 1.400 1_545 S
C1913 C1912 1.385 . S
C1914 C1912 1.478 . S
C1914 C1916 1.381 . S
C1914 C1920 1.383 . S
C1915 C1911 1.495 . S
C1915 H1921 0.959 . S
C1915 H1922 0.961 . S
C1915 H1923 0.960 . S
C1916 C1914 1.381 . S
C1916 C1917 1.394 . S
C1916 H1924 0.930 . S
C1917 C1916 1.394 . S
C1917 C1918 1.383 . S
C1917 H1925 0.929 . S
C1918 C1917 1.383 . S
C1918 C1919 1.377 . S
C1919 H1903 0.930 . S
C1919 C1918 1.377 . S
C1919 C1920 1.379 . S
C1920 H1904 0.931 . S
C1920 C1914 1.383 . S
C1920 C1919 1.379 . S
H1921 C1915 0.959 . S
H1922 C1915 0.961 . S
H1923 C1915 0.960 . S
H1924 C1916 0.930 . S
H1925 C1917 0.929 . S
H1926 C1934 0.929 . S
H1927 C1936 0.930 . S
H1928 C1938 0.930 . S
H1929 C1941 0.929 . S
H1930 C1944 0.930 1_455 S
H1931 C1946 0.960 . S
H1932 C1946 0.960 . S
H1933 C1946 0.960 1_455 S
C1934 H1926 0.929 . S
C1934 C1935 1.377 . S
C1934 C1936 1.384 . S
C1935 C1934 1.377 . S
C1935 C1941 1.390 . S
C1936 H1927 0.930 . S
C1936 C1934 1.384 . S
C1936 C1937 1.372 . S
C1937 C1936 1.372 . S
C1937 C1938 1.400 . S
C1937 C1942 1.490 . S
C1938 H1928 0.930 . S
C1938 C1937 1.400 . S
C1938 C1941 1.386 . S
H1939 C1955 0.930 . S
H1940 C1956 0.931 . S
C1941 H1929 0.929 . S
C1941 C1935 1.390 . S
C1941 C1938 1.386 . S
C1942 C1937 1.490 . S
C1942 C1944 1.395 1_455 S
C1942 C1945 1.403 1_455 S
H1943 C1949 0.930 . S
C1944 H1930 0.930 1_655 S
C1944 C1942 1.395 1_655 S
C1944 C1947 1.403 . S
C1945 C1942 1.403 1_655 S
C1945 C1946 1.524 . S
C1945 C1949 1.400 . S
C1946 H1931 0.960 . S
C1946 H1932 0.960 . S
C1946 H1933 0.960 1_655 S
C1946 C1945 1.524 . S
C1947 C1944 1.403 . S
C1947 C1948 1.392 . S
C1947 C1951 1.495 . S
C1948 C1947 1.392 . S
C1948 C1949 1.385 . S
C1948 C1950 1.478 . S
C1949 H1943 0.930 . S
C1949 C1945 1.400 . S
C1949 C1948 1.385 . S
C1950 C1948 1.478 . S
C1950 C1952 1.381 . S
C1950 C1956 1.383 . S
C1951 C1947 1.495 . S
C1951 H1957 0.959 . S
C1951 H1958 0.961 . S
C1951 H1959 0.960 . S
C1952 C1950 1.381 . S
C1952 C1953 1.394 . S
C1952 H1960 0.930 . S
C1953 C1952 1.394 . S
C1953 C1954 1.383 . S
C1953 H1961 0.929 . S
C1954 C1953 1.383 . S
C1954 C1955 1.377 . S
C1955 H1939 0.930 . S
C1955 C1954 1.377 . S
C1955 C1956 1.379 . S
C1956 H1940 0.931 . S
C1956 C1950 1.383 . S
C1956 C1955 1.379 . S
H1957 C1951 0.959 . S
H1958 C1951 0.961 . S
H1959 C1951 0.960 . S
H1960 C1952 0.930 . S
H1961 C1953 0.929 . S
H1962 C1970 0.929 . S
H1963 C1972 0.930 . S
H1964 C1974 0.930 . S
H1965 C1977 0.929 . S
H1966 C1980 0.930 . S
H1967 C1982 0.960 . S
H1968 C1982 0.960 . S
H1969 C1982 0.960 . S
C1970 H1962 0.929 . S
C1970 C1971 1.377 . S
C1970 C1972 1.384 . S
C1971 C1970 1.377 . S
C1971 C1977 1.390 . S
C1972 H1963 0.930 . S
C1972 C1970 1.384 . S
C1972 C1973 1.372 . S
C1973 C1972 1.372 . S
C1973 C1974 1.400 . S
C1973 C1978 1.490 . S
C1974 H1964 0.930 . S
C1974 C1973 1.400 . S
C1974 C1977 1.386 . S
H1975 C1991 0.930 . S
H1976 C1992 0.931 . S
C1977 H1965 0.929 . S
C1977 C1971 1.390 . S
C1977 C1974 1.386 . S
C1978 C1973 1.490 . S
C1978 C1980 1.395 . S
C1978 C1981 1.403 . S
H1979 C1985 0.930 . S
C1980 H1966 0.930 . S
C1980 C1978 1.395 . S
C1980 C1983 1.403 . S
C1981 C1978 1.403 . S
C1981 C1982 1.524 . S
C1981 C1985 1.400 . S
C1982 H1967 0.960 . S
C1982 H1968 0.960 . S
C1982 H1969 0.960 . S
C1982 C1981 1.524 . S
C1983 C1980 1.403 . S
C1983 C1984 1.392 . S
C1983 C1987 1.495 . S
C1984 C1983 1.392 . S
C1984 C1985 1.385 . S
C1984 C1986 1.478 . S
C1985 H1979 0.930 . S
C1985 C1981 1.400 . S
C1985 C1984 1.385 . S
C1986 C1984 1.478 . S
C1986 C1988 1.381 . S
C1986 C1992 1.383 . S
C1987 C1983 1.495 . S
C1987 H1993 0.959 . S
C1987 H1994 0.961 . S
C1987 H1995 0.960 . S
C1988 C1986 1.381 . S
C1988 C1989 1.394 . S
C1988 H1996 0.930 . S
C1989 C1988 1.394 . S
C1989 C1990 1.383 . S
C1989 H1997 0.929 . S
C1990 C1989 1.383 . S
C1990 C1991 1.377 . S
C1991 H1975 0.930 . S
C1991 C1990 1.377 . S
C1991 C1992 1.379 . S
C1992 H1976 0.931 . S
C1992 C1986 1.383 . S
C1992 C1991 1.379 . S
H1993 C1987 0.959 . S
H1994 C1987 0.961 . S
H1995 C1987 0.960 . S
H1996 C1988 0.930 . S
H1997 C1989 0.929 . S
H1998 C2006 0.929 . S
H1999 C2008 0.930 . S
H2000 C2010 0.930 . S
H2001 C2013 0.929 . S
H2002 C2016 0.930 . S
H2003 C2018 0.960 . S
H2004 C2018 0.960 . S
H2005 C2018 0.960 . S
C2006 H1998 0.929 . S
C2006 C2007 1.377 . S
C2006 C2008 1.384 . S
C2007 C2006 1.377 . S
C2007 C2013 1.390 . S
C2008 H1999 0.930 . S
C2008 C2006 1.384 . S
C2008 C2009 1.372 . S
C2009 C2008 1.372 . S
C2009 C2010 1.400 . S
C2009 C2014 1.490 . S
C2010 H2000 0.930 . S
C2010 C2009 1.400 . S
C2010 C2013 1.386 . S
H2011 C2027 0.930 . S
H2012 C2028 0.931 . S
C2013 H2001 0.929 . S
C2013 C2007 1.390 . S
C2013 C2010 1.386 . S
C2014 C2009 1.490 . S
C2014 C2016 1.395 1_455 S
C2014 C2017 1.403 . S
H2015 C2021 0.930 . S
C2016 H2002 0.930 . S
C2016 C2014 1.395 1_655 S
C2016 C2019 1.403 . S
C2017 C2014 1.403 . S
C2017 C2018 1.524 . S
C2017 C2021 1.400 1_455 S
C2018 H2003 0.960 . S
C2018 H2004 0.960 . S
C2018 H2005 0.960 . S
C2018 C2017 1.524 . S
C2019 C2016 1.403 . S
C2019 C2020 1.392 . S
C2019 C2023 1.495 . S
C2020 C2019 1.392 . S
C2020 C2021 1.385 . S
C2020 C2022 1.478 . S
C2021 H2015 0.930 . S
C2021 C2017 1.400 1_655 S
C2021 C2020 1.385 . S
C2022 C2020 1.478 . S
C2022 C2024 1.381 . S
C2022 C2028 1.383 . S
C2023 C2019 1.495 . S
C2023 H2029 0.959 . S
C2023 H2030 0.961 . S
C2023 H2031 0.960 . S
C2024 C2022 1.381 . S
C2024 C2025 1.394 . S
C2024 H2032 0.930 . S
C2025 C2024 1.394 . S
C2025 C2026 1.383 . S
C2025 H2033 0.929 . S
C2026 C2025 1.383 . S
C2026 C2027 1.377 . S
C2027 H2011 0.930 . S
C2027 C2026 1.377 . S
C2027 C2028 1.379 . S
C2028 H2012 0.931 . S
C2028 C2022 1.383 . S
C2028 C2027 1.379 . S
H2029 C2023 0.959 . S
H2030 C2023 0.961 . S
H2031 C2023 0.960 . S
H2032 C2024 0.930 . S
H2033 C2025 0.929 . S
H2034 C2042 0.929 . S
H2035 C2044 0.930 . S
H2036 C2046 0.930 . S
H2037 C2049 0.929 . S
H2038 C2052 0.930 . S
H2039 C2054 0.960 . S
H2040 C2054 0.960 . S
H2041 C2054 0.960 . S
C2042 H2034 0.929 . S
C2042 C2043 1.377 . S
C2042 C2044 1.384 . S
C2043 C2042 1.377 . S
C2043 C2049 1.390 . S
C2044 H2035 0.930 . S
C2044 C2042 1.384 . S
C2044 C2045 1.372 . S
C2045 C2044 1.372 . S
C2045 C2046 1.400 . S
C2045 C2050 1.490 . S
C2046 H2036 0.930 . S
C2046 C2045 1.400 . S
C2046 C2049 1.386 . S
H2047 C2063 0.930 . S
H2048 C2064 0.931 . S
C2049 H2037 0.929 . S
C2049 C2043 1.390 . S
C2049 C2046 1.386 . S
C2050 C2045 1.490 . S
C2050 C2052 1.395 . S
C2050 C2053 1.403 . S
H2051 C2057 0.930 . S
C2052 H2038 0.930 . S
C2052 C2050 1.395 . S
C2052 C2055 1.403 . S
C2053 C2050 1.403 . S
C2053 C2054 1.524 . S
C2053 C2057 1.400 . S
C2054 H2039 0.960 . S
C2054 H2040 0.960 . S
C2054 H2041 0.960 . S
C2054 C2053 1.524 . S
C2055 C2052 1.403 . S
C2055 C2056 1.392 . S
C2055 C2059 1.495 . S
C2056 C2055 1.392 . S
C2056 C2057 1.385 . S
C2056 C2058 1.478 . S
C2057 H2051 0.930 . S
C2057 C2053 1.400 . S
C2057 C2056 1.385 . S
C2058 C2056 1.478 . S
C2058 C2060 1.381 . S
C2058 C2064 1.383 . S
C2059 C2055 1.495 . S
C2059 H2065 0.959 . S
C2059 H2066 0.961 . S
C2059 H2067 0.960 . S
C2060 C2058 1.381 . S
C2060 C2061 1.394 . S
C2060 H2068 0.930 . S
C2061 C2060 1.394 . S
C2061 C2062 1.383 . S
C2061 H2069 0.929 . S
C2062 C2061 1.383 . S
C2062 C2063 1.377 . S
C2063 H2047 0.930 . S
C2063 C2062 1.377 . S
C2063 C2064 1.379 . S
C2064 H2048 0.931 . S
C2064 C2058 1.383 . S
C2064 C2063 1.379 . S
H2065 C2059 0.959 . S
H2066 C2059 0.961 . S
H2067 C2059 0.960 . S
H2068 C2060 0.930 . S
H2069 C2061 0.929 . S
H2070 C2078 0.929 . S
H2071 C2080 0.930 . S
H2072 C2082 0.930 . S
H2073 C2085 0.929 . S
H2074 C2088 0.930 . S
H2075 C2090 0.960 . S
H2076 C2090 0.960 . S
H2077 C2090 0.960 . S
C2078 H2070 0.929 . S
C2078 C2079 1.377 . S
C2078 C2080 1.384 . S
C2079 C2078 1.377 . S
C2079 C2085 1.390 . S
C2080 H2071 0.930 . S
C2080 C2078 1.384 . S
C2080 C2081 1.372 . S
C2081 C2080 1.372 . S
C2081 C2082 1.400 . S
C2081 C2086 1.490 . S
C2082 H2072 0.930 . S
C2082 C2081 1.400 . S
C2082 C2085 1.386 . S
H2083 C2099 0.930 . S
H2084 C2100 0.931 . S
C2085 H2073 0.929 . S
C2085 C2079 1.390 . S
C2085 C2082 1.386 . S
C2086 C2081 1.490 . S
C2086 C2088 1.395 1_565 S
C2086 C2089 1.403 . S
H2087 C2093 0.930 . S
C2088 H2074 0.930 . S
C2088 C2086 1.395 1_545 S
C2088 C2091 1.403 . S
C2089 C2086 1.403 . S
C2089 C2090 1.524 . S
C2089 C2093 1.400 1_565 S
C2090 H2075 0.960 . S
C2090 H2076 0.960 . S
C2090 H2077 0.960 . S
C2090 C2089 1.524 . S
C2091 C2088 1.403 . S
C2091 C2092 1.392 . S
C2091 C2095 1.495 . S
C2092 C2091 1.392 . S
C2092 C2093 1.385 . S
C2092 C2094 1.478 . S
C2093 H2087 0.930 . S
C2093 C2089 1.400 1_545 S
C2093 C2092 1.385 . S
C2094 C2092 1.478 . S
C2094 C2096 1.381 . S
C2094 C2100 1.383 . S
C2095 C2091 1.495 . S
C2095 H2101 0.959 . S
C2095 H2102 0.961 . S
C2095 H2103 0.960 . S
C2096 C2094 1.381 . S
C2096 C2097 1.394 . S
C2096 H2104 0.930 . S
C2097 C2096 1.394 . S
C2097 C2098 1.383 . S
C2097 H2105 0.929 . S
C2098 C2097 1.383 . S
C2098 C2099 1.377 . S
C2099 H2083 0.930 . S
C2099 C2098 1.377 . S
C2099 C2100 1.379 . S
C2100 H2084 0.931 . S
C2100 C2094 1.383 . S
C2100 C2099 1.379 . S
H2101 C2095 0.959 . S
H2102 C2095 0.961 . S
H2103 C2095 0.960 . S
H2104 C2096 0.930 . S
H2105 C2097 0.929 . S
H2106 C2114 0.929 . S
H2107 C2116 0.930 . S
H2108 C2118 0.930 . S
H2109 C2121 0.929 . S
H2110 C2124 0.930 . S
H2111 C2126 0.960 . S
H2112 C2126 0.960 . S
H2113 C2126 0.960 . S
C2114 H2106 0.929 . S
C2114 C2115 1.377 . S
C2114 C2116 1.384 . S
C2115 C2114 1.377 . S
C2115 C2121 1.390 . S
C2116 H2107 0.930 . S
C2116 C2114 1.384 . S
C2116 C2117 1.372 . S
C2117 C2116 1.372 . S
C2117 C2118 1.400 . S
C2117 C2122 1.490 . S
C2118 H2108 0.930 . S
C2118 C2117 1.400 . S
C2118 C2121 1.386 . S
H2119 C2135 0.930 . S
H2120 C2136 0.931 . S
C2121 H2109 0.929 . S
C2121 C2115 1.390 . S
C2121 C2118 1.386 . S
C2122 C2117 1.490 . S
C2122 C2124 1.395 . S
C2122 C2125 1.403 . S
H2123 C2129 0.930 . S
C2124 H2110 0.930 . S
C2124 C2122 1.395 . S
C2124 C2127 1.403 . S
C2125 C2122 1.403 . S
C2125 C2126 1.524 . S
C2125 C2129 1.400 . S
C2126 H2111 0.960 . S
C2126 H2112 0.960 . S
C2126 H2113 0.960 . S
C2126 C2125 1.524 . S
C2127 C2124 1.403 . S
C2127 C2128 1.392 . S
C2127 C2131 1.495 . S
C2128 C2127 1.392 . S
C2128 C2129 1.385 . S
C2128 C2130 1.478 . S
C2129 H2123 0.930 . S
C2129 C2125 1.400 . S
C2129 C2128 1.385 . S
C2130 C2128 1.478 . S
C2130 C2132 1.381 . S
C2130 C2136 1.383 . S
C2131 C2127 1.495 . S
C2131 H2137 0.959 . S
C2131 H2138 0.961 . S
C2131 H2139 0.960 . S
C2132 C2130 1.381 . S
C2132 C2133 1.394 . S
C2132 H2140 0.930 . S
C2133 C2132 1.394 . S
C2133 C2134 1.383 . S
C2133 H2141 0.929 . S
C2134 C2133 1.383 . S
C2134 C2135 1.377 . S
C2135 H2119 0.930 . S
C2135 C2134 1.377 . S
C2135 C2136 1.379 . S
C2136 H2120 0.931 . S
C2136 C2130 1.383 . S
C2136 C2135 1.379 . S
H2137 C2131 0.959 . S
H2138 C2131 0.961 . S
H2139 C2131 0.960 . S
H2140 C2132 0.930 . S
H2141 C2133 0.929 . S
H2142 C2150 0.929 . S
H2143 C2152 0.930 . S
H2144 C2154 0.930 . S
H2145 C2157 0.929 . S
H2146 C2160 0.930 . S
H2147 C2162 0.960 . S
H2148 C2162 0.960 . S
H2149 C2162 0.960 . S
C2150 H2142 0.929 . S
C2150 C2151 1.377 . S
C2150 C2152 1.384 . S
C2151 C2150 1.377 . S
C2151 C2157 1.390 . S
C2152 H2143 0.930 . S
C2152 C2150 1.384 . S
C2152 C2153 1.372 . S
C2153 C2152 1.372 . S
C2153 C2154 1.400 . S
C2153 C2158 1.490 . S
C2154 H2144 0.930 . S
C2154 C2153 1.400 . S
C2154 C2157 1.386 . S
H2155 C2171 0.930 . S
H2156 C2172 0.931 . S
C2157 H2145 0.929 . S
C2157 C2151 1.390 . S
C2157 C2154 1.386 . S
C2158 C2153 1.490 . S
C2158 C2160 1.395 . S
C2158 C2161 1.403 . S
H2159 C2165 0.930 . S
C2160 H2146 0.930 . S
C2160 C2158 1.395 . S
C2160 C2163 1.403 . S
C2161 C2158 1.403 . S
C2161 C2162 1.524 . S
C2161 C2165 1.400 . S
C2162 H2147 0.960 . S
C2162 H2148 0.960 . S
C2162 H2149 0.960 . S
C2162 C2161 1.524 . S
C2163 C2160 1.403 . S
C2163 C2164 1.392 . S
C2163 C2167 1.495 . S
C2164 C2163 1.392 . S
C2164 C2165 1.385 . S
C2164 C2166 1.478 . S
C2165 H2159 0.930 . S
C2165 C2161 1.400 . S
C2165 C2164 1.385 . S
C2166 C2164 1.478 . S
C2166 C2168 1.381 . S
C2166 C2172 1.383 . S
C2167 C2163 1.495 . S
C2167 H2173 0.959 . S
C2167 H2174 0.961 . S
C2167 H2175 0.960 . S
C2168 C2166 1.381 . S
C2168 C2169 1.394 . S
C2168 H2176 0.930 . S
C2169 C2168 1.394 . S
C2169 C2170 1.383 . S
C2169 H2177 0.929 . S
C2170 C2169 1.383 . S
C2170 C2171 1.377 . S
C2171 H2155 0.930 . S
C2171 C2170 1.377 . S
C2171 C2172 1.379 . S
C2172 H2156 0.931 . S
C2172 C2166 1.383 . S
C2172 C2171 1.379 . S
H2173 C2167 0.959 . S
H2174 C2167 0.961 . S
H2175 C2167 0.960 . S
H2176 C2168 0.930 . S
H2177 C2169 0.929 . S
H2178 C2186 0.929 . S
H2179 C2188 0.930 . S
H2180 C2190 0.930 . S
H2181 C2193 0.929 . S
H2182 C2196 0.930 . S
H2183 C2198 0.960 . S
H2184 C2198 0.960 . S
H2185 C2198 0.960 . S
C2186 H2178 0.929 . S
C2186 C2187 1.377 . S
C2186 C2188 1.384 . S
C2187 C2186 1.377 . S
C2187 C2193 1.390 . S
C2188 H2179 0.930 . S
C2188 C2186 1.384 . S
C2188 C2189 1.372 . S
C2189 C2188 1.372 . S
C2189 C2190 1.400 . S
C2189 C2194 1.490 . S
C2190 H2180 0.930 . S
C2190 C2189 1.400 . S
C2190 C2193 1.386 . S
H2191 C2207 0.930 . S
H2192 C2208 0.931 . S
C2193 H2181 0.929 . S
C2193 C2187 1.390 . S
C2193 C2190 1.386 . S
C2194 C2189 1.490 . S
C2194 C2196 1.395 . S
C2194 C2197 1.403 . S
H2195 C2201 0.930 . S
C2196 H2182 0.930 . S
C2196 C2194 1.395 . S
C2196 C2199 1.403 . S
C2197 C2194 1.403 . S
C2197 C2198 1.524 . S
C2197 C2201 1.400 . S
C2198 H2183 0.960 . S
C2198 H2184 0.960 . S
C2198 H2185 0.960 . S
C2198 C2197 1.524 . S
C2199 C2196 1.403 . S
C2199 C2200 1.392 . S
C2199 C2203 1.495 . S
C2200 C2199 1.392 . S
C2200 C2201 1.385 . S
C2200 C2202 1.478 . S
C2201 H2195 0.930 . S
C2201 C2197 1.400 . S
C2201 C2200 1.385 . S
C2202 C2200 1.478 . S
C2202 C2204 1.381 . S
C2202 C2208 1.383 . S
C2203 C2199 1.495 . S
C2203 H2209 0.959 . S
C2203 H2210 0.961 . S
C2203 H2211 0.960 . S
C2204 C2202 1.381 . S
C2204 C2205 1.394 . S
C2204 H2212 0.930 . S
C2205 C2204 1.394 . S
C2205 C2206 1.383 . S
C2205 H2213 0.929 . S
C2206 C2205 1.383 . S
C2206 C2207 1.377 . S
C2207 H2191 0.930 . S
C2207 C2206 1.377 . S
C2207 C2208 1.379 . S
C2208 H2192 0.931 . S
C2208 C2202 1.383 . S
C2208 C2207 1.379 . S
H2209 C2203 0.959 . S
H2210 C2203 0.961 . S
H2211 C2203 0.960 . S
H2212 C2204 0.930 . S
H2213 C2205 0.929 . S
H2214 C2222 0.929 . S
H2215 C2224 0.930 . S
H2216 C2226 0.930 . S
H2217 C2229 0.929 . S
H2218 C2232 0.930 . S
H2219 C2234 0.960 . S
H2220 C2234 0.960 . S
H2221 C2234 0.960 . S
C2222 H2214 0.929 . S
C2222 C2223 1.377 . S
C2222 C2224 1.384 . S
C2223 C2222 1.377 . S
C2223 C2229 1.390 . S
C2224 H2215 0.930 . S
C2224 C2222 1.384 . S
C2224 C2225 1.372 . S
C2225 C2224 1.372 . S
C2225 C2226 1.400 . S
C2225 C2230 1.490 . S
C2226 H2216 0.930 . S
C2226 C2225 1.400 . S
C2226 C2229 1.386 . S
H2227 C2243 0.930 . S
H2228 C2244 0.931 . S
C2229 H2217 0.929 . S
C2229 C2223 1.390 . S
C2229 C2226 1.386 . S
C2230 C2225 1.490 . S
C2230 C2232 1.395 . S
C2230 C2233 1.403 . S
H2231 C2237 0.930 . S
C2232 H2218 0.930 . S
C2232 C2230 1.395 . S
C2232 C2235 1.403 . S
C2233 C2230 1.403 . S
C2233 C2234 1.524 . S
C2233 C2237 1.400 . S
C2234 H2219 0.960 . S
C2234 H2220 0.960 . S
C2234 H2221 0.960 . S
C2234 C2233 1.524 . S
C2235 C2232 1.403 . S
C2235 C2236 1.392 . S
C2235 C2239 1.495 . S
C2236 C2235 1.392 . S
C2236 C2237 1.385 . S
C2236 C2238 1.478 . S
C2237 H2231 0.930 . S
C2237 C2233 1.400 . S
C2237 C2236 1.385 . S
C2238 C2236 1.478 . S
C2238 C2240 1.381 . S
C2238 C2244 1.383 . S
C2239 C2235 1.495 . S
C2239 H2245 0.959 . S
C2239 H2246 0.961 . S
C2239 H2247 0.960 . S
C2240 C2238 1.381 . S
C2240 C2241 1.394 . S
C2240 H2248 0.930 . S
C2241 C2240 1.394 . S
C2241 C2242 1.383 . S
C2241 H2249 0.929 1_565 S
C2242 C2241 1.383 . S
C2242 C2243 1.377 . S
C2243 H2227 0.930 . S
C2243 C2242 1.377 . S
C2243 C2244 1.379 . S
C2244 H2228 0.931 . S
C2244 C2238 1.383 . S
C2244 C2243 1.379 . S
H2245 C2239 0.959 . S
H2246 C2239 0.961 . S
H2247 C2239 0.960 . S
H2248 C2240 0.930 . S
H2249 C2241 0.929 1_545 S
H2250 C2258 0.929 . S
H2251 C2260 0.930 . S
H2252 C2262 0.930 . S
H2253 C2265 0.929 . S
H2254 C2268 0.930 . S
H2255 C2270 0.960 1_655 S
H2256 C2270 0.960 . S
H2257 C2270 0.960 . S
C2258 H2250 0.929 . S
C2258 C2259 1.377 . S
C2258 C2260 1.384 . S
C2259 C2258 1.377 . S
C2259 C2265 1.390 . S
C2260 H2251 0.930 . S
C2260 C2258 1.384 . S
C2260 C2261 1.372 . S
C2261 C2260 1.372 . S
C2261 C2262 1.400 . S
C2261 C2266 1.490 . S
C2262 H2252 0.930 . S
C2262 C2261 1.400 . S
C2262 C2265 1.386 . S
H2263 C2279 0.930 . S
H2264 C2280 0.931 . S
C2265 H2253 0.929 . S
C2265 C2259 1.390 . S
C2265 C2262 1.386 . S
C2266 C2261 1.490 . S
C2266 C2268 1.395 . S
C2266 C2269 1.403 . S
H2267 C2273 0.930 . S
C2268 H2254 0.930 . S
C2268 C2266 1.395 . S
C2268 C2271 1.403 . S
C2269 C2266 1.403 . S
C2269 C2270 1.524 . S
C2269 C2273 1.400 . S
C2270 H2255 0.960 1_455 S
C2270 H2256 0.960 . S
C2270 H2257 0.960 . S
C2270 C2269 1.524 . S
C2271 C2268 1.403 . S
C2271 C2272 1.392 . S
C2271 C2275 1.495 . S
C2272 C2271 1.392 . S
C2272 C2273 1.385 . S
C2272 C2274 1.478 . S
C2273 H2267 0.930 . S
C2273 C2269 1.400 . S
C2273 C2272 1.385 . S
C2274 C2272 1.478 . S
C2274 C2276 1.381 . S
C2274 C2280 1.383 . S
C2275 C2271 1.495 . S
C2275 H2281 0.959 . S
C2275 H2282 0.961 . S
C2275 H2283 0.960 . S
C2276 C2274 1.381 . S
C2276 C2277 1.394 . S
C2276 H2284 0.930 . S
C2277 C2276 1.394 . S
C2277 C2278 1.383 . S
C2277 H2285 0.929 . S
C2278 C2277 1.383 . S
C2278 C2279 1.377 . S
C2279 H2263 0.930 . S
C2279 C2278 1.377 . S
C2279 C2280 1.379 . S
C2280 H2264 0.931 . S
C2280 C2274 1.383 . S
C2280 C2279 1.379 . S
H2281 C2275 0.959 . S
H2282 C2275 0.961 . S
H2283 C2275 0.960 . S
H2284 C2276 0.930 . S
H2285 C2277 0.929 . S
H2286 C2294 0.929 . S
H2287 C2296 0.930 . S
H2288 C2298 0.930 . S
H2289 C2301 0.929 . S
H2290 C2304 0.930 . S
H2291 C2306 0.960 . S
H2292 C2306 0.960 . S
H2293 C2306 0.960 . S
C2294 H2286 0.929 . S
C2294 C2295 1.377 . S
C2294 C2296 1.384 . S
C2295 C2294 1.377 . S
C2295 C2301 1.390 . S
C2296 H2287 0.930 . S
C2296 C2294 1.384 . S
C2296 C2297 1.372 . S
C2297 C2296 1.372 . S
C2297 C2298 1.400 . S
C2297 C2302 1.490 . S
C2298 H2288 0.930 . S
C2298 C2297 1.400 . S
C2298 C2301 1.386 . S
H2299 C2315 0.930 . S
H2300 C2316 0.931 . S
C2301 H2289 0.929 . S
C2301 C2295 1.390 . S
C2301 C2298 1.386 . S
C2302 C2297 1.490 . S
C2302 C2304 1.395 . S
C2302 C2305 1.403 . S
H2303 C2309 0.930 . S
C2304 H2290 0.930 . S
C2304 C2302 1.395 . S
C2304 C2307 1.403 . S
C2305 C2302 1.403 . S
C2305 C2306 1.524 . S
C2305 C2309 1.400 . S
C2306 H2291 0.960 . S
C2306 H2292 0.960 . S
C2306 H2293 0.960 . S
C2306 C2305 1.524 . S
C2307 C2304 1.403 . S
C2307 C2308 1.392 . S
C2307 C2311 1.495 . S
C2308 C2307 1.392 . S
C2308 C2309 1.385 . S
C2308 C2310 1.478 . S
C2309 H2303 0.930 . S
C2309 C2305 1.400 . S
C2309 C2308 1.385 . S
C2310 C2308 1.478 . S
C2310 C2312 1.381 . S
C2310 C2316 1.383 . S
C2311 C2307 1.495 . S
C2311 H2317 0.959 . S
C2311 H2318 0.961 . S
C2311 H2319 0.960 . S
C2312 C2310 1.381 . S
C2312 C2313 1.394 . S
C2312 H2320 0.930 . S
C2313 C2312 1.394 . S
C2313 C2314 1.383 . S
C2313 H2321 0.929 . S
C2314 C2313 1.383 . S
C2314 C2315 1.377 . S
C2315 H2299 0.930 . S
C2315 C2314 1.377 . S
C2315 C2316 1.379 . S
C2316 H2300 0.931 . S
C2316 C2310 1.383 . S
C2316 C2315 1.379 . S
H2317 C2311 0.959 . S
H2318 C2311 0.961 . S
H2319 C2311 0.960 . S
H2320 C2312 0.930 . S
H2321 C2313 0.929 . S
H2322 C2330 0.929 . S
H2323 C2332 0.930 . S
H2324 C2334 0.930 . S
H2325 C2337 0.929 . S
H2326 C2340 0.930 . S
H2327 C2342 0.960 . S
H2328 C2342 0.960 . S
H2329 C2342 0.960 . S
C2330 H2322 0.929 . S
C2330 C2331 1.377 . S
C2330 C2332 1.384 . S
C2331 C2330 1.377 . S
C2331 C2337 1.390 . S
C2332 H2323 0.930 . S
C2332 C2330 1.384 . S
C2332 C2333 1.372 . S
C2333 C2332 1.372 . S
C2333 C2334 1.400 . S
C2333 C2338 1.490 . S
C2334 H2324 0.930 . S
C2334 C2333 1.400 . S
C2334 C2337 1.386 . S
H2335 C2351 0.930 . S
H2336 C2352 0.931 . S
C2337 H2325 0.929 . S
C2337 C2331 1.390 . S
C2337 C2334 1.386 . S
C2338 C2333 1.490 . S
C2338 C2340 1.395 . S
C2338 C2341 1.403 . S
H2339 C2345 0.930 . S
C2340 H2326 0.930 . S
C2340 C2338 1.395 . S
C2340 C2343 1.403 . S
C2341 C2338 1.403 . S
C2341 C2342 1.524 . S
C2341 C2345 1.400 . S
C2342 H2327 0.960 . S
C2342 H2328 0.960 . S
C2342 H2329 0.960 . S
C2342 C2341 1.524 . S
C2343 C2340 1.403 . S
C2343 C2344 1.392 . S
C2343 C2347 1.495 1_655 S
C2344 C2343 1.392 . S
C2344 C2345 1.385 . S
C2344 C2346 1.478 . S
C2345 H2339 0.930 . S
C2345 C2341 1.400 . S
C2345 C2344 1.385 . S
C2346 C2344 1.478 . S
C2346 C2348 1.381 . S
C2346 C2352 1.383 . S
C2347 C2343 1.495 1_455 S
C2347 H2353 0.959 . S
C2347 H2354 0.961 . S
C2347 H2355 0.960 . S
C2348 C2346 1.381 . S
C2348 C2349 1.394 . S
C2348 H2356 0.930 . S
C2349 C2348 1.394 . S
C2349 C2350 1.383 . S
C2349 H2357 0.929 . S
C2350 C2349 1.383 . S
C2350 C2351 1.377 . S
C2351 H2335 0.930 . S
C2351 C2350 1.377 . S
C2351 C2352 1.379 . S
C2352 H2336 0.931 . S
C2352 C2346 1.383 . S
C2352 C2351 1.379 . S
H2353 C2347 0.959 . S
H2354 C2347 0.961 . S
H2355 C2347 0.960 . S
H2356 C2348 0.930 . S
H2357 C2349 0.929 . S
H2358 C2366 0.929 . S
H2359 C2368 0.930 . S
H2360 C2370 0.930 . S
H2361 C2373 0.929 . S
H2362 C2376 0.930 . S
H2363 C2378 0.960 . S
H2364 C2378 0.960 . S
H2365 C2378 0.960 . S
C2366 H2358 0.929 . S
C2366 C2367 1.377 . S
C2366 C2368 1.384 . S
C2367 C2366 1.377 . S
C2367 C2373 1.390 . S
C2368 H2359 0.930 . S
C2368 C2366 1.384 . S
C2368 C2369 1.372 . S
C2369 C2368 1.372 . S
C2369 C2370 1.400 . S
C2369 C2374 1.490 . S
C2370 H2360 0.930 . S
C2370 C2369 1.400 . S
C2370 C2373 1.386 . S
H2371 C2387 0.930 . S
H2372 C2388 0.931 . S
C2373 H2361 0.929 . S
C2373 C2367 1.390 . S
C2373 C2370 1.386 . S
C2374 C2369 1.490 . S
C2374 C2376 1.395 . S
C2374 C2377 1.403 . S
H2375 C2381 0.930 . S
C2376 H2362 0.930 . S
C2376 C2374 1.395 . S
C2376 C2379 1.403 . S
C2377 C2374 1.403 . S
C2377 C2378 1.524 . S
C2377 C2381 1.400 . S
C2378 H2363 0.960 . S
C2378 H2364 0.960 . S
C2378 H2365 0.960 . S
C2378 C2377 1.524 . S
C2379 C2376 1.403 . S
C2379 C2380 1.392 . S
C2379 C2383 1.495 . S
C2380 C2379 1.392 . S
C2380 C2381 1.385 . S
C2380 C2382 1.478 . S
C2381 H2375 0.930 . S
C2381 C2377 1.400 . S
C2381 C2380 1.385 . S
C2382 C2380 1.478 . S
C2382 C2384 1.381 . S
C2382 C2388 1.383 . S
C2383 C2379 1.495 . S
C2383 H2389 0.959 . S
C2383 H2390 0.961 . S
C2383 H2391 0.960 . S
C2384 C2382 1.381 . S
C2384 C2385 1.394 . S
C2384 H2392 0.930 . S
C2385 C2384 1.394 . S
C2385 C2386 1.383 . S
C2385 H2393 0.929 . S
C2386 C2385 1.383 . S
C2386 C2387 1.377 . S
C2387 H2371 0.930 . S
C2387 C2386 1.377 . S
C2387 C2388 1.379 . S
C2388 H2372 0.931 . S
C2388 C2382 1.383 . S
C2388 C2387 1.379 . S
H2389 C2383 0.959 . S
H2390 C2383 0.961 . S
H2391 C2383 0.960 . S
H2392 C2384 0.930 . S
H2393 C2385 0.929 . S
H2394 C2402 0.929 . S
H2395 C2404 0.930 . S
H2396 C2406 0.930 . S
H2397 C2409 0.929 . S
H2398 C2412 0.930 . S
H2399 C2414 0.960 . S
H2400 C2414 0.960 . S
H2401 C2414 0.960 . S
C2402 H2394 0.929 . S
C2402 C2403 1.377 . S
C2402 C2404 1.384 . S
C2403 C2402 1.377 . S
C2403 C2409 1.390 . S
C2404 H2395 0.930 . S
C2404 C2402 1.384 . S
C2404 C2405 1.372 . S
C2405 C2404 1.372 . S
C2405 C2406 1.400 . S
C2405 C2410 1.490 . S
C2406 H2396 0.930 . S
C2406 C2405 1.400 . S
C2406 C2409 1.386 . S
H2407 C2423 0.930 . S
H2408 C2424 0.931 . S
C2409 H2397 0.929 . S
C2409 C2403 1.390 . S
C2409 C2406 1.386 . S
C2410 C2405 1.490 . S
C2410 C2412 1.395 . S
C2410 C2413 1.403 . S
H2411 C2417 0.930 . S
C2412 H2398 0.930 . S
C2412 C2410 1.395 . S
C2412 C2415 1.403 . S
C2413 C2410 1.403 . S
C2413 C2414 1.524 . S
C2413 C2417 1.400 . S
C2414 H2399 0.960 . S
C2414 H2400 0.960 . S
C2414 H2401 0.960 . S
C2414 C2413 1.524 . S
C2415 C2412 1.403 . S
C2415 C2416 1.392 . S
C2415 C2419 1.495 . S
C2416 C2415 1.392 . S
C2416 C2417 1.385 . S
C2416 C2418 1.478 . S
C2417 H2411 0.930 . S
C2417 C2413 1.400 . S
C2417 C2416 1.385 . S
C2418 C2416 1.478 . S
C2418 C2420 1.381 . S
C2418 C2424 1.383 . S
C2419 C2415 1.495 . S
C2419 H2425 0.959 . S
C2419 H2426 0.961 . S
C2419 H2427 0.960 . S
C2420 C2418 1.381 . S
C2420 C2421 1.394 . S
C2420 H2428 0.930 . S
C2421 C2420 1.394 . S
C2421 C2422 1.383 . S
C2421 H2429 0.929 . S
C2422 C2421 1.383 . S
C2422 C2423 1.377 . S
C2423 H2407 0.930 . S
C2423 C2422 1.377 . S
C2423 C2424 1.379 . S
C2424 H2408 0.931 . S
C2424 C2418 1.383 . S
C2424 C2423 1.379 . S
H2425 C2419 0.959 . S
H2426 C2419 0.961 . S
H2427 C2419 0.960 . S
H2428 C2420 0.930 . S
H2429 C2421 0.929 . S
H2430 C2438 0.929 . S
H2431 C2440 0.930 . S
H2432 C2442 0.930 . S
H2433 C2445 0.929 . S
H2434 C2448 0.930 . S
H2435 C2450 0.960 . S
H2436 C2450 0.960 . S
H2437 C2450 0.960 . S
C2438 H2430 0.929 . S
C2438 C2439 1.377 . S
C2438 C2440 1.384 . S
C2439 C2438 1.377 . S
C2439 C2445 1.390 . S
C2440 H2431 0.930 . S
C2440 C2438 1.384 . S
C2440 C2441 1.372 . S
C2441 C2440 1.372 . S
C2441 C2442 1.400 . S
C2441 C2446 1.490 . S
C2442 H2432 0.930 . S
C2442 C2441 1.400 . S
C2442 C2445 1.386 . S
H2443 C2459 0.930 . S
H2444 C2460 0.931 . S
C2445 H2433 0.929 . S
C2445 C2439 1.390 . S
C2445 C2442 1.386 . S
C2446 C2441 1.490 . S
C2446 C2448 1.395 . S
C2446 C2449 1.403 . S
H2447 C2453 0.930 . S
C2448 H2434 0.930 . S
C2448 C2446 1.395 . S
C2448 C2451 1.403 . S
C2449 C2446 1.403 . S
C2449 C2450 1.524 . S
C2449 C2453 1.400 . S
C2450 H2435 0.960 . S
C2450 H2436 0.960 . S
C2450 H2437 0.960 . S
C2450 C2449 1.524 . S
C2451 C2448 1.403 . S
C2451 C2452 1.392 . S
C2451 C2455 1.495 . S
C2452 C2451 1.392 . S
C2452 C2453 1.385 . S
C2452 C2454 1.478 . S
C2453 H2447 0.930 . S
C2453 C2449 1.400 . S
C2453 C2452 1.385 . S
C2454 C2452 1.478 . S
C2454 C2456 1.381 . S
C2454 C2460 1.383 . S
C2455 C2451 1.495 . S
C2455 H2461 0.959 . S
C2455 H2462 0.961 . S
C2455 H2463 0.960 . S
C2456 C2454 1.381 . S
C2456 C2457 1.394 . S
C2456 H2464 0.930 . S
C2457 C2456 1.394 . S
C2457 C2458 1.383 . S
C2457 H2465 0.929 . S
C2458 C2457 1.383 . S
C2458 C2459 1.377 . S
C2459 H2443 0.930 . S
C2459 C2458 1.377 . S
C2459 C2460 1.379 . S
C2460 H2444 0.931 . S
C2460 C2454 1.383 . S
C2460 C2459 1.379 . S
H2461 C2455 0.959 . S
H2462 C2455 0.961 . S
H2463 C2455 0.960 . S
H2464 C2456 0.930 . S
H2465 C2457 0.929 . S
H2466 C2474 0.929 . S
H2467 C2476 0.930 . S
H2468 C2478 0.930 . S
H2469 C2481 0.929 . S
H2470 C2484 0.930 . S
H2471 C2486 0.960 . S
H2472 C2486 0.960 . S
H2473 C2486 0.960 . S
C2474 H2466 0.929 . S
C2474 C2475 1.377 . S
C2474 C2476 1.384 . S
C2475 C2474 1.377 . S
C2475 C2481 1.390 . S
C2476 H2467 0.930 . S
C2476 C2474 1.384 . S
C2476 C2477 1.372 . S
C2477 C2476 1.372 . S
C2477 C2478 1.400 . S
C2477 C2482 1.490 . S
C2478 H2468 0.930 . S
C2478 C2477 1.400 . S
C2478 C2481 1.386 . S
H2479 C2495 0.930 . S
H2480 C2496 0.931 . S
C2481 H2469 0.929 . S
C2481 C2475 1.390 . S
C2481 C2478 1.386 . S
C2482 C2477 1.490 . S
C2482 C2484 1.395 . S
C2482 C2485 1.403 . S
H2483 C2489 0.930 . S
C2484 H2470 0.930 . S
C2484 C2482 1.395 . S
C2484 C2487 1.403 . S
C2485 C2482 1.403 . S
C2485 C2486 1.524 . S
C2485 C2489 1.400 . S
C2486 H2471 0.960 . S
C2486 H2472 0.960 . S
C2486 H2473 0.960 . S
C2486 C2485 1.524 . S
C2487 C2484 1.403 . S
C2487 C2488 1.392 . S
C2487 C2491 1.495 . S
C2488 C2487 1.392 . S
C2488 C2489 1.385 . S
C2488 C2490 1.478 . S
C2489 H2483 0.930 . S
C2489 C2485 1.400 . S
C2489 C2488 1.385 . S
C2490 C2488 1.478 . S
C2490 C2492 1.381 . S
C2490 C2496 1.383 . S
C2491 C2487 1.495 . S
C2491 H2497 0.959 . S
C2491 H2498 0.961 . S
C2491 H2499 0.960 . S
C2492 C2490 1.381 . S
C2492 C2493 1.394 . S
C2492 H2500 0.930 . S
C2493 C2492 1.394 . S
C2493 C2494 1.383 . S
C2493 H2501 0.929 . S
C2494 C2493 1.383 . S
C2494 C2495 1.377 . S
C2495 H2479 0.930 . S
C2495 C2494 1.377 . S
C2495 C2496 1.379 . S
C2496 H2480 0.931 . S
C2496 C2490 1.383 . S
C2496 C2495 1.379 . S
H2497 C2491 0.959 . S
H2498 C2491 0.961 . S
H2499 C2491 0.960 . S
H2500 C2492 0.930 . S
H2501 C2493 0.929 . S
H2502 C2510 0.929 . S
H2503 C2512 0.930 . S
H2504 C2514 0.930 . S
H2505 C2517 0.929 . S
H2506 C2520 0.930 . S
H2507 C2522 0.960 . S
H2508 C2522 0.960 . S
H2509 C2522 0.960 . S
C2510 H2502 0.929 . S
C2510 C2511 1.377 . S
C2510 C2512 1.384 . S
C2511 C2510 1.377 . S
C2511 C2517 1.390 . S
C2512 H2503 0.930 . S
C2512 C2510 1.384 . S
C2512 C2513 1.372 . S
C2513 C2512 1.372 . S
C2513 C2514 1.400 . S
C2513 C2518 1.490 . S
C2514 H2504 0.930 . S
C2514 C2513 1.400 . S
C2514 C2517 1.386 . S
H2515 C2531 0.930 . S
H2516 C2532 0.931 . S
C2517 H2505 0.929 . S
C2517 C2511 1.390 . S
C2517 C2514 1.386 . S
C2518 C2513 1.490 . S
C2518 C2520 1.395 . S
C2518 C2521 1.403 . S
H2519 C2525 0.930 . S
C2520 H2506 0.930 . S
C2520 C2518 1.395 . S
C2520 C2523 1.403 . S
C2521 C2518 1.403 . S
C2521 C2522 1.524 . S
C2521 C2525 1.400 . S
C2522 H2507 0.960 . S
C2522 H2508 0.960 . S
C2522 H2509 0.960 . S
C2522 C2521 1.524 . S
C2523 C2520 1.403 . S
C2523 C2524 1.392 . S
C2523 C2527 1.495 . S
C2524 C2523 1.392 . S
C2524 C2525 1.385 . S
C2524 C2526 1.478 . S
C2525 H2519 0.930 . S
C2525 C2521 1.400 . S
C2525 C2524 1.385 . S
C2526 C2524 1.478 . S
C2526 C2528 1.381 . S
C2526 C2532 1.383 . S
C2527 C2523 1.495 . S
C2527 H2533 0.959 . S
C2527 H2534 0.961 . S
C2527 H2535 0.960 . S
C2528 C2526 1.381 . S
C2528 C2529 1.394 . S
C2528 H2536 0.930 . S
C2529 C2528 1.394 . S
C2529 C2530 1.383 . S
C2529 H2537 0.929 . S
C2530 C2529 1.383 . S
C2530 C2531 1.377 . S
C2531 H2515 0.930 . S
C2531 C2530 1.377 . S
C2531 C2532 1.379 . S
C2532 H2516 0.931 . S
C2532 C2526 1.383 . S
C2532 C2531 1.379 . S
H2533 C2527 0.959 . S
H2534 C2527 0.961 . S
H2535 C2527 0.960 . S
H2536 C2528 0.930 . S
H2537 C2529 0.929 . S
H2538 C2546 0.929 . S
H2539 C2548 0.930 . S
H2540 C2550 0.930 . S
H2541 C2553 0.929 . S
H2542 C2556 0.930 . S
H2543 C2558 0.960 . S
H2544 C2558 0.960 . S
H2545 C2558 0.960 . S
C2546 H2538 0.929 . S
C2546 C2547 1.377 . S
C2546 C2548 1.384 . S
C2547 C2546 1.377 . S
C2547 C2553 1.390 . S
C2548 H2539 0.930 . S
C2548 C2546 1.384 . S
C2548 C2549 1.372 . S
C2549 C2548 1.372 . S
C2549 C2550 1.400 . S
C2549 C2554 1.490 . S
C2550 H2540 0.930 . S
C2550 C2549 1.400 . S
C2550 C2553 1.386 . S
H2551 C2567 0.930 . S
H2552 C2568 0.931 . S
C2553 H2541 0.929 . S
C2553 C2547 1.390 . S
C2553 C2550 1.386 . S
C2554 C2549 1.490 . S
C2554 C2556 1.395 . S
C2554 C2557 1.403 . S
H2555 C2561 0.930 . S
C2556 H2542 0.930 . S
C2556 C2554 1.395 . S
C2556 C2559 1.403 . S
C2557 C2554 1.403 . S
C2557 C2558 1.524 . S
C2557 C2561 1.400 . S
C2558 H2543 0.960 . S
C2558 H2544 0.960 . S
C2558 H2545 0.960 . S
C2558 C2557 1.524 . S
C2559 C2556 1.403 . S
C2559 C2560 1.392 . S
C2559 C2563 1.495 . S
C2560 C2559 1.392 . S
C2560 C2561 1.385 . S
C2560 C2562 1.478 . S
C2561 H2555 0.930 . S
C2561 C2557 1.400 . S
C2561 C2560 1.385 . S
C2562 C2560 1.478 . S
C2562 C2564 1.381 . S
C2562 C2568 1.383 . S
C2563 C2559 1.495 . S
C2563 H2569 0.959 . S
C2563 H2570 0.961 . S
C2563 H2571 0.960 . S
C2564 C2562 1.381 . S
C2564 C2565 1.394 . S
C2564 H2572 0.930 . S
C2565 C2564 1.394 . S
C2565 C2566 1.383 . S
C2565 H2573 0.929 . S
C2566 C2565 1.383 . S
C2566 C2567 1.377 . S
C2567 H2551 0.930 . S
C2567 C2566 1.377 . S
C2567 C2568 1.379 . S
C2568 H2552 0.931 . S
C2568 C2562 1.383 . S
C2568 C2567 1.379 . S
H2569 C2563 0.959 . S
H2570 C2563 0.961 . S
H2571 C2563 0.960 . S
H2572 C2564 0.930 . S
H2573 C2565 0.929 . S
H2574 C2582 0.929 . S
H2575 C2584 0.930 . S
H2576 C2586 0.930 . S
H2577 C2589 0.929 . S
H2578 C2592 0.930 . S
H2579 C2594 0.960 . S
H2580 C2594 0.960 . S
H2581 C2594 0.960 . S
C2582 H2574 0.929 . S
C2582 C2583 1.377 . S
C2582 C2584 1.384 . S
C2583 C2582 1.377 . S
C2583 C2589 1.390 . S
C2584 H2575 0.930 . S
C2584 C2582 1.384 . S
C2584 C2585 1.372 . S
C2585 C2584 1.372 . S
C2585 C2586 1.400 . S
C2585 C2590 1.490 . S
C2586 H2576 0.930 . S
C2586 C2585 1.400 . S
C2586 C2589 1.386 . S
H2587 C2603 0.930 . S
H2588 C2604 0.931 . S
C2589 H2577 0.929 . S
C2589 C2583 1.390 . S
C2589 C2586 1.386 . S
C2590 C2585 1.490 . S
C2590 C2592 1.395 . S
C2590 C2593 1.403 . S
H2591 C2597 0.930 . S
C2592 H2578 0.930 . S
C2592 C2590 1.395 . S
C2592 C2595 1.403 . S
C2593 C2590 1.403 . S
C2593 C2594 1.524 . S
C2593 C2597 1.400 . S
C2594 H2579 0.960 . S
C2594 H2580 0.960 . S
C2594 H2581 0.960 . S
C2594 C2593 1.524 . S
C2595 C2592 1.403 . S
C2595 C2596 1.392 . S
C2595 C2599 1.495 . S
C2596 C2595 1.392 . S
C2596 C2597 1.385 . S
C2596 C2598 1.478 . S
C2597 H2591 0.930 . S
C2597 C2593 1.400 . S
C2597 C2596 1.385 . S
C2598 C2596 1.478 . S
C2598 C2600 1.381 . S
C2598 C2604 1.383 . S
C2599 C2595 1.495 . S
C2599 H2605 0.959 . S
C2599 H2606 0.961 . S
C2599 H2607 0.960 . S
C2600 C2598 1.381 . S
C2600 C2601 1.394 . S
C2600 H2608 0.930 . S
C2601 C2600 1.394 . S
C2601 C2602 1.383 . S
C2601 H2609 0.929 . S
C2602 C2601 1.383 . S
C2602 C2603 1.377 . S
C2603 H2587 0.930 . S
C2603 C2602 1.377 . S
C2603 C2604 1.379 . S
C2604 H2588 0.931 . S
C2604 C2598 1.383 . S
C2604 C2603 1.379 . S
H2605 C2599 0.959 . S
H2606 C2599 0.961 . S
H2607 C2599 0.960 . S
H2608 C2600 0.930 . S
H2609 C2601 0.929 . S
H2610 C2618 0.929 . S
H2611 C2620 0.930 . S
H2612 C2622 0.930 . S
H2613 C2625 0.929 . S
H2614 C2628 0.930 . S
H2615 C2630 0.960 . S
H2616 C2630 0.960 . S
H2617 C2630 0.960 . S
C2618 H2610 0.929 . S
C2618 C2619 1.377 . S
C2618 C2620 1.384 . S
C2619 C2618 1.377 . S
C2619 C2625 1.390 . S
C2620 H2611 0.930 . S
C2620 C2618 1.384 . S
C2620 C2621 1.372 . S
C2621 C2620 1.372 . S
C2621 C2622 1.400 . S
C2621 C2626 1.490 . S
C2622 H2612 0.930 . S
C2622 C2621 1.400 . S
C2622 C2625 1.386 . S
H2623 C2639 0.930 . S
H2624 C2640 0.931 . S
C2625 H2613 0.929 . S
C2625 C2619 1.390 . S
C2625 C2622 1.386 . S
C2626 C2621 1.490 . S
C2626 C2628 1.395 . S
C2626 C2629 1.403 . S
H2627 C2633 0.930 . S
C2628 H2614 0.930 . S
C2628 C2626 1.395 . S
C2628 C2631 1.403 . S
C2629 C2626 1.403 . S
C2629 C2630 1.524 . S
C2629 C2633 1.400 . S
C2630 H2615 0.960 . S
C2630 H2616 0.960 . S
C2630 H2617 0.960 . S
C2630 C2629 1.524 . S
C2631 C2628 1.403 . S
C2631 C2632 1.392 . S
C2631 C2635 1.495 . S
C2632 C2631 1.392 . S
C2632 C2633 1.385 . S
C2632 C2634 1.478 . S
C2633 H2627 0.930 . S
C2633 C2629 1.400 . S
C2633 C2632 1.385 . S
C2634 C2632 1.478 . S
C2634 C2636 1.381 . S
C2634 C2640 1.383 . S
C2635 C2631 1.495 . S
C2635 H2641 0.959 . S
C2635 H2642 0.961 . S
C2635 H2643 0.960 . S
C2636 C2634 1.381 . S
C2636 C2637 1.394 . S
C2636 H2644 0.930 . S
C2637 C2636 1.394 . S
C2637 C2638 1.383 . S
C2637 H2645 0.929 . S
C2638 C2637 1.383 . S
C2638 C2639 1.377 . S
C2639 H2623 0.930 . S
C2639 C2638 1.377 . S
C2639 C2640 1.379 . S
C2640 H2624 0.931 . S
C2640 C2634 1.383 . S
C2640 C2639 1.379 . S
H2641 C2635 0.959 . S
H2642 C2635 0.961 . S
H2643 C2635 0.960 . S
H2644 C2636 0.930 . S
H2645 C2637 0.929 . S
H2646 C2654 0.929 . S
H2647 C2656 0.930 . S
H2648 C2658 0.930 . S
H2649 C2661 0.929 . S
H2650 C2664 0.930 . S
H2651 C2666 0.960 . S
H2652 C2666 0.960 . S
H2653 C2666 0.960 . S
C2654 H2646 0.929 . S
C2654 C2655 1.377 . S
C2654 C2656 1.384 . S
C2655 C2654 1.377 . S
C2655 C2661 1.390 . S
C2656 H2647 0.930 . S
C2656 C2654 1.384 . S
C2656 C2657 1.372 . S
C2657 C2656 1.372 . S
C2657 C2658 1.400 . S
C2657 C2662 1.490 . S
C2658 H2648 0.930 . S
C2658 C2657 1.400 . S
C2658 C2661 1.386 . S
H2659 C2675 0.930 . S
H2660 C2676 0.931 . S
C2661 H2649 0.929 . S
C2661 C2655 1.390 . S
C2661 C2658 1.386 . S
C2662 C2657 1.490 . S
C2662 C2664 1.395 . S
C2662 C2665 1.403 . S
H2663 C2669 0.930 . S
C2664 H2650 0.930 . S
C2664 C2662 1.395 . S
C2664 C2667 1.403 . S
C2665 C2662 1.403 . S
C2665 C2666 1.524 . S
C2665 C2669 1.400 . S
C2666 H2651 0.960 . S
C2666 H2652 0.960 . S
C2666 H2653 0.960 . S
C2666 C2665 1.524 . S
C2667 C2664 1.403 . S
C2667 C2668 1.392 . S
C2667 C2671 1.495 . S
C2668 C2667 1.392 . S
C2668 C2669 1.385 . S
C2668 C2670 1.478 . S
C2669 H2663 0.930 . S
C2669 C2665 1.400 . S
C2669 C2668 1.385 . S
C2670 C2668 1.478 . S
C2670 C2672 1.381 . S
C2670 C2676 1.383 . S
C2671 C2667 1.495 . S
C2671 H2677 0.959 . S
C2671 H2678 0.961 . S
C2671 H2679 0.960 . S
C2672 C2670 1.381 . S
C2672 C2673 1.394 . S
C2672 H2680 0.930 . S
C2673 C2672 1.394 . S
C2673 C2674 1.383 . S
C2673 H2681 0.929 . S
C2674 C2673 1.383 . S
C2674 C2675 1.377 . S
C2675 H2659 0.930 . S
C2675 C2674 1.377 . S
C2675 C2676 1.379 . S
C2676 H2660 0.931 . S
C2676 C2670 1.383 . S
C2676 C2675 1.379 . S
H2677 C2671 0.959 . S
H2678 C2671 0.961 . S
H2679 C2671 0.960 . S
H2680 C2672 0.930 . S
H2681 C2673 0.929 . S
H2682 C2690 0.929 . S
H2683 C2692 0.930 . S
H2684 C2694 0.930 . S
H2685 C2697 0.929 . S
H2686 C2700 0.930 . S
H2687 C2702 0.960 . S
H2688 C2702 0.960 . S
H2689 C2702 0.960 . S
C2690 H2682 0.929 . S
C2690 C2691 1.377 . S
C2690 C2692 1.384 . S
C2691 C2690 1.377 . S
C2691 C2697 1.390 . S
C2692 H2683 0.930 . S
C2692 C2690 1.384 . S
C2692 C2693 1.372 . S
C2693 C2692 1.372 . S
C2693 C2694 1.400 . S
C2693 C2698 1.490 . S
C2694 H2684 0.930 . S
C2694 C2693 1.400 . S
C2694 C2697 1.386 . S
H2695 C2711 0.930 . S
H2696 C2712 0.931 . S
C2697 H2685 0.929 . S
C2697 C2691 1.390 . S
C2697 C2694 1.386 . S
C2698 C2693 1.490 . S
C2698 C2700 1.395 . S
C2698 C2701 1.403 . S
H2699 C2705 0.930 . S
C2700 H2686 0.930 . S
C2700 C2698 1.395 . S
C2700 C2703 1.403 . S
C2701 C2698 1.403 . S
C2701 C2702 1.524 . S
C2701 C2705 1.400 . S
C2702 H2687 0.960 . S
C2702 H2688 0.960 . S
C2702 H2689 0.960 . S
C2702 C2701 1.524 . S
C2703 C2700 1.403 . S
C2703 C2704 1.392 . S
C2703 C2707 1.495 . S
C2704 C2703 1.392 . S
C2704 C2705 1.385 . S
C2704 C2706 1.478 . S
C2705 H2699 0.930 . S
C2705 C2701 1.400 . S
C2705 C2704 1.385 . S
C2706 C2704 1.478 . S
C2706 C2708 1.381 . S
C2706 C2712 1.383 . S
C2707 C2703 1.495 . S
C2707 H2713 0.959 . S
C2707 H2714 0.961 . S
C2707 H2715 0.960 . S
C2708 C2706 1.381 . S
C2708 C2709 1.394 . S
C2708 H2716 0.930 . S
C2709 C2708 1.394 . S
C2709 C2710 1.383 . S
C2709 H2717 0.929 . S
C2710 C2709 1.383 . S
C2710 C2711 1.377 . S
C2711 H2695 0.930 . S
C2711 C2710 1.377 . S
C2711 C2712 1.379 . S
C2712 H2696 0.931 . S
C2712 C2706 1.383 . S
C2712 C2711 1.379 . S
H2713 C2707 0.959 . S
H2714 C2707 0.961 . S
H2715 C2707 0.960 . S
H2716 C2708 0.930 . S
H2717 C2709 0.929 . S
H2718 C2726 0.929 . S
H2719 C2728 0.930 . S
H2720 C2730 0.930 . S
H2721 C2733 0.929 . S
H2722 C2736 0.930 . S
H2723 C2738 0.960 . S
H2724 C2738 0.960 . S
H2725 C2738 0.960 . S
C2726 H2718 0.929 . S
C2726 C2727 1.377 . S
C2726 C2728 1.384 . S
C2727 C2726 1.377 . S
C2727 C2733 1.390 . S
C2728 H2719 0.930 . S
C2728 C2726 1.384 . S
C2728 C2729 1.372 . S
C2729 C2728 1.372 . S
C2729 C2730 1.400 . S
C2729 C2734 1.490 . S
C2730 H2720 0.930 . S
C2730 C2729 1.400 . S
C2730 C2733 1.386 . S
H2731 C2747 0.930 . S
H2732 C2748 0.931 . S
C2733 H2721 0.929 . S
C2733 C2727 1.390 . S
C2733 C2730 1.386 . S
C2734 C2729 1.490 . S
C2734 C2736 1.395 . S
C2734 C2737 1.403 . S
H2735 C2741 0.930 . S
C2736 H2722 0.930 . S
C2736 C2734 1.395 . S
C2736 C2739 1.403 . S
C2737 C2734 1.403 . S
C2737 C2738 1.524 . S
C2737 C2741 1.400 . S
C2738 H2723 0.960 . S
C2738 H2724 0.960 . S
C2738 H2725 0.960 . S
C2738 C2737 1.524 . S
C2739 C2736 1.403 . S
C2739 C2740 1.392 . S
C2739 C2743 1.495 . S
C2740 C2739 1.392 . S
C2740 C2741 1.385 . S
C2740 C2742 1.478 . S
C2741 H2735 0.930 . S
C2741 C2737 1.400 . S
C2741 C2740 1.385 . S
C2742 C2740 1.478 . S
C2742 C2744 1.381 . S
C2742 C2748 1.383 . S
C2743 C2739 1.495 . S
C2743 H2749 0.959 . S
C2743 H2750 0.961 . S
C2743 H2751 0.960 . S
C2744 C2742 1.381 . S
C2744 C2745 1.394 . S
C2744 H2752 0.930 . S
C2745 C2744 1.394 . S
C2745 C2746 1.383 . S
C2745 H2753 0.929 . S
C2746 C2745 1.383 . S
C2746 C2747 1.377 . S
C2747 H2731 0.930 . S
C2747 C2746 1.377 . S
C2747 C2748 1.379 . S
C2748 H2732 0.931 . S
C2748 C2742 1.383 . S
C2748 C2747 1.379 . S
H2749 C2743 0.959 . S
H2750 C2743 0.961 . S
H2751 C2743 0.960 . S
H2752 C2744 0.930 . S
H2753 C2745 0.929 . S
H2754 C2762 0.929 . S
H2755 C2764 0.930 . S
H2756 C2766 0.930 . S
H2757 C2769 0.929 . S
H2758 C2772 0.930 . S
H2759 C2774 0.960 . S
H2760 C2774 0.960 . S
H2761 C2774 0.960 . S
C2762 H2754 0.929 . S
C2762 C2763 1.377 . S
C2762 C2764 1.384 . S
C2763 C2762 1.377 . S
C2763 C2769 1.390 . S
C2764 H2755 0.930 . S
C2764 C2762 1.384 . S
C2764 C2765 1.372 . S
C2765 C2764 1.372 . S
C2765 C2766 1.400 . S
C2765 C2770 1.490 . S
C2766 H2756 0.930 . S
C2766 C2765 1.400 . S
C2766 C2769 1.386 . S
H2767 C2783 0.930 . S
H2768 C2784 0.931 . S
C2769 H2757 0.929 . S
C2769 C2763 1.390 . S
C2769 C2766 1.386 . S
C2770 C2765 1.490 . S
C2770 C2772 1.395 . S
C2770 C2773 1.403 . S
H2771 C2777 0.930 . S
C2772 H2758 0.930 . S
C2772 C2770 1.395 . S
C2772 C2775 1.403 . S
C2773 C2770 1.403 . S
C2773 C2774 1.524 . S
C2773 C2777 1.400 . S
C2774 H2759 0.960 . S
C2774 H2760 0.960 . S
C2774 H2761 0.960 . S
C2774 C2773 1.524 . S
C2775 C2772 1.403 . S
C2775 C2776 1.392 . S
C2775 C2779 1.495 . S
C2776 C2775 1.392 . S
C2776 C2777 1.385 . S
C2776 C2778 1.478 . S
C2777 H2771 0.930 . S
C2777 C2773 1.400 . S
C2777 C2776 1.385 . S
C2778 C2776 1.478 . S
C2778 C2780 1.381 . S
C2778 C2784 1.383 . S
C2779 C2775 1.495 . S
C2779 H2785 0.959 . S
C2779 H2786 0.961 . S
C2779 H2787 0.960 . S
C2780 C2778 1.381 . S
C2780 C2781 1.394 . S
C2780 H2788 0.930 . S
C2781 C2780 1.394 . S
C2781 C2782 1.383 . S
C2781 H2789 0.929 . S
C2782 C2781 1.383 . S
C2782 C2783 1.377 . S
C2783 H2767 0.930 . S
C2783 C2782 1.377 . S
C2783 C2784 1.379 . S
C2784 H2768 0.931 . S
C2784 C2778 1.383 . S
C2784 C2783 1.379 . S
H2785 C2779 0.959 . S
H2786 C2779 0.961 . S
H2787 C2779 0.960 . S
H2788 C2780 0.930 . S
H2789 C2781 0.929 . S
H2790 C2798 0.929 . S
H2791 C2800 0.930 . S
H2792 C2802 0.930 . S
H2793 C2805 0.929 . S
H2794 C2808 0.930 . S
H2795 C2810 0.960 . S
H2796 C2810 0.960 . S
H2797 C2810 0.960 . S
C2798 H2790 0.929 . S
C2798 C2799 1.377 . S
C2798 C2800 1.384 . S
C2799 C2798 1.377 . S
C2799 C2805 1.390 . S
C2800 H2791 0.930 . S
C2800 C2798 1.384 . S
C2800 C2801 1.372 . S
C2801 C2800 1.372 . S
C2801 C2802 1.400 . S
C2801 C2806 1.490 . S
C2802 H2792 0.930 . S
C2802 C2801 1.400 . S
C2802 C2805 1.386 . S
H2803 C2819 0.930 . S
H2804 C2820 0.931 . S
C2805 H2793 0.929 . S
C2805 C2799 1.390 . S
C2805 C2802 1.386 . S
C2806 C2801 1.490 . S
C2806 C2808 1.395 . S
C2806 C2809 1.403 . S
H2807 C2813 0.930 . S
C2808 H2794 0.930 . S
C2808 C2806 1.395 . S
C2808 C2811 1.403 . S
C2809 C2806 1.403 . S
C2809 C2810 1.524 . S
C2809 C2813 1.400 . S
C2810 H2795 0.960 . S
C2810 H2796 0.960 . S
C2810 H2797 0.960 . S
C2810 C2809 1.524 . S
C2811 C2808 1.403 . S
C2811 C2812 1.392 . S
C2811 C2815 1.495 . S
C2812 C2811 1.392 . S
C2812 C2813 1.385 . S
C2812 C2814 1.478 . S
C2813 H2807 0.930 . S
C2813 C2809 1.400 . S
C2813 C2812 1.385 . S
C2814 C2812 1.478 . S
C2814 C2816 1.381 . S
C2814 C2820 1.383 . S
C2815 C2811 1.495 . S
C2815 H2821 0.959 . S
C2815 H2822 0.961 . S
C2815 H2823 0.960 . S
C2816 C2814 1.381 . S
C2816 C2817 1.394 . S
C2816 H2824 0.930 . S
C2817 C2816 1.394 . S
C2817 C2818 1.383 . S
C2817 H2825 0.929 . S
C2818 C2817 1.383 . S
C2818 C2819 1.377 . S
C2819 H2803 0.930 . S
C2819 C2818 1.377 . S
C2819 C2820 1.379 . S
C2820 H2804 0.931 . S
C2820 C2814 1.383 . S
C2820 C2819 1.379 . S
H2821 C2815 0.959 . S
H2822 C2815 0.961 . S
H2823 C2815 0.960 . S
H2824 C2816 0.930 . S
H2825 C2817 0.929 . S
H2826 C2834 0.929 . S
H2827 C2836 0.930 . S
H2828 C2838 0.930 . S
H2829 C2841 0.929 . S
H2830 C2844 0.930 . S
H2831 C2846 0.960 . S
H2832 C2846 0.960 . S
H2833 C2846 0.960 . S
C2834 H2826 0.929 . S
C2834 C2835 1.377 . S
C2834 C2836 1.384 . S
C2835 C2834 1.377 . S
C2835 C2841 1.390 . S
C2836 H2827 0.930 . S
C2836 C2834 1.384 . S
C2836 C2837 1.372 . S
C2837 C2836 1.372 . S
C2837 C2838 1.400 . S
C2837 C2842 1.490 . S
C2838 H2828 0.930 . S
C2838 C2837 1.400 . S
C2838 C2841 1.386 . S
H2839 C2855 0.930 . S
H2840 C2856 0.931 . S
C2841 H2829 0.929 . S
C2841 C2835 1.390 . S
C2841 C2838 1.386 . S
C2842 C2837 1.490 . S
C2842 C2844 1.395 . S
C2842 C2845 1.403 . S
H2843 C2849 0.930 . S
C2844 H2830 0.930 . S
C2844 C2842 1.395 . S
C2844 C2847 1.403 . S
C2845 C2842 1.403 . S
C2845 C2846 1.524 . S
C2845 C2849 1.400 . S
C2846 H2831 0.960 . S
C2846 H2832 0.960 . S
C2846 H2833 0.960 . S
C2846 C2845 1.524 . S
C2847 C2844 1.403 . S
C2847 C2848 1.392 . S
C2847 C2851 1.495 . S
C2848 C2847 1.392 . S
C2848 C2849 1.385 . S
C2848 C2850 1.478 . S
C2849 H2843 0.930 . S
C2849 C2845 1.400 . S
C2849 C2848 1.385 . S
C2850 C2848 1.478 . S
C2850 C2852 1.381 . S
C2850 C2856 1.383 . S
C2851 C2847 1.495 . S
C2851 H2857 0.959 . S
C2851 H2858 0.961 . S
C2851 H2859 0.960 . S
C2852 C2850 1.381 . S
C2852 C2853 1.394 . S
C2852 H2860 0.930 . S
C2853 C2852 1.394 . S
C2853 C2854 1.383 . S
C2853 H2861 0.929 . S
C2854 C2853 1.383 . S
C2854 C2855 1.377 . S
C2855 H2839 0.930 . S
C2855 C2854 1.377 . S
C2855 C2856 1.379 . S
C2856 H2840 0.931 . S
C2856 C2850 1.383 . S
C2856 C2855 1.379 . S
H2857 C2851 0.959 . S
H2858 C2851 0.961 . S
H2859 C2851 0.960 . S
H2860 C2852 0.930 . S
H2861 C2853 0.929 . S
C927 C124 1.405 . S
C946 C229 1.345 . S
C963 C130 1.465 . S
C982 C313 1.422 . S
C999 C115 1.442 . S
C1018 C393 1.424 . S
C1035 C106 1.412 . S
C1054 C309 1.384 . S
C1090 C397 1.299 . S
C1071 C85 1.405 . S
C1107 C97 1.365 . S
C1126 C225 1.353 . S
C1162 C218 1.368 . S
C1143 C103 1.435 . S
C1198 C302 1.337 . S
C1179 C88 1.436 . S
C1215 C94 1.441 . S
C1234 C404 1.407 . S
C1251 C121 1.409 . S
C1270 C320 1.382 . S
C1287 C133 1.373 . S
C1306 C386 1.265 . S
C1342 C236 1.379 . S
C1323 C112 1.393 . S
C1378 C481 1.330 . S
C1359 C16 1.405 . S
C1395 C22 1.465 . S
C1414 C565 1.383 . S
C1431 C7 1.440 . S
C1450 C645 1.425 . S
C1467 C160 1.411 . S
C1486 C561 1.353 . S
C1503 C139 1.405 . S
C1522 C649 1.293 . S
C1539 C151 1.366 . S
C1558 C477 1.317 . S
C1575 C157 1.436 . S
C1594 C470 1.385 . S
C1611 C142 1.438 . S
C1630 C554 1.393 . S
C1666 C656 1.381 . S
C1647 C148 1.438 . S
C1683 C13 1.409 . S
C1702 C572 1.356 . S
C1738 C638 1.265 . S
C1719 C25 1.373 . S
C1755 C4 1.394 . S
C1774 C488 1.365 . S
C1810 C733 1.346 . S
C1791 C70 1.406 . S
C1827 C76 1.467 . S
C1846 C817 1.360 . S
C1882 C897 1.428 . S
C1863 C61 1.441 . S
C1918 C813 1.399 . S
C1899 C52 1.411 . S
C1954 C901 1.363 . S
C1935 C31 1.403 . S
C1971 C43 1.365 . S
C1990 C729 1.305 . S
C2007 C49 1.436 . S
C2026 C722 1.369 . S
C2043 C34 1.436 . S
C2062 C806 1.332 . S
C2098 C908 1.424 . S
C2079 C40 1.440 . S
C2115 C67 1.408 . S
C2134 C824 1.351 . S
C2151 C79 1.374 . S
C2170 C890 1.284 . S
C2187 C58 1.391 . S
C2206 C740 1.349 . S
C2223 C140 1.450 . S
C2242 C232 1.340 . S
C2278 C316 1.393 . S
C2259 C149 1.494 . S
C2295 C158 1.487 . S
C2314 C388 1.363 . S
C2331 C59 1.517 . S
C2350 C304 1.333 . S
C2367 C68 1.465 . S
C2386 C400 1.322 . S
C2422 C220 1.357 . S
C2403 C77 1.450 . S
C2439 C32 1.449 . S
C2458 C484 1.355 . S
C2475 C41 1.494 . S
C2494 C568 1.325 . S
C2511 C50 1.487 . S
C2530 C640 1.365 . S
C2547 C113 1.517 . S
C2566 C556 1.357 . S
C2602 C652 1.292 . S
C2583 C122 1.465 . S
C2619 C131 1.450 . S
C2638 C472 1.316 . S
C2655 C86 1.450 . S
C2674 C736 1.368 . S
C2691 C95 1.493 . S
C2710 C820 1.341 . S
C2746 C892 1.390 . S
C2727 C104 1.488 . S
C2763 C5 1.518 . S
C2782 C808 1.347 . S
C2799 C14 1.464 . S
C2818 C904 1.349 . S
C2835 C23 1.450 . S
C2854 C724 1.362 . S
