# Generated by pormake.
# Topology tsx, (6,3)-cn, num edge types: 1
# Building blocks:
#     Node 0, Type 0, BuildingBlock: LEVNOQ01_clean_sbu_1, # of connection points: 6
#     Node 1, Type 0, BuildingBlock: LEVNOQ01_clean_sbu_1, # of connection points: 6
#     Node 2, Type 1, BuildingBlock: QEWDON_clean_linker_0, # of connection points: 3
#     Node 3, Type 1, BuildingBlock: QEWDON_clean_linker_0, # of connection points: 3
#     Node 4, Type 1, BuildingBlock: QEWDON_clean_linker_0, # of connection points: 3
#     Node 5, Type 1, BuildingBlock: QEWDON_clean_linker_0, # of connection points: 3
#     Edge 6, Type (0, 1), BuildingBlock: KIFKEQ_clean_linker_1, # of connection points: 2
#     Edge 7, Type (0, 1), BuildingBlock: KIFKEQ_clean_linker_1, # of connection points: 2
#     Edge 8, Type (0, 1), BuildingBlock: KIFKEQ_clean_linker_1, # of connection points: 2
#     Edge 9, Type (0, 1), BuildingBlock: KIFKEQ_clean_linker_1, # of connection points: 2
#     Edge 10, Type (0, 1), BuildingBlock: KIFKEQ_clean_linker_1, # of connection points: 2
#     Edge 11, Type (0, 1), BuildingBlock: KIFKEQ_clean_linker_1, # of connection points: 2
#     Edge 12, Type (0, 1), BuildingBlock: KIFKEQ_clean_linker_1, # of connection points: 2
#     Edge 13, Type (0, 1), BuildingBlock: KIFKEQ_clean_linker_1, # of connection points: 2
#     Edge 14, Type (0, 1), BuildingBlock: KIFKEQ_clean_linker_1, # of connection points: 2
#     Edge 15, Type (0, 1), BuildingBlock: KIFKEQ_clean_linker_1, # of connection points: 2
#     Edge 16, Type (0, 1), BuildingBlock: KIFKEQ_clean_linker_1, # of connection points: 2
#     Edge 17, Type (0, 1), BuildingBlock: KIFKEQ_clean_linker_1, # of connection points: 2
# Relax obj value: 0.108
# Max RMSD: 0.205
# Mean RMSD: 0.148
data_MOF--net-tsx--node1-LEVNOQ01_clean_sbu_1--node2-QEWDON_clean_linker_0--edge1-KIFKEQ_clean_linker_1
_symmetry_space_group_name_H-M    P1
_symmetry_Int_Tables_number       1
_symmetry_cell_setting            triclinic
loop_
_symmetry_equiv_pos_as_xyz
'x, y, z'
_cell_length_a     20.484605
_cell_length_b     24.738124
_cell_length_c     33.751102
_cell_angle_alpha  97.808601
_cell_angle_beta   106.66891
_cell_angle_gamma 91.089006
loop_
_atom_site_label
_atom_site_type_symbol
_atom_site_fract_x
_atom_site_fract_y
_atom_site_fract_z
_atom_type_partial_charge
O0 O 0.18911 0.05026 0.12498 0.0
Mg1 Mg 0.22739 0.03156 0.0726 0.0
O2 O 0.08538 0.01675 0.08728 0.0
Mg3 Mg 0.06594 0.01882 0.01668 0.0
O4 O 0.16599 0.06241 0.02367 0.0
O5 O 0.27521 0.08835 0.0473 0.0
O6 O 0.04073 0.02006 0.94596 0.0
O7 O 0.02874 0.10865 0.02627 0.0
Mg8 Mg 0.91 0.03232 0.985 0.0
O9 O 0.9655 0.97106 0.00885 0.0
O10 O 0.93116 0.03866 0.92737 0.0
O11 O 0.92385 0.10215 0.0305 0.0
O12 O 0.85197 0.96574 0.98955 0.0
C13 C 0.17172 0.91606 0.0253 0.0
C14 C 0.12936 0.03228 0.12252 0.0
C15 C 0.21637 0.09199 0.02105 0.0
C16 C 0.98671 0.02992 0.9184 0.0
C17 C 0.97834 0.1306 0.03581 0.0
C18 C 0.90876 0.94388 0.00446 0.0
O19 O 0.22078 0.94744 0.04977 0.0
O20 O 0.11245 0.93289 0.00924 0.0
O21 O 0.62902 0.57843 0.63441 0.0
Mg22 Mg 0.70484 0.56723 0.60318 0.0
O23 O 0.55228 0.52194 0.58562 0.0
Mg24 Mg 0.57333 0.5235 0.52004 0.0
O25 O 0.66044 0.58435 0.54541 0.0
O26 O 0.75213 0.63291 0.58467 0.0
O27 O 0.59766 0.52552 0.45469 0.0
O28 O 0.50382 0.596 0.51048 0.0
Mg29 Mg 0.45125 0.48913 0.43998 0.0
O30 O 0.48345 0.46049 0.49538 0.0
O31 O 0.52008 0.46965 0.40674 0.0
O32 O 0.42553 0.57174 0.44928 0.0
O33 O 0.39025 0.42545 0.4449 0.0
C34 C 0.69885 0.44555 0.5616 0.0
C35 C 0.57432 0.54794 0.62291 0.0
C36 C 0.70502 0.62322 0.54949 0.0
C37 C 0.57593 0.49789 0.41799 0.0
C38 C 0.45302 0.60682 0.48124 0.0
C39 C 0.43243 0.42466 0.48143 0.0
O40 O 0.72809 0.48347 0.59138 0.0
O41 O 0.64536 0.45278 0.53246 0.0
H42 H 0.06478 0.02485 0.41517 0.0
C43 C 0.0743 0.98493 0.42452 0.0
C44 C 0.08579 0.94276 0.3956 0.0
C45 C 0.07974 0.9765 0.46563 0.0
H46 H 0.12075 0.86209 0.38667 0.0
C47 C 0.10564 0.89248 0.40815 0.0
C48 C 0.11344 0.88391 0.44953 0.0
C49 C 0.09591 0.92477 0.47709 0.0
C50 C 0.07443 0.02254 0.49736 0.0
H51 H 0.09895 0.91656 0.50819 0.0
C52 C 0.02759 0.07953 0.48057 0.0
C53 C 0.02452 0.15292 0.54828 0.0
C54 C 0.11346 0.01865 0.55115 0.0
H55 H 0.14275 0.98375 0.55884 0.0
C56 C 0.11202 0.06641 0.59502 0.0
H57 H 0.00174 0.07787 0.44719 0.0
C58 C 0.07112 0.12862 0.59511 0.0
H59 H 0.07293 0.15212 0.62491 0.0
H60 H 0.13898 0.05605 0.62532 0.0
H61 H 0.99489 0.06194 0.61715 0.0
C62 C 0.98194 0.02279 0.59736 0.0
C63 C 0.96435 0.97811 0.61427 0.0
C64 C 0.98466 0.01669 0.5559 0.0
H65 H 0.92587 0.894 0.60109 0.0
C66 C 0.94245 0.92802 0.58842 0.0
C67 C 0.93597 0.92333 0.5455 0.0
C68 C 0.95771 0.9675 0.52944 0.0
C69 C 0.00594 0.06456 0.53762 0.0
H70 H 0.95247 0.96388 0.4963 0.0
C71 C 0.11368 0.11428 0.53477 0.0
C72 C 0.09482 0.16354 0.50415 0.0
C73 C 0.93416 0.0903 0.5073 0.0
H74 H 0.88411 0.07308 0.50516 0.0
C75 C 0.9402 0.142 0.48014 0.0
H76 H 0.08987 0.09624 0.539 0.0
C77 C 0.01311 0.17505 0.47898 0.0
H78 H 0.00581 0.20728 0.45976 0.0
H79 H 0.89267 0.15576 0.46186 0.0
H80 H 0.5214 0.49758 0.91413 0.0
C81 C 0.56441 0.47427 0.92679 0.0
C82 C 0.59659 0.4472 0.89878 0.0
C83 C 0.59094 0.47434 0.97038 0.0
H84 H 0.67837 0.39593 0.89273 0.0
C85 C 0.65259 0.41624 0.914 0.0
C86 C 0.67587 0.41202 0.95666 0.0
C87 C 0.64526 0.44112 0.98445 0.0
C88 C 0.57078 0.51521 1.00113 0.0
H89 H 0.66793 0.43991 0.01731 0.0
C90 C 0.52851 0.57297 0.98243 0.0
C91 C 0.52005 0.64839 0.04763 0.0
C92 C 0.60162 0.5112 0.0556 0.0
H93 H 0.6256 0.4747 0.06495 0.0
C94 C 0.59798 0.56057 0.09818 0.0
H95 H 0.50917 0.57287 0.94875 0.0
C96 C 0.55996 0.62422 0.09586 0.0
H97 H 0.55869 0.6484 0.12482 0.0
H98 H 0.62012 0.54997 0.12909 0.0
H99 H 0.48356 0.56275 0.11849 0.0
C100 C 0.46872 0.52378 0.09878 0.0
C101 C 0.45719 0.47911 0.11763 0.0
C102 C 0.46961 0.51621 0.05666 0.0
H103 H 0.41903 0.39499 0.10656 0.0
C104 C 0.43039 0.42943 0.09239 0.0
C105 C 0.41644 0.42489 0.04875 0.0
C106 C 0.43848 0.46749 0.03117 0.0
C107 C 0.49749 0.56044 0.03712 0.0
H108 H 0.43197 0.46251 0.99782 0.0
C109 C 0.61059 0.60634 0.03929 0.0
C110 C 0.59904 0.65511 0.0082 0.0
C111 C 0.4302 0.58739 1.00349 0.0
H112 H 0.37842 0.57216 0.99927 0.0
C113 C 0.44346 0.63807 0.97693 0.0
H114 H 0.58451 0.58938 0.04236 0.0
C115 C 0.52012 0.66877 0.97951 0.0
H116 H 0.51742 0.70109 0.96063 0.0
H117 H 0.39854 0.65297 0.95671 0.0
H118 H 0.28184 0.09445 0.96224 0.0
H119 H 0.13871 0.17967 0.01589 0.0
H120 H 0.31756 0.17951 0.94331 0.0
H121 H 0.17553 0.26513 0.99818 0.0
H122 H 0.2891 0.41832 0.99425 0.0
H123 H 0.21757 0.33453 0.95979 0.0
H124 H 0.38756 0.23823 0.00978 0.0
H125 H 0.45738 0.32138 0.04454 0.0
C126 C 0.25528 0.13089 0.96778 0.0
C127 C 0.20913 0.13132 0.99149 0.0
C128 C 0.27584 0.1796 0.95708 0.0
C129 C 0.25169 0.22921 0.97111 0.0
C130 C 0.19587 0.22764 0.98751 0.0
C131 C 0.17459 0.17861 0.99769 0.0
C132 C 0.31123 0.37903 0.99663 0.0
C133 C 0.37832 0.37574 0.02191 0.0
C134 C 0.27052 0.33131 0.97693 0.0
C135 C 0.297 0.27981 0.98169 0.0
C136 C 0.36589 0.27719 0.00466 0.0
C137 C 0.40587 0.32466 0.02496 0.0
H138 H 0.1722 0.83776 0.07342 0.0
H139 H 0.2164 0.87021 0.96133 0.0
H140 H 0.26144 0.77329 0.08478 0.0
H141 H 0.30441 0.80407 0.97141 0.0
H142 H 0.51783 0.75839 0.03113 0.0
H143 H 0.41735 0.81271 0.02021 0.0
H144 H 0.31637 0.69513 0.07012 0.0
H145 H 0.41631 0.64189 0.08124 0.0
C146 C 0.19818 0.82833 0.04974 0.0
C147 C 0.188 0.85913 0.01673 0.0
C148 C 0.25038 0.79203 0.05659 0.0
C149 C 0.29259 0.78554 0.03012 0.0
C150 C 0.27497 0.81008 0.9935 0.0
C151 C 0.22305 0.84665 0.98689 0.0
C152 C 0.47405 0.74418 0.03957 0.0
C153 C 0.47237 0.69334 0.05354 0.0
C154 C 0.41624 0.77507 0.03311 0.0
C155 C 0.35691 0.75648 0.04179 0.0
C156 C 0.35996 0.71005 0.06181 0.0
C157 C 0.41763 0.67957 0.06838 0.0
H158 H 0.90749 0.85126 0.95166 0.0
H159 H 0.89705 0.91167 0.07542 0.0
H160 H 0.84858 0.76491 0.95334 0.0
H161 H 0.83837 0.826 0.07744 0.0
H162 H 0.7194 0.67303 0.07055 0.0
H163 H 0.82148 0.72605 0.07252 0.0
H164 H 0.72393 0.76112 0.94803 0.0
H165 H 0.62199 0.70641 0.94533 0.0
C166 C 0.89586 0.84477 0.98009 0.0
C167 C 0.90609 0.88776 0.01334 0.0
C168 C 0.86142 0.79573 0.98086 0.0
C169 C 0.8369 0.7894 0.01495 0.0
C170 C 0.85623 0.82961 0.05061 0.0
C171 C 0.89019 0.87869 0.04965 0.0
C172 C 0.71972 0.69112 0.04315 0.0
C173 C 0.66157 0.68623 0.00799 0.0
C174 C 0.77857 0.72157 0.04442 0.0
C175 C 0.78091 0.74788 0.01055 0.0
C176 C 0.72407 0.74084 0.97455 0.0
C177 C 0.66494 0.71045 0.97332 0.0
H178 H 0.00707 0.20186 0.98767 0.0
H179 H 0.93519 0.19309 0.09494 0.0
H180 H 0.94679 0.28467 0.97514 0.0
H181 H 0.87837 0.27787 0.08425 0.0
H182 H 0.6775 0.32777 0.99986 0.0
H183 H 0.77383 0.27613 0.03074 0.0
H184 H 0.90504 0.37422 0.98457 0.0
H185 H 0.80644 0.4248 0.95215 0.0
C186 C 0.98181 0.21954 0.01007 0.0
C187 C 0.97391 0.19041 0.0415 0.0
C188 C 0.94688 0.26705 1.00282 0.0
C189 C 0.90466 0.28624 0.02741 0.0
C190 C 0.90775 0.26258 0.06352 0.0
C191 C 0.94112 0.21446 0.07009 0.0
C192 C 0.727 0.3382 0.9964 0.0
C193 C 0.73472 0.3797 0.97346 0.0
C194 C 0.78269 0.30932 0.01468 0.0
C195 C 0.84797 0.32166 0.01103 0.0
C196 C 0.85567 0.3636 0.98806 0.0
C197 C 0.79936 0.39226 0.96929 0.0
H198 H 0.76859 0.6004 0.48959 0.0
H199 H 0.64729 0.71884 0.53658 0.0
H200 H 0.81483 0.6706 0.45878 0.0
H201 H 0.69301 0.78896 0.50625 0.0
H202 H 0.81293 0.91916 0.48715 0.0
H203 H 0.73551 0.83759 0.45776 0.0
H204 H 0.89737 0.73704 0.51298 0.0
H205 H 0.97337 0.81841 0.54264 0.0
C206 C 0.749 0.64077 0.49123 0.0
C207 C 0.70565 0.65494 0.51596 0.0
C208 C 0.77552 0.68097 0.47371 0.0
C209 C 0.75956 0.73574 0.48144 0.0
C210 C 0.70696 0.74735 0.49995 0.0
C211 C 0.68072 0.70721 0.51754 0.0
C212 C 0.83241 0.87925 0.49131 0.0
C213 C 0.89848 0.87466 0.51744 0.0
C214 C 0.78821 0.83264 0.47451 0.0
C215 C 0.80987 0.78087 0.48346 0.0
C216 C 0.8789 0.77613 0.50519 0.0
C217 C 0.92254 0.82272 0.52255 0.0
H218 H 0.72097 0.38612 0.49328 0.0
H219 H 0.75314 0.3892 0.6257 0.0
H220 H 0.80121 0.31368 0.4938 0.0
H221 H 0.83171 0.31565 0.62594 0.0
H222 H 0.92497 0.14786 0.58571 0.0
H223 H 0.83768 0.21274 0.58969 0.0
H224 H 0.93808 0.32672 0.5369 0.0
H225 H 0.02784 0.26327 0.53552 0.0
C226 C 0.74366 0.37012 0.52215 0.0
C227 C 0.73219 0.39361 0.55959 0.0
C228 C 0.78987 0.32921 0.52254 0.0
C229 C 0.82366 0.31043 0.56015 0.0
C230 C 0.8069 0.33013 0.59674 0.0
C231 C 0.76206 0.37198 0.59656 0.0
C232 C 0.92863 0.18699 0.57521 0.0
C233 C 0.98004 0.19871 0.557 0.0
C234 C 0.87864 0.22387 0.5774 0.0
C235 C 0.87961 0.27332 0.56165 0.0
C236 C 0.93478 0.28755 0.54741 0.0
C237 C 0.98574 0.2511 0.54622 0.0
H238 H 0.37547 0.44254 0.54454 0.0
H239 H 0.45135 0.31717 0.47064 0.0
H240 H 0.30011 0.37397 0.55805 0.0
H241 H 0.37624 0.2486 0.48356 0.0
H242 H 0.22595 0.1358 0.51396 0.0
H243 H 0.32627 0.19652 0.52473 0.0
H244 H 0.19736 0.33207 0.5029 0.0
H245 H 0.0972 0.27182 0.49293 0.0
C246 C 0.3787 0.39981 0.53322 0.0
C247 C 0.41819 0.3847 0.50632 0.0
C248 C 0.33481 0.36073 0.54025 0.0
C249 C 0.33035 0.30635 0.52042 0.0
C250 C 0.37785 0.29021 0.4989 0.0
C251 C 0.42135 0.32934 0.49174 0.0
C252 C 0.21884 0.17864 0.51164 0.0
C253 C 0.15332 0.19901 0.50337 0.0
C254 C 0.27653 0.21339 0.51788 0.0
C255 C 0.27003 0.2694 0.51601 0.0
C256 C 0.20431 0.28941 0.50609 0.0
C257 C 0.14655 0.25456 0.49959 0.0
H258 H 0.42715 0.65865 0.5514 0.0
H259 H 0.40171 0.66933 0.42128 0.0
H260 H 0.34065 0.72603 0.55235 0.0
H261 H 0.31678 0.73682 0.4224 0.0
H262 H 0.10466 0.77624 0.41437 0.0
H263 H 0.19557 0.71296 0.43032 0.0
H264 H 0.30845 0.82774 0.53727 0.0
H265 H 0.21805 0.8911 0.52154 0.0
C266 C 0.40476 0.67684 0.52351 0.0
C267 C 0.41939 0.65814 0.48594 0.0
C268 C 0.3551 0.71489 0.52399 0.0
C269 C 0.32035 0.73447 0.48694 0.0
C270 C 0.34112 0.72047 0.45089 0.0
C271 C 0.39003 0.68241 0.45033 0.0
C272 C 0.14793 0.7873 0.44191 0.0
C273 C 0.15491 0.83906 0.46608 0.0
C274 C 0.2 0.75135 0.45091 0.0
C275 C 0.2597 0.76662 0.48414 0.0
C276 C 0.26317 0.81543 0.51125 0.0
C277 C 0.21104 0.85145 0.50228 0.0
H278 H 0.04929 0.94933 0.13249 0.0
H279 H 0.17357 0.09462 0.19911 0.0
H280 H 0.03567 0.92691 0.19792 0.0
H281 H 0.15674 0.07432 0.26432 0.0
H282 H 0.19205 -0.01064 0.37814 0.0
H283 H 0.19721 0.01234 0.31108 0.0
H284 H 0.98851 0.94742 0.2541 0.0
H285 H 0.98529 0.92249 0.32145 0.0
C286 C 0.07225 0.9772 0.1611 0.0
C287 C 0.11305 0.02347 0.16099 0.0
C288 C 0.0643 0.96444 0.19862 0.0
C289 C 0.09595 -0.00167 0.23664 0.0
C290 C 0.13341 0.04634 0.23589 0.0
C291 C 0.14261 0.05836 0.19855 0.0
C292 C 0.14762 0.97992 0.35107 0.0
C293 C 0.08827 0.95453 0.35451 0.0
C294 C 0.15009 -0.00645 0.31276 0.0
C295 C 0.09287 0.98263 0.27716 0.0
C296 C 0.03364 0.95625 0.28072 0.0
C297 C 0.03149 0.94217 0.31915 0.0
H298 H 0.09597 0.02205 0.88643 0.0
H299 H 0.87646 0.0309 0.85065 0.0
H300 H 0.09221 0.01031 0.81255 0.0
H301 H 0.873 0.01843 0.7776 0.0
H302 H 0.89996 0.05207 0.65405 0.0
H303 H 0.90962 0.0685 0.72854 0.0
H304 H 0.04606 0.9373 0.74932 0.0
H305 H 0.03639 0.92115 0.6744 0.0
C306 C 0.0471 0.02166 0.86292 0.0
C307 C 0.98649 0.02722 0.87439 0.0
C308 C 0.04497 0.01464 0.82073 0.0
C309 C 0.98227 0.01325 0.78944 0.0
C310 C 0.92211 0.01997 0.80105 0.0
C311 C 0.92419 0.02704 0.843 0.0
C312 C 0.93174 0.0267 0.67462 0.0
C313 C 0.96706 0.98516 0.65878 0.0
C314 C 0.93726 0.03601 0.71712 0.0
C315 C 0.97866 0.00421 0.74464 0.0
C316 C 0.01429 0.96269 0.72879 0.0
C317 C 0.00814 0.95299 0.68605 0.0
H318 H 0.56939 0.61733 0.69126 0.0
H319 H 0.51674 0.45039 0.63116 0.0
H320 H 0.55992 0.59143 0.75663 0.0
H321 H 0.5074 0.4244 0.69717 0.0
H322 H 0.4767 0.4217 0.83492 0.0
H323 H 0.4502 0.44622 0.76361 0.0
H324 H 0.65144 0.52605 0.79517 0.0
H325 H 0.67804 0.50055 0.86512 0.0
C326 C 0.55339 0.57544 0.69164 0.0
C327 C 0.54491 0.53576 0.65629 0.0
C328 C 0.54823 0.56061 0.72912 0.0
C329 C 0.5344 0.50575 0.73212 0.0
C330 C 0.51822 0.46698 0.69565 0.0
C331 C 0.52331 0.48192 0.65785 0.0
C332 C 0.51506 0.44415 0.8262 0.0
C333 C 0.57951 0.45908 0.85521 0.0
C334 C 0.49998 0.45813 0.78563 0.0
C335 C 0.54852 0.48861 0.77415 0.0
C336 C 0.61278 0.50317 0.80333 0.0
C337 C 0.62823 0.48826 0.84322 0.0
H338 H 0.58246 0.59132 0.38518 0.0
H339 H 0.62451 0.42101 0.37146 0.0
H340 H 0.56472 0.591 0.3104 0.0
H341 H 0.60468 0.41944 0.29709 0.0
H342 H 0.56194 0.426 0.16035 0.0
H343 H 0.61866 0.44013 0.23538 0.0
H344 H 0.47021 0.55587 0.25336 0.0
H345 H 0.41663 0.54377 0.17773 0.0
C346 C 0.59181 0.55465 0.36657 0.0
C347 C 0.60463 0.50611 0.38393 0.0
C348 C 0.57967 0.55392 0.32345 0.0
C349 C 0.58034 0.50461 0.29717 0.0
C350 C 0.60312 0.45821 0.31588 0.0
C351 C 0.61545 0.45912 0.35885 0.0
C352 C 0.5412 0.45392 0.1806 0.0
C353 C 0.48417 0.48289 0.1636 0.0
C354 C 0.57386 0.46236 0.22361 0.0
C355 C 0.54951 0.49935 0.25083 0.0
C356 C 0.49174 0.52804 0.23354 0.0
C357 C 0.45998 0.52038 0.19032 0.0
loop_
_geom_bond_atom_site_label_1
_geom_bond_atom_site_label_2
_geom_bond_distance
_geom_bond_site_symmetry_2
_ccdc_geom_bond_type
O0 Mg1 1.990 . S
O0 C14 1.253 . S
Mg1 O0 1.990 . S
Mg1 O4 2.180 . S
Mg1 O5 2.117 . S
Mg1 O19 2.030 1_545 S
O2 Mg3 2.071 1_565 S
O2 C14 1.260 1_565 S
Mg3 O2 2.071 1_545 S
Mg3 O4 2.099 . S
Mg3 O6 2.079 1_554 S
Mg3 O7 2.072 . S
Mg3 O9 2.099 1_444 S
Mg3 O20 2.079 1_545 S
O4 Mg1 2.180 . S
O4 Mg3 2.099 . S
O4 C15 1.279 . S
O5 Mg1 2.117 . S
O5 C15 1.250 . S
O6 Mg3 2.079 1_556 S
O6 C16 1.264 . S
O7 Mg3 2.072 . S
O7 C17 1.260 1_454 S
Mg8 O9 2.180 . S
Mg8 O10 2.030 1_565 S
Mg8 O11 1.990 1_565 S
Mg8 O12 2.117 . S
O9 Mg3 2.099 1_666 S
O9 Mg8 2.180 . S
O9 C18 1.279 . S
O10 Mg8 2.030 1_545 S
O10 C16 1.248 1_655 S
O11 Mg8 1.990 1_545 S
O11 C17 1.253 . S
O12 Mg8 2.117 . S
O12 C18 1.250 . S
C13 O19 1.248 . S
C13 O20 1.264 . S
C14 O0 1.253 . S
C14 O2 1.260 1_545 S
C15 O4 1.279 . S
C15 O5 1.250 . S
C16 O6 1.264 . S
C16 O10 1.248 1_455 S
C17 O7 1.260 1_656 S
C17 O11 1.253 . S
C18 O9 1.279 . S
C18 O12 1.250 . S
O19 Mg1 2.030 1_565 S
O19 C13 1.248 . S
O20 Mg3 2.079 1_565 S
O20 C13 1.264 . S
O21 Mg22 1.990 . S
O21 C35 1.253 . S
Mg22 O21 1.990 . S
Mg22 O25 2.180 . S
Mg22 O26 2.117 . S
Mg22 O40 2.030 . S
O23 Mg24 2.072 . S
O23 C35 1.260 . S
Mg24 O23 2.072 . S
Mg24 O25 2.099 . S
Mg24 O27 2.079 . S
Mg24 O28 2.072 . S
Mg24 O30 2.099 . S
Mg24 O41 2.079 . S
O25 Mg22 2.180 . S
O25 Mg24 2.099 . S
O25 C36 1.279 . S
O26 Mg22 2.117 . S
O26 C36 1.250 . S
O27 Mg24 2.079 . S
O27 C37 1.264 . S
O28 Mg24 2.072 . S
O28 C38 1.260 . S
Mg29 O30 2.180 . S
Mg29 O31 2.030 . S
Mg29 O32 1.990 . S
Mg29 O33 2.117 . S
O30 Mg24 2.099 . S
O30 Mg29 2.180 . S
O30 C39 1.279 . S
O31 Mg29 2.030 . S
O31 C37 1.248 . S
O32 Mg29 1.990 . S
O32 C38 1.253 . S
O33 Mg29 2.117 . S
O33 C39 1.250 . S
C34 O40 1.248 . S
C34 O41 1.264 . S
C35 O21 1.253 . S
C35 O23 1.260 . S
C36 O25 1.279 . S
C36 O26 1.250 . S
C37 O27 1.264 . S
C37 O31 1.248 . S
C38 O28 1.260 . S
C38 O32 1.253 . S
C39 O30 1.279 . S
C39 O33 1.250 . S
O40 Mg22 2.030 . S
O40 C34 1.248 . S
O41 Mg24 2.079 . S
O41 C34 1.264 . S
H42 C43 0.949 . S
C43 H42 0.949 . S
C43 C44 1.395 1_545 S
C43 C45 1.391 . S
C44 C43 1.395 1_565 S
C44 C47 1.390 . S
C45 C43 1.391 . S
C45 C49 1.387 1_545 S
C45 C50 1.491 . S
H46 C47 0.950 . S
C47 C44 1.390 . S
C47 H46 0.950 . S
C47 C48 1.378 . S
C48 C47 1.378 . S
C48 C49 1.409 . S
C49 C45 1.387 1_565 S
C49 C48 1.409 . S
C49 H51 0.951 . S
C50 C45 1.491 . S
C50 C52 1.382 . S
C50 C54 1.404 . S
H51 C49 0.951 . S
C52 C50 1.382 . S
C52 C53 1.393 . S
C52 H57 0.949 1_455 S
C53 C52 1.393 . S
C53 C58 1.402 . S
C54 C50 1.404 . S
C54 H55 0.950 . S
C54 C56 1.375 . S
H55 C54 0.950 . S
C56 C54 1.375 . S
C56 C58 1.382 . S
C56 H60 0.950 . S
H57 C52 0.949 1_655 S
C58 C53 1.402 . S
C58 C56 1.382 . S
C58 H59 0.952 . S
H59 C58 0.952 . S
H60 C56 0.950 . S
H61 C62 0.952 . S
C62 H61 0.952 . S
C62 C63 1.392 1_455 S
C62 C64 1.391 1_455 S
C63 C62 1.392 1_655 S
C63 C66 1.390 1_545 S
C64 C62 1.391 1_655 S
C64 C68 1.387 . S
C64 C69 1.491 1_655 S
H65 C66 0.950 . S
C66 C63 1.390 1_565 S
C66 H65 0.950 . S
C66 C67 1.378 . S
C67 C66 1.378 . S
C67 C68 1.409 1_565 S
C68 C64 1.387 . S
C68 C67 1.409 1_545 S
C68 H70 0.951 . S
C69 C64 1.491 1_455 S
C69 C71 1.382 . S
C69 C73 1.404 1_455 S
H70 C68 0.951 . S
C71 C69 1.382 . S
C71 C72 1.390 . S
C71 H76 0.949 . S
C72 C71 1.390 . S
C72 C77 1.399 . S
C73 C69 1.404 1_655 S
C73 H74 0.950 . S
C73 C75 1.375 . S
H74 C73 0.950 . S
C75 C73 1.375 . S
C75 C77 1.382 1_655 S
C75 H79 0.950 . S
H76 C71 0.949 . S
C77 C72 1.399 . S
C77 C75 1.382 1_455 S
C77 H78 0.952 . S
H78 C77 0.952 . S
H79 C75 0.950 . S
H80 C81 0.949 . S
C81 H80 0.949 . S
C81 C82 1.395 . S
C81 C83 1.391 . S
C82 C81 1.395 . S
C82 C85 1.390 . S
C83 C81 1.391 . S
C83 C87 1.387 . S
C83 C88 1.491 1_556 S
H84 C85 0.950 . S
C85 C82 1.390 . S
C85 H84 0.950 . S
C85 C86 1.378 . S
C86 C85 1.378 . S
C86 C87 1.409 . S
C87 C83 1.387 . S
C87 C86 1.409 . S
C87 H89 0.951 1_556 S
C88 C83 1.491 1_554 S
C88 C90 1.382 1_554 S
C88 C92 1.404 . S
H89 C87 0.951 1_554 S
C90 C88 1.382 1_556 S
C90 C91 1.390 1_556 S
C90 H95 0.949 . S
C91 C90 1.390 1_554 S
C91 C96 1.399 . S
C92 C88 1.404 . S
C92 H93 0.950 . S
C92 C94 1.375 . S
H93 C92 0.950 . S
C94 C92 1.375 . S
C94 C96 1.382 . S
C94 H98 0.950 . S
H95 C90 0.949 . S
C96 C91 1.399 . S
C96 C94 1.382 . S
C96 H97 0.952 . S
H97 C96 0.952 . S
H98 C94 0.950 . S
H99 C100 0.949 . S
C100 H99 0.949 . S
C100 C101 1.395 . S
C100 C102 1.391 . S
C101 C100 1.395 . S
C101 C104 1.390 . S
C102 C100 1.391 . S
C102 C106 1.387 . S
C102 C107 1.491 . S
H103 C104 0.950 . S
C104 C101 1.390 . S
C104 H103 0.950 . S
C104 C105 1.378 . S
C105 C104 1.378 . S
C105 C106 1.409 . S
C106 C102 1.387 . S
C106 C105 1.409 . S
C106 H108 0.951 1_554 S
C107 C102 1.491 . S
C107 C109 1.382 . S
C107 C111 1.404 1_554 S
H108 C106 0.951 1_556 S
C109 C107 1.382 . S
C109 C110 1.390 . S
C109 H114 0.949 . S
C110 C109 1.390 . S
C110 C115 1.399 1_554 S
C111 C107 1.404 1_556 S
C111 H112 0.950 . S
C111 C113 1.375 . S
H112 C111 0.950 . S
C113 C111 1.375 . S
C113 C115 1.382 . S
C113 H117 0.950 . S
H114 C109 0.949 . S
C115 C110 1.399 1_556 S
C115 C113 1.382 . S
C115 H116 0.952 . S
H116 C115 0.952 . S
H117 C113 0.950 . S
H118 C126 0.950 . S
H119 C131 0.950 1_556 S
H120 C128 0.950 . S
H121 C130 0.950 1_556 S
H122 C132 0.950 . S
H123 C134 0.950 . S
H124 C136 0.950 . S
H125 C137 0.950 . S
C126 H118 0.950 . S
C126 C127 1.386 . S
C126 C128 1.391 . S
C127 C126 1.386 . S
C127 C131 1.393 . S
C128 H120 0.950 . S
C128 C126 1.391 . S
C128 C129 1.400 . S
C129 C128 1.400 . S
C129 C130 1.398 . S
C129 C135 1.491 . S
C130 H121 0.950 1_554 S
C130 C129 1.398 . S
C130 C131 1.391 . S
C131 H119 0.950 1_554 S
C131 C127 1.393 . S
C131 C130 1.391 . S
C132 H122 0.950 . S
C132 C133 1.386 . S
C132 C134 1.391 . S
C133 C132 1.386 . S
C133 C137 1.393 . S
C134 H123 0.950 . S
C134 C132 1.391 . S
C134 C135 1.400 . S
C135 C129 1.491 . S
C135 C134 1.400 . S
C135 C136 1.398 . S
C136 H124 0.950 . S
C136 C135 1.398 . S
C136 C137 1.391 . S
C137 H125 0.950 . S
C137 C133 1.393 . S
C137 C136 1.391 . S
H138 C146 0.950 . S
H139 C151 0.950 . S
H140 C148 0.950 . S
H141 C150 0.950 . S
H142 C152 0.950 . S
H143 C154 0.950 . S
H144 C156 0.950 . S
H145 C157 0.950 . S
C146 H138 0.950 . S
C146 C147 1.386 . S
C146 C148 1.391 . S
C147 C146 1.386 . S
C147 C151 1.393 1_554 S
C148 H140 0.950 . S
C148 C146 1.391 . S
C148 C149 1.400 . S
C149 C148 1.400 . S
C149 C150 1.398 1_554 S
C149 C155 1.491 . S
C150 H141 0.950 . S
C150 C149 1.398 1_556 S
C150 C151 1.391 . S
C151 H139 0.950 . S
C151 C147 1.393 1_556 S
C151 C150 1.391 . S
C152 H142 0.950 . S
C152 C153 1.386 1_556 S
C152 C154 1.391 . S
C153 C152 1.386 1_554 S
C153 C157 1.393 . S
C154 H143 0.950 . S
C154 C152 1.391 . S
C154 C155 1.400 1_556 S
C155 C149 1.491 . S
C155 C154 1.400 1_554 S
C155 C156 1.398 . S
C156 H144 0.950 . S
C156 C155 1.398 . S
C156 C157 1.391 . S
C157 H145 0.950 . S
C157 C153 1.393 . S
C157 C156 1.391 . S
H158 C166 0.950 . S
H159 C171 0.950 . S
H160 C168 0.950 . S
H161 C170 0.950 . S
H162 C172 0.950 . S
H163 C174 0.950 . S
H164 C176 0.950 . S
H165 C177 0.950 . S
C166 H158 0.950 . S
C166 C167 1.386 1_556 S
C166 C168 1.391 . S
C167 C166 1.386 1_554 S
C167 C171 1.393 . S
C168 H160 0.950 . S
C168 C166 1.391 . S
C168 C169 1.400 1_556 S
C169 C168 1.400 1_554 S
C169 C170 1.398 . S
C169 C175 1.491 . S
C170 H161 0.950 . S
C170 C169 1.398 . S
C170 C171 1.391 . S
C171 H159 0.950 . S
C171 C167 1.393 . S
C171 C170 1.391 . S
C172 H162 0.950 . S
C172 C173 1.386 . S
C172 C174 1.391 . S
C173 C172 1.386 . S
C173 C177 1.393 1_554 S
C174 H163 0.950 . S
C174 C172 1.391 . S
C174 C175 1.400 . S
C175 C169 1.491 . S
C175 C174 1.400 . S
C175 C176 1.398 1_554 S
C176 H164 0.950 . S
C176 C175 1.398 1_556 S
C176 C177 1.391 . S
C177 H165 0.950 . S
C177 C173 1.393 1_556 S
C177 C176 1.391 . S
H178 C186 0.950 . S
H179 C191 0.950 . S
H180 C188 0.950 . S
H181 C190 0.950 . S
H182 C192 0.950 . S
H183 C194 0.950 . S
H184 C196 0.950 . S
H185 C197 0.950 . S
C186 H178 0.950 . S
C186 C187 1.386 . S
C186 C188 1.391 . S
C187 C186 1.386 . S
C187 C191 1.393 1_556 S
C188 H180 0.950 . S
C188 C186 1.391 . S
C188 C189 1.400 . S
C189 C188 1.400 . S
C189 C190 1.398 1_556 S
C189 C195 1.491 . S
C190 H181 0.950 . S
C190 C189 1.398 1_554 S
C190 C191 1.391 . S
C191 H179 0.950 . S
C191 C187 1.393 1_554 S
C191 C190 1.391 . S
C192 H182 0.950 . S
C192 C193 1.386 1_554 S
C192 C194 1.391 . S
C193 C192 1.386 1_556 S
C193 C197 1.393 . S
C194 H183 0.950 . S
C194 C192 1.391 . S
C194 C195 1.400 1_554 S
C195 C189 1.491 . S
C195 C194 1.400 1_556 S
C195 C196 1.398 . S
C196 H184 0.950 . S
C196 C195 1.398 . S
C196 C197 1.391 . S
C197 H185 0.950 . S
C197 C193 1.393 . S
C197 C196 1.391 . S
H198 C206 0.950 . S
H199 C211 0.950 . S
H200 C208 0.950 . S
H201 C210 0.950 . S
H202 C212 0.950 . S
H203 C214 0.950 . S
H204 C216 0.950 . S
H205 C217 0.950 . S
C206 H198 0.950 . S
C206 C207 1.386 . S
C206 C208 1.391 . S
C207 C206 1.386 . S
C207 C211 1.393 . S
C208 H200 0.950 . S
C208 C206 1.391 . S
C208 C209 1.400 . S
C209 C208 1.400 . S
C209 C210 1.398 . S
C209 C215 1.491 . S
C210 H201 0.950 . S
C210 C209 1.398 . S
C210 C211 1.391 . S
C211 H199 0.950 . S
C211 C207 1.393 . S
C211 C210 1.391 . S
C212 H202 0.950 . S
C212 C213 1.386 . S
C212 C214 1.391 . S
C213 C212 1.386 . S
C213 C217 1.393 . S
C214 H203 0.950 . S
C214 C212 1.391 . S
C214 C215 1.400 . S
C215 C209 1.491 . S
C215 C214 1.400 . S
C215 C216 1.398 . S
C216 H204 0.950 . S
C216 C215 1.398 . S
C216 C217 1.391 . S
C217 H205 0.950 . S
C217 C213 1.393 . S
C217 C216 1.391 . S
H218 C226 0.950 . S
H219 C231 0.950 . S
H220 C228 0.950 . S
H221 C230 0.950 . S
H222 C232 0.950 . S
H223 C234 0.950 . S
H224 C236 0.950 . S
H225 C237 0.950 . S
C226 H218 0.950 . S
C226 C227 1.386 . S
C226 C228 1.391 . S
C227 C226 1.386 . S
C227 C231 1.393 . S
C228 H220 0.950 . S
C228 C226 1.391 . S
C228 C229 1.400 . S
C229 C228 1.400 . S
C229 C230 1.398 . S
C229 C235 1.491 . S
C230 H221 0.950 . S
C230 C229 1.398 . S
C230 C231 1.391 . S
C231 H219 0.950 . S
C231 C227 1.393 . S
C231 C230 1.391 . S
C232 H222 0.950 . S
C232 C233 1.386 . S
C232 C234 1.391 . S
C233 C232 1.386 . S
C233 C237 1.393 . S
C234 H223 0.950 . S
C234 C232 1.391 . S
C234 C235 1.400 . S
C235 C229 1.491 . S
C235 C234 1.400 . S
C235 C236 1.398 . S
C236 H224 0.950 . S
C236 C235 1.398 . S
C236 C237 1.391 . S
C237 H225 0.950 . S
C237 C233 1.393 . S
C237 C236 1.391 . S
H238 C246 0.950 . S
H239 C251 0.950 . S
H240 C248 0.950 . S
H241 C250 0.950 . S
H242 C252 0.950 . S
H243 C254 0.950 . S
H244 C256 0.950 . S
H245 C257 0.950 . S
C246 H238 0.950 . S
C246 C247 1.386 . S
C246 C248 1.391 . S
C247 C246 1.386 . S
C247 C251 1.393 . S
C248 H240 0.950 . S
C248 C246 1.391 . S
C248 C249 1.400 . S
C249 C248 1.400 . S
C249 C250 1.398 . S
C249 C255 1.491 . S
C250 H241 0.950 . S
C250 C249 1.398 . S
C250 C251 1.391 . S
C251 H239 0.950 . S
C251 C247 1.393 . S
C251 C250 1.391 . S
C252 H242 0.950 . S
C252 C253 1.386 . S
C252 C254 1.391 . S
C253 C252 1.386 . S
C253 C257 1.393 . S
C254 H243 0.950 . S
C254 C252 1.391 . S
C254 C255 1.400 . S
C255 C249 1.491 . S
C255 C254 1.400 . S
C255 C256 1.398 . S
C256 H244 0.950 . S
C256 C255 1.398 . S
C256 C257 1.391 . S
C257 H245 0.950 . S
C257 C253 1.393 . S
C257 C256 1.391 . S
H258 C266 0.950 . S
H259 C271 0.950 . S
H260 C268 0.950 . S
H261 C270 0.950 . S
H262 C272 0.950 . S
H263 C274 0.950 . S
H264 C276 0.950 . S
H265 C277 0.950 . S
C266 H258 0.950 . S
C266 C267 1.386 . S
C266 C268 1.391 . S
C267 C266 1.386 . S
C267 C271 1.393 . S
C268 H260 0.950 . S
C268 C266 1.391 . S
C268 C269 1.400 . S
C269 C268 1.400 . S
C269 C270 1.398 . S
C269 C275 1.491 . S
C270 H261 0.950 . S
C270 C269 1.398 . S
C270 C271 1.391 . S
C271 H259 0.950 . S
C271 C267 1.393 . S
C271 C270 1.391 . S
C272 H262 0.950 . S
C272 C273 1.386 . S
C272 C274 1.391 . S
C273 C272 1.386 . S
C273 C277 1.393 . S
C274 H263 0.950 . S
C274 C272 1.391 . S
C274 C275 1.400 . S
C275 C269 1.491 . S
C275 C274 1.400 . S
C275 C276 1.398 . S
C276 H264 0.950 . S
C276 C275 1.398 . S
C276 C277 1.391 . S
C277 H265 0.950 . S
C277 C273 1.393 . S
C277 C276 1.391 . S
H278 C286 0.950 . S
H279 C291 0.950 . S
H280 C288 0.950 . S
H281 C290 0.950 . S
H282 C292 0.950 . S
H283 C294 0.950 . S
H284 C296 0.950 . S
H285 C297 0.950 . S
C286 H278 0.950 . S
C286 C287 1.386 . S
C286 C288 1.391 . S
C287 C286 1.386 . S
C287 C291 1.393 1_565 S
C288 H280 0.950 . S
C288 C286 1.391 . S
C288 C289 1.400 . S
C289 C288 1.400 . S
C289 C290 1.398 1_565 S
C289 C295 1.491 . S
C290 H281 0.950 . S
C290 C289 1.398 1_545 S
C290 C291 1.391 . S
C291 H279 0.950 . S
C291 C287 1.393 1_545 S
C291 C290 1.391 . S
C292 H282 0.950 . S
C292 C293 1.386 1_545 S
C292 C294 1.391 . S
C293 C292 1.386 1_565 S
C293 C297 1.393 . S
C294 H283 0.950 . S
C294 C292 1.391 . S
C294 C295 1.400 1_545 S
C295 C289 1.491 . S
C295 C294 1.400 1_565 S
C295 C296 1.398 . S
C296 H284 0.950 . S
C296 C295 1.398 . S
C296 C297 1.391 . S
C297 H285 0.950 . S
C297 C293 1.393 . S
C297 C296 1.391 . S
H298 C306 0.950 . S
H299 C311 0.950 . S
H300 C308 0.950 . S
H301 C310 0.950 . S
H302 C312 0.950 . S
H303 C314 0.950 . S
H304 C316 0.950 . S
H305 C317 0.950 . S
C306 H298 0.950 . S
C306 C307 1.386 . S
C306 C308 1.391 . S
C307 C306 1.386 . S
C307 C311 1.393 1_455 S
C308 H300 0.950 . S
C308 C306 1.391 . S
C308 C309 1.400 . S
C309 C308 1.400 . S
C309 C310 1.398 1_455 S
C309 C315 1.491 . S
C310 H301 0.950 . S
C310 C309 1.398 1_655 S
C310 C311 1.391 . S
C311 H299 0.950 . S
C311 C307 1.393 1_655 S
C311 C310 1.391 . S
C312 H302 0.950 . S
C312 C313 1.386 . S
C312 C314 1.391 . S
C313 C312 1.386 . S
C313 C317 1.393 1_655 S
C314 H303 0.950 . S
C314 C312 1.391 . S
C314 C315 1.400 1_655 S
C315 C309 1.491 . S
C315 C314 1.400 1_455 S
C315 C316 1.398 . S
C316 H304 0.950 . S
C316 C315 1.398 . S
C316 C317 1.391 . S
C317 H305 0.950 . S
C317 C313 1.393 1_455 S
C317 C316 1.391 . S
H318 C326 0.950 . S
H319 C331 0.950 . S
H320 C328 0.950 . S
H321 C330 0.950 . S
H322 C332 0.950 . S
H323 C334 0.950 . S
H324 C336 0.950 . S
H325 C337 0.950 . S
C326 H318 0.950 . S
C326 C327 1.386 . S
C326 C328 1.391 . S
C327 C326 1.386 . S
C327 C331 1.393 . S
C328 H320 0.950 . S
C328 C326 1.391 . S
C328 C329 1.400 . S
C329 C328 1.400 . S
C329 C330 1.398 . S
C329 C335 1.491 . S
C330 H321 0.950 . S
C330 C329 1.398 . S
C330 C331 1.391 . S
C331 H319 0.950 . S
C331 C327 1.393 . S
C331 C330 1.391 . S
C332 H322 0.950 . S
C332 C333 1.386 . S
C332 C334 1.391 . S
C333 C332 1.386 . S
C333 C337 1.393 . S
C334 H323 0.950 . S
C334 C332 1.391 . S
C334 C335 1.400 . S
C335 C329 1.491 . S
C335 C334 1.400 . S
C335 C336 1.398 . S
C336 H324 0.950 . S
C336 C335 1.398 . S
C336 C337 1.391 . S
C337 H325 0.950 . S
C337 C333 1.393 . S
C337 C336 1.391 . S
H338 C346 0.950 . S
H339 C351 0.950 . S
H340 C348 0.950 . S
H341 C350 0.950 . S
H342 C352 0.950 . S
H343 C354 0.950 . S
H344 C356 0.950 . S
H345 C357 0.950 . S
C346 H338 0.950 . S
C346 C347 1.386 . S
C346 C348 1.391 . S
C347 C346 1.386 . S
C347 C351 1.393 . S
C348 H340 0.950 . S
C348 C346 1.391 . S
C348 C349 1.400 . S
C349 C348 1.400 . S
C349 C350 1.398 . S
C349 C355 1.491 . S
C350 H341 0.950 . S
C350 C349 1.398 . S
C350 C351 1.391 . S
C351 H339 0.950 . S
C351 C347 1.393 . S
C351 C350 1.391 . S
C352 H342 0.950 . S
C352 C353 1.386 . S
C352 C354 1.391 . S
C353 C352 1.386 . S
C353 C357 1.393 . S
C354 H343 0.950 . S
C354 C352 1.391 . S
C354 C355 1.400 . S
C355 C349 1.491 . S
C355 C354 1.400 . S
C355 C356 1.398 . S
C356 H344 0.950 . S
C356 C355 1.398 . S
C356 C357 1.391 . S
C357 H345 0.950 . S
C357 C353 1.393 . S
C357 C356 1.391 . S
C133 C105 1.517 . S
C127 C15 1.417 . S
C147 C13 1.437 . S
C153 C91 1.405 . S
C167 C18 1.294 1_554 S
C173 C110 1.441 . S
C187 C17 1.491 . S
C193 C86 1.533 . S
C207 C36 1.423 . S
C213 C67 1.516 . S
C227 C34 1.415 . S
C233 C53 1.423 1_655 S
C253 C72 1.454 . S
C247 C39 1.263 . S
C273 C48 1.536 . S
C267 C38 1.510 . S
C287 C14 1.628 1_565 S
C293 C44 1.672 . S
C307 C16 1.408 . S
C313 C63 1.436 . S
C333 C82 1.666 . S
C327 C35 1.633 . S
C347 C37 1.421 . S
C353 C101 1.421 . S
