# Generated by pormake.
# Topology pts, (4,4)-cn, num edge types: 1
# Building blocks:
#     Node 0, Type 0, BuildingBlock: MUDLON_clean_linker_0, # of connection points: 4
#     Node 1, Type 0, BuildingBlock: MUDLON_clean_linker_0, # of connection points: 4
#     Node 2, Type 1, BuildingBlock: AZAVOO_clean_sbu_0, # of connection points: 4
#     Node 3, Type 1, BuildingBlock: AZAVOO_clean_sbu_0, # of connection points: 4
#     Edge 4, Type (0, 1), BuildingBlock: KIFKEQ_clean_linker_1, # of connection points: 2
#     Edge 5, Type (0, 1), BuildingBlock: KIFKEQ_clean_linker_1, # of connection points: 2
#     Edge 6, Type (0, 1), BuildingBlock: KIFKEQ_clean_linker_1, # of connection points: 2
#     Edge 7, Type (0, 1), BuildingBlock: KIFKEQ_clean_linker_1, # of connection points: 2
#     Edge 8, Type (0, 1), BuildingBlock: KIFKEQ_clean_linker_1, # of connection points: 2
#     Edge 9, Type (0, 1), BuildingBlock: KIFKEQ_clean_linker_1, # of connection points: 2
#     Edge 10, Type (0, 1), BuildingBlock: KIFKEQ_clean_linker_1, # of connection points: 2
#     Edge 11, Type (0, 1), BuildingBlock: KIFKEQ_clean_linker_1, # of connection points: 2
# Relax obj value: 0.017
# Max RMSD: 0.069
# Mean RMSD: 0.066
data_MOF--net-pts--node1-AZAVOO_clean_sbu_0--node2-MUDLON_clean_linker_0--edge1-KIFKEQ_clean_linker_1
_symmetry_space_group_name_H-M    P1
_symmetry_Int_Tables_number       1
_symmetry_cell_setting            triclinic
loop_
_symmetry_equiv_pos_as_xyz
'x, y, z'
_cell_length_a     34.061421
_cell_length_b     35.103286
_cell_length_c     45.159207
_cell_angle_alpha  89.902122
_cell_angle_beta   95.91513
_cell_angle_gamma 89.903027
loop_
_atom_site_label
_atom_site_type_symbol
_atom_site_fract_x
_atom_site_fract_y
_atom_site_fract_z
_atom_type_partial_charge
H0 H 0.72383 0.11838 0.01512 0.0
N1 N 0.6645 0.07396 0.9943 0.0
H2 H 0.77472 0.10521 0.05582 0.0
H3 H 0.66469 0.01401 0.03436 0.0
H4 H 0.71355 0.00199 0.07607 0.0
H5 H 0.69912 0.00695 0.98006 0.0
H6 H 0.7377 0.99642 0.93818 0.0
H7 H 0.67249 0.12129 0.94933 0.0
H8 H 0.71086 0.11091 0.90698 0.0
H9 H 0.60534 0.12112 0.00195 0.0
H10 H 0.63081 0.00327 0.98551 0.0
H11 H 0.53528 0.10596 0.00163 0.0
H12 H 0.56187 0.98721 0.9873 0.0
H13 H 0.34153 0.0646 0.0148 0.0
H14 H 0.30232 0.07486 0.05652 0.0
H15 H 0.34063 0.96574 0.0933 0.0
H16 H 0.37916 0.95529 0.05104 0.0
H17 H 0.33829 0.9403 0.98214 0.0
H18 H 0.28719 0.93955 0.93984 0.0
H19 H 0.31109 0.05789 0.92238 0.0
H20 H 0.36226 0.05825 0.96484 0.0
H21 H 0.42021 0.0606 0.03117 0.0
H22 H 0.48837 0.07839 0.02818 0.0
H23 H 0.49926 0.98937 0.96338 0.0
N24 N 0.38119 -0.00086 0.00319 0.0
H25 H 0.43176 0.96978 0.96833 0.0
C26 C 0.69012 0.0676 0.02147 0.0
C27 C 0.72121 0.09317 0.02864 0.0
C28 C 0.75026 0.08558 0.05206 0.0
C29 C 0.74862 0.05232 0.06935 0.0
C30 C 0.7165 0.02743 0.06291 0.0
C31 C 0.68789 0.03467 0.03907 0.0
C32 C 0.68271 0.06499 0.9677 0.0
C33 C 0.70071 0.02949 0.96385 0.0
C34 C 0.72288 0.02353 0.93989 0.0
C35 C 0.72761 0.05293 0.91934 0.0
C36 C 0.70829 0.08789 0.92266 0.0
C37 C 0.68606 0.09377 0.9466 0.0
C38 C 0.62346 0.06349 0.99406 0.0
C39 C 0.5958 0.0919 -0.00142 0.0
C40 C 0.55576 0.08302 -0.00136 0.0
C41 C 0.54247 0.04521 0.9946 0.0
C42 C 0.57046 0.01677 0.98992 0.0
C43 C 0.6103 0.02586 0.98923 0.0
C44 C 0.36294 0.00881 0.02967 0.0
C45 C 0.34174 0.04298 0.03189 0.0
C46 C 0.31932 0.04884 0.05574 0.0
C47 C 0.31821 0.02098 0.078 0.0
C48 C 0.34114 0.98782 0.07655 0.0
C49 C 0.36312 0.98177 0.0525 0.0
C50 C 0.35396 -0.00084 0.97654 0.0
C51 C 0.33275 0.96587 0.9689 0.0
C52 C 0.30366 0.96554 0.94477 0.0
C53 C 0.29503 -0.00128 0.92785 0.0
C54 C 0.31676 0.03204 0.93524 0.0
C55 C 0.34612 0.03224 0.95933 0.0
C56 C 0.42047 0.01336 6e-05 0.0
C57 C 0.43699 0.04471 0.0163 0.0
C58 C 0.4763 0.05522 0.01435 0.0
C59 C 0.49991 0.03525 0.99569 0.0
C60 C 0.4827 0.00491 0.97865 0.0
C61 C 0.44379 0.9939 0.98113 0.0
H62 H 0.00786 0.68815 0.51559 0.0
N63 N 0.07385 0.64731 0.50553 0.0
H64 H 0.99886 0.72603 0.55946 0.0
H65 H 0.12245 0.65217 0.55537 0.0
H66 H 0.11347 0.69 0.59984 0.0
H67 H 0.12691 0.69388 0.48637 0.0
H68 H 0.11776 0.73883 0.44465 0.0
H69 H 0.00806 0.65302 0.4648 0.0
H70 H 0.99899 0.69751 0.42297 0.0
H71 H 1.00031 0.61995 0.51454 0.0
H72 H 0.11501 0.58749 0.49057 0.0
H73 H 0.97911 0.55391 0.51133 0.0
H74 H 0.09345 0.52107 0.48614 0.0
H75 H 0.93315 0.36133 0.53113 0.0
H76 H 0.94206 0.31688 0.57322 0.0
H77 H 0.06117 0.29435 0.55284 0.0
H78 H 0.05129 0.33684 0.51032 0.0
H79 H 0.05101 0.3716 0.46291 0.0
H80 H 0.05973 0.33402 0.41864 0.0
H81 H 0.93764 0.29904 0.41397 0.0
H82 H 0.92904 0.33734 0.45798 0.0
H83 H 0.9416 0.43721 0.47393 0.0
H84 H 0.9627 0.50387 0.47605 0.0
H85 H 0.07741 0.46889 0.51706 0.0
N86 N 0.98356 0.37611 0.49139 0.0
H87 H 0.05672 0.40284 0.51387 0.0
C88 C 0.06608 0.66739 0.53216 0.0
C89 C 0.03088 0.68789 0.53397 0.0
C90 C 0.02562 0.70938 0.55923 0.0
C91 C 0.05545 0.711 0.58315 0.0
C92 C 0.09009 0.68954 0.58167 0.0
C93 C 0.09524 0.66788 0.55641 0.0
C94 C 0.06847 0.66998 0.47873 0.0
C95 C 0.09916 0.69415 0.47232 0.0
C96 C 0.09381 0.71984 0.44863 0.0
C97 C 0.05762 0.72164 0.43071 0.0
C98 C 0.02729 0.69641 0.43631 0.0
C99 C 0.0325 0.67097 0.46028 0.0
C100 C 0.05965 0.60866 0.50314 0.0
C101 C 0.02102 0.5987 0.50854 0.0
C102 C 0.00872 0.5608 0.50639 0.0
C103 C 0.0346 0.53213 0.49857 0.0
C104 C 0.07298 0.54232 0.49273 0.0
C105 C 0.0853 0.58021 0.49505 0.0
C106 C 0.99134 0.35252 0.51754 0.0
C107 C 0.96122 0.34694 0.53601 0.0
C108 C 0.96649 0.32174 0.56014 0.0
C109 C 1.00225 0.30175 0.56631 0.0
C110 C 0.03296 0.30862 0.54841 0.0
C111 C 0.02747 0.33336 0.52415 0.0
C112 C 0.98916 0.35725 0.46379 0.0
C113 C 0.02594 0.35636 0.45215 0.0
C114 C 0.03097 0.33469 0.42686 0.0
C115 C 0.99941 0.3135 0.41275 0.0
C116 C 0.96242 0.31549 0.42394 0.0
C117 C 0.95745 0.33713 0.44919 0.0
C118 C 0.99716 0.41496 0.49393 0.0
C119 C 0.97124 0.44409 0.48341 0.0
C120 C 0.98332 0.4821 0.48478 0.0
C121 C 0.02174 0.49173 0.49681 0.0
C122 C 0.04778 0.46245 0.50731 0.0
C123 C 0.03573 0.42446 0.50578 0.0
Mg124 Mg 0.05479 0.00497 0.26703 0.0
O125 O 0.99783 0.0038 0.2346 0.0
O126 O 0.94736 0.99425 0.26178 0.0
Mg127 Mg 0.97096 0.99206 0.31088 0.0
C128 C 0.96098 -0.00069 0.23678 0.0
C129 C 0.12484 0.00663 0.23223 0.0
O130 O 0.13273 0.98196 0.25396 0.0
O131 O 0.04012 0.06576 0.2802 0.0
O132 O 0.99002 0.05459 0.30747 0.0
O133 O 0.06029 0.94123 0.26662 0.0
O134 O 0.02821 0.97337 0.29842 0.0
C135 C 0.01379 0.07741 0.29631 0.0
C136 C 0.03941 0.941 0.28899 0.0
O137 O 0.09195 0.02416 0.23042 0.0
Mg138 Mg 0.98539 -0.00027 0.72857 0.0
O139 O 0.04413 -0.00114 0.75943 0.0
O140 O 0.09222 0.99076 0.72982 0.0
Mg141 Mg 0.06614 0.988 0.68151 0.0
C142 C 0.08065 0.99499 0.75561 0.0
C143 C 0.91427 0.00993 0.76232 0.0
O144 O 0.90169 0.99125 0.73799 0.0
O145 O 0.99761 0.06076 0.71395 0.0
O146 O 0.04574 0.04986 0.68484 0.0
O147 O 0.98143 0.93597 0.73032 0.0
O148 O 0.01093 0.96782 0.69681 0.0
C149 C 0.02239 0.0725 0.69658 0.0
C150 C 1.00187 0.9355 0.70769 0.0
O151 O 0.95041 0.01961 0.76617 0.0
H152 H 0.2405 0.04134 0.07133 0.0
H153 H 0.33506 0.00941 0.13779 0.0
H154 H 0.19426 0.04128 0.10912 0.0
H155 H 0.2893 0.01059 0.1759 0.0
H156 H 0.19065 0.96482 0.2261 0.0
H157 H 0.23756 0.97228 0.18973 0.0
H158 H 0.17234 0.06985 0.15238 0.0
H159 H 0.12414 0.06134 0.18845 0.0
C160 C 0.25153 0.03513 0.09419 0.0
C161 C 0.2913 0.02513 0.10162 0.0
C162 C 0.22505 0.03518 0.1159 0.0
C163 C 0.23785 0.02555 0.14559 0.0
C164 C 0.27812 0.01724 0.15316 0.0
C165 C 0.30444 0.01674 0.13139 0.0
C166 C 0.18627 0.988 0.21023 0.0
C167 C 0.1536 0.0125 0.21019 0.0
C168 C 0.21348 0.9925 0.18945 0.0
C169 C 0.20909 0.0219 0.16818 0.0
C170 C 0.17649 0.04665 0.16824 0.0
C171 C 0.14893 0.04191 0.18897 0.0
H172 H 0.03888 0.23294 0.56394 0.0
H173 H 0.97511 0.30249 0.62185 0.0
H174 H 0.04605 0.18343 0.60148 0.0
H175 H 0.98168 0.25185 0.65955 0.0
H176 H 0.96064 0.12326 0.69234 0.0
H177 H 0.95734 0.1837 0.66491 0.0
H178 H 0.08061 0.17262 0.65172 0.0
H179 H 0.08373 0.11231 0.67845 0.0
C180 C 0.02696 0.23803 0.5849 0.0
C181 C 0.00685 0.27201 0.58995 0.0
C182 C 0.03103 0.20951 0.60646 0.0
C183 C 0.0149 0.21397 0.63364 0.0
C184 C 0.99442 0.2477 0.63878 0.0
C185 C 0.99057 0.27657 0.61717 0.0
C186 C 0.98725 0.13435 0.68429 0.0
C187 C 0.02224 0.11277 0.68699 0.0
C188 C 0.98536 0.16893 0.66861 0.0
C189 C 0.01851 0.18236 0.65561 0.0
C190 C 0.05436 0.16248 0.66086 0.0
C191 C 0.05616 0.12801 0.67626 0.0
H192 H 0.7929 0.10174 0.10648 0.0
H193 H 0.77817 0.98172 0.08657 0.0
H194 H 0.84688 0.08639 0.14437 0.0
H195 H 0.83062 0.96671 0.12575 0.0
H196 H 0.88832 0.96661 0.22683 0.0
H197 H 0.83823 0.97786 0.18489 0.0
H198 H 0.91823 0.05266 0.14483 0.0
H199 H 0.96885 0.04078 0.18647 0.0
C200 C 0.80114 0.07215 0.10994 0.0
C201 C 0.78087 0.04304 0.09326 0.0
C202 C 0.83201 0.06343 0.13176 0.0
C203 C 0.84286 0.02542 0.13783 0.0
C204 C 0.8226 0.99625 0.12153 0.0
C205 C 0.79225 0.00495 0.09929 0.0
C206 C 0.89542 0.98502 0.20887 0.0
C207 C 0.93248 0.00282 0.20991 0.0
C208 C 0.86681 0.99136 0.18489 0.0
C209 C 0.87441 0.01626 0.16182 0.0
C210 C 0.91168 0.03349 0.16249 0.0
C211 C 0.94066 0.02647 0.18616 0.0
H212 H 0.11154 0.7589 0.60944 0.0
H213 H 0.99058 0.72388 0.61298 0.0
H214 H 0.10266 0.80943 0.6451 0.0
H215 H 0.98144 0.77517 0.64818 0.0
H216 H 0.98532 0.86234 0.72396 0.0
H217 H 1.00202 0.80328 0.69914 0.0
H218 H 0.0626 0.86861 0.63678 0.0
H219 H 0.04571 0.92698 0.66094 0.0
C220 C 0.08332 0.76142 0.61834 0.0
C221 C 0.05164 0.73763 0.60818 0.0
C222 C 0.07815 0.79056 0.63857 0.0
C223 C 0.04125 0.79647 0.64914 0.0
C224 C 0.01027 0.77118 0.6405 0.0
C225 C 0.01538 0.74209 0.62013 0.0
C226 C 1.00263 0.86397 0.70517 0.0
C227 C 0.01443 0.89943 0.69459 0.0
C228 C 0.01207 0.83021 0.69097 0.0
C229 C 0.03388 0.83135 0.66619 0.0
C230 C 0.04646 0.86672 0.65618 0.0
C231 C 0.03668 0.90031 0.67008 0.0
H232 H 0.28032 0.94433 0.88503 0.0
H233 H 0.2374 0.0523 0.91436 0.0
H234 H 0.2271 0.94293 0.84457 0.0
H235 H 0.18447 0.05128 0.87338 0.0
H236 H 0.07174 0.01338 0.81381 0.0
H237 H 0.123 0.01438 0.85604 0.0
H238 H 0.20947 0.97895 0.79814 0.0
H239 H 0.15877 0.9776 0.75627 0.0
C240 C 0.25946 0.96774 0.88285 0.0
C241 C 0.26311 -0.00154 0.90284 0.0
C242 C 0.22914 0.96708 0.85956 0.0
C243 C 0.20163 -0.00297 0.85578 0.0
C244 C 0.20504 0.02765 0.87588 0.0
C245 C 0.23559 0.02845 0.8991 0.0
C246 C 0.10167 0.0057 0.81015 0.0
C247 C 0.11105 0.99538 0.78162 0.0
C248 C 0.13104 0.0065 0.83428 0.0
C249 C 0.17022 -0.00337 0.8304 0.0
C250 C 0.17948 0.98623 0.80194 0.0
C251 C 0.15034 0.9857 0.77787 0.0
H252 H 0.94999 0.29991 0.36204 0.0
H253 H 0.0624 0.26635 0.40786 0.0
H254 H 0.9549 0.24842 0.32632 0.0
H255 H 0.06739 0.21527 0.37206 0.0
H256 H 0.95062 0.11576 0.31338 0.0
H257 H 0.94969 0.17914 0.33475 0.0
H258 H 0.07173 0.19485 0.31943 0.0
H259 H 0.07272 0.13082 0.29795 0.0
C260 C 0.97599 0.28191 0.36425 0.0
C261 C 0.00551 0.28689 0.38806 0.0
C262 C 0.97885 0.25253 0.34374 0.0
C263 C 0.01135 0.22759 0.34655 0.0
C264 C 0.04218 0.23425 0.36909 0.0
C265 C 0.03927 0.26356 0.38965 0.0
C266 C 0.97709 0.13295 0.31405 0.0
C267 C 0.01188 0.11814 0.30432 0.0
C268 C 0.97646 0.16945 0.32608 0.0
C269 C 0.0107 0.19194 0.3289 0.0
C270 C 0.04498 0.178 0.31771 0.0
C271 C 0.04548 0.14148 0.30529 0.0
H272 H 0.73451 0.99033 0.88411 0.0
H273 H 0.78103 0.10355 0.9008 0.0
H274 H 0.78007 0.98082 0.8465 0.0
H275 H 0.8257 0.0945 0.86248 0.0
H276 H 0.92999 0.04635 0.81603 0.0
H277 H 0.88454 0.05737 0.85369 0.0
H278 H 0.79094 0.00337 0.79702 0.0
H279 H 0.83624 0.99186 0.75976 0.0
C280 C 0.75438 0.01322 0.8797 0.0
C281 C 0.75406 0.04771 0.89543 0.0
C282 C 0.78025 0.00792 0.85795 0.0
C283 C 0.80652 0.03693 0.85146 0.0
C284 C 0.80612 0.07146 0.86713 0.0
C285 C 0.78015 0.07681 0.88882 0.0
C286 C 0.89969 0.03694 0.81161 0.0
C287 C 0.88681 0.01811 0.78493 0.0
C288 C 0.8736 0.0434 0.83312 0.0
C289 C 0.83414 0.03109 0.82841 0.0
C290 C 0.82127 0.01268 0.80157 0.0
C291 C 0.84725 0.00629 0.78011 0.0
H292 H 0.02669 0.71416 0.37245 0.0
H293 H 0.0726 0.79706 0.43751 0.0
H294 H 0.01547 0.76505 0.335 0.0
H295 H 0.0614 0.84747 0.40045 0.0
H296 H 1.00211 0.93382 0.33923 0.0
H297 H 1.00139 0.87833 0.37144 0.0
H298 H 0.06053 0.81231 0.30876 0.0
H299 H 0.06126 0.86809 0.27615 0.0
C300 C 0.03422 0.74322 0.3787 0.0
C301 C 0.05071 0.75175 0.40776 0.0
C302 C 0.02794 0.77219 0.35733 0.0
C303 C 0.03729 0.81014 0.36495 0.0
C304 C 0.05345 0.81853 0.39408 0.0
C305 C 0.06025 0.78965 0.41519 0.0
C306 C 0.01416 0.90734 0.33186 0.0
C307 C 0.03213 0.90551 0.30524 0.0
C308 C 0.01392 0.8756 0.35044 0.0
C309 C 0.03143 0.84128 0.34277 0.0
C310 C 0.0468 0.83848 0.31515 0.0
C311 C 0.04728 0.87042 0.29656 0.0
loop_
_geom_bond_atom_site_label_1
_geom_bond_atom_site_label_2
_geom_bond_distance
_geom_bond_site_symmetry_2
_ccdc_geom_bond_type
H0 C27 0.929 . S
N1 C26 1.404 1_556 S
N1 C32 1.462 . S
N1 C38 1.424 . S
H2 C28 0.930 . S
H3 C31 0.929 1_565 S
H4 C30 0.929 . S
H5 C33 0.930 . S
H6 C34 0.932 . S
H7 C37 0.929 . S
H8 C36 0.931 . S
H9 C39 0.929 . S
H10 C43 0.932 1_565 S
H11 C40 0.931 . S
H12 C42 0.929 . S
H13 C45 0.929 . S
H14 C46 0.930 . S
H15 C48 0.929 . S
H16 C49 0.929 1_565 S
H17 C51 0.930 . S
H18 C52 0.932 . S
H19 C54 0.931 . S
H20 C55 0.929 . S
H21 C57 0.929 . S
H22 C58 0.931 . S
H23 C60 0.929 . S
N24 C44 1.433 1_556 S
N24 C50 1.435 . S
N24 C56 1.423 . S
H25 C61 0.932 1_565 S
C26 N1 1.404 1_554 S
C26 C27 1.363 . S
C26 C31 1.373 . S
C27 H0 0.929 . S
C27 C26 1.363 . S
C27 C28 1.385 . S
C28 H2 0.930 . S
C28 C27 1.385 . S
C28 C29 1.357 . S
C29 C28 1.357 . S
C29 C30 1.406 1_545 S
C30 H4 0.929 . S
C30 C29 1.406 1_565 S
C30 C31 1.391 1_565 S
C31 H3 0.929 1_545 S
C31 C26 1.373 . S
C31 C30 1.391 1_545 S
C32 N1 1.462 . S
C32 C33 1.358 1_545 S
C32 C37 1.371 . S
C33 H5 0.930 . S
C33 C32 1.358 1_565 S
C33 C34 1.405 . S
C34 H6 0.932 . S
C34 C33 1.405 . S
C34 C35 1.383 1_565 S
C35 C34 1.383 1_545 S
C35 C36 1.393 . S
C36 H8 0.931 . S
C36 C35 1.393 . S
C36 C37 1.382 . S
C37 H7 0.929 . S
C37 C32 1.371 . S
C37 C36 1.382 . S
C38 N1 1.424 . S
C38 C39 1.362 1_556 S
C38 C43 1.388 . S
C39 H9 0.929 . S
C39 C38 1.362 1_554 S
C39 C40 1.376 . S
C40 H11 0.931 . S
C40 C39 1.376 . S
C40 C41 1.396 1_554 S
C41 C40 1.396 1_556 S
C41 C42 1.348 . S
C41 C59 1.472 . S
C42 H12 0.929 . S
C42 C41 1.348 . S
C42 C43 1.443 . S
C43 H10 0.932 1_545 S
C43 C38 1.388 . S
C43 C42 1.443 . S
C44 N24 1.433 1_554 S
C44 C45 1.363 . S
C44 C49 1.373 . S
C45 H13 0.929 . S
C45 C44 1.363 . S
C45 C46 1.385 . S
C46 H14 0.930 . S
C46 C45 1.385 . S
C46 C47 1.357 . S
C47 C46 1.357 . S
C47 C48 1.406 1_545 S
C48 H15 0.929 . S
C48 C47 1.406 1_565 S
C48 C49 1.391 1_565 S
C49 H16 0.929 1_545 S
C49 C44 1.373 . S
C49 C48 1.391 1_545 S
C50 N24 1.435 . S
C50 C51 1.358 1_545 S
C50 C55 1.371 . S
C51 H17 0.930 . S
C51 C50 1.358 1_565 S
C51 C52 1.405 . S
C52 H18 0.932 . S
C52 C51 1.405 . S
C52 C53 1.383 1_565 S
C53 C52 1.383 1_545 S
C53 C54 1.393 . S
C54 H19 0.931 . S
C54 C53 1.393 . S
C54 C55 1.382 . S
C55 H20 0.929 . S
C55 C50 1.371 . S
C55 C54 1.382 . S
C56 N24 1.423 . S
C56 C57 1.362 1_556 S
C56 C61 1.388 . S
C57 H21 0.929 . S
C57 C56 1.362 1_554 S
C57 C58 1.376 . S
C58 H22 0.931 . S
C58 C57 1.376 . S
C58 C59 1.396 1_554 S
C59 C41 1.472 . S
C59 C58 1.396 1_556 S
C59 C60 1.348 . S
C60 H23 0.929 . S
C60 C59 1.348 . S
C60 C61 1.443 . S
C61 H25 0.932 1_545 S
C61 C56 1.388 . S
C61 C60 1.443 . S
H62 C89 0.929 . S
N63 C88 1.433 . S
N63 C94 1.435 . S
N63 C100 1.423 1_455 S
H64 C90 0.930 . S
H65 C93 0.931 . S
H66 C92 0.929 . S
H67 C95 0.930 . S
H68 C96 0.932 . S
H69 C99 0.929 . S
H70 C98 0.934 . S
H71 C101 0.929 . S
H72 C105 0.932 . S
H73 C102 0.931 . S
H74 C104 0.929 . S
H75 C107 0.929 . S
H76 C108 0.930 . S
H77 C110 0.929 . S
H78 C111 0.931 . S
H79 C113 0.930 . S
H80 C114 0.932 . S
H81 C116 0.934 . S
H82 C117 0.929 . S
H83 C119 0.929 . S
H84 C120 0.931 . S
H85 C122 0.929 . S
N86 C106 1.433 . S
N86 C112 1.435 . S
N86 C118 1.423 1_455 S
H87 C123 0.932 . S
C88 N63 1.433 . S
C88 C89 1.363 1_455 S
C88 C93 1.370 . S
C89 H62 0.929 . S
C89 C88 1.363 1_655 S
C89 C90 1.385 . S
C90 H64 0.930 . S
C90 C89 1.385 . S
C90 C91 1.357 1_655 S
C91 C90 1.357 1_455 S
C91 C92 1.406 . S
C92 H66 0.929 . S
C92 C91 1.406 . S
C92 C93 1.391 . S
C93 H65 0.931 . S
C93 C88 1.370 . S
C93 C92 1.391 . S
C94 N63 1.435 . S
C94 C95 1.358 . S
C94 C99 1.371 1_455 S
C95 H67 0.930 . S
C95 C94 1.358 . S
C95 C96 1.405 . S
C96 H68 0.932 . S
C96 C95 1.405 . S
C96 C97 1.383 . S
C97 C96 1.383 . S
C97 C98 1.388 1_455 S
C98 H70 0.934 . S
C98 C97 1.388 1_655 S
C98 C99 1.384 . S
C99 H69 0.929 . S
C99 C94 1.371 1_655 S
C99 C98 1.384 . S
C100 N63 1.423 1_655 S
C100 C101 1.361 . S
C100 C105 1.389 1_655 S
C101 H71 0.929 . S
C101 C100 1.361 . S
C101 C102 1.376 . S
C102 H73 0.931 . S
C102 C101 1.376 . S
C102 C103 1.396 . S
C103 C102 1.396 . S
C103 C104 1.348 1_655 S
C103 C121 1.472 . S
C104 H74 0.929 . S
C104 C103 1.348 1_455 S
C104 C105 1.443 . S
C105 H72 0.932 . S
C105 C100 1.389 1_455 S
C105 C104 1.443 . S
C106 N86 1.433 . S
C106 C107 1.363 1_455 S
C106 C111 1.370 . S
C107 H75 0.929 . S
C107 C106 1.363 1_655 S
C107 C108 1.385 . S
C108 H76 0.930 . S
C108 C107 1.385 . S
C108 C109 1.357 1_655 S
C109 C108 1.357 1_455 S
C109 C110 1.406 . S
C110 H77 0.929 . S
C110 C109 1.406 . S
C110 C111 1.391 . S
C111 H78 0.931 . S
C111 C106 1.370 . S
C111 C110 1.391 . S
C112 N86 1.435 . S
C112 C113 1.358 . S
C112 C117 1.371 1_455 S
C113 H79 0.930 . S
C113 C112 1.358 . S
C113 C114 1.405 . S
C114 H80 0.932 . S
C114 C113 1.405 . S
C114 C115 1.383 . S
C115 C114 1.383 . S
C115 C116 1.388 1_455 S
C116 H81 0.934 . S
C116 C115 1.388 1_655 S
C116 C117 1.384 . S
C117 H82 0.929 . S
C117 C112 1.371 1_655 S
C117 C116 1.384 . S
C118 N86 1.423 1_655 S
C118 C119 1.361 . S
C118 C123 1.389 1_655 S
C119 H83 0.929 . S
C119 C118 1.361 . S
C119 C120 1.376 . S
C120 H84 0.931 . S
C120 C119 1.376 . S
C120 C121 1.396 . S
C121 C103 1.472 . S
C121 C120 1.396 . S
C121 C122 1.348 1_655 S
C122 H85 0.929 . S
C122 C121 1.348 1_455 S
C122 C123 1.443 . S
C123 H87 0.932 . S
C123 C118 1.389 1_455 S
C123 C122 1.443 . S
Mg124 O125 2.028 . S
Mg124 O131 1.986 . S
Mg124 O133 2.114 1_545 S
Mg124 O134 2.251 1_545 S
Mg124 O137 2.010 . S
O125 Mg124 2.028 . S
O125 C128 1.250 1_455 S
O126 Mg127 2.028 . S
O126 C128 1.248 . S
Mg127 O126 2.028 . S
Mg127 O132 2.032 1_655 S
Mg127 O134 2.079 1_645 S
C128 O125 1.250 1_655 S
C128 O126 1.248 . S
C129 O130 1.264 . S
C129 O137 1.249 . S
O130 C129 1.264 . S
O131 Mg124 1.986 . S
O131 C135 1.246 . S
O132 Mg127 2.032 1_455 S
O132 C135 1.259 . S
O133 Mg124 2.114 1_565 S
O133 C136 1.252 . S
O134 Mg124 2.251 1_565 S
O134 Mg127 2.079 1_465 S
O134 C136 1.273 . S
C135 O131 1.246 . S
C135 O132 1.259 . S
C136 O133 1.252 . S
C136 O134 1.273 . S
O137 Mg124 2.010 . S
O137 C129 1.249 . S
Mg138 O139 2.028 1_655 S
Mg138 O145 1.986 . S
Mg138 O147 2.114 1_545 S
Mg138 O148 2.251 1_645 S
Mg138 O151 2.010 . S
O139 Mg138 2.028 1_455 S
O139 C142 1.250 . S
O140 Mg141 2.028 . S
O140 C142 1.248 . S
Mg141 O140 2.028 . S
Mg141 O146 2.032 . S
Mg141 O148 2.079 1_545 S
C142 O139 1.250 . S
C142 O140 1.248 . S
C143 O144 1.264 . S
C143 O151 1.249 . S
O144 C143 1.264 . S
O145 Mg138 1.986 . S
O145 C149 1.246 1_655 S
O146 Mg141 2.032 . S
O146 C149 1.259 . S
O147 Mg138 2.114 1_565 S
O147 C150 1.252 1_655 S
O148 Mg138 2.251 1_465 S
O148 Mg141 2.079 1_565 S
O148 C150 1.273 . S
C149 O145 1.246 1_455 S
C149 O146 1.259 . S
C150 O147 1.252 1_455 S
C150 O148 1.273 . S
O151 Mg138 2.010 . S
O151 C143 1.249 . S
H152 C160 0.950 . S
H153 C165 0.950 . S
H154 C162 0.950 . S
H155 C164 0.950 . S
H156 C166 0.951 . S
H157 C168 0.950 . S
H158 C170 0.950 . S
H159 C171 0.950 . S
C160 H152 0.950 . S
C160 C161 1.386 . S
C160 C162 1.391 . S
C161 C160 1.386 . S
C161 C165 1.393 1_545 S
C162 H154 0.950 . S
C162 C160 1.391 . S
C162 C163 1.400 . S
C163 C162 1.400 . S
C163 C164 1.398 1_545 S
C163 C169 1.491 . S
C164 H155 0.950 . S
C164 C163 1.398 1_565 S
C164 C165 1.391 . S
C165 H153 0.950 . S
C165 C161 1.393 1_565 S
C165 C164 1.391 . S
C166 H156 0.951 . S
C166 C167 1.384 1_565 S
C166 C168 1.392 . S
C167 C166 1.384 1_545 S
C167 C171 1.393 . S
C168 H157 0.950 . S
C168 C166 1.392 . S
C168 C169 1.400 1_565 S
C169 C163 1.491 . S
C169 C168 1.400 1_545 S
C169 C170 1.398 . S
C170 H158 0.950 . S
C170 C169 1.398 . S
C170 C171 1.391 . S
C171 H159 0.950 . S
C171 C167 1.393 . S
C171 C170 1.391 . S
H172 C180 0.950 . S
H173 C185 0.950 . S
H174 C182 0.950 . S
H175 C184 0.950 . S
H176 C186 0.950 . S
H177 C188 0.950 . S
H178 C190 0.950 . S
H179 C191 0.950 . S
C180 H172 0.950 . S
C180 C181 1.386 . S
C180 C182 1.391 . S
C181 C180 1.386 . S
C181 C185 1.393 1_455 S
C182 H174 0.950 . S
C182 C180 1.391 . S
C182 C183 1.400 . S
C183 C182 1.400 . S
C183 C184 1.398 1_455 S
C183 C189 1.491 . S
C184 H175 0.950 . S
C184 C183 1.398 1_655 S
C184 C185 1.391 . S
C185 H173 0.950 . S
C185 C181 1.393 1_655 S
C185 C184 1.391 . S
C186 H176 0.950 . S
C186 C187 1.386 1_655 S
C186 C188 1.391 . S
C187 C186 1.386 1_455 S
C187 C191 1.393 . S
C188 H177 0.950 . S
C188 C186 1.391 . S
C188 C189 1.400 1_655 S
C189 C183 1.491 . S
C189 C188 1.400 1_455 S
C189 C190 1.398 . S
C190 H178 0.950 . S
C190 C189 1.398 . S
C190 C191 1.391 . S
C191 H179 0.950 . S
C191 C187 1.393 . S
C191 C190 1.391 . S
H192 C200 0.950 . S
H193 C205 0.950 . S
H194 C202 0.950 . S
H195 C204 0.950 . S
H196 C206 0.950 . S
H197 C208 0.950 . S
H198 C210 0.950 . S
H199 C211 0.950 . S
C200 H192 0.950 . S
C200 C201 1.386 . S
C200 C202 1.391 . S
C201 C200 1.386 . S
C201 C205 1.393 1_545 S
C202 H194 0.950 . S
C202 C200 1.391 . S
C202 C203 1.400 . S
C203 C202 1.400 . S
C203 C204 1.398 1_545 S
C203 C209 1.491 . S
C204 H195 0.950 . S
C204 C203 1.398 1_565 S
C204 C205 1.391 . S
C205 H193 0.950 . S
C205 C201 1.393 1_565 S
C205 C204 1.391 . S
C206 H196 0.950 . S
C206 C207 1.386 1_565 S
C206 C208 1.391 . S
C207 C206 1.386 1_545 S
C207 C211 1.393 . S
C208 H197 0.950 . S
C208 C206 1.391 . S
C208 C209 1.400 1_565 S
C209 C203 1.491 . S
C209 C208 1.400 1_545 S
C209 C210 1.398 . S
C210 H198 0.950 . S
C210 C209 1.398 . S
C210 C211 1.391 . S
C211 H199 0.950 . S
C211 C207 1.393 . S
C211 C210 1.391 . S
H212 C220 0.950 . S
H213 C225 0.950 . S
H214 C222 0.950 1_655 S
H215 C224 0.950 . S
H216 C226 0.950 . S
H217 C228 0.950 . S
H218 C230 0.950 . S
H219 C231 0.950 1_655 S
C220 H212 0.950 . S
C220 C221 1.386 . S
C220 C222 1.391 . S
C221 C220 1.386 . S
C221 C225 1.393 . S
C222 H214 0.950 1_455 S
C222 C220 1.391 . S
C222 C223 1.400 . S
C223 C222 1.400 . S
C223 C224 1.398 . S
C223 C229 1.491 . S
C224 H215 0.950 . S
C224 C223 1.398 . S
C224 C225 1.391 . S
C225 H213 0.950 . S
C225 C221 1.393 . S
C225 C224 1.391 . S
C226 H216 0.950 . S
C226 C227 1.386 . S
C226 C228 1.391 . S
C227 C226 1.386 . S
C227 C231 1.393 . S
C228 H217 0.950 . S
C228 C226 1.391 . S
C228 C229 1.400 . S
C229 C223 1.491 . S
C229 C228 1.400 . S
C229 C230 1.398 . S
C230 H218 0.950 . S
C230 C229 1.398 . S
C230 C231 1.391 . S
C231 H219 0.950 1_455 S
C231 C227 1.393 . S
C231 C230 1.391 . S
H232 C240 0.950 . S
H233 C245 0.950 . S
H234 C242 0.950 . S
H235 C244 0.950 . S
H236 C246 0.950 . S
H237 C248 0.950 . S
H238 C250 0.950 . S
H239 C251 0.950 . S
C240 H232 0.950 . S
C240 C241 1.386 1_565 S
C240 C242 1.391 . S
C241 C240 1.386 1_545 S
C241 C245 1.393 . S
C242 H234 0.950 . S
C242 C240 1.391 . S
C242 C243 1.400 1_565 S
C243 C242 1.400 1_545 S
C243 C244 1.398 . S
C243 C249 1.491 . S
C244 H235 0.950 . S
C244 C243 1.398 . S
C244 C245 1.391 . S
C245 H233 0.950 . S
C245 C241 1.393 . S
C245 C244 1.391 . S
C246 H236 0.950 . S
C246 C247 1.386 . S
C246 C248 1.391 . S
C247 C246 1.386 . S
C247 C251 1.393 1_545 S
C248 H237 0.950 . S
C248 C246 1.391 . S
C248 C249 1.400 . S
C249 C243 1.491 . S
C249 C248 1.400 . S
C249 C250 1.398 1_545 S
C250 H238 0.950 . S
C250 C249 1.398 1_565 S
C250 C251 1.391 . S
C251 H239 0.950 . S
C251 C247 1.393 1_565 S
C251 C250 1.391 . S
H252 C260 0.950 . S
H253 C265 0.950 1_655 S
H254 C262 0.950 . S
H255 C264 0.957 . S
H256 C266 0.962 . S
H257 C268 0.933 1_655 S
H258 C270 0.950 . S
H259 C271 0.950 . S
C260 H252 0.950 . S
C260 C261 1.386 . S
C260 C262 1.391 . S
C261 C260 1.386 . S
C261 C265 1.393 . S
C262 H254 0.950 . S
C262 C260 1.391 . S
C262 C263 1.400 . S
C263 C262 1.400 . S
C263 C264 1.398 . S
C263 C269 1.491 . S
C264 H255 0.957 . S
C264 C263 1.398 . S
C264 C265 1.391 . S
C265 H253 0.950 1_455 S
C265 C261 1.393 . S
C265 C264 1.391 . S
C266 H256 0.962 . S
C266 C267 1.386 . S
C266 C268 1.391 . S
C267 C266 1.386 . S
C267 C271 1.393 . S
C268 H257 0.933 1_455 S
C268 C266 1.391 . S
C268 C269 1.400 . S
C269 C263 1.491 . S
C269 C268 1.400 . S
C269 C270 1.398 . S
C270 H258 0.950 . S
C270 C269 1.398 . S
C270 C271 1.391 . S
C271 H259 0.950 . S
C271 C267 1.393 . S
C271 C270 1.391 . S
H272 C280 0.950 . S
H273 C285 0.950 . S
H274 C282 0.950 . S
H275 C284 0.950 . S
H276 C286 0.950 . S
H277 C288 0.950 . S
H278 C290 0.950 . S
H279 C291 0.950 . S
C280 H272 0.950 . S
C280 C281 1.386 . S
C280 C282 1.391 . S
C281 C280 1.386 . S
C281 C285 1.393 . S
C282 H274 0.950 . S
C282 C280 1.391 . S
C282 C283 1.400 . S
C283 C282 1.400 . S
C283 C284 1.398 . S
C283 C289 1.491 . S
C284 H275 0.950 . S
C284 C283 1.398 . S
C284 C285 1.391 . S
C285 H273 0.950 . S
C285 C281 1.393 . S
C285 C284 1.391 . S
C286 H276 0.950 . S
C286 C287 1.386 . S
C286 C288 1.391 . S
C287 C286 1.386 . S
C287 C291 1.393 . S
C288 H277 0.950 . S
C288 C286 1.391 . S
C288 C289 1.400 . S
C289 C283 1.491 . S
C289 C288 1.400 . S
C289 C290 1.398 . S
C290 H278 0.950 . S
C290 C289 1.398 . S
C290 C291 1.391 . S
C291 H279 0.950 . S
C291 C287 1.393 . S
C291 C290 1.391 . S
H292 C300 0.950 . S
H293 C305 0.950 . S
H294 C302 0.950 . S
H295 C304 0.950 . S
H296 C306 0.950 . S
H297 C308 0.950 . S
H298 C310 0.950 . S
H299 C311 0.950 . S
C300 H292 0.950 . S
C300 C301 1.386 . S
C300 C302 1.391 . S
C301 C300 1.386 . S
C301 C305 1.393 . S
C302 H294 0.950 . S
C302 C300 1.391 . S
C302 C303 1.400 . S
C303 C302 1.400 . S
C303 C304 1.398 . S
C303 C309 1.491 . S
C304 H295 0.950 . S
C304 C303 1.398 . S
C304 C305 1.391 . S
C305 H293 0.950 . S
C305 C301 1.393 . S
C305 C304 1.391 . S
C306 H296 0.950 . S
C306 C307 1.386 . S
C306 C308 1.391 . S
C307 C306 1.386 . S
C307 C311 1.393 . S
C308 H297 0.950 . S
C308 C306 1.391 . S
C308 C309 1.400 . S
C309 C303 1.491 . S
C309 C308 1.400 . S
C309 C310 1.398 . S
C310 H298 0.950 . S
C310 C309 1.398 . S
C310 C311 1.391 . S
C311 H299 0.950 . S
C311 C307 1.393 . S
C311 C310 1.391 . S
C167 C129 1.418 . S
C161 C47 1.631 . S
C187 C149 1.720 . S
C181 C109 1.637 . S
C207 C128 1.684 . S
C201 C29 1.637 . S
C227 C150 1.751 . S
C221 C91 1.633 . S
C247 C142 1.363 . S
C241 C53 1.384 . S
C267 C135 1.367 . S
C261 C115 1.379 . S
C287 C143 1.201 . S
C281 C35 1.400 . S
C301 C97 1.385 . S
C307 C136 1.400 . S
