# Generated by pormake.
# Topology zzz, (3,6)-cn, num edge types: 1
# Building blocks:
#     Node 0, Type 0, BuildingBlock: VETTIZ_charged_linker_0, # of connection points: 3
#     Node 1, Type 0, BuildingBlock: VETTIZ_charged_linker_0, # of connection points: 3
#     Node 2, Type 0, BuildingBlock: VETTIZ_charged_linker_0, # of connection points: 3
#     Node 3, Type 0, BuildingBlock: VETTIZ_charged_linker_0, # of connection points: 3
#     Node 4, Type 0, BuildingBlock: VETTIZ_charged_linker_0, # of connection points: 3
#     Node 5, Type 0, BuildingBlock: VETTIZ_charged_linker_0, # of connection points: 3
#     Node 6, Type 0, BuildingBlock: VETTIZ_charged_linker_0, # of connection points: 3
#     Node 7, Type 0, BuildingBlock: VETTIZ_charged_linker_0, # of connection points: 3
#     Node 8, Type 1, BuildingBlock: VOLQOD_clean_sbu_1, # of connection points: 6
#     Node 9, Type 1, BuildingBlock: VOLQOD_clean_sbu_1, # of connection points: 6
#     Node 10, Type 1, BuildingBlock: VOLQOD_clean_sbu_1, # of connection points: 6
#     Node 11, Type 1, BuildingBlock: VOLQOD_clean_sbu_1, # of connection points: 6
#     Edge 12, Type (0, 1), BuildingBlock: AJUNOK_clean_linker_0, # of connection points: 2
#     Edge 13, Type (0, 1), BuildingBlock: AJUNOK_clean_linker_0, # of connection points: 2
#     Edge 14, Type (0, 1), BuildingBlock: AJUNOK_clean_linker_0, # of connection points: 2
#     Edge 15, Type (0, 1), BuildingBlock: AJUNOK_clean_linker_0, # of connection points: 2
#     Edge 16, Type (0, 1), BuildingBlock: AJUNOK_clean_linker_0, # of connection points: 2
#     Edge 17, Type (0, 1), BuildingBlock: AJUNOK_clean_linker_0, # of connection points: 2
#     Edge 18, Type (0, 1), BuildingBlock: AJUNOK_clean_linker_0, # of connection points: 2
#     Edge 19, Type (0, 1), BuildingBlock: AJUNOK_clean_linker_0, # of connection points: 2
#     Edge 20, Type (0, 1), BuildingBlock: AJUNOK_clean_linker_0, # of connection points: 2
#     Edge 21, Type (0, 1), BuildingBlock: AJUNOK_clean_linker_0, # of connection points: 2
#     Edge 22, Type (0, 1), BuildingBlock: AJUNOK_clean_linker_0, # of connection points: 2
#     Edge 23, Type (0, 1), BuildingBlock: AJUNOK_clean_linker_0, # of connection points: 2
#     Edge 24, Type (0, 1), BuildingBlock: AJUNOK_clean_linker_0, # of connection points: 2
#     Edge 25, Type (0, 1), BuildingBlock: AJUNOK_clean_linker_0, # of connection points: 2
#     Edge 26, Type (0, 1), BuildingBlock: AJUNOK_clean_linker_0, # of connection points: 2
#     Edge 27, Type (0, 1), BuildingBlock: AJUNOK_clean_linker_0, # of connection points: 2
#     Edge 28, Type (0, 1), BuildingBlock: AJUNOK_clean_linker_0, # of connection points: 2
#     Edge 29, Type (0, 1), BuildingBlock: AJUNOK_clean_linker_0, # of connection points: 2
#     Edge 30, Type (0, 1), BuildingBlock: AJUNOK_clean_linker_0, # of connection points: 2
#     Edge 31, Type (0, 1), BuildingBlock: AJUNOK_clean_linker_0, # of connection points: 2
#     Edge 32, Type (0, 1), BuildingBlock: AJUNOK_clean_linker_0, # of connection points: 2
#     Edge 33, Type (0, 1), BuildingBlock: AJUNOK_clean_linker_0, # of connection points: 2
#     Edge 34, Type (0, 1), BuildingBlock: AJUNOK_clean_linker_0, # of connection points: 2
#     Edge 35, Type (0, 1), BuildingBlock: AJUNOK_clean_linker_0, # of connection points: 2
# Relax obj value: 0.367
# Max RMSD: 0.260
# Mean RMSD: 0.211
data_MOF--net-zzz--node1-VOLQOD_clean_sbu_1--node2-VETTIZ_charged_linker_0--edge1-AJUNOK_clean_linker_0
_symmetry_space_group_name_H-M    P1
_symmetry_Int_Tables_number       1
_symmetry_cell_setting            triclinic
loop_
_symmetry_equiv_pos_as_xyz
'x, y, z'
_cell_length_a     44.745351
_cell_length_b     44.236441
_cell_length_c     17.799451
_cell_angle_alpha  90.139627
_cell_angle_beta   90.09831
_cell_angle_gamma 92.271986
loop_
_atom_site_label
_atom_site_type_symbol
_atom_site_fract_x
_atom_site_fract_y
_atom_site_fract_z
_atom_type_partial_charge
C0 C 0.83848 0.53026 0.34013 0.0
C1 C 0.86931 0.53617 0.35578 0.0
C2 C 0.88805 0.54715 0.29787 0.0
C3 C 0.84764 0.54157 0.20847 0.0
C4 C 0.82793 0.53401 0.26555 0.0
C5 C 0.79602 0.53131 0.23542 0.0
H6 H 0.7072 0.52882 0.91748 0.0
C7 C 0.83167 0.53989 0.13633 0.0
C8 C 0.80094 0.53495 0.1505 0.0
H9 H 0.67537 0.5259 0.14573 0.0
H10 H 0.72709 0.52746 0.19202 0.0
H11 H 0.7622 0.5772 0.93316 0.0
H12 H 0.75185 0.48063 0.94396 0.0
H13 H 0.7891 0.48706 0.91608 0.0
H14 H 0.75916 0.49939 0.85662 0.0
H15 H 0.75209 0.55279 0.85558 0.0
H16 H 0.79062 0.56158 0.87826 0.0
C17 C 0.77854 0.55756 0.26856 0.0
C18 C 0.78216 0.49991 0.25518 0.0
C19 C 0.8935 0.52339 0.9039 0.0
C20 C 0.88579 0.51257 0.8321 0.0
C21 C 0.85576 0.51243 0.80879 0.0
C22 C 0.83346 0.52132 0.85863 0.0
C23 C 0.84128 0.52944 0.93297 0.0
C24 C 0.871 0.53097 0.95381 0.0
C25 C 0.87536 0.53762 0.03592 0.0
C26 C 0.84304 0.53833 0.06213 0.0
C27 C 0.82337 0.53392 1.00164 0.0
C28 C 0.89213 0.56892 0.04367 0.0
C29 C 0.89214 0.51095 0.07076 0.0
C30 C 0.71131 0.52928 0.97752 0.0
C31 C 0.68742 0.52822 0.02793 0.0
C32 C 0.6936 0.52736 0.10581 0.0
C33 C 0.72351 0.52847 0.13246 0.0
C34 C 0.7473 0.53011 0.08054 0.0
C35 C 0.74062 0.52994 1.00447 0.0
C36 C 0.76773 0.52882 0.95597 0.0
C37 C 0.79218 0.53161 0.01438 0.0
C38 C 0.7806 0.53201 0.08813 0.0
C39 C 0.76829 0.5564 0.9024 0.0
C40 C 0.76703 0.49755 0.91559 0.0
H41 H 0.89302 0.55797 0.18351 0.0
H42 H 0.8233 0.52288 0.38428 0.0
H43 H 0.79726 0.48186 0.23741 0.0
H44 H 0.76052 0.49539 0.2266 0.0
H45 H 0.77852 0.49784 0.31672 0.0
H46 H 0.79181 0.57927 0.26373 0.0
H47 H 0.77367 0.5536 0.32902 0.0
H48 H 0.75733 0.56094 0.23885 0.0
H49 H 0.91648 0.5234 0.92316 0.0
H50 H 0.84948 0.50431 0.75327 0.0
H51 H 0.81091 0.52045 0.83812 0.0
H52 H 0.89265 0.5818 0.99002 0.0
H53 H 0.91574 0.56648 0.06132 0.0
H54 H 0.88098 0.58382 0.08434 0.0
H55 H 0.88165 0.48891 0.05244 0.0
H56 H 0.89194 0.51054 0.13247 0.0
H57 H 0.91593 0.51157 0.05292 0.0
H58 H 0.91158 0.5523 0.3084 0.0
C59 C 0.87736 0.55014 0.225 0.0
C60 C 0.11508 0.8311 0.93833 0.0
C61 C 0.11654 0.86235 0.9541 0.0
C62 C 0.11755 0.87181 0.02969 0.0
C63 C 0.10393 0.82087 0.06885 0.0
C64 C 0.108 0.81071 0.99646 0.0
C65 C 0.09869 0.77774 0.98799 0.0
H66 H 1.00674 0.6616 0.09197 0.0
C67 C 0.08698 0.79703 0.11051 0.0
C68 C 0.08419 0.77146 0.06435 0.0
H69 H 0.07362 0.66482 0.91683 0.0
H70 H 0.09228 0.71328 0.96164 0.0
H71 H 0.05429 0.69326 0.2284 0.0
H72 H 0.98971 0.73569 0.08428 0.0
H73 H 0.98567 0.7456 0.18001 0.0
H74 H 0.97826 0.70709 0.15109 0.0
H75 H 0.0151 0.6826 0.23227 0.0
H76 H 0.02959 0.71621 0.27885 0.0
C77 C 0.12732 0.75957 0.97619 0.0
C78 C 0.0758 0.7744 0.92265 0.0
C79 C 0.03145 0.83199 0.33818 0.0
C80 C 1.00679 0.82085 0.37885 0.0
C81 C 0.99532 0.79125 0.36371 0.0
C82 C 1.00799 0.77358 0.30619 0.0
C83 C 0.03204 0.78589 0.26325 0.0
C84 C 0.04326 0.81467 0.28072 0.0
C85 C 0.067 0.82597 0.22794 0.0
C86 C 0.06906 0.79909 0.17578 0.0
C87 C 0.04872 0.77529 0.19596 0.0
C88 C 0.09633 0.83134 0.27336 0.0
C89 C 0.05562 0.85469 0.1877 0.0
C90 C 0.02533 0.67302 0.06354 0.0
C91 C 0.03846 0.6598 0.99971 0.0
C92 C 0.06295 0.67483 0.96502 0.0
C93 C 0.07371 0.70297 0.99082 0.0
C94 C 0.0595 0.71686 0.05102 0.0
C95 C 0.0365 0.7017 0.08875 0.0
C96 C 0.02616 0.72014 0.15533 0.0
C97 C 0.04691 0.74847 0.1505 0.0
C98 C 0.06552 0.74643 0.0871 0.0
C99 C 0.03138 0.70215 0.22793 0.0
C100 C 0.99312 0.72752 0.14261 0.0
H101 H 0.11127 0.85967 0.14349 0.0
H102 H 0.11537 0.82326 0.88068 0.0
H103 H 0.05801 0.79109 0.92891 0.0
H104 H 0.06435 0.75193 0.91996 0.0
H105 H 0.08687 0.77828 0.86755 0.0
H106 H 0.1482 0.77359 0.9856 0.0
H107 H 0.12851 0.75047 0.91809 0.0
H108 H 0.12852 0.74052 0.01648 0.0
H109 H 0.04061 0.85469 0.34849 0.0
H110 H 0.97623 0.7822 0.39483 0.0
H111 H 0.99826 0.75136 0.29613 0.0
H112 H 0.09889 0.8133 0.31609 0.0
H113 H 0.09646 0.85339 0.30342 0.0
H114 H 0.11654 0.83052 0.23783 0.0
H115 H 0.03192 0.85917 0.20106 0.0
H116 H 0.0558 0.85245 0.12569 0.0
H117 H 0.0689 0.87539 0.20416 0.0
H118 H 0.11912 0.89561 0.04416 0.0
C119 C 0.11187 0.851 0.08738 0.0
C120 C 0.82679 0.98936 0.04572 0.0
C121 C 0.83858 0.9989 0.9754 0.0
C122 C 0.82169 0.01767 0.92972 0.0
C123 C 0.7833 0.01965 0.02464 0.0
C124 C 0.79882 1.00009 0.06931 0.0
C125 C 0.78178 0.99323 0.14173 0.0
H126 H 0.65771 0.02411 0.3539 0.0
C127 C 0.75705 0.02961 0.0663 0.0
C128 C 0.75595 0.0149 0.13633 0.0
H129 H 0.71814 0.95268 0.39524 0.0
H130 H 0.75026 0.97111 0.29194 0.0
H131 H 0.69923 0.07514 0.32853 0.0
H132 H 0.65695 0.01584 0.16602 0.0
H133 H 0.6497 0.05446 0.1499 0.0
H134 H 0.63918 0.03806 0.23658 0.0
H135 H 0.66642 0.08597 0.27971 0.0
H136 H 0.70336 0.09484 0.24291 0.0
C137 C 0.80213 1.00052 0.20981 0.0
C138 C 0.77056 0.95981 0.13856 0.0
C139 C 0.67803 0.09004 0.93965 0.0
C140 C 0.65228 0.10315 0.96907 0.0
C141 C 0.65218 0.11145 0.04563 0.0
C142 C 0.67383 0.10063 0.09453 0.0
C143 C 0.69546 0.08166 0.06578 0.0
C144 C 0.69968 0.07989 0.98945 0.0
C145 C 0.72761 0.0636 0.97046 0.0
C146 C 0.73589 0.05139 0.04753 0.0
C147 C 0.71595 0.06099 0.10212 0.0
C148 C 0.75116 0.08743 0.94076 0.0
C149 C 0.71965 0.03776 0.91411 0.0
C150 C 0.67783 0.01236 0.34045 0.0
C151 C 0.68517 0.98682 0.38133 0.0
C152 C 0.71185 0.97232 0.3636 0.0
C153 C 0.73013 0.98274 0.30312 0.0
C154 C 0.72126 0.00748 0.25951 0.0
C155 C 0.69559 0.02197 0.27995 0.0
C156 C 0.68799 0.04691 0.22768 0.0
C157 C 0.71309 0.04507 0.17087 0.0
C158 C 0.73269 0.02181 0.18851 0.0
C159 C 0.68916 0.07729 0.27168 0.0
C160 C 0.65688 0.03856 0.19293 0.0
H161 H 0.78279 0.04223 0.91602 0.0
H162 H 0.83928 0.97472 0.08168 0.0
H163 H 0.76063 0.95431 0.08258 0.0
H164 H 0.75283 0.95446 0.17981 0.0
H165 H 0.78929 0.94451 0.14806 0.0
H166 H 0.81251 0.02368 0.20464 0.0
H167 H 0.82035 0.98424 0.21362 0.0
H168 H 0.78959 0.99981 0.26319 0.0
H169 H 0.67976 0.08483 0.88044 0.0
H170 H 0.63378 0.1236 0.06887 0.0
H171 H 0.67168 0.10538 0.15326 0.0
H172 H 0.7444 0.11108 0.95019 0.0
H173 H 0.75477 0.08489 0.87937 0.0
H174 H 0.77295 0.08597 0.97014 0.0
H175 H 0.6992 0.02474 0.93261 0.0
H176 H 0.73739 0.02122 0.90914 0.0
H177 H 0.71537 0.04689 0.8572 0.0
H178 H 0.83015 0.02495 0.87537 0.0
C179 C 0.79433 0.02804 0.95382 0.0
C180 C 0.56411 0.69351 0.37136 0.0
C181 C 0.57453 0.66351 0.36787 0.0
C182 C 0.58666 0.65329 0.29941 0.0
C183 C 0.5657 0.6951 0.23664 0.0
C184 C 0.56152 0.70981 0.30339 0.0
C185 C 0.54976 0.74107 0.28757 0.0
H186 H 0.49425 0.83089 0.0094 0.0
C187 C 0.55002 0.71045 0.17775 0.0
C188 C 0.54658 0.74027 0.20128 0.0
H189 H 0.57481 0.85666 0.13106 0.0
H190 H 0.5736 0.8065 0.19254 0.0
H191 H 0.51997 0.77261 0.95872 0.0
H192 H 0.45904 0.78396 0.1442 0.0
H193 H 0.44799 0.75117 0.0934 0.0
H194 H 0.44744 0.78764 0.04813 0.0
H195 H 0.48188 0.78286 0.94489 0.0
H196 H 0.49147 0.74413 0.95453 0.0
C197 C 0.57245 0.76568 0.31459 0.0
C198 C 0.51921 0.74457 0.32579 0.0
C199 C 0.47798 0.63993 0.03605 0.0
C200 C 0.45379 0.64469 0.9878 0.0
C201 C 0.44437 0.67438 0.97682 0.0
C202 C 0.45966 0.69902 0.01145 0.0
C203 C 0.48519 0.69389 0.05521 0.0
C204 C 0.4936 0.66465 0.06799 0.0
C205 C 0.52045 0.66309 0.11849 0.0
C206 C 0.528 0.69668 0.12988 0.0
C207 C 0.5067 0.71439 0.09491 0.0
C208 C 0.54584 0.64633 0.07865 0.0
C209 C 0.51007 0.64726 0.19194 0.0
C210 C 0.51065 0.8266 0.05257 0.0
C211 C 0.53377 0.84813 0.06809 0.0
C212 C 0.55619 0.84083 0.12039 0.0
C213 C 0.55518 0.8125 0.15711 0.0
C214 C 0.53151 0.79164 0.14149 0.0
C215 C 0.51046 0.79833 0.08756 0.0
C216 C 0.49269 0.77054 0.0617 0.0
C217 C 0.50832 0.74617 0.10466 0.0
C218 C 0.52872 0.75898 0.1566 0.0
C219 C 0.49641 0.76723 0.97545 0.0
C220 C 0.45996 0.77335 0.08755 0.0
H221 H 0.58932 0.66006 0.18006 0.0
H222 H 0.55593 0.70273 0.42344 0.0
H223 H 0.50307 0.72621 0.30766 0.0
H224 H 0.50978 0.76662 0.31072 0.0
H225 H 0.52147 0.74368 0.38791 0.0
H226 H 0.59345 0.76512 0.28143 0.0
H227 H 0.57805 0.76223 0.37476 0.0
H228 H 0.56301 0.78841 0.30962 0.0
H229 H 0.48608 0.61743 0.04452 0.0
H230 H 0.42601 0.67855 0.93897 0.0
H231 H 0.45185 0.72118 1.00031 0.0
H232 H 0.53774 0.63273 0.02966 0.0
H233 H 0.55639 0.63009 0.11695 0.0
H234 H 0.56347 0.66247 0.05719 0.0
H235 H 0.49273 0.66041 0.22062 0.0
H236 H 0.52856 0.64435 0.23195 0.0
H237 H 0.50042 0.62421 0.17992 0.0
H238 H 0.59672 0.63145 0.29603 0.0
C239 C 0.58193 0.66901 0.23292 0.0
C240 C 0.3399 0.49976 0.31364 0.0
C241 C 0.35061 0.50892 0.38543 0.0
C242 C 0.33486 0.53046 0.42606 0.0
C243 C 0.29827 0.53316 0.32658 0.0
C244 C 0.31349 0.51221 0.28531 0.0
C245 C 0.29751 0.50504 0.21163 0.0
H246 H 0.17707 0.53248 0.98571 0.0
C247 C 0.27245 0.54272 0.28256 0.0
C248 C 0.27204 0.52715 0.21354 0.0
H249 H 0.23963 0.46208 0.95496 0.0
H250 H 0.26959 0.48202 0.06076 0.0
H251 H 0.17372 0.5229 0.17223 0.0
H252 H 0.21628 0.60503 0.10459 0.0
H253 H 0.1812 0.59353 0.06051 0.0
H254 H 0.21624 0.58542 0.01826 0.0
H255 H 0.15581 0.54505 0.10186 0.0
H256 H 0.1643 0.56067 0.19096 0.0
C257 C 0.28572 0.47176 0.21474 0.0
C258 C 0.31915 0.51169 0.14588 0.0
C259 C 0.1881 0.59693 0.40442 0.0
C260 C 0.16147 0.60749 0.37324 0.0
C261 C 0.16134 0.61595 0.29694 0.0
C262 C 0.1846 0.60765 0.24958 0.0
C263 C 0.20766 0.59077 0.27948 0.0
C264 C 0.21124 0.58907 0.35609 0.0
C265 C 0.24025 0.57496 0.37667 0.0
C266 C 0.25006 0.56345 0.29993 0.0
C267 C 0.22991 0.57169 0.24416 0.0
C268 C 0.23384 0.54872 0.43255 0.0
C269 C 0.26186 0.60035 0.40798 0.0
C270 C 0.19736 0.52149 1.00165 0.0
C271 C 0.206 0.49581 0.963 0.0
C272 C 0.23253 0.48195 0.98461 0.0
C273 C 0.24956 0.49329 0.04644 0.0
C274 C 0.23938 0.51813 0.08783 0.0
C275 C 0.21374 0.53183 0.06403 0.0
C276 C 0.20409 0.55615 0.11604 0.0
C277 C 0.22847 0.5555 0.17532 0.0
C278 C 0.24914 0.53301 0.15967 0.0
C279 C 0.1729 0.54588 0.14721 0.0
C280 C 0.20429 0.58662 0.07289 0.0
H281 H 0.29817 0.5588 0.43105 0.0
H282 H 0.3515 0.48312 0.28126 0.0
H283 H 0.33028 0.53447 0.15267 0.0
H284 H 0.30756 0.5117 0.09111 0.0
H285 H 0.33681 0.49475 0.14372 0.0
H286 H 0.27618 0.46637 0.27104 0.0
H287 H 0.30404 0.45607 0.20405 0.0
H288 H 0.26743 0.46675 0.17456 0.0
H289 H 0.18956 0.59172 0.46364 0.0
H290 H 0.1419 0.62599 0.27251 0.0
H291 H 0.18252 0.61225 0.19078 0.0
H292 H 0.21522 0.53356 0.41155 0.0
H293 H 0.22744 0.55752 0.48851 0.0
H294 H 0.25323 0.53445 0.44088 0.0
H295 H 0.25301 0.62333 0.4008 0.0
H296 H 0.28366 0.60108 0.37816 0.0
H297 H 0.26597 0.59746 0.46907 0.0
H298 H 0.34275 0.53809 0.48078 0.0
C299 C 0.30906 0.54269 0.39695 0.0
C300 C 0.07829 0.14781 0.46289 0.0
C301 C 0.08069 0.11668 0.44807 0.0
C302 C 0.10243 0.10752 0.39629 0.0
C303 C 0.10902 0.1591 0.35494 0.0
C304 C 0.09323 0.16878 0.41605 0.0
C305 C 0.09119 0.20265 0.41675 0.0
H306 H 0.06341 0.32707 0.2456 0.0
C307 C 0.112 0.18415 0.30133 0.0
C308 C 0.10501 0.21051 0.34008 0.0
H309 H 0.10951 0.32096 0.45916 0.0
H310 H 0.12334 0.26965 0.42708 0.0
H311 H 0.11984 0.28819 0.15689 0.0
H312 H 0.0328 0.25379 0.23361 0.0
H313 H 0.04044 0.24433 0.1389 0.0
H314 H 0.03603 0.28324 0.16419 0.0
H315 H 0.08588 0.30282 0.1199 0.0
H316 H 0.09937 0.26742 0.0871 0.0
C317 C 0.10931 0.21535 0.48442 0.0
C318 C 0.05815 0.21147 0.42114 0.0
C319 C 0.09303 0.15064 0.03342 0.0
C320 C 0.07798 0.16306 0.97264 0.0
C321 C 0.06904 0.19327 0.97804 0.0
C322 C 0.0752 0.21065 0.04352 0.0
C323 C 0.08948 0.19731 0.10507 0.0
C324 C 0.09766 0.16753 0.09914 0.0
C325 C 0.1091 0.15511 0.1714 0.0
C326 C 0.10755 0.18272 0.22215 0.0
C327 C 0.09642 0.20776 0.18304 0.0
C328 C 0.14176 0.14609 0.15963 0.0
C329 C 0.08788 0.12811 0.19611 0.0
C330 C 0.07526 0.31428 0.28712 0.0
C331 C 0.08398 0.32763 0.35687 0.0
C332 C 0.10135 0.31094 0.40705 0.0
C333 C 0.10809 0.28108 0.39119 0.0
C334 C 0.09624 0.26735 0.32666 0.0
C335 C 0.08257 0.284 0.27233 0.0
C336 C 0.07894 0.26558 0.2001 0.0
C337 C 0.09267 0.23558 0.22262 0.0
C338 C 0.10032 0.23699 0.29878 0.0
C339 C 0.09684 0.28182 0.13715 0.0
C340 C 0.04526 0.26151 0.18266 0.0
H341 H 0.13249 0.12133 0.30852 0.0
H342 H 0.06289 0.15561 0.50484 0.0
H343 H 0.04495 0.201 0.37417 0.0
H344 H 0.05627 0.23636 0.41793 0.0
H345 H 0.04785 0.20407 0.4751 0.0
H346 H 0.10645 0.20041 0.53427 0.0
H347 H 0.1013 0.23757 0.50272 0.0
H348 H 0.13357 0.21735 0.47124 0.0
H349 H 0.0993 0.12723 0.03192 0.0
H350 H 0.05706 0.20326 0.93202 0.0
H351 H 0.06794 0.23346 0.04476 0.0
H352 H 0.15468 0.16402 0.12842 0.0
H353 H 0.14259 0.12471 0.12692 0.0
H354 H 0.15363 0.14317 0.21346 0.0
H355 H 0.07358 0.11887 0.14978 0.0
H356 H 0.07211 0.1349 0.24064 0.0
H357 H 0.10048 0.10853 0.21556 0.0
H358 H 0.10629 0.08378 0.38745 0.0
C359 C 0.11697 0.12891 0.3498 0.0
C360 C 0.32186 0.03993 1.00084 0.0
C361 C 0.35328 0.04407 0.99098 0.0
C362 C 0.372 0.04397 0.05446 0.0
C363 C 0.33041 0.02729 0.13106 0.0
C364 C 0.31078 0.03277 0.07352 0.0
C365 C 0.27871 0.03038 0.10262 0.0
H366 H 0.19019 0.9817 0.40024 0.0
C367 C 0.31382 0.01327 0.19335 0.0
C368 C 0.2831 0.01585 0.17999 0.0
H369 H 0.16303 0.03971 0.22058 0.0
H370 H 0.21133 0.03369 0.15809 0.0
H371 H 0.22145 0.93477 0.2916 0.0
H372 H 0.25615 0.00837 0.42844 0.0
H373 H 0.27624 0.97531 0.4454 0.0
H374 H 0.23693 0.97476 0.4631 0.0
H375 H 0.23143 0.92911 0.38786 0.0
H376 H 0.25845 0.92594 0.31313 0.0
C377 C 0.25898 0.01021 0.0505 0.0
C378 C 0.26771 0.06292 0.10939 0.0
C379 C 0.37229 0.9461 0.36363 0.0
C380 C 0.36431 0.92495 0.41942 0.0
C381 C 0.33364 0.91837 0.43286 0.0
C382 C 0.31159 0.9342 0.39464 0.0
C383 C 0.32032 0.95654 0.342 0.0
C384 C 0.35022 0.96122 0.32554 0.0
C385 C 0.35587 0.98459 0.26606 0.0
C386 C 0.32407 0.99335 0.24894 0.0
C387 C 0.30349 0.97737 0.29439 0.0
C388 C 0.37085 0.96858 0.1992 0.0
C389 C 0.37514 0.01124 0.30031 0.0
C390 C 0.19479 0.99338 0.34783 0.0
C391 C 0.17337 0.01181 0.31632 0.0
C392 C 0.17958 0.02591 0.24667 0.0
C393 C 0.20771 0.02301 0.21151 0.0
C394 C 0.22976 0.00619 0.24702 0.0
C395 C 0.22257 0.99092 0.31291 0.0
C396 C 0.24793 0.97319 0.34241 0.0
C397 C 0.27266 0.98324 0.28912 0.0
C398 C 0.26215 1.00224 0.23199 0.0
C399 C 0.23949 0.93898 0.3339 0.0
C400 C 0.25475 0.98325 0.4243 0.0
H401 H 0.37613 0.03508 0.17013 0.0
H402 H 0.30679 0.04151 0.95352 0.0
H403 H 0.28524 0.07819 0.13522 0.0
H404 H 0.24798 0.0645 0.14573 0.0
H405 H 0.26233 0.07209 0.05311 0.0
H406 H 0.26899 0.9878 0.04288 0.0
H407 H 0.25674 0.02081 0.99437 0.0
H408 H 0.23628 0.00625 0.07392 0.0
H409 H 0.39552 0.9523 0.35239 0.0
H410 H 0.32671 0.9017 0.47439 0.0
H411 H 0.28868 0.92909 0.40901 0.0
H412 H 0.35628 0.94934 0.17859 0.0
H413 H 0.3926 0.95949 0.2165 0.0
H414 H 0.37565 0.98337 0.15091 0.0
H415 H 0.37674 0.00996 0.36261 0.0
H416 H 0.36528 0.03343 0.28924 0.0
H417 H 0.39837 0.01162 0.27825 0.0
H418 H 0.39597 0.04789 0.04891 0.0
C419 C 0.36065 0.03588 0.12446 0.0
C420 C 0.47424 0.29753 0.99872 0.0
C421 C 0.46536 0.32803 0.99752 0.0
C422 C 0.45586 0.34125 0.06518 0.0
C423 C 0.47378 0.29906 0.13409 0.0
C424 C 0.47727 0.28298 0.06874 0.0
C425 C 0.48798 0.25158 0.08619 0.0
H426 H 0.54372 0.16121 0.36046 0.0
C427 C 0.4878 0.28313 0.19562 0.0
C428 C 0.49163 0.2533 0.17203 0.0
H429 H 0.4627 0.13743 0.23946 0.0
H430 H 0.46451 0.1875 0.17932 0.0
H431 H 0.57924 0.21051 0.22783 0.0
H432 H 0.51788 0.21979 0.41378 0.0
H433 H 0.548 0.24662 0.42123 0.0
H434 H 0.55536 0.20737 0.42637 0.0
H435 H 0.59107 0.20655 0.32364 0.0
H436 H 0.58934 0.24324 0.27987 0.0
C437 C 0.51819 0.24668 0.04741 0.0
C438 C 0.46435 0.22755 0.06074 0.0
C439 C 0.55157 0.35185 0.36359 0.0
C440 C 0.57738 0.34765 0.40643 0.0
C441 C 0.58968 0.31884 0.40846 0.0
C442 C 0.57579 0.29442 0.36942 0.0
C443 C 0.54917 0.29891 0.32935 0.0
C444 C 0.5382 0.32755 0.32472 0.0
C445 C 0.51076 0.32892 0.27651 0.0
C446 C 0.50734 0.29611 0.25099 0.0
C447 C 0.5293 0.27857 0.28421 0.0
C448 C 0.5171 0.35166 0.21142 0.0
C449 C 0.48435 0.33771 0.3269 0.0
C450 C 0.52766 0.16594 0.31683 0.0
C451 C 0.50405 0.14504 0.30141 0.0
C452 C 0.48189 0.15266 0.24895 0.0
C453 C 0.48323 0.18104 0.21296 0.0
C454 C 0.50705 0.20162 0.22912 0.0
C455 C 0.52809 0.1945 0.28283 0.0
C456 C 0.54526 0.22233 0.3112 0.0
C457 C 0.52905 0.24701 0.27052 0.0
C458 C 0.50914 0.23447 0.21722 0.0
C459 C 0.57806 0.22068 0.28493 0.0
C460 C 0.54166 0.22428 0.39768 0.0
H461 H 0.45339 0.33778 0.18439 0.0
H462 H 0.48027 0.28617 0.94734 0.0
H463 H 0.44394 0.22835 0.09608 0.0
H464 H 0.47339 0.20459 0.06335 0.0
H465 H 0.45782 0.2314 1.00134 0.0
H466 H 0.53498 0.26471 0.06392 0.0
H467 H 0.5157 0.24698 0.9853 0.0
H468 H 0.52698 0.22447 0.06363 0.0
H469 H 0.54127 0.37361 0.36211 0.0
H470 H 0.60965 0.31515 0.4411 0.0
H471 H 0.58582 0.27285 0.37317 0.0
H472 H 0.5248 0.33999 0.16001 0.0
H473 H 0.53477 0.36905 0.22588 0.0
H474 H 0.4973 0.36484 0.19778 0.0
H475 H 0.48465 0.32527 0.38115 0.0
H476 H 0.46245 0.33186 0.30093 0.0
H477 H 0.48554 0.36234 0.33953 0.0
H478 H 0.44797 0.36408 0.06622 0.0
C479 C 0.45976 0.32662 0.13359 0.0
O480 O 0.07666 0.01372 0.58688 0.0
Zn481 Zn 0.0526 0.00802 0.68337 0.0
O482 O 0.01032 0.99731 0.66129 0.0
Zn483 Zn 0.98578 0.03063 0.69977 0.0
Zn484 Zn 1.0063 0.99125 0.55159 0.0
Zn485 Zn 0.99578 0.9596 0.71021 0.0
O486 O 0.95422 0.01508 0.77235 0.0
O487 O 0.96003 0.96561 0.78203 0.0
O488 O 0.05735 0.04728 0.74383 0.0
O489 O 0.01098 0.06226 0.75648 0.0
O490 O 0.96654 0.05152 0.61163 0.0
O491 O 0.97296 0.0179 0.52548 0.0
O492 O 0.99488 0.94786 0.52503 0.0
O493 O 0.07041 0.97397 0.74279 0.0
O494 O 0.98618 0.92556 0.6347 0.0
O495 O 0.03041 0.9439 0.7667 0.0
C496 C 0.07091 0.01083 0.51691 0.0
C497 C 0.94655 0.98948 0.80058 0.0
C498 C 0.97639 0.04524 0.54674 0.0
C499 C 0.03895 0.06627 0.76835 0.0
C500 C 0.98771 0.92435 0.56321 0.0
C501 C 0.05835 0.95031 0.77261 0.0
O502 O 0.04479 1.00236 0.49459 0.0
O503 O 0.49994 0.05946 0.59489 0.0
Zn504 Zn 0.50335 0.03937 0.69651 0.0
O505 O 0.51544 0.99698 0.68516 0.0
Zn506 Zn 0.48549 0.9716 0.73676 0.0
Zn507 Zn 0.51755 0.98652 0.57777 0.0
Zn508 Zn 0.55444 0.98938 0.73147 0.0
O509 O 0.50279 0.9483 0.82181 0.0
O510 O 0.55186 0.95676 0.8147 0.0
O511 O 0.46301 0.04292 0.74983 0.0
O512 O 0.4515 0.99521 0.77805 0.0
O513 O 0.46596 0.94281 0.66499 0.0
O514 O 0.48557 0.95386 0.55339 0.0
O515 O 0.55936 0.97411 0.54802 0.0
O516 O 0.53475 0.0629 0.75717 0.0
O517 O 0.58599 0.97946 0.65274 0.0
O518 O 0.5685 0.02817 0.78032 0.0
C519 C 0.50296 0.05051 0.52729 0.0
C520 C 0.52903 0.94391 0.84599 0.0
C521 C 0.4669 0.9388 0.59438 0.0
C522 C 0.44515 0.02299 0.77866 0.0
C523 C 0.58442 0.97379 0.58244 0.0
C524 C 0.55935 0.05499 0.7858 0.0
O525 O 0.50969 0.02337 0.51255 0.0
O526 O 0.45252 0.48538 0.63153 0.0
Zn527 Zn 0.47894 0.4878 0.72463 0.0
O528 O 0.52088 0.49882 0.69708 0.0
Zn529 Zn 0.54658 0.46898 0.74139 0.0
Zn530 Zn 0.52417 0.49924 0.58748 0.0
Zn531 Zn 0.53471 0.53873 0.73497 0.0
O532 O 0.57474 0.48676 0.82022 0.0
O533 O 0.56818 0.5361 0.8139 0.0
O534 O 0.47505 0.44687 0.77887 0.0
O535 O 0.52247 0.43496 0.7891 0.0
O536 O 0.57008 0.44898 0.66152 0.0
O537 O 0.55189 0.46679 0.55481 0.0
O538 O 0.53995 0.53994 0.55072 0.0
O539 O 0.46232 0.52114 0.78911 0.0
O540 O 0.54776 0.56839 0.65192 0.0
O541 O 0.49936 0.55643 0.78335 0.0
C542 C 0.45714 0.48785 0.56105 0.0
C543 C 0.58107 0.51361 0.84273 0.0
C544 C 0.56896 0.44922 0.59013 0.0
C545 C 0.49483 0.42853 0.79941 0.0
C546 C 0.54792 0.5652 0.58073 0.0
C547 C 0.47298 0.54777 0.80252 0.0
O548 O 0.48358 0.49265 0.53594 0.0
O549 O 0.97597 0.53105 0.59811 0.0
Zn550 Zn 0.01742 0.53413 0.64783 0.0
O551 O 0.03322 0.49373 0.66519 0.0
Zn552 Zn 0.0382 0.48804 0.7755 0.0
Zn553 Zn 1.00507 0.46329 0.6199 0.0
Zn554 Zn 0.07229 0.48864 0.61855 0.0
O555 O 0.08042 0.47695 0.803 0.0
O556 O 0.10529 0.483 0.6961 0.0
O557 O 0.0155 0.55848 0.74523 0.0
O558 O 0.03135 0.52739 0.83291 0.0
O559 O 1.00762 0.45604 0.81078 0.0
O560 O 0.99608 0.43487 0.70385 0.0
O561 O 0.02402 0.43837 0.53814 0.0
O562 O 0.04573 0.55802 0.57938 0.0
O563 O 0.07183 0.45315 0.54442 0.0
O564 O 0.08293 0.52652 0.56217 0.0
C565 C 0.959 0.50908 0.57446 0.0
C566 C 0.10496 0.47774 0.76653 0.0
C567 C 0.98752 0.44569 0.76578 0.0
C568 C 0.02222 0.55321 0.8136 0.0
C569 C 0.05097 0.43603 0.51654 0.0
C570 C 0.07098 0.5518 0.55151 0.0
O571 O 0.96723 0.48185 0.57964 0.0
C572 C 0.11817 1.00272 0.33944 0.0
C573 C 0.14565 0.01692 0.36002 0.0
C574 C 0.09353 1.00217 0.38889 0.0
C575 C 0.0956 0.01553 0.46101 0.0
H576 H 0.11617 0.99066 0.28653 0.0
H577 H 0.07322 0.98988 0.37182 0.0
S578 S 0.16151 0.05962 0.53594 0.0
N579 N 0.17257 0.04744 0.45315 0.0
N580 N 0.12663 0.04663 0.54568 0.0
C581 C 0.12249 0.03146 0.47976 0.0
C582 C 0.14739 0.03206 0.42944 0.0
C583 C 0.51812 0.09349 0.34487 0.0
C584 C 0.4999 0.11852 0.35173 0.0
C585 C 0.51789 0.07071 0.40005 0.0
C586 C 0.50007 0.07266 0.46506 0.0
H587 H 0.5333 0.09203 0.29777 0.0
H588 H 0.53284 0.05222 0.39347 0.0
S589 S 0.44753 0.1333 0.50733 0.0
N590 N 0.4627 0.14335 0.42617 0.0
N591 N 0.46265 0.10115 0.53055 0.0
C592 C 0.48119 0.09726 0.4712 0.0
C593 C 0.48103 0.12004 0.41442 0.0
C594 C 0.37621 0.4852 0.49399 0.0
C595 C 0.37801 0.49702 0.42072 0.0
C596 C 0.40195 0.48067 0.53698 0.0
C597 C 0.4308 0.48788 0.50888 0.0
H598 H 0.35455 0.48086 0.5198 0.0
H599 H 0.39903 0.47268 0.59407 0.0
S600 S 0.44773 0.51675 0.31686 0.0
N601 N 0.41084 0.51369 0.31949 0.0
N602 N 0.45944 0.50511 0.39958 0.0
C603 C 0.43296 0.49783 0.43357 0.0
C604 C 0.40656 0.5024 0.38972 0.0
C605 C 0.09685 0.37911 0.41 0.0
C606 C 0.07509 0.35836 0.3809 0.0
C607 C 0.08883 0.40499 0.44994 0.0
C608 C 0.05863 0.4112 0.46324 0.0
H609 H 0.12037 0.37451 0.40499 0.0
H610 H 0.10659 0.41939 0.47367 0.0
S611 S 0.99298 0.36563 0.39117 0.0
N612 N 0.02212 0.34703 0.36234 0.0
N613 N 1.00679 0.3956 0.4368 0.0
C614 C 0.03662 0.39162 0.42992 0.0
C615 C 0.0449 0.36529 0.38887 0.0
C616 C 0.89038 0.01648 0.9435 0.0
C617 C 0.86915 0.99228 0.94857 0.0
C618 C 0.91593 0.01462 0.89842 0.0
C619 C 0.92155 0.98841 0.85634 0.0
H620 H 0.88618 0.03781 0.97088 0.0
H621 H 0.93085 0.03444 0.89431 0.0
S622 S 0.87395 0.91777 0.85478 0.0
N623 N 0.8561 0.94068 0.91113 0.0
N624 N 0.90456 0.93678 0.82741 0.0
C625 C 0.90149 0.96327 0.86478 0.0
C626 C 0.87518 0.96532 0.91048 0.0
C627 C 0.55956 0.88312 0.9747 0.0
C628 C 0.53523 0.87651 0.02292 0.0
C629 C 0.5582 0.906 0.91976 0.0
C630 C 0.53236 0.9229 0.91084 0.0
H631 H 0.57906 0.86939 0.97655 0.0
H632 H 0.57687 0.90937 0.88162 0.0
S633 S 0.46463 0.91746 0.03151 0.0
N634 N 0.48617 0.891 0.06401 0.0
N635 N 0.48344 0.93371 0.96178 0.0
C636 C 0.50879 0.91775 0.96233 0.0
C637 C 0.51026 0.89466 0.01802 0.0
C638 C 0.64714 0.55008 0.94955 0.0
C639 C 0.65663 0.52654 0.99595 0.0
C640 C 0.62171 0.54635 0.90338 0.0
C641 C 0.60511 0.51864 0.90041 0.0
H642 H 0.66038 0.57108 0.94626 0.0
H643 H 0.61605 0.56477 0.86668 0.0
S644 S 0.61927 0.45081 0.01614 0.0
N645 N 0.64632 0.47544 0.04028 0.0
N646 N 0.59876 0.46806 0.95337 0.0
C647 C 0.61355 0.49544 0.94958 0.0
C648 C 0.63922 0.49948 0.99734 0.0
C649 C 0.01225 0.63189 0.89569 0.0
C650 C 0.02724 0.63093 0.96507 0.0
C651 C 0.00921 0.6062 0.84931 0.0
C652 C 0.02132 0.57843 0.86992 0.0
H653 H 1.00444 0.6532 0.87499 0.0
H654 H 0.99852 0.60863 0.79515 0.0
S655 S 0.06065 0.56373 0.04973 0.0
N656 N 0.05265 0.59981 0.05477 0.0
N657 N 0.04695 0.55131 0.96857 0.0
C658 C 0.03476 0.57678 0.94169 0.0
C659 C 0.03778 0.60307 0.98886 0.0
C660 C 0.04607 0.09758 0.54925 0.0
C661 C 0.05702 0.09503 0.47565 0.0
C662 C 0.01998 0.08163 0.57182 0.0
C663 C 1.00424 0.06174 0.52252 0.0
H664 H 0.05715 0.11284 0.58905 0.0
H665 H 0.01184 0.08552 0.62788 0.0
S666 S 0.0231 0.04739 0.32313 0.0
N667 N 0.04951 0.0717 0.35255 0.0
N668 N 1.00121 0.04084 0.39631 0.0
C669 C 0.01518 0.05865 0.4491 0.0
C670 C 0.0415 0.07523 0.4256 0.0
C671 C 0.41688 0.90949 0.43897 0.0
C672 C 0.38842 0.9145 0.46961 0.0
C673 C 0.44288 0.91402 0.48214 0.0
C674 C 0.44117 0.92242 0.55807 0.0
H675 H 0.4193 0.90562 0.37919 0.0
H676 H 0.46436 0.91361 0.45424 0.0
S677 S 0.37171 0.92808 0.67075 0.0
N678 N 0.35993 0.92158 0.58415 0.0
N679 N 0.40851 0.92777 0.66654 0.0
C680 C 0.41272 0.92178 0.59239 0.0
C681 C 0.3863 0.91821 0.54783 0.0
C682 C 0.5902 0.40235 0.42428 0.0
C683 C 0.58831 0.373 0.45473 0.0
C684 C 0.58725 0.42779 0.47007 0.0
C685 C 0.58291 0.42468 0.54787 0.0
H686 H 0.59062 0.40546 0.36391 0.0
H687 H 0.58572 0.4497 0.44355 0.0
S688 S 0.5843 0.35318 0.65664 0.0
N689 N 0.58745 0.34258 0.56813 0.0
N690 N 0.58307 0.39042 0.65498 0.0
C691 C 0.5857 0.39582 0.58006 0.0
C692 C 0.58821 0.36988 0.53314 0.0
C693 C 0.1315 0.60747 0.49221 0.0
C694 C 0.13291 0.60188 0.41437 0.0
C695 C 0.10907 0.59348 0.53652 0.0
C696 C 0.08726 0.57381 0.50412 0.0
H697 H 0.14916 0.62079 0.51984 0.0
H698 H 0.11019 0.59615 0.59701 0.0
S699 S 0.07853 0.55423 0.30309 0.0
N700 N 0.10849 0.57718 0.30651 0.0
N701 N 0.06634 0.55157 0.39038 0.0
C702 C 0.0867 0.57019 0.42613 0.0
C703 C 0.10948 0.58421 0.38091 0.0
C704 C 0.08147 0.87611 0.85321 0.0
C705 C 0.10715 0.884 0.8958 0.0
C706 C 0.06669 0.89766 0.81187 0.0
C707 C 0.07691 0.92811 0.81089 0.0
H708 H 0.07132 0.85349 0.85562 0.0
H709 H 0.04646 0.89044 0.7822 0.0
S710 S 0.14547 0.95986 0.90389 0.0
N711 N 0.14408 0.92378 0.92801 0.0
N712 N 0.11604 0.96463 0.84957 0.0
C713 C 0.10374 0.93607 0.84858 0.0
C714 C 0.11885 0.91396 0.89137 0.0
C715 C 0.62423 0.10515 0.84706 0.0
C716 C 0.62391 0.10054 0.92542 0.0
C717 C 0.60126 0.09287 0.8012 0.0
C718 C 0.57706 0.07622 0.83257 0.0
H719 H 0.64352 0.11609 0.82045 0.0
H720 H 0.60361 0.09436 0.74073 0.0
S721 S 0.563 0.06103 0.03375 0.0
N722 N 0.59526 0.08041 0.03213 0.0
N723 N 0.55202 0.05843 0.94535 0.0
C724 C 0.57481 0.07409 0.91066 0.0
C725 C 0.59821 0.08617 0.95743 0.0
C726 C 0.44908 0.62393 0.85966 0.0
C727 C 0.44415 0.6197 0.93691 0.0
C728 C 0.45486 0.59936 0.81321 0.0
C729 C 0.45528 0.5699 0.84234 0.0
H730 H 0.45246 0.64649 0.83684 0.0
H731 H 0.46201 0.60381 0.756 0.0
S732 S 0.4353 0.54622 0.03557 0.0
N733 N 0.43355 0.58347 0.03683 0.0
N734 N 0.44435 0.53707 0.94867 0.0
C735 C 0.44576 0.56487 0.91633 0.0
C736 C 0.44006 0.58995 0.96394 0.0
C737 C 0.93688 0.51144 0.77884 0.0
C738 C 0.90876 0.49685 0.78944 0.0
C739 C 0.96217 0.49471 0.76581 0.0
C740 C 0.96019 0.46298 0.76304 0.0
H741 H 0.9397 0.53569 0.78678 0.0
H742 H 0.98364 0.50648 0.76144 0.0
S743 S 0.89111 0.41448 0.77352 0.0
N744 N 0.87971 0.4492 0.78606 0.0
N745 N 0.92764 0.41785 0.76047 0.0
C746 C 0.93188 0.44838 0.76517 0.0
C747 C 0.90599 0.46536 0.77856 0.0
C748 C 0.03867 0.13704 0.8922 0.0
C749 C 0.06909 0.14266 0.90892 0.0
C750 C 0.02927 0.11291 0.84502 0.0
C751 C 0.04991 0.09336 0.81258 0.0
H752 H 0.02187 0.1503 0.91912 0.0
H753 H 1.00548 0.10899 0.8362 0.0
S754 S 0.13261 0.10124 0.83126 0.0
N755 N 0.12006 0.12876 0.88389 0.0
N756 N 0.10266 0.08361 0.79527 0.0
C757 C 0.08058 0.09999 0.82547 0.0
C758 C 0.09008 0.12454 0.87353 0.0
C759 C 0.37042 0.0155 0.88032 0.0
C760 C 0.36856 0.04354 0.91694 0.0
C761 C 0.3943 0.00971 0.8318 0.0
C762 C 0.41719 0.03183 0.81746 0.0
H763 H 0.35504 0.99692 0.89506 0.0
H764 H 0.39572 0.98711 0.80884 0.0
S765 S 0.41976 0.11058 0.89036 0.0
N766 N 0.38946 0.09475 0.92886 0.0
N767 N 0.43399 0.08427 0.83668 0.0
C768 C 0.41383 0.06094 0.84776 0.0
C769 C 0.38959 0.0667 0.89763 0.0
C770 C 0.4493 0.36986 0.91269 0.0
C771 C 0.47054 0.3484 0.93162 0.0
C772 C 0.45681 0.39491 0.86697 0.0
C773 C 0.48597 0.39965 0.8385 0.0
H774 H 0.4271 0.36819 0.93693 0.0
H775 H 0.44002 0.41142 0.85713 0.0
S776 S 0.54879 0.34789 0.86308 0.0
N777 N 0.52116 0.33212 0.91237 0.0
N778 N 0.53521 0.37854 0.82551 0.0
C779 C 0.50675 0.37707 0.85229 0.0
C780 C 0.49904 0.3516 0.8988 0.0
C781 C 0.15831 0.46825 0.93057 0.0
C782 C 0.18487 0.48303 0.90578 0.0
C783 C 0.13324 0.46473 0.88333 0.0
C784 C 0.13366 0.47592 0.80922 0.0
H785 H 0.15617 0.46134 0.98875 0.0
H786 H 0.11286 0.45461 0.90659 0.0
S787 S 0.19907 0.514 0.71559 0.0
N788 N 0.21101 0.50709 0.80149 0.0
N789 N 0.16425 0.50018 0.71167 0.0
C790 C 0.16095 0.48877 0.78211 0.0
C791 C 0.18643 0.49248 0.83069 0.0
C792 C 0.98037 0.86827 0.40228 0.0
C793 C 0.99289 0.84214 0.43191 0.0
C794 C 0.97653 0.89403 0.44686 0.0
C795 C 0.98489 0.89471 0.52316 0.0
H796 H 0.97575 0.86964 0.34262 0.0
H797 H 0.96861 0.91419 0.42014 0.0
S798 S 0.01599 0.83097 0.62944 0.0
N799 N 0.01157 0.81762 0.54317 0.0
N800 N 1.00384 0.86575 0.62789 0.0
C801 C 0.9951 0.86781 0.555 0.0
C802 C 0.99927 0.84161 0.50912 0.0
C803 C 0.63496 0.96405 0.41273 0.0
C804 C 0.66306 0.97535 0.43798 0.0
C805 C 0.61024 0.96157 0.46121 0.0
C806 C 0.61241 0.97049 0.53724 0.0
H807 H 0.63159 0.95896 0.35367 0.0
H808 H 0.58886 0.95413 0.43761 0.0
S809 S 0.68205 0.99902 0.63251 0.0
N810 N 0.69236 0.99351 0.54461 0.0
N811 N 0.6462 0.9887 0.63652 0.0
C812 C 0.64104 0.97984 0.56437 0.0
C813 C 0.66624 0.98237 0.51457 0.0
C814 C 0.55386 0.61249 0.40334 0.0
C815 C 0.56751 0.64021 0.42664 0.0
C816 C 0.54809 0.58876 0.45348 0.0
C817 C 0.55524 0.59146 0.53027 0.0
H818 H 0.5475 0.60895 0.3451 0.0
H819 H 0.5376 0.56812 0.43132 0.0
S820 S 0.59007 0.65987 0.62169 0.0
N821 N 0.58735 0.66945 0.53231 0.0
N822 N 0.57599 0.62484 0.62797 0.0
C823 C 0.5682 0.61939 0.55529 0.0
C824 C 0.57432 0.64374 0.50336 0.0
C825 C 0.90161 0.55258 0.4643 0.0
C826 C 0.88401 0.52957 0.42892 0.0
C827 C 0.92434 0.54582 0.51551 0.0
C828 C 0.9307 0.51569 0.53325 0.0
H829 H 0.89935 0.57593 0.44771 0.0
H830 H 0.93826 0.56441 0.53737 0.0
S831 S 0.88756 0.44737 0.46531 0.0
N832 N 0.87193 0.47574 0.42211 0.0
N833 N 0.91425 0.4628 0.51886 0.0
C834 C 0.9113 0.49261 0.50362 0.0
C835 C 0.88807 0.49961 0.45148 0.0
loop_
_geom_bond_atom_site_label_1
_geom_bond_atom_site_label_2
_geom_bond_distance
_geom_bond_site_symmetry_2
_ccdc_geom_bond_type
C0 C1 1.391 . S
C0 C4 1.391 . S
C0 H42 0.948 . S
C1 C0 1.391 . S
C1 C2 1.391 . S
C2 C1 1.391 . S
C2 H58 0.947 . S
C2 C59 1.392 . S
C3 C4 1.391 . S
C3 C7 1.397 . S
C3 C59 1.419 . S
C4 C0 1.391 . S
C4 C3 1.391 . S
C4 C5 1.399 . S
C5 C4 1.399 . S
C5 C8 1.396 . S
C5 C17 1.453 . S
C5 C18 1.684 . S
H6 C30 0.948 . S
C7 C3 1.397 . S
C7 C8 1.394 . S
C7 C26 1.723 . S
C8 C5 1.396 . S
C8 C7 1.394 . S
C8 C38 1.723 . S
H9 C32 0.947 . S
H10 C33 0.948 . S
H11 C39 0.982 . S
H12 C40 0.979 . S
H13 C40 0.980 . S
H14 C40 0.983 . S
H15 C39 0.979 . S
H16 C39 0.977 . S
C17 C5 1.453 . S
C17 H46 0.982 . S
C17 H47 0.979 . S
C17 H48 0.977 . S
C18 C5 1.684 . S
C18 H43 0.979 . S
C18 H44 0.980 . S
C18 H45 0.983 . S
C19 C20 1.391 . S
C19 C24 1.391 . S
C19 H49 0.948 . S
C20 C19 1.391 . S
C20 C21 1.391 . S
C21 C20 1.391 . S
C21 C22 1.392 . S
C21 H50 0.947 . S
C22 C21 1.392 . S
C22 C23 1.419 . S
C22 H51 0.948 . S
C23 C22 1.419 . S
C23 C24 1.391 . S
C23 C27 1.397 . S
C24 C19 1.391 . S
C24 C23 1.391 . S
C24 C25 1.399 1_556 S
C25 C24 1.399 1_554 S
C25 C26 1.396 . S
C25 C28 1.453 . S
C25 C29 1.684 . S
C26 C7 1.723 . S
C26 C25 1.396 . S
C26 C27 1.394 1_554 S
C27 C23 1.397 . S
C27 C26 1.394 1_556 S
C27 C37 1.723 . S
C28 C25 1.453 . S
C28 H52 0.982 . S
C28 H53 0.979 . S
C28 H54 0.977 . S
C29 C25 1.684 . S
C29 H55 0.979 . S
C29 H56 0.980 . S
C29 H57 0.983 . S
C30 H6 0.948 . S
C30 C31 1.391 . S
C30 C35 1.391 . S
C31 C30 1.391 . S
C31 C32 1.391 1_556 S
C32 H9 0.947 . S
C32 C31 1.391 1_554 S
C32 C33 1.392 . S
C33 H10 0.948 . S
C33 C32 1.392 . S
C33 C34 1.419 . S
C34 C33 1.419 . S
C34 C35 1.391 1_554 S
C34 C38 1.397 . S
C35 C30 1.391 . S
C35 C34 1.391 1_556 S
C35 C36 1.399 . S
C36 C35 1.399 . S
C36 C37 1.396 . S
C36 C39 1.453 . S
C36 C40 1.684 . S
C37 C27 1.723 . S
C37 C36 1.396 . S
C37 C38 1.394 1_556 S
C38 C8 1.723 . S
C38 C34 1.397 . S
C38 C37 1.394 1_554 S
C39 H11 0.982 . S
C39 H15 0.979 . S
C39 H16 0.977 . S
C39 C36 1.453 . S
C40 H12 0.979 . S
C40 H13 0.980 . S
C40 H14 0.983 . S
C40 C36 1.684 . S
H41 C59 0.948 . S
H42 C0 0.948 . S
H43 C18 0.979 . S
H44 C18 0.980 . S
H45 C18 0.983 . S
H46 C17 0.982 . S
H47 C17 0.979 . S
H48 C17 0.977 . S
H49 C19 0.948 . S
H50 C21 0.947 . S
H51 C22 0.948 . S
H52 C28 0.982 . S
H53 C28 0.979 . S
H54 C28 0.977 . S
H55 C29 0.979 . S
H56 C29 0.980 . S
H57 C29 0.983 . S
H58 C2 0.947 . S
C59 C2 1.392 . S
C59 C3 1.419 . S
C59 H41 0.948 . S
C60 C61 1.391 . S
C60 C64 1.391 . S
C60 H102 0.948 . S
C61 C60 1.391 . S
C61 C62 1.391 . S
C62 C61 1.391 . S
C62 H118 0.947 . S
C62 C119 1.392 1_556 S
C63 C64 1.391 1_554 S
C63 C67 1.397 . S
C63 C119 1.419 . S
C64 C60 1.391 . S
C64 C63 1.391 1_556 S
C64 C65 1.399 . S
C65 C64 1.399 . S
C65 C68 1.396 1_556 S
C65 C77 1.453 1_655 S
C65 C78 1.684 . S
H66 C90 0.948 . S
C67 C63 1.397 . S
C67 C68 1.394 . S
C67 C86 1.723 . S
C68 C65 1.396 1_554 S
C68 C67 1.394 . S
C68 C98 1.723 . S
H69 C92 0.947 . S
H70 C93 0.948 . S
H71 C99 0.982 . S
H72 C100 0.979 . S
H73 C100 0.980 . S
H74 C100 0.983 . S
H75 C99 0.979 . S
H76 C99 0.977 . S
C77 C65 1.453 1_455 S
C77 H106 0.982 . S
C77 H107 0.979 . S
C77 H108 0.977 . S
C78 C65 1.684 . S
C78 H103 0.979 . S
C78 H104 0.980 . S
C78 H105 0.983 . S
C79 C80 1.391 . S
C79 C84 1.391 . S
C79 H109 0.948 . S
C80 C79 1.391 . S
C80 C81 1.391 . S
C81 C80 1.391 . S
C81 C82 1.392 . S
C81 H110 0.947 . S
C82 C81 1.392 . S
C82 C83 1.419 . S
C82 H111 0.948 . S
C83 C82 1.419 . S
C83 C84 1.391 . S
C83 C87 1.397 . S
C84 C79 1.391 . S
C84 C83 1.391 . S
C84 C85 1.399 . S
C85 C84 1.399 . S
C85 C86 1.396 . S
C85 C88 1.453 1_655 S
C85 C89 1.684 . S
C86 C67 1.723 . S
C86 C85 1.396 . S
C86 C87 1.394 . S
C87 C83 1.397 . S
C87 C86 1.394 . S
C87 C97 1.723 . S
C88 C85 1.453 1_455 S
C88 H112 0.982 . S
C88 H113 0.979 . S
C88 H114 0.977 . S
C89 C85 1.684 . S
C89 H115 0.979 . S
C89 H116 0.980 . S
C89 H117 0.983 . S
C90 H66 0.948 . S
C90 C91 1.391 . S
C90 C95 1.391 . S
C91 C90 1.391 . S
C91 C92 1.391 1_554 S
C92 H69 0.947 . S
C92 C91 1.391 1_556 S
C92 C93 1.392 . S
C93 H70 0.948 . S
C93 C92 1.392 . S
C93 C94 1.419 1_556 S
C94 C93 1.419 1_554 S
C94 C95 1.391 . S
C94 C98 1.397 . S
C95 C90 1.391 . S
C95 C94 1.391 . S
C95 C96 1.399 . S
C96 C95 1.399 . S
C96 C97 1.396 . S
C96 C99 1.453 1_655 S
C96 C100 1.684 . S
C97 C87 1.723 . S
C97 C96 1.396 . S
C97 C98 1.394 . S
C98 C68 1.723 . S
C98 C94 1.397 . S
C98 C97 1.394 . S
C99 H71 0.982 . S
C99 H75 0.979 . S
C99 H76 0.977 . S
C99 C96 1.453 1_455 S
C100 H72 0.979 . S
C100 H73 0.980 . S
C100 H74 0.983 . S
C100 C96 1.684 . S
H101 C119 0.948 . S
H102 C60 0.948 . S
H103 C78 0.979 . S
H104 C78 0.980 . S
H105 C78 0.983 . S
H106 C77 0.982 . S
H107 C77 0.979 . S
H108 C77 0.977 . S
H109 C79 0.948 . S
H110 C81 0.947 . S
H111 C82 0.948 . S
H112 C88 0.982 . S
H113 C88 0.979 . S
H114 C88 0.977 . S
H115 C89 0.979 . S
H116 C89 0.980 . S
H117 C89 0.983 . S
H118 C62 0.947 . S
C119 C62 1.392 1_554 S
C119 C63 1.419 . S
C119 H101 0.948 . S
C120 C121 1.391 1_554 S
C120 C124 1.391 . S
C120 H162 0.948 . S
C121 C120 1.391 1_556 S
C121 C122 1.391 . S
C122 C121 1.391 . S
C122 H178 0.947 . S
C122 C179 1.392 . S
C123 C124 1.391 . S
C123 C127 1.396 . S
C123 C179 1.419 1_554 S
C124 C120 1.391 . S
C124 C123 1.391 . S
C124 C125 1.399 . S
C125 C124 1.399 . S
C125 C128 1.396 1_565 S
C125 C137 1.453 1_565 S
C125 C138 1.684 . S
H126 C150 0.948 . S
C127 C123 1.396 . S
C127 C128 1.394 1_565 S
C127 C146 1.723 1_564 S
C128 C125 1.396 1_545 S
C128 C127 1.394 1_545 S
C128 C158 1.723 . S
H129 C152 0.947 . S
H130 C153 0.948 . S
H131 C159 0.982 . S
H132 C160 0.979 . S
H133 C160 0.980 . S
H134 C160 0.983 . S
H135 C159 0.979 . S
H136 C159 0.977 . S
C137 C125 1.453 1_545 S
C137 H166 0.982 . S
C137 H167 0.979 . S
C137 H168 0.977 . S
C138 C125 1.684 . S
C138 H163 0.979 . S
C138 H164 0.980 . S
C138 H165 0.983 . S
C139 C140 1.391 . S
C139 C144 1.391 . S
C139 H169 0.948 . S
C140 C139 1.391 . S
C140 C141 1.391 . S
C141 C140 1.391 . S
C141 C142 1.392 . S
C141 H170 0.947 . S
C142 C141 1.392 . S
C142 C143 1.419 . S
C142 H171 0.948 1_556 S
C143 C142 1.419 . S
C143 C144 1.391 . S
C143 C147 1.397 1_566 S
C144 C139 1.391 . S
C144 C143 1.391 . S
C144 C145 1.399 . S
C145 C144 1.399 . S
C145 C146 1.396 1_565 S
C145 C148 1.453 1_565 S
C145 C149 1.684 . S
C146 C127 1.723 1_546 S
C146 C145 1.396 1_545 S
C146 C147 1.394 1_556 S
C147 C143 1.397 1_544 S
C147 C146 1.394 1_554 S
C147 C157 1.723 . S
C148 C145 1.453 1_545 S
C148 H172 0.982 . S
C148 H173 0.979 . S
C148 H174 0.977 . S
C149 C145 1.684 . S
C149 H175 0.979 . S
C149 H176 0.980 . S
C149 H177 0.983 . S
C150 H126 0.948 . S
C150 C151 1.391 . S
C150 C155 1.391 . S
C151 C150 1.391 . S
C151 C152 1.391 . S
C152 H129 0.947 . S
C152 C151 1.391 . S
C152 C153 1.392 . S
C153 H130 0.948 . S
C153 C152 1.392 . S
C153 C154 1.419 . S
C154 C153 1.419 . S
C154 C155 1.391 . S
C154 C158 1.397 1_565 S
C155 C150 1.391 . S
C155 C154 1.391 . S
C155 C156 1.399 . S
C156 C155 1.399 . S
C156 C157 1.396 1_565 S
C156 C159 1.453 1_565 S
C156 C160 1.684 . S
C157 C147 1.723 . S
C157 C156 1.396 1_545 S
C157 C158 1.394 . S
C158 C128 1.723 . S
C158 C154 1.397 1_545 S
C158 C157 1.394 . S
C159 H131 0.982 . S
C159 H135 0.979 . S
C159 H136 0.977 . S
C159 C156 1.453 1_545 S
C160 H132 0.979 . S
C160 H133 0.980 . S
C160 H134 0.983 . S
C160 C156 1.684 . S
H161 C179 0.948 . S
H162 C120 0.948 . S
H163 C138 0.979 . S
H164 C138 0.980 . S
H165 C138 0.983 . S
H166 C137 0.982 . S
H167 C137 0.979 . S
H168 C137 0.977 . S
H169 C139 0.948 . S
H170 C141 0.947 . S
H171 C142 0.948 1_554 S
H172 C148 0.982 . S
H173 C148 0.979 . S
H174 C148 0.977 . S
H175 C149 0.979 . S
H176 C149 0.980 . S
H177 C149 0.983 . S
H178 C122 0.947 . S
C179 C122 1.392 . S
C179 C123 1.419 1_556 S
C179 H161 0.948 . S
C180 C181 1.391 . S
C180 C184 1.391 . S
C180 H222 0.948 . S
C181 C180 1.391 . S
C181 C182 1.391 . S
C182 C181 1.391 . S
C182 H238 0.947 . S
C182 C239 1.392 . S
C183 C184 1.391 . S
C183 C187 1.397 . S
C183 C239 1.419 . S
C184 C180 1.391 . S
C184 C183 1.391 . S
C184 C185 1.399 . S
C185 C184 1.399 . S
C185 C188 1.396 . S
C185 C197 1.453 . S
C185 C198 1.684 . S
H186 C210 0.948 . S
C187 C183 1.397 . S
C187 C188 1.394 . S
C187 C206 1.723 . S
C188 C185 1.396 . S
C188 C187 1.394 . S
C188 C218 1.723 . S
H189 C212 0.947 . S
H190 C213 0.948 . S
H191 C219 0.982 . S
H192 C220 0.979 . S
H193 C220 0.980 . S
H194 C220 0.983 . S
H195 C219 0.979 . S
H196 C219 0.977 . S
C197 C185 1.453 . S
C197 H226 0.982 . S
C197 H227 0.979 . S
C197 H228 0.977 . S
C198 C185 1.684 . S
C198 H223 0.979 . S
C198 H224 0.980 . S
C198 H225 0.983 . S
C199 C200 1.391 . S
C199 C204 1.391 . S
C199 H229 0.948 . S
C200 C199 1.391 . S
C200 C201 1.391 . S
C201 C200 1.391 . S
C201 C202 1.392 . S
C201 H230 0.947 . S
C202 C201 1.392 . S
C202 C203 1.419 . S
C202 H231 0.948 . S
C203 C202 1.419 . S
C203 C204 1.391 . S
C203 C207 1.397 . S
C204 C199 1.391 . S
C204 C203 1.391 . S
C204 C205 1.399 1_556 S
C205 C204 1.399 1_554 S
C205 C206 1.396 . S
C205 C208 1.453 . S
C205 C209 1.684 . S
C206 C187 1.723 . S
C206 C205 1.396 . S
C206 C207 1.394 1_554 S
C207 C203 1.397 . S
C207 C206 1.394 1_556 S
C207 C217 1.723 . S
C208 C205 1.453 . S
C208 H232 0.982 . S
C208 H233 0.979 . S
C208 H234 0.977 . S
C209 C205 1.684 . S
C209 H235 0.979 . S
C209 H236 0.980 . S
C209 H237 0.983 . S
C210 H186 0.948 . S
C210 C211 1.391 . S
C210 C215 1.391 . S
C211 C210 1.391 . S
C211 C212 1.391 1_556 S
C212 H189 0.947 . S
C212 C211 1.391 1_554 S
C212 C213 1.392 . S
C213 H190 0.948 . S
C213 C212 1.392 . S
C213 C214 1.419 . S
C214 C213 1.419 . S
C214 C215 1.391 1_554 S
C214 C218 1.397 . S
C215 C210 1.391 . S
C215 C214 1.391 1_556 S
C215 C216 1.399 . S
C216 C215 1.399 . S
C216 C217 1.396 . S
C216 C219 1.453 . S
C216 C220 1.684 . S
C217 C207 1.723 . S
C217 C216 1.396 . S
C217 C218 1.394 1_556 S
C218 C188 1.723 . S
C218 C214 1.397 . S
C218 C217 1.394 1_554 S
C219 H191 0.982 . S
C219 H195 0.979 . S
C219 H196 0.977 . S
C219 C216 1.453 . S
C220 H192 0.979 . S
C220 H193 0.980 . S
C220 H194 0.983 . S
C220 C216 1.684 . S
H221 C239 0.948 . S
H222 C180 0.948 . S
H223 C198 0.979 . S
H224 C198 0.980 . S
H225 C198 0.983 . S
H226 C197 0.982 . S
H227 C197 0.979 . S
H228 C197 0.977 . S
H229 C199 0.948 . S
H230 C201 0.947 . S
H231 C202 0.948 . S
H232 C208 0.982 . S
H233 C208 0.979 . S
H234 C208 0.977 . S
H235 C209 0.979 . S
H236 C209 0.980 . S
H237 C209 0.983 . S
H238 C182 0.947 . S
C239 C182 1.392 . S
C239 C183 1.419 . S
C239 H221 0.948 . S
C240 C241 1.391 . S
C240 C244 1.391 . S
C240 H282 0.948 . S
C241 C240 1.391 . S
C241 C242 1.391 . S
C242 C241 1.391 . S
C242 H298 0.947 . S
C242 C299 1.392 . S
C243 C244 1.391 . S
C243 C247 1.397 . S
C243 C299 1.419 . S
C244 C240 1.391 . S
C244 C243 1.391 . S
C244 C245 1.399 . S
C245 C244 1.399 . S
C245 C248 1.396 . S
C245 C257 1.453 . S
C245 C258 1.684 . S
H246 C270 0.948 . S
C247 C243 1.397 . S
C247 C248 1.394 . S
C247 C266 1.723 . S
C248 C245 1.396 . S
C248 C247 1.394 . S
C248 C278 1.723 . S
H249 C272 0.947 . S
H250 C273 0.948 . S
H251 C279 0.982 . S
H252 C280 0.979 . S
H253 C280 0.980 . S
H254 C280 0.983 . S
H255 C279 0.979 . S
H256 C279 0.977 . S
C257 C245 1.453 . S
C257 H286 0.982 . S
C257 H287 0.979 . S
C257 H288 0.977 . S
C258 C245 1.684 . S
C258 H283 0.979 . S
C258 H284 0.980 . S
C258 H285 0.983 . S
C259 C260 1.391 . S
C259 C264 1.391 . S
C259 H289 0.948 . S
C260 C259 1.391 . S
C260 C261 1.391 . S
C261 C260 1.391 . S
C261 C262 1.392 . S
C261 H290 0.947 . S
C262 C261 1.392 . S
C262 C263 1.419 . S
C262 H291 0.948 . S
C263 C262 1.419 . S
C263 C264 1.391 . S
C263 C267 1.397 . S
C264 C259 1.391 . S
C264 C263 1.391 . S
C264 C265 1.399 . S
C265 C264 1.399 . S
C265 C266 1.396 . S
C265 C268 1.453 . S
C265 C269 1.684 . S
C266 C247 1.723 . S
C266 C265 1.396 . S
C266 C267 1.394 . S
C267 C263 1.397 . S
C267 C266 1.394 . S
C267 C277 1.723 . S
C268 C265 1.453 . S
C268 H292 0.982 . S
C268 H293 0.979 . S
C268 H294 0.977 . S
C269 C265 1.684 . S
C269 H295 0.979 . S
C269 H296 0.980 . S
C269 H297 0.983 . S
C270 H246 0.948 . S
C270 C271 1.391 1_554 S
C270 C275 1.391 . S
C271 C270 1.391 1_556 S
C271 C272 1.391 . S
C272 H249 0.947 . S
C272 C271 1.391 . S
C272 C273 1.392 1_556 S
C273 H250 0.948 . S
C273 C272 1.392 1_554 S
C273 C274 1.419 . S
C274 C273 1.419 . S
C274 C275 1.391 . S
C274 C278 1.397 . S
C275 C270 1.391 . S
C275 C274 1.391 . S
C275 C276 1.399 . S
C276 C275 1.399 . S
C276 C277 1.396 . S
C276 C279 1.453 . S
C276 C280 1.684 . S
C277 C267 1.723 . S
C277 C276 1.396 . S
C277 C278 1.394 . S
C278 C248 1.723 . S
C278 C274 1.397 . S
C278 C277 1.394 . S
C279 H251 0.982 . S
C279 H255 0.979 . S
C279 H256 0.977 . S
C279 C276 1.453 . S
C280 H252 0.979 . S
C280 H253 0.980 . S
C280 H254 0.983 . S
C280 C276 1.684 . S
H281 C299 0.948 . S
H282 C240 0.948 . S
H283 C258 0.979 . S
H284 C258 0.980 . S
H285 C258 0.983 . S
H286 C257 0.982 . S
H287 C257 0.979 . S
H288 C257 0.977 . S
H289 C259 0.948 . S
H290 C261 0.947 . S
H291 C262 0.948 . S
H292 C268 0.982 . S
H293 C268 0.979 . S
H294 C268 0.977 . S
H295 C269 0.979 . S
H296 C269 0.980 . S
H297 C269 0.983 . S
H298 C242 0.947 . S
C299 C242 1.392 . S
C299 C243 1.419 . S
C299 H281 0.948 . S
C300 C301 1.391 . S
C300 C304 1.391 . S
C300 H342 0.948 . S
C301 C300 1.391 . S
C301 C302 1.391 . S
C302 C301 1.391 . S
C302 H358 0.947 . S
C302 C359 1.392 . S
C303 C304 1.391 . S
C303 C307 1.397 . S
C303 C359 1.419 . S
C304 C300 1.391 . S
C304 C303 1.391 . S
C304 C305 1.399 . S
C305 C304 1.399 . S
C305 C308 1.396 . S
C305 C317 1.453 . S
C305 C318 1.684 . S
H306 C330 0.948 . S
C307 C303 1.397 . S
C307 C308 1.394 . S
C307 C326 1.723 . S
C308 C305 1.396 . S
C308 C307 1.394 . S
C308 C338 1.723 . S
H309 C332 0.947 . S
H310 C333 0.948 . S
H311 C339 0.982 . S
H312 C340 0.979 . S
H313 C340 0.980 . S
H314 C340 0.983 . S
H315 C339 0.979 . S
H316 C339 0.977 . S
C317 C305 1.453 . S
C317 H346 0.982 . S
C317 H347 0.979 . S
C317 H348 0.977 . S
C318 C305 1.684 . S
C318 H343 0.979 . S
C318 H344 0.980 . S
C318 H345 0.983 . S
C319 C320 1.391 . S
C319 C324 1.391 . S
C319 H349 0.948 . S
C320 C319 1.391 . S
C320 C321 1.391 . S
C321 C320 1.391 . S
C321 C322 1.392 . S
C321 H350 0.947 . S
C322 C321 1.392 . S
C322 C323 1.419 . S
C322 H351 0.948 . S
C323 C322 1.419 . S
C323 C324 1.391 . S
C323 C327 1.397 . S
C324 C319 1.391 . S
C324 C323 1.391 . S
C324 C325 1.399 . S
C325 C324 1.399 . S
C325 C326 1.396 . S
C325 C328 1.453 . S
C325 C329 1.684 . S
C326 C307 1.723 . S
C326 C325 1.396 . S
C326 C327 1.394 . S
C327 C323 1.397 . S
C327 C326 1.394 . S
C327 C337 1.723 . S
C328 C325 1.453 . S
C328 H352 0.982 . S
C328 H353 0.979 . S
C328 H354 0.977 . S
C329 C325 1.684 . S
C329 H355 0.979 . S
C329 H356 0.980 . S
C329 H357 0.983 . S
C330 H306 0.948 . S
C330 C331 1.391 . S
C330 C335 1.391 . S
C331 C330 1.391 . S
C331 C332 1.391 . S
C332 H309 0.947 . S
C332 C331 1.391 . S
C332 C333 1.392 . S
C333 H310 0.948 . S
C333 C332 1.392 . S
C333 C334 1.419 . S
C334 C333 1.419 . S
C334 C335 1.391 . S
C334 C338 1.397 . S
C335 C330 1.391 . S
C335 C334 1.391 . S
C335 C336 1.399 . S
C336 C335 1.399 . S
C336 C337 1.396 . S
C336 C339 1.453 . S
C336 C340 1.684 . S
C337 C327 1.723 . S
C337 C336 1.396 . S
C337 C338 1.394 . S
C338 C308 1.723 . S
C338 C334 1.397 . S
C338 C337 1.394 . S
C339 H311 0.982 . S
C339 H315 0.979 . S
C339 H316 0.977 . S
C339 C336 1.453 . S
C340 H312 0.979 . S
C340 H313 0.980 . S
C340 H314 0.983 . S
C340 C336 1.684 . S
H341 C359 0.948 . S
H342 C300 0.948 . S
H343 C318 0.979 . S
H344 C318 0.980 . S
H345 C318 0.983 . S
H346 C317 0.982 . S
H347 C317 0.979 . S
H348 C317 0.977 . S
H349 C319 0.948 . S
H350 C321 0.947 . S
H351 C322 0.948 . S
H352 C328 0.982 . S
H353 C328 0.979 . S
H354 C328 0.977 . S
H355 C329 0.979 . S
H356 C329 0.980 . S
H357 C329 0.983 . S
H358 C302 0.947 . S
C359 C302 1.392 . S
C359 C303 1.419 . S
C359 H341 0.948 . S
C360 C361 1.391 1_554 S
C360 C364 1.391 . S
C360 H402 0.948 1_554 S
C361 C360 1.391 1_556 S
C361 C362 1.391 1_556 S
C362 C361 1.391 1_554 S
C362 H418 0.947 . S
C362 C419 1.392 . S
C363 C364 1.391 . S
C363 C367 1.397 1_545 S
C363 C419 1.419 . S
C364 C360 1.391 . S
C364 C363 1.391 . S
C364 C365 1.399 . S
C365 C364 1.399 . S
C365 C368 1.396 1_545 S
C365 C377 1.453 1_545 S
C365 C378 1.684 . S
H366 C390 0.948 . S
C367 C363 1.397 1_565 S
C367 C368 1.394 . S
C367 C386 1.723 . S
C368 C365 1.396 1_565 S
C368 C367 1.394 . S
C368 C398 1.723 . S
H369 C392 0.947 . S
H370 C393 0.948 . S
H371 C399 0.982 . S
H372 C400 0.979 . S
H373 C400 0.980 . S
H374 C400 0.983 . S
H375 C399 0.979 . S
H376 C399 0.977 . S
C377 C365 1.453 1_565 S
C377 H406 0.982 . S
C377 H407 0.979 . S
C377 H408 0.977 . S
C378 C365 1.684 . S
C378 H403 0.979 . S
C378 H404 0.980 . S
C378 H405 0.983 . S
C379 C380 1.391 . S
C379 C384 1.391 . S
C379 H409 0.948 . S
C380 C379 1.391 . S
C380 C381 1.391 . S
C381 C380 1.391 . S
C381 C382 1.392 . S
C381 H410 0.947 . S
C382 C381 1.392 . S
C382 C383 1.419 . S
C382 H411 0.948 . S
C383 C382 1.419 . S
C383 C384 1.391 . S
C383 C387 1.397 1_545 S
C384 C379 1.391 . S
C384 C383 1.391 . S
C384 C385 1.399 . S
C385 C384 1.399 . S
C385 C386 1.396 1_545 S
C385 C388 1.453 1_545 S
C385 C389 1.684 . S
C386 C367 1.723 . S
C386 C385 1.396 1_565 S
C386 C387 1.394 . S
C387 C383 1.397 1_565 S
C387 C386 1.394 . S
C387 C397 1.723 . S
C388 C385 1.453 1_565 S
C388 H412 0.982 . S
C388 H413 0.979 . S
C388 H414 0.977 . S
C389 C385 1.684 . S
C389 H415 0.979 . S
C389 H416 0.980 . S
C389 H417 0.983 . S
C390 H366 0.948 . S
C390 C391 1.391 . S
C390 C395 1.391 . S
C391 C390 1.391 . S
C391 C392 1.391 . S
C392 H369 0.947 . S
C392 C391 1.391 . S
C392 C393 1.392 . S
C393 H370 0.948 . S
C393 C392 1.392 . S
C393 C394 1.419 . S
C394 C393 1.419 . S
C394 C395 1.391 . S
C394 C398 1.396 1_545 S
C395 C390 1.391 . S
C395 C394 1.391 . S
C395 C396 1.399 . S
C396 C395 1.399 . S
C396 C397 1.396 1_545 S
C396 C399 1.453 1_545 S
C396 C400 1.684 . S
C397 C387 1.723 . S
C397 C396 1.396 1_565 S
C397 C398 1.395 . S
C398 C368 1.723 . S
C398 C394 1.396 1_565 S
C398 C397 1.395 . S
C399 H371 0.982 . S
C399 H375 0.979 . S
C399 H376 0.977 . S
C399 C396 1.453 1_565 S
C400 H372 0.979 . S
C400 H373 0.980 . S
C400 H374 0.983 . S
C400 C396 1.684 . S
H401 C419 0.948 . S
H402 C360 0.948 1_556 S
H403 C378 0.979 . S
H404 C378 0.980 . S
H405 C378 0.983 . S
H406 C377 0.982 . S
H407 C377 0.979 . S
H408 C377 0.977 . S
H409 C379 0.948 . S
H410 C381 0.947 . S
H411 C382 0.948 . S
H412 C388 0.982 . S
H413 C388 0.979 . S
H414 C388 0.977 . S
H415 C389 0.979 . S
H416 C389 0.980 . S
H417 C389 0.983 . S
H418 C362 0.947 . S
C419 C362 1.392 . S
C419 C363 1.419 . S
C419 H401 0.948 . S
C420 C421 1.391 . S
C420 C424 1.391 1_556 S
C420 H462 0.948 . S
C421 C420 1.391 . S
C421 C422 1.391 1_556 S
C422 C421 1.391 1_554 S
C422 H478 0.947 1_554 S
C422 C479 1.392 . S
C423 C424 1.391 . S
C423 C427 1.397 . S
C423 C479 1.419 . S
C424 C420 1.391 1_554 S
C424 C423 1.391 . S
C424 C425 1.399 . S
C425 C424 1.399 . S
C425 C428 1.396 . S
C425 C437 1.453 . S
C425 C438 1.684 . S
H426 C450 0.948 . S
C427 C423 1.397 . S
C427 C428 1.394 . S
C427 C446 1.723 . S
C428 C425 1.396 . S
C428 C427 1.394 . S
C428 C458 1.723 . S
H429 C452 0.947 . S
H430 C453 0.948 . S
H431 C459 0.982 . S
H432 C460 0.979 . S
H433 C460 0.980 . S
H434 C460 0.983 . S
H435 C459 0.979 . S
H436 C459 0.977 . S
C437 C425 1.453 . S
C437 H466 0.982 . S
C437 H467 0.979 . S
C437 H468 0.977 . S
C438 C425 1.684 . S
C438 H463 0.979 . S
C438 H464 0.980 . S
C438 H465 0.983 . S
C439 C440 1.391 . S
C439 C444 1.391 . S
C439 H469 0.948 . S
C440 C439 1.391 . S
C440 C441 1.391 . S
C441 C440 1.391 . S
C441 C442 1.392 . S
C441 H470 0.947 . S
C442 C441 1.392 . S
C442 C443 1.419 . S
C442 H471 0.948 . S
C443 C442 1.419 . S
C443 C444 1.391 . S
C443 C447 1.397 . S
C444 C439 1.391 . S
C444 C443 1.391 . S
C444 C445 1.399 . S
C445 C444 1.399 . S
C445 C446 1.396 . S
C445 C448 1.453 . S
C445 C449 1.684 . S
C446 C427 1.723 . S
C446 C445 1.396 . S
C446 C447 1.394 . S
C447 C443 1.397 . S
C447 C446 1.394 . S
C447 C457 1.723 . S
C448 C445 1.453 . S
C448 H472 0.982 . S
C448 H473 0.979 . S
C448 H474 0.977 . S
C449 C445 1.684 . S
C449 H475 0.979 . S
C449 H476 0.980 . S
C449 H477 0.983 . S
C450 H426 0.948 . S
C450 C451 1.391 . S
C450 C455 1.391 . S
C451 C450 1.391 . S
C451 C452 1.391 . S
C452 H429 0.947 . S
C452 C451 1.391 . S
C452 C453 1.392 . S
C453 H430 0.948 . S
C453 C452 1.392 . S
C453 C454 1.419 . S
C454 C453 1.419 . S
C454 C455 1.391 . S
C454 C458 1.397 . S
C455 C450 1.391 . S
C455 C454 1.391 . S
C455 C456 1.399 . S
C456 C455 1.399 . S
C456 C457 1.396 . S
C456 C459 1.453 . S
C456 C460 1.684 . S
C457 C447 1.723 . S
C457 C456 1.396 . S
C457 C458 1.394 . S
C458 C428 1.723 . S
C458 C454 1.397 . S
C458 C457 1.394 . S
C459 H431 0.982 . S
C459 H435 0.979 . S
C459 H436 0.977 . S
C459 C456 1.453 . S
C460 H432 0.979 . S
C460 H433 0.980 . S
C460 H434 0.983 . S
C460 C456 1.684 . S
H461 C479 0.948 . S
H462 C420 0.948 . S
H463 C438 0.979 . S
H464 C438 0.980 . S
H465 C438 0.983 . S
H466 C437 0.982 . S
H467 C437 0.979 . S
H468 C437 0.977 . S
H469 C439 0.948 . S
H470 C441 0.947 . S
H471 C442 0.948 . S
H472 C448 0.982 . S
H473 C448 0.979 . S
H474 C448 0.977 . S
H475 C449 0.979 . S
H476 C449 0.980 . S
H477 C449 0.983 . S
H478 C422 0.947 1_556 S
C479 C422 1.392 . S
C479 C423 1.419 . S
C479 H461 0.948 . S
O480 Zn481 1.953 . S
O480 C496 1.225 . S
Zn481 O480 1.953 . S
Zn481 O482 1.950 . S
Zn481 O488 1.919 1_565 S
Zn481 O493 1.924 . S
O482 Zn481 1.950 . S
O482 Zn483 1.900 1_565 S
O482 Zn484 1.953 . S
O482 Zn485 1.964 . S
Zn483 O482 1.900 1_545 S
Zn483 O486 1.933 1_455 S
Zn483 O489 1.941 . S
Zn483 O490 1.965 . S
Zn484 O482 1.953 . S
Zn484 O491 1.938 1_565 S
Zn484 O492 1.906 . S
Zn484 O502 1.953 . S
Zn485 O482 1.964 . S
Zn485 O487 1.932 1_455 S
Zn485 O494 1.977 1_455 S
Zn485 O495 1.910 . S
O486 Zn483 1.933 1_655 S
O486 C497 1.226 . S
O487 Zn485 1.932 1_655 S
O487 C497 1.307 1_565 S
O488 Zn481 1.919 1_545 S
O488 C499 1.253 . S
O489 Zn483 1.941 . S
O489 C499 1.283 . S
O490 Zn483 1.965 . S
O490 C498 1.303 . S
O491 Zn484 1.938 1_545 S
O491 C498 1.247 . S
O492 Zn484 1.906 . S
O492 C500 1.290 1_455 S
O493 Zn481 1.924 . S
O493 C501 1.311 . S
O494 Zn485 1.977 1_655 S
O494 C500 1.274 . S
O495 Zn485 1.910 . S
O495 C501 1.231 . S
C496 O480 1.225 . S
C496 O502 1.298 . S
C497 O486 1.226 . S
C497 O487 1.307 1_545 S
C498 O490 1.303 . S
C498 O491 1.247 . S
C499 O488 1.253 . S
C499 O489 1.283 . S
C500 O492 1.290 1_655 S
C500 O494 1.274 . S
C501 O493 1.311 . S
C501 O495 1.231 . S
O502 Zn484 1.953 . S
O502 C496 1.298 . S
O503 Zn504 1.953 . S
O503 C519 1.225 . S
Zn504 O503 1.953 . S
Zn504 O505 1.949 . S
Zn504 O511 1.919 . S
Zn504 O516 1.924 . S
O505 Zn504 1.949 . S
O505 Zn506 1.923 1_545 S
O505 Zn507 1.950 . S
O505 Zn508 1.945 1_545 S
Zn506 O505 1.923 1_565 S
Zn506 O509 1.933 . S
Zn506 O512 1.941 . S
Zn506 O513 1.965 . S
Zn507 O505 1.950 . S
Zn507 O514 1.938 . S
Zn507 O515 1.906 1_545 S
Zn507 O525 1.953 . S
Zn508 O505 1.945 1_565 S
Zn508 O510 1.932 . S
Zn508 O517 1.977 . S
Zn508 O518 1.910 1_565 S
O509 Zn506 1.933 . S
O509 C520 1.226 . S
O510 Zn508 1.932 . S
O510 C520 1.307 . S
O511 Zn504 1.919 . S
O511 C522 1.253 . S
O512 Zn506 1.941 . S
O512 C522 1.283 1_565 S
O513 Zn506 1.965 . S
O513 C521 1.303 . S
O514 Zn507 1.938 . S
O514 C521 1.247 1_545 S
O515 Zn507 1.906 1_565 S
O515 C523 1.304 . S
O516 Zn504 1.924 . S
O516 C524 1.311 . S
O517 Zn508 1.977 . S
O517 C523 1.272 . S
O518 Zn508 1.910 1_545 S
O518 C524 1.231 . S
C519 O503 1.225 . S
C519 O525 1.298 . S
C520 O509 1.226 . S
C520 O510 1.307 . S
C521 O513 1.303 . S
C521 O514 1.247 1_565 S
C522 O511 1.253 . S
C522 O512 1.283 1_545 S
C523 O515 1.304 . S
C523 O517 1.272 . S
C524 O516 1.311 . S
C524 O518 1.231 . S
O525 Zn507 1.953 . S
O525 C519 1.298 . S
O526 Zn527 1.953 . S
O526 C542 1.225 . S
Zn527 O526 1.953 . S
Zn527 O528 1.949 . S
Zn527 O534 1.919 . S
Zn527 O539 1.924 . S
O528 Zn527 1.949 . S
O528 Zn529 1.923 . S
O528 Zn530 1.950 . S
O528 Zn531 1.945 . S
Zn529 O528 1.923 . S
Zn529 O532 1.933 . S
Zn529 O535 1.941 . S
Zn529 O536 1.965 . S
Zn530 O528 1.950 . S
Zn530 O537 1.938 . S
Zn530 O538 1.906 . S
Zn530 O548 1.953 . S
Zn531 O528 1.945 . S
Zn531 O533 1.932 . S
Zn531 O540 1.977 . S
Zn531 O541 1.910 . S
O532 Zn529 1.933 . S
O532 C543 1.226 . S
O533 Zn531 1.932 . S
O533 C543 1.307 . S
O534 Zn527 1.919 . S
O534 C545 1.253 . S
O535 Zn529 1.941 . S
O535 C545 1.283 . S
O536 Zn529 1.965 . S
O536 C544 1.303 . S
O537 Zn530 1.938 . S
O537 C544 1.247 . S
O538 Zn530 1.906 . S
O538 C546 1.304 . S
O539 Zn527 1.924 . S
O539 C547 1.311 . S
O540 Zn531 1.977 . S
O540 C546 1.272 . S
O541 Zn531 1.910 . S
O541 C547 1.231 . S
C542 O526 1.225 . S
C542 O548 1.298 . S
C543 O532 1.226 . S
C543 O533 1.307 . S
C544 O536 1.303 . S
C544 O537 1.247 . S
C545 O534 1.253 . S
C545 O535 1.283 . S
C546 O538 1.304 . S
C546 O540 1.272 . S
C547 O539 1.311 . S
C547 O541 1.231 . S
O548 Zn530 1.953 . S
O548 C542 1.298 . S
O549 Zn550 1.953 1_655 S
O549 C565 1.225 . S
Zn550 O549 1.953 1_455 S
Zn550 O551 1.949 . S
Zn550 O557 1.919 . S
Zn550 O562 1.924 . S
O551 Zn550 1.949 . S
O551 Zn552 1.923 . S
O551 Zn553 1.950 1_455 S
O551 Zn554 1.945 . S
Zn552 O551 1.923 . S
Zn552 O555 1.933 . S
Zn552 O558 1.941 1_455 S
Zn552 O559 1.965 1_455 S
Zn553 O551 1.950 1_655 S
Zn553 O560 1.938 . S
Zn553 O561 1.906 1_655 S
Zn553 O571 1.953 . S
Zn554 O551 1.945 . S
Zn554 O556 1.932 . S
Zn554 O563 1.977 . S
Zn554 O564 1.910 . S
O555 Zn552 1.933 . S
O555 C566 1.226 . S
O556 Zn554 1.932 . S
O556 C566 1.307 . S
O557 Zn550 1.919 . S
O557 C568 1.253 . S
O558 Zn552 1.941 1_655 S
O558 C568 1.283 1_655 S
O559 Zn552 1.965 1_655 S
O559 C567 1.303 . S
O560 Zn553 1.938 . S
O560 C567 1.247 . S
O561 Zn553 1.906 1_455 S
O561 C569 1.304 . S
O562 Zn550 1.924 . S
O562 C570 1.311 . S
O563 Zn554 1.977 . S
O563 C569 1.272 . S
O564 Zn554 1.910 . S
O564 C570 1.231 . S
C565 O549 1.225 . S
C565 O571 1.298 . S
C566 O555 1.226 . S
C566 O556 1.307 . S
C567 O559 1.303 . S
C567 O560 1.247 . S
C568 O557 1.253 . S
C568 O558 1.283 1_455 S
C569 O561 1.304 . S
C569 O563 1.272 . S
C570 O562 1.311 . S
C570 O564 1.231 . S
O571 Zn553 1.953 . S
O571 C565 1.298 . S
C572 C573 1.369 . S
C572 C574 1.419 . S
C572 H576 0.930 . S
C573 C572 1.369 . S
C573 C582 1.429 1_565 S
C574 C572 1.419 . S
C574 C575 1.363 . S
C574 H577 0.929 . S
C575 C574 1.363 . S
C575 C581 1.428 1_565 S
H576 C572 0.930 . S
H577 C574 0.929 . S
S578 N579 1.613 . S
S578 N580 1.610 . S
N579 S578 1.613 . S
N579 C582 1.350 . S
N580 S578 1.610 . S
N580 C581 1.351 . S
C581 C575 1.428 1_545 S
C581 N580 1.351 . S
C581 C582 1.434 . S
C582 C573 1.429 1_545 S
C582 N579 1.350 . S
C582 C581 1.434 . S
C583 C584 1.369 . S
C583 C585 1.419 . S
C583 H587 0.930 . S
C584 C583 1.369 . S
C584 C593 1.429 . S
C585 C583 1.419 . S
C585 C586 1.363 . S
C585 H588 0.929 . S
C586 C585 1.363 . S
C586 C592 1.428 . S
H587 C583 0.930 . S
H588 C585 0.929 . S
S589 N590 1.613 . S
S589 N591 1.610 . S
N590 S589 1.613 . S
N590 C593 1.350 . S
N591 S589 1.610 . S
N591 C592 1.351 . S
C592 C586 1.428 . S
C592 N591 1.351 . S
C592 C593 1.434 . S
C593 C584 1.429 . S
C593 N590 1.350 . S
C593 C592 1.434 . S
C594 C595 1.369 . S
C594 C596 1.419 . S
C594 H598 0.930 . S
C595 C594 1.369 . S
C595 C604 1.429 . S
C596 C594 1.419 . S
C596 C597 1.363 . S
C596 H599 0.929 . S
C597 C596 1.363 . S
C597 C603 1.428 . S
H598 C594 0.930 . S
H599 C596 0.929 . S
S600 N601 1.613 . S
S600 N602 1.610 . S
N601 S600 1.613 . S
N601 C604 1.350 . S
N602 S600 1.610 . S
N602 C603 1.351 . S
C603 C597 1.428 . S
C603 N602 1.351 . S
C603 C604 1.434 . S
C604 C595 1.429 . S
C604 N601 1.350 . S
C604 C603 1.434 . S
C605 C606 1.369 . S
C605 C607 1.419 . S
C605 H609 0.930 . S
C606 C605 1.369 . S
C606 C615 1.429 . S
C607 C605 1.419 . S
C607 C608 1.363 . S
C607 H610 0.929 . S
C608 C607 1.363 . S
C608 C614 1.428 . S
H609 C605 0.930 . S
H610 C607 0.929 . S
S611 N612 1.613 1_655 S
S611 N613 1.610 1_655 S
N612 S611 1.613 1_455 S
N612 C615 1.350 . S
N613 S611 1.610 1_455 S
N613 C614 1.351 . S
C614 C608 1.428 . S
C614 N613 1.351 . S
C614 C615 1.434 . S
C615 C606 1.429 . S
C615 N612 1.350 . S
C615 C614 1.434 . S
C616 C617 1.369 . S
C616 C618 1.419 . S
C616 H620 0.930 . S
C617 C616 1.369 . S
C617 C626 1.429 1_545 S
C618 C616 1.419 . S
C618 C619 1.363 . S
C618 H621 0.929 . S
C619 C618 1.363 . S
C619 C625 1.428 1_545 S
H620 C616 0.930 . S
H621 C618 0.929 . S
S622 N623 1.613 . S
S622 N624 1.610 . S
N623 S622 1.613 . S
N623 C626 1.350 . S
N624 S622 1.610 . S
N624 C625 1.351 . S
C625 C619 1.428 1_565 S
C625 N624 1.351 . S
C625 C626 1.434 . S
C626 C617 1.429 1_565 S
C626 N623 1.350 . S
C626 C625 1.434 . S
C627 C628 1.369 . S
C627 C629 1.419 . S
C627 H631 0.930 . S
C628 C627 1.369 . S
C628 C637 1.429 . S
C629 C627 1.419 . S
C629 C630 1.363 . S
C629 H632 0.929 . S
C630 C629 1.363 . S
C630 C636 1.428 . S
H631 C627 0.930 . S
H632 C629 0.929 . S
S633 N634 1.613 . S
S633 N635 1.610 . S
N634 S633 1.613 . S
N634 C637 1.350 . S
N635 S633 1.610 . S
N635 C636 1.351 . S
C636 C630 1.428 . S
C636 N635 1.351 . S
C636 C637 1.434 . S
C637 C628 1.429 . S
C637 N634 1.350 . S
C637 C636 1.434 . S
C638 C639 1.369 . S
C638 C640 1.419 . S
C638 H642 0.930 . S
C639 C638 1.369 . S
C639 C648 1.429 . S
C640 C638 1.419 . S
C640 C641 1.363 . S
C640 H643 0.929 . S
C641 C640 1.363 . S
C641 C647 1.428 . S
H642 C638 0.930 . S
H643 C640 0.929 . S
S644 N645 1.613 . S
S644 N646 1.610 . S
N645 S644 1.613 . S
N645 C648 1.350 . S
N646 S644 1.610 . S
N646 C647 1.351 . S
C647 C641 1.428 . S
C647 N646 1.351 . S
C647 C648 1.434 . S
C648 C639 1.429 . S
C648 N645 1.350 . S
C648 C647 1.434 . S
C649 C650 1.369 . S
C649 C651 1.419 . S
C649 H653 0.930 . S
C650 C649 1.369 . S
C650 C659 1.429 1_655 S
C651 C649 1.419 . S
C651 C652 1.363 1_655 S
C651 H654 0.929 . S
C652 C651 1.363 1_455 S
C652 C658 1.428 . S
H653 C649 0.930 . S
H654 C651 0.929 . S
S655 N656 1.613 . S
S655 N657 1.610 . S
N656 S655 1.613 . S
N656 C659 1.350 . S
N657 S655 1.610 . S
N657 C658 1.351 . S
C658 C652 1.428 . S
C658 N657 1.351 . S
C658 C659 1.434 . S
C659 C650 1.429 1_455 S
C659 N656 1.350 . S
C659 C658 1.434 . S
C660 C661 1.369 . S
C660 C662 1.419 . S
C660 H664 0.930 . S
C661 C660 1.369 . S
C661 C670 1.429 . S
C662 C660 1.419 . S
C662 C663 1.363 . S
C662 H665 0.929 . S
C663 C662 1.363 . S
C663 C669 1.428 . S
H664 C660 0.930 . S
H665 C662 0.929 . S
S666 N667 1.613 . S
S666 N668 1.610 . S
N667 S666 1.613 . S
N667 C670 1.350 . S
N668 S666 1.610 . S
N668 C669 1.351 . S
C669 C663 1.428 . S
C669 N668 1.351 . S
C669 C670 1.434 . S
C670 C661 1.429 . S
C670 N667 1.350 . S
C670 C669 1.434 . S
C671 C672 1.369 1_565 S
C671 C673 1.419 . S
C671 H675 0.930 . S
C672 C671 1.369 1_545 S
C672 C681 1.429 . S
C673 C671 1.419 . S
C673 C674 1.363 . S
C673 H676 0.929 . S
C674 C673 1.363 . S
C674 C680 1.428 1_565 S
H675 C671 0.930 . S
H676 C673 0.929 . S
S677 N678 1.613 . S
S677 N679 1.610 . S
N678 S677 1.613 . S
N678 C681 1.350 . S
N679 S677 1.610 . S
N679 C680 1.351 . S
C680 C674 1.428 1_545 S
C680 N679 1.351 . S
C680 C681 1.434 . S
C681 C672 1.429 . S
C681 N678 1.350 . S
C681 C680 1.434 . S
C682 C683 1.369 . S
C682 C684 1.419 . S
C682 H686 0.930 . S
C683 C682 1.369 . S
C683 C692 1.429 . S
C684 C682 1.419 . S
C684 C685 1.363 . S
C684 H687 0.929 . S
C685 C684 1.363 . S
C685 C691 1.428 . S
H686 C682 0.930 . S
H687 C684 0.929 . S
S688 N689 1.613 . S
S688 N690 1.610 . S
N689 S688 1.613 . S
N689 C692 1.350 . S
N690 S688 1.610 . S
N690 C691 1.351 . S
C691 C685 1.428 . S
C691 N690 1.351 . S
C691 C692 1.434 . S
C692 C683 1.429 . S
C692 N689 1.350 . S
C692 C691 1.434 . S
C693 C694 1.369 . S
C693 C695 1.419 . S
C693 H697 0.930 . S
C694 C693 1.369 . S
C694 C703 1.429 . S
C695 C693 1.419 . S
C695 C696 1.363 . S
C695 H698 0.929 . S
C696 C695 1.363 . S
C696 C702 1.428 . S
H697 C693 0.930 . S
H698 C695 0.929 . S
S699 N700 1.613 . S
S699 N701 1.610 . S
N700 S699 1.613 . S
N700 C703 1.350 . S
N701 S699 1.610 . S
N701 C702 1.351 . S
C702 C696 1.428 . S
C702 N701 1.351 . S
C702 C703 1.434 . S
C703 C694 1.429 . S
C703 N700 1.350 . S
C703 C702 1.434 . S
C704 C705 1.369 1_455 S
C704 C706 1.419 . S
C704 H708 0.930 . S
C705 C704 1.369 1_655 S
C705 C714 1.429 . S
C706 C704 1.419 . S
C706 C707 1.363 . S
C706 H709 0.929 . S
C707 C706 1.363 . S
C707 C713 1.428 . S
H708 C704 0.930 . S
H709 C706 0.929 . S
S710 N711 1.613 . S
S710 N712 1.610 1_655 S
N711 S710 1.613 . S
N711 C714 1.350 . S
N712 S710 1.610 1_455 S
N712 C713 1.351 . S
C713 C707 1.428 . S
C713 N712 1.351 . S
C713 C714 1.434 1_455 S
C714 C705 1.429 . S
C714 N711 1.350 . S
C714 C713 1.434 1_655 S
C715 C716 1.383 . S
C715 C717 1.419 . S
C715 H719 0.930 . S
C716 C715 1.383 . S
C716 C725 1.424 1_545 S
C717 C715 1.419 . S
C717 C718 1.363 . S
C717 H720 0.929 . S
C718 C717 1.363 . S
C718 C724 1.428 . S
H719 C715 0.930 . S
H720 C717 0.929 . S
S721 N722 1.613 . S
S721 N723 1.610 . S
N722 S721 1.613 . S
N722 C725 1.350 . S
N723 S721 1.610 . S
N723 C724 1.351 1_565 S
C724 C718 1.428 . S
C724 N723 1.351 1_545 S
C724 C725 1.434 1_545 S
C725 C716 1.424 1_565 S
C725 N722 1.350 . S
C725 C724 1.434 1_565 S
C726 C727 1.369 . S
C726 C728 1.419 . S
C726 H730 0.930 . S
C727 C726 1.369 . S
C727 C736 1.429 . S
C728 C726 1.419 . S
C728 C729 1.363 . S
C728 H731 0.929 . S
C729 C728 1.363 . S
C729 C735 1.428 . S
H730 C726 0.930 . S
H731 C728 0.929 . S
S732 N733 1.613 . S
S732 N734 1.610 . S
N733 S732 1.613 . S
N733 C736 1.350 . S
N734 S732 1.610 . S
N734 C735 1.351 . S
C735 C729 1.428 . S
C735 N734 1.351 . S
C735 C736 1.434 . S
C736 C727 1.429 . S
C736 N733 1.350 . S
C736 C735 1.434 . S
C737 C738 1.369 . S
C737 C739 1.419 . S
C737 H741 0.930 . S
C738 C737 1.369 . S
C738 C747 1.429 . S
C739 C737 1.419 . S
C739 C740 1.363 . S
C739 H742 0.929 . S
C740 C739 1.363 . S
C740 C746 1.428 . S
H741 C737 0.930 . S
H742 C739 0.929 . S
S743 N744 1.613 . S
S743 N745 1.610 . S
N744 S743 1.613 . S
N744 C747 1.350 . S
N745 S743 1.610 . S
N745 C746 1.351 . S
C746 C740 1.428 . S
C746 N745 1.351 . S
C746 C747 1.434 . S
C747 C738 1.429 . S
C747 N744 1.350 . S
C747 C746 1.434 . S
C748 C749 1.369 1_554 S
C748 C750 1.419 1_554 S
C748 H752 0.930 . S
C749 C748 1.369 1_556 S
C749 C758 1.429 . S
C750 C748 1.419 1_556 S
C750 C751 1.363 . S
C750 H753 0.929 1_556 S
C751 C750 1.363 . S
C751 C757 1.428 . S
H752 C748 0.930 . S
H753 C750 0.929 1_554 S
S754 N755 1.613 . S
S754 N756 1.610 . S
N755 S754 1.613 . S
N755 C758 1.350 . S
N756 S754 1.610 . S
N756 C757 1.351 . S
C757 C751 1.428 . S
C757 N756 1.351 . S
C757 C758 1.434 . S
C758 C749 1.429 . S
C758 N755 1.350 . S
C758 C757 1.434 . S
C759 C760 1.366 1_565 S
C759 C761 1.419 . S
C759 H763 0.930 . S
C760 C759 1.366 1_545 S
C760 C769 1.432 . S
C761 C759 1.419 . S
C761 C762 1.374 . S
C761 H764 0.929 . S
C762 C761 1.374 . S
C762 C768 1.417 1_565 S
H763 C759 0.930 . S
H764 C761 0.929 . S
S765 N766 1.613 . S
S765 N767 1.610 . S
N766 S765 1.613 . S
N766 C769 1.350 . S
N767 S765 1.610 . S
N767 C768 1.351 . S
C768 C762 1.417 1_545 S
C768 N767 1.351 . S
C768 C769 1.434 . S
C769 C760 1.432 . S
C769 N766 1.350 . S
C769 C768 1.434 . S
C770 C771 1.369 . S
C770 C772 1.419 . S
C770 H774 0.930 . S
C771 C770 1.369 . S
C771 C780 1.429 . S
C772 C770 1.419 . S
C772 C773 1.363 . S
C772 H775 0.929 . S
C773 C772 1.363 . S
C773 C779 1.428 . S
H774 C770 0.930 . S
H775 C772 0.929 . S
S776 N777 1.613 . S
S776 N778 1.610 . S
N777 S776 1.613 . S
N777 C780 1.350 . S
N778 S776 1.610 . S
N778 C779 1.351 . S
C779 C773 1.428 . S
C779 N778 1.351 . S
C779 C780 1.434 . S
C780 C771 1.429 . S
C780 N777 1.350 . S
C780 C779 1.434 . S
C781 C782 1.369 . S
C781 C783 1.419 . S
C781 H785 0.930 . S
C782 C781 1.369 . S
C782 C791 1.429 . S
C783 C781 1.419 . S
C783 C784 1.363 . S
C783 H786 0.929 . S
C784 C783 1.363 . S
C784 C790 1.428 . S
H785 C781 0.930 . S
H786 C783 0.929 . S
S787 N788 1.615 . S
S787 N789 1.614 . S
N788 S787 1.615 . S
N788 C791 1.350 . S
N789 S787 1.614 . S
N789 C790 1.351 . S
C790 C784 1.428 . S
C790 N789 1.351 . S
C790 C791 1.434 . S
C791 C782 1.429 . S
C791 N788 1.350 . S
C791 C790 1.434 . S
C792 C793 1.369 . S
C792 C794 1.419 . S
C792 H796 0.930 . S
C793 C792 1.369 . S
C793 C802 1.429 1_655 S
C794 C792 1.419 . S
C794 C795 1.363 . S
C794 H797 0.929 . S
C795 C794 1.363 . S
C795 C801 1.428 1_655 S
H796 C792 0.930 . S
H797 C794 0.929 . S
S798 N799 1.613 . S
S798 N800 1.610 . S
N799 S798 1.613 . S
N799 C802 1.350 . S
N800 S798 1.610 . S
N800 C801 1.351 . S
C801 C795 1.428 1_455 S
C801 N800 1.351 . S
C801 C802 1.434 . S
C802 C793 1.429 1_455 S
C802 N799 1.350 . S
C802 C801 1.434 . S
C803 C804 1.369 . S
C803 C805 1.419 . S
C803 H807 0.930 . S
C804 C803 1.369 . S
C804 C813 1.429 . S
C805 C803 1.419 . S
C805 C806 1.363 . S
C805 H808 0.929 . S
C806 C805 1.363 . S
C806 C812 1.428 . S
H807 C803 0.930 . S
H808 C805 0.929 . S
S809 N810 1.613 . S
S809 N811 1.610 1_545 S
N810 S809 1.613 . S
N810 C813 1.350 1_545 S
N811 S809 1.610 1_565 S
N811 C812 1.351 . S
C812 C806 1.428 . S
C812 N811 1.351 . S
C812 C813 1.434 . S
C813 C804 1.429 . S
C813 N810 1.350 1_565 S
C813 C812 1.434 . S
C814 C815 1.369 . S
C814 C816 1.419 . S
C814 H818 0.930 . S
C815 C814 1.369 . S
C815 C824 1.429 . S
C816 C814 1.419 . S
C816 C817 1.363 . S
C816 H819 0.929 . S
C817 C816 1.363 . S
C817 C823 1.428 . S
H818 C814 0.930 . S
H819 C816 0.929 . S
S820 N821 1.613 . S
S820 N822 1.610 . S
N821 S820 1.613 . S
N821 C824 1.350 . S
N822 S820 1.610 . S
N822 C823 1.351 . S
C823 C817 1.428 . S
C823 N822 1.351 . S
C823 C824 1.434 . S
C824 C815 1.429 . S
C824 N821 1.350 . S
C824 C823 1.434 . S
C825 C826 1.369 . S
C825 C827 1.419 . S
C825 H829 0.930 . S
C826 C825 1.369 . S
C826 C835 1.429 . S
C827 C825 1.419 . S
C827 C828 1.363 . S
C827 H830 0.929 . S
C828 C827 1.363 . S
C828 C834 1.428 . S
H829 C825 0.930 . S
H830 C827 0.929 . S
S831 N832 1.613 . S
S831 N833 1.610 . S
N832 S831 1.613 . S
N832 C835 1.350 . S
N833 S831 1.610 . S
N833 C834 1.351 . S
C834 C828 1.428 . S
C834 N833 1.351 . S
C834 C835 1.434 . S
C835 C826 1.429 . S
C835 N832 1.350 . S
C835 C834 1.434 . S
C573 C391 1.930 1_565 S
C575 C496 1.843 . S
C586 C519 2.020 . S
C584 C451 2.126 . S
C597 C542 1.869 . S
C595 C241 1.723 . S
C608 C569 1.739 . S
C606 C331 1.679 . S
C619 C497 1.713 . S
C617 C121 1.579 1_545 S
C628 C211 1.806 . S
C630 C520 1.814 . S
C639 C31 1.704 . S
C641 C543 1.660 . S
C650 C91 1.689 1_556 S
C652 C568 1.855 . S
C663 C498 0.840 . S
C661 C301 0.743 . S
C674 C521 0.409 . S
C672 C380 0.447 . S
C685 C544 0.628 . S
C683 C440 0.652 . S
C694 C260 0.708 . S
C696 C570 0.738 . S
C705 C61 0.853 . S
C707 C501 0.796 . S
C718 C524 0.746 . S
C716 C140 0.771 1_545 S
C729 C547 0.847 . S
C727 C200 0.919 . S
C738 C20 0.394 . S
C740 C567 0.360 . S
C749 C320 2.060 1_556 S
C751 C499 2.029 . S
C760 C361 1.784 . S
C762 C522 2.001 1_565 S
C773 C545 2.049 . S
C771 C421 1.850 . S
C784 C566 1.895 . S
C782 C271 1.870 . S
C793 C80 2.196 . S
C795 C500 2.071 . S
C806 C523 1.920 . S
C804 C151 2.017 . S
C817 C546 1.940 . S
C815 C181 1.767 . S
C826 C1 1.903 . S
C828 C565 2.174 . S
