# Generated by pormake.
# Topology anh, (6,3)-cn, num edge types: 1
# Building blocks:
#     Node 0, Type 0, BuildingBlock: PAMTOO_clean_sbu_0, # of connection points: 6
#     Node 1, Type 0, BuildingBlock: PAMTOO_clean_sbu_0, # of connection points: 6
#     Node 2, Type 0, BuildingBlock: PAMTOO_clean_sbu_0, # of connection points: 6
#     Node 3, Type 1, BuildingBlock: VETTIZ_charged_linker_0, # of connection points: 3
#     Node 4, Type 1, BuildingBlock: VETTIZ_charged_linker_0, # of connection points: 3
#     Node 5, Type 1, BuildingBlock: VETTIZ_charged_linker_0, # of connection points: 3
#     Node 6, Type 1, BuildingBlock: VETTIZ_charged_linker_0, # of connection points: 3
#     Node 7, Type 1, BuildingBlock: VETTIZ_charged_linker_0, # of connection points: 3
#     Node 8, Type 1, BuildingBlock: VETTIZ_charged_linker_0, # of connection points: 3
#     Edge 9, Type (0, 1), BuildingBlock: EZIPEK_clean_linker_0, # of connection points: 2
#     Edge 10, Type (0, 1), BuildingBlock: EZIPEK_clean_linker_0, # of connection points: 2
#     Edge 11, Type (0, 1), BuildingBlock: EZIPEK_clean_linker_0, # of connection points: 2
#     Edge 12, Type (0, 1), BuildingBlock: EZIPEK_clean_linker_0, # of connection points: 2
#     Edge 13, Type (0, 1), BuildingBlock: EZIPEK_clean_linker_0, # of connection points: 2
#     Edge 14, Type (0, 1), BuildingBlock: EZIPEK_clean_linker_0, # of connection points: 2
#     Edge 15, Type (0, 1), BuildingBlock: EZIPEK_clean_linker_0, # of connection points: 2
#     Edge 16, Type (0, 1), BuildingBlock: EZIPEK_clean_linker_0, # of connection points: 2
#     Edge 17, Type (0, 1), BuildingBlock: EZIPEK_clean_linker_0, # of connection points: 2
#     Edge 18, Type (0, 1), BuildingBlock: EZIPEK_clean_linker_0, # of connection points: 2
#     Edge 19, Type (0, 1), BuildingBlock: EZIPEK_clean_linker_0, # of connection points: 2
#     Edge 20, Type (0, 1), BuildingBlock: EZIPEK_clean_linker_0, # of connection points: 2
#     Edge 21, Type (0, 1), BuildingBlock: EZIPEK_clean_linker_0, # of connection points: 2
#     Edge 22, Type (0, 1), BuildingBlock: EZIPEK_clean_linker_0, # of connection points: 2
#     Edge 23, Type (0, 1), BuildingBlock: EZIPEK_clean_linker_0, # of connection points: 2
#     Edge 24, Type (0, 1), BuildingBlock: EZIPEK_clean_linker_0, # of connection points: 2
#     Edge 25, Type (0, 1), BuildingBlock: EZIPEK_clean_linker_0, # of connection points: 2
#     Edge 26, Type (0, 1), BuildingBlock: EZIPEK_clean_linker_0, # of connection points: 2
# Relax obj value: 0.217
# Max RMSD: 0.211
# Mean RMSD: 0.167
data_MOF--net-anh--node1-PAMTOO_clean_sbu_0--node2-VETTIZ_charged_linker_0--edge1-EZIPEK_clean_linker_0
_symmetry_space_group_name_H-M    P1
_symmetry_Int_Tables_number       1
_symmetry_cell_setting            triclinic
loop_
_symmetry_equiv_pos_as_xyz
'x, y, z'
_cell_length_a     27.461696
_cell_length_b     26.567975
_cell_length_c     53.735854
_cell_angle_alpha  89.594839
_cell_angle_beta   95.610797
_cell_angle_gamma 99.429169
loop_
_atom_site_label
_atom_site_type_symbol
_atom_site_fract_x
_atom_site_fract_y
_atom_site_fract_z
_atom_type_partial_charge
Dy0 Dy 1.08865 0.63977 0.14305 0.0
Dy1 Dy 1.06318 0.51682 0.13402 0.0
C2 C 1.06885 0.59282 0.08891 0.0
O3 O 1.00783 0.62134 0.15021 0.0
O4 O 0.98809 0.54228 0.13115 0.0
O5 O 0.10288 0.71476 0.12717 0.0
O6 O 0.10524 0.70644 0.16733 0.0
O7 O 1.05124 0.53048 0.17362 0.0
O8 O 0.10878 0.60291 0.17915 0.0
O9 O 0.14642 0.53285 0.14367 0.0
O10 O 0.161 0.61768 0.1338 0.0
O11 O 1.06953 0.44004 0.14581 0.0
O12 O 1.02855 0.45302 0.11043 0.0
C13 C 0.97458 0.58239 0.14126 0.0
O14 O 1.05536 0.62563 0.10379 0.0
O15 O 1.08441 0.55171 0.09792 0.0
C16 C 0.16514 0.76927 0.15166 0.0
C17 C 0.26005 0.82881 0.15847 0.0
C18 C 0.25054 0.78777 0.14146 0.0
C19 C 0.20355 0.75793 0.13824 0.0
C20 C 0.17451 0.81068 0.16843 0.0
C21 C 0.22175 0.84021 0.17188 0.0
C22 C 0.11593 0.73705 0.14886 0.0
C23 C 1.08114 0.56353 0.18823 0.0
C24 C 0.17748 0.57456 0.13912 0.0
C25 C 0.99666 0.38163 0.13413 0.0
C26 C 0.91742 0.31369 0.15121 0.0
C27 C 0.90797 0.35249 0.13448 0.0
C28 C 0.94727 0.38648 0.12614 0.0
C29 C 1.0059 0.34159 0.15016 0.0
C30 C 0.96658 0.30801 0.15874 0.0
C31 C 1.03863 0.41954 0.12724 0.0
H32 H 0.27976 0.77835 0.13107 0.0
H33 H 0.19742 0.72575 0.1254 0.0
H34 H 0.14547 0.81978 0.17904 0.0
H35 H 0.22862 0.87168 0.18515 0.0
H36 H 0.87019 0.3573 0.1285 0.0
H37 H 0.93887 0.41711 0.11388 0.0
H38 H 1.0436 0.33709 0.15655 0.0
H39 H 0.97445 0.27817 0.17162 0.0
Dy40 Dy 0.5924 1.01493 0.5024 0.0
Dy41 Dy 0.71405 0.04124 0.50792 0.0
C42 C 0.65409 0.0268 0.55478 0.0
O43 O 0.60917 0.09772 0.49333 0.0
O44 O 0.68741 0.11514 0.51398 0.0
O45 O 0.52497 0.99641 0.52029 0.0
O46 O 0.52143 1.00449 0.48006 0.0
O47 O 0.6874 0.058 0.46874 0.0
O48 O 0.61767 0.99751 0.4658 0.0
O49 O 0.69703 0.95744 0.49944 0.0
O50 O 0.61828 0.94103 0.51207 0.0
O51 O 0.78423 0.04751 0.49203 0.0
O52 O 0.78226 0.06777 0.53084 0.0
C53 C 0.64727 0.13024 0.5032 0.0
O54 O 0.61837 0.04386 0.54102 0.0
O55 O 0.69065 1.01167 0.54458 0.0
C56 C 0.46279 0.94089 0.49605 0.0
C57 C 0.39761 0.84793 0.4887 0.0
C58 C 0.43998 0.85114 0.50583 0.0
C59 C 0.47267 0.89723 0.50931 0.0
C60 C 0.42016 0.93768 0.47915 0.0
C61 C 0.38785 0.89145 0.47543 0.0
C62 C 0.49708 0.98956 0.49916 0.0
C63 C 0.65198 0.02814 0.45531 0.0
C64 C 0.65889 0.92552 0.5063 0.0
C65 C 0.83602 0.12245 0.50711 0.0
C66 C 0.87822 0.21994 0.49194 0.0
C67 C 0.84085 0.2146 0.50816 0.0
C68 C 0.81975 0.16626 0.51563 0.0
C69 C 0.87485 0.12804 0.49164 0.0
C70 C 0.89586 0.17661 0.48405 0.0
C71 C 0.80851 0.07139 0.51175 0.0
H72 H 0.44796 0.81785 0.5162 0.0
H73 H 0.50566 0.89863 0.52228 0.0
H74 H 0.41208 0.97086 0.46871 0.0
H75 H 0.35522 0.88952 0.46217 0.0
H76 H 0.82679 0.24774 0.51429 0.0
H77 H 0.7894 0.16319 0.52729 0.0
H78 H 0.88752 0.09479 0.48465 0.0
H79 H 0.92458 0.18033 0.47139 0.0
Dy80 Dy 0.63654 0.49035 0.83849 0.0
Dy81 Dy 0.51887 0.48824 0.82143 0.0
C82 C 0.59442 0.48897 0.78089 0.0
O83 O 0.62452 0.57052 0.84492 0.0
O84 O 0.55578 0.56922 0.81695 0.0
O85 O 0.71137 0.53018 0.84588 0.0
O86 O 0.6951 0.44867 0.85173 0.0
O87 O 0.53378 0.51575 0.86083 0.0
O88 O 0.59785 0.4734 0.87281 0.0
O89 O 0.52701 0.40748 0.83156 0.0
O90 O 0.60737 0.4127 0.8227 0.0
O91 O 0.44239 0.46218 0.82789 0.0
O92 O 0.45985 0.51463 0.79781 0.0
C93 C 0.5939 0.59441 0.83084 0.0
O94 O 0.63039 0.50836 0.79776 0.0
O95 O 0.55047 0.46816 0.78695 0.0
C96 C 0.77028 0.48228 0.83541 0.0
C97 C 0.84419 0.48667 0.80271 0.0
C98 C 0.79991 0.45225 0.79784 0.0
C99 C 0.76301 0.44995 0.81425 0.0
C100 C 0.81542 0.51477 0.84072 0.0
C101 C 0.85198 0.51702 0.82448 0.0
C102 C 0.7295 0.48828 0.85014 0.0
C103 C 0.56116 0.49579 0.8782 0.0
C104 C 0.56481 0.38548 0.82702 0.0
C105 C 0.40438 0.53553 0.82482 0.0
C106 C 0.3802 0.62416 0.84556 0.0
C107 C 0.40991 0.59426 0.85976 0.0
C108 C 0.42116 0.5501 0.84968 0.0
C109 C 0.37349 0.56456 0.81068 0.0
C110 C 0.36078 0.60829 0.82115 0.0
C111 C 0.42697 0.49647 0.8129 0.0
H112 H 0.79339 0.42866 0.7811 0.0
H113 H 0.72831 0.42437 0.80998 0.0
H114 H 0.82147 0.54028 0.85678 0.0
H115 H 0.88562 0.54432 0.82833 0.0
H116 H 0.425 0.60555 0.87867 0.0
H117 H 0.44486 0.5286 0.86114 0.0
H118 H 0.36071 0.55444 0.79138 0.0
H119 H 0.33722 0.63061 0.81002 0.0
C120 C 0.72446 0.15226 0.18851 0.0
C121 C 0.76863 0.18042 0.19995 0.0
C122 C 0.78026 0.177 0.22591 0.0
C123 C 0.70372 0.11847 0.22895 0.0
C124 C 0.69269 0.12131 0.20335 0.0
C125 C 0.64448 0.08795 0.19439 0.0
H126 H 0.43766 0.93044 0.22314 0.0
C127 C 0.66286 0.08382 0.23903 0.0
C128 C 0.62802 0.06557 0.21889 0.0
H129 H 0.47781 0.97549 0.1496 0.0
H130 H 0.55496 0.02559 0.16791 0.0
H131 H 0.54132 0.90517 0.24273 0.0
H132 H 0.47496 0.03909 0.25054 0.0
H133 H 0.50589 0.02848 0.27979 0.0
H134 H 0.45621 0.98054 0.26645 0.0
H135 H 0.49675 0.90856 0.26466 0.0
H136 H 0.56233 0.92902 0.2729 0.0
C137 C 0.65565 0.04653 0.17662 0.0
C138 C 0.6087 0.1225 0.18225 0.0
C139 C 0.66501 0.05645 0.33285 0.0
C140 C 0.63109 0.02797 0.34754 0.0
C141 C 0.58753 0.99875 0.33603 0.0
C142 C 0.57737 0.99834 0.31002 0.0
C143 C 0.61114 0.0276 0.29542 0.0
C144 C 0.65424 0.05574 0.30683 0.0
C145 C 0.68555 0.08457 0.28827 0.0
C146 C 0.65412 0.06899 0.26385 0.0
C147 C 0.61062 0.0359 0.26823 0.0
C148 C 0.73584 0.0648 0.28992 0.0
C149 C 0.68975 0.14235 0.2939 0.0
C150 C 0.46309 0.95142 0.21107 0.0
C151 C 0.45192 0.94991 0.18507 0.0
C152 C 0.48591 0.97681 0.16975 0.0
C153 C 0.53048 1.00562 0.18042 0.0
C154 C 0.54114 1.00688 0.2066 0.0
C155 C 0.50779 0.97957 0.22136 0.0
C156 C 0.52574 0.98314 0.24865 0.0
C157 C 0.57531 1.01754 0.24799 0.0
C158 C 0.58407 0.03185 0.2234 0.0
C159 C 0.53164 0.92881 0.25795 0.0
C160 C 0.48887 1.00879 0.26229 0.0
H161 H 0.75887 0.14535 0.26018 0.0
H162 H 0.71505 0.15433 0.16852 0.0
H163 H 0.6107 0.15761 0.19373 0.0
H164 H 0.56948 0.10419 0.18085 0.0
H165 H 0.6185 0.13447 0.16328 0.0
H166 H 0.69265 0.03578 0.18223 0.0
H167 H 0.6557 0.06028 0.15705 0.0
H168 H 0.62927 1.01044 0.17713 0.0
H169 H 0.69871 0.07919 0.34148 0.0
H170 H 0.56118 0.9767 0.34728 0.0
H171 H 0.54338 0.97561 0.30234 0.0
H172 H 0.73118 0.02364 0.29484 0.0
H173 H 0.76291 0.08596 0.30445 0.0
H174 H 0.75231 0.06693 0.27191 0.0
H175 H 0.6542 0.15121 0.29964 0.0
H176 H 0.69711 0.16652 0.27747 0.0
H177 H 0.7191 0.1548 0.30935 0.0
H178 H 0.81428 0.19855 0.23489 0.0
C179 C 0.74805 0.14619 0.24048 0.0
C180 C 0.65372 0.66894 0.52039 0.0
C181 C 0.65225 0.71544 0.53258 0.0
C182 C 0.64714 0.71565 0.55833 0.0
C183 C 0.64638 0.62459 0.55993 0.0
C184 C 0.65049 0.62375 0.53449 0.0
C185 C 0.65081 0.57021 0.52512 0.0
H186 H 0.65054 0.31939 0.55467 0.0
C187 C 0.6451 0.57232 0.56949 0.0
C188 C 0.64767 0.5398 0.54927 0.0
H189 H 0.64832 0.38331 0.48069 0.0
H190 H 0.64977 0.46821 0.49827 0.0
H191 H 0.72781 0.41114 0.5837 0.0
H192 H 0.56966 0.37127 0.57042 0.0
H193 H 0.57977 0.40138 0.59979 0.0
H194 H 0.60412 0.34325 0.59533 0.0
H195 H 0.69208 0.35783 0.59785 0.0
H196 H 0.70359 0.42039 0.6121 0.0
C197 C 0.70019 0.56924 0.51378 0.0
C198 C 0.60435 0.5547 0.50645 0.0
C199 C 0.6335 0.54034 0.66235 0.0
C200 C 0.6289 0.49542 0.67646 0.0
C201 C 0.63041 0.44856 0.66482 0.0
C202 C 0.63601 0.44625 0.63931 0.0
C203 C 0.63943 0.49122 0.62518 0.0
C204 C 0.63809 0.53721 0.6367 0.0
C205 C 0.64014 0.58053 0.61848 0.0
C206 C 0.64278 0.55283 0.59409 0.0
C207 C 0.64284 0.50084 0.59826 0.0
C208 C 0.68824 0.61883 0.62599 0.0
C209 C 0.59145 0.60312 0.61853 0.0
C210 C 0.65106 0.35183 0.54228 0.0
C211 C 0.65001 0.34518 0.51646 0.0
C212 C 0.64964 0.38797 0.50076 0.0
C213 C 0.65018 0.43692 0.51099 0.0
C214 C 0.65023 0.44266 0.53707 0.0
C215 C 0.6505 0.40012 0.55207 0.0
C216 C 0.64708 0.41125 0.57899 0.0
C217 C 0.64563 0.46782 0.5781 0.0
C218 C 0.64782 0.48672 0.55361 0.0
C219 C 0.69482 0.39934 0.59415 0.0
C220 C 0.59794 0.38012 0.58676 0.0
H221 H 0.64074 0.67379 0.59162 0.0
H222 H 0.65763 0.66801 0.50055 0.0
H223 H 0.57155 0.56809 0.51316 0.0
H224 H 0.59377 0.51298 0.50425 0.0
H225 H 0.61005 0.57177 0.48781 0.0
H226 H 0.73189 0.58927 0.52638 0.0
H227 H 0.70039 0.58868 0.4954 0.0
H228 H 0.7078 0.53023 0.51125 0.0
H229 H 0.63217 0.57676 0.67098 0.0
H230 H 0.62692 0.41367 0.67554 0.0
H231 H 0.63695 0.40938 0.63159 0.0
H232 H 0.71919 0.59838 0.63278 0.0
H233 H 0.68285 0.64474 0.64126 0.0
H234 H 0.70197 0.64193 0.6102 0.0
H235 H 0.56017 0.57374 0.62344 0.0
H236 H 0.57855 0.6167 0.59992 0.0
H237 H 0.59565 0.63483 0.63233 0.0
H238 H 0.646 0.75112 0.56794 0.0
C239 C 0.64424 0.67069 0.57204 0.0
C240 C 0.26631 0.77519 0.86039 0.0
C241 C 0.30333 0.78596 0.88044 0.0
C242 C 0.28968 0.80273 0.90319 0.0
C243 C 0.20396 0.76991 0.8894 0.0
C244 C 0.2168 0.76524 0.8654 0.0
C245 C 0.17517 0.73639 0.84831 0.0
H246 H 0.96964 0.56167 0.83602 0.0
C247 C 0.15433 0.73937 0.89077 0.0
C248 C 0.1371 0.72032 0.86663 0.0
H249 H 1.05248 0.63268 0.77722 0.0
H250 H 0.10449 0.68983 0.80768 0.0
H251 H 1.05957 0.55298 0.87358 0.0
H252 H 0.96507 0.66748 0.86681 0.0
H253 H 0.975 0.65296 0.89875 0.0
H254 H 0.94477 0.60361 0.87694 0.0
H255 H 0.99885 0.54243 0.88421 0.0
H256 H 1.05275 0.57131 0.90411 0.0
C257 C 0.19359 0.6898 0.8371 0.0
C258 C 0.15731 0.77402 0.82865 0.0
C259 C 0.10213 0.68332 0.97621 0.0
C260 C 1.0656 0.64431 0.9837 0.0
C261 C 1.0308 0.61757 0.96548 0.0
C262 C 1.03309 0.62866 0.94004 0.0
C263 C 1.07131 0.66607 0.93268 0.0
C264 C 0.10475 0.69307 0.95067 0.0
C265 C 0.14437 0.72962 0.93938 0.0
C266 C 0.1294 0.71959 0.91161 0.0
C267 C 1.08653 0.68248 0.90785 0.0
C268 C 0.19604 0.71517 0.94818 0.0
C269 C 0.13905 0.78448 0.94669 0.0
C270 C 0.99859 0.59002 0.82968 0.0
C271 C 1.00671 0.59353 0.80427 0.0
C272 C 1.04542 0.62992 0.79671 0.0
C273 C 1.07524 0.66298 0.81439 0.0
C274 C 1.06706 0.65831 0.83988 0.0
C275 C 1.02871 0.6228 0.84706 0.0
C276 C 1.02553 0.62277 0.87485 0.0
C277 C 1.06824 0.66477 0.88327 0.0
C278 C 1.0928 0.68462 0.86275 0.0
C279 C 1.03424 0.56971 0.88489 0.0
C280 C 0.97488 0.63709 0.8798 0.0
H281 H 0.23106 0.80196 0.9264 0.0
H282 H 0.27571 0.7646 0.84225 0.0
H283 H 0.16397 0.81379 0.83611 0.0
H284 H 0.11681 0.76549 0.82337 0.0
H285 H 0.17708 0.77416 0.81157 0.0
H286 H 0.21841 0.6729 0.85126 0.0
H287 H 0.21471 0.70113 0.82079 0.0
H288 H 0.16386 0.65796 0.83121 0.0
H289 H 0.12942 0.70417 -0.01006 0.0
H290 H 1.00238 0.58745 0.97099 0.0
H291 H 1.00586 0.60664 0.92703 0.0
H292 H 0.19324 0.67962 0.95937 0.0
H293 H 0.2194 0.74559 0.96012 0.0
H294 H 0.2166 0.70738 0.93225 0.0
H295 H 0.09945 0.78957 0.94426 0.0
H296 H 0.15879 0.81358 0.93483 0.0
H297 H 0.15311 0.79277 0.96658 0.0
H298 H 0.31771 0.81679 0.91818 0.0
C299 C 0.23964 0.79387 0.90796 0.0
C300 C 1.01186 0.43087 0.45581 0.0
C301 C 0.96983 0.3972 0.44501 0.0
C302 C 0.96556 0.39105 0.41858 0.0
C303 C 1.03573 0.45776 0.41489 0.0
C304 C 1.04301 0.46136 0.44058 0.0
C305 C 1.08702 0.50076 0.44946 0.0
H306 H 0.26557 0.69406 0.4216 0.0
C307 C 1.07406 0.49539 0.40454 0.0
C308 C 0.1042 0.52085 0.42474 0.0
H309 H 0.2351 0.63599 0.49464 0.0
H310 H 0.17061 0.57 0.47576 0.0
H311 H 0.26146 0.58516 0.39675 0.0
H312 H 0.15367 0.68527 0.39796 0.0
H313 H 0.14858 0.66063 0.36741 0.0
H314 H 0.20626 0.69809 0.38015 0.0
H315 H 0.2629 0.64034 0.37726 0.0
H316 H 0.22761 0.57922 0.36721 0.0
C317 C 0.12611 0.47354 0.46447 0.0
C318 C 1.06821 0.54203 0.46448 0.0
C319 C 1.07455 0.51676 0.31036 0.0
C320 C 0.10408 0.55081 0.2957 0.0
C321 C 0.14252 0.58697 0.30733 0.0
C322 C 0.15152 0.58947 0.3334 0.0
C323 C 0.12154 0.55557 0.34797 0.0
C324 C 1.08379 0.52 0.33646 0.0
C325 C 1.05547 0.48765 0.35507 0.0
C326 C 1.08282 0.50937 0.3796 0.0
C327 C 0.12138 0.54908 0.37525 0.0
C328 C 1.06132 0.43134 0.35103 0.0
C329 C 1.00116 0.49751 0.35181 0.0
C330 C 0.24485 0.66698 0.43341 0.0
C331 C 0.25444 0.67014 0.45949 0.0
C332 C 0.2276 0.63412 0.47447 0.0
C333 C 0.1903 0.59613 0.46347 0.0
C334 C 0.18009 0.59425 0.43727 0.0
C335 C 0.20788 0.62874 0.42274 0.0
C336 C 0.19338 0.62 0.39526 0.0
C337 C 0.15159 0.57509 0.39563 0.0
C338 C 0.14355 0.56054 0.42024 0.0
C339 C 0.23852 0.60576 0.38328 0.0
C340 C 0.17475 0.66843 0.38439 0.0
H341 H 0.9912 0.41495 0.38379 0.0
H342 H 1.02234 0.43372 0.4756 0.0
H343 H 1.03278 0.55117 0.45512 0.0
H344 H 1.09383 0.57866 0.46592 0.0
H345 H 1.06124 0.5286 0.48363 0.0
H346 H 0.12454 0.43404 0.45733 0.0
H347 H 0.11981 0.4709 0.48458 0.0
H348 H 0.16457 0.49243 0.4627 0.0
H349 H 1.04479 0.48866 0.30167 0.0
H350 H 0.16552 0.61336 0.29615 0.0
H351 H 0.1813 0.61792 0.34116 0.0
H352 H 0.09848 0.42879 0.34499 0.0
H353 H 1.03299 0.41252 0.33637 0.0
H354 H 1.05927 0.40872 0.36834 0.0
H355 H 0.99988 0.53858 0.34816 0.0
H356 H 0.98156 0.48878 0.36867 0.0
H357 H 0.97974 0.47521 0.33577 0.0
H358 H 0.93815 0.36192 0.40906 0.0
C359 C 0.99747 0.42135 0.40362 0.0
C360 C 0.60595 0.85345 0.81764 0.0
C361 C 0.60662 0.80611 0.80579 0.0
C362 C 0.60676 0.80468 0.77964 0.0
C363 C 0.60671 0.89563 0.77731 0.0
C364 C 0.60448 0.89754 0.80286 0.0
C365 C 0.5981 0.95032 0.81126 0.0
H366 H 0.58907 0.19891 0.77787 0.0
C367 C 0.60616 0.94728 0.76715 0.0
C368 C 0.60039 0.97997 0.78679 0.0
H369 H 0.56527 0.13355 0.8502 0.0
H370 H 0.57965 0.05094 0.83524 0.0
H371 H 0.6802 0.14405 0.76792 0.0
H372 H 0.52326 0.11175 0.74745 0.0
H373 H 0.55031 0.09381 0.72139 0.0
H374 H 0.56343 0.15938 0.73199 0.0
H375 H 0.64951 0.17827 0.74396 0.0
H376 H 0.67303 0.12084 0.73709 0.0
C377 C 0.64154 0.97117 0.83079 0.0
C378 C 0.54669 0.94607 0.82122 0.0
C379 C 0.63407 0.97887 0.67568 0.0
C380 C 0.63624 0.02283 0.66091 0.0
C381 C 0.63117 0.06947 0.67172 0.0
C382 C 0.62362 0.07235 0.69699 0.0
C383 C 0.62082 0.028 0.71161 0.0
C384 C 0.62609 0.98232 0.70092 0.0
C385 C 0.62106 0.93911 0.71921 0.0
C386 C 0.61254 0.96663 0.74276 0.0
C387 C 0.61241 1.01845 0.7381 0.0
C388 C 0.67079 0.91828 0.72206 0.0
C389 C 0.57522 0.89928 0.70963 0.0
C390 C 0.58695 0.16681 0.79051 0.0
C391 C 0.57623 0.17252 0.81512 0.0
C392 C 0.57354 0.12982 0.83107 0.0
C393 C 0.58159 0.08203 0.82232 0.0
C394 C 0.59153 0.07685 0.79728 0.0
C395 C 0.59395 0.11923 0.78201 0.0
C396 C 0.60315 0.10785 0.75586 0.0
C397 C 0.60526 0.05145 0.75751 0.0
C398 C 0.59901 0.0328 0.78181 0.0
C399 C 0.65385 0.13946 0.75067 0.0
C400 C 0.55811 0.11898 0.73808 0.0
H401 H 0.60785 0.84475 0.7457 0.0
H402 H 0.60566 0.85576 0.83773 0.0
H403 H 0.51829 0.92002 0.80915 0.0
H404 H 0.53302 0.98284 0.82112 0.0
H405 H 0.54753 0.93063 0.8405 0.0
H406 H 0.6775 0.96669 0.8239 0.0
H407 H 0.63834 0.9502 0.84867 0.0
H408 H 0.64351 1.0122 0.8347 0.0
H409 H 0.63763 0.94256 0.6676 0.0
H410 H 0.63271 0.1036 0.66046 0.0
H411 H 0.61987 0.10901 0.70406 0.0
H412 H 0.70271 0.95023 0.72347 0.0
H413 H 0.67419 0.89439 0.70563 0.0
H414 H 0.67589 0.89576 0.73914 0.0
H415 H 0.54857 0.91657 0.69665 0.0
H416 H 0.5532 0.88351 0.72494 0.0
H417 H 0.58628 0.86743 0.69941 0.0
H418 H 0.60713 0.76893 0.77011 0.0
C419 C 0.60718 0.84888 0.76545 0.0
C420 C 0.71787 0.57632 0.14015 0.0
C421 C 0.76077 0.57078 0.12791 0.0
C422 C 0.75426 0.55712 0.10256 0.0
C423 C 0.66556 0.55631 0.10101 0.0
C424 C 0.67002 0.56865 0.12614 0.0
C425 C 0.61855 0.57152 0.13462 0.0
H426 H 0.36742 0.56452 0.09377 0.0
C427 C 0.61303 0.5522 0.09086 0.0
C428 C 0.58391 0.56106 0.11015 0.0
H429 H 0.42795 0.5794 0.17085 0.0
H430 H 0.51168 0.57643 0.15819 0.0
H431 H 0.45403 0.63538 0.06936 0.0
H432 H 0.41788 0.47533 0.08367 0.0
H433 H 0.4443 0.47834 0.05524 0.0
H434 H 0.38829 0.5047 0.05753 0.0
H435 H 0.40425 0.59397 0.05203 0.0
H436 H 0.46624 0.60435 0.04251 0.0
C437 C 0.61814 0.62507 0.14516 0.0
C438 C 0.60635 0.52954 0.15396 0.0
C439 C 0.57412 0.51889 -0.00227 0.0
C440 C 0.53033 0.51461 0.98173 0.0
C441 C 0.48529 0.51798 -0.0086 0.0
C442 C 0.48424 0.52682 0.017 0.0
C443 C 0.52871 0.53188 0.03299 0.0
C444 C 0.57237 0.52731 0.0232 0.0
C445 C 0.61584 0.53343 0.04265 0.0
C446 C 0.5913 0.54283 0.06595 0.0
C447 C 0.54059 0.54212 0.06016 0.0
C448 C 0.65299 0.58088 0.03558 0.0
C449 C 0.63642 0.48219 0.04394 0.0
C450 C 0.39847 0.56771 0.1081 0.0
C451 C 0.39063 0.57265 0.13319 0.0
C452 C 0.43267 0.57591 0.1512 0.0
C453 C 0.48107 0.57387 0.14391 0.0
C454 C 0.48753 0.56746 0.11841 0.0
C455 C 0.44575 0.56416 0.10132 0.0
C456 C 0.45586 0.55322 0.0754 0.0
C457 C 0.51065 0.55127 0.07903 0.0
C458 C 0.53095 0.56024 0.10419 0.0
C459 C 0.4443 0.59868 0.05876 0.0
C460 C 0.42492 0.50045 0.0673 0.0
H461 H 0.70677 0.54 0.06998 0.0
H462 H 0.72161 0.58648 0.15979 0.0
H463 H 0.61032 0.49173 0.14639 0.0
H464 H 0.56792 0.52672 0.15891 0.0
H465 H 0.63192 0.53721 0.17135 0.0
H466 H 0.62951 0.65465 0.13119 0.0
H467 H 0.6443 0.63255 0.16235 0.0
H468 H 0.58076 0.62947 0.14989 0.0
H469 H 0.60913 0.51637 -0.00952 0.0
H470 H 0.45128 0.51485 0.97905 0.0
H471 H 0.44892 0.53 0.02319 0.0
H472 H 0.63349 0.60944 0.02526 0.0
H473 H 0.68012 0.57005 0.02342 0.0
H474 H 0.67325 0.60223 0.05204 0.0
H475 H 0.60692 0.44925 0.03823 0.0
H476 H 0.65044 0.47282 0.06314 0.0
H477 H 0.66625 0.48241 0.03138 0.0
H478 H 0.78598 0.5524 0.09279 0.0
C479 C 0.70765 0.54991 0.08925 0.0
C480 C 0.26883 0.61209 0.15183 0.0
C481 C 0.23271 0.57277 0.13973 0.0
C482 C 0.30137 0.52768 0.13122 0.0
C483 C 0.33736 0.57075 0.13931 0.0
N484 N 0.35347 0.65771 0.15438 0.0
N485 N 0.21755 0.49783 0.11303 0.0
C486 C 0.32058 0.61394 0.14894 0.0
C487 C 0.24979 0.53159 0.12827 0.0
N488 N 0.25422 0.64664 0.16702 0.0
N489 N 0.31654 0.48258 0.12639 0.0
H490 H 0.1804 0.50109 0.10868 0.0
H491 H 0.22903 0.4702 0.10233 0.0
H492 H 0.35373 0.47801 0.12887 0.0
H493 H 0.29192 0.44866 0.12263 0.0
H494 H 0.27925 0.67281 0.17819 0.0
H495 H 0.21747 0.6454 0.17069 0.0
H496 H 0.34247 0.69214 0.15858 0.0
H497 H 0.39133 0.66065 0.15271 0.0
C498 C 0.93107 0.30649 0.49612 0.0
C499 C 0.89568 0.27076 0.48168 0.0
C500 C 0.88994 0.33459 0.44898 0.0
C501 C 0.9339 0.364 0.46055 0.0
N502 N 0.96013 0.3964 0.50223 0.0
N503 N 0.83694 0.2522 0.44506 0.0
C504 C 0.9452 0.35582 0.48639 0.0
C505 C 0.87316 0.28545 0.45842 0.0
N506 N 0.95156 0.29353 0.51895 0.0
N507 N 0.8618 0.35609 0.43086 0.0
H508 H 0.8227 0.2163 0.45166 0.0
H509 H 0.82323 0.25913 0.42681 0.0
H510 H 0.87141 0.39421 0.42581 0.0
H511 H 0.82689 0.33853 0.4232 0.0
H512 H 0.98084 0.31728 0.52897 0.0
H513 H 0.94163 0.25788 0.52695 0.0
H514 H 0.96503 0.39273 0.5216 0.0
H515 H 0.95927 0.43366 0.49608 0.0
C516 C 0.64536 0.67828 0.82045 0.0
C517 C 0.60231 0.65146 0.83019 0.0
C518 C 0.56783 0.7316 0.83136 0.0
C519 C 0.60893 0.757 0.81954 0.0
N520 N 0.69399 0.7602 0.81168 0.0
N521 N 0.52538 0.65252 0.84797 0.0
C522 C 0.65008 0.73199 0.81706 0.0
C523 C 0.56485 0.67848 0.83705 0.0
N524 N 0.68003 0.65207 0.81257 0.0
N525 N 0.53187 0.75824 0.83717 0.0
H526 H 0.5233 0.61451 0.85331 0.0
H527 H 0.49452 0.6679 0.85183 0.0
H528 H 0.53019 0.79535 0.83129 0.0
H529 H 0.50514 0.74515 0.84913 0.0
H530 H 0.70888 0.66862 0.80245 0.0
H531 H 0.67811 0.61275 0.8144 0.0
H532 H 0.72695 0.74555 0.81193 0.0
H533 H 0.69852 0.79974 0.80959 0.0
C534 C 0.88882 0.54115 0.15256 0.0
C535 C 0.91967 0.58329 0.14242 0.0
C536 C 0.84544 0.62484 0.13365 0.0
C537 C 0.81397 0.57937 0.13962 0.0
N538 N 0.80575 0.49285 0.15397 0.0
N539 N 0.92501 0.6633 0.1204 0.0
C540 C 0.83582 0.53736 0.14917 0.0
C541 C 0.89746 0.62508 0.13259 0.0
N542 N 0.91016 0.50522 0.166 0.0
N543 N 0.82506 0.66773 0.12842 0.0
H544 H 0.96234 0.66412 0.11804 0.0
H545 H 0.90981 0.69174 0.11046 0.0
H546 H 0.78722 0.66818 0.12896 0.0
H547 H 0.84602 0.70354 0.12613 0.0
H548 H 0.89018 0.47627 0.17583 0.0
H549 H 0.94846 0.50719 0.16938 0.0
H550 H 0.8187 0.45861 0.15777 0.0
H551 H 0.76722 0.4898 0.15291 0.0
C552 C 0.31432 0.79503 0.49189 0.0
C553 C 0.36296 0.79911 0.48448 0.0
C554 C 0.34288 0.71246 0.46708 0.0
C555 C 0.29238 0.71199 0.47075 0.0
N556 N 0.22845 0.75514 0.48419 0.0
N557 N 0.42283 0.76395 0.46271 0.0
C558 C 0.27763 0.75367 0.48274 0.0
C559 C 0.37733 0.75821 0.47166 0.0
N560 N 0.30345 0.83037 0.50795 0.0
N561 N 0.35783 0.66899 0.4594 0.0
H562 H 0.44908 0.79703 0.4654 0.0
H563 H 0.43311 0.73753 0.45085 0.0
H564 H 0.33339 0.63474 0.45604 0.0
H565 H 0.3949 0.66553 0.4587 0.0
H566 H 0.26999 0.82664 0.51593 0.0
H567 H 0.32971 0.86092 0.51521 0.0
H568 H 0.21537 0.78727 0.4901 0.0
H569 H 0.20021 0.72578 0.47763 0.0
C570 C 0.5254 0.29691 0.81138 0.0
C571 C 0.56111 0.32882 0.82765 0.0
C572 C 0.6031 0.25576 0.83908 0.0
C573 C 0.56699 0.22368 0.82311 0.0
N574 N 0.48662 0.21045 0.79963 0.0
N575 N 0.62411 0.33521 0.86256 0.0
C576 C 0.52563 0.2433 0.81119 0.0
C577 C 0.59685 0.30707 0.84329 0.0
N578 N 0.49334 0.31787 0.79494 0.0
N579 N 0.64475 0.23829 0.84917 0.0
H580 H 0.61915 0.37223 0.86671 0.0
H581 H 0.64753 0.32006 0.87597 0.0
H582 H 0.65068 0.20096 0.84673 0.0
H583 H 0.67505 0.26188 0.85843 0.0
H584 H 0.47044 0.29706 0.7807 0.0
H585 H 0.49237 0.35689 0.79412 0.0
H586 H 0.45342 0.22168 0.79255 0.0
H587 H 0.48571 0.17102 0.79939 0.0
C588 C 0.70228 0.85342 0.52293 0.0
C589 C 0.66169 0.87013 0.50855 0.0
C590 C 0.61737 0.78181 0.50563 0.0
C591 C 0.65835 0.76539 0.51958 0.0
N592 N 0.74479 0.78245 0.53473 0.0
N593 N 0.58734 0.84834 0.48029 0.0
C594 C 0.70263 0.80029 0.52573 0.0
C595 C 0.62133 0.83363 0.49797 0.0
N596 N 0.73845 0.88777 0.53572 0.0
N597 N 0.57396 0.74861 0.50071 0.0
H598 H 0.59018 0.88557 0.4736 0.0
H599 H 0.55944 0.82275 0.47043 0.0
H600 H 0.57024 0.71011 0.50541 0.0
H601 H 0.54095 0.75993 0.49337 0.0
H602 H 0.76567 0.87699 0.54858 0.0
H603 H 0.73875 0.92699 0.5356 0.0
H604 H 0.77942 0.80558 0.53742 0.0
H605 H 0.74588 0.74358 0.53699 0.0
C606 C 0.88526 0.54193 0.77201 0.0
C607 C 0.88236 0.4954 0.78495 0.0
C608 C 0.97227 0.50566 0.79057 0.0
C609 C 0.97321 0.55841 0.78645 0.0
N610 N 0.93441 0.62536 0.7668 0.0
N611 N 0.92099 0.42485 0.79932 0.0
C612 C 0.93119 0.57574 0.77408 0.0
C613 C 0.92554 0.47375 0.79089 0.0
N614 N 0.84301 0.55481 0.76004 0.0
N615 N 1.01592 0.48811 0.79632 0.0
H616 H 0.8862 0.40202 0.79938 0.0
H617 H 0.95076 0.40735 0.80614 0.0
H618 H 1.04988 0.5126 0.79653 0.0
H619 H 1.01861 0.44984 0.79916 0.0
H620 H 0.84207 0.58755 0.74938 0.0
H621 H 0.80931 0.52979 0.75949 0.0
H622 H 0.90402 0.64198 0.76004 0.0
H623 H 0.96817 0.65012 0.76777 0.0
C624 C 0.34991 0.83623 0.17468 0.0
C625 C 0.3106 0.85908 0.16283 0.0
C626 C 0.36503 0.94205 0.16386 0.0
C627 C 0.40495 0.91848 0.17441 0.0
N628 N 0.4387 0.8415 0.18377 0.0
N629 N 0.28363 0.93053 0.14073 0.0
C630 C 0.39841 0.86492 0.17778 0.0
C631 C 0.31909 0.91106 0.15569 0.0
N632 N 0.34052 0.78818 0.18424 0.0
N633 N 0.37008 0.99404 0.16278 0.0
H634 H 0.24971 0.90872 0.13421 0.0
H635 H 0.28968 0.96673 0.13291 0.0
H636 H 0.40307 1.01818 0.1686 0.0
H637 H 0.34047 1.01333 0.15795 0.0
H638 H 0.36692 0.77178 0.19532 0.0
H639 H 0.30517 0.7664 0.18312 0.0
H640 H 0.43665 0.802 0.18413 0.0
H641 H 0.47491 0.86149 0.18589 0.0
C642 C 0.60404 0.20417 0.51181 0.0
C643 C 0.64478 0.18579 0.50269 0.0
C644 C 0.68683 0.27405 0.49825 0.0
C645 C 0.64546 0.29206 0.50674 0.0
N646 N 0.55933 0.27514 0.51417 0.0
N647 N 0.71811 0.20335 0.48061 0.0
C648 C 0.60214 0.25722 0.51085 0.0
C649 C 0.68411 0.22081 0.49382 0.0
N650 N 0.56901 0.17184 0.52314 0.0
N651 N 0.72948 0.30732 0.49553 0.0
H652 H 0.71668 0.16481 0.47648 0.0
H653 H 0.74465 0.2274 0.47164 0.0
H654 H 0.73254 0.34658 0.4982 0.0
H655 H 0.76265 0.29569 0.49212 0.0
H656 H 0.54162 0.18442 0.53243 0.0
H657 H 0.57007 0.1331 0.52563 0.0
H658 H 0.52534 0.25142 0.51501 0.0
H659 H 0.55692 0.31395 0.51344 0.0
C660 C 0.34666 0.6677 0.87961 0.0
C661 C 0.36935 0.67145 0.85695 0.0
C662 C 0.37171 0.76434 0.85756 0.0
C663 C 0.34684 0.75914 0.87956 0.0
N664 N 0.33864 0.71131 0.91771 0.0
N665 N 0.41337 0.72466 0.82693 0.0
C666 C 0.34411 0.71271 0.89277 0.0
C667 C 0.38547 0.72038 0.84677 0.0
N668 N 0.3251 0.62148 0.88801 0.0
N669 N 0.37868 0.8109 0.84639 0.0
H670 H 0.4251 0.69351 0.81906 0.0
H671 H 0.42814 0.75935 0.8194 0.0
H672 H 0.36981 0.84303 0.8549 0.0
H673 H 0.39152 0.81744 0.82888 0.0
H674 H 0.30421 0.61793 0.90332 0.0
H675 H 0.32323 0.58744 0.87816 0.0
H676 H 0.33888 0.67819 0.92823 0.0
H677 H 0.34159 0.74428 0.92845 0.0
C678 C 0.84803 0.30043 0.17898 0.0
C679 C 0.87597 0.28009 0.16178 0.0
C680 C 0.83261 0.19384 0.16903 0.0
C681 C 0.80281 0.21461 0.18511 0.0
N682 N 0.77377 0.28811 0.20068 0.0
N683 N 0.88753 0.20967 0.13615 0.0
C684 C 0.80788 0.26813 0.18857 0.0
C685 C 0.86595 0.2274 0.15546 0.0
N686 N 0.8613 0.34988 0.18712 0.0
N687 N 0.8307 0.14219 0.16756 0.0
H688 H 0.91181 0.23335 0.12567 0.0
H689 H 0.87786 0.17264 0.12904 0.0
H690 H 0.80675 0.11628 0.17719 0.0
H691 H 0.85555 0.12517 0.15837 0.0
H692 H 0.84559 0.36502 0.20166 0.0
H693 H 0.89107 0.37474 0.18097 0.0
H694 H 0.77267 0.32705 0.20155 0.0
H695 H 0.74358 0.2655 0.20777 0.0
C696 C 0.10957 0.60169 0.0487 0.0
C697 C 1.06717 0.60329 0.06168 0.0
C698 C 1.02522 0.63603 0.02405 0.0
C699 C 1.06557 0.62947 0.01048 0.0
N700 N 0.14083 0.59423 0.00857 0.0
N701 N 0.98032 0.6105 0.05987 0.0
C702 C 0.10617 0.60868 0.02241 0.0
C703 C 1.02368 0.61718 0.04883 0.0
N704 N 0.15392 0.5963 0.06152 0.0
N705 N 0.98921 0.6618 0.01364 0.0
H706 H 0.977 0.59468 0.07757 0.0
H707 H 0.94647 0.61546 0.05044 0.0
H708 H 0.98943 0.67695 -0.00431 0.0
H709 H 0.96178 0.67228 0.02367 0.0
H710 H 0.18698 0.60018 0.05315 0.0
H711 H 0.15901 0.59339 0.08091 0.0
H712 H 0.16832 0.57413 0.01604 0.0
H713 H 0.13914 0.59759 -0.01084 0.0
C714 C 0.63833 0.07355 0.41489 0.0
C715 C 0.65005 0.02955 0.42778 0.0
C716 C 0.65669 0.98792 0.38796 0.0
C717 C 0.64009 0.0297 0.37513 0.0
N718 N 0.60958 0.10975 0.3757 0.0
N719 N 0.6675 0.94345 0.42718 0.0
C720 C 0.62979 0.07208 0.38839 0.0
C721 C 0.65837 0.98626 0.41447 0.0
N722 N 0.63518 0.11672 0.42795 0.0
N723 N 0.67218 0.95064 0.37477 0.0
H724 H 0.67238 0.94184 0.44664 0.0
H725 H 0.66768 0.90854 0.41855 0.0
H726 H 0.67131 0.95071 0.35531 0.0
H727 H 0.68954 0.92186 0.38304 0.0
H728 H 0.63302 0.15187 0.41961 0.0
H729 H 0.638 0.11859 0.44739 0.0
H730 H 0.59561 0.13848 0.38437 0.0
H731 H 0.60327 0.1104 0.35625 0.0
C732 C 0.64527 0.47317 0.74631 0.0
C733 C 0.60362 0.49165 0.75422 0.0
C734 C 0.57678 0.51003 0.71083 0.0
C735 C 0.62118 0.49665 0.70335 0.0
N736 N 0.70308 0.4769 0.7149 0.0
N737 N 0.53662 0.53959 0.74469 0.0
C738 C 0.65718 0.48177 0.7214 0.0
C739 C 0.57126 0.51355 0.73669 0.0
N740 N 0.6719 0.445 0.76212 0.0
N741 N 0.53905 0.51744 0.69335 0.0
H742 H 0.53272 0.545 0.76354 0.0
H743 H 0.51547 0.56047 0.73272 0.0
H744 H 0.54096 0.5141 0.67417 0.0
H745 H 0.50406 0.52205 0.69799 0.0
H746 H 0.69983 0.42668 0.75651 0.0
H747 H 0.66236 0.43517 0.78002 0.0
H748 H 0.73223 0.47099 0.72795 0.0
H749 H 0.71348 0.48391 0.69688 0.0
C750 C 0.68975 0.05038 0.59876 0.0
C751 C 0.65162 0.02277 0.58208 0.0
C752 C 0.60294 0.99569 0.61705 0.0
C753 C 0.64253 0.02032 0.63389 0.0
N754 N 0.72761 0.0618 0.64144 0.0
N755 N 0.57791 0.9591 0.57577 0.0
C756 C 0.68726 0.0448 0.62493 0.0
C757 C 0.60992 0.99242 0.59135 0.0
N758 N 0.72698 0.08386 0.58966 0.0
N759 N 0.55801 0.97724 0.62538 0.0
H760 H 0.58271 0.95444 0.55697 0.0
H761 H 0.54966 0.9324 0.58202 0.0
H762 H 0.55112 0.97912 0.64407 0.0
H763 H 0.52634 0.96409 0.61344 0.0
H764 H 0.75275 0.10905 0.60098 0.0
H765 H 0.7296 0.08982 0.57061 0.0
H766 H 0.76268 0.07529 0.63594 0.0
H767 H 0.72716 0.05799 0.66076 0.0
C768 C 0.55472 0.54933 0.9154 0.0
C769 C 0.55124 0.50023 0.90447 0.0
C770 C 0.53194 0.45997 0.94421 0.0
C771 C 0.53278 0.509 0.95464 0.0
N772 N 0.53579 0.59967 0.94949 0.0
N773 N 0.52752 0.40884 0.90663 0.0
C774 C 0.541 0.55347 0.93994 0.0
C775 C 0.53734 0.45544 0.91836 0.0
N776 N 0.57402 0.59187 0.90293 0.0
N777 N 0.52702 0.41794 0.95917 0.0
H778 H 0.53065 0.40402 0.88764 0.0
H779 H 0.51227 0.37541 0.91515 0.0
H780 H 0.52064 0.41959 0.97795 0.0
H781 H 0.53218 0.38201 0.95342 0.0
H782 H 0.58232 0.62822 0.91093 0.0
H783 H 0.58636 0.59036 0.8853 0.0
H784 H 0.53567 0.63242 0.93873 0.0
H785 H 0.52741 0.60454 0.96775 0.0
C786 C 1.04679 0.56838 0.2294 0.0
C787 C 1.08462 0.55593 0.21553 0.0
C788 C 0.12975 0.53081 0.25396 0.0
C789 C 1.09518 0.5492 0.26805 0.0
N790 N 1.02369 0.59066 0.2698 0.0
N791 N 0.16396 0.52878 0.21414 0.0
C792 C 1.05415 0.56896 0.25595 0.0
C793 C 0.12665 0.53805 0.22768 0.0
N794 N 1.00391 0.57973 0.21721 0.0
N795 N 0.16466 0.50516 0.2657 0.0
H796 H 0.16194 0.53117 0.19471 0.0
H797 H 0.19818 0.52172 0.22222 0.0
H798 H 0.16765 0.49882 0.28494 0.0
H799 H 0.18776 0.48627 0.25625 0.0
H800 H 0.9727 0.58336 0.22616 0.0
H801 H 0.99802 0.5818 0.1978 0.0
H802 H 0.99669 0.61102 0.26205 0.0
H803 H 1.02773 0.59178 0.2893 0.0
loop_
_geom_bond_atom_site_label_1
_geom_bond_atom_site_label_2
_geom_bond_distance
_geom_bond_site_symmetry_2
_ccdc_geom_bond_type
Dy0 O3 2.307 1_455 S
Dy0 O5 2.395 . S
Dy0 O6 2.379 . S
Dy0 O8 2.339 . S
Dy0 O10 2.298 . S
Dy0 O14 2.275 . S
Dy0 C22 2.738 . S
Dy1 O4 2.298 . S
Dy1 O7 2.276 . S
Dy1 O9 2.307 1_655 S
Dy1 O11 2.395 . S
Dy1 O12 2.379 . S
Dy1 O15 2.339 . S
Dy1 C31 2.738 . S
C2 O14 1.254 . S
C2 O15 1.257 1_455 S
O3 Dy0 2.307 1_655 S
O3 C13 1.266 . S
O4 Dy1 2.298 . S
O4 C13 1.236 . S
O5 Dy0 2.395 . S
O5 C22 1.255 . S
O6 Dy0 2.379 . S
O6 C22 1.249 . S
O7 Dy1 2.276 . S
O7 C23 1.254 1_655 S
O8 Dy0 2.339 . S
O8 C23 1.257 . S
O9 Dy1 2.307 1_455 S
O9 C24 1.266 . S
O10 Dy0 2.298 . S
O10 C24 1.236 . S
O11 Dy1 2.395 . S
O11 C31 1.255 . S
O12 Dy1 2.379 . S
O12 C31 1.249 . S
C13 O3 1.266 . S
C13 O4 1.236 . S
O14 Dy0 2.275 . S
O14 C2 1.254 . S
O15 Dy1 2.339 . S
O15 C2 1.257 1_655 S
C16 C19 1.344 . S
C16 C20 1.328 . S
C16 C22 1.516 . S
C17 C18 1.304 . S
C17 C21 1.323 . S
C18 C17 1.304 . S
C18 C19 1.371 . S
C18 H32 0.930 . S
C19 C16 1.344 . S
C19 C18 1.371 . S
C19 H33 0.931 . S
C20 C16 1.328 . S
C20 C21 1.433 . S
C20 H34 0.931 . S
C21 C17 1.323 . S
C21 C20 1.433 . S
C21 H35 0.933 . S
C22 Dy0 2.738 . S
C22 O5 1.255 . S
C22 O6 1.249 . S
C22 C16 1.516 . S
C23 O7 1.254 1_455 S
C23 O8 1.257 . S
C24 O9 1.266 . S
C24 O10 1.236 . S
C25 C28 1.344 . S
C25 C29 1.328 . S
C25 C31 1.516 . S
C26 C27 1.304 . S
C26 C30 1.323 . S
C27 C26 1.304 . S
C27 C28 1.371 . S
C27 H36 0.930 . S
C28 C25 1.344 . S
C28 C27 1.371 . S
C28 H37 0.931 . S
C29 C25 1.328 . S
C29 C30 1.433 . S
C29 H38 0.931 . S
C30 C26 1.323 . S
C30 C29 1.433 . S
C30 H39 0.933 . S
C31 Dy1 2.738 . S
C31 O11 1.255 . S
C31 O12 1.249 . S
C31 C25 1.516 . S
H32 C18 0.930 . S
H33 C19 0.931 . S
H34 C20 0.931 . S
H35 C21 0.933 . S
H36 C27 0.930 . S
H37 C28 0.931 . S
H38 C29 0.931 . S
H39 C30 0.933 . S
Dy40 O43 2.307 1_565 S
Dy40 O45 2.395 . S
Dy40 O46 2.379 . S
Dy40 O48 2.339 1_565 S
Dy40 O50 2.298 . S
Dy40 O54 2.275 1_565 S
Dy40 C62 2.738 . S
Dy41 O44 2.298 . S
Dy41 O47 2.275 . S
Dy41 O49 2.307 1_545 S
Dy41 O51 2.395 . S
Dy41 O52 2.379 . S
Dy41 O55 2.339 . S
Dy41 C71 2.738 . S
C42 O54 1.254 . S
C42 O55 1.257 . S
O43 Dy40 2.307 1_545 S
O43 C53 1.266 . S
O44 Dy41 2.298 . S
O44 C53 1.236 . S
O45 Dy40 2.395 . S
O45 C62 1.255 . S
O46 Dy40 2.379 . S
O46 C62 1.249 . S
O47 Dy41 2.275 . S
O47 C63 1.254 . S
O48 Dy40 2.339 1_545 S
O48 C63 1.257 . S
O49 Dy41 2.307 1_565 S
O49 C64 1.266 . S
O50 Dy40 2.298 . S
O50 C64 1.236 . S
O51 Dy41 2.395 . S
O51 C71 1.255 . S
O52 Dy41 2.379 . S
O52 C71 1.249 . S
C53 O43 1.266 . S
C53 O44 1.236 . S
O54 Dy40 2.275 1_545 S
O54 C42 1.254 . S
O55 Dy41 2.339 . S
O55 C42 1.257 . S
C56 C59 1.344 . S
C56 C60 1.328 . S
C56 C62 1.516 . S
C57 C58 1.304 . S
C57 C61 1.323 . S
C58 C57 1.304 . S
C58 C59 1.371 . S
C58 H72 0.930 . S
C59 C56 1.344 . S
C59 C58 1.371 . S
C59 H73 0.931 . S
C60 C56 1.328 . S
C60 C61 1.433 . S
C60 H74 0.931 . S
C61 C57 1.323 . S
C61 C60 1.433 . S
C61 H75 0.933 . S
C62 Dy40 2.738 . S
C62 O45 1.255 . S
C62 O46 1.249 . S
C62 C56 1.516 . S
C63 O47 1.254 . S
C63 O48 1.257 . S
C64 O49 1.266 . S
C64 O50 1.236 . S
C65 C68 1.344 . S
C65 C69 1.328 . S
C65 C71 1.516 . S
C66 C67 1.304 . S
C66 C70 1.323 . S
C67 C66 1.304 . S
C67 C68 1.371 . S
C67 H76 0.930 . S
C68 C65 1.344 . S
C68 C67 1.371 . S
C68 H77 0.931 . S
C69 C65 1.328 . S
C69 C70 1.433 . S
C69 H78 0.931 . S
C70 C66 1.323 . S
C70 C69 1.433 . S
C70 H79 0.933 . S
C71 Dy41 2.738 . S
C71 O51 1.255 . S
C71 O52 1.249 . S
C71 C65 1.516 . S
H72 C58 0.930 . S
H73 C59 0.931 . S
H74 C60 0.931 . S
H75 C61 0.933 . S
H76 C67 0.930 . S
H77 C68 0.931 . S
H78 C69 0.931 . S
H79 C70 0.933 . S
Dy80 O83 2.307 . S
Dy80 O85 2.395 . S
Dy80 O86 2.379 . S
Dy80 O88 2.339 . S
Dy80 O90 2.298 . S
Dy80 O94 2.275 . S
Dy80 C102 2.738 . S
Dy81 O84 2.298 . S
Dy81 O87 2.275 . S
Dy81 O89 2.307 . S
Dy81 O91 2.395 . S
Dy81 O92 2.379 . S
Dy81 O95 2.339 . S
Dy81 C111 2.738 . S
C82 O94 1.254 . S
C82 O95 1.257 . S
O83 Dy80 2.307 . S
O83 C93 1.266 . S
O84 Dy81 2.298 . S
O84 C93 1.236 . S
O85 Dy80 2.395 . S
O85 C102 1.255 . S
O86 Dy80 2.379 . S
O86 C102 1.249 . S
O87 Dy81 2.275 . S
O87 C103 1.254 . S
O88 Dy80 2.339 . S
O88 C103 1.257 . S
O89 Dy81 2.307 . S
O89 C104 1.266 . S
O90 Dy80 2.298 . S
O90 C104 1.236 . S
O91 Dy81 2.395 . S
O91 C111 1.255 . S
O92 Dy81 2.379 . S
O92 C111 1.249 . S
C93 O83 1.266 . S
C93 O84 1.236 . S
O94 Dy80 2.275 . S
O94 C82 1.254 . S
O95 Dy81 2.339 . S
O95 C82 1.257 . S
C96 C99 1.344 . S
C96 C100 1.328 . S
C96 C102 1.516 . S
C97 C98 1.304 . S
C97 C101 1.323 . S
C98 C97 1.304 . S
C98 C99 1.371 . S
C98 H112 0.930 . S
C99 C96 1.344 . S
C99 C98 1.371 . S
C99 H113 0.931 . S
C100 C96 1.328 . S
C100 C101 1.433 . S
C100 H114 0.931 . S
C101 C97 1.323 . S
C101 C100 1.433 . S
C101 H115 0.933 . S
C102 Dy80 2.738 . S
C102 O85 1.255 . S
C102 O86 1.249 . S
C102 C96 1.516 . S
C103 O87 1.254 . S
C103 O88 1.257 . S
C104 O89 1.266 . S
C104 O90 1.236 . S
C105 C108 1.344 . S
C105 C109 1.328 . S
C105 C111 1.516 . S
C106 C107 1.304 . S
C106 C110 1.323 . S
C107 C106 1.304 . S
C107 C108 1.371 . S
C107 H116 0.930 . S
C108 C105 1.344 . S
C108 C107 1.371 . S
C108 H117 0.931 . S
C109 C105 1.328 . S
C109 C110 1.433 . S
C109 H118 0.931 . S
C110 C106 1.323 . S
C110 C109 1.433 . S
C110 H119 0.933 . S
C111 Dy81 2.738 . S
C111 O91 1.255 . S
C111 O92 1.249 . S
C111 C105 1.516 . S
H112 C98 0.930 . S
H113 C99 0.931 . S
H114 C100 0.931 . S
H115 C101 0.933 . S
H116 C107 0.930 . S
H117 C108 0.931 . S
H118 C109 0.931 . S
H119 C110 0.933 . S
C120 C121 1.391 . S
C120 C124 1.391 . S
C120 H162 0.948 . S
C121 C120 1.391 . S
C121 C122 1.391 . S
C122 C121 1.391 . S
C122 H178 0.947 . S
C122 C179 1.392 . S
C123 C124 1.391 . S
C123 C127 1.397 . S
C123 C179 1.419 . S
C124 C120 1.391 . S
C124 C123 1.391 . S
C124 C125 1.399 . S
C125 C124 1.399 . S
C125 C128 1.396 . S
C125 C137 1.453 . S
C125 C138 1.684 . S
H126 C150 0.948 . S
C127 C123 1.397 . S
C127 C128 1.394 . S
C127 C146 1.723 . S
C128 C125 1.396 . S
C128 C127 1.394 . S
C128 C158 1.723 . S
H129 C152 0.947 . S
H130 C153 0.948 1_545 S
H131 C159 0.982 . S
H132 C160 0.979 1_545 S
H133 C160 0.980 . S
H134 C160 0.983 . S
H135 C159 0.979 . S
H136 C159 0.977 . S
C137 C125 1.453 . S
C137 H166 0.982 . S
C137 H167 0.979 . S
C137 H168 0.977 . S
C138 C125 1.684 . S
C138 H163 0.979 . S
C138 H164 0.980 . S
C138 H165 0.983 . S
C139 C140 1.391 . S
C139 C144 1.391 . S
C139 H169 0.948 . S
C140 C139 1.391 . S
C140 C141 1.391 . S
C141 C140 1.391 . S
C141 C142 1.392 . S
C141 H170 0.947 1_545 S
C142 C141 1.392 . S
C142 C143 1.419 . S
C142 H171 0.948 1_545 S
C143 C142 1.419 . S
C143 C144 1.391 . S
C143 C147 1.397 . S
C144 C139 1.391 . S
C144 C143 1.391 . S
C144 C145 1.399 . S
C145 C144 1.399 . S
C145 C146 1.396 . S
C145 C148 1.453 . S
C145 C149 1.684 . S
C146 C127 1.723 . S
C146 C145 1.396 . S
C146 C147 1.394 . S
C147 C143 1.397 . S
C147 C146 1.394 . S
C147 C157 1.723 . S
C148 C145 1.453 . S
C148 H172 0.982 . S
C148 H173 0.979 . S
C148 H174 0.977 . S
C149 C145 1.684 . S
C149 H175 0.979 . S
C149 H176 0.980 . S
C149 H177 0.983 . S
C150 H126 0.948 . S
C150 C151 1.391 . S
C150 C155 1.391 . S
C151 C150 1.391 . S
C151 C152 1.391 . S
C152 H129 0.947 . S
C152 C151 1.391 . S
C152 C153 1.392 . S
C153 H130 0.948 1_565 S
C153 C152 1.392 . S
C153 C154 1.419 . S
C154 C153 1.419 . S
C154 C155 1.391 . S
C154 C158 1.397 1_565 S
C155 C150 1.391 . S
C155 C154 1.391 . S
C155 C156 1.399 . S
C156 C155 1.399 . S
C156 C157 1.396 1_565 S
C156 C159 1.453 . S
C156 C160 1.684 . S
C157 C147 1.723 . S
C157 C156 1.396 1_545 S
C157 C158 1.394 . S
C158 C128 1.723 . S
C158 C154 1.397 1_545 S
C158 C157 1.394 . S
C159 H131 0.982 . S
C159 H135 0.979 . S
C159 H136 0.977 . S
C159 C156 1.453 . S
C160 H132 0.979 1_565 S
C160 H133 0.980 . S
C160 H134 0.983 . S
C160 C156 1.684 . S
H161 C179 0.948 . S
H162 C120 0.948 . S
H163 C138 0.979 . S
H164 C138 0.980 . S
H165 C138 0.983 . S
H166 C137 0.982 . S
H167 C137 0.979 . S
H168 C137 0.977 . S
H169 C139 0.948 . S
H170 C141 0.947 1_565 S
H171 C142 0.948 1_565 S
H172 C148 0.982 . S
H173 C148 0.979 . S
H174 C148 0.977 . S
H175 C149 0.979 . S
H176 C149 0.980 . S
H177 C149 0.983 . S
H178 C122 0.947 . S
C179 C122 1.392 . S
C179 C123 1.419 . S
C179 H161 0.948 . S
C180 C181 1.391 . S
C180 C184 1.391 . S
C180 H222 0.948 . S
C181 C180 1.391 . S
C181 C182 1.391 . S
C182 C181 1.391 . S
C182 H238 0.947 . S
C182 C239 1.392 . S
C183 C184 1.391 . S
C183 C187 1.397 . S
C183 C239 1.419 . S
C184 C180 1.391 . S
C184 C183 1.391 . S
C184 C185 1.399 . S
C185 C184 1.399 . S
C185 C188 1.396 . S
C185 C197 1.453 . S
C185 C198 1.684 . S
H186 C210 0.948 . S
C187 C183 1.397 . S
C187 C188 1.394 . S
C187 C206 1.723 . S
C188 C185 1.396 . S
C188 C187 1.394 . S
C188 C218 1.723 . S
H189 C212 0.947 . S
H190 C213 0.948 . S
H191 C219 0.982 . S
H192 C220 0.979 . S
H193 C220 0.980 . S
H194 C220 0.983 . S
H195 C219 0.979 . S
H196 C219 0.977 . S
C197 C185 1.453 . S
C197 H226 0.982 . S
C197 H227 0.979 . S
C197 H228 0.977 . S
C198 C185 1.684 . S
C198 H223 0.979 . S
C198 H224 0.980 . S
C198 H225 0.983 . S
C199 C200 1.391 . S
C199 C204 1.391 . S
C199 H229 0.948 . S
C200 C199 1.391 . S
C200 C201 1.391 . S
C201 C200 1.391 . S
C201 C202 1.392 . S
C201 H230 0.947 . S
C202 C201 1.392 . S
C202 C203 1.419 . S
C202 H231 0.948 . S
C203 C202 1.419 . S
C203 C204 1.391 . S
C203 C207 1.397 . S
C204 C199 1.391 . S
C204 C203 1.391 . S
C204 C205 1.399 . S
C205 C204 1.399 . S
C205 C206 1.396 . S
C205 C208 1.453 . S
C205 C209 1.684 . S
C206 C187 1.723 . S
C206 C205 1.396 . S
C206 C207 1.394 . S
C207 C203 1.397 . S
C207 C206 1.394 . S
C207 C217 1.723 . S
C208 C205 1.453 . S
C208 H232 0.982 . S
C208 H233 0.979 . S
C208 H234 0.977 . S
C209 C205 1.684 . S
C209 H235 0.979 . S
C209 H236 0.980 . S
C209 H237 0.983 . S
C210 H186 0.948 . S
C210 C211 1.391 . S
C210 C215 1.391 . S
C211 C210 1.391 . S
C211 C212 1.391 . S
C212 H189 0.947 . S
C212 C211 1.391 . S
C212 C213 1.392 . S
C213 H190 0.948 . S
C213 C212 1.392 . S
C213 C214 1.419 . S
C214 C213 1.419 . S
C214 C215 1.391 . S
C214 C218 1.397 . S
C215 C210 1.391 . S
C215 C214 1.391 . S
C215 C216 1.399 . S
C216 C215 1.399 . S
C216 C217 1.396 . S
C216 C219 1.453 . S
C216 C220 1.684 . S
C217 C207 1.723 . S
C217 C216 1.396 . S
C217 C218 1.394 . S
C218 C188 1.723 . S
C218 C214 1.397 . S
C218 C217 1.394 . S
C219 H191 0.982 . S
C219 H195 0.979 . S
C219 H196 0.977 . S
C219 C216 1.453 . S
C220 H192 0.979 . S
C220 H193 0.980 . S
C220 H194 0.983 . S
C220 C216 1.684 . S
H221 C239 0.948 . S
H222 C180 0.948 . S
H223 C198 0.979 . S
H224 C198 0.980 . S
H225 C198 0.983 . S
H226 C197 0.982 . S
H227 C197 0.979 . S
H228 C197 0.977 . S
H229 C199 0.948 . S
H230 C201 0.947 . S
H231 C202 0.948 . S
H232 C208 0.982 . S
H233 C208 0.979 . S
H234 C208 0.977 . S
H235 C209 0.979 . S
H236 C209 0.980 . S
H237 C209 0.983 . S
H238 C182 0.947 . S
C239 C182 1.392 . S
C239 C183 1.419 . S
C239 H221 0.948 . S
C240 C241 1.391 . S
C240 C244 1.391 . S
C240 H282 0.948 . S
C241 C240 1.391 . S
C241 C242 1.391 . S
C242 C241 1.391 . S
C242 H298 0.947 . S
C242 C299 1.392 . S
C243 C244 1.391 . S
C243 C247 1.397 . S
C243 C299 1.419 . S
C244 C240 1.391 . S
C244 C243 1.391 . S
C244 C245 1.399 . S
C245 C244 1.399 . S
C245 C248 1.396 . S
C245 C257 1.453 . S
C245 C258 1.684 . S
H246 C270 0.948 . S
C247 C243 1.397 . S
C247 C248 1.394 . S
C247 C266 1.723 . S
C248 C245 1.396 . S
C248 C247 1.394 . S
C248 C278 1.723 1_455 S
H249 C272 0.947 . S
H250 C273 0.948 . S
H251 C279 0.982 . S
H252 C280 0.979 . S
H253 C280 0.980 . S
H254 C280 0.983 . S
H255 C279 0.979 . S
H256 C279 0.977 . S
C257 C245 1.453 . S
C257 H286 0.982 . S
C257 H287 0.979 . S
C257 H288 0.977 1_455 S
C258 C245 1.684 . S
C258 H283 0.979 . S
C258 H284 0.980 . S
C258 H285 0.983 . S
C259 C260 1.391 . S
C259 C264 1.391 1_554 S
C259 H289 0.948 . S
C260 C259 1.391 . S
C260 C261 1.391 1_455 S
C261 C260 1.391 1_655 S
C261 C262 1.392 1_554 S
C261 H290 0.947 . S
C262 C261 1.392 1_556 S
C262 C263 1.419 1_655 S
C262 H291 0.948 . S
C263 C262 1.419 1_455 S
C263 C264 1.391 . S
C263 C267 1.397 . S
C264 C259 1.391 1_556 S
C264 C263 1.391 . S
C264 C265 1.399 . S
C265 C264 1.399 . S
C265 C266 1.396 . S
C265 C268 1.453 . S
C265 C269 1.684 . S
C266 C247 1.723 . S
C266 C265 1.396 . S
C266 C267 1.394 . S
C267 C263 1.397 . S
C267 C266 1.394 . S
C267 C277 1.723 1_455 S
C268 C265 1.453 . S
C268 H292 0.982 . S
C268 H293 0.979 . S
C268 H294 0.977 . S
C269 C265 1.684 . S
C269 H295 0.979 . S
C269 H296 0.980 . S
C269 H297 0.983 . S
C270 H246 0.948 . S
C270 C271 1.391 . S
C270 C275 1.391 . S
C271 C270 1.391 . S
C271 C272 1.391 . S
C272 H249 0.947 . S
C272 C271 1.391 . S
C272 C273 1.392 . S
C273 H250 0.948 . S
C273 C272 1.392 . S
C273 C274 1.419 . S
C274 C273 1.419 . S
C274 C275 1.391 . S
C274 C278 1.397 . S
C275 C270 1.391 . S
C275 C274 1.391 . S
C275 C276 1.399 . S
C276 C275 1.399 . S
C276 C277 1.396 . S
C276 C279 1.453 . S
C276 C280 1.684 . S
C277 C267 1.723 1_655 S
C277 C276 1.396 . S
C277 C278 1.394 . S
C278 C248 1.723 1_655 S
C278 C274 1.397 . S
C278 C277 1.394 . S
C279 H251 0.982 . S
C279 H255 0.979 . S
C279 H256 0.977 . S
C279 C276 1.453 . S
C280 H252 0.979 . S
C280 H253 0.980 . S
C280 H254 0.983 . S
C280 C276 1.684 . S
H281 C299 0.948 . S
H282 C240 0.948 . S
H283 C258 0.979 . S
H284 C258 0.980 . S
H285 C258 0.983 . S
H286 C257 0.982 . S
H287 C257 0.979 . S
H288 C257 0.977 1_655 S
H289 C259 0.948 . S
H290 C261 0.947 . S
H291 C262 0.948 . S
H292 C268 0.982 . S
H293 C268 0.979 . S
H294 C268 0.977 . S
H295 C269 0.979 . S
H296 C269 0.980 . S
H297 C269 0.983 . S
H298 C242 0.947 . S
C299 C242 1.392 . S
C299 C243 1.419 . S
C299 H281 0.948 . S
C300 C301 1.391 . S
C300 C304 1.391 . S
C300 H342 0.948 . S
C301 C300 1.391 . S
C301 C302 1.391 . S
C302 C301 1.391 . S
C302 H358 0.947 . S
C302 C359 1.392 . S
C303 C304 1.391 . S
C303 C307 1.397 . S
C303 C359 1.419 . S
C304 C300 1.391 . S
C304 C303 1.391 . S
C304 C305 1.399 . S
C305 C304 1.399 . S
C305 C308 1.396 1_655 S
C305 C317 1.453 1_655 S
C305 C318 1.684 . S
H306 C330 0.948 . S
C307 C303 1.397 . S
C307 C308 1.394 1_655 S
C307 C326 1.723 . S
C308 C305 1.396 1_455 S
C308 C307 1.394 1_455 S
C308 C338 1.723 . S
H309 C332 0.947 . S
H310 C333 0.948 . S
H311 C339 0.982 . S
H312 C340 0.979 . S
H313 C340 0.980 . S
H314 C340 0.983 . S
H315 C339 0.979 . S
H316 C339 0.977 . S
C317 C305 1.453 1_455 S
C317 H346 0.982 . S
C317 H347 0.979 . S
C317 H348 0.977 . S
C318 C305 1.684 . S
C318 H343 0.979 . S
C318 H344 0.980 1_655 S
C318 H345 0.983 . S
C319 C320 1.391 . S
C319 C324 1.391 . S
C319 H349 0.948 . S
C320 C319 1.391 . S
C320 C321 1.391 1_655 S
C321 C320 1.391 1_455 S
C321 C322 1.392 . S
C321 H350 0.947 . S
C322 C321 1.392 . S
C322 C323 1.419 . S
C322 H351 0.948 . S
C323 C322 1.419 . S
C323 C324 1.391 1_455 S
C323 C327 1.397 . S
C324 C319 1.391 . S
C324 C323 1.391 1_655 S
C324 C325 1.399 . S
C325 C324 1.399 . S
C325 C326 1.396 . S
C325 C328 1.453 . S
C325 C329 1.684 . S
C326 C307 1.723 . S
C326 C325 1.396 . S
C326 C327 1.394 1_655 S
C327 C323 1.397 . S
C327 C326 1.394 1_455 S
C327 C337 1.723 . S
C328 C325 1.453 . S
C328 H352 0.982 . S
C328 H353 0.979 . S
C328 H354 0.977 . S
C329 C325 1.684 . S
C329 H355 0.979 . S
C329 H356 0.980 . S
C329 H357 0.983 . S
C330 H306 0.948 . S
C330 C331 1.391 . S
C330 C335 1.391 . S
C331 C330 1.391 . S
C331 C332 1.391 . S
C332 H309 0.947 . S
C332 C331 1.391 . S
C332 C333 1.392 . S
C333 H310 0.948 . S
C333 C332 1.392 . S
C333 C334 1.419 . S
C334 C333 1.419 . S
C334 C335 1.391 . S
C334 C338 1.397 . S
C335 C330 1.391 . S
C335 C334 1.391 . S
C335 C336 1.399 . S
C336 C335 1.399 . S
C336 C337 1.396 . S
C336 C339 1.453 . S
C336 C340 1.684 . S
C337 C327 1.723 . S
C337 C336 1.396 . S
C337 C338 1.394 . S
C338 C308 1.723 . S
C338 C334 1.397 . S
C338 C337 1.394 . S
C339 H311 0.982 . S
C339 H315 0.979 . S
C339 H316 0.977 . S
C339 C336 1.453 . S
C340 H312 0.979 . S
C340 H313 0.980 . S
C340 H314 0.983 . S
C340 C336 1.684 . S
H341 C359 0.948 . S
H342 C300 0.948 . S
H343 C318 0.979 . S
H344 C318 0.980 1_455 S
H345 C318 0.983 . S
H346 C317 0.982 . S
H347 C317 0.979 . S
H348 C317 0.977 . S
H349 C319 0.948 . S
H350 C321 0.947 . S
H351 C322 0.948 . S
H352 C328 0.982 . S
H353 C328 0.979 . S
H354 C328 0.977 . S
H355 C329 0.979 . S
H356 C329 0.980 . S
H357 C329 0.983 . S
H358 C302 0.947 . S
C359 C302 1.392 . S
C359 C303 1.419 . S
C359 H341 0.948 . S
C360 C361 1.391 . S
C360 C364 1.391 . S
C360 H402 0.948 . S
C361 C360 1.391 . S
C361 C362 1.391 . S
C362 C361 1.391 . S
C362 H418 0.947 . S
C362 C419 1.392 . S
C363 C364 1.391 . S
C363 C367 1.397 . S
C363 C419 1.419 . S
C364 C360 1.391 . S
C364 C363 1.391 . S
C364 C365 1.399 . S
C365 C364 1.399 . S
C365 C368 1.396 . S
C365 C377 1.453 . S
C365 C378 1.684 . S
H366 C390 0.948 . S
C367 C363 1.397 . S
C367 C368 1.394 . S
C367 C386 1.723 . S
C368 C365 1.396 . S
C368 C367 1.394 . S
C368 C398 1.723 1_565 S
H369 C392 0.947 . S
H370 C393 0.948 . S
H371 C399 0.982 . S
H372 C400 0.979 . S
H373 C400 0.980 . S
H374 C400 0.983 . S
H375 C399 0.979 . S
H376 C399 0.977 . S
C377 C365 1.453 . S
C377 H406 0.982 . S
C377 H407 0.979 . S
C377 H408 0.977 1_565 S
C378 C365 1.684 . S
C378 H403 0.979 . S
C378 H404 0.994 . S
C378 H405 0.983 . S
C379 C380 1.391 1_565 S
C379 C384 1.391 . S
C379 H409 0.948 . S
C380 C379 1.391 1_545 S
C380 C381 1.391 . S
C381 C380 1.391 . S
C381 C382 1.392 . S
C381 H410 0.947 . S
C382 C381 1.392 . S
C382 C383 1.419 . S
C382 H411 0.948 . S
C383 C382 1.419 . S
C383 C384 1.391 1_545 S
C383 C387 1.397 . S
C384 C379 1.391 . S
C384 C383 1.391 1_565 S
C384 C385 1.399 . S
C385 C384 1.399 . S
C385 C386 1.396 . S
C385 C388 1.453 . S
C385 C389 1.684 . S
C386 C367 1.723 . S
C386 C385 1.396 . S
C386 C387 1.394 1_565 S
C387 C383 1.397 . S
C387 C386 1.394 1_545 S
C387 C397 1.723 . S
C388 C385 1.453 . S
C388 H412 0.982 . S
C388 H413 0.979 . S
C388 H414 0.977 . S
C389 C385 1.684 . S
C389 H415 0.979 . S
C389 H416 0.980 . S
C389 H417 0.983 . S
C390 H366 0.948 . S
C390 C391 1.391 . S
C390 C395 1.391 . S
C391 C390 1.391 . S
C391 C392 1.391 . S
C392 H369 0.947 . S
C392 C391 1.391 . S
C392 C393 1.392 . S
C393 H370 0.948 . S
C393 C392 1.392 . S
C393 C394 1.419 . S
C394 C393 1.419 . S
C394 C395 1.391 . S
C394 C398 1.397 . S
C395 C390 1.391 . S
C395 C394 1.391 . S
C395 C396 1.399 . S
C396 C395 1.399 . S
C396 C397 1.396 . S
C396 C399 1.453 . S
C396 C400 1.684 . S
C397 C387 1.723 . S
C397 C396 1.396 . S
C397 C398 1.394 . S
C398 C368 1.723 1_545 S
C398 C394 1.397 . S
C398 C397 1.394 . S
C399 H371 0.982 . S
C399 H375 0.979 . S
C399 H376 0.977 . S
C399 C396 1.453 . S
C400 H372 0.979 . S
C400 H373 0.980 . S
C400 H374 0.983 . S
C400 C396 1.684 . S
H401 C419 0.948 . S
H402 C360 0.948 . S
H403 C378 0.979 . S
H404 C378 0.994 . S
H405 C378 0.983 . S
H406 C377 0.982 . S
H407 C377 0.979 . S
H408 C377 0.977 1_545 S
H409 C379 0.948 . S
H410 C381 0.947 . S
H411 C382 0.948 . S
H412 C388 0.982 . S
H413 C388 0.979 . S
H414 C388 0.977 . S
H415 C389 0.979 . S
H416 C389 0.980 . S
H417 C389 0.983 . S
H418 C362 0.947 . S
C419 C362 1.392 . S
C419 C363 1.419 . S
C419 H401 0.948 . S
C420 C421 1.391 . S
C420 C424 1.391 . S
C420 H462 0.948 . S
C421 C420 1.391 . S
C421 C422 1.391 . S
C422 C421 1.391 . S
C422 H478 0.947 . S
C422 C479 1.392 . S
C423 C424 1.391 . S
C423 C427 1.397 . S
C423 C479 1.419 . S
C424 C420 1.391 . S
C424 C423 1.391 . S
C424 C425 1.399 . S
C425 C424 1.399 . S
C425 C428 1.396 . S
C425 C437 1.453 . S
C425 C438 1.684 . S
H426 C450 0.948 . S
C427 C423 1.397 . S
C427 C428 1.394 . S
C427 C446 1.723 . S
C428 C425 1.396 . S
C428 C427 1.394 . S
C428 C458 1.723 . S
H429 C452 0.947 . S
H430 C453 0.948 . S
H431 C459 0.982 . S
H432 C460 0.979 . S
H433 C460 0.980 . S
H434 C460 0.983 . S
H435 C459 0.979 . S
H436 C459 0.977 . S
C437 C425 1.453 . S
C437 H466 0.982 . S
C437 H467 0.979 . S
C437 H468 0.977 . S
C438 C425 1.684 . S
C438 H463 0.979 . S
C438 H464 0.980 . S
C438 H465 0.983 . S
C439 C440 1.391 1_554 S
C439 C444 1.391 . S
C439 H469 0.948 . S
C440 C439 1.391 1_556 S
C440 C441 1.391 1_556 S
C441 C440 1.391 1_554 S
C441 C442 1.392 . S
C441 H470 0.947 1_554 S
C442 C441 1.392 . S
C442 C443 1.419 . S
C442 H471 0.948 . S
C443 C442 1.419 . S
C443 C444 1.391 . S
C443 C447 1.397 . S
C444 C439 1.391 . S
C444 C443 1.391 . S
C444 C445 1.399 . S
C445 C444 1.399 . S
C445 C446 1.396 . S
C445 C448 1.453 . S
C445 C449 1.684 . S
C446 C427 1.723 . S
C446 C445 1.396 . S
C446 C447 1.394 . S
C447 C443 1.397 . S
C447 C446 1.394 . S
C447 C457 1.723 . S
C448 C445 1.453 . S
C448 H472 0.982 . S
C448 H473 0.979 . S
C448 H474 0.977 . S
C449 C445 1.684 . S
C449 H475 0.979 . S
C449 H476 0.980 . S
C449 H477 0.983 . S
C450 H426 0.948 . S
C450 C451 1.391 . S
C450 C455 1.391 . S
C451 C450 1.391 . S
C451 C452 1.391 . S
C452 H429 0.947 . S
C452 C451 1.391 . S
C452 C453 1.392 . S
C453 H430 0.948 . S
C453 C452 1.392 . S
C453 C454 1.419 . S
C454 C453 1.419 . S
C454 C455 1.391 . S
C454 C458 1.397 . S
C455 C450 1.391 . S
C455 C454 1.391 . S
C455 C456 1.399 . S
C456 C455 1.399 . S
C456 C457 1.396 . S
C456 C459 1.453 . S
C456 C460 1.684 . S
C457 C447 1.723 . S
C457 C456 1.396 . S
C457 C458 1.394 . S
C458 C428 1.723 . S
C458 C454 1.397 . S
C458 C457 1.394 . S
C459 H431 0.982 . S
C459 H435 0.979 . S
C459 H436 0.977 . S
C459 C456 1.453 . S
C460 H432 0.979 . S
C460 H433 0.980 . S
C460 H434 0.983 . S
C460 C456 1.684 . S
H461 C479 0.948 . S
H462 C420 0.948 . S
H463 C438 0.979 . S
H464 C438 0.980 . S
H465 C438 0.983 . S
H466 C437 0.982 . S
H467 C437 0.979 . S
H468 C437 0.977 . S
H469 C439 0.948 . S
H470 C441 0.947 1_556 S
H471 C442 0.948 . S
H472 C448 0.982 . S
H473 C448 0.979 . S
H474 C448 0.977 . S
H475 C449 0.979 . S
H476 C449 0.980 . S
H477 C449 0.983 . S
H478 C422 0.947 . S
C479 C422 1.392 . S
C479 C423 1.419 . S
C479 H461 0.948 . S
C480 C481 1.363 . S
C480 C486 1.379 . S
C480 N488 1.356 . S
C481 C480 1.363 . S
C481 C487 1.363 . S
C482 C483 1.363 . S
C482 C487 1.379 . S
C482 N489 1.356 . S
C483 C482 1.363 . S
C483 C486 1.363 . S
N484 C486 1.356 . S
N484 H496 0.984 . S
N484 H497 0.985 . S
N485 C487 1.356 . S
N485 H490 0.984 . S
N485 H491 0.985 . S
C486 C480 1.379 . S
C486 C483 1.363 . S
C486 N484 1.356 . S
C487 C481 1.363 . S
C487 C482 1.379 . S
C487 N485 1.356 . S
N488 C480 1.356 . S
N488 H494 0.984 . S
N488 H495 0.984 . S
N489 C482 1.356 . S
N489 H492 0.984 . S
N489 H493 0.985 . S
H490 N485 0.984 . S
H491 N485 0.985 . S
H492 N489 0.984 . S
H493 N489 0.985 . S
H494 N488 0.984 . S
H495 N488 0.984 . S
H496 N484 0.984 . S
H497 N484 0.985 . S
C498 C499 1.363 . S
C498 C504 1.379 . S
C498 N506 1.356 . S
C499 C498 1.363 . S
C499 C505 1.363 . S
C500 C501 1.363 . S
C500 C505 1.379 . S
C500 N507 1.356 . S
C501 C500 1.363 . S
C501 C504 1.363 . S
N502 C504 1.356 . S
N502 H514 0.984 . S
N502 H515 0.985 . S
N503 C505 1.356 . S
N503 H508 0.984 . S
N503 H509 0.985 . S
C504 C498 1.379 . S
C504 C501 1.363 . S
C504 N502 1.356 . S
C505 C499 1.363 . S
C505 C500 1.379 . S
C505 N503 1.356 . S
N506 C498 1.356 . S
N506 H512 0.984 . S
N506 H513 0.984 . S
N507 C500 1.356 . S
N507 H510 0.984 . S
N507 H511 0.985 . S
H508 N503 0.984 . S
H509 N503 0.985 . S
H510 N507 0.984 . S
H511 N507 0.985 . S
H512 N506 0.984 . S
H513 N506 0.984 . S
H514 N502 0.984 . S
H515 N502 0.985 . S
C516 C517 1.363 . S
C516 C522 1.379 . S
C516 N524 1.356 . S
C517 C516 1.363 . S
C517 C523 1.363 . S
C518 C519 1.363 . S
C518 C523 1.379 . S
C518 N525 1.356 . S
C519 C518 1.363 . S
C519 C522 1.363 . S
N520 C522 1.356 . S
N520 H532 0.984 . S
N520 H533 0.985 . S
N521 C523 1.356 . S
N521 H526 0.984 . S
N521 H527 0.985 . S
C522 C516 1.379 . S
C522 C519 1.363 . S
C522 N520 1.356 . S
C523 C517 1.363 . S
C523 C518 1.379 . S
C523 N521 1.356 . S
N524 C516 1.356 . S
N524 H530 0.984 . S
N524 H531 0.984 . S
N525 C518 1.356 . S
N525 H528 0.984 . S
N525 H529 0.985 . S
H526 N521 0.984 . S
H527 N521 0.985 . S
H528 N525 0.984 . S
H529 N525 0.985 . S
H530 N524 0.984 . S
H531 N524 0.984 . S
H532 N520 0.984 . S
H533 N520 0.985 . S
C534 C535 1.363 . S
C534 C540 1.379 . S
C534 N542 1.356 . S
C535 C534 1.363 . S
C535 C541 1.363 . S
C536 C537 1.363 . S
C536 C541 1.379 . S
C536 N543 1.356 . S
C537 C536 1.363 . S
C537 C540 1.363 . S
N538 C540 1.356 . S
N538 H550 0.984 . S
N538 H551 0.985 . S
N539 C541 1.356 . S
N539 H544 0.984 . S
N539 H545 0.985 . S
C540 C534 1.379 . S
C540 C537 1.363 . S
C540 N538 1.356 . S
C541 C535 1.363 . S
C541 C536 1.379 . S
C541 N539 1.356 . S
N542 C534 1.356 . S
N542 H548 0.984 . S
N542 H549 0.984 . S
N543 C536 1.356 . S
N543 H546 0.984 . S
N543 H547 0.985 . S
H544 N539 0.984 . S
H545 N539 0.985 . S
H546 N543 0.984 . S
H547 N543 0.985 . S
H548 N542 0.984 . S
H549 N542 0.984 . S
H550 N538 0.984 . S
H551 N538 0.985 . S
C552 C553 1.363 . S
C552 C558 1.379 . S
C552 N560 1.356 . S
C553 C552 1.363 . S
C553 C559 1.363 . S
C554 C555 1.363 . S
C554 C559 1.379 . S
C554 N561 1.356 . S
C555 C554 1.363 . S
C555 C558 1.363 . S
N556 C558 1.356 . S
N556 H568 0.984 . S
N556 H569 0.985 . S
N557 C559 1.356 . S
N557 H562 0.984 . S
N557 H563 0.985 . S
C558 C552 1.379 . S
C558 C555 1.363 . S
C558 N556 1.356 . S
C559 C553 1.363 . S
C559 C554 1.379 . S
C559 N557 1.356 . S
N560 C552 1.356 . S
N560 H566 0.984 . S
N560 H567 0.984 . S
N561 C554 1.356 . S
N561 H564 0.984 . S
N561 H565 0.985 . S
H562 N557 0.984 . S
H563 N557 0.985 . S
H564 N561 0.984 . S
H565 N561 0.985 . S
H566 N560 0.984 . S
H567 N560 0.984 . S
H568 N556 0.984 . S
H569 N556 0.985 . S
C570 C571 1.363 . S
C570 C576 1.379 . S
C570 N578 1.356 . S
C571 C570 1.363 . S
C571 C577 1.363 . S
C572 C573 1.363 . S
C572 C577 1.379 . S
C572 N579 1.356 . S
C573 C572 1.363 . S
C573 C576 1.363 . S
N574 C576 1.356 . S
N574 H586 0.984 . S
N574 H587 0.985 . S
N575 C577 1.356 . S
N575 H580 0.984 . S
N575 H581 0.985 . S
C576 C570 1.379 . S
C576 C573 1.363 . S
C576 N574 1.356 . S
C577 C571 1.363 . S
C577 C572 1.379 . S
C577 N575 1.356 . S
N578 C570 1.356 . S
N578 H584 0.984 . S
N578 H585 0.984 . S
N579 C572 1.356 . S
N579 H582 0.984 . S
N579 H583 0.985 . S
H580 N575 0.984 . S
H581 N575 0.985 . S
H582 N579 0.984 . S
H583 N579 0.985 . S
H584 N578 0.984 . S
H585 N578 0.984 . S
H586 N574 0.984 . S
H587 N574 0.985 . S
C588 C589 1.363 . S
C588 C594 1.379 . S
C588 N596 1.356 . S
C589 C588 1.363 . S
C589 C595 1.363 . S
C590 C591 1.363 . S
C590 C595 1.379 . S
C590 N597 1.356 . S
C591 C590 1.363 . S
C591 C594 1.363 . S
N592 C594 1.356 . S
N592 H604 0.984 . S
N592 H605 0.985 . S
N593 C595 1.356 . S
N593 H598 0.984 . S
N593 H599 0.985 . S
C594 C588 1.379 . S
C594 C591 1.363 . S
C594 N592 1.356 . S
C595 C589 1.363 . S
C595 C590 1.379 . S
C595 N593 1.356 . S
N596 C588 1.356 . S
N596 H602 0.984 . S
N596 H603 0.984 . S
N597 C590 1.356 . S
N597 H600 0.984 . S
N597 H601 0.985 . S
H598 N593 0.984 . S
H599 N593 0.985 . S
H600 N597 0.984 . S
H601 N597 0.985 . S
H602 N596 0.984 . S
H603 N596 0.984 . S
H604 N592 0.984 . S
H605 N592 0.985 . S
C606 C607 1.363 . S
C606 C612 1.379 . S
C606 N614 1.356 . S
C607 C606 1.363 . S
C607 C613 1.363 . S
C608 C609 1.363 . S
C608 C613 1.379 . S
C608 N615 1.356 . S
C609 C608 1.363 . S
C609 C612 1.363 . S
N610 C612 1.356 . S
N610 H622 0.984 . S
N610 H623 0.985 . S
N611 C613 1.356 . S
N611 H616 0.984 . S
N611 H617 0.985 . S
C612 C606 1.379 . S
C612 C609 1.363 . S
C612 N610 1.356 . S
C613 C607 1.363 . S
C613 C608 1.379 . S
C613 N611 1.356 . S
N614 C606 1.356 . S
N614 H620 0.984 . S
N614 H621 0.984 . S
N615 C608 1.356 . S
N615 H618 0.984 . S
N615 H619 0.985 . S
H616 N611 0.984 . S
H617 N611 0.985 . S
H618 N615 0.984 . S
H619 N615 0.985 . S
H620 N614 0.984 . S
H621 N614 0.984 . S
H622 N610 0.984 . S
H623 N610 0.985 . S
C624 C625 1.363 . S
C624 C630 1.379 . S
C624 N632 1.356 . S
C625 C624 1.363 . S
C625 C631 1.363 . S
C626 C627 1.363 . S
C626 C631 1.379 . S
C626 N633 1.356 . S
C627 C626 1.363 . S
C627 C630 1.363 . S
N628 C630 1.356 . S
N628 H640 0.984 . S
N628 H641 0.985 . S
N629 C631 1.356 . S
N629 H634 0.984 . S
N629 H635 0.985 . S
C630 C624 1.379 . S
C630 C627 1.363 . S
C630 N628 1.356 . S
C631 C625 1.363 . S
C631 C626 1.379 . S
C631 N629 1.356 . S
N632 C624 1.356 . S
N632 H638 0.984 . S
N632 H639 0.984 . S
N633 C626 1.356 . S
N633 H636 0.984 . S
N633 H637 0.985 . S
H634 N629 0.984 . S
H635 N629 0.985 . S
H636 N633 0.984 . S
H637 N633 0.985 . S
H638 N632 0.984 . S
H639 N632 0.984 . S
H640 N628 0.984 . S
H641 N628 0.985 . S
C642 C643 1.363 . S
C642 C648 1.379 . S
C642 N650 1.356 . S
C643 C642 1.363 . S
C643 C649 1.363 . S
C644 C645 1.363 . S
C644 C649 1.379 . S
C644 N651 1.356 . S
C645 C644 1.363 . S
C645 C648 1.363 . S
N646 C648 1.356 . S
N646 H658 0.984 . S
N646 H659 0.985 . S
N647 C649 1.356 . S
N647 H652 0.984 . S
N647 H653 0.985 . S
C648 C642 1.379 . S
C648 C645 1.363 . S
C648 N646 1.356 . S
C649 C643 1.363 . S
C649 C644 1.379 . S
C649 N647 1.356 . S
N650 C642 1.356 . S
N650 H656 0.984 . S
N650 H657 0.984 . S
N651 C644 1.356 . S
N651 H654 0.984 . S
N651 H655 0.985 . S
H652 N647 0.984 . S
H653 N647 0.985 . S
H654 N651 0.984 . S
H655 N651 0.985 . S
H656 N650 0.984 . S
H657 N650 0.984 . S
H658 N646 0.984 . S
H659 N646 0.985 . S
C660 C661 1.363 . S
C660 C666 1.379 . S
C660 N668 1.356 . S
C661 C660 1.363 . S
C661 C667 1.363 . S
C662 C663 1.363 . S
C662 C667 1.379 . S
C662 N669 1.356 . S
C663 C662 1.363 . S
C663 C666 1.363 . S
N664 C666 1.356 . S
N664 H676 0.984 . S
N664 H677 0.985 . S
N665 C667 1.356 . S
N665 H670 0.984 . S
N665 H671 0.985 . S
C666 C660 1.379 . S
C666 C663 1.363 . S
C666 N664 1.356 . S
C667 C661 1.363 . S
C667 C662 1.379 . S
C667 N665 1.356 . S
N668 C660 1.356 . S
N668 H674 0.984 . S
N668 H675 0.984 . S
N669 C662 1.356 . S
N669 H672 0.984 . S
N669 H673 0.985 . S
H670 N665 0.984 . S
H671 N665 0.985 . S
H672 N669 0.984 . S
H673 N669 0.985 . S
H674 N668 0.984 . S
H675 N668 0.984 . S
H676 N664 0.984 . S
H677 N664 0.985 . S
C678 C679 1.363 . S
C678 C684 1.379 . S
C678 N686 1.356 . S
C679 C678 1.363 . S
C679 C685 1.363 . S
C680 C681 1.363 . S
C680 C685 1.379 . S
C680 N687 1.356 . S
C681 C680 1.363 . S
C681 C684 1.363 . S
N682 C684 1.356 . S
N682 H694 0.984 . S
N682 H695 0.985 . S
N683 C685 1.356 . S
N683 H688 0.984 . S
N683 H689 0.985 . S
C684 C678 1.379 . S
C684 C681 1.363 . S
C684 N682 1.356 . S
C685 C679 1.363 . S
C685 C680 1.379 . S
C685 N683 1.356 . S
N686 C678 1.356 . S
N686 H692 0.984 . S
N686 H693 0.984 . S
N687 C680 1.356 . S
N687 H690 0.984 . S
N687 H691 0.985 . S
H688 N683 0.984 . S
H689 N683 0.985 . S
H690 N687 0.984 . S
H691 N687 0.985 . S
H692 N686 0.984 . S
H693 N686 0.984 . S
H694 N682 0.984 . S
H695 N682 0.985 . S
C696 C697 1.363 . S
C696 C702 1.379 . S
C696 N704 1.356 . S
C697 C696 1.363 . S
C697 C703 1.363 . S
C698 C699 1.363 . S
C698 C703 1.379 . S
C698 N705 1.356 . S
C699 C698 1.363 . S
C699 C702 1.363 . S
N700 C702 1.356 . S
N700 H712 0.984 . S
N700 H713 0.985 . S
N701 C703 1.369 . S
N701 H706 0.983 1_455 S
N701 H707 0.975 1_455 S
C702 C696 1.379 . S
C702 C699 1.363 . S
C702 N700 1.356 . S
C703 C697 1.363 . S
C703 C698 1.379 . S
C703 N701 1.369 . S
N704 C696 1.356 . S
N704 H710 0.984 . S
N704 H711 0.984 . S
N705 C698 1.356 . S
N705 H708 0.984 . S
N705 H709 0.985 . S
H706 N701 0.983 1_655 S
H707 N701 0.975 1_655 S
H708 N705 0.984 . S
H709 N705 0.985 . S
H710 N704 0.984 . S
H711 N704 0.984 . S
H712 N700 0.984 . S
H713 N700 0.985 . S
C714 C715 1.363 . S
C714 C720 1.379 . S
C714 N722 1.356 . S
C715 C714 1.363 . S
C715 C721 1.363 1_545 S
C716 C717 1.382 . S
C716 C721 1.376 1_545 S
C716 N723 1.345 1_545 S
C717 C716 1.382 . S
C717 C720 1.363 . S
N718 C720 1.356 . S
N718 H730 0.984 . S
N718 H731 0.985 . S
N719 C721 1.356 . S
N719 H724 0.984 . S
N719 H725 0.985 . S
C720 C714 1.379 . S
C720 C717 1.363 . S
C720 N718 1.356 . S
C721 C715 1.363 1_565 S
C721 C716 1.376 1_565 S
C721 N719 1.356 . S
N722 C714 1.356 . S
N722 H728 0.984 . S
N722 H729 0.984 . S
N723 C716 1.345 1_565 S
N723 H726 0.984 . S
N723 H727 0.985 . S
H724 N719 0.984 . S
H725 N719 0.985 . S
H726 N723 0.984 . S
H727 N723 0.985 . S
H728 N722 0.984 . S
H729 N722 0.984 . S
H730 N718 0.984 . S
H731 N718 0.985 . S
C732 C733 1.363 . S
C732 C738 1.379 . S
C732 N740 1.356 . S
C733 C732 1.363 . S
C733 C739 1.363 . S
C734 C735 1.363 . S
C734 C739 1.379 . S
C734 N741 1.356 . S
C735 C734 1.363 . S
C735 C738 1.363 . S
N736 C738 1.356 . S
N736 H748 0.984 . S
N736 H749 0.985 . S
N737 C739 1.356 . S
N737 H742 0.984 . S
N737 H743 0.985 . S
C738 C732 1.379 . S
C738 C735 1.363 . S
C738 N736 1.356 . S
C739 C733 1.363 . S
C739 C734 1.379 . S
C739 N737 1.356 . S
N740 C732 1.356 . S
N740 H746 0.984 . S
N740 H747 0.984 . S
N741 C734 1.356 . S
N741 H744 0.984 . S
N741 H745 0.985 . S
H742 N737 0.984 . S
H743 N737 0.985 . S
H744 N741 0.984 . S
H745 N741 0.985 . S
H746 N740 0.984 . S
H747 N740 0.984 . S
H748 N736 0.984 . S
H749 N736 0.985 . S
C750 C751 1.363 . S
C750 C756 1.379 . S
C750 N758 1.356 . S
C751 C750 1.363 . S
C751 C757 1.363 1_545 S
C752 C753 1.363 1_565 S
C752 C757 1.379 . S
C752 N759 1.356 . S
C753 C752 1.363 1_545 S
C753 C756 1.363 . S
N754 C756 1.356 . S
N754 H766 0.984 . S
N754 H767 0.985 . S
N755 C757 1.356 . S
N755 H760 0.984 . S
N755 H761 0.985 . S
C756 C750 1.379 . S
C756 C753 1.363 . S
C756 N754 1.356 . S
C757 C751 1.363 1_565 S
C757 C752 1.379 . S
C757 N755 1.356 . S
N758 C750 1.356 . S
N758 H764 0.984 . S
N758 H765 0.984 . S
N759 C752 1.356 . S
N759 H762 0.984 . S
N759 H763 0.985 . S
H760 N755 0.984 . S
H761 N755 0.985 . S
H762 N759 0.984 . S
H763 N759 0.985 . S
H764 N758 0.984 . S
H765 N758 0.984 . S
H766 N754 0.984 . S
H767 N754 0.985 . S
C768 C769 1.363 . S
C768 C774 1.379 . S
C768 N776 1.356 . S
C769 C768 1.363 . S
C769 C775 1.363 . S
C770 C771 1.363 . S
C770 C775 1.379 . S
C770 N777 1.356 . S
C771 C770 1.363 . S
C771 C774 1.363 . S
N772 C774 1.356 . S
N772 H784 0.984 . S
N772 H785 0.985 . S
N773 C775 1.356 . S
N773 H778 0.984 . S
N773 H779 0.985 . S
C774 C768 1.379 . S
C774 C771 1.363 . S
C774 N772 1.356 . S
C775 C769 1.363 . S
C775 C770 1.379 . S
C775 N773 1.356 . S
N776 C768 1.356 . S
N776 H782 0.984 . S
N776 H783 0.984 . S
N777 C770 1.356 . S
N777 H780 0.984 . S
N777 H781 0.985 . S
H778 N773 0.984 . S
H779 N773 0.985 . S
H780 N777 0.984 . S
H781 N777 0.985 . S
H782 N776 0.984 . S
H783 N776 0.984 . S
H784 N772 0.984 . S
H785 N772 0.985 . S
C786 C787 1.377 . S
C786 C792 1.379 . S
C786 N794 1.356 . S
C787 C786 1.377 . S
C787 C793 1.353 1_655 S
C788 C789 1.363 1_455 S
C788 C793 1.379 . S
C788 N795 1.356 . S
C789 C788 1.363 1_655 S
C789 C792 1.363 . S
N790 C792 1.356 . S
N790 H802 0.984 . S
N790 H803 0.985 . S
N791 C793 1.356 . S
N791 H796 0.984 . S
N791 H797 0.985 . S
C792 C786 1.379 . S
C792 C789 1.363 . S
C792 N790 1.356 . S
C793 C787 1.353 1_455 S
C793 C788 1.379 . S
C793 N791 1.356 . S
N794 C786 1.356 . S
N794 H800 0.984 . S
N794 H801 0.984 . S
N795 C788 1.356 . S
N795 H798 0.984 . S
N795 H799 0.985 . S
H796 N791 0.984 . S
H797 N791 0.985 . S
H798 N795 0.984 . S
H799 N795 0.985 . S
H800 N794 0.984 . S
H801 N794 0.984 . S
H802 N790 0.984 . S
H803 N790 0.985 . S
C481 C24 3.050 . S
C483 C451 3.034 . S
C499 C66 1.255 . S
C501 C301 1.331 . S
C517 C93 1.989 . S
C519 C361 1.781 . S
C535 C13 3.190 . S
C537 C421 2.973 . S
C555 C331 1.378 . S
C553 C57 1.365 . S
C573 C391 2.096 . S
C571 C104 2.090 . S
C589 C64 2.059 . S
C591 C181 1.838 . S
C607 C97 0.879 . S
C609 C271 0.915 . S
C625 C17 1.410 . S
C627 C151 1.429 . S
C645 C211 1.962 . S
C643 C53 2.002 . S
C663 C241 0.463 . S
C661 C106 0.642 . S
C679 C26 1.278 . S
C681 C121 1.343 . S
C699 C260 1.040 . S
C697 C2 1.065 . S
C715 C63 1.455 . S
C717 C140 1.461 . S
C733 C82 1.364 . S
C735 C200 1.341 . S
C753 C380 1.391 . S
C751 C42 1.384 . S
C771 C440 1.790 . S
C769 C103 1.761 . S
C787 C23 1.476 1_655 S
C789 C320 1.475 . S
