# Generated by pormake.
# Topology hwx, (6,3)-cn, num edge types: 1
# Building blocks:
#     Node 0, Type 0, BuildingBlock: OJICUG_clean_sbu_0, # of connection points: 6
#     Node 1, Type 0, BuildingBlock: OJICUG_clean_sbu_0, # of connection points: 6
#     Node 2, Type 0, BuildingBlock: OJICUG_clean_sbu_0, # of connection points: 6
#     Node 3, Type 0, BuildingBlock: OJICUG_clean_sbu_0, # of connection points: 6
#     Node 4, Type 1, BuildingBlock: ESEHIV_clean_linker_0, # of connection points: 3
#     Node 5, Type 1, BuildingBlock: ESEHIV_clean_linker_0, # of connection points: 3
#     Node 6, Type 1, BuildingBlock: ESEHIV_clean_linker_0, # of connection points: 3
#     Node 7, Type 1, BuildingBlock: ESEHIV_clean_linker_0, # of connection points: 3
#     Node 8, Type 1, BuildingBlock: ESEHIV_clean_linker_0, # of connection points: 3
#     Node 9, Type 1, BuildingBlock: ESEHIV_clean_linker_0, # of connection points: 3
#     Node 10, Type 1, BuildingBlock: ESEHIV_clean_linker_0, # of connection points: 3
#     Node 11, Type 1, BuildingBlock: ESEHIV_clean_linker_0, # of connection points: 3
#     Edge 12, Type (0, 1), BuildingBlock: XUDNAN_clean_linker_2, # of connection points: 2
#     Edge 13, Type (0, 1), BuildingBlock: XUDNAN_clean_linker_2, # of connection points: 2
#     Edge 14, Type (0, 1), BuildingBlock: XUDNAN_clean_linker_2, # of connection points: 2
#     Edge 15, Type (0, 1), BuildingBlock: XUDNAN_clean_linker_2, # of connection points: 2
#     Edge 16, Type (0, 1), BuildingBlock: XUDNAN_clean_linker_2, # of connection points: 2
#     Edge 17, Type (0, 1), BuildingBlock: XUDNAN_clean_linker_2, # of connection points: 2
#     Edge 18, Type (0, 1), BuildingBlock: XUDNAN_clean_linker_2, # of connection points: 2
#     Edge 19, Type (0, 1), BuildingBlock: XUDNAN_clean_linker_2, # of connection points: 2
#     Edge 20, Type (0, 1), BuildingBlock: XUDNAN_clean_linker_2, # of connection points: 2
#     Edge 21, Type (0, 1), BuildingBlock: XUDNAN_clean_linker_2, # of connection points: 2
#     Edge 22, Type (0, 1), BuildingBlock: XUDNAN_clean_linker_2, # of connection points: 2
#     Edge 23, Type (0, 1), BuildingBlock: XUDNAN_clean_linker_2, # of connection points: 2
#     Edge 24, Type (0, 1), BuildingBlock: XUDNAN_clean_linker_2, # of connection points: 2
#     Edge 25, Type (0, 1), BuildingBlock: XUDNAN_clean_linker_2, # of connection points: 2
#     Edge 26, Type (0, 1), BuildingBlock: XUDNAN_clean_linker_2, # of connection points: 2
#     Edge 27, Type (0, 1), BuildingBlock: XUDNAN_clean_linker_2, # of connection points: 2
#     Edge 28, Type (0, 1), BuildingBlock: XUDNAN_clean_linker_2, # of connection points: 2
#     Edge 29, Type (0, 1), BuildingBlock: XUDNAN_clean_linker_2, # of connection points: 2
#     Edge 30, Type (0, 1), BuildingBlock: XUDNAN_clean_linker_2, # of connection points: 2
#     Edge 31, Type (0, 1), BuildingBlock: XUDNAN_clean_linker_2, # of connection points: 2
#     Edge 32, Type (0, 1), BuildingBlock: XUDNAN_clean_linker_2, # of connection points: 2
#     Edge 33, Type (0, 1), BuildingBlock: XUDNAN_clean_linker_2, # of connection points: 2
#     Edge 34, Type (0, 1), BuildingBlock: XUDNAN_clean_linker_2, # of connection points: 2
#     Edge 35, Type (0, 1), BuildingBlock: XUDNAN_clean_linker_2, # of connection points: 2
# Relax obj value: 0.076
# Max RMSD: 0.101
# Mean RMSD: 0.093
data_MOF--net-hwx--node1-OJICUG_clean_sbu_0--node2-ESEHIV_clean_linker_0--edge1-XUDNAN_clean_linker_2
_symmetry_space_group_name_H-M    P1
_symmetry_Int_Tables_number       1
_symmetry_cell_setting            triclinic
loop_
_symmetry_equiv_pos_as_xyz
'x, y, z'
_cell_length_a     47.360712
_cell_length_b     47.238407
_cell_length_c     21.363662
_cell_angle_alpha  90.07093
_cell_angle_beta   89.870029
_cell_angle_gamma 90.047361
loop_
_atom_site_label
_atom_site_type_symbol
_atom_site_fract_x
_atom_site_fract_y
_atom_site_fract_z
_atom_type_partial_charge
Sc0 Sc 0.22772 0.22493 0.08081 0.0
Sc1 Sc 0.18 0.18741 0.98396 0.0
Sc2 Sc 0.23884 0.22262 0.91878 0.0
O3 O 0.21548 0.21162 0.9946 0.0
C4 C 0.23922 0.27977 0.99654 0.0
C5 C 0.16091 0.23186 0.08869 0.0
C6 C 0.1757 0.22821 0.86666 0.0
C7 C 0.20748 0.16117 0.10698 0.0
C8 C 0.28729 0.21161 0.01929 0.0
C9 C 0.22343 0.15884 0.88788 0.0
O10 O 0.2358 0.26768 0.04922 0.0
O11 O 0.15533 0.21272 0.04866 0.0
O12 O 0.20222 0.23195 0.86373 0.0
O13 O 0.22055 0.18378 0.12172 0.0
O14 O 0.27844 0.2155 0.964 0.0
O15 O 0.20015 0.1591 0.91773 0.0
O16 O 0.27131 0.21275 0.0671 0.0
O17 O 0.19254 0.15899 0.05777 0.0
O18 O 0.24035 0.17969 0.88637 0.0
O19 O 0.18588 0.23893 0.10356 0.0
O20 O 0.23993 0.2664 0.94495 0.0
O21 O 0.16392 0.21336 0.90894 0.0
Sc22 Sc 0.27332 0.71908 0.43837 0.0
Sc23 Sc 0.30403 0.66723 0.53347 0.0
Sc24 Sc 0.26772 0.72432 0.60212 0.0
O25 O 0.28167 0.70354 0.52471 0.0
C26 C 0.28681 0.77528 0.51151 0.0
C27 C 0.33615 0.69608 0.42133 0.0
C28 C 0.32914 0.70592 0.6434 0.0
C29 C 0.26339 0.65366 0.4176 0.0
C30 C 0.21603 0.73263 0.51258 0.0
C31 C 0.25773 0.65951 0.63892 0.0
O32 O 0.28929 0.76013 0.46262 0.0
O33 O 0.33681 0.68174 0.47144 0.0
O34 O 0.30887 0.72354 0.64433 0.0
O35 O 0.25678 0.67925 0.40655 0.0
O36 O 0.22534 0.72709 0.56689 0.0
O37 O 0.27334 0.64946 0.59597 0.0
O38 O 0.23131 0.73219 0.46362 0.0
O39 O 0.28127 0.64645 0.45896 0.0
O40 O 0.25547 0.68587 0.64997 0.0
O41 O 0.31429 0.70875 0.40176 0.0
O42 O 0.27769 0.76559 0.56342 0.0
O43 O 0.32925 0.68395 0.60888 0.0
Sc44 Sc 0.76394 0.76331 0.90811 0.0
Sc45 Sc 0.81089 0.81853 0.94994 0.0
Sc46 Sc 0.77548 0.77931 0.06639 0.0
O47 O 0.7835 0.78707 0.97473 0.0
C48 C 0.71432 0.77393 0.00595 0.0
C49 C 0.76266 0.82477 0.84679 0.0
C50 C 0.77804 0.84691 0.06418 0.0
C51 C 0.82628 0.76916 0.85281 0.0
C52 C 0.77711 0.71674 0.01149 0.0
C53 C 0.84173 0.79096 0.06756 0.0
O54 O 0.72306 0.76824 0.95106 0.0
O55 O 0.78267 0.83497 0.87951 0.0
O56 O 0.77032 0.8234 0.08739 0.0
O57 O 0.80283 0.75623 0.85815 0.0
O58 O 0.77987 0.7342 0.05625 0.0
O59 O 0.84223 0.80563 0.01766 0.0
O60 O 0.771 0.72417 0.95613 0.0
O61 O 0.83187 0.79193 0.88221 0.0
O62 O 0.81927 0.78034 0.09 0.0
O63 O 0.75427 0.79937 0.85186 0.0
O64 O 0.73075 0.77787 0.05201 0.0
O65 O 0.79307 0.84877 0.01497 0.0
Sc66 Sc 0.72972 0.27493 0.59621 0.0
Sc67 Sc 0.69101 0.31575 0.48759 0.0
Sc68 Sc 0.73916 0.26376 0.4357 0.0
O69 O 0.71988 0.28488 0.50647 0.0
C70 C 0.78996 0.27404 0.53172 0.0
C71 C 0.72241 0.34217 0.60457 0.0
C72 C 0.73869 0.32687 0.38413 0.0
C73 C 0.66315 0.28209 0.6033 0.0
C74 C 0.73013 0.21392 0.5316 0.0
C75 C 0.67603 0.26918 0.38493 0.0
O76 O 0.77427 0.27908 0.5788 0.0
O77 O 0.70973 0.34519 0.55273 0.0
O78 O 0.74882 0.30208 0.38753 0.0
O79 O 0.68611 0.27045 0.62013 0.0
O80 O 0.73136 0.22329 0.47617 0.0
O81 O 0.66916 0.29007 0.41934 0.0
O82 O 0.73106 0.22985 0.57947 0.0
O83 O 0.66175 0.29984 0.55835 0.0
O84 O 0.70044 0.25812 0.38534 0.0
O85 O 0.72947 0.31826 0.62653 0.0
O86 O 0.78023 0.2668 0.47859 0.0
O87 O 0.71726 0.33484 0.4157 0.0
H88 H 0.18947 0.56311 0.0308 0.0
H89 H 0.21055 0.49206 0.91463 0.0
H90 H 0.22115 0.48636 0.11342 0.0
C91 C 0.19707 0.5416 0.02617 0.0
C92 C 0.20549 0.52657 0.07976 0.0
C93 C 0.2 0.52989 0.96615 0.0
C94 C 0.20826 0.50147 0.96059 0.0
C95 C 0.21499 0.48536 0.01374 0.0
C96 C 0.21388 0.49815 0.07312 0.0
H97 H 0.93169 0.75131 0.45599 0.0
H98 H 0.01442 0.76647 0.38031 0.0
H99 H 0.00381 0.75087 0.57753 0.0
C100 C 0.95437 0.75282 0.46203 0.0
C101 C 0.96586 0.74934 0.52199 0.0
C102 C 0.97168 0.7596 0.41078 0.0
C103 C 0.00081 0.76234 0.42011 0.0
C104 C 0.01262 0.75948 0.48002 0.0
C105 C 0.99499 0.75296 0.53098 0.0
H106 H 0.77999 0.42769 0.99137 0.0
H107 H 0.78976 0.49943 0.11149 0.0
H108 H 0.77729 0.51162 0.91337 0.0
C109 C 0.78103 0.45049 0.99682 0.0
C110 C 0.77699 0.4683 0.94498 0.0
C111 C 0.78542 0.46172 0.05653 0.0
C112 C 0.78702 0.49101 0.06467 0.0
C113 C 0.78498 0.50929 0.01302 0.0
C114 C 0.77968 0.49773 0.95325 0.0
H115 H 0.07708 0.27968 0.45628 0.0
H116 H 0.00984 0.27894 0.5913 0.0
H117 H 0.99125 0.28493 0.39382 0.0
C118 C 0.05471 0.28051 0.46721 0.0
C119 C 0.03514 0.28208 0.41842 0.0
C120 C 0.04573 0.27945 0.52964 0.0
C121 C 0.01674 0.27998 0.54297 0.0
C122 C 0.99673 0.28227 0.49454 0.0
C123 C 0.00618 0.28297 0.43191 0.0
H124 H 0.72384 0.92803 0.43966 0.0
H125 H 0.71433 0.99299 0.57772 0.0
H126 H 0.73133 0.0155 0.38588 0.0
C127 C 0.72247 0.95034 0.45114 0.0
C128 C 0.72676 0.97083 0.40434 0.0
C129 C 0.71842 0.95831 0.51361 0.0
C130 C 0.71811 0.98701 0.52942 0.0
C131 C 0.72314 0.00787 0.48407 0.0
C132 C 0.7272 -0.00037 0.42128 0.0
H133 H 0.57356 0.23893 0.98947 0.0
H134 H 0.5042 0.21602 0.10747 0.0
H135 H 0.49196 0.22393 0.90782 0.0
C136 C 0.55148 0.23321 0.99424 0.0
C137 C 0.53393 0.23242 0.94141 0.0
C138 C 0.54074 0.22694 0.05355 0.0
C139 C 0.51223 0.22006 0.0608 0.0
C140 C 0.49417 0.21897 0.00863 0.0
C141 C 0.5053 0.22522 0.94885 0.0
H142 H 0.23484 0.05767 0.5028 0.0
H143 H 0.25486 0.98426 0.39193 0.0
H144 H 0.26856 0.98358 0.59125 0.0
C145 C 0.24254 0.03612 0.49933 0.0
C146 C 0.25134 0.02207 0.55363 0.0
C147 C 0.24409 0.02281 0.44061 0.0
C148 C 0.25388 0.99476 0.437 0.0
C149 C 0.26255 0.98029 0.49121 0.0
C150 C 0.26146 0.99427 0.54927 0.0
H151 H 0.42934 0.7394 0.02904 0.0
H152 H 0.50444 0.76333 0.92953 0.0
H153 H 0.50653 0.7548 0.12943 0.0
C154 C 0.45142 0.74531 0.02977 0.0
C155 C 0.46596 0.74695 0.08703 0.0
C156 C 0.46538 0.75035 0.97279 0.0
C157 C 0.4938 0.7587 0.97332 0.0
C158 C 0.50846 0.76123 0.03004 0.0
C159 C 0.49458 0.7547 0.08629 0.0
H160 H 0.11337 0.20824 0.13916 0.0
H161 H 0.15719 0.28799 0.11411 0.0
H162 H 0.12192 0.31187 0.18098 0.0
H163 H 0.03913 0.23798 0.15613 0.0
H164 H 0.03062 0.2128 0.21664 0.0
H165 H 0.05489 0.20326 0.15496 0.0
H166 H 0.09265 0.19025 0.23767 0.0
H167 H 0.06858 0.19968 0.29928 0.0
H168 H 0.10283 0.21625 0.29525 0.0
H169 H 0.08791 0.32533 0.26327 0.0
H170 H 0.05923 0.32677 0.36006 0.0
H171 H 0.03765 0.23843 0.33567 0.0
C172 C 0.11475 0.23093 0.14591 0.0
C173 C 0.13758 0.24646 0.1209 0.0
C174 C 0.13961 0.27587 0.13258 0.0
C175 C 0.11959 0.28961 0.1701 0.0
C176 C 0.09774 0.27361 0.19587 0.0
C177 C 0.09518 0.24487 0.1844 0.0
C178 C 0.07258 0.23177 0.22558 0.0
C179 C 0.04783 0.22081 0.18594 0.0
C180 C 0.08491 0.20811 0.26688 0.0
C181 C 0.06389 0.25728 0.26415 0.0
C182 C 0.07812 0.28137 0.24498 0.0
C183 C 0.07603 0.30686 0.27763 0.0
C184 C 0.0597 0.30755 0.33234 0.0
C185 C 0.04581 0.28293 0.35373 0.0
C186 C 0.0473 0.25773 0.3185 0.0
H187 H 0.25031 0.66141 0.7653 0.0
H188 H 0.23046 0.61191 0.60024 0.0
H189 H 0.20636 0.57632 0.66644 0.0
H190 H 0.2696 0.60372 0.8556 0.0
H191 H 0.25627 0.61765 0.92848 0.0
H192 H 0.26714 0.64143 0.86743 0.0
H193 H 0.21778 0.66518 0.87007 0.0
H194 H 0.20672 0.64119 0.93096 0.0
H195 H 0.1866 0.64378 0.85968 0.0
H196 H 0.18772 0.54452 0.75117 0.0
H197 H 0.18093 0.51644 0.84738 0.0
H198 H 0.21738 0.58505 0.95627 0.0
C199 C 0.24018 0.64345 0.74317 0.0
C200 C 0.24175 0.63946 0.67791 0.0
C201 C 0.22922 0.61528 0.65035 0.0
C202 C 0.21534 0.59513 0.68745 0.0
C203 C 0.2145 0.59939 0.75199 0.0
C204 C 0.22686 0.62282 0.77967 0.0
C205 C 0.22647 0.62054 0.85026 0.0
C206 C 0.25665 0.62083 0.87697 0.0
C207 C 0.2083 0.64407 0.87945 0.0
C208 C 0.21264 0.59186 0.8579 0.0
C209 C 0.20521 0.58032 0.80087 0.0
C210 C 0.19335 0.55339 0.79617 0.0
C211 C 0.18977 0.53751 0.85109 0.0
C212 C 0.19865 0.54836 0.90977 0.0
C213 C 0.20961 0.57621 0.91282 0.0
H214 H 0.85195 0.75016 0.15437 0.0
H215 H 0.89041 0.82267 0.06311 0.0
H216 H 0.9313 0.81908 0.13457 0.0
H217 H 0.86848 0.76858 0.30442 0.0
H218 H 0.87552 0.73323 0.33193 0.0
H219 H 0.85171 0.73859 0.26767 0.0
H220 H 0.88155 0.70498 0.19807 0.0
H221 H 0.90537 0.6992 0.26248 0.0
H222 H 0.9188 0.71154 0.18836 0.0
H223 H 0.96393 0.81195 0.22594 0.0
H224 H 0.98689 0.80065 0.32627 0.0
H225 H 0.92772 0.73154 0.35457 0.0
C226 C 0.86923 0.76496 0.14844 0.0
C227 C 0.868 0.78677 0.10338 0.0
C228 C 0.89102 0.8057 0.09711 0.0
C229 C 0.9143 0.80382 0.13748 0.0
C230 C 0.91433 0.78261 0.18287 0.0
C231 C 0.89255 0.76326 0.18785 0.0
C232 C 0.89647 0.74381 0.24331 0.0
C233 C 0.87157 0.74622 0.28954 0.0
C234 C 0.90082 0.71306 0.22175 0.0
C235 C 0.92322 0.75603 0.27056 0.0
C236 C 0.93341 0.77817 0.23474 0.0
C237 C 0.95658 0.7942 0.2535 0.0
C238 C 0.96953 0.78753 0.31054 0.0
C239 C 0.95925 0.76504 0.3482 0.0
C240 C 0.93607 0.74888 0.32708 0.0
H241 H 0.71284 0.34831 0.72831 0.0
H242 H 0.74681 0.39194 0.56658 0.0
H243 H 0.76248 0.43149 0.63513 0.0
H244 H 0.68744 0.41273 0.8094 0.0
H245 H 0.69572 0.39834 0.88526 0.0
H246 H 0.68573 0.37506 0.8222 0.0
H247 H 0.73205 0.34668 0.83757 0.0
H248 H 0.74234 0.37002 0.90004 0.0
H249 H 0.76547 0.36492 0.83388 0.0
H250 H 0.77958 0.46299 0.7252 0.0
H251 H 0.79259 0.48547 0.82575 0.0
H252 H 0.74247 0.42274 0.92476 0.0
C253 C 0.72319 0.36644 0.70731 0.0
C254 C 0.72882 0.36726 0.64263 0.0
C255 C 0.74226 0.3912 0.61627 0.0
C256 C 0.75125 0.41362 0.6548 0.0
C257 C 0.7459 0.41188 0.71899 0.0
C258 C 0.7316 0.38912 0.74465 0.0
C259 C 0.72873 0.39184 0.81476 0.0
C260 C 0.69756 0.39467 0.83402 0.0
C261 C 0.74301 0.36689 0.8485 0.0
C262 C 0.74461 0.41915 0.82513 0.0
C263 C 0.75443 0.43049 0.76964 0.0
C264 C 0.77146 0.45461 0.76879 0.0
C265 C 0.77867 0.46729 0.82619 0.0
C266 C 0.76871 0.45589 0.88356 0.0
C267 C 0.75098 0.43183 0.88222 0.0
H268 H 0.63382 0.29689 0.32241 0.0
H269 H 0.67133 0.21405 0.34965 0.0
H270 H 0.63814 0.19361 0.27294 0.0
H271 H 0.56076 0.27325 0.29725 0.0
H272 H 0.55438 0.2991 0.23694 0.0
H273 H 0.57906 0.30673 0.29883 0.0
H274 H 0.618 0.31696 0.21646 0.0
H275 H 0.59351 0.30929 0.15441 0.0
H276 H 0.62647 0.29035 0.15883 0.0
H277 H 0.60283 0.18255 0.1899 0.0
H278 H 0.56864 0.18215 0.10215 0.0
H279 H 0.55543 0.27226 0.12532 0.0
C280 C 0.63461 0.27436 0.31303 0.0
C281 C 0.65491 0.25696 0.34214 0.0
C282 C 0.65588 0.22771 0.32771 0.0
C283 C 0.63706 0.21589 0.28449 0.0
C284 C 0.61759 0.23368 0.25577 0.0
C285 C 0.61628 0.2623 0.26915 0.0
C286 C 0.59485 0.27708 0.22809 0.0
C287 C 0.57084 0.28978 0.26766 0.0
C288 C 0.60907 0.29975 0.18702 0.0
C289 C 0.58455 0.25235 0.18919 0.0
C290 C 0.59771 0.22744 0.20645 0.0
C291 C 0.59223 0.20185 0.17621 0.0
C292 C 0.57291 0.20178 0.12666 0.0
C293 C 0.55961 0.22712 0.10794 0.0
C294 C 0.56534 0.25265 0.13959 0.0
H295 H 0.19018 0.1295 0.80656 0.0
H296 H 0.27443 0.13272 0.88491 0.0
H297 H 0.28914 0.09337 0.81564 0.0
H298 H 0.18701 0.05196 0.77523 0.0
H299 H 0.16903 0.05697 0.7018 0.0
H300 H 0.16376 0.08179 0.76493 0.0
H301 H 0.17882 0.12292 0.69193 0.0
H302 H 0.18427 0.09829 0.62881 0.0
H303 H 0.21258 0.12135 0.65288 0.0
H304 H 0.2957 0.05663 0.73269 0.0
H305 H 0.29478 0.02765 0.63619 0.0
H306 H 0.20722 0.0507 0.6068 0.0
C307 C 0.21144 0.12124 0.81027 0.0
C308 C 0.23111 0.13356 0.85156 0.0
C309 C 0.25908 0.12317 0.85381 0.0
C310 C 0.26754 0.10082 0.81493 0.0
C311 C 0.24784 0.08943 0.7736 0.0
C312 C 0.2204 0.09939 0.77067 0.0
C313 C 0.20444 0.08596 0.71693 0.0
C314 C 0.17959 0.0681 0.7412 0.0
C315 C 0.19446 0.10847 0.66987 0.0
C316 C 0.22737 0.06744 0.68927 0.0
C317 C 0.25204 0.06925 0.7235 0.0
C318 C 0.27644 0.05481 0.70583 0.0
C319 C 0.27573 0.03839 0.65116 0.0
C320 C 0.25094 0.03701 0.61443 0.0
C321 C 0.22641 0.05145 0.63423 0.0
H322 H 0.34615 0.67948 0.30202 0.0
H323 H 0.38334 0.7234 0.45965 0.0
H324 H 0.42309 0.73904 0.39232 0.0
H325 H 0.41538 0.65655 0.23078 0.0
H326 H 0.40182 0.66076 0.15258 0.0
H327 H 0.37845 0.65052 0.2153 0.0
H328 H 0.34606 0.69304 0.18904 0.0
H329 H 0.36957 0.70381 0.12727 0.0
H330 H 0.36063 0.72832 0.18891 0.0
H331 H 0.45306 0.75679 0.3037 0.0
H332 H 0.47596 0.76947 0.20432 0.0
H333 H 0.42279 0.70851 0.10719 0.0
C334 C 0.36324 0.69158 0.32253 0.0
C335 C 0.36217 0.70014 0.3856 0.0
C336 C 0.38433 0.71638 0.41139 0.0
C337 C 0.4068 0.72542 0.37352 0.0
C338 C 0.40689 0.71735 0.31071 0.0
C339 C 0.38613 0.70009 0.28584 0.0
C340 C 0.39063 0.69524 0.21654 0.0
C341 C 0.39696 0.6639 0.20302 0.0
C342 C 0.36521 0.70574 0.17823 0.0
C343 C 0.41638 0.71353 0.20572 0.0
C344 C 0.42536 0.72619 0.26046 0.0
C345 C 0.44691 0.74622 0.26088 0.0
C346 C 0.4599 0.75317 0.20395 0.0
C347 C 0.45169 0.73975 0.14728 0.0
C348 C 0.42968 0.71949 0.14891 0.0
H349 H 0.77544 0.87976 0.81545 0.0
H350 H 0.71913 0.81018 0.76892 0.0
H351 H 0.69876 0.83846 0.68368 0.0
H352 H 0.72522 0.93718 0.7794 0.0
H353 H 0.75248 0.9595 0.74717 0.0
H354 H 0.76081 0.93481 0.80867 0.0
H355 H 0.79984 0.91258 0.739 0.0
H356 H 0.79162 0.93711 0.67738 0.0
H357 H 0.79084 0.89957 0.6622 0.0
H358 H 0.6879 0.87212 0.59685 0.0
H359 H 0.68646 0.90993 0.51668 0.0
H360 H 0.74906 0.95749 0.62103 0.0
C361 C 0.75852 0.8706 0.78809 0.0
C362 C 0.74898 0.84271 0.79898 0.0
C363 C 0.72689 0.83149 0.7616 0.0
C364 C 0.71507 0.84741 0.71309 0.0
C365 C 0.72535 0.87459 0.70287 0.0
C366 C 0.7464 0.88621 0.73959 0.0
C367 C 0.75474 0.91531 0.71661 0.0
C368 C 0.74789 0.93804 0.7659 0.0
C369 C 0.78611 0.91617 0.69766 0.0
C370 C 0.73565 0.91784 0.66027 0.0
C371 C 0.71872 0.89423 0.65331 0.0
C372 C 0.7007 0.89095 0.60229 0.0
C373 C 0.7001 0.91238 0.55696 0.0
C374 C 0.71737 0.93665 0.56333 0.0
C375 C 0.73512 0.93945 0.61594 0.0
H376 H 0.87787 0.79208 0.82247 0.0
H377 H 0.82254 0.72111 0.78088 0.0
H378 H 0.8558 0.70498 0.69953 0.0
H379 H 0.89527 0.80791 0.66959 0.0
H380 H 0.93153 0.81726 0.68474 0.0
H381 H 0.90548 0.82109 0.74549 0.0
H382 H 0.93526 0.78924 0.8187 0.0
H383 H 0.9615 0.78533 0.75804 0.0
H384 H 0.94559 0.75442 0.79278 0.0
H385 H 0.8914 0.70011 0.61405 0.0
H386 H 0.9276 0.70652 0.53161 0.0
H387 H 0.96041 0.77974 0.62997 0.0
C388 C 0.87296 0.7728 0.79726 0.0
C389 C 0.84752 0.7579 0.80823 0.0
C390 C 0.84186 0.73294 0.77352 0.0
C391 C 0.86069 0.72351 0.72731 0.0
C392 C 0.88522 0.73907 0.71677 0.0
C393 C 0.89154 0.76306 0.75109 0.0
C394 C 0.9182 0.77718 0.72729 0.0
C395 C 0.91224 0.80765 0.70547 0.0
C396 C 0.94152 0.77649 0.77718 0.0
C397 C 0.92529 0.75798 0.67272 0.0
C398 C 0.90617 0.73595 0.66788 0.0
C399 C 0.90686 0.71689 0.61806 0.0
C400 C 0.92737 0.72072 0.57147 0.0
C401 C 0.94687 0.74336 0.57524 0.0
C402 C 0.94615 0.76184 0.62708 0.0
H403 H 0.7201 0.37939 0.34552 0.0
H404 H 0.78894 0.31935 0.32362 0.0
H405 H 0.81102 0.35037 0.24548 0.0
H406 H 0.71377 0.39637 0.1878 0.0
H407 H 0.70635 0.43343 0.19949 0.0
H408 H 0.69738 0.40825 0.25941 0.0
H409 H 0.727 0.43663 0.33982 0.0
H410 H 0.73608 0.46196 0.27998 0.0
H411 H 0.76355 0.44427 0.32312 0.0
H412 H 0.8228 0.3842 0.16128 0.0
H413 H 0.82385 0.42016 0.07712 0.0
H414 H 0.74888 0.45941 0.15474 0.0
C415 C 0.74008 0.37303 0.32518 0.0
C416 C 0.75267 0.34687 0.34072 0.0
C417 C 0.77871 0.3392 0.3124 0.0
C418 C 0.79158 0.35675 0.26814 0.0
C419 C 0.77836 0.38207 0.25296 0.0
C420 C 0.75332 0.39038 0.2808 0.0
C421 C 0.74263 0.41777 0.25273 0.0
C422 C 0.7133 0.41369 0.22309 0.0
C423 C 0.7423 0.44157 0.30185 0.0
C424 C 0.76509 0.42294 0.20345 0.0
C425 C 0.78563 0.40219 0.20482 0.0
C426 C 0.80724 0.40096 0.1605 0.0
C427 C 0.80767 0.42132 0.11296 0.0
C428 C 0.78675 0.44258 0.11065 0.0
C429 C 0.7655 0.4437 0.15691 0.0
H430 H 0.12163 0.21437 0.83011 0.0
H431 H 0.19045 0.2729 0.79304 0.0
H432 H 0.16303 0.29439 0.70781 0.0
H433 H 0.10439 0.20186 0.67227 0.0
H434 H 0.06677 0.19991 0.68459 0.0
H435 H 0.09053 0.19066 0.74692 0.0
H436 H 0.06643 0.22747 0.81945 0.0
H437 H 0.04253 0.23681 0.75729 0.0
H438 H 0.06367 0.26378 0.7943 0.0
H439 H 0.13015 0.30756 0.62282 0.0
H440 H 0.09332 0.31144 0.54178 0.0
H441 H 0.04579 0.24422 0.63184 0.0
C442 C 0.1307 0.23202 0.80474 0.0
C443 C 0.15817 0.24196 0.8183 0.0
C444 C 0.1695 0.26481 0.78335 0.0
C445 C 0.15405 0.27728 0.73502 0.0
C446 C 0.12728 0.26671 0.72214 0.0
C447 C 0.11561 0.24465 0.75588 0.0
C448 C 0.08707 0.23628 0.72972 0.0
C449 C 0.08722 0.20535 0.70702 0.0
C450 C 0.06353 0.2414 0.77808 0.0
C451 C 0.08486 0.25675 0.6754 0.0
C452 C 0.1082 0.27425 0.67233 0.0
C453 C 0.11165 0.29413 0.62488 0.0
C454 C 0.09075 0.29606 0.57892 0.0
C455 C 0.06679 0.27812 0.58062 0.0
C456 C 0.06371 0.25845 0.62995 0.0
H457 H 0.2523 0.65627 0.29321 0.0
H458 H 0.24706 0.60059 0.45393 0.0
H459 H 0.22758 0.56257 0.38642 0.0
H460 H 0.18985 0.6316 0.21005 0.0
H461 H 0.20677 0.63401 0.13457 0.0
H462 H 0.21718 0.65753 0.19685 0.0
H463 H 0.26917 0.64107 0.18486 0.0
H464 H 0.25891 0.61769 0.1224 0.0
H465 H 0.27728 0.60385 0.18951 0.0
H466 H 0.20944 0.53045 0.29944 0.0
H467 H 0.19864 0.50576 0.20025 0.0
H468 H 0.2213 0.58189 0.09754 0.0
C469 C 0.24652 0.63625 0.31434 0.0
C470 C 0.25069 0.63135 0.37866 0.0
C471 C 0.24379 0.60465 0.40458 0.0
C472 C 0.23262 0.58306 0.36674 0.0
C473 C 0.22896 0.5885 0.30313 0.0
C474 C 0.23605 0.61436 0.27712 0.0
C475 C 0.23274 0.61411 0.20685 0.0
C476 C 0.21029 0.63558 0.18588 0.0
C477 C 0.26121 0.61948 0.174 0.0
C478 C 0.22274 0.58405 0.19723 0.0
C479 C 0.22018 0.56969 0.25316 0.0
C480 C 0.21145 0.5415 0.25531 0.0
C481 C 0.20555 0.52759 0.19862 0.0
C482 C 0.20892 0.54175 0.14053 0.0
C483 C 0.21757 0.57043 0.14059 0.0
H484 H 0.33194 0.73939 0.7482 0.0
H485 H 0.38244 0.68462 0.62905 0.0
H486 H 0.42396 0.6935 0.69584 0.0
H487 H 0.38713 0.79078 0.78462 0.0
H488 H 0.37574 0.79499 0.86465 0.0
H489 H 0.35045 0.78609 0.80485 0.0
H490 H 0.33513 0.74184 0.86813 0.0
H491 H 0.36026 0.75066 0.92813 0.0
H492 H 0.3614 0.71633 0.89128 0.0
H493 H 0.45944 0.70688 0.77722 0.0
H494 H 0.48555 0.72099 0.8722 0.0
H495 H 0.41181 0.7664 0.93921 0.0
C496 C 0.35181 0.72951 0.73575 0.0
C497 C 0.35399 0.7114 0.68331 0.0
C498 C 0.38025 0.6985 0.66916 0.0
C499 C 0.404 0.70356 0.70653 0.0
C500 C 0.4011 0.72145 0.75798 0.0
C501 C 0.37564 0.73408 0.77291 0.0
C502 C 0.37773 0.75093 0.83303 0.0
C503 C 0.37246 0.78258 0.82104 0.0
C504 C 0.35744 0.73923 0.88308 0.0
C505 C 0.40823 0.74545 0.85005 0.0
C506 C 0.42144 0.72874 0.80567 0.0
C507 C 0.44941 0.72016 0.81207 0.0
C508 C 0.46411 0.72841 0.86594 0.0
C509 C 0.45071 0.74484 0.91285 0.0
C510 C 0.42255 0.75379 0.90413 0.0
H511 H 0.73362 0.85353 0.14386 0.0
H512 H 0.80451 0.89871 0.06256 0.0
H513 H 0.79438 0.93964 0.13145 0.0
H514 H 0.68742 0.91705 0.16949 0.0
H515 H 0.67407 0.90271 0.24189 0.0
H516 H 0.68411 0.87928 0.17901 0.0
H517 H 0.71802 0.85285 0.25393 0.0
H518 H 0.70827 0.8762 0.31674 0.0
H519 H 0.74487 0.87255 0.29491 0.0
H520 H 0.78152 0.9717 0.22183 0.0
H521 H 0.76636 0.99237 0.32262 0.0
H522 H 0.70209 0.92731 0.33996 0.0
C523 C 0.74663 0.87229 0.13946 0.0
C524 C 0.76989 0.87295 0.09806 0.0
C525 C 0.78646 0.89785 0.0937 0.0
C526 C 0.78084 0.92119 0.1326 0.0
C527 C 0.75824 0.91945 0.17446 0.0
C528 C 0.74113 0.89575 0.17726 0.0
C529 C 0.71971 0.89798 0.2296 0.0
C530 C 0.68954 0.89935 0.20341 0.0
C531 C 0.72294 0.87345 0.27654 0.0
C532 C 0.72838 0.92595 0.25809 0.0
C533 C 0.75037 0.93826 0.22529 0.0
C534 C 0.7638 0.96266 0.2469 0.0
C535 C 0.75495 0.97434 0.30417 0.0
C536 C 0.73295 0.96153 0.33922 0.0
C537 C 0.71899 0.9376 0.31443 0.0
H538 H 0.65819 0.24247 0.69547 0.0
H539 H 0.61007 0.30632 0.596 0.0
H540 H 0.56915 0.29698 0.66546 0.0
H541 H 0.59943 0.19369 0.72744 0.0
H542 H 0.61311 0.18489 0.80363 0.0
H543 H 0.63697 0.19433 0.74121 0.0
H544 H 0.65843 0.23386 0.81077 0.0
H545 H 0.63464 0.22464 0.87319 0.0
H546 H 0.63554 0.26042 0.84402 0.0
H547 H 0.53501 0.28333 0.75348 0.0
H548 H 0.51186 0.26768 0.85176 0.0
H549 H 0.5833 0.21327 0.89114 0.0
C550 C 0.63897 0.25428 0.68729 0.0
C551 C 0.63742 0.27517 0.6401 0.0
C552 C 0.61178 0.29012 0.63161 0.0
C553 C 0.58841 0.28493 0.67081 0.0
C554 C 0.59099 0.26457 0.71779 0.0
C555 C 0.61566 0.24942 0.72575 0.0
C556 C 0.6141 0.23018 0.7821 0.0
C557 C 0.61601 0.19892 0.76239 0.0
C558 C 0.63703 0.23775 0.83034 0.0
C559 C 0.58497 0.2374 0.80601 0.0
C560 C 0.5717 0.25696 0.76803 0.0
C561 C 0.5451 0.26776 0.78301 0.0
C562 C 0.53207 0.25869 0.83874 0.0
C563 C 0.54585 0.23932 0.87897 0.0
C564 C 0.57233 0.2282 0.86141 0.0
H565 H 0.23581 0.15789 0.21872 0.0
H566 H 0.18473 0.10803 0.09076 0.0
H567 H 0.18901 0.06683 0.16113 0.0
H568 H 0.28358 0.1023 0.26226 0.0
H569 H 0.286 0.11378 0.34257 0.0
H570 H 0.27904 0.13917 0.28173 0.0
H571 H 0.23368 0.15521 0.33996 0.0
H572 H 0.24049 0.12986 0.40093 0.0
H573 H 0.20722 0.12931 0.36015 0.0
H574 H 0.19884 0.03095 0.24656 0.0
H575 H 0.21269 0.00391 0.34078 0.0
H576 H 0.25752 0.07752 0.41088 0.0
C577 C 0.22551 0.13835 0.20521 0.0
C578 C 0.20992 0.1363 0.14902 0.0
C579 C 0.19678 0.11023 0.13351 0.0
C580 C 0.19911 0.08666 0.17316 0.0
C581 C 0.21464 0.08948 0.22813 0.0
C582 C 0.22758 0.1147 0.24413 0.0
C583 C 0.24284 0.11237 0.30603 0.0
C584 C 0.27476 0.11718 0.29761 0.0
C585 C 0.2303 0.1329 0.35463 0.0
C586 C 0.23641 0.08192 0.32254 0.0
C587 C 0.22019 0.069 0.27705 0.0
C588 C 0.21159 0.04086 0.28241 0.0
C589 C 0.21967 0.02563 0.33587 0.0
C590 C 0.23609 0.03862 0.38327 0.0
C591 C 0.24463 0.06709 0.37595 0.0
H592 H 0.21562 0.31869 0.07626 0.0
H593 H 0.26848 0.31083 0.91095 0.0
H594 H 0.271 0.36288 0.90279 0.0
H595 H 0.17488 0.37529 0.01933 0.0
H596 H 0.17134 0.39305 0.09366 0.0
H597 H 0.17624 0.35528 0.09108 0.0
H598 H 0.22001 0.35989 0.16292 0.0
H599 H 0.21523 0.39772 0.16582 0.0
H600 H 0.24851 0.38312 0.14054 0.0
H601 H 0.26609 0.41516 0.90919 0.0
H602 H 0.25219 0.4648 0.92658 0.0
H603 H 0.20037 0.43904 0.08451 0.0
C604 C 0.22819 0.32799 0.03918 0.0
C605 C 0.24209 0.31084 0.99455 0.0
C606 C 0.25772 0.32366 0.94564 0.0
C607 C 0.25939 0.35316 0.9408 0.0
C608 C 0.24513 0.3695 0.98496 0.0
C609 C 0.22972 0.35745 0.03308 0.0
C610 C 0.21455 0.37984 0.07126 0.0
C611 C 0.18235 0.37561 0.06863 0.0
C612 C 0.22522 0.38016 0.13916 0.0
C613 C 0.22355 0.4063 0.03649 0.0
C614 C 0.24147 0.39982 0.9874 0.0
C615 C 0.25207 0.42053 0.94747 0.0
C616 C 0.24386 0.44863 0.95742 0.0
C617 C 0.22494 0.45575 0.00647 0.0
C618 C 0.21502 0.43427 0.04698 0.0
H619 H 0.16867 0.71121 0.56944 0.0
H620 H 0.19789 0.77598 0.44087 0.0
H621 H 0.14907 0.79331 0.42894 0.0
H622 H 0.10729 0.69435 0.48317 0.0
H623 H 0.0854 0.68756 0.55064 0.0
H624 H 0.12297 0.68241 0.55527 0.0
H625 H 0.12515 0.71657 0.65017 0.0
H626 H 0.08754 0.722 0.64549 0.0
H627 H 0.11119 0.7519 0.64284 0.0
H628 H 0.09784 0.80267 0.42786 0.0
H629 H 0.04592 0.80019 0.42735 0.0
H630 H 0.04891 0.72707 0.55019 0.0
C631 C 0.16468 0.72926 0.53953 0.0
C632 C 0.18682 0.74246 0.50629 0.0
C633 C 0.18103 0.76562 0.46646 0.0
C634 C 0.15348 0.77575 0.45988 0.0
C635 C 0.13202 0.76224 0.49293 0.0
C636 C 0.13714 0.73927 0.5313 0.0
C637 C 0.10983 0.72691 0.55631 0.0
C638 C 0.10616 0.69598 0.53505 0.0
C639 C 0.10835 0.72951 0.62796 0.0
C640 C 0.08862 0.74624 0.52505 0.0
C641 C 0.10199 0.76682 0.48987 0.0
C642 C 0.08707 0.78666 0.45514 0.0
C643 C 0.05762 0.78496 0.45485 0.0
C644 C 0.04343 0.76324 0.48813 0.0
C645 C 0.05917 0.74407 0.52487 0.0
H646 H 0.75269 0.67244 0.95039 0.0
H647 H 0.81116 0.69272 0.10005 0.0
H648 H 0.8199 0.64161 0.11652 0.0
H649 H 0.72232 0.61094 0.02567 0.0
H650 H 0.71824 0.5918 0.9532 0.0
H651 H 0.71688 0.6299 0.95351 0.0
H652 H 0.75698 0.6314 0.87072 0.0
H653 H 0.75862 0.59332 0.87053 0.0
H654 H 0.78993 0.61377 0.88666 0.0
H655 H 0.82417 0.58855 0.11186 0.0
H656 H 0.82063 0.53718 0.09358 0.0
H657 H 0.75617 0.55198 0.95285 0.0
C658 C 0.76733 0.66612 0.98665 0.0
C659 C 0.78142 0.6864 0.02374 0.0
C660 C 0.80012 0.6774 0.07131 0.0
C661 C 0.80529 0.64849 0.08078 0.0
C662 C 0.79123 0.62903 0.0429 0.0
C663 C 0.77233 0.63745 0.99743 0.0
C664 C 0.75943 0.61235 0.96407 0.0
C665 C 0.72732 0.61118 0.97479 0.0
C666 C 0.76669 0.61274 0.89384 0.0
C667 C 0.77431 0.58844 0.9973 0.0
C668 C 0.79271 0.59849 0.04224 0.0
C669 C 0.80949 0.5804 0.07751 0.0
C670 C 0.80716 0.55122 0.067 0.0
C671 C 0.78788 0.54035 0.02219 0.0
C672 C 0.77133 0.55941 0.98697 0.0
H673 H 0.83141 0.25425 0.45316 0.0
H674 H 0.81837 0.30198 0.62475 0.0
H675 H 0.86978 0.30959 0.63312 0.0
H676 H 0.89543 0.21942 0.50249 0.0
H677 H 0.91143 0.22089 0.42592 0.0
H678 H 0.87358 0.21924 0.43349 0.0
H679 H 0.86902 0.26499 0.36741 0.0
H680 H 0.90687 0.26689 0.35997 0.0
H681 H 0.88754 0.29651 0.39158 0.0
H682 H 0.92216 0.31368 0.62053 0.0
H683 H 0.97249 0.31136 0.59199 0.0
H684 H 0.95165 0.25868 0.43169 0.0
C685 C 0.83933 0.26628 0.49258 0.0
C686 C 0.82084 0.27757 0.53825 0.0
C687 C 0.83211 0.29302 0.58933 0.0
C688 C 0.86127 0.29755 0.59437 0.0
C689 C 0.87884 0.28631 0.54828 0.0
C690 C 0.86835 0.27077 0.4987 0.0
C691 C 0.89185 0.26065 0.45601 0.0
C692 C 0.89315 0.22812 0.45442 0.0
C693 C 0.88862 0.273 0.38983 0.0
C694 C 0.91719 0.27308 0.4892 0.0
C695 C 0.90918 0.28794 0.54207 0.0
C696 C 0.92874 0.3018 0.5797 0.0
C697 C 0.95733 0.30017 0.56326 0.0
C698 C 0.96619 0.2845 0.51001 0.0
C699 C 0.94568 0.27096 0.47244 0.0
H700 H 0.70937 0.17526 0.44879 0.0
H701 H 0.74734 0.18296 0.63282 0.0
H702 H 0.74844 0.13078 0.64183 0.0
H703 H 0.66531 0.11363 0.48592 0.0
H704 H 0.66987 0.09839 0.40917 0.0
H705 H 0.67075 0.13627 0.41908 0.0
H706 H 0.71991 0.13786 0.36572 0.0
H707 H 0.71937 0.09999 0.35626 0.0
H708 H 0.74827 0.11671 0.39682 0.0
H709 H 0.74987 0.07838 0.62576 0.0
H710 H 0.74724 0.02881 0.59119 0.0
H711 H 0.70505 0.05527 0.42055 0.0
C712 C 0.71769 0.16597 0.49125 0.0
C713 C 0.72844 0.18304 0.54002 0.0
C714 C 0.73892 0.17019 0.59507 0.0
C715 C 0.73971 0.14064 0.60047 0.0
C716 C 0.7295 0.12443 0.55086 0.0
C717 C 0.71826 0.13662 0.49778 0.0
C718 C 0.7089 0.11447 0.45097 0.0
C719 C 0.6768 0.11577 0.44071 0.0
C720 C 0.72509 0.11744 0.38879 0.0
C721 C 0.71732 0.08786 0.48539 0.0
C722 C 0.72921 0.0941 0.5428 0.0
C723 C 0.73999 0.07316 0.5816 0.0
C724 C 0.73822 0.04502 0.56158 0.0
C725 C 0.7254 0.03797 0.50358 0.0
C726 C 0.71495 0.05984 0.46505 0.0
H727 H 0.32901 0.23441 0.9486 0.0
H728 H 0.31447 0.18023 0.10925 0.0
H729 H 0.36623 0.17391 0.12091 0.0
H730 H 0.38951 0.19827 0.88466 0.0
H731 H 0.40715 0.23058 0.86253 0.0
H732 H 0.36915 0.22921 0.86492 0.0
H733 H 0.36831 0.27196 0.94117 0.0
H734 H 0.40626 0.27357 0.93871 0.0
H735 H 0.38828 0.27029 0.01281 0.0
H736 H 0.41975 0.17313 0.11254 0.0
H737 H 0.47033 0.18161 0.09285 0.0
H738 H 0.44869 0.24021 0.94382 0.0
C739 C 0.33669 0.22093 0.98584 0.0
C740 C 0.31787 0.20745 0.02757 0.0
C741 C 0.32866 0.19061 0.07672 0.0
C742 C 0.35793 0.18683 0.08343 0.0
C743 C 0.37592 0.20042 0.04118 0.0
C744 C 0.36566 0.21744 0.9939 0.0
C745 C 0.38924 0.23123 0.95713 0.0
C746 C 0.38872 0.22174 0.88823 0.0
C747 C 0.38794 0.26368 0.96283 0.0
C748 C 0.41453 0.21931 0.99096 0.0
C749 C 0.40648 0.20127 0.03868 0.0
C750 C 0.42626 0.18749 0.07579 0.0
C751 C 0.45499 0.19267 0.06448 0.0
C752 C 0.46373 0.21193 0.01721 0.0
C753 C 0.44301 0.22513 0.9798 0.0
H754 H 0.26645 0.81758 0.58668 0.0
H755 H 0.31754 0.80257 0.42099 0.0
H756 H 0.32005 0.85407 0.4022 0.0
H757 H 0.22503 0.87008 0.52201 0.0
H758 H 0.22219 0.8913 0.59193 0.0
H759 H 0.22786 0.85376 0.59798 0.0
H760 H 0.2727 0.86243 0.66468 0.0
H761 H 0.26701 0.90008 0.65944 0.0
H762 H 0.30025 0.88512 0.63495 0.0
H763 H 0.31293 0.90671 0.39548 0.0
H764 H 0.29765 0.95661 0.40296 0.0
H765 H 0.24987 0.93666 0.57086 0.0
C766 C 0.2789 0.82513 0.54752 0.0
C767 C 0.29199 0.80605 0.50559 0.0
C768 C 0.30743 0.8168 0.45388 0.0
C769 C 0.30901 0.84602 0.44286 0.0
C770 C 0.29507 0.86419 0.48397 0.0
C771 C 0.28047 0.85418 0.53551 0.0
C772 C 0.26535 0.87789 0.5695 0.0
C773 C 0.23321 0.87295 0.57036 0.0
C774 C 0.27703 0.8816 0.63609 0.0
C775 C 0.2732 0.90269 0.52824 0.0
C776 C 0.29057 0.89444 0.47951 0.0
C777 C 0.29955 0.91347 0.4338 0.0
C778 C 0.29055 0.9417 0.4381 0.0
C779 C 0.27261 0.95056 0.48754 0.0
C780 C 0.26401 0.93069 0.53318 0.0
H781 H 0.67113 0.75111 0.93706 0.0
H782 H 0.68855 0.80376 0.09929 0.0
H783 H 0.63745 0.80915 0.11794 0.0
H784 H 0.60788 0.78823 0.88497 0.0
H785 H 0.58996 0.75613 0.86249 0.0
H786 H 0.62794 0.758 0.85886 0.0
H787 H 0.6316 0.71382 0.93027 0.0
H788 H 0.59369 0.71173 0.9338 0.0
H789 H 0.61389 0.71382 0.00507 0.0
H790 H 0.58497 0.80788 0.12087 0.0
H791 H 0.53411 0.79736 0.11222 0.0
H792 H 0.55085 0.74381 0.95101 0.0
C793 C 0.66417 0.764 0.9761 0.0
C794 C 0.68375 0.77706 0.01666 0.0
C795 C 0.67388 0.79343 0.06784 0.0
C796 C 0.64492 0.79679 0.07856 0.0
C797 C 0.62618 0.78355 0.03787 0.0
C798 C 0.63534 0.76732 0.98795 0.0
C799 C 0.61078 0.75391 0.95373 0.0
C800 C 0.60904 0.76472 0.886 0.0
C801 C 0.6126 0.7214 0.95589 0.0
C802 C 0.58643 0.76484 0.9928 0.0
C803 C 0.59578 0.78221 0.04054 0.0
C804 C 0.57734 0.79431 0.08371 0.0
C805 C 0.54856 0.78808 0.07862 0.0
C806 C 0.53857 0.76965 0.03117 0.0
C807 C 0.55779 0.75827 0.98722 0.0
loop_
_geom_bond_atom_site_label_1
_geom_bond_atom_site_label_2
_geom_bond_distance
_geom_bond_site_symmetry_2
_ccdc_geom_bond_type
Sc0 O3 2.030 . S
Sc0 O10 2.105 . S
Sc0 O13 2.105 . S
Sc0 O16 2.105 . S
Sc0 O19 2.105 . S
Sc1 O3 2.025 . S
Sc1 O11 2.108 . S
Sc1 O15 2.101 1_554 S
Sc1 O17 2.108 . S
Sc1 O21 2.101 1_554 S
Sc2 O3 2.021 1_556 S
Sc2 O12 2.105 . S
Sc2 O14 2.105 . S
Sc2 O18 2.105 . S
Sc2 O20 2.105 . S
O3 Sc0 2.030 . S
O3 Sc1 2.025 . S
O3 Sc2 2.021 1_554 S
C4 O10 1.271 . S
C4 O20 1.265 1_554 S
C5 O11 1.268 . S
C5 O19 1.268 . S
C6 O12 1.268 . S
C6 O21 1.268 . S
C7 O13 1.268 . S
C7 O17 1.268 . S
C8 O14 1.262 1_554 S
C8 O16 1.274 . S
C9 O15 1.268 . S
C9 O18 1.268 . S
O10 Sc0 2.105 . S
O10 C4 1.271 . S
O11 Sc1 2.108 . S
O11 C5 1.268 . S
O12 Sc2 2.105 . S
O12 C6 1.268 . S
O13 Sc0 2.105 . S
O13 C7 1.268 . S
O14 Sc2 2.105 . S
O14 C8 1.262 1_556 S
O15 Sc1 2.101 1_556 S
O15 C9 1.268 . S
O16 Sc0 2.105 . S
O16 C8 1.274 . S
O17 Sc1 2.108 . S
O17 C7 1.268 . S
O18 Sc2 2.105 . S
O18 C9 1.268 . S
O19 Sc0 2.105 . S
O19 C5 1.268 . S
O20 Sc2 2.105 . S
O20 C4 1.265 1_556 S
O21 Sc1 2.101 1_556 S
O21 C6 1.268 . S
Sc22 O25 2.025 . S
Sc22 O32 2.105 . S
Sc22 O35 2.105 . S
Sc22 O38 2.105 . S
Sc22 O41 2.105 . S
Sc23 O25 2.025 . S
Sc23 O33 2.105 . S
Sc23 O37 2.105 . S
Sc23 O39 2.105 . S
Sc23 O43 2.105 . S
Sc24 O25 2.025 . S
Sc24 O34 2.105 . S
Sc24 O36 2.105 . S
Sc24 O40 2.105 . S
Sc24 O42 2.105 . S
O25 Sc22 2.025 . S
O25 Sc23 2.025 . S
O25 Sc24 2.025 . S
C26 O32 1.268 . S
C26 O42 1.268 . S
C27 O33 1.268 . S
C27 O41 1.268 . S
C28 O34 1.268 . S
C28 O43 1.268 . S
C29 O35 1.268 . S
C29 O39 1.268 . S
C30 O36 1.268 . S
C30 O38 1.268 . S
C31 O37 1.268 . S
C31 O40 1.268 . S
O32 Sc22 2.105 . S
O32 C26 1.268 . S
O33 Sc23 2.105 . S
O33 C27 1.268 . S
O34 Sc24 2.105 . S
O34 C28 1.268 . S
O35 Sc22 2.105 . S
O35 C29 1.268 . S
O36 Sc24 2.105 . S
O36 C30 1.268 . S
O37 Sc23 2.105 . S
O37 C31 1.268 . S
O38 Sc22 2.105 . S
O38 C30 1.268 . S
O39 Sc23 2.105 . S
O39 C29 1.268 . S
O40 Sc24 2.105 . S
O40 C31 1.268 . S
O41 Sc22 2.105 . S
O41 C27 1.268 . S
O42 Sc24 2.105 . S
O42 C26 1.268 . S
O43 Sc23 2.105 . S
O43 C28 1.268 . S
Sc44 O47 2.021 1_556 S
Sc44 O54 2.105 . S
Sc44 O57 2.105 . S
Sc44 O60 2.105 . S
Sc44 O63 2.105 . S
Sc45 O47 2.025 . S
Sc45 O55 2.101 1_554 S
Sc45 O59 2.108 . S
Sc45 O61 2.101 1_554 S
Sc45 O65 2.108 . S
Sc46 O47 2.030 . S
Sc46 O56 2.105 . S
Sc46 O58 2.105 . S
Sc46 O62 2.105 . S
Sc46 O64 2.105 . S
O47 Sc44 2.021 1_554 S
O47 Sc45 2.025 . S
O47 Sc46 2.030 . S
C48 O54 1.265 1_554 S
C48 O64 1.271 . S
C49 O55 1.268 . S
C49 O63 1.268 . S
C50 O56 1.268 . S
C50 O65 1.268 . S
C51 O57 1.268 . S
C51 O61 1.268 . S
C52 O58 1.274 . S
C52 O60 1.262 1_554 S
C53 O59 1.268 . S
C53 O62 1.268 . S
O54 Sc44 2.105 . S
O54 C48 1.265 1_556 S
O55 Sc45 2.101 1_556 S
O55 C49 1.268 . S
O56 Sc46 2.105 . S
O56 C50 1.268 . S
O57 Sc44 2.105 . S
O57 C51 1.268 . S
O58 Sc46 2.105 . S
O58 C52 1.274 . S
O59 Sc45 2.108 . S
O59 C53 1.268 . S
O60 Sc44 2.105 . S
O60 C52 1.262 1_556 S
O61 Sc45 2.101 1_556 S
O61 C51 1.268 . S
O62 Sc46 2.105 . S
O62 C53 1.268 . S
O63 Sc44 2.105 . S
O63 C49 1.268 . S
O64 Sc46 2.105 . S
O64 C48 1.271 . S
O65 Sc45 2.108 . S
O65 C50 1.268 . S
Sc66 O69 2.025 . S
Sc66 O76 2.105 . S
Sc66 O79 2.105 . S
Sc66 O82 2.105 . S
Sc66 O85 2.105 . S
Sc67 O69 2.025 . S
Sc67 O77 2.105 . S
Sc67 O81 2.105 . S
Sc67 O83 2.105 . S
Sc67 O87 2.105 . S
Sc68 O69 2.025 . S
Sc68 O78 2.105 . S
Sc68 O80 2.105 . S
Sc68 O84 2.105 . S
Sc68 O86 2.105 . S
O69 Sc66 2.025 . S
O69 Sc67 2.025 . S
O69 Sc68 2.025 . S
C70 O76 1.268 . S
C70 O86 1.268 . S
C71 O77 1.268 . S
C71 O85 1.268 . S
C72 O78 1.268 . S
C72 O87 1.268 . S
C73 O79 1.268 . S
C73 O83 1.268 . S
C74 O80 1.268 . S
C74 O82 1.268 . S
C75 O81 1.268 . S
C75 O84 1.268 . S
O76 Sc66 2.105 . S
O76 C70 1.268 . S
O77 Sc67 2.105 . S
O77 C71 1.268 . S
O78 Sc68 2.105 . S
O78 C72 1.268 . S
O79 Sc66 2.105 . S
O79 C73 1.268 . S
O80 Sc68 2.105 . S
O80 C74 1.268 . S
O81 Sc67 2.105 . S
O81 C75 1.268 . S
O82 Sc66 2.105 . S
O82 C74 1.268 . S
O83 Sc67 2.105 . S
O83 C73 1.268 . S
O84 Sc68 2.105 . S
O84 C75 1.268 . S
O85 Sc66 2.105 . S
O85 C71 1.268 . S
O86 Sc68 2.105 . S
O86 C70 1.268 . S
O87 Sc67 2.105 . S
O87 C72 1.268 . S
H88 C91 0.931 . S
H89 C94 0.928 . S
H90 C96 0.930 . S
C91 H88 0.931 . S
C91 C92 1.398 1_556 S
C91 C93 1.375 . S
C92 C91 1.398 1_554 S
C92 C96 1.429 . S
C93 C91 1.375 . S
C93 C94 1.372 . S
C94 H89 0.928 . S
C94 C93 1.372 . S
C94 C95 1.407 . S
C95 C94 1.407 . S
C95 C96 1.388 1_556 S
C96 H90 0.930 . S
C96 C92 1.429 . S
C96 C95 1.388 1_554 S
H97 C100 0.931 . S
H98 C103 0.928 1_455 S
H99 C105 0.930 1_455 S
C100 H97 0.931 . S
C100 C101 1.413 . S
C100 C102 1.360 . S
C101 C100 1.413 . S
C101 C105 1.429 . S
C102 C100 1.360 . S
C102 C103 1.372 . S
C103 H98 0.928 1_655 S
C103 C102 1.372 . S
C103 C104 1.404 1_655 S
C104 C103 1.404 1_455 S
C104 C105 1.391 1_455 S
C105 H99 0.930 1_655 S
C105 C101 1.429 . S
C105 C104 1.391 1_655 S
H106 C109 0.931 . S
H107 C112 0.928 . S
H108 C114 0.930 . S
C109 H106 0.931 . S
C109 C110 1.413 1_554 S
C109 C111 1.360 . S
C110 C109 1.413 1_556 S
C110 C114 1.429 . S
C111 C109 1.360 . S
C111 C112 1.372 . S
C112 H107 0.928 . S
C112 C111 1.372 . S
C112 C113 1.418 . S
C113 C112 1.418 . S
C113 C114 1.376 1_554 S
C114 H108 0.930 . S
C114 C110 1.429 . S
C114 C113 1.376 1_556 S
H115 C118 0.931 . S
H116 C121 0.928 1_655 S
H117 C123 0.930 1_655 S
C118 H115 0.931 . S
C118 C119 1.413 . S
C118 C120 1.360 . S
C119 C118 1.413 . S
C119 C123 1.429 . S
C120 C118 1.360 . S
C120 C121 1.372 . S
C121 H116 0.928 1_455 S
C121 C120 1.372 . S
C121 C122 1.404 1_455 S
C122 C121 1.404 1_655 S
C122 C123 1.391 1_655 S
C123 H117 0.930 1_455 S
C123 C119 1.429 . S
C123 C122 1.391 1_455 S
H124 C127 0.931 . S
H125 C130 0.928 1_545 S
H126 C132 0.930 1_545 S
C127 H124 0.931 . S
C127 C128 1.413 . S
C127 C129 1.360 . S
C128 C127 1.413 . S
C128 C132 1.429 . S
C129 C127 1.360 . S
C129 C130 1.372 . S
C130 H125 0.928 1_565 S
C130 C129 1.372 . S
C130 C131 1.404 1_565 S
C131 C130 1.404 1_545 S
C131 C132 1.391 1_545 S
C132 H126 0.930 1_565 S
C132 C128 1.429 . S
C132 C131 1.391 1_565 S
H133 C136 0.931 . S
H134 C139 0.928 . S
H135 C141 0.930 . S
C136 H133 0.931 . S
C136 C137 1.413 1_554 S
C136 C138 1.360 . S
C137 C136 1.413 1_556 S
C137 C141 1.429 . S
C138 C136 1.360 . S
C138 C139 1.372 . S
C139 H134 0.928 . S
C139 C138 1.372 . S
C139 C140 1.418 . S
C140 C139 1.418 . S
C140 C141 1.376 1_554 S
C141 H135 0.930 . S
C141 C137 1.429 . S
C141 C140 1.376 1_556 S
H142 C145 0.931 . S
H143 C148 0.928 1_565 S
H144 C150 0.930 1_565 S
C145 H142 0.931 . S
C145 C146 1.413 . S
C145 C147 1.360 . S
C146 C145 1.413 . S
C146 C150 1.429 . S
C147 C145 1.360 . S
C147 C148 1.372 . S
C148 H143 0.928 1_545 S
C148 C147 1.372 . S
C148 C149 1.404 1_545 S
C149 C148 1.404 1_565 S
C149 C150 1.391 1_565 S
C150 H144 0.930 1_545 S
C150 C146 1.429 . S
C150 C149 1.391 1_545 S
H151 C154 0.931 . S
H152 C157 0.928 . S
H153 C159 0.930 . S
C154 H151 0.931 . S
C154 C155 1.399 1_556 S
C154 C156 1.375 . S
C155 C154 1.399 1_554 S
C155 C159 1.429 . S
C156 C154 1.375 . S
C156 C157 1.372 . S
C157 H152 0.928 . S
C157 C156 1.372 . S
C157 C158 1.406 . S
C158 C157 1.406 . S
C158 C159 1.388 1_556 S
C159 H153 0.930 . S
C159 C155 1.429 . S
C159 C158 1.388 1_554 S
H160 C172 0.930 . S
H161 C174 0.930 . S
H162 C175 0.930 . S
H163 C179 0.959 . S
H164 C179 0.959 . S
H165 C179 0.961 . S
H166 C180 0.960 . S
H167 C180 0.961 . S
H168 C180 0.959 . S
H169 C183 0.929 . S
H170 C184 0.931 . S
H171 C186 0.930 . S
C172 H160 0.930 . S
C172 C173 1.399 . S
C172 C177 1.399 . S
C173 C172 1.399 . S
C173 C174 1.376 . S
C174 H161 0.930 . S
C174 C173 1.376 . S
C174 C175 1.388 . S
C175 H162 0.930 . S
C175 C174 1.388 . S
C175 C176 1.390 . S
C176 C175 1.390 . S
C176 C177 1.394 . S
C176 C182 1.465 . S
C177 C172 1.399 . S
C177 C176 1.394 . S
C177 C178 1.516 . S
C178 C177 1.516 . S
C178 C179 1.502 . S
C178 C180 1.561 . S
C178 C181 1.526 . S
C179 H163 0.959 . S
C179 H164 0.959 . S
C179 H165 0.961 . S
C179 C178 1.502 . S
C180 H166 0.960 . S
C180 H167 0.961 . S
C180 H168 0.959 . S
C180 C178 1.561 . S
C181 C178 1.526 . S
C181 C182 1.396 . S
C181 C186 1.390 . S
C182 C176 1.465 . S
C182 C181 1.396 . S
C182 C183 1.399 . S
C183 H169 0.929 . S
C183 C182 1.399 . S
C183 C184 1.385 . S
C184 H170 0.931 . S
C184 C183 1.385 . S
C184 C185 1.389 . S
C185 C184 1.389 . S
C185 C186 1.387 . S
C186 H171 0.930 . S
C186 C181 1.390 . S
C186 C185 1.387 . S
H187 C199 0.930 . S
H188 C201 0.930 . S
H189 C202 0.930 . S
H190 C206 0.959 . S
H191 C206 0.959 . S
H192 C206 0.961 . S
H193 C207 0.960 . S
H194 C207 0.961 . S
H195 C207 0.959 . S
H196 C210 0.929 . S
H197 C211 0.931 . S
H198 C213 0.930 . S
C199 H187 0.930 . S
C199 C200 1.399 . S
C199 C204 1.399 . S
C200 C199 1.399 . S
C200 C201 1.376 . S
C201 H188 0.930 . S
C201 C200 1.376 . S
C201 C202 1.388 . S
C202 H189 0.930 . S
C202 C201 1.388 . S
C202 C203 1.390 . S
C203 C202 1.390 . S
C203 C204 1.394 . S
C203 C209 1.465 . S
C204 C199 1.399 . S
C204 C203 1.394 . S
C204 C205 1.516 . S
C205 C204 1.516 . S
C205 C206 1.502 . S
C205 C207 1.561 . S
C205 C208 1.526 . S
C206 H190 0.959 . S
C206 H191 0.959 . S
C206 H192 0.961 . S
C206 C205 1.502 . S
C207 H193 0.960 . S
C207 H194 0.961 . S
C207 H195 0.959 . S
C207 C205 1.561 . S
C208 C205 1.526 . S
C208 C209 1.396 . S
C208 C213 1.390 . S
C209 C203 1.465 . S
C209 C208 1.396 . S
C209 C210 1.399 . S
C210 H196 0.929 . S
C210 C209 1.399 . S
C210 C211 1.385 . S
C211 H197 0.931 . S
C211 C210 1.385 . S
C211 C212 1.389 . S
C212 C211 1.389 . S
C212 C213 1.387 . S
C213 H198 0.930 . S
C213 C208 1.390 . S
C213 C212 1.387 . S
H214 C226 0.930 . S
H215 C228 0.930 . S
H216 C229 0.930 . S
H217 C233 0.959 . S
H218 C233 0.959 . S
H219 C233 0.961 . S
H220 C234 0.960 . S
H221 C234 0.961 . S
H222 C234 0.959 . S
H223 C237 0.929 . S
H224 C238 0.931 . S
H225 C240 0.930 . S
C226 H214 0.930 . S
C226 C227 1.399 . S
C226 C231 1.399 . S
C227 C226 1.399 . S
C227 C228 1.376 . S
C228 H215 0.930 . S
C228 C227 1.376 . S
C228 C229 1.388 . S
C229 H216 0.930 . S
C229 C228 1.388 . S
C229 C230 1.390 . S
C230 C229 1.390 . S
C230 C231 1.394 . S
C230 C236 1.465 . S
C231 C226 1.399 . S
C231 C230 1.394 . S
C231 C232 1.516 . S
C232 C231 1.516 . S
C232 C233 1.502 . S
C232 C234 1.561 . S
C232 C235 1.526 . S
C233 H217 0.959 . S
C233 H218 0.959 . S
C233 H219 0.961 . S
C233 C232 1.502 . S
C234 H220 0.960 . S
C234 H221 0.961 . S
C234 H222 0.959 . S
C234 C232 1.561 . S
C235 C232 1.526 . S
C235 C236 1.396 . S
C235 C240 1.390 . S
C236 C230 1.465 . S
C236 C235 1.396 . S
C236 C237 1.399 . S
C237 H223 0.929 . S
C237 C236 1.399 . S
C237 C238 1.385 . S
C238 H224 0.931 . S
C238 C237 1.385 . S
C238 C239 1.389 . S
C239 C238 1.389 . S
C239 C240 1.387 . S
C240 H225 0.930 . S
C240 C235 1.390 . S
C240 C239 1.387 . S
H241 C253 0.930 . S
H242 C255 0.930 . S
H243 C256 0.930 . S
H244 C260 0.959 . S
H245 C260 0.959 . S
H246 C260 0.961 . S
H247 C261 0.960 . S
H248 C261 0.961 . S
H249 C261 0.959 . S
H250 C264 0.929 . S
H251 C265 0.931 . S
H252 C267 0.930 . S
C253 H241 0.930 . S
C253 C254 1.399 . S
C253 C258 1.399 . S
C254 C253 1.399 . S
C254 C255 1.376 . S
C255 H242 0.930 . S
C255 C254 1.376 . S
C255 C256 1.388 . S
C256 H243 0.930 . S
C256 C255 1.388 . S
C256 C257 1.390 . S
C257 C256 1.390 . S
C257 C258 1.394 . S
C257 C263 1.465 . S
C258 C253 1.399 . S
C258 C257 1.394 . S
C258 C259 1.516 . S
C259 C258 1.516 . S
C259 C260 1.502 . S
C259 C261 1.561 . S
C259 C262 1.526 . S
C260 H244 0.959 . S
C260 H245 0.959 . S
C260 H246 0.961 . S
C260 C259 1.502 . S
C261 H247 0.960 . S
C261 H248 0.961 . S
C261 H249 0.959 . S
C261 C259 1.561 . S
C262 C259 1.526 . S
C262 C263 1.396 . S
C262 C267 1.390 . S
C263 C257 1.465 . S
C263 C262 1.396 . S
C263 C264 1.399 . S
C264 H250 0.929 . S
C264 C263 1.399 . S
C264 C265 1.385 . S
C265 H251 0.931 . S
C265 C264 1.385 . S
C265 C266 1.389 . S
C266 C265 1.389 . S
C266 C267 1.387 . S
C267 H252 0.930 . S
C267 C262 1.390 . S
C267 C266 1.387 . S
H268 C280 0.930 . S
H269 C282 0.930 . S
H270 C283 0.930 . S
H271 C287 0.959 . S
H272 C287 0.959 . S
H273 C287 0.961 . S
H274 C288 0.960 . S
H275 C288 0.961 . S
H276 C288 0.959 . S
H277 C291 0.929 . S
H278 C292 0.931 . S
H279 C294 0.930 . S
C280 H268 0.930 . S
C280 C281 1.399 . S
C280 C285 1.399 . S
C281 C280 1.399 . S
C281 C282 1.376 . S
C282 H269 0.930 . S
C282 C281 1.376 . S
C282 C283 1.388 . S
C283 H270 0.930 . S
C283 C282 1.388 . S
C283 C284 1.390 . S
C284 C283 1.390 . S
C284 C285 1.394 . S
C284 C290 1.465 . S
C285 C280 1.399 . S
C285 C284 1.394 . S
C285 C286 1.516 . S
C286 C285 1.516 . S
C286 C287 1.502 . S
C286 C288 1.561 . S
C286 C289 1.526 . S
C287 H271 0.959 . S
C287 H272 0.959 . S
C287 H273 0.961 . S
C287 C286 1.502 . S
C288 H274 0.960 . S
C288 H275 0.961 . S
C288 H276 0.959 . S
C288 C286 1.561 . S
C289 C286 1.526 . S
C289 C290 1.396 . S
C289 C294 1.390 . S
C290 C284 1.465 . S
C290 C289 1.396 . S
C290 C291 1.399 . S
C291 H277 0.929 . S
C291 C290 1.399 . S
C291 C292 1.385 . S
C292 H278 0.931 . S
C292 C291 1.385 . S
C292 C293 1.389 . S
C293 C292 1.389 . S
C293 C294 1.387 . S
C294 H279 0.930 . S
C294 C289 1.390 . S
C294 C293 1.387 . S
H295 C307 0.930 . S
H296 C309 0.930 . S
H297 C310 0.930 . S
H298 C314 0.959 . S
H299 C314 0.959 . S
H300 C314 0.961 . S
H301 C315 0.960 . S
H302 C315 0.961 . S
H303 C315 0.959 . S
H304 C318 0.929 . S
H305 C319 0.931 . S
H306 C321 0.930 . S
C307 H295 0.930 . S
C307 C308 1.399 . S
C307 C312 1.399 . S
C308 C307 1.399 . S
C308 C309 1.376 . S
C309 H296 0.930 . S
C309 C308 1.376 . S
C309 C310 1.388 . S
C310 H297 0.930 . S
C310 C309 1.388 . S
C310 C311 1.390 . S
C311 C310 1.390 . S
C311 C312 1.394 . S
C311 C317 1.465 . S
C312 C307 1.399 . S
C312 C311 1.394 . S
C312 C313 1.516 . S
C313 C312 1.516 . S
C313 C314 1.502 . S
C313 C315 1.561 . S
C313 C316 1.526 . S
C314 H298 0.959 . S
C314 H299 0.959 . S
C314 H300 0.961 . S
C314 C313 1.502 . S
C315 H301 0.960 . S
C315 H302 0.961 . S
C315 H303 0.959 . S
C315 C313 1.561 . S
C316 C313 1.526 . S
C316 C317 1.396 . S
C316 C321 1.390 . S
C317 C311 1.465 . S
C317 C316 1.396 . S
C317 C318 1.399 . S
C318 H304 0.929 . S
C318 C317 1.399 . S
C318 C319 1.385 . S
C319 H305 0.931 . S
C319 C318 1.385 . S
C319 C320 1.389 . S
C320 C319 1.389 . S
C320 C321 1.387 . S
C321 H306 0.930 . S
C321 C316 1.390 . S
C321 C320 1.387 . S
H322 C334 0.930 . S
H323 C336 0.930 . S
H324 C337 0.930 . S
H325 C341 0.959 . S
H326 C341 0.959 . S
H327 C341 0.961 . S
H328 C342 0.960 . S
H329 C342 0.961 . S
H330 C342 0.959 . S
H331 C345 0.929 . S
H332 C346 0.931 . S
H333 C348 0.930 . S
C334 H322 0.930 . S
C334 C335 1.399 . S
C334 C339 1.399 . S
C335 C334 1.399 . S
C335 C336 1.376 . S
C336 H323 0.930 . S
C336 C335 1.376 . S
C336 C337 1.388 . S
C337 H324 0.930 . S
C337 C336 1.388 . S
C337 C338 1.390 . S
C338 C337 1.390 . S
C338 C339 1.394 . S
C338 C344 1.465 . S
C339 C334 1.399 . S
C339 C338 1.394 . S
C339 C340 1.516 . S
C340 C339 1.516 . S
C340 C341 1.502 . S
C340 C342 1.561 . S
C340 C343 1.526 . S
C341 H325 0.959 . S
C341 H326 0.959 . S
C341 H327 0.961 . S
C341 C340 1.502 . S
C342 H328 0.960 . S
C342 H329 0.961 . S
C342 H330 0.959 . S
C342 C340 1.561 . S
C343 C340 1.526 . S
C343 C344 1.396 . S
C343 C348 1.390 . S
C344 C338 1.465 . S
C344 C343 1.396 . S
C344 C345 1.399 . S
C345 H331 0.929 . S
C345 C344 1.399 . S
C345 C346 1.385 . S
C346 H332 0.931 . S
C346 C345 1.385 . S
C346 C347 1.389 . S
C347 C346 1.389 . S
C347 C348 1.387 . S
C348 H333 0.930 . S
C348 C343 1.390 . S
C348 C347 1.387 . S
H349 C361 0.930 . S
H350 C363 0.930 . S
H351 C364 0.930 . S
H352 C368 0.959 . S
H353 C368 0.959 . S
H354 C368 0.961 . S
H355 C369 0.960 . S
H356 C369 0.961 . S
H357 C369 0.959 . S
H358 C372 0.929 . S
H359 C373 0.931 . S
H360 C375 0.930 . S
C361 H349 0.930 . S
C361 C362 1.399 . S
C361 C366 1.399 . S
C362 C361 1.399 . S
C362 C363 1.376 . S
C363 H350 0.930 . S
C363 C362 1.376 . S
C363 C364 1.388 . S
C364 H351 0.930 . S
C364 C363 1.388 . S
C364 C365 1.390 . S
C365 C364 1.390 . S
C365 C366 1.394 . S
C365 C371 1.465 . S
C366 C361 1.399 . S
C366 C365 1.394 . S
C366 C367 1.516 . S
C367 C366 1.516 . S
C367 C368 1.502 . S
C367 C369 1.561 . S
C367 C370 1.526 . S
C368 H352 0.959 . S
C368 H353 0.959 . S
C368 H354 0.961 . S
C368 C367 1.502 . S
C369 H355 0.960 . S
C369 H356 0.961 . S
C369 H357 0.959 . S
C369 C367 1.561 . S
C370 C367 1.526 . S
C370 C371 1.396 . S
C370 C375 1.390 . S
C371 C365 1.465 . S
C371 C370 1.396 . S
C371 C372 1.399 . S
C372 H358 0.929 . S
C372 C371 1.399 . S
C372 C373 1.385 . S
C373 H359 0.931 . S
C373 C372 1.385 . S
C373 C374 1.389 . S
C374 C373 1.389 . S
C374 C375 1.387 . S
C375 H360 0.930 . S
C375 C370 1.390 . S
C375 C374 1.387 . S
H376 C388 0.930 . S
H377 C390 0.930 . S
H378 C391 0.930 . S
H379 C395 0.959 . S
H380 C395 0.959 . S
H381 C395 0.961 . S
H382 C396 0.960 . S
H383 C396 0.961 . S
H384 C396 0.959 . S
H385 C399 0.929 . S
H386 C400 0.931 . S
H387 C402 0.930 . S
C388 H376 0.930 . S
C388 C389 1.399 . S
C388 C393 1.399 . S
C389 C388 1.399 . S
C389 C390 1.376 . S
C390 H377 0.930 . S
C390 C389 1.376 . S
C390 C391 1.388 . S
C391 H378 0.930 . S
C391 C390 1.388 . S
C391 C392 1.390 . S
C392 C391 1.390 . S
C392 C393 1.394 . S
C392 C398 1.465 . S
C393 C388 1.399 . S
C393 C392 1.394 . S
C393 C394 1.516 . S
C394 C393 1.516 . S
C394 C395 1.502 . S
C394 C396 1.561 . S
C394 C397 1.526 . S
C395 H379 0.959 . S
C395 H380 0.959 . S
C395 H381 0.961 . S
C395 C394 1.502 . S
C396 H382 0.960 . S
C396 H383 0.961 . S
C396 H384 0.959 . S
C396 C394 1.561 . S
C397 C394 1.526 . S
C397 C398 1.396 . S
C397 C402 1.390 . S
C398 C392 1.465 . S
C398 C397 1.396 . S
C398 C399 1.399 . S
C399 H385 0.929 . S
C399 C398 1.399 . S
C399 C400 1.385 . S
C400 H386 0.931 . S
C400 C399 1.385 . S
C400 C401 1.389 . S
C401 C400 1.389 . S
C401 C402 1.387 . S
C402 H387 0.930 . S
C402 C397 1.390 . S
C402 C401 1.387 . S
H403 C415 0.930 . S
H404 C417 0.930 . S
H405 C418 0.930 . S
H406 C422 0.959 . S
H407 C422 0.959 . S
H408 C422 0.961 . S
H409 C423 0.960 . S
H410 C423 0.961 . S
H411 C423 0.959 . S
H412 C426 0.929 . S
H413 C427 0.931 . S
H414 C429 0.930 . S
C415 H403 0.930 . S
C415 C416 1.399 . S
C415 C420 1.399 . S
C416 C415 1.399 . S
C416 C417 1.376 . S
C417 H404 0.930 . S
C417 C416 1.376 . S
C417 C418 1.388 . S
C418 H405 0.930 . S
C418 C417 1.388 . S
C418 C419 1.390 . S
C419 C418 1.390 . S
C419 C420 1.394 . S
C419 C425 1.465 . S
C420 C415 1.399 . S
C420 C419 1.394 . S
C420 C421 1.516 . S
C421 C420 1.516 . S
C421 C422 1.502 . S
C421 C423 1.561 . S
C421 C424 1.526 . S
C422 H406 0.959 . S
C422 H407 0.959 . S
C422 H408 0.961 . S
C422 C421 1.502 . S
C423 H409 0.960 . S
C423 H410 0.961 . S
C423 H411 0.959 . S
C423 C421 1.561 . S
C424 C421 1.526 . S
C424 C425 1.396 . S
C424 C429 1.390 . S
C425 C419 1.465 . S
C425 C424 1.396 . S
C425 C426 1.399 . S
C426 H412 0.929 . S
C426 C425 1.399 . S
C426 C427 1.385 . S
C427 H413 0.931 . S
C427 C426 1.385 . S
C427 C428 1.389 . S
C428 C427 1.389 . S
C428 C429 1.387 . S
C429 H414 0.930 . S
C429 C424 1.390 . S
C429 C428 1.387 . S
H430 C442 0.930 . S
H431 C444 0.930 . S
H432 C445 0.930 . S
H433 C449 0.959 . S
H434 C449 0.959 . S
H435 C449 0.961 . S
H436 C450 0.960 . S
H437 C450 0.961 . S
H438 C450 0.959 . S
H439 C453 0.929 . S
H440 C454 0.931 . S
H441 C456 0.930 . S
C442 H430 0.930 . S
C442 C443 1.399 . S
C442 C447 1.399 . S
C443 C442 1.399 . S
C443 C444 1.376 . S
C444 H431 0.930 . S
C444 C443 1.376 . S
C444 C445 1.388 . S
C445 H432 0.930 . S
C445 C444 1.388 . S
C445 C446 1.390 . S
C446 C445 1.390 . S
C446 C447 1.394 . S
C446 C452 1.465 . S
C447 C442 1.399 . S
C447 C446 1.394 . S
C447 C448 1.516 . S
C448 C447 1.516 . S
C448 C449 1.502 . S
C448 C450 1.561 . S
C448 C451 1.526 . S
C449 H433 0.959 . S
C449 H434 0.959 . S
C449 H435 0.961 . S
C449 C448 1.502 . S
C450 H436 0.960 . S
C450 H437 0.961 . S
C450 H438 0.959 . S
C450 C448 1.561 . S
C451 C448 1.526 . S
C451 C452 1.396 . S
C451 C456 1.390 . S
C452 C446 1.465 . S
C452 C451 1.396 . S
C452 C453 1.399 . S
C453 H439 0.929 . S
C453 C452 1.399 . S
C453 C454 1.385 . S
C454 H440 0.931 . S
C454 C453 1.385 . S
C454 C455 1.389 . S
C455 C454 1.389 . S
C455 C456 1.387 . S
C456 H441 0.930 . S
C456 C451 1.390 . S
C456 C455 1.387 . S
H457 C469 0.930 . S
H458 C471 0.930 . S
H459 C472 0.930 . S
H460 C476 0.959 . S
H461 C476 0.959 . S
H462 C476 0.961 . S
H463 C477 0.960 . S
H464 C477 0.961 . S
H465 C477 0.959 . S
H466 C480 0.929 . S
H467 C481 0.931 . S
H468 C483 0.930 . S
C469 H457 0.930 . S
C469 C470 1.399 . S
C469 C474 1.399 . S
C470 C469 1.399 . S
C470 C471 1.376 . S
C471 H458 0.930 . S
C471 C470 1.376 . S
C471 C472 1.388 . S
C472 H459 0.930 . S
C472 C471 1.388 . S
C472 C473 1.390 . S
C473 C472 1.390 . S
C473 C474 1.394 . S
C473 C479 1.465 . S
C474 C469 1.399 . S
C474 C473 1.394 . S
C474 C475 1.516 . S
C475 C474 1.516 . S
C475 C476 1.502 . S
C475 C477 1.561 . S
C475 C478 1.526 . S
C476 H460 0.959 . S
C476 H461 0.959 . S
C476 H462 0.961 . S
C476 C475 1.502 . S
C477 H463 0.960 . S
C477 H464 0.961 . S
C477 H465 0.959 . S
C477 C475 1.561 . S
C478 C475 1.526 . S
C478 C479 1.396 . S
C478 C483 1.390 . S
C479 C473 1.465 . S
C479 C478 1.396 . S
C479 C480 1.399 . S
C480 H466 0.929 . S
C480 C479 1.399 . S
C480 C481 1.385 . S
C481 H467 0.931 . S
C481 C480 1.385 . S
C481 C482 1.389 . S
C482 C481 1.389 . S
C482 C483 1.387 . S
C483 H468 0.930 . S
C483 C478 1.390 . S
C483 C482 1.387 . S
H484 C496 0.930 . S
H485 C498 0.930 . S
H486 C499 0.930 . S
H487 C503 0.959 . S
H488 C503 0.959 . S
H489 C503 0.961 . S
H490 C504 0.960 . S
H491 C504 0.961 . S
H492 C504 0.959 . S
H493 C507 0.929 . S
H494 C508 0.931 . S
H495 C510 0.930 . S
C496 H484 0.930 . S
C496 C497 1.399 . S
C496 C501 1.399 . S
C497 C496 1.399 . S
C497 C498 1.376 . S
C498 H485 0.930 . S
C498 C497 1.376 . S
C498 C499 1.388 . S
C499 H486 0.930 . S
C499 C498 1.388 . S
C499 C500 1.390 . S
C500 C499 1.390 . S
C500 C501 1.394 . S
C500 C506 1.465 . S
C501 C496 1.399 . S
C501 C500 1.394 . S
C501 C502 1.516 . S
C502 C501 1.516 . S
C502 C503 1.502 . S
C502 C504 1.561 . S
C502 C505 1.526 . S
C503 H487 0.959 . S
C503 H488 0.959 . S
C503 H489 0.961 . S
C503 C502 1.502 . S
C504 H490 0.960 . S
C504 H491 0.961 . S
C504 H492 0.959 . S
C504 C502 1.561 . S
C505 C502 1.526 . S
C505 C506 1.396 . S
C505 C510 1.390 . S
C506 C500 1.465 . S
C506 C505 1.396 . S
C506 C507 1.399 . S
C507 H493 0.929 . S
C507 C506 1.399 . S
C507 C508 1.385 . S
C508 H494 0.931 . S
C508 C507 1.385 . S
C508 C509 1.389 . S
C509 C508 1.389 . S
C509 C510 1.387 . S
C510 H495 0.930 . S
C510 C505 1.390 . S
C510 C509 1.387 . S
H511 C523 0.930 . S
H512 C525 0.930 . S
H513 C526 0.930 . S
H514 C530 0.959 . S
H515 C530 0.959 . S
H516 C530 0.961 . S
H517 C531 0.960 . S
H518 C531 0.961 . S
H519 C531 0.959 . S
H520 C534 0.929 . S
H521 C535 0.931 . S
H522 C537 0.930 . S
C523 H511 0.930 . S
C523 C524 1.399 . S
C523 C528 1.399 . S
C524 C523 1.399 . S
C524 C525 1.376 . S
C525 H512 0.930 . S
C525 C524 1.376 . S
C525 C526 1.388 . S
C526 H513 0.930 . S
C526 C525 1.388 . S
C526 C527 1.390 . S
C527 C526 1.390 . S
C527 C528 1.394 . S
C527 C533 1.465 . S
C528 C523 1.399 . S
C528 C527 1.394 . S
C528 C529 1.516 . S
C529 C528 1.516 . S
C529 C530 1.502 . S
C529 C531 1.561 . S
C529 C532 1.526 . S
C530 H514 0.959 . S
C530 H515 0.959 . S
C530 H516 0.961 . S
C530 C529 1.502 . S
C531 H517 0.960 . S
C531 H518 0.961 . S
C531 H519 0.959 . S
C531 C529 1.561 . S
C532 C529 1.526 . S
C532 C533 1.396 . S
C532 C537 1.390 . S
C533 C527 1.465 . S
C533 C532 1.396 . S
C533 C534 1.399 . S
C534 H520 0.929 . S
C534 C533 1.399 . S
C534 C535 1.385 . S
C535 H521 0.931 . S
C535 C534 1.385 . S
C535 C536 1.389 . S
C536 C535 1.389 . S
C536 C537 1.387 . S
C537 H522 0.930 . S
C537 C532 1.390 . S
C537 C536 1.387 . S
H538 C550 0.930 . S
H539 C552 0.930 . S
H540 C553 0.930 . S
H541 C557 0.959 . S
H542 C557 0.959 . S
H543 C557 0.961 . S
H544 C558 0.960 . S
H545 C558 0.961 . S
H546 C558 0.959 . S
H547 C561 0.929 . S
H548 C562 0.931 . S
H549 C564 0.930 . S
C550 H538 0.930 . S
C550 C551 1.399 . S
C550 C555 1.399 . S
C551 C550 1.399 . S
C551 C552 1.376 . S
C552 H539 0.930 . S
C552 C551 1.376 . S
C552 C553 1.388 . S
C553 H540 0.930 . S
C553 C552 1.388 . S
C553 C554 1.390 . S
C554 C553 1.390 . S
C554 C555 1.394 . S
C554 C560 1.465 . S
C555 C550 1.399 . S
C555 C554 1.394 . S
C555 C556 1.516 . S
C556 C555 1.516 . S
C556 C557 1.502 . S
C556 C558 1.561 . S
C556 C559 1.526 . S
C557 H541 0.959 . S
C557 H542 0.959 . S
C557 H543 0.961 . S
C557 C556 1.502 . S
C558 H544 0.960 . S
C558 H545 0.961 . S
C558 H546 0.959 . S
C558 C556 1.561 . S
C559 C556 1.526 . S
C559 C560 1.396 . S
C559 C564 1.390 . S
C560 C554 1.465 . S
C560 C559 1.396 . S
C560 C561 1.399 . S
C561 H547 0.929 . S
C561 C560 1.399 . S
C561 C562 1.385 . S
C562 H548 0.931 . S
C562 C561 1.385 . S
C562 C563 1.389 . S
C563 C562 1.389 . S
C563 C564 1.387 . S
C564 H549 0.930 . S
C564 C559 1.390 . S
C564 C563 1.387 . S
H565 C577 0.930 . S
H566 C579 0.930 . S
H567 C580 0.930 . S
H568 C584 0.959 . S
H569 C584 0.959 . S
H570 C584 0.961 . S
H571 C585 0.960 . S
H572 C585 0.961 . S
H573 C585 0.959 . S
H574 C588 0.929 . S
H575 C589 0.931 . S
H576 C591 0.930 . S
C577 H565 0.930 . S
C577 C578 1.399 . S
C577 C582 1.399 . S
C578 C577 1.399 . S
C578 C579 1.376 . S
C579 H566 0.930 . S
C579 C578 1.376 . S
C579 C580 1.388 . S
C580 H567 0.930 . S
C580 C579 1.388 . S
C580 C581 1.390 . S
C581 C580 1.390 . S
C581 C582 1.394 . S
C581 C587 1.465 . S
C582 C577 1.399 . S
C582 C581 1.394 . S
C582 C583 1.516 . S
C583 C582 1.516 . S
C583 C584 1.502 . S
C583 C585 1.561 . S
C583 C586 1.526 . S
C584 H568 0.959 . S
C584 H569 0.959 . S
C584 H570 0.961 . S
C584 C583 1.502 . S
C585 H571 0.960 . S
C585 H572 0.961 . S
C585 H573 0.959 . S
C585 C583 1.561 . S
C586 C583 1.526 . S
C586 C587 1.396 . S
C586 C591 1.390 . S
C587 C581 1.465 . S
C587 C586 1.396 . S
C587 C588 1.399 . S
C588 H574 0.929 . S
C588 C587 1.399 . S
C588 C589 1.385 . S
C589 H575 0.931 . S
C589 C588 1.385 . S
C589 C590 1.389 . S
C590 C589 1.389 . S
C590 C591 1.387 . S
C591 H576 0.930 . S
C591 C586 1.390 . S
C591 C590 1.387 . S
H592 C604 0.930 . S
H593 C606 0.930 . S
H594 C607 0.930 . S
H595 C611 0.959 . S
H596 C611 0.959 . S
H597 C611 0.961 . S
H598 C612 0.960 . S
H599 C612 0.961 . S
H600 C612 0.959 . S
H601 C615 0.929 . S
H602 C616 0.931 . S
H603 C618 0.930 . S
C604 H592 0.930 . S
C604 C605 1.399 1_554 S
C604 C609 1.399 . S
C605 C604 1.399 1_556 S
C605 C606 1.376 . S
C606 H593 0.930 . S
C606 C605 1.376 . S
C606 C607 1.388 . S
C607 H594 0.930 . S
C607 C606 1.388 . S
C607 C608 1.390 . S
C608 C607 1.390 . S
C608 C609 1.394 1_556 S
C608 C614 1.465 . S
C609 C604 1.399 . S
C609 C608 1.394 1_554 S
C609 C610 1.516 . S
C610 C609 1.516 . S
C610 C611 1.502 . S
C610 C612 1.561 . S
C610 C613 1.526 . S
C611 H595 0.959 . S
C611 H596 0.959 . S
C611 H597 0.961 . S
C611 C610 1.502 . S
C612 H598 0.960 . S
C612 H599 0.961 . S
C612 H600 0.959 . S
C612 C610 1.561 . S
C613 C610 1.526 . S
C613 C614 1.396 1_554 S
C613 C618 1.390 . S
C614 C608 1.465 . S
C614 C613 1.396 1_556 S
C614 C615 1.399 . S
C615 H601 0.929 . S
C615 C614 1.399 . S
C615 C616 1.385 . S
C616 H602 0.931 . S
C616 C615 1.385 . S
C616 C617 1.389 . S
C617 C616 1.389 . S
C617 C618 1.387 1_556 S
C618 H603 0.930 . S
C618 C613 1.390 . S
C618 C617 1.387 1_554 S
H619 C631 0.930 . S
H620 C633 0.930 . S
H621 C634 0.930 . S
H622 C638 0.959 . S
H623 C638 0.959 . S
H624 C638 0.961 . S
H625 C639 0.960 . S
H626 C639 0.961 . S
H627 C639 0.959 . S
H628 C642 0.929 . S
H629 C643 0.931 . S
H630 C645 0.930 . S
C631 H619 0.930 . S
C631 C632 1.399 . S
C631 C636 1.399 . S
C632 C631 1.399 . S
C632 C633 1.376 . S
C633 H620 0.930 . S
C633 C632 1.376 . S
C633 C634 1.388 . S
C634 H621 0.930 . S
C634 C633 1.388 . S
C634 C635 1.390 . S
C635 C634 1.390 . S
C635 C636 1.394 . S
C635 C641 1.465 . S
C636 C631 1.399 . S
C636 C635 1.394 . S
C636 C637 1.516 . S
C637 C636 1.516 . S
C637 C638 1.502 . S
C637 C639 1.561 . S
C637 C640 1.526 . S
C638 H622 0.959 . S
C638 H623 0.959 . S
C638 H624 0.961 . S
C638 C637 1.502 . S
C639 H625 0.960 . S
C639 H626 0.961 . S
C639 H627 0.959 . S
C639 C637 1.561 . S
C640 C637 1.526 . S
C640 C641 1.396 . S
C640 C645 1.390 . S
C641 C635 1.465 . S
C641 C640 1.396 . S
C641 C642 1.399 . S
C642 H628 0.929 . S
C642 C641 1.399 . S
C642 C643 1.385 . S
C643 H629 0.931 . S
C643 C642 1.385 . S
C643 C644 1.389 . S
C644 C643 1.389 . S
C644 C645 1.387 . S
C645 H630 0.930 . S
C645 C640 1.390 . S
C645 C644 1.387 . S
H646 C658 0.930 . S
H647 C660 0.930 . S
H648 C661 0.930 . S
H649 C665 0.959 . S
H650 C665 0.959 . S
H651 C665 0.961 . S
H652 C666 0.960 . S
H653 C666 0.961 . S
H654 C666 0.959 . S
H655 C669 0.929 . S
H656 C670 0.931 . S
H657 C672 0.930 . S
C658 H646 0.930 . S
C658 C659 1.399 1_556 S
C658 C663 1.399 . S
C659 C658 1.399 1_554 S
C659 C660 1.376 . S
C660 H647 0.930 . S
C660 C659 1.376 . S
C660 C661 1.388 . S
C661 H648 0.930 . S
C661 C660 1.388 . S
C661 C662 1.390 . S
C662 C661 1.390 . S
C662 C663 1.394 1_554 S
C662 C668 1.465 . S
C663 C658 1.399 . S
C663 C662 1.394 1_556 S
C663 C664 1.516 . S
C664 C663 1.516 . S
C664 C665 1.502 . S
C664 C666 1.561 . S
C664 C667 1.526 . S
C665 H649 0.959 . S
C665 H650 0.959 . S
C665 H651 0.961 . S
C665 C664 1.502 . S
C666 H652 0.960 . S
C666 H653 0.961 . S
C666 H654 0.959 . S
C666 C664 1.561 . S
C667 C664 1.526 . S
C667 C668 1.396 1_556 S
C667 C672 1.390 . S
C668 C662 1.465 . S
C668 C667 1.396 1_554 S
C668 C669 1.399 . S
C669 H655 0.929 . S
C669 C668 1.399 . S
C669 C670 1.385 . S
C670 H656 0.931 . S
C670 C669 1.385 . S
C670 C671 1.389 . S
C671 C670 1.389 . S
C671 C672 1.387 1_554 S
C672 H657 0.930 . S
C672 C667 1.390 . S
C672 C671 1.387 1_556 S
H673 C685 0.930 . S
H674 C687 0.930 . S
H675 C688 0.930 . S
H676 C692 0.959 . S
H677 C692 0.959 . S
H678 C692 0.961 . S
H679 C693 0.960 . S
H680 C693 0.961 . S
H681 C693 0.959 . S
H682 C696 0.929 . S
H683 C697 0.931 . S
H684 C699 0.930 . S
C685 H673 0.930 . S
C685 C686 1.399 . S
C685 C690 1.399 . S
C686 C685 1.399 . S
C686 C687 1.376 . S
C687 H674 0.930 . S
C687 C686 1.376 . S
C687 C688 1.388 . S
C688 H675 0.930 . S
C688 C687 1.388 . S
C688 C689 1.390 . S
C689 C688 1.390 . S
C689 C690 1.394 . S
C689 C695 1.465 . S
C690 C685 1.399 . S
C690 C689 1.394 . S
C690 C691 1.516 . S
C691 C690 1.516 . S
C691 C692 1.502 . S
C691 C693 1.561 . S
C691 C694 1.526 . S
C692 H676 0.959 . S
C692 H677 0.959 . S
C692 H678 0.961 . S
C692 C691 1.502 . S
C693 H679 0.960 . S
C693 H680 0.961 . S
C693 H681 0.959 . S
C693 C691 1.561 . S
C694 C691 1.526 . S
C694 C695 1.396 . S
C694 C699 1.390 . S
C695 C689 1.465 . S
C695 C694 1.396 . S
C695 C696 1.399 . S
C696 H682 0.929 . S
C696 C695 1.399 . S
C696 C697 1.385 . S
C697 H683 0.931 . S
C697 C696 1.385 . S
C697 C698 1.389 . S
C698 C697 1.389 . S
C698 C699 1.387 . S
C699 H684 0.930 . S
C699 C694 1.390 . S
C699 C698 1.387 . S
H700 C712 0.930 . S
H701 C714 0.930 . S
H702 C715 0.930 . S
H703 C719 0.959 . S
H704 C719 0.959 . S
H705 C719 0.961 . S
H706 C720 0.960 . S
H707 C720 0.961 . S
H708 C720 0.959 . S
H709 C723 0.929 . S
H710 C724 0.931 . S
H711 C726 0.930 . S
C712 H700 0.930 . S
C712 C713 1.399 . S
C712 C717 1.399 . S
C713 C712 1.399 . S
C713 C714 1.376 . S
C714 H701 0.930 . S
C714 C713 1.376 . S
C714 C715 1.388 . S
C715 H702 0.930 . S
C715 C714 1.388 . S
C715 C716 1.390 . S
C716 C715 1.390 . S
C716 C717 1.394 . S
C716 C722 1.465 . S
C717 C712 1.399 . S
C717 C716 1.394 . S
C717 C718 1.516 . S
C718 C717 1.516 . S
C718 C719 1.502 . S
C718 C720 1.561 . S
C718 C721 1.526 . S
C719 H703 0.959 . S
C719 H704 0.959 . S
C719 H705 0.961 . S
C719 C718 1.502 . S
C720 H706 0.960 . S
C720 H707 0.961 . S
C720 H708 0.959 . S
C720 C718 1.561 . S
C721 C718 1.526 . S
C721 C722 1.396 . S
C721 C726 1.390 . S
C722 C716 1.465 . S
C722 C721 1.396 . S
C722 C723 1.399 . S
C723 H709 0.929 . S
C723 C722 1.399 . S
C723 C724 1.385 . S
C724 H710 0.931 . S
C724 C723 1.385 . S
C724 C725 1.389 . S
C725 C724 1.389 . S
C725 C726 1.387 . S
C726 H711 0.930 . S
C726 C721 1.390 . S
C726 C725 1.387 . S
H727 C739 0.930 . S
H728 C741 0.930 . S
H729 C742 0.930 . S
H730 C746 0.959 . S
H731 C746 0.959 . S
H732 C746 0.961 . S
H733 C747 0.960 . S
H734 C747 0.961 . S
H735 C747 0.959 . S
H736 C750 0.929 . S
H737 C751 0.931 . S
H738 C753 0.930 . S
C739 H727 0.930 . S
C739 C740 1.399 1_556 S
C739 C744 1.399 . S
C740 C739 1.399 1_554 S
C740 C741 1.376 . S
C741 H728 0.930 . S
C741 C740 1.376 . S
C741 C742 1.388 . S
C742 H729 0.930 . S
C742 C741 1.388 . S
C742 C743 1.390 . S
C743 C742 1.390 . S
C743 C744 1.394 1_554 S
C743 C749 1.465 . S
C744 C739 1.399 . S
C744 C743 1.394 1_556 S
C744 C745 1.516 . S
C745 C744 1.516 . S
C745 C746 1.502 . S
C745 C747 1.561 1_556 S
C745 C748 1.526 . S
C746 H730 0.959 . S
C746 H731 0.959 . S
C746 H732 0.961 . S
C746 C745 1.502 . S
C747 H733 0.960 . S
C747 H734 0.961 . S
C747 H735 0.959 . S
C747 C745 1.561 1_554 S
C748 C745 1.526 . S
C748 C749 1.396 1_556 S
C748 C753 1.390 . S
C749 C743 1.465 . S
C749 C748 1.396 1_554 S
C749 C750 1.399 . S
C750 H736 0.929 . S
C750 C749 1.399 . S
C750 C751 1.385 . S
C751 H737 0.931 . S
C751 C750 1.385 . S
C751 C752 1.389 . S
C752 C751 1.389 . S
C752 C753 1.387 1_554 S
C753 H738 0.930 . S
C753 C748 1.390 . S
C753 C752 1.387 1_556 S
H754 C766 0.930 . S
H755 C768 0.930 . S
H756 C769 0.930 . S
H757 C773 0.959 . S
H758 C773 0.959 . S
H759 C773 0.961 . S
H760 C774 0.960 . S
H761 C774 0.961 . S
H762 C774 0.959 . S
H763 C777 0.929 . S
H764 C778 0.931 . S
H765 C780 0.930 . S
C766 H754 0.930 . S
C766 C767 1.399 . S
C766 C771 1.399 . S
C767 C766 1.399 . S
C767 C768 1.376 . S
C768 H755 0.930 . S
C768 C767 1.376 . S
C768 C769 1.388 . S
C769 H756 0.930 . S
C769 C768 1.388 . S
C769 C770 1.390 . S
C770 C769 1.390 . S
C770 C771 1.394 . S
C770 C776 1.465 . S
C771 C766 1.399 . S
C771 C770 1.394 . S
C771 C772 1.516 . S
C772 C771 1.516 . S
C772 C773 1.502 . S
C772 C774 1.561 . S
C772 C775 1.526 . S
C773 H757 0.959 . S
C773 H758 0.959 . S
C773 H759 0.961 . S
C773 C772 1.502 . S
C774 H760 0.960 . S
C774 H761 0.961 . S
C774 H762 0.959 . S
C774 C772 1.561 . S
C775 C772 1.526 . S
C775 C776 1.396 . S
C775 C780 1.390 . S
C776 C770 1.465 . S
C776 C775 1.396 . S
C776 C777 1.399 . S
C777 H763 0.929 . S
C777 C776 1.399 . S
C777 C778 1.385 . S
C778 H764 0.931 . S
C778 C777 1.385 . S
C778 C779 1.389 . S
C779 C778 1.389 . S
C779 C780 1.387 . S
C780 H765 0.930 . S
C780 C775 1.390 . S
C780 C779 1.387 . S
H781 C793 0.930 . S
H782 C795 0.930 . S
H783 C796 0.930 . S
H784 C800 0.959 . S
H785 C800 0.959 . S
H786 C800 0.961 . S
H787 C801 0.960 . S
H788 C801 0.961 . S
H789 C801 0.959 . S
H790 C804 0.929 . S
H791 C805 0.931 . S
H792 C807 0.930 . S
C793 H781 0.930 . S
C793 C794 1.399 1_556 S
C793 C798 1.399 . S
C794 C793 1.399 1_554 S
C794 C795 1.376 . S
C795 H782 0.930 . S
C795 C794 1.376 . S
C795 C796 1.388 . S
C796 H783 0.930 . S
C796 C795 1.388 . S
C796 C797 1.390 . S
C797 C796 1.390 . S
C797 C798 1.394 1_554 S
C797 C803 1.465 . S
C798 C793 1.399 . S
C798 C797 1.394 1_556 S
C798 C799 1.516 . S
C799 C798 1.516 . S
C799 C800 1.502 . S
C799 C801 1.561 . S
C799 C802 1.526 . S
C800 H784 0.959 . S
C800 H785 0.959 . S
C800 H786 0.961 . S
C800 C799 1.502 . S
C801 H787 0.960 . S
C801 H788 0.961 . S
C801 H789 0.959 . S
C801 C799 1.561 . S
C802 C799 1.526 . S
C802 C803 1.396 1_556 S
C802 C807 1.390 . S
C803 C797 1.465 . S
C803 C802 1.396 1_554 S
C803 C804 1.399 . S
C804 H790 0.929 . S
C804 C803 1.399 . S
C804 C805 1.385 . S
C805 H791 0.931 . S
C805 C804 1.385 . S
C805 C806 1.389 . S
C806 C805 1.389 . S
C806 C807 1.387 1_554 S
C807 H792 0.930 . S
C807 C802 1.390 . S
C807 C806 1.387 1_556 S
C173 C5 1.390 . S
C185 C119 1.430 . S
C200 C31 1.426 . S
C212 C93 1.445 . S
C239 C102 1.416 . S
C227 C53 1.388 . S
C254 C71 1.412 . S
C266 C110 1.441 . S
C293 C138 1.440 . S
C281 C75 1.410 . S
C320 C146 1.443 . S
C308 C9 1.438 . S
C347 C155 1.438 . S
C335 C27 1.404 . S
C374 C129 1.419 . S
C362 C49 1.376 . S
C389 C51 1.436 . S
C401 C101 1.445 . S
C416 C72 1.420 . S
C428 C111 1.437 . S
C443 C6 1.418 . S
C455 C120 1.435 . S
C482 C92 1.439 . S
C470 C29 1.425 . S
C497 C28 1.421 . S
C509 C156 1.433 . S
C536 C128 1.434 . S
C524 C50 1.415 . S
C563 C137 1.414 . S
C551 C73 1.378 . S
C578 C7 1.403 . S
C590 C147 1.423 . S
C617 C95 1.469 . S
C605 C4 1.452 1_556 S
C644 C104 1.472 . S
C632 C30 1.457 . S
C659 C52 1.484 . S
C671 C113 1.483 . S
C686 C70 1.481 . S
C698 C122 1.478 . S
C725 C131 1.470 . S
C713 C74 1.454 . S
C740 C8 1.481 . S
C752 C140 1.484 . S
C767 C26 1.481 . S
C779 C149 1.479 . S
C794 C48 1.467 . S
C806 C158 1.478 1_554 S
