# Generated by pormake.
# Topology ptr, (4,4)-cn, num edge types: 1
# Building blocks:
#     Node 0, Type 0, BuildingBlock: GALJAG_clean_sbu_0, # of connection points: 4
#     Node 1, Type 0, BuildingBlock: GALJAG_clean_sbu_0, # of connection points: 4
#     Node 2, Type 0, BuildingBlock: GALJAG_clean_sbu_0, # of connection points: 4
#     Node 3, Type 0, BuildingBlock: GALJAG_clean_sbu_0, # of connection points: 4
#     Node 4, Type 0, BuildingBlock: GALJAG_clean_sbu_0, # of connection points: 4
#     Node 5, Type 0, BuildingBlock: GALJAG_clean_sbu_0, # of connection points: 4
#     Node 6, Type 0, BuildingBlock: GALJAG_clean_sbu_0, # of connection points: 4
#     Node 7, Type 0, BuildingBlock: GALJAG_clean_sbu_0, # of connection points: 4
#     Node 8, Type 0, BuildingBlock: GALJAG_clean_sbu_0, # of connection points: 4
#     Node 9, Type 0, BuildingBlock: GALJAG_clean_sbu_0, # of connection points: 4
#     Node 10, Type 0, BuildingBlock: GALJAG_clean_sbu_0, # of connection points: 4
#     Node 11, Type 0, BuildingBlock: GALJAG_clean_sbu_0, # of connection points: 4
#     Node 12, Type 0, BuildingBlock: GALJAG_clean_sbu_0, # of connection points: 4
#     Node 13, Type 0, BuildingBlock: GALJAG_clean_sbu_0, # of connection points: 4
#     Node 14, Type 0, BuildingBlock: GALJAG_clean_sbu_0, # of connection points: 4
#     Node 15, Type 0, BuildingBlock: GALJAG_clean_sbu_0, # of connection points: 4
#     Node 16, Type 0, BuildingBlock: GALJAG_clean_sbu_0, # of connection points: 4
#     Node 17, Type 0, BuildingBlock: GALJAG_clean_sbu_0, # of connection points: 4
#     Node 18, Type 1, BuildingBlock: AZAVOO_clean_linker_0, # of connection points: 4
#     Node 19, Type 1, BuildingBlock: AZAVOO_clean_linker_0, # of connection points: 4
#     Node 20, Type 1, BuildingBlock: AZAVOO_clean_linker_0, # of connection points: 4
#     Node 21, Type 1, BuildingBlock: AZAVOO_clean_linker_0, # of connection points: 4
#     Node 22, Type 1, BuildingBlock: AZAVOO_clean_linker_0, # of connection points: 4
#     Node 23, Type 1, BuildingBlock: AZAVOO_clean_linker_0, # of connection points: 4
#     Node 24, Type 1, BuildingBlock: AZAVOO_clean_linker_0, # of connection points: 4
#     Node 25, Type 1, BuildingBlock: AZAVOO_clean_linker_0, # of connection points: 4
#     Node 26, Type 1, BuildingBlock: AZAVOO_clean_linker_0, # of connection points: 4
#     Node 27, Type 1, BuildingBlock: AZAVOO_clean_linker_0, # of connection points: 4
#     Node 28, Type 1, BuildingBlock: AZAVOO_clean_linker_0, # of connection points: 4
#     Node 29, Type 1, BuildingBlock: AZAVOO_clean_linker_0, # of connection points: 4
#     Node 30, Type 1, BuildingBlock: AZAVOO_clean_linker_0, # of connection points: 4
#     Node 31, Type 1, BuildingBlock: AZAVOO_clean_linker_0, # of connection points: 4
#     Node 32, Type 1, BuildingBlock: AZAVOO_clean_linker_0, # of connection points: 4
#     Node 33, Type 1, BuildingBlock: AZAVOO_clean_linker_0, # of connection points: 4
#     Node 34, Type 1, BuildingBlock: AZAVOO_clean_linker_0, # of connection points: 4
#     Node 35, Type 1, BuildingBlock: AZAVOO_clean_linker_0, # of connection points: 4
#     Edge 36, Type (0, 1), BuildingBlock: ZUJKAS_clean_linker_0, # of connection points: 2
#     Edge 37, Type (0, 1), BuildingBlock: ZUJKAS_clean_linker_0, # of connection points: 2
#     Edge 38, Type (0, 1), BuildingBlock: ZUJKAS_clean_linker_0, # of connection points: 2
#     Edge 39, Type (0, 1), BuildingBlock: ZUJKAS_clean_linker_0, # of connection points: 2
#     Edge 40, Type (0, 1), BuildingBlock: ZUJKAS_clean_linker_0, # of connection points: 2
#     Edge 41, Type (0, 1), BuildingBlock: ZUJKAS_clean_linker_0, # of connection points: 2
#     Edge 42, Type (0, 1), BuildingBlock: ZUJKAS_clean_linker_0, # of connection points: 2
#     Edge 43, Type (0, 1), BuildingBlock: ZUJKAS_clean_linker_0, # of connection points: 2
#     Edge 44, Type (0, 1), BuildingBlock: ZUJKAS_clean_linker_0, # of connection points: 2
#     Edge 45, Type (0, 1), BuildingBlock: ZUJKAS_clean_linker_0, # of connection points: 2
#     Edge 46, Type (0, 1), BuildingBlock: ZUJKAS_clean_linker_0, # of connection points: 2
#     Edge 47, Type (0, 1), BuildingBlock: ZUJKAS_clean_linker_0, # of connection points: 2
#     Edge 48, Type (0, 1), BuildingBlock: ZUJKAS_clean_linker_0, # of connection points: 2
#     Edge 49, Type (0, 1), BuildingBlock: ZUJKAS_clean_linker_0, # of connection points: 2
#     Edge 50, Type (0, 1), BuildingBlock: ZUJKAS_clean_linker_0, # of connection points: 2
#     Edge 51, Type (0, 1), BuildingBlock: ZUJKAS_clean_linker_0, # of connection points: 2
#     Edge 52, Type (0, 1), BuildingBlock: ZUJKAS_clean_linker_0, # of connection points: 2
#     Edge 53, Type (0, 1), BuildingBlock: ZUJKAS_clean_linker_0, # of connection points: 2
#     Edge 54, Type (0, 1), BuildingBlock: ZUJKAS_clean_linker_0, # of connection points: 2
#     Edge 55, Type (0, 1), BuildingBlock: ZUJKAS_clean_linker_0, # of connection points: 2
#     Edge 56, Type (0, 1), BuildingBlock: ZUJKAS_clean_linker_0, # of connection points: 2
#     Edge 57, Type (0, 1), BuildingBlock: ZUJKAS_clean_linker_0, # of connection points: 2
#     Edge 58, Type (0, 1), BuildingBlock: ZUJKAS_clean_linker_0, # of connection points: 2
#     Edge 59, Type (0, 1), BuildingBlock: ZUJKAS_clean_linker_0, # of connection points: 2
#     Edge 60, Type (0, 1), BuildingBlock: ZUJKAS_clean_linker_0, # of connection points: 2
#     Edge 61, Type (0, 1), BuildingBlock: ZUJKAS_clean_linker_0, # of connection points: 2
#     Edge 62, Type (0, 1), BuildingBlock: ZUJKAS_clean_linker_0, # of connection points: 2
#     Edge 63, Type (0, 1), BuildingBlock: ZUJKAS_clean_linker_0, # of connection points: 2
#     Edge 64, Type (0, 1), BuildingBlock: ZUJKAS_clean_linker_0, # of connection points: 2
#     Edge 65, Type (0, 1), BuildingBlock: ZUJKAS_clean_linker_0, # of connection points: 2
#     Edge 66, Type (0, 1), BuildingBlock: ZUJKAS_clean_linker_0, # of connection points: 2
#     Edge 67, Type (0, 1), BuildingBlock: ZUJKAS_clean_linker_0, # of connection points: 2
#     Edge 68, Type (0, 1), BuildingBlock: ZUJKAS_clean_linker_0, # of connection points: 2
#     Edge 69, Type (0, 1), BuildingBlock: ZUJKAS_clean_linker_0, # of connection points: 2
#     Edge 70, Type (0, 1), BuildingBlock: ZUJKAS_clean_linker_0, # of connection points: 2
#     Edge 71, Type (0, 1), BuildingBlock: ZUJKAS_clean_linker_0, # of connection points: 2
#     Edge 72, Type (0, 1), BuildingBlock: ZUJKAS_clean_linker_0, # of connection points: 2
#     Edge 73, Type (0, 1), BuildingBlock: ZUJKAS_clean_linker_0, # of connection points: 2
#     Edge 74, Type (0, 1), BuildingBlock: ZUJKAS_clean_linker_0, # of connection points: 2
#     Edge 75, Type (0, 1), BuildingBlock: ZUJKAS_clean_linker_0, # of connection points: 2
#     Edge 76, Type (0, 1), BuildingBlock: ZUJKAS_clean_linker_0, # of connection points: 2
#     Edge 77, Type (0, 1), BuildingBlock: ZUJKAS_clean_linker_0, # of connection points: 2
#     Edge 78, Type (0, 1), BuildingBlock: ZUJKAS_clean_linker_0, # of connection points: 2
#     Edge 79, Type (0, 1), BuildingBlock: ZUJKAS_clean_linker_0, # of connection points: 2
#     Edge 80, Type (0, 1), BuildingBlock: ZUJKAS_clean_linker_0, # of connection points: 2
#     Edge 81, Type (0, 1), BuildingBlock: ZUJKAS_clean_linker_0, # of connection points: 2
#     Edge 82, Type (0, 1), BuildingBlock: ZUJKAS_clean_linker_0, # of connection points: 2
#     Edge 83, Type (0, 1), BuildingBlock: ZUJKAS_clean_linker_0, # of connection points: 2
#     Edge 84, Type (0, 1), BuildingBlock: ZUJKAS_clean_linker_0, # of connection points: 2
#     Edge 85, Type (0, 1), BuildingBlock: ZUJKAS_clean_linker_0, # of connection points: 2
#     Edge 86, Type (0, 1), BuildingBlock: ZUJKAS_clean_linker_0, # of connection points: 2
#     Edge 87, Type (0, 1), BuildingBlock: ZUJKAS_clean_linker_0, # of connection points: 2
#     Edge 88, Type (0, 1), BuildingBlock: ZUJKAS_clean_linker_0, # of connection points: 2
#     Edge 89, Type (0, 1), BuildingBlock: ZUJKAS_clean_linker_0, # of connection points: 2
#     Edge 90, Type (0, 1), BuildingBlock: ZUJKAS_clean_linker_0, # of connection points: 2
#     Edge 91, Type (0, 1), BuildingBlock: ZUJKAS_clean_linker_0, # of connection points: 2
#     Edge 92, Type (0, 1), BuildingBlock: ZUJKAS_clean_linker_0, # of connection points: 2
#     Edge 93, Type (0, 1), BuildingBlock: ZUJKAS_clean_linker_0, # of connection points: 2
#     Edge 94, Type (0, 1), BuildingBlock: ZUJKAS_clean_linker_0, # of connection points: 2
#     Edge 95, Type (0, 1), BuildingBlock: ZUJKAS_clean_linker_0, # of connection points: 2
#     Edge 96, Type (0, 1), BuildingBlock: ZUJKAS_clean_linker_0, # of connection points: 2
#     Edge 97, Type (0, 1), BuildingBlock: ZUJKAS_clean_linker_0, # of connection points: 2
#     Edge 98, Type (0, 1), BuildingBlock: ZUJKAS_clean_linker_0, # of connection points: 2
#     Edge 99, Type (0, 1), BuildingBlock: ZUJKAS_clean_linker_0, # of connection points: 2
#     Edge 100, Type (0, 1), BuildingBlock: ZUJKAS_clean_linker_0, # of connection points: 2
#     Edge 101, Type (0, 1), BuildingBlock: ZUJKAS_clean_linker_0, # of connection points: 2
#     Edge 102, Type (0, 1), BuildingBlock: ZUJKAS_clean_linker_0, # of connection points: 2
#     Edge 103, Type (0, 1), BuildingBlock: ZUJKAS_clean_linker_0, # of connection points: 2
#     Edge 104, Type (0, 1), BuildingBlock: ZUJKAS_clean_linker_0, # of connection points: 2
#     Edge 105, Type (0, 1), BuildingBlock: ZUJKAS_clean_linker_0, # of connection points: 2
#     Edge 106, Type (0, 1), BuildingBlock: ZUJKAS_clean_linker_0, # of connection points: 2
#     Edge 107, Type (0, 1), BuildingBlock: ZUJKAS_clean_linker_0, # of connection points: 2
# Relax obj value: 0.030
# Max RMSD: 0.165
# Mean RMSD: 0.100
data_MOF--net-ptr--node1-GALJAG_clean_sbu_0--node2-AZAVOO_clean_linker_0--edge1-ZUJKAS_clean_linker_0
_symmetry_space_group_name_H-M    P1
_symmetry_Int_Tables_number       1
_symmetry_cell_setting            triclinic
loop_
_symmetry_equiv_pos_as_xyz
'x, y, z'
_cell_length_a     100.52144
_cell_length_b     98.700759
_cell_length_c     90.593936
_cell_angle_alpha  92.366133
_cell_angle_beta   92.18715
_cell_angle_gamma 120.22715
loop_
_atom_site_label
_atom_site_type_symbol
_atom_site_fract_x
_atom_site_fract_y
_atom_site_fract_z
_atom_type_partial_charge
In0 In 0.00501 0.36176 0.01382 0.0
O1 O 0.98882 0.3647 0.02889 0.0
O2 O 0.01243 0.38278 0.0302 0.0
C3 C 0.98533 0.33362 0.99955 0.0
C4 C 0.02379 0.35476 0.02962 0.0
C5 C 0.01075 0.38116 0.9918 0.0
O6 O 0.98133 0.33962 0.00978 0.0
O7 O 0.99926 0.34178 0.9966 0.0
O8 O 0.02113 0.37913 0.99776 0.0
O9 O 0.99769 0.37341 0.99692 0.0
C10 C 0.99918 0.37784 0.03484 0.0
O11 O 0.02816 0.36294 0.01854 0.0
O12 O 0.01008 0.35016 0.03261 0.0
In13 In 0.63031 0.62017 0.05193 0.0
O14 O 0.63018 0.60413 0.06961 0.0
O15 O 0.60961 0.60469 0.06478 0.0
C16 C 0.65647 0.62793 0.03844 0.0
C17 C 0.63768 0.64691 0.06803 0.0
C18 C 0.61025 0.60748 0.02794 0.0
O19 O 0.65054 0.61657 0.04666 0.0
O20 O 0.64926 0.63525 0.03719 0.0
O21 O 0.61336 0.62033 0.03461 0.0
O22 O 0.61715 0.60096 0.03346 0.0
C23 C 0.61633 0.59921 0.07241 0.0
O24 O 0.62741 0.64127 0.05746 0.0
O25 O 0.64415 0.63904 0.07048 0.0
In26 In 0.38046 0.99608 0.01384 0.0
O27 O 0.38245 0.02026 0.01461 0.0
O28 O 0.36904 0.00375 0.99666 0.0
C29 C 0.40053 0.0004 0.03663 0.0
C30 C 0.39358 0.99069 0.99059 0.0
C31 C 0.35369 0.97698 0.02594 0.0
O32 O 0.39976 0.01167 0.03138 0.0
O33 O 0.39135 0.98706 0.03025 0.0
O34 O 0.35908 0.97184 0.01624 0.0
O35 O 0.36174 0.99153 0.02933 0.0
C36 C 0.374 0.01726 0.00286 0.0
O37 O 0.3797 0.9814 0.99319 0.0
O38 O 0.40078 0.0024 0.99982 0.0
In39 In 0.99555 0.6375 0.03795 0.0
O40 O 0.01127 0.63559 0.02148 0.0
O41 O 0.98904 0.61558 0.02317 0.0
C42 C 0.01492 0.66574 0.05213 0.0
C43 C 0.97641 0.64351 0.02152 0.0
C44 C 0.9904 0.61921 0.06083 0.0
O45 O 0.0195 0.65882 0.04348 0.0
O46 O 0.00056 0.65849 0.0535 0.0
O47 O 0.97976 0.62064 0.05455 0.0
O48 O 0.00338 0.62696 0.05556 0.0
C49 C 0.00165 0.62153 0.01705 0.0
O50 O 0.97188 0.63484 0.03228 0.0
O51 O 0.99046 0.64911 0.01924 0.0
In52 In 0.37119 0.3791 0.00076 0.0
O53 O 0.37354 0.39874 0.9864 0.0
O54 O 0.38719 0.38833 0.98211 0.0
C55 C 0.34613 0.37305 0.01542 0.0
C56 C 0.3611 0.351 0.98605 0.0
C57 C 0.39332 0.39234 0.0232 0.0
O58 O 0.35006 0.38161 0.00456 0.0
O59 O 0.35486 0.36777 0.0188 0.0
O60 O 0.38759 0.3782 0.01834 0.0
O61 O 0.38807 0.39984 0.01659 0.0
C62 C 0.38353 0.39832 0.97864 0.0
O63 O 0.37393 0.35829 0.99349 0.0
O64 O 0.3534 0.35789 0.98603 0.0
In65 In 0.62022 0.00344 0.03794 0.0
O66 O 0.62066 0.01918 0.05752 0.0
O67 O 0.60097 0.99632 0.05351 0.0
C68 C 0.64631 0.02217 0.02471 0.0
C69 C 0.62794 0.98337 0.04939 0.0
C70 C 0.59967 0.99815 0.01526 0.0
O71 O 0.64157 0.0275 0.03489 0.0
O72 O 0.6379 0.00765 0.02135 0.0
O73 O 0.60217 0.98758 0.01958 0.0
O74 O 0.60733 0.01127 0.02255 0.0
C75 C 0.60761 0.00904 0.0615 0.0
O76 O 0.61708 0.97895 0.03951 0.0
O77 O 0.63468 0.99779 0.05354 0.0
In78 In 0.67062 0.69729 0.3469 0.0
O79 O 0.6575 0.6947 0.36774 0.0
O80 O 0.66681 0.71627 0.35745 0.0
C81 C 0.64957 0.66941 0.33314 0.0
C82 C 0.69277 0.69421 0.36178 0.0
C83 C 0.67887 0.71634 0.3243 0.0
O84 O 0.64637 0.67576 0.34374 0.0
O85 O 0.66333 0.67711 0.32956 0.0
O86 O 0.68869 0.71509 0.33234 0.0
O87 O 0.66512 0.70801 0.32766 0.0
C88 C 0.65946 0.70838 0.36793 0.0
O89 O 0.69256 0.70688 0.36236 0.0
O90 O 0.68214 0.68334 0.35341 0.0
In91 In 0.29679 0.95298 0.38627 0.0
O92 O 0.29584 0.93606 0.40339 0.0
O93 O 0.27648 0.93906 0.40019 0.0
C94 C 0.32218 0.95867 0.37236 0.0
C95 C 0.30605 0.98046 0.40196 0.0
C96 C 0.27649 0.94117 0.36234 0.0
O97 O 0.31553 0.94732 0.38049 0.0
O98 O 0.31615 0.96716 0.37147 0.0
O99 O 0.27986 0.95393 0.36937 0.0
O100 O 0.28319 0.93432 0.36751 0.0
C101 C 0.28251 0.93243 0.40705 0.0
O102 O 0.29503 0.97469 0.39212 0.0
O103 O 0.31239 0.97235 0.4039 0.0
In104 In 0.05216 0.32936 0.34775 0.0
O105 O 0.05594 0.35402 0.34568 0.0
O106 O 0.03852 0.33541 0.33136 0.0
C107 C 0.07292 0.33571 0.3706 0.0
C108 C 0.06401 0.32202 0.32454 0.0
C109 C 0.02579 0.31107 0.36087 0.0
O110 O 0.07057 0.34606 0.36543 0.0
O111 O 0.06497 0.32219 0.36409 0.0
O112 O 0.03074 0.30553 0.35111 0.0
O113 O 0.03412 0.32567 0.36392 0.0
C114 C 0.04551 0.34986 0.33542 0.0
O115 O 0.05098 0.31244 0.32896 0.0
O116 O 0.07107 0.33509 0.33196 0.0
In117 In 0.66328 0.96613 0.37121 0.0
O118 O 0.68047 0.9648 0.35632 0.0
O119 O 0.6578 0.94498 0.35566 0.0
C120 C 0.68193 0.9944 0.38578 0.0
C121 C 0.64393 0.97164 0.35442 0.0
C122 C 0.65702 0.94726 0.3938 0.0
O123 O 0.68668 0.98837 0.37632 0.0
O124 O 0.66775 0.98622 0.38781 0.0
O125 O 0.64676 0.94896 0.38709 0.0
O126 O 0.6703 0.95504 0.3891 0.0
C127 C 0.67108 0.95107 0.35085 0.0
O128 O 0.63939 0.96252 0.36481 0.0
O129 O 0.65816 0.97798 0.35262 0.0
In130 In 0.03741 0.71546 0.335 0.0
O131 O 0.03663 0.7312 0.31736 0.0
O132 O 0.05803 0.73267 0.32298 0.0
C133 C 0.01068 0.70668 0.34776 0.0
C134 C 0.03211 0.68983 0.31816 0.0
C135 C 0.0561 0.72657 0.36005 0.0
O136 O 0.01765 0.71934 0.34137 0.0
O137 O 0.01713 0.69853 0.34754 0.0
O138 O 0.05288 0.71381 0.35311 0.0
O139 O 0.04999 0.73372 0.3543 0.0
C140 C 0.05078 0.7374 0.31512 0.0
O141 O 0.04379 0.69732 0.32716 0.0
O142 O 0.02315 0.69529 0.31763 0.0
In143 In 0.28365 0.33661 0.3712 0.0
O144 O 0.28081 0.31263 0.37534 0.0
O145 O 0.3001 0.33297 0.38613 0.0
C146 C 0.26222 0.32848 0.34857 0.0
C147 C 0.27181 0.34362 0.39462 0.0
C148 C 0.30885 0.35528 0.35679 0.0
O149 O 0.26594 0.31898 0.35351 0.0
O150 O 0.2691 0.34199 0.35523 0.0
O151 O 0.30396 0.36079 0.36666 0.0
O152 O 0.301 0.34057 0.35426 0.0
C153 C 0.29287 0.31822 0.38389 0.0
O154 O 0.28444 0.35359 0.38974 0.0
O155 O 0.26517 0.33035 0.38756 0.0
In156 In 0.33727 0.03188 0.68062 0.0
O157 O 0.36114 0.03523 0.68656 0.0
O158 O 0.34264 0.02037 0.69936 0.0
C159 C 0.34323 0.05049 0.65788 0.0
C160 C 0.32989 0.04732 0.70096 0.0
C161 C 0.31843 0.00346 0.66645 0.0
O162 O 0.35371 0.04942 0.66495 0.0
O163 O 0.32989 0.04216 0.66226 0.0
O164 O 0.31382 0.0097 0.67585 0.0
O165 O 0.33259 0.01152 0.66426 0.0
C166 C 0.35677 0.02645 0.69722 0.0
O167 O 0.32045 0.03344 0.69593 0.0
O168 O 0.34296 0.05336 0.69571 0.0
In169 In 0.96306 0.28495 0.71585 0.0
O170 O 0.95976 0.30571 0.72161 0.0
O171 O 0.97656 0.30363 0.73471 0.0
C172 C 0.94323 0.27232 0.69164 0.0
C173 C 0.94875 0.26351 0.73587 0.0
C174 C 0.98975 0.29349 0.70305 0.0
O175 O 0.94648 0.28527 0.69818 0.0
O176 O 0.94988 0.26567 0.69739 0.0
O177 O 0.98417 0.28251 0.71172 0.0
O178 O 0.98192 0.30006 0.701 0.0
C179 C 0.96986 0.31131 0.73232 0.0
O180 O 0.96198 0.26709 0.7319 0.0
O181 O 0.94283 0.2706 0.72965 0.0
In182 In 0.71698 0.66283 0.68158 0.0
O183 O 0.71903 0.68668 0.67885 0.0
O184 O 0.70032 0.66661 0.66707 0.0
C185 C 0.73899 0.67074 0.70361 0.0
C186 C 0.72899 0.65682 0.65769 0.0
C187 C 0.69177 0.64362 0.69575 0.0
O188 O 0.73538 0.68037 0.69886 0.0
O189 O 0.73172 0.65719 0.69704 0.0
O190 O 0.69572 0.63874 0.68457 0.0
O191 O 0.70056 0.65797 0.6997 0.0
C192 C 0.70715 0.68126 0.67007 0.0
O193 O 0.71778 0.64604 0.66379 0.0
O194 O 0.73415 0.67042 0.66377 0.0
In195 In 0.32983 0.30192 0.70452 0.0
O196 O 0.34699 0.29935 0.69048 0.0
O197 O 0.32318 0.28239 0.68654 0.0
C198 C 0.34906 0.32953 0.71981 0.0
C199 C 0.31169 0.3097 0.68863 0.0
C200 C 0.32253 0.28201 0.72635 0.0
O201 O 0.35336 0.32399 0.70945 0.0
O202 O 0.33504 0.32117 0.72241 0.0
O203 O 0.31274 0.28469 0.72004 0.0
O204 O 0.33581 0.2893 0.72159 0.0
C205 C 0.33679 0.28713 0.68307 0.0
O206 O 0.30631 0.29886 0.69744 0.0
O207 O 0.32614 0.31663 0.68799 0.0
In208 In 0.70447 0.04591 0.66508 0.0
O209 O 0.70464 0.06205 0.64745 0.0
O210 O 0.72517 0.06145 0.65217 0.0
C211 C 0.67862 0.03932 0.67862 0.0
C212 C 0.6963 0.01886 0.64911 0.0
C213 C 0.7243 0.05738 0.68936 0.0
O214 O 0.68591 0.05154 0.67166 0.0
O215 O 0.68427 0.03044 0.67852 0.0
O216 O 0.72173 0.04519 0.68175 0.0
O217 O 0.71701 0.06381 0.68462 0.0
C218 C 0.71849 0.06702 0.64463 0.0
O219 O 0.70704 0.02468 0.65924 0.0
O220 O 0.68974 0.02672 0.647 0.0
In221 In 0.94896 0.67072 0.70419 0.0
O222 O 0.9438 0.64578 0.70772 0.0
O223 O 0.9631 0.66483 0.71999 0.0
C224 C 0.92883 0.66408 0.68071 0.0
C225 C 0.93753 0.67875 0.72733 0.0
C226 C 0.97522 0.68847 0.6908 0.0
O227 O 0.93103 0.65378 0.68623 0.0
O228 O 0.93661 0.67765 0.68717 0.0
O229 O 0.96927 0.69453 0.6988 0.0
O230 O 0.96794 0.67366 0.68966 0.0
C231 C 0.95508 0.65017 0.71709 0.0
O232 O 0.95126 0.68729 0.72391 0.0
O233 O 0.92963 0.66646 0.71893 0.0
H234 H 0.16648 0.34761 0.05643 0.0
H235 H 0.25102 0.30209 0.16834 0.0
H236 H 0.15829 0.34439 0.13934 0.0
H237 H 0.13796 0.34734 0.12688 0.0
H238 H 0.1095 0.29682 0.1201 0.0
H239 H 0.12996 0.294 0.13274 0.0
H240 H 0.18424 0.34716 0.11859 0.0
H241 H 0.18006 0.35203 0.09302 0.0
H242 H 0.14569 0.30283 0.08442 0.0
H243 H 0.15012 0.29813 0.10998 0.0
H244 H 0.21132 0.34567 0.13692 0.0
H245 H 0.23142 0.3524 0.11957 0.0
H246 H 0.20267 0.3077 0.09483 0.0
H247 H 0.18252 0.30113 0.11226 0.0
H248 H 0.21019 0.33844 0.16916 0.0
H249 H 0.23328 0.33768 0.17729 0.0
H250 H 0.21577 0.29334 0.15173 0.0
H251 H 0.19265 0.29417 0.14383 0.0
H252 H 0.18278 0.33694 0.18403 0.0
H253 H 0.19024 0.336 0.20982 0.0
H254 H 0.18172 0.28895 0.20008 0.0
H255 H 0.17402 0.28992 0.17428 0.0
H256 H 0.15627 0.33794 0.16833 0.0
H257 H 0.14042 0.33622 0.1888 0.0
H258 H 0.12622 0.28716 0.19117 0.0
H259 H 0.14179 0.28892 0.17041 0.0
O260 O 0.16801 0.34541 0.06646 0.0
O261 O 0.15038 0.32004 0.06265 0.0
O262 O 0.25046 0.32546 0.17831 0.0
O263 O 0.242 0.30268 0.16531 0.0
C264 C 0.15891 0.31753 0.14194 0.0
C265 C 0.16986 0.31944 0.13166 0.0
C266 C 0.1833 0.31921 0.13631 0.0
C267 C 0.18563 0.31669 0.15117 0.0
C268 C 0.17467 0.31477 0.16146 0.0
C269 C 0.16127 0.31515 0.15683 0.0
C270 C 0.14551 0.31899 0.13702 0.0
C271 C 0.14748 0.33396 0.13555 0.0
C272 C 0.13588 0.33561 0.12842 0.0
C273 C 0.12219 0.3223 0.12247 0.0
C274 C 0.11999 0.30727 0.1245 0.0
C275 C 0.13156 0.30563 0.13181 0.0
C276 C 0.16749 0.32231 0.11608 0.0
C277 C 0.17588 0.33746 0.11113 0.0
C278 C 0.17344 0.3402 0.09653 0.0
C279 C 0.16253 0.32782 0.08667 0.0
C280 C 0.15417 0.31263 0.09172 0.0
C281 C 0.15666 0.30991 0.1063 0.0
C282 C 0.19553 0.32289 0.12588 0.0
C283 C 0.20942 0.33729 0.12781 0.0
C284 C 0.22089 0.34109 0.11791 0.0
C285 C 0.21866 0.33056 0.10584 0.0
C286 C 0.20467 0.31612 0.10392 0.0
C287 C 0.1932 0.31231 0.11388 0.0
C288 C 0.19972 0.31631 0.156 0.0
C289 C 0.21133 0.32854 0.16541 0.0
C290 C 0.22453 0.32809 0.16999 0.0
C291 C 0.22636 0.31543 0.16517 0.0
C292 C 0.21472 0.30325 0.15566 0.0
C293 C 0.20151 0.3037 0.15112 0.0
C294 C 0.17786 0.3135 0.17732 0.0
C295 C 0.18229 0.32635 0.18753 0.0
C296 C 0.18666 0.32583 0.20221 0.0
C297 C 0.18665 0.31244 0.20693 0.0
C298 C 0.18171 0.29937 0.19678 0.0
C299 C 0.17739 0.29992 0.18206 0.0
C300 C 0.15007 0.31353 0.16782 0.0
C301 C 0.14942 0.32674 0.17302 0.0
C302 C 0.14051 0.32577 0.18484 0.0
C303 C 0.13215 0.31158 0.1917 0.0
C304 C 0.13239 0.29821 0.18605 0.0
C305 C 0.1413 0.29919 0.17422 0.0
C306 C 0.1599 0.33079 0.0712 0.0
C307 C 0.24035 0.31489 0.17002 0.0
H308 H 0.6541 0.81984 0.07226 0.0
H309 H 0.70858 0.95112 0.19246 0.0
H310 H 0.66051 0.81476 0.15231 0.0
H311 H 0.65508 0.78911 0.14198 0.0
H312 H 0.70368 0.80449 0.14715 0.0
H313 H 0.70897 0.83019 0.15772 0.0
H314 H 0.65867 0.83914 0.13505 0.0
H315 H 0.65234 0.8302 0.10879 0.0
H316 H 0.69864 0.83875 0.10482 0.0
H317 H 0.70487 0.84782 0.13106 0.0
H318 H 0.66172 0.86629 0.1561 0.0
H319 H 0.6543 0.88076 0.13972 0.0
H320 H 0.69591 0.89563 0.11682 0.0
H321 H 0.70319 0.88091 0.13329 0.0
H322 H 0.6716 0.87271 0.18863 0.0
H323 H 0.67359 0.89733 0.19794 0.0
H324 H 0.71503 0.92341 0.17475 0.0
H325 H 0.71302 0.89869 0.1657 0.0
H326 H 0.6742 0.84588 0.20284 0.0
H327 H 0.67634 0.85665 0.22815 0.0
H328 H 0.72122 0.89594 0.22073 0.0
H329 H 0.71902 0.88497 0.19538 0.0
H330 H 0.66977 0.81712 0.18466 0.0
H331 H 0.67229 0.80102 0.20309 0.0
H332 H 0.72103 0.83491 0.21019 0.0
H333 H 0.71835 0.851 0.19171 0.0
O334 O 0.65687 0.82348 0.08261 0.0
O335 O 0.68079 0.82801 0.08118 0.0
O336 O 0.68627 0.92725 0.20078 0.0
O337 O 0.70752 0.94121 0.18893 0.0
C338 C 0.68824 0.84013 0.16093 0.0
C339 C 0.68609 0.84955 0.15087 0.0
C340 C 0.68728 0.86382 0.15606 0.0
C341 C 0.69119 0.86898 0.17119 0.0
C342 C 0.69367 0.85972 0.18122 0.0
C343 C 0.69212 0.84524 0.1761 0.0
C344 C 0.68513 0.82433 0.15564 0.0
C345 C 0.66997 0.81256 0.15127 0.0
C346 C 0.66691 0.79795 0.1453 0.0
C347 C 0.67898 0.79484 0.14358 0.0
C348 C 0.69414 0.80652 0.1484 0.0
C349 C 0.69719 0.82119 0.15439 0.0
C350 C 0.68226 0.84424 0.13491 0.0
C351 C 0.66746 0.83918 0.12845 0.0
C352 C 0.66386 0.83403 0.11347 0.0
C353 C 0.67499 0.83378 0.1047 0.0
C354 C 0.68981 0.83881 0.11125 0.0
C355 C 0.69339 0.84399 0.12623 0.0
C356 C 0.68303 0.87268 0.14594 0.0
C357 C 0.66926 0.87274 0.14759 0.0
C358 C 0.66507 0.88104 0.13825 0.0
C359 C 0.67458 0.88943 0.12705 0.0
C360 C 0.68831 0.88918 0.12529 0.0
C361 C 0.69251 0.88087 0.13469 0.0
C362 C 0.69223 0.88394 0.17659 0.0
C363 C 0.68114 0.88376 0.18564 0.0
C364 C 0.68228 0.89783 0.19091 0.0
C365 C 0.6945 0.91235 0.18711 0.0
C366 C 0.7055 0.91245 0.17791 0.0
C367 C 0.70437 0.89836 0.17269 0.0
C368 C 0.69644 0.86466 0.19727 0.0
C369 C 0.68471 0.85654 0.20684 0.0
C370 C 0.68595 0.86272 0.22129 0.0
C371 C 0.6989 0.87721 0.22638 0.0
C372 C 0.71104 0.88484 0.21704 0.0
C373 C 0.70984 0.87857 0.20262 0.0
C374 C 0.6939 0.83515 0.18677 0.0
C375 C 0.68103 0.82094 0.19003 0.0
C376 C 0.68251 0.81176 0.20055 0.0
C377 C 0.69688 0.81666 0.20806 0.0
C378 C 0.70979 0.83088 0.20468 0.0
C379 C 0.7083 0.84004 0.1941 0.0
C380 C 0.67112 0.82827 0.08879 0.0
C381 C 0.69579 0.92734 0.19271 0.0
H382 H 0.15506 0.83952 0.06032 0.0
H383 H 0.27792 0.93987 0.18166 0.0
H384 H 0.14141 0.84717 0.13722 0.0
H385 H 0.11898 0.82278 0.12639 0.0
H386 H 0.13654 0.79591 0.14746 0.0
H387 H 0.159 0.82033 0.15807 0.0
H388 H 0.17057 0.87154 0.11956 0.0
H389 H 0.1637 0.86186 0.09349 0.0
H390 H 0.16763 0.82143 0.10321 0.0
H391 H 0.17467 0.83135 0.1292 0.0
H392 H 0.20126 0.89982 0.13521 0.0
H393 H 0.22023 0.91226 0.11673 0.0
H394 H 0.22675 0.87215 0.11421 0.0
H395 H 0.20755 0.85973 0.13241 0.0
H396 H 0.20132 0.90574 0.17154 0.0
H397 H 0.22634 0.92893 0.17926 0.0
H398 H 0.24891 0.90255 0.16897 0.0
H399 H 0.2238 0.87941 0.16144 0.0
H400 H 0.17481 0.88361 0.19086 0.0
H401 H 0.18396 0.89338 0.21673 0.0
H402 H 0.21487 0.87494 0.21485 0.0
H403 H 0.20592 0.86562 0.18902 0.0
H404 H 0.14316 0.85398 0.17248 0.0
H405 H 0.12485 0.83946 0.19092 0.0
H406 H 0.15531 0.82366 0.20741 0.0
H407 H 0.17331 0.83788 0.18872 0.0
O408 O 0.15786 0.84317 0.07066 0.0
O409 O 0.15995 0.82256 0.07626 0.0
O410 O 0.25571 0.94391 0.18385 0.0
O411 O 0.26788 0.93088 0.17868 0.0
C412 C 0.16653 0.85012 0.15289 0.0
C413 C 0.17708 0.85798 0.14208 0.0
C414 C 0.19161 0.87131 0.14633 0.0
C415 C 0.19554 0.87687 0.16137 0.0
C416 C 0.18505 0.86891 0.1722 0.0
C417 C 0.1705 0.85557 0.16796 0.0
C418 C 0.1518 0.83548 0.14839 0.0
C419 C 0.14022 0.83599 0.13972 0.0
C420 C 0.12743 0.82207 0.13359 0.0
C421 C 0.1261 0.80747 0.136 0.0
C422 C 0.13738 0.80701 0.14528 0.0
C423 C 0.15011 0.82091 0.15145 0.0
C424 C 0.17303 0.8521 0.12625 0.0
C425 C 0.16998 0.86062 0.11601 0.0
C426 C 0.16603 0.85505 0.10114 0.0
C427 C 0.16508 0.84085 0.09627 0.0
C428 C 0.16823 0.83239 0.1066 0.0
C429 C 0.17221 0.838 0.12145 0.0
C430 C 0.20303 0.87889 0.13509 0.0
C431 C 0.20679 0.89375 0.13061 0.0
C432 C 0.21767 0.90085 0.12011 0.0
C433 C 0.22501 0.8932 0.11396 0.0
C434 C 0.22115 0.87826 0.11851 0.0
C435 C 0.21025 0.87118 0.12896 0.0
C436 C 0.21078 0.89095 0.16587 0.0
C437 C 0.21169 0.90501 0.17097 0.0
C438 C 0.22599 0.91823 0.17536 0.0
C439 C 0.23963 0.9176 0.17471 0.0
C440 C 0.23864 0.90345 0.16959 0.0
C441 C 0.22433 0.89023 0.16523 0.0
C442 C 0.1898 0.87403 0.18809 0.0
C443 C 0.1835 0.88165 0.19612 0.0
C444 C 0.1887 0.88715 0.21088 0.0
C445 C 0.20026 0.88507 0.21782 0.0
C446 C 0.20621 0.87705 0.20977 0.0
C447 C 0.20106 0.87162 0.19505 0.0
C448 C 0.15957 0.84702 0.17932 0.0
C449 C 0.14584 0.84737 0.18009 0.0
C450 C 0.13545 0.83915 0.19068 0.0
C451 C 0.13862 0.83039 0.20063 0.0
C452 C 0.15243 0.83012 0.1998 0.0
C453 C 0.1628 0.83834 0.18922 0.0
C454 C 0.16082 0.83492 0.08048 0.0
C455 C 0.25485 0.93162 0.17937 0.0
H456 H 0.31089 0.16961 0.98362 0.0
H457 H 0.32932 0.06703 0.86678 0.0
H458 H 0.29041 0.16426 0.90373 0.0
H459 H 0.29269 0.189 0.91314 0.0
H460 H 0.33916 0.21435 0.89882 0.0
H461 H 0.33644 0.18965 0.88893 0.0
H462 H 0.29407 0.1388 0.92381 0.0
H463 H 0.2969 0.14812 0.94984 0.0
H464 H 0.34239 0.18689 0.94312 0.0
H465 H 0.33946 0.17733 0.91717 0.0
H466 H 0.2964 0.10999 0.91043 0.0
H467 H 0.30392 0.09627 0.92796 0.0
H468 H 0.35082 0.13525 0.93073 0.0
H469 H 0.34323 0.14884 0.91327 0.0
H470 H 0.28958 0.10423 0.87354 0.0
H471 H 0.29022 0.08032 0.86665 0.0
H472 H 0.33926 0.10492 0.87868 0.0
H473 H 0.33848 0.12878 0.88535 0.0
H474 H 0.28692 0.12737 0.85244 0.0
H475 H 0.28627 0.11741 0.82693 0.0
H476 H 0.33501 0.13361 0.83287 0.0
H477 H 0.33555 0.14363 0.85811 0.0
H478 H 0.28727 0.15962 0.86949 0.0
H479 H 0.28579 0.17583 0.85044 0.0
H480 H 0.33121 0.18736 0.83792 0.0
H481 H 0.33281 0.17172 0.85736 0.0
O482 O 0.31004 0.1661 0.97331 0.0
O483 O 0.33333 0.18585 0.96926 0.0
O484 O 0.30353 0.06422 0.86331 0.0
O485 O 0.32874 0.07631 0.86941 0.0
C486 C 0.31263 0.16023 0.89158 0.0
C487 C 0.31466 0.15179 0.90282 0.0
C488 C 0.31528 0.13813 0.89904 0.0
C489 C 0.3135 0.13266 0.88404 0.0
C490 C 0.31163 0.14118 0.87279 0.0
C491 C 0.31123 0.155 0.87654 0.0
C492 C 0.31325 0.17523 0.89565 0.0
C493 C 0.30094 0.17523 0.90239 0.0
C494 C 0.30234 0.18936 0.90788 0.0
C495 C 0.31617 0.20371 0.90687 0.0
C496 C 0.32826 0.20362 0.89961 0.0
C497 C 0.32677 0.18951 0.89399 0.0
C498 C 0.31651 0.15745 0.91862 0.0
C499 C 0.30464 0.14928 0.92801 0.0
C500 C 0.30628 0.15465 0.94286 0.0
C501 C 0.31986 0.16828 0.94856 0.0
C502 C 0.33177 0.17638 0.93909 0.0
C503 C 0.33012 0.17098 0.92426 0.0
C504 C 0.31928 0.13037 0.91063 0.0
C505 C 0.30823 0.11561 0.91501 0.0
C506 C 0.31253 0.10785 0.92501 0.0
C507 C 0.32796 0.1147 0.93062 0.0
C508 C 0.33889 0.12966 0.92647 0.0
C509 C 0.33456 0.13746 0.9166 0.0
C510 C 0.31396 0.11817 0.88004 0.0
C511 C 0.30044 0.10441 0.87468 0.0
C512 C 0.30084 0.09078 0.87076 0.0
C513 C 0.31479 0.0907 0.87215 0.0
C514 C 0.32832 0.10456 0.87751 0.0
C515 C 0.32791 0.11819 0.88138 0.0
C516 C 0.31127 0.13616 0.85707 0.0
C517 C 0.29745 0.1289 0.84811 0.0
C518 C 0.2971 0.12317 0.83362 0.0
C519 C 0.31059 0.12476 0.8279 0.0
C520 C 0.32447 0.13241 0.83686 0.0
C521 C 0.32479 0.13804 0.8513 0.0
C522 C 0.31011 0.16444 0.86474 0.0
C523 C 0.29688 0.16569 0.86262 0.0
C524 C 0.29603 0.17486 0.85167 0.0
C525 C 0.30839 0.18292 0.84265 0.0
C526 C 0.32158 0.18152 0.8448 0.0
C527 C 0.32245 0.17245 0.85579 0.0
C528 C 0.32154 0.17399 0.96432 0.0
C529 C 0.31528 0.07626 0.86801 0.0
H530 H 0.82598 0.16952 0.98723 0.0
H531 H 0.73777 0.03975 0.86714 0.0
H532 H 0.83363 0.17454 0.90716 0.0
H533 H 0.85509 0.199 0.91877 0.0
H534 H 0.8852 0.17979 0.91485 0.0
H535 H 0.86355 0.15531 0.903 0.0
H536 H 0.80741 0.15079 0.92433 0.0
H537 H 0.8118 0.15977 0.95058 0.0
H538 H 0.84789 0.14825 0.95512 0.0
H539 H 0.84325 0.13913 0.92889 0.0
H540 H 0.78078 0.12318 0.90343 0.0
H541 H 0.76083 0.11057 0.92092 0.0
H542 H 0.78904 0.09569 0.9443 0.0
H543 H 0.80898 0.10834 0.92665 0.0
H544 H 0.7825 0.11788 0.87061 0.0
H545 H 0.75867 0.09402 0.86138 0.0
H546 H 0.7734 0.06599 0.88478 0.0
H547 H 0.79726 0.08994 0.8938 0.0
H548 H 0.81279 0.14511 0.85708 0.0
H549 H 0.80539 0.13711 0.83085 0.0
H550 H 0.80583 0.09415 0.83732 0.0
H551 H 0.81421 0.1028 0.86343 0.0
H552 H 0.83853 0.17192 0.87526 0.0
H553 H 0.85624 0.18694 0.85667 0.0
H554 H 0.86676 0.14989 0.84927 0.0
H555 H 0.8493 0.13513 0.8682 0.0
O556 O 0.82439 0.16585 0.97688 0.0
O557 O 0.84291 0.15981 0.97861 0.0
O558 O 0.74008 0.06431 0.85876 0.0
O559 O 0.7471 0.04937 0.87062 0.0
C560 C 0.8335 0.14789 0.89884 0.0
C561 C 0.82235 0.13888 0.90878 0.0
C562 C 0.80862 0.12508 0.9035 0.0
C563 C 0.80617 0.12009 0.88829 0.0
C564 C 0.81738 0.12904 0.87833 0.0
C565 C 0.83111 0.14292 0.88365 0.0
C566 C 0.84705 0.16317 0.90435 0.0
C567 C 0.8449 0.17569 0.90868 0.0
C568 C 0.85714 0.18959 0.9154 0.0
C569 C 0.87179 0.19124 0.91792 0.0
C570 C 0.87407 0.17888 0.913 0.0
C571 C 0.86175 0.16492 0.90626 0.0
C572 C 0.82495 0.14423 0.92475 0.0
C573 C 0.81618 0.15012 0.93105 0.0
C574 C 0.81875 0.15529 0.94603 0.0
C575 C 0.83019 0.15472 0.95496 0.0
C576 C 0.83899 0.14884 0.94857 0.0
C577 C 0.83637 0.14364 0.9336 0.0
C578 C 0.79627 0.11658 0.91372 0.0
C579 C 0.78255 0.11701 0.91221 0.0
C580 C 0.77119 0.10981 0.92221 0.0
C581 C 0.77337 0.10214 0.93398 0.0
C582 C 0.78711 0.10166 0.93543 0.0
C583 C 0.79845 0.10878 0.92533 0.0
C584 C 0.79164 0.10562 0.88278 0.0
C585 C 0.78059 0.10657 0.87366 0.0
C586 C 0.76697 0.09293 0.86844 0.0
C587 C 0.76414 0.07809 0.87233 0.0
C588 C 0.77522 0.07722 0.88156 0.0
C589 C 0.78884 0.09087 0.88674 0.0
C590 C 0.81408 0.12456 0.86217 0.0
C591 C 0.81164 0.13414 0.85276 0.0
C592 C 0.80719 0.12943 0.8378 0.0
C593 C 0.80481 0.11487 0.83197 0.0
C594 C 0.80769 0.10549 0.84137 0.0
C595 C 0.81237 0.11034 0.85632 0.0
C596 C 0.8427 0.15249 0.87314 0.0
C597 C 0.84487 0.16718 0.86981 0.0
C598 C 0.85486 0.17565 0.85908 0.0
C599 C 0.86284 0.16956 0.85144 0.0
C600 C 0.86091 0.15497 0.85506 0.0
C601 C 0.8509 0.1465 0.86581 0.0
C602 C 0.83293 0.16026 0.97086 0.0
C603 C 0.7497 0.06356 0.8668 0.0
H604 H 0.85069 0.68344 0.00229 0.0
H605 H 0.73623 0.67044 0.88128 0.0
H606 H 0.86719 0.70342 0.92777 0.0
H607 H 0.88684 0.69914 0.93969 0.0
H608 H 0.86818 0.65481 0.91382 0.0
H609 H 0.84809 0.65888 0.90254 0.0
H610 H 0.839 0.70119 0.94451 0.0
H611 H 0.84453 0.69799 0.97026 0.0
H612 H 0.83712 0.65189 0.95738 0.0
H613 H 0.8314 0.65516 0.93172 0.0
H614 H 0.81033 0.70096 0.92921 0.0
H615 H 0.79116 0.69541 0.9475 0.0
H616 H 0.78042 0.64706 0.94621 0.0
H617 H 0.79978 0.65285 0.92823 0.0
H618 H 0.81288 0.70759 0.89328 0.0
H619 H 0.78953 0.70821 0.88586 0.0
H620 H 0.76187 0.6587 0.89279 0.0
H621 H 0.78533 0.65822 0.90003 0.0
H622 H 0.8395 0.70927 0.87399 0.0
H623 H 0.83312 0.71057 0.84786 0.0
H624 H 0.79608 0.66221 0.84652 0.0
H625 H 0.8028 0.66093 0.87243 0.0
H626 H 0.86707 0.70851 0.88947 0.0
H627 H 0.88253 0.71042 0.86849 0.0
H628 H 0.84919 0.66229 0.8537 0.0
H629 H 0.83374 0.66068 0.87443 0.0
O630 O 0.84836 0.68441 0.99206 0.0
O631 O 0.84451 0.66082 0.98485 0.0
O632 O 0.7604 0.69595 0.8807 0.0
O633 O 0.74565 0.67053 0.88415 0.0
C634 C 0.84227 0.68229 0.90988 0.0
C635 C 0.83174 0.68056 0.92061 0.0
C636 C 0.81805 0.68054 0.91645 0.0
C637 C 0.81501 0.68259 0.90162 0.0
C638 C 0.8254 0.68412 0.89086 0.0
C639 C 0.83898 0.68384 0.89496 0.0
C640 C 0.85619 0.68144 0.91434 0.0
C641 C 0.86758 0.69296 0.92445 0.0
C642 C 0.87883 0.69049 0.93122 0.0
C643 C 0.87898 0.67652 0.92786 0.0
C644 C 0.8682 0.66555 0.9169 0.0
C645 C 0.85686 0.66795 0.91025 0.0
C646 C 0.83488 0.67844 0.93626 0.0
C647 C 0.83851 0.69039 0.9473 0.0
C648 C 0.8417 0.68854 0.96199 0.0
C649 C 0.8413 0.6747 0.96588 0.0
C650 C 0.83755 0.66271 0.95477 0.0
C651 C 0.83432 0.66455 0.9401 0.0
C652 C 0.80644 0.67732 0.92747 0.0
C653 C 0.80382 0.6892 0.93293 0.0
C654 C 0.79283 0.68598 0.94332 0.0
C655 C 0.78428 0.67079 0.94837 0.0
C656 C 0.78698 0.65894 0.94279 0.0
C657 C 0.79796 0.66219 0.93245 0.0
C658 C 0.80077 0.68289 0.89726 0.0
C659 C 0.80176 0.6969 0.89318 0.0
C660 C 0.78841 0.69722 0.88896 0.0
C661 C 0.77382 0.6835 0.88876 0.0
C662 C 0.77291 0.66947 0.89285 0.0
C663 C 0.78627 0.66918 0.89703 0.0
C664 C 0.82157 0.68503 0.87508 0.0
C665 C 0.83006 0.69897 0.86799 0.0
C666 C 0.82635 0.6997 0.85312 0.0
C667 C 0.81411 0.68648 0.84511 0.0
C668 C 0.80571 0.67252 0.85229 0.0
C669 C 0.80942 0.67181 0.86713 0.0
C670 C 0.84929 0.68448 0.8834 0.0
C671 C 0.86326 0.69835 0.88177 0.0
C672 C 0.87206 0.6994 0.8698 0.0
C673 C 0.86701 0.68656 0.85931 0.0
C674 C 0.85326 0.6725 0.86137 0.0
C675 C 0.84448 0.6715 0.87327 0.0
C676 C 0.84481 0.67283 0.98148 0.0
C677 C 0.7596 0.68377 0.88429 0.0
H678 H 0.83316 0.68427 0.38956 0.0
H679 H 0.91411 0.6336 0.49983 0.0
H680 H 0.82682 0.68143 0.47023 0.0
H681 H 0.80727 0.68598 0.45858 0.0
H682 H 0.77401 0.63626 0.45789 0.0
H683 H 0.79392 0.63181 0.46928 0.0
H684 H 0.85157 0.68245 0.45115 0.0
H685 H 0.84749 0.68773 0.42573 0.0
H686 H 0.80928 0.64004 0.41811 0.0
H687 H 0.81362 0.63488 0.44351 0.0
H688 H 0.8766 0.68004 0.46927 0.0
H689 H 0.89635 0.68608 0.4516 0.0
H690 H 0.86644 0.64143 0.42726 0.0
H691 H 0.84675 0.63542 0.44513 0.0
H692 H 0.875 0.67173 0.5022 0.0
H693 H 0.89763 0.67001 0.51009 0.0
H694 H 0.87936 0.62633 0.48321 0.0
H695 H 0.85671 0.62812 0.47555 0.0
H696 H 0.84668 0.66991 0.5177 0.0
H697 H 0.85366 0.66773 0.54325 0.0
H698 H 0.84612 0.62143 0.53124 0.0
H699 H 0.83908 0.62372 0.50562 0.0
H700 H 0.82142 0.67278 0.50195 0.0
H701 H 0.80537 0.67044 0.52242 0.0
H702 H 0.79034 0.621 0.52283 0.0
H703 H 0.80661 0.62354 0.50247 0.0
O704 O 0.83464 0.6819 0.39954 0.0
O705 O 0.81504 0.6573 0.39623 0.0
O706 O 0.91415 0.65703 0.51058 0.0
O707 O 0.90529 0.63457 0.49689 0.0
C708 C 0.82448 0.65351 0.47504 0.0
C709 C 0.83525 0.65514 0.46464 0.0
C710 C 0.84827 0.65404 0.46903 0.0
C711 C 0.85037 0.65096 0.48375 0.0
C712 C 0.83947 0.64904 0.4941 0.0
C713 C 0.82644 0.65022 0.48971 0.0
C714 C 0.81177 0.6563 0.47054 0.0
C715 C 0.81522 0.67157 0.46783 0.0
C716 C 0.804 0.67415 0.46122 0.0
C717 C 0.78908 0.66147 0.45722 0.0
C718 C 0.78545 0.64624 0.46066 0.0
C719 C 0.79673 0.64368 0.46729 0.0
C720 C 0.83295 0.65827 0.44912 0.0
C721 C 0.84241 0.67313 0.44393 0.0
C722 C 0.84001 0.67613 0.42942 0.0
C723 C 0.82806 0.66431 0.41988 0.0
C724 C 0.8186 0.64941 0.42516 0.0
C725 C 0.82104 0.64642 0.43965 0.0
C726 C 0.8603 0.65729 0.45848 0.0
C727 C 0.87436 0.67154 0.46016 0.0
C728 C 0.88556 0.67502 0.45 0.0
C729 C 0.88291 0.66426 0.43801 0.0
C730 C 0.86884 0.64989 0.43645 0.0
C731 C 0.85759 0.64646 0.44658 0.0
C732 C 0.8642 0.65001 0.48837 0.0
C733 C 0.87589 0.66178 0.49808 0.0
C734 C 0.88881 0.66078 0.50254 0.0
C735 C 0.89029 0.64801 0.49729 0.0
C736 C 0.87858 0.6363 0.48747 0.0
C737 C 0.86565 0.6373 0.48305 0.0
C738 C 0.84235 0.64696 0.50982 0.0
C739 C 0.84625 0.65917 0.52065 0.0
C740 C 0.8502 0.65789 0.53524 0.0
C741 C 0.85045 0.6444 0.53926 0.0
C742 C 0.84617 0.63202 0.52844 0.0
C743 C 0.84211 0.63327 0.51385 0.0
C744 C 0.81513 0.64832 0.5007 0.0
C745 C 0.8144 0.66138 0.50626 0.0
C746 C 0.80522 0.66001 0.51796 0.0
C747 C 0.79663 0.64554 0.52432 0.0
C748 C 0.79699 0.63235 0.51833 0.0
C749 C 0.80616 0.63375 0.50663 0.0
C750 C 0.82548 0.66756 0.4045 0.0
C751 C 0.90398 0.64687 0.50202 0.0
H752 H 0.32888 0.15342 0.40131 0.0
H753 H 0.36588 0.2819 0.51959 0.0
H754 H 0.32711 0.14757 0.48097 0.0
H755 H 0.32338 0.1222 0.47192 0.0
H756 H 0.37133 0.13842 0.48419 0.0
H757 H 0.37504 0.16409 0.49281 0.0
H758 H 0.32604 0.17122 0.46299 0.0
H759 H 0.32274 0.16272 0.43669 0.0
H760 H 0.37019 0.17357 0.43805 0.0
H761 H 0.37336 0.1822 0.46432 0.0
H762 H 0.32522 0.19593 0.48158 0.0
H763 H 0.31917 0.21096 0.46455 0.0
H764 H 0.36508 0.23149 0.44908 0.0
H765 H 0.37104 0.21632 0.46627 0.0
H766 H 0.33234 0.20368 0.51571 0.0
H767 H 0.33208 0.22755 0.52364 0.0
H768 H 0.37594 0.25568 0.50478 0.0
H769 H 0.37614 0.23172 0.49709 0.0
H770 H 0.33548 0.17793 0.53229 0.0
H771 H 0.33566 0.18811 0.55738 0.0
H772 H 0.38012 0.22905 0.5519 0.0
H773 H 0.38016 0.21834 0.5271 0.0
H774 H 0.33296 0.14997 0.51502 0.0
H775 H 0.33433 0.13386 0.53412 0.0
H776 H 0.38255 0.16829 0.5442 0.0
H777 H 0.38096 0.18445 0.52515 0.0
O778 O 0.33045 0.15692 0.4117 0.0
O779 O 0.3549 0.16264 0.413 0.0
O780 O 0.34323 0.25729 0.52624 0.0
O781 O 0.3657 0.27227 0.5166 0.0
C782 C 0.35349 0.17325 0.49219 0.0
C783 C 0.35197 0.18251 0.4815 0.0
C784 C 0.35216 0.19645 0.48605 0.0
C785 C 0.35449 0.20149 0.50121 0.0
C786 C 0.35643 0.19247 0.51191 0.0
C787 C 0.3558 0.17826 0.50739 0.0
C788 C 0.35136 0.15768 0.48744 0.0
C789 C 0.33681 0.14564 0.4817 0.0
C790 C 0.33467 0.1311 0.47667 0.0
C791 C 0.34705 0.12825 0.47738 0.0
C792 C 0.36161 0.1403 0.48336 0.0
C793 C 0.36374 0.15491 0.48837 0.0
C794 C 0.34998 0.17746 0.46551 0.0
C795 C 0.33574 0.17188 0.45755 0.0
C796 C 0.33387 0.16697 0.44255 0.0
C797 C 0.34621 0.16749 0.43526 0.0
C798 C 0.36046 0.17304 0.44332 0.0
C799 C 0.36231 0.17798 0.45831 0.0
C800 C 0.34855 0.20509 0.47513 0.0
C801 C 0.33392 0.20359 0.47442 0.0
C802 C 0.33047 0.21209 0.46464 0.0
C803 C 0.34164 0.22234 0.45546 0.0
C804 C 0.35629 0.22372 0.45609 0.0
C805 C 0.35969 0.21506 0.46582 0.0
C806 C 0.3543 0.216 0.5059 0.0
C807 C 0.34191 0.21502 0.51337 0.0
C808 C 0.34178 0.22866 0.51785 0.0
C809 C 0.35401 0.24353 0.51485 0.0
C810 C 0.36635 0.24443 0.50727 0.0
C811 C 0.36649 0.23077 0.50284 0.0
C812 C 0.3578 0.1974 0.52787 0.0
C813 C 0.34547 0.18885 0.53669 0.0
C814 C 0.34551 0.19481 0.55095 0.0
C815 C 0.3578 0.20953 0.55658 0.0
C816 C 0.37053 0.21763 0.54799 0.0
C817 C 0.37055 0.21158 0.53378 0.0
C818 C 0.35688 0.16831 0.51866 0.0
C819 C 0.34385 0.15394 0.52127 0.0
C820 C 0.34468 0.14474 0.53214 0.0
C821 C 0.35858 0.14976 0.54065 0.0
C822 C 0.37165 0.16417 0.53795 0.0
C823 C 0.37079 0.17337 0.52704 0.0
C824 C 0.34418 0.16222 0.41933 0.0
C825 C 0.35393 0.25807 0.51959 0.0
H826 H 0.8245 0.17377 0.38918 0.0
H827 H 0.94456 0.2715 0.51252 0.0
H828 H 0.80961 0.17942 0.4653 0.0
H829 H 0.78626 0.15555 0.45502 0.0
H830 H 0.80141 0.12722 0.47717 0.0
H831 H 0.82469 0.1511 0.48732 0.0
H832 H 0.83923 0.20417 0.44908 0.0
H833 H 0.83287 0.19529 0.42281 0.0
H834 H 0.83484 0.15361 0.4318 0.0
H835 H 0.84136 0.16273 0.45801 0.0
H836 H 0.86943 0.23184 0.46597 0.0
H837 H 0.88936 0.24504 0.44848 0.0
H838 H 0.89486 0.20435 0.44444 0.0
H839 H 0.87477 0.19122 0.46168 0.0
H840 H 0.86788 0.23626 0.50223 0.0
H841 H 0.89266 0.25955 0.5104 0.0
H842 H 0.91604 0.23425 0.49905 0.0
H843 H 0.89117 0.21099 0.49108 0.0
H844 H 0.83998 0.21194 0.52096 0.0
H845 H 0.84773 0.22004 0.5473 0.0
H846 H 0.88214 0.20619 0.54441 0.0
H847 H 0.87393 0.19764 0.51834 0.0
H848 H 0.81 0.18423 0.5019 0.0
H849 H 0.79178 0.16923 0.52026 0.0
H850 H 0.82245 0.15331 0.53579 0.0
H851 H 0.8404 0.16807 0.51725 0.0
O852 O 0.82708 0.17709 0.3996 0.0
O853 O 0.82816 0.15583 0.40482 0.0
O854 O 0.92202 0.27491 0.51511 0.0
O855 O 0.93461 0.26245 0.50939 0.0
C856 C 0.83372 0.18129 0.48194 0.0
C857 C 0.84448 0.18948 0.47138 0.0
C858 C 0.85897 0.20271 0.476 0.0
C859 C 0.86265 0.20787 0.49115 0.0
C860 C 0.852 0.19954 0.50174 0.0
C861 C 0.83752 0.18626 0.49714 0.0
C862 C 0.81882 0.16697 0.47706 0.0
C863 C 0.80776 0.16805 0.46806 0.0
C864 C 0.7945 0.15443 0.46215 0.0
C865 C 0.79203 0.13952 0.46526 0.0
C866 C 0.80288 0.13853 0.47473 0.0
C867 C 0.81619 0.15214 0.48053 0.0
C868 C 0.8407 0.18406 0.45543 0.0
C869 C 0.83832 0.19315 0.44533 0.0
C870 C 0.83467 0.18803 0.43034 0.0
C871 C 0.83331 0.17372 0.4252 0.0
C872 C 0.83576 0.16467 0.43539 0.0
C873 C 0.83945 0.16983 0.45036 0.0
C874 C 0.87066 0.21059 0.46504 0.0
C875 C 0.87491 0.2258 0.46122 0.0
C876 C 0.88634 0.23332 0.4513 0.0
C877 C 0.89372 0.22576 0.44505 0.0
C878 C 0.88926 0.21043 0.44884 0.0
C879 C 0.87784 0.20292 0.45873 0.0
C880 C 0.87775 0.22199 0.496 0.0
C881 C 0.87837 0.23578 0.50154 0.0
C882 C 0.89254 0.24907 0.50618 0.0
C883 C 0.90634 0.24877 0.50535 0.0
C884 C 0.90564 0.23489 0.49981 0.0
C885 C 0.89147 0.22161 0.49521 0.0
C886 C 0.85644 0.20426 0.51775 0.0
C887 C 0.8491 0.21056 0.52609 0.0
C888 C 0.85361 0.21527 0.54109 0.0
C889 C 0.86555 0.21376 0.54797 0.0
C890 C 0.87275 0.2073 0.53954 0.0
C891 C 0.86819 0.20255 0.52461 0.0
C892 C 0.82652 0.17726 0.50829 0.0
C893 C 0.81273 0.17747 0.50927 0.0
C894 C 0.8024 0.16898 0.5198 0.0
C895 C 0.80567 0.16007 0.52946 0.0
C896 C 0.8195 0.15989 0.52839 0.0
C897 C 0.82982 0.1684 0.5179 0.0
C898 C 0.82937 0.16829 0.40928 0.0
C899 C 0.92142 0.26286 0.51026 0.0
H900 H 0.99348 0.50976 0.31662 0.0
H901 H 0.01121 0.40857 0.19724 0.0
H902 H 0.97332 0.50621 0.23684 0.0
H903 H 0.97605 0.5312 0.2461 0.0
H904 H 0.0226 0.55574 0.23186 0.0
H905 H 0.01939 0.5308 0.22206 0.0
H906 H 0.97609 0.48001 0.25639 0.0
H907 H 0.9791 0.48897 0.28255 0.0
H908 H 0.02516 0.52689 0.27624 0.0
H909 H 0.02205 0.5177 0.25015 0.0
H910 H 0.976 0.45035 0.24055 0.0
H911 H 0.98079 0.4344 0.25757 0.0
H912 H 0.02857 0.47136 0.26442 0.0
H913 H 0.02354 0.48729 0.24764 0.0
H914 H 0.97143 0.44559 0.20522 0.0
H915 H 0.97213 0.42188 0.19762 0.0
H916 H 0.02102 0.4461 0.21035 0.0
H917 H 0.02018 0.46977 0.21774 0.0
H918 H 0.96829 0.46806 0.18585 0.0
H919 H 0.96648 0.4558 0.16116 0.0
H920 H 0.01563 0.47368 0.16504 0.0
H921 H 0.01722 0.48555 0.18973 0.0
H922 H 0.96843 0.49969 0.20358 0.0
H923 H 0.96498 0.51483 0.18458 0.0
H924 H 0.01055 0.52906 0.17053 0.0
H925 H 0.01381 0.5138 0.18948 0.0
O926 O 0.99256 0.50639 0.30626 0.0
O927 O 0.01614 0.52572 0.30241 0.0
O928 O 0.98548 0.40588 0.19371 0.0
O929 O 0.01061 0.41778 0.20017 0.0
C930 C 0.99513 0.50161 0.22448 0.0
C931 C 0.99689 0.49282 0.23553 0.0
C932 C 0.99693 0.47889 0.23146 0.0
C933 C 0.99532 0.47381 0.21637 0.0
C934 C 0.99363 0.48264 0.20533 0.0
C935 C 0.99336 0.49645 0.20938 0.0
C936 C 0.99615 0.51676 0.22879 0.0
C937 C 0.98398 0.51706 0.23552 0.0
C938 C 0.98565 0.53133 0.24093 0.0
C939 C 0.99961 0.54554 0.23986 0.0
C940 C 0.01161 0.54513 0.23269 0.0
C941 C 0.00984 0.53088 0.22714 0.0
C942 C 0.99882 0.49826 0.2514 0.0
C943 C 0.98682 0.49023 0.26071 0.0
C944 C 0.98857 0.49539 0.27563 0.0
C945 C 0.00236 0.50867 0.28149 0.0
C946 C 0.01438 0.51665 0.27209 0.0
C947 C 0.01263 0.51145 0.25718 0.0
C948 C 0.99942 0.46994 0.24291 0.0
C949 C 0.98743 0.45505 0.24592 0.0
C950 C 0.99023 0.44593 0.25554 0.0
C951 C 0.00509 0.45156 0.26228 0.0
C952 C 0.01695 0.46674 0.25958 0.0
C953 C 0.01412 0.47585 0.24998 0.0
C954 C 0.99574 0.45935 0.21205 0.0
C955 C 0.98227 0.44573 0.20634 0.0
C956 C 0.98271 0.43221 0.20202 0.0
C957 C 0.99664 0.43209 0.20339 0.0
C958 C 0.0101 0.44578 0.20917 0.0
C959 C 0.00966 0.4593 0.21344 0.0
C960 C 0.99286 0.47759 0.18955 0.0
C961 C 0.97867 0.46956 0.18119 0.0
C962 C 0.97768 0.4626 0.16712 0.0
C963 C 0.99089 0.46359 0.16124 0.0
C964 C 0.00521 0.47243 0.16937 0.0
C965 C 0.00617 0.47933 0.18341 0.0
C966 C 0.99133 0.5056 0.19783 0.0
C967 C 0.97764 0.50609 0.19638 0.0
C968 C 0.97573 0.51479 0.18558 0.0
C969 C 0.98748 0.52311 0.17602 0.0
C970 C 0.00119 0.52258 0.17756 0.0
C971 C 0.0031 0.51392 0.18839 0.0
C972 C 0.00416 0.51416 0.29733 0.0
C973 C 0.99717 0.41777 0.19878 0.0
H974 H 0.48455 0.50112 0.3211 0.0
H975 H 0.40444 0.37412 0.19711 0.0
H976 H 0.49673 0.50874 0.24238 0.0
H977 H 0.51774 0.53312 0.25462 0.0
H978 H 0.54858 0.51479 0.25076 0.0
H979 H 0.52739 0.49037 0.23833 0.0
H980 H 0.46947 0.4842 0.25756 0.0
H981 H 0.47234 0.49234 0.28392 0.0
H982 H 0.50888 0.48165 0.29012 0.0
H983 H 0.50574 0.47337 0.26377 0.0
H984 H 0.44414 0.45692 0.23553 0.0
H985 H 0.42357 0.44401 0.25237 0.0
H986 H 0.45121 0.42916 0.27685 0.0
H987 H 0.47178 0.44215 0.25988 0.0
H988 H 0.44769 0.45242 0.20284 0.0
H989 H 0.42462 0.42846 0.19243 0.0
H990 H 0.43894 0.40051 0.21654 0.0
H991 H 0.46205 0.42456 0.22674 0.0
H992 H 0.47766 0.47953 0.19057 0.0
H993 H 0.47135 0.47139 0.16421 0.0
H994 H 0.47552 0.43061 0.17137 0.0
H995 H 0.4817 0.43883 0.19783 0.0
H996 H 0.50469 0.50775 0.21094 0.0
H997 H 0.52407 0.52353 0.19384 0.0
H998 H 0.53308 0.4856 0.18542 0.0
H999 H 0.51399 0.47002 0.20291 0.0
O1000 O 0.48356 0.49779 0.31072 0.0
O1001 O 0.50234 0.4922 0.3133 0.0
O1002 O 0.40665 0.39868 0.18885 0.0
O1003 O 0.41346 0.38378 0.20106 0.0
C1004 C 0.49729 0.48259 0.23341 0.0
C1005 C 0.48562 0.47321 0.24277 0.0
C1006 C 0.47226 0.45938 0.23686 0.0
C1007 C 0.47068 0.45474 0.22164 0.0
C1008 C 0.48242 0.46404 0.21229 0.0
C1009 C 0.49579 0.47795 0.21818 0.0
C1010 C 0.51055 0.49779 0.23957 0.0
C1011 C 0.50806 0.51005 0.24409 0.0
C1012 C 0.52004 0.5239 0.25115 0.0
C1013 C 0.53476 0.52579 0.25382 0.0
C1014 C 0.53737 0.51369 0.2488 0.0
C1015 C 0.52532 0.49976 0.24173 0.0
C1016 C 0.48734 0.47811 0.25879 0.0
C1017 C 0.47801 0.48353 0.26466 0.0
C1018 C 0.47972 0.48822 0.2797 0.0
C1019 C 0.49083 0.48764 0.28913 0.0
C1020 C 0.5002 0.48224 0.28317 0.0
C1021 C 0.49845 0.47751 0.26813 0.0
C1022 C 0.45941 0.45041 0.24646 0.0
C1023 C 0.44564 0.45067 0.24439 0.0
C1024 C 0.43392 0.44329 0.25402 0.0
C1025 C 0.43579 0.4356 0.26596 0.0
C1026 C 0.44952 0.43516 0.26786 0.0
C1027 C 0.46122 0.44247 0.25815 0.0
C1028 C 0.45657 0.44021 0.21547 0.0
C1029 C 0.44585 0.4411 0.2058 0.0
C1030 C 0.43267 0.42741 0.1999 0.0
C1031 C 0.42994 0.41256 0.20364 0.0
C1032 C 0.44068 0.41174 0.21342 0.0
C1033 C 0.45388 0.42545 0.21928 0.0
C1034 C 0.48011 0.45976 0.1961 0.0
C1035 C 0.47746 0.46898 0.18639 0.0
C1036 C 0.47391 0.46433 0.17133 0.0
C1037 C 0.47291 0.45033 0.16569 0.0
C1038 C 0.47602 0.44135 0.1754 0.0
C1039 C 0.47962 0.44605 0.19049 0.0
C1040 C 0.50802 0.48778 0.20828 0.0
C1041 C 0.51106 0.50296 0.20564 0.0
C1042 C 0.52209 0.51194 0.19585 0.0
C1043 C 0.53007 0.50577 0.18834 0.0
C1044 C 0.52703 0.49058 0.19102 0.0
C1045 C 0.51618 0.48171 0.201 0.0
C1046 C 0.49264 0.49266 0.30511 0.0
C1047 C 0.41597 0.39797 0.19738 0.0
H1048 H 0.51148 0.00173 0.33282 0.0
H1049 H 0.39377 0.97758 0.20916 0.0
H1050 H 0.52683 0.02192 0.25758 0.0
H1051 H 0.54813 0.02072 0.27022 0.0
H1052 H 0.5323 0.97521 0.24767 0.0
H1053 H 0.51109 0.97659 0.23502 0.0
H1054 H 0.49772 0.01671 0.27444 0.0
H1055 H 0.5038 0.01457 0.30035 0.0
H1056 H 0.49946 0.96954 0.28855 0.0
H1057 H 0.49319 0.97174 0.26272 0.0
H1058 H 0.46842 0.0148 0.25708 0.0
H1059 H 0.44875 0.00948 0.27472 0.0
H1060 H 0.44139 0.96266 0.27813 0.0
H1061 H 0.46073 0.96796 0.26017 0.0
H1062 H 0.47029 0.0199 0.22228 0.0
H1063 H 0.44602 0.01831 0.21411 0.0
H1064 H 0.4213 0.96885 0.22191 0.0
H1065 H 0.44567 0.97057 0.22989 0.0
H1066 H 0.49847 0.02459 0.20495 0.0
H1067 H 0.49082 0.02685 0.17956 0.0
H1068 H 0.45652 0.97735 0.1763 0.0
H1069 H 0.46415 0.97528 0.20169 0.0
H1070 H 0.52717 0.02603 0.22206 0.0
H1071 H 0.54487 0.03029 0.20253 0.0
H1072 H 0.51441 0.9827 0.18419 0.0
H1073 H 0.49697 0.97852 0.20385 0.0
O1074 O 0.50892 0.00227 0.32254 0.0
O1075 O 0.50667 0.97923 0.31587 0.0
O1076 O 0.4168 0.00398 0.20843 0.0
O1077 O 0.40353 0.97854 0.21233 0.0
C1078 C 0.50277 0.99851 0.24048 0.0
C1079 C 0.49177 0.99595 0.25094 0.0
C1080 C 0.47765 0.99485 0.24642 0.0
C1081 C 0.47451 0.99635 0.23144 0.0
C1082 C 0.48542 0.99871 0.22095 0.0
C1083 C 0.49955 -0.00025 0.22546 0.0
C1084 C 0.51741 0.99932 0.24544 0.0
C1085 C 0.52822 0.01189 0.25509 0.0
C1086 C 0.54027 0.01111 0.26239 0.0
C1087 C 0.54175 0.99776 0.2601 0.0
C1088 C 0.53152 0.98568 0.24961 0.0
C1089 C 0.51942 0.98646 0.24234 0.0
C1090 C 0.49506 0.9944 0.26672 0.0
C1091 C 0.498 0.00636 0.2775 0.0
C1092 C 0.50151 0.00512 0.29228 0.0
C1093 C 0.50215 0.9919 0.29652 0.0
C1094 C 0.49909 0.97989 0.28566 0.0
C1095 C 0.49553 0.98112 0.2709 0.0
C1096 C 0.46597 0.99176 0.25735 0.0
C1097 C 0.46252 0.0034 0.26164 0.0
C1098 C 0.45138 0.00037 0.27179 0.0
C1099 C 0.44351 0.98564 0.27784 0.0
C1100 C 0.4471 0.97405 0.27355 0.0
C1101 C 0.45821 0.97709 0.26339 0.0
C1102 C 0.45972 0.99536 0.22669 0.0
C1103 C 0.45962 0.00873 0.22219 0.0
C1104 C 0.44574 0.00779 0.21755 0.0
C1105 C 0.43171 0.99344 0.21736 0.0
C1106 C 0.43188 0.98008 0.22192 0.0
C1107 C 0.44578 0.98103 0.22652 0.0
C1108 C 0.4818 -0.0002 0.20515 0.0
C1109 C 0.48945 0.01422 0.19865 0.0
C1110 C 0.48508 0.01547 0.18416 0.0
C1111 C 0.47297 0.0023 0.17597 0.0
C1112 C 0.4657 0.98776 0.1824 0.0
C1113 C 0.47008 0.98653 0.19686 0.0
C1114 C 0.51081 0.00197 0.21435 0.0
C1115 C 0.52445 0.01649 0.21392 0.0
C1116 C 0.53446 0.01893 0.2027 0.0
C1117 C 0.53102 0.00684 0.1918 0.0
C1118 C 0.51749 0.99219 0.19251 0.0
C1119 C 0.50748 0.98979 0.20368 0.0
C1120 C 0.50604 0.99069 0.3122 0.0
C1121 C 0.41694 0.99237 0.21243 0.0
H1122 H 0.50802 0.03273 0.72581 0.0
H1123 H 0.59119 0.98515 0.83683 0.0
H1124 H 0.50062 0.02913 0.80622 0.0
H1125 H 0.48039 0.03243 0.79409 0.0
H1126 H 0.4492 0.98221 0.79268 0.0
H1127 H 0.46954 0.97908 0.80508 0.0
H1128 H 0.52655 0.03105 0.78739 0.0
H1129 H 0.52238 0.03629 0.76197 0.0
H1130 H 0.48476 0.98832 0.75419 0.0
H1131 H 0.48918 0.9832 0.77958 0.0
H1132 H 0.55224 0.02849 0.80419 0.0
H1133 H 0.57144 0.03296 0.78625 0.0
H1134 H 0.54018 0.98743 0.76402 0.0
H1135 H 0.52111 0.983 0.78215 0.0
H1136 H 0.55067 0.02184 0.83796 0.0
H1137 H 0.57374 0.02096 0.84595 0.0
H1138 H 0.55591 0.97655 0.82042 0.0
H1139 H 0.53282 0.97751 0.81265 0.0
H1140 H 0.52264 0.0193 0.85387 0.0
H1141 H 0.52975 0.01718 0.87948 0.0
H1142 H 0.52171 0.97067 0.86759 0.0
H1143 H 0.51443 0.97283 0.84202 0.0
H1144 H 0.49424 0.01999 0.83718 0.0
H1145 H 0.47693 0.0164 0.85689 0.0
H1146 H 0.46651 0.96844 0.85925 0.0
H1147 H 0.48358 0.97201 0.83935 0.0
O1148 O 0.50955 0.03037 0.73578 0.0
O1149 O 0.49026 0.00562 0.73237 0.0
O1150 O 0.59081 0.00861 0.84686 0.0
O1151 O 0.58219 0.9858 0.83386 0.0
C1152 C 0.49966 0.00186 0.81119 0.0
C1153 C 0.51053 0.0037 0.80082 0.0
C1154 C 0.52369 0.00288 0.80526 0.0
C1155 C 0.52603 0.00021 0.82006 0.0
C1156 C 0.51508 0.99818 0.8304 0.0
C1157 C 0.50176 0.9988 0.82593 0.0
C1158 C 0.48652 0.00388 0.80648 0.0
C1159 C 0.4893 0.01889 0.80359 0.0
C1160 C 0.47779 0.02072 0.79654 0.0
C1161 C 0.46328 0.00755 0.79222 0.0
C1162 C 0.46024 0.99259 0.79593 0.0
C1163 C 0.4718 0.99077 0.80302 0.0
C1164 C 0.50819 0.00675 0.78529 0.0
C1165 C 0.51749 0.02167 0.78013 0.0
C1166 C 0.51504 0.02464 0.76563 0.0
C1167 C 0.50322 0.01273 0.75605 0.0
C1168 C 0.49395 0.99776 0.76127 0.0
C1169 C 0.49644 0.9948 0.77577 0.0
C1170 C 0.53534 0.00541 0.79447 0.0
C1171 C 0.54959 0.01947 0.79547 0.0
C1172 C 0.56047 0.02205 0.78516 0.0
C1173 C 0.55729 0.01056 0.77371 0.0
C1174 C 0.543 0.99643 0.7728 0.0
C1175 C 0.53209 0.99391 0.78308 0.0
C1176 C 0.54008 -0.00028 0.82478 0.0
C1177 C 0.55176 0.01191 0.83416 0.0
C1178 C 0.56492 0.01139 0.83867 0.0
C1179 C 0.56666 0.99867 0.83383 0.0
C1180 C 0.55494 0.98651 0.82436 0.0
C1181 C 0.54176 0.98703 0.81989 0.0
C1182 C 0.51806 0.99623 0.84612 0.0
C1183 C 0.52222 0.00858 0.85686 0.0
C1184 C 0.52636 0.00739 0.87143 0.0
C1185 C 0.52636 0.99379 0.8755 0.0
C1186 C 0.52169 0.98123 0.8648 0.0
C1187 C 0.51762 0.98247 0.85021 0.0
C1188 C 0.49014 0.99625 0.8368 0.0
C1189 C 0.48795 0.00861 0.84172 0.0
C1190 C 0.4781 0.00655 0.85299 0.0
C1191 C 0.47044 0.99216 0.85964 0.0
C1192 C 0.47238 0.9797 0.85442 0.0
C1193 C 0.48207 0.9817 0.84304 0.0
C1194 C 0.50057 0.01596 0.74068 0.0
C1195 C 0.58063 0.99805 0.8386 0.0
H1196 H 0.97376 0.47482 0.73814 0.0
H1197 H 0.01934 0.60718 0.85544 0.0
H1198 H 0.97826 0.47123 0.8186 0.0
H1199 H 0.97487 0.44622 0.80869 0.0
H1200 H 0.02403 0.4649 0.81538 0.0
H1201 H 0.02725 0.4899 0.82556 0.0
H1202 H 0.97556 0.49493 0.8002 0.0
H1203 H 0.97032 0.48547 0.77405 0.0
H1204 H 0.01757 0.49629 0.77206 0.0
H1205 H 0.02269 0.50587 0.79819 0.0
H1206 H 0.97664 0.52149 0.81817 0.0
H1207 H 0.97082 0.53693 0.80144 0.0
H1208 H 0.0157 0.5551 0.78405 0.0
H1209 H 0.02145 0.5396 0.80097 0.0
H1210 H 0.98489 0.5289 0.85206 0.0
H1211 H 0.98528 0.55303 0.86027 0.0
H1212 H 0.02837 0.58043 0.83991 0.0
H1213 H 0.02794 0.5562 0.83194 0.0
H1214 H 0.98856 0.50423 0.86836 0.0
H1215 H 0.99023 0.51546 0.89344 0.0
H1216 H 0.03554 0.55426 0.88643 0.0
H1217 H 0.03388 0.54278 0.86145 0.0
H1218 H 0.98661 0.4748 0.85146 0.0
H1219 H 0.98993 0.45962 0.87042 0.0
H1220 H 0.03787 0.49584 0.8783 0.0
H1221 H 0.03453 0.51069 0.85894 0.0
O1222 O 0.97611 0.4787 0.74845 0.0
O1223 O 0.0005 0.48443 0.74803 0.0
O1224 O 0.99683 0.58283 0.86275 0.0
O1225 O 0.01892 0.59745 0.85235 0.0
C1226 C 0.00494 0.49781 0.82751 0.0
C1227 C 0.00264 0.50673 0.81695 0.0
C1228 C 0.00313 0.52079 0.82157 0.0
C1229 C 0.00625 0.52617 0.83666 0.0
C1230 C 0.00883 0.51742 0.84719 0.0
C1231 C 0.00815 0.50321 0.84263 0.0
C1232 C 0.003 0.48236 0.82269 0.0
C1233 C 0.98827 0.46986 0.81803 0.0
C1234 C 0.98638 0.45563 0.81229 0.0
C1235 C 0.99921 0.45364 0.81108 0.0
C1236 C 0.01392 0.46605 0.81625 0.0
C1237 C 0.0158 0.48032 0.82202 0.0
C1238 C 0.99952 0.50117 0.80103 0.0
C1239 C 0.98479 0.49536 0.79406 0.0
C1240 C 0.98182 0.4899 0.77914 0.0
C1241 C 0.99353 0.49013 0.77096 0.0
C1242 C 0.00829 0.49596 0.77803 0.0
C1243 C 0.01125 0.50144 0.79294 0.0
C1244 C 0.99946 0.52949 0.81076 0.0
C1245 C 0.98515 0.52872 0.81066 0.0
C1246 C 0.98182 0.53746 0.80105 0.0
C1247 C 0.99281 0.5472 0.79143 0.0
C1248 C 0.00708 0.54777 0.79142 0.0
C1249 C 0.01035 0.53891 0.80099 0.0
C1250 C 0.00643 0.54083 0.84148 0.0
C1251 C 0.99444 0.54013 0.84945 0.0
C1252 C 0.99467 0.55393 0.85409 0.0
C1253 C 0.00687 0.56867 0.85076 0.0
C1254 C 0.01881 0.56928 0.84268 0.0
C1255 C 0.01859 0.55548 0.83809 0.0
C1256 C 0.01109 0.52272 0.86312 0.0
C1257 C 0.99901 0.51492 0.8724 0.0
C1258 C -8e-05 0.52142 0.88665 0.0
C1259 C 0.01295 0.53582 0.89183 0.0
C1260 C 0.02542 0.5431 0.88279 0.0
C1261 C 0.02448 0.5366 0.86853 0.0
C1262 C 0.01034 0.49379 0.85379 0.0
C1263 C 0.99787 0.47934 0.85716 0.0
C1264 C 0.99976 0.47077 0.86809 0.0
C1265 C 0.01416 0.47655 0.87592 0.0
C1266 C 0.02669 0.49097 0.87237 0.0
C1267 C 0.02478 0.49952 0.8614 0.0
C1268 C 0.99032 0.48427 0.75513 0.0
C1269 C 0.00718 0.58337 0.85567 0.0
H1270 H 0.49097 0.50708 0.72581 0.0
H1271 H 0.61196 0.60526 0.84851 0.0
H1272 H 0.47665 0.51326 0.80198 0.0
H1273 H 0.45357 0.48932 0.79142 0.0
H1274 H 0.46907 0.46118 0.8134 0.0
H1275 H 0.49204 0.48514 0.8239 0.0
H1276 H 0.50623 0.53792 0.78556 0.0
H1277 H 0.49966 0.52885 0.75934 0.0
H1278 H 0.50171 0.48725 0.76846 0.0
H1279 H 0.50846 0.49655 0.79461 0.0
H1280 H 0.53685 0.5658 0.80249 0.0
H1281 H 0.55664 0.57879 0.78482 0.0
H1282 H 0.56144 0.5377 0.78036 0.0
H1283 H 0.54156 0.5248 0.79787 0.0
H1284 H 0.53528 0.57037 0.83856 0.0
H1285 H 0.56015 0.59361 0.8466 0.0
H1286 H 0.58326 0.56802 0.83522 0.0
H1287 H 0.5583 0.54483 0.82739 0.0
H1288 H 0.50703 0.54607 0.85725 0.0
H1289 H 0.51473 0.55439 0.88356 0.0
H1290 H 0.54946 0.54094 0.88098 0.0
H1291 H 0.54129 0.53215 0.85495 0.0
H1292 H 0.4767 0.51753 0.83775 0.0
H1293 H 0.45835 0.50238 0.85591 0.0
H1294 H 0.49007 0.48845 0.87311 0.0
H1295 H 0.50802 0.50312 0.85458 0.0
O1296 O 0.49365 0.51048 0.73621 0.0
O1297 O 0.49478 0.48926 0.7415 0.0
O1298 O 0.58953 0.60884 0.85117 0.0
O1299 O 0.60197 0.59623 0.84543 0.0
C1300 C 0.50088 0.51528 0.81851 0.0
C1301 C 0.51162 0.52337 0.8079 0.0
C1302 C 0.52613 0.53659 0.81244 0.0
C1303 C 0.52986 0.54187 0.82757 0.0
C1304 C 0.51921 0.53367 0.83821 0.0
C1305 C 0.5047 0.52037 0.83368 0.0
C1306 C 0.486 0.50091 0.81368 0.0
C1307 C 0.47491 0.5019 0.80467 0.0
C1308 C 0.46181 0.48824 0.79859 0.0
C1309 C 0.45955 0.47337 0.80151 0.0
C1310 C 0.47038 0.47245 0.81108 0.0
C1311 C 0.48351 0.48611 0.81708 0.0
C1312 C 0.50776 0.51786 0.79197 0.0
C1313 C 0.5053 0.52688 0.78185 0.0
C1314 C 0.50152 0.52165 0.76689 0.0
C1315 C 0.50012 0.50731 0.7618 0.0
C1316 C 0.50267 0.49834 0.77201 0.0
C1317 C 0.50649 0.5036 0.78695 0.0
C1318 C 0.53778 0.54437 0.80142 0.0
C1319 C 0.54216 0.55962 0.79763 0.0
C1320 C 0.5535 0.56703 0.7876 0.0
C1321 C 0.56062 0.55928 0.78118 0.0
C1322 C 0.55604 0.54391 0.78492 0.0
C1323 C 0.54473 0.53654 0.79495 0.0
C1324 C 0.54501 0.55596 0.83233 0.0
C1325 C 0.54574 0.56982 0.83783 0.0
C1326 C 0.55995 0.58307 0.8424 0.0
C1327 C 0.57371 0.58268 0.84152 0.0
C1328 C 0.5729 0.56874 0.83602 0.0
C1329 C 0.55867 0.55549 0.83149 0.0
C1330 C 0.52365 0.53858 0.8542 0.0
C1331 C 0.51622 0.54484 0.86244 0.0
C1332 C 0.52071 0.54967 0.87742 0.0
C1333 C 0.53271 0.54833 0.88438 0.0
C1334 C 0.54002 0.54192 0.87605 0.0
C1335 C 0.53549 0.53705 0.86113 0.0
C1336 C 0.4937 0.51145 0.84488 0.0
C1337 C 0.47963 0.51116 0.84543 0.0
C1338 C 0.46923 0.5026 0.85588 0.0
C1339 C 0.47274 0.49419 0.86597 0.0
C1340 C 0.4869 0.4946 0.86538 0.0
C1341 C 0.49724 0.50309 0.8549 0.0
C1342 C 0.49603 0.50176 0.74592 0.0
C1343 C 0.58884 0.59673 0.84634 0.0
H1344 H 0.64399 0.83703 0.65063 0.0
H1345 H 0.66149 0.73064 0.53747 0.0
H1346 H 0.62648 0.83215 0.57225 0.0
H1347 H 0.63135 0.85812 0.58132 0.0
H1348 H 0.67569 0.87977 0.56238 0.0
H1349 H 0.67082 0.8538 0.55356 0.0
H1350 H 0.6273 0.80468 0.59149 0.0
H1351 H 0.63007 0.81469 0.61727 0.0
H1352 H 0.67561 0.85313 0.61015 0.0
H1353 H 0.67277 0.84287 0.58446 0.0
H1354 H 0.62865 0.77382 0.57673 0.0
H1355 H 0.63554 0.75923 0.5936 0.0
H1356 H 0.68137 0.79978 0.60148 0.0
H1357 H 0.67458 0.81395 0.5841 0.0
H1358 H 0.62239 0.76872 0.54147 0.0
H1359 H 0.62289 0.74462 0.53519 0.0
H1360 H 0.67153 0.76866 0.54898 0.0
H1361 H 0.6709 0.79272 0.55502 0.0
H1362 H 0.62024 0.7911 0.52027 0.0
H1363 H 0.61917 0.77835 0.49601 0.0
H1364 H 0.66789 0.79465 0.50241 0.0
H1365 H 0.66877 0.80713 0.52656 0.0
H1366 H 0.62134 0.82472 0.53684 0.0
H1367 H 0.61967 0.84017 0.5171 0.0
H1368 H 0.66467 0.85062 0.50423 0.0
H1369 H 0.6662 0.83516 0.52395 0.0
O1370 O 0.64316 0.83324 0.64042 0.0
O1371 O 0.66647 0.85283 0.63616 0.0
O1372 O 0.63597 0.72821 0.53282 0.0
O1373 O 0.66097 0.74 0.53987 0.0
C1374 C 0.64656 0.82546 0.5588 0.0
C1375 C 0.64795 0.81702 0.57043 0.0
C1376 C 0.64791 0.80289 0.56717 0.0
C1377 C 0.64627 0.79709 0.55229 0.0
C1378 C 0.64489 0.80552 0.54068 0.0
C1379 C 0.64496 0.81967 0.54391 0.0
C1380 C 0.64831 0.84112 0.56227 0.0
C1381 C 0.6371 0.84254 0.56984 0.0
C1382 C 0.63989 0.85736 0.57497 0.0
C1383 C 0.65396 0.87094 0.57266 0.0
C1384 C 0.66483 0.86949 0.56448 0.0
C1385 C 0.66202 0.8547 0.55931 0.0
C1386 C 0.64977 0.82312 0.5861 0.0
C1387 C 0.63787 0.81524 0.59554 0.0
C1388 C 0.63948 0.821 0.61025 0.0
C1389 C 0.65305 0.83474 0.61576 0.0
C1390 C 0.665 0.84254 0.60625 0.0
C1391 C 0.66338 0.83675 0.59157 0.0
C1392 C 0.65113 0.79491 0.57916 0.0
C1393 C 0.6401 0.77959 0.58228 0.0
C1394 C 0.64404 0.77132 0.59198 0.0
C1395 C 0.65906 0.7783 0.59878 0.0
C1396 C 0.66979 0.79397 0.59622 0.0
C1397 C 0.66588 0.80216 0.58644 0.0
C1398 C 0.64658 0.78241 0.54876 0.0
C1399 C 0.63313 0.76874 0.54312 0.0
C1400 C 0.63345 0.755 0.53955 0.0
C1401 C 0.64725 0.75471 0.5416 0.0
C1402 C 0.66071 0.76847 0.54728 0.0
C1403 C 0.66038 0.78221 0.55079 0.0
C1404 C 0.64456 0.79993 0.52515 0.0
C1405 C 0.6307 0.79213 0.51625 0.0
C1406 C 0.63012 0.78486 0.50245 0.0
C1407 C 0.6434 0.7853 0.49743 0.0
C1408 C 0.6574 0.79383 0.50611 0.0
C1409 C 0.65797 0.80107 0.51983 0.0
C1410 C 0.64382 0.82871 0.53172 0.0
C1411 C 0.63079 0.83032 0.5297 0.0
C1412 C 0.6299 0.83919 0.51849 0.0
C1413 C 0.64202 0.84657 0.50907 0.0
C1414 C 0.65504 0.84487 0.51113 0.0
C1415 C 0.65594 0.83606 0.52239 0.0
C1416 C 0.65469 0.84086 0.63137 0.0
C1417 C 0.64766 0.74015 0.53782 0.0
H1418 H 0.16005 0.8369 0.65816 0.0
H1419 H 0.07036 0.70809 0.53701 0.0
H1420 H 0.16706 0.84233 0.57794 0.0
H1421 H 0.18882 0.86687 0.58904 0.0
H1422 H 0.21859 0.84729 0.58469 0.0
H1423 H 0.19664 0.82274 0.57332 0.0
H1424 H 0.1412 0.8191 0.59519 0.0
H1425 H 0.1458 0.82782 0.62151 0.0
H1426 H 0.18084 0.81478 0.62561 0.0
H1427 H 0.17599 0.80594 0.5993 0.0
H1428 H 0.11494 0.79324 0.57484 0.0
H1429 H 0.09457 0.78052 0.59194 0.0
H1430 H 0.12028 0.76165 0.61337 0.0
H1431 H 0.14061 0.77436 0.59605 0.0
H1432 H 0.11559 0.78618 0.54147 0.0
H1433 H 0.09166 0.76254 0.53205 0.0
H1434 H 0.10603 0.7339 0.55483 0.0
H1435 H 0.13 0.75763 0.56403 0.0
H1436 H 0.14482 0.81191 0.52744 0.0
H1437 H 0.13667 0.80291 0.50141 0.0
H1438 H 0.14019 0.76174 0.5084 0.0
H1439 H 0.14839 0.7709 0.53451 0.0
H1440 H 0.171 0.83941 0.5458 0.0
H1441 H 0.18865 0.85472 0.52728 0.0
H1442 H 0.2001 0.81834 0.51991 0.0
H1443 H 0.18268 0.80329 0.53877 0.0
O1444 O 0.15836 0.83332 0.64778 0.0
O1445 O 0.17632 0.82648 0.64929 0.0
O1446 O 0.07291 0.73288 0.52903 0.0
O1447 O 0.07973 0.71763 0.54059 0.0
C1448 C 0.16664 0.81557 0.56944 0.0
C1449 C 0.15548 0.8066 0.57939 0.0
C1450 C 0.14165 0.79294 0.57407 0.0
C1451 C 0.13918 0.78793 0.55888 0.0
C1452 C 0.15046 0.79677 0.54895 0.0
C1453 C 0.16419 0.81063 0.55423 0.0
C1454 C 0.18029 0.83078 0.57494 0.0
C1455 C 0.17831 0.8434 0.57929 0.0
C1456 C 0.19073 0.85735 0.58571 0.0
C1457 C 0.20539 0.85895 0.58793 0.0
C1458 C 0.20746 0.84644 0.58307 0.0
C1459 C 0.19497 0.83243 0.57661 0.0
C1460 C 0.15818 0.81179 0.59539 0.0
C1461 C 0.14978 0.81803 0.60183 0.0
C1462 C 0.15247 0.82306 0.61685 0.0
C1463 C 0.16368 0.82199 0.62568 0.0
C1464 C 0.17212 0.81576 0.61914 0.0
C1465 C 0.16938 0.8107 0.60413 0.0
C1466 C 0.12918 0.78465 0.58419 0.0
C1467 C 0.11611 0.78628 0.58317 0.0
C1468 C 0.10458 0.77913 0.59302 0.0
C1469 C 0.10589 0.77018 0.60404 0.0
C1470 C 0.11894 0.76841 0.60493 0.0
C1471 C 0.13054 0.77567 0.5951 0.0
C1472 C 0.12455 0.77359 0.55335 0.0
C1473 C 0.11357 0.77478 0.54436 0.0
C1474 C 0.0999 0.76127 0.53902 0.0
C1475 C 0.09694 0.74632 0.54267 0.0
C1476 C 0.10795 0.74521 0.55179 0.0
C1477 C 0.12163 0.75874 0.55709 0.0
C1478 C 0.14724 0.79208 0.53284 0.0
C1479 C 0.14416 0.80112 0.52327 0.0
C1480 C 0.13952 0.79597 0.50841 0.0
C1481 C 0.13776 0.78159 0.50286 0.0
C1482 C 0.1413 0.77278 0.5124 0.0
C1483 C 0.14604 0.77801 0.52726 0.0
C1484 C 0.17564 0.8203 0.54368 0.0
C1485 C 0.17751 0.83488 0.54035 0.0
C1486 C 0.18747 0.84352 0.52966 0.0
C1487 C 0.19571 0.8377 0.52207 0.0
C1488 C 0.19404 0.82321 0.52566 0.0
C1489 C 0.18406 0.81458 0.53637 0.0
C1490 C 0.16655 0.82738 0.64162 0.0
C1491 C 0.08246 0.73192 0.537 0.0
H1492 H 0.18918 0.353 0.66957 0.0
H1493 H 0.07113 0.33632 0.55038 0.0
H1494 H 0.20371 0.37054 0.59328 0.0
H1495 H 0.22379 0.36662 0.60493 0.0
H1496 H 0.20234 0.32008 0.58291 0.0
H1497 H 0.1822 0.32405 0.57145 0.0
H1498 H 0.17573 0.36869 0.61142 0.0
H1499 H 0.18211 0.36644 0.63721 0.0
H1500 H 0.17349 0.3196 0.62569 0.0
H1501 H 0.16692 0.32193 0.6 0.0
H1502 H 0.14589 0.36758 0.59648 0.0
H1503 H 0.12674 0.36234 0.61473 0.0
H1504 H 0.11651 0.31422 0.61476 0.0
H1505 H 0.13581 0.31968 0.59681 0.0
H1506 H 0.14795 0.3733 0.56034 0.0
H1507 H 0.12449 0.37384 0.55324 0.0
H1508 H 0.09694 0.32475 0.56176 0.0
H1509 H 0.1205 0.32433 0.56867 0.0
H1510 H 0.17436 0.37417 0.54052 0.0
H1511 H 0.16721 0.37469 0.51446 0.0
H1512 H 0.12936 0.32689 0.51505 0.0
H1513 H 0.13696 0.32633 0.54084 0.0
H1514 H 0.20219 0.37441 0.55713 0.0
H1515 H 0.21822 0.3763 0.53666 0.0
H1516 H 0.18466 0.32857 0.52093 0.0
H1517 H 0.16887 0.32676 0.54149 0.0
O1518 O 0.1865 0.35359 0.65934 0.0
O1519 O 0.18205 0.32962 0.65282 0.0
O1520 O 0.09528 0.36163 0.54881 0.0
O1521 O 0.08059 0.33643 0.55311 0.0
C1522 C 0.17764 0.34851 0.57727 0.0
C1523 C 0.16738 0.34708 0.58817 0.0
C1524 C 0.1536 0.34695 0.58415 0.0
C1525 C 0.15021 0.34856 0.56929 0.0
C1526 C 0.16036 0.34981 0.55835 0.0
C1527 C 0.17407 0.34973 0.56234 0.0
C1528 C 0.19152 0.34758 0.58155 0.0
C1529 C 0.20362 0.35969 0.59066 0.0
C1530 C 0.21506 0.35742 0.59729 0.0
C1531 C 0.21452 0.34297 0.59495 0.0
C1532 C 0.20292 0.33125 0.58506 0.0
C1533 C 0.19152 0.33356 0.57838 0.0
C1534 C 0.17096 0.34552 0.60385 0.0
C1535 C 0.17517 0.35794 0.61452 0.0
C1536 C 0.17884 0.35663 0.62923 0.0
C1537 C 0.17836 0.34286 0.63351 0.0
C1538 C 0.17402 0.33038 0.62277 0.0
C1539 C 0.1703 0.33169 0.60808 0.0
C1540 C 0.14225 0.34402 0.59539 0.0
C1541 C 0.13952 0.35595 0.60051 0.0
C1542 C 0.12854 0.3529 0.61086 0.0
C1543 C 0.12011 0.33786 0.61624 0.0
C1544 C 0.12297 0.32599 0.61108 0.0
C1545 C 0.13394 0.32906 0.60076 0.0
C1546 C 0.1359 0.34881 0.56509 0.0
C1547 C 0.13683 0.36268 0.56065 0.0
C1548 C 0.12342 0.36295 0.55662 0.0
C1549 C 0.10883 0.34933 0.55696 0.0
C1550 C 0.10797 0.33544 0.5614 0.0
C1551 C 0.1214 0.33518 0.5654 0.0
C1552 C 0.15614 0.35023 0.54256 0.0
C1553 C 0.1646 0.3638 0.53495 0.0
C1554 C 0.16044 0.3641 0.52011 0.0
C1555 C 0.14772 0.35082 0.51266 0.0
C1556 C 0.13936 0.33723 0.52036 0.0
C1557 C 0.14357 0.33693 0.53514 0.0
C1558 C 0.18439 0.35046 0.55075 0.0
C1559 C 0.19844 0.36432 0.54935 0.0
C1560 C 0.2075 0.36542 0.53761 0.0
C1561 C 0.20268 0.3526 0.52717 0.0
C1562 C 0.18878 0.33859 0.52888 0.0
C1563 C 0.17971 0.33754 0.54056 0.0
C1564 C 0.1824 0.34156 0.64911 0.0
C1565 C 0.09454 0.34957 0.5527 0.0
H1566 H 0.97157 0.37011 0.04609 0.0
H1567 H 0.96683 0.38465 0.06577 0.0
H1568 H 0.01524 0.4198 0.06964 0.0
H1569 H 0.02 0.40553 0.04986 0.0
H1570 H 0.97868 0.39137 0.09428 0.0
H1571 H 0.99537 0.44672 0.06776 0.0
H1572 H 0.99183 0.42904 0.05744 0.0
H1573 H 0.01021 0.4417 0.06739 0.0
C1574 C 0.98116 0.38102 0.05105 0.0
C1575 C 0.99615 0.38671 0.04643 0.0
C1576 C 0.97844 0.38931 0.06227 0.0
C1577 C 0.99063 0.40346 0.06898 0.0
C1578 C 0.00559 0.40914 0.06435 0.0
H1579 H 0.00489 0.4466 0.15553 0.0
H1580 H 0.00297 0.43166 0.13265 0.0
C1581 C 0.00831 0.40089 0.05313 0.0
C1582 C 0.98799 0.41176 0.08151 0.0
H1583 H 0.99488 0.44789 0.09435 0.0
C1584 C 0.98201 0.40367 0.09421 0.0
C1585 C 0.99208 0.42773 0.08134 0.0
C1586 C 0.99757 0.43676 0.06768 0.0
C1587 C 0.98078 0.41133 0.10702 0.0
C1588 C 0.98594 0.42758 0.1072 0.0
C1589 C 0.99113 0.43548 0.09425 0.0
C1590 C 0.98699 0.43677 0.12098 0.0
C1591 C 0.97413 0.40199 0.1203 0.0
C1592 C 0.979 0.445 0.12185 0.0
C1593 C 0.98024 0.45378 0.13491 0.0
C1594 C 0.98964 0.45459 0.14721 0.0
C1595 C 0.99772 0.44642 0.14619 0.0
C1596 C 0.99647 0.43768 0.13319 0.0
H1597 H 0.96641 0.38929 0.117 0.0
H1598 H 0.98367 0.40319 0.12784 0.0
H1599 H 0.96751 0.40631 0.1265 0.0
H1600 H 0.97173 0.44455 0.11248 0.0
H1601 H 0.97397 0.46005 0.13532 0.0
H1602 H 0.58573 0.58359 0.077 0.0
H1603 H 0.5731 0.56744 0.09742 0.0
H1604 H 0.6169 0.57488 0.11514 0.0
H1605 H 0.62959 0.59073 0.09439 0.0
H1606 H 0.59391 0.54469 0.11702 0.0
H1607 H 0.57551 0.58541 0.13887 0.0
H1608 H 0.56864 0.57878 0.11992 0.0
H1609 H 0.58908 0.59053 0.12472 0.0
C1610 C 0.59267 0.58173 0.0852 0.0
C1611 C 0.60867 0.58854 0.08419 0.0
C1612 C 0.58546 0.57258 0.09692 0.0
C1613 C 0.59412 0.57031 0.10802 0.0
C1614 C 0.61002 0.57662 0.10676 0.0
H1615 H 0.5534 0.53635 0.19174 0.0
H1616 H 0.57071 0.55199 0.17309 0.0
C1617 C 0.61725 0.58565 0.09491 0.0
C1618 C 0.58653 0.56149 0.12097 0.0
H1619 H 0.56343 0.55991 0.14826 0.0
C1620 C 0.58736 0.54809 0.12395 0.0
C1621 C 0.57828 0.56613 0.13022 0.0
C1622 C 0.57795 0.5811 0.12839 0.0
C1623 C 0.57967 0.53885 0.13561 0.0
C1624 C 0.57058 0.54293 0.14424 0.0
C1625 C 0.57023 0.55665 0.14156 0.0
C1626 C 0.56103 0.53303 0.15588 0.0
C1627 C 0.5815 0.52493 0.13861 0.0
C1628 C 0.54986 0.51715 0.15245 0.0
C1629 C 0.54011 0.50818 0.16314 0.0
C1630 C 0.54113 0.51499 0.17737 0.0
C1631 C 0.55234 0.53084 0.18083 0.0
C1632 C 0.56223 0.53976 0.1702 0.0
H1633 H 0.59251 0.52654 0.13469 0.0
H1634 H 0.5812 0.52295 0.1506 0.0
H1635 H 0.57193 0.51424 0.13253 0.0
H1636 H 0.54836 0.51181 0.14137 0.0
H1637 H 0.53139 0.49605 0.16012 0.0
H1638 H 0.42121 0.02785 0.05239 0.0
H1639 H 0.43707 0.03097 0.07492 0.0
H1640 H 0.41859 0.98084 0.07306 0.0
H1641 H 0.40296 0.97768 0.05046 0.0
H1642 H 0.42661 0.01865 0.10116 0.0
H1643 H 0.46444 0.99744 0.08042 0.0
H1644 H 0.45331 0.0026 0.0682 0.0
H1645 H 0.4444 0.98362 0.07575 0.0
C1646 C 0.4207 0.01753 0.05668 0.0
C1647 C 0.41087 0.00252 0.04966 0.0
C1648 C 0.42976 0.01933 0.06954 0.0
C1649 C 0.42919 0.00617 0.07554 0.0
C1650 C 0.41951 0.9912 0.06843 0.0
H1651 H 0.44316 0.9894 0.16479 0.0
H1652 H 0.43392 0.99182 0.14029 0.0
C1653 C 0.41049 0.9894 0.05557 0.0
C1654 C 0.43775 0.00786 0.08983 0.0
H1655 H 0.46235 0.99803 0.10679 0.0
C1656 C 0.43458 0.01434 0.10236 0.0
C1657 C 0.44833 0.00244 0.09136 0.0
C1658 C 0.45295 0.99629 0.07818 0.0
C1659 C 0.44115 0.01487 0.11647 0.0
C1660 C 0.45091 0.00849 0.11812 0.0
C1661 C 0.45468 0.00271 0.10552 0.0
C1662 C 0.4567 0.00702 0.1329 0.0
C1663 C 0.43747 0.02215 0.12949 0.0
C1664 C 0.4726 0.01441 0.13672 0.0
C1665 C 0.47794 0.01289 0.1507 0.0
C1666 C 0.46746 0.00382 0.16102 0.0
C1667 C 0.45154 0.99632 0.15705 0.0
C1668 C 0.44623 0.99785 0.14312 0.0
H1669 H 0.43387 0.03054 0.12594 0.0
H1670 H 0.42778 0.01274 0.13507 0.0
H1671 H 0.44755 0.02843 0.13767 0.0
H1672 H 0.48085 0.02142 0.12893 0.0
H1673 H 0.49027 0.01867 0.15337 0.0
H1674 H 0.37924 0.97101 0.96574 0.0
H1675 H 0.3911 0.96965 0.94301 0.0
H1676 H 0.4359 0.00429 0.96301 0.0
H1677 H 0.42407 0.00609 0.9855 0.0
H1678 H 0.4315 0.01167 0.93623 0.0
H1679 H 0.4158 0.94908 0.93329 0.0
H1680 H 0.39944 0.95173 0.93418 0.0
H1681 H 0.4136 0.95869 0.94961 0.0
C1682 C 0.39164 0.97817 0.96533 0.0
C1683 C 0.40074 0.98865 0.97738 0.0
C1684 C 0.39842 0.97733 0.95237 0.0
C1685 C 0.41443 0.98673 0.95135 0.0
C1686 C 0.42353 0.99692 0.96353 0.0
H1687 H 0.47133 0.97978 0.88575 0.0
H1688 H 0.45703 0.97817 0.90749 0.0
C1689 C 0.41676 0.99792 0.97638 0.0
C1690 C 0.42171 0.9867 0.93738 0.0
H1691 H 0.42679 0.96325 0.9122 0.0
C1692 C 0.43049 0.00108 0.931 0.0
C1693 C 0.4205 0.97291 0.93062 0.0
C1694 C 0.41196 0.95726 0.93734 0.0
C1695 C 0.43816 0.00208 0.91811 0.0
C1696 C 0.43662 0.98823 0.91112 0.0
C1697 C 0.42782 0.97383 0.91747 0.0
C1698 C 0.44464 0.98855 0.89758 0.0
C1699 C 0.44824 0.01808 0.91243 0.0
C1700 C 0.44221 0.99465 0.88467 0.0
C1701 C 0.45049 0.99572 0.87227 0.0
C1702 C 0.46111 0.99042 0.87248 0.0
C1703 C 0.46312 0.98384 0.88523 0.0
C1704 C 0.45499 0.98294 0.89767 0.0
H1705 H 0.45155 0.02767 0.92117 0.0
H1706 H 0.45893 0.01913 0.90822 0.0
H1707 H 0.4418 0.01984 0.90321 0.0
H1708 H 0.43398 0.99867 0.8842 0.0
H1709 H 0.44855 0.00064 0.86251 0.0
H1710 H 0.99037 0.38843 0.97925 0.0
H1711 H 0.99459 0.40621 0.95972 0.0
H1712 H 0.0414 0.41604 0.95783 0.0
H1713 H 0.03727 0.39815 0.97751 0.0
H1714 H 0.01908 0.43964 0.96077 0.0
H1715 H 0.02132 0.40252 0.91395 0.0
H1716 H 0.0125 0.39433 0.93084 0.0
H1717 H 0.0331 0.40583 0.9307 0.0
C1718 C 0.00157 0.39432 0.97468 0.0
C1719 C 0.01349 0.39188 0.97989 0.0
C1720 C 0.00395 0.40449 0.96354 0.0
C1721 C 0.01826 0.41233 0.9573 0.0
C1722 C 0.03023 0.40996 0.96244 0.0
H1723 H 0.03832 0.4717 0.88216 0.0
H1724 H 0.04126 0.45749 0.90242 0.0
C1725 C 0.02787 0.3998 0.97368 0.0
C1726 C 0.02048 0.42312 0.94558 0.0
H1727 H 0.02257 0.42614 0.90824 0.0
C1728 C 0.02001 0.4368 0.9493 0.0
C1729 C 0.02179 0.41939 0.93068 0.0
C1730 C 0.02215 0.4047 0.92618 0.0
C1731 C 0.02043 0.44669 0.93842 0.0
C1732 C 0.02096 0.44256 0.92341 0.0
C1733 C 0.02208 0.42922 0.91976 0.0
C1734 C 0.01939 0.45139 0.91128 0.0
C1735 C 0.02019 0.46141 0.94312 0.0
C1736 C 0.00604 0.45246 0.90945 0.0
C1737 C 0.00437 0.46062 0.89799 0.0
C1738 C 0.01597 0.46776 0.88802 0.0
C1739 C 0.02927 0.46651 0.88978 0.0
C1740 C 0.03094 0.45834 0.90128 0.0
H1741 H 0.02466 0.4654 0.95484 0.0
H1742 H 0.02718 0.47111 0.93601 0.0
H1743 H 0.00813 0.45894 0.94214 0.0
H1744 H 0.99685 0.44691 0.91686 0.0
H1745 H 0.99405 0.46149 0.89705 0.0
H1746 H 0.59608 0.6206 0.01272 0.0
H1747 H 0.58 0.61027 0.98944 0.0
H1748 H 0.58499 0.56936 0.98916 0.0
H1749 H 0.60102 0.57955 0.01244 0.0
H1750 H 0.58981 0.60321 0.96265 0.0
H1751 H 0.53806 0.55089 0.98095 0.0
H1752 H 0.55183 0.56683 0.99371 0.0
H1753 H 0.55606 0.55226 0.98654 0.0
C1754 C 0.5936 0.60932 0.00779 0.0
C1755 C 0.59979 0.60087 0.01439 0.0
C1756 C 0.58442 0.60345 0.9945 0.0
C1757 C 0.58116 0.58897 0.98771 0.0
C1758 C 0.58714 0.58041 0.99439 0.0
H1759 H 0.541 0.53437 0.90547 0.0
H1760 H 0.55188 0.54479 0.93072 0.0
C1761 C 0.59637 0.5863 0.00763 0.0
C1762 C 0.57243 0.58332 0.9731 0.0
H1763 H 0.54039 0.55254 0.9549 0.0
C1764 C 0.57891 0.59223 0.96095 0.0
C1765 C 0.55826 0.56896 0.97097 0.0
C1766 C 0.55054 0.55922 0.98374 0.0
C1767 C 0.57189 0.58688 0.94659 0.0
C1768 C 0.55781 0.5724 0.9444 0.0
C1769 C 0.55116 0.56364 0.95662 0.0
C1770 C 0.55027 0.56576 0.92941 0.0
C1771 C 0.57995 0.59647 0.93383 0.0
C1772 C 0.5454 0.57391 0.92043 0.0
C1773 C 0.53937 0.56809 0.9059 0.0
C1774 C 0.53796 0.55393 0.90016 0.0
C1775 C 0.54223 0.54547 0.90944 0.0
C1776 C 0.54833 0.55134 0.92392 0.0
H1777 H 0.59228 0.60518 0.93694 0.0
H1778 H 0.57934 0.58878 0.92421 0.0
H1779 H 0.5742 0.60301 0.9303 0.0
H1780 H 0.54652 0.58492 0.92456 0.0
H1781 H 0.53625 0.57493 0.89905 0.0
H1782 H 0.98328 0.59083 0.00705 0.0
H1783 H 0.9878 0.57655 0.98703 0.0
H1784 H 0.03133 0.61802 0.9806 0.0
H1785 H 0.02687 0.63245 0.00063 0.0
H1786 H 0.01178 0.60363 0.95446 0.0
H1787 H 0.0186 0.56041 0.9863 0.0
H1788 H 0.0017 0.56146 0.99002 0.0
H1789 H 0.02051 0.5782 0.99492 0.0
C1790 C 0.99388 0.59688 0.00146 0.0
C1791 C 0.00473 0.61276 0.00539 0.0
C1792 C 0.99649 0.58867 0.9901 0.0
C1793 C 0.00999 0.59618 0.9825 0.0
C1794 C 0.02089 0.61201 0.98644 0.0
H1795 H 0.0364 0.55091 0.91358 0.0
H1796 H 0.03676 0.56602 0.936 0.0
C1797 C 0.01833 0.62022 0.99786 0.0
C1798 C 0.01221 0.58775 0.96982 0.0
H1799 H 0.01456 0.55528 0.96 0.0
C1800 C 0.01256 0.59316 0.95568 0.0
C1801 C 0.01333 0.57417 0.97149 0.0
C1802 C 0.01366 0.56827 0.98651 0.0
C1803 C 0.01342 0.58499 0.94307 0.0
C1804 C 0.01385 0.57103 0.94467 0.0
C1805 C 0.01409 0.56593 0.95885 0.0
C1806 C 0.01346 0.5613 0.93164 0.0
C1807 C 0.01372 0.59124 0.92809 0.0
C1808 C 0.00013 0.55345 0.92203 0.0
C1809 C -0.00013 0.54483 0.90931 0.0
C1810 C 0.01296 0.54391 0.90599 0.0
C1811 C 0.0262 0.55151 0.91583 0.0
C1812 C 0.02641 0.56008 0.92863 0.0
H1813 H 0.01678 0.60375 0.92904 0.0
H1814 H 0.02212 0.59015 0.92125 0.0
H1815 H 0.00213 0.58425 0.92221 0.0
H1816 H 0.98999 0.55419 0.92426 0.0
H1817 H 0.98958 0.53929 0.90185 0.0
H1818 H 0.38077 0.42346 0.97101 0.0
H1819 H 0.39318 0.44076 0.95097 0.0
H1820 H 0.41445 0.41369 0.93893 0.0
H1821 H 0.40225 0.3965 0.95882 0.0
H1822 H 0.42669 0.45846 0.94725 0.0
H1823 H 0.3929 0.41613 0.89954 0.0
H1824 H 0.38613 0.4138 0.91798 0.0
H1825 H 0.40021 0.4085 0.91332 0.0
C1826 C 0.38803 0.42117 0.96401 0.0
C1827 C 0.39053 0.40863 0.96645 0.0
C1828 C 0.39509 0.43104 0.95261 0.0
C1829 C 0.40455 0.42834 0.94339 0.0
C1830 C 0.407 0.4158 0.94579 0.0
H1831 H 0.46533 0.46509 0.8745 0.0
H1832 H 0.4479 0.45022 0.89326 0.0
C1833 C 0.40007 0.40605 0.95721 0.0
C1834 C 0.41248 0.4389 0.93157 0.0
H1835 H 0.41656 0.43883 0.89436 0.0
C1836 C 0.42434 0.45431 0.93564 0.0
C1837 C 0.40936 0.43337 0.91649 0.0
C1838 C 0.39637 0.41708 0.9115 0.0
C1839 C 0.43376 0.46411 0.92507 0.0
C1840 C 0.43099 0.45839 0.91002 0.0
C1841 C 0.4187 0.44317 0.90591 0.0
C1842 C 0.44132 0.46754 0.89851 0.0
C1843 C 0.44709 0.48018 0.9302 0.0
C1844 C 0.44327 0.48215 0.89511 0.0
C1845 C 0.45339 0.49079 0.88448 0.0
C1846 C 0.46166 0.48492 0.877 0.0
C1847 C 0.45939 0.47011 0.88024 0.0
C1848 C 0.44932 0.46152 0.89088 0.0
H1849 H 0.44962 0.48144 0.94238 0.0
H1850 H 0.45768 0.48259 0.9247 0.0
H1851 H 0.4442 0.48924 0.92723 0.0
H1852 H 0.437 0.48688 0.90068 0.0
H1853 H 0.45493 0.50218 0.8823 0.0
H1854 H 0.59156 0.01869 0.00479 0.0
H1855 H 0.57623 0.01545 0.98189 0.0
H1856 H 0.5693 0.96899 0.97304 0.0
H1857 H 0.58465 0.97213 0.99595 0.0
H1858 H 0.58094 0.98925 0.94944 0.0
H1859 H 0.5292 0.98768 0.9709 0.0
H1860 H 0.54732 0.00365 0.9788 0.0
H1861 H 0.542 0.98378 0.98212 0.0
C1862 C 0.58659 0.00769 0.99807 0.0
C1863 C 0.5893 0.99566 0.00214 0.0
C1864 C 0.57777 0.00583 0.98504 0.0
C1865 C 0.5715 0.99192 0.97587 0.0
C1866 C 0.57396 0.97977 0.98004 0.0
H1867 H 0.51349 0.9694 0.89361 0.0
H1868 H 0.52375 0.96799 0.91818 0.0
C1869 C 0.58271 0.98158 0.99311 0.0
C1870 C 0.56347 0.99059 0.96139 0.0
H1871 H 0.53269 0.99144 0.94516 0.0
C1872 C 0.57031 0.98957 0.9485 0.0
C1873 C 0.54957 0.99093 0.96022 0.0
C1874 C 0.54148 0.99143 0.97373 0.0
C1875 C 0.56387 0.98941 0.93444 0.0
C1876 C 0.55031 0.99035 0.93329 0.0
C1877 C 0.54316 0.99084 0.94614 0.0
C1878 C 0.54373 0.99136 0.9188 0.0
C1879 C 0.57167 0.98839 0.92088 0.0
C1880 C 0.5515 0.00506 0.91121 0.0
C1881 C 0.54568 0.00592 0.89726 0.0
C1882 C 0.532 0.99307 0.89064 0.0
C1883 C 0.52412 0.97943 0.89839 0.0
C1884 C 0.5299 0.97863 0.91242 0.0
H1885 H 0.58023 0.98469 0.92347 0.0
H1886 H 0.56302 0.97996 0.9122 0.0
H1887 H 0.5778 0.0001 0.91628 0.0
H1888 H 0.56216 0.01502 0.91602 0.0
H1889 H 0.5521 0.01651 0.89149 0.0
H1890 H 0.57895 0.98962 0.07058 0.0
H1891 H 0.56787 0.9928 0.09307 0.0
H1892 H 0.60956 0.03692 0.10509 0.0
H1893 H 0.62081 0.0338 0.0825 0.0
H1894 H 0.59866 0.01558 0.12812 0.0
H1895 H 0.55242 0.02371 0.10242 0.0
H1896 H 0.55282 0.00691 0.09458 0.0
H1897 H 0.5688 0.02632 0.09265 0.0
C1898 C 0.58573 8e-05 0.07793 0.0
C1899 C 0.60074 0.01149 0.07476 0.0
C1900 C 0.57935 0.00191 0.09074 0.0
C1901 C 0.58782 0.01518 0.10063 0.0
C1902 C 0.60281 0.02664 0.09752 0.0
H1903 H 0.54441 0.03256 0.1754 0.0
H1904 H 0.55992 0.03641 0.15407 0.0
C1905 C 0.60919 0.02486 0.08462 0.0
C1906 C 0.58118 0.01661 0.11453 0.0
H1907 H 0.55013 0.01726 0.1277 0.0
C1908 C 0.58816 0.01615 0.12807 0.0
C1909 C 0.56759 0.01752 0.11442 0.0
C1910 C 0.56003 0.0188 0.10026 0.0
C1911 C 0.5815 0.01588 0.14148 0.0
C1912 C 0.56744 0.01592 0.14129 0.0
C1913 C 0.56084 0.01708 0.12781 0.0
C1914 C 0.55902 0.01409 0.15482 0.0
C1915 C 0.5895 0.01546 0.15573 0.0
C1916 C 0.55337 0.00026 0.16229 0.0
C1917 C 0.54455 0.99804 0.17448 0.0
C1918 C 0.54116 0.0096 0.17941 0.0
C1919 C 0.547 0.02354 0.17201 0.0
C1920 C 0.55578 0.02572 0.15978 0.0
H1921 H 0.60197 0.01993 0.15454 0.0
H1922 H 0.58831 0.02254 0.16488 0.0
H1923 H 0.58416 0.00313 0.15886 0.0
H1924 H 0.5555 0.99102 0.15849 0.0
H1925 H 0.5403 0.98723 0.18 0.0
H1926 H 0.01199 0.6151 0.07557 0.0
H1927 H 0.00843 0.59833 0.09583 0.0
H1928 H 0.96016 0.58401 0.09478 0.0
H1929 H 0.9636 0.60076 0.07424 0.0
H1930 H 0.9977 0.59938 0.12387 0.0
H1931 H 0.96026 0.5421 0.09171 0.0
H1932 H 0.9714 0.56021 0.08289 0.0
H1933 H 0.954 0.55625 0.09125 0.0
C1934 C 0.00059 0.60839 0.07961 0.0
C1935 C 0.98805 0.60919 0.07328 0.0
C1936 C 0.9986 0.59883 0.09122 0.0
C1937 C 0.98402 0.58983 0.09671 0.0
C1938 C 0.97146 0.5907 0.09055 0.0
H1939 H 0.97502 0.54215 0.1787 0.0
H1940 H 0.97243 0.55791 0.15985 0.0
C1941 C 0.97345 0.60031 0.07888 0.0
C1942 C 0.98222 0.57961 0.1089 0.0
H1943 H 0.96664 0.54122 0.1168 0.0
C1944 C 0.99078 0.58666 0.12241 0.0
C1945 C 0.9733 0.56304 0.10685 0.0
C1946 C 0.96428 0.55487 0.09238 0.0
C1947 C 0.99094 0.57758 0.13384 0.0
C1948 C 0.98213 0.561 0.13176 0.0
C1949 C 0.97331 0.55394 0.11836 0.0
C1950 C 0.98277 0.5508 0.14296 0.0
C1951 C 0.00105 0.58577 0.14782 0.0
C1952 C 0.98906 0.54128 0.13957 0.0
C1953 C 0.99045 0.53218 0.15025 0.0
C1954 C 0.9855 0.53238 0.16453 0.0
C1955 C 0.97886 0.54167 0.16779 0.0
C1956 C 0.97749 0.55078 0.15708 0.0
H1957 H 0.00941 0.59836 0.14647 0.0
H1958 H 0.9937 0.58514 0.1569 0.0
H1959 H 0.00756 0.57993 0.15122 0.0
H1960 H 0.99314 0.54109 0.12871 0.0
H1961 H 0.99537 0.52496 0.14732 0.0
H1962 H 0.40849 0.42285 0.03442 0.0
H1963 H 0.42535 0.43387 0.05714 0.0
H1964 H 0.41974 0.38841 0.06441 0.0
H1965 H 0.40318 0.37741 0.04152 0.0
H1966 H 0.41687 0.42518 0.0846 0.0
H1967 H 0.46585 0.41659 0.07246 0.0
H1968 H 0.45199 0.41497 0.05819 0.0
H1969 H 0.44748 0.39883 0.06951 0.0
C1970 C 0.41106 0.41527 0.04073 0.0
C1971 C 0.40454 0.39928 0.0362 0.0
C1972 C 0.42069 0.42158 0.05371 0.0
C1973 C 0.42397 0.41202 0.06238 0.0
C1974 C 0.41769 0.3961 0.05772 0.0
H1975 H 0.45258 0.42032 0.15449 0.0
H1976 H 0.44211 0.41146 0.12884 0.0
C1977 C 0.40814 0.38981 0.04469 0.0
C1978 C 0.43283 0.41837 0.07691 0.0
H1979 H 0.46385 0.4226 0.09792 0.0
C1980 C 0.42723 0.42477 0.08743 0.0
C1981 C 0.44637 0.41783 0.0806 0.0
C1982 C 0.45337 0.41183 0.06955 0.0
C1983 C 0.43458 0.43028 0.10164 0.0
C1984 C 0.44782 0.42933 0.10543 0.0
C1985 C 0.45362 0.4232 0.09492 0.0
C1986 C 0.45548 0.43441 0.12047 0.0
C1987 C 0.42807 0.43687 0.11268 0.0
C1988 C 0.46663 0.4502 0.12408 0.0
C1989 C 0.47271 0.45531 0.1387 0.0
C1990 C 0.46769 0.44469 0.14992 0.0
C1991 C 0.45686 0.42876 0.1461 0.0
C1992 C 0.45081 0.42367 0.13148 0.0
H1993 H 0.41766 0.43681 0.10799 0.0
H1994 H 0.42498 0.42989 0.12258 0.0
H1995 H 0.43696 0.44914 0.11642 0.0
H1996 H 0.47032 0.45862 0.11566 0.0
H1997 H 0.48117 0.46761 0.14125 0.0
H1998 H 0.66209 0.73725 0.36995 0.0
H1999 H 0.65656 0.74957 0.39096 0.0
H2000 H 0.64058 0.70736 0.41416 0.0
H2001 H 0.64593 0.69484 0.39307 0.0
H2002 H 0.62219 0.72247 0.41673 0.0
H2003 H 0.68503 0.76333 0.42961 0.0
H2004 H 0.67808 0.76315 0.41099 0.0
H2005 H 0.67763 0.7459 0.41724 0.0
C2006 C 0.65723 0.73051 0.37945 0.0
C2007 C 0.65458 0.71513 0.37995 0.0
C2008 C 0.65412 0.73758 0.39145 0.0
C2009 C 0.64839 0.72944 0.40416 0.0
C2010 C 0.64504 0.71383 0.40443 0.0
H2011 H 0.65629 0.76704 0.49321 0.0
H2012 H 0.65624 0.75309 0.47031 0.0
C2013 C 0.64813 0.70672 0.39241 0.0
C2014 C 0.64687 0.73756 0.41753 0.0
H2015 H 0.66806 0.76719 0.44409 0.0
C2016 C 0.63218 0.73228 0.42272 0.0
C2017 C 0.65998 0.75022 0.42537 0.0
C2018 C 0.6761 0.75595 0.42064 0.0
C2019 C 0.63027 0.73942 0.43558 0.0
C2020 C 0.64338 0.7522 0.44329 0.0
C2021 C 0.65803 0.75745 0.43808 0.0
C2022 C 0.64238 0.75991 0.45724 0.0
C2023 C 0.61434 0.733 0.44103 0.0
C2024 C 0.63454 0.76833 0.45748 0.0
C2025 C 0.63461 0.77641 0.47059 0.0
C2026 C 0.64265 0.77629 0.48359 0.0
C2027 C 0.65024 0.76761 0.48331 0.0
C2028 C 0.65014 0.75955 0.47027 0.0
H2029 H 0.60602 0.72122 0.43563 0.0
H2030 H 0.61461 0.73215 0.45321 0.0
H2031 H 0.61005 0.7411 0.43851 0.0
H2032 H 0.62869 0.76896 0.44747 0.0
H2033 H 0.62874 0.78308 0.47045 0.0
H2034 H 0.25375 0.92287 0.41596 0.0
H2035 H 0.24069 0.90536 0.43542 0.0
H2036 H 0.28005 0.89962 0.44366 0.0
H2037 H 0.29332 0.91732 0.42421 0.0
H2038 H 0.23334 0.87371 0.43754 0.0
H2039 H 0.27257 0.91323 0.48488 0.0
H2040 H 0.27217 0.92019 0.46684 0.0
H2041 H 0.28153 0.90904 0.46995 0.0
C2042 C 0.25965 0.9179 0.42191 0.0
C2043 C 0.27459 0.92152 0.4186 0.0
C2044 C 0.25216 0.90788 0.43301 0.0
C2045 C 0.25947 0.90135 0.44108 0.0
C2046 C 0.27431 0.90475 0.43771 0.0
H2047 H 0.22449 0.84284 0.51657 0.0
H2048 H 0.24047 0.85712 0.49652 0.0
C2049 C 0.28184 0.91479 0.42655 0.0
C2050 C 0.25137 0.89093 0.45296 0.0
H2051 H 0.25178 0.88881 0.49049 0.0
C2052 C 0.23741 0.87695 0.44911 0.0
C2053 C 0.25678 0.89517 0.46802 0.0
C2054 C 0.27152 0.91027 0.47277 0.0
C2055 C 0.22856 0.8672 0.45996 0.0
C2056 C 0.23367 0.87171 0.47506 0.0
C2057 C 0.24789 0.88542 0.47889 0.0
C2058 C 0.22399 0.86286 0.48705 0.0
C2059 C 0.21377 0.85216 0.45516 0.0
C2060 C 0.20955 0.86156 0.48845 0.0
C2061 C 0.20041 0.85341 0.49982 0.0
C2062 C 0.20558 0.84647 0.51009 0.0
C2063 C 0.22012 0.8479 0.50873 0.0
C2064 C 0.22929 0.85611 0.49735 0.0
H2065 H 0.2138 0.84815 0.44353 0.0
H2066 H 0.21185 0.84264 0.46243 0.0
H2067 H 0.20392 0.85422 0.45586 0.0
H2068 H 0.20537 0.86693 0.48078 0.0
H2069 H 0.18921 0.85239 0.50046 0.0
H2070 H 0.08948 0.36331 0.38756 0.0
H2071 H 0.1053 0.36809 0.41054 0.0
H2072 H 0.09573 0.32026 0.40658 0.0
H2073 H 0.07996 0.31541 0.38356 0.0
H2074 H 0.09393 0.35122 0.43594 0.0
H2075 H 0.14288 0.34619 0.41596 0.0
H2076 H 0.13028 0.34952 0.40381 0.0
H2077 H 0.12413 0.33014 0.40958 0.0
C2078 C 0.09093 0.35388 0.39147 0.0
C2079 C 0.08348 0.33898 0.38378 0.0
C2080 C 0.09996 0.35663 0.40459 0.0
C2081 C 0.10182 0.34459 0.41015 0.0
C2082 C 0.09468 0.3298 0.40232 0.0
H2083 H 0.13763 0.32752 0.49039 0.0
H2084 H 0.12741 0.32724 0.46538 0.0
C2085 C 0.0856 0.32702 0.38923 0.0
C2086 C 0.11018 0.34708 0.42473 0.0
H2087 H 0.14038 0.34601 0.44202 0.0
C2088 C 0.10419 0.35026 0.43728 0.0
C2089 C 0.12349 0.34573 0.4264 0.0
C2090 C 0.13069 0.34284 0.41322 0.0
C2091 C 0.11087 0.35163 0.45155 0.0
C2092 C 0.12411 0.35013 0.45326 0.0
C2093 C 0.13025 0.34719 0.44067 0.0
C2094 C 0.1313 0.35087 0.46808 0.0
C2095 C 0.10331 0.35405 0.46469 0.0
C2096 C 0.13722 0.36439 0.47776 0.0
C2097 C 0.14288 0.36453 0.49214 0.0
C2098 C 0.14285 0.35117 0.49704 0.0
C2099 C 0.13752 0.33789 0.48707 0.0
C2100 C 0.13181 0.33775 0.47273 0.0
H2101 H 0.09127 0.3511 0.4617 0.0
H2102 H 0.10313 0.34677 0.47378 0.0
H2103 H 0.10996 0.36658 0.46891 0.0
H2104 H 0.13721 0.37476 0.47429 0.0
H2105 H 0.14684 0.37493 0.49954 0.0
H2106 H 0.09193 0.34082 0.31367 0.0
H2107 H 0.10188 0.33599 0.29108 0.0
H2108 H 0.06045 0.29075 0.28295 0.0
H2109 H 0.0503 0.29556 0.30554 0.0
H2110 H 0.10704 0.31094 0.28299 0.0
H2111 H 0.0637 0.31279 0.24428 0.0
H2112 H 0.06684 0.32002 0.26346 0.0
H2113 H 0.05619 0.29926 0.25858 0.0
C2114 C 0.08494 0.32981 0.30711 0.0
C2115 C 0.0703 0.3186 0.31133 0.0
C2116 C 0.09065 0.32707 0.29422 0.0
C2117 C 0.08181 0.31311 0.28525 0.0
C2118 C 0.06733 0.30171 0.28959 0.0
H2119 H 0.10361 0.28839 0.19886 0.0
H2120 H 0.09085 0.28719 0.22173 0.0
C2121 C 0.0616 0.30444 0.30253 0.0
C2122 C 0.08786 0.31071 0.27133 0.0
H2123 H 0.08239 0.30847 0.23366 0.0
C2124 C 0.10161 0.3103 0.2722 0.0
C2125 C 0.08069 0.3098 0.25729 0.0
C2126 C 0.0661 0.31059 0.25574 0.0
C2127 C 0.10854 0.30924 0.25938 0.0
C2128 C 0.10166 0.30889 0.24534 0.0
C2129 C 0.08764 0.30879 0.24445 0.0
C2130 C 0.1093 0.30952 0.23151 0.0
C2131 C 0.12317 0.30854 0.26098 0.0
C2132 C 0.12375 0.32258 0.22936 0.0
C2133 C 0.13106 0.32328 0.21638 0.0
C2134 C 0.12401 0.31097 0.20522 0.0
C2135 C 0.10941 0.29798 0.20731 0.0
C2136 C 0.10208 0.2973 0.22032 0.0
H2137 H 0.1244 0.30431 0.27184 0.0
H2138 H 0.12349 0.3007 0.25202 0.0
H2139 H 0.13324 0.32051 0.26027 0.0
H2140 H 0.1294 0.33226 0.23775 0.0
H2141 H 0.14237 0.33337 0.21521 0.0
H2142 H 0.65914 0.7192 0.30514 0.0
H2143 H 0.66548 0.73727 0.28554 0.0
H2144 H 0.71401 0.75586 0.29639 0.0
H2145 H 0.70772 0.73753 0.31602 0.0
H2146 H 0.68255 0.76994 0.28915 0.0
H2147 H 0.7094 0.74634 0.25113 0.0
H2148 H 0.69782 0.73534 0.26578 0.0
H2149 H 0.71728 0.75109 0.27002 0.0
C2150 C 0.67118 0.72704 0.30331 0.0
C2151 C 0.68294 0.72695 0.31211 0.0
C2152 C 0.67477 0.73737 0.29211 0.0
C2153 C 0.6902 0.74782 0.28944 0.0
C2154 C 0.70203 0.74772 0.29812 0.0
H2155 H 0.7129 0.82724 0.23515 0.0
H2156 H 0.7134 0.81147 0.2551 0.0
C2157 C 0.69842 0.73731 0.30936 0.0
C2158 C 0.69368 0.75913 0.27789 0.0
H2159 H 0.70856 0.76868 0.2441 0.0
C2160 C 0.68834 0.76976 0.27934 0.0
C2161 C 0.70114 0.75875 0.26509 0.0
C2162 C 0.70666 0.74721 0.26277 0.0
C2163 C 0.68999 0.77985 0.26821 0.0
C2164 C 0.69742 0.77947 0.25539 0.0
C2165 C 0.70299 0.76901 0.25401 0.0
C2166 C 0.69854 0.78911 0.24289 0.0
C2167 C 0.68322 0.79039 0.27001 0.0
C2168 C 0.69049 0.78175 0.22925 0.0
C2169 C 0.69028 0.7907 0.2178 0.0
C2170 C 0.69819 0.80721 0.21976 0.0
C2171 C 0.70676 0.81456 0.23325 0.0
C2172 C 0.70695 0.80558 0.24471 0.0
H2173 H 0.67515 0.78692 0.27902 0.0
H2174 H 0.69267 0.80266 0.27277 0.0
H2175 H 0.67694 0.79016 0.25955 0.0
H2176 H 0.68398 0.76904 0.22762 0.0
H2177 H 0.68378 0.7847 0.20746 0.0
H2178 H 0.27035 0.91591 0.3439 0.0
H2179 H 0.25487 0.90701 0.32033 0.0
H2180 H 0.2435 0.9435 0.32646 0.0
H2181 H 0.25934 0.95274 0.34993 0.0
H2182 H 0.22437 0.89637 0.31298 0.0
H2183 H 0.26177 0.95173 0.28635 0.0
H2184 H 0.26736 0.94737 0.30387 0.0
H2185 H 0.25378 0.95415 0.30297 0.0
C2186 C 0.2645 0.92201 0.34027 0.0
C2187 C 0.26616 0.93511 0.34868 0.0
C2188 C 0.25564 0.91689 0.32681 0.0
C2189 C 0.24824 0.92475 0.32152 0.0
C2190 C 0.24939 0.93748 0.33018 0.0
H2191 H 0.18425 0.8853 0.24168 0.0
H2192 H 0.19465 0.89561 0.26716 0.0
C2193 C 0.25836 0.94269 0.34361 0.0
C2194 C 0.23975 0.9198 0.30675 0.0
H2195 H 0.24001 0.93205 0.272 0.0
C2196 C 0.22769 0.90418 0.30403 0.0
C2197 C 0.24424 0.93001 0.29507 0.0
C2198 C 0.25757 0.94671 0.29711 0.0
C2199 C 0.22021 0.89837 0.28986 0.0
C2200 C 0.22471 0.90858 0.2782 0.0
C2201 C 0.23652 0.92429 0.281 0.0
C2202 C 0.21826 0.9029 0.26273 0.0
C2203 C 0.20804 0.8812 0.28739 0.0
C2204 C 0.22814 0.90407 0.25171 0.0
C2205 C 0.22229 0.89845 0.23715 0.0
C2206 C 0.2064 0.89149 0.23328 0.0
C2207 C 0.19655 0.89063 0.24428 0.0
C2208 C 0.20244 0.89635 0.25888 0.0
H2209 H 0.2084 0.87428 0.2966 0.0
H2210 H 0.19646 0.88004 0.28662 0.0
H2211 H 0.20948 0.87602 0.27688 0.0
H2212 H 0.2404 0.90919 0.25441 0.0
H2213 H 0.23026 0.89963 0.2289 0.0
H2214 H 0.65283 0.92144 0.33801 0.0
H2215 H 0.65919 0.90823 0.31844 0.0
H2216 H 0.70467 0.94904 0.31819 0.0
H2217 H 0.69846 0.96227 0.3379 0.0
H2218 H 0.66732 0.91862 0.29049 0.0
H2219 H 0.7136 0.91286 0.31973 0.0
H2220 H 0.7006 0.91712 0.3294 0.0
H2221 H 0.71664 0.93245 0.32081 0.0
C2222 C 0.66424 0.92755 0.33388 0.0
C2223 C 0.67516 0.94288 0.33948 0.0
C2224 C 0.66785 0.91998 0.32272 0.0
C2225 C 0.68246 0.92758 0.31701 0.0
C2226 C 0.69344 0.94285 0.32266 0.0
H2227 H 0.70692 0.90782 0.23189 0.0
H2228 H 0.70388 0.92005 0.25454 0.0
C2229 C 0.68984 0.95043 0.33385 0.0
C2230 C 0.6858 0.91991 0.30446 0.0
H2231 H 0.71002 0.9071 0.29357 0.0
C2232 C 0.67661 0.91603 0.29118 0.0
C2233 C 0.69786 0.91646 0.30546 0.0
C2234 C 0.70767 0.9198 0.31965 0.0
C2235 C 0.67933 0.90906 0.27877 0.0
C2236 C 0.69165 0.90603 0.27963 0.0
C2237 C 0.70068 0.9096 0.29296 0.0
C2238 C 0.69521 0.89914 0.26667 0.0
C2239 C 0.66897 0.90488 0.26481 0.0
C2240 C 0.69177 0.88348 0.26622 0.0
C2241 C 0.69354 0.87645 0.2533 0.0
C2242 C 0.6989 0.88504 0.2407 0.0
C2243 C 0.70297 0.90095 0.24146 0.0
C2244 C 0.70113 0.90793 0.25434 0.0
H2245 H 0.65831 0.90524 0.26681 0.0
H2246 H 0.67528 0.91339 0.25647 0.0
H2247 H 0.66564 0.89296 0.26005 0.0
H2248 H 0.68721 0.87655 0.27567 0.0
H2249 H 0.69041 0.86421 0.25304 0.0
H2250 H 0.08117 0.75272 0.30973 0.0
H2251 H 0.09365 0.7704 0.29027 0.0
H2252 H 0.05013 0.76562 0.27539 0.0
H2253 H 0.03744 0.74769 0.29489 0.0
H2254 H 0.06583 0.76125 0.25262 0.0
H2255 H 0.10468 0.81601 0.28706 0.0
H2256 H 0.10623 0.79961 0.29267 0.0
H2257 H 0.08835 0.79942 0.29425 0.0
C2258 C 0.07426 0.75554 0.30243 0.0
C2259 C 0.05832 0.74885 0.30385 0.0
C2260 C 0.08144 0.76574 0.29136 0.0
C2261 C 0.07287 0.76952 0.28154 0.0
C2262 C 0.05696 0.76294 0.28295 0.0
H2263 H 0.12259 0.83994 0.21784 0.0
H2264 H 0.1048 0.82541 0.23664 0.0
C2265 C 0.04974 0.75273 0.29409 0.0
C2266 C 0.0805 0.77957 0.26927 0.0
H2267 H 0.11143 0.81482 0.26204 0.0
C2268 C 0.07565 0.77306 0.25465 0.0
C2269 C 0.09317 0.79505 0.27193 0.0
C2270 C 0.09833 0.80301 0.28732 0.0
C2271 C 0.08367 0.78131 0.24266 0.0
C2272 C 0.09699 0.79635 0.24541 0.0
C2273 C 0.10133 0.8032 0.25996 0.0
C2274 C 0.10706 0.80483 0.23349 0.0
C2275 C 0.07789 0.77378 0.22717 0.0
C2276 C 0.1143 0.79812 0.22556 0.0
C2277 C 0.1244 0.80635 0.2148 0.0
C2278 C 0.12755 0.82152 0.21182 0.0
C2279 C 0.12025 0.8282 0.21975 0.0
C2280 C 0.11015 0.81996 0.23054 0.0
H2281 H 0.06538 0.76488 0.22657 0.0
H2282 H 0.07987 0.7827 0.21913 0.0
H2283 H 0.08417 0.76771 0.22382 0.0
H2284 H 0.11233 0.78659 0.22786 0.0
H2285 H 0.12972 0.80081 0.20881 0.0
H2286 H 0.25206 0.34675 0.33638 0.0
H2287 H 0.23621 0.34103 0.31326 0.0
H2288 H 0.23244 0.29559 0.30771 0.0
H2289 H 0.24834 0.30124 0.33082 0.0
H2290 H 0.24268 0.31381 0.28301 0.0
H2291 H 0.1897 0.3108 0.30262 0.0
H2292 H 0.20732 0.32796 0.30978 0.0
H2293 H 0.20327 0.30886 0.31472 0.0
C2294 C 0.24766 0.33544 0.33036 0.0
C2295 C 0.25145 0.32445 0.3354 0.0
C2296 C 0.23854 0.33216 0.3172 0.0
C2297 C 0.23302 0.31781 0.30888 0.0
C2298 C 0.23651 0.30668 0.31404 0.0
H2299 H 0.17411 0.28913 0.22624 0.0
H2300 H 0.18464 0.28915 0.25118 0.0
C2301 C 0.24558 0.30993 0.32724 0.0
C2302 C 0.22476 0.31504 0.29419 0.0
H2303 H 0.19319 0.31333 0.27669 0.0
C2304 C 0.23177 0.31352 0.28163 0.0
C2305 C 0.21048 0.31456 0.29245 0.0
C2306 C 0.20215 0.31549 0.30561 0.0
C2307 C 0.22518 0.31213 0.26733 0.0
C2308 C 0.21127 0.31237 0.26558 0.0
C2309 C 0.20392 0.31328 0.27812 0.0
C2310 C 0.20463 0.31241 0.25075 0.0
C2311 C 0.2332 0.3106 0.25417 0.0
C2312 C 0.21231 0.32555 0.24243 0.0
C2313 C 0.20635 0.32559 0.22829 0.0
C2314 C 0.19258 0.31246 0.22219 0.0
C2315 C 0.1848 0.29935 0.23062 0.0
C2316 C 0.19074 0.29937 0.24485 0.0
H2317 H 0.24181 0.30715 0.25736 0.0
H2318 H 0.22471 0.30178 0.24561 0.0
H2319 H 0.23933 0.32209 0.24914 0.0
H2320 H 0.22299 0.33576 0.24687 0.0
H2321 H 0.21268 0.33579 0.222 0.0
H2322 H 0.28523 0.37014 0.41356 0.0
H2323 H 0.27512 0.37462 0.43636 0.0
H2324 H 0.23424 0.32891 0.42849 0.0
H2325 H 0.24418 0.32436 0.40576 0.0
H2326 H 0.22881 0.35411 0.43688 0.0
H2327 H 0.27233 0.35159 0.47478 0.0
H2328 H 0.27964 0.36505 0.46039 0.0
H2329 H 0.26877 0.34428 0.45559 0.0
C2330 C 0.27405 0.36109 0.41666 0.0
C2331 C 0.26552 0.34687 0.40792 0.0
C2332 C 0.26834 0.36364 0.42971 0.0
C2333 C 0.25403 0.35201 0.43416 0.0
C2334 C 0.24534 0.338 0.42525 0.0
H2335 H 0.20967 0.33105 0.51568 0.0
H2336 H 0.22305 0.33245 0.49327 0.0
C2337 C 0.25105 0.33542 0.41228 0.0
C2338 C 0.24806 0.3542 0.44822 0.0
H2339 H 0.25372 0.35577 0.48581 0.0
C2340 C 0.23431 0.35463 0.44759 0.0
C2341 C 0.25522 0.3547 0.46213 0.0
C2342 C 0.26975 0.35378 0.46338 0.0
C2343 C 0.22741 0.35536 0.46055 0.0
C2344 C 0.23453 0.35579 0.47447 0.0
C2345 C 0.24837 0.35554 0.4751 0.0
C2346 C 0.22725 0.35551 0.48844 0.0
C2347 C 0.21227 0.35511 0.45926 0.0
C2348 C 0.22545 0.36815 0.49327 0.0
C2349 C 0.21779 0.36737 0.50606 0.0
C2350 C 0.21179 0.35393 0.51421 0.0
C2351 C 0.21399 0.34147 0.50953 0.0
C2352 C 0.2217 0.34229 0.4968 0.0
H2353 H 0.20693 0.35187 0.44775 0.0
H2354 H 0.204 0.34665 0.46671 0.0
H2355 H 0.21426 0.36695 0.46265 0.0
H2356 H 0.2298 0.37852 0.48705 0.0
H2357 H 0.21618 0.3771 0.50932 0.0
H2358 H 0.62941 0.92889 0.40581 0.0
H2359 H 0.62449 0.9118 0.42631 0.0
H2360 H 0.67253 0.92518 0.42992 0.0
H2361 H 0.67756 0.94232 0.40963 0.0
H2362 H 0.62943 0.8863 0.42808 0.0
H2363 H 0.6641 0.93284 0.47248 0.0
H2364 H 0.65834 0.93698 0.4549 0.0
H2365 H 0.67465 0.93415 0.45653 0.0
C2366 C 0.63892 0.92823 0.41104 0.0
C2367 C 0.65388 0.93699 0.40617 0.0
C2368 C 0.63609 0.91848 0.42272 0.0
C2369 C 0.6482 0.91744 0.42977 0.0
C2370 C 0.6631 0.92608 0.42484 0.0
H2371 H 0.65031 0.84723 0.48059 0.0
H2372 H 0.65021 0.86403 0.46155 0.0
C2373 C 0.66593 0.93579 0.41318 0.0
C2374 C 0.64527 0.90694 0.44196 0.0
H2375 H 0.65692 0.90655 0.47775 0.0
C2376 C 0.6353 0.89072 0.439 0.0
C2377 C 0.65277 0.91277 0.45624 0.0
C2378 C 0.66295 0.93015 0.46031 0.0
C2379 C 0.63313 0.88009 0.44977 0.0
C2380 C 0.64132 0.88587 0.46378 0.0
C2381 C 0.65078 0.90214 0.46694 0.0
C2382 C 0.64072 0.87523 0.47513 0.0
C2383 C 0.62214 0.86279 0.44606 0.0
C2384 C 0.63568 0.87616 0.48917 0.0
C2385 C 0.63587 0.86668 0.50013 0.0
C2386 C 0.64124 0.8562 0.49728 0.0
C2387 C 0.64622 0.85527 0.48317 0.0
C2388 C 0.64599 0.86472 0.47222 0.0
H2389 H 0.61361 0.86075 0.43681 0.0
H2390 H 0.62878 0.85715 0.44257 0.0
H2391 H 0.61582 0.85696 0.45582 0.0
H2392 H 0.6317 0.88431 0.49167 0.0
H2393 H 0.63215 0.86783 0.51094 0.0
H2394 H 0.06366 0.75312 0.3772 0.0
H2395 H 0.0792 0.76249 0.40077 0.0
H2396 H 0.08611 0.72276 0.39817 0.0
H2397 H 0.07065 0.71334 0.3745 0.0
H2398 H 0.07278 0.74594 0.42657 0.0
H2399 H 0.13012 0.76079 0.40731 0.0
H2400 H 0.11438 0.75811 0.39486 0.0
H2401 H 0.11462 0.74134 0.40151 0.0
C2402 C 0.06859 0.74644 0.38158 0.0
C2403 C 0.06596 0.73251 0.374 0.0
C2404 C 0.07745 0.75181 0.39504 0.0
C2405 C 0.08393 0.74341 0.40111 0.0
C2406 C 0.08143 0.72955 0.39353 0.0
H2407 H 0.11574 0.75159 0.4933 0.0
H2408 H 0.10333 0.74192 0.46835 0.0
C2409 C 0.07253 0.72415 0.38006 0.0
C2410 C 0.09264 0.74878 0.41574 0.0
H2411 H 0.1281 0.76187 0.43331 0.0
C2412 C 0.08488 0.74943 0.42805 0.0
C2413 C 0.10845 0.75345 0.41758 0.0
C2414 C 0.11746 0.75354 0.40462 0.0
C2415 C 0.09246 0.7545 0.44221 0.0
C2416 C 0.10817 0.75884 0.44412 0.0
C2417 C 0.11601 0.75837 0.4318 0.0
C2418 C 0.11669 0.76428 0.45883 0.0
C2419 C 0.08368 0.75544 0.45499 0.0
C2420 C 0.12868 0.7799 0.46157 0.0
C2421 C 0.13588 0.78544 0.47578 0.0
C2422 C 0.13126 0.7754 0.48747 0.0
C2423 C 0.11966 0.75958 0.48451 0.0
C2424 C 0.11246 0.75407 0.47031 0.0
H2425 H 0.07285 0.75504 0.45113 0.0
H2426 H 0.08058 0.74533 0.46184 0.0
H2427 H 0.09087 0.76641 0.46214 0.0
H2428 H 0.13216 0.78792 0.4528 0.0
H2429 H 0.14491 0.79764 0.47769 0.0
H2430 H 0.30338 0.03611 0.71551 0.0
H2431 H 0.29809 0.04972 0.73565 0.0
H2432 H 0.34265 0.09107 0.73236 0.0
H2433 H 0.34812 0.07749 0.71243 0.0
H2434 H 0.33705 0.08156 0.76076 0.0
H2435 H 0.28762 0.08476 0.73536 0.0
H2436 H 0.28519 0.06542 0.73456 0.0
H2437 H 0.29996 0.08049 0.72454 0.0
C2438 C 0.31197 0.04816 0.71898 0.0
C2439 C 0.32617 0.05574 0.71243 0.0
C2440 C 0.30889 0.05595 0.73041 0.0
C2441 C 0.3199 0.07147 0.73535 0.0
C2442 C 0.33397 0.07912 0.72865 0.0
H2443 H 0.3314 0.13794 0.80687 0.0
H2444 H 0.33275 0.12509 0.78376 0.0
C2445 C 0.33708 0.07134 0.71728 0.0
C2446 C 0.31734 0.07938 0.74825 0.0
H2447 H 0.29392 0.09242 0.76107 0.0
C2448 C 0.32767 0.08401 0.7608 0.0
C2449 C 0.30501 0.08243 0.74829 0.0
C2450 C 0.29387 0.07815 0.73493 0.0
C2451 C 0.32598 0.09154 0.77342 0.0
C2452 C 0.31376 0.09474 0.77342 0.0
C2453 C 0.3033 0.08998 0.76096 0.0
C2454 C 0.31183 0.10307 0.78635 0.0
C2455 C 0.33717 0.09583 0.78677 0.0
C2456 C 0.29928 0.09511 0.7951 0.0
C2457 C 0.29849 0.10241 0.80833 0.0
C2458 C 0.31024 0.11779 0.81296 0.0
C2459 C 0.32233 0.12599 0.80372 0.0
C2460 C 0.3231 0.1187 0.79052 0.0
H2461 H 0.34367 0.08948 0.7862 0.0
H2462 H 0.34562 0.10863 0.78734 0.0
H2463 H 0.33103 0.09317 0.79714 0.0
H2464 H 0.29047 0.08303 0.79202 0.0
H2465 H 0.28909 0.09575 0.81526 0.0
H2466 H 0.92011 0.25384 0.74513 0.0
H2467 H 0.90725 0.23611 0.7645 0.0
H2468 H 0.94646 0.22989 0.77159 0.0
H2469 H 0.95954 0.24781 0.75221 0.0
H2470 H 0.89969 0.20431 0.76635 0.0
H2471 H 0.93997 0.24372 0.81323 0.0
H2472 H 0.93926 0.25072 0.79528 0.0
H2473 H 0.94848 0.23938 0.79797 0.0
C2474 C 0.92602 0.24869 0.75078 0.0
C2475 C 0.94087 0.25227 0.7472 0.0
C2476 C 0.91864 0.23855 0.76183 0.0
C2477 C 0.92598 0.23185 0.76958 0.0
C2478 C 0.9407 0.23515 0.76588 0.0
H2479 H 0.89135 0.17407 0.84568 0.0
H2480 H 0.90721 0.18791 0.8254 0.0
C2481 C 0.94812 0.24531 0.75477 0.0
C2482 C 0.91806 0.22147 0.78154 0.0
H2483 H 0.91899 0.21959 0.8191 0.0
C2484 C 0.90396 0.20758 0.77788 0.0
C2485 C 0.92372 0.22574 0.79654 0.0
C2486 C 0.93863 0.24074 0.80109 0.0
C2487 C 0.89519 0.19798 0.78886 0.0
C2488 C 0.90054 0.20257 0.8039 0.0
C2489 C 0.91491 0.21615 0.80754 0.0
C2490 C 0.89094 0.19398 0.81604 0.0
C2491 C 0.88023 0.18306 0.78426 0.0
C2492 C 0.87666 0.19302 0.81758 0.0
C2493 C 0.86759 0.18512 0.82908 0.0
C2494 C 0.87267 0.17811 0.83935 0.0
C2495 C 0.88706 0.1792 0.83785 0.0
C2496 C 0.89615 0.18715 0.82633 0.0
H2497 H 0.88005 0.17889 0.77263 0.0
H2498 H 0.87824 0.17356 0.79159 0.0
H2499 H 0.87053 0.18535 0.78503 0.0
H2500 H 0.87255 0.19845 0.80991 0.0
H2501 H 0.85651 0.18436 0.82983 0.0
H2502 H 0.74759 0.65153 0.71647 0.0
H2503 H 0.76364 0.65718 0.73946 0.0
H2504 H 0.77126 0.70431 0.74304 0.0
H2505 H 0.75509 0.69871 0.72013 0.0
H2506 H 0.7949 0.68131 0.74831 0.0
H2507 H 0.75158 0.6853 0.78181 0.0
H2508 H 0.74713 0.67694 0.76294 0.0
H2509 H 0.75807 0.69789 0.76673 0.0
C2510 C 0.75281 0.66315 0.72207 0.0
C2511 C 0.74997 0.67464 0.71658 0.0
C2512 C 0.76198 0.66636 0.73518 0.0
C2513 C 0.76842 0.68107 0.74303 0.0
C2514 C 0.76618 0.69279 0.73724 0.0
H2515 H 0.81218 0.7103 0.83267 0.0
H2516 H 0.80323 0.71066 0.80725 0.0
C2517 C 0.757 0.6896 0.72414 0.0
C2518 C 0.77682 0.68383 0.75764 0.0
H2519 H 0.77439 0.68974 0.79458 0.0
C2520 C 0.79048 0.68323 0.75844 0.0
C2521 C 0.771 0.68634 0.7708 0.0
C2522 C 0.75608 0.68655 0.77064 0.0
C2523 C 0.79849 0.68505 0.7721 0.0
C2524 C 0.79248 0.68722 0.78529 0.0
C2525 C 0.77899 0.68813 0.78445 0.0
C2526 C 0.79946 0.68771 0.80016 0.0
C2527 C 0.81334 0.68472 0.77229 0.0
C2528 C 0.80037 0.67473 0.80457 0.0
C2529 C 0.80555 0.67452 0.81904 0.0
C2530 C 0.8098 0.68725 0.82943 0.0
C2531 C 0.80918 0.70039 0.82489 0.0
C2532 C 0.80399 0.70058 0.8104 0.0
H2533 H 0.81873 0.68784 0.76153 0.0
H2534 H 0.82174 0.69294 0.78124 0.0
H2535 H 0.81085 0.67267 0.77428 0.0
H2536 H 0.79664 0.66453 0.79695 0.0
H2537 H 0.80605 0.6643 0.82215 0.0
H2538 H 0.75184 0.6787 0.64227 0.0
H2539 H 0.76197 0.67445 0.61958 0.0
H2540 H 0.731 0.62445 0.62001 0.0
H2541 H 0.72055 0.62866 0.64267 0.0
H2542 H 0.77639 0.65755 0.61453 0.0
H2543 H 0.72248 0.63352 0.57819 0.0
H2544 H 0.72486 0.64324 0.59622 0.0
H2545 H 0.72074 0.62327 0.59459 0.0
C2546 C 0.74716 0.66679 0.63755 0.0
C2547 C 0.73535 0.65401 0.64422 0.0
C2548 C 0.75297 0.66438 0.62458 0.0
C2549 C 0.7471 0.64916 0.61799 0.0
C2550 C 0.73548 0.63632 0.62474 0.0
H2551 H 0.79473 0.62954 0.54888 0.0
H2552 H 0.78187 0.62896 0.5714 0.0
C2553 C 0.7296 0.63873 0.63773 0.0
C2554 C 0.75341 0.64691 0.60416 0.0
H2555 H 0.74394 0.63426 0.56757 0.0
C2556 C 0.76929 0.65239 0.60427 0.0
C2557 C 0.74414 0.64034 0.59076 0.0
C2558 C 0.72713 0.63487 0.58982 0.0
C2559 C 0.7762 0.6516 0.59134 0.0
C2560 C 0.7669 0.64486 0.57798 0.0
C2561 C 0.751 0.6393 0.57786 0.0
C2562 C 0.77363 0.64413 0.56389 0.0
C2563 C 0.79346 0.65846 0.59201 0.0
C2564 C 0.77276 0.65237 0.55198 0.0
C2565 C 0.77992 0.65256 0.539 0.0
C2566 C 0.78804 0.64444 0.53766 0.0
C2567 C 0.78846 0.6358 0.54946 0.0
C2568 C 0.78127 0.6356 0.56242 0.0
H2569 H 0.79927 0.66647 0.60209 0.0
H2570 H 0.79605 0.64879 0.59224 0.0
H2571 H 0.79845 0.66508 0.58212 0.0
H2572 H 0.76683 0.65895 0.55286 0.0
H2573 H 0.77918 0.65914 0.53005 0.0
H2574 H 0.3221 0.053 0.64037 0.0
H2575 H 0.3269 0.07043 0.62037 0.0
H2576 H 0.37589 0.08911 0.62783 0.0
H2577 H 0.37115 0.07143 0.64775 0.0
H2578 H 0.34351 0.10267 0.62223 0.0
H2579 H 0.36862 0.07816 0.58316 0.0
H2580 H 0.35845 0.06794 0.59879 0.0
H2581 H 0.37804 0.08391 0.60146 0.0
C2582 C 0.3339 0.06074 0.63769 0.0
C2583 C 0.34626 0.06083 0.64559 0.0
C2584 C 0.33662 0.0707 0.62628 0.0
C2585 C 0.35173 0.08094 0.62251 0.0
C2586 C 0.36412 0.08109 0.63037 0.0
H2587 H 0.37323 0.15997 0.56838 0.0
H2588 H 0.37311 0.14396 0.58834 0.0
C2589 C 0.3614 0.07105 0.64179 0.0
C2590 C 0.35439 0.09177 0.61066 0.0
H2591 H 0.36843 0.10101 0.57651 0.0
C2592 C 0.349 0.10236 0.61225 0.0
C2593 C 0.36144 0.09121 0.59761 0.0
C2594 C 0.36686 0.07961 0.59502 0.0
C2595 C 0.35034 0.11232 0.60109 0.0
C2596 C 0.35755 0.11191 0.58812 0.0
C2597 C 0.36304 0.10139 0.58654 0.0
C2598 C 0.35876 0.12172 0.57573 0.0
C2599 C 0.34355 0.12282 0.6031 0.0
C2600 C 0.35124 0.11454 0.56186 0.0
C2601 C 0.35146 0.12365 0.55038 0.0
C2602 C 0.35924 0.14014 0.55254 0.0
C2603 C 0.3672 0.14732 0.56632 0.0
C2604 C 0.36701 0.13818 0.57779 0.0
H2605 H 0.33529 0.11904 0.61195 0.0
H2606 H 0.35297 0.13502 0.60627 0.0
H2607 H 0.33749 0.12295 0.59264 0.0
H2608 H 0.3449 0.10185 0.56002 0.0
H2609 H 0.34546 0.11777 0.53982 0.0
H2610 H 0.92943 0.28564 0.67618 0.0
H2611 H 0.91344 0.27536 0.65285 0.0
H2612 H 0.91792 0.23414 0.6529 0.0
H2613 H 0.93385 0.24429 0.67624 0.0
H2614 H 0.92315 0.26805 0.62619 0.0
H2615 H 0.87108 0.21608 0.64452 0.0
H2616 H 0.88494 0.23198 0.65728 0.0
H2617 H 0.889 0.21727 0.65014 0.0
C2618 C 0.92686 0.2743 0.6713 0.0
C2619 C 0.93287 0.26575 0.67802 0.0
C2620 C 0.91774 0.26846 0.65799 0.0
C2621 C 0.91434 0.25391 0.65127 0.0
C2622 C 0.92016 0.24525 0.65806 0.0
H2623 H 0.87367 0.19953 0.56891 0.0
H2624 H 0.88467 0.20979 0.59416 0.0
C2625 C 0.92933 0.25111 0.67134 0.0
C2626 C 0.90564 0.24827 0.63666 0.0
H2627 H 0.87339 0.21771 0.61848 0.0
C2628 C 0.91218 0.25714 0.6245 0.0
C2629 C 0.89137 0.23401 0.63454 0.0
C2630 C 0.88358 0.22432 0.64732 0.0
C2631 C 0.90512 0.25185 0.61015 0.0
C2632 C 0.89095 0.23746 0.60797 0.0
C2633 C 0.88425 0.22874 0.62019 0.0
C2634 C 0.88332 0.23092 0.593 0.0
C2635 C 0.91323 0.26139 0.59737 0.0
C2636 C 0.87856 0.23921 0.5841 0.0
C2637 C 0.87245 0.23348 0.56958 0.0
C2638 C 0.87086 0.21926 0.56375 0.0
C2639 C 0.87503 0.21067 0.57295 0.0
C2640 C 0.88119 0.21644 0.58742 0.0
H2641 H 0.9256 0.26998 0.60047 0.0
H2642 H 0.91249 0.25366 0.58774 0.0
H2643 H 0.90761 0.26807 0.59389 0.0
H2644 H 0.87982 0.25026 0.58829 0.0
H2645 H 0.86941 0.24043 0.56278 0.0
H2646 H 0.31637 0.26267 0.66405 0.0
H2647 H 0.32215 0.25002 0.64349 0.0
H2648 H 0.37088 0.28081 0.65422 0.0
H2649 H 0.36522 0.29367 0.67483 0.0
H2650 H 0.34317 0.26883 0.61922 0.0
H2651 H 0.36148 0.23293 0.65072 0.0
H2652 H 0.34864 0.23895 0.65806 0.0
H2653 H 0.3687 0.25311 0.65716 0.0
C2654 C 0.32833 0.2667 0.6621 0.0
C2655 C 0.34036 0.27917 0.67103 0.0
C2656 C 0.33159 0.25947 0.65036 0.0
C2657 C 0.34691 0.26445 0.64745 0.0
C2658 C 0.35898 0.27675 0.65642 0.0
H2659 H 0.3808 0.22711 0.57834 0.0
H2660 H 0.3792 0.24123 0.60049 0.0
C2661 C 0.35573 0.28409 0.66813 0.0
C2662 C 0.35015 0.25715 0.63458 0.0
H2663 H 0.36115 0.23068 0.62469 0.0
C2664 C 0.34717 0.26054 0.62038 0.0
C2665 C 0.35552 0.24651 0.63622 0.0
C2666 C 0.35876 0.24253 0.65133 0.0
C2667 C 0.34925 0.25338 0.60769 0.0
C2668 C 0.35401 0.24221 0.60928 0.0
C2669 C 0.35741 0.23916 0.62352 0.0
C2670 C 0.35493 0.23318 0.59629 0.0
C2671 C 0.34639 0.25792 0.59269 0.0
C2672 C 0.34174 0.22369 0.58683 0.0
C2673 C 0.34264 0.21578 0.57414 0.0
C2674 C 0.35673 0.217 0.57074 0.0
C2675 C 0.36983 0.22609 0.58053 0.0
C2676 C 0.36892 0.23408 0.59322 0.0
H2677 H 0.3475 0.26971 0.5934 0.0
H2678 H 0.35456 0.25797 0.58475 0.0
H2679 H 0.33447 0.24928 0.58823 0.0
H2680 H 0.33075 0.22258 0.58915 0.0
H2681 H 0.33237 0.20907 0.56678 0.0
H2682 H 0.74849 0.0801 0.63806 0.0
H2683 H 0.76126 0.09757 0.6185 0.0
H2684 H 0.71898 0.09649 0.60559 0.0
H2685 H 0.70603 0.07885 0.6252 0.0
H2686 H 0.73337 0.09081 0.58184 0.0
H2687 H 0.77483 0.14431 0.61673 0.0
H2688 H 0.77509 0.12701 0.62167 0.0
H2689 H 0.758 0.12822 0.62386 0.0
C2690 C 0.74193 0.08367 0.63115 0.0
C2691 C 0.72627 0.07814 0.63318 0.0
C2692 C 0.74927 0.09373 0.62003 0.0
C2693 C 0.74113 0.0985 0.61075 0.0
C2694 C 0.72549 0.09303 0.61273 0.0
H2695 H 0.79013 0.1695 0.54748 0.0
H2696 H 0.77279 0.15477 0.56651 0.0
C2697 C 0.71812 0.08298 0.62392 0.0
C2698 C 0.74887 0.10857 0.59854 0.0
H2699 H 0.78031 0.14342 0.59131 0.0
C2700 C 0.74351 0.1024 0.58389 0.0
C2701 C 0.76197 0.12376 0.60124 0.0
C2702 C 0.76774 0.1313 0.61673 0.0
C2703 C 0.75136 0.11074 0.57188 0.0
C2704 C 0.76501 0.12552 0.57462 0.0
C2705 C 0.76993 0.13201 0.58924 0.0
C2706 C 0.77477 0.1341 0.56256 0.0
C2707 C 0.74507 0.1036 0.55636 0.0
C2708 C 0.78167 0.12739 0.55411 0.0
C2709 C 0.79153 0.13574 0.54325 0.0
C2710 C 0.79475 0.15102 0.54066 0.0
C2711 C 0.78774 0.15769 0.54909 0.0
C2712 C 0.7779 0.14933 0.56 0.0
H2713 H 0.73254 0.09478 0.55597 0.0
H2714 H 0.7469 0.11277 0.54867 0.0
H2715 H 0.75115 0.09753 0.55236 0.0
H2716 H 0.77964 0.11577 0.5561 0.0
H2717 H 0.79665 0.13023 0.53687 0.0
H2718 H 0.92321 0.68468 0.66648 0.0
H2719 H 0.90762 0.67962 0.64331 0.0
H2720 H 0.89601 0.63111 0.64122 0.0
H2721 H 0.91148 0.63604 0.66448 0.0
H2722 H 0.9129 0.669 0.61629 0.0
H2723 H 0.85395 0.62819 0.63319 0.0
H2724 H 0.86999 0.64041 0.64641 0.0
H2725 H 0.86808 0.62272 0.63784 0.0
C2726 C 0.91718 0.67289 0.66118 0.0
C2727 C 0.91855 0.66075 0.66729 0.0
C2728 C 0.9083 0.67002 0.64795 0.0
C2729 C 0.90054 0.65496 0.64064 0.0
C2730 C 0.90167 0.64275 0.64683 0.0
H2731 H 0.87021 0.63417 0.54729 0.0
H2732 H 0.8815 0.63557 0.5721 0.0
C2733 C 0.91058 0.64561 0.66007 0.0
C2734 C 0.89218 0.65236 0.62604 0.0
H2735 H 0.85667 0.63158 0.60743 0.0
C2736 C 0.90061 0.66084 0.61435 0.0
C2737 C 0.87612 0.64179 0.62361 0.0
C2738 C 0.86643 0.63284 0.63594 0.0
C2739 C 0.89344 0.65894 0.60023 0.0
C2740 C 0.87746 0.6481 0.59769 0.0
C2741 C 0.86896 0.63975 0.60941 0.0
C2742 C 0.86939 0.64567 0.58297 0.0
C2743 C 0.90299 0.66874 0.58818 0.0
C2744 C 0.85841 0.65034 0.58099 0.0
C2745 C 0.85185 0.64945 0.56684 0.0
C2746 C 0.85609 0.64379 0.55446 0.0
C2747 C 0.8666 0.63847 0.55661 0.0
C2748 C 0.87317 0.63939 0.57075 0.0
H2749 H 0.91418 0.67888 0.59274 0.0
H2750 H 0.90547 0.66134 0.58053 0.0
H2751 H 0.89663 0.67323 0.58166 0.0
H2752 H 0.85529 0.65513 0.59032 0.0
H2753 H 0.84363 0.65343 0.56556 0.0
H2754 H 0.9079 0.66311 0.73521 0.0
H2755 H 0.89785 0.66725 0.75801 0.0
H2756 H 0.9431 0.70581 0.77256 0.0
H2757 H 0.9532 0.70191 0.74954 0.0
H2758 H 0.90727 0.66474 0.78605 0.0
H2759 H 0.91562 0.7244 0.78055 0.0
H2760 H 0.91656 0.71281 0.76511 0.0
H2761 H 0.93259 0.72295 0.77864 0.0
C2762 C 0.91568 0.67261 0.74316 0.0
C2763 C 0.93134 0.6822 0.74059 0.0
C2764 C 0.90992 0.67495 0.7562 0.0
C2765 C 0.91969 0.68691 0.76694 0.0
C2766 C 0.93529 0.6967 0.76431 0.0
H2767 H 0.89844 0.70109 0.85748 0.0
H2768 H 0.91244 0.70239 0.83546 0.0
C2769 C 0.94106 0.69442 0.75119 0.0
C2770 C 0.91359 0.68836 0.7812 0.0
H2771 H 0.90647 0.71274 0.8031 0.0
C2772 C 0.90714 0.67526 0.78978 0.0
C2773 C 0.91349 0.70212 0.78608 0.0
C2774 C 0.91981 0.71634 0.77708 0.0
C2775 C 0.90041 0.67547 0.80299 0.0
C2776 C 0.90008 0.6891 0.80772 0.0
C2777 C 0.90683 0.70235 0.79939 0.0
C2778 C 0.89185 0.68929 0.82081 0.0
C2779 C 0.89346 0.66107 0.81176 0.0
C2780 C 0.87571 0.68168 0.81971 0.0
C2781 C 0.86771 0.681 0.83217 0.0
C2782 C 0.8757 0.68786 0.84601 0.0
C2783 C 0.89194 0.69578 0.84698 0.0
C2784 C 0.89996 0.6965 0.83445 0.0
H2785 H 0.89655 0.65228 0.80774 0.0
H2786 H 0.89737 0.6644 0.82366 0.0
H2787 H 0.8807 0.65547 0.81084 0.0
H2788 H 0.8693 0.67613 0.80922 0.0
H2789 H 0.85523 0.67512 0.83094 0.0
H2790 H 0.29435 0.26288 0.73712 0.0
H2791 H 0.28875 0.24522 0.75729 0.0
H2792 H 0.33693 0.25957 0.76303 0.0
H2793 H 0.34262 0.27708 0.74291 0.0
H2794 H 0.30281 0.22062 0.75859 0.0
H2795 H 0.31694 0.26557 0.805 0.0
H2796 H 0.30904 0.26649 0.78705 0.0
H2797 H 0.32871 0.27115 0.78933 0.0
C2798 C 0.30373 0.26226 0.74269 0.0
C2799 C 0.31892 0.27135 0.73845 0.0
C2800 C 0.30051 0.25218 0.75416 0.0
C2801 C 0.31246 0.2512 0.76159 0.0
C2802 C 0.3276 0.26025 0.7574 0.0
H2803 H 0.33148 0.21151 0.83523 0.0
H2804 H 0.3307 0.22721 0.81548 0.0
C2805 C 0.33081 0.27022 0.74591 0.0
C2806 C 0.30932 0.24066 0.7737 0.0
H2807 H 0.31307 0.24091 0.81129 0.0
C2808 C 0.3048 0.22491 0.77014 0.0
C2809 C 0.3121 0.24646 0.78867 0.0
C2810 C 0.31692 0.26333 0.79287 0.0
C2811 C 0.30355 0.21488 0.78124 0.0
C2812 C 0.30661 0.22075 0.79626 0.0
C2813 C 0.3107 0.23643 0.79979 0.0
C2814 C 0.30671 0.21119 0.80842 0.0
C2815 C 0.2997 0.19834 0.77673 0.0
C2816 C 0.29342 0.19705 0.81115 0.0
C2817 C 0.29389 0.1879 0.82233 0.0
C2818 C 0.30764 0.19281 0.83106 0.0
C2819 C 0.3208 0.2072 0.82853 0.0
C2820 C 0.32033 0.21628 0.81733 0.0
H2821 H 0.30119 0.19687 0.76479 0.0
H2822 H 0.30707 0.19507 0.78333 0.0
H2823 H 0.28749 0.19003 0.77877 0.0
H2824 H 0.2827 0.19305 0.8046 0.0
H2825 H 0.28357 0.17686 0.82393 0.0
H2826 H 0.74337 0.04742 0.70047 0.0
H2827 H 0.75986 0.0571 0.72355 0.0
H2828 H 0.74468 0.09031 0.73225 0.0
H2829 H 0.72855 0.08102 0.70906 0.0
H2830 H 0.77566 0.10358 0.73774 0.0
H2831 H 0.74485 0.04713 0.76469 0.0
H2832 H 0.75236 0.04589 0.74734 0.0
H2833 H 0.73725 0.05058 0.74781 0.0
C2834 C 0.74359 0.05681 0.70731 0.0
C2835 C 0.73462 0.06342 0.70302 0.0
C2836 C 0.75294 0.06226 0.72052 0.0
C2837 C 0.75328 0.07423 0.72975 0.0
C2838 C 0.74455 0.08102 0.72532 0.0
H2839 H 0.78298 0.1184 0.81647 0.0
H2840 H 0.77248 0.10894 0.79103 0.0
C2841 C 0.73532 0.07569 0.71208 0.0
C2842 C 0.76264 0.07976 0.74409 0.0
H2843 H 0.7664 0.06813 0.77825 0.0
C2844 C 0.77369 0.0958 0.74656 0.0
C2845 C 0.76007 0.06958 0.75559 0.0
C2846 C 0.74791 0.05236 0.75383 0.0
C2847 C 0.78202 0.102 0.76031 0.0
C2848 C 0.77919 0.09189 0.77186 0.0
C2849 C 0.76855 0.07578 0.76929 0.0
C2850 C 0.78619 0.09808 0.78703 0.0
C2851 C 0.79361 0.11934 0.76252 0.0
C2852 C 0.79731 0.09499 0.7932 0.0
C2853 C 0.80355 0.1006 0.80772 0.0
C2854 C 0.79862 0.10923 0.81636 0.0
C2855 C 0.78736 0.11215 0.81008 0.0
C2856 C 0.78125 0.10667 0.79556 0.0
H2857 H 0.79677 0.12491 0.75181 0.0
H2858 H 0.78861 0.12523 0.76907 0.0
H2859 H 0.80425 0.12138 0.76878 0.0
H2860 H 0.80119 0.0883 0.78675 0.0
H2861 H 0.8123 0.09825 0.81215 0.0
H2862 H 0.05265 0.3604 0.02398 0.0
H2863 H 0.06909 0.35368 0.03895 0.0
H2864 H 0.03428 0.33419 0.07061 0.0
H2865 H 0.0177 0.34046 0.05555 0.0
H2866 H 0.08138 0.36346 0.06695 0.0
H2867 H 0.04285 0.29885 0.06317 0.0
H2868 H 0.0397 0.31146 0.05144 0.0
H2869 H 0.03346 0.30899 0.07001 0.0
C2870 C 0.04849 0.35459 0.03408 0.0
C2871 C 0.03386 0.35086 0.03855 0.0
C2872 C 0.05788 0.35076 0.04262 0.0
C2873 C 0.05278 0.34315 0.05575 0.0
C2874 C 0.03828 0.33965 0.06032 0.0
H2875 H 0.11059 0.3416 0.12846 0.0
H2876 H 0.09361 0.34637 0.11213 0.0
C2877 C 0.02886 0.34335 0.05175 0.0
C2878 C 0.06284 0.33937 0.06499 0.0
H2879 H 0.06367 0.30947 0.08186 0.0
C2880 C 0.07756 0.35164 0.07012 0.0
C2881 C 0.05793 0.32389 0.06894 0.0
C2882 C 0.04269 0.31002 0.06297 0.0
C2883 C 0.08736 0.34893 0.07941 0.0
C2884 C 0.08213 0.3336 0.08399 0.0
C2885 C 0.06757 0.32126 0.07854 0.0
C2886 C 0.09169 0.3301 0.09425 0.0
C2887 C 0.10331 0.36248 0.08402 0.0
C2888 C 0.09566 0.31885 0.0899 0.0
C2889 C 0.10516 0.31594 0.09929 0.0
C2890 C 0.11087 0.32425 0.11321 0.0
C2891 C 0.1065 0.33517 0.11772 0.0
C2892 C 0.09688 0.33796 0.10838 0.0
H2893 H 0.10708 0.372 0.07627 0.0
H2894 H 0.10323 0.36751 0.09517 0.0
H2895 H 0.11192 0.35858 0.08453 0.0
H2896 H 0.09171 0.31259 0.07908 0.0
H2897 H 0.10848 0.30759 0.09545 0.0
H2898 H 0.65887 0.66072 0.09159 0.0
H2899 H 0.66618 0.68538 0.10584 0.0
H2900 H 0.63384 0.69127 0.07814 0.0
H2901 H 0.6263 0.66652 0.064 0.0
H2902 H 0.67863 0.7153 0.09587 0.0
H2903 H 0.62255 0.697 0.11978 0.0
H2904 H 0.62708 0.68309 0.11126 0.0
H2905 H 0.62098 0.69381 0.09998 0.0
C2906 C 0.65325 0.66723 0.0886 0.0
C2907 C 0.64196 0.66167 0.07674 0.0
C2908 C 0.65745 0.6813 0.09674 0.0
C2909 C 0.65038 0.69001 0.09318 0.0
C2910 C 0.63919 0.68455 0.08127 0.0
H2911 H 0.65974 0.77893 0.11914 0.0
H2912 H 0.65356 0.75343 0.10766 0.0
C2913 C 0.63495 0.67046 0.07315 0.0
C2914 C 0.65505 0.70507 0.10162 0.0
H2915 H 0.641 0.72446 0.12184 0.0
C2916 C 0.67046 0.71728 0.10168 0.0
C2917 C 0.64435 0.70756 0.10923 0.0
C2918 C 0.62785 0.69463 0.11021 0.0
C2919 C 0.67534 0.73214 0.10871 0.0
C2920 C 0.66454 0.73472 0.11598 0.0
C2921 C 0.64922 0.72242 0.11619 0.0
C2922 C 0.6687 0.75029 0.12293 0.0
C2923 C 0.69185 0.7451 0.10789 0.0
C2924 C 0.67926 0.75694 0.13536 0.0
C2925 C 0.68276 0.7715 0.14202 0.0
C2926 C 0.67568 0.77958 0.1364 0.0
C2927 C 0.6652 0.77289 0.12389 0.0
C2928 C 0.66171 0.75836 0.11726 0.0
H2929 H 0.69788 0.74206 0.0995 0.0
H2930 H 0.69237 0.75621 0.10516 0.0
H2931 H 0.69817 0.74721 0.11884 0.0
H2932 H 0.68459 0.75075 0.14002 0.0
H2933 H 0.69075 0.77627 0.15174 0.0
H2934 H 0.34138 0.98598 0.04773 0.0
H2935 H 0.31801 0.96963 0.06023 0.0
H2936 H 0.30972 0.92899 0.03282 0.0
H2937 H 0.33342 0.94533 0.02037 0.0
H2938 H 0.28784 0.95188 0.04878 0.0
H2939 H 0.30762 0.91432 0.07463 0.0
H2940 H 0.32066 0.93224 0.06637 0.0
H2941 H 0.30815 0.9147 0.05484 0.0
C2942 C 0.33462 0.97356 0.04435 0.0
C2943 C 0.33928 0.96691 0.03312 0.0
C2944 C 0.32124 0.96424 0.0515 0.0
C2945 C 0.31223 0.94807 0.04759 0.0
C2946 C 0.31668 0.94139 0.0362 0.0
H2947 H 0.22952 0.87951 0.08912 0.0
H2948 H 0.24977 0.89203 0.07183 0.0
C2949 C 0.33015 0.95074 0.02905 0.0
C2950 C 0.2982 0.93841 0.05556 0.0
H2951 H 0.28264 0.90911 0.07933 0.0
C2952 C 0.28666 0.94246 0.05538 0.0
C2953 C 0.29668 0.92611 0.06415 0.0
C2954 C 0.30897 0.92161 0.06516 0.0
C2955 C 0.27376 0.93472 0.06377 0.0
C2956 C 0.27247 0.92275 0.07268 0.0
C2957 C 0.28372 0.91832 0.07248 0.0
C2958 C 0.25995 0.91526 0.08287 0.0
C2959 C 0.26166 0.93948 0.06313 0.0
C2960 C 0.25909 0.92417 0.09486 0.0
C2961 C 0.24767 0.91706 0.10485 0.0
C2962 C 0.23687 0.90085 0.10305 0.0
C2963 C 0.23775 0.89197 0.09095 0.0
C2964 C 0.24925 0.8991 0.08101 0.0
H2965 H 0.26224 0.9458 0.05309 0.0
H2966 H 0.2499 0.92905 0.06323 0.0
H2967 H 0.26355 0.94746 0.07298 0.0
H2968 H 0.26745 0.93661 0.09665 0.0
H2969 H 0.24752 0.92419 0.11418 0.0
H2970 H 0.37823 0.04449 0.01659 0.0
H2971 H 0.36979 0.06205 0.00706 0.0
H2972 H 0.35225 0.03288 0.96619 0.0
H2973 H 0.36017 0.01509 0.9758 0.0
H2974 H 0.37757 0.07954 0.9838 0.0
H2975 H 0.31529 0.03572 0.97676 0.0
H2976 H 0.32887 0.03207 0.98686 0.0
H2977 H 0.32634 0.02908 0.96696 0.0
C2978 C 0.37255 0.04184 0.00558 0.0
C2979 C 0.36973 0.02837 0.99697 0.0
C2980 C 0.36771 0.05185 0.00017 0.0
C2981 C 0.36004 0.04856 0.98606 0.0
C2982 C 0.35768 0.03538 0.97729 0.0
H2983 H 0.35232 0.11029 0.92746 0.0
H2984 H 0.36011 0.09519 0.94254 0.0
C2985 C 0.36234 0.0253 0.98275 0.0
C2986 C 0.35485 0.05909 0.98024 0.0
H2987 H 0.32384 0.05892 0.96334 0.0
C2988 C 0.36578 0.07508 0.9795 0.0
C2989 C 0.33938 0.05337 0.97496 0.0
C2990 C 0.32677 0.03666 0.97658 0.0
C2991 C 0.36182 0.08533 0.97295 0.0
C2992 C 0.34664 0.0793 0.96659 0.0
C2993 C 0.33554 0.0635 0.96799 0.0
C2994 C 0.34218 0.08895 0.95783 0.0
C2995 C 0.37396 0.10249 0.97296 0.0
C2996 C 0.32917 0.09004 0.96108 0.0
C2997 C 0.32453 0.09844 0.95229 0.0
C2998 C 0.33288 0.10597 0.94016 0.0
C2999 C 0.34587 0.10486 0.93693 0.0
C3000 C 0.35038 0.09631 0.94559 0.0
H3001 H 0.38266 0.1061 0.98244 0.0
H3002 H 0.38011 0.10451 0.96264 0.0
H3003 H 0.36877 0.11011 0.97353 0.0
H3004 H 0.32259 0.08434 0.97039 0.0
H3005 H 0.31449 0.09915 0.95501 0.0
H3006 H 0.9549 0.31412 0.00387 0.0
H3007 H 0.93674 0.28945 0.98972 0.0
H3008 H 0.97298 0.29445 0.96243 0.0
H3009 H 0.99125 0.31902 0.97665 0.0
H3010 H 0.92881 0.28576 0.95925 0.0
H3011 H 0.95415 0.24916 0.97466 0.0
H3012 H 0.95909 0.26734 0.98492 0.0
H3013 H 0.96738 0.26767 0.96762 0.0
C3014 C 0.95902 0.30989 0.99494 0.0
C3015 C 0.97449 0.31846 0.99138 0.0
C3016 C 0.94865 0.29582 0.98687 0.0
C3017 C 0.95357 0.29004 0.97516 0.0
C3018 C 0.96902 0.29854 0.97161 0.0
H3019 H 0.90231 0.20827 0.91193 0.0
H3020 H 0.92272 0.23243 0.9254 0.0
C3021 C 0.97942 0.31262 0.97969 0.0
C3022 C 0.94232 0.27552 0.96623 0.0
H3023 H 0.93345 0.23801 0.95619 0.0
C3024 C 0.92981 0.27531 0.9586 0.0
C3025 C 0.94375 0.26197 0.96532 0.0
C3026 C 0.95674 0.26142 0.97365 0.0
C3027 C 0.91864 0.26189 0.95006 0.0
C3028 C 0.9199 0.24824 0.94936 0.0
C3029 C 0.93255 0.24851 0.95677 0.0
C3030 C 0.90781 0.2334 0.94149 0.0
C3031 C 0.90564 0.26246 0.94178 0.0
C3032 C 0.89281 0.22582 0.94631 0.0
C3033 C 0.88121 0.21207 0.93871 0.0
C3034 C 0.88438 0.20559 0.92616 0.0
C3035 C 0.89953 0.21297 0.92158 0.0
C3036 C 0.91117 0.22677 0.92922 0.0
H3037 H 0.90854 0.27474 0.94023 0.0
H3038 H 0.90276 0.25594 0.93075 0.0
H3039 H 0.89521 0.25687 0.94819 0.0
H3040 H 0.89009 0.23056 0.95597 0.0
H3041 H 0.86974 0.20646 0.94274 0.0
H3042 H 0.66933 0.65033 0.0187 0.0
H3043 H 0.69216 0.65731 0.00511 0.0
H3044 H 0.69858 0.62283 0.02702 0.0
H3045 H 0.67542 0.61549 0.04047 0.0
H3046 H 0.72216 0.66885 0.0152 0.0
H3047 H 0.69921 0.6111 0.98363 0.0
H3048 H 0.68708 0.61618 0.99382 0.0
H3049 H 0.6991 0.61025 0.00339 0.0
C3050 C 0.67557 0.64419 0.02062 0.0
C3051 C 0.67054 0.63229 0.03058 0.0
C3052 C 0.68864 0.64822 0.01286 0.0
C3053 C 0.69695 0.64045 0.01489 0.0
C3054 C 0.69214 0.62875 0.02505 0.0
H3055 H 0.77802 0.65224 0.97179 0.0
H3056 H 0.75756 0.64521 0.98883 0.0
C3057 C 0.67897 0.62463 0.03278 0.0
C3058 C 0.71065 0.64475 0.00633 0.0
H3059 H 0.72498 0.63047 0.98027 0.0
C3060 C 0.72279 0.66045 0.00759 0.0
C3061 C 0.71145 0.63377 0.9964 0.0
C3062 C 0.69848 0.61691 0.99408 0.0
C3063 C 0.73567 0.66547 0.99913 0.0
C3064 C 0.73634 0.65454 0.98908 0.0
C3065 C 0.72439 0.63879 0.98803 0.0
C3066 C 0.74909 0.65932 0.97914 0.0
C3067 C 0.74847 0.68242 0.00103 0.0
C3068 C 0.75101 0.66952 0.96803 0.0
C3069 C 0.76258 0.67344 0.95817 0.0
C3070 C 0.77241 0.66719 0.95924 0.0
C3071 C 0.77052 0.65709 0.97052 0.0
C3072 C 0.75891 0.65313 0.98032 0.0
H3073 H 0.74801 0.68832 0.01155 0.0
H3074 H 0.75994 0.68334 0.00083 0.0
H3075 H 0.74734 0.68884 0.99174 0.0
H3076 H 0.74335 0.67419 0.96678 0.0
H3077 H 0.76353 0.68103 0.94947 0.0
H3078 H 0.94585 0.63361 0.02436 0.0
H3079 H 0.92895 0.63874 0.00817 0.0
H3080 H 0.96693 0.66585 0.98136 0.0
H3081 H 0.98383 0.66078 0.99738 0.0
H3082 H 0.93328 0.66908 0.00076 0.0
H3083 H 0.93188 0.63263 0.95163 0.0
H3084 H 0.93776 0.63055 0.97009 0.0
H3085 H 0.95083 0.64655 0.95974 0.0
C3086 C 0.95058 0.64065 0.01501 0.0
C3087 C 0.96614 0.64673 0.01209 0.0
C3088 C 0.94093 0.64358 0.0058 0.0
C3089 C 0.94667 0.65249 0.99348 0.0
C3090 C 0.96223 0.65874 0.99068 0.0
H3091 H 0.90916 0.6966 0.93807 0.0
H3092 H 0.92548 0.69073 0.95418 0.0
C3093 C 0.97188 0.65588 0.99988 0.0
C3094 C 0.93648 0.65545 0.98359 0.0
H3095 H 0.92098 0.64882 0.94801 0.0
C3096 C 0.93054 0.66462 0.98925 0.0
C3097 C 0.93287 0.64951 0.96861 0.0
C3098 C 0.93854 0.63915 0.96214 0.0
C3099 C 0.92129 0.66827 0.98018 0.0
C3100 C 0.91801 0.66265 0.96512 0.0
C3101 C 0.92369 0.65323 0.95954 0.0
C3102 C 0.90836 0.66615 0.95508 0.0
C3103 C 0.91497 0.678 0.98676 0.0
C3104 C 0.89348 0.6542 0.95009 0.0
C3105 C 0.88409 0.65752 0.94102 0.0
C3106 C 0.88947 0.67285 0.93662 0.0
C3107 C 0.90457 0.68473 0.94138 0.0
C3108 C 0.91393 0.6814 0.95055 0.0
H3109 H 0.91649 0.67928 0.99904 0.0
H3110 H 0.92108 0.6899 0.98254 0.0
H3111 H 0.90251 0.67261 0.98336 0.0
H3112 H 0.88902 0.64236 0.95349 0.0
H3113 H 0.87243 0.64814 0.93782 0.0
H3114 H 0.33205 0.33072 0.97394 0.0
H3115 H 0.32272 0.30508 0.96074 0.0
H3116 H 0.36837 0.31134 0.96605 0.0
H3117 H 0.37761 0.3367 0.97974 0.0
H3118 H 0.33039 0.2971 0.93561 0.0
H3119 H 0.34317 0.26857 0.98092 0.0
H3120 H 0.34406 0.2872 0.98387 0.0
H3121 H 0.36003 0.2863 0.97654 0.0
C3122 C 0.34007 0.32657 0.97236 0.0
C3123 C 0.35552 0.33562 0.97796 0.0
C3124 C 0.33473 0.31193 0.96481 0.0
C3125 C 0.34477 0.30614 0.96265 0.0
C3126 C 0.3603 0.31534 0.96796 0.0
H3127 H 0.33192 0.23351 0.8972 0.0
H3128 H 0.33788 0.25807 0.91058 0.0
C3129 C 0.3656 0.32988 0.9757 0.0
C3130 C 0.33908 0.29065 0.95454 0.0
H3131 H 0.33757 0.25549 0.95678 0.0
C3132 C 0.33184 0.28794 0.94028 0.0
C3133 C 0.3407 0.27859 0.96074 0.0
C3134 C 0.34726 0.28023 0.97642 0.0
C3135 C 0.32652 0.27365 0.93192 0.0
C3136 C 0.32895 0.26194 0.9378 0.0
C3137 C 0.33585 0.26452 0.95219 0.0
C3138 C 0.32462 0.24699 0.92925 0.0
C3139 C 0.31816 0.2712 0.91698 0.0
C3140 C 0.31545 0.23257 0.9354 0.0
C3141 C 0.3124 0.21852 0.92797 0.0
C3142 C 0.31838 0.21856 0.91416 0.0
C3143 C 0.32726 0.23302 0.90787 0.0
C3144 C 0.33048 0.24709 0.91541 0.0
H3145 H 0.3128 0.27865 0.91633 0.0
H3146 H 0.32654 0.27457 0.90828 0.0
H3147 H 0.30902 0.25872 0.91453 0.0
H3148 H 0.31089 0.23221 0.94611 0.0
H3149 H 0.30578 0.20768 0.93332 0.0
H3150 H 0.66701 0.05379 0.02978 0.0
H3151 H 0.69045 0.06962 0.01677 0.0
H3152 H 0.68088 0.02839 0.98958 0.0
H3153 H 0.65773 0.01256 0.00256 0.0
H3154 H 0.71154 0.0462 0.00077 0.0
H3155 H 0.69122 0.08302 0.97424 0.0
H3156 H 0.691 0.08293 0.99407 0.0
H3157 H 0.67834 0.06525 0.9828 0.0
C3158 C 0.66994 0.04814 0.02102 0.0
C3159 C 0.66051 0.03196 0.01714 0.0
C3160 C 0.68327 0.05719 0.01358 0.0
C3161 C 0.68729 0.05018 0.00211 0.0
C3162 C 0.67798 0.03402 0.99838 0.0
H3163 H 0.74218 0.08417 0.92812 0.0
H3164 H 0.72232 0.07263 0.94587 0.0
C3165 C 0.66473 0.025 0.0058 0.0
C3166 C 0.7011 0.05951 0.99379 0.0
H3167 H 0.71582 0.08765 0.96883 0.0
C3168 C 0.71258 0.05538 0.99389 0.0
C3169 C 0.70231 0.07136 0.98473 0.0
C3170 C 0.69004 0.07588 0.9838 0.0
C3171 C 0.72507 0.06251 0.9849 0.0
C3172 C 0.7262 0.07427 0.97575 0.0
C3173 C 0.71492 0.07867 0.97591 0.0
C3174 C 0.73843 0.08141 0.96519 0.0
C3175 C 0.73655 0.05693 0.9848 0.0
C3176 C 0.75407 0.09023 0.97019 0.0
C3177 C 0.76546 0.09681 0.96006 0.0
C3178 C 0.76137 0.09482 0.94477 0.0
C3179 C 0.74568 0.08604 0.93983 0.0
C3180 C 0.73433 0.07943 0.94995 0.0
H3181 H 0.7322 0.04557 0.98998 0.0
H3182 H 0.73936 0.0555 0.97331 0.0
H3183 H 0.74738 0.06579 0.99112 0.0
H3184 H 0.75745 0.09214 0.98193 0.0
H3185 H 0.77743 0.10373 0.9642 0.0
H3186 H 0.65057 0.99054 0.0709 0.0
H3187 H 0.65845 0.97297 0.08116 0.0
H3188 H 0.62405 0.93454 0.05197 0.0
H3189 H 0.61591 0.95207 0.04175 0.0
H3190 H 0.6238 0.92678 0.08081 0.0
H3191 H 0.68332 0.95532 0.06255 0.0
H3192 H 0.67937 0.96892 0.07239 0.0
H3193 H 0.66891 0.95938 0.05496 0.0
C3194 C 0.64472 0.97837 0.0666 0.0
C3195 C 0.63264 0.97267 0.0555 0.0
C3196 C 0.64932 0.96838 0.0724 0.0
C3197 C 0.64205 0.95254 0.06711 0.0
C3198 C 0.6299 0.94677 0.05609 0.0
H3199 H 0.67631 0.89134 0.09699 0.0
H3200 H 0.66799 0.90561 0.08108 0.0
C3201 C 0.62526 0.95677 0.05029 0.0
C3202 C 0.64661 0.9419 0.07374 0.0
H3203 H 0.6778 0.9379 0.08214 0.0
C3204 C 0.63556 0.92908 0.08093 0.0
C3205 C 0.66189 0.94476 0.07368 0.0
C3206 C 0.67402 0.95775 0.06534 0.0
C3207 C 0.63956 0.91952 0.08871 0.0
C3208 C 0.65508 0.92305 0.0895 0.0
C3209 C 0.66596 0.93536 0.08168 0.0
C3210 C 0.66035 0.91461 0.09902 0.0
C3211 C 0.62718 0.90581 0.09615 0.0
C3212 C 0.65915 0.9153 0.11437 0.0
C3213 C 0.66394 0.90727 0.12344 0.0
C3214 C 0.67011 0.89845 0.11736 0.0
C3215 C 0.67167 0.8981 0.102 0.0
C3216 C 0.66686 0.90616 0.09291 0.0
H3217 H 0.61551 0.90195 0.09098 0.0
H3218 H 0.62911 0.89566 0.09562 0.0
H3219 H 0.62743 0.9094 0.10797 0.0
H3220 H 0.65454 0.9221 0.11934 0.0
H3221 H 0.6629 0.90805 0.13526 0.0
H3222 H 0.04638 0.68183 0.05332 0.0
H3223 H 0.06404 0.70633 0.06794 0.0
H3224 H 0.02526 0.70854 0.08394 0.0
H3225 H 0.00752 0.68384 0.06963 0.0
H3226 H 0.06772 0.73566 0.06697 0.0
H3227 H 0.04981 0.71288 0.12219 0.0
H3228 H 0.04421 0.70013 0.10549 0.0
H3229 H 0.03431 0.71056 0.10983 0.0
C3230 C 0.04162 0.68754 0.05996 0.0
C3231 C 0.02558 0.68088 0.06042 0.0
C3232 C 0.05171 0.70153 0.06829 0.0
C3233 C 0.04595 0.7091 0.07723 0.0
C3234 C 0.02994 0.70269 0.07741 0.0
H3235 H 0.09528 0.79762 0.13232 0.0
H3236 H 0.07512 0.77395 0.11794 0.0
C3237 C 0.01983 0.68864 0.06915 0.0
C3238 C 0.05678 0.72379 0.08622 0.0
H3239 H 0.06771 0.74012 0.12174 0.0
C3240 C 0.0677 0.73664 0.07894 0.0
C3241 C 0.05673 0.72502 0.10184 0.0
C3242 C 0.04574 0.71138 0.11034 0.0
C3243 C 0.07861 0.75067 0.08687 0.0
C3244 C 0.07862 0.75183 0.10246 0.0
C3245 C 0.06756 0.73914 0.10975 0.0
C3246 C 0.09058 0.76588 0.1114 0.0
C3247 C 0.09011 0.76418 0.07857 0.0
C3248 C 0.1058 0.76894 0.1126 0.0
C3249 C 0.11725 0.78232 0.12082 0.0
C3250 C 0.11367 0.79289 0.12796 0.0
C3251 C 0.09836 0.7897 0.12686 0.0
C3252 C 0.08686 0.77621 0.11871 0.0
H3253 H 0.08671 0.76255 0.06653 0.0
H3254 H 0.09135 0.77544 0.08305 0.0
H3255 H 0.10156 0.76511 0.08002 0.0
H3256 H 0.10883 0.76101 0.10709 0.0
H3257 H 0.12898 0.78457 0.1213 0.0
H3258 H 0.32495 0.3824 0.01034 0.0
H3259 H 0.30188 0.37542 0.02387 0.0
H3260 H 0.31312 0.34802 0.05219 0.0
H3261 H 0.33598 0.35477 0.03873 0.0
H3262 H 0.28199 0.33246 0.041 0.0
H3263 H 0.30155 0.39246 0.06626 0.0
H3264 H 0.30185 0.39066 0.04646 0.0
H3265 H 0.31461 0.38727 0.05806 0.0
C3266 C 0.3225 0.37493 0.01948 0.0
C3267 C 0.33229 0.36918 0.02351 0.0
C3268 C 0.30937 0.371 0.02721 0.0
C3269 C 0.30589 0.36132 0.0391 0.0
C3270 C 0.31561 0.35551 0.04305 0.0
H3271 H 0.24973 0.34454 0.11239 0.0
H3272 H 0.27002 0.35193 0.09514 0.0
C3273 C 0.32869 0.35942 0.03537 0.0
C3274 C 0.29214 0.35708 0.04752 0.0
H3275 H 0.27697 0.37221 0.07176 0.0
C3276 C 0.2808 0.34115 0.04764 0.0
C3277 C 0.29074 0.36845 0.05625 0.0
C3278 C 0.30286 0.38567 0.05691 0.0
C3279 C 0.26819 0.33623 0.05646 0.0
C3280 C 0.26683 0.34759 0.06524 0.0
C3281 C 0.27804 0.36355 0.06494 0.0
C3282 C 0.25437 0.34309 0.0755 0.0
C3283 C 0.25676 0.31888 0.05674 0.0
C3284 C 0.23885 0.33572 0.07014 0.0
C3285 C 0.22721 0.33151 0.07998 0.0
C3286 C 0.23092 0.33469 0.09534 0.0
C3287 C 0.2465 0.34211 0.10063 0.0
C3288 C 0.2581 0.3463 0.09079 0.0
H3289 H 0.26115 0.31156 0.05172 0.0
H3290 H 0.25395 0.31562 0.06828 0.0
H3291 H 0.24591 0.31604 0.05038 0.0
H3292 H 0.23576 0.33338 0.05835 0.0
H3293 H 0.21534 0.32604 0.07555 0.0
H3294 H 0.6962 0.66852 0.36089 0.0
H3295 H 0.71282 0.66353 0.37748 0.0
H3296 H 0.73061 0.70924 0.40011 0.0
H3297 H 0.714 0.71435 0.38354 0.0
H3298 H 0.7463 0.68212 0.38344 0.0
H3299 H 0.71357 0.67718 0.43306 0.0
H3300 H 0.70559 0.67563 0.41444 0.0
H3301 H 0.71956 0.69452 0.4231 0.0
C3302 C 0.70373 0.67756 0.36933 0.0
C3303 C 0.70377 0.6918 0.37097 0.0
C3304 C 0.7132 0.67468 0.37879 0.0
C3305 C 0.72275 0.68593 0.39012 0.0
C3306 C 0.72314 0.70034 0.39155 0.0
H3307 H 0.78335 0.68574 0.46094 0.0
H3308 H 0.76721 0.69163 0.44463 0.0
C3309 C 0.71373 0.70327 0.38203 0.0
C3310 C 0.73216 0.68244 0.40053 0.0
H3311 H 0.73598 0.67533 0.43656 0.0
C3312 C 0.74407 0.68062 0.39505 0.0
C3313 C 0.72918 0.68053 0.41566 0.0
C3314 C 0.71622 0.68194 0.42197 0.0
C3315 C 0.75325 0.67712 0.40437 0.0
C3316 C 0.75014 0.67498 0.41948 0.0
C3317 C 0.73828 0.67691 0.42497 0.0
C3318 C 0.75918 0.67089 0.42978 0.0
C3319 C 0.76638 0.67606 0.39801 0.0
C3320 C 0.75964 0.65703 0.42709 0.0
C3321 C 0.76895 0.6537 0.4363 0.0
C3322 C 0.77786 0.6641 0.44848 0.0
C3323 C 0.77682 0.67762 0.45152 0.0
C3324 C 0.76755 0.68096 0.44226 0.0
H3325 H 0.76981 0.68215 0.38759 0.0
H3326 H 0.77663 0.68124 0.40603 0.0
H3327 H 0.7627 0.66352 0.39544 0.0
H3328 H 0.753 0.64891 0.4177 0.0
H3329 H 0.76957 0.64326 0.43355 0.0
H3330 H 0.33089 0.9963 0.42198 0.0
H3331 H 0.33955 0.02153 0.43576 0.0
H3332 H 0.30141 0.02379 0.41505 0.0
H3333 H 0.29289 0.99876 0.40101 0.0
H3334 H 0.32874 0.05144 0.41476 0.0
H3335 H 0.32039 0.02982 0.47121 0.0
H3336 H 0.33257 0.02528 0.46064 0.0
H3337 H 0.31252 0.01675 0.45467 0.0
C3338 C 0.32433 0.00216 0.42041 0.0
C3339 C 0.31119 0.99555 0.41046 0.0
C3340 C 0.32924 0.01652 0.42836 0.0
C3341 C 0.32099 0.02441 0.4266 0.0
C3342 C 0.30791 0.01785 0.41661 0.0
H3343 H 0.32241 0.09892 0.48034 0.0
H3344 H 0.31731 0.07403 0.46824 0.0
C3345 C 0.30305 0.00355 0.40861 0.0
C3346 C 0.32614 0.0397 0.43486 0.0
H3347 H 0.33249 0.05739 0.46965 0.0
C3348 C 0.3296 0.05277 0.42676 0.0
C3349 C 0.3271 0.04133 0.45052 0.0
C3350 C 0.32282 0.02753 0.4598 0.0
C3351 C 0.3339 0.06742 0.43388 0.0
C3352 C 0.33511 0.06913 0.44954 0.0
C3353 C 0.33172 0.05608 0.45765 0.0
C3354 C 0.3389 0.08411 0.45767 0.0
C3355 C 0.33659 0.08079 0.42455 0.0
C3356 C 0.35293 0.09796 0.45606 0.0
C3357 C 0.3558 0.11227 0.46282 0.0
C3358 C 0.34474 0.11292 0.4714 0.0
C3359 C 0.33103 0.09887 0.47355 0.0
C3360 C 0.32814 0.08461 0.46675 0.0
H3361 H 0.33161 0.07657 0.41299 0.0
H3362 H 0.33147 0.08753 0.42936 0.0
H3363 H 0.34918 0.08892 0.42417 0.0
H3364 H 0.36152 0.09776 0.44934 0.0
H3365 H 0.36645 0.12287 0.46089 0.0
H3366 H 0.00512 0.27954 0.35577 0.0
H3367 H 0.9812 0.26383 0.36812 0.0
H3368 H 0.99041 0.30507 0.39509 0.0
H3369 H 0.01405 0.3208 0.38271 0.0
H3370 H 0.97744 0.25865 0.39789 0.0
H3371 H 0.94628 0.28836 0.37876 0.0
H3372 H 0.96332 0.29079 0.37043 0.0
H3373 H 0.96504 0.30184 0.38743 0.0
C3374 C 0.00197 0.28524 0.36428 0.0
C3375 C 0.0114 0.30141 0.36822 0.0
C3376 C 0.98833 0.27627 0.37131 0.0
C3377 C 0.98388 0.28336 0.38232 0.0
C3378 C 0.9934 0.29944 0.38637 0.0
H3379 H 0.91689 0.25658 0.44738 0.0
H3380 H 0.93807 0.26974 0.43119 0.0
C3381 C 0.00698 0.3084 0.37935 0.0
C3382 C 0.96962 0.27391 0.39002 0.0
H3383 H 0.93619 0.27223 0.39915 0.0
C3384 C 0.96831 0.26146 0.39801 0.0
C3385 C 0.95772 0.27762 0.39014 0.0
C3386 C 0.95805 0.29028 0.38111 0.0
C3387 C 0.95571 0.25302 0.40661 0.0
C3388 C 0.94408 0.25706 0.40708 0.0
C3389 C 0.94519 0.26925 0.39882 0.0
C3390 C 0.93091 0.24909 0.41647 0.0
C3391 C 0.95518 0.24022 0.41556 0.0
C3392 C 0.91975 0.2332 0.41337 0.0
C3393 C 0.90755 0.22567 0.42251 0.0
C3394 C 0.90629 0.23391 0.43493 0.0
C3395 C 0.91739 0.24993 0.43782 0.0
C3396 C 0.92955 0.25745 0.42864 0.0
H3397 H 0.96638 0.24049 0.41611 0.0
H3398 H 0.95209 0.2413 0.42701 0.0
H3399 H 0.94619 0.2286 0.41038 0.0
H3400 H 0.92048 0.22663 0.40387 0.0
H3401 H 0.89906 0.21341 0.41982 0.0
H3402 H 0.02445 0.34361 0.31249 0.0
H3403 H 0.01788 0.36189 0.3015 0.0
H3404 H 0.0508 0.39923 0.33257 0.0
H3405 H 0.05765 0.38106 0.34345 0.0
H3406 H 0.00616 0.37909 0.31486 0.0
H3407 H 0.06298 0.41852 0.29282 0.0
H3408 H 0.05784 0.39946 0.29905 0.0
H3409 H 0.06376 0.41589 0.31226 0.0
C3410 C 0.03035 0.35573 0.31693 0.0
C3411 C 0.04163 0.36094 0.32877 0.0
C3412 C 0.02656 0.36615 0.31067 0.0
C3413 C 0.034 0.38195 0.3161 0.0
C3414 C 0.04516 0.38716 0.32802 0.0
H3415 H 0.02354 0.45988 0.28804 0.0
H3416 H 0.03022 0.44322 0.30213 0.0
C3417 C 0.049 0.37675 0.33427 0.0
C3418 C 0.02982 0.39285 0.30939 0.0
H3419 H 0.04417 0.42612 0.29056 0.0
C3420 C 0.01446 0.38938 0.30955 0.0
C3421 C 0.04071 0.40628 0.30252 0.0
C3422 C 0.05722 0.41023 0.3015 0.0
C3423 C 0.00968 0.39899 0.30299 0.0
C3424 C 0.02051 0.41229 0.29596 0.0
C3425 C 0.03592 0.41592 0.29602 0.0
C3426 C 0.01594 0.42218 0.28787 0.0
C3427 C 0.9931 0.3949 0.30368 0.0
C3428 C 0.00578 0.41584 0.27517 0.0
C3429 C 0.00205 0.42532 0.26704 0.0
C3430 C 0.00844 0.44135 0.27145 0.0
C3431 C 0.01853 0.44762 0.28427 0.0
C3432 C 0.0223 0.43812 0.29237 0.0
H3433 H 0.98735 0.3869 0.31257 0.0
H3434 H 0.99232 0.40565 0.30561 0.0
H3435 H 0.98668 0.38886 0.29297 0.0
H3436 H 0.00102 0.40363 0.27135 0.0
H3437 H 0.99451 0.42018 0.25705 0.0
H3438 H 0.6193 0.65061 0.33871 0.0
H3439 H 0.60035 0.62561 0.32548 0.0
H3440 H 0.63499 0.62912 0.29668 0.0
H3441 H 0.65402 0.65398 0.30995 0.0
H3442 H 0.59084 0.62052 0.29528 0.0
H3443 H 0.61691 0.58459 0.31058 0.0
H3444 H 0.62234 0.60318 0.32029 0.0
H3445 H 0.62986 0.60268 0.30272 0.0
C3446 C 0.62289 0.64599 0.32963 0.0
C3447 C 0.63814 0.65421 0.32539 0.0
C3448 C 0.61207 0.63173 0.32208 0.0
C3449 C 0.61634 0.62542 0.31025 0.0
C3450 C 0.63155 0.63363 0.30598 0.0
H3451 H 0.56527 0.54335 0.24803 0.0
H3452 H 0.58533 0.56759 0.26165 0.0
C3453 C 0.64237 0.64787 0.31351 0.0
C3454 C 0.60472 0.61059 0.30197 0.0
H3455 H 0.596 0.57307 0.29225 0.0
C3456 C 0.59192 0.61011 0.29467 0.0
C3457 C 0.60625 0.5971 0.30113 0.0
C3458 C 0.6195 0.5968 0.3092 0.0
C3459 C 0.58064 0.59653 0.2864 0.0
C3460 C 0.5821 0.583 0.28564 0.0
C3461 C 0.59496 0.58349 0.29286 0.0
C3462 C 0.57017 0.56811 0.2777 0.0
C3463 C 0.56738 0.59684 0.27836 0.0
C3464 C 0.55515 0.56025 0.28245 0.0
C3465 C 0.54374 0.54644 0.27476 0.0
C3466 C 0.54714 0.54019 0.2622 0.0
C3467 C 0.56232 0.54786 0.25769 0.0
C3468 C 0.57376 0.56171 0.26541 0.0
H3469 H 0.57002 0.60905 0.27688 0.0
H3470 H 0.56446 0.59036 0.2673 0.0
H3471 H 0.55706 0.59106 0.28489 0.0
H3472 H 0.55226 0.56481 0.29212 0.0
H3473 H 0.53224 0.54061 0.27871 0.0
H3474 H 0.33812 0.98249 0.35456 0.0
H3475 H 0.35917 0.98636 0.33936 0.0
H3476 H 0.35737 0.94504 0.35559 0.0
H3477 H 0.33633 0.94116 0.37101 0.0
H3478 H 0.38772 0.97116 0.35458 0.0
H3479 H 0.35291 0.95873 0.30148 0.0
H3480 H 0.35315 0.97372 0.31359 0.0
H3481 H 0.34435 0.95388 0.31906 0.0
C3482 C 0.34223 0.97425 0.35496 0.0
C3483 C 0.33551 0.96145 0.3639 0.0
C3484 C 0.35421 0.97644 0.34621 0.0
C3485 C 0.35962 0.96583 0.34616 0.0
C3486 C 0.35327 0.9533 0.35541 0.0
H3487 H 0.41553 0.95874 0.27877 0.0
H3488 H 0.3956 0.95331 0.29604 0.0
C3489 C 0.34127 0.9511 0.3642 0.0
C3490 C 0.37178 0.96776 0.3363 0.0
H3491 H 0.37987 0.96923 0.29996 0.0
C3492 C 0.38601 0.97066 0.34263 0.0
C3493 C 0.36941 0.96688 0.32072 0.0
C3494 C 0.35409 0.96299 0.31327 0.0
C3495 C 0.3981 0.97312 0.33378 0.0
C3496 C 0.39592 0.97287 0.31823 0.0
C3497 C 0.38156 0.96957 0.31189 0.0
C3498 C 0.40837 0.97599 0.30826 0.0
C3499 C 0.41304 0.97581 0.34114 0.0
C3500 C 0.42212 0.99059 0.30936 0.0
C3501 C 0.43359 0.9937 0.29956 0.0
C3502 C 0.43146 0.98229 0.28843 0.0
C3503 C 0.41764 0.96769 0.28736 0.0
C3504 C 0.40619 0.9646 0.29716 0.0
H3505 H 0.41145 0.97149 0.35243 0.0
H3506 H 0.41792 0.96987 0.33447 0.0
H3507 H 0.42155 0.9886 0.34216 0.0
H3508 H 0.42391 0.99966 0.31767 0.0
H3509 H 0.44414 0.00502 0.30075 0.0
H3510 H 0.65136 0.99025 0.33118 0.0
H3511 H 0.63412 0.99492 0.31523 0.0
H3512 H 0.59572 0.96447 0.3402 0.0
H3513 H 0.6129 0.95955 0.35613 0.0
H3514 H 0.58932 0.95864 0.30961 0.0
H3515 H 0.61544 0.02217 0.32605 0.0
H3516 H 0.62903 0.01677 0.31992 0.0
H3517 H 0.61936 0.00925 0.33652 0.0
C3518 C 0.63926 0.98459 0.33332 0.0
C3519 C 0.63348 0.97459 0.34495 0.0
C3520 C 0.62944 0.98734 0.32424 0.0
C3521 C 0.6137 0.98024 0.32668 0.0
C3522 C 0.60786 0.97013 0.3382 0.0
H3523 H 0.54821 0.00438 0.28991 0.0
H3524 H 0.56573 4e-05 0.30576 0.0
C3525 C 0.61768 0.96736 0.34729 0.0
C3526 C 0.60328 0.98311 0.317 0.0
H3527 H 0.59718 0.0121 0.30526 0.0
C3528 C 0.59099 0.97031 0.30868 0.0
C3529 C 0.6054 0.99833 0.31594 0.0
C3530 C 0.61793 0.01241 0.32518 0.0
C3531 C 0.58088 0.97235 0.29915 0.0
C3532 C 0.58331 0.98764 0.29774 0.0
C3533 C 0.59546 0.00041 0.30623 0.0
C3534 C 0.57304 0.9906 0.28791 0.0
C3535 C 0.56752 0.95808 0.2909 0.0
C3536 C 0.57155 0.98698 0.27256 0.0
C3537 C 0.56157 0.98951 0.26344 0.0
C3538 C 0.55304 0.99585 0.26951 0.0
C3539 C 0.55481 -0.00027 0.28485 0.0
C3540 C 0.56474 0.99716 0.29395 0.0
H3541 H 0.56505 0.94705 0.29595 0.0
H3542 H 0.55692 0.95893 0.29067 0.0
H3543 H 0.57038 0.95729 0.27931 0.0
H3544 H 0.57811 0.98221 0.26764 0.0
H3545 H 0.56056 0.98655 0.25165 0.0
H3546 H 0.05202 0.67926 0.31312 0.0
H3547 H 0.04672 0.65552 0.29838 0.0
H3548 H 0.9997 0.64421 0.28887 0.0
H3549 H 0.00513 0.66826 0.30306 0.0
H3550 H 0.02768 0.62597 0.30247 0.0
H3551 H 0.01084 0.63858 0.24818 0.0
H3552 H 0.01963 0.65329 0.26346 0.0
H3553 H 0.99923 0.63927 0.26241 0.0
C3554 C 0.0406 0.67178 0.30775 0.0
C3555 C 0.02901 0.67563 0.30914 0.0
C3556 C 0.03758 0.65822 0.29934 0.0
C3557 C 0.02289 0.64821 0.29228 0.0
C3558 C 0.01125 0.65198 0.29382 0.0
H3559 H 0.98893 0.55015 0.26592 0.0
H3560 H 0.99401 0.57494 0.27804 0.0
C3561 C 0.01433 0.66566 0.30203 0.0
C3562 C 0.01956 0.63346 0.28393 0.0
H3563 H 0.00465 0.61205 0.2508 0.0
C3564 C 0.02275 0.62299 0.29113 0.0
C3565 C 0.01335 0.62966 0.26905 0.0
C3566 C 0.01072 0.64088 0.26028 0.0
C3567 C 0.01969 0.60873 0.28399 0.0
C3568 C 0.0127 0.60455 0.26939 0.0
C3569 C 0.00977 0.61515 0.26207 0.0
C3570 C 0.00861 0.58937 0.26144 0.0
C3571 C 0.0243 0.5985 0.29208 0.0
C3572 C 0.01439 0.58913 0.24763 0.0
C3573 C 0.01109 0.57489 0.2404 0.0
C3574 C 0.00202 0.56059 0.24687 0.0
C3575 C 0.99585 0.56087 0.2605 0.0
C3576 C 0.99897 0.57509 0.26761 0.0
H3577 H 0.03362 0.60545 0.30089 0.0
H3578 H 0.01419 0.58943 0.29748 0.0
H3579 H 0.02834 0.59249 0.28439 0.0
H3580 H 0.0217 0.6 0.24256 0.0
H3581 H 0.01576 0.57513 0.22978 0.0
H3582 H 0.32065 0.34539 0.33518 0.0
H3583 H 0.34368 0.36118 0.32202 0.0
H3584 H 0.35177 0.403 0.34718 0.0
H3585 H 0.32846 0.3872 0.36038 0.0
H3586 H 0.35454 0.40657 0.31687 0.0
H3587 H 0.38854 0.38062 0.33806 0.0
H3588 H 0.36973 0.36602 0.33026 0.0
H3589 H 0.37152 0.37808 0.34652 0.0
C3590 C 0.32733 0.35794 0.33797 0.0
C3591 C 0.32279 0.36506 0.34886 0.0
C3592 C 0.34056 0.36693 0.33051 0.0
C3593 C 0.3496 0.3832 0.33384 0.0
C3594 C 0.34501 0.39042 0.34456 0.0
H3595 H 0.43931 0.43709 0.2962 0.0
H3596 H 0.41901 0.42573 0.31362 0.0
C3597 C 0.33171 0.3814 0.35207 0.0
C3598 C 0.3635 0.3926 0.32567 0.0
H3599 H 0.39707 0.39484 0.31624 0.0
C3600 C 0.36394 0.40417 0.31686 0.0
C3601 C 0.37587 0.38961 0.32587 0.0
C3602 C 0.3765 0.37802 0.33581 0.0
C3603 C 0.37609 0.4123 0.3077 0.0
C3604 C 0.38793 0.40855 0.30717 0.0
C3605 C 0.38787 0.39753 0.31651 0.0
C3606 C 0.40021 0.41554 0.29665 0.0
C3607 C 0.3761 0.4248 0.29864 0.0
C3608 C 0.39638 0.41331 0.28134 0.0
C3609 C 0.40792 0.41972 0.27138 0.0
C3610 C 0.42355 0.42838 0.27654 0.0
C3611 C 0.42738 0.43036 0.29188 0.0
C3612 C 0.41581 0.42396 0.30184 0.0
H3613 H 0.36914 0.4295 0.30353 0.0
H3614 H 0.38801 0.43469 0.2977 0.0
H3615 H 0.37092 0.4196 0.28733 0.0
H3616 H 0.38443 0.40648 0.27708 0.0
H3617 H 0.40462 0.41777 0.25962 0.0
H3618 H 0.27844 0.28614 0.38234 0.0
H3619 H 0.28768 0.26995 0.39361 0.0
H3620 H 0.32906 0.31188 0.41128 0.0
H3621 H 0.31978 0.32809 0.40037 0.0
H3622 H 0.31424 0.26879 0.38936 0.0
H3623 H 0.31341 0.28741 0.4478 0.0
H3624 H 0.30406 0.29144 0.43264 0.0
H3625 H 0.32457 0.30348 0.43667 0.0
C3626 C 0.28947 0.29188 0.3887 0.0
C3627 C 0.29833 0.30836 0.39059 0.0
C3628 C 0.29474 0.28264 0.39508 0.0
C3629 C 0.30893 0.28973 0.40347 0.0
C3630 C 0.31792 0.30618 0.40514 0.0
H3631 H 0.35947 0.25375 0.452 0.0
H3632 H 0.35239 0.27021 0.43802 0.0
C3633 C 0.31262 0.31541 0.39884 0.0
C3634 C 0.31442 0.27993 0.41038 0.0
H3635 H 0.32531 0.27218 0.44365 0.0
C3636 C 0.31661 0.26948 0.40123 0.0
C3637 C 0.3175 0.28087 0.42588 0.0
C3638 C 0.31463 0.29129 0.43635 0.0
C3639 C 0.322 0.26007 0.40717 0.0
C3640 C 0.32513 0.26108 0.42263 0.0
C3641 C 0.323 0.27155 0.43177 0.0
C3642 C 0.33005 0.25094 0.42971 0.0
C3643 C 0.32447 0.24924 0.39687 0.0
C3644 C 0.31986 0.23469 0.42952 0.0
C3645 C 0.32385 0.22529 0.43749 0.0
C3646 C 0.33811 0.23201 0.44578 0.0
C3647 C 0.34849 0.24824 0.44557 0.0
C3648 C 0.34444 0.25765 0.43767 0.0
H3649 H 0.32499 0.25247 0.38522 0.0
H3650 H 0.3353 0.24944 0.40029 0.0
H3651 H 0.31474 0.23703 0.39734 0.0
H3652 H 0.30861 0.22934 0.42361 0.0
H3653 H 0.31568 0.2128 0.43739 0.0
H3654 H 0.71264 0.01415 0.38291 0.0
H3655 H 0.7299 0.03893 0.3973 0.0
H3656 H 0.69192 0.03371 0.42199 0.0
H3657 H 0.67452 0.009 0.40748 0.0
H3658 H 0.71025 0.06399 0.41298 0.0
H3659 H 0.74587 0.04265 0.44036 0.0
H3660 H 0.74447 0.04004 0.42052 0.0
H3661 H 0.72746 0.02955 0.43054 0.0
C3662 C 0.70796 0.01829 0.39139 0.0
C3663 C 0.69225 0.0096 0.39414 0.0
C3664 C 0.71785 0.0324 0.39965 0.0
C3665 C 0.71223 0.038 0.41088 0.0
C3666 C 0.69649 0.02953 0.41343 0.0
H3667 H 0.773 0.11204 0.47776 0.0
H3668 H 0.75235 0.0875 0.4652 0.0
C3669 C 0.68658 0.01542 0.40514 0.0
C3670 C 0.7228 0.05272 0.41992 0.0
H3671 H 0.7556 0.07023 0.44293 0.0
C3672 C 0.72012 0.06535 0.41962 0.0
C3673 C 0.7355 0.05434 0.42876 0.0
C3674 C 0.73844 0.04088 0.43022 0.0
C3675 C 0.73008 0.07976 0.42757 0.0
C3676 C 0.74319 0.08161 0.43584 0.0
C3677 C 0.74561 0.06882 0.43649 0.0
C3678 C 0.75481 0.0968 0.44362 0.0
C3679 C 0.72642 0.09281 0.42714 0.0
C3680 C 0.76301 0.11017 0.43565 0.0
C3681 C 0.77478 0.12418 0.44279 0.0
C3682 C 0.77868 0.12503 0.45801 0.0
C3683 C 0.77032 0.11169 0.466 0.0
C3684 C 0.7585 0.0977 0.45886 0.0
H3685 H 0.71397 0.08816 0.42417 0.0
H3686 H 0.7296 0.09973 0.43797 0.0
H3687 H 0.7331 0.10085 0.41861 0.0
H3688 H 0.76063 0.10963 0.42382 0.0
H3689 H 0.78121 0.13416 0.43628 0.0
H3690 H 0.99659 0.72378 0.35338 0.0
H3691 H 0.97398 0.71624 0.36777 0.0
H3692 H 0.96991 0.67118 0.37359 0.0
H3693 H 0.9926 0.67873 0.35955 0.0
H3694 H 0.9437 0.69138 0.36383 0.0
H3695 H 0.9721 0.68767 0.41598 0.0
H3696 H 0.9827 0.69664 0.40012 0.0
H3697 H 0.97233 0.6756 0.40075 0.0
C3698 C 0.99083 0.71225 0.35769 0.0
C3699 C 0.99644 0.7019 0.35548 0.0
C3700 C 0.97793 0.70796 0.3659 0.0
C3701 C 0.97047 0.69328 0.37201 0.0
C3702 C 0.97572 0.68272 0.3693 0.0
H3703 H 0.89306 0.64523 0.42666 0.0
H3704 H 0.91364 0.65203 0.40972 0.0
C3705 C 0.98864 0.68702 0.3612 0.0
C3706 C 0.95732 0.68901 0.38136 0.0
H3707 H 0.94512 0.67787 0.41581 0.0
C3708 C 0.94403 0.68851 0.37522 0.0
C3709 C 0.9578 0.6853 0.39623 0.0
C3710 C 0.97205 0.68647 0.40373 0.0
C3711 C 0.93107 0.68408 0.38348 0.0
C3712 C 0.93152 0.68019 0.39826 0.0
C3713 C 0.94481 0.68075 0.40442 0.0
C3714 C 0.91844 0.67582 0.4077 0.0
C3715 C 0.91691 0.68332 0.37628 0.0
C3716 C 0.9144 0.68696 0.41215 0.0
C3717 C 0.9027 0.68313 0.42183 0.0
C3718 C 0.89485 0.66807 0.42723 0.0
C3719 C 0.89879 0.65686 0.42257 0.0
C3720 C 0.91057 0.66074 0.41296 0.0
H3721 H 0.91717 0.68335 0.36403 0.0
H3722 H 0.90628 0.6726 0.37916 0.0
H3723 H 0.91626 0.69369 0.38042 0.0
H3724 H 0.92049 0.69873 0.40837 0.0
H3725 H 0.89982 0.69197 0.42514 0.0
H3726 H 0.38788 0.03909 0.6956 0.0
H3727 H 0.40542 0.0351 0.71196 0.0
H3728 H 0.36721 0.00405 0.73681 0.0
H3729 H 0.3496 0.00786 0.72047 0.0
H3730 H 0.41054 0.04169 0.74309 0.0
H3731 H 0.38836 0.97852 0.72748 0.0
H3732 H 0.38405 0.9907 0.71624 0.0
H3733 H 0.37395 0.98317 0.73261 0.0
C3734 C 0.38321 0.03132 0.70448 0.0
C3735 C 0.36737 0.02374 0.70673 0.0
C3736 C 0.39323 0.02908 0.71381 0.0
C3737 C 0.38757 0.01913 0.72546 0.0
C3738 C 0.37176 0.01154 0.72772 0.0
H3739 H 0.43197 0.99331 0.79452 0.0
H3740 H 0.41328 0.99626 0.77878 0.0
C3741 C 0.36174 0.0138 0.71841 0.0
C3742 C 0.39828 0.01717 0.73561 0.0
H3743 H 0.40682 0.99002 0.74796 0.0
C3744 C 0.40977 0.03041 0.74413 0.0
C3745 C 0.39714 0.00241 0.73701 0.0
C3746 C 0.3853 0.98789 0.72778 0.0
C3747 C 0.42013 0.02928 0.75412 0.0
C3748 C 0.41912 0.01456 0.75539 0.0
C3749 C 0.40753 0.00128 0.74698 0.0
C3750 C 0.43035 0.01283 0.765 0.0
C3751 C 0.43191 0.04381 0.76338 0.0
C3752 C 0.44605 0.02098 0.76231 0.0
C3753 C 0.45669 0.01931 0.77123 0.0
C3754 C 0.45183 0.00938 0.78299 0.0
C3755 C 0.43605 0.00103 0.78554 0.0
C3756 C 0.42539 0.00273 0.7766 0.0
H3757 H 0.42841 0.05284 0.76419 0.0
H3758 H 0.43369 0.04092 0.77474 0.0
H3759 H 0.4431 0.04903 0.75816 0.0
H3760 H 0.45007 0.0285 0.75317 0.0
H3761 H 0.46871 0.02559 0.76872 0.0
H3762 H 0.99064 0.32516 0.75625 0.0
H3763 H 0.99631 0.34884 0.77141 0.0
H3764 H 0.96317 0.35364 0.74386 0.0
H3765 H 0.95729 0.32992 0.7288 0.0
H3766 H 0.00723 0.37937 0.76282 0.0
H3767 H 0.94984 0.35551 0.78561 0.0
H3768 H 0.95598 0.34311 0.77662 0.0
H3769 H 0.94885 0.35327 0.76577 0.0
C3770 C 0.98453 0.33124 0.75346 0.0
C3771 C 0.97346 0.32566 0.7414 0.0
C3772 C 0.98779 0.34475 0.76212 0.0
C3773 C 0.97997 0.35282 0.7589 0.0
C3774 C 0.96908 0.34738 0.74673 0.0
H3775 H 0.98111 0.43708 0.78624 0.0
H3776 H 0.97728 0.4125 0.77464 0.0
C3777 C 0.9658 0.33388 0.73809 0.0
C3778 C 0.9834 0.36714 0.76801 0.0
H3779 H 0.96651 0.38337 0.78853 0.0
C3780 C 0.9984 0.38022 0.76861 0.0
C3781 C 0.97185 0.36814 0.77559 0.0
C3782 C 0.95577 0.35421 0.77602 0.0
C3783 C 0.00198 0.39453 0.77606 0.0
C3784 C 0.99029 0.39566 0.78321 0.0
C3785 C 0.97542 0.38246 0.78296 0.0
C3786 C 0.99297 0.41066 0.79033 0.0
C3787 C 0.01806 0.40851 0.77577 0.0
C3788 C 0.00303 0.4177 0.80304 0.0
C3789 C 0.00517 0.43174 0.80978 0.0
C3790 C 0.99721 0.43887 0.80395 0.0
C3791 C 0.98721 0.43175 0.79117 0.0
C3792 C 0.98507 0.41776 0.78447 0.0
H3793 H 0.02493 0.40645 0.7676 0.0
H3794 H 0.01761 0.41914 0.77306 0.0
H3795 H 0.02414 0.41091 0.78689 0.0
H3796 H 0.00905 0.41225 0.80784 0.0
H3797 H 0.01283 0.43685 0.8197 0.0
H3798 H 0.6822 0.65193 0.72036 0.0
H3799 H 0.65886 0.63586 0.73307 0.0
H3800 H 0.64616 0.59675 0.70141 0.0
H3801 H 0.66973 0.61277 0.68868 0.0
H3802 H 0.62834 0.62155 0.72123 0.0
H3803 H 0.64254 0.57756 0.74152 0.0
H3804 H 0.6569 0.59591 0.73482 0.0
H3805 H 0.64356 0.58002 0.72198 0.0
C3806 C 0.6745 0.63988 0.71614 0.0
C3807 C 0.67781 0.63359 0.70354 0.0
C3808 C 0.66116 0.63073 0.7234 0.0
C3809 C 0.65086 0.61509 0.71827 0.0
C3810 C 0.6541 0.60872 0.70569 0.0
H3811 H 0.56519 0.54683 0.75557 0.0
H3812 H 0.58632 0.55988 0.73924 0.0
C3813 C 0.66751 0.61789 0.6984 0.0
C3814 C 0.63659 0.60573 0.72597 0.0
H3815 H 0.61831 0.57417 0.74688 0.0
C3816 C 0.62611 0.61115 0.72679 0.0
C3817 C 0.63369 0.59214 0.73314 0.0
C3818 C 0.64479 0.58607 0.73297 0.0
C3819 C 0.61288 0.60344 0.73475 0.0
C3820 C 0.6102 0.59011 0.74227 0.0
C3821 C 0.62043 0.58442 0.74111 0.0
C3822 C 0.59721 0.58233 0.75192 0.0
C3823 C 0.60187 0.60961 0.73503 0.0
C3824 C 0.59643 0.5906 0.76451 0.0
C3825 C 0.58445 0.58318 0.77389 0.0
C3826 C 0.57305 0.56729 0.77091 0.0
C3827 C 0.57387 0.55903 0.75826 0.0
C3828 C 0.58588 0.56647 0.74889 0.0
H3829 H 0.60318 0.61692 0.72558 0.0
H3830 H 0.58971 0.59984 0.73469 0.0
H3831 H 0.60432 0.61707 0.74542 0.0
H3832 H 0.60526 0.60275 0.76722 0.0
H3833 H 0.58434 0.58979 0.78368 0.0
H3834 H 0.68107 0.67182 0.6523 0.0
H3835 H 0.67223 0.68837 0.6413 0.0
H3836 H 0.71197 0.72974 0.66229 0.0
H3837 H 0.72077 0.71322 0.67356 0.0
H3838 H 0.6844 0.73004 0.66442 0.0
H3839 H 0.69188 0.71536 0.60664 0.0
H3840 H 0.67982 0.69857 0.61666 0.0
H3841 H 0.69994 0.71079 0.6225 0.0
C3842 C 0.68793 0.68444 0.65458 0.0
C3843 C 0.70168 0.69125 0.66369 0.0
C3844 C 0.68289 0.69387 0.64825 0.0
C3845 C 0.69158 0.71028 0.6508 0.0
C3846 C 0.70514 0.7171 0.66015 0.0
H3847 H 0.68625 0.77843 0.59842 0.0
H3848 H 0.69397 0.76244 0.61206 0.0
C3849 C 0.71017 0.70766 0.66653 0.0
C3850 C 0.68664 0.72035 0.64357 0.0
H3851 H 0.67961 0.73032 0.60975 0.0
C3852 C 0.68335 0.73014 0.65247 0.0
C3853 C 0.68547 0.72055 0.62798 0.0
C3854 C 0.68959 0.71088 0.61786 0.0
C3855 C 0.6788 0.74007 0.64618 0.0
C3856 C 0.6773 0.73999 0.63059 0.0
C3857 C 0.68066 0.73026 0.62171 0.0
C3858 C 0.67278 0.7503 0.62317 0.0
C3859 C 0.67599 0.75079 0.65626 0.0
C3860 C 0.65829 0.7488 0.62493 0.0
C3861 C 0.65389 0.75809 0.61725 0.0
C3862 C 0.66388 0.76897 0.60763 0.0
C3863 C 0.6784 0.77043 0.60597 0.0
C3864 C 0.68279 0.7612 0.61366 0.0
H3865 H 0.68125 0.75223 0.66765 0.0
H3866 H 0.68071 0.76258 0.65187 0.0
H3867 H 0.66338 0.74569 0.65698 0.0
H3868 H 0.65028 0.74025 0.63201 0.0
H3869 H 0.64266 0.75672 0.61881 0.0
H3870 H 0.28785 0.98391 0.6699 0.0
H3871 H 0.27026 0.95899 0.6559 0.0
H3872 H 0.3076 0.96365 0.63049 0.0
H3873 H 0.32534 0.98852 0.64462 0.0
H3874 H 0.26331 0.95469 0.62541 0.0
H3875 H 0.28845 0.91867 0.64349 0.0
H3876 H 0.29312 0.93704 0.6532 0.0
H3877 H 0.30176 0.93701 0.63622 0.0
C3878 C 0.29235 0.97957 0.66142 0.0
C3879 C 0.30797 0.98814 0.65836 0.0
C3880 C 0.28229 0.96534 0.65343 0.0
C3881 C 0.28767 0.9594 0.64229 0.0
C3882 C 0.30329 0.96788 0.63924 0.0
H3883 H 0.23571 0.87549 0.58116 0.0
H3884 H 0.25651 0.90004 0.59374 0.0
C3885 C 0.31338 0.98212 0.64726 0.0
C3886 C 0.2767 0.94469 0.63343 0.0
H3887 H 0.26779 0.90685 0.62505 0.0
C3888 C 0.2643 0.94424 0.62532 0.0
C3889 C 0.27812 0.93113 0.63324 0.0
C3890 C 0.291 0.93086 0.64208 0.0
C3891 C 0.25315 0.93053 0.61714 0.0
C3892 C 0.25434 0.91686 0.61725 0.0
C3893 C 0.26695 0.91739 0.62503 0.0
C3894 C 0.2421 0.90172 0.61 0.0
C3895 C 0.24016 0.93075 0.60844 0.0
C3896 C 0.22728 0.89442 0.61523 0.0
C3897 C 0.21547 0.88045 0.60816 0.0
C3898 C 0.21824 0.87347 0.59571 0.0
C3899 C 0.23324 0.88057 0.59074 0.0
C3900 C 0.2451 0.89459 0.59787 0.0
H3901 H 0.24303 0.94293 0.6064 0.0
H3902 H 0.23737 0.92385 0.59763 0.0
H3903 H 0.22969 0.92538 0.61481 0.0
H3904 H 0.22485 0.8996 0.62477 0.0
H3905 H 0.20415 0.87508 0.61248 0.0
H3906 H 0.00232 0.31539 0.6828 0.0
H3907 H 0.02565 0.32288 0.66985 0.0
H3908 H 0.03329 0.29018 0.69368 0.0
H3909 H 0.00967 0.28235 0.7065 0.0
H3910 H 0.05576 0.33571 0.68075 0.0
H3911 H 0.03506 0.27756 0.65078 0.0
H3912 H 0.0223 0.28234 0.6602 0.0
H3913 H 0.03453 0.2772 0.67056 0.0
C3914 C 0.00894 0.30976 0.68528 0.0
C3915 C 0.00412 0.2982 0.6956 0.0
C3916 C 0.02229 0.31408 0.67789 0.0
C3917 C 0.03109 0.30694 0.68065 0.0
C3918 C 0.02649 0.29561 0.69116 0.0
H3919 H 0.11382 0.31993 0.64015 0.0
H3920 H 0.09299 0.3129 0.65674 0.0
C3921 C 0.01305 0.29121 0.69853 0.0
C3922 C 0.04506 0.31148 0.67245 0.0
H3923 H 0.0607 0.29739 0.64766 0.0
C3924 C 0.05686 0.32733 0.67354 0.0
C3925 C 0.04646 0.30052 0.66305 0.0
C3926 C 0.03388 0.28348 0.66093 0.0
C3927 C 0.07 0.33252 0.66543 0.0
C3928 C 0.07128 0.3216 0.65589 0.0
C3929 C 0.05966 0.30571 0.65502 0.0
C3930 C 0.08432 0.32649 0.6463 0.0
C3931 C 0.08243 0.34962 0.66716 0.0
C3932 C 0.08628 0.33643 0.63492 0.0
C3933 C 0.09807 0.34036 0.62532 0.0
C3934 C 0.10809 0.33438 0.62692 0.0
C3935 C 0.10618 0.32457 0.63848 0.0
C3936 C 0.09435 0.32061 0.64803 0.0
H3937 H 0.08158 0.35558 0.67746 0.0
H3938 H 0.09408 0.35093 0.66733 0.0
H3939 H 0.08122 0.3557 0.65762 0.0
H3940 H 0.07846 0.34085 0.63323 0.0
H3941 H 0.09903 0.34771 0.6164 0.0
H3942 H 0.28018 0.29431 0.68541 0.0
H3943 H 0.26414 0.30038 0.66909 0.0
H3944 H 0.30507 0.34038 0.65499 0.0
H3945 H 0.32114 0.33418 0.67098 0.0
H3946 H 0.26149 0.32661 0.6685 0.0
H3947 H 0.28299 0.31726 0.61577 0.0
H3948 H 0.28691 0.31116 0.6331 0.0
H3949 H 0.29801 0.33138 0.62877 0.0
C3950 C 0.28574 0.30439 0.67882 0.0
C3951 C 0.30191 0.3137 0.67938 0.0
C3952 C 0.27658 0.30784 0.66951 0.0
C3953 C 0.28343 0.32064 0.6606 0.0
C3954 C 0.29956 0.3302 0.66147 0.0
H3955 H 0.24577 0.36188 0.60084 0.0
H3956 H 0.26277 0.35673 0.61687 0.0
C3957 C 0.30872 0.32671 0.67069 0.0
C3958 C 0.27369 0.3241 0.65055 0.0
H3959 H 0.2669 0.32846 0.61429 0.0
C3960 C 0.26263 0.32695 0.65665 0.0
C3961 C 0.2752 0.32453 0.63506 0.0
C3962 C 0.28631 0.32077 0.62775 0.0
C3963 C 0.25315 0.3304 0.6477 0.0
C3964 C 0.25474 0.3309 0.63228 0.0
C3965 C 0.26582 0.32814 0.62615 0.0
C3966 C 0.24464 0.33384 0.62227 0.0
C3967 C 0.24161 0.33364 0.6548 0.0
C3968 C 0.22894 0.32254 0.61986 0.0
C3969 C 0.21927 0.3254 0.6107 0.0
C3970 C 0.22513 0.33964 0.6038 0.0
C3971 C 0.24094 0.35085 0.60607 0.0
C3972 C 0.25064 0.34792 0.61517 0.0
H3973 H 0.24388 0.33583 0.66701 0.0
H3974 H 0.24178 0.34397 0.65017 0.0
H3975 H 0.22985 0.32333 0.65239 0.0
H3976 H 0.22415 0.31156 0.62516 0.0
H3977 H 0.2071 0.31664 0.60933 0.0
H3978 H 0.71016 0.00119 0.65017 0.0
H3979 H 0.70221 0.97627 0.63616 0.0
H3980 H 0.66368 0.97758 0.61512 0.0
H3981 H 0.67178 0.0027 0.62883 0.0
H3982 H 0.67527 0.94839 0.63654 0.0
H3983 H 0.68274 0.96927 0.57982 0.0
H3984 H 0.69046 0.98258 0.59621 0.0
H3985 H 0.67035 0.97361 0.59026 0.0
C3986 C 0.70006 0.99622 0.64248 0.0
C3987 C 0.69163 0.00392 0.64053 0.0
C3988 C 0.69552 0.98198 0.63449 0.0
C3989 C 0.68249 0.97519 0.62443 0.0
C3990 C 0.67398 0.98279 0.62256 0.0
H3991 H 0.63568 0.88421 0.5734 0.0
H3992 H 0.64196 0.9095 0.58592 0.0
C3993 C 0.67857 0.99709 0.63047 0.0
C3994 C 0.67755 0.95988 0.61631 0.0
H3995 H 0.67072 0.94168 0.58165 0.0
C3996 C 0.67431 0.94694 0.62454 0.0
C3997 C 0.67627 0.95801 0.60064 0.0
C3998 C 0.68027 0.97162 0.59119 0.0
C3999 C 0.66981 0.93219 0.61754 0.0
C4000 C 0.66859 0.93036 0.60192 0.0
C4001 C 0.67161 0.94318 0.59365 0.0
C4002 C 0.66488 0.91535 0.59403 0.0
C4003 C 0.66636 0.91861 0.62686 0.0
C4004 C 0.67578 0.91048 0.59435 0.0
C4005 C 0.67227 0.89616 0.5872 0.0
C4006 C 0.65777 0.88644 0.57963 0.0
C4007 C 0.6469 0.89143 0.57922 0.0
C4008 C 0.65048 0.90585 0.5863 0.0
H4009 H 0.66505 0.92116 0.6386 0.0
H4010 H 0.65564 0.90784 0.62238 0.0
H4011 H 0.67597 0.91614 0.62653 0.0
H4012 H 0.68698 0.91773 0.60022 0.0
H4013 H 0.6808 0.89254 0.58788 0.0
H4014 H 0.99138 0.72035 0.68846 0.0
H4015 H 0.01425 0.73527 0.67444 0.0
H4016 H 0.01408 0.6925 0.66212 0.0
H4017 H 0.99117 0.67755 0.67575 0.0
H4018 H 0.0435 0.73859 0.67695 0.0
H4019 H 0.01375 0.7098 0.62224 0.0
H4020 H 0.00342 0.70808 0.63857 0.0
H4021 H 0.01194 0.69604 0.63549 0.0
C4022 C 0.99625 0.71417 0.68275 0.0
C4023 C 0.98941 0.69778 0.68306 0.0
C4024 C 0.00929 0.72269 0.67477 0.0
C4025 C 0.01565 0.71493 0.667 0.0
C4026 C 0.00912 0.69866 0.66772 0.0
H4027 H 0.09246 0.74012 0.61264 0.0
H4028 H 0.07115 0.72734 0.62885 0.0
C4029 C 0.99608 0.69015 0.67559 0.0
C4030 C 0.02909 0.72375 0.65807 0.0
H4031 H 0.0412 0.72514 0.62316 0.0
C4032 C 0.04298 0.73575 0.66517 0.0
C4033 C 0.02835 0.72004 0.64268 0.0
C4034 C 0.01352 0.7079 0.63426 0.0
C4035 C 0.0563 0.74385 0.65735 0.0
C4036 C 0.05561 0.73987 0.64207 0.0
C4037 C 0.04168 0.72802 0.63493 0.0
C4038 C 0.06915 0.74795 0.63316 0.0
C4039 C 0.0711 0.75634 0.66552 0.0
C4040 C 0.07503 0.76373 0.63025 0.0
C4041 C 0.08714 0.77103 0.62099 0.0
C4042 C 0.09358 0.76265 0.61447 0.0
C4043 C 0.08783 0.7469 0.61762 0.0
C4044 C 0.07564 0.73958 0.62681 0.0
H4045 H 0.0705 0.75588 0.67772 0.0
H4046 H 0.08097 0.75506 0.66226 0.0
H4047 H 0.0734 0.76809 0.66256 0.0
H4048 H 0.07003 0.77031 0.63491 0.0
H4049 H 0.09144 0.78322 0.61886 0.0
H4050 H 0.98023 0.65741 0.73536 0.0
H4051 H 0.98682 0.63925 0.74652 0.0
H4052 H 0.94505 0.5999 0.72582 0.0
H4053 H 0.93854 0.61804 0.71431 0.0
H4054 H 0.97088 0.61716 0.7658 0.0
H4055 H 0.97732 0.58889 0.71446 0.0
H4056 H 0.97637 0.60667 0.71455 0.0
H4057 H 0.95902 0.5879 0.715 0.0
C4058 C 0.97247 0.64489 0.73313 0.0
C4059 C 0.95889 0.63912 0.72393 0.0
C4060 C 0.97626 0.63453 0.73951 0.0
C4061 C 0.96656 0.61824 0.73681 0.0
C4062 C 0.95289 0.61244 0.72776 0.0
H4063 H 0.96637 0.53882 0.7745 0.0
H4064 H 0.96024 0.55607 0.7607 0.0
C4065 C 0.94913 0.6228 0.72129 0.0
C4066 C 0.97052 0.6074 0.74398 0.0
H4067 H 0.97787 0.57758 0.737 0.0
C4068 C 0.97248 0.60856 0.7595 0.0
C4069 C 0.9726 0.59619 0.73571 0.0
C4070 C 0.97137 0.5949 0.71901 0.0
C4071 C 0.9763 0.59871 0.76699 0.0
C4072 C 0.97832 0.5875 0.75873 0.0
C4073 C 0.9763 0.58623 0.74324 0.0
C4074 C 0.98246 0.57695 0.76611 0.0
C4075 C 0.97796 0.6002 0.78369 0.0
C4076 C 0.9971 0.58299 0.77341 0.0
C4077 C 0.00063 0.5732 0.78127 0.0
C4078 C 0.98956 0.55722 0.78198 0.0
C4079 C 0.97506 0.55113 0.77427 0.0
C4080 C 0.97157 0.56091 0.76634 0.0
H4081 H 0.9733 0.6074 0.78845 0.0
H4082 H 0.97191 0.58841 0.78818 0.0
H4083 H 0.99036 0.6059 0.78743 0.0
H4084 H 0.00567 0.59534 0.77325 0.0
H4085 H 0.01184 0.57824 0.7872 0.0
H4086 H 0.34261 0.34321 0.74313 0.0
H4087 H 0.36035 0.36787 0.75752 0.0
H4088 H 0.39702 0.37446 0.73009 0.0
H4089 H 0.37942 0.34971 0.71578 0.0
H4090 H 0.40557 0.37897 0.76015 0.0
H4091 H 0.3771 0.41271 0.74497 0.0
H4092 H 0.36461 0.39415 0.75234 0.0
H4093 H 0.37278 0.39461 0.73493 0.0
C4094 C 0.35444 0.34996 0.74012 0.0
C4095 C 0.35963 0.34457 0.72831 0.0
C4096 C 0.36453 0.36408 0.7483 0.0
C4097 C 0.37993 0.37309 0.74473 0.0
C4098 C 0.38515 0.3677 0.73297 0.0
H4099 H 0.44911 0.46869 0.77244 0.0
H4100 H 0.4291 0.44425 0.75931 0.0
C4101 C 0.37508 0.35358 0.72481 0.0
C4102 C 0.39079 0.38789 0.75353 0.0
H4103 H 0.39764 0.42468 0.76362 0.0
C4104 C 0.40385 0.38897 0.76092 0.0
C4105 C 0.38855 0.40094 0.75439 0.0
C4106 C 0.37508 0.40067 0.74614 0.0
C4107 C 0.41474 0.40276 0.7692 0.0
C4108 C 0.41235 0.41571 0.77031 0.0
C4109 C 0.39933 0.41466 0.76287 0.0
C4110 C 0.42363 0.43068 0.77862 0.0
C4111 C 0.42892 0.4035 0.77637 0.0
C4112 C 0.42689 0.43123 0.7939 0.0
C4113 C 0.4383 0.44519 0.80145 0.0
C4114 C 0.44654 0.45888 0.79386 0.0
C4115 C 0.44284 0.4584 0.77864 0.0
C4116 C 0.43147 0.44443 0.77111 0.0
H4117 H 0.43078 0.39407 0.77162 0.0
H4118 H 0.43938 0.41505 0.77507 0.0
H4119 H 0.42751 0.402 0.78839 0.0
H4120 H 0.42073 0.4208 0.79995 0.0
H4121 H 0.44074 0.44526 0.81321 0.0
H4122 H 0.66648 0.05831 0.6837 0.0
H4123 H 0.64514 0.05332 0.69913 0.0
H4124 H 0.63866 0.00772 0.70738 0.0
H4125 H 0.66011 0.01273 0.69228 0.0
H4126 H 0.61425 0.02973 0.69725 0.0
H4127 H 0.64438 0.02779 0.74901 0.0
H4128 H 0.65419 0.03503 0.73235 0.0
H4129 H 0.64294 0.01423 0.73435 0.0
C4130 C 0.66045 0.0472 0.68877 0.0
C4131 C 0.66504 0.03597 0.68691 0.0
C4132 C 0.64828 0.04437 0.69756 0.0
C4133 C 0.64054 0.03029 0.70464 0.0
C4134 C 0.64473 0.01882 0.70232 0.0
H4135 H 0.56612 0.99006 0.76341 0.0
H4136 H 0.5858 0.99484 0.74593 0.0
C4137 C 0.65693 0.02167 0.69362 0.0
C4138 C 0.62821 0.02761 0.7146 0.0
H4139 H 0.61784 0.01972 0.75008 0.0
C4140 C 0.61506 0.02763 0.70882 0.0
C4141 C 0.62933 0.02493 0.72971 0.0
C4142 C 0.64353 0.02563 0.73678 0.0
C4143 C 0.60283 0.02466 0.71768 0.0
C4144 C 0.60388 0.02176 0.7327 0.0
C4145 C 0.61705 0.02185 0.73851 0.0
C4146 C 0.5915 0.01871 0.74268 0.0
C4147 C 0.58874 0.02435 0.71086 0.0
C4148 C 0.58827 0.0306 0.74666 0.0
C4149 C 0.57707 0.02791 0.75665 0.0
C4150 C 0.5689 0.01329 0.76282 0.0
C4151 C 0.5721 0.00137 0.75871 0.0
C4152 C 0.58336 0.0041 0.74879 0.0
H4153 H 0.58832 0.02352 0.69856 0.0
H4154 H 0.57804 0.01427 0.71452 0.0
H4155 H 0.58893 0.03531 0.71454 0.0
H4156 H 0.59459 0.04202 0.74221 0.0
H4157 H 0.57478 0.03727 0.75952 0.0
loop_
_geom_bond_atom_site_label_1
_geom_bond_atom_site_label_2
_geom_bond_distance
_geom_bond_site_symmetry_2
_ccdc_geom_bond_type
In0 O1 2.294 1_455 S
In0 O2 2.326 . S
In0 O6 2.266 1_455 S
In0 O7 2.326 1_454 S
In0 O8 2.266 1_554 S
In0 O9 2.326 1_455 S
In0 O11 2.294 . S
In0 O12 2.326 . S
O1 In0 2.294 1_655 S
O1 C10 1.212 1_655 S
O2 In0 2.326 . S
O2 C10 1.311 . S
C3 O6 1.252 . S
C3 O7 1.260 1_554 S
C4 O11 1.240 . S
C4 O12 1.252 . S
C5 O8 1.252 . S
C5 O9 1.260 1_456 S
O6 In0 2.266 1_655 S
O6 C3 1.252 . S
O7 In0 2.326 1_656 S
O7 C3 1.260 1_556 S
O8 In0 2.266 1_556 S
O8 C5 1.252 . S
O9 In0 2.326 1_655 S
O9 C5 1.260 1_654 S
C10 O1 1.212 1_455 S
C10 O2 1.311 . S
O11 In0 2.294 . S
O11 C4 1.240 . S
O12 In0 2.326 . S
O12 C4 1.252 . S
In13 O14 2.294 . S
In13 O15 2.326 . S
In13 O19 2.266 . S
In13 O20 2.326 . S
In13 O21 2.266 . S
In13 O22 2.326 . S
In13 O24 2.294 . S
In13 O25 2.326 . S
O14 In13 2.294 . S
O14 C23 1.240 . S
O15 In13 2.326 . S
O15 C23 1.252 . S
C16 O19 1.252 . S
C16 O20 1.260 . S
C17 O24 1.240 . S
C17 O25 1.252 . S
C18 O21 1.252 . S
C18 O22 1.260 . S
O19 In13 2.266 . S
O19 C16 1.252 . S
O20 In13 2.326 . S
O20 C16 1.260 . S
O21 In13 2.266 . S
O21 C18 1.252 . S
O22 In13 2.326 . S
O22 C18 1.260 . S
C23 O14 1.240 . S
C23 O15 1.252 . S
O24 In13 2.294 . S
O24 C17 1.240 . S
O25 In13 2.326 . S
O25 C17 1.252 . S
In26 O27 2.307 . S
In26 O28 2.333 1_554 S
In26 O32 2.269 . S
In26 O33 2.316 1_545 S
In26 O34 2.258 1_545 S
In26 O35 2.328 1_545 S
In26 O37 2.286 1_544 S
In26 O38 2.327 . S
O27 In26 2.307 . S
O27 C36 1.240 . S
O28 In26 2.333 1_556 S
O28 C36 1.252 1_556 S
C29 O32 1.252 . S
C29 O33 1.260 1_545 S
C30 O37 1.240 . S
C30 O38 1.252 1_566 S
C31 O34 1.252 . S
C31 O35 1.260 . S
O32 In26 2.269 . S
O32 C29 1.252 . S
O33 In26 2.316 1_565 S
O33 C29 1.260 1_565 S
O34 In26 2.258 1_565 S
O34 C31 1.252 . S
O35 In26 2.328 1_565 S
O35 C31 1.260 . S
C36 O27 1.240 . S
C36 O28 1.252 1_554 S
O37 In26 2.286 1_566 S
O37 C30 1.240 . S
O38 In26 2.327 . S
O38 C30 1.252 1_544 S
In39 O40 2.292 . S
In39 O41 2.326 1_455 S
In39 O45 2.265 . S
In39 O46 2.326 . S
In39 O47 2.267 1_455 S
In39 O48 2.324 . S
In39 O50 2.296 1_455 S
In39 O51 2.327 1_455 S
O40 In39 2.292 . S
O40 C49 1.260 . S
O41 In39 2.326 1_655 S
O41 C49 1.215 1_655 S
C42 O45 1.252 . S
C42 O46 1.260 . S
C43 O50 1.240 . S
C43 O51 1.252 . S
C44 O47 1.308 . S
C44 O48 1.217 1_655 S
O45 In39 2.265 . S
O45 C42 1.252 . S
O46 In39 2.326 . S
O46 C42 1.260 . S
O47 In39 2.267 1_655 S
O47 C44 1.308 . S
O48 In39 2.324 . S
O48 C44 1.217 1_455 S
C49 O40 1.260 . S
C49 O41 1.215 1_455 S
O50 In39 2.296 1_655 S
O50 C43 1.240 . S
O51 In39 2.327 1_655 S
O51 C43 1.252 . S
In52 O53 2.294 1_554 S
In52 O54 2.326 1_554 S
In52 O58 2.266 . S
In52 O59 2.326 . S
In52 O60 2.266 . S
In52 O61 2.326 . S
In52 O63 2.294 1_554 S
In52 O64 2.326 1_554 S
O53 In52 2.294 1_556 S
O53 C62 1.240 . S
O54 In52 2.326 1_556 S
O54 C62 1.252 . S
C55 O58 1.252 . S
C55 O59 1.260 . S
C56 O63 1.240 . S
C56 O64 1.252 . S
C57 O60 1.252 . S
C57 O61 1.260 . S
O58 In52 2.266 . S
O58 C55 1.252 . S
O59 In52 2.326 . S
O59 C55 1.260 . S
O60 In52 2.266 . S
O60 C57 1.252 . S
O61 In52 2.326 . S
O61 C57 1.260 . S
C62 O53 1.240 . S
C62 O54 1.252 . S
O63 In52 2.294 1_556 S
O63 C56 1.240 . S
O64 In52 2.326 1_556 S
O64 C56 1.252 . S
In65 O66 2.293 . S
In65 O67 2.326 1_545 S
In65 O71 2.265 . S
In65 O72 2.326 . S
In65 O73 2.267 1_545 S
In65 O74 2.324 . S
In65 O76 2.296 1_545 S
In65 O77 2.327 1_545 S
O66 In65 2.293 . S
O66 C75 1.240 . S
O67 In65 2.326 1_565 S
O67 C75 1.252 1_565 S
C68 O71 1.252 . S
C68 O72 1.260 . S
C69 O76 1.240 . S
C69 O77 1.252 . S
C70 O73 1.252 . S
C70 O74 1.260 1_565 S
O71 In65 2.265 . S
O71 C68 1.252 . S
O72 In65 2.326 . S
O72 C68 1.260 . S
O73 In65 2.267 1_565 S
O73 C70 1.252 . S
O74 In65 2.324 . S
O74 C70 1.260 1_545 S
C75 O66 1.240 . S
C75 O67 1.252 1_545 S
O76 In65 2.296 1_565 S
O76 C69 1.240 . S
O77 In65 2.327 1_565 S
O77 C69 1.252 . S
In78 O79 2.294 . S
In78 O80 2.326 . S
In78 O84 2.266 . S
In78 O85 2.326 . S
In78 O86 2.266 . S
In78 O87 2.326 . S
In78 O89 2.294 . S
In78 O90 2.326 . S
O79 In78 2.294 . S
O79 C88 1.240 . S
O80 In78 2.326 . S
O80 C88 1.252 . S
C81 O84 1.252 . S
C81 O85 1.260 . S
C82 O89 1.240 . S
C82 O90 1.252 . S
C83 O86 1.252 . S
C83 O87 1.260 . S
O84 In78 2.266 . S
O84 C81 1.252 . S
O85 In78 2.326 . S
O85 C81 1.260 . S
O86 In78 2.266 . S
O86 C83 1.252 . S
O87 In78 2.326 . S
O87 C83 1.260 . S
C88 O79 1.240 . S
C88 O80 1.252 . S
O89 In78 2.294 . S
O89 C82 1.240 . S
O90 In78 2.326 . S
O90 C82 1.252 . S
In91 O92 2.294 . S
In91 O93 2.326 . S
In91 O97 2.266 . S
In91 O98 2.326 . S
In91 O99 2.266 . S
In91 O100 2.326 . S
In91 O102 2.294 . S
In91 O103 2.326 . S
O92 In91 2.294 . S
O92 C101 1.240 . S
O93 In91 2.326 . S
O93 C101 1.252 . S
C94 O97 1.252 . S
C94 O98 1.260 . S
C95 O102 1.240 . S
C95 O103 1.252 . S
C96 O99 1.252 . S
C96 O100 1.260 . S
O97 In91 2.266 . S
O97 C94 1.252 . S
O98 In91 2.326 . S
O98 C94 1.260 . S
O99 In91 2.266 . S
O99 C96 1.252 . S
O100 In91 2.326 . S
O100 C96 1.260 . S
C101 O92 1.240 . S
C101 O93 1.252 . S
O102 In91 2.294 . S
O102 C95 1.240 . S
O103 In91 2.326 . S
O103 C95 1.252 . S
In104 O105 2.294 . S
In104 O106 2.326 . S
In104 O110 2.266 . S
In104 O111 2.326 . S
In104 O112 2.266 . S
In104 O113 2.326 . S
In104 O115 2.294 . S
In104 O116 2.326 . S
O105 In104 2.294 . S
O105 C114 1.240 . S
O106 In104 2.326 . S
O106 C114 1.252 . S
C107 O110 1.252 . S
C107 O111 1.260 . S
C108 O115 1.240 . S
C108 O116 1.252 . S
C109 O112 1.252 . S
C109 O113 1.260 . S
O110 In104 2.266 . S
O110 C107 1.252 . S
O111 In104 2.326 . S
O111 C107 1.260 . S
O112 In104 2.266 . S
O112 C109 1.252 . S
O113 In104 2.326 . S
O113 C109 1.260 . S
C114 O105 1.240 . S
C114 O106 1.252 . S
O115 In104 2.294 . S
O115 C108 1.240 . S
O116 In104 2.326 . S
O116 C108 1.252 . S
In117 O118 2.294 . S
In117 O119 2.326 . S
In117 O123 2.266 . S
In117 O124 2.326 . S
In117 O125 2.266 . S
In117 O126 2.326 . S
In117 O128 2.294 . S
In117 O129 2.326 . S
O118 In117 2.294 . S
O118 C127 1.240 . S
O119 In117 2.326 . S
O119 C127 1.252 . S
C120 O123 1.252 . S
C120 O124 1.260 . S
C121 O128 1.240 . S
C121 O129 1.252 . S
C122 O125 1.252 . S
C122 O126 1.260 . S
O123 In117 2.266 . S
O123 C120 1.252 . S
O124 In117 2.326 . S
O124 C120 1.260 . S
O125 In117 2.266 . S
O125 C122 1.252 . S
O126 In117 2.326 . S
O126 C122 1.260 . S
C127 O118 1.240 . S
C127 O119 1.252 . S
O128 In117 2.294 . S
O128 C121 1.240 . S
O129 In117 2.326 . S
O129 C121 1.252 . S
In130 O131 2.294 . S
In130 O132 2.326 . S
In130 O136 2.266 . S
In130 O137 2.326 . S
In130 O138 2.266 . S
In130 O139 2.326 . S
In130 O141 2.294 . S
In130 O142 2.326 . S
O131 In130 2.294 . S
O131 C140 1.240 . S
O132 In130 2.326 . S
O132 C140 1.252 . S
C133 O136 1.252 . S
C133 O137 1.260 . S
C134 O141 1.240 . S
C134 O142 1.252 . S
C135 O138 1.252 . S
C135 O139 1.260 . S
O136 In130 2.266 . S
O136 C133 1.252 . S
O137 In130 2.326 . S
O137 C133 1.260 . S
O138 In130 2.266 . S
O138 C135 1.252 . S
O139 In130 2.326 . S
O139 C135 1.260 . S
C140 O131 1.240 . S
C140 O132 1.252 . S
O141 In130 2.294 . S
O141 C134 1.240 . S
O142 In130 2.326 . S
O142 C134 1.252 . S
In143 O144 2.294 . S
In143 O145 2.326 . S
In143 O149 2.266 . S
In143 O150 2.326 . S
In143 O151 2.266 . S
In143 O152 2.326 . S
In143 O154 2.294 . S
In143 O155 2.326 . S
O144 In143 2.294 . S
O144 C153 1.240 . S
O145 In143 2.326 . S
O145 C153 1.252 . S
C146 O149 1.252 . S
C146 O150 1.260 . S
C147 O154 1.240 . S
C147 O155 1.252 . S
C148 O151 1.252 . S
C148 O152 1.260 . S
O149 In143 2.266 . S
O149 C146 1.252 . S
O150 In143 2.326 . S
O150 C146 1.260 . S
O151 In143 2.266 . S
O151 C148 1.252 . S
O152 In143 2.326 . S
O152 C148 1.260 . S
C153 O144 1.240 . S
C153 O145 1.252 . S
O154 In143 2.294 . S
O154 C147 1.240 . S
O155 In143 2.326 . S
O155 C147 1.252 . S
In156 O157 2.294 . S
In156 O158 2.326 . S
In156 O162 2.266 . S
In156 O163 2.326 . S
In156 O164 2.266 . S
In156 O165 2.326 . S
In156 O167 2.294 . S
In156 O168 2.326 . S
O157 In156 2.294 . S
O157 C166 1.240 . S
O158 In156 2.326 . S
O158 C166 1.252 . S
C159 O162 1.252 . S
C159 O163 1.260 . S
C160 O167 1.240 . S
C160 O168 1.252 . S
C161 O164 1.252 . S
C161 O165 1.260 . S
O162 In156 2.266 . S
O162 C159 1.252 . S
O163 In156 2.326 . S
O163 C159 1.260 . S
O164 In156 2.266 . S
O164 C161 1.252 . S
O165 In156 2.326 . S
O165 C161 1.260 . S
C166 O157 1.240 . S
C166 O158 1.252 . S
O167 In156 2.294 . S
O167 C160 1.240 . S
O168 In156 2.326 . S
O168 C160 1.252 . S
In169 O170 2.294 . S
In169 O171 2.326 . S
In169 O175 2.266 . S
In169 O176 2.326 . S
In169 O177 2.266 . S
In169 O178 2.326 . S
In169 O180 2.294 . S
In169 O181 2.326 . S
O170 In169 2.294 . S
O170 C179 1.240 . S
O171 In169 2.326 . S
O171 C179 1.252 . S
C172 O175 1.252 . S
C172 O176 1.260 . S
C173 O180 1.240 . S
C173 O181 1.252 . S
C174 O177 1.252 . S
C174 O178 1.260 . S
O175 In169 2.266 . S
O175 C172 1.252 . S
O176 In169 2.326 . S
O176 C172 1.260 . S
O177 In169 2.266 . S
O177 C174 1.252 . S
O178 In169 2.326 . S
O178 C174 1.260 . S
C179 O170 1.240 . S
C179 O171 1.252 . S
O180 In169 2.294 . S
O180 C173 1.240 . S
O181 In169 2.326 . S
O181 C173 1.252 . S
In182 O183 2.294 . S
In182 O184 2.326 . S
In182 O188 2.266 . S
In182 O189 2.326 . S
In182 O190 2.266 . S
In182 O191 2.326 . S
In182 O193 2.294 . S
In182 O194 2.326 . S
O183 In182 2.294 . S
O183 C192 1.240 . S
O184 In182 2.326 . S
O184 C192 1.252 . S
C185 O188 1.252 . S
C185 O189 1.260 . S
C186 O193 1.240 . S
C186 O194 1.252 . S
C187 O190 1.252 . S
C187 O191 1.260 . S
O188 In182 2.266 . S
O188 C185 1.252 . S
O189 In182 2.326 . S
O189 C185 1.260 . S
O190 In182 2.266 . S
O190 C187 1.252 . S
O191 In182 2.326 . S
O191 C187 1.260 . S
C192 O183 1.240 . S
C192 O184 1.252 . S
O193 In182 2.294 . S
O193 C186 1.240 . S
O194 In182 2.326 . S
O194 C186 1.252 . S
In195 O196 2.294 . S
In195 O197 2.326 . S
In195 O201 2.266 . S
In195 O202 2.326 . S
In195 O203 2.266 . S
In195 O204 2.326 . S
In195 O206 2.294 . S
In195 O207 2.326 . S
O196 In195 2.294 . S
O196 C205 1.240 . S
O197 In195 2.326 . S
O197 C205 1.252 . S
C198 O201 1.252 . S
C198 O202 1.260 . S
C199 O206 1.240 . S
C199 O207 1.252 . S
C200 O203 1.252 . S
C200 O204 1.260 . S
O201 In195 2.266 . S
O201 C198 1.252 . S
O202 In195 2.326 . S
O202 C198 1.260 . S
O203 In195 2.266 . S
O203 C200 1.252 . S
O204 In195 2.326 . S
O204 C200 1.260 . S
C205 O196 1.240 . S
C205 O197 1.252 . S
O206 In195 2.294 . S
O206 C199 1.240 . S
O207 In195 2.326 . S
O207 C199 1.252 . S
In208 O209 2.294 . S
In208 O210 2.326 . S
In208 O214 2.266 . S
In208 O215 2.326 . S
In208 O216 2.266 . S
In208 O217 2.326 . S
In208 O219 2.294 . S
In208 O220 2.326 . S
O209 In208 2.294 . S
O209 C218 1.240 . S
O210 In208 2.326 . S
O210 C218 1.252 . S
C211 O214 1.252 . S
C211 O215 1.260 . S
C212 O219 1.240 . S
C212 O220 1.252 . S
C213 O216 1.252 . S
C213 O217 1.260 . S
O214 In208 2.266 . S
O214 C211 1.252 . S
O215 In208 2.326 . S
O215 C211 1.260 . S
O216 In208 2.266 . S
O216 C213 1.252 . S
O217 In208 2.326 . S
O217 C213 1.260 . S
C218 O209 1.240 . S
C218 O210 1.252 . S
O219 In208 2.294 . S
O219 C212 1.240 . S
O220 In208 2.326 . S
O220 C212 1.252 . S
In221 O222 2.294 . S
In221 O223 2.326 . S
In221 O227 2.266 . S
In221 O228 2.326 . S
In221 O229 2.266 . S
In221 O230 2.326 . S
In221 O232 2.294 . S
In221 O233 2.326 . S
O222 In221 2.294 . S
O222 C231 1.240 . S
O223 In221 2.326 . S
O223 C231 1.252 . S
C224 O227 1.252 . S
C224 O228 1.260 . S
C225 O232 1.240 . S
C225 O233 1.252 . S
C226 O229 1.252 . S
C226 O230 1.260 . S
O227 In221 2.266 . S
O227 C224 1.252 . S
O228 In221 2.326 . S
O228 C224 1.260 . S
O229 In221 2.266 . S
O229 C226 1.252 . S
O230 In221 2.326 . S
O230 C226 1.260 . S
C231 O222 1.240 . S
C231 O223 1.252 . S
O232 In221 2.294 . S
O232 C225 1.240 . S
O233 In221 2.326 . S
O233 C225 1.252 . S
H234 O260 0.856 . S
H235 O263 0.854 . S
H236 C271 0.930 . S
H237 C272 0.930 . S
H238 C274 0.930 . S
H239 C275 0.930 . S
H240 C277 0.931 . S
H241 C278 0.930 . S
H242 C280 0.930 . S
H243 C281 0.929 . S
H244 C283 0.930 . S
H245 C284 0.931 . S
H246 C286 0.930 . S
H247 C287 0.929 . S
H248 C289 0.931 . S
H249 C290 0.930 . S
H250 C292 0.930 . S
H251 C293 0.932 . S
H252 C295 0.930 . S
H253 C296 0.929 . S
H254 C298 0.931 . S
H255 C299 0.930 . S
H256 C301 0.929 . S
H257 C302 0.931 . S
H258 C304 0.930 . S
H259 C305 0.929 . S
O260 H234 0.856 . S
O260 C306 1.300 . S
O261 C306 1.209 . S
O262 C307 1.199 . S
O263 H235 0.854 . S
O263 C307 1.297 . S
C264 C265 1.404 . S
C264 C269 1.397 . S
C264 C270 1.492 . S
C265 C264 1.404 . S
C265 C266 1.396 . S
C265 C276 1.492 . S
C266 C265 1.396 . S
C266 C267 1.397 . S
C266 C282 1.509 . S
C267 C266 1.397 . S
C267 C268 1.412 . S
C267 C288 1.485 . S
C268 C267 1.412 . S
C268 C269 1.388 . S
C268 C294 1.490 . S
C269 C264 1.397 . S
C269 C268 1.388 . S
C269 C300 1.519 . S
C270 C264 1.492 . S
C270 C271 1.363 . S
C270 C275 1.390 . S
C271 H236 0.930 . S
C271 C270 1.363 . S
C271 C272 1.372 . S
C272 H237 0.930 . S
C272 C271 1.372 . S
C272 C273 1.383 . S
C273 C272 1.383 . S
C273 C274 1.395 . S
C274 H238 0.930 . S
C274 C273 1.395 . S
C274 C275 1.362 . S
C275 H239 0.930 . S
C275 C270 1.390 . S
C275 C274 1.362 . S
C276 C265 1.492 . S
C276 C277 1.377 . S
C276 C281 1.397 . S
C277 H240 0.931 . S
C277 C276 1.377 . S
C277 C278 1.376 . S
C278 H241 0.930 . S
C278 C277 1.376 . S
C278 C279 1.376 . S
C279 C278 1.376 . S
C279 C280 1.378 . S
C279 C306 1.486 . S
C280 H242 0.930 . S
C280 C279 1.378 . S
C280 C281 1.376 . S
C281 H243 0.929 . S
C281 C276 1.397 . S
C281 C280 1.376 . S
C282 C266 1.509 . S
C282 C283 1.391 . S
C282 C287 1.386 . S
C283 H244 0.930 . S
C283 C282 1.391 . S
C283 C284 1.375 . S
C284 H245 0.931 . S
C284 C283 1.375 . S
C284 C285 1.375 . S
C285 C284 1.375 . S
C285 C286 1.361 . S
C286 H246 0.930 . S
C286 C285 1.361 . S
C286 C287 1.399 . S
C287 H247 0.929 . S
C287 C282 1.386 . S
C287 C286 1.399 . S
C288 C267 1.485 . S
C288 C289 1.394 . S
C288 C293 1.360 . S
C289 H248 0.931 . S
C289 C288 1.394 . S
C289 C290 1.372 . S
C290 H249 0.930 . S
C290 C289 1.372 . S
C290 C291 1.397 . S
C291 C290 1.397 . S
C291 C292 1.390 . S
C291 C307 1.476 . S
C292 H250 0.930 . S
C292 C291 1.390 . S
C292 C293 1.366 . S
C293 H251 0.932 . S
C293 C288 1.360 . S
C293 C292 1.366 . S
C294 C268 1.490 . S
C294 C295 1.380 . S
C294 C299 1.386 . S
C295 H252 0.930 . S
C295 C294 1.380 . S
C295 C296 1.381 . S
C296 H253 0.929 . S
C296 C295 1.381 . S
C296 C297 1.371 . S
C297 C296 1.371 . S
C297 C298 1.380 . S
C298 H254 0.931 . S
C298 C297 1.380 . S
C298 C299 1.387 . S
C299 H255 0.930 . S
C299 C294 1.386 . S
C299 C298 1.387 . S
C300 C269 1.519 . S
C300 C301 1.377 . S
C300 C305 1.361 . S
C301 H256 0.929 . S
C301 C300 1.377 . S
C301 C302 1.386 . S
C302 H257 0.931 . S
C302 C301 1.386 . S
C302 C303 1.363 . S
C303 C302 1.363 . S
C303 C304 1.385 . S
C304 H258 0.930 . S
C304 C303 1.385 . S
C304 C305 1.396 . S
C305 H259 0.929 . S
C305 C300 1.361 . S
C305 C304 1.396 . S
C306 O260 1.300 . S
C306 O261 1.209 . S
C306 C279 1.486 . S
C307 O262 1.199 . S
C307 O263 1.297 . S
C307 C291 1.476 . S
H308 O334 0.856 . S
H309 O337 0.854 . S
H310 C345 0.930 . S
H311 C346 0.930 . S
H312 C348 0.930 . S
H313 C349 0.930 . S
H314 C351 0.931 . S
H315 C352 0.930 . S
H316 C354 0.930 . S
H317 C355 0.929 . S
H318 C357 0.930 . S
H319 C358 0.931 . S
H320 C360 0.930 . S
H321 C361 0.929 . S
H322 C363 0.931 . S
H323 C364 0.930 . S
H324 C366 0.930 . S
H325 C367 0.932 . S
H326 C369 0.930 . S
H327 C370 0.929 . S
H328 C372 0.931 . S
H329 C373 0.930 . S
H330 C375 0.929 . S
H331 C376 0.931 . S
H332 C378 0.930 . S
H333 C379 0.929 . S
O334 H308 0.856 . S
O334 C380 1.300 . S
O335 C380 1.209 . S
O336 C381 1.199 . S
O337 H309 0.854 . S
O337 C381 1.297 . S
C338 C339 1.404 . S
C338 C343 1.397 . S
C338 C344 1.492 . S
C339 C338 1.404 . S
C339 C340 1.396 . S
C339 C350 1.492 . S
C340 C339 1.396 . S
C340 C341 1.397 . S
C340 C356 1.509 . S
C341 C340 1.397 . S
C341 C342 1.412 . S
C341 C362 1.485 . S
C342 C341 1.412 . S
C342 C343 1.388 . S
C342 C368 1.490 . S
C343 C338 1.397 . S
C343 C342 1.388 . S
C343 C374 1.519 . S
C344 C338 1.492 . S
C344 C345 1.363 . S
C344 C349 1.390 . S
C345 H310 0.930 . S
C345 C344 1.363 . S
C345 C346 1.372 . S
C346 H311 0.930 . S
C346 C345 1.372 . S
C346 C347 1.383 . S
C347 C346 1.383 . S
C347 C348 1.395 . S
C348 H312 0.930 . S
C348 C347 1.395 . S
C348 C349 1.362 . S
C349 H313 0.930 . S
C349 C344 1.390 . S
C349 C348 1.362 . S
C350 C339 1.492 . S
C350 C351 1.377 . S
C350 C355 1.397 . S
C351 H314 0.931 . S
C351 C350 1.377 . S
C351 C352 1.376 . S
C352 H315 0.930 . S
C352 C351 1.376 . S
C352 C353 1.376 . S
C353 C352 1.376 . S
C353 C354 1.378 . S
C353 C380 1.486 . S
C354 H316 0.930 . S
C354 C353 1.378 . S
C354 C355 1.376 . S
C355 H317 0.929 . S
C355 C350 1.397 . S
C355 C354 1.376 . S
C356 C340 1.509 . S
C356 C357 1.391 . S
C356 C361 1.386 . S
C357 H318 0.930 . S
C357 C356 1.391 . S
C357 C358 1.375 . S
C358 H319 0.931 . S
C358 C357 1.375 . S
C358 C359 1.375 . S
C359 C358 1.375 . S
C359 C360 1.361 . S
C360 H320 0.930 . S
C360 C359 1.361 . S
C360 C361 1.399 . S
C361 H321 0.929 . S
C361 C356 1.386 . S
C361 C360 1.399 . S
C362 C341 1.485 . S
C362 C363 1.394 . S
C362 C367 1.360 . S
C363 H322 0.931 . S
C363 C362 1.394 . S
C363 C364 1.372 . S
C364 H323 0.930 . S
C364 C363 1.372 . S
C364 C365 1.397 . S
C365 C364 1.397 . S
C365 C366 1.390 . S
C365 C381 1.476 . S
C366 H324 0.930 . S
C366 C365 1.390 . S
C366 C367 1.366 . S
C367 H325 0.932 . S
C367 C362 1.360 . S
C367 C366 1.366 . S
C368 C342 1.490 . S
C368 C369 1.380 . S
C368 C373 1.386 . S
C369 H326 0.930 . S
C369 C368 1.380 . S
C369 C370 1.381 . S
C370 H327 0.929 . S
C370 C369 1.381 . S
C370 C371 1.371 . S
C371 C370 1.371 . S
C371 C372 1.380 . S
C372 H328 0.931 . S
C372 C371 1.380 . S
C372 C373 1.387 . S
C373 H329 0.930 . S
C373 C368 1.386 . S
C373 C372 1.387 . S
C374 C343 1.519 . S
C374 C375 1.377 . S
C374 C379 1.361 . S
C375 H330 0.929 . S
C375 C374 1.377 . S
C375 C376 1.386 . S
C376 H331 0.931 . S
C376 C375 1.386 . S
C376 C377 1.363 . S
C377 C376 1.363 . S
C377 C378 1.385 . S
C378 H332 0.930 . S
C378 C377 1.385 . S
C378 C379 1.396 . S
C379 H333 0.929 . S
C379 C374 1.361 . S
C379 C378 1.396 . S
C380 O334 1.300 . S
C380 O335 1.209 . S
C380 C353 1.486 . S
C381 O336 1.199 . S
C381 O337 1.297 . S
C381 C365 1.476 . S
H382 O408 0.856 . S
H383 O411 0.854 . S
H384 C419 0.930 . S
H385 C420 0.930 . S
H386 C422 0.930 . S
H387 C423 0.930 . S
H388 C425 0.931 . S
H389 C426 0.930 . S
H390 C428 0.930 . S
H391 C429 0.929 . S
H392 C431 0.930 . S
H393 C432 0.931 . S
H394 C434 0.930 . S
H395 C435 0.929 . S
H396 C437 0.931 . S
H397 C438 0.930 . S
H398 C440 0.930 . S
H399 C441 0.932 . S
H400 C443 0.930 . S
H401 C444 0.929 . S
H402 C446 0.931 . S
H403 C447 0.930 . S
H404 C449 0.929 . S
H405 C450 0.931 . S
H406 C452 0.930 . S
H407 C453 0.929 . S
O408 H382 0.856 . S
O408 C454 1.300 . S
O409 C454 1.209 . S
O410 C455 1.199 . S
O411 H383 0.854 . S
O411 C455 1.297 . S
C412 C413 1.404 . S
C412 C417 1.397 . S
C412 C418 1.492 . S
C413 C412 1.404 . S
C413 C414 1.396 . S
C413 C424 1.492 . S
C414 C413 1.396 . S
C414 C415 1.397 . S
C414 C430 1.509 . S
C415 C414 1.397 . S
C415 C416 1.412 . S
C415 C436 1.485 . S
C416 C415 1.412 . S
C416 C417 1.388 . S
C416 C442 1.490 . S
C417 C412 1.397 . S
C417 C416 1.388 . S
C417 C448 1.519 . S
C418 C412 1.492 . S
C418 C419 1.363 . S
C418 C423 1.390 . S
C419 H384 0.930 . S
C419 C418 1.363 . S
C419 C420 1.372 . S
C420 H385 0.930 . S
C420 C419 1.372 . S
C420 C421 1.383 . S
C421 C420 1.383 . S
C421 C422 1.395 . S
C422 H386 0.930 . S
C422 C421 1.395 . S
C422 C423 1.362 . S
C423 H387 0.930 . S
C423 C418 1.390 . S
C423 C422 1.362 . S
C424 C413 1.492 . S
C424 C425 1.377 . S
C424 C429 1.397 . S
C425 H388 0.931 . S
C425 C424 1.377 . S
C425 C426 1.376 . S
C426 H389 0.930 . S
C426 C425 1.376 . S
C426 C427 1.376 . S
C427 C426 1.376 . S
C427 C428 1.378 . S
C427 C454 1.486 . S
C428 H390 0.930 . S
C428 C427 1.378 . S
C428 C429 1.376 . S
C429 H391 0.929 . S
C429 C424 1.397 . S
C429 C428 1.376 . S
C430 C414 1.509 . S
C430 C431 1.391 . S
C430 C435 1.386 . S
C431 H392 0.930 . S
C431 C430 1.391 . S
C431 C432 1.375 . S
C432 H393 0.931 . S
C432 C431 1.375 . S
C432 C433 1.375 . S
C433 C432 1.375 . S
C433 C434 1.361 . S
C434 H394 0.930 . S
C434 C433 1.361 . S
C434 C435 1.399 . S
C435 H395 0.929 . S
C435 C430 1.386 . S
C435 C434 1.399 . S
C436 C415 1.485 . S
C436 C437 1.394 . S
C436 C441 1.360 . S
C437 H396 0.931 . S
C437 C436 1.394 . S
C437 C438 1.372 . S
C438 H397 0.930 . S
C438 C437 1.372 . S
C438 C439 1.397 . S
C439 C438 1.397 . S
C439 C440 1.390 . S
C439 C455 1.476 . S
C440 H398 0.930 . S
C440 C439 1.390 . S
C440 C441 1.366 . S
C441 H399 0.932 . S
C441 C436 1.360 . S
C441 C440 1.366 . S
C442 C416 1.490 . S
C442 C443 1.380 . S
C442 C447 1.386 . S
C443 H400 0.930 . S
C443 C442 1.380 . S
C443 C444 1.381 . S
C444 H401 0.929 . S
C444 C443 1.381 . S
C444 C445 1.371 . S
C445 C444 1.371 . S
C445 C446 1.380 . S
C446 H402 0.931 . S
C446 C445 1.380 . S
C446 C447 1.387 . S
C447 H403 0.930 . S
C447 C442 1.386 . S
C447 C446 1.387 . S
C448 C417 1.519 . S
C448 C449 1.377 . S
C448 C453 1.361 . S
C449 H404 0.929 . S
C449 C448 1.377 . S
C449 C450 1.386 . S
C450 H405 0.931 . S
C450 C449 1.386 . S
C450 C451 1.363 . S
C451 C450 1.363 . S
C451 C452 1.385 . S
C452 H406 0.930 . S
C452 C451 1.385 . S
C452 C453 1.396 . S
C453 H407 0.929 . S
C453 C448 1.361 . S
C453 C452 1.396 . S
C454 O408 1.300 . S
C454 O409 1.209 . S
C454 C427 1.486 . S
C455 O410 1.199 . S
C455 O411 1.297 . S
C455 C439 1.476 . S
H456 O482 0.856 . S
H457 O485 0.854 . S
H458 C493 0.930 . S
H459 C494 0.930 . S
H460 C496 0.930 . S
H461 C497 0.930 . S
H462 C499 0.931 . S
H463 C500 0.930 . S
H464 C502 0.930 . S
H465 C503 0.929 . S
H466 C505 0.930 . S
H467 C506 0.931 . S
H468 C508 0.930 . S
H469 C509 0.929 . S
H470 C511 0.931 . S
H471 C512 0.930 . S
H472 C514 0.930 . S
H473 C515 0.932 . S
H474 C517 0.930 . S
H475 C518 0.929 . S
H476 C520 0.931 . S
H477 C521 0.930 . S
H478 C523 0.929 . S
H479 C524 0.931 . S
H480 C526 0.930 . S
H481 C527 0.929 . S
O482 H456 0.856 . S
O482 C528 1.300 . S
O483 C528 1.209 . S
O484 C529 1.199 . S
O485 H457 0.854 . S
O485 C529 1.297 . S
C486 C487 1.404 . S
C486 C491 1.397 . S
C486 C492 1.492 . S
C487 C486 1.404 . S
C487 C488 1.396 . S
C487 C498 1.492 . S
C488 C487 1.396 . S
C488 C489 1.397 . S
C488 C504 1.509 . S
C489 C488 1.397 . S
C489 C490 1.412 . S
C489 C510 1.485 . S
C490 C489 1.412 . S
C490 C491 1.388 . S
C490 C516 1.490 . S
C491 C486 1.397 . S
C491 C490 1.388 . S
C491 C522 1.519 . S
C492 C486 1.492 . S
C492 C493 1.363 . S
C492 C497 1.390 . S
C493 H458 0.930 . S
C493 C492 1.363 . S
C493 C494 1.372 . S
C494 H459 0.930 . S
C494 C493 1.372 . S
C494 C495 1.383 . S
C495 C494 1.383 . S
C495 C496 1.395 . S
C496 H460 0.930 . S
C496 C495 1.395 . S
C496 C497 1.362 . S
C497 H461 0.930 . S
C497 C492 1.390 . S
C497 C496 1.362 . S
C498 C487 1.492 . S
C498 C499 1.377 . S
C498 C503 1.397 . S
C499 H462 0.931 . S
C499 C498 1.377 . S
C499 C500 1.376 . S
C500 H463 0.930 . S
C500 C499 1.376 . S
C500 C501 1.376 . S
C501 C500 1.376 . S
C501 C502 1.378 . S
C501 C528 1.486 . S
C502 H464 0.930 . S
C502 C501 1.378 . S
C502 C503 1.376 . S
C503 H465 0.929 . S
C503 C498 1.397 . S
C503 C502 1.376 . S
C504 C488 1.509 . S
C504 C505 1.391 . S
C504 C509 1.386 . S
C505 H466 0.930 . S
C505 C504 1.391 . S
C505 C506 1.375 . S
C506 H467 0.931 . S
C506 C505 1.375 . S
C506 C507 1.375 . S
C507 C506 1.375 . S
C507 C508 1.361 . S
C508 H468 0.930 . S
C508 C507 1.361 . S
C508 C509 1.399 . S
C509 H469 0.929 . S
C509 C504 1.386 . S
C509 C508 1.399 . S
C510 C489 1.485 . S
C510 C511 1.394 . S
C510 C515 1.360 . S
C511 H470 0.931 . S
C511 C510 1.394 . S
C511 C512 1.372 . S
C512 H471 0.930 . S
C512 C511 1.372 . S
C512 C513 1.397 . S
C513 C512 1.397 . S
C513 C514 1.390 . S
C513 C529 1.476 . S
C514 H472 0.930 . S
C514 C513 1.390 . S
C514 C515 1.366 . S
C515 H473 0.932 . S
C515 C510 1.360 . S
C515 C514 1.366 . S
C516 C490 1.490 . S
C516 C517 1.380 . S
C516 C521 1.386 . S
C517 H474 0.930 . S
C517 C516 1.380 . S
C517 C518 1.381 . S
C518 H475 0.929 . S
C518 C517 1.381 . S
C518 C519 1.371 . S
C519 C518 1.371 . S
C519 C520 1.380 . S
C520 H476 0.931 . S
C520 C519 1.380 . S
C520 C521 1.387 . S
C521 H477 0.930 . S
C521 C516 1.386 . S
C521 C520 1.387 . S
C522 C491 1.519 . S
C522 C523 1.377 . S
C522 C527 1.361 . S
C523 H478 0.929 . S
C523 C522 1.377 . S
C523 C524 1.386 . S
C524 H479 0.931 . S
C524 C523 1.386 . S
C524 C525 1.363 . S
C525 C524 1.363 . S
C525 C526 1.385 . S
C526 H480 0.930 . S
C526 C525 1.385 . S
C526 C527 1.396 . S
C527 H481 0.929 . S
C527 C522 1.361 . S
C527 C526 1.396 . S
C528 O482 1.300 . S
C528 O483 1.209 . S
C528 C501 1.486 . S
C529 O484 1.199 . S
C529 O485 1.297 . S
C529 C513 1.476 . S
H530 O556 0.856 . S
H531 O559 0.854 . S
H532 C567 0.930 . S
H533 C568 0.930 . S
H534 C570 0.930 . S
H535 C571 0.930 . S
H536 C573 0.931 . S
H537 C574 0.930 . S
H538 C576 0.930 . S
H539 C577 0.929 . S
H540 C579 0.930 . S
H541 C580 0.931 . S
H542 C582 0.930 . S
H543 C583 0.929 . S
H544 C585 0.931 . S
H545 C586 0.930 . S
H546 C588 0.930 . S
H547 C589 0.932 . S
H548 C591 0.930 . S
H549 C592 0.929 . S
H550 C594 0.931 . S
H551 C595 0.930 . S
H552 C597 0.929 . S
H553 C598 0.931 . S
H554 C600 0.930 . S
H555 C601 0.929 . S
O556 H530 0.856 . S
O556 C602 1.300 . S
O557 C602 1.209 . S
O558 C603 1.199 . S
O559 H531 0.854 . S
O559 C603 1.297 . S
C560 C561 1.404 . S
C560 C565 1.397 . S
C560 C566 1.492 . S
C561 C560 1.404 . S
C561 C562 1.396 . S
C561 C572 1.492 . S
C562 C561 1.396 . S
C562 C563 1.397 . S
C562 C578 1.509 . S
C563 C562 1.397 . S
C563 C564 1.412 . S
C563 C584 1.485 . S
C564 C563 1.412 . S
C564 C565 1.388 . S
C564 C590 1.490 . S
C565 C560 1.397 . S
C565 C564 1.388 . S
C565 C596 1.519 . S
C566 C560 1.492 . S
C566 C567 1.363 . S
C566 C571 1.390 . S
C567 H532 0.930 . S
C567 C566 1.363 . S
C567 C568 1.372 . S
C568 H533 0.930 . S
C568 C567 1.372 . S
C568 C569 1.383 . S
C569 C568 1.383 . S
C569 C570 1.395 . S
C570 H534 0.930 . S
C570 C569 1.395 . S
C570 C571 1.362 . S
C571 H535 0.930 . S
C571 C566 1.390 . S
C571 C570 1.362 . S
C572 C561 1.492 . S
C572 C573 1.377 . S
C572 C577 1.397 . S
C573 H536 0.931 . S
C573 C572 1.377 . S
C573 C574 1.376 . S
C574 H537 0.930 . S
C574 C573 1.376 . S
C574 C575 1.376 . S
C575 C574 1.376 . S
C575 C576 1.378 . S
C575 C602 1.486 . S
C576 H538 0.930 . S
C576 C575 1.378 . S
C576 C577 1.376 . S
C577 H539 0.929 . S
C577 C572 1.397 . S
C577 C576 1.376 . S
C578 C562 1.509 . S
C578 C579 1.391 . S
C578 C583 1.386 . S
C579 H540 0.930 . S
C579 C578 1.391 . S
C579 C580 1.375 . S
C580 H541 0.931 . S
C580 C579 1.375 . S
C580 C581 1.375 . S
C581 C580 1.375 . S
C581 C582 1.361 . S
C582 H542 0.930 . S
C582 C581 1.361 . S
C582 C583 1.399 . S
C583 H543 0.929 . S
C583 C578 1.386 . S
C583 C582 1.399 . S
C584 C563 1.485 . S
C584 C585 1.394 . S
C584 C589 1.360 . S
C585 H544 0.931 . S
C585 C584 1.394 . S
C585 C586 1.372 . S
C586 H545 0.930 . S
C586 C585 1.372 . S
C586 C587 1.397 . S
C587 C586 1.397 . S
C587 C588 1.390 . S
C587 C603 1.476 . S
C588 H546 0.930 . S
C588 C587 1.390 . S
C588 C589 1.366 . S
C589 H547 0.932 . S
C589 C584 1.360 . S
C589 C588 1.366 . S
C590 C564 1.490 . S
C590 C591 1.380 . S
C590 C595 1.386 . S
C591 H548 0.930 . S
C591 C590 1.380 . S
C591 C592 1.381 . S
C592 H549 0.929 . S
C592 C591 1.381 . S
C592 C593 1.371 . S
C593 C592 1.371 . S
C593 C594 1.380 . S
C594 H550 0.931 . S
C594 C593 1.380 . S
C594 C595 1.387 . S
C595 H551 0.930 . S
C595 C590 1.386 . S
C595 C594 1.387 . S
C596 C565 1.519 . S
C596 C597 1.377 . S
C596 C601 1.361 . S
C597 H552 0.929 . S
C597 C596 1.377 . S
C597 C598 1.386 . S
C598 H553 0.931 . S
C598 C597 1.386 . S
C598 C599 1.363 . S
C599 C598 1.363 . S
C599 C600 1.385 . S
C600 H554 0.930 . S
C600 C599 1.385 . S
C600 C601 1.396 . S
C601 H555 0.929 . S
C601 C596 1.361 . S
C601 C600 1.396 . S
C602 O556 1.300 . S
C602 O557 1.209 . S
C602 C575 1.486 . S
C603 O558 1.199 . S
C603 O559 1.297 . S
C603 C587 1.476 . S
H604 O630 0.856 . S
H605 O633 0.854 . S
H606 C641 0.930 . S
H607 C642 0.930 . S
H608 C644 0.930 . S
H609 C645 0.930 . S
H610 C647 0.931 . S
H611 C648 0.930 . S
H612 C650 0.930 . S
H613 C651 0.929 . S
H614 C653 0.930 . S
H615 C654 0.931 . S
H616 C656 0.930 . S
H617 C657 0.929 . S
H618 C659 0.931 . S
H619 C660 0.930 . S
H620 C662 0.930 . S
H621 C663 0.932 . S
H622 C665 0.930 . S
H623 C666 0.929 . S
H624 C668 0.931 . S
H625 C669 0.930 . S
H626 C671 0.929 . S
H627 C672 0.931 . S
H628 C674 0.930 . S
H629 C675 0.929 . S
O630 H604 0.856 . S
O630 C676 1.300 . S
O631 C676 1.209 . S
O632 C677 1.199 . S
O633 H605 0.854 . S
O633 C677 1.297 . S
C634 C635 1.404 . S
C634 C639 1.397 . S
C634 C640 1.492 . S
C635 C634 1.404 . S
C635 C636 1.396 . S
C635 C646 1.492 . S
C636 C635 1.396 . S
C636 C637 1.397 . S
C636 C652 1.509 . S
C637 C636 1.397 . S
C637 C638 1.412 . S
C637 C658 1.485 . S
C638 C637 1.412 . S
C638 C639 1.388 . S
C638 C664 1.490 . S
C639 C634 1.397 . S
C639 C638 1.388 . S
C639 C670 1.519 . S
C640 C634 1.492 . S
C640 C641 1.363 . S
C640 C645 1.390 . S
C641 H606 0.930 . S
C641 C640 1.363 . S
C641 C642 1.372 . S
C642 H607 0.930 . S
C642 C641 1.372 . S
C642 C643 1.383 . S
C643 C642 1.383 . S
C643 C644 1.395 . S
C644 H608 0.930 . S
C644 C643 1.395 . S
C644 C645 1.362 . S
C645 H609 0.930 . S
C645 C640 1.390 . S
C645 C644 1.362 . S
C646 C635 1.492 . S
C646 C647 1.377 . S
C646 C651 1.397 . S
C647 H610 0.931 . S
C647 C646 1.377 . S
C647 C648 1.376 . S
C648 H611 0.930 . S
C648 C647 1.376 . S
C648 C649 1.376 . S
C649 C648 1.376 . S
C649 C650 1.378 . S
C649 C676 1.486 . S
C650 H612 0.930 . S
C650 C649 1.378 . S
C650 C651 1.376 . S
C651 H613 0.929 . S
C651 C646 1.397 . S
C651 C650 1.376 . S
C652 C636 1.509 . S
C652 C653 1.391 . S
C652 C657 1.386 . S
C653 H614 0.930 . S
C653 C652 1.391 . S
C653 C654 1.375 . S
C654 H615 0.931 . S
C654 C653 1.375 . S
C654 C655 1.375 . S
C655 C654 1.375 . S
C655 C656 1.361 . S
C656 H616 0.930 . S
C656 C655 1.361 . S
C656 C657 1.399 . S
C657 H617 0.929 . S
C657 C652 1.386 . S
C657 C656 1.399 . S
C658 C637 1.485 . S
C658 C659 1.394 . S
C658 C663 1.360 . S
C659 H618 0.931 . S
C659 C658 1.394 . S
C659 C660 1.372 . S
C660 H619 0.930 . S
C660 C659 1.372 . S
C660 C661 1.397 . S
C661 C660 1.397 . S
C661 C662 1.390 . S
C661 C677 1.476 . S
C662 H620 0.930 . S
C662 C661 1.390 . S
C662 C663 1.366 . S
C663 H621 0.932 . S
C663 C658 1.360 . S
C663 C662 1.366 . S
C664 C638 1.490 . S
C664 C665 1.380 . S
C664 C669 1.386 . S
C665 H622 0.930 . S
C665 C664 1.380 . S
C665 C666 1.381 . S
C666 H623 0.929 . S
C666 C665 1.381 . S
C666 C667 1.371 . S
C667 C666 1.371 . S
C667 C668 1.380 . S
C668 H624 0.931 . S
C668 C667 1.380 . S
C668 C669 1.387 . S
C669 H625 0.930 . S
C669 C664 1.386 . S
C669 C668 1.387 . S
C670 C639 1.519 . S
C670 C671 1.377 . S
C670 C675 1.361 . S
C671 H626 0.929 . S
C671 C670 1.377 . S
C671 C672 1.386 . S
C672 H627 0.931 . S
C672 C671 1.386 . S
C672 C673 1.363 . S
C673 C672 1.363 . S
C673 C674 1.385 . S
C674 H628 0.930 . S
C674 C673 1.385 . S
C674 C675 1.396 . S
C675 H629 0.929 . S
C675 C670 1.361 . S
C675 C674 1.396 . S
C676 O630 1.300 . S
C676 O631 1.209 . S
C676 C649 1.486 . S
C677 O632 1.199 . S
C677 O633 1.297 . S
C677 C661 1.476 . S
H678 O704 0.856 . S
H679 O707 0.854 . S
H680 C715 0.930 . S
H681 C716 0.930 . S
H682 C718 0.930 . S
H683 C719 0.930 . S
H684 C721 0.931 . S
H685 C722 0.930 . S
H686 C724 0.930 . S
H687 C725 0.929 . S
H688 C727 0.930 . S
H689 C728 0.931 . S
H690 C730 0.930 . S
H691 C731 0.929 . S
H692 C733 0.931 . S
H693 C734 0.930 . S
H694 C736 0.930 . S
H695 C737 0.932 . S
H696 C739 0.930 . S
H697 C740 0.929 . S
H698 C742 0.931 . S
H699 C743 0.930 . S
H700 C745 0.929 . S
H701 C746 0.931 . S
H702 C748 0.930 . S
H703 C749 0.929 . S
O704 H678 0.856 . S
O704 C750 1.300 . S
O705 C750 1.209 . S
O706 C751 1.199 . S
O707 H679 0.854 . S
O707 C751 1.297 . S
C708 C709 1.404 . S
C708 C713 1.397 . S
C708 C714 1.492 . S
C709 C708 1.404 . S
C709 C710 1.396 . S
C709 C720 1.492 . S
C710 C709 1.396 . S
C710 C711 1.397 . S
C710 C726 1.509 . S
C711 C710 1.397 . S
C711 C712 1.412 . S
C711 C732 1.485 . S
C712 C711 1.412 . S
C712 C713 1.388 . S
C712 C738 1.490 . S
C713 C708 1.397 . S
C713 C712 1.388 . S
C713 C744 1.519 . S
C714 C708 1.492 . S
C714 C715 1.363 . S
C714 C719 1.390 . S
C715 H680 0.930 . S
C715 C714 1.363 . S
C715 C716 1.372 . S
C716 H681 0.930 . S
C716 C715 1.372 . S
C716 C717 1.383 . S
C717 C716 1.383 . S
C717 C718 1.395 . S
C718 H682 0.930 . S
C718 C717 1.395 . S
C718 C719 1.362 . S
C719 H683 0.930 . S
C719 C714 1.390 . S
C719 C718 1.362 . S
C720 C709 1.492 . S
C720 C721 1.377 . S
C720 C725 1.397 . S
C721 H684 0.931 . S
C721 C720 1.377 . S
C721 C722 1.376 . S
C722 H685 0.930 . S
C722 C721 1.376 . S
C722 C723 1.376 . S
C723 C722 1.376 . S
C723 C724 1.378 . S
C723 C750 1.486 . S
C724 H686 0.930 . S
C724 C723 1.378 . S
C724 C725 1.376 . S
C725 H687 0.929 . S
C725 C720 1.397 . S
C725 C724 1.376 . S
C726 C710 1.509 . S
C726 C727 1.391 . S
C726 C731 1.386 . S
C727 H688 0.930 . S
C727 C726 1.391 . S
C727 C728 1.375 . S
C728 H689 0.931 . S
C728 C727 1.375 . S
C728 C729 1.375 . S
C729 C728 1.375 . S
C729 C730 1.361 . S
C730 H690 0.930 . S
C730 C729 1.361 . S
C730 C731 1.399 . S
C731 H691 0.929 . S
C731 C726 1.386 . S
C731 C730 1.399 . S
C732 C711 1.485 . S
C732 C733 1.394 . S
C732 C737 1.360 . S
C733 H692 0.931 . S
C733 C732 1.394 . S
C733 C734 1.372 . S
C734 H693 0.930 . S
C734 C733 1.372 . S
C734 C735 1.397 . S
C735 C734 1.397 . S
C735 C736 1.390 . S
C735 C751 1.476 . S
C736 H694 0.930 . S
C736 C735 1.390 . S
C736 C737 1.366 . S
C737 H695 0.932 . S
C737 C732 1.360 . S
C737 C736 1.366 . S
C738 C712 1.490 . S
C738 C739 1.380 . S
C738 C743 1.386 . S
C739 H696 0.930 . S
C739 C738 1.380 . S
C739 C740 1.381 . S
C740 H697 0.929 . S
C740 C739 1.381 . S
C740 C741 1.371 . S
C741 C740 1.371 . S
C741 C742 1.380 . S
C742 H698 0.931 . S
C742 C741 1.380 . S
C742 C743 1.387 . S
C743 H699 0.930 . S
C743 C738 1.386 . S
C743 C742 1.387 . S
C744 C713 1.519 . S
C744 C745 1.377 . S
C744 C749 1.361 . S
C745 H700 0.929 . S
C745 C744 1.377 . S
C745 C746 1.386 . S
C746 H701 0.931 . S
C746 C745 1.386 . S
C746 C747 1.363 . S
C747 C746 1.363 . S
C747 C748 1.385 . S
C748 H702 0.930 . S
C748 C747 1.385 . S
C748 C749 1.396 . S
C749 H703 0.929 . S
C749 C744 1.361 . S
C749 C748 1.396 . S
C750 O704 1.300 . S
C750 O705 1.209 . S
C750 C723 1.486 . S
C751 O706 1.199 . S
C751 O707 1.297 . S
C751 C735 1.476 . S
H752 O778 0.856 . S
H753 O781 0.854 . S
H754 C789 0.930 . S
H755 C790 0.930 . S
H756 C792 0.930 . S
H757 C793 0.930 . S
H758 C795 0.931 . S
H759 C796 0.930 . S
H760 C798 0.930 . S
H761 C799 0.929 . S
H762 C801 0.930 . S
H763 C802 0.931 . S
H764 C804 0.930 . S
H765 C805 0.929 . S
H766 C807 0.931 . S
H767 C808 0.930 . S
H768 C810 0.930 . S
H769 C811 0.932 . S
H770 C813 0.930 . S
H771 C814 0.929 . S
H772 C816 0.931 . S
H773 C817 0.930 . S
H774 C819 0.929 . S
H775 C820 0.931 . S
H776 C822 0.930 . S
H777 C823 0.929 . S
O778 H752 0.856 . S
O778 C824 1.300 . S
O779 C824 1.209 . S
O780 C825 1.199 . S
O781 H753 0.854 . S
O781 C825 1.297 . S
C782 C783 1.404 . S
C782 C787 1.397 . S
C782 C788 1.492 . S
C783 C782 1.404 . S
C783 C784 1.396 . S
C783 C794 1.492 . S
C784 C783 1.396 . S
C784 C785 1.397 . S
C784 C800 1.509 . S
C785 C784 1.397 . S
C785 C786 1.412 . S
C785 C806 1.485 . S
C786 C785 1.412 . S
C786 C787 1.388 . S
C786 C812 1.490 . S
C787 C782 1.397 . S
C787 C786 1.388 . S
C787 C818 1.519 . S
C788 C782 1.492 . S
C788 C789 1.363 . S
C788 C793 1.390 . S
C789 H754 0.930 . S
C789 C788 1.363 . S
C789 C790 1.372 . S
C790 H755 0.930 . S
C790 C789 1.372 . S
C790 C791 1.383 . S
C791 C790 1.383 . S
C791 C792 1.395 . S
C792 H756 0.930 . S
C792 C791 1.395 . S
C792 C793 1.362 . S
C793 H757 0.930 . S
C793 C788 1.390 . S
C793 C792 1.362 . S
C794 C783 1.492 . S
C794 C795 1.377 . S
C794 C799 1.397 . S
C795 H758 0.931 . S
C795 C794 1.377 . S
C795 C796 1.376 . S
C796 H759 0.930 . S
C796 C795 1.376 . S
C796 C797 1.376 . S
C797 C796 1.376 . S
C797 C798 1.378 . S
C797 C824 1.486 . S
C798 H760 0.930 . S
C798 C797 1.378 . S
C798 C799 1.376 . S
C799 H761 0.929 . S
C799 C794 1.397 . S
C799 C798 1.376 . S
C800 C784 1.509 . S
C800 C801 1.391 . S
C800 C805 1.386 . S
C801 H762 0.930 . S
C801 C800 1.391 . S
C801 C802 1.375 . S
C802 H763 0.931 . S
C802 C801 1.375 . S
C802 C803 1.375 . S
C803 C802 1.375 . S
C803 C804 1.361 . S
C804 H764 0.930 . S
C804 C803 1.361 . S
C804 C805 1.399 . S
C805 H765 0.929 . S
C805 C800 1.386 . S
C805 C804 1.399 . S
C806 C785 1.485 . S
C806 C807 1.394 . S
C806 C811 1.360 . S
C807 H766 0.931 . S
C807 C806 1.394 . S
C807 C808 1.372 . S
C808 H767 0.930 . S
C808 C807 1.372 . S
C808 C809 1.397 . S
C809 C808 1.397 . S
C809 C810 1.390 . S
C809 C825 1.476 . S
C810 H768 0.930 . S
C810 C809 1.390 . S
C810 C811 1.366 . S
C811 H769 0.932 . S
C811 C806 1.360 . S
C811 C810 1.366 . S
C812 C786 1.490 . S
C812 C813 1.380 . S
C812 C817 1.386 . S
C813 H770 0.930 . S
C813 C812 1.380 . S
C813 C814 1.381 . S
C814 H771 0.929 . S
C814 C813 1.381 . S
C814 C815 1.371 . S
C815 C814 1.371 . S
C815 C816 1.380 . S
C816 H772 0.931 . S
C816 C815 1.380 . S
C816 C817 1.387 . S
C817 H773 0.930 . S
C817 C812 1.386 . S
C817 C816 1.387 . S
C818 C787 1.519 . S
C818 C819 1.377 . S
C818 C823 1.361 . S
C819 H774 0.929 . S
C819 C818 1.377 . S
C819 C820 1.386 . S
C820 H775 0.931 . S
C820 C819 1.386 . S
C820 C821 1.363 . S
C821 C820 1.363 . S
C821 C822 1.385 . S
C822 H776 0.930 . S
C822 C821 1.385 . S
C822 C823 1.396 . S
C823 H777 0.929 . S
C823 C818 1.361 . S
C823 C822 1.396 . S
C824 O778 1.300 . S
C824 O779 1.209 . S
C824 C797 1.486 . S
C825 O780 1.199 . S
C825 O781 1.297 . S
C825 C809 1.476 . S
H826 O852 0.856 . S
H827 O855 0.854 . S
H828 C863 0.930 . S
H829 C864 0.930 . S
H830 C866 0.930 . S
H831 C867 0.930 . S
H832 C869 0.931 . S
H833 C870 0.930 . S
H834 C872 0.930 . S
H835 C873 0.929 . S
H836 C875 0.930 . S
H837 C876 0.931 . S
H838 C878 0.930 . S
H839 C879 0.929 . S
H840 C881 0.931 . S
H841 C882 0.930 . S
H842 C884 0.930 . S
H843 C885 0.932 . S
H844 C887 0.930 . S
H845 C888 0.929 . S
H846 C890 0.931 . S
H847 C891 0.930 . S
H848 C893 0.929 . S
H849 C894 0.931 . S
H850 C896 0.930 . S
H851 C897 0.929 . S
O852 H826 0.856 . S
O852 C898 1.300 . S
O853 C898 1.209 . S
O854 C899 1.199 . S
O855 H827 0.854 . S
O855 C899 1.297 . S
C856 C857 1.404 . S
C856 C861 1.397 . S
C856 C862 1.492 . S
C857 C856 1.404 . S
C857 C858 1.396 . S
C857 C868 1.492 . S
C858 C857 1.396 . S
C858 C859 1.397 . S
C858 C874 1.509 . S
C859 C858 1.397 . S
C859 C860 1.412 . S
C859 C880 1.485 . S
C860 C859 1.412 . S
C860 C861 1.388 . S
C860 C886 1.490 . S
C861 C856 1.397 . S
C861 C860 1.388 . S
C861 C892 1.519 . S
C862 C856 1.492 . S
C862 C863 1.363 . S
C862 C867 1.390 . S
C863 H828 0.930 . S
C863 C862 1.363 . S
C863 C864 1.372 . S
C864 H829 0.930 . S
C864 C863 1.372 . S
C864 C865 1.383 . S
C865 C864 1.383 . S
C865 C866 1.395 . S
C866 H830 0.930 . S
C866 C865 1.395 . S
C866 C867 1.362 . S
C867 H831 0.930 . S
C867 C862 1.390 . S
C867 C866 1.362 . S
C868 C857 1.492 . S
C868 C869 1.377 . S
C868 C873 1.397 . S
C869 H832 0.931 . S
C869 C868 1.377 . S
C869 C870 1.376 . S
C870 H833 0.930 . S
C870 C869 1.376 . S
C870 C871 1.376 . S
C871 C870 1.376 . S
C871 C872 1.378 . S
C871 C898 1.486 . S
C872 H834 0.930 . S
C872 C871 1.378 . S
C872 C873 1.376 . S
C873 H835 0.929 . S
C873 C868 1.397 . S
C873 C872 1.376 . S
C874 C858 1.509 . S
C874 C875 1.391 . S
C874 C879 1.386 . S
C875 H836 0.930 . S
C875 C874 1.391 . S
C875 C876 1.375 . S
C876 H837 0.931 . S
C876 C875 1.375 . S
C876 C877 1.375 . S
C877 C876 1.375 . S
C877 C878 1.361 . S
C878 H838 0.930 . S
C878 C877 1.361 . S
C878 C879 1.399 . S
C879 H839 0.929 . S
C879 C874 1.386 . S
C879 C878 1.399 . S
C880 C859 1.485 . S
C880 C881 1.394 . S
C880 C885 1.360 . S
C881 H840 0.931 . S
C881 C880 1.394 . S
C881 C882 1.372 . S
C882 H841 0.930 . S
C882 C881 1.372 . S
C882 C883 1.397 . S
C883 C882 1.397 . S
C883 C884 1.390 . S
C883 C899 1.476 . S
C884 H842 0.930 . S
C884 C883 1.390 . S
C884 C885 1.366 . S
C885 H843 0.932 . S
C885 C880 1.360 . S
C885 C884 1.366 . S
C886 C860 1.490 . S
C886 C887 1.380 . S
C886 C891 1.386 . S
C887 H844 0.930 . S
C887 C886 1.380 . S
C887 C888 1.381 . S
C888 H845 0.929 . S
C888 C887 1.381 . S
C888 C889 1.371 . S
C889 C888 1.371 . S
C889 C890 1.380 . S
C890 H846 0.931 . S
C890 C889 1.380 . S
C890 C891 1.387 . S
C891 H847 0.930 . S
C891 C886 1.386 . S
C891 C890 1.387 . S
C892 C861 1.519 . S
C892 C893 1.377 . S
C892 C897 1.361 . S
C893 H848 0.929 . S
C893 C892 1.377 . S
C893 C894 1.386 . S
C894 H849 0.931 . S
C894 C893 1.386 . S
C894 C895 1.363 . S
C895 C894 1.363 . S
C895 C896 1.385 . S
C896 H850 0.930 . S
C896 C895 1.385 . S
C896 C897 1.396 . S
C897 H851 0.929 . S
C897 C892 1.361 . S
C897 C896 1.396 . S
C898 O852 1.300 . S
C898 O853 1.209 . S
C898 C871 1.486 . S
C899 O854 1.199 . S
C899 O855 1.297 . S
C899 C883 1.476 . S
H900 O926 0.856 . S
H901 O929 0.854 . S
H902 C937 0.930 . S
H903 C938 0.930 . S
H904 C940 0.930 . S
H905 C941 0.930 . S
H906 C943 0.931 . S
H907 C944 0.901 1_655 S
H908 C946 0.930 . S
H909 C947 0.929 . S
H910 C949 0.930 . S
H911 C950 0.926 1_655 S
H912 C952 0.930 . S
H913 C953 0.929 . S
H914 C955 0.931 . S
H915 C956 0.930 . S
H916 C958 0.930 . S
H917 C959 0.932 . S
H918 C961 0.930 . S
H919 C962 0.929 . S
H920 C964 0.931 . S
H921 C965 0.930 . S
H922 C967 0.929 . S
H923 C968 0.931 . S
H924 C970 0.930 . S
H925 C971 0.929 . S
O926 H900 0.856 . S
O926 C972 1.300 . S
O927 C972 1.209 . S
O928 C973 1.199 1_655 S
O929 H901 0.854 . S
O929 C973 1.297 . S
C930 C931 1.404 . S
C930 C935 1.394 . S
C930 C936 1.492 . S
C931 C930 1.404 . S
C931 C932 1.396 . S
C931 C942 1.492 . S
C932 C931 1.396 . S
C932 C933 1.397 . S
C932 C948 1.509 . S
C933 C932 1.397 . S
C933 C934 1.423 . S
C933 C954 1.485 . S
C934 C933 1.423 . S
C934 C935 1.404 . S
C934 C960 1.490 1_455 S
C935 C930 1.394 . S
C935 C934 1.404 . S
C935 C966 1.493 1_455 S
C936 C930 1.492 . S
C936 C937 1.363 1_455 S
C936 C941 1.390 . S
C937 H902 0.930 . S
C937 C936 1.363 1_655 S
C937 C938 1.372 . S
C938 H903 0.930 . S
C938 C937 1.372 . S
C938 C939 1.383 . S
C939 C938 1.383 . S
C939 C940 1.395 1_655 S
C940 H904 0.930 . S
C940 C939 1.395 1_455 S
C940 C941 1.362 . S
C941 H905 0.930 . S
C941 C936 1.390 . S
C941 C940 1.362 . S
C942 C931 1.492 . S
C942 C943 1.377 1_455 S
C942 C947 1.397 . S
C943 H906 0.931 . S
C943 C942 1.377 1_655 S
C943 C944 1.381 1_655 S
C944 H907 0.901 1_455 S
C944 C943 1.381 1_455 S
C944 C945 1.404 . S
C945 C944 1.404 . S
C945 C946 1.378 . S
C945 C972 1.486 . S
C946 H908 0.930 . S
C946 C945 1.378 . S
C946 C947 1.376 . S
C947 H909 0.929 . S
C947 C942 1.397 . S
C947 C946 1.376 . S
C948 C932 1.509 . S
C948 C949 1.391 1_455 S
C948 C953 1.386 . S
C949 H910 0.930 . S
C949 C948 1.391 1_655 S
C949 C950 1.368 1_655 S
C950 H911 0.926 1_455 S
C950 C949 1.368 1_455 S
C950 C951 1.386 . S
C951 C950 1.386 . S
C951 C952 1.361 . S
C952 H912 0.930 . S
C952 C951 1.361 . S
C952 C953 1.399 . S
C953 H913 0.929 . S
C953 C948 1.386 . S
C953 C952 1.399 . S
C954 C933 1.485 . S
C954 C955 1.394 1_455 S
C954 C959 1.360 . S
C955 H914 0.931 . S
C955 C954 1.394 1_655 S
C955 C956 1.372 . S
C956 H915 0.930 . S
C956 C955 1.372 . S
C956 C957 1.397 1_655 S
C957 C956 1.397 1_455 S
C957 C958 1.390 . S
C957 C973 1.476 . S
C958 H916 0.930 . S
C958 C957 1.390 . S
C958 C959 1.366 . S
C959 H917 0.932 . S
C959 C954 1.360 . S
C959 C958 1.366 . S
C960 C934 1.490 1_655 S
C960 C961 1.380 . S
C960 C965 1.386 1_655 S
C961 H918 0.930 . S
C961 C960 1.380 . S
C961 C962 1.381 . S
C962 H919 0.929 . S
C962 C961 1.381 . S
C962 C963 1.371 . S
C963 C962 1.371 . S
C963 C964 1.380 1_655 S
C964 H920 0.931 . S
C964 C963 1.380 1_455 S
C964 C965 1.387 . S
C965 H921 0.930 . S
C965 C960 1.386 1_455 S
C965 C964 1.387 . S
C966 C935 1.493 1_655 S
C966 C967 1.397 . S
C966 C971 1.348 1_655 S
C967 H922 0.929 . S
C967 C966 1.397 . S
C967 C968 1.386 . S
C968 H923 0.931 . S
C968 C967 1.386 . S
C968 C969 1.361 . S
C969 C968 1.361 . S
C969 C970 1.388 1_655 S
C970 H924 0.930 . S
C970 C969 1.388 1_455 S
C970 C971 1.396 . S
C971 H925 0.929 . S
C971 C966 1.348 1_455 S
C971 C970 1.396 . S
C972 O926 1.300 . S
C972 O927 1.209 . S
C972 C945 1.486 . S
C973 O928 1.199 1_455 S
C973 O929 1.297 . S
C973 C957 1.476 . S
H974 O1000 0.856 . S
H975 O1003 0.854 . S
H976 C1011 0.930 . S
H977 C1012 0.930 . S
H978 C1014 0.930 . S
H979 C1015 0.930 . S
H980 C1017 0.931 . S
H981 C1018 0.930 . S
H982 C1020 0.930 . S
H983 C1021 0.929 . S
H984 C1023 0.930 . S
H985 C1024 0.931 . S
H986 C1026 0.930 . S
H987 C1027 0.929 . S
H988 C1029 0.931 . S
H989 C1030 0.930 . S
H990 C1032 0.930 . S
H991 C1033 0.932 . S
H992 C1035 0.930 . S
H993 C1036 0.929 . S
H994 C1038 0.931 . S
H995 C1039 0.930 . S
H996 C1041 0.929 . S
H997 C1042 0.931 . S
H998 C1044 0.930 . S
H999 C1045 0.929 . S
O1000 H974 0.856 . S
O1000 C1046 1.300 . S
O1001 C1046 1.209 . S
O1002 C1047 1.199 . S
O1003 H975 0.854 . S
O1003 C1047 1.297 . S
C1004 C1005 1.404 . S
C1004 C1009 1.397 . S
C1004 C1010 1.492 . S
C1005 C1004 1.404 . S
C1005 C1006 1.396 . S
C1005 C1016 1.492 . S
C1006 C1005 1.396 . S
C1006 C1007 1.397 . S
C1006 C1022 1.509 . S
C1007 C1006 1.397 . S
C1007 C1008 1.412 . S
C1007 C1028 1.485 . S
C1008 C1007 1.412 . S
C1008 C1009 1.388 . S
C1008 C1034 1.490 . S
C1009 C1004 1.397 . S
C1009 C1008 1.388 . S
C1009 C1040 1.519 . S
C1010 C1004 1.492 . S
C1010 C1011 1.363 . S
C1010 C1015 1.390 . S
C1011 H976 0.930 . S
C1011 C1010 1.363 . S
C1011 C1012 1.372 . S
C1012 H977 0.930 . S
C1012 C1011 1.372 . S
C1012 C1013 1.383 . S
C1013 C1012 1.383 . S
C1013 C1014 1.395 . S
C1014 H978 0.930 . S
C1014 C1013 1.395 . S
C1014 C1015 1.362 . S
C1015 H979 0.930 . S
C1015 C1010 1.390 . S
C1015 C1014 1.362 . S
C1016 C1005 1.492 . S
C1016 C1017 1.377 . S
C1016 C1021 1.397 . S
C1017 H980 0.931 . S
C1017 C1016 1.377 . S
C1017 C1018 1.376 . S
C1018 H981 0.930 . S
C1018 C1017 1.376 . S
C1018 C1019 1.376 . S
C1019 C1018 1.376 . S
C1019 C1020 1.378 . S
C1019 C1046 1.486 . S
C1020 H982 0.930 . S
C1020 C1019 1.378 . S
C1020 C1021 1.376 . S
C1021 H983 0.929 . S
C1021 C1016 1.397 . S
C1021 C1020 1.376 . S
C1022 C1006 1.509 . S
C1022 C1023 1.391 . S
C1022 C1027 1.386 . S
C1023 H984 0.930 . S
C1023 C1022 1.391 . S
C1023 C1024 1.375 . S
C1024 H985 0.931 . S
C1024 C1023 1.375 . S
C1024 C1025 1.375 . S
C1025 C1024 1.375 . S
C1025 C1026 1.361 . S
C1026 H986 0.930 . S
C1026 C1025 1.361 . S
C1026 C1027 1.399 . S
C1027 H987 0.929 . S
C1027 C1022 1.386 . S
C1027 C1026 1.399 . S
C1028 C1007 1.485 . S
C1028 C1029 1.394 . S
C1028 C1033 1.360 . S
C1029 H988 0.931 . S
C1029 C1028 1.394 . S
C1029 C1030 1.372 . S
C1030 H989 0.930 . S
C1030 C1029 1.372 . S
C1030 C1031 1.397 . S
C1031 C1030 1.397 . S
C1031 C1032 1.390 . S
C1031 C1047 1.476 . S
C1032 H990 0.930 . S
C1032 C1031 1.390 . S
C1032 C1033 1.366 . S
C1033 H991 0.932 . S
C1033 C1028 1.360 . S
C1033 C1032 1.366 . S
C1034 C1008 1.490 . S
C1034 C1035 1.380 . S
C1034 C1039 1.386 . S
C1035 H992 0.930 . S
C1035 C1034 1.380 . S
C1035 C1036 1.381 . S
C1036 H993 0.929 . S
C1036 C1035 1.381 . S
C1036 C1037 1.371 . S
C1037 C1036 1.371 . S
C1037 C1038 1.380 . S
C1038 H994 0.931 . S
C1038 C1037 1.380 . S
C1038 C1039 1.387 . S
C1039 H995 0.930 . S
C1039 C1034 1.386 . S
C1039 C1038 1.387 . S
C1040 C1009 1.519 . S
C1040 C1041 1.377 . S
C1040 C1045 1.361 . S
C1041 H996 0.929 . S
C1041 C1040 1.377 . S
C1041 C1042 1.386 . S
C1042 H997 0.931 . S
C1042 C1041 1.386 . S
C1042 C1043 1.363 . S
C1043 C1042 1.363 . S
C1043 C1044 1.385 . S
C1044 H998 0.930 . S
C1044 C1043 1.385 . S
C1044 C1045 1.396 . S
C1045 H999 0.929 . S
C1045 C1040 1.361 . S
C1045 C1044 1.396 . S
C1046 O1000 1.300 . S
C1046 O1001 1.209 . S
C1046 C1019 1.486 . S
C1047 O1002 1.199 . S
C1047 O1003 1.297 . S
C1047 C1031 1.476 . S
H1048 O1074 0.856 . S
H1049 O1077 0.854 . S
H1050 C1085 0.930 . S
H1051 C1086 0.930 . S
H1052 C1088 0.930 . S
H1053 C1089 0.930 . S
H1054 C1091 0.931 . S
H1055 C1092 0.983 . S
H1056 C1094 0.930 . S
H1057 C1095 0.929 . S
H1058 C1097 0.930 . S
H1059 C1098 0.931 . S
H1060 C1100 0.930 . S
H1061 C1101 0.929 . S
H1062 C1103 0.931 . S
H1063 C1104 0.930 . S
H1064 C1106 0.930 . S
H1065 C1107 0.932 . S
H1066 C1109 0.930 . S
H1067 C1110 0.929 . S
H1068 C1112 0.931 . S
H1069 C1113 0.930 . S
H1070 C1115 0.929 . S
H1071 C1116 0.931 . S
H1072 C1118 0.930 . S
H1073 C1119 0.929 . S
O1074 H1048 0.856 . S
O1074 C1120 1.300 . S
O1075 C1120 1.209 . S
O1076 C1121 1.199 1_545 S
O1077 H1049 0.854 . S
O1077 C1121 1.297 . S
C1078 C1079 1.404 . S
C1078 C1083 1.412 . S
C1078 C1084 1.492 . S
C1079 C1078 1.404 . S
C1079 C1080 1.396 . S
C1079 C1090 1.492 . S
C1080 C1079 1.396 . S
C1080 C1081 1.397 . S
C1080 C1096 1.509 . S
C1081 C1080 1.397 . S
C1081 C1082 1.410 . S
C1081 C1102 1.485 . S
C1082 C1081 1.410 . S
C1082 C1083 1.370 . S
C1082 C1108 1.487 1_565 S
C1083 C1078 1.412 . S
C1083 C1082 1.370 . S
C1083 C1114 1.536 . S
C1084 C1078 1.492 . S
C1084 C1085 1.363 1_565 S
C1084 C1089 1.390 . S
C1085 H1050 0.930 . S
C1085 C1084 1.363 1_545 S
C1085 C1086 1.372 . S
C1086 H1051 0.930 . S
C1086 C1085 1.372 . S
C1086 C1087 1.383 . S
C1087 C1086 1.383 . S
C1087 C1088 1.395 1_545 S
C1088 H1052 0.930 . S
C1088 C1087 1.395 1_565 S
C1088 C1089 1.362 . S
C1089 H1053 0.930 . S
C1089 C1084 1.390 . S
C1089 C1088 1.362 . S
C1090 C1079 1.492 . S
C1090 C1091 1.377 1_565 S
C1090 C1095 1.397 . S
C1091 H1054 0.931 . S
C1091 C1090 1.377 1_545 S
C1091 C1092 1.402 . S
C1092 H1055 0.983 . S
C1092 C1091 1.402 . S
C1092 C1093 1.300 1_545 S
C1093 C1092 1.300 1_565 S
C1093 C1094 1.378 . S
C1093 C1120 1.486 . S
C1094 H1056 0.930 . S
C1094 C1093 1.378 . S
C1094 C1095 1.376 . S
C1095 H1057 0.929 . S
C1095 C1090 1.397 . S
C1095 C1094 1.376 . S
C1096 C1080 1.509 . S
C1096 C1097 1.391 1_565 S
C1096 C1101 1.386 . S
C1097 H1058 0.930 . S
C1097 C1096 1.391 1_545 S
C1097 C1098 1.375 . S
C1098 H1059 0.931 . S
C1098 C1097 1.375 . S
C1098 C1099 1.375 1_545 S
C1099 C1098 1.375 1_565 S
C1099 C1100 1.361 . S
C1100 H1060 0.930 . S
C1100 C1099 1.361 . S
C1100 C1101 1.399 . S
C1101 H1061 0.929 . S
C1101 C1096 1.386 . S
C1101 C1100 1.399 . S
C1102 C1081 1.485 . S
C1102 C1103 1.394 1_565 S
C1102 C1107 1.360 . S
C1103 H1062 0.931 . S
C1103 C1102 1.394 1_545 S
C1103 C1104 1.372 . S
C1104 H1063 0.930 . S
C1104 C1103 1.372 . S
C1104 C1105 1.397 1_545 S
C1105 C1104 1.397 1_565 S
C1105 C1106 1.390 . S
C1105 C1121 1.476 . S
C1106 H1064 0.930 . S
C1106 C1105 1.390 . S
C1106 C1107 1.366 . S
C1107 H1065 0.932 . S
C1107 C1102 1.360 . S
C1107 C1106 1.366 . S
C1108 C1082 1.487 1_545 S
C1108 C1109 1.380 . S
C1108 C1113 1.386 1_545 S
C1109 H1066 0.930 . S
C1109 C1108 1.380 . S
C1109 C1110 1.381 . S
C1110 H1067 0.929 . S
C1110 C1109 1.381 . S
C1110 C1111 1.371 . S
C1111 C1110 1.371 . S
C1111 C1112 1.380 1_545 S
C1112 H1068 0.931 . S
C1112 C1111 1.380 1_565 S
C1112 C1113 1.387 . S
C1113 H1069 0.930 . S
C1113 C1108 1.386 1_565 S
C1113 C1112 1.387 . S
C1114 C1083 1.536 . S
C1114 C1115 1.379 1_565 S
C1114 C1119 1.356 . S
C1115 H1070 0.929 . S
C1115 C1114 1.379 1_545 S
C1115 C1116 1.386 . S
C1116 H1071 0.931 . S
C1116 C1115 1.386 . S
C1116 C1117 1.301 1_545 S
C1117 C1116 1.301 1_565 S
C1117 C1118 1.419 . S
C1118 H1072 0.930 . S
C1118 C1117 1.419 . S
C1118 C1119 1.396 . S
C1119 H1073 0.929 . S
C1119 C1114 1.356 . S
C1119 C1118 1.396 . S
C1120 O1074 1.300 . S
C1120 O1075 1.209 . S
C1120 C1093 1.486 . S
C1121 O1076 1.199 1_565 S
C1121 O1077 1.297 . S
C1121 C1105 1.476 . S
H1122 O1148 0.856 . S
H1123 O1151 0.854 . S
H1124 C1159 0.930 . S
H1125 C1160 0.930 . S
H1126 C1162 0.930 . S
H1127 C1163 0.930 . S
H1128 C1165 0.931 . S
H1129 C1166 0.930 . S
H1130 C1168 0.930 . S
H1131 C1169 0.929 . S
H1132 C1171 0.930 . S
H1133 C1172 0.931 . S
H1134 C1174 0.930 . S
H1135 C1175 0.929 . S
H1136 C1177 0.931 . S
H1137 C1178 0.930 . S
H1138 C1180 0.930 . S
H1139 C1181 0.932 . S
H1140 C1183 0.930 . S
H1141 C1184 0.929 . S
H1142 C1186 0.931 . S
H1143 C1187 0.930 . S
H1144 C1189 0.929 . S
H1145 C1190 0.931 . S
H1146 C1192 0.930 . S
H1147 C1193 0.929 . S
O1148 H1122 0.856 . S
O1148 C1194 1.300 . S
O1149 C1194 1.209 1_565 S
O1150 C1195 1.199 1_545 S
O1151 H1123 0.854 . S
O1151 C1195 1.297 . S
C1152 C1153 1.404 . S
C1152 C1157 1.398 1_545 S
C1152 C1158 1.492 . S
C1153 C1152 1.404 . S
C1153 C1154 1.431 . S
C1153 C1164 1.492 . S
C1154 C1153 1.431 . S
C1154 C1155 1.381 1_545 S
C1154 C1170 1.505 . S
C1155 C1154 1.381 1_565 S
C1155 C1156 1.417 . S
C1155 C1176 1.492 . S
C1156 C1155 1.417 . S
C1156 C1157 1.371 . S
C1156 C1182 1.489 . S
C1157 C1152 1.398 1_565 S
C1157 C1156 1.371 . S
C1157 C1188 1.520 . S
C1158 C1152 1.492 . S
C1158 C1159 1.363 . S
C1158 C1163 1.390 1_545 S
C1159 H1124 0.930 . S
C1159 C1158 1.363 . S
C1159 C1160 1.372 . S
C1160 H1125 0.930 . S
C1160 C1159 1.372 . S
C1160 C1161 1.383 . S
C1161 C1160 1.383 . S
C1161 C1162 1.395 1_545 S
C1162 H1126 0.930 . S
C1162 C1161 1.395 1_565 S
C1162 C1163 1.362 . S
C1163 H1127 0.930 . S
C1163 C1158 1.390 1_565 S
C1163 C1162 1.362 . S
C1164 C1153 1.492 . S
C1164 C1165 1.377 . S
C1164 C1169 1.397 1_545 S
C1165 H1128 0.931 . S
C1165 C1164 1.377 . S
C1165 C1166 1.376 . S
C1166 H1129 0.930 . S
C1166 C1165 1.376 . S
C1166 C1167 1.376 . S
C1167 C1166 1.376 . S
C1167 C1168 1.378 1_545 S
C1167 C1194 1.486 . S
C1168 H1130 0.930 . S
C1168 C1167 1.378 1_565 S
C1168 C1169 1.376 . S
C1169 H1131 0.929 . S
C1169 C1164 1.397 1_565 S
C1169 C1168 1.376 . S
C1170 C1154 1.505 . S
C1170 C1171 1.413 . S
C1170 C1175 1.349 1_545 S
C1171 H1132 0.930 . S
C1171 C1170 1.413 . S
C1171 C1172 1.375 . S
C1172 H1133 0.931 . S
C1172 C1171 1.375 . S
C1172 C1173 1.391 . S
C1173 C1172 1.391 . S
C1173 C1174 1.353 1_545 S
C1174 H1134 0.930 . S
C1174 C1173 1.353 1_565 S
C1174 C1175 1.399 . S
C1175 H1135 0.929 . S
C1175 C1170 1.349 1_565 S
C1175 C1174 1.399 . S
C1176 C1155 1.492 . S
C1176 C1177 1.394 1_565 S
C1176 C1181 1.360 . S
C1177 H1136 0.931 . S
C1177 C1176 1.394 1_545 S
C1177 C1178 1.372 . S
C1178 H1137 0.930 . S
C1178 C1177 1.372 . S
C1178 C1179 1.397 1_545 S
C1179 C1178 1.397 1_565 S
C1179 C1180 1.390 . S
C1179 C1195 1.476 . S
C1180 H1138 0.930 . S
C1180 C1179 1.390 . S
C1180 C1181 1.366 . S
C1181 H1139 0.932 . S
C1181 C1176 1.360 . S
C1181 C1180 1.366 . S
C1182 C1156 1.489 . S
C1182 C1183 1.354 1_565 S
C1182 C1187 1.418 . S
C1183 H1140 0.930 . S
C1183 C1182 1.354 1_545 S
C1183 C1184 1.381 . S
C1184 H1141 0.929 . S
C1184 C1183 1.381 . S
C1184 C1185 1.410 . S
C1185 C1184 1.410 . S
C1185 C1186 1.347 1_545 S
C1186 H1142 0.931 . S
C1186 C1185 1.347 1_565 S
C1186 C1187 1.387 . S
C1187 H1143 0.930 . S
C1187 C1182 1.418 . S
C1187 C1186 1.387 . S
C1188 C1157 1.520 . S
C1188 C1189 1.377 1_565 S
C1188 C1193 1.361 . S
C1189 H1144 0.929 . S
C1189 C1188 1.377 1_545 S
C1189 C1190 1.386 . S
C1190 H1145 0.931 . S
C1190 C1189 1.386 . S
C1190 C1191 1.363 1_545 S
C1191 C1190 1.363 1_565 S
C1191 C1192 1.385 . S
C1192 H1146 0.930 . S
C1192 C1191 1.385 . S
C1192 C1193 1.396 . S
C1193 H1147 0.929 . S
C1193 C1188 1.361 . S
C1193 C1192 1.396 . S
C1194 O1148 1.300 . S
C1194 O1149 1.209 1_545 S
C1194 C1167 1.486 . S
C1195 O1150 1.199 1_565 S
C1195 O1151 1.297 . S
C1195 C1179 1.476 . S
H1196 O1222 0.856 . S
H1197 O1225 0.854 . S
H1198 C1233 0.930 . S
H1199 C1234 0.930 . S
H1200 C1236 0.930 . S
H1201 C1237 0.930 . S
H1202 C1239 0.931 . S
H1203 C1240 0.930 . S
H1204 C1242 0.930 . S
H1205 C1243 0.929 . S
H1206 C1245 0.930 . S
H1207 C1246 0.931 . S
H1208 C1248 0.930 . S
H1209 C1249 0.929 . S
H1210 C1251 0.931 . S
H1211 C1252 0.930 . S
H1212 C1254 0.930 . S
H1213 C1255 0.932 . S
H1214 C1257 0.930 . S
H1215 C1258 0.929 . S
H1216 C1260 0.931 . S
H1217 C1261 0.930 . S
H1218 C1263 0.929 . S
H1219 C1264 0.931 . S
H1220 C1266 0.930 . S
H1221 C1267 0.929 . S
O1222 H1196 0.856 . S
O1222 C1268 1.300 . S
O1223 C1268 1.209 1_455 S
O1224 C1269 1.199 1_655 S
O1225 H1197 0.854 . S
O1225 C1269 1.297 . S
C1226 C1227 1.404 . S
C1226 C1231 1.396 1_655 S
C1226 C1232 1.492 . S
C1227 C1226 1.404 . S
C1227 C1228 1.396 . S
C1227 C1238 1.492 . S
C1228 C1227 1.396 . S
C1228 C1229 1.398 . S
C1228 C1244 1.509 . S
C1229 C1228 1.398 . S
C1229 C1230 1.403 1_655 S
C1229 C1250 1.519 1_655 S
C1230 C1229 1.403 1_455 S
C1230 C1231 1.409 . S
C1230 C1256 1.498 . S
C1231 C1226 1.396 1_455 S
C1231 C1230 1.409 . S
C1231 C1262 1.514 . S
C1232 C1226 1.492 . S
C1232 C1233 1.363 . S
C1232 C1237 1.390 1_655 S
C1233 H1198 0.930 . S
C1233 C1232 1.363 . S
C1233 C1234 1.372 . S
C1234 H1199 0.930 . S
C1234 C1233 1.372 . S
C1234 C1235 1.383 . S
C1235 C1234 1.383 . S
C1235 C1236 1.395 1_655 S
C1236 H1200 0.930 . S
C1236 C1235 1.395 1_455 S
C1236 C1237 1.362 . S
C1237 H1201 0.930 . S
C1237 C1232 1.390 1_455 S
C1237 C1236 1.362 . S
C1238 C1227 1.492 . S
C1238 C1239 1.377 . S
C1238 C1243 1.397 1_655 S
C1239 H1202 0.931 . S
C1239 C1238 1.377 . S
C1239 C1240 1.376 . S
C1240 H1203 0.930 . S
C1240 C1239 1.376 . S
C1240 C1241 1.376 . S
C1241 C1240 1.376 . S
C1241 C1242 1.378 1_655 S
C1241 C1268 1.486 . S
C1242 H1204 0.930 . S
C1242 C1241 1.378 1_455 S
C1242 C1243 1.376 . S
C1243 H1205 0.929 . S
C1243 C1238 1.397 1_455 S
C1243 C1242 1.376 . S
C1244 C1228 1.509 . S
C1244 C1245 1.391 . S
C1244 C1249 1.386 1_655 S
C1245 H1206 0.930 . S
C1245 C1244 1.391 . S
C1245 C1246 1.375 . S
C1246 H1207 0.931 . S
C1246 C1245 1.375 . S
C1246 C1247 1.375 . S
C1247 C1246 1.375 . S
C1247 C1248 1.361 1_655 S
C1248 H1208 0.930 . S
C1248 C1247 1.361 1_455 S
C1248 C1249 1.399 . S
C1249 H1209 0.929 . S
C1249 C1244 1.386 1_455 S
C1249 C1248 1.399 . S
C1250 C1229 1.519 1_455 S
C1250 C1251 1.329 1_455 S
C1250 C1255 1.391 . S
C1251 H1210 0.931 . S
C1251 C1250 1.329 1_655 S
C1251 C1252 1.372 . S
C1252 H1211 0.930 . S
C1252 C1251 1.372 . S
C1252 C1253 1.397 1_655 S
C1253 C1252 1.397 1_455 S
C1253 C1254 1.390 . S
C1253 C1269 1.476 . S
C1254 H1212 0.930 . S
C1254 C1253 1.390 . S
C1254 C1255 1.366 . S
C1255 H1213 0.932 . S
C1255 C1250 1.391 . S
C1255 C1254 1.366 . S
C1256 C1230 1.498 . S
C1256 C1257 1.335 1_455 S
C1256 C1261 1.421 . S
C1257 H1214 0.930 . S
C1257 C1256 1.335 1_655 S
C1257 C1258 1.381 . S
C1258 H1215 0.929 . S
C1258 C1257 1.381 . S
C1258 C1259 1.347 1_655 S
C1259 C1258 1.347 1_455 S
C1259 C1260 1.418 . S
C1260 H1216 0.931 . S
C1260 C1259 1.418 . S
C1260 C1261 1.387 . S
C1261 H1217 0.930 . S
C1261 C1256 1.421 . S
C1261 C1260 1.387 . S
C1262 C1231 1.514 . S
C1262 C1263 1.377 1_455 S
C1262 C1267 1.361 . S
C1263 H1218 0.929 . S
C1263 C1262 1.377 1_655 S
C1263 C1264 1.386 . S
C1264 H1219 0.931 . S
C1264 C1263 1.386 . S
C1264 C1265 1.363 1_655 S
C1265 C1264 1.363 1_455 S
C1265 C1266 1.385 . S
C1266 H1220 0.930 . S
C1266 C1265 1.385 . S
C1266 C1267 1.396 . S
C1267 H1221 0.929 . S
C1267 C1262 1.361 . S
C1267 C1266 1.396 . S
C1268 O1222 1.300 . S
C1268 O1223 1.209 1_655 S
C1268 C1241 1.486 . S
C1269 O1224 1.199 1_455 S
C1269 O1225 1.297 . S
C1269 C1253 1.476 . S
H1270 O1296 0.856 . S
H1271 O1299 0.854 . S
H1272 C1307 0.930 . S
H1273 C1308 0.930 . S
H1274 C1310 0.930 . S
H1275 C1311 0.930 . S
H1276 C1313 0.931 . S
H1277 C1314 0.930 . S
H1278 C1316 0.930 . S
H1279 C1317 0.929 . S
H1280 C1319 0.930 . S
H1281 C1320 0.931 . S
H1282 C1322 0.930 . S
H1283 C1323 0.929 . S
H1284 C1325 0.931 . S
H1285 C1326 0.930 . S
H1286 C1328 0.930 . S
H1287 C1329 0.932 . S
H1288 C1331 0.930 . S
H1289 C1332 0.929 . S
H1290 C1334 0.931 . S
H1291 C1335 0.930 . S
H1292 C1337 0.929 . S
H1293 C1338 0.931 . S
H1294 C1340 0.930 . S
H1295 C1341 0.929 . S
O1296 H1270 0.856 . S
O1296 C1342 1.300 . S
O1297 C1342 1.209 . S
O1298 C1343 1.199 . S
O1299 H1271 0.854 . S
O1299 C1343 1.297 . S
C1300 C1301 1.404 . S
C1300 C1305 1.397 . S
C1300 C1306 1.492 . S
C1301 C1300 1.404 . S
C1301 C1302 1.396 . S
C1301 C1312 1.492 . S
C1302 C1301 1.396 . S
C1302 C1303 1.397 . S
C1302 C1318 1.509 . S
C1303 C1302 1.397 . S
C1303 C1304 1.412 . S
C1303 C1324 1.485 . S
C1304 C1303 1.412 . S
C1304 C1305 1.388 . S
C1304 C1330 1.490 . S
C1305 C1300 1.397 . S
C1305 C1304 1.388 . S
C1305 C1336 1.519 . S
C1306 C1300 1.492 . S
C1306 C1307 1.363 . S
C1306 C1311 1.390 . S
C1307 H1272 0.930 . S
C1307 C1306 1.363 . S
C1307 C1308 1.372 . S
C1308 H1273 0.930 . S
C1308 C1307 1.372 . S
C1308 C1309 1.383 . S
C1309 C1308 1.383 . S
C1309 C1310 1.395 . S
C1310 H1274 0.930 . S
C1310 C1309 1.395 . S
C1310 C1311 1.362 . S
C1311 H1275 0.930 . S
C1311 C1306 1.390 . S
C1311 C1310 1.362 . S
C1312 C1301 1.492 . S
C1312 C1313 1.377 . S
C1312 C1317 1.397 . S
C1313 H1276 0.931 . S
C1313 C1312 1.377 . S
C1313 C1314 1.376 . S
C1314 H1277 0.930 . S
C1314 C1313 1.376 . S
C1314 C1315 1.376 . S
C1315 C1314 1.376 . S
C1315 C1316 1.378 . S
C1315 C1342 1.486 . S
C1316 H1278 0.930 . S
C1316 C1315 1.378 . S
C1316 C1317 1.376 . S
C1317 H1279 0.929 . S
C1317 C1312 1.397 . S
C1317 C1316 1.376 . S
C1318 C1302 1.509 . S
C1318 C1319 1.391 . S
C1318 C1323 1.386 . S
C1319 H1280 0.930 . S
C1319 C1318 1.391 . S
C1319 C1320 1.375 . S
C1320 H1281 0.931 . S
C1320 C1319 1.375 . S
C1320 C1321 1.375 . S
C1321 C1320 1.375 . S
C1321 C1322 1.361 . S
C1322 H1282 0.930 . S
C1322 C1321 1.361 . S
C1322 C1323 1.399 . S
C1323 H1283 0.929 . S
C1323 C1318 1.386 . S
C1323 C1322 1.399 . S
C1324 C1303 1.485 . S
C1324 C1325 1.394 . S
C1324 C1329 1.360 . S
C1325 H1284 0.931 . S
C1325 C1324 1.394 . S
C1325 C1326 1.372 . S
C1326 H1285 0.930 . S
C1326 C1325 1.372 . S
C1326 C1327 1.397 . S
C1327 C1326 1.397 . S
C1327 C1328 1.390 . S
C1327 C1343 1.476 . S
C1328 H1286 0.930 . S
C1328 C1327 1.390 . S
C1328 C1329 1.366 . S
C1329 H1287 0.932 . S
C1329 C1324 1.360 . S
C1329 C1328 1.366 . S
C1330 C1304 1.490 . S
C1330 C1331 1.380 . S
C1330 C1335 1.386 . S
C1331 H1288 0.930 . S
C1331 C1330 1.380 . S
C1331 C1332 1.381 . S
C1332 H1289 0.929 . S
C1332 C1331 1.381 . S
C1332 C1333 1.371 . S
C1333 C1332 1.371 . S
C1333 C1334 1.380 . S
C1334 H1290 0.931 . S
C1334 C1333 1.380 . S
C1334 C1335 1.387 . S
C1335 H1291 0.930 . S
C1335 C1330 1.386 . S
C1335 C1334 1.387 . S
C1336 C1305 1.519 . S
C1336 C1337 1.377 . S
C1336 C1341 1.361 . S
C1337 H1292 0.929 . S
C1337 C1336 1.377 . S
C1337 C1338 1.386 . S
C1338 H1293 0.931 . S
C1338 C1337 1.386 . S
C1338 C1339 1.363 . S
C1339 C1338 1.363 . S
C1339 C1340 1.385 . S
C1340 H1294 0.930 . S
C1340 C1339 1.385 . S
C1340 C1341 1.396 . S
C1341 H1295 0.929 . S
C1341 C1336 1.361 . S
C1341 C1340 1.396 . S
C1342 O1296 1.300 . S
C1342 O1297 1.209 . S
C1342 C1315 1.486 . S
C1343 O1298 1.199 . S
C1343 O1299 1.297 . S
C1343 C1327 1.476 . S
H1344 O1370 0.856 . S
H1345 O1373 0.854 . S
H1346 C1381 0.930 . S
H1347 C1382 0.930 . S
H1348 C1384 0.930 . S
H1349 C1385 0.930 . S
H1350 C1387 0.931 . S
H1351 C1388 0.930 . S
H1352 C1390 0.930 . S
H1353 C1391 0.929 . S
H1354 C1393 0.930 . S
H1355 C1394 0.931 . S
H1356 C1396 0.930 . S
H1357 C1397 0.929 . S
H1358 C1399 0.931 . S
H1359 C1400 0.930 . S
H1360 C1402 0.930 . S
H1361 C1403 0.932 . S
H1362 C1405 0.930 . S
H1363 C1406 0.929 . S
H1364 C1408 0.931 . S
H1365 C1409 0.930 . S
H1366 C1411 0.929 . S
H1367 C1412 0.931 . S
H1368 C1414 0.930 . S
H1369 C1415 0.929 . S
O1370 H1344 0.856 . S
O1370 C1416 1.300 . S
O1371 C1416 1.209 . S
O1372 C1417 1.199 . S
O1373 H1345 0.854 . S
O1373 C1417 1.297 . S
C1374 C1375 1.404 . S
C1374 C1379 1.397 . S
C1374 C1380 1.492 . S
C1375 C1374 1.404 . S
C1375 C1376 1.396 . S
C1375 C1386 1.492 . S
C1376 C1375 1.396 . S
C1376 C1377 1.397 . S
C1376 C1392 1.509 . S
C1377 C1376 1.397 . S
C1377 C1378 1.412 . S
C1377 C1398 1.485 . S
C1378 C1377 1.412 . S
C1378 C1379 1.388 . S
C1378 C1404 1.490 . S
C1379 C1374 1.397 . S
C1379 C1378 1.388 . S
C1379 C1410 1.519 . S
C1380 C1374 1.492 . S
C1380 C1381 1.363 . S
C1380 C1385 1.390 . S
C1381 H1346 0.930 . S
C1381 C1380 1.363 . S
C1381 C1382 1.372 . S
C1382 H1347 0.930 . S
C1382 C1381 1.372 . S
C1382 C1383 1.383 . S
C1383 C1382 1.383 . S
C1383 C1384 1.395 . S
C1384 H1348 0.930 . S
C1384 C1383 1.395 . S
C1384 C1385 1.362 . S
C1385 H1349 0.930 . S
C1385 C1380 1.390 . S
C1385 C1384 1.362 . S
C1386 C1375 1.492 . S
C1386 C1387 1.377 . S
C1386 C1391 1.397 . S
C1387 H1350 0.931 . S
C1387 C1386 1.377 . S
C1387 C1388 1.376 . S
C1388 H1351 0.930 . S
C1388 C1387 1.376 . S
C1388 C1389 1.376 . S
C1389 C1388 1.376 . S
C1389 C1390 1.378 . S
C1389 C1416 1.486 . S
C1390 H1352 0.930 . S
C1390 C1389 1.378 . S
C1390 C1391 1.376 . S
C1391 H1353 0.929 . S
C1391 C1386 1.397 . S
C1391 C1390 1.376 . S
C1392 C1376 1.509 . S
C1392 C1393 1.391 . S
C1392 C1397 1.386 . S
C1393 H1354 0.930 . S
C1393 C1392 1.391 . S
C1393 C1394 1.375 . S
C1394 H1355 0.931 . S
C1394 C1393 1.375 . S
C1394 C1395 1.375 . S
C1395 C1394 1.375 . S
C1395 C1396 1.361 . S
C1396 H1356 0.930 . S
C1396 C1395 1.361 . S
C1396 C1397 1.399 . S
C1397 H1357 0.929 . S
C1397 C1392 1.386 . S
C1397 C1396 1.399 . S
C1398 C1377 1.485 . S
C1398 C1399 1.394 . S
C1398 C1403 1.360 . S
C1399 H1358 0.931 . S
C1399 C1398 1.394 . S
C1399 C1400 1.372 . S
C1400 H1359 0.930 . S
C1400 C1399 1.372 . S
C1400 C1401 1.397 . S
C1401 C1400 1.397 . S
C1401 C1402 1.390 . S
C1401 C1417 1.476 . S
C1402 H1360 0.930 . S
C1402 C1401 1.390 . S
C1402 C1403 1.366 . S
C1403 H1361 0.932 . S
C1403 C1398 1.360 . S
C1403 C1402 1.366 . S
C1404 C1378 1.490 . S
C1404 C1405 1.380 . S
C1404 C1409 1.386 . S
C1405 H1362 0.930 . S
C1405 C1404 1.380 . S
C1405 C1406 1.381 . S
C1406 H1363 0.929 . S
C1406 C1405 1.381 . S
C1406 C1407 1.371 . S
C1407 C1406 1.371 . S
C1407 C1408 1.380 . S
C1408 H1364 0.931 . S
C1408 C1407 1.380 . S
C1408 C1409 1.387 . S
C1409 H1365 0.930 . S
C1409 C1404 1.386 . S
C1409 C1408 1.387 . S
C1410 C1379 1.519 . S
C1410 C1411 1.377 . S
C1410 C1415 1.361 . S
C1411 H1366 0.929 . S
C1411 C1410 1.377 . S
C1411 C1412 1.386 . S
C1412 H1367 0.931 . S
C1412 C1411 1.386 . S
C1412 C1413 1.363 . S
C1413 C1412 1.363 . S
C1413 C1414 1.385 . S
C1414 H1368 0.930 . S
C1414 C1413 1.385 . S
C1414 C1415 1.396 . S
C1415 H1369 0.929 . S
C1415 C1410 1.361 . S
C1415 C1414 1.396 . S
C1416 O1370 1.300 . S
C1416 O1371 1.209 . S
C1416 C1389 1.486 . S
C1417 O1372 1.199 . S
C1417 O1373 1.297 . S
C1417 C1401 1.476 . S
H1418 O1444 0.856 . S
H1419 O1447 0.854 . S
H1420 C1455 0.930 . S
H1421 C1456 0.930 . S
H1422 C1458 0.930 . S
H1423 C1459 0.930 . S
H1424 C1461 0.931 . S
H1425 C1462 0.930 . S
H1426 C1464 0.930 . S
H1427 C1465 0.929 . S
H1428 C1467 0.930 . S
H1429 C1468 0.931 . S
H1430 C1470 0.930 . S
H1431 C1471 0.929 . S
H1432 C1473 0.931 . S
H1433 C1474 0.930 . S
H1434 C1476 0.930 . S
H1435 C1477 0.932 . S
H1436 C1479 0.930 . S
H1437 C1480 0.929 . S
H1438 C1482 0.931 . S
H1439 C1483 0.930 . S
H1440 C1485 0.929 . S
H1441 C1486 0.931 . S
H1442 C1488 0.930 . S
H1443 C1489 0.929 . S
O1444 H1418 0.856 . S
O1444 C1490 1.300 . S
O1445 C1490 1.209 . S
O1446 C1491 1.199 . S
O1447 H1419 0.854 . S
O1447 C1491 1.297 . S
C1448 C1449 1.404 . S
C1448 C1453 1.397 . S
C1448 C1454 1.492 . S
C1449 C1448 1.404 . S
C1449 C1450 1.396 . S
C1449 C1460 1.492 . S
C1450 C1449 1.396 . S
C1450 C1451 1.397 . S
C1450 C1466 1.509 . S
C1451 C1450 1.397 . S
C1451 C1452 1.412 . S
C1451 C1472 1.485 . S
C1452 C1451 1.412 . S
C1452 C1453 1.388 . S
C1452 C1478 1.490 . S
C1453 C1448 1.397 . S
C1453 C1452 1.388 . S
C1453 C1484 1.519 . S
C1454 C1448 1.492 . S
C1454 C1455 1.363 . S
C1454 C1459 1.390 . S
C1455 H1420 0.930 . S
C1455 C1454 1.363 . S
C1455 C1456 1.372 . S
C1456 H1421 0.930 . S
C1456 C1455 1.372 . S
C1456 C1457 1.383 . S
C1457 C1456 1.383 . S
C1457 C1458 1.395 . S
C1458 H1422 0.930 . S
C1458 C1457 1.395 . S
C1458 C1459 1.362 . S
C1459 H1423 0.930 . S
C1459 C1454 1.390 . S
C1459 C1458 1.362 . S
C1460 C1449 1.492 . S
C1460 C1461 1.377 . S
C1460 C1465 1.397 . S
C1461 H1424 0.931 . S
C1461 C1460 1.377 . S
C1461 C1462 1.376 . S
C1462 H1425 0.930 . S
C1462 C1461 1.376 . S
C1462 C1463 1.376 . S
C1463 C1462 1.376 . S
C1463 C1464 1.378 . S
C1463 C1490 1.486 . S
C1464 H1426 0.930 . S
C1464 C1463 1.378 . S
C1464 C1465 1.376 . S
C1465 H1427 0.929 . S
C1465 C1460 1.397 . S
C1465 C1464 1.376 . S
C1466 C1450 1.509 . S
C1466 C1467 1.391 . S
C1466 C1471 1.386 . S
C1467 H1428 0.930 . S
C1467 C1466 1.391 . S
C1467 C1468 1.375 . S
C1468 H1429 0.931 . S
C1468 C1467 1.375 . S
C1468 C1469 1.375 . S
C1469 C1468 1.375 . S
C1469 C1470 1.361 . S
C1470 H1430 0.930 . S
C1470 C1469 1.361 . S
C1470 C1471 1.399 . S
C1471 H1431 0.929 . S
C1471 C1466 1.386 . S
C1471 C1470 1.399 . S
C1472 C1451 1.485 . S
C1472 C1473 1.394 . S
C1472 C1477 1.360 . S
C1473 H1432 0.931 . S
C1473 C1472 1.394 . S
C1473 C1474 1.372 . S
C1474 H1433 0.930 . S
C1474 C1473 1.372 . S
C1474 C1475 1.397 . S
C1475 C1474 1.397 . S
C1475 C1476 1.390 . S
C1475 C1491 1.476 . S
C1476 H1434 0.930 . S
C1476 C1475 1.390 . S
C1476 C1477 1.366 . S
C1477 H1435 0.932 . S
C1477 C1472 1.360 . S
C1477 C1476 1.366 . S
C1478 C1452 1.490 . S
C1478 C1479 1.380 . S
C1478 C1483 1.386 . S
C1479 H1436 0.930 . S
C1479 C1478 1.380 . S
C1479 C1480 1.381 . S
C1480 H1437 0.929 . S
C1480 C1479 1.381 . S
C1480 C1481 1.371 . S
C1481 C1480 1.371 . S
C1481 C1482 1.380 . S
C1482 H1438 0.931 . S
C1482 C1481 1.380 . S
C1482 C1483 1.387 . S
C1483 H1439 0.930 . S
C1483 C1478 1.386 . S
C1483 C1482 1.387 . S
C1484 C1453 1.519 . S
C1484 C1485 1.377 . S
C1484 C1489 1.361 . S
C1485 H1440 0.929 . S
C1485 C1484 1.377 . S
C1485 C1486 1.386 . S
C1486 H1441 0.931 . S
C1486 C1485 1.386 . S
C1486 C1487 1.363 . S
C1487 C1486 1.363 . S
C1487 C1488 1.385 . S
C1488 H1442 0.930 . S
C1488 C1487 1.385 . S
C1488 C1489 1.396 . S
C1489 H1443 0.929 . S
C1489 C1484 1.361 . S
C1489 C1488 1.396 . S
C1490 O1444 1.300 . S
C1490 O1445 1.209 . S
C1490 C1463 1.486 . S
C1491 O1446 1.199 . S
C1491 O1447 1.297 . S
C1491 C1475 1.476 . S
H1492 O1518 0.856 . S
H1493 O1521 0.854 . S
H1494 C1529 0.930 . S
H1495 C1530 0.930 . S
H1496 C1532 0.930 . S
H1497 C1533 0.930 . S
H1498 C1535 0.931 . S
H1499 C1536 0.930 . S
H1500 C1538 0.930 . S
H1501 C1539 0.929 . S
H1502 C1541 0.930 . S
H1503 C1542 0.931 . S
H1504 C1544 0.930 . S
H1505 C1545 0.929 . S
H1506 C1547 0.931 . S
H1507 C1548 0.930 . S
H1508 C1550 0.930 . S
H1509 C1551 0.932 . S
H1510 C1553 0.930 . S
H1511 C1554 0.929 . S
H1512 C1556 0.931 . S
H1513 C1557 0.930 . S
H1514 C1559 0.929 . S
H1515 C1560 0.931 . S
H1516 C1562 0.930 . S
H1517 C1563 0.929 . S
O1518 H1492 0.856 . S
O1518 C1564 1.300 . S
O1519 C1564 1.209 . S
O1520 C1565 1.199 . S
O1521 H1493 0.854 . S
O1521 C1565 1.297 . S
C1522 C1523 1.404 . S
C1522 C1527 1.397 . S
C1522 C1528 1.492 . S
C1523 C1522 1.404 . S
C1523 C1524 1.396 . S
C1523 C1534 1.492 . S
C1524 C1523 1.396 . S
C1524 C1525 1.397 . S
C1524 C1540 1.509 . S
C1525 C1524 1.397 . S
C1525 C1526 1.412 . S
C1525 C1546 1.485 . S
C1526 C1525 1.412 . S
C1526 C1527 1.388 . S
C1526 C1552 1.490 . S
C1527 C1522 1.397 . S
C1527 C1526 1.388 . S
C1527 C1558 1.519 . S
C1528 C1522 1.492 . S
C1528 C1529 1.363 . S
C1528 C1533 1.390 . S
C1529 H1494 0.930 . S
C1529 C1528 1.363 . S
C1529 C1530 1.372 . S
C1530 H1495 0.930 . S
C1530 C1529 1.372 . S
C1530 C1531 1.383 . S
C1531 C1530 1.383 . S
C1531 C1532 1.395 . S
C1532 H1496 0.930 . S
C1532 C1531 1.395 . S
C1532 C1533 1.362 . S
C1533 H1497 0.930 . S
C1533 C1528 1.390 . S
C1533 C1532 1.362 . S
C1534 C1523 1.492 . S
C1534 C1535 1.377 . S
C1534 C1539 1.397 . S
C1535 H1498 0.931 . S
C1535 C1534 1.377 . S
C1535 C1536 1.376 . S
C1536 H1499 0.930 . S
C1536 C1535 1.376 . S
C1536 C1537 1.376 . S
C1537 C1536 1.376 . S
C1537 C1538 1.378 . S
C1537 C1564 1.486 . S
C1538 H1500 0.930 . S
C1538 C1537 1.378 . S
C1538 C1539 1.376 . S
C1539 H1501 0.929 . S
C1539 C1534 1.397 . S
C1539 C1538 1.376 . S
C1540 C1524 1.509 . S
C1540 C1541 1.391 . S
C1540 C1545 1.386 . S
C1541 H1502 0.930 . S
C1541 C1540 1.391 . S
C1541 C1542 1.375 . S
C1542 H1503 0.931 . S
C1542 C1541 1.375 . S
C1542 C1543 1.375 . S
C1543 C1542 1.375 . S
C1543 C1544 1.361 . S
C1544 H1504 0.930 . S
C1544 C1543 1.361 . S
C1544 C1545 1.399 . S
C1545 H1505 0.929 . S
C1545 C1540 1.386 . S
C1545 C1544 1.399 . S
C1546 C1525 1.485 . S
C1546 C1547 1.394 . S
C1546 C1551 1.360 . S
C1547 H1506 0.931 . S
C1547 C1546 1.394 . S
C1547 C1548 1.372 . S
C1548 H1507 0.930 . S
C1548 C1547 1.372 . S
C1548 C1549 1.397 . S
C1549 C1548 1.397 . S
C1549 C1550 1.390 . S
C1549 C1565 1.476 . S
C1550 H1508 0.930 . S
C1550 C1549 1.390 . S
C1550 C1551 1.366 . S
C1551 H1509 0.932 . S
C1551 C1546 1.360 . S
C1551 C1550 1.366 . S
C1552 C1526 1.490 . S
C1552 C1553 1.380 . S
C1552 C1557 1.386 . S
C1553 H1510 0.930 . S
C1553 C1552 1.380 . S
C1553 C1554 1.381 . S
C1554 H1511 0.929 . S
C1554 C1553 1.381 . S
C1554 C1555 1.371 . S
C1555 C1554 1.371 . S
C1555 C1556 1.380 . S
C1556 H1512 0.931 . S
C1556 C1555 1.380 . S
C1556 C1557 1.387 . S
C1557 H1513 0.930 . S
C1557 C1552 1.386 . S
C1557 C1556 1.387 . S
C1558 C1527 1.519 . S
C1558 C1559 1.377 . S
C1558 C1563 1.361 . S
C1559 H1514 0.929 . S
C1559 C1558 1.377 . S
C1559 C1560 1.386 . S
C1560 H1515 0.931 . S
C1560 C1559 1.386 . S
C1560 C1561 1.363 . S
C1561 C1560 1.363 . S
C1561 C1562 1.385 . S
C1562 H1516 0.930 . S
C1562 C1561 1.385 . S
C1562 C1563 1.396 . S
C1563 H1517 0.929 . S
C1563 C1558 1.361 . S
C1563 C1562 1.396 . S
C1564 O1518 1.300 . S
C1564 O1519 1.209 . S
C1564 C1537 1.486 . S
C1565 O1520 1.199 . S
C1565 O1521 1.297 . S
C1565 C1549 1.476 . S
H1566 C1574 0.929 . S
H1567 C1576 0.930 . S
H1568 C1578 0.930 . S
H1569 C1581 0.929 . S
H1570 C1584 0.930 . S
H1571 C1586 0.960 . S
H1572 C1586 0.960 . S
H1573 C1586 0.960 . S
C1574 H1566 0.929 . S
C1574 C1575 1.389 . S
C1574 C1576 1.384 . S
C1575 C1574 1.389 . S
C1575 C1581 1.384 1_655 S
C1576 H1567 0.930 . S
C1576 C1574 1.384 . S
C1576 C1577 1.372 . S
C1577 C1576 1.372 . S
C1577 C1578 1.400 1_655 S
C1577 C1582 1.490 . S
C1578 H1568 0.930 . S
C1578 C1577 1.400 1_455 S
C1578 C1581 1.386 . S
H1579 C1595 0.903 1_455 S
H1580 C1596 0.952 . S
C1581 H1569 0.929 . S
C1581 C1575 1.384 1_455 S
C1581 C1578 1.386 . S
C1582 C1577 1.490 . S
C1582 C1584 1.395 . S
C1582 C1585 1.403 1_655 S
H1583 C1589 0.934 1_455 S
C1584 H1570 0.930 . S
C1584 C1582 1.395 . S
C1584 C1587 1.403 . S
C1585 C1582 1.403 1_455 S
C1585 C1586 1.524 . S
C1585 C1589 1.368 1_455 S
C1586 H1571 0.960 . S
C1586 H1572 0.960 . S
C1586 H1573 0.960 . S
C1586 C1585 1.524 . S
C1587 C1584 1.403 . S
C1587 C1588 1.392 . S
C1587 C1591 1.495 . S
C1588 C1587 1.392 . S
C1588 C1589 1.419 . S
C1588 C1590 1.478 . S
C1589 H1583 0.934 1_655 S
C1589 C1585 1.368 1_655 S
C1589 C1588 1.419 . S
C1590 C1588 1.478 . S
C1590 C1592 1.381 . S
C1590 C1596 1.371 1_655 S
C1591 C1587 1.495 . S
C1591 H1597 0.959 . S
C1591 H1598 0.961 . S
C1591 H1599 0.960 . S
C1592 C1590 1.381 . S
C1592 C1593 1.394 . S
C1592 H1600 0.930 . S
C1593 C1592 1.394 . S
C1593 C1594 1.383 . S
C1593 H1601 0.929 . S
C1594 C1593 1.383 . S
C1594 C1595 1.425 . S
C1595 H1579 0.903 1_655 S
C1595 C1594 1.425 . S
C1595 C1596 1.351 1_655 S
C1596 H1580 0.952 . S
C1596 C1590 1.371 1_455 S
C1596 C1595 1.351 1_455 S
H1597 C1591 0.959 . S
H1598 C1591 0.961 . S
H1599 C1591 0.960 . S
H1600 C1592 0.930 . S
H1601 C1593 0.929 . S
H1602 C1610 0.929 . S
H1603 C1612 0.930 . S
H1604 C1614 0.930 . S
H1605 C1617 0.929 . S
H1606 C1620 0.930 . S
H1607 C1622 0.960 . S
H1608 C1622 0.960 . S
H1609 C1622 0.960 . S
C1610 H1602 0.929 . S
C1610 C1611 1.377 . S
C1610 C1612 1.384 . S
C1611 C1610 1.377 . S
C1611 C1617 1.390 . S
C1612 H1603 0.930 . S
C1612 C1610 1.384 . S
C1612 C1613 1.372 . S
C1613 C1612 1.372 . S
C1613 C1614 1.400 . S
C1613 C1618 1.490 . S
C1614 H1604 0.930 . S
C1614 C1613 1.400 . S
C1614 C1617 1.386 . S
H1615 C1631 0.930 . S
H1616 C1632 0.931 . S
C1617 H1605 0.929 . S
C1617 C1611 1.390 . S
C1617 C1614 1.386 . S
C1618 C1613 1.490 . S
C1618 C1620 1.395 . S
C1618 C1621 1.403 . S
H1619 C1625 0.930 . S
C1620 H1606 0.930 . S
C1620 C1618 1.395 . S
C1620 C1623 1.403 . S
C1621 C1618 1.403 . S
C1621 C1622 1.524 . S
C1621 C1625 1.400 . S
C1622 H1607 0.960 . S
C1622 H1608 0.960 . S
C1622 H1609 0.960 . S
C1622 C1621 1.524 . S
C1623 C1620 1.403 . S
C1623 C1624 1.392 . S
C1623 C1627 1.495 . S
C1624 C1623 1.392 . S
C1624 C1625 1.385 . S
C1624 C1626 1.478 . S
C1625 H1619 0.930 . S
C1625 C1621 1.400 . S
C1625 C1624 1.385 . S
C1626 C1624 1.478 . S
C1626 C1628 1.381 . S
C1626 C1632 1.383 . S
C1627 C1623 1.495 . S
C1627 H1633 0.959 . S
C1627 H1634 0.961 . S
C1627 H1635 0.960 . S
C1628 C1626 1.381 . S
C1628 C1629 1.394 . S
C1628 H1636 0.930 . S
C1629 C1628 1.394 . S
C1629 C1630 1.383 . S
C1629 H1637 0.929 . S
C1630 C1629 1.383 . S
C1630 C1631 1.377 . S
C1631 H1615 0.930 . S
C1631 C1630 1.377 . S
C1631 C1632 1.379 . S
C1632 H1616 0.931 . S
C1632 C1626 1.383 . S
C1632 C1631 1.379 . S
H1633 C1627 0.959 . S
H1634 C1627 0.961 . S
H1635 C1627 0.960 . S
H1636 C1628 0.930 . S
H1637 C1629 0.929 . S
H1638 C1646 0.929 . S
H1639 C1648 0.930 . S
H1640 C1650 0.930 . S
H1641 C1653 0.929 . S
H1642 C1656 0.930 . S
H1643 C1658 0.960 . S
H1644 C1658 0.960 . S
H1645 C1658 0.960 . S
C1646 H1638 0.929 . S
C1646 C1647 1.377 . S
C1646 C1648 1.384 . S
C1647 C1646 1.377 . S
C1647 C1653 1.390 1_545 S
C1648 H1639 0.930 . S
C1648 C1646 1.384 . S
C1648 C1649 1.372 . S
C1649 C1648 1.372 . S
C1649 C1650 1.400 1_545 S
C1649 C1654 1.490 . S
C1650 H1640 0.930 . S
C1650 C1649 1.400 1_565 S
C1650 C1653 1.386 . S
H1651 C1667 0.930 1_565 S
H1652 C1668 0.931 1_565 S
C1653 H1641 0.929 . S
C1653 C1647 1.390 1_565 S
C1653 C1650 1.386 . S
C1654 C1649 1.490 . S
C1654 C1656 1.395 . S
C1654 C1657 1.403 1_545 S
H1655 C1661 0.995 . S
C1656 H1642 0.930 . S
C1656 C1654 1.395 . S
C1656 C1659 1.403 . S
C1657 C1654 1.403 1_565 S
C1657 C1658 1.524 . S
C1657 C1661 1.390 . S
C1658 H1643 0.960 . S
C1658 H1644 0.960 . S
C1658 H1645 0.960 . S
C1658 C1657 1.524 . S
C1659 C1656 1.403 . S
C1659 C1660 1.392 . S
C1659 C1663 1.495 . S
C1660 C1659 1.392 . S
C1660 C1661 1.336 1_545 S
C1660 C1662 1.478 . S
C1661 H1655 0.995 . S
C1661 C1657 1.390 . S
C1661 C1660 1.336 1_565 S
C1662 C1660 1.478 . S
C1662 C1664 1.381 . S
C1662 C1668 1.383 . S
C1663 C1659 1.495 . S
C1663 H1669 0.959 . S
C1663 H1670 0.961 . S
C1663 H1671 0.960 . S
C1664 C1662 1.381 . S
C1664 C1665 1.394 . S
C1664 H1672 0.930 . S
C1665 C1664 1.394 . S
C1665 C1666 1.383 . S
C1665 H1673 0.929 . S
C1666 C1665 1.383 . S
C1666 C1667 1.377 . S
C1667 H1651 0.930 1_545 S
C1667 C1666 1.377 . S
C1667 C1668 1.379 . S
C1668 H1652 0.931 1_545 S
C1668 C1662 1.383 . S
C1668 C1667 1.379 . S
H1669 C1663 0.959 . S
H1670 C1663 0.961 . S
H1671 C1663 0.960 . S
H1672 C1664 0.930 . S
H1673 C1665 0.929 . S
H1674 C1682 0.929 . S
H1675 C1684 0.930 . S
H1676 C1686 0.930 . S
H1677 C1689 0.929 . S
H1678 C1692 0.930 . S
H1679 C1694 0.960 . S
H1680 C1694 0.960 . S
H1681 C1694 0.960 . S
C1682 H1674 0.929 . S
C1682 C1683 1.377 . S
C1682 C1684 1.384 . S
C1683 C1682 1.377 . S
C1683 C1689 1.390 . S
C1684 H1675 0.930 . S
C1684 C1682 1.384 . S
C1684 C1685 1.372 . S
C1685 C1684 1.372 . S
C1685 C1686 1.400 . S
C1685 C1690 1.490 . S
C1686 H1676 0.930 . S
C1686 C1685 1.400 . S
C1686 C1689 1.386 . S
H1687 C1703 0.930 . S
H1688 C1704 0.931 1_545 S
C1689 H1677 0.929 . S
C1689 C1683 1.390 . S
C1689 C1686 1.386 . S
C1690 C1685 1.490 . S
C1690 C1692 1.395 1_565 S
C1690 C1693 1.403 . S
H1691 C1697 0.930 . S
C1692 H1678 0.930 . S
C1692 C1690 1.395 1_545 S
C1692 C1695 1.403 . S
C1693 C1690 1.403 . S
C1693 C1694 1.524 . S
C1693 C1697 1.400 . S
C1694 H1679 0.960 . S
C1694 H1680 0.960 . S
C1694 H1681 0.960 . S
C1694 C1693 1.524 . S
C1695 C1692 1.403 . S
C1695 C1696 1.392 1_545 S
C1695 C1699 1.495 . S
C1696 C1695 1.392 1_565 S
C1696 C1697 1.385 . S
C1696 C1698 1.478 . S
C1697 H1691 0.930 . S
C1697 C1693 1.400 . S
C1697 C1696 1.385 . S
C1698 C1696 1.478 . S
C1698 C1700 1.381 . S
C1698 C1704 1.383 . S
C1699 C1695 1.495 . S
C1699 H1705 0.959 . S
C1699 H1706 0.961 . S
C1699 H1707 0.960 . S
C1700 C1698 1.381 . S
C1700 C1701 1.394 . S
C1700 H1708 0.930 . S
C1701 C1700 1.394 . S
C1701 C1702 1.383 . S
C1701 H1709 0.929 . S
C1702 C1701 1.383 . S
C1702 C1703 1.377 . S
C1703 H1687 0.930 . S
C1703 C1702 1.377 . S
C1703 C1704 1.379 . S
C1704 H1688 0.931 1_565 S
C1704 C1698 1.383 . S
C1704 C1703 1.379 . S
H1705 C1699 0.959 . S
H1706 C1699 0.961 . S
H1707 C1699 0.960 . S
H1708 C1700 0.930 . S
H1709 C1701 0.929 . S
H1710 C1718 0.929 . S
H1711 C1720 0.930 . S
H1712 C1722 0.930 . S
H1713 C1725 0.929 . S
H1714 C1728 0.930 . S
H1715 C1730 0.960 . S
H1716 C1730 0.960 . S
H1717 C1730 0.960 1_455 S
C1718 H1710 0.929 . S
C1718 C1719 1.377 1_655 S
C1718 C1720 1.384 . S
C1719 C1718 1.377 1_455 S
C1719 C1725 1.390 . S
C1720 H1711 0.930 . S
C1720 C1718 1.384 . S
C1720 C1721 1.372 1_655 S
C1721 C1720 1.372 1_455 S
C1721 C1722 1.400 . S
C1721 C1726 1.490 . S
C1722 H1712 0.930 . S
C1722 C1721 1.400 . S
C1722 C1725 1.386 . S
H1723 C1739 0.930 . S
H1724 C1740 0.931 . S
C1725 H1713 0.929 . S
C1725 C1719 1.390 . S
C1725 C1722 1.386 . S
C1726 C1721 1.490 . S
C1726 C1728 1.395 . S
C1726 C1729 1.403 . S
H1727 C1733 0.930 . S
C1728 H1714 0.930 . S
C1728 C1726 1.395 . S
C1728 C1731 1.403 . S
C1729 C1726 1.403 . S
C1729 C1730 1.524 1_455 S
C1729 C1733 1.400 . S
C1730 H1715 0.960 . S
C1730 H1716 0.960 . S
C1730 H1717 0.960 1_655 S
C1730 C1729 1.524 1_655 S
C1731 C1728 1.403 . S
C1731 C1732 1.392 . S
C1731 C1735 1.495 . S
C1732 C1731 1.392 . S
C1732 C1733 1.385 . S
C1732 C1734 1.478 . S
C1733 H1727 0.930 . S
C1733 C1729 1.400 . S
C1733 C1732 1.385 . S
C1734 C1732 1.478 . S
C1734 C1736 1.381 1_455 S
C1734 C1740 1.383 . S
C1735 C1731 1.495 . S
C1735 H1741 0.959 . S
C1735 H1742 0.961 . S
C1735 H1743 0.960 . S
C1736 C1734 1.381 1_655 S
C1736 C1737 1.386 . S
C1736 H1744 0.930 . S
C1737 C1736 1.386 . S
C1737 C1738 1.357 1_655 S
C1737 H1745 0.965 . S
C1738 C1737 1.357 1_455 S
C1738 C1739 1.377 . S
C1739 H1723 0.930 . S
C1739 C1738 1.377 . S
C1739 C1740 1.379 . S
C1740 H1724 0.931 . S
C1740 C1734 1.383 . S
C1740 C1739 1.379 . S
H1741 C1735 0.959 . S
H1742 C1735 0.961 . S
H1743 C1735 0.960 . S
H1744 C1736 0.930 . S
H1745 C1737 0.965 . S
H1746 C1754 0.929 . S
H1747 C1756 0.930 . S
H1748 C1758 0.930 . S
H1749 C1761 0.936 . S
H1750 C1764 0.930 . S
H1751 C1766 0.960 . S
H1752 C1766 0.960 . S
H1753 C1766 0.960 . S
C1754 H1746 0.929 . S
C1754 C1755 1.377 . S
C1754 C1756 1.384 1_554 S
C1755 C1754 1.377 . S
C1755 C1761 1.410 . S
C1756 H1747 0.930 . S
C1756 C1754 1.384 1_556 S
C1756 C1757 1.372 . S
C1757 C1756 1.372 . S
C1757 C1758 1.400 . S
C1757 C1762 1.490 . S
C1758 H1748 0.930 . S
C1758 C1757 1.400 . S
C1758 C1761 1.360 1_556 S
H1759 C1775 0.930 . S
H1760 C1776 0.931 . S
C1761 H1749 0.936 . S
C1761 C1755 1.410 . S
C1761 C1758 1.360 1_554 S
C1762 C1757 1.490 . S
C1762 C1764 1.395 . S
C1762 C1765 1.403 . S
H1763 C1769 0.930 . S
C1764 H1750 0.930 . S
C1764 C1762 1.395 . S
C1764 C1767 1.403 . S
C1765 C1762 1.403 . S
C1765 C1766 1.524 . S
C1765 C1769 1.400 . S
C1766 H1751 0.960 . S
C1766 H1752 0.960 . S
C1766 H1753 0.960 . S
C1766 C1765 1.524 . S
C1767 C1764 1.403 . S
C1767 C1768 1.392 . S
C1767 C1771 1.495 . S
C1768 C1767 1.392 . S
C1768 C1769 1.385 . S
C1768 C1770 1.478 . S
C1769 H1763 0.930 . S
C1769 C1765 1.400 . S
C1769 C1768 1.385 . S
C1770 C1768 1.478 . S
C1770 C1772 1.381 . S
C1770 C1776 1.383 . S
C1771 C1767 1.495 . S
C1771 H1777 0.959 . S
C1771 H1778 0.961 . S
C1771 H1779 0.960 . S
C1772 C1770 1.381 . S
C1772 C1773 1.394 . S
C1772 H1780 0.930 . S
C1773 C1772 1.394 . S
C1773 C1774 1.383 . S
C1773 H1781 0.929 . S
C1774 C1773 1.383 . S
C1774 C1775 1.377 . S
C1775 H1759 0.930 . S
C1775 C1774 1.377 . S
C1775 C1776 1.379 . S
C1776 H1760 0.931 . S
C1776 C1770 1.383 . S
C1776 C1775 1.379 . S
H1777 C1771 0.959 . S
H1778 C1771 0.961 . S
H1779 C1771 0.960 . S
H1780 C1772 0.930 . S
H1781 C1773 0.929 . S
H1782 C1790 0.929 . S
H1783 C1792 0.930 . S
H1784 C1794 0.930 . S
H1785 C1797 0.888 1_554 S
H1786 C1800 0.958 . S
H1787 C1802 0.937 . S
H1788 C1802 0.951 1_655 S
H1789 C1802 0.966 . S
C1790 H1782 0.929 . S
C1790 C1791 1.302 1_656 S
C1790 C1792 1.384 . S
C1791 C1790 1.302 1_454 S
C1791 C1797 1.456 1_554 S
C1792 H1783 0.930 . S
C1792 C1790 1.384 . S
C1792 C1793 1.372 1_655 S
C1793 C1792 1.372 1_455 S
C1793 C1794 1.400 . S
C1793 C1798 1.486 1_455 S
C1794 H1784 0.930 . S
C1794 C1793 1.400 . S
C1794 C1797 1.438 . S
H1795 C1811 0.930 . S
H1796 C1812 0.931 . S
C1797 H1785 0.888 1_556 S
C1797 C1791 1.456 1_556 S
C1797 C1794 1.438 . S
C1798 C1793 1.486 1_655 S
C1798 C1800 1.385 . S
C1798 C1801 1.393 1_655 S
H1799 C1805 0.958 . S
C1800 H1786 0.958 . S
C1800 C1798 1.385 . S
C1800 C1803 1.401 . S
C1801 C1798 1.393 1_455 S
C1801 C1802 1.527 . S
C1801 C1805 1.393 . S
C1802 H1787 0.937 . S
C1802 H1788 0.951 1_455 S
C1802 H1789 0.966 . S
C1802 C1801 1.527 . S
C1803 C1800 1.401 . S
C1803 C1804 1.369 1_655 S
C1803 C1807 1.489 . S
C1804 C1803 1.369 1_455 S
C1804 C1805 1.378 . S
C1804 C1806 1.465 . S
C1805 H1799 0.958 . S
C1805 C1801 1.393 . S
C1805 C1804 1.378 . S
C1806 C1804 1.465 . S
C1806 C1808 1.360 1_455 S
C1806 C1812 1.418 . S
C1807 C1803 1.489 . S
C1807 H1813 1.005 . S
C1807 H1814 0.892 1_655 S
C1807 H1815 1.003 . S
C1808 C1806 1.360 1_655 S
C1808 C1809 1.394 . S
C1808 H1816 0.930 . S
C1809 C1808 1.394 . S
C1809 C1810 1.340 1_655 S
C1809 H1817 0.929 . S
C1810 C1809 1.340 1_455 S
C1810 C1811 1.403 . S
C1811 H1795 0.930 . S
C1811 C1810 1.403 . S
C1811 C1812 1.379 . S
C1812 H1796 0.931 . S
C1812 C1806 1.418 . S
C1812 C1811 1.379 . S
H1813 C1807 1.005 . S
H1814 C1807 0.892 1_455 S
H1815 C1807 1.003 . S
H1816 C1808 0.930 . S
H1817 C1809 0.929 . S
H1818 C1826 0.929 . S
H1819 C1828 0.930 . S
H1820 C1830 0.930 . S
H1821 C1833 0.929 . S
H1822 C1836 0.930 . S
H1823 C1838 0.960 . S
H1824 C1838 0.960 . S
H1825 C1838 0.960 . S
C1826 H1818 0.929 . S
C1826 C1827 1.377 . S
C1826 C1828 1.384 . S
C1827 C1826 1.377 . S
C1827 C1833 1.390 . S
C1828 H1819 0.930 . S
C1828 C1826 1.384 . S
C1828 C1829 1.372 . S
C1829 C1828 1.372 . S
C1829 C1830 1.400 . S
C1829 C1834 1.490 . S
C1830 H1820 0.930 . S
C1830 C1829 1.400 . S
C1830 C1833 1.386 . S
H1831 C1847 0.930 . S
H1832 C1848 0.931 . S
C1833 H1821 0.929 . S
C1833 C1827 1.390 . S
C1833 C1830 1.386 . S
C1834 C1829 1.490 . S
C1834 C1836 1.395 . S
C1834 C1837 1.403 . S
H1835 C1841 0.930 . S
C1836 H1822 0.930 . S
C1836 C1834 1.395 . S
C1836 C1839 1.403 . S
C1837 C1834 1.403 . S
C1837 C1838 1.524 . S
C1837 C1841 1.400 . S
C1838 H1823 0.960 . S
C1838 H1824 0.960 . S
C1838 H1825 0.960 . S
C1838 C1837 1.524 . S
C1839 C1836 1.403 . S
C1839 C1840 1.392 . S
C1839 C1843 1.495 . S
C1840 C1839 1.392 . S
C1840 C1841 1.385 . S
C1840 C1842 1.478 . S
C1841 H1835 0.930 . S
C1841 C1837 1.400 . S
C1841 C1840 1.385 . S
C1842 C1840 1.478 . S
C1842 C1844 1.381 . S
C1842 C1848 1.383 . S
C1843 C1839 1.495 . S
C1843 H1849 0.959 . S
C1843 H1850 0.961 . S
C1843 H1851 0.960 . S
C1844 C1842 1.381 . S
C1844 C1845 1.394 . S
C1844 H1852 0.930 . S
C1845 C1844 1.394 . S
C1845 C1846 1.383 . S
C1845 H1853 0.929 . S
C1846 C1845 1.383 . S
C1846 C1847 1.377 . S
C1847 H1831 0.930 . S
C1847 C1846 1.377 . S
C1847 C1848 1.379 . S
C1848 H1832 0.931 . S
C1848 C1842 1.383 . S
C1848 C1847 1.379 . S
H1849 C1843 0.959 . S
H1850 C1843 0.961 . S
H1851 C1843 0.960 . S
H1852 C1844 0.930 . S
H1853 C1845 0.929 . S
H1854 C1862 0.929 . S
H1855 C1864 0.930 . S
H1856 C1866 0.930 . S
H1857 C1869 0.936 . S
H1858 C1872 0.930 . S
H1859 C1874 0.960 . S
H1860 C1874 0.960 . S
H1861 C1874 0.960 1_565 S
C1862 H1854 0.929 . S
C1862 C1863 1.377 1_545 S
C1862 C1864 1.384 . S
C1863 C1862 1.377 1_565 S
C1863 C1869 1.390 . S
C1864 H1855 0.930 . S
C1864 C1862 1.384 . S
C1864 C1865 1.372 1_545 S
C1865 C1864 1.372 1_565 S
C1865 C1866 1.400 . S
C1865 C1870 1.511 . S
C1866 H1856 0.930 . S
C1866 C1865 1.400 . S
C1866 C1869 1.386 . S
H1867 C1883 0.930 . S
H1868 C1884 0.931 . S
C1869 H1857 0.936 . S
C1869 C1863 1.390 . S
C1869 C1866 1.386 . S
C1870 C1865 1.511 . S
C1870 C1872 1.409 . S
C1870 C1873 1.356 1_565 S
H1871 C1877 0.905 . S
C1872 H1858 0.930 . S
C1872 C1870 1.409 . S
C1872 C1875 1.403 . S
C1873 C1870 1.356 1_545 S
C1873 C1874 1.532 . S
C1873 C1877 1.398 . S
C1874 H1859 0.960 . S
C1874 H1860 0.960 . S
C1874 H1861 0.960 1_545 S
C1874 C1873 1.532 . S
C1875 C1872 1.403 . S
C1875 C1876 1.398 . S
C1875 C1879 1.495 . S
C1876 C1875 1.398 . S
C1876 C1877 1.376 1_565 S
C1876 C1878 1.474 . S
C1877 H1871 0.905 . S
C1877 C1873 1.398 . S
C1877 C1876 1.376 1_545 S
C1878 C1876 1.474 . S
C1878 C1880 1.381 1_565 S
C1878 C1884 1.383 . S
C1879 C1875 1.495 . S
C1879 H1885 0.959 . S
C1879 H1886 0.961 . S
C1879 H1887 0.960 1_565 S
C1880 C1878 1.381 1_545 S
C1880 C1881 1.394 . S
C1880 H1888 0.930 . S
C1881 C1880 1.394 . S
C1881 C1882 1.410 . S
C1881 H1889 0.929 . S
C1882 C1881 1.410 . S
C1882 C1883 1.325 1_545 S
C1883 H1867 0.930 . S
C1883 C1882 1.325 1_565 S
C1883 C1884 1.379 . S
C1884 H1868 0.931 . S
C1884 C1878 1.383 . S
C1884 C1883 1.379 . S
H1885 C1879 0.959 . S
H1886 C1879 0.961 . S
H1887 C1879 0.960 1_545 S
H1888 C1880 0.930 . S
H1889 C1881 0.929 . S
H1890 C1898 0.929 . S
H1891 C1900 0.930 . S
H1892 C1902 0.930 . S
H1893 C1905 0.929 . S
H1894 C1908 0.903 . S
H1895 C1910 0.960 . S
H1896 C1910 0.960 1_565 S
H1897 C1910 0.960 . S
C1898 H1890 0.929 . S
C1898 C1899 1.377 1_565 S
C1898 C1900 1.384 . S
C1899 C1898 1.377 1_545 S
C1899 C1905 1.390 . S
C1900 H1891 0.930 . S
C1900 C1898 1.384 . S
C1900 C1901 1.372 1_565 S
C1901 C1900 1.372 1_545 S
C1901 C1902 1.400 . S
C1901 C1906 1.490 . S
C1902 H1892 0.930 . S
C1902 C1901 1.400 . S
C1902 C1905 1.386 . S
H1903 C1919 0.930 . S
H1904 C1920 0.931 . S
C1905 H1893 0.929 . S
C1905 C1899 1.390 . S
C1905 C1902 1.386 . S
C1906 C1901 1.490 . S
C1906 C1908 1.393 1_545 S
C1906 C1909 1.403 . S
H1907 C1913 0.930 . S
C1908 H1894 0.903 . S
C1908 C1906 1.393 1_565 S
C1908 C1911 1.412 . S
C1909 C1906 1.403 . S
C1909 C1910 1.524 . S
C1909 C1913 1.400 . S
C1910 H1895 0.960 . S
C1910 H1896 0.960 1_545 S
C1910 H1897 0.960 . S
C1910 C1909 1.524 . S
C1911 C1908 1.412 . S
C1911 C1912 1.364 1_565 S
C1911 C1915 1.513 . S
C1912 C1911 1.364 1_545 S
C1912 C1913 1.387 . S
C1912 C1914 1.477 1_545 S
C1913 H1907 0.930 . S
C1913 C1909 1.400 . S
C1913 C1912 1.387 . S
C1914 C1912 1.477 1_565 S
C1914 C1916 1.376 . S
C1914 C1920 1.390 1_565 S
C1915 C1911 1.513 . S
C1915 H1921 0.959 . S
C1915 H1922 0.961 1_565 S
C1915 H1923 0.960 . S
C1916 C1914 1.376 . S
C1916 C1917 1.394 . S
C1916 H1924 0.930 . S
C1917 C1916 1.394 . S
C1917 C1918 1.455 . S
C1917 H1925 0.929 . S
C1918 C1917 1.455 . S
C1918 C1919 1.325 1_565 S
C1919 H1903 0.930 . S
C1919 C1918 1.325 1_545 S
C1919 C1920 1.379 . S
C1920 H1904 0.931 . S
C1920 C1914 1.390 1_545 S
C1920 C1919 1.379 . S
H1921 C1915 0.959 . S
H1922 C1915 0.961 1_545 S
H1923 C1915 0.960 . S
H1924 C1916 0.930 . S
H1925 C1917 0.929 . S
H1926 C1934 0.929 . S
H1927 C1936 0.930 . S
H1928 C1938 0.930 . S
H1929 C1941 0.929 . S
H1930 C1944 0.930 . S
H1931 C1946 0.960 . S
H1932 C1946 0.960 . S
H1933 C1946 0.960 . S
C1934 H1926 0.929 . S
C1934 C1935 1.377 1_455 S
C1934 C1936 1.384 . S
C1935 C1934 1.377 1_655 S
C1935 C1941 1.390 . S
C1936 H1927 0.930 . S
C1936 C1934 1.384 . S
C1936 C1937 1.368 1_455 S
C1937 C1936 1.368 1_655 S
C1937 C1938 1.406 . S
C1937 C1942 1.478 1_655 S
C1938 H1928 0.930 . S
C1938 C1937 1.406 . S
C1938 C1941 1.386 . S
H1939 C1955 0.930 . S
H1940 C1956 0.931 . S
C1941 H1929 0.929 . S
C1941 C1935 1.390 . S
C1941 C1938 1.386 . S
C1942 C1937 1.478 1_455 S
C1942 C1944 1.410 . S
C1942 C1945 1.399 1_455 S
H1943 C1949 0.930 . S
C1944 H1930 0.930 . S
C1944 C1942 1.410 . S
C1944 C1947 1.403 . S
C1945 C1942 1.399 1_655 S
C1945 C1946 1.524 . S
C1945 C1949 1.400 . S
C1946 H1931 0.960 . S
C1946 H1932 0.960 . S
C1946 H1933 0.960 . S
C1946 C1945 1.524 . S
C1947 C1944 1.403 . S
C1947 C1948 1.392 . S
C1947 C1951 1.495 . S
C1948 C1947 1.392 . S
C1948 C1949 1.385 1_455 S
C1948 C1950 1.478 . S
C1949 H1943 0.930 . S
C1949 C1945 1.400 . S
C1949 C1948 1.385 1_655 S
C1950 C1948 1.478 . S
C1950 C1952 1.381 . S
C1950 C1956 1.383 1_455 S
C1951 C1947 1.495 . S
C1951 H1957 0.959 . S
C1951 H1958 0.961 . S
C1951 H1959 0.960 . S
C1952 C1950 1.381 . S
C1952 C1953 1.394 . S
C1952 H1960 0.930 . S
C1953 C1952 1.394 . S
C1953 C1954 1.443 . S
C1953 H1961 0.929 . S
C1954 C1953 1.443 . S
C1954 C1955 1.296 1_455 S
C1955 H1939 0.930 . S
C1955 C1954 1.296 1_655 S
C1955 C1956 1.379 . S
C1956 H1940 0.931 . S
C1956 C1950 1.383 1_655 S
C1956 C1955 1.379 . S
H1957 C1951 0.959 . S
H1958 C1951 0.961 . S
H1959 C1951 0.960 . S
H1960 C1952 0.930 . S
H1961 C1953 0.929 . S
H1962 C1970 0.929 . S
H1963 C1972 0.930 . S
H1964 C1974 0.930 . S
H1965 C1977 0.929 . S
H1966 C1980 0.930 . S
H1967 C1982 0.960 . S
H1968 C1982 0.960 . S
H1969 C1982 0.960 . S
C1970 H1962 0.929 . S
C1970 C1971 1.377 . S
C1970 C1972 1.384 . S
C1971 C1970 1.377 . S
C1971 C1977 1.390 . S
C1972 H1963 0.930 . S
C1972 C1970 1.384 . S
C1972 C1973 1.372 . S
C1973 C1972 1.372 . S
C1973 C1974 1.400 . S
C1973 C1978 1.490 . S
C1974 H1964 0.930 . S
C1974 C1973 1.400 . S
C1974 C1977 1.386 . S
H1975 C1991 0.930 . S
H1976 C1992 0.931 . S
C1977 H1965 0.929 . S
C1977 C1971 1.390 . S
C1977 C1974 1.386 . S
C1978 C1973 1.490 . S
C1978 C1980 1.395 . S
C1978 C1981 1.403 . S
H1979 C1985 0.930 . S
C1980 H1966 0.930 . S
C1980 C1978 1.395 . S
C1980 C1983 1.403 . S
C1981 C1978 1.403 . S
C1981 C1982 1.524 . S
C1981 C1985 1.400 . S
C1982 H1967 0.960 . S
C1982 H1968 0.960 . S
C1982 H1969 0.960 . S
C1982 C1981 1.524 . S
C1983 C1980 1.403 . S
C1983 C1984 1.392 . S
C1983 C1987 1.495 . S
C1984 C1983 1.392 . S
C1984 C1985 1.385 . S
C1984 C1986 1.478 . S
C1985 H1979 0.930 . S
C1985 C1981 1.400 . S
C1985 C1984 1.385 . S
C1986 C1984 1.478 . S
C1986 C1988 1.381 . S
C1986 C1992 1.383 . S
C1987 C1983 1.495 . S
C1987 H1993 0.959 . S
C1987 H1994 0.961 . S
C1987 H1995 0.960 . S
C1988 C1986 1.381 . S
C1988 C1989 1.394 . S
C1988 H1996 0.930 . S
C1989 C1988 1.394 . S
C1989 C1990 1.383 . S
C1989 H1997 0.929 . S
C1990 C1989 1.383 . S
C1990 C1991 1.377 . S
C1991 H1975 0.930 . S
C1991 C1990 1.377 . S
C1991 C1992 1.379 . S
C1992 H1976 0.931 . S
C1992 C1986 1.383 . S
C1992 C1991 1.379 . S
H1993 C1987 0.959 . S
H1994 C1987 0.961 . S
H1995 C1987 0.960 . S
H1996 C1988 0.930 . S
H1997 C1989 0.929 . S
H1998 C2006 0.929 . S
H1999 C2008 0.930 . S
H2000 C2010 0.930 . S
H2001 C2013 0.929 . S
H2002 C2016 0.930 . S
H2003 C2018 0.960 . S
H2004 C2018 0.960 . S
H2005 C2018 0.960 . S
C2006 H1998 0.929 . S
C2006 C2007 1.377 . S
C2006 C2008 1.384 . S
C2007 C2006 1.377 . S
C2007 C2013 1.390 . S
C2008 H1999 0.930 . S
C2008 C2006 1.384 . S
C2008 C2009 1.372 . S
C2009 C2008 1.372 . S
C2009 C2010 1.400 . S
C2009 C2014 1.490 . S
C2010 H2000 0.930 . S
C2010 C2009 1.400 . S
C2010 C2013 1.386 . S
H2011 C2027 0.930 . S
H2012 C2028 0.931 . S
C2013 H2001 0.929 . S
C2013 C2007 1.390 . S
C2013 C2010 1.386 . S
C2014 C2009 1.490 . S
C2014 C2016 1.395 . S
C2014 C2017 1.403 . S
H2015 C2021 0.930 . S
C2016 H2002 0.930 . S
C2016 C2014 1.395 . S
C2016 C2019 1.403 . S
C2017 C2014 1.403 . S
C2017 C2018 1.524 . S
C2017 C2021 1.400 . S
C2018 H2003 0.960 . S
C2018 H2004 0.960 . S
C2018 H2005 0.960 . S
C2018 C2017 1.524 . S
C2019 C2016 1.403 . S
C2019 C2020 1.392 . S
C2019 C2023 1.495 . S
C2020 C2019 1.392 . S
C2020 C2021 1.385 . S
C2020 C2022 1.478 . S
C2021 H2015 0.930 . S
C2021 C2017 1.400 . S
C2021 C2020 1.385 . S
C2022 C2020 1.478 . S
C2022 C2024 1.381 . S
C2022 C2028 1.383 . S
C2023 C2019 1.495 . S
C2023 H2029 0.959 . S
C2023 H2030 0.961 . S
C2023 H2031 0.960 . S
C2024 C2022 1.381 . S
C2024 C2025 1.394 . S
C2024 H2032 0.930 . S
C2025 C2024 1.394 . S
C2025 C2026 1.383 . S
C2025 H2033 0.929 . S
C2026 C2025 1.383 . S
C2026 C2027 1.377 . S
C2027 H2011 0.930 . S
C2027 C2026 1.377 . S
C2027 C2028 1.379 . S
C2028 H2012 0.931 . S
C2028 C2022 1.383 . S
C2028 C2027 1.379 . S
H2029 C2023 0.959 . S
H2030 C2023 0.961 . S
H2031 C2023 0.960 . S
H2032 C2024 0.930 . S
H2033 C2025 0.929 . S
H2034 C2042 0.929 . S
H2035 C2044 0.930 . S
H2036 C2046 0.930 . S
H2037 C2049 0.929 . S
H2038 C2052 0.930 . S
H2039 C2054 0.960 . S
H2040 C2054 0.960 . S
H2041 C2054 0.960 . S
C2042 H2034 0.929 . S
C2042 C2043 1.377 . S
C2042 C2044 1.384 . S
C2043 C2042 1.377 . S
C2043 C2049 1.390 . S
C2044 H2035 0.930 . S
C2044 C2042 1.384 . S
C2044 C2045 1.372 . S
C2045 C2044 1.372 . S
C2045 C2046 1.400 . S
C2045 C2050 1.490 . S
C2046 H2036 0.930 . S
C2046 C2045 1.400 . S
C2046 C2049 1.386 . S
H2047 C2063 0.930 . S
H2048 C2064 0.931 . S
C2049 H2037 0.929 . S
C2049 C2043 1.390 . S
C2049 C2046 1.386 . S
C2050 C2045 1.490 . S
C2050 C2052 1.395 . S
C2050 C2053 1.403 . S
H2051 C2057 0.930 . S
C2052 H2038 0.930 . S
C2052 C2050 1.395 . S
C2052 C2055 1.403 . S
C2053 C2050 1.403 . S
C2053 C2054 1.524 . S
C2053 C2057 1.400 . S
C2054 H2039 0.960 . S
C2054 H2040 0.960 . S
C2054 H2041 0.960 . S
C2054 C2053 1.524 . S
C2055 C2052 1.403 . S
C2055 C2056 1.392 . S
C2055 C2059 1.495 . S
C2056 C2055 1.392 . S
C2056 C2057 1.385 . S
C2056 C2058 1.478 . S
C2057 H2051 0.930 . S
C2057 C2053 1.400 . S
C2057 C2056 1.385 . S
C2058 C2056 1.478 . S
C2058 C2060 1.381 . S
C2058 C2064 1.383 . S
C2059 C2055 1.495 . S
C2059 H2065 0.959 . S
C2059 H2066 0.961 . S
C2059 H2067 0.960 . S
C2060 C2058 1.381 . S
C2060 C2061 1.394 . S
C2060 H2068 0.930 . S
C2061 C2060 1.394 . S
C2061 C2062 1.383 . S
C2061 H2069 0.929 . S
C2062 C2061 1.383 . S
C2062 C2063 1.377 . S
C2063 H2047 0.930 . S
C2063 C2062 1.377 . S
C2063 C2064 1.379 . S
C2064 H2048 0.931 . S
C2064 C2058 1.383 . S
C2064 C2063 1.379 . S
H2065 C2059 0.959 . S
H2066 C2059 0.961 . S
H2067 C2059 0.960 . S
H2068 C2060 0.930 . S
H2069 C2061 0.929 . S
H2070 C2078 0.929 . S
H2071 C2080 0.930 . S
H2072 C2082 0.930 . S
H2073 C2085 0.929 . S
H2074 C2088 0.930 . S
H2075 C2090 0.960 . S
H2076 C2090 0.960 . S
H2077 C2090 0.960 . S
C2078 H2070 0.929 . S
C2078 C2079 1.377 . S
C2078 C2080 1.384 . S
C2079 C2078 1.377 . S
C2079 C2085 1.390 . S
C2080 H2071 0.930 . S
C2080 C2078 1.384 . S
C2080 C2081 1.372 . S
C2081 C2080 1.372 . S
C2081 C2082 1.400 . S
C2081 C2086 1.490 . S
C2082 H2072 0.930 . S
C2082 C2081 1.400 . S
C2082 C2085 1.386 . S
H2083 C2099 0.930 . S
H2084 C2100 0.931 . S
C2085 H2073 0.929 . S
C2085 C2079 1.390 . S
C2085 C2082 1.386 . S
C2086 C2081 1.490 . S
C2086 C2088 1.395 . S
C2086 C2089 1.403 . S
H2087 C2093 0.930 . S
C2088 H2074 0.930 . S
C2088 C2086 1.395 . S
C2088 C2091 1.403 . S
C2089 C2086 1.403 . S
C2089 C2090 1.524 . S
C2089 C2093 1.400 . S
C2090 H2075 0.960 . S
C2090 H2076 0.960 . S
C2090 H2077 0.960 . S
C2090 C2089 1.524 . S
C2091 C2088 1.403 . S
C2091 C2092 1.392 . S
C2091 C2095 1.495 . S
C2092 C2091 1.392 . S
C2092 C2093 1.385 . S
C2092 C2094 1.478 . S
C2093 H2087 0.930 . S
C2093 C2089 1.400 . S
C2093 C2092 1.385 . S
C2094 C2092 1.478 . S
C2094 C2096 1.381 . S
C2094 C2100 1.383 . S
C2095 C2091 1.495 . S
C2095 H2101 0.959 . S
C2095 H2102 0.961 . S
C2095 H2103 0.960 . S
C2096 C2094 1.381 . S
C2096 C2097 1.394 . S
C2096 H2104 0.930 . S
C2097 C2096 1.394 . S
C2097 C2098 1.383 . S
C2097 H2105 0.929 . S
C2098 C2097 1.383 . S
C2098 C2099 1.377 . S
C2099 H2083 0.930 . S
C2099 C2098 1.377 . S
C2099 C2100 1.379 . S
C2100 H2084 0.931 . S
C2100 C2094 1.383 . S
C2100 C2099 1.379 . S
H2101 C2095 0.959 . S
H2102 C2095 0.961 . S
H2103 C2095 0.960 . S
H2104 C2096 0.930 . S
H2105 C2097 0.929 . S
H2106 C2114 0.929 . S
H2107 C2116 0.930 . S
H2108 C2118 0.930 . S
H2109 C2121 0.929 . S
H2110 C2124 0.930 . S
H2111 C2126 0.960 . S
H2112 C2126 0.960 . S
H2113 C2126 0.960 . S
C2114 H2106 0.929 . S
C2114 C2115 1.377 . S
C2114 C2116 1.384 . S
C2115 C2114 1.377 . S
C2115 C2121 1.390 . S
C2116 H2107 0.930 . S
C2116 C2114 1.384 . S
C2116 C2117 1.372 . S
C2117 C2116 1.372 . S
C2117 C2118 1.400 . S
C2117 C2122 1.490 . S
C2118 H2108 0.930 . S
C2118 C2117 1.400 . S
C2118 C2121 1.386 . S
H2119 C2135 0.930 . S
H2120 C2136 0.931 . S
C2121 H2109 0.929 . S
C2121 C2115 1.390 . S
C2121 C2118 1.386 . S
C2122 C2117 1.490 . S
C2122 C2124 1.395 . S
C2122 C2125 1.403 . S
H2123 C2129 0.930 . S
C2124 H2110 0.930 . S
C2124 C2122 1.395 . S
C2124 C2127 1.403 . S
C2125 C2122 1.403 . S
C2125 C2126 1.524 . S
C2125 C2129 1.400 . S
C2126 H2111 0.960 . S
C2126 H2112 0.960 . S
C2126 H2113 0.960 . S
C2126 C2125 1.524 . S
C2127 C2124 1.403 . S
C2127 C2128 1.392 . S
C2127 C2131 1.495 . S
C2128 C2127 1.392 . S
C2128 C2129 1.385 . S
C2128 C2130 1.478 . S
C2129 H2123 0.930 . S
C2129 C2125 1.400 . S
C2129 C2128 1.385 . S
C2130 C2128 1.478 . S
C2130 C2132 1.381 . S
C2130 C2136 1.383 . S
C2131 C2127 1.495 . S
C2131 H2137 0.959 . S
C2131 H2138 0.961 . S
C2131 H2139 0.960 . S
C2132 C2130 1.381 . S
C2132 C2133 1.394 . S
C2132 H2140 0.930 . S
C2133 C2132 1.394 . S
C2133 C2134 1.383 . S
C2133 H2141 0.929 . S
C2134 C2133 1.383 . S
C2134 C2135 1.377 . S
C2135 H2119 0.930 . S
C2135 C2134 1.377 . S
C2135 C2136 1.379 . S
C2136 H2120 0.931 . S
C2136 C2130 1.383 . S
C2136 C2135 1.379 . S
H2137 C2131 0.959 . S
H2138 C2131 0.961 . S
H2139 C2131 0.960 . S
H2140 C2132 0.930 . S
H2141 C2133 0.929 . S
H2142 C2150 0.929 . S
H2143 C2152 0.930 . S
H2144 C2154 0.930 . S
H2145 C2157 0.929 . S
H2146 C2160 0.930 . S
H2147 C2162 0.960 . S
H2148 C2162 0.960 . S
H2149 C2162 0.960 . S
C2150 H2142 0.929 . S
C2150 C2151 1.377 . S
C2150 C2152 1.384 . S
C2151 C2150 1.377 . S
C2151 C2157 1.390 . S
C2152 H2143 0.930 . S
C2152 C2150 1.384 . S
C2152 C2153 1.372 . S
C2153 C2152 1.372 . S
C2153 C2154 1.400 . S
C2153 C2158 1.490 . S
C2154 H2144 0.930 . S
C2154 C2153 1.400 . S
C2154 C2157 1.386 . S
H2155 C2171 0.930 . S
H2156 C2172 0.931 . S
C2157 H2145 0.929 . S
C2157 C2151 1.390 . S
C2157 C2154 1.386 . S
C2158 C2153 1.490 . S
C2158 C2160 1.395 . S
C2158 C2161 1.403 . S
H2159 C2165 0.930 . S
C2160 H2146 0.930 . S
C2160 C2158 1.395 . S
C2160 C2163 1.403 . S
C2161 C2158 1.403 . S
C2161 C2162 1.524 . S
C2161 C2165 1.400 . S
C2162 H2147 0.960 . S
C2162 H2148 0.960 . S
C2162 H2149 0.960 . S
C2162 C2161 1.524 . S
C2163 C2160 1.403 . S
C2163 C2164 1.392 . S
C2163 C2167 1.495 . S
C2164 C2163 1.392 . S
C2164 C2165 1.385 . S
C2164 C2166 1.478 . S
C2165 H2159 0.930 . S
C2165 C2161 1.400 . S
C2165 C2164 1.385 . S
C2166 C2164 1.478 . S
C2166 C2168 1.381 . S
C2166 C2172 1.383 . S
C2167 C2163 1.495 . S
C2167 H2173 0.959 . S
C2167 H2174 0.961 . S
C2167 H2175 0.960 . S
C2168 C2166 1.381 . S
C2168 C2169 1.394 . S
C2168 H2176 0.930 . S
C2169 C2168 1.394 . S
C2169 C2170 1.383 . S
C2169 H2177 0.929 . S
C2170 C2169 1.383 . S
C2170 C2171 1.377 . S
C2171 H2155 0.930 . S
C2171 C2170 1.377 . S
C2171 C2172 1.379 . S
C2172 H2156 0.931 . S
C2172 C2166 1.383 . S
C2172 C2171 1.379 . S
H2173 C2167 0.959 . S
H2174 C2167 0.961 . S
H2175 C2167 0.960 . S
H2176 C2168 0.930 . S
H2177 C2169 0.929 . S
H2178 C2186 0.929 . S
H2179 C2188 0.930 . S
H2180 C2190 0.930 . S
H2181 C2193 0.929 . S
H2182 C2196 0.930 . S
H2183 C2198 0.960 . S
H2184 C2198 0.960 . S
H2185 C2198 0.960 . S
C2186 H2178 0.929 . S
C2186 C2187 1.377 . S
C2186 C2188 1.384 . S
C2187 C2186 1.377 . S
C2187 C2193 1.390 . S
C2188 H2179 0.930 . S
C2188 C2186 1.384 . S
C2188 C2189 1.372 . S
C2189 C2188 1.372 . S
C2189 C2190 1.400 . S
C2189 C2194 1.490 . S
C2190 H2180 0.930 . S
C2190 C2189 1.400 . S
C2190 C2193 1.386 . S
H2191 C2207 0.930 . S
H2192 C2208 0.931 . S
C2193 H2181 0.929 . S
C2193 C2187 1.390 . S
C2193 C2190 1.386 . S
C2194 C2189 1.490 . S
C2194 C2196 1.395 . S
C2194 C2197 1.403 . S
H2195 C2201 0.930 . S
C2196 H2182 0.930 . S
C2196 C2194 1.395 . S
C2196 C2199 1.403 . S
C2197 C2194 1.403 . S
C2197 C2198 1.524 . S
C2197 C2201 1.400 . S
C2198 H2183 0.960 . S
C2198 H2184 0.960 . S
C2198 H2185 0.960 . S
C2198 C2197 1.524 . S
C2199 C2196 1.403 . S
C2199 C2200 1.392 . S
C2199 C2203 1.495 . S
C2200 C2199 1.392 . S
C2200 C2201 1.385 . S
C2200 C2202 1.478 . S
C2201 H2195 0.930 . S
C2201 C2197 1.400 . S
C2201 C2200 1.385 . S
C2202 C2200 1.478 . S
C2202 C2204 1.381 . S
C2202 C2208 1.383 . S
C2203 C2199 1.495 . S
C2203 H2209 0.959 . S
C2203 H2210 0.961 . S
C2203 H2211 0.960 . S
C2204 C2202 1.381 . S
C2204 C2205 1.394 . S
C2204 H2212 0.930 . S
C2205 C2204 1.394 . S
C2205 C2206 1.383 . S
C2205 H2213 0.929 . S
C2206 C2205 1.383 . S
C2206 C2207 1.377 . S
C2207 H2191 0.930 . S
C2207 C2206 1.377 . S
C2207 C2208 1.379 . S
C2208 H2192 0.931 . S
C2208 C2202 1.383 . S
C2208 C2207 1.379 . S
H2209 C2203 0.959 . S
H2210 C2203 0.961 . S
H2211 C2203 0.960 . S
H2212 C2204 0.930 . S
H2213 C2205 0.929 . S
H2214 C2222 0.929 . S
H2215 C2224 0.930 . S
H2216 C2226 0.930 . S
H2217 C2229 0.929 . S
H2218 C2232 0.930 . S
H2219 C2234 0.960 . S
H2220 C2234 0.960 . S
H2221 C2234 0.960 . S
C2222 H2214 0.929 . S
C2222 C2223 1.377 . S
C2222 C2224 1.384 . S
C2223 C2222 1.377 . S
C2223 C2229 1.390 . S
C2224 H2215 0.930 . S
C2224 C2222 1.384 . S
C2224 C2225 1.372 . S
C2225 C2224 1.372 . S
C2225 C2226 1.400 . S
C2225 C2230 1.490 . S
C2226 H2216 0.930 . S
C2226 C2225 1.400 . S
C2226 C2229 1.386 . S
H2227 C2243 0.930 . S
H2228 C2244 0.931 . S
C2229 H2217 0.929 . S
C2229 C2223 1.390 . S
C2229 C2226 1.386 . S
C2230 C2225 1.490 . S
C2230 C2232 1.395 . S
C2230 C2233 1.403 . S
H2231 C2237 0.930 . S
C2232 H2218 0.930 . S
C2232 C2230 1.395 . S
C2232 C2235 1.403 . S
C2233 C2230 1.403 . S
C2233 C2234 1.524 . S
C2233 C2237 1.400 . S
C2234 H2219 0.960 . S
C2234 H2220 0.960 . S
C2234 H2221 0.960 . S
C2234 C2233 1.524 . S
C2235 C2232 1.403 . S
C2235 C2236 1.392 . S
C2235 C2239 1.495 . S
C2236 C2235 1.392 . S
C2236 C2237 1.385 . S
C2236 C2238 1.478 . S
C2237 H2231 0.930 . S
C2237 C2233 1.400 . S
C2237 C2236 1.385 . S
C2238 C2236 1.478 . S
C2238 C2240 1.381 . S
C2238 C2244 1.383 . S
C2239 C2235 1.495 . S
C2239 H2245 0.959 . S
C2239 H2246 0.961 . S
C2239 H2247 0.960 . S
C2240 C2238 1.381 . S
C2240 C2241 1.394 . S
C2240 H2248 0.930 . S
C2241 C2240 1.394 . S
C2241 C2242 1.383 . S
C2241 H2249 0.929 . S
C2242 C2241 1.383 . S
C2242 C2243 1.377 . S
C2243 H2227 0.930 . S
C2243 C2242 1.377 . S
C2243 C2244 1.379 . S
C2244 H2228 0.931 . S
C2244 C2238 1.383 . S
C2244 C2243 1.379 . S
H2245 C2239 0.959 . S
H2246 C2239 0.961 . S
H2247 C2239 0.960 . S
H2248 C2240 0.930 . S
H2249 C2241 0.929 . S
H2250 C2258 0.929 . S
H2251 C2260 0.930 . S
H2252 C2262 0.930 . S
H2253 C2265 0.929 . S
H2254 C2268 0.930 . S
H2255 C2270 0.960 . S
H2256 C2270 0.960 . S
H2257 C2270 0.960 . S
C2258 H2250 0.929 . S
C2258 C2259 1.377 . S
C2258 C2260 1.384 . S
C2259 C2258 1.377 . S
C2259 C2265 1.390 . S
C2260 H2251 0.930 . S
C2260 C2258 1.384 . S
C2260 C2261 1.372 . S
C2261 C2260 1.372 . S
C2261 C2262 1.400 . S
C2261 C2266 1.490 . S
C2262 H2252 0.930 . S
C2262 C2261 1.400 . S
C2262 C2265 1.386 . S
H2263 C2279 0.930 . S
H2264 C2280 0.931 . S
C2265 H2253 0.929 . S
C2265 C2259 1.390 . S
C2265 C2262 1.386 . S
C2266 C2261 1.490 . S
C2266 C2268 1.395 . S
C2266 C2269 1.403 . S
H2267 C2273 0.930 . S
C2268 H2254 0.930 . S
C2268 C2266 1.395 . S
C2268 C2271 1.403 . S
C2269 C2266 1.403 . S
C2269 C2270 1.524 . S
C2269 C2273 1.400 . S
C2270 H2255 0.960 . S
C2270 H2256 0.960 . S
C2270 H2257 0.960 . S
C2270 C2269 1.524 . S
C2271 C2268 1.403 . S
C2271 C2272 1.392 . S
C2271 C2275 1.495 . S
C2272 C2271 1.392 . S
C2272 C2273 1.385 . S
C2272 C2274 1.478 . S
C2273 H2267 0.930 . S
C2273 C2269 1.400 . S
C2273 C2272 1.385 . S
C2274 C2272 1.478 . S
C2274 C2276 1.381 . S
C2274 C2280 1.383 . S
C2275 C2271 1.495 . S
C2275 H2281 0.959 . S
C2275 H2282 0.961 . S
C2275 H2283 0.960 . S
C2276 C2274 1.381 . S
C2276 C2277 1.394 . S
C2276 H2284 0.930 . S
C2277 C2276 1.394 . S
C2277 C2278 1.383 . S
C2277 H2285 0.929 . S
C2278 C2277 1.383 . S
C2278 C2279 1.377 . S
C2279 H2263 0.930 . S
C2279 C2278 1.377 . S
C2279 C2280 1.379 . S
C2280 H2264 0.931 . S
C2280 C2274 1.383 . S
C2280 C2279 1.379 . S
H2281 C2275 0.959 . S
H2282 C2275 0.961 . S
H2283 C2275 0.960 . S
H2284 C2276 0.930 . S
H2285 C2277 0.929 . S
H2286 C2294 0.929 . S
H2287 C2296 0.930 . S
H2288 C2298 0.930 . S
H2289 C2301 0.929 . S
H2290 C2304 0.930 . S
H2291 C2306 0.960 . S
H2292 C2306 0.960 . S
H2293 C2306 0.960 . S
C2294 H2286 0.929 . S
C2294 C2295 1.377 . S
C2294 C2296 1.384 . S
C2295 C2294 1.377 . S
C2295 C2301 1.390 . S
C2296 H2287 0.930 . S
C2296 C2294 1.384 . S
C2296 C2297 1.372 . S
C2297 C2296 1.372 . S
C2297 C2298 1.400 . S
C2297 C2302 1.490 . S
C2298 H2288 0.930 . S
C2298 C2297 1.400 . S
C2298 C2301 1.386 . S
H2299 C2315 0.930 . S
H2300 C2316 0.931 . S
C2301 H2289 0.929 . S
C2301 C2295 1.390 . S
C2301 C2298 1.386 . S
C2302 C2297 1.490 . S
C2302 C2304 1.395 . S
C2302 C2305 1.403 . S
H2303 C2309 0.930 . S
C2304 H2290 0.930 . S
C2304 C2302 1.395 . S
C2304 C2307 1.403 . S
C2305 C2302 1.403 . S
C2305 C2306 1.524 . S
C2305 C2309 1.400 . S
C2306 H2291 0.960 . S
C2306 H2292 0.960 . S
C2306 H2293 0.960 . S
C2306 C2305 1.524 . S
C2307 C2304 1.403 . S
C2307 C2308 1.392 . S
C2307 C2311 1.495 . S
C2308 C2307 1.392 . S
C2308 C2309 1.385 . S
C2308 C2310 1.478 . S
C2309 H2303 0.930 . S
C2309 C2305 1.400 . S
C2309 C2308 1.385 . S
C2310 C2308 1.478 . S
C2310 C2312 1.381 . S
C2310 C2316 1.383 . S
C2311 C2307 1.495 . S
C2311 H2317 0.959 . S
C2311 H2318 0.961 . S
C2311 H2319 0.960 . S
C2312 C2310 1.381 . S
C2312 C2313 1.394 . S
C2312 H2320 0.930 . S
C2313 C2312 1.394 . S
C2313 C2314 1.383 . S
C2313 H2321 0.929 . S
C2314 C2313 1.383 . S
C2314 C2315 1.377 . S
C2315 H2299 0.930 . S
C2315 C2314 1.377 . S
C2315 C2316 1.379 . S
C2316 H2300 0.931 . S
C2316 C2310 1.383 . S
C2316 C2315 1.379 . S
H2317 C2311 0.959 . S
H2318 C2311 0.961 . S
H2319 C2311 0.960 . S
H2320 C2312 0.930 . S
H2321 C2313 0.929 . S
H2322 C2330 0.929 . S
H2323 C2332 0.930 . S
H2324 C2334 0.930 . S
H2325 C2337 0.929 . S
H2326 C2340 0.930 . S
H2327 C2342 0.960 . S
H2328 C2342 0.960 . S
H2329 C2342 0.960 . S
C2330 H2322 0.929 . S
C2330 C2331 1.377 . S
C2330 C2332 1.384 . S
C2331 C2330 1.377 . S
C2331 C2337 1.390 . S
C2332 H2323 0.930 . S
C2332 C2330 1.384 . S
C2332 C2333 1.372 . S
C2333 C2332 1.372 . S
C2333 C2334 1.400 . S
C2333 C2338 1.490 . S
C2334 H2324 0.930 . S
C2334 C2333 1.400 . S
C2334 C2337 1.386 . S
H2335 C2351 0.930 . S
H2336 C2352 0.931 . S
C2337 H2325 0.929 . S
C2337 C2331 1.390 . S
C2337 C2334 1.386 . S
C2338 C2333 1.490 . S
C2338 C2340 1.395 . S
C2338 C2341 1.403 . S
H2339 C2345 0.930 . S
C2340 H2326 0.930 . S
C2340 C2338 1.395 . S
C2340 C2343 1.403 . S
C2341 C2338 1.403 . S
C2341 C2342 1.524 . S
C2341 C2345 1.400 . S
C2342 H2327 0.960 . S
C2342 H2328 0.960 . S
C2342 H2329 0.960 . S
C2342 C2341 1.524 . S
C2343 C2340 1.403 . S
C2343 C2344 1.392 . S
C2343 C2347 1.495 . S
C2344 C2343 1.392 . S
C2344 C2345 1.385 . S
C2344 C2346 1.478 . S
C2345 H2339 0.930 . S
C2345 C2341 1.400 . S
C2345 C2344 1.385 . S
C2346 C2344 1.478 . S
C2346 C2348 1.381 . S
C2346 C2352 1.383 . S
C2347 C2343 1.495 . S
C2347 H2353 0.959 . S
C2347 H2354 0.961 . S
C2347 H2355 0.960 . S
C2348 C2346 1.381 . S
C2348 C2349 1.394 . S
C2348 H2356 0.930 . S
C2349 C2348 1.394 . S
C2349 C2350 1.383 . S
C2349 H2357 0.929 . S
C2350 C2349 1.383 . S
C2350 C2351 1.377 . S
C2351 H2335 0.930 . S
C2351 C2350 1.377 . S
C2351 C2352 1.379 . S
C2352 H2336 0.931 . S
C2352 C2346 1.383 . S
C2352 C2351 1.379 . S
H2353 C2347 0.959 . S
H2354 C2347 0.961 . S
H2355 C2347 0.960 . S
H2356 C2348 0.930 . S
H2357 C2349 0.929 . S
H2358 C2366 0.929 . S
H2359 C2368 0.930 . S
H2360 C2370 0.930 . S
H2361 C2373 0.929 . S
H2362 C2376 0.930 . S
H2363 C2378 0.960 . S
H2364 C2378 0.960 . S
H2365 C2378 0.960 . S
C2366 H2358 0.929 . S
C2366 C2367 1.377 . S
C2366 C2368 1.384 . S
C2367 C2366 1.377 . S
C2367 C2373 1.390 . S
C2368 H2359 0.930 . S
C2368 C2366 1.384 . S
C2368 C2369 1.372 . S
C2369 C2368 1.372 . S
C2369 C2370 1.400 . S
C2369 C2374 1.490 . S
C2370 H2360 0.930 . S
C2370 C2369 1.400 . S
C2370 C2373 1.386 . S
H2371 C2387 0.930 . S
H2372 C2388 0.931 . S
C2373 H2361 0.929 . S
C2373 C2367 1.390 . S
C2373 C2370 1.386 . S
C2374 C2369 1.490 . S
C2374 C2376 1.395 . S
C2374 C2377 1.403 . S
H2375 C2381 0.930 . S
C2376 H2362 0.930 . S
C2376 C2374 1.395 . S
C2376 C2379 1.403 . S
C2377 C2374 1.403 . S
C2377 C2378 1.524 . S
C2377 C2381 1.400 . S
C2378 H2363 0.960 . S
C2378 H2364 0.960 . S
C2378 H2365 0.960 . S
C2378 C2377 1.524 . S
C2379 C2376 1.403 . S
C2379 C2380 1.392 . S
C2379 C2383 1.495 . S
C2380 C2379 1.392 . S
C2380 C2381 1.385 . S
C2380 C2382 1.478 . S
C2381 H2375 0.930 . S
C2381 C2377 1.400 . S
C2381 C2380 1.385 . S
C2382 C2380 1.478 . S
C2382 C2384 1.381 . S
C2382 C2388 1.383 . S
C2383 C2379 1.495 . S
C2383 H2389 0.959 . S
C2383 H2390 0.961 . S
C2383 H2391 0.960 . S
C2384 C2382 1.381 . S
C2384 C2385 1.394 . S
C2384 H2392 0.930 . S
C2385 C2384 1.394 . S
C2385 C2386 1.383 . S
C2385 H2393 0.929 . S
C2386 C2385 1.383 . S
C2386 C2387 1.377 . S
C2387 H2371 0.930 . S
C2387 C2386 1.377 . S
C2387 C2388 1.379 . S
C2388 H2372 0.931 . S
C2388 C2382 1.383 . S
C2388 C2387 1.379 . S
H2389 C2383 0.959 . S
H2390 C2383 0.961 . S
H2391 C2383 0.960 . S
H2392 C2384 0.930 . S
H2393 C2385 0.929 . S
H2394 C2402 0.929 . S
H2395 C2404 0.930 . S
H2396 C2406 0.930 . S
H2397 C2409 0.929 . S
H2398 C2412 0.930 . S
H2399 C2414 0.960 . S
H2400 C2414 0.960 . S
H2401 C2414 0.960 . S
C2402 H2394 0.929 . S
C2402 C2403 1.377 . S
C2402 C2404 1.384 . S
C2403 C2402 1.377 . S
C2403 C2409 1.390 . S
C2404 H2395 0.930 . S
C2404 C2402 1.384 . S
C2404 C2405 1.372 . S
C2405 C2404 1.372 . S
C2405 C2406 1.400 . S
C2405 C2410 1.490 . S
C2406 H2396 0.930 . S
C2406 C2405 1.400 . S
C2406 C2409 1.386 . S
H2407 C2423 0.930 . S
H2408 C2424 0.931 . S
C2409 H2397 0.929 . S
C2409 C2403 1.390 . S
C2409 C2406 1.386 . S
C2410 C2405 1.490 . S
C2410 C2412 1.395 . S
C2410 C2413 1.403 . S
H2411 C2417 0.930 . S
C2412 H2398 0.930 . S
C2412 C2410 1.395 . S
C2412 C2415 1.403 . S
C2413 C2410 1.403 . S
C2413 C2414 1.524 . S
C2413 C2417 1.400 . S
C2414 H2399 0.960 . S
C2414 H2400 0.960 . S
C2414 H2401 0.960 . S
C2414 C2413 1.524 . S
C2415 C2412 1.403 . S
C2415 C2416 1.392 . S
C2415 C2419 1.495 . S
C2416 C2415 1.392 . S
C2416 C2417 1.385 . S
C2416 C2418 1.478 . S
C2417 H2411 0.930 . S
C2417 C2413 1.400 . S
C2417 C2416 1.385 . S
C2418 C2416 1.478 . S
C2418 C2420 1.381 . S
C2418 C2424 1.383 . S
C2419 C2415 1.495 . S
C2419 H2425 0.959 . S
C2419 H2426 0.961 . S
C2419 H2427 0.960 . S
C2420 C2418 1.381 . S
C2420 C2421 1.394 . S
C2420 H2428 0.930 . S
C2421 C2420 1.394 . S
C2421 C2422 1.383 . S
C2421 H2429 0.929 . S
C2422 C2421 1.383 . S
C2422 C2423 1.377 . S
C2423 H2407 0.930 . S
C2423 C2422 1.377 . S
C2423 C2424 1.379 . S
C2424 H2408 0.931 . S
C2424 C2418 1.383 . S
C2424 C2423 1.379 . S
H2425 C2419 0.959 . S
H2426 C2419 0.961 . S
H2427 C2419 0.960 . S
H2428 C2420 0.930 . S
H2429 C2421 0.929 . S
H2430 C2438 0.929 . S
H2431 C2440 0.930 . S
H2432 C2442 0.930 . S
H2433 C2445 0.929 . S
H2434 C2448 0.930 . S
H2435 C2450 0.960 . S
H2436 C2450 0.960 . S
H2437 C2450 0.960 . S
C2438 H2430 0.929 . S
C2438 C2439 1.377 . S
C2438 C2440 1.384 . S
C2439 C2438 1.377 . S
C2439 C2445 1.390 . S
C2440 H2431 0.930 . S
C2440 C2438 1.384 . S
C2440 C2441 1.372 . S
C2441 C2440 1.372 . S
C2441 C2442 1.400 . S
C2441 C2446 1.490 . S
C2442 H2432 0.930 . S
C2442 C2441 1.400 . S
C2442 C2445 1.386 . S
H2443 C2459 0.930 . S
H2444 C2460 0.931 . S
C2445 H2433 0.929 . S
C2445 C2439 1.390 . S
C2445 C2442 1.386 . S
C2446 C2441 1.490 . S
C2446 C2448 1.395 . S
C2446 C2449 1.403 . S
H2447 C2453 0.930 . S
C2448 H2434 0.930 . S
C2448 C2446 1.395 . S
C2448 C2451 1.403 . S
C2449 C2446 1.403 . S
C2449 C2450 1.524 . S
C2449 C2453 1.400 . S
C2450 H2435 0.960 . S
C2450 H2436 0.960 . S
C2450 H2437 0.960 . S
C2450 C2449 1.524 . S
C2451 C2448 1.403 . S
C2451 C2452 1.392 . S
C2451 C2455 1.495 . S
C2452 C2451 1.392 . S
C2452 C2453 1.385 . S
C2452 C2454 1.478 . S
C2453 H2447 0.930 . S
C2453 C2449 1.400 . S
C2453 C2452 1.385 . S
C2454 C2452 1.478 . S
C2454 C2456 1.381 . S
C2454 C2460 1.383 . S
C2455 C2451 1.495 . S
C2455 H2461 0.959 . S
C2455 H2462 0.961 . S
C2455 H2463 0.960 . S
C2456 C2454 1.381 . S
C2456 C2457 1.394 . S
C2456 H2464 0.930 . S
C2457 C2456 1.394 . S
C2457 C2458 1.383 . S
C2457 H2465 0.929 . S
C2458 C2457 1.383 . S
C2458 C2459 1.377 . S
C2459 H2443 0.930 . S
C2459 C2458 1.377 . S
C2459 C2460 1.379 . S
C2460 H2444 0.931 . S
C2460 C2454 1.383 . S
C2460 C2459 1.379 . S
H2461 C2455 0.959 . S
H2462 C2455 0.961 . S
H2463 C2455 0.960 . S
H2464 C2456 0.930 . S
H2465 C2457 0.929 . S
H2466 C2474 0.929 . S
H2467 C2476 0.930 . S
H2468 C2478 0.930 . S
H2469 C2481 0.929 . S
H2470 C2484 0.930 . S
H2471 C2486 0.960 . S
H2472 C2486 0.960 . S
H2473 C2486 0.960 . S
C2474 H2466 0.929 . S
C2474 C2475 1.377 . S
C2474 C2476 1.384 . S
C2475 C2474 1.377 . S
C2475 C2481 1.390 . S
C2476 H2467 0.930 . S
C2476 C2474 1.384 . S
C2476 C2477 1.372 . S
C2477 C2476 1.372 . S
C2477 C2478 1.400 . S
C2477 C2482 1.490 . S
C2478 H2468 0.930 . S
C2478 C2477 1.400 . S
C2478 C2481 1.386 . S
H2479 C2495 0.930 . S
H2480 C2496 0.931 . S
C2481 H2469 0.929 . S
C2481 C2475 1.390 . S
C2481 C2478 1.386 . S
C2482 C2477 1.490 . S
C2482 C2484 1.395 . S
C2482 C2485 1.403 . S
H2483 C2489 0.930 . S
C2484 H2470 0.930 . S
C2484 C2482 1.395 . S
C2484 C2487 1.403 . S
C2485 C2482 1.403 . S
C2485 C2486 1.524 . S
C2485 C2489 1.400 . S
C2486 H2471 0.960 . S
C2486 H2472 0.960 . S
C2486 H2473 0.960 . S
C2486 C2485 1.524 . S
C2487 C2484 1.403 . S
C2487 C2488 1.392 . S
C2487 C2491 1.495 . S
C2488 C2487 1.392 . S
C2488 C2489 1.385 . S
C2488 C2490 1.478 . S
C2489 H2483 0.930 . S
C2489 C2485 1.400 . S
C2489 C2488 1.385 . S
C2490 C2488 1.478 . S
C2490 C2492 1.381 . S
C2490 C2496 1.383 . S
C2491 C2487 1.495 . S
C2491 H2497 0.959 . S
C2491 H2498 0.961 . S
C2491 H2499 0.960 . S
C2492 C2490 1.381 . S
C2492 C2493 1.394 . S
C2492 H2500 0.930 . S
C2493 C2492 1.394 . S
C2493 C2494 1.383 . S
C2493 H2501 0.929 . S
C2494 C2493 1.383 . S
C2494 C2495 1.377 . S
C2495 H2479 0.930 . S
C2495 C2494 1.377 . S
C2495 C2496 1.379 . S
C2496 H2480 0.931 . S
C2496 C2490 1.383 . S
C2496 C2495 1.379 . S
H2497 C2491 0.959 . S
H2498 C2491 0.961 . S
H2499 C2491 0.960 . S
H2500 C2492 0.930 . S
H2501 C2493 0.929 . S
H2502 C2510 0.929 . S
H2503 C2512 0.930 . S
H2504 C2514 0.930 . S
H2505 C2517 0.929 . S
H2506 C2520 0.930 . S
H2507 C2522 0.960 . S
H2508 C2522 0.960 . S
H2509 C2522 0.960 . S
C2510 H2502 0.929 . S
C2510 C2511 1.377 . S
C2510 C2512 1.384 . S
C2511 C2510 1.377 . S
C2511 C2517 1.390 . S
C2512 H2503 0.930 . S
C2512 C2510 1.384 . S
C2512 C2513 1.372 . S
C2513 C2512 1.372 . S
C2513 C2514 1.400 . S
C2513 C2518 1.490 . S
C2514 H2504 0.930 . S
C2514 C2513 1.400 . S
C2514 C2517 1.386 . S
H2515 C2531 0.930 . S
H2516 C2532 0.931 . S
C2517 H2505 0.929 . S
C2517 C2511 1.390 . S
C2517 C2514 1.386 . S
C2518 C2513 1.490 . S
C2518 C2520 1.395 . S
C2518 C2521 1.403 . S
H2519 C2525 0.930 . S
C2520 H2506 0.930 . S
C2520 C2518 1.395 . S
C2520 C2523 1.403 . S
C2521 C2518 1.403 . S
C2521 C2522 1.524 . S
C2521 C2525 1.400 . S
C2522 H2507 0.960 . S
C2522 H2508 0.960 . S
C2522 H2509 0.960 . S
C2522 C2521 1.524 . S
C2523 C2520 1.403 . S
C2523 C2524 1.392 . S
C2523 C2527 1.495 . S
C2524 C2523 1.392 . S
C2524 C2525 1.385 . S
C2524 C2526 1.478 . S
C2525 H2519 0.930 . S
C2525 C2521 1.400 . S
C2525 C2524 1.385 . S
C2526 C2524 1.478 . S
C2526 C2528 1.381 . S
C2526 C2532 1.383 . S
C2527 C2523 1.495 . S
C2527 H2533 0.959 . S
C2527 H2534 0.961 . S
C2527 H2535 0.960 . S
C2528 C2526 1.381 . S
C2528 C2529 1.394 . S
C2528 H2536 0.930 . S
C2529 C2528 1.394 . S
C2529 C2530 1.383 . S
C2529 H2537 0.929 . S
C2530 C2529 1.383 . S
C2530 C2531 1.377 . S
C2531 H2515 0.930 . S
C2531 C2530 1.377 . S
C2531 C2532 1.379 . S
C2532 H2516 0.931 . S
C2532 C2526 1.383 . S
C2532 C2531 1.379 . S
H2533 C2527 0.959 . S
H2534 C2527 0.961 . S
H2535 C2527 0.960 . S
H2536 C2528 0.930 . S
H2537 C2529 0.929 . S
H2538 C2546 0.929 . S
H2539 C2548 0.930 . S
H2540 C2550 0.930 . S
H2541 C2553 0.929 . S
H2542 C2556 0.930 . S
H2543 C2558 0.960 . S
H2544 C2558 0.960 . S
H2545 C2558 0.960 . S
C2546 H2538 0.929 . S
C2546 C2547 1.377 . S
C2546 C2548 1.384 . S
C2547 C2546 1.377 . S
C2547 C2553 1.390 . S
C2548 H2539 0.930 . S
C2548 C2546 1.384 . S
C2548 C2549 1.372 . S
C2549 C2548 1.372 . S
C2549 C2550 1.400 . S
C2549 C2554 1.490 . S
C2550 H2540 0.930 . S
C2550 C2549 1.400 . S
C2550 C2553 1.386 . S
H2551 C2567 0.930 . S
H2552 C2568 0.931 . S
C2553 H2541 0.929 . S
C2553 C2547 1.390 . S
C2553 C2550 1.386 . S
C2554 C2549 1.490 . S
C2554 C2556 1.395 . S
C2554 C2557 1.403 . S
H2555 C2561 0.930 . S
C2556 H2542 0.930 . S
C2556 C2554 1.395 . S
C2556 C2559 1.403 . S
C2557 C2554 1.403 . S
C2557 C2558 1.524 . S
C2557 C2561 1.400 . S
C2558 H2543 0.960 . S
C2558 H2544 0.960 . S
C2558 H2545 0.960 . S
C2558 C2557 1.524 . S
C2559 C2556 1.403 . S
C2559 C2560 1.392 . S
C2559 C2563 1.495 . S
C2560 C2559 1.392 . S
C2560 C2561 1.385 . S
C2560 C2562 1.478 . S
C2561 H2555 0.930 . S
C2561 C2557 1.400 . S
C2561 C2560 1.385 . S
C2562 C2560 1.478 . S
C2562 C2564 1.381 . S
C2562 C2568 1.383 . S
C2563 C2559 1.495 . S
C2563 H2569 0.959 . S
C2563 H2570 0.961 . S
C2563 H2571 0.960 . S
C2564 C2562 1.381 . S
C2564 C2565 1.394 . S
C2564 H2572 0.930 . S
C2565 C2564 1.394 . S
C2565 C2566 1.383 . S
C2565 H2573 0.929 . S
C2566 C2565 1.383 . S
C2566 C2567 1.377 . S
C2567 H2551 0.930 . S
C2567 C2566 1.377 . S
C2567 C2568 1.379 . S
C2568 H2552 0.931 . S
C2568 C2562 1.383 . S
C2568 C2567 1.379 . S
H2569 C2563 0.959 . S
H2570 C2563 0.961 . S
H2571 C2563 0.960 . S
H2572 C2564 0.930 . S
H2573 C2565 0.929 . S
H2574 C2582 0.929 . S
H2575 C2584 0.930 . S
H2576 C2586 0.930 . S
H2577 C2589 0.929 . S
H2578 C2592 0.930 . S
H2579 C2594 0.960 . S
H2580 C2594 0.960 . S
H2581 C2594 0.960 . S
C2582 H2574 0.929 . S
C2582 C2583 1.377 . S
C2582 C2584 1.384 . S
C2583 C2582 1.377 . S
C2583 C2589 1.390 . S
C2584 H2575 0.930 . S
C2584 C2582 1.384 . S
C2584 C2585 1.372 . S
C2585 C2584 1.372 . S
C2585 C2586 1.400 . S
C2585 C2590 1.490 . S
C2586 H2576 0.930 . S
C2586 C2585 1.400 . S
C2586 C2589 1.386 . S
H2587 C2603 0.930 . S
H2588 C2604 0.931 . S
C2589 H2577 0.929 . S
C2589 C2583 1.390 . S
C2589 C2586 1.386 . S
C2590 C2585 1.490 . S
C2590 C2592 1.395 . S
C2590 C2593 1.403 . S
H2591 C2597 0.930 . S
C2592 H2578 0.930 . S
C2592 C2590 1.395 . S
C2592 C2595 1.403 . S
C2593 C2590 1.403 . S
C2593 C2594 1.524 . S
C2593 C2597 1.400 . S
C2594 H2579 0.960 . S
C2594 H2580 0.960 . S
C2594 H2581 0.960 . S
C2594 C2593 1.524 . S
C2595 C2592 1.403 . S
C2595 C2596 1.392 . S
C2595 C2599 1.495 . S
C2596 C2595 1.392 . S
C2596 C2597 1.385 . S
C2596 C2598 1.478 . S
C2597 H2591 0.930 . S
C2597 C2593 1.400 . S
C2597 C2596 1.385 . S
C2598 C2596 1.478 . S
C2598 C2600 1.381 . S
C2598 C2604 1.383 . S
C2599 C2595 1.495 . S
C2599 H2605 0.959 . S
C2599 H2606 0.961 . S
C2599 H2607 0.960 . S
C2600 C2598 1.381 . S
C2600 C2601 1.394 . S
C2600 H2608 0.930 . S
C2601 C2600 1.394 . S
C2601 C2602 1.383 . S
C2601 H2609 0.929 . S
C2602 C2601 1.383 . S
C2602 C2603 1.377 . S
C2603 H2587 0.930 . S
C2603 C2602 1.377 . S
C2603 C2604 1.379 . S
C2604 H2588 0.931 . S
C2604 C2598 1.383 . S
C2604 C2603 1.379 . S
H2605 C2599 0.959 . S
H2606 C2599 0.961 . S
H2607 C2599 0.960 . S
H2608 C2600 0.930 . S
H2609 C2601 0.929 . S
H2610 C2618 0.929 . S
H2611 C2620 0.930 . S
H2612 C2622 0.930 . S
H2613 C2625 0.929 . S
H2614 C2628 0.930 . S
H2615 C2630 0.960 . S
H2616 C2630 0.960 . S
H2617 C2630 0.960 . S
C2618 H2610 0.929 . S
C2618 C2619 1.377 . S
C2618 C2620 1.384 . S
C2619 C2618 1.377 . S
C2619 C2625 1.390 . S
C2620 H2611 0.930 . S
C2620 C2618 1.384 . S
C2620 C2621 1.372 . S
C2621 C2620 1.372 . S
C2621 C2622 1.400 . S
C2621 C2626 1.490 . S
C2622 H2612 0.930 . S
C2622 C2621 1.400 . S
C2622 C2625 1.386 . S
H2623 C2639 0.930 . S
H2624 C2640 0.931 . S
C2625 H2613 0.929 . S
C2625 C2619 1.390 . S
C2625 C2622 1.386 . S
C2626 C2621 1.490 . S
C2626 C2628 1.395 . S
C2626 C2629 1.403 . S
H2627 C2633 0.930 . S
C2628 H2614 0.930 . S
C2628 C2626 1.395 . S
C2628 C2631 1.403 . S
C2629 C2626 1.403 . S
C2629 C2630 1.524 . S
C2629 C2633 1.400 . S
C2630 H2615 0.960 . S
C2630 H2616 0.960 . S
C2630 H2617 0.960 . S
C2630 C2629 1.524 . S
C2631 C2628 1.403 . S
C2631 C2632 1.392 . S
C2631 C2635 1.495 . S
C2632 C2631 1.392 . S
C2632 C2633 1.385 . S
C2632 C2634 1.478 . S
C2633 H2627 0.930 . S
C2633 C2629 1.400 . S
C2633 C2632 1.385 . S
C2634 C2632 1.478 . S
C2634 C2636 1.381 . S
C2634 C2640 1.383 . S
C2635 C2631 1.495 . S
C2635 H2641 0.959 . S
C2635 H2642 0.961 . S
C2635 H2643 0.960 . S
C2636 C2634 1.381 . S
C2636 C2637 1.394 . S
C2636 H2644 0.930 . S
C2637 C2636 1.394 . S
C2637 C2638 1.383 . S
C2637 H2645 0.929 . S
C2638 C2637 1.383 . S
C2638 C2639 1.377 . S
C2639 H2623 0.930 . S
C2639 C2638 1.377 . S
C2639 C2640 1.379 . S
C2640 H2624 0.931 . S
C2640 C2634 1.383 . S
C2640 C2639 1.379 . S
H2641 C2635 0.959 . S
H2642 C2635 0.961 . S
H2643 C2635 0.960 . S
H2644 C2636 0.930 . S
H2645 C2637 0.929 . S
H2646 C2654 0.929 . S
H2647 C2656 0.930 . S
H2648 C2658 0.930 . S
H2649 C2661 0.929 . S
H2650 C2664 0.930 . S
H2651 C2666 0.960 . S
H2652 C2666 0.960 . S
H2653 C2666 0.960 . S
C2654 H2646 0.929 . S
C2654 C2655 1.377 . S
C2654 C2656 1.384 . S
C2655 C2654 1.377 . S
C2655 C2661 1.390 . S
C2656 H2647 0.930 . S
C2656 C2654 1.384 . S
C2656 C2657 1.372 . S
C2657 C2656 1.372 . S
C2657 C2658 1.400 . S
C2657 C2662 1.490 . S
C2658 H2648 0.930 . S
C2658 C2657 1.400 . S
C2658 C2661 1.386 . S
H2659 C2675 0.930 . S
H2660 C2676 0.931 . S
C2661 H2649 0.929 . S
C2661 C2655 1.390 . S
C2661 C2658 1.386 . S
C2662 C2657 1.490 . S
C2662 C2664 1.395 . S
C2662 C2665 1.403 . S
H2663 C2669 0.930 . S
C2664 H2650 0.930 . S
C2664 C2662 1.395 . S
C2664 C2667 1.403 . S
C2665 C2662 1.403 . S
C2665 C2666 1.524 . S
C2665 C2669 1.400 . S
C2666 H2651 0.960 . S
C2666 H2652 0.960 . S
C2666 H2653 0.960 . S
C2666 C2665 1.524 . S
C2667 C2664 1.403 . S
C2667 C2668 1.392 . S
C2667 C2671 1.495 . S
C2668 C2667 1.392 . S
C2668 C2669 1.385 . S
C2668 C2670 1.478 . S
C2669 H2663 0.930 . S
C2669 C2665 1.400 . S
C2669 C2668 1.385 . S
C2670 C2668 1.478 . S
C2670 C2672 1.381 . S
C2670 C2676 1.383 . S
C2671 C2667 1.495 . S
C2671 H2677 0.959 . S
C2671 H2678 0.961 . S
C2671 H2679 0.960 . S
C2672 C2670 1.381 . S
C2672 C2673 1.394 . S
C2672 H2680 0.930 . S
C2673 C2672 1.394 . S
C2673 C2674 1.383 . S
C2673 H2681 0.929 . S
C2674 C2673 1.383 . S
C2674 C2675 1.377 . S
C2675 H2659 0.930 . S
C2675 C2674 1.377 . S
C2675 C2676 1.379 . S
C2676 H2660 0.931 . S
C2676 C2670 1.383 . S
C2676 C2675 1.379 . S
H2677 C2671 0.959 . S
H2678 C2671 0.961 . S
H2679 C2671 0.960 . S
H2680 C2672 0.930 . S
H2681 C2673 0.929 . S
H2682 C2690 0.929 . S
H2683 C2692 0.930 . S
H2684 C2694 0.930 . S
H2685 C2697 0.929 . S
H2686 C2700 0.930 . S
H2687 C2702 0.960 . S
H2688 C2702 0.960 . S
H2689 C2702 0.960 . S
C2690 H2682 0.929 . S
C2690 C2691 1.377 . S
C2690 C2692 1.384 . S
C2691 C2690 1.377 . S
C2691 C2697 1.390 . S
C2692 H2683 0.930 . S
C2692 C2690 1.384 . S
C2692 C2693 1.372 . S
C2693 C2692 1.372 . S
C2693 C2694 1.400 . S
C2693 C2698 1.490 . S
C2694 H2684 0.930 . S
C2694 C2693 1.400 . S
C2694 C2697 1.386 . S
H2695 C2711 0.930 . S
H2696 C2712 0.931 . S
C2697 H2685 0.929 . S
C2697 C2691 1.390 . S
C2697 C2694 1.386 . S
C2698 C2693 1.490 . S
C2698 C2700 1.395 . S
C2698 C2701 1.403 . S
H2699 C2705 0.930 . S
C2700 H2686 0.930 . S
C2700 C2698 1.395 . S
C2700 C2703 1.403 . S
C2701 C2698 1.403 . S
C2701 C2702 1.524 . S
C2701 C2705 1.400 . S
C2702 H2687 0.960 . S
C2702 H2688 0.960 . S
C2702 H2689 0.960 . S
C2702 C2701 1.524 . S
C2703 C2700 1.403 . S
C2703 C2704 1.392 . S
C2703 C2707 1.495 . S
C2704 C2703 1.392 . S
C2704 C2705 1.385 . S
C2704 C2706 1.478 . S
C2705 H2699 0.930 . S
C2705 C2701 1.400 . S
C2705 C2704 1.385 . S
C2706 C2704 1.478 . S
C2706 C2708 1.381 . S
C2706 C2712 1.383 . S
C2707 C2703 1.495 . S
C2707 H2713 0.959 . S
C2707 H2714 0.961 . S
C2707 H2715 0.960 . S
C2708 C2706 1.381 . S
C2708 C2709 1.394 . S
C2708 H2716 0.930 . S
C2709 C2708 1.394 . S
C2709 C2710 1.383 . S
C2709 H2717 0.929 . S
C2710 C2709 1.383 . S
C2710 C2711 1.377 . S
C2711 H2695 0.930 . S
C2711 C2710 1.377 . S
C2711 C2712 1.379 . S
C2712 H2696 0.931 . S
C2712 C2706 1.383 . S
C2712 C2711 1.379 . S
H2713 C2707 0.959 . S
H2714 C2707 0.961 . S
H2715 C2707 0.960 . S
H2716 C2708 0.930 . S
H2717 C2709 0.929 . S
H2718 C2726 0.929 . S
H2719 C2728 0.930 . S
H2720 C2730 0.930 . S
H2721 C2733 0.929 . S
H2722 C2736 0.930 . S
H2723 C2738 0.960 . S
H2724 C2738 0.960 . S
H2725 C2738 0.960 . S
C2726 H2718 0.929 . S
C2726 C2727 1.377 . S
C2726 C2728 1.384 . S
C2727 C2726 1.377 . S
C2727 C2733 1.390 . S
C2728 H2719 0.930 . S
C2728 C2726 1.384 . S
C2728 C2729 1.372 . S
C2729 C2728 1.372 . S
C2729 C2730 1.400 . S
C2729 C2734 1.490 . S
C2730 H2720 0.930 . S
C2730 C2729 1.400 . S
C2730 C2733 1.386 . S
H2731 C2747 0.930 . S
H2732 C2748 0.931 . S
C2733 H2721 0.929 . S
C2733 C2727 1.390 . S
C2733 C2730 1.386 . S
C2734 C2729 1.490 . S
C2734 C2736 1.395 . S
C2734 C2737 1.403 . S
H2735 C2741 0.930 . S
C2736 H2722 0.930 . S
C2736 C2734 1.395 . S
C2736 C2739 1.403 . S
C2737 C2734 1.403 . S
C2737 C2738 1.524 . S
C2737 C2741 1.400 . S
C2738 H2723 0.960 . S
C2738 H2724 0.960 . S
C2738 H2725 0.960 . S
C2738 C2737 1.524 . S
C2739 C2736 1.403 . S
C2739 C2740 1.392 . S
C2739 C2743 1.495 . S
C2740 C2739 1.392 . S
C2740 C2741 1.385 . S
C2740 C2742 1.478 . S
C2741 H2735 0.930 . S
C2741 C2737 1.400 . S
C2741 C2740 1.385 . S
C2742 C2740 1.478 . S
C2742 C2744 1.381 . S
C2742 C2748 1.383 . S
C2743 C2739 1.495 . S
C2743 H2749 0.959 . S
C2743 H2750 0.961 . S
C2743 H2751 0.960 . S
C2744 C2742 1.381 . S
C2744 C2745 1.394 . S
C2744 H2752 0.930 . S
C2745 C2744 1.394 . S
C2745 C2746 1.383 . S
C2745 H2753 0.929 . S
C2746 C2745 1.383 . S
C2746 C2747 1.377 . S
C2747 H2731 0.930 . S
C2747 C2746 1.377 . S
C2747 C2748 1.379 . S
C2748 H2732 0.931 . S
C2748 C2742 1.383 . S
C2748 C2747 1.379 . S
H2749 C2743 0.959 . S
H2750 C2743 0.961 . S
H2751 C2743 0.960 . S
H2752 C2744 0.930 . S
H2753 C2745 0.929 . S
H2754 C2762 0.929 . S
H2755 C2764 0.930 . S
H2756 C2766 0.930 . S
H2757 C2769 0.929 . S
H2758 C2772 0.930 . S
H2759 C2774 0.960 . S
H2760 C2774 0.960 . S
H2761 C2774 0.960 . S
C2762 H2754 0.929 . S
C2762 C2763 1.377 . S
C2762 C2764 1.384 . S
C2763 C2762 1.377 . S
C2763 C2769 1.390 . S
C2764 H2755 0.930 . S
C2764 C2762 1.384 . S
C2764 C2765 1.372 . S
C2765 C2764 1.372 . S
C2765 C2766 1.400 . S
C2765 C2770 1.490 . S
C2766 H2756 0.930 . S
C2766 C2765 1.400 . S
C2766 C2769 1.386 . S
H2767 C2783 0.930 . S
H2768 C2784 0.931 . S
C2769 H2757 0.929 . S
C2769 C2763 1.390 . S
C2769 C2766 1.386 . S
C2770 C2765 1.490 . S
C2770 C2772 1.395 . S
C2770 C2773 1.403 . S
H2771 C2777 0.930 . S
C2772 H2758 0.930 . S
C2772 C2770 1.395 . S
C2772 C2775 1.403 . S
C2773 C2770 1.403 . S
C2773 C2774 1.524 . S
C2773 C2777 1.400 . S
C2774 H2759 0.960 . S
C2774 H2760 0.960 . S
C2774 H2761 0.960 . S
C2774 C2773 1.524 . S
C2775 C2772 1.403 . S
C2775 C2776 1.392 . S
C2775 C2779 1.495 . S
C2776 C2775 1.392 . S
C2776 C2777 1.385 . S
C2776 C2778 1.478 . S
C2777 H2771 0.930 . S
C2777 C2773 1.400 . S
C2777 C2776 1.385 . S
C2778 C2776 1.478 . S
C2778 C2780 1.381 . S
C2778 C2784 1.383 . S
C2779 C2775 1.495 . S
C2779 H2785 0.959 . S
C2779 H2786 0.961 . S
C2779 H2787 0.960 . S
C2780 C2778 1.381 . S
C2780 C2781 1.394 . S
C2780 H2788 0.930 . S
C2781 C2780 1.394 . S
C2781 C2782 1.383 . S
C2781 H2789 0.929 . S
C2782 C2781 1.383 . S
C2782 C2783 1.377 . S
C2783 H2767 0.930 . S
C2783 C2782 1.377 . S
C2783 C2784 1.379 . S
C2784 H2768 0.931 . S
C2784 C2778 1.383 . S
C2784 C2783 1.379 . S
H2785 C2779 0.959 . S
H2786 C2779 0.961 . S
H2787 C2779 0.960 . S
H2788 C2780 0.930 . S
H2789 C2781 0.929 . S
H2790 C2798 0.929 . S
H2791 C2800 0.930 . S
H2792 C2802 0.930 . S
H2793 C2805 0.929 . S
H2794 C2808 0.930 . S
H2795 C2810 0.960 . S
H2796 C2810 0.960 . S
H2797 C2810 0.960 . S
C2798 H2790 0.929 . S
C2798 C2799 1.377 . S
C2798 C2800 1.384 . S
C2799 C2798 1.377 . S
C2799 C2805 1.390 . S
C2800 H2791 0.930 . S
C2800 C2798 1.384 . S
C2800 C2801 1.372 . S
C2801 C2800 1.372 . S
C2801 C2802 1.400 . S
C2801 C2806 1.490 . S
C2802 H2792 0.930 . S
C2802 C2801 1.400 . S
C2802 C2805 1.386 . S
H2803 C2819 0.930 . S
H2804 C2820 0.931 . S
C2805 H2793 0.929 . S
C2805 C2799 1.390 . S
C2805 C2802 1.386 . S
C2806 C2801 1.490 . S
C2806 C2808 1.395 . S
C2806 C2809 1.403 . S
H2807 C2813 0.930 . S
C2808 H2794 0.930 . S
C2808 C2806 1.395 . S
C2808 C2811 1.403 . S
C2809 C2806 1.403 . S
C2809 C2810 1.524 . S
C2809 C2813 1.400 . S
C2810 H2795 0.960 . S
C2810 H2796 0.960 . S
C2810 H2797 0.960 . S
C2810 C2809 1.524 . S
C2811 C2808 1.403 . S
C2811 C2812 1.392 . S
C2811 C2815 1.495 . S
C2812 C2811 1.392 . S
C2812 C2813 1.385 . S
C2812 C2814 1.478 . S
C2813 H2807 0.930 . S
C2813 C2809 1.400 . S
C2813 C2812 1.385 . S
C2814 C2812 1.478 . S
C2814 C2816 1.381 . S
C2814 C2820 1.383 . S
C2815 C2811 1.495 . S
C2815 H2821 0.959 . S
C2815 H2822 0.961 . S
C2815 H2823 0.960 . S
C2816 C2814 1.381 . S
C2816 C2817 1.394 . S
C2816 H2824 0.930 . S
C2817 C2816 1.394 . S
C2817 C2818 1.383 . S
C2817 H2825 0.929 . S
C2818 C2817 1.383 . S
C2818 C2819 1.377 . S
C2819 H2803 0.930 . S
C2819 C2818 1.377 . S
C2819 C2820 1.379 . S
C2820 H2804 0.931 . S
C2820 C2814 1.383 . S
C2820 C2819 1.379 . S
H2821 C2815 0.959 . S
H2822 C2815 0.961 . S
H2823 C2815 0.960 . S
H2824 C2816 0.930 . S
H2825 C2817 0.929 . S
H2826 C2834 0.929 . S
H2827 C2836 0.930 . S
H2828 C2838 0.930 . S
H2829 C2841 0.929 . S
H2830 C2844 0.930 . S
H2831 C2846 0.960 . S
H2832 C2846 0.960 . S
H2833 C2846 0.960 . S
C2834 H2826 0.929 . S
C2834 C2835 1.377 . S
C2834 C2836 1.384 . S
C2835 C2834 1.377 . S
C2835 C2841 1.390 . S
C2836 H2827 0.930 . S
C2836 C2834 1.384 . S
C2836 C2837 1.372 . S
C2837 C2836 1.372 . S
C2837 C2838 1.400 . S
C2837 C2842 1.490 . S
C2838 H2828 0.930 . S
C2838 C2837 1.400 . S
C2838 C2841 1.386 . S
H2839 C2855 0.930 . S
H2840 C2856 0.931 . S
C2841 H2829 0.929 . S
C2841 C2835 1.390 . S
C2841 C2838 1.386 . S
C2842 C2837 1.490 . S
C2842 C2844 1.395 . S
C2842 C2845 1.403 . S
H2843 C2849 0.930 . S
C2844 H2830 0.930 . S
C2844 C2842 1.395 . S
C2844 C2847 1.403 . S
C2845 C2842 1.403 . S
C2845 C2846 1.524 . S
C2845 C2849 1.400 . S
C2846 H2831 0.960 . S
C2846 H2832 0.960 . S
C2846 H2833 0.960 . S
C2846 C2845 1.524 . S
C2847 C2844 1.403 . S
C2847 C2848 1.392 . S
C2847 C2851 1.495 . S
C2848 C2847 1.392 . S
C2848 C2849 1.385 . S
C2848 C2850 1.478 . S
C2849 H2843 0.930 . S
C2849 C2845 1.400 . S
C2849 C2848 1.385 . S
C2850 C2848 1.478 . S
C2850 C2852 1.381 . S
C2850 C2856 1.383 . S
C2851 C2847 1.495 . S
C2851 H2857 0.959 . S
C2851 H2858 0.961 . S
C2851 H2859 0.960 . S
C2852 C2850 1.381 . S
C2852 C2853 1.394 . S
C2852 H2860 0.930 . S
C2853 C2852 1.394 . S
C2853 C2854 1.383 . S
C2853 H2861 0.929 . S
C2854 C2853 1.383 . S
C2854 C2855 1.377 . S
C2855 H2839 0.930 . S
C2855 C2854 1.377 . S
C2855 C2856 1.379 . S
C2856 H2840 0.931 . S
C2856 C2850 1.383 . S
C2856 C2855 1.379 . S
H2857 C2851 0.959 . S
H2858 C2851 0.961 . S
H2859 C2851 0.960 . S
H2860 C2852 0.930 . S
H2861 C2853 0.929 . S
H2862 C2870 0.929 . S
H2863 C2872 0.930 . S
H2864 C2874 0.930 . S
H2865 C2877 0.929 . S
H2866 C2880 0.930 . S
H2867 C2882 0.960 . S
H2868 C2882 0.960 . S
H2869 C2882 0.960 . S
C2870 H2862 0.929 . S
C2870 C2871 1.377 . S
C2870 C2872 1.384 . S
C2871 C2870 1.377 . S
C2871 C2877 1.390 . S
C2872 H2863 0.930 . S
C2872 C2870 1.384 . S
C2872 C2873 1.372 . S
C2873 C2872 1.372 . S
C2873 C2874 1.400 . S
C2873 C2878 1.490 . S
C2874 H2864 0.930 . S
C2874 C2873 1.400 . S
C2874 C2877 1.386 . S
H2875 C2891 0.930 . S
H2876 C2892 0.931 . S
C2877 H2865 0.929 . S
C2877 C2871 1.390 . S
C2877 C2874 1.386 . S
C2878 C2873 1.490 . S
C2878 C2880 1.395 . S
C2878 C2881 1.403 . S
H2879 C2885 0.930 . S
C2880 H2866 0.930 . S
C2880 C2878 1.395 . S
C2880 C2883 1.403 . S
C2881 C2878 1.403 . S
C2881 C2882 1.524 . S
C2881 C2885 1.400 . S
C2882 H2867 0.960 . S
C2882 H2868 0.960 . S
C2882 H2869 0.960 . S
C2882 C2881 1.524 . S
C2883 C2880 1.403 . S
C2883 C2884 1.392 . S
C2883 C2887 1.495 . S
C2884 C2883 1.392 . S
C2884 C2885 1.385 . S
C2884 C2886 1.478 . S
C2885 H2879 0.930 . S
C2885 C2881 1.400 . S
C2885 C2884 1.385 . S
C2886 C2884 1.478 . S
C2886 C2888 1.381 . S
C2886 C2892 1.383 . S
C2887 C2883 1.495 . S
C2887 H2893 0.959 . S
C2887 H2894 0.961 . S
C2887 H2895 0.960 . S
C2888 C2886 1.381 . S
C2888 C2889 1.394 . S
C2888 H2896 0.930 . S
C2889 C2888 1.394 . S
C2889 C2890 1.383 . S
C2889 H2897 0.929 . S
C2890 C2889 1.383 . S
C2890 C2891 1.377 . S
C2891 H2875 0.930 . S
C2891 C2890 1.377 . S
C2891 C2892 1.379 . S
C2892 H2876 0.931 . S
C2892 C2886 1.383 . S
C2892 C2891 1.379 . S
H2893 C2887 0.959 . S
H2894 C2887 0.961 . S
H2895 C2887 0.960 . S
H2896 C2888 0.930 . S
H2897 C2889 0.929 . S
H2898 C2906 0.929 . S
H2899 C2908 0.930 . S
H2900 C2910 0.930 . S
H2901 C2913 0.929 . S
H2902 C2916 0.930 . S
H2903 C2918 0.960 . S
H2904 C2918 0.960 . S
H2905 C2918 0.960 . S
C2906 H2898 0.929 . S
C2906 C2907 1.377 . S
C2906 C2908 1.384 . S
C2907 C2906 1.377 . S
C2907 C2913 1.390 . S
C2908 H2899 0.930 . S
C2908 C2906 1.384 . S
C2908 C2909 1.372 . S
C2909 C2908 1.372 . S
C2909 C2910 1.400 . S
C2909 C2914 1.490 . S
C2910 H2900 0.930 . S
C2910 C2909 1.400 . S
C2910 C2913 1.386 . S
H2911 C2927 0.930 . S
H2912 C2928 0.931 . S
C2913 H2901 0.929 . S
C2913 C2907 1.390 . S
C2913 C2910 1.386 . S
C2914 C2909 1.490 . S
C2914 C2916 1.395 . S
C2914 C2917 1.403 . S
H2915 C2921 0.930 . S
C2916 H2902 0.930 . S
C2916 C2914 1.395 . S
C2916 C2919 1.403 . S
C2917 C2914 1.403 . S
C2917 C2918 1.524 . S
C2917 C2921 1.400 . S
C2918 H2903 0.960 . S
C2918 H2904 0.960 . S
C2918 H2905 0.960 . S
C2918 C2917 1.524 . S
C2919 C2916 1.403 . S
C2919 C2920 1.392 . S
C2919 C2923 1.495 . S
C2920 C2919 1.392 . S
C2920 C2921 1.385 . S
C2920 C2922 1.478 . S
C2921 H2915 0.930 . S
C2921 C2917 1.400 . S
C2921 C2920 1.385 . S
C2922 C2920 1.478 . S
C2922 C2924 1.381 . S
C2922 C2928 1.383 . S
C2923 C2919 1.495 . S
C2923 H2929 0.959 . S
C2923 H2930 0.961 . S
C2923 H2931 0.960 . S
C2924 C2922 1.381 . S
C2924 C2925 1.394 . S
C2924 H2932 0.930 . S
C2925 C2924 1.394 . S
C2925 C2926 1.383 . S
C2925 H2933 0.929 . S
C2926 C2925 1.383 . S
C2926 C2927 1.377 . S
C2927 H2911 0.930 . S
C2927 C2926 1.377 . S
C2927 C2928 1.379 . S
C2928 H2912 0.931 . S
C2928 C2922 1.383 . S
C2928 C2927 1.379 . S
H2929 C2923 0.959 . S
H2930 C2923 0.961 . S
H2931 C2923 0.960 . S
H2932 C2924 0.930 . S
H2933 C2925 0.929 . S
H2934 C2942 0.929 . S
H2935 C2944 0.930 . S
H2936 C2946 0.930 . S
H2937 C2949 0.929 . S
H2938 C2952 0.930 . S
H2939 C2954 0.960 . S
H2940 C2954 0.960 . S
H2941 C2954 0.960 . S
C2942 H2934 0.929 . S
C2942 C2943 1.377 . S
C2942 C2944 1.384 . S
C2943 C2942 1.377 . S
C2943 C2949 1.390 . S
C2944 H2935 0.930 . S
C2944 C2942 1.384 . S
C2944 C2945 1.372 . S
C2945 C2944 1.372 . S
C2945 C2946 1.400 . S
C2945 C2950 1.490 . S
C2946 H2936 0.930 . S
C2946 C2945 1.400 . S
C2946 C2949 1.386 . S
H2947 C2963 0.930 . S
H2948 C2964 0.931 . S
C2949 H2937 0.929 . S
C2949 C2943 1.390 . S
C2949 C2946 1.386 . S
C2950 C2945 1.490 . S
C2950 C2952 1.395 . S
C2950 C2953 1.403 . S
H2951 C2957 0.930 . S
C2952 H2938 0.930 . S
C2952 C2950 1.395 . S
C2952 C2955 1.403 . S
C2953 C2950 1.403 . S
C2953 C2954 1.524 . S
C2953 C2957 1.400 . S
C2954 H2939 0.960 . S
C2954 H2940 0.960 . S
C2954 H2941 0.960 . S
C2954 C2953 1.524 . S
C2955 C2952 1.403 . S
C2955 C2956 1.392 . S
C2955 C2959 1.495 . S
C2956 C2955 1.392 . S
C2956 C2957 1.385 . S
C2956 C2958 1.478 . S
C2957 H2951 0.930 . S
C2957 C2953 1.400 . S
C2957 C2956 1.385 . S
C2958 C2956 1.478 . S
C2958 C2960 1.381 . S
C2958 C2964 1.383 . S
C2959 C2955 1.495 . S
C2959 H2965 0.959 . S
C2959 H2966 0.961 . S
C2959 H2967 0.960 . S
C2960 C2958 1.381 . S
C2960 C2961 1.394 . S
C2960 H2968 0.930 . S
C2961 C2960 1.394 . S
C2961 C2962 1.383 . S
C2961 H2969 0.929 . S
C2962 C2961 1.383 . S
C2962 C2963 1.377 . S
C2963 H2947 0.930 . S
C2963 C2962 1.377 . S
C2963 C2964 1.379 . S
C2964 H2948 0.931 . S
C2964 C2958 1.383 . S
C2964 C2963 1.379 . S
H2965 C2959 0.959 . S
H2966 C2959 0.961 . S
H2967 C2959 0.960 . S
H2968 C2960 0.930 . S
H2969 C2961 0.929 . S
H2970 C2978 0.929 . S
H2971 C2980 0.930 1_554 S
H2972 C2982 0.930 . S
H2973 C2985 0.929 . S
H2974 C2988 0.930 . S
H2975 C2990 0.960 . S
H2976 C2990 0.960 . S
H2977 C2990 0.960 . S
C2978 H2970 0.929 . S
C2978 C2979 1.377 1_554 S
C2978 C2980 1.384 1_554 S
C2979 C2978 1.377 1_556 S
C2979 C2985 1.390 . S
C2980 H2971 0.930 1_556 S
C2980 C2978 1.384 1_556 S
C2980 C2981 1.372 . S
C2981 C2980 1.372 . S
C2981 C2982 1.400 . S
C2981 C2986 1.490 . S
C2982 H2972 0.930 . S
C2982 C2981 1.400 . S
C2982 C2985 1.386 . S
H2983 C2999 0.930 . S
H2984 C3000 0.931 . S
C2985 H2973 0.929 . S
C2985 C2979 1.390 . S
C2985 C2982 1.386 . S
C2986 C2981 1.490 . S
C2986 C2988 1.395 . S
C2986 C2989 1.403 . S
H2987 C2993 0.930 . S
C2988 H2974 0.930 . S
C2988 C2986 1.395 . S
C2988 C2991 1.403 . S
C2989 C2986 1.403 . S
C2989 C2990 1.524 . S
C2989 C2993 1.400 . S
C2990 H2975 0.960 . S
C2990 H2976 0.960 . S
C2990 H2977 0.960 . S
C2990 C2989 1.524 . S
C2991 C2988 1.403 . S
C2991 C2992 1.392 . S
C2991 C2995 1.495 . S
C2992 C2991 1.392 . S
C2992 C2993 1.385 . S
C2992 C2994 1.478 . S
C2993 H2987 0.930 . S
C2993 C2989 1.400 . S
C2993 C2992 1.385 . S
C2994 C2992 1.478 . S
C2994 C2996 1.381 . S
C2994 C3000 1.383 . S
C2995 C2991 1.495 . S
C2995 H3001 0.959 . S
C2995 H3002 0.961 . S
C2995 H3003 0.960 . S
C2996 C2994 1.381 . S
C2996 C2997 1.394 . S
C2996 H3004 0.930 . S
C2997 C2996 1.394 . S
C2997 C2998 1.383 . S
C2997 H3005 0.929 . S
C2998 C2997 1.383 . S
C2998 C2999 1.377 . S
C2999 H2983 0.930 . S
C2999 C2998 1.377 . S
C2999 C3000 1.379 . S
C3000 H2984 0.931 . S
C3000 C2994 1.383 . S
C3000 C2999 1.379 . S
H3001 C2995 0.959 . S
H3002 C2995 0.961 . S
H3003 C2995 0.960 . S
H3004 C2996 0.930 . S
H3005 C2997 0.929 . S
H3006 C3014 0.929 1_554 S
H3007 C3016 0.930 . S
H3008 C3018 0.930 . S
H3009 C3021 0.929 . S
H3010 C3024 0.930 . S
H3011 C3026 0.960 . S
H3012 C3026 0.960 . S
H3013 C3026 0.960 . S
C3014 H3006 0.929 1_556 S
C3014 C3015 1.377 . S
C3014 C3016 1.384 . S
C3015 C3014 1.377 . S
C3015 C3021 1.390 . S
C3016 H3007 0.930 . S
C3016 C3014 1.384 . S
C3016 C3017 1.372 . S
C3017 C3016 1.372 . S
C3017 C3018 1.400 . S
C3017 C3022 1.490 . S
C3018 H3008 0.930 . S
C3018 C3017 1.400 . S
C3018 C3021 1.386 . S
H3019 C3035 0.930 . S
H3020 C3036 0.931 . S
C3021 H3009 0.929 . S
C3021 C3015 1.390 . S
C3021 C3018 1.386 . S
C3022 C3017 1.490 . S
C3022 C3024 1.395 . S
C3022 C3025 1.403 . S
H3023 C3029 0.930 . S
C3024 H3010 0.930 . S
C3024 C3022 1.395 . S
C3024 C3027 1.403 . S
C3025 C3022 1.403 . S
C3025 C3026 1.524 . S
C3025 C3029 1.400 . S
C3026 H3011 0.960 . S
C3026 H3012 0.960 . S
C3026 H3013 0.960 . S
C3026 C3025 1.524 . S
C3027 C3024 1.403 . S
C3027 C3028 1.392 . S
C3027 C3031 1.495 . S
C3028 C3027 1.392 . S
C3028 C3029 1.385 . S
C3028 C3030 1.478 . S
C3029 H3023 0.930 . S
C3029 C3025 1.400 . S
C3029 C3028 1.385 . S
C3030 C3028 1.478 . S
C3030 C3032 1.381 . S
C3030 C3036 1.383 . S
C3031 C3027 1.495 . S
C3031 H3037 0.959 . S
C3031 H3038 0.961 . S
C3031 H3039 0.960 . S
C3032 C3030 1.381 . S
C3032 C3033 1.394 . S
C3032 H3040 0.930 . S
C3033 C3032 1.394 . S
C3033 C3034 1.383 . S
C3033 H3041 0.929 . S
C3034 C3033 1.383 . S
C3034 C3035 1.377 . S
C3035 H3019 0.930 . S
C3035 C3034 1.377 . S
C3035 C3036 1.379 . S
C3036 H3020 0.931 . S
C3036 C3030 1.383 . S
C3036 C3035 1.379 . S
H3037 C3031 0.959 . S
H3038 C3031 0.961 . S
H3039 C3031 0.960 . S
H3040 C3032 0.930 . S
H3041 C3033 0.929 . S
H3042 C3050 0.929 . S
H3043 C3052 0.930 1_556 S
H3044 C3054 0.930 . S
H3045 C3057 0.929 . S
H3046 C3060 0.930 . S
H3047 C3062 0.960 . S
H3048 C3062 0.960 . S
H3049 C3062 0.960 . S
C3050 H3042 0.929 . S
C3050 C3051 1.377 . S
C3050 C3052 1.384 . S
C3051 C3050 1.377 . S
C3051 C3057 1.390 . S
C3052 H3043 0.930 1_554 S
C3052 C3050 1.384 . S
C3052 C3053 1.372 . S
C3053 C3052 1.372 . S
C3053 C3054 1.400 . S
C3053 C3058 1.476 1_554 S
C3054 H3044 0.930 . S
C3054 C3053 1.400 . S
C3054 C3057 1.386 . S
H3055 C3071 0.930 . S
H3056 C3072 0.931 . S
C3057 H3045 0.929 . S
C3057 C3051 1.390 . S
C3057 C3054 1.386 . S
C3058 C3053 1.476 1_556 S
C3058 C3060 1.407 . S
C3058 C3061 1.405 . S
H3059 C3065 0.930 . S
C3060 H3046 0.930 . S
C3060 C3058 1.407 . S
C3060 C3063 1.403 . S
C3061 C3058 1.405 . S
C3061 C3062 1.524 1_556 S
C3061 C3065 1.400 . S
C3062 H3047 0.960 . S
C3062 H3048 0.960 . S
C3062 H3049 0.960 . S
C3062 C3061 1.524 1_554 S
C3063 C3060 1.403 . S
C3063 C3064 1.392 . S
C3063 C3067 1.495 . S
C3064 C3063 1.392 . S
C3064 C3065 1.385 . S
C3064 C3066 1.478 . S
C3065 H3059 0.930 . S
C3065 C3061 1.400 . S
C3065 C3064 1.385 . S
C3066 C3064 1.478 . S
C3066 C3068 1.381 . S
C3066 C3072 1.383 . S
C3067 C3063 1.495 . S
C3067 H3073 0.959 . S
C3067 H3074 0.961 . S
C3067 H3075 0.960 . S
C3068 C3066 1.381 . S
C3068 C3069 1.394 . S
C3068 H3076 0.930 . S
C3069 C3068 1.394 . S
C3069 C3070 1.383 . S
C3069 H3077 0.929 . S
C3070 C3069 1.383 . S
C3070 C3071 1.377 . S
C3071 H3055 0.930 . S
C3071 C3070 1.377 . S
C3071 C3072 1.379 . S
C3072 H3056 0.931 . S
C3072 C3066 1.383 . S
C3072 C3071 1.379 . S
H3073 C3067 0.959 . S
H3074 C3067 0.961 . S
H3075 C3067 0.960 . S
H3076 C3068 0.930 . S
H3077 C3069 0.929 . S
H3078 C3086 0.929 . S
H3079 C3088 0.920 1_554 S
H3080 C3090 0.930 . S
H3081 C3093 0.929 . S
H3082 C3096 0.930 . S
H3083 C3098 0.960 . S
H3084 C3098 0.960 . S
H3085 C3098 0.960 . S
C3086 H3078 0.929 . S
C3086 C3087 1.377 . S
C3086 C3088 1.355 1_554 S
C3087 C3086 1.377 . S
C3087 C3093 1.390 1_554 S
C3088 H3079 0.920 1_556 S
C3088 C3086 1.355 1_556 S
C3088 C3089 1.414 . S
C3089 C3088 1.414 . S
C3089 C3090 1.400 . S
C3089 C3094 1.490 . S
C3090 H3080 0.930 . S
C3090 C3089 1.400 . S
C3090 C3093 1.386 . S
H3091 C3107 0.930 . S
H3092 C3108 0.931 . S
C3093 H3081 0.929 . S
C3093 C3087 1.390 1_556 S
C3093 C3090 1.386 . S
C3094 C3089 1.490 . S
C3094 C3096 1.395 . S
C3094 C3097 1.403 . S
H3095 C3101 0.930 . S
C3096 H3082 0.930 . S
C3096 C3094 1.395 . S
C3096 C3099 1.403 . S
C3097 C3094 1.403 . S
C3097 C3098 1.524 . S
C3097 C3101 1.400 . S
C3098 H3083 0.960 . S
C3098 H3084 0.960 . S
C3098 H3085 0.960 . S
C3098 C3097 1.524 . S
C3099 C3096 1.403 . S
C3099 C3100 1.392 . S
C3099 C3103 1.495 . S
C3100 C3099 1.392 . S
C3100 C3101 1.385 . S
C3100 C3102 1.478 . S
C3101 H3095 0.930 . S
C3101 C3097 1.400 . S
C3101 C3100 1.385 . S
C3102 C3100 1.478 . S
C3102 C3104 1.381 . S
C3102 C3108 1.383 . S
C3103 C3099 1.495 . S
C3103 H3109 0.959 . S
C3103 H3110 0.961 . S
C3103 H3111 0.960 . S
C3104 C3102 1.381 . S
C3104 C3105 1.394 . S
C3104 H3112 0.930 . S
C3105 C3104 1.394 . S
C3105 C3106 1.383 . S
C3105 H3113 0.929 . S
C3106 C3105 1.383 . S
C3106 C3107 1.377 . S
C3107 H3091 0.930 . S
C3107 C3106 1.377 . S
C3107 C3108 1.379 . S
C3108 H3092 0.931 . S
C3108 C3102 1.383 . S
C3108 C3107 1.379 . S
H3109 C3103 0.959 . S
H3110 C3103 0.961 . S
H3111 C3103 0.960 . S
H3112 C3104 0.930 . S
H3113 C3105 0.929 . S
H3114 C3122 0.929 . S
H3115 C3124 0.930 . S
H3116 C3126 0.930 . S
H3117 C3129 0.929 . S
H3118 C3132 0.930 . S
H3119 C3134 0.960 . S
H3120 C3134 0.960 . S
H3121 C3134 0.960 . S
C3122 H3114 0.929 . S
C3122 C3123 1.377 . S
C3122 C3124 1.384 . S
C3123 C3122 1.377 . S
C3123 C3129 1.390 . S
C3124 H3115 0.930 . S
C3124 C3122 1.384 . S
C3124 C3125 1.372 . S
C3125 C3124 1.372 . S
C3125 C3126 1.400 . S
C3125 C3130 1.490 . S
C3126 H3116 0.930 . S
C3126 C3125 1.400 . S
C3126 C3129 1.386 . S
H3127 C3143 0.930 . S
H3128 C3144 0.931 . S
C3129 H3117 0.929 . S
C3129 C3123 1.390 . S
C3129 C3126 1.386 . S
C3130 C3125 1.490 . S
C3130 C3132 1.395 . S
C3130 C3133 1.403 . S
H3131 C3137 0.930 . S
C3132 H3118 0.930 . S
C3132 C3130 1.395 . S
C3132 C3135 1.403 . S
C3133 C3130 1.403 . S
C3133 C3134 1.524 . S
C3133 C3137 1.400 . S
C3134 H3119 0.960 . S
C3134 H3120 0.960 . S
C3134 H3121 0.960 . S
C3134 C3133 1.524 . S
C3135 C3132 1.403 . S
C3135 C3136 1.392 . S
C3135 C3139 1.495 . S
C3136 C3135 1.392 . S
C3136 C3137 1.385 . S
C3136 C3138 1.478 . S
C3137 H3131 0.930 . S
C3137 C3133 1.400 . S
C3137 C3136 1.385 . S
C3138 C3136 1.478 . S
C3138 C3140 1.381 . S
C3138 C3144 1.383 . S
C3139 C3135 1.495 . S
C3139 H3145 0.959 . S
C3139 H3146 0.961 . S
C3139 H3147 0.960 . S
C3140 C3138 1.381 . S
C3140 C3141 1.394 . S
C3140 H3148 0.930 . S
C3141 C3140 1.394 . S
C3141 C3142 1.383 . S
C3141 H3149 0.929 . S
C3142 C3141 1.383 . S
C3142 C3143 1.377 . S
C3143 H3127 0.930 . S
C3143 C3142 1.377 . S
C3143 C3144 1.379 . S
C3144 H3128 0.931 . S
C3144 C3138 1.383 . S
C3144 C3143 1.379 . S
H3145 C3139 0.959 . S
H3146 C3139 0.961 . S
H3147 C3139 0.960 . S
H3148 C3140 0.930 . S
H3149 C3141 0.929 . S
H3150 C3158 0.929 . S
H3151 C3160 0.930 . S
H3152 C3162 0.930 . S
H3153 C3165 0.929 . S
H3154 C3168 0.930 1_554 S
H3155 C3170 0.960 . S
H3156 C3170 0.960 . S
H3157 C3170 0.960 . S
C3158 H3150 0.929 . S
C3158 C3159 1.377 . S
C3158 C3160 1.384 . S
C3159 C3158 1.377 . S
C3159 C3165 1.390 1_554 S
C3160 H3151 0.930 . S
C3160 C3158 1.384 . S
C3160 C3161 1.372 1_554 S
C3161 C3160 1.372 1_556 S
C3161 C3162 1.400 . S
C3161 C3166 1.490 . S
C3162 H3152 0.930 . S
C3162 C3161 1.400 . S
C3162 C3165 1.386 . S
H3163 C3179 0.930 . S
H3164 C3180 0.931 . S
C3165 H3153 0.929 . S
C3165 C3159 1.390 1_556 S
C3165 C3162 1.386 . S
C3166 C3161 1.490 . S
C3166 C3168 1.395 . S
C3166 C3169 1.403 . S
H3167 C3173 0.930 . S
C3168 H3154 0.930 1_556 S
C3168 C3166 1.395 . S
C3168 C3171 1.403 . S
C3169 C3166 1.403 . S
C3169 C3170 1.524 . S
C3169 C3173 1.400 . S
C3170 H3155 0.960 . S
C3170 H3156 0.960 . S
C3170 H3157 0.960 . S
C3170 C3169 1.524 . S
C3171 C3168 1.403 . S
C3171 C3172 1.392 . S
C3171 C3175 1.495 . S
C3172 C3171 1.392 . S
C3172 C3173 1.385 . S
C3172 C3174 1.478 . S
C3173 H3167 0.930 . S
C3173 C3169 1.400 . S
C3173 C3172 1.385 . S
C3174 C3172 1.478 . S
C3174 C3176 1.381 . S
C3174 C3180 1.383 . S
C3175 C3171 1.495 . S
C3175 H3181 0.959 1_556 S
C3175 H3182 0.961 . S
C3175 H3183 0.960 . S
C3176 C3174 1.381 . S
C3176 C3177 1.394 . S
C3176 H3184 0.930 . S
C3177 C3176 1.394 . S
C3177 C3178 1.383 . S
C3177 H3185 0.929 . S
C3178 C3177 1.383 . S
C3178 C3179 1.377 . S
C3179 H3163 0.930 . S
C3179 C3178 1.377 . S
C3179 C3180 1.379 . S
C3180 H3164 0.931 . S
C3180 C3174 1.383 . S
C3180 C3179 1.379 . S
H3181 C3175 0.959 1_554 S
H3182 C3175 0.961 . S
H3183 C3175 0.960 . S
H3184 C3176 0.930 . S
H3185 C3177 0.929 . S
H3186 C3194 0.929 . S
H3187 C3196 0.930 . S
H3188 C3198 0.930 . S
H3189 C3201 0.929 . S
H3190 C3204 0.930 . S
H3191 C3206 0.960 . S
H3192 C3206 0.960 . S
H3193 C3206 0.960 . S
C3194 H3186 0.929 . S
C3194 C3195 1.377 . S
C3194 C3196 1.384 . S
C3195 C3194 1.377 . S
C3195 C3201 1.390 . S
C3196 H3187 0.930 . S
C3196 C3194 1.384 . S
C3196 C3197 1.372 . S
C3197 C3196 1.372 . S
C3197 C3198 1.400 . S
C3197 C3202 1.490 . S
C3198 H3188 0.930 . S
C3198 C3197 1.400 . S
C3198 C3201 1.386 . S
H3199 C3215 0.930 . S
H3200 C3216 0.931 . S
C3201 H3189 0.929 . S
C3201 C3195 1.390 . S
C3201 C3198 1.386 . S
C3202 C3197 1.490 . S
C3202 C3204 1.395 . S
C3202 C3205 1.403 . S
H3203 C3209 0.930 . S
C3204 H3190 0.930 . S
C3204 C3202 1.395 . S
C3204 C3207 1.403 . S
C3205 C3202 1.403 . S
C3205 C3206 1.524 . S
C3205 C3209 1.400 . S
C3206 H3191 0.960 . S
C3206 H3192 0.960 . S
C3206 H3193 0.960 . S
C3206 C3205 1.524 . S
C3207 C3204 1.403 . S
C3207 C3208 1.392 . S
C3207 C3211 1.495 . S
C3208 C3207 1.392 . S
C3208 C3209 1.385 . S
C3208 C3210 1.478 . S
C3209 H3203 0.930 . S
C3209 C3205 1.400 . S
C3209 C3208 1.385 . S
C3210 C3208 1.478 . S
C3210 C3212 1.381 . S
C3210 C3216 1.383 . S
C3211 C3207 1.495 . S
C3211 H3217 0.959 . S
C3211 H3218 0.961 . S
C3211 H3219 0.960 . S
C3212 C3210 1.381 . S
C3212 C3213 1.394 . S
C3212 H3220 0.930 . S
C3213 C3212 1.394 . S
C3213 C3214 1.383 . S
C3213 H3221 0.929 . S
C3214 C3213 1.383 . S
C3214 C3215 1.377 . S
C3215 H3199 0.930 . S
C3215 C3214 1.377 . S
C3215 C3216 1.379 . S
C3216 H3200 0.931 . S
C3216 C3210 1.383 . S
C3216 C3215 1.379 . S
H3217 C3211 0.959 . S
H3218 C3211 0.961 . S
H3219 C3211 0.960 . S
H3220 C3212 0.930 . S
H3221 C3213 0.929 . S
H3222 C3230 0.929 . S
H3223 C3232 0.930 . S
H3224 C3234 0.930 . S
H3225 C3237 0.929 . S
H3226 C3240 0.930 . S
H3227 C3242 0.960 . S
H3228 C3242 0.960 . S
H3229 C3242 0.960 . S
C3230 H3222 0.929 . S
C3230 C3231 1.377 . S
C3230 C3232 1.384 . S
C3231 C3230 1.377 . S
C3231 C3237 1.390 . S
C3232 H3223 0.930 . S
C3232 C3230 1.384 . S
C3232 C3233 1.372 . S
C3233 C3232 1.372 . S
C3233 C3234 1.400 . S
C3233 C3238 1.490 . S
C3234 H3224 0.930 . S
C3234 C3233 1.400 . S
C3234 C3237 1.386 . S
H3235 C3251 0.930 . S
H3236 C3252 0.931 . S
C3237 H3225 0.929 . S
C3237 C3231 1.390 . S
C3237 C3234 1.386 . S
C3238 C3233 1.490 . S
C3238 C3240 1.395 . S
C3238 C3241 1.403 . S
H3239 C3245 0.930 . S
C3240 H3226 0.930 . S
C3240 C3238 1.395 . S
C3240 C3243 1.403 . S
C3241 C3238 1.403 . S
C3241 C3242 1.524 . S
C3241 C3245 1.400 . S
C3242 H3227 0.960 . S
C3242 H3228 0.960 . S
C3242 H3229 0.960 . S
C3242 C3241 1.524 . S
C3243 C3240 1.403 . S
C3243 C3244 1.392 . S
C3243 C3247 1.495 . S
C3244 C3243 1.392 . S
C3244 C3245 1.385 . S
C3244 C3246 1.478 . S
C3245 H3239 0.930 . S
C3245 C3241 1.400 . S
C3245 C3244 1.385 . S
C3246 C3244 1.478 . S
C3246 C3248 1.381 . S
C3246 C3252 1.383 . S
C3247 C3243 1.495 . S
C3247 H3253 0.959 . S
C3247 H3254 0.961 . S
C3247 H3255 0.960 . S
C3248 C3246 1.381 . S
C3248 C3249 1.394 . S
C3248 H3256 0.930 . S
C3249 C3248 1.394 . S
C3249 C3250 1.383 . S
C3249 H3257 0.929 . S
C3250 C3249 1.383 . S
C3250 C3251 1.377 . S
C3251 H3235 0.930 . S
C3251 C3250 1.377 . S
C3251 C3252 1.379 . S
C3252 H3236 0.931 . S
C3252 C3246 1.383 . S
C3252 C3251 1.379 . S
H3253 C3247 0.959 . S
H3254 C3247 0.961 . S
H3255 C3247 0.960 . S
H3256 C3248 0.930 . S
H3257 C3249 0.929 . S
H3258 C3266 0.929 . S
H3259 C3268 0.930 . S
H3260 C3270 0.930 . S
H3261 C3273 0.929 . S
H3262 C3276 0.930 . S
H3263 C3278 0.960 . S
H3264 C3278 0.960 . S
H3265 C3278 0.960 . S
C3266 H3258 0.929 . S
C3266 C3267 1.377 . S
C3266 C3268 1.384 . S
C3267 C3266 1.377 . S
C3267 C3273 1.390 . S
C3268 H3259 0.930 . S
C3268 C3266 1.384 . S
C3268 C3269 1.372 . S
C3269 C3268 1.372 . S
C3269 C3270 1.400 . S
C3269 C3274 1.490 . S
C3270 H3260 0.930 . S
C3270 C3269 1.400 . S
C3270 C3273 1.386 . S
H3271 C3287 0.930 . S
H3272 C3288 0.931 . S
C3273 H3261 0.929 . S
C3273 C3267 1.390 . S
C3273 C3270 1.386 . S
C3274 C3269 1.490 . S
C3274 C3276 1.395 . S
C3274 C3277 1.403 . S
H3275 C3281 0.930 . S
C3276 H3262 0.930 . S
C3276 C3274 1.395 . S
C3276 C3279 1.403 . S
C3277 C3274 1.403 . S
C3277 C3278 1.524 . S
C3277 C3281 1.400 . S
C3278 H3263 0.960 . S
C3278 H3264 0.960 . S
C3278 H3265 0.960 . S
C3278 C3277 1.524 . S
C3279 C3276 1.403 . S
C3279 C3280 1.392 . S
C3279 C3283 1.495 . S
C3280 C3279 1.392 . S
C3280 C3281 1.385 . S
C3280 C3282 1.478 . S
C3281 H3275 0.930 . S
C3281 C3277 1.400 . S
C3281 C3280 1.385 . S
C3282 C3280 1.478 . S
C3282 C3284 1.381 . S
C3282 C3288 1.383 . S
C3283 C3279 1.495 . S
C3283 H3289 0.959 . S
C3283 H3290 0.961 . S
C3283 H3291 0.960 . S
C3284 C3282 1.381 . S
C3284 C3285 1.394 . S
C3284 H3292 0.930 . S
C3285 C3284 1.394 . S
C3285 C3286 1.383 . S
C3285 H3293 0.929 . S
C3286 C3285 1.383 . S
C3286 C3287 1.377 . S
C3287 H3271 0.930 . S
C3287 C3286 1.377 . S
C3287 C3288 1.379 . S
C3288 H3272 0.931 . S
C3288 C3282 1.383 . S
C3288 C3287 1.379 . S
H3289 C3283 0.959 . S
H3290 C3283 0.961 . S
H3291 C3283 0.960 . S
H3292 C3284 0.930 . S
H3293 C3285 0.929 . S
H3294 C3302 0.929 . S
H3295 C3304 0.930 . S
H3296 C3306 0.930 . S
H3297 C3309 0.929 . S
H3298 C3312 0.930 . S
H3299 C3314 0.960 . S
H3300 C3314 0.960 . S
H3301 C3314 0.960 . S
C3302 H3294 0.929 . S
C3302 C3303 1.377 . S
C3302 C3304 1.384 . S
C3303 C3302 1.377 . S
C3303 C3309 1.390 . S
C3304 H3295 0.930 . S
C3304 C3302 1.384 . S
C3304 C3305 1.372 . S
C3305 C3304 1.372 . S
C3305 C3306 1.400 . S
C3305 C3310 1.490 . S
C3306 H3296 0.930 . S
C3306 C3305 1.400 . S
C3306 C3309 1.386 . S
H3307 C3323 0.930 . S
H3308 C3324 0.931 . S
C3309 H3297 0.929 . S
C3309 C3303 1.390 . S
C3309 C3306 1.386 . S
C3310 C3305 1.490 . S
C3310 C3312 1.395 . S
C3310 C3313 1.403 . S
H3311 C3317 0.930 . S
C3312 H3298 0.930 . S
C3312 C3310 1.395 . S
C3312 C3315 1.403 . S
C3313 C3310 1.403 . S
C3313 C3314 1.524 . S
C3313 C3317 1.400 . S
C3314 H3299 0.960 . S
C3314 H3300 0.960 . S
C3314 H3301 0.960 . S
C3314 C3313 1.524 . S
C3315 C3312 1.403 . S
C3315 C3316 1.392 . S
C3315 C3319 1.495 . S
C3316 C3315 1.392 . S
C3316 C3317 1.385 . S
C3316 C3318 1.478 . S
C3317 H3311 0.930 . S
C3317 C3313 1.400 . S
C3317 C3316 1.385 . S
C3318 C3316 1.478 . S
C3318 C3320 1.381 . S
C3318 C3324 1.383 . S
C3319 C3315 1.495 . S
C3319 H3325 0.959 . S
C3319 H3326 0.961 . S
C3319 H3327 0.960 . S
C3320 C3318 1.381 . S
C3320 C3321 1.394 . S
C3320 H3328 0.930 . S
C3321 C3320 1.394 . S
C3321 C3322 1.383 . S
C3321 H3329 0.929 . S
C3322 C3321 1.383 . S
C3322 C3323 1.377 . S
C3323 H3307 0.930 . S
C3323 C3322 1.377 . S
C3323 C3324 1.379 . S
C3324 H3308 0.931 . S
C3324 C3318 1.383 . S
C3324 C3323 1.379 . S
H3325 C3319 0.959 . S
H3326 C3319 0.961 . S
H3327 C3319 0.960 . S
H3328 C3320 0.930 . S
H3329 C3321 0.929 . S
H3330 C3338 0.929 . S
H3331 C3340 0.930 . S
H3332 C3342 0.930 . S
H3333 C3345 0.955 . S
H3334 C3348 0.930 . S
H3335 C3350 0.960 . S
H3336 C3350 0.960 . S
H3337 C3350 0.960 . S
C3338 H3330 0.929 . S
C3338 C3339 1.335 1_545 S
C3338 C3340 1.384 . S
C3339 C3338 1.335 1_565 S
C3339 C3345 1.380 . S
C3340 H3331 0.930 . S
C3340 C3338 1.384 . S
C3340 C3341 1.372 . S
C3341 C3340 1.372 . S
C3341 C3342 1.400 . S
C3341 C3346 1.490 . S
C3342 H3332 0.930 . S
C3342 C3341 1.400 . S
C3342 C3345 1.348 1_545 S
H3343 C3359 0.930 . S
H3344 C3360 0.931 . S
C3345 H3333 0.955 . S
C3345 C3339 1.380 . S
C3345 C3342 1.348 1_565 S
C3346 C3341 1.490 . S
C3346 C3348 1.395 . S
C3346 C3349 1.403 . S
H3347 C3353 0.930 . S
C3348 H3334 0.930 . S
C3348 C3346 1.395 . S
C3348 C3351 1.403 . S
C3349 C3346 1.403 . S
C3349 C3350 1.524 . S
C3349 C3353 1.400 . S
C3350 H3335 0.960 . S
C3350 H3336 0.960 . S
C3350 H3337 0.960 . S
C3350 C3349 1.524 . S
C3351 C3348 1.403 . S
C3351 C3352 1.392 . S
C3351 C3355 1.495 . S
C3352 C3351 1.392 . S
C3352 C3353 1.385 . S
C3352 C3354 1.478 . S
C3353 H3347 0.930 . S
C3353 C3349 1.400 . S
C3353 C3352 1.385 . S
C3354 C3352 1.478 . S
C3354 C3356 1.381 . S
C3354 C3360 1.383 . S
C3355 C3351 1.495 . S
C3355 H3361 0.959 . S
C3355 H3362 0.961 . S
C3355 H3363 0.960 . S
C3356 C3354 1.381 . S
C3356 C3357 1.394 . S
C3356 H3364 0.930 . S
C3357 C3356 1.394 . S
C3357 C3358 1.383 . S
C3357 H3365 0.929 . S
C3358 C3357 1.383 . S
C3358 C3359 1.377 . S
C3359 H3343 0.930 . S
C3359 C3358 1.377 . S
C3359 C3360 1.379 . S
C3360 H3344 0.931 . S
C3360 C3354 1.383 . S
C3360 C3359 1.379 . S
H3361 C3355 0.959 . S
H3362 C3355 0.961 . S
H3363 C3355 0.960 . S
H3364 C3356 0.930 . S
H3365 C3357 0.929 . S
H3366 C3374 0.918 1_455 S
H3367 C3376 0.930 . S
H3368 C3378 0.930 . S
H3369 C3381 0.929 . S
H3370 C3384 0.930 . S
H3371 C3386 0.960 . S
H3372 C3386 0.960 . S
H3373 C3386 0.960 . S
C3374 H3366 0.918 1_655 S
C3374 C3375 1.376 1_655 S
C3374 C3376 1.397 . S
C3375 C3374 1.376 1_455 S
C3375 C3381 1.390 . S
C3376 H3367 0.930 . S
C3376 C3374 1.397 . S
C3376 C3377 1.372 . S
C3377 C3376 1.372 . S
C3377 C3378 1.400 . S
C3377 C3382 1.490 . S
C3378 H3368 0.930 . S
C3378 C3377 1.400 . S
C3378 C3381 1.386 1_655 S
H3379 C3395 0.930 . S
H3380 C3396 0.931 . S
C3381 H3369 0.929 . S
C3381 C3375 1.390 . S
C3381 C3378 1.386 1_455 S
C3382 C3377 1.490 . S
C3382 C3384 1.395 . S
C3382 C3385 1.403 . S
H3383 C3389 0.930 . S
C3384 H3370 0.930 . S
C3384 C3382 1.395 . S
C3384 C3387 1.403 . S
C3385 C3382 1.403 . S
C3385 C3386 1.524 . S
C3385 C3389 1.400 . S
C3386 H3371 0.960 . S
C3386 H3372 0.960 . S
C3386 H3373 0.960 . S
C3386 C3385 1.524 . S
C3387 C3384 1.403 . S
C3387 C3388 1.392 . S
C3387 C3391 1.495 . S
C3388 C3387 1.392 . S
C3388 C3389 1.385 . S
C3388 C3390 1.478 . S
C3389 H3383 0.930 . S
C3389 C3385 1.400 . S
C3389 C3388 1.385 . S
C3390 C3388 1.478 . S
C3390 C3392 1.381 . S
C3390 C3396 1.383 . S
C3391 C3387 1.495 . S
C3391 H3397 0.959 . S
C3391 H3398 0.961 . S
C3391 H3399 0.960 . S
C3392 C3390 1.381 . S
C3392 C3393 1.394 . S
C3392 H3400 0.930 . S
C3393 C3392 1.394 . S
C3393 C3394 1.383 . S
C3393 H3401 0.929 . S
C3394 C3393 1.383 . S
C3394 C3395 1.377 . S
C3395 H3379 0.930 . S
C3395 C3394 1.377 . S
C3395 C3396 1.379 . S
C3396 H3380 0.931 . S
C3396 C3390 1.383 . S
C3396 C3395 1.379 . S
H3397 C3391 0.959 . S
H3398 C3391 0.961 . S
H3399 C3391 0.960 . S
H3400 C3392 0.930 . S
H3401 C3393 0.929 . S
H3402 C3410 0.929 . S
H3403 C3412 0.930 . S
H3404 C3414 0.930 . S
H3405 C3417 0.929 . S
H3406 C3420 0.930 . S
H3407 C3422 0.960 . S
H3408 C3422 0.960 . S
H3409 C3422 0.960 . S
C3410 H3402 0.929 . S
C3410 C3411 1.377 . S
C3410 C3412 1.384 . S
C3411 C3410 1.377 . S
C3411 C3417 1.390 . S
C3412 H3403 0.930 . S
C3412 C3410 1.384 . S
C3412 C3413 1.372 . S
C3413 C3412 1.372 . S
C3413 C3414 1.400 . S
C3413 C3418 1.490 . S
C3414 H3404 0.930 . S
C3414 C3413 1.400 . S
C3414 C3417 1.386 . S
H3415 C3431 0.930 . S
H3416 C3432 0.931 . S
C3417 H3405 0.929 . S
C3417 C3411 1.390 . S
C3417 C3414 1.386 . S
C3418 C3413 1.490 . S
C3418 C3420 1.395 . S
C3418 C3421 1.403 . S
H3419 C3425 0.930 . S
C3420 H3406 0.930 . S
C3420 C3418 1.395 . S
C3420 C3423 1.403 . S
C3421 C3418 1.403 . S
C3421 C3422 1.524 . S
C3421 C3425 1.400 . S
C3422 H3407 0.960 . S
C3422 H3408 0.960 . S
C3422 H3409 0.960 . S
C3422 C3421 1.524 . S
C3423 C3420 1.403 . S
C3423 C3424 1.392 . S
C3423 C3427 1.495 1_455 S
C3424 C3423 1.392 . S
C3424 C3425 1.385 . S
C3424 C3426 1.478 . S
C3425 H3419 0.930 . S
C3425 C3421 1.400 . S
C3425 C3424 1.385 . S
C3426 C3424 1.478 . S
C3426 C3428 1.381 . S
C3426 C3432 1.383 . S
C3427 C3423 1.495 1_655 S
C3427 H3433 0.959 . S
C3427 H3434 0.961 . S
C3427 H3435 0.960 . S
C3428 C3426 1.381 . S
C3428 C3429 1.394 . S
C3428 H3436 0.930 . S
C3429 C3428 1.394 . S
C3429 C3430 1.383 . S
C3429 H3437 0.937 . S
C3430 C3429 1.383 . S
C3430 C3431 1.377 . S
C3431 H3415 0.930 . S
C3431 C3430 1.377 . S
C3431 C3432 1.379 . S
C3432 H3416 0.931 . S
C3432 C3426 1.383 . S
C3432 C3431 1.379 . S
H3433 C3427 0.959 . S
H3434 C3427 0.961 . S
H3435 C3427 0.960 . S
H3436 C3428 0.930 . S
H3437 C3429 0.937 . S
H3438 C3446 0.929 . S
H3439 C3448 0.930 . S
H3440 C3450 0.930 . S
H3441 C3453 0.929 . S
H3442 C3456 0.930 . S
H3443 C3458 0.960 . S
H3444 C3458 0.960 . S
H3445 C3458 0.960 . S
C3446 H3438 0.929 . S
C3446 C3447 1.377 . S
C3446 C3448 1.384 . S
C3447 C3446 1.377 . S
C3447 C3453 1.390 . S
C3448 H3439 0.930 . S
C3448 C3446 1.384 . S
C3448 C3449 1.372 . S
C3449 C3448 1.372 . S
C3449 C3450 1.400 . S
C3449 C3454 1.490 . S
C3450 H3440 0.930 . S
C3450 C3449 1.400 . S
C3450 C3453 1.386 . S
H3451 C3467 0.930 . S
H3452 C3468 0.931 . S
C3453 H3441 0.929 . S
C3453 C3447 1.390 . S
C3453 C3450 1.386 . S
C3454 C3449 1.490 . S
C3454 C3456 1.395 . S
C3454 C3457 1.403 . S
H3455 C3461 0.930 . S
C3456 H3442 0.930 . S
C3456 C3454 1.395 . S
C3456 C3459 1.403 . S
C3457 C3454 1.403 . S
C3457 C3458 1.524 . S
C3457 C3461 1.400 . S
C3458 H3443 0.960 . S
C3458 H3444 0.960 . S
C3458 H3445 0.960 . S
C3458 C3457 1.524 . S
C3459 C3456 1.403 . S
C3459 C3460 1.392 . S
C3459 C3463 1.495 . S
C3460 C3459 1.392 . S
C3460 C3461 1.385 . S
C3460 C3462 1.478 . S
C3461 H3455 0.930 . S
C3461 C3457 1.400 . S
C3461 C3460 1.385 . S
C3462 C3460 1.478 . S
C3462 C3464 1.381 . S
C3462 C3468 1.383 . S
C3463 C3459 1.495 . S
C3463 H3469 0.959 . S
C3463 H3470 0.961 . S
C3463 H3471 0.960 . S
C3464 C3462 1.381 . S
C3464 C3465 1.394 . S
C3464 H3472 0.930 . S
C3465 C3464 1.394 . S
C3465 C3466 1.383 . S
C3465 H3473 0.929 . S
C3466 C3465 1.383 . S
C3466 C3467 1.377 . S
C3467 H3451 0.930 . S
C3467 C3466 1.377 . S
C3467 C3468 1.379 . S
C3468 H3452 0.931 . S
C3468 C3462 1.383 . S
C3468 C3467 1.379 . S
H3469 C3463 0.959 . S
H3470 C3463 0.961 . S
H3471 C3463 0.960 . S
H3472 C3464 0.930 . S
H3473 C3465 0.929 . S
H3474 C3482 0.929 . S
H3475 C3484 0.930 . S
H3476 C3486 0.930 . S
H3477 C3489 0.929 . S
H3478 C3492 0.930 . S
H3479 C3494 0.960 . S
H3480 C3494 0.960 . S
H3481 C3494 0.960 . S
C3482 H3474 0.929 . S
C3482 C3483 1.377 . S
C3482 C3484 1.384 . S
C3483 C3482 1.377 . S
C3483 C3489 1.390 . S
C3484 H3475 0.930 . S
C3484 C3482 1.384 . S
C3484 C3485 1.372 . S
C3485 C3484 1.372 . S
C3485 C3486 1.400 . S
C3485 C3490 1.490 . S
C3486 H3476 0.930 . S
C3486 C3485 1.400 . S
C3486 C3489 1.386 . S
H3487 C3503 0.930 . S
H3488 C3504 0.931 . S
C3489 H3477 0.929 . S
C3489 C3483 1.390 . S
C3489 C3486 1.386 . S
C3490 C3485 1.490 . S
C3490 C3492 1.395 . S
C3490 C3493 1.403 . S
H3491 C3497 0.930 . S
C3492 H3478 0.930 . S
C3492 C3490 1.395 . S
C3492 C3495 1.403 . S
C3493 C3490 1.403 . S
C3493 C3494 1.524 . S
C3493 C3497 1.400 . S
C3494 H3479 0.960 . S
C3494 H3480 0.960 . S
C3494 H3481 0.960 . S
C3494 C3493 1.524 . S
C3495 C3492 1.403 . S
C3495 C3496 1.392 . S
C3495 C3499 1.495 . S
C3496 C3495 1.392 . S
C3496 C3497 1.385 . S
C3496 C3498 1.478 . S
C3497 H3491 0.930 . S
C3497 C3493 1.400 . S
C3497 C3496 1.385 . S
C3498 C3496 1.478 . S
C3498 C3500 1.381 . S
C3498 C3504 1.383 . S
C3499 C3495 1.495 . S
C3499 H3505 0.959 . S
C3499 H3506 0.961 . S
C3499 H3507 0.960 . S
C3500 C3498 1.381 . S
C3500 C3501 1.394 . S
C3500 H3508 0.930 1_565 S
C3501 C3500 1.394 . S
C3501 C3502 1.383 . S
C3501 H3509 0.929 1_565 S
C3502 C3501 1.383 . S
C3502 C3503 1.377 . S
C3503 H3487 0.930 . S
C3503 C3502 1.377 . S
C3503 C3504 1.379 . S
C3504 H3488 0.931 . S
C3504 C3498 1.383 . S
C3504 C3503 1.379 . S
H3505 C3499 0.959 . S
H3506 C3499 0.961 . S
H3507 C3499 0.960 . S
H3508 C3500 0.930 1_545 S
H3509 C3501 0.929 1_545 S
H3510 C3518 0.929 . S
H3511 C3520 0.930 . S
H3512 C3522 0.930 . S
H3513 C3525 0.929 . S
H3514 C3528 0.930 . S
H3515 C3530 0.960 . S
H3516 C3530 0.960 . S
H3517 C3530 0.960 . S
C3518 H3510 0.929 . S
C3518 C3519 1.377 . S
C3518 C3520 1.384 . S
C3519 C3518 1.377 . S
C3519 C3525 1.390 . S
C3520 H3511 0.930 . S
C3520 C3518 1.384 . S
C3520 C3521 1.372 . S
C3521 C3520 1.372 . S
C3521 C3522 1.400 . S
C3521 C3526 1.490 . S
C3522 H3512 0.930 . S
C3522 C3521 1.400 . S
C3522 C3525 1.386 . S
H3523 C3539 0.929 . S
H3524 C3540 0.931 . S
C3525 H3513 0.929 . S
C3525 C3519 1.390 . S
C3525 C3522 1.386 . S
C3526 C3521 1.490 . S
C3526 C3528 1.395 . S
C3526 C3529 1.403 . S
H3527 C3533 0.903 1_545 S
C3528 H3514 0.930 . S
C3528 C3526 1.395 . S
C3528 C3531 1.403 . S
C3529 C3526 1.403 . S
C3529 C3530 1.524 1_565 S
C3529 C3533 1.414 . S
C3530 H3515 0.960 . S
C3530 H3516 0.960 . S
C3530 H3517 0.960 . S
C3530 C3529 1.524 1_545 S
C3531 C3528 1.403 . S
C3531 C3532 1.392 . S
C3531 C3535 1.495 . S
C3532 C3531 1.392 . S
C3532 C3533 1.397 . S
C3532 C3534 1.478 . S
C3533 H3527 0.903 1_565 S
C3533 C3529 1.414 . S
C3533 C3532 1.397 . S
C3534 C3532 1.478 . S
C3534 C3536 1.381 . S
C3534 C3540 1.383 . S
C3535 C3531 1.495 . S
C3535 H3541 0.959 . S
C3535 H3542 0.961 . S
C3535 H3543 0.960 . S
C3536 C3534 1.381 . S
C3536 C3537 1.394 . S
C3536 H3544 0.930 . S
C3537 C3536 1.394 . S
C3537 C3538 1.429 . S
C3537 H3545 0.929 . S
C3538 C3537 1.429 . S
C3538 C3539 1.384 . S
C3539 H3523 0.929 . S
C3539 C3538 1.384 . S
C3539 C3540 1.379 . S
C3540 H3524 0.931 . S
C3540 C3534 1.383 . S
C3540 C3539 1.379 . S
H3541 C3535 0.959 . S
H3542 C3535 0.961 . S
H3543 C3535 0.960 . S
H3544 C3536 0.930 . S
H3545 C3537 0.929 . S
H3546 C3554 0.929 . S
H3547 C3556 0.930 . S
H3548 C3558 0.977 . S
H3549 C3561 0.929 . S
H3550 C3564 0.930 . S
H3551 C3566 0.960 . S
H3552 C3566 0.960 1_455 S
H3553 C3566 0.960 . S
C3554 H3546 0.929 . S
C3554 C3555 1.377 . S
C3554 C3556 1.384 . S
C3555 C3554 1.377 . S
C3555 C3561 1.390 . S
C3556 H3547 0.930 . S
C3556 C3554 1.384 . S
C3556 C3557 1.372 . S
C3557 C3556 1.372 . S
C3557 C3558 1.400 . S
C3557 C3562 1.490 . S
C3558 H3548 0.977 . S
C3558 C3557 1.400 . S
C3558 C3561 1.386 . S
H3559 C3575 0.930 . S
H3560 C3576 0.931 . S
C3561 H3549 0.929 . S
C3561 C3555 1.390 . S
C3561 C3558 1.386 . S
C3562 C3557 1.490 . S
C3562 C3564 1.395 . S
C3562 C3565 1.403 . S
H3563 C3569 0.930 1_655 S
C3564 H3550 0.930 . S
C3564 C3562 1.395 . S
C3564 C3567 1.403 . S
C3565 C3562 1.403 . S
C3565 C3566 1.524 1_455 S
C3565 C3569 1.400 . S
C3566 H3551 0.960 . S
C3566 H3552 0.960 1_655 S
C3566 H3553 0.960 . S
C3566 C3565 1.524 1_655 S
C3567 C3564 1.403 . S
C3567 C3568 1.392 . S
C3567 C3571 1.495 . S
C3568 C3567 1.392 . S
C3568 C3569 1.385 . S
C3568 C3570 1.478 . S
C3569 H3563 0.930 1_455 S
C3569 C3565 1.400 . S
C3569 C3568 1.385 . S
C3570 C3568 1.478 . S
C3570 C3572 1.381 . S
C3570 C3576 1.383 1_455 S
C3571 C3567 1.495 . S
C3571 H3577 0.959 . S
C3571 H3578 0.961 . S
C3571 H3579 0.960 . S
C3572 C3570 1.381 . S
C3572 C3573 1.394 . S
C3572 H3580 0.930 . S
C3573 C3572 1.394 . S
C3573 C3574 1.378 1_455 S
C3573 H3581 0.929 . S
C3574 C3573 1.378 1_655 S
C3574 C3575 1.384 . S
C3575 H3559 0.930 . S
C3575 C3574 1.384 . S
C3575 C3576 1.379 . S
C3576 H3560 0.931 . S
C3576 C3570 1.383 1_655 S
C3576 C3575 1.379 . S
H3577 C3571 0.959 . S
H3578 C3571 0.961 . S
H3579 C3571 0.960 . S
H3580 C3572 0.930 . S
H3581 C3573 0.929 . S
H3582 C3590 0.929 . S
H3583 C3592 0.930 . S
H3584 C3594 0.930 . S
H3585 C3597 0.929 . S
H3586 C3600 0.930 . S
H3587 C3602 0.960 . S
H3588 C3602 0.960 . S
H3589 C3602 0.960 . S
C3590 H3582 0.929 . S
C3590 C3591 1.377 . S
C3590 C3592 1.384 . S
C3591 C3590 1.377 . S
C3591 C3597 1.390 . S
C3592 H3583 0.930 . S
C3592 C3590 1.384 . S
C3592 C3593 1.372 . S
C3593 C3592 1.372 . S
C3593 C3594 1.400 . S
C3593 C3598 1.490 . S
C3594 H3584 0.930 . S
C3594 C3593 1.400 . S
C3594 C3597 1.386 . S
H3595 C3611 0.930 . S
H3596 C3612 0.931 . S
C3597 H3585 0.929 . S
C3597 C3591 1.390 . S
C3597 C3594 1.386 . S
C3598 C3593 1.490 . S
C3598 C3600 1.395 . S
C3598 C3601 1.403 . S
H3599 C3605 0.930 . S
C3600 H3586 0.930 . S
C3600 C3598 1.395 . S
C3600 C3603 1.403 . S
C3601 C3598 1.403 . S
C3601 C3602 1.524 . S
C3601 C3605 1.400 . S
C3602 H3587 0.960 . S
C3602 H3588 0.960 . S
C3602 H3589 0.960 . S
C3602 C3601 1.524 . S
C3603 C3600 1.403 . S
C3603 C3604 1.392 . S
C3603 C3607 1.495 . S
C3604 C3603 1.392 . S
C3604 C3605 1.385 . S
C3604 C3606 1.478 . S
C3605 H3599 0.930 . S
C3605 C3601 1.400 . S
C3605 C3604 1.385 . S
C3606 C3604 1.478 . S
C3606 C3608 1.381 . S
C3606 C3612 1.383 . S
C3607 C3603 1.495 . S
C3607 H3613 0.959 . S
C3607 H3614 0.961 . S
C3607 H3615 0.960 . S
C3608 C3606 1.381 . S
C3608 C3609 1.394 . S
C3608 H3616 0.930 . S
C3609 C3608 1.394 . S
C3609 C3610 1.383 . S
C3609 H3617 0.929 . S
C3610 C3609 1.383 . S
C3610 C3611 1.377 . S
C3611 H3595 0.930 . S
C3611 C3610 1.377 . S
C3611 C3612 1.379 . S
C3612 H3596 0.931 . S
C3612 C3606 1.383 . S
C3612 C3611 1.379 . S
H3613 C3607 0.959 . S
H3614 C3607 0.961 . S
H3615 C3607 0.960 . S
H3616 C3608 0.930 . S
H3617 C3609 0.929 . S
H3618 C3626 0.929 . S
H3619 C3628 0.930 . S
H3620 C3630 0.930 . S
H3621 C3633 0.929 . S
H3622 C3636 0.930 . S
H3623 C3638 0.960 . S
H3624 C3638 0.960 . S
H3625 C3638 0.960 . S
C3626 H3618 0.929 . S
C3626 C3627 1.377 . S
C3626 C3628 1.384 . S
C3627 C3626 1.377 . S
C3627 C3633 1.390 . S
C3628 H3619 0.930 . S
C3628 C3626 1.384 . S
C3628 C3629 1.372 . S
C3629 C3628 1.372 . S
C3629 C3630 1.400 . S
C3629 C3634 1.490 . S
C3630 H3620 0.930 . S
C3630 C3629 1.400 . S
C3630 C3633 1.386 . S
H3631 C3647 0.930 . S
H3632 C3648 0.931 . S
C3633 H3621 0.929 . S
C3633 C3627 1.390 . S
C3633 C3630 1.386 . S
C3634 C3629 1.490 . S
C3634 C3636 1.395 . S
C3634 C3637 1.403 . S
H3635 C3641 0.930 . S
C3636 H3622 0.930 . S
C3636 C3634 1.395 . S
C3636 C3639 1.403 . S
C3637 C3634 1.403 . S
C3637 C3638 1.524 . S
C3637 C3641 1.400 . S
C3638 H3623 0.960 . S
C3638 H3624 0.960 . S
C3638 H3625 0.960 . S
C3638 C3637 1.524 . S
C3639 C3636 1.403 . S
C3639 C3640 1.392 . S
C3639 C3643 1.495 . S
C3640 C3639 1.392 . S
C3640 C3641 1.385 . S
C3640 C3642 1.478 . S
C3641 H3635 0.930 . S
C3641 C3637 1.400 . S
C3641 C3640 1.385 . S
C3642 C3640 1.478 . S
C3642 C3644 1.381 . S
C3642 C3648 1.383 . S
C3643 C3639 1.495 . S
C3643 H3649 0.959 . S
C3643 H3650 0.961 . S
C3643 H3651 0.960 . S
C3644 C3642 1.381 . S
C3644 C3645 1.394 . S
C3644 H3652 0.930 . S
C3645 C3644 1.394 . S
C3645 C3646 1.383 . S
C3645 H3653 0.929 . S
C3646 C3645 1.383 . S
C3646 C3647 1.377 . S
C3647 H3631 0.930 . S
C3647 C3646 1.377 . S
C3647 C3648 1.379 . S
C3648 H3632 0.931 . S
C3648 C3642 1.383 . S
C3648 C3647 1.379 . S
H3649 C3643 0.959 . S
H3650 C3643 0.961 . S
H3651 C3643 0.960 . S
H3652 C3644 0.930 . S
H3653 C3645 0.929 . S
H3654 C3662 0.929 . S
H3655 C3664 0.930 . S
H3656 C3666 0.930 . S
H3657 C3669 0.946 . S
H3658 C3672 0.930 . S
H3659 C3674 0.960 . S
H3660 C3674 0.960 . S
H3661 C3674 0.960 . S
C3662 H3654 0.929 . S
C3662 C3663 1.377 . S
C3662 C3664 1.384 . S
C3663 C3662 1.377 . S
C3663 C3669 1.390 . S
C3664 H3655 0.930 . S
C3664 C3662 1.384 . S
C3664 C3665 1.372 . S
C3665 C3664 1.372 . S
C3665 C3666 1.400 . S
C3665 C3670 1.490 . S
C3666 H3656 0.930 . S
C3666 C3665 1.400 . S
C3666 C3669 1.386 . S
H3667 C3683 0.930 . S
H3668 C3684 0.931 . S
C3669 H3657 0.946 . S
C3669 C3663 1.390 . S
C3669 C3666 1.386 . S
C3670 C3665 1.490 . S
C3670 C3672 1.395 . S
C3670 C3673 1.403 . S
H3671 C3677 0.930 . S
C3672 H3658 0.930 . S
C3672 C3670 1.395 . S
C3672 C3675 1.403 . S
C3673 C3670 1.403 . S
C3673 C3674 1.524 . S
C3673 C3677 1.400 . S
C3674 H3659 0.960 . S
C3674 H3660 0.960 . S
C3674 H3661 0.960 . S
C3674 C3673 1.524 . S
C3675 C3672 1.403 . S
C3675 C3676 1.392 . S
C3675 C3679 1.495 . S
C3676 C3675 1.392 . S
C3676 C3677 1.385 . S
C3676 C3678 1.478 . S
C3677 H3671 0.930 . S
C3677 C3673 1.400 . S
C3677 C3676 1.385 . S
C3678 C3676 1.478 . S
C3678 C3680 1.381 . S
C3678 C3684 1.383 . S
C3679 C3675 1.495 . S
C3679 H3685 0.959 . S
C3679 H3686 0.961 . S
C3679 H3687 0.960 . S
C3680 C3678 1.381 . S
C3680 C3681 1.394 . S
C3680 H3688 0.930 . S
C3681 C3680 1.394 . S
C3681 C3682 1.383 . S
C3681 H3689 0.929 . S
C3682 C3681 1.383 . S
C3682 C3683 1.377 . S
C3683 H3667 0.930 . S
C3683 C3682 1.377 . S
C3683 C3684 1.379 . S
C3684 H3668 0.931 . S
C3684 C3678 1.383 . S
C3684 C3683 1.379 . S
H3685 C3679 0.959 . S
H3686 C3679 0.961 . S
H3687 C3679 0.960 . S
H3688 C3680 0.930 . S
H3689 C3681 0.929 . S
H3690 C3698 0.929 1_455 S
H3691 C3700 0.930 . S
H3692 C3702 0.930 . S
H3693 C3705 0.929 . S
H3694 C3708 0.930 . S
H3695 C3710 0.960 . S
H3696 C3710 0.960 . S
H3697 C3710 0.960 . S
C3698 H3690 0.929 1_655 S
C3698 C3699 1.377 . S
C3698 C3700 1.384 . S
C3699 C3698 1.377 . S
C3699 C3705 1.390 . S
C3700 H3691 0.930 . S
C3700 C3698 1.384 . S
C3700 C3701 1.372 . S
C3701 C3700 1.372 . S
C3701 C3702 1.400 . S
C3701 C3706 1.490 . S
C3702 H3692 0.930 . S
C3702 C3701 1.400 . S
C3702 C3705 1.386 . S
H3703 C3719 0.930 . S
H3704 C3720 0.931 . S
C3705 H3693 0.929 . S
C3705 C3699 1.390 . S
C3705 C3702 1.386 . S
C3706 C3701 1.490 . S
C3706 C3708 1.395 . S
C3706 C3709 1.403 . S
H3707 C3713 0.930 . S
C3708 H3694 0.930 . S
C3708 C3706 1.395 . S
C3708 C3711 1.403 . S
C3709 C3706 1.403 . S
C3709 C3710 1.524 . S
C3709 C3713 1.400 . S
C3710 H3695 0.960 . S
C3710 H3696 0.960 . S
C3710 H3697 0.960 . S
C3710 C3709 1.524 . S
C3711 C3708 1.403 . S
C3711 C3712 1.392 . S
C3711 C3715 1.495 . S
C3712 C3711 1.392 . S
C3712 C3713 1.385 . S
C3712 C3714 1.478 . S
C3713 H3707 0.930 . S
C3713 C3709 1.400 . S
C3713 C3712 1.385 . S
C3714 C3712 1.478 . S
C3714 C3716 1.381 . S
C3714 C3720 1.383 . S
C3715 C3711 1.495 . S
C3715 H3721 0.959 . S
C3715 H3722 0.961 . S
C3715 H3723 0.960 . S
C3716 C3714 1.381 . S
C3716 C3717 1.394 . S
C3716 H3724 0.930 . S
C3717 C3716 1.394 . S
C3717 C3718 1.383 . S
C3717 H3725 0.929 . S
C3718 C3717 1.383 . S
C3718 C3719 1.377 . S
C3719 H3703 0.930 . S
C3719 C3718 1.377 . S
C3719 C3720 1.379 . S
C3720 H3704 0.931 . S
C3720 C3714 1.383 . S
C3720 C3719 1.379 . S
H3721 C3715 0.959 . S
H3722 C3715 0.961 . S
H3723 C3715 0.960 . S
H3724 C3716 0.930 . S
H3725 C3717 0.929 . S
H3726 C3734 0.929 . S
H3727 C3736 0.930 . S
H3728 C3738 0.930 . S
H3729 C3741 0.929 . S
H3730 C3744 0.930 . S
H3731 C3746 0.960 . S
H3732 C3746 0.960 . S
H3733 C3746 0.960 . S
C3734 H3726 0.929 . S
C3734 C3735 1.377 . S
C3734 C3736 1.384 . S
C3735 C3734 1.377 . S
C3735 C3741 1.390 . S
C3736 H3727 0.930 . S
C3736 C3734 1.384 . S
C3736 C3737 1.372 . S
C3737 C3736 1.372 . S
C3737 C3738 1.400 . S
C3737 C3742 1.490 . S
C3738 H3728 0.930 . S
C3738 C3737 1.400 . S
C3738 C3741 1.386 . S
H3739 C3755 0.930 . S
H3740 C3756 0.931 . S
C3741 H3729 0.929 . S
C3741 C3735 1.390 . S
C3741 C3738 1.386 . S
C3742 C3737 1.490 . S
C3742 C3744 1.395 . S
C3742 C3745 1.403 . S
H3743 C3749 0.930 1_565 S
C3744 H3730 0.930 . S
C3744 C3742 1.395 . S
C3744 C3747 1.403 . S
C3745 C3742 1.403 . S
C3745 C3746 1.524 1_545 S
C3745 C3749 1.400 . S
C3746 H3731 0.960 . S
C3746 H3732 0.960 . S
C3746 H3733 0.960 . S
C3746 C3745 1.524 1_565 S
C3747 C3744 1.403 . S
C3747 C3748 1.392 . S
C3747 C3751 1.495 . S
C3748 C3747 1.392 . S
C3748 C3749 1.385 . S
C3748 C3750 1.478 . S
C3749 H3743 0.930 1_545 S
C3749 C3745 1.400 . S
C3749 C3748 1.385 . S
C3750 C3748 1.478 . S
C3750 C3752 1.381 . S
C3750 C3756 1.383 . S
C3751 C3747 1.495 . S
C3751 H3757 0.959 . S
C3751 H3758 0.961 . S
C3751 H3759 0.960 . S
C3752 C3750 1.381 . S
C3752 C3753 1.394 . S
C3752 H3760 0.930 . S
C3753 C3752 1.394 . S
C3753 C3754 1.383 . S
C3753 H3761 0.929 . S
C3754 C3753 1.383 . S
C3754 C3755 1.377 . S
C3755 H3739 0.930 . S
C3755 C3754 1.377 . S
C3755 C3756 1.379 . S
C3756 H3740 0.931 . S
C3756 C3750 1.383 . S
C3756 C3755 1.379 . S
H3757 C3751 0.959 . S
H3758 C3751 0.961 . S
H3759 C3751 0.960 . S
H3760 C3752 0.930 . S
H3761 C3753 0.929 . S
H3762 C3770 0.929 . S
H3763 C3772 0.930 . S
H3764 C3774 0.930 . S
H3765 C3777 0.929 . S
H3766 C3780 0.930 1_455 S
H3767 C3782 0.960 . S
H3768 C3782 0.960 . S
H3769 C3782 0.960 . S
C3770 H3762 0.929 . S
C3770 C3771 1.377 . S
C3770 C3772 1.384 . S
C3771 C3770 1.377 . S
C3771 C3777 1.390 . S
C3772 H3763 0.930 . S
C3772 C3770 1.384 . S
C3772 C3773 1.372 . S
C3773 C3772 1.372 . S
C3773 C3774 1.400 . S
C3773 C3778 1.490 . S
C3774 H3764 0.930 . S
C3774 C3773 1.400 . S
C3774 C3777 1.386 . S
H3775 C3791 0.930 . S
H3776 C3792 0.931 . S
C3777 H3765 0.929 . S
C3777 C3771 1.390 . S
C3777 C3774 1.386 . S
C3778 C3773 1.490 . S
C3778 C3780 1.395 . S
C3778 C3781 1.403 . S
H3779 C3785 0.930 . S
C3780 H3766 0.930 1_655 S
C3780 C3778 1.395 . S
C3780 C3783 1.403 . S
C3781 C3778 1.403 . S
C3781 C3782 1.524 . S
C3781 C3785 1.400 . S
C3782 H3767 0.960 . S
C3782 H3768 0.960 . S
C3782 H3769 0.960 . S
C3782 C3781 1.524 . S
C3783 C3780 1.403 . S
C3783 C3784 1.392 . S
C3783 C3787 1.495 1_655 S
C3784 C3783 1.392 . S
C3784 C3785 1.385 . S
C3784 C3786 1.478 . S
C3785 H3779 0.930 . S
C3785 C3781 1.400 . S
C3785 C3784 1.385 . S
C3786 C3784 1.478 . S
C3786 C3788 1.381 . S
C3786 C3792 1.383 . S
C3787 C3783 1.495 1_455 S
C3787 H3793 0.959 . S
C3787 H3794 0.961 . S
C3787 H3795 0.960 . S
C3788 C3786 1.381 . S
C3788 C3789 1.394 . S
C3788 H3796 0.930 . S
C3789 C3788 1.394 . S
C3789 C3790 1.383 . S
C3789 H3797 0.929 . S
C3790 C3789 1.383 . S
C3790 C3791 1.377 . S
C3791 H3775 0.930 . S
C3791 C3790 1.377 . S
C3791 C3792 1.379 . S
C3792 H3776 0.931 . S
C3792 C3786 1.383 . S
C3792 C3791 1.379 . S
H3793 C3787 0.959 . S
H3794 C3787 0.961 . S
H3795 C3787 0.960 . S
H3796 C3788 0.930 . S
H3797 C3789 0.929 . S
H3798 C3806 0.929 . S
H3799 C3808 0.930 . S
H3800 C3810 0.930 . S
H3801 C3813 0.929 . S
H3802 C3816 0.930 . S
H3803 C3818 0.960 . S
H3804 C3818 0.960 . S
H3805 C3818 0.960 . S
C3806 H3798 0.929 . S
C3806 C3807 1.377 . S
C3806 C3808 1.384 . S
C3807 C3806 1.377 . S
C3807 C3813 1.390 . S
C3808 H3799 0.930 . S
C3808 C3806 1.384 . S
C3808 C3809 1.372 . S
C3809 C3808 1.372 . S
C3809 C3810 1.400 . S
C3809 C3814 1.490 . S
C3810 H3800 0.930 . S
C3810 C3809 1.400 . S
C3810 C3813 1.386 . S
H3811 C3827 0.930 . S
H3812 C3828 0.931 . S
C3813 H3801 0.929 . S
C3813 C3807 1.390 . S
C3813 C3810 1.386 . S
C3814 C3809 1.490 . S
C3814 C3816 1.395 . S
C3814 C3817 1.403 . S
H3815 C3821 0.930 . S
C3816 H3802 0.930 . S
C3816 C3814 1.395 . S
C3816 C3819 1.403 . S
C3817 C3814 1.403 . S
C3817 C3818 1.524 . S
C3817 C3821 1.400 . S
C3818 H3803 0.960 . S
C3818 H3804 0.960 . S
C3818 H3805 0.960 . S
C3818 C3817 1.524 . S
C3819 C3816 1.403 . S
C3819 C3820 1.392 . S
C3819 C3823 1.495 . S
C3820 C3819 1.392 . S
C3820 C3821 1.385 . S
C3820 C3822 1.478 . S
C3821 H3815 0.930 . S
C3821 C3817 1.400 . S
C3821 C3820 1.385 . S
C3822 C3820 1.478 . S
C3822 C3824 1.381 . S
C3822 C3828 1.383 . S
C3823 C3819 1.495 . S
C3823 H3829 0.959 . S
C3823 H3830 0.961 . S
C3823 H3831 0.960 . S
C3824 C3822 1.381 . S
C3824 C3825 1.394 . S
C3824 H3832 0.930 . S
C3825 C3824 1.394 . S
C3825 C3826 1.383 . S
C3825 H3833 0.929 . S
C3826 C3825 1.383 . S
C3826 C3827 1.377 . S
C3827 H3811 0.930 . S
C3827 C3826 1.377 . S
C3827 C3828 1.379 . S
C3828 H3812 0.931 . S
C3828 C3822 1.383 . S
C3828 C3827 1.379 . S
H3829 C3823 0.959 . S
H3830 C3823 0.961 . S
H3831 C3823 0.960 . S
H3832 C3824 0.930 . S
H3833 C3825 0.929 . S
H3834 C3842 0.929 . S
H3835 C3844 0.930 . S
H3836 C3846 0.930 . S
H3837 C3849 0.929 . S
H3838 C3852 0.930 . S
H3839 C3854 0.960 . S
H3840 C3854 0.960 . S
H3841 C3854 0.960 . S
C3842 H3834 0.929 . S
C3842 C3843 1.377 . S
C3842 C3844 1.384 . S
C3843 C3842 1.377 . S
C3843 C3849 1.390 . S
C3844 H3835 0.930 . S
C3844 C3842 1.384 . S
C3844 C3845 1.372 . S
C3845 C3844 1.372 . S
C3845 C3846 1.400 . S
C3845 C3850 1.490 . S
C3846 H3836 0.930 . S
C3846 C3845 1.400 . S
C3846 C3849 1.386 . S
H3847 C3863 0.930 . S
H3848 C3864 0.931 . S
C3849 H3837 0.929 . S
C3849 C3843 1.390 . S
C3849 C3846 1.386 . S
C3850 C3845 1.490 . S
C3850 C3852 1.395 . S
C3850 C3853 1.403 . S
H3851 C3857 0.930 . S
C3852 H3838 0.930 . S
C3852 C3850 1.395 . S
C3852 C3855 1.403 . S
C3853 C3850 1.403 . S
C3853 C3854 1.524 . S
C3853 C3857 1.400 . S
C3854 H3839 0.960 . S
C3854 H3840 0.960 . S
C3854 H3841 0.960 . S
C3854 C3853 1.524 . S
C3855 C3852 1.403 . S
C3855 C3856 1.392 . S
C3855 C3859 1.495 . S
C3856 C3855 1.392 . S
C3856 C3857 1.385 . S
C3856 C3858 1.478 . S
C3857 H3851 0.930 . S
C3857 C3853 1.400 . S
C3857 C3856 1.385 . S
C3858 C3856 1.478 . S
C3858 C3860 1.381 . S
C3858 C3864 1.383 . S
C3859 C3855 1.495 . S
C3859 H3865 0.959 . S
C3859 H3866 0.961 . S
C3859 H3867 0.960 . S
C3860 C3858 1.381 . S
C3860 C3861 1.394 . S
C3860 H3868 0.930 . S
C3861 C3860 1.394 . S
C3861 C3862 1.383 . S
C3861 H3869 0.929 . S
C3862 C3861 1.383 . S
C3862 C3863 1.377 . S
C3863 H3847 0.930 . S
C3863 C3862 1.377 . S
C3863 C3864 1.379 . S
C3864 H3848 0.931 . S
C3864 C3858 1.383 . S
C3864 C3863 1.379 . S
H3865 C3859 0.959 . S
H3866 C3859 0.961 . S
H3867 C3859 0.960 . S
H3868 C3860 0.930 . S
H3869 C3861 0.929 . S
H3870 C3878 0.929 . S
H3871 C3880 0.930 . S
H3872 C3882 0.930 . S
H3873 C3885 0.929 1_545 S
H3874 C3888 0.930 . S
H3875 C3890 0.960 . S
H3876 C3890 0.960 . S
H3877 C3890 0.960 . S
C3878 H3870 0.929 . S
C3878 C3879 1.377 . S
C3878 C3880 1.384 . S
C3879 C3878 1.377 . S
C3879 C3885 1.390 . S
C3880 H3871 0.930 . S
C3880 C3878 1.384 . S
C3880 C3881 1.372 . S
C3881 C3880 1.372 . S
C3881 C3882 1.400 . S
C3881 C3886 1.490 . S
C3882 H3872 0.930 . S
C3882 C3881 1.400 . S
C3882 C3885 1.386 . S
H3883 C3899 0.930 . S
H3884 C3900 0.931 . S
C3885 H3873 0.929 1_565 S
C3885 C3879 1.390 . S
C3885 C3882 1.386 . S
C3886 C3881 1.490 . S
C3886 C3888 1.395 . S
C3886 C3889 1.403 . S
H3887 C3893 0.930 . S
C3888 H3874 0.930 . S
C3888 C3886 1.395 . S
C3888 C3891 1.403 . S
C3889 C3886 1.403 . S
C3889 C3890 1.524 . S
C3889 C3893 1.400 . S
C3890 H3875 0.960 . S
C3890 H3876 0.960 . S
C3890 H3877 0.960 . S
C3890 C3889 1.524 . S
C3891 C3888 1.403 . S
C3891 C3892 1.392 . S
C3891 C3895 1.495 . S
C3892 C3891 1.392 . S
C3892 C3893 1.385 . S
C3892 C3894 1.478 . S
C3893 H3887 0.930 . S
C3893 C3889 1.400 . S
C3893 C3892 1.385 . S
C3894 C3892 1.478 . S
C3894 C3896 1.381 . S
C3894 C3900 1.383 . S
C3895 C3891 1.495 . S
C3895 H3901 0.959 . S
C3895 H3902 0.961 . S
C3895 H3903 0.960 . S
C3896 C3894 1.381 . S
C3896 C3897 1.394 . S
C3896 H3904 0.930 . S
C3897 C3896 1.394 . S
C3897 C3898 1.383 . S
C3897 H3905 0.929 . S
C3898 C3897 1.383 . S
C3898 C3899 1.377 . S
C3899 H3883 0.930 . S
C3899 C3898 1.377 . S
C3899 C3900 1.379 . S
C3900 H3884 0.931 . S
C3900 C3894 1.383 . S
C3900 C3899 1.379 . S
H3901 C3895 0.959 . S
H3902 C3895 0.961 . S
H3903 C3895 0.960 . S
H3904 C3896 0.930 . S
H3905 C3897 0.929 . S
H3906 C3914 0.929 1_655 S
H3907 C3916 0.930 . S
H3908 C3918 0.930 . S
H3909 C3921 0.929 . S
H3910 C3924 0.930 . S
H3911 C3926 0.960 . S
H3912 C3926 0.960 . S
H3913 C3926 0.960 . S
C3914 H3906 0.929 1_455 S
C3914 C3915 1.377 . S
C3914 C3916 1.384 . S
C3915 C3914 1.377 . S
C3915 C3921 1.390 . S
C3916 H3907 0.930 . S
C3916 C3914 1.384 . S
C3916 C3917 1.372 . S
C3917 C3916 1.372 . S
C3917 C3918 1.400 . S
C3917 C3922 1.490 . S
C3918 H3908 0.930 . S
C3918 C3917 1.400 . S
C3918 C3921 1.386 . S
H3919 C3935 0.930 . S
H3920 C3936 0.931 . S
C3921 H3909 0.929 . S
C3921 C3915 1.390 . S
C3921 C3918 1.386 . S
C3922 C3917 1.490 . S
C3922 C3924 1.395 . S
C3922 C3925 1.403 . S
H3923 C3929 0.930 . S
C3924 H3910 0.930 . S
C3924 C3922 1.395 . S
C3924 C3927 1.403 . S
C3925 C3922 1.403 . S
C3925 C3926 1.524 . S
C3925 C3929 1.400 . S
C3926 H3911 0.960 . S
C3926 H3912 0.960 . S
C3926 H3913 0.960 . S
C3926 C3925 1.524 . S
C3927 C3924 1.403 . S
C3927 C3928 1.392 . S
C3927 C3931 1.495 . S
C3928 C3927 1.392 . S
C3928 C3929 1.385 . S
C3928 C3930 1.478 . S
C3929 H3923 0.930 . S
C3929 C3925 1.400 . S
C3929 C3928 1.385 . S
C3930 C3928 1.478 . S
C3930 C3932 1.381 . S
C3930 C3936 1.383 . S
C3931 C3927 1.495 . S
C3931 H3937 0.959 . S
C3931 H3938 0.961 . S
C3931 H3939 0.960 . S
C3932 C3930 1.381 . S
C3932 C3933 1.394 . S
C3932 H3940 0.930 . S
C3933 C3932 1.394 . S
C3933 C3934 1.383 . S
C3933 H3941 0.929 . S
C3934 C3933 1.383 . S
C3934 C3935 1.377 . S
C3935 H3919 0.930 . S
C3935 C3934 1.377 . S
C3935 C3936 1.379 . S
C3936 H3920 0.931 . S
C3936 C3930 1.383 . S
C3936 C3935 1.379 . S
H3937 C3931 0.959 . S
H3938 C3931 0.961 . S
H3939 C3931 0.960 . S
H3940 C3932 0.930 . S
H3941 C3933 0.929 . S
H3942 C3950 0.929 . S
H3943 C3952 0.930 . S
H3944 C3954 0.930 . S
H3945 C3957 0.929 . S
H3946 C3960 0.930 . S
H3947 C3962 0.960 . S
H3948 C3962 0.960 . S
H3949 C3962 0.960 . S
C3950 H3942 0.929 . S
C3950 C3951 1.377 . S
C3950 C3952 1.384 . S
C3951 C3950 1.377 . S
C3951 C3957 1.390 . S
C3952 H3943 0.930 . S
C3952 C3950 1.384 . S
C3952 C3953 1.372 . S
C3953 C3952 1.372 . S
C3953 C3954 1.400 . S
C3953 C3958 1.490 . S
C3954 H3944 0.930 . S
C3954 C3953 1.400 . S
C3954 C3957 1.386 . S
H3955 C3971 0.930 . S
H3956 C3972 0.931 . S
C3957 H3945 0.929 . S
C3957 C3951 1.390 . S
C3957 C3954 1.386 . S
C3958 C3953 1.490 . S
C3958 C3960 1.395 . S
C3958 C3961 1.403 . S
H3959 C3965 0.930 . S
C3960 H3946 0.930 . S
C3960 C3958 1.395 . S
C3960 C3963 1.403 . S
C3961 C3958 1.403 . S
C3961 C3962 1.524 . S
C3961 C3965 1.400 . S
C3962 H3947 0.960 . S
C3962 H3948 0.960 . S
C3962 H3949 0.960 . S
C3962 C3961 1.524 . S
C3963 C3960 1.403 . S
C3963 C3964 1.392 . S
C3963 C3967 1.495 . S
C3964 C3963 1.392 . S
C3964 C3965 1.385 . S
C3964 C3966 1.478 . S
C3965 H3959 0.930 . S
C3965 C3961 1.400 . S
C3965 C3964 1.385 . S
C3966 C3964 1.478 . S
C3966 C3968 1.381 . S
C3966 C3972 1.383 . S
C3967 C3963 1.495 . S
C3967 H3973 0.959 . S
C3967 H3974 0.961 . S
C3967 H3975 0.960 . S
C3968 C3966 1.381 . S
C3968 C3969 1.394 . S
C3968 H3976 0.930 . S
C3969 C3968 1.394 . S
C3969 C3970 1.383 . S
C3969 H3977 0.929 . S
C3970 C3969 1.383 . S
C3970 C3971 1.377 . S
C3971 H3955 0.930 . S
C3971 C3970 1.377 . S
C3971 C3972 1.379 . S
C3972 H3956 0.931 . S
C3972 C3966 1.383 . S
C3972 C3971 1.379 . S
H3973 C3967 0.959 . S
H3974 C3967 0.961 . S
H3975 C3967 0.960 . S
H3976 C3968 0.930 . S
H3977 C3969 0.929 . S
H3978 C3986 0.929 . S
H3979 C3988 0.930 . S
H3980 C3990 0.930 . S
H3981 C3993 0.929 . S
H3982 C3996 0.930 . S
H3983 C3998 0.960 . S
H3984 C3998 0.960 . S
H3985 C3998 0.960 . S
C3986 H3978 0.929 . S
C3986 C3987 1.411 . S
C3986 C3988 1.384 . S
C3987 C3986 1.411 . S
C3987 C3993 1.389 . S
C3988 H3979 0.930 . S
C3988 C3986 1.384 . S
C3988 C3989 1.372 . S
C3989 C3988 1.372 . S
C3989 C3990 1.400 . S
C3989 C3994 1.490 . S
C3990 H3980 0.930 . S
C3990 C3989 1.400 . S
C3990 C3993 1.386 . S
H3991 C4007 0.930 . S
H3992 C4008 0.931 . S
C3993 H3981 0.929 . S
C3993 C3987 1.389 . S
C3993 C3990 1.386 . S
C3994 C3989 1.490 . S
C3994 C3996 1.395 . S
C3994 C3997 1.403 . S
H3995 C4001 0.930 . S
C3996 H3982 0.930 . S
C3996 C3994 1.395 . S
C3996 C3999 1.403 . S
C3997 C3994 1.403 . S
C3997 C3998 1.524 . S
C3997 C4001 1.400 . S
C3998 H3983 0.960 . S
C3998 H3984 0.960 . S
C3998 H3985 0.960 . S
C3998 C3997 1.524 . S
C3999 C3996 1.403 . S
C3999 C4000 1.392 . S
C3999 C4003 1.495 . S
C4000 C3999 1.392 . S
C4000 C4001 1.385 . S
C4000 C4002 1.478 . S
C4001 H3995 0.930 . S
C4001 C3997 1.400 . S
C4001 C4000 1.385 . S
C4002 C4000 1.478 . S
C4002 C4004 1.381 . S
C4002 C4008 1.383 . S
C4003 C3999 1.495 . S
C4003 H4009 0.959 . S
C4003 H4010 0.961 . S
C4003 H4011 0.960 . S
C4004 C4002 1.381 . S
C4004 C4005 1.394 . S
C4004 H4012 0.930 . S
C4005 C4004 1.394 . S
C4005 C4006 1.383 . S
C4005 H4013 0.929 . S
C4006 C4005 1.383 . S
C4006 C4007 1.377 . S
C4007 H3991 0.930 . S
C4007 C4006 1.377 . S
C4007 C4008 1.379 . S
C4008 H3992 0.931 . S
C4008 C4002 1.383 . S
C4008 C4007 1.379 . S
H4009 C4003 0.959 . S
H4010 C4003 0.961 . S
H4011 C4003 0.960 . S
H4012 C4004 0.930 . S
H4013 C4005 0.929 . S
H4014 C4022 0.929 . S
H4015 C4024 0.930 . S
H4016 C4026 0.930 . S
H4017 C4029 0.929 . S
H4018 C4032 0.930 . S
H4019 C4034 0.960 . S
H4020 C4034 0.960 . S
H4021 C4034 0.960 . S
C4022 H4014 0.929 . S
C4022 C4023 1.377 . S
C4022 C4024 1.384 1_655 S
C4023 C4022 1.377 . S
C4023 C4029 1.390 1_655 S
C4024 H4015 0.930 . S
C4024 C4022 1.384 1_455 S
C4024 C4025 1.372 . S
C4025 C4024 1.372 . S
C4025 C4026 1.400 . S
C4025 C4030 1.490 . S
C4026 H4016 0.930 . S
C4026 C4025 1.400 . S
C4026 C4029 1.386 . S
H4027 C4043 0.930 . S
H4028 C4044 0.931 . S
C4029 H4017 0.929 . S
C4029 C4023 1.390 1_455 S
C4029 C4026 1.386 . S
C4030 C4025 1.490 . S
C4030 C4032 1.395 . S
C4030 C4033 1.403 . S
H4031 C4037 0.930 . S
C4032 H4018 0.930 . S
C4032 C4030 1.395 . S
C4032 C4035 1.403 . S
C4033 C4030 1.403 . S
C4033 C4034 1.524 . S
C4033 C4037 1.400 . S
C4034 H4019 0.960 . S
C4034 H4020 0.960 . S
C4034 H4021 0.960 . S
C4034 C4033 1.524 . S
C4035 C4032 1.403 . S
C4035 C4036 1.392 . S
C4035 C4039 1.495 . S
C4036 C4035 1.392 . S
C4036 C4037 1.385 . S
C4036 C4038 1.478 . S
C4037 H4031 0.930 . S
C4037 C4033 1.400 . S
C4037 C4036 1.385 . S
C4038 C4036 1.478 . S
C4038 C4040 1.381 . S
C4038 C4044 1.383 . S
C4039 C4035 1.495 . S
C4039 H4045 0.959 . S
C4039 H4046 0.961 . S
C4039 H4047 0.960 . S
C4040 C4038 1.381 . S
C4040 C4041 1.394 . S
C4040 H4048 0.930 . S
C4041 C4040 1.394 . S
C4041 C4042 1.383 . S
C4041 H4049 0.929 . S
C4042 C4041 1.383 . S
C4042 C4043 1.377 . S
C4043 H4027 0.930 . S
C4043 C4042 1.377 . S
C4043 C4044 1.379 . S
C4044 H4028 0.931 . S
C4044 C4038 1.383 . S
C4044 C4043 1.379 . S
H4045 C4039 0.959 . S
H4046 C4039 0.961 . S
H4047 C4039 0.960 . S
H4048 C4040 0.930 . S
H4049 C4041 0.929 . S
H4050 C4058 0.929 . S
H4051 C4060 0.930 . S
H4052 C4062 0.930 . S
H4053 C4065 0.929 . S
H4054 C4068 0.930 . S
H4055 C4070 0.960 . S
H4056 C4070 0.960 . S
H4057 C4070 0.960 . S
C4058 H4050 0.929 . S
C4058 C4059 1.377 . S
C4058 C4060 1.384 . S
C4059 C4058 1.377 . S
C4059 C4065 1.390 . S
C4060 H4051 0.930 . S
C4060 C4058 1.384 . S
C4060 C4061 1.372 . S
C4061 C4060 1.372 . S
C4061 C4062 1.400 . S
C4061 C4066 1.490 . S
C4062 H4052 0.930 . S
C4062 C4061 1.400 . S
C4062 C4065 1.386 . S
H4063 C4079 0.930 . S
H4064 C4080 0.931 . S
C4065 H4053 0.929 . S
C4065 C4059 1.390 . S
C4065 C4062 1.386 . S
C4066 C4061 1.490 . S
C4066 C4068 1.395 . S
C4066 C4069 1.403 . S
H4067 C4073 0.930 . S
C4068 H4054 0.930 . S
C4068 C4066 1.395 . S
C4068 C4071 1.403 . S
C4069 C4066 1.403 . S
C4069 C4070 1.524 . S
C4069 C4073 1.400 . S
C4070 H4055 0.960 . S
C4070 H4056 0.960 . S
C4070 H4057 0.960 . S
C4070 C4069 1.524 . S
C4071 C4068 1.403 . S
C4071 C4072 1.392 . S
C4071 C4075 1.495 . S
C4072 C4071 1.392 . S
C4072 C4073 1.385 . S
C4072 C4074 1.478 . S
C4073 H4067 0.930 . S
C4073 C4069 1.400 . S
C4073 C4072 1.385 . S
C4074 C4072 1.478 . S
C4074 C4076 1.381 1_655 S
C4074 C4080 1.383 . S
C4075 C4071 1.495 . S
C4075 H4081 0.959 . S
C4075 H4082 0.961 . S
C4075 H4083 0.960 1_655 S
C4076 C4074 1.381 1_455 S
C4076 C4077 1.394 . S
C4076 H4084 0.930 . S
C4077 C4076 1.394 . S
C4077 C4078 1.383 1_455 S
C4077 H4085 0.929 . S
C4078 C4077 1.383 1_655 S
C4078 C4079 1.377 . S
C4079 H4063 0.930 . S
C4079 C4078 1.377 . S
C4079 C4080 1.379 . S
C4080 H4064 0.931 . S
C4080 C4074 1.383 . S
C4080 C4079 1.379 . S
H4081 C4075 0.959 . S
H4082 C4075 0.961 . S
H4083 C4075 0.960 1_455 S
H4084 C4076 0.930 . S
H4085 C4077 0.929 . S
H4086 C4094 0.929 . S
H4087 C4096 0.930 . S
H4088 C4098 0.930 . S
H4089 C4101 0.929 . S
H4090 C4104 0.930 . S
H4091 C4106 0.960 . S
H4092 C4106 0.960 . S
H4093 C4106 0.960 . S
C4094 H4086 0.929 . S
C4094 C4095 1.377 . S
C4094 C4096 1.384 . S
C4095 C4094 1.377 . S
C4095 C4101 1.390 . S
C4096 H4087 0.930 . S
C4096 C4094 1.384 . S
C4096 C4097 1.372 . S
C4097 C4096 1.372 . S
C4097 C4098 1.400 . S
C4097 C4102 1.490 . S
C4098 H4088 0.930 . S
C4098 C4097 1.400 . S
C4098 C4101 1.386 . S
H4099 C4115 0.930 . S
H4100 C4116 0.931 . S
C4101 H4089 0.929 . S
C4101 C4095 1.390 . S
C4101 C4098 1.386 . S
C4102 C4097 1.490 . S
C4102 C4104 1.395 . S
C4102 C4105 1.403 . S
H4103 C4109 0.930 . S
C4104 H4090 0.930 . S
C4104 C4102 1.395 . S
C4104 C4107 1.403 . S
C4105 C4102 1.403 . S
C4105 C4106 1.524 . S
C4105 C4109 1.400 . S
C4106 H4091 0.960 . S
C4106 H4092 0.960 . S
C4106 H4093 0.960 . S
C4106 C4105 1.524 . S
C4107 C4104 1.403 . S
C4107 C4108 1.392 . S
C4107 C4111 1.495 . S
C4108 C4107 1.392 . S
C4108 C4109 1.385 . S
C4108 C4110 1.478 . S
C4109 H4103 0.930 . S
C4109 C4105 1.400 . S
C4109 C4108 1.385 . S
C4110 C4108 1.478 . S
C4110 C4112 1.381 . S
C4110 C4116 1.383 . S
C4111 C4107 1.495 . S
C4111 H4117 0.959 . S
C4111 H4118 0.961 . S
C4111 H4119 0.960 . S
C4112 C4110 1.381 . S
C4112 C4113 1.394 . S
C4112 H4120 0.930 . S
C4113 C4112 1.394 . S
C4113 C4114 1.383 . S
C4113 H4121 0.929 . S
C4114 C4113 1.383 . S
C4114 C4115 1.377 . S
C4115 H4099 0.930 . S
C4115 C4114 1.377 . S
C4115 C4116 1.379 . S
C4116 H4100 0.931 . S
C4116 C4110 1.383 . S
C4116 C4115 1.379 . S
H4117 C4111 0.959 . S
H4118 C4111 0.961 . S
H4119 C4111 0.960 . S
H4120 C4112 0.930 . S
H4121 C4113 0.929 . S
H4122 C4130 0.929 . S
H4123 C4132 0.930 . S
H4124 C4134 0.930 . S
H4125 C4137 0.929 . S
H4126 C4140 0.930 . S
H4127 C4142 0.960 . S
H4128 C4142 0.960 . S
H4129 C4142 0.960 . S
C4130 H4122 0.929 . S
C4130 C4131 1.377 . S
C4130 C4132 1.384 . S
C4131 C4130 1.377 . S
C4131 C4137 1.390 . S
C4132 H4123 0.930 . S
C4132 C4130 1.384 . S
C4132 C4133 1.372 . S
C4133 C4132 1.372 . S
C4133 C4134 1.400 . S
C4133 C4138 1.490 . S
C4134 H4124 0.930 . S
C4134 C4133 1.400 . S
C4134 C4137 1.386 . S
H4135 C4151 0.930 . S
H4136 C4152 0.931 . S
C4137 H4125 0.929 . S
C4137 C4131 1.390 . S
C4137 C4134 1.386 . S
C4138 C4133 1.490 . S
C4138 C4140 1.395 . S
C4138 C4141 1.403 . S
H4139 C4145 0.930 . S
C4140 H4126 0.930 . S
C4140 C4138 1.395 . S
C4140 C4143 1.403 . S
C4141 C4138 1.403 . S
C4141 C4142 1.524 . S
C4141 C4145 1.400 . S
C4142 H4127 0.960 . S
C4142 H4128 0.960 . S
C4142 H4129 0.960 . S
C4142 C4141 1.524 . S
C4143 C4140 1.403 . S
C4143 C4144 1.392 . S
C4143 C4147 1.495 . S
C4144 C4143 1.392 . S
C4144 C4145 1.385 . S
C4144 C4146 1.478 . S
C4145 H4139 0.930 . S
C4145 C4141 1.400 . S
C4145 C4144 1.385 . S
C4146 C4144 1.478 . S
C4146 C4148 1.381 . S
C4146 C4152 1.383 1_545 S
C4147 C4143 1.495 . S
C4147 H4153 0.959 . S
C4147 H4154 0.961 . S
C4147 H4155 0.960 . S
C4148 C4146 1.381 . S
C4148 C4149 1.394 . S
C4148 H4156 0.930 . S
C4149 C4148 1.394 . S
C4149 C4150 1.383 . S
C4149 H4157 0.929 . S
C4150 C4149 1.383 . S
C4150 C4151 1.377 1_545 S
C4151 H4135 0.930 . S
C4151 C4150 1.377 1_565 S
C4151 C4152 1.379 . S
C4152 H4136 0.931 . S
C4152 C4146 1.383 1_565 S
C4152 C4151 1.379 . S
H4153 C4147 0.959 . S
H4154 C4147 0.961 . S
H4155 C4147 0.960 . S
H4156 C4148 0.930 . S
H4157 C4149 0.929 . S
C1575 C10 1.078 1_655 S
C1594 C963 1.069 . S
C1611 C23 1.590 . S
C1630 C1043 1.572 . S
C1666 C1111 1.352 . S
C1647 C29 1.381 . S
C1683 C30 1.857 . S
C1702 C1191 1.822 . S
C1719 C5 1.594 . S
C1738 C1265 1.572 . S
C1755 C18 1.583 . S
C1774 C1333 1.528 . S
C1791 C49 1.049 . S
C1810 C1259 0.964 . S
C1846 C1339 1.480 . S
C1827 C62 1.492 . S
C1882 C1185 1.295 . S
C1863 C70 1.316 1_556 S
C1899 C75 1.805 . S
C1918 C1117 1.804 . S
C1954 C969 1.565 1_455 S
C1935 C44 1.524 . S
C1971 C57 1.451 . S
C1990 C1037 1.428 . S
C2007 C88 1.268 . S
C2026 C1407 1.242 . S
C2043 C101 1.625 . S
C2062 C1487 1.574 . S
C2098 C1555 1.457 . S
C2079 C107 1.517 . S
C2115 C108 1.969 . S
C2134 C303 1.913 . S
C2151 C83 1.710 . S
C2170 C377 1.650 . S
C2187 C96 1.600 . S
C2206 C445 1.534 . S
C2223 C127 1.051 . S
C2242 C371 1.025 . S
C2259 C140 1.524 . S
C2278 C451 1.526 . S
C2314 C297 1.351 . S
C2295 C146 1.380 . S
C2350 C1561 1.896 . S
C2331 C147 1.922 . S
C2386 C1413 1.579 . S
C2367 C122 1.586 . S
C2422 C1481 1.471 . S
C2403 C135 1.499 . S
C2439 C160 1.195 . S
C2458 C519 1.105 . S
C2475 C173 1.631 . S
C2494 C599 1.586 . S
C2511 C185 1.520 . S
C2530 C667 1.484 . S
C2547 C186 2.029 . S
C2566 C747 1.961 . S
C2602 C821 1.639 . S
C2583 C159 1.699 . S
C2638 C889 1.570 . S
C2619 C172 1.640 . S
C2674 C815 1.076 . S
C2655 C205 1.124 . S
C2710 C895 1.515 . S
C2691 C218 1.514 . S
C2727 C224 1.371 . S
C2746 C741 1.346 . S
C2782 C673 1.852 . S
C2763 C225 1.861 . S
C2799 C200 1.602 . S
C2818 C525 1.588 . S
C2854 C593 1.453 . S
C2835 C213 1.460 . S
C2890 C273 1.949 . S
C2871 C4 1.999 . S
C2907 C17 1.447 . S
C2926 C347 1.435 . S
C2962 C433 1.441 . S
C2943 C31 1.437 . S
C2998 C507 1.125 . S
C2979 C36 1.131 1_556 S
C3034 C569 1.591 . S
C3015 C3 1.621 1_556 S
C3070 C655 1.520 . S
C3051 C16 1.524 . S
C3087 C43 2.115 . S
C3106 C643 2.040 . S
C3123 C56 1.569 . S
C3142 C495 1.540 . S
C3159 C68 1.584 . S
C3178 C581 1.571 . S
C3195 C69 1.291 . S
C3214 C359 1.246 . S
C3250 C421 1.664 . S
C3231 C42 1.743 . S
C3267 C55 1.672 . S
C3286 C285 1.656 . S
C3322 C717 1.937 . S
C3303 C82 1.991 . S
C3339 C95 1.619 . S
C3358 C791 1.521 . S
C3375 C109 1.478 . S
C3394 C877 1.463 . S
C3430 C951 1.034 . S
C3411 C114 1.031 . S
C3447 C81 1.600 . S
C3466 C1013 1.572 . S
C3483 C94 1.462 . S
C3502 C1099 1.468 . S
C3519 C121 1.961 . S
C3538 C1087 1.847 1_565 S
C3555 C134 1.479 . S
C3574 C939 1.420 . S
C3610 C1025 1.510 . S
C3591 C148 1.554 . S
C3627 C153 1.284 . S
C3646 C803 1.264 . S
C3663 C120 1.794 1_545 S
C3682 C865 1.750 . S
C3718 C729 1.706 . S
C3699 C133 1.739 1_655 S
C3754 C1161 1.873 . S
C3735 C166 1.905 . S
C3771 C179 1.404 . S
C3790 C1235 1.392 . S
C3807 C187 1.424 . S
C3826 C1321 1.422 . S
C3862 C1395 1.130 . S
C3843 C192 1.123 . S
C3898 C1457 1.642 . S
C3879 C161 1.672 1_565 S
C3915 C174 1.594 1_455 S
C3934 C1543 1.593 . S
C3951 C199 2.106 . S
C3970 C1531 2.016 . S
C3987 C212 1.640 1_565 S
C4006 C1383 1.609 . S
C4042 C1469 1.583 . S
C4023 C226 1.616 . S
C4078 C1247 1.086 . S
C4059 C231 1.116 . S
C4114 C1309 1.642 . S
C4095 C198 1.719 . S
C4131 C211 1.534 . S
C4150 C1173 1.521 . S
